# Generated by pormake.
# Topology wgt, (5)-cn, num edge types: 1
# Building blocks:
#     Node 0, Type 0, BuildingBlock: BEQFEK_clean_sbu_0, # of connection points: 5
#     Node 1, Type 0, BuildingBlock: BEQFEK_clean_sbu_0, # of connection points: 5
#     Node 2, Type 0, BuildingBlock: BEQFEK_clean_sbu_0, # of connection points: 5
#     Node 3, Type 0, BuildingBlock: BEQFEK_clean_sbu_0, # of connection points: 5
#     Node 4, Type 0, BuildingBlock: BEQFEK_clean_sbu_0, # of connection points: 5
#     Node 5, Type 0, BuildingBlock: BEQFEK_clean_sbu_0, # of connection points: 5
#     Node 6, Type 0, BuildingBlock: BEQFEK_clean_sbu_0, # of connection points: 5
#     Node 7, Type 0, BuildingBlock: BEQFEK_clean_sbu_0, # of connection points: 5
#     Node 8, Type 0, BuildingBlock: BEQFEK_clean_sbu_0, # of connection points: 5
#     Node 9, Type 0, BuildingBlock: BEQFEK_clean_sbu_0, # of connection points: 5
#     Node 10, Type 0, BuildingBlock: BEQFEK_clean_sbu_0, # of connection points: 5
#     Node 11, Type 0, BuildingBlock: BEQFEK_clean_sbu_0, # of connection points: 5
#     Node 12, Type 0, BuildingBlock: BEQFEK_clean_sbu_0, # of connection points: 5
#     Node 13, Type 0, BuildingBlock: BEQFEK_clean_sbu_0, # of connection points: 5
#     Node 14, Type 0, BuildingBlock: BEQFEK_clean_sbu_0, # of connection points: 5
#     Node 15, Type 0, BuildingBlock: BEQFEK_clean_sbu_0, # of connection points: 5
#     Edge 16, Type (0, 0), BuildingBlock: MIFKUJ_clean_linker_0, # of connection points: 2
#     Edge 17, Type (0, 0), BuildingBlock: MIFKUJ_clean_linker_0, # of connection points: 2
#     Edge 18, Type (0, 0), BuildingBlock: MIFKUJ_clean_linker_0, # of connection points: 2
#     Edge 19, Type (0, 0), BuildingBlock: MIFKUJ_clean_linker_0, # of connection points: 2
#     Edge 20, Type (0, 0), BuildingBlock: MIFKUJ_clean_linker_0, # of connection points: 2
#     Edge 21, Type (0, 0), BuildingBlock: MIFKUJ_clean_linker_0, # of connection points: 2
#     Edge 22, Type (0, 0), BuildingBlock: MIFKUJ_clean_linker_0, # of connection points: 2
#     Edge 23, Type (0, 0), BuildingBlock: MIFKUJ_clean_linker_0, # of connection points: 2
#     Edge 24, Type (0, 0), BuildingBlock: MIFKUJ_clean_linker_0, # of connection points: 2
#     Edge 25, Type (0, 0), BuildingBlock: MIFKUJ_clean_linker_0, # of connection points: 2
#     Edge 26, Type (0, 0), BuildingBlock: MIFKUJ_clean_linker_0, # of connection points: 2
#     Edge 27, Type (0, 0), BuildingBlock: MIFKUJ_clean_linker_0, # of connection points: 2
#     Edge 28, Type (0, 0), BuildingBlock: MIFKUJ_clean_linker_0, # of connection points: 2
#     Edge 29, Type (0, 0), BuildingBlock: MIFKUJ_clean_linker_0, # of connection points: 2
#     Edge 30, Type (0, 0), BuildingBlock: MIFKUJ_clean_linker_0, # of connection points: 2
#     Edge 31, Type (0, 0), BuildingBlock: MIFKUJ_clean_linker_0, # of connection points: 2
#     Edge 32, Type (0, 0), BuildingBlock: MIFKUJ_clean_linker_0, # of connection points: 2
#     Edge 33, Type (0, 0), BuildingBlock: MIFKUJ_clean_linker_0, # of connection points: 2
#     Edge 34, Type (0, 0), BuildingBlock: MIFKUJ_clean_linker_0, # of connection points: 2
#     Edge 35, Type (0, 0), BuildingBlock: MIFKUJ_clean_linker_0, # of connection points: 2
#     Edge 36, Type (0, 0), BuildingBlock: MIFKUJ_clean_linker_0, # of connection points: 2
#     Edge 37, Type (0, 0), BuildingBlock: MIFKUJ_clean_linker_0, # of connection points: 2
#     Edge 38, Type (0, 0), BuildingBlock: MIFKUJ_clean_linker_0, # of connection points: 2
#     Edge 39, Type (0, 0), BuildingBlock: MIFKUJ_clean_linker_0, # of connection points: 2
#     Edge 40, Type (0, 0), BuildingBlock: MIFKUJ_clean_linker_0, # of connection points: 2
#     Edge 41, Type (0, 0), BuildingBlock: MIFKUJ_clean_linker_0, # of connection points: 2
#     Edge 42, Type (0, 0), BuildingBlock: MIFKUJ_clean_linker_0, # of connection points: 2
#     Edge 43, Type (0, 0), BuildingBlock: MIFKUJ_clean_linker_0, # of connection points: 2
#     Edge 44, Type (0, 0), BuildingBlock: MIFKUJ_clean_linker_0, # of connection points: 2
#     Edge 45, Type (0, 0), BuildingBlock: MIFKUJ_clean_linker_0, # of connection points: 2
#     Edge 46, Type (0, 0), BuildingBlock: MIFKUJ_clean_linker_0, # of connection points: 2
#     Edge 47, Type (0, 0), BuildingBlock: MIFKUJ_clean_linker_0, # of connection points: 2
#     Edge 48, Type (0, 0), BuildingBlock: MIFKUJ_clean_linker_0, # of connection points: 2
#     Edge 49, Type (0, 0), BuildingBlock: MIFKUJ_clean_linker_0, # of connection points: 2
#     Edge 50, Type (0, 0), BuildingBlock: MIFKUJ_clean_linker_0, # of connection points: 2
#     Edge 51, Type (0, 0), BuildingBlock: MIFKUJ_clean_linker_0, # of connection points: 2
#     Edge 52, Type (0, 0), BuildingBlock: MIFKUJ_clean_linker_0, # of connection points: 2
#     Edge 53, Type (0, 0), BuildingBlock: MIFKUJ_clean_linker_0, # of connection points: 2
#     Edge 54, Type (0, 0), BuildingBlock: MIFKUJ_clean_linker_0, # of connection points: 2
#     Edge 55, Type (0, 0), BuildingBlock: MIFKUJ_clean_linker_0, # of connection points: 2
# Relax obj value: 0.140
# Max RMSD: 0.186
# Mean RMSD: 0.186
data_MOF--net-wgt--node1-BEQFEK_clean_sbu_0--edge1-MIFKUJ_clean_linker_0
_symmetry_space_group_name_H-M    P1
_symmetry_Int_Tables_number       1
_symmetry_cell_setting            triclinic
loop_
_symmetry_equiv_pos_as_xyz
'x, y, z'
_cell_length_a     37.393202
_cell_length_b     37.375884
_cell_length_c     93.755158
_cell_angle_alpha  90.002764
_cell_angle_beta   90.003212
_cell_angle_gamma 90.014884
loop_
_atom_site_label
_atom_site_type_symbol
_atom_site_fract_x
_atom_site_fract_y
_atom_site_fract_z
_atom_type_partial_charge
Co0 Co 0.1766 0.30849 0.02971 0.0
Co1 Co 0.17824 0.30559 0.9962 0.0
C2 C 0.14294 0.24826 0.01288 0.0
O3 O 0.15095 0.26402 0.02449 0.0
O4 O 0.15258 0.26094 0.00087 0.0
C5 C 0.19687 0.27994 0.05644 0.0
O6 O 0.20562 0.25251 0.0484 0.0
C7 C 0.18785 0.28228 0.96642 0.0
C8 C 0.19314 0.33422 0.95532 0.0
C9 C 0.1924 0.29762 0.95305 0.0
N10 N 0.18626 0.30869 0.97614 0.0
N11 N 0.18958 0.33962 0.96944 0.0
C12 C 0.1817 0.2437 0.96992 0.0
H13 H 0.1532 0.24008 0.97285 0.0
H14 H 0.19812 0.23609 0.9793 0.0
H15 H 0.18771 0.22578 0.96083 0.0
C16 C 0.2545 0.31805 0.0251 0.0
N17 N 0.22107 0.31262 0.02022 0.0
N18 N 0.22202 0.30941 0.00625 0.0
C19 C 0.25625 0.31154 0.00183 0.0
C20 C 0.27798 0.31734 0.01363 0.0
C21 C 0.2635 0.32619 0.04032 0.0
H22 H 0.24163 0.34176 0.04533 0.0
H23 H 0.26685 0.30073 0.04625 0.0
H24 H 0.28877 0.34165 0.0411 0.0
O25 O 0.14529 0.3489 0.02479 0.0
O26 O 0.14591 0.34597 0.00112 0.0
H27 H 0.26239 0.33006 0.98041 0.0
H28 H 0.2968 0.29918 0.98605 0.0
C29 C 0.2679 0.30559 0.98674 0.0
H30 H 0.25253 0.28316 0.98204 0.0
H31 H 0.18888 0.36448 0.97451 0.0
O32 O 0.18356 0.3076 0.05062 0.0
C33 C 0.13495 0.36025 0.01267 0.0
Co34 Co 0.69737 0.67518 0.28022 0.0
Co35 Co 0.69041 0.67794 0.24678 0.0
C36 C 0.74918 0.63718 0.26076 0.0
O37 O 0.73813 0.64603 0.27313 0.0
O38 O 0.73358 0.64835 0.24954 0.0
C39 C 0.69607 0.65978 0.31034 0.0
O40 O 0.6834 0.62859 0.30632 0.0
C41 C 0.70728 0.68723 0.2163 0.0
C42 C 0.65394 0.69883 0.20728 0.0
C43 C 0.68961 0.69475 0.20362 0.0
N44 N 0.6831 0.68667 0.22692 0.0
N45 N 0.65127 0.69352 0.22144 0.0
C46 C 0.74671 0.6835 0.21857 0.0
H47 H 0.75412 0.69321 0.22936 0.0
H48 H 0.76189 0.69872 0.2104 0.0
H49 H 0.7541 0.65482 0.21777 0.0
C50 C 0.69017 0.75325 0.27639 0.0
N51 N 0.69387 0.72005 0.27102 0.0
N52 N 0.69282 0.72158 0.25702 0.0
C53 C 0.68958 0.75604 0.25298 0.0
C54 C 0.68739 0.7773 0.26514 0.0
C55 C 0.68555 0.76095 0.29196 0.0
H56 H 0.66824 0.74024 0.29687 0.0
H57 H 0.71205 0.75996 0.29726 0.0
H58 H 0.67329 0.78756 0.2938 0.0
O59 O 0.65319 0.64752 0.27709 0.0
O60 O 0.64897 0.64909 0.25345 0.0
H61 H 0.66288 0.76384 0.23307 0.0
H62 H 0.69657 0.79714 0.23694 0.0
C63 C 0.68972 0.76834 0.23779 0.0
H64 H 0.70954 0.75272 0.2316 0.0
H65 H 0.62773 0.69482 0.2274 0.0
O66 O 0.70409 0.68291 0.30094 0.0
C67 C 0.63734 0.63887 0.26557 0.0
Co68 Co 0.31429 0.19147 0.52812 0.0
Co69 Co 0.3196 0.19537 0.4946 0.0
C70 C 0.35198 0.25161 0.51328 0.0
O71 O 0.34083 0.23611 0.52452 0.0
O72 O 0.34555 0.2388 0.50095 0.0
C73 C 0.32375 0.20004 0.55829 0.0
O74 O 0.35552 0.21199 0.55467 0.0
C75 C 0.3126 0.22026 0.46446 0.0
C76 C 0.3132 0.16824 0.45326 0.0
C77 C 0.31076 0.20476 0.45099 0.0
N78 N 0.31558 0.19394 0.47422 0.0
N79 N 0.31594 0.16299 0.46741 0.0
C80 C 0.31296 0.25937 0.46792 0.0
H81 H 0.32691 0.26444 0.4781 0.0
H82 H 0.28505 0.26903 0.46899 0.0
H83 H 0.32623 0.27478 0.45929 0.0
C84 C 0.23773 0.18611 0.52118 0.0
N85 N 0.2721 0.18935 0.51718 0.0
N86 N 0.2738 0.19199 0.5032 0.0
C87 C 0.24035 0.19092 0.49785 0.0
C88 C 0.21639 0.18712 0.50908 0.0
C89 C 0.22597 0.18059 0.53629 0.0
H90 H 0.2428 0.15969 0.54133 0.0
H91 H 0.22974 0.20583 0.54234 0.0
H92 H 0.19755 0.17224 0.53695 0.0
O93 O 0.346 0.15094 0.52371 0.0
O94 O 0.34942 0.15348 0.50008 0.0
H95 H 0.24129 0.1723 0.4763 0.0
H96 H 0.20252 0.1992 0.48058 0.0
C97 C 0.23161 0.19583 0.48239 0.0
H98 H 0.24562 0.21983 0.47831 0.0
H99 H 0.31816 0.13818 0.47244 0.0
O100 O 0.30226 0.18978 0.54863 0.0
C101 C 0.35797 0.13906 0.51192 0.0
Co102 Co 0.81776 0.81601 0.77892 0.0
Co103 Co 0.80993 0.82547 0.7456 0.0
C104 C 0.75798 0.85874 0.76581 0.0
O105 O 0.77447 0.8459 0.77655 0.0
O106 O 0.76836 0.85235 0.75312 0.0
C107 C 0.81832 0.8249 0.80907 0.0
O108 O 0.81313 0.85856 0.8056 0.0
C109 C 0.7821 0.82144 0.71581 0.0
C110 C 0.83269 0.82668 0.70382 0.0
C111 C 0.79612 0.82276 0.70206 0.0
N112 N 0.80931 0.82423 0.72518 0.0
N113 N 0.83939 0.82732 0.7179 0.0
C114 C 0.74353 0.81928 0.72 0.0
H115 H 0.73947 0.82928 0.73098 0.0
H116 H 0.73475 0.79095 0.71967 0.0
H117 H 0.72675 0.83486 0.71247 0.0
C118 C 0.81972 0.74013 0.77034 0.0
N119 N 0.81649 0.77507 0.76714 0.0
N120 N 0.81268 0.77867 0.75326 0.0
C121 C 0.81318 0.74598 0.74718 0.0
C122 C 0.8178 0.72069 0.75781 0.0
C123 C 0.82446 0.72581 0.78512 0.0
H124 H 0.8012 0.73375 0.79174 0.0
H125 H 0.82699 0.69621 0.78517 0.0
H126 H 0.84873 0.73785 0.78996 0.0
O127 O 0.85956 0.84614 0.77429 0.0
O128 O 0.85312 0.85316 0.75091 0.0
H129 H 0.83168 0.75361 0.72583 0.0
H130 H 0.81201 0.71013 0.72904 0.0
C131 C 0.8101 0.73911 0.73152 0.0
H132 H 0.78409 0.74945 0.72764 0.0
H133 H 0.86459 0.83006 0.72256 0.0
O134 O 0.82118 0.8017 0.79923 0.0
C135 C 0.86985 0.85944 0.76248 0.0
Co136 Co 0.81667 0.31471 0.53224 0.0
Co137 Co 0.81162 0.31333 0.49873 0.0
C138 C 0.85258 0.25782 0.51419 0.0
O139 O 0.84495 0.27234 0.52611 0.0
O140 O 0.84064 0.27042 0.5025 0.0
C141 C 0.8011 0.28422 0.5593 0.0
O142 O 0.79325 0.25623 0.55142 0.0
C143 C 0.80377 0.29269 0.46844 0.0
C144 C 0.78403 0.34313 0.459 0.0
C145 C 0.79331 0.30826 0.45566 0.0
N146 N 0.80103 0.31735 0.47884 0.0
N147 N 0.78929 0.34744 0.4731 0.0
C148 C 0.8138 0.25447 0.47096 0.0
H149 H 0.8034 0.24543 0.48143 0.0
H150 H 0.80307 0.23686 0.46244 0.0
H151 H 0.84338 0.2522 0.4711 0.0
C152 C 0.738 0.32002 0.52898 0.0
N153 N 0.7711 0.31627 0.52352 0.0
N154 N 0.76884 0.31309 0.50958 0.0
C155 C 0.73411 0.313 0.50577 0.0
C156 C 0.71331 0.31783 0.51793 0.0
C157 C 0.73058 0.32889 0.54427 0.0
H158 H 0.75275 0.34505 0.54876 0.0
H159 H 0.72828 0.30374 0.55048 0.0
H160 H 0.70525 0.34411 0.54537 0.0
O161 O 0.84435 0.3575 0.52723 0.0
O162 O 0.84194 0.35551 0.50357 0.0
H163 H 0.7213 0.33142 0.4848 0.0
H164 H 0.69369 0.29491 0.49092 0.0
C165 C 0.72121 0.30601 0.49091 0.0
H166 H 0.7392 0.28672 0.48552 0.0
H167 H 0.78472 0.37091 0.47885 0.0
O168 O 0.81196 0.31264 0.55326 0.0
C169 C 0.85289 0.37002 0.51508 0.0
Co170 Co 0.68011 0.32598 0.78212 0.0
Co171 Co 0.6875 0.31887 0.74889 0.0
C172 C 0.74041 0.36029 0.76501 0.0
O173 O 0.72294 0.35432 0.77645 0.0
O174 O 0.73066 0.34688 0.75316 0.0
C175 C 0.70854 0.31144 0.80943 0.0
O176 O 0.7364 0.30213 0.80174 0.0
C177 C 0.71023 0.30821 0.71892 0.0
C178 C 0.65982 0.28876 0.70934 0.0
C179 C 0.69508 0.29683 0.70616 0.0
N180 N 0.68493 0.30699 0.72912 0.0
N181 N 0.65488 0.29546 0.72329 0.0
C182 C 0.74848 0.31765 0.72169 0.0
H183 H 0.75653 0.30823 0.73244 0.0
H184 H 0.76639 0.30555 0.71358 0.0
H185 H 0.75148 0.34718 0.72137 0.0
C186 C 0.67557 0.24706 0.77964 0.0
N187 N 0.68005 0.27982 0.77394 0.0
N188 N 0.6853 0.2767 0.76013 0.0
C189 C 0.68588 0.24172 0.75667 0.0
C190 C 0.67932 0.22171 0.7689 0.0
C191 C 0.66496 0.24044 0.79481 0.0
H192 H 0.6483 0.26281 0.79882 0.0
H193 H 0.68937 0.23852 0.80149 0.0
H194 H 0.64974 0.21507 0.79583 0.0
O195 O 0.63729 0.35218 0.77605 0.0
O196 O 0.64562 0.35052 0.75256 0.0
H197 H 0.67064 0.22739 0.73546 0.0
H198 H 0.70621 0.20035 0.74273 0.0
C199 C 0.69511 0.22783 0.74215 0.0
H200 H 0.7151 0.24555 0.73703 0.0
H201 H 0.63102 0.29197 0.72889 0.0
O202 O 0.68061 0.32275 0.80318 0.0
C203 C 0.62813 0.36093 0.76346 0.0
Co204 Co 0.6796 0.18627 0.03085 0.0
Co205 Co 0.6771 0.18546 0.99733 0.0
C206 C 0.64058 0.24268 0.01429 0.0
O207 O 0.65098 0.22918 0.02607 0.0
O208 O 0.64927 0.22873 0.00238 0.0
C209 C 0.66994 0.19954 0.06099 0.0
O210 O 0.63949 0.21414 0.05712 0.0
C211 C 0.68548 0.20992 0.96775 0.0
C212 C 0.68861 0.15862 0.95609 0.0
C213 C 0.6894 0.19537 0.95423 0.0
N214 N 0.68248 0.18297 0.97716 0.0
N215 N 0.68413 0.15238 0.97012 0.0
C216 C 0.68697 0.24855 0.97188 0.0
H217 H 0.69782 0.25139 0.98284 0.0
H218 H 0.70372 0.26397 0.96428 0.0
H219 H 0.65948 0.25972 0.97173 0.0
C220 C 0.75723 0.18416 0.02489 0.0
N221 N 0.72299 0.18521 0.02049 0.0
N222 N 0.72216 0.18481 0.00646 0.0
C223 C 0.75592 0.1833 0.00147 0.0
C224 C 0.77924 0.18278 0.01299 0.0
C225 C 0.76841 0.18615 0.04021 0.0
H226 H 0.75444 0.20875 0.04547 0.0
H227 H 0.79768 0.18997 0.04135 0.0
H228 H 0.76034 0.16113 0.04571 0.0
O229 O 0.64993 0.14356 0.02668 0.0
O230 O 0.64848 0.14347 0.00301 0.0
H231 H 0.75062 0.15762 0.98122 0.0
H232 H 0.79443 0.17581 0.98438 0.0
C233 C 0.76542 0.18032 0.98601 0.0
H234 H 0.75728 0.20515 0.98041 0.0
H235 H 0.68258 0.12724 0.97492 0.0
O236 O 0.69035 0.18624 0.05154 0.0
C237 C 0.63942 0.12999 0.01494 0.0
Co238 Co 0.81543 0.17707 0.28208 0.0
Co239 Co 0.8091 0.17288 0.24858 0.0
C240 C 0.75585 0.13704 0.26704 0.0
O241 O 0.7728 0.14681 0.27817 0.0
O242 O 0.76594 0.14663 0.25465 0.0
C243 C 0.78753 0.1966 0.30921 0.0
O244 O 0.75784 0.19995 0.30184 0.0
C245 C 0.78476 0.18075 0.2184 0.0
C246 C 0.83686 0.17904 0.20731 0.0
C247 C 0.80043 0.18212 0.20494 0.0
N248 N 0.81089 0.17732 0.22821 0.0
N249 N 0.84189 0.17637 0.22146 0.0
C250 C 0.74566 0.18126 0.22182 0.0
H251 H 0.74037 0.16891 0.23231 0.0
H252 H 0.73629 0.2094 0.22224 0.0
H253 H 0.73019 0.16695 0.21348 0.0
C254 C 0.8196 0.25447 0.27536 0.0
N255 N 0.81535 0.22007 0.27141 0.0
N256 N 0.81272 0.21842 0.25742 0.0
C257 C 0.81509 0.25178 0.25204 0.0
C258 C 0.81964 0.27563 0.26322 0.0
C259 C 0.82583 0.26659 0.29037 0.0
H260 H 0.84443 0.24796 0.29582 0.0
H261 H 0.80003 0.26641 0.29621 0.0
H262 H 0.83709 0.29405 0.29071 0.0
O263 O 0.85817 0.14848 0.27735 0.0
O264 O 0.85028 0.14219 0.25395 0.0
H265 H 0.83536 0.24956 0.23075 0.0
H266 H 0.81063 0.28995 0.23469 0.0
C267 C 0.81198 0.26066 0.23652 0.0
H268 H 0.7875 0.24813 0.23214 0.0
H269 H 0.86658 0.17367 0.22654 0.0
O270 O 0.816 0.1872 0.30283 0.0
C271 C 0.86736 0.13531 0.26538 0.0
Co272 Co 0.67344 0.81373 0.52828 0.0
Co273 Co 0.67004 0.81452 0.4948 0.0
C274 C 0.63747 0.75525 0.51216 0.0
O275 O 0.64736 0.76916 0.52392 0.0
O276 O 0.64519 0.76978 0.50026 0.0
C277 C 0.6638 0.80253 0.55848 0.0
O278 O 0.63363 0.78726 0.55467 0.0
C279 C 0.68306 0.78767 0.46597 0.0
C280 C 0.67275 0.83549 0.45275 0.0
C281 C 0.68217 0.79965 0.45193 0.0
N282 N 0.67441 0.81509 0.47457 0.0
N283 N 0.66822 0.84358 0.46661 0.0
C284 C 0.69387 0.75161 0.47138 0.0
H285 H 0.70433 0.7538 0.48243 0.0
H286 H 0.71448 0.73951 0.46436 0.0
H287 H 0.67009 0.73387 0.47158 0.0
C288 C 0.75075 0.81973 0.52202 0.0
N289 N 0.7165 0.81708 0.51774 0.0
N290 N 0.71518 0.81902 0.50375 0.0
C291 C 0.74851 0.82409 0.49867 0.0
C292 C 0.77227 0.8246 0.51008 0.0
C293 C 0.76249 0.81537 0.53719 0.0
H294 H 0.7468 0.79378 0.54235 0.0
H295 H 0.7913 0.80859 0.53795 0.0
H296 H 0.75741 0.84065 0.54306 0.0
O297 O 0.64098 0.85442 0.52395 0.0
O298 O 0.63853 0.85439 0.50028 0.0
H299 H 0.73631 0.8486 0.47858 0.0
H300 H 0.78346 0.84375 0.48198 0.0
C301 C 0.75692 0.8309 0.48329 0.0
H302 H 0.7567 0.80514 0.47741 0.0
H303 H 0.66088 0.86854 0.47065 0.0
O304 O 0.68424 0.81546 0.54896 0.0
C305 C 0.62901 0.86715 0.51228 0.0
Co306 Co 0.18903 0.17705 0.77948 0.0
Co307 Co 0.18864 0.1763 0.74583 0.0
C308 C 0.24434 0.13703 0.76243 0.0
O309 O 0.23108 0.1473 0.77426 0.0
O310 O 0.23087 0.1468 0.75058 0.0
C311 C 0.20845 0.16902 0.80926 0.0
O312 O 0.2283 0.14223 0.80485 0.0
C313 C 0.20962 0.18515 0.71532 0.0
C314 C 0.15625 0.18918 0.70533 0.0
C315 C 0.19247 0.18931 0.70225 0.0
N316 N 0.18455 0.18304 0.72562 0.0
N317 N 0.15278 0.18554 0.71953 0.0
C318 C 0.24901 0.18192 0.71789 0.0
H319 H 0.25456 0.16797 0.72802 0.0
H320 H 0.26084 0.20908 0.71858 0.0
H321 H 0.2621 0.16731 0.709 0.0
C322 C 0.18399 0.2548 0.77411 0.0
N323 N 0.18776 0.22095 0.76944 0.0
N324 N 0.18926 0.22094 0.75542 0.0
C325 C 0.18751 0.25497 0.75072 0.0
C326 C 0.18382 0.27763 0.7624 0.0
C327 C 0.17708 0.26435 0.78938 0.0
H328 H 0.20245 0.26237 0.79547 0.0
H329 H 0.16605 0.29174 0.79048 0.0
H330 H 0.15777 0.24512 0.79405 0.0
O331 O 0.14589 0.14878 0.77532 0.0
O332 O 0.14579 0.14827 0.75163 0.0
H333 H 0.16519 0.25925 0.7298 0.0
H334 H 0.19678 0.2943 0.73412 0.0
C335 C 0.19065 0.26544 0.73536 0.0
H336 H 0.2123 0.24981 0.73026 0.0
H337 H 0.12862 0.18449 0.72509 0.0
O338 O 0.19015 0.18669 0.80027 0.0
C339 C 0.13207 0.1391 0.76353 0.0
Co340 Co 0.82608 0.68461 0.0308 0.0
Co341 Co 0.82498 0.69023 0.99727 0.0
C342 C 0.86348 0.74396 0.01465 0.0
O343 O 0.85519 0.72749 0.02608 0.0
O344 O 0.85253 0.73319 0.00254 0.0
C345 C 0.80592 0.71255 0.05771 0.0
O346 O 0.79818 0.74059 0.04983 0.0
C347 C 0.82667 0.71217 0.96688 0.0
C348 C 0.80098 0.66553 0.95662 0.0
C349 C 0.81611 0.69857 0.95373 0.0
N350 N 0.81746 0.68848 0.97706 0.0
N351 N 0.80241 0.66058 0.97082 0.0
C352 C 0.84859 0.74497 0.96966 0.0
H353 H 0.87173 0.73788 0.97649 0.0
H354 H 0.83209 0.76486 0.97548 0.0
H355 H 0.85894 0.75703 0.95968 0.0
C356 C 0.748 0.67827 0.0259 0.0
N357 N 0.78153 0.68388 0.02115 0.0
N358 N 0.78077 0.68859 0.00724 0.0
C359 C 0.7465 0.68775 0.00279 0.0
C360 C 0.72461 0.68065 0.01444 0.0
C361 C 0.73903 0.66726 0.04084 0.0
H362 H 0.76116 0.65128 0.04545 0.0
H363 H 0.73508 0.69153 0.04747 0.0
H364 H 0.71412 0.65114 0.04114 0.0
O365 O 0.85408 0.64221 0.02555 0.0
O366 O 0.85436 0.6473 0.00194 0.0
H367 H 0.73427 0.67061 0.9816 0.0
H368 H 0.70741 0.70739 0.98778 0.0
C369 C 0.73473 0.69575 0.98787 0.0
H370 H 0.75346 0.71482 0.98275 0.0
H371 H 0.7933 0.63801 0.97627 0.0
O372 O 0.81861 0.68481 0.05173 0.0
C373 C 0.86374 0.6311 0.01331 0.0
Co374 Co 0.31102 0.32402 0.27735 0.0
Co375 Co 0.32087 0.32431 0.24408 0.0
C376 C 0.25989 0.36259 0.25839 0.0
O377 O 0.26925 0.35229 0.2708 0.0
O378 O 0.27746 0.35346 0.24733 0.0
C379 C 0.29221 0.33468 0.30715 0.0
O380 O 0.27754 0.36482 0.30294 0.0
C381 C 0.30178 0.31343 0.21409 0.0
C382 C 0.35485 0.3101 0.2038 0.0
C383 C 0.31849 0.30863 0.20101 0.0
N384 N 0.32712 0.31758 0.22411 0.0
N385 N 0.35878 0.3158 0.21789 0.0
C386 C 0.26263 0.31162 0.21728 0.0
H387 H 0.25829 0.30158 0.22829 0.0
H388 H 0.24865 0.29402 0.20955 0.0
H389 H 0.25111 0.33892 0.21654 0.0
C390 C 0.31408 0.2459 0.27231 0.0
N391 N 0.31438 0.27989 0.26754 0.0
N392 N 0.31849 0.27979 0.25361 0.0
C393 C 0.32108 0.24568 0.24905 0.0
C394 C 0.31842 0.22311 0.26076 0.0
C395 C 0.30832 0.23569 0.28757 0.0
H396 H 0.28482 0.25028 0.29184 0.0
H397 H 0.30381 0.20652 0.28881 0.0
H398 H 0.33207 0.2437 0.2939 0.0
O399 O 0.35464 0.35342 0.27444 0.0
O400 O 0.36189 0.35255 0.25094 0.0
H401 H 0.3333 0.20603 0.23285 0.0
H402 H 0.30463 0.24237 0.22726 0.0
C403 C 0.32806 0.23511 0.23391 0.0
H404 H 0.35161 0.24995 0.22985 0.0
H405 H 0.38307 0.31806 0.22329 0.0
O406 O 0.30716 0.31443 0.29804 0.0
C407 C 0.37178 0.36267 0.26329 0.0
Co408 Co 0.32206 0.8095 0.02777 0.0
Co409 Co 0.32683 0.80827 0.99422 0.0
C410 C 0.36436 0.75368 0.01206 0.0
O411 O 0.35255 0.76743 0.02355 0.0
O412 O 0.35608 0.76656 0.99994 0.0
C413 C 0.32886 0.79279 0.05768 0.0
O414 O 0.35704 0.77443 0.05365 0.0
C415 C 0.32011 0.78357 0.9642 0.0
C416 C 0.32318 0.83518 0.95277 0.0
C417 C 0.32003 0.79865 0.95065 0.0
N418 N 0.32292 0.81011 0.97387 0.0
N419 N 0.32461 0.84084 0.96693 0.0
C420 C 0.31913 0.74458 0.96786 0.0
H421 H 0.32862 0.73978 0.97885 0.0
H422 H 0.29119 0.73479 0.96716 0.0
H423 H 0.33563 0.72903 0.96021 0.0
C424 C 0.24507 0.81306 0.021 0.0
N425 N 0.27941 0.8097 0.01694 0.0
N426 N 0.281 0.80803 0.00294 0.0
C427 C 0.24752 0.80957 0.99763 0.0
C428 C 0.22357 0.81293 0.0089 0.0
C429 C 0.23375 0.81983 0.03609 0.0
H430 H 0.25184 0.83983 0.04102 0.0
H431 H 0.23598 0.7946 0.04227 0.0
H432 H 0.20593 0.82996 0.03674 0.0
O433 O 0.35029 0.85272 0.02371 0.0
O434 O 0.35387 0.85176 1.00006 0.0
H435 H 0.24786 0.83153 0.97657 0.0
H436 H 0.20982 0.80291 0.98021 0.0
C437 C 0.23882 0.80686 0.98208 0.0
H438 H 0.25336 0.78389 0.97742 0.0
H439 H 0.32726 0.86572 0.97187 0.0
O440 O 0.31051 0.80942 0.04839 0.0
C441 C 0.36135 0.86612 0.01204 0.0
Co442 Co 0.19493 0.82047 0.27832 0.0
Co443 Co 0.19346 0.8263 0.24492 0.0
C444 C 0.2523 0.85913 0.26225 0.0
O445 O 0.2384 0.84848 0.2739 0.0
O446 O 0.23811 0.85159 0.25026 0.0
C447 C 0.20844 0.82807 0.30839 0.0
O448 O 0.22257 0.85896 0.30479 0.0
C449 C 0.21534 0.8151 0.21498 0.0
C450 C 0.16575 0.83002 0.20363 0.0
C451 C 0.20067 0.81888 0.20142 0.0
N452 N 0.19013 0.82354 0.22465 0.0
N453 N 0.16054 0.83223 0.21778 0.0
C454 C 0.25308 0.80572 0.21876 0.0
H455 H 0.25921 0.81326 0.22991 0.0
H456 H 0.25677 0.77638 0.21776 0.0
H457 H 0.27204 0.81917 0.21139 0.0
C458 C 0.1897 0.74361 0.27129 0.0
N459 N 0.19233 0.77812 0.26733 0.0
N460 N 0.18993 0.78034 0.25337 0.0
C461 C 0.18454 0.74731 0.24799 0.0
C462 C 0.18428 0.72284 0.25918 0.0
C463 C 0.19417 0.73096 0.28634 0.0
H464 H 0.2162 0.74593 0.29154 0.0
H465 H 0.20041 0.70198 0.28682 0.0
H466 H 0.16916 0.73624 0.29235 0.0
O467 O 0.15258 0.85138 0.27488 0.0
O468 O 0.15384 0.85707 0.25128 0.0
H469 H 0.16367 0.71346 0.23117 0.0
H470 H 0.20208 0.74032 0.22649 0.0
C471 C 0.17671 0.73987 0.23261 0.0
H472 H 0.15883 0.76085 0.22828 0.0
H473 H 0.13691 0.84024 0.22277 0.0
O474 O 0.1952 0.80807 0.29879 0.0
C475 C 0.14028 0.86458 0.26336 0.0
Co476 Co 0.17212 0.6881 0.52711 0.0
Co477 Co 0.1724 0.68056 0.49373 0.0
C478 C 0.13088 0.7384 0.50903 0.0
O479 O 0.14224 0.7292 0.5213 0.0
O480 O 0.14024 0.72156 0.49782 0.0
C481 C 0.16346 0.70858 0.55679 0.0
O482 O 0.13719 0.72895 0.55226 0.0
C483 C 0.18613 0.70321 0.46407 0.0
C484 C 0.18118 0.65177 0.45263 0.0
C485 C 0.18759 0.68793 0.45054 0.0
N486 N 0.17935 0.67717 0.47361 0.0
N487 N 0.17656 0.64651 0.46669 0.0
C488 C 0.18922 0.742 0.46787 0.0
H489 H 0.17848 0.7472 0.47866 0.0
H490 H 0.21781 0.74986 0.46788 0.0
H491 H 0.17489 0.75872 0.45993 0.0
C492 C 0.25019 0.69006 0.52215 0.0
N493 N 0.21634 0.68811 0.51732 0.0
N494 N 0.21674 0.68457 0.50336 0.0
C495 C 0.25098 0.68366 0.49887 0.0
C496 C 0.27328 0.68724 0.51062 0.0
C497 C 0.25992 0.69575 0.53747 0.0
H498 H 0.24339 0.71765 0.54197 0.0
H499 H 0.28859 0.70264 0.53875 0.0
H500 H 0.254 0.67101 0.54357 0.0
O501 O 0.1449 0.64343 0.52334 0.0
O502 O 0.14699 0.63692 0.49982 0.0
H503 H 0.24548 0.65518 0.47915 0.0
H504 H 0.29067 0.66887 0.4831 0.0
C505 C 0.26212 0.67678 0.48378 0.0
H506 H 0.25804 0.70141 0.4774 0.0
H507 H 0.17108 0.62201 0.47157 0.0
O508 O 0.18098 0.68982 0.5479 0.0
C509 C 0.13708 0.62606 0.51207 0.0
Co510 Co 0.31256 0.67686 0.77731 0.0
Co511 Co 0.30156 0.67588 0.74411 0.0
C512 C 0.24968 0.6399 0.7628 0.0
O513 O 0.26854 0.64828 0.77363 0.0
O514 O 0.25814 0.65041 0.75033 0.0
C515 C 0.30224 0.6659 0.80743 0.0
O516 O 0.28537 0.63678 0.8034 0.0
C517 C 0.27445 0.68277 0.71463 0.0
C518 C 0.32527 0.68689 0.70267 0.0
C519 C 0.28851 0.68588 0.70098 0.0
N520 N 0.30181 0.68212 0.72395 0.0
N521 N 0.33204 0.68473 0.71672 0.0
C522 C 0.23623 0.67732 0.71881 0.0
H523 H 0.22959 0.69498 0.72795 0.0
H524 H 0.21764 0.68242 0.70983 0.0
H525 H 0.23269 0.64925 0.72239 0.0
C526 C 0.31928 0.75414 0.77168 0.0
N527 N 0.31276 0.72052 0.76727 0.0
N528 N 0.30682 0.72059 0.75346 0.0
C529 C 0.30831 0.75455 0.74865 0.0
C530 C 0.31656 0.777 0.76004 0.0
C531 C 0.33098 0.76339 0.78651 0.0
H532 H 0.35003 0.74291 0.79044 0.0
H533 H 0.30733 0.76337 0.79366 0.0
H534 H 0.34411 0.78997 0.78695 0.0
O535 O 0.35382 0.64784 0.77152 0.0
O536 O 0.34275 0.64378 0.74826 0.0
H537 H 0.32401 0.75969 0.72684 0.0
H538 H 0.29349 0.79408 0.73282 0.0
C539 C 0.30031 0.76526 0.7336 0.0
H540 H 0.27754 0.74933 0.72949 0.0
H541 H 0.35736 0.68453 0.7214 0.0
O542 O 0.31585 0.68632 0.79805 0.0
C543 C 0.36119 0.63557 0.75921 0.0
H544 H 0.15507 0.31537 0.92937 0.0
H545 H 0.15855 0.28782 0.90573 0.0
H546 H 0.23798 0.21368 0.92125 0.0
H547 H 0.235 0.24177 0.9449 0.0
H548 H 0.25661 0.24266 0.89563 0.0
H549 H 0.15487 0.18446 0.91543 0.0
H550 H 0.0967 0.17991 0.92766 0.0
H551 H 0.04696 0.24024 0.89412 0.0
H552 H 0.10497 0.24564 0.88178 0.0
H553 H 0.24691 0.13979 0.83124 0.0
H554 H 0.24504 0.15668 0.85646 0.0
H555 H 0.16585 0.23717 0.84703 0.0
H556 H 0.16737 0.22044 0.82188 0.0
H557 H 0.14843 0.19803 0.87064 0.0
H558 H 0.25166 0.26039 0.85212 0.0
H559 H 0.31006 0.26499 0.84003 0.0
H560 H 0.357 0.19576 0.87142 0.0
H561 H 0.29871 0.19037 0.88359 0.0
C562 C 0.1731 0.29306 0.92773 0.0
C563 C 0.19411 0.28005 0.93898 0.0
C564 C 0.17496 0.27724 0.91427 0.0
C565 C 0.19806 0.24829 0.91181 0.0
C566 C 0.21968 0.23572 0.92298 0.0
C567 C 0.21769 0.25148 0.93649 0.0
C568 C 0.20017 0.23198 0.89743 0.0
C569 C 0.2331 0.23225 0.89025 0.0
C570 C 0.16937 0.21892 0.89037 0.0
C571 C 0.13437 0.21571 0.89774 0.0
C572 C 0.1316 0.19702 0.91072 0.0
C573 C 0.09863 0.19424 0.91766 0.0
C574 C 0.06816 0.20984 0.91169 0.0
C575 C 0.07059 0.2282 0.89874 0.0
C576 C 0.10351 0.23109 0.89176 0.0
C577 C 0.22907 0.16105 0.83454 0.0
C578 C 0.20734 0.17881 0.82454 0.0
C579 C 0.22811 0.17072 0.84894 0.0
C580 C 0.20546 0.19832 0.85359 0.0
C581 C 0.18347 0.21577 0.84366 0.0
C582 C 0.18449 0.20623 0.82928 0.0
C583 C 0.20469 0.20938 0.86876 0.0
C584 C 0.172 0.20807 0.87608 0.0
C585 C 0.23571 0.22139 0.87596 0.0
C586 C 0.27075 0.22464 0.86866 0.0
C587 C 0.27436 0.2459 0.85637 0.0
C588 C 0.30745 0.2487 0.84952 0.0
C589 C 0.33719 0.23058 0.85493 0.0
C590 C 0.33392 0.20971 0.86723 0.0
C591 C 0.30087 0.20679 0.87411 0.0
H592 H 0.36279 0.2328 0.84961 0.0
H593 H 0.04266 0.20765 0.91708 0.0
H594 H 0.74121 0.65353 0.19096 0.0
H595 H 0.76354 0.658 0.16652 0.0
H596 H 0.69275 0.7471 0.15878 0.0
H597 H 0.67 0.74232 0.18318 0.0
H598 H 0.68975 0.70276 0.13738 0.0
H599 H 0.78481 0.75782 0.16368 0.0
H600 H 0.83101 0.76223 0.18236 0.0
H601 H 0.88478 0.67058 0.16497 0.0
H602 H 0.83858 0.6653 0.1463 0.0
H603 H 0.76742 0.762 0.07267 0.0
H604 H 0.75046 0.75983 0.09784 0.0
H605 H 0.80806 0.66068 0.10281 0.0
H606 H 0.82506 0.66249 0.07759 0.0
H607 H 0.81886 0.71017 0.12547 0.0
H608 H 0.72257 0.65602 0.09912 0.0
H609 H 0.67695 0.65383 0.08015 0.0
H610 H 0.62577 0.74674 0.09772 0.0
H611 H 0.67151 0.74988 0.11665 0.0
C612 C 0.73096 0.67452 0.18414 0.0
C613 C 0.70441 0.69808 0.18905 0.0
C614 C 0.74364 0.67698 0.17015 0.0
C615 C 0.73027 0.70328 0.16085 0.0
C616 C 0.70357 0.72667 0.16575 0.0
C617 C 0.69064 0.72397 0.17969 0.0
C618 C 0.74323 0.70573 0.1459 0.0
C619 C 0.71796 0.70491 0.13482 0.0
C620 C 0.78011 0.70775 0.14249 0.0
C621 C 0.80803 0.71096 0.15367 0.0
C622 C 0.80633 0.73844 0.1639 0.0
C623 C 0.83254 0.74112 0.17448 0.0
C624 C 0.86076 0.71664 0.17488 0.0
C625 C 0.86288 0.68949 0.16467 0.0
C626 C 0.8367 0.68666 0.15407 0.0
C627 C 0.77673 0.73985 0.07913 0.0
C628 C 0.79743 0.71231 0.07312 0.0
C629 C 0.76695 0.73864 0.0935 0.0
C630 C 0.77781 0.70997 0.10213 0.0
C631 C 0.79943 0.68302 0.0963 0.0
C632 C 0.80897 0.68404 0.08189 0.0
C633 C 0.76535 0.70742 0.11709 0.0
C634 C 0.79068 0.70812 0.12812 0.0
C635 C 0.72854 0.70556 0.12047 0.0
C636 C 0.70068 0.70339 0.10922 0.0
C637 C 0.70175 0.67615 0.09888 0.0
C638 C 0.67585 0.67472 0.08814 0.0
C639 C 0.64852 0.70018 0.08771 0.0
C640 C 0.64698 0.72707 0.09805 0.0
C641 C 0.67288 0.72868 0.10879 0.0
H642 H 0.6285 0.69903 0.07939 0.0
H643 H 0.88103 0.71877 0.18307 0.0
H644 H 0.25974 0.36905 0.32957 0.0
H645 H 0.25893 0.35052 0.35464 0.0
H646 H 0.32315 0.2583 0.34415 0.0
H647 H 0.32348 0.27611 0.31917 0.0
H648 H 0.26981 0.23977 0.36108 0.0
H649 H 0.35864 0.33386 0.36035 0.0
H650 H 0.38063 0.39505 0.35586 0.0
H651 H 0.30195 0.43727 0.38466 0.0
H652 H 0.27918 0.37633 0.38918 0.0
H653 H 0.34134 0.18297 0.42628 0.0
H654 H 0.33429 0.2087 0.40251 0.0
H655 H 0.2651 0.29036 0.41966 0.0
H656 H 0.27163 0.26441 0.4435 0.0
H657 H 0.31398 0.31753 0.4002 0.0
H658 H 0.22867 0.2225 0.4024 0.0
H659 H 0.20758 0.16109 0.40705 0.0
H660 H 0.28003 0.12049 0.37542 0.0
H661 H 0.30195 0.18163 0.37073 0.0
C662 C 0.27369 0.34484 0.33262 0.0
C663 C 0.29168 0.32407 0.32237 0.0
C664 C 0.27332 0.33436 0.34696 0.0
C665 C 0.29123 0.30316 0.35129 0.0
C666 C 0.30908 0.28242 0.34105 0.0
C667 C 0.30931 0.29273 0.32676 0.0
C668 C 0.29131 0.29153 0.36644 0.0
C669 C 0.27975 0.2567 0.3696 0.0
C670 C 0.3032 0.314 0.37765 0.0
C671 C 0.31695 0.3506 0.37497 0.0
C672 C 0.34585 0.35623 0.36564 0.0
C673 C 0.35848 0.39085 0.3631 0.0
C674 C 0.34262 0.42004 0.36994 0.0
C675 C 0.31416 0.41465 0.37935 0.0
C676 C 0.3014 0.38007 0.38191 0.0
C677 C 0.32472 0.2065 0.42501 0.0
C678 C 0.30754 0.22198 0.43682 0.0
C679 C 0.32069 0.22114 0.41142 0.0
C680 C 0.29897 0.25129 0.40931 0.0
C681 C 0.28215 0.2672 0.42109 0.0
C682 C 0.28618 0.25251 0.43473 0.0
C683 C 0.29342 0.26549 0.39471 0.0
C684 C 0.30375 0.30077 0.39167 0.0
C685 C 0.28045 0.24345 0.38359 0.0
C686 C 0.26714 0.20664 0.38629 0.0
C687 C 0.24029 0.20046 0.39651 0.0
C688 C 0.22816 0.16569 0.39914 0.0
C689 C 0.2425 0.1369 0.39155 0.0
C690 C 0.26896 0.14282 0.38129 0.0
C691 C 0.28121 0.17753 0.37863 0.0
H692 H 0.23308 0.11001 0.39361 0.0
H693 H 0.35244 0.44683 0.36796 0.0
H694 H 0.62948 0.77314 0.58152 0.0
H695 H 0.64817 0.77511 0.60653 0.0
H696 H 0.74018 0.83833 0.59483 0.0
H697 H 0.72219 0.83582 0.56985 0.0
H698 H 0.7591 0.7867 0.61236 0.0
H699 H 0.66538 0.87516 0.61122 0.0
H700 H 0.60439 0.89752 0.60669 0.0
H701 H 0.56177 0.8205 0.63613 0.0
H702 H 0.62251 0.79736 0.64069 0.0
H703 H 0.81558 0.85701 0.67782 0.0
H704 H 0.78905 0.85188 0.65413 0.0
H705 H 0.70928 0.7796 0.67064 0.0
H706 H 0.73615 0.78397 0.69437 0.0
H707 H 0.68136 0.83099 0.65146 0.0
H708 H 0.77611 0.74499 0.65344 0.0
H709 H 0.83746 0.72387 0.65811 0.0
H710 H 0.87836 0.79747 0.62696 0.0
H711 H 0.81727 0.81944 0.62225 0.0
C712 C 0.65364 0.78756 0.58428 0.0
C713 C 0.67434 0.80434 0.57369 0.0
C714 C 0.6642 0.78879 0.59859 0.0
C715 C 0.69542 0.80715 0.60258 0.0
C716 C 0.71602 0.82397 0.59202 0.0
C717 C 0.70562 0.82258 0.57773 0.0
C718 C 0.70736 0.80825 0.61769 0.0
C719 C 0.74219 0.79676 0.62087 0.0
C720 C 0.68494 0.82032 0.62888 0.0
C721 C 0.64844 0.83427 0.62618 0.0
C722 C 0.64297 0.8628 0.61664 0.0
C723 C 0.60846 0.87565 0.61408 0.0
C724 C 0.57921 0.86037 0.62108 0.0
C725 C 0.58444 0.83227 0.63069 0.0
C726 C 0.61891 0.81929 0.63328 0.0
C727 C 0.79225 0.84017 0.67646 0.0
C728 C 0.77772 0.8213 0.68806 0.0
C729 C 0.77712 0.83729 0.66291 0.0
C730 C 0.74735 0.8152 0.66063 0.0
C731 C 0.73213 0.79698 0.67222 0.0
C732 C 0.74736 0.79977 0.68582 0.0
C733 C 0.73327 0.81022 0.64599 0.0
C734 C 0.6981 0.82078 0.64293 0.0
C735 C 0.75537 0.7974 0.63486 0.0
C736 C 0.79213 0.78406 0.63758 0.0
C737 C 0.79821 0.75686 0.64766 0.0
C738 C 0.83293 0.74471 0.65031 0.0
C739 C 0.8618 0.75937 0.64286 0.0
C740 C 0.85598 0.78616 0.63273 0.0
C741 C 0.8213 0.79845 0.63006 0.0
H742 H 0.88866 0.74992 0.64492 0.0
H743 H 0.55251 0.87036 0.61909 0.0
H744 H 0.74181 0.31659 0.43555 0.0
H745 H 0.74136 0.2929 0.41117 0.0
H746 H 0.84315 0.24201 0.41867 0.0
H747 H 0.84371 0.26566 0.44307 0.0
H748 H 0.83983 0.28215 0.39319 0.0
H749 H 0.77327 0.19093 0.41735 0.0
H750 H 0.72585 0.16717 0.43296 0.0
H751 H 0.64565 0.21076 0.40517 0.0
H752 H 0.69263 0.23529 0.38949 0.0
H753 H 0.84248 0.18632 0.32803 0.0
H754 H 0.84375 0.20117 0.3534 0.0
H755 H 0.73575 0.24119 0.35062 0.0
H756 H 0.73394 0.22556 0.32532 0.0
H757 H 0.74388 0.20356 0.3743 0.0
H758 H 0.80868 0.29773 0.35097 0.0
H759 H 0.855 0.32338 0.33529 0.0
H760 H 0.93711 0.27695 0.36141 0.0
H761 H 0.89123 0.25056 0.37714 0.0
C762 C 0.76391 0.30009 0.43201 0.0
C763 C 0.79248 0.29241 0.44124 0.0
C764 C 0.76358 0.28651 0.41813 0.0
C765 C 0.79207 0.26544 0.41319 0.0
C766 C 0.82081 0.258 0.42234 0.0
C767 C 0.82093 0.27122 0.4363 0.0
C768 C 0.79229 0.2523 0.39829 0.0
C769 C 0.81922 0.26447 0.38909 0.0
C770 C 0.76483 0.23003 0.39293 0.0
C771 C 0.7365 0.21525 0.40232 0.0
C772 C 0.74553 0.19574 0.41463 0.0
C773 C 0.71873 0.18207 0.42348 0.0
C774 C 0.68276 0.18753 0.42008 0.0
C775 C 0.67353 0.20659 0.4078 0.0
C776 C 0.70023 0.22036 0.39892 0.0
C777 C 0.81895 0.19821 0.33282 0.0
C778 C 0.78816 0.20494 0.32464 0.0
C779 C 0.81977 0.20679 0.34732 0.0
C780 C 0.79002 0.22277 0.35388 0.0
C781 C 0.75903 0.22891 0.34579 0.0
C782 C 0.75808 0.22006 0.33131 0.0
C783 C 0.79134 0.2336 0.36911 0.0
C784 C 0.76465 0.22106 0.37839 0.0
C785 C 0.81886 0.25582 0.37453 0.0
C786 C 0.84651 0.27186 0.36514 0.0
C787 C 0.83661 0.29277 0.35331 0.0
C788 C 0.86278 0.30747 0.34442 0.0
C789 C 0.89898 0.30172 0.34733 0.0
C790 C 0.90907 0.28133 0.35916 0.0
C791 C 0.88299 0.26651 0.36807 0.0
H792 H 0.9192 0.31312 0.34044 0.0
H793 H 0.66204 0.17691 0.42695 0.0
H794 H 0.82039 0.33474 0.57897 0.0
H795 H 0.80695 0.33509 0.60451 0.0
H796 H 0.75383 0.23318 0.60038 0.0
H797 H 0.7672 0.23253 0.57485 0.0
H798 H 0.71335 0.28372 0.61461 0.0
H799 H 0.8331 0.23696 0.61622 0.0
H800 H 0.89778 0.23666 0.61112 0.0
H801 H 0.90992 0.33634 0.63337 0.0
H802 H 0.84518 0.33749 0.63844 0.0
H803 H 0.68351 0.2446 0.68669 0.0
H804 H 0.70599 0.24132 0.66225 0.0
H805 H 0.76456 0.3395 0.66864 0.0
H806 H 0.74226 0.34275 0.69318 0.0
H807 H 0.80351 0.29206 0.65332 0.0
H808 H 0.68536 0.3405 0.65146 0.0
H809 H 0.62066 0.34312 0.65642 0.0
H810 H 0.60533 0.2437 0.63429 0.0
H811 H 0.67006 0.24023 0.62937 0.0
C812 C 0.80609 0.31226 0.58352 0.0
C813 C 0.79481 0.28361 0.57488 0.0
C814 C 0.79857 0.31245 0.59812 0.0
C815 C 0.77956 0.28408 0.60433 0.0
C816 C 0.76859 0.2553 0.59577 0.0
C817 C 0.77633 0.25494 0.5812 0.0
C818 C 0.76952 0.28522 0.61961 0.0
C819 C 0.73306 0.28498 0.62309 0.0
C820 C 0.79528 0.28814 0.63061 0.0
C821 C 0.83422 0.28749 0.62758 0.0
C822 C 0.8495 0.25898 0.61992 0.0
C823 C 0.88618 0.25862 0.61705 0.0
C824 C 0.90793 0.28651 0.62188 0.0
C825 C 0.89304 0.31478 0.62962 0.0
C826 C 0.85635 0.31528 0.6325 0.0
C827 C 0.70146 0.2653 0.68292 0.0
C828 C 0.71143 0.29372 0.69187 0.0
C829 C 0.71421 0.26345 0.66896 0.0
C830 C 0.73659 0.29041 0.66357 0.0
C831 C 0.74742 0.31835 0.6726 0.0
C832 C 0.73482 0.32007 0.68664 0.0
C833 C 0.74731 0.29009 0.64833 0.0
C834 C 0.78381 0.29069 0.64484 0.0
C835 C 0.72159 0.28787 0.63728 0.0
C836 C 0.68262 0.28994 0.64016 0.0
C837 C 0.66824 0.31905 0.64774 0.0
C838 C 0.63155 0.32071 0.65053 0.0
C839 C 0.60891 0.29355 0.6457 0.0
C840 C 0.62291 0.2647 0.63804 0.0
C841 C 0.65959 0.26289 0.63523 0.0
H842 H 0.58052 0.29488 0.64787 0.0
H843 H 0.93633 0.28618 0.61966 0.0
H844 H 0.73441 0.17765 0.93271 0.0
H845 H 0.73905 0.20558 0.90915 0.0
H846 H 0.65729 0.28152 0.92081 0.0
H847 H 0.65269 0.25376 0.94446 0.0
H848 H 0.64591 0.2451 0.89433 0.0
H849 H 0.73693 0.31223 0.91831 0.0
H850 H 0.79065 0.32033 0.93321 0.0
H851 H 0.85312 0.26105 0.90291 0.0
H852 H 0.79962 0.2521 0.88793 0.0
H853 H 0.66099 0.33773 0.82892 0.0
H854 H 0.65924 0.3258 0.85454 0.0
H855 H 0.75358 0.25998 0.85074 0.0
H856 H 0.75618 0.27282 0.82522 0.0
H857 H 0.75715 0.29738 0.87435 0.0
H858 H 0.66781 0.2241 0.85184 0.0
H859 H 0.61503 0.21216 0.8368 0.0
H860 H 0.55052 0.27806 0.8641 0.0
H861 H 0.60309 0.29082 0.87919 0.0
C862 C 0.71773 0.20055 0.93029 0.0
C863 C 0.69356 0.2139 0.94043 0.0
C864 C 0.72049 0.21653 0.91688 0.0
C865 C 0.69873 0.24577 0.91333 0.0
C866 C 0.6745 0.25915 0.92343 0.0
C867 C 0.67211 0.24349 0.93694 0.0
C868 C 0.70012 0.26095 0.89877 0.0
C869 C 0.66997 0.25723 0.89001 0.0
C870 C 0.73188 0.27576 0.89311 0.0
C871 C 0.76417 0.28124 0.90205 0.0
C872 C 0.76205 0.30065 0.91488 0.0
C873 C 0.79248 0.30545 0.92333 0.0
C874 C 0.82526 0.29115 0.91902 0.0
C875 C 0.8277 0.27209 0.90624 0.0
C876 C 0.79733 0.26718 0.89776 0.0
C877 C 0.6815 0.32093 0.83357 0.0
C878 C 0.70857 0.30598 0.82504 0.0
C879 C 0.68041 0.31404 0.84821 0.0
C880 C 0.70591 0.29146 0.85453 0.0
C881 C 0.7336 0.27745 0.84611 0.0
C882 C 0.73499 0.28472 0.8315 0.0
C883 C 0.70301 0.28122 0.86979 0.0
C884 C 0.73291 0.28572 0.87868 0.0
C885 C 0.67115 0.2666 0.87554 0.0
C886 C 0.63945 0.25873 0.86655 0.0
C887 C 0.64242 0.23624 0.85458 0.0
C888 C 0.61254 0.22931 0.84605 0.0
C889 C 0.57946 0.24442 0.84947 0.0
C890 C 0.57618 0.26642 0.86145 0.0
C891 C 0.606 0.27351 0.87 0.0
H892 H 0.55636 0.23902 0.84286 0.0
H893 H 0.84879 0.29489 0.92558 0.0
H894 H 0.82349 0.15179 0.18035 0.0
H895 H 0.79808 0.15772 0.15649 0.0
H896 H 0.71436 0.22511 0.17316 0.0
H897 H 0.74015 0.22006 0.19706 0.0
H898 H 0.68929 0.17331 0.15385 0.0
H899 H 0.7798 0.26349 0.15609 0.0
H900 H 0.84 0.28768 0.1608 0.0
H901 H 0.88448 0.21696 0.12937 0.0
H902 H 0.82459 0.19195 0.12462 0.0
H903 H 0.63484 0.22851 0.08392 0.0
H904 H 0.65384 0.22809 0.10891 0.0
H905 H 0.74822 0.16834 0.09737 0.0
H906 H 0.72984 0.16922 0.07242 0.0
H907 H 0.76493 0.22148 0.11483 0.0
H908 H 0.67549 0.12855 0.11367 0.0
H909 H 0.61562 0.1033 0.10913 0.0
H910 H 0.56935 0.17836 0.13848 0.0
H911 H 0.62892 0.20438 0.14306 0.0
C912 C 0.79961 0.16783 0.17897 0.0
C913 C 0.7835 0.18489 0.19068 0.0
C914 C 0.78514 0.17118 0.16532 0.0
C915 C 0.75442 0.19195 0.16306 0.0
C916 C 0.73793 0.20873 0.17472 0.0
C917 C 0.75254 0.2055 0.18841 0.0
C918 C 0.74019 0.19657 0.14843 0.0
C919 C 0.70555 0.18439 0.14534 0.0
C920 C 0.76167 0.21052 0.13732 0.0
C921 C 0.79773 0.22564 0.14009 0.0
C922 C 0.80245 0.2529 0.15026 0.0
C923 C 0.83652 0.26679 0.15293 0.0
C924 C 0.86606 0.25381 0.14541 0.0
C925 C 0.86158 0.22696 0.13519 0.0
C926 C 0.82757 0.21295 0.1325 0.0
C927 C 0.6596 0.21522 0.08671 0.0
C928 C 0.6808 0.19887 0.07617 0.0
C929 C 0.67035 0.21488 0.10101 0.0
C930 C 0.70231 0.19791 0.10503 0.0
C931 C 0.72348 0.18163 0.09452 0.0
C932 C 0.71286 0.18207 0.08025 0.0
C933 C 0.71425 0.19748 0.12013 0.0
C934 C 0.7485 0.21061 0.12333 0.0
C935 C 0.6924 0.18432 0.13131 0.0
C936 C 0.6566 0.16867 0.12858 0.0
C937 C 0.65251 0.13987 0.11907 0.0
C938 C 0.61864 0.12538 0.1165 0.0
C939 C 0.58869 0.13929 0.12348 0.0
C940 C 0.59256 0.16765 0.13306 0.0
C941 C 0.62637 0.18227 0.13565 0.0
H942 H 0.56249 0.12803 0.12148 0.0
H943 H 0.89241 0.2646 0.14749 0.0
H944 H 0.72083 0.72199 0.322 0.0
H945 H 0.72327 0.73828 0.34716 0.0
H946 H 0.6813 0.63469 0.35863 0.0
H947 H 0.67834 0.61823 0.33337 0.0
H948 H 0.64656 0.68739 0.37228 0.0
H949 H 0.76842 0.65497 0.36519 0.0
H950 H 0.82719 0.65461 0.35328 0.0
H951 H 0.83821 0.76739 0.36081 0.0
H952 H 0.77925 0.76855 0.3726 0.0
H953 H 0.66648 0.72926 0.44572 0.0
H954 H 0.67452 0.69852 0.42297 0.0
H955 H 0.71753 0.79519 0.40459 0.0
H956 H 0.71102 0.82564 0.42749 0.0
H957 H 0.75444 0.7378 0.39566 0.0
H958 H 0.62975 0.77103 0.39999 0.0
H959 H 0.57056 0.77187 0.4116 0.0
H960 H 0.56505 0.65729 0.40899 0.0
H961 H 0.62445 0.65576 0.39753 0.0
C962 C 0.71237 0.7025 0.32986 0.0
C963 C 0.69937 0.66879 0.32567 0.0
C964 C 0.71397 0.71181 0.34426 0.0
C965 C 0.70286 0.68755 0.35479 0.0
C966 C 0.69013 0.65376 0.35067 0.0
C967 C 0.68853 0.64439 0.33624 0.0
C968 C 0.70283 0.69841 0.37002 0.0
C969 C 0.67033 0.6977 0.3775 0.0
C970 C 0.7337 0.71245 0.37673 0.0
C971 C 0.76926 0.71188 0.3697 0.0
C972 C 0.78324 0.67975 0.36422 0.0
C973 C 0.81662 0.6794 0.3575 0.0
C974 C 0.83639 0.71097 0.35627 0.0
C975 C 0.82285 0.74295 0.36177 0.0
C976 C 0.78947 0.74347 0.36849 0.0
C977 C 0.6787 0.7437 0.437 0.0
C978 C 0.68873 0.77976 0.43851 0.0
C979 C 0.68276 0.72621 0.42391 0.0
C980 C 0.69637 0.74463 0.41204 0.0
C981 C 0.70707 0.7804 0.41361 0.0
C982 C 0.70314 0.79782 0.42668 0.0
C983 C 0.69805 0.7274 0.39779 0.0
C984 C 0.73083 0.72696 0.3905 0.0
C985 C 0.66744 0.71233 0.39123 0.0
C986 C 0.6317 0.71325 0.39806 0.0
C987 C 0.61603 0.746 0.402 0.0
C988 C 0.58243 0.74661 0.40853 0.0
C989 C 0.5641 0.71465 0.41107 0.0
C990 C 0.5793 0.68202 0.40705 0.0
C991 C 0.61292 0.68127 0.40053 0.0
H992 H 0.53809 0.71517 0.41613 0.0
H993 H 0.86222 0.71064 0.35106 0.0
H994 H 0.26182 0.17295 0.56927 0.0
H995 H 0.24233 0.17313 0.59407 0.0
H996 H 0.34007 0.22613 0.6064 0.0
H997 H 0.36022 0.22539 0.58155 0.0
H998 H 0.32326 0.17435 0.62503 0.0
H999 H 0.26231 0.273 0.60373 0.0
H1000 H 0.22531 0.30386 0.58578 0.0
H1001 H 0.13677 0.23497 0.59563 0.0
H1002 H 0.17342 0.20335 0.61351 0.0
H1003 H 0.25452 0.22305 0.69375 0.0
H1004 H 0.27942 0.22578 0.66968 0.0
H1005 H 0.18903 0.16639 0.65367 0.0
H1006 H 0.16442 0.16272 0.67778 0.0
H1007 H 0.2047 0.22535 0.63735 0.0
H1008 H 0.26764 0.1254 0.65811 0.0
H1009 H 0.30519 0.09556 0.67616 0.0
H1010 H 0.39075 0.16908 0.66751 0.0
H1011 H 0.35348 0.19971 0.64954 0.0
C1012 C 0.27926 0.18461 0.57724 0.0
C1013 C 0.3125 0.19937 0.57342 0.0
C1014 C 0.26799 0.18482 0.59142 0.0
C1015 C 0.28947 0.2002 0.60206 0.0
C1016 C 0.32302 0.21426 0.59835 0.0
C1017 C 0.33444 0.21389 0.58414 0.0
C1018 C 0.27665 0.20164 0.61702 0.0
C1019 C 0.2976 0.18603 0.62776 0.0
C1020 C 0.24296 0.21648 0.62055 0.0
C1021 C 0.22072 0.23562 0.60988 0.0
C1022 C 0.23503 0.26427 0.602 0.0
C1023 C 0.2141 0.28192 0.59185 0.0
C1024 C 0.17874 0.27133 0.58954 0.0
C1025 C 0.16419 0.24313 0.59742 0.0
C1026 C 0.18501 0.22536 0.60758 0.0
C1027 C 0.24039 0.20974 0.6852 0.0
C1028 C 0.20801 0.19171 0.68775 0.0
C1029 C 0.25449 0.21167 0.67141 0.0
C1030 C 0.23629 0.19588 0.65993 0.0
C1031 C 0.20355 0.17864 0.6624 0.0
C1032 C 0.18955 0.17657 0.67617 0.0
C1033 C 0.25104 0.19758 0.64529 0.0
C1034 C 0.23045 0.21389 0.63461 0.0
C1035 C 0.28513 0.18361 0.64186 0.0
C1036 C 0.30762 0.16509 0.6526 0.0
C1037 C 0.29435 0.1354 0.66014 0.0
C1038 C 0.3156 0.11831 0.67034 0.0
C1039 C 0.35029 0.13049 0.67301 0.0
C1040 C 0.36384 0.15972 0.66545 0.0
C1041 C 0.34267 0.17694 0.65525 0.0
H1042 H 0.36671 0.11721 0.68091 0.0
H1043 H 0.16259 0.28502 0.58167 0.0
H1044 H 0.8327 0.66428 0.9291 0.0
H1045 H 0.83593 0.68947 0.90506 0.0
H1046 H 0.80977 0.79377 0.92179 0.0
H1047 H 0.80542 0.76838 0.94583 0.0
H1048 H 0.77147 0.77929 0.8984 0.0
H1049 H 0.89449 0.77492 0.91121 0.0
H1050 H 0.95013 0.74784 0.92027 0.0
H1051 H 0.94855 0.6713 0.88611 0.0
H1052 H 0.89253 0.69755 0.87698 0.0
H1053 H 0.80997 0.86714 0.83268 0.0
H1054 H 0.81234 0.84891 0.85771 0.0
H1055 H 0.83346 0.74011 0.84489 0.0
H1056 H 0.8314 0.75812 0.81983 0.0
H1057 H 0.87668 0.76145 0.86694 0.0
H1058 H 0.7508 0.76458 0.85535 0.0
H1059 H 0.69527 0.79261 0.8466 0.0
H1060 H 0.70346 0.87364 0.8789 0.0
H1061 H 0.75933 0.84635 0.88772 0.0
C1062 C 0.82788 0.69263 0.92765 0.0
C1063 C 0.81971 0.71456 0.93937 0.0
C1064 C 0.82992 0.70703 0.91394 0.0
C1065 C 0.82374 0.74365 0.91166 0.0
C1066 C 0.81505 0.76554 0.92333 0.0
C1067 C 0.81302 0.75111 0.93707 0.0
C1068 C 0.82515 0.75864 0.89701 0.0
C1069 C 0.79472 0.77595 0.89161 0.0
C1070 C 0.85528 0.7538 0.88807 0.0
C1071 C 0.88912 0.73803 0.89347 0.0
C1072 C 0.90584 0.75214 0.90569 0.0
C1073 C 0.93748 0.73696 0.91083 0.0
C1074 C 0.95283 0.70782 0.90378 0.0
C1075 C 0.93661 0.69385 0.89157 0.0
C1076 C 0.90493 0.70889 0.88639 0.0
C1077 C 0.81519 0.83934 0.83517 0.0
C1078 C 0.82035 0.81405 0.82425 0.0
C1079 C 0.81644 0.82896 0.84949 0.0
C1080 C 0.82276 0.7931 0.85315 0.0
C1081 C 0.82855 0.76792 0.84229 0.0
C1082 C 0.82722 0.77825 0.82797 0.0
C1083 C 0.82286 0.78162 0.8683 0.0
C1084 C 0.85357 0.76501 0.87379 0.0
C1085 C 0.79309 0.78731 0.87735 0.0
C1086 C 0.75944 0.80365 0.87209 0.0
C1087 C 0.74091 0.78854 0.86051 0.0
C1088 C 0.70935 0.80426 0.85555 0.0
C1089 C 0.6959 0.83494 0.86216 0.0
C1090 C 0.71394 0.84991 0.87377 0.0
C1091 C 0.74553 0.83431 0.87876 0.0
H1092 H 0.67146 0.84708 0.85831 0.0
H1093 H 0.97734 0.69611 0.90778 0.0
H1094 H 0.34075 0.26262 0.18052 0.0
H1095 H 0.31654 0.25511 0.15648 0.0
H1096 H 0.23672 0.33559 0.16523 0.0
H1097 H 0.26041 0.34249 0.18943 0.0
H1098 H 0.20779 0.28347 0.15032 0.0
H1099 H 0.31322 0.3548 0.14596 0.0
H1100 H 0.37671 0.37065 0.14925 0.0
H1101 H 0.40826 0.2769 0.12596 0.0
H1102 H 0.34494 0.26022 0.1227 0.0
H1103 H 0.17321 0.3266 0.07682 0.0
H1104 H 0.19022 0.3284 0.10203 0.0
H1105 H 0.2572 0.23574 0.09598 0.0
H1106 H 0.24011 0.23348 0.07081 0.0
H1107 H 0.29139 0.29422 0.10944 0.0
H1108 H 0.18301 0.22524 0.11346 0.0
H1109 H 0.11881 0.21319 0.10984 0.0
H1110 H 0.0921 0.30813 0.13332 0.0
H1111 H 0.15619 0.32103 0.13691 0.0
C1112 C 0.31787 0.27849 0.17732 0.0
C1113 C 0.30226 0.30292 0.18684 0.0
C1114 C 0.30413 0.2743 0.16359 0.0
C1115 C 0.27515 0.29521 0.15896 0.0
C1116 C 0.25904 0.31912 0.16857 0.0
C1117 C 0.27249 0.32295 0.1824 0.0
C1118 C 0.26242 0.29283 0.14399 0.0
C1119 C 0.22601 0.28626 0.14139 0.0
C1120 C 0.28622 0.2961 0.1323 0.0
C1121 C 0.32434 0.30608 0.13421 0.0
C1122 C 0.33371 0.33742 0.14163 0.0
C1123 C 0.36966 0.34657 0.14348 0.0
C1124 C 0.3965 0.32474 0.13785 0.0
C1125 C 0.38744 0.29376 0.13033 0.0
C1126 C 0.35152 0.28445 0.12847 0.0
C1127 C 0.19133 0.30643 0.08089 0.0
C1128 C 0.20536 0.27991 0.07183 0.0
C1129 C 0.20089 0.30743 0.09529 0.0
C1130 C 0.22484 0.28212 0.10084 0.0
C1131 C 0.23862 0.25545 0.09187 0.0
C1132 C 0.22874 0.25415 0.07752 0.0
C1133 C 0.23697 0.28455 0.11583 0.0
C1134 C 0.27326 0.29133 0.11841 0.0
C1135 C 0.21296 0.28206 0.12744 0.0
C1136 C 0.17442 0.27429 0.12532 0.0
C1137 C 0.16346 0.24373 0.11774 0.0
C1138 C 0.12709 0.23671 0.11572 0.0
C1139 C 0.10139 0.25993 0.12131 0.0
C1140 C 0.11203 0.29018 0.12898 0.0
C1141 C 0.14838 0.29735 0.13102 0.0
H1142 H 0.07325 0.25445 0.11974 0.0
H1143 H 0.42432 0.33188 0.13928 0.0
H1144 H 0.34045 0.72051 0.81935 0.0
H1145 H 0.34388 0.73697 0.8445 0.0
H1146 H 0.2734 0.64969 0.85528 0.0
H1147 H 0.26976 0.63293 0.83006 0.0
H1148 H 0.25406 0.71327 0.86819 0.0
H1149 H 0.35895 0.64199 0.86305 0.0
H1150 H 0.41536 0.62221 0.85197 0.0
H1151 H 0.46213 0.72517 0.86003 0.0
H1152 H 0.40579 0.74578 0.87097 0.0
H1153 H 0.28059 0.73979 0.94259 0.0
H1154 H 0.27885 0.71147 0.91913 0.0
H1155 H 0.35264 0.79053 0.90306 0.0
H1156 H 0.35557 0.81814 0.92667 0.0
H1157 H 0.36986 0.72444 0.89367 0.0
H1158 H 0.26341 0.79708 0.89679 0.0
H1159 H 0.20675 0.8174 0.90753 0.0
H1160 H 0.16287 0.71181 0.90306 0.0
H1161 H 0.21949 0.69074 0.89245 0.0
C1162 C 0.32577 0.70468 0.82706 0.0
C1163 C 0.30488 0.67535 0.82271 0.0
C1164 C 0.32788 0.71406 0.84144 0.0
C1165 C 0.30915 0.69434 0.85175 0.0
C1166 C 0.28813 0.66516 0.84747 0.0
C1167 C 0.28617 0.65559 0.83307 0.0
C1168 C 0.31096 0.70495 0.86695 0.0
C1169 C 0.27928 0.71508 0.87387 0.0
C1170 C 0.34397 0.70786 0.87423 0.0
C1171 C 0.37802 0.69552 0.86773 0.0
C1172 C 0.38117 0.66052 0.86236 0.0
C1173 C 0.41315 0.64913 0.85612 0.0
C1174 C 0.44229 0.67244 0.85527 0.0
C1175 C 0.43952 0.70716 0.86069 0.0
C1176 C 0.40758 0.71869 0.86693 0.0
C1177 C 0.29717 0.7506 0.9342 0.0
C1178 C 0.31882 0.78077 0.93657 0.0
C1179 C 0.29573 0.73469 0.92072 0.0
C1180 C 0.31551 0.74898 0.90933 0.0
C1181 C 0.33727 0.77898 0.91171 0.0
C1182 C 0.33874 0.79484 0.92517 0.0
C1183 C 0.31302 0.73335 0.89483 0.0
C1184 C 0.34458 0.72226 0.88805 0.0
C1185 C 0.2799 0.72958 0.88767 0.0
C1186 C 0.24581 0.74225 0.89398 0.0
C1187 C 0.24177 0.77813 0.8982 0.0
C1188 C 0.20965 0.78979 0.90425 0.0
C1189 C 0.18127 0.76588 0.90602 0.0
C1190 C 0.18491 0.73028 0.9017 0.0
C1191 C 0.217 0.71847 0.89567 0.0
H1192 H 0.15642 0.77496 0.9107 0.0
H1193 H 0.46703 0.66358 0.85043 0.0
H1194 H 0.35813 0.75581 0.08002 0.0
H1195 H 0.34088 0.75884 0.10519 0.0
H1196 H 0.25947 0.83639 0.0949 0.0
H1197 H 0.27642 0.83356 0.06977 0.0
H1198 H 0.30041 0.85554 0.11843 0.0
H1199 H 0.2364 0.75192 0.10075 0.0
H1200 H 0.23159 0.69288 0.08917 0.0
H1201 H 0.30042 0.64731 0.12101 0.0
H1202 H 0.30602 0.70624 0.13268 0.0
H1203 H 0.1861 0.85718 0.17759 0.0
H1204 H 0.21284 0.8513 0.154 0.0
H1205 H 0.28066 0.76636 0.16945 0.0
H1206 H 0.25268 0.77088 0.19293 0.0
H1207 H 0.25378 0.74947 0.14428 0.0
H1208 H 0.31453 0.85057 0.16325 0.0
H1209 H 0.32096 0.90916 0.17506 0.0
H1210 H 0.26177 0.9592 0.14127 0.0
H1211 H 0.25451 0.90082 0.12936 0.0
C1212 C 0.33656 0.77352 0.08312 0.0
C1213 C 0.31861 0.79442 0.0729 0.0
C1214 C 0.32671 0.77513 0.09749 0.0
C1215 C 0.29882 0.79772 0.10187 0.0
C1216 C 0.28111 0.81883 0.09172 0.0
C1217 C 0.29076 0.81708 0.07736 0.0
C1218 C 0.28787 0.79945 0.11702 0.0
C1219 C 0.28993 0.83246 0.12407 0.0
C1220 C 0.27543 0.76899 0.12447 0.0
C1221 C 0.27196 0.73356 0.11749 0.0
C1222 C 0.25076 0.72938 0.10521 0.0
C1223 C 0.24784 0.69592 0.09865 0.0
C1224 C 0.26578 0.66638 0.10433 0.0
C1225 C 0.28659 0.67023 0.11661 0.0
C1226 C 0.28963 0.70364 0.12321 0.0
C1227 C 0.20675 0.83725 0.17599 0.0
C1228 C 0.21791 0.81516 0.18727 0.0
C1229 C 0.22223 0.83413 0.16252 0.0
C1230 C 0.24938 0.80898 0.16004 0.0
C1231 C 0.26012 0.78633 0.17119 0.0
C1232 C 0.24446 0.78933 0.18469 0.0
C1233 C 0.26559 0.80582 0.14566 0.0
C1234 C 0.26462 0.77254 0.13873 0.0
C1235 C 0.27937 0.83599 0.13836 0.0
C1236 C 0.28375 0.87123 0.14546 0.0
C1237 C 0.30265 0.87402 0.15839 0.0
C1238 C 0.30648 0.9072 0.1651 0.0
C1239 C 0.29173 0.93787 0.15894 0.0
C1240 C 0.27317 0.93542 0.14604 0.0
C1241 C 0.26922 0.90229 0.13929 0.0
H1242 H 0.29473 0.96354 0.16415 0.0
H1243 H 0.26348 0.6405 0.09923 0.0
H1244 H 0.15844 0.66715 0.42541 0.0
H1245 H 0.16651 0.69396 0.40189 0.0
H1246 H 0.23583 0.77415 0.42002 0.0
H1247 H 0.22892 0.7468 0.44352 0.0
H1248 H 0.18391 0.80203 0.40095 0.0
H1249 H 0.27334 0.71076 0.40224 0.0
H1250 H 0.297 0.65001 0.40621 0.0
H1251 H 0.22673 0.60869 0.37394 0.0
H1252 H 0.20224 0.66913 0.36993 0.0
H1253 H 0.23811 0.86167 0.33154 0.0
H1254 H 0.2385 0.84088 0.35631 0.0
H1255 H 0.17849 0.74721 0.34399 0.0
H1256 H 0.17859 0.76734 0.31927 0.0
H1257 H 0.23204 0.72936 0.36103 0.0
H1258 H 0.13908 0.8189 0.36108 0.0
H1259 H 0.11388 0.87912 0.35726 0.0
H1260 H 0.18939 0.92324 0.38696 0.0
H1261 H 0.21536 0.86331 0.39081 0.0
C1262 C 0.17546 0.69047 0.42442 0.0
C1263 C 0.19239 0.70524 0.43645 0.0
C1264 C 0.18 0.70576 0.41098 0.0
C1265 C 0.20176 0.736 0.40925 0.0
C1266 C 0.21864 0.751 0.42119 0.0
C1267 C 0.2143 0.73552 0.43467 0.0
C1268 C 0.20699 0.7515 0.39488 0.0
C1269 C 0.19502 0.78644 0.39225 0.0
C1270 C 0.22096 0.73085 0.38354 0.0
C1271 C 0.23575 0.69446 0.38587 0.0
C1272 C 0.26272 0.68868 0.39607 0.0
C1273 C 0.27632 0.6543 0.39831 0.0
C1274 C 0.26332 0.6255 0.39035 0.0
C1275 C 0.23675 0.63102 0.38011 0.0
C1276 C 0.22303 0.66535 0.37783 0.0
C1277 C 0.22494 0.83668 0.33412 0.0
C1278 C 0.20828 0.81618 0.32344 0.0
C1279 C 0.22508 0.8249 0.34828 0.0
C1280 C 0.20827 0.79263 0.35201 0.0
C1281 C 0.19169 0.77216 0.34135 0.0
C1282 C 0.19167 0.78379 0.32722 0.0
C1283 C 0.20815 0.77966 0.36696 0.0
C1284 C 0.22123 0.74516 0.36972 0.0
C1285 C 0.19505 0.80069 0.37839 0.0
C1286 C 0.17943 0.8367 0.3761 0.0
C1287 C 0.15051 0.84149 0.3667 0.0
C1288 C 0.13605 0.87556 0.36455 0.0
C1289 C 0.1501 0.905 0.37183 0.0
C1290 C 0.17858 0.90042 0.38131 0.0
C1291 C 0.19316 0.86641 0.38348 0.0
H1292 H 0.13886 0.93136 0.37015 0.0
H1293 H 0.27389 0.5989 0.3921 0.0
H1294 H 0.3029 0.64561 0.67777 0.0
H1295 H 0.27687 0.65099 0.65395 0.0
H1296 H 0.20775 0.73548 0.66892 0.0
H1297 H 0.23346 0.7296 0.69293 0.0
H1298 H 0.17287 0.6919 0.65041 0.0
H1299 H 0.28383 0.75557 0.6511 0.0
H1300 H 0.34826 0.76386 0.65563 0.0
H1301 H 0.37272 0.67936 0.62617 0.0
H1302 H 0.30838 0.67022 0.62162 0.0
H1303 H 0.13601 0.74903 0.57862 0.0
H1304 H 0.1532 0.74737 0.60383 0.0
H1305 H 0.2289 0.66328 0.59474 0.0
H1306 H 0.21259 0.66536 0.5696 0.0
H1307 H 0.25851 0.71292 0.61086 0.0
H1308 H 0.14668 0.64748 0.61121 0.0
H1309 H 0.08211 0.63978 0.60679 0.0
H1310 H 0.05914 0.72903 0.63414 0.0
H1311 H 0.12364 0.73754 0.63857 0.0
C1312 C 0.28181 0.66497 0.676 0.0
C1313 C 0.26988 0.68695 0.68714 0.0
C1314 C 0.26706 0.66814 0.6624 0.0
C1315 C 0.24079 0.69405 0.6596 0.0
C1316 C 0.22797 0.7153 0.67085 0.0
C1317 C 0.24251 0.71183 0.68454 0.0
C1318 C 0.22815 0.69988 0.64479 0.0
C1319 C 0.19149 0.69701 0.64177 0.0
C1320 C 0.2525 0.70633 0.63352 0.0
C1321 C 0.29126 0.71205 0.6361 0.0
C1322 C 0.30293 0.73862 0.64565 0.0
C1323 C 0.33944 0.74348 0.64822 0.0
C1324 C 0.36456 0.72211 0.64121 0.0
C1325 C 0.35323 0.69589 0.6316 0.0
C1326 C 0.31675 0.69088 0.62901 0.0
C1327 C 0.15625 0.73014 0.58201 0.0
C1328 C 0.17294 0.70734 0.57211 0.0
C1329 C 0.16592 0.72911 0.59643 0.0
C1330 C 0.19213 0.70498 0.60119 0.0
C1331 C 0.20866 0.68216 0.59131 0.0
C1332 C 0.19922 0.68333 0.57693 0.0
C1333 C 0.20332 0.70387 0.61637 0.0
C1334 C 0.2398 0.70794 0.61948 0.0
C1335 C 0.17876 0.69867 0.62768 0.0
C1336 C 0.13999 0.69338 0.6251 0.0
C1337 C 0.12787 0.66562 0.6162 0.0
C1338 C 0.09129 0.66108 0.61371 0.0
C1339 C 0.06655 0.68397 0.62015 0.0
C1340 C 0.07834 0.71136 0.62914 0.0
C1341 C 0.1149 0.71604 0.63165 0.0
H1342 H 0.03824 0.68042 0.6182 0.0
H1343 H 0.39282 0.7259 0.64322 0.0
H1344 H 0.10505 0.39033 0.98886 0.0
H1345 H 0.05728 0.43483 0.98789 0.0
H1346 H 0.0553 0.43942 0.03385 0.0
H1347 H 0.10285 0.39478 0.03497 0.0
H1348 H 0.98843 0.43307 0.02249 0.0
H1349 H 0.09337 0.50575 0.01489 0.0
H1350 H 0.14945 0.52304 0.00288 0.0
H1351 H 0.09285 0.53644 0.96339 0.0
H1352 H 0.03649 0.51876 0.97512 0.0
H1353 H 0.89234 0.5923 0.03523 0.0
H1354 H 0.93605 0.54413 0.0337 0.0
H1355 H 0.93406 0.5509 0.98777 0.0
H1356 H 0.89068 0.5997 0.98918 0.0
H1357 H 0.00102 0.54931 0.99743 0.0
H1358 H 0.89545 0.48038 0.00508 0.0
H1359 H 0.83912 0.46288 0.01683 0.0
H1360 H 0.89597 0.44162 0.05571 0.0
H1361 H 0.95261 0.4595 0.04426 0.0
C1362 C 0.0947 0.40101 0.99877 0.0
C1363 C 0.10788 0.38905 0.012 0.0
C1364 C 0.06741 0.42645 0.99819 0.0
C1365 C 0.05292 0.4405 0.0108 0.0
C1366 C 0.06614 0.42884 0.024 0.0
C1367 C 0.09347 0.40348 0.0246 0.0
C1368 C 0.02354 0.46697 0.01028 0.0
C1369 C 0.99125 0.45867 0.01715 0.0
C1370 C 0.02695 0.49979 0.0029 0.0
C1371 C 0.06079 0.51056 0.99585 0.0
C1372 C 0.09294 0.5121 0.00362 0.0
C1373 C 0.12476 0.52202 0.99686 0.0
C1374 C 0.12473 0.53073 0.98237 0.0
C1375 C 0.09285 0.52964 0.97461 0.0
C1376 C 0.06095 0.51969 0.98131 0.0
C1377 C 0.90086 0.58337 0.02478 0.0
C1378 C 0.888 0.59992 0.01233 0.0
C1379 C 0.92578 0.55569 0.02393 0.0
C1380 C 0.93805 0.54371 0.01062 0.0
C1381 C 0.92488 0.55974 0.99815 0.0
C1382 C 0.90001 0.58755 0.99899 0.0
C1383 C 0.96597 0.51567 0.00981 0.0
C1384 C 0.99801 0.52362 0.00268 0.0
C1385 C 0.96227 0.48245 0.01691 0.0
C1386 C 0.92826 0.47157 0.02383 0.0
C1387 C 0.89592 0.47224 0.01617 0.0
C1388 C 0.86393 0.46221 0.02277 0.0
C1389 C 0.86396 0.45122 0.03702 0.0
C1390 C 0.89599 0.45017 0.04468 0.0
C1391 C 0.92805 0.46021 0.03813 0.0
H1392 H 0.83917 0.44346 0.04211 0.0
H1393 H 0.1494 0.53841 0.97716 0.0
H1394 H 0.41173 0.39114 0.24169 0.0
H1395 H 0.45646 0.43843 0.24337 0.0
H1396 H 0.44408 0.44054 0.2891 0.0
H1397 H 0.39924 0.39303 0.28758 0.0
H1398 H 0.44535 0.50616 0.25371 0.0
H1399 H 0.52611 0.46523 0.30344 0.0
H1400 H 0.5442 0.41052 0.31629 0.0
H1401 H 0.53815 0.35031 0.27736 0.0
H1402 H 0.5205 0.40472 0.26426 0.0
H1403 H 0.60376 0.61248 0.28932 0.0
H1404 H 0.55644 0.5674 0.29022 0.0
H1405 H 0.55503 0.56296 0.24423 0.0
H1406 H 0.60159 0.60848 0.24321 0.0
H1407 H 0.55826 0.50016 0.28138 0.0
H1408 H 0.47344 0.54146 0.23209 0.0
H1409 H 0.45497 0.59648 0.21957 0.0
H1410 H 0.46821 0.65693 0.25815 0.0
H1411 H 0.48627 0.60222 0.27096 0.0
C1412 C 0.41877 0.40127 0.25215 0.0
C1413 C 0.40178 0.38833 0.26451 0.0
C1414 C 0.44424 0.42843 0.25307 0.0
C1415 C 0.45349 0.44298 0.26634 0.0
C1416 C 0.43747 0.42945 0.27876 0.0
C1417 C 0.41184 0.40231 0.27785 0.0
C1418 C 0.47881 0.47335 0.26706 0.0
C1419 C 0.47025 0.50477 0.25963 0.0
C1420 C 0.51061 0.47183 0.27519 0.0
C1421 C 0.52157 0.43898 0.28292 0.0
C1422 C 0.52873 0.44033 0.29763 0.0
C1423 C 0.5389 0.40937 0.30495 0.0
C1424 C 0.54219 0.37694 0.29765 0.0
C1425 C 0.53544 0.37542 0.28301 0.0
C1426 C 0.52529 0.4063 0.27563 0.0
C1427 C 0.59302 0.6023 0.27939 0.0
C1428 C 0.60646 0.61414 0.26619 0.0
C1429 C 0.56608 0.57642 0.27993 0.0
C1430 C 0.55204 0.56198 0.2673 0.0
C1431 C 0.565 0.57417 0.25412 0.0
C1432 C 0.59175 0.60016 0.25356 0.0
C1433 C 0.52509 0.53293 0.26785 0.0
C1434 C 0.53326 0.50174 0.27554 0.0
C1435 C 0.49279 0.53473 0.26001 0.0
C1436 C 0.48152 0.56775 0.25245 0.0
C1437 C 0.47225 0.56646 0.23792 0.0
C1438 C 0.46189 0.5976 0.23077 0.0
C1439 C 0.46052 0.63019 0.23805 0.0
C1440 C 0.46941 0.63169 0.25251 0.0
C1441 C 0.47976 0.60063 0.25972 0.0
H1442 H 0.45252 0.65427 0.23249 0.0
H1443 H 0.55004 0.353 0.30334 0.0
H1444 H 0.60512 0.90515 0.53542 0.0
H1445 H 0.55736 0.94994 0.53592 0.0
H1446 H 0.54317 0.93825 0.4905 0.0
H1447 H 0.59051 0.89347 0.48988 0.0
H1448 H 0.55232 0.01462 0.52212 0.0
H1449 H 0.45836 0.94512 0.48225 0.0
H1450 H 0.43999 0.8843 0.47504 0.0
H1451 H 0.46359 0.8452 0.51703 0.0
H1452 H 0.48301 0.90558 0.5244 0.0
H1453 H 0.38417 0.1016 0.48908 0.0
H1454 H 0.42994 0.05477 0.48935 0.0
H1455 H 0.43688 0.06285 0.53515 0.0
H1456 H 0.39088 0.10919 0.53505 0.0
H1457 H 0.43069 0.98786 0.50376 0.0
H1458 H 0.52625 0.05789 0.54337 0.0
H1459 H 0.54542 0.11881 0.55013 0.0
H1460 H 0.51814 0.15715 0.50835 0.0
H1461 H 0.49876 0.09656 0.50137 0.0
C1462 C 0.59194 0.91222 0.52553 0.0
C1463 C 0.60169 0.89576 0.51261 0.0
C1464 C 0.56464 0.93775 0.52584 0.0
C1465 C 0.54646 0.94699 0.51328 0.0
C1466 C 0.55648 0.93103 0.50036 0.0
C1467 C 0.58379 0.90566 0.50001 0.0
C1468 C 0.51754 0.97398 0.51355 0.0
C1469 C 0.52554 0.00862 0.51835 0.0
C1470 C 0.48294 0.96635 0.50825 0.0
C1471 C 0.47234 0.92978 0.50383 0.0
C1472 C 0.45981 0.92348 0.48992 0.0
C1473 C 0.44941 0.88906 0.48579 0.0
C1474 C 0.45098 0.86083 0.49555 0.0
C1475 C 0.46296 0.86698 0.50944 0.0
C1476 C 0.47386 0.90124 0.51357 0.0
C1477 C 0.39524 0.09325 0.49922 0.0
C1478 C 0.38393 0.10921 0.51204 0.0
C1479 C 0.42134 0.0665 0.49935 0.0
C1480 C 0.43694 0.05572 0.51225 0.0
C1481 C 0.42535 0.07112 0.52507 0.0
C1482 C 0.39893 0.09747 0.52499 0.0
C1483 C 0.46549 0.02841 0.51236 0.0
C1484 C 0.45741 0.99377 0.50762 0.0
C1485 C 0.50003 0.03605 0.51768 0.0
C1486 C 0.51076 0.07276 0.52191 0.0
C1487 C 0.52429 0.07936 0.53565 0.0
C1488 C 0.53516 0.11383 0.53952 0.0
C1489 C 0.53297 0.14183 0.52968 0.0
C1490 C 0.51972 0.13546 0.51598 0.0
C1491 C 0.50859 0.10111 0.51209 0.0
H1492 H 0.54155 0.16845 0.53266 0.0
H1493 H 0.44273 0.83424 0.49236 0.0
H1494 H 0.09339 0.1146 0.74072 0.0
H1495 H 0.04756 0.06799 0.74079 0.0
H1496 H 0.05589 0.0598 0.78656 0.0
H1497 H 0.1018 0.10626 0.78663 0.0
H1498 H 0.0609 0.99475 0.7734 0.0
H1499 H 0.98325 0.09663 0.77216 0.0
H1500 H 0.9599 0.15408 0.7632 0.0
H1501 H 0.93706 0.10572 0.72267 0.0
H1502 H 0.96075 0.04806 0.73132 0.0
H1503 H 0.90909 0.88359 0.78519 0.0
H1504 H 0.9539 0.93111 0.78518 0.0
H1505 H 0.9432 0.94159 0.73955 0.0
H1506 H 0.89808 0.89438 0.73945 0.0
H1507 H 0.93932 0.00567 0.75268 0.0
H1508 H 0.0171 0.90384 0.75385 0.0
H1509 H 0.04016 0.84628 0.76281 0.0
H1510 H 0.06282 0.89443 0.8034 0.0
H1511 H 0.03942 0.9522 0.79474 0.0
C1512 C 0.08517 0.10325 0.75083 0.0
C1513 C 0.10139 0.11408 0.76366 0.0
C1514 C 0.0589 0.07667 0.75085 0.0
C1515 C 0.04838 0.0605 0.76369 0.0
C1516 C 0.06375 0.07192 0.77654 0.0
C1517 C 0.08987 0.09861 0.77655 0.0
C1518 C 0.02276 0.03032 0.76362 0.0
C1519 C 0.03411 0.99723 0.76906 0.0
C1520 C 0.98823 0.03343 0.75761 0.0
C1521 C 0.97413 0.06811 0.75234 0.0
C1522 C 0.97357 0.09832 0.76129 0.0
C1523 C 0.9602 0.13091 0.75628 0.0
C1524 C 0.9471 0.13357 0.74236 0.0
C1525 C 0.94727 0.10363 0.73344 0.0
C1526 C 0.96063 0.07098 0.7384 0.0
C1527 C 0.91658 0.89563 0.77512 0.0
C1528 C 0.89991 0.8852 0.76232 0.0
C1529 C 0.94225 0.92277 0.77513 0.0
C1530 C 0.95191 0.93979 0.76236 0.0
C1531 C 0.93601 0.92885 0.74953 0.0
C1532 C 0.91035 0.90174 0.7495 0.0
C1533 C 0.97745 0.97006 0.76245 0.0
C1534 C 0.96611 0.00317 0.75702 0.0
C1535 C 0.01201 0.96696 0.76846 0.0
C1536 C 0.02618 0.93227 0.77369 0.0
C1537 C 0.02672 0.90209 0.76472 0.0
C1538 C 0.03991 0.86944 0.76974 0.0
C1539 C 0.05286 0.86668 0.78368 0.0
C1540 C 0.05273 0.8966 0.79261 0.0
C1541 C 0.03954 0.92932 0.78765 0.0
H1542 H 0.06306 0.84137 0.78754 0.0
H1543 H 0.93673 0.15882 0.73851 0.0
H1544 H 0.87774 0.4112 0.53706 0.0
H1545 H 0.92645 0.45465 0.53634 0.0
H1546 H 0.93662 0.43903 0.49094 0.0
H1547 H 0.88793 0.39538 0.49153 0.0
H1548 H 0.00089 0.43306 0.50515 0.0
H1549 H 0.90244 0.51513 0.50313 0.0
H1550 H 0.84536 0.54176 0.5109 0.0
H1551 H 0.89181 0.56857 0.5514 0.0
H1552 H 0.94906 0.54162 0.54395 0.0
H1553 H 0.11606 0.58122 0.49055 0.0
H1554 H 0.06958 0.5354 0.49153 0.0
H1555 H 0.05647 0.5544 0.53661 0.0
H1556 H 0.10275 0.60045 0.53574 0.0
H1557 H 0.99378 0.55808 0.52265 0.0
H1558 H 0.09251 0.47755 0.52473 0.0
H1559 H 0.14907 0.44875 0.51765 0.0
H1560 H 0.10244 0.41733 0.47772 0.0
H1561 H 0.04577 0.44657 0.48443 0.0
C1562 C 0.88995 0.41734 0.52687 0.0
C1563 C 0.87899 0.39973 0.51435 0.0
C1564 C 0.91776 0.44223 0.52648 0.0
C1565 C 0.93508 0.45001 0.51358 0.0
C1566 C 0.92358 0.43328 0.501 0.0
C1567 C 0.89562 0.40852 0.50136 0.0
C1568 C 0.96635 0.47425 0.51338 0.0
C1569 C -0.00068 0.46061 0.50874 0.0
C1570 C 0.96433 0.50973 0.51852 0.0
C1571 C 0.92995 0.52603 0.52302 0.0
C1572 C 0.9004 0.52642 0.51374 0.0
C1573 C 0.86803 0.54163 0.51807 0.0
C1574 C 0.86493 0.55676 0.53165 0.0
C1575 C 0.89423 0.5568 0.5409 0.0
C1576 C 0.92666 0.54159 0.53661 0.0
C1577 C 0.10375 0.57527 0.50073 0.0
C1578 C 0.11297 0.59472 0.51305 0.0
C1579 C 0.07726 0.54895 0.50128 0.0
C1580 C 0.05959 0.54152 0.51414 0.0
C1581 C 0.06975 0.55981 0.52657 0.0
C1582 C 0.09632 0.58604 0.52605 0.0
C1583 C 0.0285 0.51697 0.51438 0.0
C1584 C 0.99548 0.53056 0.51903 0.0
C1585 C 0.03055 0.4814 0.50927 0.0
C1586 C 0.06498 0.46469 0.50502 0.0
C1587 C 0.09444 0.46496 0.51435 0.0
C1588 C 0.1265 0.44845 0.51042 0.0
C1589 C 0.12939 0.43132 0.49723 0.0
C1590 C 0.10021 0.43069 0.48792 0.0
C1591 C 0.06811 0.44724 0.49178 0.0
H1592 H 0.15419 0.41844 0.49423 0.0
H1593 H 0.83985 0.56853 0.53498 0.0
H1594 H 0.56516 0.36236 0.778 0.0
H1595 H 0.5168 0.40606 0.77554 0.0
H1596 H 0.57767 0.46158 0.7432 0.0
H1597 H 0.62448 0.41631 0.74488 0.0
H1598 H 0.51248 0.4699 0.78124 0.0
H1599 H 0.52824 0.51035 0.72142 0.0
H1600 H 0.54352 0.48196 0.69846 0.0
H1601 H 0.51038 0.37983 0.71474 0.0
H1602 H 0.49446 0.40766 0.73773 0.0
H1603 H 0.42487 0.63353 0.77328 0.0
H1604 H 0.46982 0.58603 0.77235 0.0
H1605 H 0.40467 0.52816 0.74207 0.0
H1606 H 0.36119 0.57692 0.74219 0.0
H1607 H 0.46768 0.51729 0.73518 0.0
H1608 H 0.40732 0.50884 0.77969 0.0
H1609 H 0.38342 0.52979 0.80274 0.0
H1610 H 0.48985 0.55329 0.81717 0.0
H1611 H 0.51436 0.53291 0.79412 0.0
C1612 C 0.56773 0.38359 0.77019 0.0
C1613 C 0.59818 0.3859 0.76152 0.0
C1614 C 0.54024 0.40865 0.76883 0.0
C1615 C 0.54321 0.43703 0.75905 0.0
C1616 C 0.574 0.43942 0.75049 0.0
C1617 C 0.60088 0.41366 0.75151 0.0
C1618 C 0.51506 0.46509 0.75833 0.0
C1619 C 0.50256 0.48002 0.77114 0.0
C1620 C 0.50136 0.47798 0.74521 0.0
C1621 C 0.51046 0.46108 0.73134 0.0
C1622 C 0.52406 0.48187 0.72008 0.0
C1623 C 0.53286 0.46586 0.70706 0.0
C1624 C 0.52802 0.4291 0.70516 0.0
C1625 C 0.51424 0.40828 0.71625 0.0
C1626 C 0.50535 0.42415 0.72928 0.0
C1627 C 0.42054 0.61084 0.76629 0.0
C1628 C 0.38968 0.6087 0.75784 0.0
C1629 C 0.44601 0.58356 0.76585 0.0
C1630 C 0.44023 0.55292 0.75745 0.0
C1631 C 0.40981 0.55139 0.74867 0.0
C1632 C 0.38495 0.57923 0.74875 0.0
C1633 C 0.46532 0.52212 0.75807 0.0
C1634 C 0.47738 0.50685 0.74525 0.0
C1635 C 0.4772 0.50761 0.7712 0.0
C1636 C 0.46263 0.51964 0.78513 0.0
C1637 C 0.42561 0.51866 0.78775 0.0
C1638 C 0.41196 0.53042 0.80082 0.0
C1639 C 0.4351 0.54294 0.8114 0.0
C1640 C 0.47196 0.54362 0.80896 0.0
C1641 C 0.48575 0.53194 0.7959 0.0
H1642 H 0.42448 0.55206 0.82151 0.0
H1643 H 0.53489 0.41676 0.69508 0.0
H1644 H 0.6072 0.09892 0.0381 0.0
H1645 H 0.55949 0.05424 0.03795 0.0
H1646 H 0.56518 0.0487 0.99205 0.0
H1647 H 0.61253 0.0936 0.99205 0.0
H1648 H 0.49736 0.05701 0.00107 0.0
H1649 H 0.59694 0.98097 0.01262 0.0
H1650 H 0.64993 0.96194 0.02631 0.0
H1651 H 0.58602 0.95325 0.0642 0.0
H1652 H 0.53271 0.97271 0.05077 0.0
H1653 H 0.39363 0.90005 0.98956 0.0
H1654 H 0.4395 0.94647 0.99064 0.0
H1655 H 0.43096 0.94872 0.03652 0.0
H1656 H 0.38538 0.90202 0.03559 0.0
H1657 H 0.49935 0.94304 0.02816 0.0
H1658 H 0.39954 0.01768 0.01666 0.0
H1659 H 0.34646 0.03725 0.00315 0.0
H1660 H 0.41043 0.04906 0.96541 0.0
H1661 H 0.46383 0.02909 0.97865 0.0
C1662 C 0.59868 0.08786 0.02798 0.0
C1663 C 0.61364 0.09994 0.01509 0.0
C1664 C 0.57141 0.06229 0.02792 0.0
C1665 C 0.55885 0.04815 0.01498 0.0
C1666 C 0.5744 0.05942 0.00214 0.0
C1667 C 0.60158 0.08498 0.00218 0.0
C1668 C 0.52848 0.02273 0.01476 0.0
C1669 C 0.49795 0.03184 0.00684 0.0
C1670 C 0.52891 0.99046 0.02263 0.0
C1671 C 0.56091 0.97865 0.03072 0.0
C1672 C 0.59424 0.97528 0.02389 0.0
C1673 C 0.62432 0.96436 0.0316 0.0
C1674 C 0.62137 0.95648 0.04612 0.0
C1675 C 0.58829 0.95941 0.05296 0.0
C1676 C 0.55812 0.97035 0.0453 0.0
C1677 C 0.40112 0.91073 0.99988 0.0
C1678 C 0.3859 0.89718 0.01249 0.0
C1679 C 0.4273 0.93735 1.00047 0.0
C1680 C 0.43856 0.95108 0.01367 0.0
C1681 C 0.4227 0.93839 0.02624 0.0
C1682 C 0.39653 0.91178 0.02567 0.0
C1683 C 0.46829 0.9772 0.01439 0.0
C1684 C 0.4987 0.96824 0.02242 0.0
C1685 C 0.46773 0.00964 0.00663 0.0
C1686 C 0.43563 0.02155 0.99862 0.0
C1687 C 0.40224 0.02414 0.00545 0.0
C1688 C 0.3721 0.03538 0.99784 0.0
C1689 C 0.37505 0.0443 0.98342 0.0
C1690 C 0.40817 0.04209 0.97658 0.0
C1691 C 0.43839 0.03085 0.98413 0.0
H1692 H 0.35169 0.05301 0.97755 0.0
H1693 H 0.64469 0.94803 0.05207 0.0
H1694 H 0.08503 0.86835 0.28244 0.0
H1695 H 0.03662 0.91258 0.28288 0.0
H1696 H 0.08474 0.967 0.24703 0.0
H1697 H 0.13069 0.92112 0.24574 0.0
H1698 H 0.03024 0.97721 0.28765 0.0
H1699 H 0.02834 0.00992 0.22673 0.0
H1700 H 0.03825 0.9788 0.20386 0.0
H1701 H 0.01326 0.87821 0.22361 0.0
H1702 H 0.00273 0.90876 0.24654 0.0
H1703 H 0.9316 0.13659 0.27924 0.0
H1704 H 0.97782 0.09012 0.27893 0.0
H1705 H 0.91129 0.02551 0.25138 0.0
H1706 H 0.86686 0.07318 0.25073 0.0
H1707 H 0.97169 0.01674 0.24289 0.0
H1708 H 0.92333 0.01139 0.28972 0.0
H1709 H 0.90443 0.03362 0.31331 0.0
H1710 H 0.01272 0.06325 0.32294 0.0
H1711 H 0.0322 0.04161 0.29933 0.0
C1712 C 0.08484 0.88958 0.27457 0.0
C1713 C 0.11123 0.89113 0.26395 0.0
C1714 C 0.05735 0.91497 0.27487 0.0
C1715 C 0.05643 0.94283 0.26478 0.0
C1716 C 0.08386 0.94511 0.25459 0.0
C1717 C 0.11038 0.91902 0.25393 0.0
C1718 C 0.02704 0.96965 0.26489 0.0
C1719 C 0.01727 0.98567 0.27786 0.0
C1720 C 0.00928 0.98017 0.25221 0.0
C1721 C 0.01506 0.96163 0.23838 0.0
C1722 C 0.02478 0.98119 0.22617 0.0
C1723 C 0.03055 0.96364 0.2132 0.0
C1724 C 0.02649 0.92654 0.2123 0.0
C1725 C 0.01651 0.90693 0.22434 0.0
C1726 C 0.01067 0.92434 0.23733 0.0
C1727 C 0.92724 0.11255 0.27302 0.0
C1728 C 0.89595 0.10837 0.26495 0.0
C1729 C 0.9534 0.08581 0.27297 0.0
C1730 C 0.94787 0.05377 0.26537 0.0
C1731 C 0.91647 0.04989 0.25728 0.0
C1732 C 0.89103 0.07712 0.25691 0.0
C1733 C 0.97476 0.0244 0.26566 0.0
C1734 C 0.98429 0.00806 0.25271 0.0
C1735 C 0.99071 0.01216 0.27848 0.0
C1736 C 0.97915 0.02519 0.2927 0.0
C1737 C 0.94307 0.02287 0.29683 0.0
C1738 C 0.93226 0.03533 0.31021 0.0
C1739 C 0.95734 0.04992 0.3196 0.0
C1740 C 0.99331 0.05199 0.31565 0.0
C1741 C 0.00426 0.0396 0.30227 0.0
H1742 H 0.94892 0.05955 0.32996 0.0
H1743 H 0.03102 0.91301 0.20225 0.0
H1744 H 0.6112 0.27832 0.99157 0.0
H1745 H 0.55309 0.30827 0.99142 0.0
H1746 H 0.54683 0.29818 0.03712 0.0
H1747 H 0.60502 0.26896 0.0375 0.0
H1748 H 0.49835 0.25439 0.01132 0.0
H1749 H 0.53605 0.36545 0.03565 0.0
H1750 H 0.57177 0.42082 0.03695 0.0
H1751 H 0.52855 0.45531 0.99681 0.0
H1752 H 0.493 0.39979 0.99517 0.0
H1753 H 0.32282 0.28265 0.0317 0.0
H1754 H 0.38805 0.28389 0.03184 0.0
H1755 H 0.38745 0.35716 0.99626 0.0
H1756 H 0.32177 0.35747 0.99662 0.0
H1757 H 0.44073 0.37368 0.01464 0.0
H1758 H 0.39958 0.26954 0.99049 0.0
H1759 H 0.36453 0.21443 0.98681 0.0
H1760 H 0.41551 0.16603 0.02302 0.0
H1761 H 0.45045 0.2211 0.02708 0.0
C1762 C 0.59824 0.28384 0.00166 0.0
C1763 C 0.61241 0.27051 0.01452 0.0
C1764 C 0.56511 0.30115 0.00154 0.0
C1765 C 0.54591 0.30547 0.01426 0.0
C1766 C 0.56161 0.29555 0.02723 0.0
C1767 C 0.59484 0.27862 0.0274 0.0
C1768 C 0.50695 0.31101 0.01367 0.0
C1769 C 0.48565 0.28042 0.0122 0.0
C1770 C 0.49083 0.34509 0.01422 0.0
C1771 C 0.51237 0.37823 0.01518 0.0
C1772 C 0.53459 0.38457 0.027 0.0
C1773 C 0.55468 0.41606 0.02783 0.0
C1774 C 0.55256 0.4415 0.01694 0.0
C1775 C 0.53025 0.43554 0.00521 0.0
C1776 C 0.51013 0.40408 0.00434 0.0
C1777 C 0.33657 0.29961 0.02411 0.0
C1778 C 0.31739 0.31974 0.01407 0.0
C1779 C 0.37382 0.30008 0.02411 0.0
C1780 C 0.39257 0.3201 0.01388 0.0
C1781 C 0.37348 0.34139 0.00419 0.0
C1782 C 0.33608 0.34124 0.0043 0.0
C1783 C 0.43193 0.31679 0.01284 0.0
C1784 C 0.45334 0.34763 0.0138 0.0
C1785 C 0.44838 0.28284 0.01157 0.0
C1786 C 0.42742 0.24959 0.00916 0.0
C1787 C 0.40312 0.24726 0.99774 0.0
C1788 C 0.38329 0.21601 0.99558 0.0
C1789 C 0.38774 0.18677 0.00469 0.0
C1790 C 0.41207 0.18871 0.01598 0.0
C1791 C 0.4319 0.21993 0.01821 0.0
H1792 H 0.3724 0.16258 0.00299 0.0
H1793 H 0.5681 0.46588 0.0176 0.0
H1794 H 0.63992 0.81784 0.24996 0.0
H1795 H 0.6335 0.88317 0.25037 0.0
H1796 H 0.71421 0.88987 0.28311 0.0
H1797 H 0.72214 0.82488 0.2822 0.0
H1798 H 0.64675 0.93549 0.28655 0.0
H1799 H 0.74335 0.90268 0.25315 0.0
H1800 H 0.76518 0.86967 0.2321 0.0
H1801 H 0.68501 0.91982 0.20611 0.0
H1802 H 0.66234 0.95268 0.22709 0.0
H1803 H 0.7438 0.09327 0.28974 0.0
H1804 H 0.71225 0.03672 0.2894 0.0
H1805 H 0.67342 0.05947 0.24697 0.0
H1806 H 0.70695 0.11563 0.24697 0.0
H1807 H 0.70284 -5e-05 0.24607 0.0
H1808 H 0.61556 0.04457 0.27734 0.0
H1809 H 0.58945 0.07691 0.29774 0.0
H1810 H 0.64323 0.00635 0.32681 0.0
H1811 H 0.67012 0.97387 0.30661 0.0
C1812 C 0.65642 0.83331 0.25717 0.0
C1813 C 0.6818 0.81643 0.26595 0.0
C1814 C 0.65238 0.87047 0.25752 0.0
C1815 C 0.67322 0.89111 0.26684 0.0
C1816 C 0.6976 0.87421 0.27598 0.0
C1817 C 0.70213 0.83718 0.27544 0.0
C1818 C 0.67242 0.93054 0.26614 0.0
C1819 C 0.65892 0.94988 0.27776 0.0
C1820 C 0.6868 0.94897 0.25433 0.0
C1821 C 0.7009 0.92976 0.2417 0.0
C1822 C 0.73021 0.90643 0.24297 0.0
C1823 C 0.74276 0.88778 0.23105 0.0
C1824 C 0.72642 0.89255 0.21778 0.0
C1825 C 0.69759 0.91609 0.2164 0.0
C1826 C 0.68489 0.93473 0.2283 0.0
C1827 C 0.72766 0.0869 0.28049 0.0
C1828 C 0.72838 0.10872 0.26829 0.0
C1829 C 0.70926 0.05445 0.28034 0.0
C1830 C 0.69027 0.04357 0.26815 0.0
C1831 C 0.68809 0.06705 0.25647 0.0
C1832 C 0.70716 0.09924 0.25649 0.0
C1833 C 0.67826 0.00574 0.26682 0.0
C1834 C 0.68951 0.98629 0.25479 0.0
C1835 C 0.66105 0.98741 0.27815 0.0
C1836 C 0.64498 0.00683 0.29041 0.0
C1837 C 0.62203 0.03607 0.28808 0.0
C1838 C 0.60705 0.05442 0.29962 0.0
C1839 C 0.6147 0.04371 0.31356 0.0
C1840 C 0.6373 0.01459 0.316 0.0
C1841 C 0.65236 0.99615 0.3045 0.0
H1842 H 0.60308 0.05796 0.32248 0.0
H1843 H 0.73616 0.87809 0.20857 0.0
H1844 H 0.87718 0.22092 0.49089 0.0
H1845 H 0.93605 0.19305 0.48877 0.0
H1846 H 0.9532 0.2072 0.53385 0.0
H1847 H 0.89438 0.23448 0.5362 0.0
H1848 H 0.99353 0.24947 0.50437 0.0
H1849 H 0.96794 0.14202 0.53457 0.0
H1850 H 0.93444 0.0862 0.53891 0.0
H1851 H 0.96465 0.0472 0.49755 0.0
H1852 H 0.99791 0.1031 0.49291 0.0
H1853 H 0.17129 0.22891 0.52432 0.0
H1854 H 0.10601 0.22909 0.5237 0.0
H1855 H 0.10741 0.14632 0.49159 0.0
H1856 H 0.17309 0.14507 0.49267 0.0
H1857 H 0.05592 0.13345 0.51079 0.0
H1858 H 0.09164 0.23247 0.48241 0.0
H1859 H 0.12387 0.28773 0.47601 0.0
H1860 H 0.07284 0.34347 0.51049 0.0
H1861 H 0.04077 0.28835 0.51728 0.0
C1862 C 0.89278 0.21675 0.50047 0.0
C1863 C 0.88141 0.23072 0.51366 0.0
C1864 C 0.92635 0.20064 0.49923 0.0
C1865 C 0.94874 0.19803 0.51116 0.0
C1866 C 0.93596 0.20846 0.52458 0.0
C1867 C 0.90234 0.22428 0.52586 0.0
C1868 C 0.98751 0.19349 0.50914 0.0
C1869 C 0.00734 0.2242 0.50585 0.0
C1870 C 0.00493 0.16026 0.51053 0.0
C1871 C 0.98484 0.1269 0.51331 0.0
C1872 C 0.96699 0.12176 0.52633 0.0
C1873 C 0.94818 0.09005 0.52887 0.0
C1874 C 0.94727 0.06323 0.51848 0.0
C1875 C 0.96527 0.06803 0.50556 0.0
C1876 C 0.9841 0.0997 0.50298 0.0
C1877 C 0.15761 0.21056 0.51723 0.0
C1878 C 0.17698 0.18707 0.50851 0.0
C1879 C 0.12039 0.21086 0.51679 0.0
C1880 C 0.10189 0.18812 0.50742 0.0
C1881 C 0.1212 0.16419 0.49883 0.0
C1882 C 0.15857 0.16369 0.49937 0.0
C1883 C 0.0624 0.18991 0.50663 0.0
C1884 C 0.04231 0.15877 0.50922 0.0
C1885 C 0.04456 0.22286 0.50442 0.0
C1886 C 0.06398 0.25612 0.50043 0.0
C1887 C 0.08751 0.2564 0.48872 0.0
C1888 C 0.10573 0.28773 0.48501 0.0
C1889 C 0.10046 0.31907 0.49286 0.0
C1890 C 0.07693 0.31915 0.50443 0.0
C1891 C 0.05871 0.28787 0.50821 0.0
H1892 H 0.11455 0.3433 0.48996 0.0
H1893 H 0.93273 0.03869 0.52047 0.0
H1894 H 0.75604 0.40723 0.78641 0.0
H1895 H 0.78655 0.46421 0.78369 0.0
H1896 H 0.81907 0.43451 0.74116 0.0
H1897 H 0.78719 0.37774 0.74357 0.0
H1898 H 0.84651 0.49712 0.77753 0.0
H1899 H 0.80122 0.50252 0.71915 0.0
H1900 H 0.75908 0.47168 0.703 0.0
H1901 H 0.68984 0.44859 0.73837 0.0
H1902 H 0.73135 0.47967 0.75466 0.0
H1903 H 0.87657 0.67826 0.75689 0.0
H1904 H 0.87793 0.61252 0.75593 0.0
H1905 H 0.76242 0.61065 0.75511 0.0
H1906 H 0.76138 0.67618 0.75554 0.0
H1907 H 0.78655 0.56191 0.73798 0.0
H1908 H 0.81173 0.599 0.78617 0.0
H1909 H 0.84522 0.63118 0.80485 0.0
H1910 H 0.94016 0.57233 0.79421 0.0
H1911 H 0.90732 0.5402 0.77529 0.0
C1912 C 0.77055 0.41223 0.77661 0.0
C1913 C 0.76819 0.38845 0.76503 0.0
C1914 C 0.7882 0.44488 0.7751 0.0
C1915 C 0.80411 0.45407 0.76206 0.0
C1916 C 0.80614 0.42828 0.75119 0.0
C1917 C 0.78794 0.39581 0.7526 0.0
C1918 C 0.81236 0.49218 0.75913 0.0
C1919 C 0.83396 0.51122 0.76874 0.0
C1920 C 0.79519 0.51078 0.74788 0.0
C1921 C 0.76957 0.49301 0.73811 0.0
C1922 C 0.77692 0.49098 0.72344 0.0
C1923 C 0.75317 0.47345 0.71428 0.0
C1924 C 0.72188 0.45807 0.71966 0.0
C1925 C 0.71413 0.46041 0.73422 0.0
C1926 C 0.73774 0.478 0.74341 0.0
C1927 C 0.85166 0.66354 0.75631 0.0
C1928 C 0.81887 0.68168 0.7563 0.0
C1929 C 0.85239 0.62617 0.75582 0.0
C1930 C 0.82027 0.60664 0.75561 0.0
C1931 C 0.78753 0.62511 0.75521 0.0
C1932 C 0.78687 0.6624 0.75552 0.0
C1933 C 0.82024 0.56704 0.75652 0.0
C1934 C 0.8001 0.54774 0.74652 0.0
C1935 C 0.83753 0.54852 0.76776 0.0
C1936 C 0.8572 0.56752 0.77921 0.0
C1937 C 0.83981 0.5931 0.78775 0.0
C1938 C 0.85866 0.61132 0.79839 0.0
C1939 C 0.89482 0.60388 0.80069 0.0
C1940 C 0.91217 0.57812 0.79239 0.0
C1941 C 0.89346 0.55991 0.78171 0.0
H1942 H 0.90938 0.618 0.80893 0.0
H1943 H 0.7036 0.4444 0.71256 0.0
H1944 H 0.66799 0.35381 0.50012 0.0
H1945 H 0.60283 0.35485 0.50086 0.0
H1946 H 0.60466 0.29199 0.53952 0.0
H1947 H 0.66959 0.28772 0.53789 0.0
H1948 H 0.55735 0.26649 0.52432 0.0
H1949 H 0.58251 0.38639 0.53775 0.0
H1950 H 0.60959 0.44643 0.53631 0.0
H1951 H 0.55629 0.46515 0.49643 0.0
H1952 H 0.52927 0.405 0.49753 0.0
H1953 H 0.37828 0.28042 0.53794 0.0
H1954 H 0.436 0.3099 0.54037 0.0
H1955 H 0.44471 0.31767 0.49466 0.0
H1956 H 0.38703 0.28782 0.49201 0.0
H1957 H 0.4843 0.37519 0.5154 0.0
H1958 H 0.47054 0.24538 0.50227 0.0
H1959 H 0.43839 0.1888 0.50688 0.0
H1960 H 0.46872 0.19366 0.55101 0.0
H1961 H 0.50052 0.25058 0.54667 0.0
C1962 C 0.65444 0.3398 0.50865 0.0
C1963 C 0.67388 0.32047 0.51889 0.0
C1964 C 0.61716 0.34105 0.50925 0.0
C1965 C 0.59863 0.32408 0.5204 0.0
C1966 C 0.6182 0.30542 0.53082 0.0
C1967 C 0.65539 0.30331 0.52998 0.0
C1968 C 0.55889 0.32361 0.52068 0.0
C1969 C 0.54169 0.29053 0.52259 0.0
C1970 C 0.53793 0.35479 0.51837 0.0
C1971 C 0.55409 0.39103 0.51766 0.0
C1972 C 0.57676 0.40319 0.52862 0.0
C1973 C 0.59207 0.43727 0.52787 0.0
C1974 C 0.58473 0.45955 0.51627 0.0
C1975 C 0.56198 0.44784 0.50541 0.0
C1976 C 0.54662 0.41377 0.50609 0.0
C1977 C 0.39162 0.28971 0.52838 0.0
C1978 C 0.37867 0.2806 0.51476 0.0
C1979 C 0.42454 0.30685 0.52982 0.0
C1980 C 0.44467 0.31534 0.51769 0.0
C1981 C 0.42941 0.31126 0.50413 0.0
C1982 C 0.39653 0.2939 0.50266 0.0
C1983 C 0.48381 0.31842 0.51895 0.0
C1984 C 0.50056 0.35162 0.51726 0.0
C1985 C 0.50452 0.28766 0.52183 0.0
C1986 C 0.48766 0.25223 0.52417 0.0
C1987 C 0.4703 0.23435 0.51295 0.0
C1988 C 0.45203 0.20234 0.51552 0.0
C1989 C 0.45135 0.1878 0.52925 0.0
C1990 C 0.46915 0.20507 0.5404 0.0
C1991 C 0.48734 0.23715 0.53789 0.0
H1992 H 0.43726 0.16303 0.53123 0.0
H1993 H 0.5966 0.48593 0.51571 0.0
H1994 H 0.70928 0.18044 0.78965 0.0
H1995 H 0.70918 0.11534 0.79137 0.0
H1996 H 0.64793 0.10875 0.75243 0.0
H1997 H 0.64561 0.17416 0.7513 0.0
H1998 H 0.62727 0.05762 0.76964 0.0
H1999 H 0.73982 0.09967 0.7526 0.0
H2000 H 0.79527 0.13538 0.75243 0.0
H2001 H 0.8275 0.08766 0.79205 0.0
H2002 H 0.77194 0.05202 0.79258 0.0
H2003 H 0.71583 0.89227 0.74593 0.0
H2004 H 0.68674 0.9504 0.74891 0.0
H2005 H 0.71153 0.94871 0.79379 0.0
H2006 H 0.74002 0.89048 0.79106 0.0
H2007 H 0.74742 0.00261 0.77425 0.0
H2008 H 0.63311 0.95543 0.78869 0.0
H2009 H 0.57886 0.91854 0.78605 0.0
H2010 H 0.55206 0.97426 0.74745 0.0
H2011 H 0.60648 0.01113 0.74974 0.0
C2012 C 0.69504 0.16516 0.78165 0.0
C2013 C 0.67776 0.18231 0.77026 0.0
C2014 C 0.69533 0.12793 0.78255 0.0
C2015 C 0.67925 0.10712 0.77185 0.0
C2016 C 0.66072 0.12423 0.76076 0.0
C2017 C 0.65983 0.16156 0.76002 0.0
C2018 C 0.68382 0.06771 0.77176 0.0
C2019 C 0.65356 0.04557 0.77054 0.0
C2020 C 0.71813 0.05196 0.77294 0.0
C2021 C 0.75153 0.07347 0.77271 0.0
C2022 C 0.75859 0.09701 0.76134 0.0
C2023 C 0.79006 0.11721 0.76117 0.0
C2024 C 0.81485 0.11386 0.77224 0.0
C2025 C 0.80824 0.09027 0.7835 0.0
C2026 C 0.77677 0.07006 0.78374 0.0
C2027 C 0.71386 0.90356 0.75655 0.0
C2028 C 0.731 0.88711 0.7682 0.0
C2029 C 0.69709 0.93672 0.75823 0.0
C2030 C 0.69734 0.95378 0.77154 0.0
C2031 C 0.71107 0.93578 0.78344 0.0
C2032 C 0.72741 0.90249 0.78183 0.0
C2033 C 0.69093 0.99265 0.77238 0.0
C2034 C 0.72108 0.0147 0.77354 0.0
C2035 C 0.65673 0.00808 0.77074 0.0
C2036 C 0.62412 0.98578 0.7693 0.0
C2037 C 0.61589 0.95954 0.77954 0.0
C2038 C 0.58504 0.9387 0.77814 0.0
C2039 C 0.56208 0.94398 0.76657 0.0
C2040 C 0.56989 0.97016 0.7564 0.0
C2041 C 0.60072 0.99106 0.75775 0.0
H2042 H 0.53819 0.92784 0.7655 0.0
H2043 H 0.83923 0.12948 0.77208 0.0
H2044 H 0.112 0.21338 0.99027 0.0
H2045 H 0.05297 0.1857 0.99065 0.0
H2046 H 0.05177 0.19154 0.03655 0.0
H2047 H 0.11081 0.21905 0.03635 0.0
H2048 H 0.00802 0.13075 0.00574 0.0
H2049 H 0.98309 0.24888 0.04293 0.0
H2050 H 0.01153 0.30597 0.04983 0.0
H2051 H 0.05698 0.31586 0.00796 0.0
H2052 H 0.02825 0.25921 1.00075 0.0
H2053 H 0.82296 0.13535 0.02645 0.0
H2054 H 0.88863 0.13453 0.0263 0.0
H2055 H 0.88922 0.22641 0.9984 0.0
H2056 H 0.82374 0.22769 0.99883 0.0
H2057 H 0.93426 0.23529 0.02004 0.0
H2058 H 0.90837 0.14348 0.98581 0.0
H2059 H 0.88063 0.08776 0.9771 0.0
H2060 H 0.93594 0.02778 0.00933 0.0
H2061 H 0.96363 0.08326 0.01838 0.0
C2062 C 0.09999 0.20737 1.00049 0.0
C2063 C 0.11554 0.21968 0.01325 0.0
C2064 C 0.06626 0.1913 1.00068 0.0
C2065 C 0.04785 0.18747 0.0136 0.0
C2066 C 0.06557 0.19467 0.02646 0.0
C2067 C 0.09931 0.21058 0.0263 0.0
C2068 C 0.00848 0.18495 0.01347 0.0
C2069 C 0.99175 0.15336 0.00897 0.0
C2070 C 0.98751 0.21494 0.01731 0.0
C2071 C 0.00389 0.24963 0.02138 0.0
C2072 C -0.00099 0.26335 0.03519 0.0
C2073 C 0.01517 0.29562 0.03915 0.0
C2074 C 0.03615 0.31445 0.02935 0.0
C2075 C 0.04082 0.30119 0.01555 0.0
C2076 C 0.02462 0.269 0.01153 0.0
C2077 C 0.83729 0.15531 0.02031 0.0
C2078 C 0.81862 0.18159 0.01264 0.0
C2079 C 0.87465 0.15466 0.02014 0.0
C2080 C 0.89374 0.18023 0.01225 0.0
C2081 C 0.87497 0.2064 0.00454 0.0
C2082 C 0.83769 0.20705 0.00473 0.0
C2083 C 0.93331 0.18084 0.01245 0.0
C2084 C 0.95025 0.21235 0.01694 0.0
C2085 C 0.95425 0.15098 0.00832 0.0
C2086 C 0.93779 0.11758 0.00286 0.0
C2087 C 0.91439 0.11845 0.99112 0.0
C2088 C 0.89872 0.0869 0.9861 0.0
C2089 C 0.90644 0.05426 0.99268 0.0
C2090 C 0.92994 0.05309 0.00426 0.0
C2091 C 0.94566 0.08458 0.00933 0.0
H2092 H 0.89428 0.02986 0.98878 0.0
H2093 H 0.04869 0.33935 0.03246 0.0
H2094 H 0.77737 0.32504 0.27589 0.0
H2095 H 0.78057 0.39031 0.27333 0.0
H2096 H 0.87342 0.37938 0.24638 0.0
H2097 H 0.86989 0.31386 0.24876 0.0
H2098 H 0.87439 0.43801 0.26911 0.0
H2099 H 0.80871 0.39249 0.22894 0.0
H2100 H 0.763 0.35458 0.2175 0.0
H2101 H 0.68059 0.40793 0.24126 0.0
H2102 H 0.72592 0.44569 0.25306 0.0
H2103 H 0.77666 0.60819 0.23627 0.0
H2104 H 0.80683 0.55059 0.23413 0.0
H2105 H 0.8117 0.54221 0.27997 0.0
H2106 H 0.78199 0.5999 0.28223 0.0
H2107 H 0.77266 0.4931 0.24318 0.0
H2108 H 0.87489 0.48235 0.29002 0.0
H2109 H 0.92134 0.51941 0.30143 0.0
H2110 H 0.93353 0.58004 0.26284 0.0
H2111 H 0.88753 0.54304 0.25112 0.0
C2112 C 0.79862 0.3367 0.26955 0.0
C2113 C 0.82322 0.31481 0.26242 0.0
C2114 C 0.80048 0.37379 0.26812 0.0
C2115 C 0.82722 0.38945 0.25967 0.0
C2116 C 0.85273 0.36767 0.25298 0.0
C2117 C 0.85055 0.33046 0.25426 0.0
C2118 C 0.82646 0.42836 0.25702 0.0
C2119 C 0.85241 0.45027 0.26337 0.0
C2120 C 0.79819 0.44395 0.24922 0.0
C2121 C 0.77076 0.42174 0.24196 0.0
C2122 C 0.78087 0.39595 0.23181 0.0
C2123 C 0.75503 0.37451 0.22525 0.0
C2124 C 0.71891 0.37881 0.22866 0.0
C2125 C 0.70857 0.40462 0.23863 0.0
C2126 C 0.73434 0.42606 0.24525 0.0
C2127 C 0.7852 0.59473 0.24591 0.0
C2128 C 0.77618 0.60835 0.25943 0.0
C2129 C 0.80245 0.56174 0.24465 0.0
C2130 C 0.81122 0.54193 0.25687 0.0
C2131 C 0.80547 0.55711 0.27038 0.0
C2132 C 0.78827 0.59013 0.27165 0.0
C2133 C 0.82007 0.50338 0.25566 0.0
C2134 C 0.7953 0.48124 0.24866 0.0
C2135 C 0.84961 0.48778 0.26277 0.0
C2136 C 0.87754 0.51001 0.26972 0.0
C2137 C 0.8876 0.50345 0.28393 0.0
C2138 C 0.91383 0.52449 0.29047 0.0
C2139 C 0.93032 0.55211 0.28288 0.0
C2140 C 0.92065 0.55871 0.26872 0.0
C2141 C 0.89444 0.53775 0.26214 0.0
H2142 H 0.95062 0.56836 0.28795 0.0
H2143 H 0.69894 0.36219 0.22357 0.0
H2144 H 0.11078 0.78787 0.52909 0.0
H2145 H 0.0551 0.82221 0.52936 0.0
H2146 H 0.02923 0.78223 0.48742 0.0
H2147 H 0.0854 0.74955 0.48677 0.0
H2148 H 0.00087 0.84493 0.49019 0.0
H2149 H 0.00469 0.73729 0.51926 0.0
H2150 H 0.02864 0.69912 0.53849 0.0
H2151 H 0.00558 0.78113 0.56923 0.0
H2152 H 0.9819 0.81996 0.55012 0.0
H2153 H 0.8188 0.7912 0.49215 0.0
H2154 H 0.88409 0.79552 0.49202 0.0
H2155 H 0.88006 0.86917 0.52738 0.0
H2156 H 0.81444 0.86649 0.52706 0.0
H2157 H 0.92506 0.80413 0.53049 0.0
H2158 H 0.90659 0.90447 0.49985 0.0
H2159 H 0.88018 0.93679 0.4795 0.0
H2160 H 0.92776 0.86186 0.45044 0.0
H2161 H 0.95403 0.82873 0.47063 0.0
C2162 C 0.09369 0.78727 0.51976 0.0
C2163 C 0.10211 0.76539 0.50803 0.0
C2164 C 0.06181 0.8068 0.51995 0.0
C2165 C 0.03742 0.80384 0.50861 0.0
C2166 C 0.04743 0.78475 0.49635 0.0
C2167 C 0.0796 0.7659 0.49602 0.0
C2168 C -0.00015 0.81615 0.51011 0.0
C2169 C 0.98434 0.83614 0.49903 0.0
C2170 C 0.97826 0.80514 0.52175 0.0
C2171 C 0.99197 0.78166 0.53326 0.0
C2172 C 0.0049 0.74721 0.53012 0.0
C2173 C 0.01842 0.72548 0.54098 0.0
C2174 C 0.01875 0.73774 0.55506 0.0
C2175 C 0.0054 0.77171 0.55831 0.0
C2176 C 0.99193 0.79359 0.54747 0.0
C2177 C 0.83177 0.809 0.49966 0.0
C2178 C 0.81163 0.82848 0.50963 0.0
C2179 C 0.869 0.81135 0.4996 0.0
C2180 C 0.88671 0.83281 0.50964 0.0
C2181 C 0.86674 0.85257 0.51953 0.0
C2182 C 0.8294 0.85077 0.51941 0.0
C2183 C 0.92612 0.83197 0.51041 0.0
C2184 C 0.94186 0.81392 0.52189 0.0
C2185 C 0.94763 0.844 0.49899 0.0
C2186 C 0.93212 0.86399 0.48678 0.0
C2187 C 0.91121 0.89471 0.48913 0.0
C2188 C 0.89629 0.91321 0.47762 0.0
C2189 C 0.90224 0.90135 0.46369 0.0
C2190 C 0.92318 0.87101 0.46124 0.0
C2191 C 0.93813 0.85239 0.47272 0.0
H2192 H 0.89067 0.91571 0.45479 0.0
H2193 H 0.02927 0.7209 0.56347 0.0
H2194 H 0.21763 0.32595 0.77943 0.0
H2195 H 0.21071 0.39112 0.77946 0.0
H2196 H 0.13498 0.38347 0.74492 0.0
H2197 H 0.14023 0.31799 0.74539 0.0
H2198 H 0.20008 0.43319 0.74212 0.0
H2199 H 0.09849 0.40574 0.77161 0.0
H2200 H 0.06798 0.3757 0.79161 0.0
H2201 H 0.13813 0.42772 0.82135 0.0
H2202 H 0.16946 0.45764 0.80151 0.0
H2203 H 0.19964 0.61826 0.74318 0.0
H2204 H 0.16864 0.56066 0.74312 0.0
H2205 H 0.2087 0.53878 0.78538 0.0
H2206 H 0.23824 0.59661 0.78579 0.0
H2207 H 0.1489 0.50413 0.78196 0.0
H2208 H 0.25817 0.51825 0.75495 0.0
H2209 H 0.29644 0.54622 0.73664 0.0
H2210 H 0.22105 0.51675 0.70414 0.0
H2211 H 0.1821 0.489 0.72232 0.0
C2212 C 0.19903 0.33812 0.77203 0.0
C2213 C 0.17952 0.317 0.76239 0.0
C2214 C 0.19519 0.37526 0.77203 0.0
C2215 C 0.17221 0.39188 0.76224 0.0
C2216 C 0.15277 0.37096 0.75256 0.0
C2217 C 0.15604 0.33371 0.75276 0.0
C2218 C 0.1703 0.43129 0.76173 0.0
C2219 C 0.18803 0.44885 0.7506 0.0
C2220 C 0.15553 0.45135 0.77307 0.0
C2221 C 0.13648 0.43375 0.78505 0.0
C2222 C 0.10761 0.41056 0.7824 0.0
C2223 C 0.09013 0.39359 0.79371 0.0
C2224 C 0.10115 0.39975 0.80774 0.0
C2225 C 0.12962 0.42297 0.81048 0.0
C2226 C 0.14722 0.43998 0.7992 0.0
C2227 C 0.20076 0.60174 0.75266 0.0
C2228 C 0.22227 0.61158 0.76433 0.0
C2229 C 0.18312 0.56875 0.75259 0.0
C2230 C 0.18749 0.54485 0.76403 0.0
C2231 C 0.20525 0.55655 0.77636 0.0
C2232 C 0.2223 0.58974 0.77655 0.0
C2233 C 0.17912 0.50623 0.7624 0.0
C2234 C 0.15987 0.48868 0.7732 0.0
C2235 C 0.19343 0.48592 0.75096 0.0
C2236 C 0.21706 0.50197 0.73999 0.0
C2237 C 0.24971 0.51789 0.7439 0.0
C2238 C 0.2715 0.53371 0.73356 0.0
C2239 C 0.26112 0.53337 0.71924 0.0
C2240 C 0.229 0.51707 0.71524 0.0
C2241 C 0.20705 0.5013 0.72555 0.0
H2242 H 0.278 0.54566 0.71124 0.0
H2243 H 0.08759 0.38658 0.81648 0.0
H2244 H 0.68441 0.64185 0.99568 0.0
H2245 H 0.61909 0.63694 0.99489 0.0
H2246 H 0.6113 0.70127 0.03294 0.0
H2247 H 0.67646 0.70758 0.03344 0.0
H2248 H 0.56304 0.63822 0.03141 0.0
H2249 H 0.60294 0.7427 0.00406 0.0
H2250 H 0.63905 0.7707 0.98508 0.0
H2251 H 0.58928 0.70297 0.95385 0.0
H2252 H 0.55331 0.67414 0.97271 0.0
H2253 H 0.40516 0.73649 0.03514 0.0
H2254 H 0.46182 0.70508 0.0349 0.0
H2255 H 0.4457 0.67724 0.99066 0.0
H2256 H 0.38941 0.71048 0.99066 0.0
H2257 H 0.50517 0.70756 0.99265 0.0
H2258 H 0.45529 0.61202 0.01866 0.0
H2259 H 0.41991 0.58098 0.03707 0.0
H2260 H 0.48674 0.62556 0.0698 0.0
H2261 H 0.52223 0.65731 0.05162 0.0
C2262 C 0.66873 0.65507 0.00383 0.0
C2263 C 0.68539 0.6755 0.01452 0.0
C2264 C 0.63155 0.65184 0.00346 0.0
C2265 C 0.61055 0.66867 0.01388 0.0
C2266 C 0.62718 0.68779 0.02491 0.0
C2267 C 0.66433 0.69142 0.02516 0.0
C2268 C 0.57124 0.66968 0.0125 0.0
C2269 C 0.55011 0.65333 0.02298 0.0
C2270 C 0.5547 0.68816 0.00115 0.0
C2271 C 0.57579 0.70599 0.9898 0.0
C2272 C 0.59992 0.7336 0.99316 0.0
C2273 C 0.62033 0.74964 0.98243 0.0
C2274 C 0.61655 0.73854 0.96827 0.0
C2275 C 0.59224 0.71148 0.96482 0.0
C2276 C 0.57184 0.69528 0.97552 0.0
C2277 C 0.41301 0.72278 0.02546 0.0
C2278 C 0.39301 0.72647 0.01285 0.0
C2279 C 0.44551 0.70448 0.02536 0.0
C2280 C 0.45825 0.68863 0.01276 0.0
C2281 C 0.43662 0.68944 1.0005 0.0
C2282 C 0.40437 0.70836 1.00052 0.0
C2283 C 0.49618 0.67687 0.01186 0.0
C2284 C 0.51743 0.69141 0.00093 0.0
C2285 C 0.51264 0.6562 0.02271 0.0
C2286 C 0.49136 0.6372 0.03374 0.0
C2287 C 0.46231 0.61543 0.02979 0.0
C2288 C 0.44225 0.59766 0.04019 0.0
C2289 C 0.45105 0.60133 0.0546 0.0
C2290 C 0.47997 0.62273 0.05864 0.0
C2291 C 0.50012 0.64056 0.04828 0.0
H2292 H 0.43548 0.58755 0.06263 0.0
H2293 H 0.63238 0.75098 0.95998 0.0
H2294 H 0.36276 0.18026 0.2762 0.0
H2295 H 0.36368 0.11452 0.27667 0.0
H2296 H 0.27774 0.1121 0.24595 0.0
H2297 H 0.2766 0.17767 0.24561 0.0
H2298 H 0.26515 0.06828 0.26846 0.0
H2299 H 0.36109 0.09295 0.23575 0.0
H2300 H 0.41785 0.1205 0.2281 0.0
H2301 H 0.47341 0.06645 0.26189 0.0
H2302 H 0.41684 0.03897 0.26988 0.0
H2303 H 0.28771 0.89014 0.23981 0.0
H2304 H 0.31587 0.94906 0.24031 0.0
H2305 H 0.30811 0.95068 0.28616 0.0
H2306 H 0.28026 0.89178 0.28586 0.0
H2307 H 0.37102 0.99398 0.25632 0.0
H2308 H 0.24982 0.01929 0.29158 0.0
H2309 H 0.19272 0.98995 0.29785 0.0
H2310 H 0.18669 0.94426 0.25589 0.0
H2311 H 0.24298 0.97415 0.24929 0.0
C2312 C 0.34415 0.16552 0.26957 0.0
C2313 C 0.3196 0.18369 0.26087 0.0
C2314 C 0.34484 0.12813 0.26977 0.0
C2315 C 0.32092 0.10852 0.26127 0.0
C2316 C 0.29643 0.12678 0.25257 0.0
C2317 C 0.29587 0.16409 0.25233 0.0
C2318 C 0.32034 0.06895 0.2618 0.0
C2319 C 0.28839 0.05217 0.26586 0.0
C2320 C 0.35061 0.04787 0.25834 0.0
C2321 C 0.38466 0.0642 0.25351 0.0
C2322 C 0.38535 0.08718 0.24163 0.0
C2323 C 0.4175 0.10273 0.23721 0.0
C2324 C 0.4492 0.09531 0.24453 0.0
C2325 C 0.44882 0.07222 0.25625 0.0
C2326 C 0.41673 0.05662 0.26072 0.0
C2327 C 0.29341 0.90227 0.25006 0.0
C2328 C 0.2806 0.88681 0.26276 0.0
C2329 C 0.30978 0.93588 0.25031 0.0
C2330 C 0.31331 0.95436 0.26325 0.0
C2331 C 0.30535 0.9368 0.27607 0.0
C2332 C 0.28923 0.90313 0.27585 0.0
C2333 C 0.31603 0.99377 0.26308 0.0
C2334 C 0.34811 0.01036 0.25909 0.0
C2335 C 0.28576 0.01491 0.26638 0.0
C2336 C 0.25079 0.99857 0.27002 0.0
C2337 C 0.23607 0.00323 0.28367 0.0
C2338 C 0.20383 0.98652 0.28728 0.0
C2339 C 0.18606 0.96518 0.27729 0.0
C2340 C 0.20035 0.96078 0.26363 0.0
C2341 C 0.23241 0.97763 0.25995 0.0
H2342 H 0.16122 0.9521 0.28011 0.0
H2343 H 0.47406 0.10737 0.24109 0.0
H2344 H 0.88017 0.79411 0.99433 0.0
H2345 H 0.93673 0.82672 0.99245 0.0
H2346 H 0.96846 0.78624 0.03367 0.0
H2347 H 0.91159 0.75545 0.03594 0.0
H2348 H 2e-05 0.8465 0.02976 0.0
H2349 H 0.98294 0.73901 0.0009 0.0
H2350 H 0.95157 0.70389 0.98244 0.0
H2351 H 0.9748 0.78498 0.95134 0.0
H2352 H 0.00587 0.82082 0.9697 0.0
H2353 H 0.17481 0.77672 0.02477 0.0
H2354 H 0.1097 0.7835 0.02457 0.0
H2355 H 0.11817 0.86223 0.99113 0.0
H2356 H 0.1837 0.85692 0.9918 0.0
H2357 H 0.06551 0.79879 0.98781 0.0
H2358 H 0.09728 0.89754 0.01798 0.0
H2359 H 0.13014 0.92626 0.03769 0.0
H2360 H 0.08128 0.85433 0.06761 0.0
H2361 H 0.04856 0.82476 0.04804 0.0
C2362 C 0.89873 0.79322 0.00319 0.0
C2363 C 0.89182 0.7715 0.01513 0.0
C2364 C 0.93112 0.81173 0.00208 0.0
C2365 C 0.95743 0.8078 0.01267 0.0
C2366 C 0.94881 0.78943 0.02527 0.0
C2367 C 0.91617 0.77169 0.02654 0.0
C2368 C 0.99532 0.81763 0.00995 0.0
C2369 C 0.01424 0.83633 0.02053 0.0
C2370 C 0.01398 0.80475 0.9978 0.0
C2371 C 0.99634 0.78273 0.98668 0.0
C2372 C 0.98128 0.74934 0.99013 0.0
C2373 C 0.96352 0.72935 0.9797 0.0
C2374 C 0.96109 0.74226 0.96574 0.0
C2375 C 0.97661 0.77508 0.96217 0.0
C2376 C 0.99429 0.79525 0.97258 0.0
C2377 C 0.16281 0.79575 0.01749 0.0
C2378 C 0.18418 0.81631 0.00831 0.0
C2379 C 0.12572 0.79951 0.01735 0.0
C2380 C 0.10935 0.82349 0.00789 0.0
C2381 C 0.13047 0.84363 0.9985 0.0
C2382 C 0.16774 0.84037 0.99883 0.0
C2383 C 0.07001 0.82662 0.00782 0.0
C2384 C 0.05099 0.81011 0.99676 0.0
C2385 C 0.05144 0.84074 0.01967 0.0
C2386 C 0.07061 0.85881 0.03151 0.0
C2387 C 0.09373 0.88767 0.02874 0.0
C2388 C 0.11231 0.90413 0.0399 0.0
C2389 C 0.10784 0.8921 0.05389 0.0
C2390 C 0.08471 0.86363 0.05677 0.0
C2391 C 0.0661 0.84704 0.04565 0.0
H2392 H 0.12226 0.90486 0.06251 0.0
H2393 H 0.94724 0.7268 0.95769 0.0
H2394 H 0.21561 0.67605 0.24072 0.0
H2395 H 0.20965 0.61078 0.24032 0.0
H2396 H 0.13732 0.6157 0.27607 0.0
H2397 H 0.14162 0.68122 0.27603 0.0
H2398 H 0.20208 0.56933 0.27859 0.0
H2399 H 0.10043 0.59123 0.24879 0.0
H2400 H 0.0683 0.61876 0.22863 0.0
H2401 H 0.1402 0.56831 0.19913 0.0
H2402 H 0.17314 0.54091 0.21913 0.0
H2403 H 0.21064 0.38405 0.27833 0.0
H2404 H 0.17763 0.44052 0.27825 0.0
H2405 H 0.21623 0.46271 0.23578 0.0
H2406 H 0.24747 0.40575 0.23548 0.0
H2407 H 0.15544 0.49466 0.23895 0.0
H2408 H 0.26448 0.48642 0.26675 0.0
H2409 H 0.30297 0.46086 0.28555 0.0
H2410 H 0.22481 0.48843 0.31726 0.0
H2411 H 0.18565 0.51373 0.29859 0.0
C2412 C 0.19777 0.66328 0.24826 0.0
C2413 C 0.17922 0.6836 0.25845 0.0
C2414 C 0.19447 0.62607 0.24805 0.0
C2415 C 0.17296 0.60862 0.25814 0.0
C2416 C 0.15399 0.62882 0.2682 0.0
C2417 C 0.15673 0.6661 0.26823 0.0
C2418 C 0.17287 0.56915 0.25882 0.0
C2419 C 0.19106 0.55283 0.27014 0.0
C2420 C 0.15932 0.54801 0.24756 0.0
C2421 C 0.13941 0.5642 0.23548 0.0
C2422 C 0.10958 0.58623 0.23801 0.0
C2423 C 0.09118 0.60177 0.22661 0.0
C2424 C 0.10224 0.59534 0.21261 0.0
C2425 C 0.13167 0.57328 0.20998 0.0
C2426 C 0.15019 0.55769 0.22135 0.0
C2427 C 0.21106 0.4004 0.2688 0.0
C2428 C 0.23241 0.39085 0.25705 0.0
C2429 C 0.19231 0.43276 0.26879 0.0
C2430 C 0.19557 0.45648 0.25722 0.0
C2431 C 0.21359 0.4451 0.2449 0.0
C2432 C 0.23162 0.41245 0.24477 0.0
C2433 C 0.18532 0.49471 0.25862 0.0
C2434 C 0.1655 0.51094 0.24765 0.0
C2435 C 0.19822 0.51606 0.27002 0.0
C2436 C 0.22199 0.50154 0.28128 0.0
C2437 C 0.25547 0.48689 0.27773 0.0
C2438 C 0.27738 0.47244 0.28835 0.0
C2439 C 0.26628 0.47291 0.30258 0.0
C2440 C 0.23332 0.488 0.30623 0.0
C2441 C 0.21126 0.50239 0.29564 0.0
H2442 H 0.28325 0.46166 0.31079 0.0
H2443 H 0.08796 0.6074 0.20379 0.0
H2444 H 0.60713 0.7206 0.48941 0.0
H2445 H 0.54782 0.69335 0.48948 0.0
H2446 H 0.54508 0.69933 0.53536 0.0
H2447 H 0.60433 0.72637 0.53549 0.0
H2448 H 0.50198 0.63773 0.50553 0.0
H2449 H 0.47963 0.7581 0.54072 0.0
H2450 H 0.51087 0.814 0.54726 0.0
H2451 H 0.55313 0.8223 0.50481 0.0
H2452 H 0.52171 0.76676 0.49799 0.0
H2453 H 0.31763 0.64523 0.52641 0.0
H2454 H 0.3833 0.64602 0.52663 0.0
H2455 H 0.38288 0.73055 0.49528 0.0
H2456 H 0.31729 0.72995 0.49515 0.0
H2457 H 0.42854 0.74448 0.51738 0.0
H2458 H 0.40233 0.64771 0.48531 0.0
H2459 H 0.37436 0.59086 0.478 0.0
H2460 H 0.42958 0.53578 0.51162 0.0
H2461 H 0.45747 0.59246 0.51928 0.0
C2462 C 0.59468 0.71466 0.49957 0.0
C2463 C 0.60992 0.72682 0.51242 0.0
C2464 C 0.56082 0.69885 0.49957 0.0
C2465 C 0.54198 0.69512 0.5124 0.0
C2466 C 0.55928 0.70228 0.52535 0.0
C2467 C 0.59316 0.71789 0.52538 0.0
C2468 C 0.5026 0.69289 0.51206 0.0
C2469 C 0.48578 0.66084 0.50821 0.0
C2470 C 0.48176 0.72346 0.51522 0.0
C2471 C 0.49858 0.7582 0.51891 0.0
C2472 C 0.49534 0.77206 0.53277 0.0
C2473 C 0.51318 0.80358 0.53653 0.0
C2474 C 0.53419 0.82153 0.52649 0.0
C2475 C 0.53705 0.80824 0.5126 0.0
C2476 C 0.51919 0.77679 0.50878 0.0
C2477 C 0.3317 0.664 0.51963 0.0
C2478 C 0.31271 0.68757 0.51078 0.0
C2479 C 0.36907 0.66428 0.51969 0.0
C2480 C 0.38788 0.68818 0.5109 0.0
C2481 C 0.36883 0.71189 0.50212 0.0
C2482 C 0.3315 0.71145 0.502 0.0
C2483 C 0.42744 0.68901 0.51102 0.0
C2484 C 0.44446 0.72109 0.51479 0.0
C2485 C 0.4483 0.65854 0.50758 0.0
C2486 C 0.43171 0.6244 0.50295 0.0
C2487 C 0.40828 0.62354 0.49122 0.0
C2488 C 0.39247 0.59133 0.487 0.0
C2489 C 0.40011 0.55974 0.49437 0.0
C2490 C 0.42364 0.56028 0.50594 0.0
C2491 C 0.43948 0.59244 0.51022 0.0
H2492 H 0.38785 0.53483 0.49108 0.0
H2493 H 0.54799 0.84587 0.52943 0.0
H2494 H 0.2628 0.09331 0.78448 0.0
H2495 H 0.29437 0.03685 0.78281 0.0
H2496 H 0.31985 0.05879 0.73875 0.0
H2497 H 0.28651 0.1149 0.74019 0.0
H2498 H 0.29044 0.99871 0.7397 0.0
H2499 H 0.38669 0.04594 0.76586 0.0
H2500 H 0.41865 0.07942 0.78458 0.0
H2501 H 0.376 0.00904 0.81652 0.0
H2502 H 0.34334 0.97541 0.79803 0.0
H2503 H 0.35479 0.81705 0.74097 0.0
H2504 H 0.36015 0.88252 0.74023 0.0
H2505 H 0.29615 0.89045 0.77836 0.0
H2506 H 0.28931 0.82536 0.77877 0.0
H2507 H 0.36092 0.93676 0.77709 0.0
H2508 H 0.25488 0.90054 0.7496 0.0
H2509 H 0.22614 0.86658 0.73016 0.0
H2510 H 0.2943 0.91808 0.69954 0.0
H2511 H 0.32384 0.95193 0.71885 0.0
C2512 C 0.27603 0.08677 0.77455 0.0
C2513 C 0.27166 0.1084 0.76241 0.0
C2514 C 0.29442 0.05438 0.77362 0.0
C2515 C 0.30967 0.04335 0.76064 0.0
C2516 C 0.30813 0.06653 0.74886 0.0
C2517 C 0.28914 0.09868 0.74971 0.0
C2518 C 0.32169 0.00566 0.7589 0.0
C2519 C 0.30684 0.98558 0.74767 0.0
C2520 C 0.34288 0.98807 0.76929 0.0
C2521 C 0.36242 0.0082 0.78052 0.0
C2522 C 0.38391 0.03773 0.77688 0.0
C2523 C 0.4022 0.05672 0.78746 0.0
C2524 C 0.39934 0.04638 0.80173 0.0
C2525 C 0.37822 0.017 0.80546 0.0
C2526 C 0.35987 0.99791 0.79492 0.0
C2527 C 0.34175 0.83285 0.74914 0.0
C2528 C 0.32143 0.81626 0.75988 0.0
C2529 C 0.34518 0.87008 0.74879 0.0
C2530 C 0.32873 0.89112 0.7593 0.0
C2531 C 0.3094 0.87454 0.77027 0.0
C2532 C 0.30548 0.83744 0.77049 0.0
C2533 C 0.32869 0.93054 0.75827 0.0
C2534 C 0.34563 0.95058 0.76895 0.0
C2535 C 0.31003 0.94828 0.74726 0.0
C2536 C 0.29184 0.92839 0.73567 0.0
C2537 C 0.26392 0.90439 0.73873 0.0
C2538 C 0.24746 0.8852 0.72774 0.0
C2539 C 0.25847 0.89008 0.71363 0.0
C2540 C 0.28586 0.91427 0.71048 0.0
C2541 C 0.30247 0.93346 0.72144 0.0
H2542 H 0.2457 0.8752 0.70513 0.0
H2543 H 0.41351 0.06112 0.8099 0.0
loop_
_geom_bond_atom_site_label_1
_geom_bond_atom_site_label_2
_geom_bond_distance
_geom_bond_site_symmetry_2
_ccdc_geom_bond_type
Co0 O3 1.970 . S
Co0 N17 1.989 . S
Co0 O25 1.967 . S
Co0 O32 1.920 . S
Co1 O4 1.966 1_556 S
Co1 N10 2.022 . S
Co1 N18 1.993 1_556 S
Co1 O26 1.941 . S
C2 O3 1.258 . S
C2 O4 1.263 . S
O3 Co0 1.970 . S
O3 C2 1.258 . S
O4 Co1 1.966 1_554 S
O4 C2 1.263 . S
C5 O6 1.235 . S
C5 O32 1.289 . S
O6 C5 1.235 . S
C7 C9 1.400 . S
C7 N10 1.351 . S
C7 C12 1.501 . S
C8 C9 1.387 . S
C8 N11 1.341 . S
C9 C7 1.400 . S
C9 C8 1.387 . S
N10 Co1 2.022 . S
N10 C7 1.351 . S
N10 N11 1.365 . S
N11 C8 1.341 . S
N11 N10 1.365 . S
N11 H31 0.862 . S
C12 C7 1.501 . S
C12 H13 0.961 . S
C12 H14 0.961 . S
C12 H15 0.960 . S
H13 C12 0.961 . S
H14 C12 0.961 . S
H15 C12 0.960 . S
C16 N17 1.342 . S
C16 C20 1.401 . S
C16 C21 1.499 . S
N17 Co0 1.989 . S
N17 C16 1.342 . S
N17 N18 1.388 . S
N18 Co1 1.993 1_554 S
N18 N17 1.388 . S
N18 C19 1.341 1_554 S
C19 N18 1.341 1_556 S
C19 C20 1.384 1_556 S
C19 C29 1.525 . S
C20 C16 1.401 . S
C20 C19 1.384 1_554 S
C21 C16 1.499 . S
C21 H22 0.959 . S
C21 H23 0.960 . S
C21 H24 0.961 . S
H22 C21 0.959 . S
H23 C21 0.960 . S
H24 C21 0.961 . S
O25 Co0 1.967 . S
O25 C33 1.258 . S
O26 Co1 1.941 . S
O26 C33 1.266 1_556 S
H27 C29 0.959 . S
H28 C29 0.961 . S
C29 C19 1.525 . S
C29 H27 0.959 . S
C29 H28 0.961 . S
C29 H30 0.960 . S
H30 C29 0.960 . S
H31 N11 0.862 . S
O32 Co0 1.920 . S
O32 C5 1.289 . S
C33 O25 1.258 . S
C33 O26 1.266 1_554 S
Co34 O37 1.970 . S
Co34 N51 1.989 . S
Co34 O59 1.967 . S
Co34 O66 1.920 . S
Co35 O38 1.966 . S
Co35 N44 2.022 . S
Co35 N52 1.993 . S
Co35 O60 1.941 . S
C36 O37 1.258 . S
C36 O38 1.263 . S
O37 Co34 1.970 . S
O37 C36 1.258 . S
O38 Co35 1.966 . S
O38 C36 1.263 . S
C39 O40 1.235 . S
C39 O66 1.289 . S
O40 C39 1.235 . S
C41 C43 1.400 . S
C41 N44 1.351 . S
C41 C46 1.501 . S
C42 C43 1.387 . S
C42 N45 1.341 . S
C43 C41 1.400 . S
C43 C42 1.387 . S
N44 Co35 2.022 . S
N44 C41 1.351 . S
N44 N45 1.365 . S
N45 C42 1.341 . S
N45 N44 1.365 . S
N45 H65 0.862 . S
C46 C41 1.501 . S
C46 H47 0.961 . S
C46 H48 0.961 . S
C46 H49 0.960 . S
H47 C46 0.961 . S
H48 C46 0.961 . S
H49 C46 0.960 . S
C50 N51 1.342 . S
C50 C54 1.401 . S
C50 C55 1.499 . S
N51 Co34 1.989 . S
N51 C50 1.342 . S
N51 N52 1.388 . S
N52 Co35 1.993 . S
N52 N51 1.388 . S
N52 C53 1.346 . S
C53 N52 1.346 . S
C53 C54 1.396 . S
C53 C63 1.510 . S
C54 C50 1.401 . S
C54 C53 1.396 . S
C55 C50 1.499 . S
C55 H56 0.959 . S
C55 H57 0.960 . S
C55 H58 0.961 . S
H56 C55 0.959 . S
H57 C55 0.960 . S
H58 C55 0.961 . S
O59 Co34 1.967 . S
O59 C67 1.258 . S
O60 Co35 1.941 . S
O60 C67 1.266 . S
H61 C63 0.959 . S
H62 C63 0.961 . S
C63 C53 1.510 . S
C63 H61 0.959 . S
C63 H62 0.961 . S
C63 H64 0.960 . S
H64 C63 0.960 . S
H65 N45 0.862 . S
O66 Co34 1.920 . S
O66 C39 1.289 . S
C67 O59 1.258 . S
C67 O60 1.266 . S
Co68 O71 1.970 . S
Co68 N85 1.989 . S
Co68 O93 1.967 . S
Co68 O100 1.920 . S
Co69 O72 1.966 . S
Co69 N78 2.022 . S
Co69 N86 1.993 . S
Co69 O94 1.941 . S
C70 O71 1.258 . S
C70 O72 1.263 . S
O71 Co68 1.970 . S
O71 C70 1.258 . S
O72 Co69 1.966 . S
O72 C70 1.263 . S
C73 O74 1.235 . S
C73 O100 1.289 . S
O74 C73 1.235 . S
C75 C77 1.400 . S
C75 N78 1.351 . S
C75 C80 1.501 . S
C76 C77 1.387 . S
C76 N79 1.341 . S
C77 C75 1.400 . S
C77 C76 1.387 . S
N78 Co69 2.022 . S
N78 C75 1.351 . S
N78 N79 1.365 . S
N79 C76 1.341 . S
N79 N78 1.365 . S
N79 H99 0.862 . S
C80 C75 1.501 . S
C80 H81 0.961 . S
C80 H82 0.961 . S
C80 H83 0.960 . S
H81 C80 0.961 . S
H82 C80 0.961 . S
H83 C80 0.960 . S
C84 N85 1.342 . S
C84 C88 1.401 . S
C84 C89 1.499 . S
N85 Co68 1.989 . S
N85 C84 1.342 . S
N85 N86 1.388 . S
N86 Co69 1.993 . S
N86 N85 1.388 . S
N86 C87 1.346 . S
C87 N86 1.346 . S
C87 C88 1.396 . S
C87 C97 1.510 . S
C88 C84 1.401 . S
C88 C87 1.396 . S
C89 C84 1.499 . S
C89 H90 0.959 . S
C89 H91 0.960 . S
C89 H92 0.961 . S
H90 C89 0.959 . S
H91 C89 0.960 . S
H92 C89 0.961 . S
O93 Co68 1.967 . S
O93 C101 1.258 . S
O94 Co69 1.941 . S
O94 C101 1.266 . S
H95 C97 0.959 . S
H96 C97 0.961 . S
C97 C87 1.510 . S
C97 H95 0.959 . S
C97 H96 0.961 . S
C97 H98 0.960 . S
H98 C97 0.960 . S
H99 N79 0.862 . S
O100 Co68 1.920 . S
O100 C73 1.289 . S
C101 O93 1.258 . S
C101 O94 1.266 . S
Co102 O105 1.970 . S
Co102 N119 1.989 . S
Co102 O127 1.967 . S
Co102 O134 1.920 . S
Co103 O106 1.966 . S
Co103 N112 2.022 . S
Co103 N120 1.993 . S
Co103 O128 1.941 . S
C104 O105 1.258 . S
C104 O106 1.263 . S
O105 Co102 1.970 . S
O105 C104 1.258 . S
O106 Co103 1.966 . S
O106 C104 1.263 . S
C107 O108 1.235 . S
C107 O134 1.289 . S
O108 C107 1.235 . S
C109 C111 1.400 . S
C109 N112 1.351 . S
C109 C114 1.501 . S
C110 C111 1.387 . S
C110 N113 1.341 . S
C111 C109 1.400 . S
C111 C110 1.387 . S
N112 Co103 2.022 . S
N112 C109 1.351 . S
N112 N113 1.365 . S
N113 C110 1.341 . S
N113 N112 1.365 . S
N113 H133 0.862 . S
C114 C109 1.501 . S
C114 H115 0.961 . S
C114 H116 0.961 . S
C114 H117 0.960 . S
H115 C114 0.961 . S
H116 C114 0.961 . S
H117 C114 0.960 . S
C118 N119 1.342 . S
C118 C122 1.401 . S
C118 C123 1.499 . S
N119 Co102 1.989 . S
N119 C118 1.342 . S
N119 N120 1.388 . S
N120 Co103 1.993 . S
N120 N119 1.388 . S
N120 C121 1.346 . S
C121 N120 1.346 . S
C121 C122 1.396 . S
C121 C131 1.510 . S
C122 C118 1.401 . S
C122 C121 1.396 . S
C123 C118 1.499 . S
C123 H124 0.959 . S
C123 H125 0.960 . S
C123 H126 0.961 . S
H124 C123 0.959 . S
H125 C123 0.960 . S
H126 C123 0.961 . S
O127 Co102 1.967 . S
O127 C135 1.258 . S
O128 Co103 1.941 . S
O128 C135 1.266 . S
H129 C131 0.959 . S
H130 C131 0.961 . S
C131 C121 1.510 . S
C131 H129 0.959 . S
C131 H130 0.961 . S
C131 H132 0.960 . S
H132 C131 0.960 . S
H133 N113 0.862 . S
O134 Co102 1.920 . S
O134 C107 1.289 . S
C135 O127 1.258 . S
C135 O128 1.266 . S
Co136 O139 1.970 . S
Co136 N153 1.989 . S
Co136 O161 1.967 . S
Co136 O168 1.920 . S
Co137 O140 1.966 . S
Co137 N146 2.022 . S
Co137 N154 1.993 . S
Co137 O162 1.941 . S
C138 O139 1.258 . S
C138 O140 1.263 . S
O139 Co136 1.970 . S
O139 C138 1.258 . S
O140 Co137 1.966 . S
O140 C138 1.263 . S
C141 O142 1.235 . S
C141 O168 1.289 . S
O142 C141 1.235 . S
C143 C145 1.400 . S
C143 N146 1.351 . S
C143 C148 1.501 . S
C144 C145 1.387 . S
C144 N147 1.341 . S
C145 C143 1.400 . S
C145 C144 1.387 . S
N146 Co137 2.022 . S
N146 C143 1.351 . S
N146 N147 1.365 . S
N147 C144 1.341 . S
N147 N146 1.365 . S
N147 H167 0.862 . S
C148 C143 1.501 . S
C148 H149 0.961 . S
C148 H150 0.961 . S
C148 H151 0.960 . S
H149 C148 0.961 . S
H150 C148 0.961 . S
H151 C148 0.960 . S
C152 N153 1.342 . S
C152 C156 1.401 . S
C152 C157 1.499 . S
N153 Co136 1.989 . S
N153 C152 1.342 . S
N153 N154 1.388 . S
N154 Co137 1.993 . S
N154 N153 1.388 . S
N154 C155 1.346 . S
C155 N154 1.346 . S
C155 C156 1.396 . S
C155 C165 1.510 . S
C156 C152 1.401 . S
C156 C155 1.396 . S
C157 C152 1.499 . S
C157 H158 0.959 . S
C157 H159 0.960 . S
C157 H160 0.961 . S
H158 C157 0.959 . S
H159 C157 0.960 . S
H160 C157 0.961 . S
O161 Co136 1.967 . S
O161 C169 1.258 . S
O162 Co137 1.941 . S
O162 C169 1.266 . S
H163 C165 0.959 . S
H164 C165 0.961 . S
C165 C155 1.510 . S
C165 H163 0.959 . S
C165 H164 0.961 . S
C165 H166 0.960 . S
H166 C165 0.960 . S
H167 N147 0.862 . S
O168 Co136 1.920 . S
O168 C141 1.289 . S
C169 O161 1.258 . S
C169 O162 1.266 . S
Co170 O173 1.970 . S
Co170 N187 1.989 . S
Co170 O195 1.967 . S
Co170 O202 1.920 . S
Co171 O174 1.966 . S
Co171 N180 2.022 . S
Co171 N188 1.993 . S
Co171 O196 1.941 . S
C172 O173 1.258 . S
C172 O174 1.263 . S
O173 Co170 1.970 . S
O173 C172 1.258 . S
O174 Co171 1.966 . S
O174 C172 1.263 . S
C175 O176 1.235 . S
C175 O202 1.289 . S
O176 C175 1.235 . S
C177 C179 1.400 . S
C177 N180 1.351 . S
C177 C182 1.501 . S
C178 C179 1.387 . S
C178 N181 1.341 . S
C179 C177 1.400 . S
C179 C178 1.387 . S
N180 Co171 2.022 . S
N180 C177 1.351 . S
N180 N181 1.365 . S
N181 C178 1.341 . S
N181 N180 1.365 . S
N181 H201 0.862 . S
C182 C177 1.501 . S
C182 H183 0.961 . S
C182 H184 0.961 . S
C182 H185 0.960 . S
H183 C182 0.961 . S
H184 C182 0.961 . S
H185 C182 0.960 . S
C186 N187 1.342 . S
C186 C190 1.401 . S
C186 C191 1.499 . S
N187 Co170 1.989 . S
N187 C186 1.342 . S
N187 N188 1.388 . S
N188 Co171 1.993 . S
N188 N187 1.388 . S
N188 C189 1.346 . S
C189 N188 1.346 . S
C189 C190 1.396 . S
C189 C199 1.510 . S
C190 C186 1.401 . S
C190 C189 1.396 . S
C191 C186 1.499 . S
C191 H192 0.959 . S
C191 H193 0.960 . S
C191 H194 0.961 . S
H192 C191 0.959 . S
H193 C191 0.960 . S
H194 C191 0.961 . S
O195 Co170 1.967 . S
O195 C203 1.258 . S
O196 Co171 1.941 . S
O196 C203 1.266 . S
H197 C199 0.959 . S
H198 C199 0.961 . S
C199 C189 1.510 . S
C199 H197 0.959 . S
C199 H198 0.961 . S
C199 H200 0.960 . S
H200 C199 0.960 . S
H201 N181 0.862 . S
O202 Co170 1.920 . S
O202 C175 1.289 . S
C203 O195 1.258 . S
C203 O196 1.266 . S
Co204 O207 1.970 . S
Co204 N221 1.989 . S
Co204 O229 1.967 . S
Co204 O236 1.920 . S
Co205 O208 1.966 1_556 S
Co205 N214 2.022 . S
Co205 N222 1.993 1_556 S
Co205 O230 1.941 . S
C206 O207 1.258 . S
C206 O208 1.263 . S
O207 Co204 1.970 . S
O207 C206 1.258 . S
O208 Co205 1.966 1_554 S
O208 C206 1.263 . S
C209 O210 1.235 . S
C209 O236 1.289 . S
O210 C209 1.235 . S
C211 C213 1.400 . S
C211 N214 1.351 . S
C211 C216 1.501 . S
C212 C213 1.387 . S
C212 N215 1.341 . S
C213 C211 1.400 . S
C213 C212 1.387 . S
N214 Co205 2.022 . S
N214 C211 1.351 . S
N214 N215 1.365 . S
N215 C212 1.341 . S
N215 N214 1.365 . S
N215 H235 0.862 . S
C216 C211 1.501 . S
C216 H217 0.961 . S
C216 H218 0.961 . S
C216 H219 0.960 . S
H217 C216 0.961 . S
H218 C216 0.961 . S
H219 C216 0.960 . S
C220 N221 1.342 . S
C220 C224 1.401 . S
C220 C225 1.499 . S
N221 Co204 1.989 . S
N221 C220 1.342 . S
N221 N222 1.388 . S
N222 Co205 1.993 1_554 S
N222 N221 1.388 . S
N222 C223 1.341 1_554 S
C223 N222 1.341 1_556 S
C223 C224 1.384 1_556 S
C223 C233 1.524 . S
C224 C220 1.401 . S
C224 C223 1.384 1_554 S
C225 C220 1.499 . S
C225 H226 0.959 . S
C225 H227 0.960 . S
C225 H228 0.961 . S
H226 C225 0.959 . S
H227 C225 0.960 . S
H228 C225 0.961 . S
O229 Co204 1.967 . S
O229 C237 1.258 . S
O230 Co205 1.941 . S
O230 C237 1.266 1_556 S
H231 C233 0.959 . S
H232 C233 0.961 . S
C233 C223 1.524 . S
C233 H231 0.959 . S
C233 H232 0.961 . S
C233 H234 0.960 . S
H234 C233 0.960 . S
H235 N215 0.862 . S
O236 Co204 1.920 . S
O236 C209 1.289 . S
C237 O229 1.258 . S
C237 O230 1.266 1_554 S
Co238 O241 1.970 . S
Co238 N255 1.989 . S
Co238 O263 1.967 . S
Co238 O270 1.920 . S
Co239 O242 1.966 . S
Co239 N248 2.022 . S
Co239 N256 1.993 . S
Co239 O264 1.941 . S
C240 O241 1.258 . S
C240 O242 1.263 . S
O241 Co238 1.970 . S
O241 C240 1.258 . S
O242 Co239 1.966 . S
O242 C240 1.263 . S
C243 O244 1.235 . S
C243 O270 1.289 . S
O244 C243 1.235 . S
C245 C247 1.400 . S
C245 N248 1.351 . S
C245 C250 1.501 . S
C246 C247 1.387 . S
C246 N249 1.341 . S
C247 C245 1.400 . S
C247 C246 1.387 . S
N248 Co239 2.022 . S
N248 C245 1.351 . S
N248 N249 1.365 . S
N249 C246 1.341 . S
N249 N248 1.365 . S
N249 H269 0.862 . S
C250 C245 1.501 . S
C250 H251 0.961 . S
C250 H252 0.961 . S
C250 H253 0.960 . S
H251 C250 0.961 . S
H252 C250 0.961 . S
H253 C250 0.960 . S
C254 N255 1.342 . S
C254 C258 1.401 . S
C254 C259 1.499 . S
N255 Co238 1.989 . S
N255 C254 1.342 . S
N255 N256 1.388 . S
N256 Co239 1.993 . S
N256 N255 1.388 . S
N256 C257 1.346 . S
C257 N256 1.346 . S
C257 C258 1.396 . S
C257 C267 1.510 . S
C258 C254 1.401 . S
C258 C257 1.396 . S
C259 C254 1.499 . S
C259 H260 0.959 . S
C259 H261 0.960 . S
C259 H262 0.961 . S
H260 C259 0.959 . S
H261 C259 0.960 . S
H262 C259 0.961 . S
O263 Co238 1.967 . S
O263 C271 1.258 . S
O264 Co239 1.941 . S
O264 C271 1.266 . S
H265 C267 0.959 . S
H266 C267 0.961 . S
C267 C257 1.510 . S
C267 H265 0.959 . S
C267 H266 0.961 . S
C267 H268 0.960 . S
H268 C267 0.960 . S
H269 N249 0.862 . S
O270 Co238 1.920 . S
O270 C243 1.289 . S
C271 O263 1.258 . S
C271 O264 1.266 . S
Co272 O275 1.970 . S
Co272 N289 1.989 . S
Co272 O297 1.967 . S
Co272 O304 1.920 . S
Co273 O276 1.966 . S
Co273 N282 2.022 . S
Co273 N290 1.993 . S
Co273 O298 1.941 . S
C274 O275 1.258 . S
C274 O276 1.263 . S
O275 Co272 1.970 . S
O275 C274 1.258 . S
O276 Co273 1.966 . S
O276 C274 1.263 . S
C277 O278 1.235 . S
C277 O304 1.289 . S
O278 C277 1.235 . S
C279 C281 1.400 . S
C279 N282 1.351 . S
C279 C284 1.501 . S
C280 C281 1.387 . S
C280 N283 1.341 . S
C281 C279 1.400 . S
C281 C280 1.387 . S
N282 Co273 2.022 . S
N282 C279 1.351 . S
N282 N283 1.365 . S
N283 C280 1.341 . S
N283 N282 1.365 . S
N283 H303 0.862 . S
C284 C279 1.501 . S
C284 H285 0.961 . S
C284 H286 0.961 . S
C284 H287 0.960 . S
H285 C284 0.961 . S
H286 C284 0.961 . S
H287 C284 0.960 . S
C288 N289 1.342 . S
C288 C292 1.401 . S
C288 C293 1.499 . S
N289 Co272 1.989 . S
N289 C288 1.342 . S
N289 N290 1.388 . S
N290 Co273 1.993 . S
N290 N289 1.388 . S
N290 C291 1.346 . S
C291 N290 1.346 . S
C291 C292 1.396 . S
C291 C301 1.510 . S
C292 C288 1.401 . S
C292 C291 1.396 . S
C293 C288 1.499 . S
C293 H294 0.959 . S
C293 H295 0.960 . S
C293 H296 0.961 . S
H294 C293 0.959 . S
H295 C293 0.960 . S
H296 C293 0.961 . S
O297 Co272 1.967 . S
O297 C305 1.258 . S
O298 Co273 1.941 . S
O298 C305 1.266 . S
H299 C301 0.959 . S
H300 C301 0.961 . S
C301 C291 1.510 . S
C301 H299 0.959 . S
C301 H300 0.961 . S
C301 H302 0.960 . S
H302 C301 0.960 . S
H303 N283 0.862 . S
O304 Co272 1.920 . S
O304 C277 1.289 . S
C305 O297 1.258 . S
C305 O298 1.266 . S
Co306 O309 1.970 . S
Co306 N323 1.989 . S
Co306 O331 1.967 . S
Co306 O338 1.920 . S
Co307 O310 1.966 . S
Co307 N316 2.022 . S
Co307 N324 1.993 . S
Co307 O332 1.941 . S
C308 O309 1.258 . S
C308 O310 1.263 . S
O309 Co306 1.970 . S
O309 C308 1.258 . S
O310 Co307 1.966 . S
O310 C308 1.263 . S
C311 O312 1.235 . S
C311 O338 1.289 . S
O312 C311 1.235 . S
C313 C315 1.400 . S
C313 N316 1.351 . S
C313 C318 1.501 . S
C314 C315 1.387 . S
C314 N317 1.341 . S
C315 C313 1.400 . S
C315 C314 1.387 . S
N316 Co307 2.022 . S
N316 C313 1.351 . S
N316 N317 1.365 . S
N317 C314 1.341 . S
N317 N316 1.365 . S
N317 H337 0.862 . S
C318 C313 1.501 . S
C318 H319 0.961 . S
C318 H320 0.961 . S
C318 H321 0.960 . S
H319 C318 0.961 . S
H320 C318 0.961 . S
H321 C318 0.960 . S
C322 N323 1.342 . S
C322 C326 1.401 . S
C322 C327 1.499 . S
N323 Co306 1.989 . S
N323 C322 1.342 . S
N323 N324 1.388 . S
N324 Co307 1.993 . S
N324 N323 1.388 . S
N324 C325 1.346 . S
C325 N324 1.346 . S
C325 C326 1.396 . S
C325 C335 1.510 . S
C326 C322 1.401 . S
C326 C325 1.396 . S
C327 C322 1.499 . S
C327 H328 0.959 . S
C327 H329 0.960 . S
C327 H330 0.961 . S
H328 C327 0.959 . S
H329 C327 0.960 . S
H330 C327 0.961 . S
O331 Co306 1.967 . S
O331 C339 1.258 . S
O332 Co307 1.941 . S
O332 C339 1.266 . S
H333 C335 0.959 . S
H334 C335 0.961 . S
C335 C325 1.510 . S
C335 H333 0.959 . S
C335 H334 0.961 . S
C335 H336 0.960 . S
H336 C335 0.960 . S
H337 N317 0.862 . S
O338 Co306 1.920 . S
O338 C311 1.289 . S
C339 O331 1.258 . S
C339 O332 1.266 . S
Co340 O343 1.970 . S
Co340 N357 1.989 . S
Co340 O365 1.967 . S
Co340 O372 1.920 . S
Co341 O344 1.966 1_556 S
Co341 N350 2.022 . S
Co341 N358 1.993 1_556 S
Co341 O366 1.941 . S
C342 O343 1.258 . S
C342 O344 1.263 . S
O343 Co340 1.970 . S
O343 C342 1.258 . S
O344 Co341 1.966 1_554 S
O344 C342 1.263 . S
C345 O346 1.235 . S
C345 O372 1.289 . S
O346 C345 1.235 . S
C347 C349 1.400 . S
C347 N350 1.351 . S
C347 C352 1.501 . S
C348 C349 1.387 . S
C348 N351 1.341 . S
C349 C347 1.400 . S
C349 C348 1.387 . S
N350 Co341 2.022 . S
N350 C347 1.351 . S
N350 N351 1.365 . S
N351 C348 1.341 . S
N351 N350 1.365 . S
N351 H371 0.862 . S
C352 C347 1.501 . S
C352 H353 0.961 . S
C352 H354 0.961 . S
C352 H355 0.960 . S
H353 C352 0.961 . S
H354 C352 0.961 . S
H355 C352 0.960 . S
C356 N357 1.342 . S
C356 C360 1.401 . S
C356 C361 1.499 . S
N357 Co340 1.989 . S
N357 C356 1.342 . S
N357 N358 1.388 . S
N358 Co341 1.993 1_554 S
N358 N357 1.388 . S
N358 C359 1.341 1_554 S
C359 N358 1.341 1_556 S
C359 C360 1.384 1_556 S
C359 C369 1.525 . S
C360 C356 1.401 . S
C360 C359 1.384 1_554 S
C361 C356 1.499 . S
C361 H362 0.959 . S
C361 H363 0.960 . S
C361 H364 0.961 . S
H362 C361 0.959 . S
H363 C361 0.960 . S
H364 C361 0.961 . S
O365 Co340 1.967 . S
O365 C373 1.258 . S
O366 Co341 1.941 . S
O366 C373 1.266 1_556 S
H367 C369 0.959 . S
H368 C369 0.961 . S
C369 C359 1.525 . S
C369 H367 0.959 . S
C369 H368 0.961 . S
C369 H370 0.960 . S
H370 C369 0.960 . S
H371 N351 0.862 . S
O372 Co340 1.920 . S
O372 C345 1.289 . S
C373 O365 1.258 . S
C373 O366 1.266 1_554 S
Co374 O377 1.970 . S
Co374 N391 1.989 . S
Co374 O399 1.967 . S
Co374 O406 1.920 . S
Co375 O378 1.966 . S
Co375 N384 2.022 . S
Co375 N392 1.993 . S
Co375 O400 1.941 . S
C376 O377 1.258 . S
C376 O378 1.263 . S
O377 Co374 1.970 . S
O377 C376 1.258 . S
O378 Co375 1.966 . S
O378 C376 1.263 . S
C379 O380 1.235 . S
C379 O406 1.289 . S
O380 C379 1.235 . S
C381 C383 1.400 . S
C381 N384 1.351 . S
C381 C386 1.501 . S
C382 C383 1.387 . S
C382 N385 1.341 . S
C383 C381 1.400 . S
C383 C382 1.387 . S
N384 Co375 2.022 . S
N384 C381 1.351 . S
N384 N385 1.365 . S
N385 C382 1.341 . S
N385 N384 1.365 . S
N385 H405 0.862 . S
C386 C381 1.501 . S
C386 H387 0.961 . S
C386 H388 0.961 . S
C386 H389 0.960 . S
H387 C386 0.961 . S
H388 C386 0.961 . S
H389 C386 0.960 . S
C390 N391 1.342 . S
C390 C394 1.401 . S
C390 C395 1.499 . S
N391 Co374 1.989 . S
N391 C390 1.342 . S
N391 N392 1.388 . S
N392 Co375 1.993 . S
N392 N391 1.388 . S
N392 C393 1.346 . S
C393 N392 1.346 . S
C393 C394 1.396 . S
C393 C403 1.510 . S
C394 C390 1.401 . S
C394 C393 1.396 . S
C395 C390 1.499 . S
C395 H396 0.959 . S
C395 H397 0.960 . S
C395 H398 0.961 . S
H396 C395 0.959 . S
H397 C395 0.960 . S
H398 C395 0.961 . S
O399 Co374 1.967 . S
O399 C407 1.258 . S
O400 Co375 1.941 . S
O400 C407 1.266 . S
H401 C403 0.959 . S
H402 C403 0.961 . S
C403 C393 1.510 . S
C403 H401 0.959 . S
C403 H402 0.961 . S
C403 H404 0.960 . S
H404 C403 0.960 . S
H405 N385 0.862 . S
O406 Co374 1.920 . S
O406 C379 1.289 . S
C407 O399 1.258 . S
C407 O400 1.266 . S
Co408 O411 1.970 . S
Co408 N425 1.989 . S
Co408 O433 1.967 . S
Co408 O440 1.920 . S
Co409 O412 1.966 1_556 S
Co409 N418 2.022 . S
Co409 N426 1.993 1_556 S
Co409 O434 1.941 . S
C410 O411 1.258 . S
C410 O412 1.263 . S
O411 Co408 1.970 . S
O411 C410 1.258 . S
O412 Co409 1.966 1_554 S
O412 C410 1.263 . S
C413 O414 1.235 . S
C413 O440 1.289 . S
O414 C413 1.235 . S
C415 C417 1.400 . S
C415 N418 1.351 . S
C415 C420 1.501 . S
C416 C417 1.387 . S
C416 N419 1.341 . S
C417 C415 1.400 . S
C417 C416 1.387 . S
N418 Co409 2.022 . S
N418 C415 1.351 . S
N418 N419 1.365 . S
N419 C416 1.341 . S
N419 N418 1.365 . S
N419 H439 0.862 . S
C420 C415 1.501 . S
C420 H421 0.961 . S
C420 H422 0.961 . S
C420 H423 0.960 . S
H421 C420 0.961 . S
H422 C420 0.961 . S
H423 C420 0.960 . S
C424 N425 1.342 . S
C424 C428 1.401 . S
C424 C429 1.499 . S
N425 Co408 1.989 . S
N425 C424 1.342 . S
N425 N426 1.388 . S
N426 Co409 1.993 1_554 S
N426 N425 1.388 . S
N426 C427 1.341 1_554 S
C427 N426 1.341 1_556 S
C427 C428 1.384 1_556 S
C427 C437 1.525 . S
C428 C424 1.401 . S
C428 C427 1.384 1_554 S
C429 C424 1.499 . S
C429 H430 0.959 . S
C429 H431 0.960 . S
C429 H432 0.961 . S
H430 C429 0.959 . S
H431 C429 0.960 . S
H432 C429 0.961 . S
O433 Co408 1.967 . S
O433 C441 1.258 . S
O434 Co409 1.941 . S
O434 C441 1.266 1_556 S
H435 C437 0.959 . S
H436 C437 0.961 . S
C437 C427 1.525 . S
C437 H435 0.959 . S
C437 H436 0.961 . S
C437 H438 0.960 . S
H438 C437 0.960 . S
H439 N419 0.862 . S
O440 Co408 1.920 . S
O440 C413 1.289 . S
C441 O433 1.258 . S
C441 O434 1.266 1_554 S
Co442 O445 1.970 . S
Co442 N459 1.989 . S
Co442 O467 1.967 . S
Co442 O474 1.920 . S
Co443 O446 1.966 . S
Co443 N452 2.022 . S
Co443 N460 1.993 . S
Co443 O468 1.941 . S
C444 O445 1.258 . S
C444 O446 1.263 . S
O445 Co442 1.970 . S
O445 C444 1.258 . S
O446 Co443 1.966 . S
O446 C444 1.263 . S
C447 O448 1.235 . S
C447 O474 1.289 . S
O448 C447 1.235 . S
C449 C451 1.400 . S
C449 N452 1.351 . S
C449 C454 1.501 . S
C450 C451 1.387 . S
C450 N453 1.341 . S
C451 C449 1.400 . S
C451 C450 1.387 . S
N452 Co443 2.022 . S
N452 C449 1.351 . S
N452 N453 1.365 . S
N453 C450 1.341 . S
N453 N452 1.365 . S
N453 H473 0.862 . S
C454 C449 1.501 . S
C454 H455 0.961 . S
C454 H456 0.961 . S
C454 H457 0.960 . S
H455 C454 0.961 . S
H456 C454 0.961 . S
H457 C454 0.960 . S
C458 N459 1.342 . S
C458 C462 1.401 . S
C458 C463 1.499 . S
N459 Co442 1.989 . S
N459 C458 1.342 . S
N459 N460 1.388 . S
N460 Co443 1.993 . S
N460 N459 1.388 . S
N460 C461 1.346 . S
C461 N460 1.346 . S
C461 C462 1.396 . S
C461 C471 1.510 . S
C462 C458 1.401 . S
C462 C461 1.396 . S
C463 C458 1.499 . S
C463 H464 0.959 . S
C463 H465 0.960 . S
C463 H466 0.961 . S
H464 C463 0.959 . S
H465 C463 0.960 . S
H466 C463 0.961 . S
O467 Co442 1.967 . S
O467 C475 1.258 . S
O468 Co443 1.941 . S
O468 C475 1.266 . S
H469 C471 0.959 . S
H470 C471 0.961 . S
C471 C461 1.510 . S
C471 H469 0.959 . S
C471 H470 0.961 . S
C471 H472 0.960 . S
H472 C471 0.960 . S
H473 N453 0.862 . S
O474 Co442 1.920 . S
O474 C447 1.289 . S
C475 O467 1.258 . S
C475 O468 1.266 . S
Co476 O479 1.970 . S
Co476 N493 1.989 . S
Co476 O501 1.967 . S
Co476 O508 1.920 . S
Co477 O480 1.966 . S
Co477 N486 2.022 . S
Co477 N494 1.993 . S
Co477 O502 1.941 . S
C478 O479 1.258 . S
C478 O480 1.263 . S
O479 Co476 1.970 . S
O479 C478 1.258 . S
O480 Co477 1.966 . S
O480 C478 1.263 . S
C481 O482 1.235 . S
C481 O508 1.289 . S
O482 C481 1.235 . S
C483 C485 1.400 . S
C483 N486 1.351 . S
C483 C488 1.501 . S
C484 C485 1.387 . S
C484 N487 1.341 . S
C485 C483 1.400 . S
C485 C484 1.387 . S
N486 Co477 2.022 . S
N486 C483 1.351 . S
N486 N487 1.365 . S
N487 C484 1.341 . S
N487 N486 1.365 . S
N487 H507 0.862 . S
C488 C483 1.501 . S
C488 H489 0.961 . S
C488 H490 0.961 . S
C488 H491 0.960 . S
H489 C488 0.961 . S
H490 C488 0.961 . S
H491 C488 0.960 . S
C492 N493 1.342 . S
C492 C496 1.401 . S
C492 C497 1.499 . S
N493 Co476 1.989 . S
N493 C492 1.342 . S
N493 N494 1.388 . S
N494 Co477 1.993 . S
N494 N493 1.388 . S
N494 C495 1.346 . S
C495 N494 1.346 . S
C495 C496 1.396 . S
C495 C505 1.510 . S
C496 C492 1.401 . S
C496 C495 1.396 . S
C497 C492 1.499 . S
C497 H498 0.959 . S
C497 H499 0.960 . S
C497 H500 0.961 . S
H498 C497 0.959 . S
H499 C497 0.960 . S
H500 C497 0.961 . S
O501 Co476 1.967 . S
O501 C509 1.258 . S
O502 Co477 1.941 . S
O502 C509 1.266 . S
H503 C505 0.959 . S
H504 C505 0.961 . S
C505 C495 1.510 . S
C505 H503 0.959 . S
C505 H504 0.961 . S
C505 H506 0.960 . S
H506 C505 0.960 . S
H507 N487 0.862 . S
O508 Co476 1.920 . S
O508 C481 1.289 . S
C509 O501 1.258 . S
C509 O502 1.266 . S
Co510 O513 1.970 . S
Co510 N527 1.989 . S
Co510 O535 1.967 . S
Co510 O542 1.920 . S
Co511 O514 1.966 . S
Co511 N520 2.022 . S
Co511 N528 1.993 . S
Co511 O536 1.941 . S
C512 O513 1.258 . S
C512 O514 1.263 . S
O513 Co510 1.970 . S
O513 C512 1.258 . S
O514 Co511 1.966 . S
O514 C512 1.263 . S
C515 O516 1.235 . S
C515 O542 1.289 . S
O516 C515 1.235 . S
C517 C519 1.400 . S
C517 N520 1.351 . S
C517 C522 1.501 . S
C518 C519 1.387 . S
C518 N521 1.341 . S
C519 C517 1.400 . S
C519 C518 1.387 . S
N520 Co511 2.022 . S
N520 C517 1.351 . S
N520 N521 1.365 . S
N521 C518 1.341 . S
N521 N520 1.365 . S
N521 H541 0.862 . S
C522 C517 1.501 . S
C522 H523 0.961 . S
C522 H524 0.961 . S
C522 H525 0.960 . S
H523 C522 0.961 . S
H524 C522 0.961 . S
H525 C522 0.960 . S
C526 N527 1.342 . S
C526 C530 1.401 . S
C526 C531 1.499 . S
N527 Co510 1.989 . S
N527 C526 1.342 . S
N527 N528 1.388 . S
N528 Co511 1.993 . S
N528 N527 1.388 . S
N528 C529 1.346 . S
C529 N528 1.346 . S
C529 C530 1.396 . S
C529 C539 1.510 . S
C530 C526 1.401 . S
C530 C529 1.396 . S
C531 C526 1.499 . S
C531 H532 0.959 . S
C531 H533 0.960 . S
C531 H534 0.961 . S
H532 C531 0.959 . S
H533 C531 0.960 . S
H534 C531 0.961 . S
O535 Co510 1.967 . S
O535 C543 1.258 . S
O536 Co511 1.941 . S
O536 C543 1.266 . S
H537 C539 0.959 . S
H538 C539 0.961 . S
C539 C529 1.510 . S
C539 H537 0.959 . S
C539 H538 0.961 . S
C539 H540 0.960 . S
H540 C539 0.960 . S
H541 N521 0.862 . S
O542 Co510 1.920 . S
O542 C515 1.289 . S
C543 O535 1.258 . S
C543 O536 1.266 . S
H544 C562 0.951 . S
H545 C564 0.951 . S
H546 C566 0.950 . S
H547 C567 0.950 . S
H548 C569 0.950 . S
H549 C572 0.950 . S
H550 C573 0.950 . S
H551 C575 0.950 . S
H552 C576 0.950 . S
H553 C577 0.951 . S
H554 C579 0.951 . S
H555 C581 0.950 . S
H556 C582 0.950 . S
H557 C584 0.950 . S
H558 C587 0.950 . S
H559 C588 0.950 . S
H560 C590 0.950 . S
H561 C591 0.950 . S
C562 H544 0.951 . S
C562 C563 1.366 . S
C562 C564 1.388 . S
C563 C562 1.366 . S
C563 C567 1.385 . S
C564 H545 0.951 . S
C564 C562 1.388 . S
C564 C565 1.366 . S
C565 C564 1.366 . S
C565 C566 1.414 . S
C565 C568 1.499 . S
C566 H546 0.950 . S
C566 C565 1.414 . S
C566 C567 1.374 . S
C567 H547 0.950 . S
C567 C563 1.385 . S
C567 C566 1.374 . S
C568 C565 1.499 . S
C568 C569 1.373 . S
C568 C570 1.389 . S
C569 H548 0.950 . S
C569 C568 1.373 . S
C569 C585 1.377 . S
C570 C568 1.389 . S
C570 C571 1.524 . S
C570 C584 1.377 . S
C571 C570 1.524 . S
C571 C572 1.397 . S
C571 C576 1.363 . S
C572 H549 0.950 . S
C572 C571 1.397 . S
C572 C573 1.334 . S
C573 H550 0.950 . S
C573 C572 1.334 . S
C573 C574 1.287 . S
C574 C573 1.287 . S
C574 C575 1.524 . S
C574 H593 0.913 . S
C575 H551 0.950 . S
C575 C574 1.524 . S
C575 C576 1.415 . S
C576 H552 0.950 . S
C576 C571 1.363 . S
C576 C575 1.415 . S
C577 H553 0.951 . S
C577 C578 1.366 . S
C577 C579 1.388 . S
C578 C577 1.366 . S
C578 C582 1.385 . S
C579 H554 0.951 . S
C579 C577 1.388 . S
C579 C580 1.366 . S
C580 C579 1.366 . S
C580 C581 1.414 . S
C580 C583 1.499 . S
C581 H555 0.950 . S
C581 C580 1.414 . S
C581 C582 1.374 . S
C582 H556 0.950 . S
C582 C578 1.385 . S
C582 C581 1.374 . S
C583 C580 1.499 . S
C583 C584 1.373 . S
C583 C585 1.389 . S
C584 H557 0.950 . S
C584 C570 1.377 . S
C584 C583 1.373 . S
C585 C569 1.377 . S
C585 C583 1.389 . S
C585 C586 1.524 . S
C586 C585 1.524 . S
C586 C587 1.397 . S
C586 C591 1.363 . S
C587 H558 0.950 . S
C587 C586 1.397 . S
C587 C588 1.334 . S
C588 H559 0.950 . S
C588 C587 1.334 . S
C588 C589 1.287 . S
C589 C588 1.287 . S
C589 C590 1.524 . S
C589 H592 0.999 . S
C590 H560 0.950 . S
C590 C589 1.524 . S
C590 C591 1.415 . S
C591 H561 0.950 . S
C591 C586 1.363 . S
C591 C590 1.415 . S
H592 C589 0.999 . S
H593 C574 0.913 . S
H594 C612 0.951 . S
H595 C614 0.951 . S
H596 C616 0.950 . S
H597 C617 0.950 . S
H598 C619 0.950 . S
H599 C622 0.950 . S
H600 C623 0.950 . S
H601 C625 0.950 . S
H602 C626 0.950 . S
H603 C627 0.951 . S
H604 C629 0.951 . S
H605 C631 0.950 . S
H606 C632 0.950 . S
H607 C634 0.950 . S
H608 C637 0.950 . S
H609 C638 0.950 . S
H610 C640 0.950 . S
H611 C641 0.950 . S
C612 H594 0.951 . S
C612 C613 1.366 . S
C612 C614 1.388 . S
C613 C612 1.366 . S
C613 C617 1.385 . S
C614 H595 0.951 . S
C614 C612 1.388 . S
C614 C615 1.366 . S
C615 C614 1.366 . S
C615 C616 1.414 . S
C615 C618 1.499 . S
C616 H596 0.950 . S
C616 C615 1.414 . S
C616 C617 1.374 . S
C617 H597 0.950 . S
C617 C613 1.385 . S
C617 C616 1.374 . S
C618 C615 1.499 . S
C618 C619 1.373 . S
C618 C620 1.389 . S
C619 H598 0.950 . S
C619 C618 1.373 . S
C619 C635 1.377 . S
C620 C618 1.389 . S
C620 C621 1.524 . S
C620 C634 1.377 . S
C621 C620 1.524 . S
C621 C622 1.397 . S
C621 C626 1.363 . S
C622 H599 0.950 . S
C622 C621 1.397 . S
C622 C623 1.334 . S
C623 H600 0.950 . S
C623 C622 1.334 . S
C623 C624 1.287 . S
C624 C623 1.287 . S
C624 C625 1.524 . S
C624 H643 0.913 . S
C625 H601 0.950 . S
C625 C624 1.524 . S
C625 C626 1.415 . S
C626 H602 0.950 . S
C626 C621 1.363 . S
C626 C625 1.415 . S
C627 H603 0.951 . S
C627 C628 1.366 . S
C627 C629 1.388 . S
C628 C627 1.366 . S
C628 C632 1.385 . S
C629 H604 0.951 . S
C629 C627 1.388 . S
C629 C630 1.366 . S
C630 C629 1.366 . S
C630 C631 1.414 . S
C630 C633 1.499 . S
C631 H605 0.950 . S
C631 C630 1.414 . S
C631 C632 1.374 . S
C632 H606 0.950 . S
C632 C628 1.385 . S
C632 C631 1.374 . S
C633 C630 1.499 . S
C633 C634 1.373 . S
C633 C635 1.389 . S
C634 H607 0.950 . S
C634 C620 1.377 . S
C634 C633 1.373 . S
C635 C619 1.377 . S
C635 C633 1.389 . S
C635 C636 1.524 . S
C636 C635 1.524 . S
C636 C637 1.397 . S
C636 C641 1.363 . S
C637 H608 0.950 . S
C637 C636 1.397 . S
C637 C638 1.334 . S
C638 H609 0.950 . S
C638 C637 1.334 . S
C638 C639 1.287 . S
C639 C638 1.287 . S
C639 C640 1.524 . S
C639 H642 0.999 . S
C640 H610 0.950 . S
C640 C639 1.524 . S
C640 C641 1.415 . S
C641 H611 0.950 . S
C641 C636 1.363 . S
C641 C640 1.415 . S
H642 C639 0.999 . S
H643 C624 0.913 . S
H644 C662 0.951 . S
H645 C664 0.951 . S
H646 C666 0.950 . S
H647 C667 0.950 . S
H648 C669 0.950 . S
H649 C672 0.950 . S
H650 C673 0.950 . S
H651 C675 0.950 . S
H652 C676 0.950 . S
H653 C677 0.951 . S
H654 C679 0.951 . S
H655 C681 0.950 . S
H656 C682 0.950 . S
H657 C684 0.950 . S
H658 C687 0.950 . S
H659 C688 0.950 . S
H660 C690 0.950 . S
H661 C691 0.950 . S
C662 H644 0.951 . S
C662 C663 1.366 . S
C662 C664 1.388 . S
C663 C662 1.366 . S
C663 C667 1.385 . S
C664 H645 0.951 . S
C664 C662 1.388 . S
C664 C665 1.366 . S
C665 C664 1.366 . S
C665 C666 1.414 . S
C665 C668 1.499 . S
C666 H646 0.950 . S
C666 C665 1.414 . S
C666 C667 1.374 . S
C667 H647 0.950 . S
C667 C663 1.385 . S
C667 C666 1.374 . S
C668 C665 1.499 . S
C668 C669 1.373 . S
C668 C670 1.389 . S
C669 H648 0.950 . S
C669 C668 1.373 . S
C669 C685 1.377 . S
C670 C668 1.389 . S
C670 C671 1.524 . S
C670 C684 1.377 . S
C671 C670 1.524 . S
C671 C672 1.397 . S
C671 C676 1.363 . S
C672 H649 0.950 . S
C672 C671 1.397 . S
C672 C673 1.334 . S
C673 H650 0.950 . S
C673 C672 1.334 . S
C673 C674 1.287 . S
C674 C673 1.287 . S
C674 C675 1.524 . S
C674 H693 0.913 . S
C675 H651 0.950 . S
C675 C674 1.524 . S
C675 C676 1.415 . S
C676 H652 0.950 . S
C676 C671 1.363 . S
C676 C675 1.415 . S
C677 H653 0.951 . S
C677 C678 1.366 . S
C677 C679 1.388 . S
C678 C677 1.366 . S
C678 C682 1.385 . S
C679 H654 0.951 . S
C679 C677 1.388 . S
C679 C680 1.366 . S
C680 C679 1.366 . S
C680 C681 1.414 . S
C680 C683 1.499 . S
C681 H655 0.950 . S
C681 C680 1.414 . S
C681 C682 1.374 . S
C682 H656 0.950 . S
C682 C678 1.385 . S
C682 C681 1.374 . S
C683 C680 1.499 . S
C683 C684 1.373 . S
C683 C685 1.389 . S
C684 H657 0.950 . S
C684 C670 1.377 . S
C684 C683 1.373 . S
C685 C669 1.377 . S
C685 C683 1.389 . S
C685 C686 1.524 . S
C686 C685 1.524 . S
C686 C687 1.397 . S
C686 C691 1.363 . S
C687 H658 0.950 . S
C687 C686 1.397 . S
C687 C688 1.334 . S
C688 H659 0.950 . S
C688 C687 1.334 . S
C688 C689 1.287 . S
C689 C688 1.287 . S
C689 C690 1.524 . S
C689 H692 0.999 . S
C690 H660 0.950 . S
C690 C689 1.524 . S
C690 C691 1.415 . S
C691 H661 0.950 . S
C691 C686 1.363 . S
C691 C690 1.415 . S
H692 C689 0.999 . S
H693 C674 0.913 . S
H694 C712 0.951 . S
H695 C714 0.951 . S
H696 C716 0.950 . S
H697 C717 0.950 . S
H698 C719 0.950 . S
H699 C722 0.950 . S
H700 C723 0.950 . S
H701 C725 0.950 . S
H702 C726 0.950 . S
H703 C727 0.951 . S
H704 C729 0.951 . S
H705 C731 0.950 . S
H706 C732 0.950 . S
H707 C734 0.950 . S
H708 C737 0.950 . S
H709 C738 0.950 . S
H710 C740 0.950 . S
H711 C741 0.950 . S
C712 H694 0.951 . S
C712 C713 1.366 . S
C712 C714 1.388 . S
C713 C712 1.366 . S
C713 C717 1.385 . S
C714 H695 0.951 . S
C714 C712 1.388 . S
C714 C715 1.366 . S
C715 C714 1.366 . S
C715 C716 1.414 . S
C715 C718 1.499 . S
C716 H696 0.950 . S
C716 C715 1.414 . S
C716 C717 1.374 . S
C717 H697 0.950 . S
C717 C713 1.385 . S
C717 C716 1.374 . S
C718 C715 1.499 . S
C718 C719 1.373 . S
C718 C720 1.389 . S
C719 H698 0.950 . S
C719 C718 1.373 . S
C719 C735 1.377 . S
C720 C718 1.389 . S
C720 C721 1.524 . S
C720 C734 1.377 . S
C721 C720 1.524 . S
C721 C722 1.397 . S
C721 C726 1.363 . S
C722 H699 0.950 . S
C722 C721 1.397 . S
C722 C723 1.334 . S
C723 H700 0.950 . S
C723 C722 1.334 . S
C723 C724 1.287 . S
C724 C723 1.287 . S
C724 C725 1.524 . S
C724 H743 0.913 . S
C725 H701 0.950 . S
C725 C724 1.524 . S
C725 C726 1.415 . S
C726 H702 0.950 . S
C726 C721 1.363 . S
C726 C725 1.415 . S
C727 H703 0.951 . S
C727 C728 1.366 . S
C727 C729 1.388 . S
C728 C727 1.366 . S
C728 C732 1.385 . S
C729 H704 0.951 . S
C729 C727 1.388 . S
C729 C730 1.366 . S
C730 C729 1.366 . S
C730 C731 1.414 . S
C730 C733 1.499 . S
C731 H705 0.950 . S
C731 C730 1.414 . S
C731 C732 1.374 . S
C732 H706 0.950 . S
C732 C728 1.385 . S
C732 C731 1.374 . S
C733 C730 1.499 . S
C733 C734 1.373 . S
C733 C735 1.389 . S
C734 H707 0.950 . S
C734 C720 1.377 . S
C734 C733 1.373 . S
C735 C719 1.377 . S
C735 C733 1.389 . S
C735 C736 1.524 . S
C736 C735 1.524 . S
C736 C737 1.397 . S
C736 C741 1.363 . S
C737 H708 0.950 . S
C737 C736 1.397 . S
C737 C738 1.334 . S
C738 H709 0.950 . S
C738 C737 1.334 . S
C738 C739 1.287 . S
C739 C738 1.287 . S
C739 C740 1.524 . S
C739 H742 0.999 . S
C740 H710 0.950 . S
C740 C739 1.524 . S
C740 C741 1.415 . S
C741 H711 0.950 . S
C741 C736 1.363 . S
C741 C740 1.415 . S
H742 C739 0.999 . S
H743 C724 0.913 . S
H744 C762 0.951 . S
H745 C764 0.951 . S
H746 C766 0.950 . S
H747 C767 0.950 . S
H748 C769 0.950 . S
H749 C772 0.950 . S
H750 C773 0.950 . S
H751 C775 0.950 . S
H752 C776 0.950 . S
H753 C777 0.951 . S
H754 C779 0.951 . S
H755 C781 0.950 . S
H756 C782 0.950 . S
H757 C784 0.950 . S
H758 C787 0.950 . S
H759 C788 0.950 . S
H760 C790 0.950 . S
H761 C791 0.950 . S
C762 H744 0.951 . S
C762 C763 1.366 . S
C762 C764 1.388 . S
C763 C762 1.366 . S
C763 C767 1.385 . S
C764 H745 0.951 . S
C764 C762 1.388 . S
C764 C765 1.366 . S
C765 C764 1.366 . S
C765 C766 1.414 . S
C765 C768 1.499 . S
C766 H746 0.950 . S
C766 C765 1.414 . S
C766 C767 1.374 . S
C767 H747 0.950 . S
C767 C763 1.385 . S
C767 C766 1.374 . S
C768 C765 1.499 . S
C768 C769 1.373 . S
C768 C770 1.389 . S
C769 H748 0.950 . S
C769 C768 1.373 . S
C769 C785 1.377 . S
C770 C768 1.389 . S
C770 C771 1.524 . S
C770 C784 1.377 . S
C771 C770 1.524 . S
C771 C772 1.397 . S
C771 C776 1.363 . S
C772 H749 0.950 . S
C772 C771 1.397 . S
C772 C773 1.334 . S
C773 H750 0.950 . S
C773 C772 1.334 . S
C773 C774 1.287 . S
C774 C773 1.287 . S
C774 C775 1.524 . S
C774 H793 0.913 . S
C775 H751 0.950 . S
C775 C774 1.524 . S
C775 C776 1.415 . S
C776 H752 0.950 . S
C776 C771 1.363 . S
C776 C775 1.415 . S
C777 H753 0.951 . S
C777 C778 1.366 . S
C777 C779 1.388 . S
C778 C777 1.366 . S
C778 C782 1.385 . S
C779 H754 0.951 . S
C779 C777 1.388 . S
C779 C780 1.366 . S
C780 C779 1.366 . S
C780 C781 1.414 . S
C780 C783 1.499 . S
C781 H755 0.950 . S
C781 C780 1.414 . S
C781 C782 1.374 . S
C782 H756 0.950 . S
C782 C778 1.385 . S
C782 C781 1.374 . S
C783 C780 1.499 . S
C783 C784 1.373 . S
C783 C785 1.389 . S
C784 H757 0.950 . S
C784 C770 1.377 . S
C784 C783 1.373 . S
C785 C769 1.377 . S
C785 C783 1.389 . S
C785 C786 1.524 . S
C786 C785 1.524 . S
C786 C787 1.397 . S
C786 C791 1.363 . S
C787 H758 0.950 . S
C787 C786 1.397 . S
C787 C788 1.334 . S
C788 H759 0.950 . S
C788 C787 1.334 . S
C788 C789 1.287 . S
C789 C788 1.287 . S
C789 C790 1.524 . S
C789 H792 0.999 . S
C790 H760 0.950 . S
C790 C789 1.524 . S
C790 C791 1.415 . S
C791 H761 0.950 . S
C791 C786 1.363 . S
C791 C790 1.415 . S
H792 C789 0.999 . S
H793 C774 0.913 . S
H794 C812 0.951 . S
H795 C814 0.951 . S
H796 C816 0.950 . S
H797 C817 0.950 . S
H798 C819 0.950 . S
H799 C822 0.950 . S
H800 C823 0.950 . S
H801 C825 0.950 . S
H802 C826 0.950 . S
H803 C827 0.951 . S
H804 C829 0.951 . S
H805 C831 0.950 . S
H806 C832 0.950 . S
H807 C834 0.950 . S
H808 C837 0.950 . S
H809 C838 0.950 . S
H810 C840 0.950 . S
H811 C841 0.950 . S
C812 H794 0.951 . S
C812 C813 1.366 . S
C812 C814 1.388 . S
C813 C812 1.366 . S
C813 C817 1.385 . S
C814 H795 0.951 . S
C814 C812 1.388 . S
C814 C815 1.366 . S
C815 C814 1.366 . S
C815 C816 1.414 . S
C815 C818 1.499 . S
C816 H796 0.950 . S
C816 C815 1.414 . S
C816 C817 1.374 . S
C817 H797 0.950 . S
C817 C813 1.385 . S
C817 C816 1.374 . S
C818 C815 1.499 . S
C818 C819 1.373 . S
C818 C820 1.389 . S
C819 H798 0.950 . S
C819 C818 1.373 . S
C819 C835 1.377 . S
C820 C818 1.389 . S
C820 C821 1.524 . S
C820 C834 1.377 . S
C821 C820 1.524 . S
C821 C822 1.397 . S
C821 C826 1.363 . S
C822 H799 0.950 . S
C822 C821 1.397 . S
C822 C823 1.334 . S
C823 H800 0.950 . S
C823 C822 1.334 . S
C823 C824 1.287 . S
C824 C823 1.287 . S
C824 C825 1.524 . S
C824 H843 0.913 . S
C825 H801 0.950 . S
C825 C824 1.524 . S
C825 C826 1.415 . S
C826 H802 0.950 . S
C826 C821 1.363 . S
C826 C825 1.415 . S
C827 H803 0.951 . S
C827 C828 1.366 . S
C827 C829 1.388 . S
C828 C827 1.366 . S
C828 C832 1.385 . S
C829 H804 0.951 . S
C829 C827 1.388 . S
C829 C830 1.366 . S
C830 C829 1.366 . S
C830 C831 1.414 . S
C830 C833 1.499 . S
C831 H805 0.950 . S
C831 C830 1.414 . S
C831 C832 1.374 . S
C832 H806 0.950 . S
C832 C828 1.385 . S
C832 C831 1.374 . S
C833 C830 1.499 . S
C833 C834 1.373 . S
C833 C835 1.389 . S
C834 H807 0.950 . S
C834 C820 1.377 . S
C834 C833 1.373 . S
C835 C819 1.377 . S
C835 C833 1.389 . S
C835 C836 1.524 . S
C836 C835 1.524 . S
C836 C837 1.397 . S
C836 C841 1.363 . S
C837 H808 0.950 . S
C837 C836 1.397 . S
C837 C838 1.334 . S
C838 H809 0.950 . S
C838 C837 1.334 . S
C838 C839 1.287 . S
C839 C838 1.287 . S
C839 C840 1.524 . S
C839 H842 0.999 . S
C840 H810 0.950 . S
C840 C839 1.524 . S
C840 C841 1.415 . S
C841 H811 0.950 . S
C841 C836 1.363 . S
C841 C840 1.415 . S
H842 C839 0.999 . S
H843 C824 0.913 . S
H844 C862 0.951 . S
H845 C864 0.951 . S
H846 C866 0.950 . S
H847 C867 0.950 . S
H848 C869 0.950 . S
H849 C872 0.950 . S
H850 C873 0.950 . S
H851 C875 0.950 . S
H852 C876 0.950 . S
H853 C877 0.951 . S
H854 C879 0.951 . S
H855 C881 0.950 . S
H856 C882 0.950 . S
H857 C884 0.950 . S
H858 C887 0.950 . S
H859 C888 0.950 . S
H860 C890 0.950 . S
H861 C891 0.950 . S
C862 H844 0.951 . S
C862 C863 1.366 . S
C862 C864 1.388 . S
C863 C862 1.366 . S
C863 C867 1.385 . S
C864 H845 0.951 . S
C864 C862 1.388 . S
C864 C865 1.366 . S
C865 C864 1.366 . S
C865 C866 1.414 . S
C865 C868 1.499 . S
C866 H846 0.950 . S
C866 C865 1.414 . S
C866 C867 1.374 . S
C867 H847 0.950 . S
C867 C863 1.385 . S
C867 C866 1.374 . S
C868 C865 1.499 . S
C868 C869 1.373 . S
C868 C870 1.389 . S
C869 H848 0.950 . S
C869 C868 1.373 . S
C869 C885 1.377 . S
C870 C868 1.389 . S
C870 C871 1.524 . S
C870 C884 1.377 . S
C871 C870 1.524 . S
C871 C872 1.397 . S
C871 C876 1.363 . S
C872 H849 0.950 . S
C872 C871 1.397 . S
C872 C873 1.334 . S
C873 H850 0.950 . S
C873 C872 1.334 . S
C873 C874 1.287 . S
C874 C873 1.287 . S
C874 C875 1.524 . S
C874 H893 0.913 . S
C875 H851 0.950 . S
C875 C874 1.524 . S
C875 C876 1.415 . S
C876 H852 0.950 . S
C876 C871 1.363 . S
C876 C875 1.415 . S
C877 H853 0.951 . S
C877 C878 1.366 . S
C877 C879 1.388 . S
C878 C877 1.366 . S
C878 C882 1.385 . S
C879 H854 0.951 . S
C879 C877 1.388 . S
C879 C880 1.366 . S
C880 C879 1.366 . S
C880 C881 1.414 . S
C880 C883 1.499 . S
C881 H855 0.950 . S
C881 C880 1.414 . S
C881 C882 1.374 . S
C882 H856 0.950 . S
C882 C878 1.385 . S
C882 C881 1.374 . S
C883 C880 1.499 . S
C883 C884 1.373 . S
C883 C885 1.389 . S
C884 H857 0.950 . S
C884 C870 1.377 . S
C884 C883 1.373 . S
C885 C869 1.377 . S
C885 C883 1.389 . S
C885 C886 1.524 . S
C886 C885 1.524 . S
C886 C887 1.397 . S
C886 C891 1.363 . S
C887 H858 0.950 . S
C887 C886 1.397 . S
C887 C888 1.334 . S
C888 H859 0.950 . S
C888 C887 1.334 . S
C888 C889 1.287 . S
C889 C888 1.287 . S
C889 C890 1.524 . S
C889 H892 0.999 . S
C890 H860 0.950 . S
C890 C889 1.524 . S
C890 C891 1.415 . S
C891 H861 0.950 . S
C891 C886 1.363 . S
C891 C890 1.415 . S
H892 C889 0.999 . S
H893 C874 0.913 . S
H894 C912 0.951 . S
H895 C914 0.951 . S
H896 C916 0.950 . S
H897 C917 0.950 . S
H898 C919 0.950 . S
H899 C922 0.950 . S
H900 C923 0.950 . S
H901 C925 0.950 . S
H902 C926 0.950 . S
H903 C927 0.951 . S
H904 C929 0.951 . S
H905 C931 0.950 . S
H906 C932 0.950 . S
H907 C934 0.950 . S
H908 C937 0.950 . S
H909 C938 0.950 . S
H910 C940 0.950 . S
H911 C941 0.950 . S
C912 H894 0.951 . S
C912 C913 1.366 . S
C912 C914 1.388 . S
C913 C912 1.366 . S
C913 C917 1.385 . S
C914 H895 0.951 . S
C914 C912 1.388 . S
C914 C915 1.366 . S
C915 C914 1.366 . S
C915 C916 1.414 . S
C915 C918 1.499 . S
C916 H896 0.950 . S
C916 C915 1.414 . S
C916 C917 1.374 . S
C917 H897 0.950 . S
C917 C913 1.385 . S
C917 C916 1.374 . S
C918 C915 1.499 . S
C918 C919 1.373 . S
C918 C920 1.389 . S
C919 H898 0.950 . S
C919 C918 1.373 . S
C919 C935 1.377 . S
C920 C918 1.389 . S
C920 C921 1.524 . S
C920 C934 1.377 . S
C921 C920 1.524 . S
C921 C922 1.397 . S
C921 C926 1.363 . S
C922 H899 0.950 . S
C922 C921 1.397 . S
C922 C923 1.334 . S
C923 H900 0.950 . S
C923 C922 1.334 . S
C923 C924 1.287 . S
C924 C923 1.287 . S
C924 C925 1.524 . S
C924 H943 0.913 . S
C925 H901 0.950 . S
C925 C924 1.524 . S
C925 C926 1.415 . S
C926 H902 0.950 . S
C926 C921 1.363 . S
C926 C925 1.415 . S
C927 H903 0.951 . S
C927 C928 1.366 . S
C927 C929 1.388 . S
C928 C927 1.366 . S
C928 C932 1.385 . S
C929 H904 0.951 . S
C929 C927 1.388 . S
C929 C930 1.366 . S
C930 C929 1.366 . S
C930 C931 1.414 . S
C930 C933 1.499 . S
C931 H905 0.950 . S
C931 C930 1.414 . S
C931 C932 1.374 . S
C932 H906 0.950 . S
C932 C928 1.385 . S
C932 C931 1.374 . S
C933 C930 1.499 . S
C933 C934 1.373 . S
C933 C935 1.389 . S
C934 H907 0.950 . S
C934 C920 1.377 . S
C934 C933 1.373 . S
C935 C919 1.377 . S
C935 C933 1.389 . S
C935 C936 1.524 . S
C936 C935 1.524 . S
C936 C937 1.397 . S
C936 C941 1.363 . S
C937 H908 0.950 . S
C937 C936 1.397 . S
C937 C938 1.334 . S
C938 H909 0.950 . S
C938 C937 1.334 . S
C938 C939 1.287 . S
C939 C938 1.287 . S
C939 C940 1.524 . S
C939 H942 0.999 . S
C940 H910 0.950 . S
C940 C939 1.524 . S
C940 C941 1.415 . S
C941 H911 0.950 . S
C941 C936 1.363 . S
C941 C940 1.415 . S
H942 C939 0.999 . S
H943 C924 0.913 . S
H944 C962 0.951 . S
H945 C964 0.951 . S
H946 C966 0.950 . S
H947 C967 0.950 . S
H948 C969 0.950 . S
H949 C972 0.950 . S
H950 C973 0.950 . S
H951 C975 0.950 . S
H952 C976 0.950 . S
H953 C977 0.951 . S
H954 C979 0.951 . S
H955 C981 0.950 . S
H956 C982 0.950 . S
H957 C984 0.950 . S
H958 C987 0.950 . S
H959 C988 0.950 . S
H960 C990 0.950 . S
H961 C991 0.950 . S
C962 H944 0.951 . S
C962 C963 1.366 . S
C962 C964 1.388 . S
C963 C962 1.366 . S
C963 C967 1.385 . S
C964 H945 0.951 . S
C964 C962 1.388 . S
C964 C965 1.366 . S
C965 C964 1.366 . S
C965 C966 1.414 . S
C965 C968 1.499 . S
C966 H946 0.950 . S
C966 C965 1.414 . S
C966 C967 1.374 . S
C967 H947 0.950 . S
C967 C963 1.385 . S
C967 C966 1.374 . S
C968 C965 1.499 . S
C968 C969 1.373 . S
C968 C970 1.389 . S
C969 H948 0.950 . S
C969 C968 1.373 . S
C969 C985 1.377 . S
C970 C968 1.389 . S
C970 C971 1.524 . S
C970 C984 1.377 . S
C971 C970 1.524 . S
C971 C972 1.397 . S
C971 C976 1.363 . S
C972 H949 0.950 . S
C972 C971 1.397 . S
C972 C973 1.334 . S
C973 H950 0.950 . S
C973 C972 1.334 . S
C973 C974 1.287 . S
C974 C973 1.287 . S
C974 C975 1.524 . S
C974 H993 0.913 . S
C975 H951 0.950 . S
C975 C974 1.524 . S
C975 C976 1.415 . S
C976 H952 0.950 . S
C976 C971 1.363 . S
C976 C975 1.415 . S
C977 H953 0.951 . S
C977 C978 1.366 . S
C977 C979 1.388 . S
C978 C977 1.366 . S
C978 C982 1.385 . S
C979 H954 0.951 . S
C979 C977 1.388 . S
C979 C980 1.366 . S
C980 C979 1.366 . S
C980 C981 1.414 . S
C980 C983 1.499 . S
C981 H955 0.950 . S
C981 C980 1.414 . S
C981 C982 1.374 . S
C982 H956 0.950 . S
C982 C978 1.385 . S
C982 C981 1.374 . S
C983 C980 1.499 . S
C983 C984 1.373 . S
C983 C985 1.389 . S
C984 H957 0.950 . S
C984 C970 1.377 . S
C984 C983 1.373 . S
C985 C969 1.377 . S
C985 C983 1.389 . S
C985 C986 1.524 . S
C986 C985 1.524 . S
C986 C987 1.397 . S
C986 C991 1.363 . S
C987 H958 0.950 . S
C987 C986 1.397 . S
C987 C988 1.334 . S
C988 H959 0.950 . S
C988 C987 1.334 . S
C988 C989 1.287 . S
C989 C988 1.287 . S
C989 C990 1.524 . S
C989 H992 0.999 . S
C990 H960 0.950 . S
C990 C989 1.524 . S
C990 C991 1.415 . S
C991 H961 0.950 . S
C991 C986 1.363 . S
C991 C990 1.415 . S
H992 C989 0.999 . S
H993 C974 0.913 . S
H994 C1012 0.951 . S
H995 C1014 0.951 . S
H996 C1016 0.950 . S
H997 C1017 0.950 . S
H998 C1019 0.950 . S
H999 C1022 0.950 . S
H1000 C1023 0.950 . S
H1001 C1025 0.950 . S
H1002 C1026 0.950 . S
H1003 C1027 0.951 . S
H1004 C1029 0.951 . S
H1005 C1031 0.950 . S
H1006 C1032 0.950 . S
H1007 C1034 0.950 . S
H1008 C1037 0.950 . S
H1009 C1038 0.950 . S
H1010 C1040 0.950 . S
H1011 C1041 0.950 . S
C1012 H994 0.951 . S
C1012 C1013 1.366 . S
C1012 C1014 1.388 . S
C1013 C1012 1.366 . S
C1013 C1017 1.385 . S
C1014 H995 0.951 . S
C1014 C1012 1.388 . S
C1014 C1015 1.366 . S
C1015 C1014 1.366 . S
C1015 C1016 1.414 . S
C1015 C1018 1.499 . S
C1016 H996 0.950 . S
C1016 C1015 1.414 . S
C1016 C1017 1.374 . S
C1017 H997 0.950 . S
C1017 C1013 1.385 . S
C1017 C1016 1.374 . S
C1018 C1015 1.499 . S
C1018 C1019 1.373 . S
C1018 C1020 1.389 . S
C1019 H998 0.950 . S
C1019 C1018 1.373 . S
C1019 C1035 1.377 . S
C1020 C1018 1.389 . S
C1020 C1021 1.524 . S
C1020 C1034 1.377 . S
C1021 C1020 1.524 . S
C1021 C1022 1.397 . S
C1021 C1026 1.363 . S
C1022 H999 0.950 . S
C1022 C1021 1.397 . S
C1022 C1023 1.334 . S
C1023 H1000 0.950 . S
C1023 C1022 1.334 . S
C1023 C1024 1.287 . S
C1024 C1023 1.287 . S
C1024 C1025 1.524 . S
C1024 H1043 0.913 . S
C1025 H1001 0.950 . S
C1025 C1024 1.524 . S
C1025 C1026 1.415 . S
C1026 H1002 0.950 . S
C1026 C1021 1.363 . S
C1026 C1025 1.415 . S
C1027 H1003 0.951 . S
C1027 C1028 1.366 . S
C1027 C1029 1.388 . S
C1028 C1027 1.366 . S
C1028 C1032 1.385 . S
C1029 H1004 0.951 . S
C1029 C1027 1.388 . S
C1029 C1030 1.366 . S
C1030 C1029 1.366 . S
C1030 C1031 1.414 . S
C1030 C1033 1.499 . S
C1031 H1005 0.950 . S
C1031 C1030 1.414 . S
C1031 C1032 1.374 . S
C1032 H1006 0.950 . S
C1032 C1028 1.385 . S
C1032 C1031 1.374 . S
C1033 C1030 1.499 . S
C1033 C1034 1.373 . S
C1033 C1035 1.389 . S
C1034 H1007 0.950 . S
C1034 C1020 1.377 . S
C1034 C1033 1.373 . S
C1035 C1019 1.377 . S
C1035 C1033 1.389 . S
C1035 C1036 1.524 . S
C1036 C1035 1.524 . S
C1036 C1037 1.397 . S
C1036 C1041 1.363 . S
C1037 H1008 0.950 . S
C1037 C1036 1.397 . S
C1037 C1038 1.334 . S
C1038 H1009 0.950 . S
C1038 C1037 1.334 . S
C1038 C1039 1.287 . S
C1039 C1038 1.287 . S
C1039 C1040 1.524 . S
C1039 H1042 0.999 . S
C1040 H1010 0.950 . S
C1040 C1039 1.524 . S
C1040 C1041 1.415 . S
C1041 H1011 0.950 . S
C1041 C1036 1.363 . S
C1041 C1040 1.415 . S
H1042 C1039 0.999 . S
H1043 C1024 0.913 . S
H1044 C1062 0.951 . S
H1045 C1064 0.951 . S
H1046 C1066 0.950 . S
H1047 C1067 0.950 . S
H1048 C1069 0.950 . S
H1049 C1072 0.950 . S
H1050 C1073 0.950 . S
H1051 C1075 0.950 . S
H1052 C1076 0.950 . S
H1053 C1077 0.951 . S
H1054 C1079 0.951 . S
H1055 C1081 0.950 . S
H1056 C1082 0.950 . S
H1057 C1084 0.950 . S
H1058 C1087 0.950 . S
H1059 C1088 0.950 . S
H1060 C1090 0.950 . S
H1061 C1091 0.950 . S
C1062 H1044 0.951 . S
C1062 C1063 1.366 . S
C1062 C1064 1.388 . S
C1063 C1062 1.366 . S
C1063 C1067 1.385 . S
C1064 H1045 0.951 . S
C1064 C1062 1.388 . S
C1064 C1065 1.366 . S
C1065 C1064 1.366 . S
C1065 C1066 1.414 . S
C1065 C1068 1.499 . S
C1066 H1046 0.950 . S
C1066 C1065 1.414 . S
C1066 C1067 1.374 . S
C1067 H1047 0.950 . S
C1067 C1063 1.385 . S
C1067 C1066 1.374 . S
C1068 C1065 1.499 . S
C1068 C1069 1.373 . S
C1068 C1070 1.389 . S
C1069 H1048 0.950 . S
C1069 C1068 1.373 . S
C1069 C1085 1.377 . S
C1070 C1068 1.389 . S
C1070 C1071 1.524 . S
C1070 C1084 1.377 . S
C1071 C1070 1.524 . S
C1071 C1072 1.397 . S
C1071 C1076 1.363 . S
C1072 H1049 0.950 . S
C1072 C1071 1.397 . S
C1072 C1073 1.334 . S
C1073 H1050 0.950 . S
C1073 C1072 1.334 . S
C1073 C1074 1.287 . S
C1074 C1073 1.287 . S
C1074 C1075 1.524 . S
C1074 H1093 0.913 . S
C1075 H1051 0.950 . S
C1075 C1074 1.524 . S
C1075 C1076 1.415 . S
C1076 H1052 0.950 . S
C1076 C1071 1.363 . S
C1076 C1075 1.415 . S
C1077 H1053 0.951 . S
C1077 C1078 1.366 . S
C1077 C1079 1.388 . S
C1078 C1077 1.366 . S
C1078 C1082 1.385 . S
C1079 H1054 0.951 . S
C1079 C1077 1.388 . S
C1079 C1080 1.366 . S
C1080 C1079 1.366 . S
C1080 C1081 1.414 . S
C1080 C1083 1.499 . S
C1081 H1055 0.950 . S
C1081 C1080 1.414 . S
C1081 C1082 1.374 . S
C1082 H1056 0.950 . S
C1082 C1078 1.385 . S
C1082 C1081 1.374 . S
C1083 C1080 1.499 . S
C1083 C1084 1.373 . S
C1083 C1085 1.389 . S
C1084 H1057 0.950 . S
C1084 C1070 1.377 . S
C1084 C1083 1.373 . S
C1085 C1069 1.377 . S
C1085 C1083 1.389 . S
C1085 C1086 1.524 . S
C1086 C1085 1.524 . S
C1086 C1087 1.397 . S
C1086 C1091 1.363 . S
C1087 H1058 0.950 . S
C1087 C1086 1.397 . S
C1087 C1088 1.334 . S
C1088 H1059 0.950 . S
C1088 C1087 1.334 . S
C1088 C1089 1.287 . S
C1089 C1088 1.287 . S
C1089 C1090 1.524 . S
C1089 H1092 0.999 . S
C1090 H1060 0.950 . S
C1090 C1089 1.524 . S
C1090 C1091 1.415 . S
C1091 H1061 0.950 . S
C1091 C1086 1.363 . S
C1091 C1090 1.415 . S
H1092 C1089 0.999 . S
H1093 C1074 0.913 . S
H1094 C1112 0.951 . S
H1095 C1114 0.951 . S
H1096 C1116 0.950 . S
H1097 C1117 0.950 . S
H1098 C1119 0.950 . S
H1099 C1122 0.950 . S
H1100 C1123 0.950 . S
H1101 C1125 0.950 . S
H1102 C1126 0.950 . S
H1103 C1127 0.951 . S
H1104 C1129 0.951 . S
H1105 C1131 0.950 . S
H1106 C1132 0.950 . S
H1107 C1134 0.950 . S
H1108 C1137 0.950 . S
H1109 C1138 0.950 . S
H1110 C1140 0.950 . S
H1111 C1141 0.950 . S
C1112 H1094 0.951 . S
C1112 C1113 1.366 . S
C1112 C1114 1.388 . S
C1113 C1112 1.366 . S
C1113 C1117 1.385 . S
C1114 H1095 0.951 . S
C1114 C1112 1.388 . S
C1114 C1115 1.366 . S
C1115 C1114 1.366 . S
C1115 C1116 1.414 . S
C1115 C1118 1.499 . S
C1116 H1096 0.950 . S
C1116 C1115 1.414 . S
C1116 C1117 1.374 . S
C1117 H1097 0.950 . S
C1117 C1113 1.385 . S
C1117 C1116 1.374 . S
C1118 C1115 1.499 . S
C1118 C1119 1.373 . S
C1118 C1120 1.389 . S
C1119 H1098 0.950 . S
C1119 C1118 1.373 . S
C1119 C1135 1.377 . S
C1120 C1118 1.389 . S
C1120 C1121 1.524 . S
C1120 C1134 1.377 . S
C1121 C1120 1.524 . S
C1121 C1122 1.397 . S
C1121 C1126 1.363 . S
C1122 H1099 0.950 . S
C1122 C1121 1.397 . S
C1122 C1123 1.334 . S
C1123 H1100 0.950 . S
C1123 C1122 1.334 . S
C1123 C1124 1.287 . S
C1124 C1123 1.287 . S
C1124 C1125 1.524 . S
C1124 H1143 0.913 . S
C1125 H1101 0.950 . S
C1125 C1124 1.524 . S
C1125 C1126 1.415 . S
C1126 H1102 0.950 . S
C1126 C1121 1.363 . S
C1126 C1125 1.415 . S
C1127 H1103 0.951 . S
C1127 C1128 1.366 . S
C1127 C1129 1.388 . S
C1128 C1127 1.366 . S
C1128 C1132 1.385 . S
C1129 H1104 0.951 . S
C1129 C1127 1.388 . S
C1129 C1130 1.366 . S
C1130 C1129 1.366 . S
C1130 C1131 1.414 . S
C1130 C1133 1.499 . S
C1131 H1105 0.950 . S
C1131 C1130 1.414 . S
C1131 C1132 1.374 . S
C1132 H1106 0.950 . S
C1132 C1128 1.385 . S
C1132 C1131 1.374 . S
C1133 C1130 1.499 . S
C1133 C1134 1.373 . S
C1133 C1135 1.389 . S
C1134 H1107 0.950 . S
C1134 C1120 1.377 . S
C1134 C1133 1.373 . S
C1135 C1119 1.377 . S
C1135 C1133 1.389 . S
C1135 C1136 1.524 . S
C1136 C1135 1.524 . S
C1136 C1137 1.397 . S
C1136 C1141 1.363 . S
C1137 H1108 0.950 . S
C1137 C1136 1.397 . S
C1137 C1138 1.334 . S
C1138 H1109 0.950 . S
C1138 C1137 1.334 . S
C1138 C1139 1.287 . S
C1139 C1138 1.287 . S
C1139 C1140 1.524 . S
C1139 H1142 0.999 . S
C1140 H1110 0.950 . S
C1140 C1139 1.524 . S
C1140 C1141 1.415 . S
C1141 H1111 0.950 . S
C1141 C1136 1.363 . S
C1141 C1140 1.415 . S
H1142 C1139 0.999 . S
H1143 C1124 0.913 . S
H1144 C1162 0.951 . S
H1145 C1164 0.951 . S
H1146 C1166 0.950 . S
H1147 C1167 0.950 . S
H1148 C1169 0.950 . S
H1149 C1172 0.950 . S
H1150 C1173 0.950 . S
H1151 C1175 0.950 . S
H1152 C1176 0.950 . S
H1153 C1177 0.951 . S
H1154 C1179 0.951 . S
H1155 C1181 0.950 . S
H1156 C1182 0.950 . S
H1157 C1184 0.950 . S
H1158 C1187 0.950 . S
H1159 C1188 0.950 . S
H1160 C1190 0.950 . S
H1161 C1191 0.950 . S
C1162 H1144 0.951 . S
C1162 C1163 1.366 . S
C1162 C1164 1.388 . S
C1163 C1162 1.366 . S
C1163 C1167 1.385 . S
C1164 H1145 0.951 . S
C1164 C1162 1.388 . S
C1164 C1165 1.366 . S
C1165 C1164 1.366 . S
C1165 C1166 1.414 . S
C1165 C1168 1.499 . S
C1166 H1146 0.950 . S
C1166 C1165 1.414 . S
C1166 C1167 1.374 . S
C1167 H1147 0.950 . S
C1167 C1163 1.385 . S
C1167 C1166 1.374 . S
C1168 C1165 1.499 . S
C1168 C1169 1.373 . S
C1168 C1170 1.389 . S
C1169 H1148 0.950 . S
C1169 C1168 1.373 . S
C1169 C1185 1.377 . S
C1170 C1168 1.389 . S
C1170 C1171 1.524 . S
C1170 C1184 1.377 . S
C1171 C1170 1.524 . S
C1171 C1172 1.397 . S
C1171 C1176 1.363 . S
C1172 H1149 0.950 . S
C1172 C1171 1.397 . S
C1172 C1173 1.334 . S
C1173 H1150 0.950 . S
C1173 C1172 1.334 . S
C1173 C1174 1.287 . S
C1174 C1173 1.287 . S
C1174 C1175 1.524 . S
C1174 H1193 0.913 . S
C1175 H1151 0.950 . S
C1175 C1174 1.524 . S
C1175 C1176 1.415 . S
C1176 H1152 0.950 . S
C1176 C1171 1.363 . S
C1176 C1175 1.415 . S
C1177 H1153 0.951 . S
C1177 C1178 1.366 . S
C1177 C1179 1.388 . S
C1178 C1177 1.366 . S
C1178 C1182 1.385 . S
C1179 H1154 0.951 . S
C1179 C1177 1.388 . S
C1179 C1180 1.366 . S
C1180 C1179 1.366 . S
C1180 C1181 1.414 . S
C1180 C1183 1.499 . S
C1181 H1155 0.950 . S
C1181 C1180 1.414 . S
C1181 C1182 1.374 . S
C1182 H1156 0.950 . S
C1182 C1178 1.385 . S
C1182 C1181 1.374 . S
C1183 C1180 1.499 . S
C1183 C1184 1.373 . S
C1183 C1185 1.389 . S
C1184 H1157 0.950 . S
C1184 C1170 1.377 . S
C1184 C1183 1.373 . S
C1185 C1169 1.377 . S
C1185 C1183 1.389 . S
C1185 C1186 1.524 . S
C1186 C1185 1.524 . S
C1186 C1187 1.397 . S
C1186 C1191 1.363 . S
C1187 H1158 0.950 . S
C1187 C1186 1.397 . S
C1187 C1188 1.334 . S
C1188 H1159 0.950 . S
C1188 C1187 1.334 . S
C1188 C1189 1.287 . S
C1189 C1188 1.287 . S
C1189 C1190 1.524 . S
C1189 H1192 0.999 . S
C1190 H1160 0.950 . S
C1190 C1189 1.524 . S
C1190 C1191 1.415 . S
C1191 H1161 0.950 . S
C1191 C1186 1.363 . S
C1191 C1190 1.415 . S
H1192 C1189 0.999 . S
H1193 C1174 0.913 . S
H1194 C1212 0.951 . S
H1195 C1214 0.951 . S
H1196 C1216 0.950 . S
H1197 C1217 0.950 . S
H1198 C1219 0.950 . S
H1199 C1222 0.950 . S
H1200 C1223 0.950 . S
H1201 C1225 0.950 . S
H1202 C1226 0.950 . S
H1203 C1227 0.951 . S
H1204 C1229 0.951 . S
H1205 C1231 0.950 . S
H1206 C1232 0.950 . S
H1207 C1234 0.950 . S
H1208 C1237 0.950 . S
H1209 C1238 0.950 . S
H1210 C1240 0.950 . S
H1211 C1241 0.950 . S
C1212 H1194 0.951 . S
C1212 C1213 1.366 . S
C1212 C1214 1.388 . S
C1213 C1212 1.366 . S
C1213 C1217 1.385 . S
C1214 H1195 0.951 . S
C1214 C1212 1.388 . S
C1214 C1215 1.366 . S
C1215 C1214 1.366 . S
C1215 C1216 1.414 . S
C1215 C1218 1.499 . S
C1216 H1196 0.950 . S
C1216 C1215 1.414 . S
C1216 C1217 1.374 . S
C1217 H1197 0.950 . S
C1217 C1213 1.385 . S
C1217 C1216 1.374 . S
C1218 C1215 1.499 . S
C1218 C1219 1.373 . S
C1218 C1220 1.389 . S
C1219 H1198 0.950 . S
C1219 C1218 1.373 . S
C1219 C1235 1.377 . S
C1220 C1218 1.389 . S
C1220 C1221 1.524 . S
C1220 C1234 1.377 . S
C1221 C1220 1.524 . S
C1221 C1222 1.397 . S
C1221 C1226 1.363 . S
C1222 H1199 0.950 . S
C1222 C1221 1.397 . S
C1222 C1223 1.334 . S
C1223 H1200 0.950 . S
C1223 C1222 1.334 . S
C1223 C1224 1.287 . S
C1224 C1223 1.287 . S
C1224 C1225 1.524 . S
C1224 H1243 0.913 . S
C1225 H1201 0.950 . S
C1225 C1224 1.524 . S
C1225 C1226 1.415 . S
C1226 H1202 0.950 . S
C1226 C1221 1.363 . S
C1226 C1225 1.415 . S
C1227 H1203 0.951 . S
C1227 C1228 1.366 . S
C1227 C1229 1.388 . S
C1228 C1227 1.366 . S
C1228 C1232 1.385 . S
C1229 H1204 0.951 . S
C1229 C1227 1.388 . S
C1229 C1230 1.366 . S
C1230 C1229 1.366 . S
C1230 C1231 1.414 . S
C1230 C1233 1.499 . S
C1231 H1205 0.950 . S
C1231 C1230 1.414 . S
C1231 C1232 1.374 . S
C1232 H1206 0.950 . S
C1232 C1228 1.385 . S
C1232 C1231 1.374 . S
C1233 C1230 1.499 . S
C1233 C1234 1.373 . S
C1233 C1235 1.389 . S
C1234 H1207 0.950 . S
C1234 C1220 1.377 . S
C1234 C1233 1.373 . S
C1235 C1219 1.377 . S
C1235 C1233 1.389 . S
C1235 C1236 1.524 . S
C1236 C1235 1.524 . S
C1236 C1237 1.397 . S
C1236 C1241 1.363 . S
C1237 H1208 0.950 . S
C1237 C1236 1.397 . S
C1237 C1238 1.334 . S
C1238 H1209 0.950 . S
C1238 C1237 1.334 . S
C1238 C1239 1.287 . S
C1239 C1238 1.287 . S
C1239 C1240 1.524 . S
C1239 H1242 0.999 . S
C1240 H1210 0.950 . S
C1240 C1239 1.524 . S
C1240 C1241 1.415 . S
C1241 H1211 0.950 . S
C1241 C1236 1.363 . S
C1241 C1240 1.415 . S
H1242 C1239 0.999 . S
H1243 C1224 0.913 . S
H1244 C1262 0.951 . S
H1245 C1264 0.951 . S
H1246 C1266 0.950 . S
H1247 C1267 0.950 . S
H1248 C1269 0.950 . S
H1249 C1272 0.950 . S
H1250 C1273 0.950 . S
H1251 C1275 0.950 . S
H1252 C1276 0.950 . S
H1253 C1277 0.951 . S
H1254 C1279 0.951 . S
H1255 C1281 0.950 . S
H1256 C1282 0.950 . S
H1257 C1284 0.950 . S
H1258 C1287 0.950 . S
H1259 C1288 0.950 . S
H1260 C1290 0.950 . S
H1261 C1291 0.950 . S
C1262 H1244 0.951 . S
C1262 C1263 1.366 . S
C1262 C1264 1.388 . S
C1263 C1262 1.366 . S
C1263 C1267 1.385 . S
C1264 H1245 0.951 . S
C1264 C1262 1.388 . S
C1264 C1265 1.366 . S
C1265 C1264 1.366 . S
C1265 C1266 1.414 . S
C1265 C1268 1.499 . S
C1266 H1246 0.950 . S
C1266 C1265 1.414 . S
C1266 C1267 1.374 . S
C1267 H1247 0.950 . S
C1267 C1263 1.385 . S
C1267 C1266 1.374 . S
C1268 C1265 1.499 . S
C1268 C1269 1.373 . S
C1268 C1270 1.389 . S
C1269 H1248 0.950 . S
C1269 C1268 1.373 . S
C1269 C1285 1.377 . S
C1270 C1268 1.389 . S
C1270 C1271 1.524 . S
C1270 C1284 1.377 . S
C1271 C1270 1.524 . S
C1271 C1272 1.397 . S
C1271 C1276 1.363 . S
C1272 H1249 0.950 . S
C1272 C1271 1.397 . S
C1272 C1273 1.334 . S
C1273 H1250 0.950 . S
C1273 C1272 1.334 . S
C1273 C1274 1.287 . S
C1274 C1273 1.287 . S
C1274 C1275 1.524 . S
C1274 H1293 0.913 . S
C1275 H1251 0.950 . S
C1275 C1274 1.524 . S
C1275 C1276 1.415 . S
C1276 H1252 0.950 . S
C1276 C1271 1.363 . S
C1276 C1275 1.415 . S
C1277 H1253 0.951 . S
C1277 C1278 1.366 . S
C1277 C1279 1.388 . S
C1278 C1277 1.366 . S
C1278 C1282 1.385 . S
C1279 H1254 0.951 . S
C1279 C1277 1.388 . S
C1279 C1280 1.366 . S
C1280 C1279 1.366 . S
C1280 C1281 1.414 . S
C1280 C1283 1.499 . S
C1281 H1255 0.950 . S
C1281 C1280 1.414 . S
C1281 C1282 1.374 . S
C1282 H1256 0.950 . S
C1282 C1278 1.385 . S
C1282 C1281 1.374 . S
C1283 C1280 1.499 . S
C1283 C1284 1.373 . S
C1283 C1285 1.389 . S
C1284 H1257 0.950 . S
C1284 C1270 1.377 . S
C1284 C1283 1.373 . S
C1285 C1269 1.377 . S
C1285 C1283 1.389 . S
C1285 C1286 1.524 . S
C1286 C1285 1.524 . S
C1286 C1287 1.397 . S
C1286 C1291 1.363 . S
C1287 H1258 0.950 . S
C1287 C1286 1.397 . S
C1287 C1288 1.334 . S
C1288 H1259 0.950 . S
C1288 C1287 1.334 . S
C1288 C1289 1.287 . S
C1289 C1288 1.287 . S
C1289 C1290 1.524 . S
C1289 H1292 0.999 . S
C1290 H1260 0.950 . S
C1290 C1289 1.524 . S
C1290 C1291 1.415 . S
C1291 H1261 0.950 . S
C1291 C1286 1.363 . S
C1291 C1290 1.415 . S
H1292 C1289 0.999 . S
H1293 C1274 0.913 . S
H1294 C1312 0.951 . S
H1295 C1314 0.951 . S
H1296 C1316 0.950 . S
H1297 C1317 0.950 . S
H1298 C1319 0.950 . S
H1299 C1322 0.950 . S
H1300 C1323 0.950 . S
H1301 C1325 0.950 . S
H1302 C1326 0.950 . S
H1303 C1327 0.951 . S
H1304 C1329 0.951 . S
H1305 C1331 0.950 . S
H1306 C1332 0.950 . S
H1307 C1334 0.950 . S
H1308 C1337 0.950 . S
H1309 C1338 0.950 . S
H1310 C1340 0.950 . S
H1311 C1341 0.950 . S
C1312 H1294 0.951 . S
C1312 C1313 1.366 . S
C1312 C1314 1.388 . S
C1313 C1312 1.366 . S
C1313 C1317 1.385 . S
C1314 H1295 0.951 . S
C1314 C1312 1.388 . S
C1314 C1315 1.366 . S
C1315 C1314 1.366 . S
C1315 C1316 1.414 . S
C1315 C1318 1.499 . S
C1316 H1296 0.950 . S
C1316 C1315 1.414 . S
C1316 C1317 1.374 . S
C1317 H1297 0.950 . S
C1317 C1313 1.385 . S
C1317 C1316 1.374 . S
C1318 C1315 1.499 . S
C1318 C1319 1.373 . S
C1318 C1320 1.389 . S
C1319 H1298 0.950 . S
C1319 C1318 1.373 . S
C1319 C1335 1.377 . S
C1320 C1318 1.389 . S
C1320 C1321 1.524 . S
C1320 C1334 1.377 . S
C1321 C1320 1.524 . S
C1321 C1322 1.397 . S
C1321 C1326 1.363 . S
C1322 H1299 0.950 . S
C1322 C1321 1.397 . S
C1322 C1323 1.334 . S
C1323 H1300 0.950 . S
C1323 C1322 1.334 . S
C1323 C1324 1.287 . S
C1324 C1323 1.287 . S
C1324 C1325 1.524 . S
C1324 H1343 0.913 . S
C1325 H1301 0.950 . S
C1325 C1324 1.524 . S
C1325 C1326 1.415 . S
C1326 H1302 0.950 . S
C1326 C1321 1.363 . S
C1326 C1325 1.415 . S
C1327 H1303 0.951 . S
C1327 C1328 1.366 . S
C1327 C1329 1.388 . S
C1328 C1327 1.366 . S
C1328 C1332 1.385 . S
C1329 H1304 0.951 . S
C1329 C1327 1.388 . S
C1329 C1330 1.366 . S
C1330 C1329 1.366 . S
C1330 C1331 1.414 . S
C1330 C1333 1.499 . S
C1331 H1305 0.950 . S
C1331 C1330 1.414 . S
C1331 C1332 1.374 . S
C1332 H1306 0.950 . S
C1332 C1328 1.385 . S
C1332 C1331 1.374 . S
C1333 C1330 1.499 . S
C1333 C1334 1.373 . S
C1333 C1335 1.389 . S
C1334 H1307 0.950 . S
C1334 C1320 1.377 . S
C1334 C1333 1.373 . S
C1335 C1319 1.377 . S
C1335 C1333 1.389 . S
C1335 C1336 1.524 . S
C1336 C1335 1.524 . S
C1336 C1337 1.397 . S
C1336 C1341 1.363 . S
C1337 H1308 0.950 . S
C1337 C1336 1.397 . S
C1337 C1338 1.334 . S
C1338 H1309 0.950 . S
C1338 C1337 1.334 . S
C1338 C1339 1.287 . S
C1339 C1338 1.287 . S
C1339 C1340 1.524 . S
C1339 H1342 0.999 . S
C1340 H1310 0.950 . S
C1340 C1339 1.524 . S
C1340 C1341 1.415 . S
C1341 H1311 0.950 . S
C1341 C1336 1.363 . S
C1341 C1340 1.415 . S
H1342 C1339 0.999 . S
H1343 C1324 0.913 . S
H1344 C1362 0.951 . S
H1345 C1364 0.951 . S
H1346 C1366 0.950 . S
H1347 C1367 0.950 . S
H1348 C1369 0.951 . S
H1349 C1372 0.950 1_554 S
H1350 C1373 0.950 . S
H1351 C1375 0.950 . S
H1352 C1376 0.950 . S
H1353 C1377 0.951 . S
H1354 C1379 0.951 . S
H1355 C1381 0.950 . S
H1356 C1382 0.950 . S
H1357 C1384 0.951 . S
H1358 C1387 0.950 . S
H1359 C1388 0.950 . S
H1360 C1390 0.950 . S
H1361 C1391 0.950 . S
C1362 H1344 0.951 . S
C1362 C1363 1.366 1_556 S
C1362 C1364 1.388 . S
C1363 C1362 1.366 1_554 S
C1363 C1367 1.385 . S
C1364 H1345 0.951 . S
C1364 C1362 1.388 . S
C1364 C1365 1.366 1_556 S
C1365 C1364 1.366 1_554 S
C1365 C1366 1.414 . S
C1365 C1368 1.499 . S
C1366 H1346 0.950 . S
C1366 C1365 1.414 . S
C1366 C1367 1.374 . S
C1367 H1347 0.950 . S
C1367 C1363 1.385 . S
C1367 C1366 1.374 . S
C1368 C1365 1.499 . S
C1368 C1369 1.362 1_455 S
C1368 C1370 1.389 1_554 S
C1369 H1348 0.951 . S
C1369 C1368 1.362 1_655 S
C1369 C1385 1.387 . S
C1370 C1368 1.389 1_556 S
C1370 C1371 1.524 . S
C1370 C1384 1.387 . S
C1371 C1370 1.524 . S
C1371 C1372 1.397 . S
C1371 C1376 1.363 . S
C1372 H1349 0.950 1_556 S
C1372 C1371 1.397 . S
C1372 C1373 1.334 . S
C1373 H1350 0.950 . S
C1373 C1372 1.334 . S
C1373 C1374 1.287 . S
C1374 C1373 1.287 . S
C1374 C1375 1.524 . S
C1374 H1393 0.913 . S
C1375 H1351 0.950 . S
C1375 C1374 1.524 . S
C1375 C1376 1.415 . S
C1376 H1352 0.950 . S
C1376 C1371 1.363 . S
C1376 C1375 1.415 . S
C1377 H1353 0.951 . S
C1377 C1378 1.366 . S
C1377 C1379 1.388 . S
C1378 C1377 1.366 . S
C1378 C1382 1.385 1_554 S
C1379 H1354 0.951 . S
C1379 C1377 1.388 . S
C1379 C1380 1.366 . S
C1380 C1379 1.366 . S
C1380 C1381 1.414 1_554 S
C1380 C1383 1.499 . S
C1381 H1355 0.950 . S
C1381 C1380 1.414 1_556 S
C1381 C1382 1.374 . S
C1382 H1356 0.950 . S
C1382 C1378 1.385 1_556 S
C1382 C1381 1.374 . S
C1383 C1380 1.499 . S
C1383 C1384 1.362 1_654 S
C1383 C1385 1.389 . S
C1384 H1357 0.951 . S
C1384 C1370 1.387 . S
C1384 C1383 1.362 1_456 S
C1385 C1369 1.387 . S
C1385 C1383 1.389 . S
C1385 C1386 1.524 . S
C1386 C1385 1.524 . S
C1386 C1387 1.397 . S
C1386 C1391 1.363 . S
C1387 H1358 0.950 . S
C1387 C1386 1.397 . S
C1387 C1388 1.334 . S
C1388 H1359 0.950 . S
C1388 C1387 1.334 . S
C1388 C1389 1.287 . S
C1389 C1388 1.287 . S
C1389 C1390 1.524 . S
C1389 H1392 0.999 . S
C1390 H1360 0.950 . S
C1390 C1389 1.524 . S
C1390 C1391 1.415 . S
C1391 H1361 0.950 . S
C1391 C1386 1.363 . S
C1391 C1390 1.415 . S
H1392 C1389 0.999 . S
H1393 C1374 0.913 . S
H1394 C1412 0.951 . S
H1395 C1414 0.951 . S
H1396 C1416 0.950 . S
H1397 C1417 0.950 . S
H1398 C1419 0.950 . S
H1399 C1422 0.950 . S
H1400 C1423 0.950 . S
H1401 C1425 0.950 . S
H1402 C1426 0.950 . S
H1403 C1427 0.951 . S
H1404 C1429 0.951 . S
H1405 C1431 0.950 . S
H1406 C1432 0.950 . S
H1407 C1434 0.950 . S
H1408 C1437 0.950 . S
H1409 C1438 0.950 . S
H1410 C1440 0.950 . S
H1411 C1441 0.950 . S
C1412 H1394 0.951 . S
C1412 C1413 1.366 . S
C1412 C1414 1.388 . S
C1413 C1412 1.366 . S
C1413 C1417 1.385 . S
C1414 H1395 0.951 . S
C1414 C1412 1.388 . S
C1414 C1415 1.366 . S
C1415 C1414 1.366 . S
C1415 C1416 1.414 . S
C1415 C1418 1.499 . S
C1416 H1396 0.950 . S
C1416 C1415 1.414 . S
C1416 C1417 1.374 . S
C1417 H1397 0.950 . S
C1417 C1413 1.385 . S
C1417 C1416 1.374 . S
C1418 C1415 1.499 . S
C1418 C1419 1.373 . S
C1418 C1420 1.389 . S
C1419 H1398 0.950 . S
C1419 C1418 1.373 . S
C1419 C1435 1.377 . S
C1420 C1418 1.389 . S
C1420 C1421 1.524 . S
C1420 C1434 1.377 . S
C1421 C1420 1.524 . S
C1421 C1422 1.397 . S
C1421 C1426 1.363 . S
C1422 H1399 0.950 . S
C1422 C1421 1.397 . S
C1422 C1423 1.334 . S
C1423 H1400 0.950 . S
C1423 C1422 1.334 . S
C1423 C1424 1.287 . S
C1424 C1423 1.287 . S
C1424 C1425 1.524 . S
C1424 H1443 0.913 . S
C1425 H1401 0.950 . S
C1425 C1424 1.524 . S
C1425 C1426 1.415 . S
C1426 H1402 0.950 . S
C1426 C1421 1.363 . S
C1426 C1425 1.415 . S
C1427 H1403 0.951 . S
C1427 C1428 1.366 . S
C1427 C1429 1.388 . S
C1428 C1427 1.366 . S
C1428 C1432 1.385 . S
C1429 H1404 0.951 . S
C1429 C1427 1.388 . S
C1429 C1430 1.366 . S
C1430 C1429 1.366 . S
C1430 C1431 1.414 . S
C1430 C1433 1.499 . S
C1431 H1405 0.950 . S
C1431 C1430 1.414 . S
C1431 C1432 1.374 . S
C1432 H1406 0.950 . S
C1432 C1428 1.385 . S
C1432 C1431 1.374 . S
C1433 C1430 1.499 . S
C1433 C1434 1.373 . S
C1433 C1435 1.389 . S
C1434 H1407 0.950 . S
C1434 C1420 1.377 . S
C1434 C1433 1.373 . S
C1435 C1419 1.377 . S
C1435 C1433 1.389 . S
C1435 C1436 1.524 . S
C1436 C1435 1.524 . S
C1436 C1437 1.397 . S
C1436 C1441 1.363 . S
C1437 H1408 0.950 . S
C1437 C1436 1.397 . S
C1437 C1438 1.334 . S
C1438 H1409 0.950 . S
C1438 C1437 1.334 . S
C1438 C1439 1.287 . S
C1439 C1438 1.287 . S
C1439 C1440 1.524 . S
C1439 H1442 0.999 . S
C1440 H1410 0.950 . S
C1440 C1439 1.524 . S
C1440 C1441 1.415 . S
C1441 H1411 0.950 . S
C1441 C1436 1.363 . S
C1441 C1440 1.415 . S
H1442 C1439 0.999 . S
H1443 C1424 0.913 . S
H1444 C1462 0.951 . S
H1445 C1464 0.951 . S
H1446 C1466 0.950 . S
H1447 C1467 0.950 . S
H1448 C1469 0.950 1_545 S
H1449 C1472 0.950 . S
H1450 C1473 0.950 . S
H1451 C1475 0.950 . S
H1452 C1476 0.950 . S
H1453 C1477 0.951 . S
H1454 C1479 0.951 . S
H1455 C1481 0.950 . S
H1456 C1482 0.950 . S
H1457 C1484 0.950 1_565 S
H1458 C1487 0.950 . S
H1459 C1488 0.950 . S
H1460 C1490 0.950 . S
H1461 C1491 0.950 . S
C1462 H1444 0.951 . S
C1462 C1463 1.366 . S
C1462 C1464 1.388 . S
C1463 C1462 1.366 . S
C1463 C1467 1.385 . S
C1464 H1445 0.951 . S
C1464 C1462 1.388 . S
C1464 C1465 1.366 . S
C1465 C1464 1.366 . S
C1465 C1466 1.414 . S
C1465 C1468 1.499 . S
C1466 H1446 0.950 . S
C1466 C1465 1.414 . S
C1466 C1467 1.374 . S
C1467 H1447 0.950 . S
C1467 C1463 1.385 . S
C1467 C1466 1.374 . S
C1468 C1465 1.499 . S
C1468 C1469 1.377 . S
C1468 C1470 1.389 . S
C1469 H1448 0.950 1_565 S
C1469 C1468 1.377 . S
C1469 C1485 1.373 1_565 S
C1470 C1468 1.389 . S
C1470 C1471 1.524 . S
C1470 C1484 1.373 1_565 S
C1471 C1470 1.524 . S
C1471 C1472 1.397 . S
C1471 C1476 1.363 . S
C1472 H1449 0.950 . S
C1472 C1471 1.397 . S
C1472 C1473 1.334 . S
C1473 H1450 0.950 . S
C1473 C1472 1.334 . S
C1473 C1474 1.287 . S
C1474 C1473 1.287 . S
C1474 C1475 1.524 . S
C1474 H1493 0.913 . S
C1475 H1451 0.950 . S
C1475 C1474 1.524 . S
C1475 C1476 1.415 . S
C1476 H1452 0.950 . S
C1476 C1471 1.363 . S
C1476 C1475 1.415 . S
C1477 H1453 0.951 . S
C1477 C1478 1.366 . S
C1477 C1479 1.388 . S
C1478 C1477 1.366 . S
C1478 C1482 1.385 . S
C1479 H1454 0.951 . S
C1479 C1477 1.388 . S
C1479 C1480 1.366 . S
C1480 C1479 1.366 . S
C1480 C1481 1.414 . S
C1480 C1483 1.499 . S
C1481 H1455 0.950 . S
C1481 C1480 1.414 . S
C1481 C1482 1.374 . S
C1482 H1456 0.950 . S
C1482 C1478 1.385 . S
C1482 C1481 1.374 . S
C1483 C1480 1.499 . S
C1483 C1484 1.377 . S
C1483 C1485 1.389 . S
C1484 H1457 0.950 1_545 S
C1484 C1470 1.373 1_545 S
C1484 C1483 1.377 . S
C1485 C1469 1.373 1_545 S
C1485 C1483 1.389 . S
C1485 C1486 1.524 . S
C1486 C1485 1.524 . S
C1486 C1487 1.397 . S
C1486 C1491 1.363 . S
C1487 H1458 0.950 . S
C1487 C1486 1.397 . S
C1487 C1488 1.334 . S
C1488 H1459 0.950 . S
C1488 C1487 1.334 . S
C1488 C1489 1.287 . S
C1489 C1488 1.287 . S
C1489 C1490 1.524 . S
C1489 H1492 0.999 . S
C1490 H1460 0.950 . S
C1490 C1489 1.524 . S
C1490 C1491 1.415 . S
C1491 H1461 0.950 . S
C1491 C1486 1.363 . S
C1491 C1490 1.415 . S
H1492 C1489 0.999 . S
H1493 C1474 0.913 . S
H1494 C1512 0.951 . S
H1495 C1514 0.951 . S
H1496 C1516 0.950 . S
H1497 C1517 0.950 . S
H1498 C1519 0.950 . S
H1499 C1522 0.950 . S
H1500 C1523 0.950 . S
H1501 C1525 0.950 . S
H1502 C1526 0.950 . S
H1503 C1527 0.951 . S
H1504 C1529 0.951 . S
H1505 C1531 0.950 . S
H1506 C1532 0.950 . S
H1507 C1534 0.950 . S
H1508 C1537 0.950 . S
H1509 C1538 0.950 . S
H1510 C1540 0.950 . S
H1511 C1541 0.950 . S
C1512 H1494 0.951 . S
C1512 C1513 1.366 . S
C1512 C1514 1.388 . S
C1513 C1512 1.366 . S
C1513 C1517 1.385 . S
C1514 H1495 0.951 . S
C1514 C1512 1.388 . S
C1514 C1515 1.366 . S
C1515 C1514 1.366 . S
C1515 C1516 1.414 . S
C1515 C1518 1.499 . S
C1516 H1496 0.950 . S
C1516 C1515 1.414 . S
C1516 C1517 1.374 . S
C1517 H1497 0.950 . S
C1517 C1513 1.385 . S
C1517 C1516 1.374 . S
C1518 C1515 1.499 . S
C1518 C1519 1.373 1_545 S
C1518 C1520 1.389 1_455 S
C1519 H1498 0.950 . S
C1519 C1518 1.373 1_565 S
C1519 C1535 1.377 . S
C1520 C1518 1.389 1_655 S
C1520 C1521 1.524 . S
C1520 C1534 1.377 . S
C1521 C1520 1.524 . S
C1521 C1522 1.397 1_655 S
C1521 C1526 1.363 . S
C1522 H1499 0.950 . S
C1522 C1521 1.397 1_455 S
C1522 C1523 1.334 . S
C1523 H1500 0.950 . S
C1523 C1522 1.334 . S
C1523 C1524 1.287 1_455 S
C1524 C1523 1.287 1_655 S
C1524 C1525 1.524 . S
C1524 H1543 0.913 . S
C1525 H1501 0.950 . S
C1525 C1524 1.524 . S
C1525 C1526 1.415 . S
C1526 H1502 0.950 . S
C1526 C1521 1.363 . S
C1526 C1525 1.415 . S
C1527 H1503 0.951 . S
C1527 C1528 1.366 . S
C1527 C1529 1.388 . S
C1528 C1527 1.366 . S
C1528 C1532 1.385 . S
C1529 H1504 0.951 . S
C1529 C1527 1.388 . S
C1529 C1530 1.366 . S
C1530 C1529 1.366 . S
C1530 C1531 1.414 . S
C1530 C1533 1.499 . S
C1531 H1505 0.950 . S
C1531 C1530 1.414 . S
C1531 C1532 1.374 . S
C1532 H1506 0.950 . S
C1532 C1528 1.385 . S
C1532 C1531 1.374 . S
C1533 C1530 1.499 . S
C1533 C1534 1.373 1_565 S
C1533 C1535 1.389 1_655 S
C1534 H1507 0.950 . S
C1534 C1520 1.377 . S
C1534 C1533 1.373 1_545 S
C1535 C1519 1.377 . S
C1535 C1533 1.389 1_455 S
C1535 C1536 1.524 . S
C1536 C1535 1.524 . S
C1536 C1537 1.397 1_455 S
C1536 C1541 1.363 . S
C1537 H1508 0.950 . S
C1537 C1536 1.397 1_655 S
C1537 C1538 1.334 . S
C1538 H1509 0.950 . S
C1538 C1537 1.334 . S
C1538 C1539 1.287 1_655 S
C1539 C1538 1.287 1_455 S
C1539 C1540 1.524 . S
C1539 H1542 0.999 . S
C1540 H1510 0.950 . S
C1540 C1539 1.524 . S
C1540 C1541 1.415 . S
C1541 H1511 0.950 . S
C1541 C1536 1.363 . S
C1541 C1540 1.415 . S
H1542 C1539 0.999 . S
H1543 C1524 0.913 . S
H1544 C1562 0.951 . S
H1545 C1564 0.951 . S
H1546 C1566 0.950 . S
H1547 C1567 0.950 . S
H1548 C1569 0.950 . S
H1549 C1572 0.950 . S
H1550 C1573 0.950 . S
H1551 C1575 0.950 . S
H1552 C1576 0.950 . S
H1553 C1577 0.951 . S
H1554 C1579 0.951 . S
H1555 C1581 0.950 . S
H1556 C1582 0.950 . S
H1557 C1584 0.950 . S
H1558 C1587 0.950 . S
H1559 C1588 0.950 . S
H1560 C1590 0.950 . S
H1561 C1591 0.950 . S
C1562 H1544 0.951 . S
C1562 C1563 1.366 . S
C1562 C1564 1.388 . S
C1563 C1562 1.366 . S
C1563 C1567 1.385 . S
C1564 H1545 0.951 . S
C1564 C1562 1.388 . S
C1564 C1565 1.366 . S
C1565 C1564 1.366 . S
C1565 C1566 1.414 . S
C1565 C1568 1.499 . S
C1566 H1546 0.950 . S
C1566 C1565 1.414 . S
C1566 C1567 1.374 . S
C1567 H1547 0.950 . S
C1567 C1563 1.385 . S
C1567 C1566 1.374 . S
C1568 C1565 1.499 . S
C1568 C1569 1.373 1_655 S
C1568 C1570 1.389 . S
C1569 H1548 0.950 . S
C1569 C1568 1.373 1_455 S
C1569 C1585 1.377 . S
C1570 C1568 1.389 . S
C1570 C1571 1.524 . S
C1570 C1584 1.377 . S
C1571 C1570 1.524 . S
C1571 C1572 1.397 . S
C1571 C1576 1.363 . S
C1572 H1549 0.950 . S
C1572 C1571 1.397 . S
C1572 C1573 1.334 . S
C1573 H1550 0.950 . S
C1573 C1572 1.334 . S
C1573 C1574 1.287 . S
C1574 C1573 1.287 . S
C1574 C1575 1.524 . S
C1574 H1593 0.913 . S
C1575 H1551 0.950 . S
C1575 C1574 1.524 . S
C1575 C1576 1.415 . S
C1576 H1552 0.950 . S
C1576 C1571 1.363 . S
C1576 C1575 1.415 . S
C1577 H1553 0.951 . S
C1577 C1578 1.366 . S
C1577 C1579 1.388 . S
C1578 C1577 1.366 . S
C1578 C1582 1.385 . S
C1579 H1554 0.951 . S
C1579 C1577 1.388 . S
C1579 C1580 1.366 . S
C1580 C1579 1.366 . S
C1580 C1581 1.414 . S
C1580 C1583 1.499 . S
C1581 H1555 0.950 . S
C1581 C1580 1.414 . S
C1581 C1582 1.374 . S
C1582 H1556 0.950 . S
C1582 C1578 1.385 . S
C1582 C1581 1.374 . S
C1583 C1580 1.499 . S
C1583 C1584 1.373 1_455 S
C1583 C1585 1.389 . S
C1584 H1557 0.950 . S
C1584 C1570 1.377 . S
C1584 C1583 1.373 1_655 S
C1585 C1569 1.377 . S
C1585 C1583 1.389 . S
C1585 C1586 1.524 . S
C1586 C1585 1.524 . S
C1586 C1587 1.397 . S
C1586 C1591 1.363 . S
C1587 H1558 0.950 . S
C1587 C1586 1.397 . S
C1587 C1588 1.334 . S
C1588 H1559 0.950 . S
C1588 C1587 1.334 . S
C1588 C1589 1.287 . S
C1589 C1588 1.287 . S
C1589 C1590 1.524 . S
C1589 H1592 0.999 . S
C1590 H1560 0.950 . S
C1590 C1589 1.524 . S
C1590 C1591 1.415 . S
C1591 H1561 0.950 . S
C1591 C1586 1.363 . S
C1591 C1590 1.415 . S
H1592 C1589 0.999 . S
H1593 C1574 0.913 . S
H1594 C1612 0.951 . S
H1595 C1614 0.951 . S
H1596 C1616 0.950 . S
H1597 C1617 0.950 . S
H1598 C1619 0.950 . S
H1599 C1622 0.950 . S
H1600 C1623 0.950 . S
H1601 C1625 0.950 . S
H1602 C1626 0.950 . S
H1603 C1627 0.951 . S
H1604 C1629 0.951 . S
H1605 C1631 0.950 . S
H1606 C1632 0.950 . S
H1607 C1634 0.950 . S
H1608 C1637 0.950 . S
H1609 C1638 0.950 . S
H1610 C1640 0.950 . S
H1611 C1641 0.950 . S
C1612 H1594 0.951 . S
C1612 C1613 1.366 . S
C1612 C1614 1.388 . S
C1613 C1612 1.366 . S
C1613 C1617 1.385 . S
C1614 H1595 0.951 . S
C1614 C1612 1.388 . S
C1614 C1615 1.366 . S
C1615 C1614 1.366 . S
C1615 C1616 1.414 . S
C1615 C1618 1.499 . S
C1616 H1596 0.950 . S
C1616 C1615 1.414 . S
C1616 C1617 1.374 . S
C1617 H1597 0.950 . S
C1617 C1613 1.385 . S
C1617 C1616 1.374 . S
C1618 C1615 1.499 . S
C1618 C1619 1.373 . S
C1618 C1620 1.389 . S
C1619 H1598 0.950 . S
C1619 C1618 1.373 . S
C1619 C1635 1.377 . S
C1620 C1618 1.389 . S
C1620 C1621 1.524 . S
C1620 C1634 1.377 . S
C1621 C1620 1.524 . S
C1621 C1622 1.397 . S
C1621 C1626 1.363 . S
C1622 H1599 0.950 . S
C1622 C1621 1.397 . S
C1622 C1623 1.334 . S
C1623 H1600 0.950 . S
C1623 C1622 1.334 . S
C1623 C1624 1.287 . S
C1624 C1623 1.287 . S
C1624 C1625 1.524 . S
C1624 H1643 0.913 . S
C1625 H1601 0.950 . S
C1625 C1624 1.524 . S
C1625 C1626 1.415 . S
C1626 H1602 0.950 . S
C1626 C1621 1.363 . S
C1626 C1625 1.415 . S
C1627 H1603 0.951 . S
C1627 C1628 1.366 . S
C1627 C1629 1.388 . S
C1628 C1627 1.366 . S
C1628 C1632 1.385 . S
C1629 H1604 0.951 . S
C1629 C1627 1.388 . S
C1629 C1630 1.366 . S
C1630 C1629 1.366 . S
C1630 C1631 1.414 . S
C1630 C1633 1.499 . S
C1631 H1605 0.950 . S
C1631 C1630 1.414 . S
C1631 C1632 1.374 . S
C1632 H1606 0.950 . S
C1632 C1628 1.385 . S
C1632 C1631 1.374 . S
C1633 C1630 1.499 . S
C1633 C1634 1.373 . S
C1633 C1635 1.389 . S
C1634 H1607 0.950 . S
C1634 C1620 1.377 . S
C1634 C1633 1.373 . S
C1635 C1619 1.377 . S
C1635 C1633 1.389 . S
C1635 C1636 1.524 . S
C1636 C1635 1.524 . S
C1636 C1637 1.397 . S
C1636 C1641 1.363 . S
C1637 H1608 0.950 . S
C1637 C1636 1.397 . S
C1637 C1638 1.334 . S
C1638 H1609 0.950 . S
C1638 C1637 1.334 . S
C1638 C1639 1.287 . S
C1639 C1638 1.287 . S
C1639 C1640 1.524 . S
C1639 H1642 0.999 . S
C1640 H1610 0.950 . S
C1640 C1639 1.524 . S
C1640 C1641 1.415 . S
C1641 H1611 0.950 . S
C1641 C1636 1.363 . S
C1641 C1640 1.415 . S
H1642 C1639 0.999 . S
H1643 C1624 0.913 . S
H1644 C1662 0.951 . S
H1645 C1664 0.951 . S
H1646 C1666 0.950 . S
H1647 C1667 0.950 . S
H1648 C1669 0.950 . S
H1649 C1672 0.950 . S
H1650 C1673 0.950 . S
H1651 C1675 0.950 . S
H1652 C1676 0.950 . S
H1653 C1677 0.951 . S
H1654 C1679 0.951 . S
H1655 C1681 0.950 . S
H1656 C1682 0.950 . S
H1657 C1684 0.950 . S
H1658 C1687 0.950 . S
H1659 C1688 0.950 . S
H1660 C1690 0.950 . S
H1661 C1691 0.950 . S
C1662 H1644 0.951 . S
C1662 C1663 1.366 . S
C1662 C1664 1.388 . S
C1663 C1662 1.366 . S
C1663 C1667 1.385 1_554 S
C1664 H1645 0.951 . S
C1664 C1662 1.388 . S
C1664 C1665 1.366 . S
C1665 C1664 1.366 . S
C1665 C1666 1.414 1_554 S
C1665 C1668 1.499 . S
C1666 H1646 0.950 . S
C1666 C1665 1.414 1_556 S
C1666 C1667 1.374 . S
C1667 H1647 0.950 . S
C1667 C1663 1.385 1_556 S
C1667 C1666 1.374 . S
C1668 C1665 1.499 . S
C1668 C1669 1.373 1_554 S
C1668 C1670 1.389 . S
C1669 H1648 0.950 . S
C1669 C1668 1.373 1_556 S
C1669 C1685 1.377 1_545 S
C1670 C1668 1.389 . S
C1670 C1671 1.524 . S
C1670 C1684 1.377 1_545 S
C1671 C1670 1.524 . S
C1671 C1672 1.397 . S
C1671 C1676 1.363 . S
C1672 H1649 0.950 . S
C1672 C1671 1.397 . S
C1672 C1673 1.334 . S
C1673 H1650 0.950 . S
C1673 C1672 1.334 . S
C1673 C1674 1.287 . S
C1674 C1673 1.287 . S
C1674 C1675 1.524 . S
C1674 H1693 0.913 . S
C1675 H1651 0.950 . S
C1675 C1674 1.524 . S
C1675 C1676 1.415 . S
C1676 H1652 0.950 . S
C1676 C1671 1.363 . S
C1676 C1675 1.415 . S
C1677 H1653 0.951 . S
C1677 C1678 1.366 1_556 S
C1677 C1679 1.388 . S
C1678 C1677 1.366 1_554 S
C1678 C1682 1.385 . S
C1679 H1654 0.951 . S
C1679 C1677 1.388 . S
C1679 C1680 1.366 1_556 S
C1680 C1679 1.366 1_554 S
C1680 C1681 1.414 . S
C1680 C1683 1.499 . S
C1681 H1655 0.950 . S
C1681 C1680 1.414 . S
C1681 C1682 1.374 . S
C1682 H1656 0.950 . S
C1682 C1678 1.385 . S
C1682 C1681 1.374 . S
C1683 C1680 1.499 . S
C1683 C1684 1.373 . S
C1683 C1685 1.389 1_554 S
C1684 H1657 0.950 . S
C1684 C1670 1.377 1_565 S
C1684 C1683 1.373 . S
C1685 C1669 1.377 1_565 S
C1685 C1683 1.389 1_556 S
C1685 C1686 1.524 . S
C1686 C1685 1.524 . S
C1686 C1687 1.397 . S
C1686 C1691 1.363 . S
C1687 H1658 0.950 . S
C1687 C1686 1.397 . S
C1687 C1688 1.334 . S
C1688 H1659 0.950 . S
C1688 C1687 1.334 . S
C1688 C1689 1.287 . S
C1689 C1688 1.287 . S
C1689 C1690 1.524 . S
C1689 H1692 0.999 . S
C1690 H1660 0.950 . S
C1690 C1689 1.524 . S
C1690 C1691 1.415 . S
C1691 H1661 0.950 . S
C1691 C1686 1.363 . S
C1691 C1690 1.415 . S
H1692 C1689 0.999 . S
H1693 C1674 0.913 . S
H1694 C1712 0.951 . S
H1695 C1714 0.951 . S
H1696 C1716 0.950 . S
H1697 C1717 0.950 . S
H1698 C1719 0.950 . S
H1699 C1722 0.950 . S
H1700 C1723 0.950 . S
H1701 C1725 0.950 . S
H1702 C1726 0.950 . S
H1703 C1727 0.951 . S
H1704 C1729 0.951 . S
H1705 C1731 0.950 . S
H1706 C1732 0.950 . S
H1707 C1734 0.950 . S
H1708 C1737 0.950 . S
H1709 C1738 0.950 . S
H1710 C1740 0.950 . S
H1711 C1741 0.950 . S
C1712 H1694 0.951 . S
C1712 C1713 1.366 . S
C1712 C1714 1.388 . S
C1713 C1712 1.366 . S
C1713 C1717 1.385 . S
C1714 H1695 0.951 . S
C1714 C1712 1.388 . S
C1714 C1715 1.366 . S
C1715 C1714 1.366 . S
C1715 C1716 1.414 . S
C1715 C1718 1.499 . S
C1716 H1696 0.950 . S
C1716 C1715 1.414 . S
C1716 C1717 1.374 . S
C1717 H1697 0.950 . S
C1717 C1713 1.385 . S
C1717 C1716 1.374 . S
C1718 C1715 1.499 . S
C1718 C1719 1.373 1_565 S
C1718 C1720 1.389 . S
C1719 H1698 0.950 . S
C1719 C1718 1.373 1_545 S
C1719 C1735 1.377 1_455 S
C1720 C1718 1.389 . S
C1720 C1721 1.524 . S
C1720 C1734 1.377 1_455 S
C1721 C1720 1.524 . S
C1721 C1722 1.397 . S
C1721 C1726 1.363 1_455 S
C1722 H1699 0.950 . S
C1722 C1721 1.397 . S
C1722 C1723 1.334 . S
C1723 H1700 0.950 . S
C1723 C1722 1.334 . S
C1723 C1724 1.287 . S
C1724 C1723 1.287 . S
C1724 C1725 1.524 1_455 S
C1724 H1743 0.913 . S
C1725 H1701 0.950 . S
C1725 C1724 1.524 1_655 S
C1725 C1726 1.415 . S
C1726 H1702 0.950 . S
C1726 C1721 1.363 1_655 S
C1726 C1725 1.415 . S
C1727 H1703 0.951 . S
C1727 C1728 1.366 . S
C1727 C1729 1.388 . S
C1728 C1727 1.366 . S
C1728 C1732 1.385 . S
C1729 H1704 0.951 . S
C1729 C1727 1.388 . S
C1729 C1730 1.366 . S
C1730 C1729 1.366 . S
C1730 C1731 1.414 . S
C1730 C1733 1.499 . S
C1731 H1705 0.950 . S
C1731 C1730 1.414 . S
C1731 C1732 1.374 . S
C1732 H1706 0.950 . S
C1732 C1728 1.385 . S
C1732 C1731 1.374 . S
C1733 C1730 1.499 . S
C1733 C1734 1.373 1_545 S
C1733 C1735 1.389 . S
C1734 H1707 0.950 . S
C1734 C1720 1.377 1_655 S
C1734 C1733 1.373 1_565 S
C1735 C1719 1.377 1_655 S
C1735 C1733 1.389 . S
C1735 C1736 1.524 . S
C1736 C1735 1.524 . S
C1736 C1737 1.397 . S
C1736 C1741 1.363 1_655 S
C1737 H1708 0.950 . S
C1737 C1736 1.397 . S
C1737 C1738 1.334 . S
C1738 H1709 0.950 . S
C1738 C1737 1.334 . S
C1738 C1739 1.287 . S
C1739 C1738 1.287 . S
C1739 C1740 1.524 1_655 S
C1739 H1742 0.999 . S
C1740 H1710 0.950 . S
C1740 C1739 1.524 1_455 S
C1740 C1741 1.415 . S
C1741 H1711 0.950 . S
C1741 C1736 1.363 1_455 S
C1741 C1740 1.415 . S
H1742 C1739 0.999 . S
H1743 C1724 0.913 . S
H1744 C1762 0.951 1_556 S
H1745 C1764 0.951 1_556 S
H1746 C1766 0.950 . S
H1747 C1767 0.950 . S
H1748 C1769 0.950 . S
H1749 C1772 0.950 . S
H1750 C1773 0.950 . S
H1751 C1775 0.950 . S
H1752 C1776 0.950 . S
H1753 C1777 0.951 . S
H1754 C1779 0.951 . S
H1755 C1781 0.946 . S
H1756 C1782 0.955 . S
H1757 C1784 0.950 . S
H1758 C1787 0.950 1_556 S
H1759 C1788 0.950 1_556 S
H1760 C1790 0.950 . S
H1761 C1791 0.950 . S
C1762 H1744 0.951 1_554 S
C1762 C1763 1.366 . S
C1762 C1764 1.388 . S
C1763 C1762 1.366 . S
C1763 C1767 1.385 . S
C1764 H1745 0.951 1_554 S
C1764 C1762 1.388 . S
C1764 C1765 1.366 . S
C1765 C1764 1.366 . S
C1765 C1766 1.414 . S
C1765 C1768 1.499 . S
C1766 H1746 0.950 . S
C1766 C1765 1.414 . S
C1766 C1767 1.374 . S
C1767 H1747 0.950 . S
C1767 C1763 1.385 . S
C1767 C1766 1.374 . S
C1768 C1765 1.499 . S
C1768 C1769 1.373 . S
C1768 C1770 1.389 . S
C1769 H1748 0.950 . S
C1769 C1768 1.373 . S
C1769 C1785 1.377 . S
C1770 C1768 1.389 . S
C1770 C1771 1.524 . S
C1770 C1784 1.377 . S
C1771 C1770 1.524 . S
C1771 C1772 1.397 . S
C1771 C1776 1.363 1_554 S
C1772 H1749 0.950 . S
C1772 C1771 1.397 . S
C1772 C1773 1.334 . S
C1773 H1750 0.950 . S
C1773 C1772 1.334 . S
C1773 C1774 1.287 . S
C1774 C1773 1.287 . S
C1774 C1775 1.524 1_554 S
C1774 H1793 0.913 . S
C1775 H1751 0.950 . S
C1775 C1774 1.524 1_556 S
C1775 C1776 1.415 . S
C1776 H1752 0.950 . S
C1776 C1771 1.363 1_556 S
C1776 C1775 1.415 . S
C1777 H1753 0.951 . S
C1777 C1778 1.366 . S
C1777 C1779 1.388 . S
C1778 C1777 1.366 . S
C1778 C1782 1.380 1_554 S
C1779 H1754 0.951 . S
C1779 C1777 1.388 . S
C1779 C1780 1.366 . S
C1780 C1779 1.366 . S
C1780 C1781 1.419 1_554 S
C1780 C1783 1.499 . S
C1781 H1755 0.946 . S
C1781 C1780 1.419 1_556 S
C1781 C1782 1.374 . S
C1782 H1756 0.955 . S
C1782 C1778 1.380 1_556 S
C1782 C1781 1.374 . S
C1783 C1780 1.499 . S
C1783 C1784 1.373 . S
C1783 C1785 1.389 . S
C1784 H1757 0.950 . S
C1784 C1770 1.377 . S
C1784 C1783 1.373 . S
C1785 C1769 1.377 . S
C1785 C1783 1.389 . S
C1785 C1786 1.524 . S
C1786 C1785 1.524 . S
C1786 C1787 1.397 . S
C1786 C1791 1.363 . S
C1787 H1758 0.950 1_554 S
C1787 C1786 1.397 . S
C1787 C1788 1.334 . S
C1788 H1759 0.950 1_554 S
C1788 C1787 1.334 . S
C1788 C1789 1.287 . S
C1789 C1788 1.287 . S
C1789 C1790 1.524 . S
C1789 H1792 0.999 . S
C1790 H1760 0.950 . S
C1790 C1789 1.524 . S
C1790 C1791 1.415 . S
C1791 H1761 0.950 . S
C1791 C1786 1.363 . S
C1791 C1790 1.415 . S
H1792 C1789 0.999 . S
H1793 C1774 0.913 . S
H1794 C1812 0.951 . S
H1795 C1814 0.951 . S
H1796 C1816 0.950 . S
H1797 C1817 0.950 . S
H1798 C1819 0.950 . S
H1799 C1822 0.950 . S
H1800 C1823 0.950 . S
H1801 C1825 0.950 . S
H1802 C1826 0.950 . S
H1803 C1827 0.951 . S
H1804 C1829 0.951 . S
H1805 C1831 0.965 . S
H1806 C1832 0.950 . S
H1807 C1834 0.950 . S
H1808 C1837 0.950 . S
H1809 C1838 0.950 . S
H1810 C1840 0.950 . S
H1811 C1841 0.950 . S
C1812 H1794 0.951 . S
C1812 C1813 1.366 . S
C1812 C1814 1.388 . S
C1813 C1812 1.366 . S
C1813 C1817 1.385 . S
C1814 H1795 0.951 . S
C1814 C1812 1.388 . S
C1814 C1815 1.366 . S
C1815 C1814 1.366 . S
C1815 C1816 1.414 . S
C1815 C1818 1.499 . S
C1816 H1796 0.950 . S
C1816 C1815 1.414 . S
C1816 C1817 1.374 . S
C1817 H1797 0.950 . S
C1817 C1813 1.385 . S
C1817 C1816 1.374 . S
C1818 C1815 1.499 . S
C1818 C1819 1.373 . S
C1818 C1820 1.389 . S
C1819 H1798 0.950 . S
C1819 C1818 1.373 . S
C1819 C1835 1.377 . S
C1820 C1818 1.389 . S
C1820 C1821 1.524 . S
C1820 C1834 1.377 . S
C1821 C1820 1.524 . S
C1821 C1822 1.397 . S
C1821 C1826 1.363 . S
C1822 H1799 0.950 . S
C1822 C1821 1.397 . S
C1822 C1823 1.334 . S
C1823 H1800 0.950 . S
C1823 C1822 1.334 . S
C1823 C1824 1.287 . S
C1824 C1823 1.287 . S
C1824 C1825 1.524 . S
C1824 H1843 0.913 . S
C1825 H1801 0.950 . S
C1825 C1824 1.524 . S
C1825 C1826 1.415 . S
C1826 H1802 0.950 . S
C1826 C1821 1.363 . S
C1826 C1825 1.415 . S
C1827 H1803 0.951 . S
C1827 C1828 1.366 . S
C1827 C1829 1.388 1_545 S
C1828 C1827 1.366 . S
C1828 C1832 1.385 . S
C1829 H1804 0.951 . S
C1829 C1827 1.388 1_565 S
C1829 C1830 1.366 . S
C1830 C1829 1.366 . S
C1830 C1831 1.430 . S
C1830 C1833 1.499 . S
C1831 H1805 0.965 . S
C1831 C1830 1.430 . S
C1831 C1832 1.344 1_565 S
C1832 H1806 0.950 . S
C1832 C1828 1.385 . S
C1832 C1831 1.344 1_545 S
C1833 C1830 1.499 . S
C1833 C1834 1.373 . S
C1833 C1835 1.389 . S
C1834 H1807 0.950 . S
C1834 C1820 1.377 . S
C1834 C1833 1.373 . S
C1835 C1819 1.377 . S
C1835 C1833 1.389 . S
C1835 C1836 1.524 . S
C1836 C1835 1.524 . S
C1836 C1837 1.397 . S
C1836 C1841 1.363 . S
C1837 H1808 0.950 . S
C1837 C1836 1.397 . S
C1837 C1838 1.334 . S
C1838 H1809 0.950 . S
C1838 C1837 1.334 . S
C1838 C1839 1.287 . S
C1839 C1838 1.287 . S
C1839 C1840 1.524 . S
C1839 H1842 0.999 . S
C1840 H1810 0.950 . S
C1840 C1839 1.524 . S
C1840 C1841 1.415 . S
C1841 H1811 0.950 . S
C1841 C1836 1.363 . S
C1841 C1840 1.415 . S
H1842 C1839 0.999 . S
H1843 C1824 0.913 . S
H1844 C1862 0.951 . S
H1845 C1864 0.951 . S
H1846 C1866 0.950 . S
H1847 C1867 0.950 . S
H1848 C1869 0.950 . S
H1849 C1872 0.950 . S
H1850 C1873 0.950 . S
H1851 C1875 0.950 . S
H1852 C1876 0.950 . S
H1853 C1877 0.951 . S
H1854 C1879 0.951 . S
H1855 C1881 0.950 . S
H1856 C1882 0.950 . S
H1857 C1884 0.950 . S
H1858 C1887 0.950 . S
H1859 C1888 0.950 . S
H1860 C1890 0.950 . S
H1861 C1891 0.950 . S
C1862 H1844 0.951 . S
C1862 C1863 1.366 . S
C1862 C1864 1.388 1_655 S
C1863 C1862 1.366 . S
C1863 C1867 1.385 . S
C1864 H1845 0.951 . S
C1864 C1862 1.388 1_455 S
C1864 C1865 1.366 . S
C1865 C1864 1.366 . S
C1865 C1866 1.414 . S
C1865 C1868 1.499 . S
C1866 H1846 0.950 . S
C1866 C1865 1.414 . S
C1866 C1867 1.374 1_455 S
C1867 H1847 0.950 . S
C1867 C1863 1.385 . S
C1867 C1866 1.374 1_655 S
C1868 C1865 1.499 . S
C1868 C1869 1.373 . S
C1868 C1870 1.389 . S
C1869 H1848 0.950 . S
C1869 C1868 1.373 . S
C1869 C1885 1.377 . S
C1870 C1868 1.389 . S
C1870 C1871 1.524 . S
C1870 C1884 1.377 . S
C1871 C1870 1.524 . S
C1871 C1872 1.397 . S
C1871 C1876 1.363 . S
C1872 H1849 0.950 . S
C1872 C1871 1.397 . S
C1872 C1873 1.334 . S
C1873 H1850 0.950 . S
C1873 C1872 1.334 . S
C1873 C1874 1.287 . S
C1874 C1873 1.287 . S
C1874 C1875 1.524 . S
C1874 H1893 0.913 . S
C1875 H1851 0.950 . S
C1875 C1874 1.524 . S
C1875 C1876 1.415 . S
C1876 H1852 0.950 . S
C1876 C1871 1.363 . S
C1876 C1875 1.415 . S
C1877 H1853 0.951 . S
C1877 C1878 1.366 . S
C1877 C1879 1.388 . S
C1878 C1877 1.366 . S
C1878 C1882 1.385 . S
C1879 H1854 0.951 . S
C1879 C1877 1.388 . S
C1879 C1880 1.366 . S
C1880 C1879 1.366 . S
C1880 C1881 1.414 . S
C1880 C1883 1.499 . S
C1881 H1855 0.950 . S
C1881 C1880 1.414 . S
C1881 C1882 1.374 . S
C1882 H1856 0.950 . S
C1882 C1878 1.385 . S
C1882 C1881 1.374 . S
C1883 C1880 1.499 . S
C1883 C1884 1.373 . S
C1883 C1885 1.389 . S
C1884 H1857 0.950 . S
C1884 C1870 1.377 . S
C1884 C1883 1.373 . S
C1885 C1869 1.377 . S
C1885 C1883 1.389 . S
C1885 C1886 1.524 . S
C1886 C1885 1.524 . S
C1886 C1887 1.397 . S
C1886 C1891 1.363 . S
C1887 H1858 0.950 . S
C1887 C1886 1.397 . S
C1887 C1888 1.334 . S
C1888 H1859 0.950 . S
C1888 C1887 1.334 . S
C1888 C1889 1.287 . S
C1889 C1888 1.287 . S
C1889 C1890 1.524 . S
C1889 H1892 0.999 . S
C1890 H1860 0.950 . S
C1890 C1889 1.524 . S
C1890 C1891 1.415 . S
C1891 H1861 0.950 . S
C1891 C1886 1.363 . S
C1891 C1890 1.415 . S
H1892 C1889 0.999 . S
H1893 C1874 0.913 . S
H1894 C1912 0.951 . S
H1895 C1914 0.951 . S
H1896 C1916 0.950 . S
H1897 C1917 0.950 . S
H1898 C1919 0.950 . S
H1899 C1922 0.950 . S
H1900 C1923 0.950 . S
H1901 C1925 0.950 . S
H1902 C1926 0.950 . S
H1903 C1927 0.951 . S
H1904 C1929 0.951 . S
H1905 C1931 0.950 . S
H1906 C1932 0.950 . S
H1907 C1934 0.950 . S
H1908 C1937 0.950 . S
H1909 C1938 0.950 . S
H1910 C1940 0.950 . S
H1911 C1941 0.950 . S
C1912 H1894 0.951 . S
C1912 C1913 1.366 . S
C1912 C1914 1.388 . S
C1913 C1912 1.366 . S
C1913 C1917 1.385 . S
C1914 H1895 0.951 . S
C1914 C1912 1.388 . S
C1914 C1915 1.366 . S
C1915 C1914 1.366 . S
C1915 C1916 1.414 . S
C1915 C1918 1.499 . S
C1916 H1896 0.950 . S
C1916 C1915 1.414 . S
C1916 C1917 1.374 . S
C1917 H1897 0.950 . S
C1917 C1913 1.385 . S
C1917 C1916 1.374 . S
C1918 C1915 1.499 . S
C1918 C1919 1.373 . S
C1918 C1920 1.389 . S
C1919 H1898 0.950 . S
C1919 C1918 1.373 . S
C1919 C1935 1.377 . S
C1920 C1918 1.389 . S
C1920 C1921 1.524 . S
C1920 C1934 1.377 . S
C1921 C1920 1.524 . S
C1921 C1922 1.397 . S
C1921 C1926 1.363 . S
C1922 H1899 0.950 . S
C1922 C1921 1.397 . S
C1922 C1923 1.334 . S
C1923 H1900 0.950 . S
C1923 C1922 1.334 . S
C1923 C1924 1.287 . S
C1924 C1923 1.287 . S
C1924 C1925 1.524 . S
C1924 H1943 0.913 . S
C1925 H1901 0.950 . S
C1925 C1924 1.524 . S
C1925 C1926 1.415 . S
C1926 H1902 0.950 . S
C1926 C1921 1.363 . S
C1926 C1925 1.415 . S
C1927 H1903 0.951 . S
C1927 C1928 1.366 . S
C1927 C1929 1.388 . S
C1928 C1927 1.366 . S
C1928 C1932 1.385 . S
C1929 H1904 0.951 . S
C1929 C1927 1.388 . S
C1929 C1930 1.366 . S
C1930 C1929 1.366 . S
C1930 C1931 1.414 . S
C1930 C1933 1.499 . S
C1931 H1905 0.950 . S
C1931 C1930 1.414 . S
C1931 C1932 1.374 . S
C1932 H1906 0.950 . S
C1932 C1928 1.385 . S
C1932 C1931 1.374 . S
C1933 C1930 1.499 . S
C1933 C1934 1.373 . S
C1933 C1935 1.389 . S
C1934 H1907 0.950 . S
C1934 C1920 1.377 . S
C1934 C1933 1.373 . S
C1935 C1919 1.377 . S
C1935 C1933 1.389 . S
C1935 C1936 1.524 . S
C1936 C1935 1.524 . S
C1936 C1937 1.397 . S
C1936 C1941 1.363 . S
C1937 H1908 0.950 . S
C1937 C1936 1.397 . S
C1937 C1938 1.334 . S
C1938 H1909 0.950 . S
C1938 C1937 1.334 . S
C1938 C1939 1.287 . S
C1939 C1938 1.287 . S
C1939 C1940 1.524 . S
C1939 H1942 0.999 . S
C1940 H1910 0.950 . S
C1940 C1939 1.524 . S
C1940 C1941 1.415 . S
C1941 H1911 0.950 . S
C1941 C1936 1.363 . S
C1941 C1940 1.415 . S
H1942 C1939 0.999 . S
H1943 C1924 0.913 . S
H1944 C1962 0.951 . S
H1945 C1964 0.951 . S
H1946 C1966 0.950 . S
H1947 C1967 0.950 . S
H1948 C1969 0.950 . S
H1949 C1972 0.950 . S
H1950 C1973 0.950 . S
H1951 C1975 0.950 . S
H1952 C1976 0.950 . S
H1953 C1977 0.951 . S
H1954 C1979 0.951 . S
H1955 C1981 0.950 . S
H1956 C1982 0.950 . S
H1957 C1984 0.950 . S
H1958 C1987 0.950 . S
H1959 C1988 0.950 . S
H1960 C1990 0.950 . S
H1961 C1991 0.950 . S
C1962 H1944 0.951 . S
C1962 C1963 1.366 . S
C1962 C1964 1.388 . S
C1963 C1962 1.366 . S
C1963 C1967 1.385 . S
C1964 H1945 0.951 . S
C1964 C1962 1.388 . S
C1964 C1965 1.366 . S
C1965 C1964 1.366 . S
C1965 C1966 1.414 . S
C1965 C1968 1.499 . S
C1966 H1946 0.950 . S
C1966 C1965 1.414 . S
C1966 C1967 1.374 . S
C1967 H1947 0.950 . S
C1967 C1963 1.385 . S
C1967 C1966 1.374 . S
C1968 C1965 1.499 . S
C1968 C1969 1.373 . S
C1968 C1970 1.389 . S
C1969 H1948 0.950 . S
C1969 C1968 1.373 . S
C1969 C1985 1.377 . S
C1970 C1968 1.389 . S
C1970 C1971 1.524 . S
C1970 C1984 1.377 . S
C1971 C1970 1.524 . S
C1971 C1972 1.397 . S
C1971 C1976 1.363 . S
C1972 H1949 0.950 . S
C1972 C1971 1.397 . S
C1972 C1973 1.334 . S
C1973 H1950 0.950 . S
C1973 C1972 1.334 . S
C1973 C1974 1.287 . S
C1974 C1973 1.287 . S
C1974 C1975 1.524 . S
C1974 H1993 0.913 . S
C1975 H1951 0.950 . S
C1975 C1974 1.524 . S
C1975 C1976 1.415 . S
C1976 H1952 0.950 . S
C1976 C1971 1.363 . S
C1976 C1975 1.415 . S
C1977 H1953 0.951 . S
C1977 C1978 1.366 . S
C1977 C1979 1.388 . S
C1978 C1977 1.366 . S
C1978 C1982 1.385 . S
C1979 H1954 0.951 . S
C1979 C1977 1.388 . S
C1979 C1980 1.366 . S
C1980 C1979 1.366 . S
C1980 C1981 1.414 . S
C1980 C1983 1.499 . S
C1981 H1955 0.950 . S
C1981 C1980 1.414 . S
C1981 C1982 1.374 . S
C1982 H1956 0.950 . S
C1982 C1978 1.385 . S
C1982 C1981 1.374 . S
C1983 C1980 1.499 . S
C1983 C1984 1.373 . S
C1983 C1985 1.389 . S
C1984 H1957 0.950 . S
C1984 C1970 1.377 . S
C1984 C1983 1.373 . S
C1985 C1969 1.377 . S
C1985 C1983 1.389 . S
C1985 C1986 1.524 . S
C1986 C1985 1.524 . S
C1986 C1987 1.397 . S
C1986 C1991 1.363 . S
C1987 H1958 0.950 . S
C1987 C1986 1.397 . S
C1987 C1988 1.334 . S
C1988 H1959 0.950 . S
C1988 C1987 1.334 . S
C1988 C1989 1.287 . S
C1989 C1988 1.287 . S
C1989 C1990 1.524 . S
C1989 H1992 0.999 . S
C1990 H1960 0.950 . S
C1990 C1989 1.524 . S
C1990 C1991 1.415 . S
C1991 H1961 0.950 . S
C1991 C1986 1.363 . S
C1991 C1990 1.415 . S
H1992 C1989 0.999 . S
H1993 C1974 0.913 . S
H1994 C2012 0.951 . S
H1995 C2014 0.951 . S
H1996 C2016 0.950 . S
H1997 C2017 0.950 . S
H1998 C2019 0.950 . S
H1999 C2022 0.950 . S
H2000 C2023 0.950 . S
H2001 C2025 0.950 . S
H2002 C2026 0.950 . S
H2003 C2027 0.951 . S
H2004 C2029 0.951 . S
H2005 C2031 0.950 . S
H2006 C2032 0.950 . S
H2007 C2034 0.950 . S
H2008 C2037 0.950 . S
H2009 C2038 0.950 . S
H2010 C2040 0.950 . S
H2011 C2041 0.950 . S
C2012 H1994 0.951 . S
C2012 C2013 1.366 . S
C2012 C2014 1.388 . S
C2013 C2012 1.366 . S
C2013 C2017 1.385 . S
C2014 H1995 0.951 . S
C2014 C2012 1.388 . S
C2014 C2015 1.366 . S
C2015 C2014 1.366 . S
C2015 C2016 1.414 . S
C2015 C2018 1.499 . S
C2016 H1996 0.950 . S
C2016 C2015 1.414 . S
C2016 C2017 1.374 . S
C2017 H1997 0.950 . S
C2017 C2013 1.385 . S
C2017 C2016 1.374 . S
C2018 C2015 1.499 . S
C2018 C2019 1.373 . S
C2018 C2020 1.389 . S
C2019 H1998 0.950 . S
C2019 C2018 1.373 . S
C2019 C2035 1.377 . S
C2020 C2018 1.389 . S
C2020 C2021 1.524 . S
C2020 C2034 1.377 . S
C2021 C2020 1.524 . S
C2021 C2022 1.397 . S
C2021 C2026 1.363 . S
C2022 H1999 0.950 . S
C2022 C2021 1.397 . S
C2022 C2023 1.334 . S
C2023 H2000 0.950 . S
C2023 C2022 1.334 . S
C2023 C2024 1.287 . S
C2024 C2023 1.287 . S
C2024 C2025 1.524 . S
C2024 H2043 0.913 . S
C2025 H2001 0.950 . S
C2025 C2024 1.524 . S
C2025 C2026 1.415 . S
C2026 H2002 0.950 . S
C2026 C2021 1.363 . S
C2026 C2025 1.415 . S
C2027 H2003 0.951 . S
C2027 C2028 1.366 . S
C2027 C2029 1.388 1_565 S
C2028 C2027 1.366 . S
C2028 C2032 1.385 . S
C2029 H2004 0.951 . S
C2029 C2027 1.388 1_545 S
C2029 C2030 1.366 . S
C2030 C2029 1.366 . S
C2030 C2031 1.414 . S
C2030 C2033 1.499 . S
C2031 H2005 0.950 . S
C2031 C2030 1.414 . S
C2031 C2032 1.374 1_545 S
C2032 H2006 0.950 . S
C2032 C2028 1.385 . S
C2032 C2031 1.374 1_565 S
C2033 C2030 1.499 . S
C2033 C2034 1.373 . S
C2033 C2035 1.389 . S
C2034 H2007 0.950 . S
C2034 C2020 1.377 . S
C2034 C2033 1.373 . S
C2035 C2019 1.377 . S
C2035 C2033 1.389 . S
C2035 C2036 1.524 . S
C2036 C2035 1.524 . S
C2036 C2037 1.397 . S
C2036 C2041 1.363 . S
C2037 H2008 0.950 . S
C2037 C2036 1.397 . S
C2037 C2038 1.334 . S
C2038 H2009 0.950 . S
C2038 C2037 1.334 . S
C2038 C2039 1.287 . S
C2039 C2038 1.287 . S
C2039 C2040 1.524 . S
C2039 H2042 0.999 . S
C2040 H2010 0.950 . S
C2040 C2039 1.524 . S
C2040 C2041 1.415 . S
C2041 H2011 0.950 . S
C2041 C2036 1.363 . S
C2041 C2040 1.415 . S
H2042 C2039 0.999 . S
H2043 C2024 0.913 . S
H2044 C2062 0.956 1_556 S
H2045 C2064 0.945 1_556 S
H2046 C2066 0.950 . S
H2047 C2067 0.950 . S
H2048 C2069 0.950 . S
H2049 C2072 0.950 . S
H2050 C2073 0.950 . S
H2051 C2075 0.950 . S
H2052 C2076 0.950 . S
H2053 C2077 0.951 . S
H2054 C2079 0.951 . S
H2055 C2081 0.950 1_556 S
H2056 C2082 0.950 1_556 S
H2057 C2084 0.950 . S
H2058 C2087 0.950 . S
H2059 C2088 0.950 . S
H2060 C2090 0.950 . S
H2061 C2091 0.950 . S
C2062 H2044 0.956 1_554 S
C2062 C2063 1.366 . S
C2062 C2064 1.388 1_455 S
C2063 C2062 1.366 . S
C2063 C2067 1.385 . S
C2064 H2045 0.945 1_554 S
C2064 C2062 1.388 1_655 S
C2064 C2065 1.366 . S
C2065 C2064 1.366 . S
C2065 C2066 1.414 . S
C2065 C2068 1.499 . S
C2066 H2046 0.950 . S
C2066 C2065 1.414 . S
C2066 C2067 1.374 1_655 S
C2067 H2047 0.950 . S
C2067 C2063 1.385 . S
C2067 C2066 1.374 1_455 S
C2068 C2065 1.499 . S
C2068 C2069 1.373 . S
C2068 C2070 1.389 . S
C2069 H2048 0.950 . S
C2069 C2068 1.373 . S
C2069 C2085 1.377 . S
C2070 C2068 1.389 . S
C2070 C2071 1.524 . S
C2070 C2084 1.377 . S
C2071 C2070 1.524 . S
C2071 C2072 1.397 . S
C2071 C2076 1.363 . S
C2072 H2049 0.950 . S
C2072 C2071 1.397 . S
C2072 C2073 1.334 . S
C2073 H2050 0.950 . S
C2073 C2072 1.334 . S
C2073 C2074 1.287 . S
C2074 C2073 1.287 . S
C2074 C2075 1.524 . S
C2074 H2093 0.913 . S
C2075 H2051 0.950 . S
C2075 C2074 1.524 . S
C2075 C2076 1.415 . S
C2076 H2052 0.950 . S
C2076 C2071 1.363 . S
C2076 C2075 1.415 . S
C2077 H2053 0.951 . S
C2077 C2078 1.366 . S
C2077 C2079 1.388 . S
C2078 C2077 1.366 . S
C2078 C2082 1.385 . S
C2079 H2054 0.951 . S
C2079 C2077 1.388 . S
C2079 C2080 1.366 . S
C2080 C2079 1.366 . S
C2080 C2081 1.414 . S
C2080 C2083 1.499 . S
C2081 H2055 0.950 1_554 S
C2081 C2080 1.414 . S
C2081 C2082 1.374 . S
C2082 H2056 0.950 1_554 S
C2082 C2078 1.385 . S
C2082 C2081 1.374 . S
C2083 C2080 1.499 . S
C2083 C2084 1.373 . S
C2083 C2085 1.389 . S
C2084 H2057 0.950 . S
C2084 C2070 1.377 . S
C2084 C2083 1.373 . S
C2085 C2069 1.377 . S
C2085 C2083 1.389 . S
C2085 C2086 1.524 . S
C2086 C2085 1.524 . S
C2086 C2087 1.397 1_554 S
C2086 C2091 1.363 . S
C2087 H2058 0.950 . S
C2087 C2086 1.397 1_556 S
C2087 C2088 1.334 . S
C2088 H2059 0.950 . S
C2088 C2087 1.334 . S
C2088 C2089 1.287 . S
C2089 C2088 1.287 . S
C2089 C2090 1.524 1_556 S
C2089 H2092 0.999 . S
C2090 H2060 0.950 . S
C2090 C2089 1.524 1_554 S
C2090 C2091 1.415 . S
C2091 H2061 0.950 . S
C2091 C2086 1.363 . S
C2091 C2090 1.415 . S
H2092 C2089 0.999 . S
H2093 C2074 0.913 . S
H2094 C2112 0.951 . S
H2095 C2114 0.951 . S
H2096 C2116 0.950 . S
H2097 C2117 0.950 . S
H2098 C2119 0.950 . S
H2099 C2122 0.950 . S
H2100 C2123 0.950 . S
H2101 C2125 0.950 . S
H2102 C2126 0.950 . S
H2103 C2127 0.951 . S
H2104 C2129 0.951 . S
H2105 C2131 0.950 . S
H2106 C2132 0.950 . S
H2107 C2134 0.950 . S
H2108 C2137 0.950 . S
H2109 C2138 0.950 . S
H2110 C2140 0.950 . S
H2111 C2141 0.950 . S
C2112 H2094 0.951 . S
C2112 C2113 1.366 . S
C2112 C2114 1.388 . S
C2113 C2112 1.366 . S
C2113 C2117 1.385 . S
C2114 H2095 0.951 . S
C2114 C2112 1.388 . S
C2114 C2115 1.366 . S
C2115 C2114 1.366 . S
C2115 C2116 1.414 . S
C2115 C2118 1.499 . S
C2116 H2096 0.950 . S
C2116 C2115 1.414 . S
C2116 C2117 1.374 . S
C2117 H2097 0.950 . S
C2117 C2113 1.385 . S
C2117 C2116 1.374 . S
C2118 C2115 1.499 . S
C2118 C2119 1.373 . S
C2118 C2120 1.389 . S
C2119 H2098 0.950 . S
C2119 C2118 1.373 . S
C2119 C2135 1.377 . S
C2120 C2118 1.389 . S
C2120 C2121 1.524 . S
C2120 C2134 1.377 . S
C2121 C2120 1.524 . S
C2121 C2122 1.397 . S
C2121 C2126 1.363 . S
C2122 H2099 0.950 . S
C2122 C2121 1.397 . S
C2122 C2123 1.334 . S
C2123 H2100 0.950 . S
C2123 C2122 1.334 . S
C2123 C2124 1.287 . S
C2124 C2123 1.287 . S
C2124 C2125 1.524 . S
C2124 H2143 0.913 . S
C2125 H2101 0.950 . S
C2125 C2124 1.524 . S
C2125 C2126 1.415 . S
C2126 H2102 0.950 . S
C2126 C2121 1.363 . S
C2126 C2125 1.415 . S
C2127 H2103 0.951 . S
C2127 C2128 1.366 . S
C2127 C2129 1.388 . S
C2128 C2127 1.366 . S
C2128 C2132 1.385 . S
C2129 H2104 0.951 . S
C2129 C2127 1.388 . S
C2129 C2130 1.366 . S
C2130 C2129 1.366 . S
C2130 C2131 1.414 . S
C2130 C2133 1.499 . S
C2131 H2105 0.950 . S
C2131 C2130 1.414 . S
C2131 C2132 1.374 . S
C2132 H2106 0.950 . S
C2132 C2128 1.385 . S
C2132 C2131 1.374 . S
C2133 C2130 1.499 . S
C2133 C2134 1.373 . S
C2133 C2135 1.389 . S
C2134 H2107 0.950 . S
C2134 C2120 1.377 . S
C2134 C2133 1.373 . S
C2135 C2119 1.377 . S
C2135 C2133 1.389 . S
C2135 C2136 1.524 . S
C2136 C2135 1.524 . S
C2136 C2137 1.397 . S
C2136 C2141 1.363 . S
C2137 H2108 0.950 . S
C2137 C2136 1.397 . S
C2137 C2138 1.334 . S
C2138 H2109 0.950 . S
C2138 C2137 1.334 . S
C2138 C2139 1.287 . S
C2139 C2138 1.287 . S
C2139 C2140 1.524 . S
C2139 H2142 0.999 . S
C2140 H2110 0.950 . S
C2140 C2139 1.524 . S
C2140 C2141 1.415 . S
C2141 H2111 0.950 . S
C2141 C2136 1.363 . S
C2141 C2140 1.415 . S
H2142 C2139 0.999 . S
H2143 C2124 0.913 . S
H2144 C2162 0.951 . S
H2145 C2164 0.951 . S
H2146 C2166 0.950 . S
H2147 C2167 0.950 . S
H2148 C2169 0.950 . S
H2149 C2172 0.950 . S
H2150 C2173 0.950 . S
H2151 C2175 0.950 . S
H2152 C2176 0.950 . S
H2153 C2177 0.951 . S
H2154 C2179 0.951 . S
H2155 C2181 0.950 . S
H2156 C2182 0.950 . S
H2157 C2184 0.950 . S
H2158 C2187 0.950 . S
H2159 C2188 0.950 . S
H2160 C2190 0.950 . S
H2161 C2191 0.950 . S
C2162 H2144 0.951 . S
C2162 C2163 1.366 . S
C2162 C2164 1.388 1_455 S
C2163 C2162 1.366 . S
C2163 C2167 1.385 . S
C2164 H2145 0.951 . S
C2164 C2162 1.388 1_655 S
C2164 C2165 1.366 . S
C2165 C2164 1.366 . S
C2165 C2166 1.414 . S
C2165 C2168 1.499 . S
C2166 H2146 0.950 . S
C2166 C2165 1.414 . S
C2166 C2167 1.374 1_655 S
C2167 H2147 0.950 . S
C2167 C2163 1.385 . S
C2167 C2166 1.374 1_455 S
C2168 C2165 1.499 . S
C2168 C2169 1.373 . S
C2168 C2170 1.389 . S
C2169 H2148 0.950 . S
C2169 C2168 1.373 . S
C2169 C2185 1.377 . S
C2170 C2168 1.389 . S
C2170 C2171 1.524 . S
C2170 C2184 1.377 . S
C2171 C2170 1.524 . S
C2171 C2172 1.397 . S
C2171 C2176 1.363 . S
C2172 H2149 0.950 . S
C2172 C2171 1.397 . S
C2172 C2173 1.334 . S
C2173 H2150 0.950 . S
C2173 C2172 1.334 . S
C2173 C2174 1.287 . S
C2174 C2173 1.287 . S
C2174 C2175 1.524 . S
C2174 H2193 0.913 . S
C2175 H2151 0.950 . S
C2175 C2174 1.524 . S
C2175 C2176 1.415 . S
C2176 H2152 0.950 . S
C2176 C2171 1.363 . S
C2176 C2175 1.415 . S
C2177 H2153 0.951 . S
C2177 C2178 1.366 . S
C2177 C2179 1.388 . S
C2178 C2177 1.366 . S
C2178 C2182 1.385 . S
C2179 H2154 0.951 . S
C2179 C2177 1.388 . S
C2179 C2180 1.366 . S
C2180 C2179 1.366 . S
C2180 C2181 1.414 . S
C2180 C2183 1.499 . S
C2181 H2155 0.950 . S
C2181 C2180 1.414 . S
C2181 C2182 1.374 . S
C2182 H2156 0.950 . S
C2182 C2178 1.385 . S
C2182 C2181 1.374 . S
C2183 C2180 1.499 . S
C2183 C2184 1.373 . S
C2183 C2185 1.389 . S
C2184 H2157 0.950 . S
C2184 C2170 1.377 . S
C2184 C2183 1.373 . S
C2185 C2169 1.377 . S
C2185 C2183 1.389 . S
C2185 C2186 1.524 . S
C2186 C2185 1.524 . S
C2186 C2187 1.397 . S
C2186 C2191 1.363 . S
C2187 H2158 0.950 . S
C2187 C2186 1.397 . S
C2187 C2188 1.334 . S
C2188 H2159 0.950 . S
C2188 C2187 1.334 . S
C2188 C2189 1.287 . S
C2189 C2188 1.287 . S
C2189 C2190 1.524 . S
C2189 H2192 0.999 . S
C2190 H2160 0.950 . S
C2190 C2189 1.524 . S
C2190 C2191 1.415 . S
C2191 H2161 0.950 . S
C2191 C2186 1.363 . S
C2191 C2190 1.415 . S
H2192 C2189 0.999 . S
H2193 C2174 0.913 . S
H2194 C2212 0.951 . S
H2195 C2214 0.951 . S
H2196 C2216 0.950 . S
H2197 C2217 0.950 . S
H2198 C2219 0.950 . S
H2199 C2222 0.950 . S
H2200 C2223 0.950 . S
H2201 C2225 0.950 . S
H2202 C2226 0.950 . S
H2203 C2227 0.951 . S
H2204 C2229 0.951 . S
H2205 C2231 0.950 . S
H2206 C2232 0.950 . S
H2207 C2234 0.950 . S
H2208 C2237 0.950 . S
H2209 C2238 0.950 . S
H2210 C2240 0.950 . S
H2211 C2241 0.950 . S
C2212 H2194 0.951 . S
C2212 C2213 1.366 . S
C2212 C2214 1.388 . S
C2213 C2212 1.366 . S
C2213 C2217 1.385 . S
C2214 H2195 0.951 . S
C2214 C2212 1.388 . S
C2214 C2215 1.366 . S
C2215 C2214 1.366 . S
C2215 C2216 1.414 . S
C2215 C2218 1.499 . S
C2216 H2196 0.950 . S
C2216 C2215 1.414 . S
C2216 C2217 1.374 . S
C2217 H2197 0.950 . S
C2217 C2213 1.385 . S
C2217 C2216 1.374 . S
C2218 C2215 1.499 . S
C2218 C2219 1.373 . S
C2218 C2220 1.389 . S
C2219 H2198 0.950 . S
C2219 C2218 1.373 . S
C2219 C2235 1.377 . S
C2220 C2218 1.389 . S
C2220 C2221 1.524 . S
C2220 C2234 1.377 . S
C2221 C2220 1.524 . S
C2221 C2222 1.397 . S
C2221 C2226 1.363 . S
C2222 H2199 0.950 . S
C2222 C2221 1.397 . S
C2222 C2223 1.334 . S
C2223 H2200 0.950 . S
C2223 C2222 1.334 . S
C2223 C2224 1.287 . S
C2224 C2223 1.287 . S
C2224 C2225 1.524 . S
C2224 H2243 0.913 . S
C2225 H2201 0.950 . S
C2225 C2224 1.524 . S
C2225 C2226 1.415 . S
C2226 H2202 0.950 . S
C2226 C2221 1.363 . S
C2226 C2225 1.415 . S
C2227 H2203 0.951 . S
C2227 C2228 1.366 . S
C2227 C2229 1.388 . S
C2228 C2227 1.366 . S
C2228 C2232 1.385 . S
C2229 H2204 0.951 . S
C2229 C2227 1.388 . S
C2229 C2230 1.366 . S
C2230 C2229 1.366 . S
C2230 C2231 1.414 . S
C2230 C2233 1.499 . S
C2231 H2205 0.950 . S
C2231 C2230 1.414 . S
C2231 C2232 1.374 . S
C2232 H2206 0.950 . S
C2232 C2228 1.385 . S
C2232 C2231 1.374 . S
C2233 C2230 1.499 . S
C2233 C2234 1.373 . S
C2233 C2235 1.389 . S
C2234 H2207 0.950 . S
C2234 C2220 1.377 . S
C2234 C2233 1.373 . S
C2235 C2219 1.377 . S
C2235 C2233 1.389 . S
C2235 C2236 1.524 . S
C2236 C2235 1.524 . S
C2236 C2237 1.397 . S
C2236 C2241 1.363 . S
C2237 H2208 0.950 . S
C2237 C2236 1.397 . S
C2237 C2238 1.334 . S
C2238 H2209 0.950 . S
C2238 C2237 1.334 . S
C2238 C2239 1.287 . S
C2239 C2238 1.287 . S
C2239 C2240 1.524 . S
C2239 H2242 0.999 . S
C2240 H2210 0.950 . S
C2240 C2239 1.524 . S
C2240 C2241 1.415 . S
C2241 H2211 0.950 . S
C2241 C2236 1.363 . S
C2241 C2240 1.415 . S
H2242 C2239 0.999 . S
H2243 C2224 0.913 . S
H2244 C2262 0.917 1_556 S
H2245 C2264 0.905 1_556 S
H2246 C2266 0.950 . S
H2247 C2267 0.950 . S
H2248 C2269 0.950 . S
H2249 C2272 0.950 . S
H2250 C2273 0.950 . S
H2251 C2275 0.950 . S
H2252 C2276 0.950 . S
H2253 C2277 0.951 . S
H2254 C2279 0.951 . S
H2255 C2281 0.950 1_556 S
H2256 C2282 0.950 1_556 S
H2257 C2284 0.934 1_556 S
H2258 C2287 0.950 . S
H2259 C2288 0.950 . S
H2260 C2290 0.950 . S
H2261 C2291 0.950 . S
C2262 H2244 0.917 1_554 S
C2262 C2263 1.400 . S
C2262 C2264 1.388 . S
C2263 C2262 1.400 . S
C2263 C2267 1.385 . S
C2264 H2245 0.905 1_554 S
C2264 C2262 1.388 . S
C2264 C2265 1.413 . S
C2265 C2264 1.413 . S
C2265 C2266 1.414 . S
C2265 C2268 1.499 . S
C2266 H2246 0.950 . S
C2266 C2265 1.414 . S
C2266 C2267 1.374 . S
C2267 H2247 0.950 . S
C2267 C2263 1.385 . S
C2267 C2266 1.374 . S
C2268 C2265 1.499 . S
C2268 C2269 1.373 . S
C2268 C2270 1.388 1_554 S
C2269 H2248 0.950 . S
C2269 C2268 1.373 . S
C2269 C2285 1.377 . S
C2270 C2268 1.388 1_556 S
C2270 C2271 1.525 . S
C2270 C2284 1.376 1_556 S
C2271 C2270 1.525 . S
C2271 C2272 1.397 . S
C2271 C2276 1.363 . S
C2272 H2249 0.950 . S
C2272 C2271 1.397 . S
C2272 C2273 1.334 . S
C2273 H2250 0.950 . S
C2273 C2272 1.334 . S
C2273 C2274 1.287 . S
C2274 C2273 1.287 . S
C2274 C2275 1.524 . S
C2274 H2293 0.913 . S
C2275 H2251 0.950 . S
C2275 C2274 1.524 . S
C2275 C2276 1.415 . S
C2276 H2252 0.950 . S
C2276 C2271 1.363 . S
C2276 C2275 1.415 . S
C2277 H2253 0.951 . S
C2277 C2278 1.366 . S
C2277 C2279 1.388 . S
C2278 C2277 1.366 . S
C2278 C2282 1.385 . S
C2279 H2254 0.951 . S
C2279 C2277 1.388 . S
C2279 C2280 1.366 . S
C2280 C2279 1.366 . S
C2280 C2281 1.414 . S
C2280 C2283 1.499 . S
C2281 H2255 0.950 1_554 S
C2281 C2280 1.414 . S
C2281 C2282 1.374 . S
C2282 H2256 0.950 1_554 S
C2282 C2278 1.385 . S
C2282 C2281 1.374 . S
C2283 C2280 1.499 . S
C2283 C2284 1.390 . S
C2283 C2285 1.389 . S
C2284 H2257 0.934 1_554 S
C2284 C2270 1.376 1_554 S
C2284 C2283 1.390 . S
C2285 C2269 1.377 . S
C2285 C2283 1.389 . S
C2285 C2286 1.524 . S
C2286 C2285 1.524 . S
C2286 C2287 1.397 . S
C2286 C2291 1.363 . S
C2287 H2258 0.950 . S
C2287 C2286 1.397 . S
C2287 C2288 1.334 . S
C2288 H2259 0.950 . S
C2288 C2287 1.334 . S
C2288 C2289 1.287 . S
C2289 C2288 1.287 . S
C2289 C2290 1.524 . S
C2289 H2292 0.999 . S
C2290 H2260 0.950 . S
C2290 C2289 1.524 . S
C2290 C2291 1.415 . S
C2291 H2261 0.950 . S
C2291 C2286 1.363 . S
C2291 C2290 1.415 . S
H2292 C2289 0.999 . S
H2293 C2274 0.913 . S
H2294 C2312 0.951 . S
H2295 C2314 0.951 . S
H2296 C2316 0.950 . S
H2297 C2317 0.950 . S
H2298 C2319 0.950 . S
H2299 C2322 0.950 . S
H2300 C2323 0.950 . S
H2301 C2325 0.950 . S
H2302 C2326 0.950 . S
H2303 C2327 0.951 . S
H2304 C2329 0.951 . S
H2305 C2331 0.950 . S
H2306 C2332 0.950 . S
H2307 C2334 0.950 . S
H2308 C2337 0.950 . S
H2309 C2338 0.950 . S
H2310 C2340 0.950 . S
H2311 C2341 0.950 . S
C2312 H2294 0.951 . S
C2312 C2313 1.366 . S
C2312 C2314 1.388 . S
C2313 C2312 1.366 . S
C2313 C2317 1.385 . S
C2314 H2295 0.951 . S
C2314 C2312 1.388 . S
C2314 C2315 1.366 . S
C2315 C2314 1.366 . S
C2315 C2316 1.414 . S
C2315 C2318 1.499 . S
C2316 H2296 0.950 . S
C2316 C2315 1.414 . S
C2316 C2317 1.374 . S
C2317 H2297 0.950 . S
C2317 C2313 1.385 . S
C2317 C2316 1.374 . S
C2318 C2315 1.499 . S
C2318 C2319 1.373 . S
C2318 C2320 1.389 . S
C2319 H2298 0.950 . S
C2319 C2318 1.373 . S
C2319 C2335 1.377 . S
C2320 C2318 1.389 . S
C2320 C2321 1.524 . S
C2320 C2334 1.377 . S
C2321 C2320 1.524 . S
C2321 C2322 1.397 . S
C2321 C2326 1.363 . S
C2322 H2299 0.950 . S
C2322 C2321 1.397 . S
C2322 C2323 1.334 . S
C2323 H2300 0.950 . S
C2323 C2322 1.334 . S
C2323 C2324 1.287 . S
C2324 C2323 1.287 . S
C2324 C2325 1.524 . S
C2324 H2343 0.913 . S
C2325 H2301 0.950 . S
C2325 C2324 1.524 . S
C2325 C2326 1.415 . S
C2326 H2302 0.950 . S
C2326 C2321 1.363 . S
C2326 C2325 1.415 . S
C2327 H2303 0.951 . S
C2327 C2328 1.366 . S
C2327 C2329 1.388 1_565 S
C2328 C2327 1.366 . S
C2328 C2332 1.385 . S
C2329 H2304 0.951 . S
C2329 C2327 1.388 1_545 S
C2329 C2330 1.366 . S
C2330 C2329 1.366 . S
C2330 C2331 1.414 . S
C2330 C2333 1.499 . S
C2331 H2305 0.950 . S
C2331 C2330 1.414 . S
C2331 C2332 1.374 1_545 S
C2332 H2306 0.950 . S
C2332 C2328 1.385 . S
C2332 C2331 1.374 1_565 S
C2333 C2330 1.499 . S
C2333 C2334 1.373 . S
C2333 C2335 1.389 . S
C2334 H2307 0.950 . S
C2334 C2320 1.377 . S
C2334 C2333 1.373 . S
C2335 C2319 1.377 . S
C2335 C2333 1.389 . S
C2335 C2336 1.524 . S
C2336 C2335 1.524 . S
C2336 C2337 1.397 . S
C2336 C2341 1.363 . S
C2337 H2308 0.950 . S
C2337 C2336 1.397 . S
C2337 C2338 1.334 . S
C2338 H2309 0.950 . S
C2338 C2337 1.334 . S
C2338 C2339 1.287 . S
C2339 C2338 1.287 . S
C2339 C2340 1.524 . S
C2339 H2342 0.999 . S
C2340 H2310 0.950 . S
C2340 C2339 1.524 . S
C2340 C2341 1.415 . S
C2341 H2311 0.950 . S
C2341 C2336 1.363 . S
C2341 C2340 1.415 . S
H2342 C2339 0.999 . S
H2343 C2324 0.913 . S
H2344 C2362 0.951 1_556 S
H2345 C2364 0.951 1_556 S
H2346 C2366 0.950 . S
H2347 C2367 0.950 . S
H2348 C2369 0.950 . S
H2349 C2372 0.950 . S
H2350 C2373 0.950 . S
H2351 C2375 0.950 . S
H2352 C2376 0.950 . S
H2353 C2377 0.951 . S
H2354 C2379 0.951 . S
H2355 C2381 0.950 1_556 S
H2356 C2382 0.950 1_556 S
H2357 C2384 0.971 . S
H2358 C2387 0.950 . S
H2359 C2388 0.950 . S
H2360 C2390 0.950 . S
H2361 C2391 0.950 . S
C2362 H2344 0.951 1_554 S
C2362 C2363 1.366 . S
C2362 C2364 1.388 1_655 S
C2363 C2362 1.366 . S
C2363 C2367 1.385 . S
C2364 H2345 0.951 1_554 S
C2364 C2362 1.388 1_455 S
C2364 C2365 1.366 . S
C2365 C2364 1.366 . S
C2365 C2366 1.414 . S
C2365 C2368 1.499 . S
C2366 H2346 0.950 . S
C2366 C2365 1.414 . S
C2366 C2367 1.374 1_455 S
C2367 H2347 0.950 . S
C2367 C2363 1.385 . S
C2367 C2366 1.374 1_655 S
C2368 C2365 1.499 . S
C2368 C2369 1.373 . S
C2368 C2370 1.381 1_554 S
C2369 H2348 0.950 . S
C2369 C2368 1.373 . S
C2369 C2385 1.377 . S
C2370 C2368 1.381 1_556 S
C2370 C2371 1.533 . S
C2370 C2384 1.376 . S
C2371 C2370 1.533 . S
C2371 C2372 1.397 . S
C2371 C2376 1.363 . S
C2372 H2349 0.950 . S
C2372 C2371 1.397 . S
C2372 C2373 1.334 . S
C2373 H2350 0.950 . S
C2373 C2372 1.334 . S
C2373 C2374 1.287 . S
C2374 C2373 1.287 . S
C2374 C2375 1.524 . S
C2374 H2393 0.913 . S
C2375 H2351 0.950 . S
C2375 C2374 1.524 . S
C2375 C2376 1.415 . S
C2376 H2352 0.950 . S
C2376 C2371 1.363 . S
C2376 C2375 1.415 . S
C2377 H2353 0.951 . S
C2377 C2378 1.366 . S
C2377 C2379 1.388 . S
C2378 C2377 1.366 . S
C2378 C2382 1.385 . S
C2379 H2354 0.951 . S
C2379 C2377 1.388 . S
C2379 C2380 1.366 . S
C2380 C2379 1.366 . S
C2380 C2381 1.414 . S
C2380 C2383 1.499 . S
C2381 H2355 0.950 1_554 S
C2381 C2380 1.414 . S
C2381 C2382 1.374 . S
C2382 H2356 0.950 1_554 S
C2382 C2378 1.385 . S
C2382 C2381 1.374 . S
C2383 C2380 1.499 . S
C2383 C2384 1.353 1_554 S
C2383 C2385 1.389 . S
C2384 H2357 0.971 . S
C2384 C2370 1.376 . S
C2384 C2383 1.353 1_556 S
C2385 C2369 1.377 . S
C2385 C2383 1.389 . S
C2385 C2386 1.524 . S
C2386 C2385 1.524 . S
C2386 C2387 1.397 . S
C2386 C2391 1.363 . S
C2387 H2358 0.950 . S
C2387 C2386 1.397 . S
C2387 C2388 1.334 . S
C2388 H2359 0.950 . S
C2388 C2387 1.334 . S
C2388 C2389 1.287 . S
C2389 C2388 1.287 . S
C2389 C2390 1.524 . S
C2389 H2392 0.999 . S
C2390 H2360 0.950 . S
C2390 C2389 1.524 . S
C2390 C2391 1.415 . S
C2391 H2361 0.950 . S
C2391 C2386 1.363 . S
C2391 C2390 1.415 . S
H2392 C2389 0.999 . S
H2393 C2374 0.913 . S
H2394 C2412 0.951 . S
H2395 C2414 0.951 . S
H2396 C2416 0.950 . S
H2397 C2417 0.950 . S
H2398 C2419 0.950 . S
H2399 C2422 0.950 . S
H2400 C2423 0.950 . S
H2401 C2425 0.950 . S
H2402 C2426 0.950 . S
H2403 C2427 0.951 . S
H2404 C2429 0.951 . S
H2405 C2431 0.950 . S
H2406 C2432 0.950 . S
H2407 C2434 0.950 . S
H2408 C2437 0.950 . S
H2409 C2438 0.950 . S
H2410 C2440 0.950 . S
H2411 C2441 0.950 . S
C2412 H2394 0.951 . S
C2412 C2413 1.366 . S
C2412 C2414 1.388 . S
C2413 C2412 1.366 . S
C2413 C2417 1.385 . S
C2414 H2395 0.951 . S
C2414 C2412 1.388 . S
C2414 C2415 1.366 . S
C2415 C2414 1.366 . S
C2415 C2416 1.414 . S
C2415 C2418 1.499 . S
C2416 H2396 0.950 . S
C2416 C2415 1.414 . S
C2416 C2417 1.374 . S
C2417 H2397 0.950 . S
C2417 C2413 1.385 . S
C2417 C2416 1.374 . S
C2418 C2415 1.499 . S
C2418 C2419 1.373 . S
C2418 C2420 1.389 . S
C2419 H2398 0.950 . S
C2419 C2418 1.373 . S
C2419 C2435 1.377 . S
C2420 C2418 1.389 . S
C2420 C2421 1.524 . S
C2420 C2434 1.377 . S
C2421 C2420 1.524 . S
C2421 C2422 1.397 . S
C2421 C2426 1.363 . S
C2422 H2399 0.950 . S
C2422 C2421 1.397 . S
C2422 C2423 1.334 . S
C2423 H2400 0.950 . S
C2423 C2422 1.334 . S
C2423 C2424 1.287 . S
C2424 C2423 1.287 . S
C2424 C2425 1.524 . S
C2424 H2443 0.913 . S
C2425 H2401 0.950 . S
C2425 C2424 1.524 . S
C2425 C2426 1.415 . S
C2426 H2402 0.950 . S
C2426 C2421 1.363 . S
C2426 C2425 1.415 . S
C2427 H2403 0.951 . S
C2427 C2428 1.366 . S
C2427 C2429 1.388 . S
C2428 C2427 1.366 . S
C2428 C2432 1.385 . S
C2429 H2404 0.951 . S
C2429 C2427 1.388 . S
C2429 C2430 1.366 . S
C2430 C2429 1.366 . S
C2430 C2431 1.414 . S
C2430 C2433 1.499 . S
C2431 H2405 0.950 . S
C2431 C2430 1.414 . S
C2431 C2432 1.374 . S
C2432 H2406 0.950 . S
C2432 C2428 1.385 . S
C2432 C2431 1.374 . S
C2433 C2430 1.499 . S
C2433 C2434 1.373 . S
C2433 C2435 1.389 . S
C2434 H2407 0.950 . S
C2434 C2420 1.377 . S
C2434 C2433 1.373 . S
C2435 C2419 1.377 . S
C2435 C2433 1.389 . S
C2435 C2436 1.524 . S
C2436 C2435 1.524 . S
C2436 C2437 1.397 . S
C2436 C2441 1.363 . S
C2437 H2408 0.950 . S
C2437 C2436 1.397 . S
C2437 C2438 1.334 . S
C2438 H2409 0.950 . S
C2438 C2437 1.334 . S
C2438 C2439 1.287 . S
C2439 C2438 1.287 . S
C2439 C2440 1.524 . S
C2439 H2442 0.999 . S
C2440 H2410 0.950 . S
C2440 C2439 1.524 . S
C2440 C2441 1.415 . S
C2441 H2411 0.950 . S
C2441 C2436 1.363 . S
C2441 C2440 1.415 . S
H2442 C2439 0.999 . S
H2443 C2424 0.913 . S
H2444 C2462 0.951 . S
H2445 C2464 0.951 . S
H2446 C2466 0.950 . S
H2447 C2467 0.950 . S
H2448 C2469 0.950 . S
H2449 C2472 0.950 . S
H2450 C2473 0.950 . S
H2451 C2475 0.950 . S
H2452 C2476 0.950 . S
H2453 C2477 0.951 . S
H2454 C2479 0.951 . S
H2455 C2481 0.950 . S
H2456 C2482 0.950 . S
H2457 C2484 0.950 . S
H2458 C2487 0.950 . S
H2459 C2488 0.950 . S
H2460 C2490 0.950 . S
H2461 C2491 0.950 . S
C2462 H2444 0.951 . S
C2462 C2463 1.366 . S
C2462 C2464 1.388 . S
C2463 C2462 1.366 . S
C2463 C2467 1.385 . S
C2464 H2445 0.951 . S
C2464 C2462 1.388 . S
C2464 C2465 1.366 . S
C2465 C2464 1.366 . S
C2465 C2466 1.414 . S
C2465 C2468 1.499 . S
C2466 H2446 0.950 . S
C2466 C2465 1.414 . S
C2466 C2467 1.374 . S
C2467 H2447 0.950 . S
C2467 C2463 1.385 . S
C2467 C2466 1.374 . S
C2468 C2465 1.499 . S
C2468 C2469 1.373 . S
C2468 C2470 1.389 . S
C2469 H2448 0.950 . S
C2469 C2468 1.373 . S
C2469 C2485 1.377 . S
C2470 C2468 1.389 . S
C2470 C2471 1.524 . S
C2470 C2484 1.377 . S
C2471 C2470 1.524 . S
C2471 C2472 1.397 . S
C2471 C2476 1.363 . S
C2472 H2449 0.950 . S
C2472 C2471 1.397 . S
C2472 C2473 1.334 . S
C2473 H2450 0.950 . S
C2473 C2472 1.334 . S
C2473 C2474 1.287 . S
C2474 C2473 1.287 . S
C2474 C2475 1.524 . S
C2474 H2493 0.913 . S
C2475 H2451 0.950 . S
C2475 C2474 1.524 . S
C2475 C2476 1.415 . S
C2476 H2452 0.950 . S
C2476 C2471 1.363 . S
C2476 C2475 1.415 . S
C2477 H2453 0.951 . S
C2477 C2478 1.366 . S
C2477 C2479 1.388 . S
C2478 C2477 1.366 . S
C2478 C2482 1.385 . S
C2479 H2454 0.951 . S
C2479 C2477 1.388 . S
C2479 C2480 1.366 . S
C2480 C2479 1.366 . S
C2480 C2481 1.414 . S
C2480 C2483 1.499 . S
C2481 H2455 0.950 . S
C2481 C2480 1.414 . S
C2481 C2482 1.374 . S
C2482 H2456 0.950 . S
C2482 C2478 1.385 . S
C2482 C2481 1.374 . S
C2483 C2480 1.499 . S
C2483 C2484 1.373 . S
C2483 C2485 1.389 . S
C2484 H2457 0.950 . S
C2484 C2470 1.377 . S
C2484 C2483 1.373 . S
C2485 C2469 1.377 . S
C2485 C2483 1.389 . S
C2485 C2486 1.524 . S
C2486 C2485 1.524 . S
C2486 C2487 1.397 . S
C2486 C2491 1.363 . S
C2487 H2458 0.950 . S
C2487 C2486 1.397 . S
C2487 C2488 1.334 . S
C2488 H2459 0.950 . S
C2488 C2487 1.334 . S
C2488 C2489 1.287 . S
C2489 C2488 1.287 . S
C2489 C2490 1.524 . S
C2489 H2492 0.999 . S
C2490 H2460 0.950 . S
C2490 C2489 1.524 . S
C2490 C2491 1.415 . S
C2491 H2461 0.950 . S
C2491 C2486 1.363 . S
C2491 C2490 1.415 . S
H2492 C2489 0.999 . S
H2493 C2474 0.913 . S
H2494 C2512 0.951 . S
H2495 C2514 0.951 . S
H2496 C2516 0.961 . S
H2497 C2517 0.950 . S
H2498 C2519 0.950 . S
H2499 C2522 0.950 . S
H2500 C2523 0.950 . S
H2501 C2525 0.950 . S
H2502 C2526 0.950 . S
H2503 C2527 0.951 . S
H2504 C2529 0.951 . S
H2505 C2531 0.950 . S
H2506 C2532 0.950 . S
H2507 C2534 0.950 . S
H2508 C2537 0.950 . S
H2509 C2538 0.950 . S
H2510 C2540 0.950 . S
H2511 C2541 0.950 . S
C2512 H2494 0.951 . S
C2512 C2513 1.366 . S
C2512 C2514 1.388 1_545 S
C2513 C2512 1.366 . S
C2513 C2517 1.385 . S
C2514 H2495 0.951 . S
C2514 C2512 1.388 1_565 S
C2514 C2515 1.366 . S
C2515 C2514 1.366 . S
C2515 C2516 1.426 . S
C2515 C2518 1.499 . S
C2516 H2496 0.961 . S
C2516 C2515 1.426 . S
C2516 C2517 1.352 1_565 S
C2517 H2497 0.950 . S
C2517 C2513 1.385 . S
C2517 C2516 1.352 1_545 S
C2518 C2515 1.499 . S
C2518 C2519 1.373 . S
C2518 C2520 1.389 . S
C2519 H2498 0.950 . S
C2519 C2518 1.373 . S
C2519 C2535 1.377 . S
C2520 C2518 1.389 . S
C2520 C2521 1.524 . S
C2520 C2534 1.377 . S
C2521 C2520 1.524 . S
C2521 C2522 1.397 . S
C2521 C2526 1.363 . S
C2522 H2499 0.950 . S
C2522 C2521 1.397 . S
C2522 C2523 1.334 . S
C2523 H2500 0.950 . S
C2523 C2522 1.334 . S
C2523 C2524 1.287 . S
C2524 C2523 1.287 . S
C2524 C2525 1.524 . S
C2524 H2543 0.913 . S
C2525 H2501 0.950 . S
C2525 C2524 1.524 . S
C2525 C2526 1.415 . S
C2526 H2502 0.950 . S
C2526 C2521 1.363 . S
C2526 C2525 1.415 . S
C2527 H2503 0.951 . S
C2527 C2528 1.366 . S
C2527 C2529 1.388 . S
C2528 C2527 1.366 . S
C2528 C2532 1.385 . S
C2529 H2504 0.951 . S
C2529 C2527 1.388 . S
C2529 C2530 1.366 . S
C2530 C2529 1.366 . S
C2530 C2531 1.414 . S
C2530 C2533 1.499 . S
C2531 H2505 0.950 . S
C2531 C2530 1.414 . S
C2531 C2532 1.374 . S
C2532 H2506 0.950 . S
C2532 C2528 1.385 . S
C2532 C2531 1.374 . S
C2533 C2530 1.499 . S
C2533 C2534 1.373 . S
C2533 C2535 1.389 . S
C2534 H2507 0.950 . S
C2534 C2520 1.377 . S
C2534 C2533 1.373 . S
C2535 C2519 1.377 . S
C2535 C2533 1.389 . S
C2535 C2536 1.524 . S
C2536 C2535 1.524 . S
C2536 C2537 1.397 . S
C2536 C2541 1.363 . S
C2537 H2508 0.950 . S
C2537 C2536 1.397 . S
C2537 C2538 1.334 . S
C2538 H2509 0.950 . S
C2538 C2537 1.334 . S
C2538 C2539 1.287 . S
C2539 C2538 1.287 . S
C2539 C2540 1.524 . S
C2539 H2542 0.999 . S
C2540 H2510 0.950 . S
C2540 C2539 1.524 . S
C2540 C2541 1.415 . S
C2541 H2511 0.950 . S
C2541 C2536 1.363 . S
C2541 C2540 1.415 . S
H2542 C2539 0.999 . S
H2543 C2524 0.913 . S
C563 C9 1.618 . S
C578 C311 1.688 . S
C613 C43 1.618 . S
C628 C345 1.688 . S
C663 C379 1.687 . S
C678 C77 1.619 . S
C713 C277 1.687 . S
C728 C111 1.619 . S
C763 C145 1.618 . S
C778 C243 1.688 . S
C813 C141 1.687 . S
C828 C179 1.618 . S
C863 C213 1.618 . S
C878 C175 1.688 . S
C913 C247 1.619 . S
C928 C209 1.687 . S
C963 C39 1.688 . S
C978 C281 1.618 . S
C1013 C73 1.688 . S
C1028 C315 1.618 . S
C1063 C349 1.618 . S
C1078 C107 1.688 . S
C1113 C383 1.618 . S
C1128 C5 1.687 . S
C1163 C515 1.687 . S
C1178 C417 1.619 . S
C1213 C413 1.688 . S
C1228 C451 1.618 . S
C1263 C485 1.619 . S
C1278 C447 1.687 . S
C1313 C519 1.619 . S
C1328 C481 1.687 . S
C1363 C33 1.199 . S
C1378 C373 1.199 . S
C1413 C407 1.199 . S
C1428 C67 1.199 . S
C1463 C305 1.200 . S
C1478 C101 1.200 . S
C1513 C339 1.199 . S
C1528 C135 1.199 . S
C1563 C169 1.199 . S
C1578 C509 1.199 . S
C1613 C203 1.200 . S
C1628 C543 1.200 . S
C1663 C237 1.199 . S
C1678 C441 1.199 . S
C1713 C475 1.199 . S
C1728 C271 1.199 . S
C1763 C206 0.781 . S
C1778 C20 0.785 . S
C1813 C54 0.784 . S
C1828 C240 0.781 . S
C1863 C138 0.781 . S
C1878 C88 0.785 . S
C1913 C172 0.781 . S
C1928 C122 0.785 . S
C1963 C156 0.785 . S
C1978 C70 0.782 . S
C2013 C190 0.785 . S
C2028 C104 0.781 . S
C2063 C2 0.782 . S
C2078 C224 0.784 . S
C2113 C258 0.785 . S
C2128 C36 0.781 . S
C2163 C478 0.782 . S
C2178 C292 0.785 . S
C2213 C326 0.785 . S
C2228 C512 0.781 . S
C2263 C360 0.785 . S
C2278 C410 0.781 . S
C2313 C394 0.785 . S
C2328 C444 0.782 . S
C2363 C342 0.782 . S
C2378 C428 0.785 . S
C2413 C462 0.785 . S
C2428 C376 0.783 . S
C2463 C274 0.782 . S
C2478 C496 0.785 . S
C2513 C308 0.782 . S
C2528 C530 0.785 . S
