# Generated by pormake.
# Topology ecv, (8)-cn, num edge types: 1
# Building blocks:
#     Node 0, Type 0, BuildingBlock: EBIMEJ_clean_sbu_0, # of connection points: 8
#     Node 1, Type 0, BuildingBlock: EBIMEJ_clean_sbu_0, # of connection points: 8
#     Node 2, Type 0, BuildingBlock: EBIMEJ_clean_sbu_0, # of connection points: 8
#     Node 3, Type 0, BuildingBlock: EBIMEJ_clean_sbu_0, # of connection points: 8
#     Node 4, Type 0, BuildingBlock: EBIMEJ_clean_sbu_0, # of connection points: 8
#     Node 5, Type 0, BuildingBlock: EBIMEJ_clean_sbu_0, # of connection points: 8
#     Node 6, Type 0, BuildingBlock: EBIMEJ_clean_sbu_0, # of connection points: 8
#     Node 7, Type 0, BuildingBlock: EBIMEJ_clean_sbu_0, # of connection points: 8
#     Node 8, Type 0, BuildingBlock: EBIMEJ_clean_sbu_0, # of connection points: 8
#     Node 9, Type 0, BuildingBlock: EBIMEJ_clean_sbu_0, # of connection points: 8
#     Node 10, Type 0, BuildingBlock: EBIMEJ_clean_sbu_0, # of connection points: 8
#     Node 11, Type 0, BuildingBlock: EBIMEJ_clean_sbu_0, # of connection points: 8
#     Node 12, Type 0, BuildingBlock: EBIMEJ_clean_sbu_0, # of connection points: 8
#     Node 13, Type 0, BuildingBlock: EBIMEJ_clean_sbu_0, # of connection points: 8
#     Node 14, Type 0, BuildingBlock: EBIMEJ_clean_sbu_0, # of connection points: 8
#     Node 15, Type 0, BuildingBlock: EBIMEJ_clean_sbu_0, # of connection points: 8
#     Edge 16, Type (0, 0), None
#     Edge 17, Type (0, 0), None
#     Edge 18, Type (0, 0), None
#     Edge 19, Type (0, 0), None
#     Edge 20, Type (0, 0), None
#     Edge 21, Type (0, 0), None
#     Edge 22, Type (0, 0), None
#     Edge 23, Type (0, 0), None
#     Edge 24, Type (0, 0), None
#     Edge 25, Type (0, 0), None
#     Edge 26, Type (0, 0), None
#     Edge 27, Type (0, 0), None
#     Edge 28, Type (0, 0), None
#     Edge 29, Type (0, 0), None
#     Edge 30, Type (0, 0), None
#     Edge 31, Type (0, 0), None
#     Edge 32, Type (0, 0), None
#     Edge 33, Type (0, 0), None
#     Edge 34, Type (0, 0), None
#     Edge 35, Type (0, 0), None
#     Edge 36, Type (0, 0), None
#     Edge 37, Type (0, 0), None
#     Edge 38, Type (0, 0), None
#     Edge 39, Type (0, 0), None
#     Edge 40, Type (0, 0), None
#     Edge 41, Type (0, 0), None
#     Edge 42, Type (0, 0), None
#     Edge 43, Type (0, 0), None
#     Edge 44, Type (0, 0), None
#     Edge 45, Type (0, 0), None
#     Edge 46, Type (0, 0), None
#     Edge 47, Type (0, 0), None
#     Edge 48, Type (0, 0), None
#     Edge 49, Type (0, 0), None
#     Edge 50, Type (0, 0), None
#     Edge 51, Type (0, 0), None
#     Edge 52, Type (0, 0), None
#     Edge 53, Type (0, 0), None
#     Edge 54, Type (0, 0), None
#     Edge 55, Type (0, 0), None
#     Edge 56, Type (0, 0), None
#     Edge 57, Type (0, 0), None
#     Edge 58, Type (0, 0), None
#     Edge 59, Type (0, 0), None
#     Edge 60, Type (0, 0), None
#     Edge 61, Type (0, 0), None
#     Edge 62, Type (0, 0), None
#     Edge 63, Type (0, 0), None
#     Edge 64, Type (0, 0), None
#     Edge 65, Type (0, 0), None
#     Edge 66, Type (0, 0), None
#     Edge 67, Type (0, 0), None
#     Edge 68, Type (0, 0), None
#     Edge 69, Type (0, 0), None
#     Edge 70, Type (0, 0), None
#     Edge 71, Type (0, 0), None
#     Edge 72, Type (0, 0), None
#     Edge 73, Type (0, 0), None
#     Edge 74, Type (0, 0), None
#     Edge 75, Type (0, 0), None
#     Edge 76, Type (0, 0), None
#     Edge 77, Type (0, 0), None
#     Edge 78, Type (0, 0), None
#     Edge 79, Type (0, 0), None
# Relax obj value: 0.082
# Max RMSD: 0.175
# Mean RMSD: 0.175
data_MOF--net-ecv--node1-EBIMEJ_clean_sbu_0--edge1-none
_symmetry_space_group_name_H-M    P1
_symmetry_Int_Tables_number       1
_symmetry_cell_setting            triclinic
loop_
_symmetry_equiv_pos_as_xyz
'x, y, z'
_cell_length_a     8.3703628
_cell_length_b     15.656407
_cell_length_c     71.97004
_cell_angle_alpha  101.15075
_cell_angle_beta   89.999999
_cell_angle_gamma 89.999999
loop_
_atom_site_label
_atom_site_type_symbol
_atom_site_fract_x
_atom_site_fract_y
_atom_site_fract_z
_atom_type_partial_charge
Co0 Co 0.22106 0.2675 0.45668 0.0
Co1 Co 0.13919 0.09798 0.47386 0.0
Co2 Co 0.23978 0.25824 0.50024 0.0
H3 H 0.24704 0.23864 0.47788 0.0
O4 O 0.29353 0.18962 0.47342 0.0
H5 H 0.15332 0.11411 0.49618 0.0
O6 O 0.10188 0.16121 0.50103 0.0
Co7 Co 0.19909 0.08296 0.51645 0.0
O8 O 0.07792 0.97975 0.50303 0.0
O9 O 0.98152 1.01463 0.47629 0.0
O10 O 0.29677 0.17675 0.53705 0.0
O11 O 0.21624 0.30038 0.52844 0.0
O12 O 0.36006 0.30029 0.43492 0.0
O13 O 0.3732 0.1776 0.44164 0.0
O14 O 0.36259 0.99213 0.50515 0.0
O15 O 0.31929 1.00129 0.47486 0.0
C16 C 0.39145 0.39402 0.48564 0.0
C17 C 0.03573 0.11566 0.43702 0.0
C18 C 0.06299 0.04428 0.54365 0.0
C19 C 1.00307 0.38519 0.48254 0.0
C20 C 0.98592 0.9681 0.48875 0.0
C21 C 0.26158 0.25767 0.54116 0.0
C22 C 0.4265 0.22698 0.43133 0.0
C23 C 0.38879 0.96407 0.4876 0.0
O24 O 0.31788 0.37687 0.46994 0.0
O25 O 0.38767 0.3493 0.49852 0.0
O26 O 0.11665 0.06462 0.44554 0.0
O27 O 0.04223 0.19828 0.44221 0.0
O28 O 0.19976 1.01669 0.53828 0.0
O29 O 1.00731 0.09709 0.53426 0.0
O30 O 0.05647 0.36399 0.46563 0.0
O31 O 0.05284 0.34391 0.49567 0.0
Co32 Co 0.22106 0.04294 0.89575 0.0
Co33 Co 0.13919 0.21246 0.87857 0.0
Co34 Co 0.23979 0.0522 0.85219 0.0
H35 H 0.24704 0.0718 0.87455 0.0
O36 O 0.29353 0.12082 0.87902 0.0
H37 H 0.15332 0.19633 0.85625 0.0
O38 O 0.10188 0.14923 0.8514 0.0
Co39 Co 0.1991 0.22748 0.83599 0.0
O40 O 0.07792 0.33069 0.84941 0.0
O41 O 0.98153 0.29581 0.87614 0.0
O42 O 0.29677 0.13369 0.81538 0.0
O43 O 0.21624 1.01006 0.824 0.0
O44 O 0.36006 1.01015 0.91751 0.0
O45 O 0.3732 0.13284 0.91079 0.0
O46 O 0.36259 0.31831 0.84728 0.0
O47 O 0.31929 0.30915 0.87757 0.0
C48 C 0.39145 0.91642 0.86679 0.0
C49 C 0.03573 0.19478 0.91541 0.0
C50 C 0.06299 0.26616 0.80878 0.0
C51 C 1.00307 0.92525 0.86989 0.0
C52 C 0.98592 0.34234 0.86368 0.0
C53 C 0.26158 0.05277 0.81128 0.0
C54 C 0.4265 0.08346 0.9211 0.0
C55 C 0.3888 0.34638 0.86483 0.0
O56 O 0.31788 0.93357 0.88249 0.0
O57 O 0.38767 0.96114 0.85392 0.0
O58 O 0.11665 0.24582 0.90689 0.0
O59 O 0.04223 0.11216 0.91023 0.0
O60 O 0.19976 0.29375 0.81416 0.0
O61 O 1.00731 0.21335 0.81817 0.0
O62 O 0.05648 0.94645 0.8868 0.0
O63 O 0.05285 0.96653 0.85676 0.0
Co64 Co 0.83993 0.97748 0.58599 0.0
Co65 Co 0.79924 0.8022 0.60219 0.0
Co66 Co 0.89983 0.96246 0.62857 0.0
H67 H 0.8857 0.94633 0.60625 0.0
O68 O 0.93714 0.89923 0.6014 0.0
H69 H 0.79198 0.8218 0.62455 0.0
O70 O 0.7455 0.87082 0.62902 0.0
Co71 Co 0.81797 0.79293 0.64575 0.0
O72 O 0.72115 0.68357 0.63249 0.0
O73 O 0.65135 0.71114 0.60392 0.0
O74 O 0.99679 0.86216 0.66023 0.0
O75 O 0.92238 0.99582 0.65689 0.0
O76 O 0.83927 0.04375 0.56416 0.0
O77 O 0.03172 0.96336 0.56817 0.0
O78 O 0.98255 0.69644 0.6368 0.0
O79 O 0.98618 0.71653 0.60676 0.0
C80 C 0.0531 0.09234 0.61368 0.0
C81 C 0.77744 0.80277 0.56128 0.0
C82 C 0.61252 0.83346 0.6711 0.0
C83 C 0.65023 0.09637 0.61483 0.0
C84 C 0.64757 0.66642 0.6168 0.0
C85 C 1.00328 0.94478 0.66541 0.0
C86 C 0.97604 1.01618 0.55878 0.0
C87 C 0.03596 0.67525 0.61989 0.0
O88 O 0.9611 0.08069 0.59941 0.0
O89 O 0.0575 0.04581 0.62614 0.0
O90 O 0.82278 0.76006 0.574 0.0
O91 O 0.74226 0.88369 0.56538 0.0
O92 O 0.67896 0.76015 0.66751 0.0
O93 O 0.66582 0.88284 0.66079 0.0
O94 O 0.67643 0.0683 0.59728 0.0
O95 O 0.71973 0.05914 0.62758 0.0
Co96 Co 0.83993 0.83296 0.26645 0.0
Co97 Co 0.79924 1.00824 0.25024 0.0
Co98 Co 0.89983 0.84798 0.22386 0.0
H99 H 0.8857 0.86411 0.24618 0.0
O100 O 0.93714 0.91121 0.25103 0.0
H101 H 0.79198 0.98864 0.22788 0.0
O102 O 0.7455 0.93962 0.22342 0.0
Co103 Co 0.81796 1.01751 0.20668 0.0
O104 O 0.72114 0.12687 0.21994 0.0
O105 O 0.65135 0.0993 0.24852 0.0
O106 O 0.99679 0.94828 0.19221 0.0
O107 O 0.92238 0.81462 0.19554 0.0
O108 O 0.83926 0.76669 0.28827 0.0
O109 O 0.03171 0.84709 0.28426 0.0
O110 O 0.98255 0.114 0.21563 0.0
O111 O 0.98618 0.09391 0.24567 0.0
C112 C 0.0531 0.7181 0.23875 0.0
C113 C 0.77744 1.00767 0.29116 0.0
C114 C 0.61252 0.97698 0.18133 0.0
C115 C 0.65023 0.71407 0.2376 0.0
C116 C 0.64757 0.14402 0.23564 0.0
C117 C 1.00329 0.86566 0.18702 0.0
C118 C 0.97603 0.79428 0.29365 0.0
C119 C 0.03596 0.13519 0.23254 0.0
O120 O 0.9611 0.72976 0.25302 0.0
O121 O 0.0575 0.76463 0.22629 0.0
O122 O 0.82278 0.05038 0.27844 0.0
O123 O 0.74226 0.92675 0.28705 0.0
O124 O 0.67896 0.0503 0.18492 0.0
O125 O 0.66582 0.9276 0.19164 0.0
O126 O 0.67644 0.74213 0.25515 0.0
O127 O 0.71973 0.7513 0.22486 0.0
Co128 Co 0.22106 0.76751 0.95668 0.0
Co129 Co 0.13919 0.59798 0.97386 0.0
Co130 Co 0.23978 0.75824 1.00024 0.0
H131 H 0.24704 0.73864 0.97788 0.0
O132 O 0.29353 0.68962 0.97342 0.0
H133 H 0.15332 0.61411 0.99618 0.0
O134 O 0.10188 0.66121 1.00103 0.0
Co135 Co 0.19909 0.58296 1.01645 0.0
O136 O 0.07792 0.47976 1.00302 0.0
O137 O 0.98153 0.51463 0.97629 0.0
O138 O 0.29677 0.67675 1.03705 0.0
O139 O 0.21624 0.80038 1.02844 0.0
O140 O 0.36006 0.8003 0.93492 0.0
O141 O 0.3732 0.6776 0.94164 0.0
O142 O 0.36259 0.49214 1.00515 0.0
O143 O 0.31929 0.5013 0.97486 0.0
C144 C 0.39145 0.89402 0.98564 0.0
C145 C 0.03573 0.61566 0.93702 0.0
C146 C 0.06299 0.54428 1.04365 0.0
C147 C 1.00307 0.88519 0.98254 0.0
C148 C 0.98592 0.4681 0.98875 0.0
C149 C 0.26158 0.75767 1.04116 0.0
C150 C 0.4265 0.72698 0.93133 0.0
C151 C 0.3888 0.46407 0.9876 0.0
O152 O 0.31788 0.87687 0.96994 0.0
O153 O 0.38767 0.8493 0.99852 0.0
O154 O 0.11665 0.56463 0.94554 0.0
O155 O 0.04223 0.69828 0.94221 0.0
O156 O 0.19976 0.51669 1.03827 0.0
O157 O 1.00731 0.59709 1.03426 0.0
O158 O 0.05648 0.864 0.96563 0.0
O159 O 0.05284 0.84391 0.99567 0.0
Co160 Co 0.22106 0.54293 0.39575 0.0
Co161 Co 0.13919 0.71246 0.37857 0.0
Co162 Co 0.23978 0.5522 0.35219 0.0
H163 H 0.24704 0.5718 0.37455 0.0
O164 O 0.29353 0.62082 0.37902 0.0
H165 H 0.15332 0.69633 0.35625 0.0
O166 O 0.10188 0.64923 0.3514 0.0
Co167 Co 0.19909 0.72748 0.33599 0.0
O168 O 0.07792 0.83069 0.34941 0.0
O169 O 0.98152 0.79581 0.37614 0.0
O170 O 0.29676 0.63369 0.31538 0.0
O171 O 0.21624 0.51006 0.324 0.0
O172 O 0.36006 0.51014 0.41751 0.0
O173 O 0.3732 0.63284 0.41079 0.0
O174 O 0.36259 0.8183 0.34728 0.0
O175 O 0.31929 0.80914 0.37758 0.0
C176 C 0.39145 0.41642 0.3668 0.0
C177 C 0.03573 0.69478 0.41541 0.0
C178 C 0.06298 0.76618 0.30878 0.0
C179 C 1.00307 0.42525 0.36989 0.0
C180 C 0.98592 0.84234 0.36368 0.0
C181 C 0.26158 0.55277 0.31128 0.0
C182 C 0.4265 0.58346 0.42111 0.0
C183 C 0.3888 0.84637 0.36483 0.0
O184 O 0.31788 0.43357 0.38249 0.0
O185 O 0.38767 0.46114 0.35392 0.0
O186 O 0.11665 0.74581 0.40689 0.0
O187 O 0.04223 0.61216 0.41023 0.0
O188 O 0.19975 0.79375 0.31416 0.0
O189 O 1.00731 0.71336 0.31817 0.0
O190 O 0.05648 0.44644 0.3868 0.0
O191 O 0.05284 0.46653 0.35676 0.0
Co192 Co 0.83993 0.47748 0.08599 0.0
Co193 Co 0.79924 0.3022 0.10219 0.0
Co194 Co 0.89983 0.46246 0.12857 0.0
H195 H 0.8857 0.44633 0.10625 0.0
O196 O 0.93714 0.39923 0.1014 0.0
H197 H 0.79198 0.3218 0.12455 0.0
O198 O 0.7455 0.37082 0.12902 0.0
Co199 Co 0.81796 0.29294 0.14575 0.0
O200 O 0.72114 0.18357 0.13249 0.0
O201 O 0.65135 0.21114 0.10392 0.0
O202 O 0.99679 0.36216 0.16023 0.0
O203 O 0.92238 0.49582 0.15689 0.0
O204 O 0.83927 0.54375 0.06416 0.0
O205 O 0.03172 0.46336 0.06817 0.0
O206 O 0.98255 0.19645 0.1368 0.0
O207 O 0.98618 0.21653 0.10676 0.0
C208 C 0.0531 0.59234 0.11368 0.0
C209 C 0.77744 0.30277 0.06127 0.0
C210 C 0.61252 0.33346 0.1711 0.0
C211 C 0.65023 0.59637 0.11483 0.0
C212 C 0.64757 0.16642 0.11679 0.0
C213 C 1.00329 0.44478 0.16541 0.0
C214 C 0.97605 0.51618 0.05878 0.0
C215 C 0.03596 0.17525 0.11989 0.0
O216 O 0.9611 0.58069 0.09941 0.0
O217 O 0.0575 0.54581 0.12614 0.0
O218 O 0.82278 0.26006 0.074 0.0
O219 O 0.74226 0.38369 0.06538 0.0
O220 O 0.67896 0.26015 0.16751 0.0
O221 O 0.66582 0.38284 0.16079 0.0
O222 O 0.67643 0.5683 0.09728 0.0
O223 O 0.71973 0.55915 0.12757 0.0
Co224 Co 0.83993 0.33296 0.76645 0.0
Co225 Co 0.79924 0.50824 0.75024 0.0
Co226 Co 0.89983 0.34798 0.72386 0.0
H227 H 0.8857 0.36411 0.74618 0.0
O228 O 0.93714 0.41121 0.75103 0.0
H229 H 0.79198 0.48864 0.72788 0.0
O230 O 0.7455 0.43962 0.72342 0.0
Co231 Co 0.81797 0.51751 0.70668 0.0
O232 O 0.72115 0.62687 0.71994 0.0
O233 O 0.65135 0.5993 0.74852 0.0
O234 O 0.99679 0.44828 0.69221 0.0
O235 O 0.92238 0.31462 0.69554 0.0
O236 O 0.83927 0.26669 0.78827 0.0
O237 O 0.03172 0.34708 0.78426 0.0
O238 O 0.98255 0.614 0.71563 0.0
O239 O 0.98618 0.59391 0.74567 0.0
C240 C 0.0531 0.2181 0.73875 0.0
C241 C 0.77744 0.50767 0.79116 0.0
C242 C 0.61252 0.47698 0.68133 0.0
C243 C 0.65023 0.21407 0.7376 0.0
C244 C 0.64758 0.64402 0.73564 0.0
C245 C 1.00328 0.36566 0.68702 0.0
C246 C 0.97605 0.29426 0.79365 0.0
C247 C 0.03596 0.63519 0.73254 0.0
O248 O 0.9611 0.22975 0.75302 0.0
O249 O 0.0575 0.26463 0.72629 0.0
O250 O 0.82278 0.55038 0.77844 0.0
O251 O 0.74226 0.42675 0.78705 0.0
O252 O 0.67896 0.55029 0.68492 0.0
O253 O 0.66582 0.4276 0.69164 0.0
O254 O 0.67643 0.24214 0.75515 0.0
O255 O 0.71973 0.2513 0.72486 0.0
Co256 Co 0.72107 0.26748 0.95668 0.0
Co257 Co 0.63912 0.09798 0.97386 0.0
Co258 Co 0.73985 0.25824 1.00023 0.0
H259 H 0.74706 0.23862 0.97788 0.0
O260 O 0.79351 0.18959 0.97341 0.0
H261 H 0.65328 0.11413 0.99618 0.0
O262 O 0.60188 0.16124 1.00103 0.0
Co263 Co 0.69907 0.08298 1.01645 0.0
O264 O 0.57779 0.9798 1.00303 0.0
O265 O 0.48138 1.01468 0.9763 0.0
O266 O 0.79682 0.17676 1.03705 0.0
O267 O 0.71636 0.30039 1.02843 0.0
O268 O 0.86022 0.30031 0.93493 0.0
O269 O 0.87301 0.17753 0.94162 0.0
O270 O 0.86252 0.99213 1.00515 0.0
O271 O 0.81917 1.00127 0.97486 0.0
C272 C 0.89162 0.39396 0.98562 0.0
C273 C 0.53571 0.11563 0.93701 0.0
C274 C 0.56299 0.04429 1.04365 0.0
C275 C 0.50318 0.38521 0.98254 0.0
C276 C 0.4857 0.96819 0.98877 0.0
C277 C 0.76168 0.25769 1.04115 0.0
C278 C 0.9264 0.22693 0.93131 0.0
C279 C 0.88868 0.96405 0.9876 0.0
O280 O 0.81801 0.37682 0.96993 0.0
O281 O 0.88781 0.34925 0.99851 0.0
O282 O 0.61656 0.0646 0.94554 0.0
O283 O 0.54225 0.19825 0.9422 0.0
O284 O 0.69974 1.01668 1.03827 0.0
O285 O 0.50733 0.09712 1.03427 0.0
O286 O 0.55654 0.36399 0.96562 0.0
O287 O 0.55296 0.34394 0.99567 0.0
Co288 Co 0.72107 0.04296 0.39576 0.0
Co289 Co 0.63912 0.21246 0.37857 0.0
Co290 Co 0.73985 0.05221 0.3522 0.0
H291 H 0.74706 0.07182 0.37456 0.0
O292 O 0.79351 0.12085 0.37902 0.0
H293 H 0.65328 0.19631 0.35625 0.0
O294 O 0.60187 0.1492 0.3514 0.0
Co295 Co 0.69906 0.22746 0.33598 0.0
O296 O 0.57779 0.33064 0.3494 0.0
O297 O 0.48138 0.29576 0.37613 0.0
O298 O 0.79682 0.13368 0.31538 0.0
O299 O 0.71636 1.01005 0.324 0.0
O300 O 0.86022 1.01013 0.4175 0.0
O301 O 0.87301 0.13291 0.41082 0.0
O302 O 0.86251 0.31831 0.34728 0.0
O303 O 0.81917 0.30917 0.37757 0.0
C304 C 0.89162 0.91648 0.36681 0.0
C305 C 0.53571 0.19481 0.41542 0.0
C306 C 0.56299 0.26616 0.30878 0.0
C307 C 0.50318 0.92523 0.36989 0.0
C308 C 0.4857 0.34225 0.36366 0.0
C309 C 0.76167 0.05275 0.31128 0.0
C310 C 0.9264 0.08351 0.42112 0.0
C311 C 0.88868 0.34639 0.36483 0.0
O312 O 0.81801 0.93362 0.3825 0.0
O313 O 0.88781 0.96119 0.35393 0.0
O314 O 0.61656 0.24584 0.40689 0.0
O315 O 0.54225 0.11219 0.41024 0.0
O316 O 0.69974 0.29376 0.31416 0.0
O317 O 0.50732 0.21332 0.31817 0.0
O318 O 0.55654 0.94645 0.38681 0.0
O319 O 0.55296 0.9665 0.35676 0.0
Co320 Co 0.33996 0.97746 0.08598 0.0
Co321 Co 0.29917 0.80221 0.1022 0.0
Co322 Co 0.3999 0.96246 0.12857 0.0
H323 H 0.38574 0.94631 0.10625 0.0
O324 O 0.43715 0.8992 0.1014 0.0
H325 H 0.29196 0.82183 0.12456 0.0
O326 O 0.24551 0.87086 0.12902 0.0
Co327 Co 0.31795 0.79296 0.14576 0.0
O328 O 0.22101 0.68362 0.1325 0.0
O329 O 0.15121 0.71119 0.10393 0.0
O330 O 0.49678 0.86219 0.16024 0.0
O331 O 0.42246 0.99584 0.15689 0.0
O332 O 0.3393 0.04377 0.06416 0.0
O333 O 0.5317 0.96332 0.06817 0.0
O334 O 0.48248 0.69645 0.13681 0.0
O335 O 0.48606 0.7165 0.10676 0.0
C336 C 0.55332 0.09225 0.11366 0.0
C337 C 0.27735 0.80276 0.06128 0.0
C338 C 0.11262 0.83351 0.17112 0.0
C339 C 0.15034 0.09639 0.11483 0.0
C340 C 0.1474 0.66648 0.11681 0.0
C341 C 0.50331 0.94481 0.16542 0.0
C342 C 0.47605 1.01617 0.05878 0.0
C343 C 0.53584 0.67523 0.11989 0.0
O344 O 0.46123 0.08064 0.0994 0.0
O345 O 0.55764 0.04576 0.12613 0.0
O346 O 0.32266 0.76005 0.074 0.0
O347 O 0.24221 0.88368 0.06538 0.0
O348 O 0.1788 0.76013 0.1675 0.0
O349 O 0.16601 0.88292 0.16082 0.0
O350 O 0.1765 0.06831 0.09728 0.0
O351 O 0.21986 0.05917 0.12757 0.0
Co352 Co 0.33996 0.83298 0.76645 0.0
Co353 Co 0.29917 1.00823 0.75023 0.0
Co354 Co 0.3999 0.84798 0.72386 0.0
H355 H 0.38574 0.86413 0.74618 0.0
O356 O 0.43715 0.91124 0.75103 0.0
H357 H 0.29196 0.98862 0.72788 0.0
O358 O 0.24551 0.93959 0.72341 0.0
Co359 Co 0.31795 1.01748 0.70668 0.0
O360 O 0.22101 0.12682 0.71993 0.0
O361 O 0.15121 0.09925 0.74851 0.0
O362 O 0.49678 0.94825 0.6922 0.0
O363 O 0.42246 0.8146 0.69555 0.0
O364 O 0.33929 0.76668 0.78827 0.0
O365 O 0.5317 0.84712 0.78427 0.0
O366 O 0.48248 0.11399 0.71562 0.0
O367 O 0.48606 0.09394 0.74567 0.0
C368 C 0.55333 0.71819 0.73877 0.0
C369 C 0.27735 1.00769 0.79115 0.0
C370 C 0.11262 0.97693 0.68131 0.0
C371 C 0.15034 0.71405 0.7376 0.0
C372 C 0.14741 0.14396 0.73562 0.0
C373 C 0.50331 0.86563 0.68701 0.0
C374 C 0.47603 0.79429 0.79365 0.0
C375 C 0.53584 0.13521 0.73254 0.0
O376 O 0.46123 0.7298 0.75303 0.0
O377 O 0.55764 0.76468 0.7263 0.0
O378 O 0.32266 0.05039 0.77843 0.0
O379 O 0.24221 0.92676 0.78705 0.0
O380 O 0.1788 0.05031 0.68493 0.0
O381 O 0.16601 0.92753 0.69162 0.0
O382 O 0.17651 0.74213 0.75515 0.0
O383 O 0.21986 0.75127 0.72486 0.0
Co384 Co 0.72107 0.76748 0.45668 0.0
Co385 Co 0.63912 0.59798 0.47386 0.0
Co386 Co 0.73985 0.75823 0.50024 0.0
H387 H 0.74706 0.73861 0.47788 0.0
O388 O 0.79351 0.68958 0.47341 0.0
H389 H 0.65328 0.61413 0.49618 0.0
O390 O 0.60187 0.66124 0.50103 0.0
Co391 Co 0.69906 0.58298 0.51645 0.0
O392 O 0.57779 0.4798 0.50303 0.0
O393 O 0.48138 0.51468 0.4763 0.0
O394 O 0.79682 0.67676 0.53705 0.0
O395 O 0.71636 0.80039 0.52843 0.0
O396 O 0.86022 0.80031 0.43493 0.0
O397 O 0.87301 0.67752 0.44162 0.0
O398 O 0.86251 0.49213 0.50515 0.0
O399 O 0.81916 0.50127 0.47486 0.0
C400 C 0.89162 0.89396 0.48563 0.0
C401 C 0.5357 0.61563 0.43702 0.0
C402 C 0.56299 0.54428 0.54366 0.0
C403 C 0.50318 0.88521 0.48254 0.0
C404 C 0.4857 0.46819 0.48877 0.0
C405 C 0.76167 0.75768 0.54115 0.0
C406 C 0.9264 0.72693 0.43131 0.0
C407 C 0.88868 0.46404 0.4876 0.0
O408 O 0.81801 0.87682 0.46993 0.0
O409 O 0.88781 0.84925 0.49851 0.0
O410 O 0.61656 0.5646 0.44555 0.0
O411 O 0.54225 0.69825 0.4422 0.0
O412 O 0.69974 0.51668 0.53827 0.0
O413 O 0.50732 0.59712 0.53427 0.0
O414 O 0.55654 0.86399 0.46563 0.0
O415 O 0.55296 0.84394 0.49567 0.0
Co416 Co 0.72107 0.54296 0.89576 0.0
Co417 Co 0.63912 0.71246 0.87857 0.0
Co418 Co 0.73985 0.55221 0.8522 0.0
H419 H 0.74706 0.57183 0.87456 0.0
O420 O 0.79351 0.62086 0.87902 0.0
H421 H 0.65328 0.69631 0.85625 0.0
O422 O 0.60188 0.6492 0.8514 0.0
Co423 Co 0.69907 0.72746 0.83598 0.0
O424 O 0.5778 0.83064 0.8494 0.0
O425 O 0.48138 0.79576 0.87613 0.0
O426 O 0.79681 0.63368 0.81538 0.0
O427 O 0.71636 0.51005 0.824 0.0
O428 O 0.86022 0.51014 0.9175 0.0
O429 O 0.87301 0.63292 0.91082 0.0
O430 O 0.86252 0.81831 0.84728 0.0
O431 O 0.81917 0.80917 0.87757 0.0
C432 C 0.89162 0.41648 0.86681 0.0
C433 C 0.53571 0.69481 0.91542 0.0
C434 C 0.56298 0.76617 0.80878 0.0
C435 C 0.50318 0.42523 0.86989 0.0
C436 C 0.4857 0.84225 0.86366 0.0
C437 C 0.76167 0.55276 0.81128 0.0
C438 C 0.92641 0.58351 0.92112 0.0
C439 C 0.88868 0.84639 0.86483 0.0
O440 O 0.81801 0.43362 0.8825 0.0
O441 O 0.88781 0.46119 0.85393 0.0
O442 O 0.61656 0.74584 0.90689 0.0
O443 O 0.54225 0.61219 0.91024 0.0
O444 O 0.69973 0.79377 0.81416 0.0
O445 O 0.50732 0.71332 0.81817 0.0
O446 O 0.55654 0.44645 0.88681 0.0
O447 O 0.55296 0.4665 0.85676 0.0
Co448 Co 0.33996 0.47746 0.58598 0.0
Co449 Co 0.29917 0.3022 0.6022 0.0
Co450 Co 0.3999 0.46246 0.62857 0.0
H451 H 0.38574 0.44631 0.60625 0.0
O452 O 0.43715 0.3992 0.6014 0.0
H453 H 0.29196 0.32182 0.62456 0.0
O454 O 0.24551 0.37085 0.62902 0.0
Co455 Co 0.31795 0.29296 0.64576 0.0
O456 O 0.22101 0.18362 0.6325 0.0
O457 O 0.15121 0.21119 0.60393 0.0
O458 O 0.49678 0.36219 0.66024 0.0
O459 O 0.42246 0.49584 0.65689 0.0
O460 O 0.33929 0.54376 0.56416 0.0
O461 O 0.53171 0.46332 0.56817 0.0
O462 O 0.48248 0.19645 0.63681 0.0
O463 O 0.48606 0.2165 0.60676 0.0
C464 C 0.55332 0.59225 0.61366 0.0
C465 C 0.27735 0.30275 0.56128 0.0
C466 C 0.11262 0.33351 0.67112 0.0
C467 C 0.15034 0.59639 0.61483 0.0
C468 C 0.1474 0.16648 0.61681 0.0
C469 C 0.50331 0.44481 0.66542 0.0
C470 C 0.47605 0.51617 0.55878 0.0
C471 C 0.53584 0.17523 0.61989 0.0
O472 O 0.46123 0.58064 0.5994 0.0
O473 O 0.55764 0.54576 0.62613 0.0
O474 O 0.32266 0.26005 0.574 0.0
O475 O 0.24221 0.38368 0.56538 0.0
O476 O 0.1788 0.26013 0.6675 0.0
O477 O 0.16601 0.38291 0.66082 0.0
O478 O 0.1765 0.56831 0.59728 0.0
O479 O 0.21986 0.55917 0.62757 0.0
Co480 Co 0.33996 0.33298 0.26645 0.0
Co481 Co 0.29917 0.50823 0.25024 0.0
Co482 Co 0.3999 0.34798 0.22386 0.0
H483 H 0.38574 0.36413 0.24618 0.0
O484 O 0.43715 0.41124 0.25103 0.0
H485 H 0.29196 0.48861 0.22788 0.0
O486 O 0.24551 0.43958 0.22341 0.0
Co487 Co 0.31795 0.51748 0.20668 0.0
O488 O 0.22101 0.62682 0.21993 0.0
O489 O 0.15121 0.59925 0.24851 0.0
O490 O 0.49678 0.44825 0.1922 0.0
O491 O 0.42246 0.3146 0.19555 0.0
O492 O 0.33929 0.26668 0.28827 0.0
O493 O 0.53171 0.34712 0.28427 0.0
O494 O 0.48248 0.61399 0.21563 0.0
O495 O 0.48606 0.59394 0.24567 0.0
C496 C 0.55332 0.21819 0.23877 0.0
C497 C 0.27735 0.50768 0.29115 0.0
C498 C 0.11262 0.47693 0.18131 0.0
C499 C 0.15034 0.21405 0.2376 0.0
C500 C 0.14741 0.64396 0.23562 0.0
C501 C 0.50331 0.36563 0.18701 0.0
C502 C 0.47605 0.29427 0.29365 0.0
C503 C 0.53584 0.63521 0.23254 0.0
O504 O 0.46123 0.2298 0.25303 0.0
O505 O 0.55764 0.26468 0.2263 0.0
O506 O 0.32266 0.55039 0.27843 0.0
O507 O 0.24221 0.42676 0.28705 0.0
O508 O 0.1788 0.55031 0.18493 0.0
O509 O 0.16601 0.42753 0.19162 0.0
O510 O 0.1765 0.24213 0.25515 0.0
O511 O 0.21986 0.25127 0.22486 0.0
loop_
_geom_bond_atom_site_label_1
_geom_bond_atom_site_label_2
_geom_bond_distance
_geom_bond_site_symmetry_2
_ccdc_geom_bond_type
Co0 H3 2.400 . S
Co0 O4 2.009 . S
Co0 O12 2.115 . S
Co0 O13 2.315 . S
Co0 O24 2.053 . S
Co0 O27 2.094 . S
Co0 O30 2.122 . S
Co1 O4 2.126 . S
Co1 H5 2.388 . S
Co1 O6 2.053 . S
Co1 O9 2.047 1_445 S
Co1 O15 2.113 1_545 S
Co1 O26 2.063 . S
Co2 H3 2.388 . S
Co2 O4 2.053 . S
Co2 O6 2.126 . S
Co2 O11 2.063 . S
Co2 O25 2.047 . S
Co2 O31 2.113 . S
H3 Co0 2.400 . S
H3 Co2 2.388 . S
H3 O4 0.760 . S
O4 Co0 2.009 . S
O4 Co1 2.126 . S
O4 Co2 2.053 . S
O4 H3 0.760 . S
H5 Co1 2.388 . S
H5 O6 0.760 . S
H5 Co7 2.400 . S
O6 Co1 2.053 . S
O6 Co2 2.126 . S
O6 H5 0.760 . S
O6 Co7 2.009 . S
Co7 H5 2.400 . S
Co7 O6 2.009 . S
Co7 O8 2.053 1_445 S
Co7 O10 2.094 . S
Co7 O14 2.122 1_545 S
Co7 O28 2.115 1_545 S
Co7 O29 2.315 1_455 S
O8 Co7 2.053 1_665 S
O8 C20 1.259 . S
O9 Co1 2.047 1_665 S
O9 C20 1.257 . S
O10 Co7 2.094 . S
O10 C21 1.253 . S
O11 Co2 2.063 . S
O11 C21 1.268 . S
O12 Co0 2.115 . S
O12 C22 1.281 . S
O13 Co0 2.315 . S
O13 C22 1.252 . S
O14 Co7 2.122 1_565 S
O14 C23 1.272 . S
O15 Co1 2.113 1_565 S
O15 C23 1.245 . S
C16 O24 1.259 . S
C16 O25 1.257 . S
C17 O26 1.268 . S
C17 O27 1.253 . S
C18 O28 1.281 1_545 S
C18 O29 1.252 1_455 S
C19 O30 1.272 . S
C19 O31 1.245 . S
C20 O8 1.259 . S
C20 O9 1.257 . S
C21 O10 1.253 . S
C21 O11 1.268 . S
C22 O12 1.281 . S
C22 O13 1.252 . S
C23 O14 1.272 . S
C23 O15 1.245 . S
O24 Co0 2.053 . S
O24 C16 1.259 . S
O25 Co2 2.047 . S
O25 C16 1.257 . S
O26 Co1 2.063 . S
O26 C17 1.268 . S
O27 Co0 2.094 . S
O27 C17 1.253 . S
O28 Co7 2.115 1_565 S
O28 C18 1.281 1_565 S
O29 Co7 2.315 1_655 S
O29 C18 1.252 1_655 S
O30 Co0 2.122 . S
O30 C19 1.272 . S
O31 Co2 2.113 . S
O31 C19 1.245 . S
Co32 H35 2.400 . S
Co32 O36 2.009 . S
Co32 O44 2.115 1_545 S
Co32 O45 2.315 . S
Co32 O56 2.053 1_545 S
Co32 O59 2.094 . S
Co32 O62 2.122 1_545 S
Co33 O36 2.126 . S
Co33 H37 2.388 . S
Co33 O38 2.053 . S
Co33 O41 2.047 1_455 S
Co33 O47 2.113 . S
Co33 O58 2.063 . S
Co34 H35 2.388 . S
Co34 O36 2.053 . S
Co34 O38 2.126 . S
Co34 O43 2.063 1_545 S
Co34 O57 2.047 1_545 S
Co34 O63 2.113 1_545 S
H35 Co32 2.400 . S
H35 Co34 2.388 . S
H35 O36 0.760 . S
O36 Co32 2.009 . S
O36 Co33 2.126 . S
O36 Co34 2.053 . S
O36 H35 0.760 . S
H37 Co33 2.388 . S
H37 O38 0.760 . S
H37 Co39 2.400 . S
O38 Co33 2.053 . S
O38 Co34 2.126 . S
O38 H37 0.760 . S
O38 Co39 2.009 . S
Co39 H37 2.400 . S
Co39 O38 2.009 . S
Co39 O40 2.053 1_455 S
Co39 O42 2.094 . S
Co39 O46 2.122 . S
Co39 O60 2.115 . S
Co39 O61 2.315 1_455 S
O40 Co39 2.053 1_655 S
O40 C52 1.259 . S
O41 Co33 2.047 1_655 S
O41 C52 1.257 . S
O42 Co39 2.094 . S
O42 C53 1.253 . S
O43 Co34 2.063 1_565 S
O43 C53 1.268 1_565 S
O44 Co32 2.115 1_565 S
O44 C54 1.281 1_565 S
O45 Co32 2.315 . S
O45 C54 1.252 . S
O46 Co39 2.122 . S
O46 C55 1.272 . S
O47 Co33 2.113 . S
O47 C55 1.245 . S
C48 O56 1.259 . S
C48 O57 1.257 . S
C49 O58 1.268 . S
C49 O59 1.253 . S
C50 O60 1.281 . S
C50 O61 1.252 1_455 S
C51 O62 1.272 . S
C51 O63 1.245 . S
C52 O40 1.259 . S
C52 O41 1.257 . S
C53 O42 1.253 . S
C53 O43 1.268 1_545 S
C54 O44 1.281 1_545 S
C54 O45 1.252 . S
C55 O46 1.272 . S
C55 O47 1.245 . S
O56 Co32 2.053 1_565 S
O56 C48 1.259 . S
O57 Co34 2.047 1_565 S
O57 C48 1.257 . S
O58 Co33 2.063 . S
O58 C49 1.268 . S
O59 Co32 2.094 . S
O59 C49 1.253 . S
O60 Co39 2.115 . S
O60 C50 1.281 . S
O61 Co39 2.315 1_655 S
O61 C50 1.252 1_655 S
O62 Co32 2.122 1_565 S
O62 C51 1.272 . S
O63 Co34 2.113 1_565 S
O63 C51 1.245 . S
Co64 H67 2.400 . S
Co64 O68 2.009 . S
Co64 O76 2.115 1_565 S
Co64 O77 2.315 1_655 S
Co64 O88 2.053 1_665 S
Co64 O91 2.094 . S
Co64 O94 2.122 1_565 S
Co65 O68 2.126 . S
Co65 H69 2.388 . S
Co65 O70 2.053 . S
Co65 O73 2.047 . S
Co65 O79 2.113 . S
Co65 O90 2.063 . S
Co66 H67 2.388 . S
Co66 O68 2.053 . S
Co66 O70 2.126 . S
Co66 O75 2.063 . S
Co66 O89 2.047 1_665 S
Co66 O95 2.113 1_565 S
H67 Co64 2.400 . S
H67 Co66 2.388 . S
H67 O68 0.760 . S
O68 Co64 2.009 . S
O68 Co65 2.126 . S
O68 Co66 2.053 . S
O68 H67 0.760 . S
H69 Co65 2.388 . S
H69 O70 0.760 . S
H69 Co71 2.400 . S
O70 Co65 2.053 . S
O70 Co66 2.126 . S
O70 H69 0.760 . S
O70 Co71 2.009 . S
Co71 H69 2.400 . S
Co71 O70 2.009 . S
Co71 O72 2.053 . S
Co71 O74 2.094 . S
Co71 O78 2.122 . S
Co71 O92 2.115 . S
Co71 O93 2.315 . S
O72 Co71 2.053 . S
O72 C84 1.259 . S
O73 Co65 2.047 . S
O73 C84 1.257 . S
O74 Co71 2.094 . S
O74 C85 1.253 . S
O75 Co66 2.063 . S
O75 C85 1.268 . S
O76 Co64 2.115 1_545 S
O76 C86 1.281 1_545 S
O77 Co64 2.315 1_455 S
O77 C86 1.252 1_455 S
O78 Co71 2.122 . S
O78 C87 1.272 . S
O79 Co65 2.113 . S
O79 C87 1.245 . S
C80 O88 1.259 . S
C80 O89 1.257 . S
C81 O90 1.268 . S
C81 O91 1.253 . S
C82 O92 1.281 . S
C82 O93 1.252 . S
C83 O94 1.272 . S
C83 O95 1.245 . S
C84 O72 1.259 . S
C84 O73 1.257 . S
C85 O74 1.253 . S
C85 O75 1.268 . S
C86 O76 1.281 1_565 S
C86 O77 1.252 1_655 S
C87 O78 1.272 . S
C87 O79 1.245 . S
O88 Co64 2.053 1_445 S
O88 C80 1.259 . S
O89 Co66 2.047 1_445 S
O89 C80 1.257 . S
O90 Co65 2.063 . S
O90 C81 1.268 . S
O91 Co64 2.094 . S
O91 C81 1.253 . S
O92 Co71 2.115 . S
O92 C82 1.281 . S
O93 Co71 2.315 . S
O93 C82 1.252 . S
O94 Co64 2.122 1_545 S
O94 C83 1.272 . S
O95 Co66 2.113 1_545 S
O95 C83 1.245 . S
Co96 H99 2.400 . S
Co96 O100 2.009 . S
Co96 O108 2.115 . S
Co96 O109 2.315 1_655 S
Co96 O120 2.053 1_655 S
Co96 O123 2.094 . S
Co96 O126 2.122 . S
Co97 O100 2.126 . S
Co97 H101 2.388 . S
Co97 O102 2.053 . S
Co97 O105 2.047 1_565 S
Co97 O111 2.113 1_565 S
Co97 O122 2.063 1_565 S
Co98 H99 2.388 . S
Co98 O100 2.053 . S
Co98 O102 2.126 . S
Co98 O107 2.063 . S
Co98 O121 2.047 1_655 S
Co98 O127 2.113 . S
H99 Co96 2.400 . S
H99 Co98 2.388 . S
H99 O100 0.760 . S
O100 Co96 2.009 . S
O100 Co97 2.126 . S
O100 Co98 2.053 . S
O100 H99 0.760 . S
H101 Co97 2.388 . S
H101 O102 0.760 . S
H101 Co103 2.400 . S
O102 Co97 2.053 . S
O102 Co98 2.126 . S
O102 H101 0.760 . S
O102 Co103 2.009 . S
Co103 H101 2.400 . S
Co103 O102 2.009 . S
Co103 O104 2.053 1_565 S
Co103 O106 2.094 . S
Co103 O110 2.122 1_565 S
Co103 O124 2.115 1_565 S
Co103 O125 2.315 . S
O104 Co103 2.053 1_545 S
O104 C116 1.259 . S
O105 Co97 2.047 1_545 S
O105 C116 1.257 . S
O106 Co103 2.094 . S
O106 C117 1.253 . S
O107 Co98 2.063 . S
O107 C117 1.268 . S
O108 Co96 2.115 . S
O108 C118 1.281 . S
O109 Co96 2.315 1_455 S
O109 C118 1.252 1_455 S
O110 Co103 2.122 1_545 S
O110 C119 1.272 . S
O111 Co97 2.113 1_545 S
O111 C119 1.245 . S
C112 O120 1.259 . S
C112 O121 1.257 . S
C113 O122 1.268 1_565 S
C113 O123 1.253 . S
C114 O124 1.281 1_565 S
C114 O125 1.252 . S
C115 O126 1.272 . S
C115 O127 1.245 . S
C116 O104 1.259 . S
C116 O105 1.257 . S
C117 O106 1.253 . S
C117 O107 1.268 . S
C118 O108 1.281 . S
C118 O109 1.252 1_655 S
C119 O110 1.272 . S
C119 O111 1.245 . S
O120 Co96 2.053 1_455 S
O120 C112 1.259 . S
O121 Co98 2.047 1_455 S
O121 C112 1.257 . S
O122 Co97 2.063 1_545 S
O122 C113 1.268 1_545 S
O123 Co96 2.094 . S
O123 C113 1.253 . S
O124 Co103 2.115 1_545 S
O124 C114 1.281 1_545 S
O125 Co103 2.315 . S
O125 C114 1.252 . S
O126 Co96 2.122 . S
O126 C115 1.272 . S
O127 Co98 2.113 . S
O127 C115 1.245 . S
Co128 H131 2.400 . S
Co128 O132 2.009 . S
Co128 O140 2.115 . S
Co128 O141 2.315 . S
Co128 O152 2.053 . S
Co128 O155 2.094 . S
Co128 O158 2.122 . S
Co129 O132 2.126 . S
Co129 H133 2.388 . S
Co129 O134 2.053 . S
Co129 O137 2.047 1_455 S
Co129 O143 2.113 . S
Co129 O154 2.063 . S
Co130 H131 2.388 . S
Co130 O132 2.053 . S
Co130 O134 2.126 . S
Co130 O139 2.063 . S
Co130 O153 2.047 . S
Co130 O159 2.113 . S
H131 Co128 2.400 . S
H131 Co130 2.388 . S
H131 O132 0.760 . S
O132 Co128 2.009 . S
O132 Co129 2.126 . S
O132 Co130 2.053 . S
O132 H131 0.760 . S
H133 Co129 2.388 . S
H133 O134 0.760 . S
H133 Co135 2.400 . S
O134 Co129 2.053 . S
O134 Co130 2.126 . S
O134 H133 0.760 . S
O134 Co135 2.009 . S
Co135 H133 2.400 . S
Co135 O134 2.009 . S
Co135 O136 2.053 1_455 S
Co135 O138 2.094 . S
Co135 O142 2.122 . S
Co135 O156 2.115 . S
Co135 O157 2.315 1_455 S
O136 Co135 2.053 1_655 S
O136 C148 1.259 . S
O137 Co129 2.047 1_655 S
O137 C148 1.257 . S
O138 Co135 2.094 . S
O138 C149 1.253 . S
O139 Co130 2.063 . S
O139 C149 1.268 . S
O140 Co128 2.115 . S
O140 C150 1.281 . S
O141 Co128 2.315 . S
O141 C150 1.252 . S
O142 Co135 2.122 . S
O142 C151 1.272 . S
O143 Co129 2.113 . S
O143 C151 1.245 . S
C144 O152 1.259 . S
C144 O153 1.257 . S
C145 O154 1.268 . S
C145 O155 1.253 . S
C146 O156 1.281 . S
C146 O157 1.252 1_455 S
C147 O158 1.272 . S
C147 O159 1.245 . S
C148 O136 1.259 . S
C148 O137 1.257 . S
C149 O138 1.253 . S
C149 O139 1.268 . S
C150 O140 1.281 . S
C150 O141 1.252 . S
C151 O142 1.272 . S
C151 O143 1.245 . S
O152 Co128 2.053 . S
O152 C144 1.259 . S
O153 Co130 2.047 . S
O153 C144 1.257 . S
O154 Co129 2.063 . S
O154 C145 1.268 . S
O155 Co128 2.094 . S
O155 C145 1.253 . S
O156 Co135 2.115 . S
O156 C146 1.281 . S
O157 Co135 2.315 1_655 S
O157 C146 1.252 1_655 S
O158 Co128 2.122 . S
O158 C147 1.272 . S
O159 Co130 2.113 . S
O159 C147 1.245 . S
Co160 H163 2.400 . S
Co160 O164 2.009 . S
Co160 O172 2.115 . S
Co160 O173 2.315 . S
Co160 O184 2.053 . S
Co160 O187 2.094 . S
Co160 O190 2.122 . S
Co161 O164 2.126 . S
Co161 H165 2.388 . S
Co161 O166 2.053 . S
Co161 O169 2.047 1_455 S
Co161 O175 2.113 . S
Co161 O186 2.063 . S
Co162 H163 2.388 . S
Co162 O164 2.053 . S
Co162 O166 2.126 . S
Co162 O171 2.063 . S
Co162 O185 2.047 . S
Co162 O191 2.113 . S
H163 Co160 2.400 . S
H163 Co162 2.388 . S
H163 O164 0.760 . S
O164 Co160 2.009 . S
O164 Co161 2.126 . S
O164 Co162 2.053 . S
O164 H163 0.760 . S
H165 Co161 2.388 . S
H165 O166 0.760 . S
H165 Co167 2.400 . S
O166 Co161 2.053 . S
O166 Co162 2.126 . S
O166 H165 0.760 . S
O166 Co167 2.009 . S
Co167 H165 2.400 . S
Co167 O166 2.009 . S
Co167 O168 2.053 1_455 S
Co167 O170 2.094 . S
Co167 O174 2.122 . S
Co167 O188 2.115 . S
Co167 O189 2.315 1_455 S
O168 Co167 2.053 1_655 S
O168 C180 1.259 . S
O169 Co161 2.047 1_655 S
O169 C180 1.257 . S
O170 Co167 2.094 . S
O170 C181 1.253 . S
O171 Co162 2.063 . S
O171 C181 1.268 . S
O172 Co160 2.115 . S
O172 C182 1.281 . S
O173 Co160 2.315 . S
O173 C182 1.252 . S
O174 Co167 2.122 . S
O174 C183 1.272 . S
O175 Co161 2.113 . S
O175 C183 1.245 . S
C176 O184 1.259 . S
C176 O185 1.257 . S
C177 O186 1.268 . S
C177 O187 1.253 . S
C178 O188 1.281 . S
C178 O189 1.252 1_455 S
C179 O190 1.272 . S
C179 O191 1.245 . S
C180 O168 1.259 . S
C180 O169 1.257 . S
C181 O170 1.253 . S
C181 O171 1.268 . S
C182 O172 1.281 . S
C182 O173 1.252 . S
C183 O174 1.272 . S
C183 O175 1.245 . S
O184 Co160 2.053 . S
O184 C176 1.259 . S
O185 Co162 2.047 . S
O185 C176 1.257 . S
O186 Co161 2.063 . S
O186 C177 1.268 . S
O187 Co160 2.094 . S
O187 C177 1.253 . S
O188 Co167 2.115 . S
O188 C178 1.281 . S
O189 Co167 2.315 1_655 S
O189 C178 1.252 1_655 S
O190 Co160 2.122 . S
O190 C179 1.272 . S
O191 Co162 2.113 . S
O191 C179 1.245 . S
Co192 H195 2.400 . S
Co192 O196 2.009 . S
Co192 O204 2.115 . S
Co192 O205 2.315 1_655 S
Co192 O216 2.053 1_655 S
Co192 O219 2.094 . S
Co192 O222 2.122 . S
Co193 O196 2.126 . S
Co193 H197 2.388 . S
Co193 O198 2.053 . S
Co193 O201 2.047 . S
Co193 O207 2.113 . S
Co193 O218 2.063 . S
Co194 H195 2.388 . S
Co194 O196 2.053 . S
Co194 O198 2.126 . S
Co194 O203 2.063 . S
Co194 O217 2.047 1_655 S
Co194 O223 2.113 . S
H195 Co192 2.400 . S
H195 Co194 2.388 . S
H195 O196 0.760 . S
O196 Co192 2.009 . S
O196 Co193 2.126 . S
O196 Co194 2.053 . S
O196 H195 0.760 . S
H197 Co193 2.388 . S
H197 O198 0.760 . S
H197 Co199 2.400 . S
O198 Co193 2.053 . S
O198 Co194 2.126 . S
O198 H197 0.760 . S
O198 Co199 2.009 . S
Co199 H197 2.400 . S
Co199 O198 2.009 . S
Co199 O200 2.053 . S
Co199 O202 2.094 . S
Co199 O206 2.122 . S
Co199 O220 2.115 . S
Co199 O221 2.315 . S
O200 Co199 2.053 . S
O200 C212 1.259 . S
O201 Co193 2.047 . S
O201 C212 1.257 . S
O202 Co199 2.094 . S
O202 C213 1.253 . S
O203 Co194 2.063 . S
O203 C213 1.268 . S
O204 Co192 2.115 . S
O204 C214 1.281 . S
O205 Co192 2.315 1_455 S
O205 C214 1.252 1_455 S
O206 Co199 2.122 . S
O206 C215 1.272 . S
O207 Co193 2.113 . S
O207 C215 1.245 . S
C208 O216 1.259 . S
C208 O217 1.257 . S
C209 O218 1.268 . S
C209 O219 1.253 . S
C210 O220 1.281 . S
C210 O221 1.252 . S
C211 O222 1.272 . S
C211 O223 1.245 . S
C212 O200 1.259 . S
C212 O201 1.257 . S
C213 O202 1.253 . S
C213 O203 1.268 . S
C214 O204 1.281 . S
C214 O205 1.252 1_655 S
C215 O206 1.272 . S
C215 O207 1.245 . S
O216 Co192 2.053 1_455 S
O216 C208 1.259 . S
O217 Co194 2.047 1_455 S
O217 C208 1.257 . S
O218 Co193 2.063 . S
O218 C209 1.268 . S
O219 Co192 2.094 . S
O219 C209 1.253 . S
O220 Co199 2.115 . S
O220 C210 1.281 . S
O221 Co199 2.315 . S
O221 C210 1.252 . S
O222 Co192 2.122 . S
O222 C211 1.272 . S
O223 Co194 2.113 . S
O223 C211 1.245 . S
Co224 H227 2.400 . S
Co224 O228 2.009 . S
Co224 O236 2.115 . S
Co224 O237 2.315 1_655 S
Co224 O248 2.053 1_655 S
Co224 O251 2.094 . S
Co224 O254 2.122 . S
Co225 O228 2.126 . S
Co225 H229 2.388 . S
Co225 O230 2.053 . S
Co225 O233 2.047 . S
Co225 O239 2.113 . S
Co225 O250 2.063 . S
Co226 H227 2.388 . S
Co226 O228 2.053 . S
Co226 O230 2.126 . S
Co226 O235 2.063 . S
Co226 O249 2.047 1_655 S
Co226 O255 2.113 . S
H227 Co224 2.400 . S
H227 Co226 2.388 . S
H227 O228 0.760 . S
O228 Co224 2.009 . S
O228 Co225 2.126 . S
O228 Co226 2.053 . S
O228 H227 0.760 . S
H229 Co225 2.388 . S
H229 O230 0.760 . S
H229 Co231 2.400 . S
O230 Co225 2.053 . S
O230 Co226 2.126 . S
O230 H229 0.760 . S
O230 Co231 2.009 . S
Co231 H229 2.400 . S
Co231 O230 2.009 . S
Co231 O232 2.053 . S
Co231 O234 2.094 . S
Co231 O238 2.122 . S
Co231 O252 2.115 . S
Co231 O253 2.315 . S
O232 Co231 2.053 . S
O232 C244 1.259 . S
O233 Co225 2.047 . S
O233 C244 1.257 . S
O234 Co231 2.094 . S
O234 C245 1.253 . S
O235 Co226 2.063 . S
O235 C245 1.268 . S
O236 Co224 2.115 . S
O236 C246 1.281 . S
O237 Co224 2.315 1_455 S
O237 C246 1.252 1_455 S
O238 Co231 2.122 . S
O238 C247 1.272 . S
O239 Co225 2.113 . S
O239 C247 1.245 . S
C240 O248 1.259 . S
C240 O249 1.257 . S
C241 O250 1.268 . S
C241 O251 1.253 . S
C242 O252 1.281 . S
C242 O253 1.252 . S
C243 O254 1.272 . S
C243 O255 1.245 . S
C244 O232 1.259 . S
C244 O233 1.257 . S
C245 O234 1.253 . S
C245 O235 1.268 . S
C246 O236 1.281 . S
C246 O237 1.252 1_655 S
C247 O238 1.272 . S
C247 O239 1.245 . S
O248 Co224 2.053 1_455 S
O248 C240 1.259 . S
O249 Co226 2.047 1_455 S
O249 C240 1.257 . S
O250 Co225 2.063 . S
O250 C241 1.268 . S
O251 Co224 2.094 . S
O251 C241 1.253 . S
O252 Co231 2.115 . S
O252 C242 1.281 . S
O253 Co231 2.315 . S
O253 C242 1.252 . S
O254 Co224 2.122 . S
O254 C243 1.272 . S
O255 Co226 2.113 . S
O255 C243 1.245 . S
Co256 H259 2.400 . S
Co256 O260 2.009 . S
Co256 O268 2.115 . S
Co256 O269 2.315 . S
Co256 O280 2.053 . S
Co256 O283 2.094 . S
Co256 O286 2.122 . S
Co257 O260 2.126 . S
Co257 H261 2.388 . S
Co257 O262 2.053 . S
Co257 O265 2.047 1_545 S
Co257 O271 2.113 1_545 S
Co257 O282 2.063 . S
Co258 H259 2.388 . S
Co258 O260 2.053 . S
Co258 O262 2.126 . S
Co258 O267 2.063 . S
Co258 O281 2.047 . S
Co258 O287 2.113 . S
H259 Co256 2.400 . S
H259 Co258 2.388 . S
H259 O260 0.760 . S
O260 Co256 2.009 . S
O260 Co257 2.126 . S
O260 Co258 2.053 . S
O260 H259 0.760 . S
H261 Co257 2.388 . S
H261 O262 0.760 . S
H261 Co263 2.400 . S
O262 Co257 2.053 . S
O262 Co258 2.126 . S
O262 H261 0.760 . S
O262 Co263 2.009 . S
Co263 H261 2.400 . S
Co263 O262 2.009 . S
Co263 O264 2.053 1_545 S
Co263 O266 2.094 . S
Co263 O270 2.122 1_545 S
Co263 O284 2.115 1_545 S
Co263 O285 2.315 . S
O264 Co263 2.053 1_565 S
O264 C276 1.259 . S
O265 Co257 2.047 1_565 S
O265 C276 1.257 . S
O266 Co263 2.094 . S
O266 C277 1.253 . S
O267 Co258 2.063 . S
O267 C277 1.268 . S
O268 Co256 2.115 . S
O268 C278 1.281 . S
O269 Co256 2.315 . S
O269 C278 1.252 . S
O270 Co263 2.122 1_565 S
O270 C279 1.272 . S
O271 Co257 2.113 1_565 S
O271 C279 1.245 . S
C272 O280 1.259 . S
C272 O281 1.257 . S
C273 O282 1.268 . S
C273 O283 1.253 . S
C274 O284 1.281 1_545 S
C274 O285 1.252 . S
C275 O286 1.272 . S
C275 O287 1.245 . S
C276 O264 1.259 . S
C276 O265 1.257 . S
C277 O266 1.253 . S
C277 O267 1.268 . S
C278 O268 1.281 . S
C278 O269 1.252 . S
C279 O270 1.272 . S
C279 O271 1.245 . S
O280 Co256 2.053 . S
O280 C272 1.259 . S
O281 Co258 2.047 . S
O281 C272 1.257 . S
O282 Co257 2.063 . S
O282 C273 1.268 . S
O283 Co256 2.094 . S
O283 C273 1.253 . S
O284 Co263 2.115 1_565 S
O284 C274 1.281 1_565 S
O285 Co263 2.315 . S
O285 C274 1.252 . S
O286 Co256 2.122 . S
O286 C275 1.272 . S
O287 Co258 2.113 . S
O287 C275 1.245 . S
Co288 H291 2.400 . S
Co288 O292 2.009 . S
Co288 O300 2.115 1_545 S
Co288 O301 2.315 . S
Co288 O312 2.053 1_545 S
Co288 O315 2.094 . S
Co288 O318 2.122 1_545 S
Co289 O292 2.126 . S
Co289 H293 2.388 . S
Co289 O294 2.053 . S
Co289 O297 2.047 . S
Co289 O303 2.113 . S
Co289 O314 2.063 . S
Co290 H291 2.388 . S
Co290 O292 2.053 . S
Co290 O294 2.126 . S
Co290 O299 2.063 1_545 S
Co290 O313 2.047 1_545 S
Co290 O319 2.113 1_545 S
H291 Co288 2.400 . S
H291 Co290 2.388 . S
H291 O292 0.760 . S
O292 Co288 2.009 . S
O292 Co289 2.126 . S
O292 Co290 2.053 . S
O292 H291 0.760 . S
H293 Co289 2.388 . S
H293 O294 0.760 . S
H293 Co295 2.400 . S
O294 Co289 2.053 . S
O294 Co290 2.126 . S
O294 H293 0.760 . S
O294 Co295 2.009 . S
Co295 H293 2.400 . S
Co295 O294 2.009 . S
Co295 O296 2.053 . S
Co295 O298 2.094 . S
Co295 O302 2.122 . S
Co295 O316 2.115 . S
Co295 O317 2.315 . S
O296 Co295 2.053 . S
O296 C308 1.259 . S
O297 Co289 2.047 . S
O297 C308 1.257 . S
O298 Co295 2.094 . S
O298 C309 1.253 . S
O299 Co290 2.063 1_565 S
O299 C309 1.268 1_565 S
O300 Co288 2.115 1_565 S
O300 C310 1.281 1_565 S
O301 Co288 2.315 . S
O301 C310 1.252 . S
O302 Co295 2.122 . S
O302 C311 1.272 . S
O303 Co289 2.113 . S
O303 C311 1.245 . S
C304 O312 1.259 . S
C304 O313 1.257 . S
C305 O314 1.268 . S
C305 O315 1.253 . S
C306 O316 1.281 . S
C306 O317 1.252 . S
C307 O318 1.272 . S
C307 O319 1.245 . S
C308 O296 1.259 . S
C308 O297 1.257 . S
C309 O298 1.253 . S
C309 O299 1.268 1_545 S
C310 O300 1.281 1_545 S
C310 O301 1.252 . S
C311 O302 1.272 . S
C311 O303 1.245 . S
O312 Co288 2.053 1_565 S
O312 C304 1.259 . S
O313 Co290 2.047 1_565 S
O313 C304 1.257 . S
O314 Co289 2.063 . S
O314 C305 1.268 . S
O315 Co288 2.094 . S
O315 C305 1.253 . S
O316 Co295 2.115 . S
O316 C306 1.281 . S
O317 Co295 2.315 . S
O317 C306 1.252 . S
O318 Co288 2.122 1_565 S
O318 C307 1.272 . S
O319 Co290 2.113 1_565 S
O319 C307 1.245 . S
Co320 H323 2.400 . S
Co320 O324 2.009 . S
Co320 O332 2.115 1_565 S
Co320 O333 2.315 . S
Co320 O344 2.053 1_565 S
Co320 O347 2.094 . S
Co320 O350 2.122 1_565 S
Co321 O324 2.126 . S
Co321 H325 2.388 . S
Co321 O326 2.053 . S
Co321 O329 2.047 . S
Co321 O335 2.113 . S
Co321 O346 2.063 . S
Co322 H323 2.388 . S
Co322 O324 2.053 . S
Co322 O326 2.126 . S
Co322 O331 2.063 . S
Co322 O345 2.047 1_565 S
Co322 O351 2.113 1_565 S
H323 Co320 2.400 . S
H323 Co322 2.388 . S
H323 O324 0.760 . S
O324 Co320 2.009 . S
O324 Co321 2.126 . S
O324 Co322 2.053 . S
O324 H323 0.760 . S
H325 Co321 2.388 . S
H325 O326 0.760 . S
H325 Co327 2.400 . S
O326 Co321 2.053 . S
O326 Co322 2.126 . S
O326 H325 0.760 . S
O326 Co327 2.009 . S
Co327 H325 2.400 . S
Co327 O326 2.009 . S
Co327 O328 2.053 . S
Co327 O330 2.094 . S
Co327 O334 2.122 . S
Co327 O348 2.115 . S
Co327 O349 2.315 . S
O328 Co327 2.053 . S
O328 C340 1.259 . S
O329 Co321 2.047 . S
O329 C340 1.257 . S
O330 Co327 2.094 . S
O330 C341 1.253 . S
O331 Co322 2.063 . S
O331 C341 1.268 . S
O332 Co320 2.115 1_545 S
O332 C342 1.281 1_545 S
O333 Co320 2.315 . S
O333 C342 1.252 . S
O334 Co327 2.122 . S
O334 C343 1.272 . S
O335 Co321 2.113 . S
O335 C343 1.245 . S
C336 O344 1.259 . S
C336 O345 1.257 . S
C337 O346 1.268 . S
C337 O347 1.253 . S
C338 O348 1.281 . S
C338 O349 1.252 . S
C339 O350 1.272 . S
C339 O351 1.245 . S
C340 O328 1.259 . S
C340 O329 1.257 . S
C341 O330 1.253 . S
C341 O331 1.268 . S
C342 O332 1.281 1_565 S
C342 O333 1.252 . S
C343 O334 1.272 . S
C343 O335 1.245 . S
O344 Co320 2.053 1_545 S
O344 C336 1.259 . S
O345 Co322 2.047 1_545 S
O345 C336 1.257 . S
O346 Co321 2.063 . S
O346 C337 1.268 . S
O347 Co320 2.094 . S
O347 C337 1.253 . S
O348 Co327 2.115 . S
O348 C338 1.281 . S
O349 Co327 2.315 . S
O349 C338 1.252 . S
O350 Co320 2.122 1_545 S
O350 C339 1.272 . S
O351 Co322 2.113 1_545 S
O351 C339 1.245 . S
Co352 H355 2.400 . S
Co352 O356 2.009 . S
Co352 O364 2.115 . S
Co352 O365 2.315 . S
Co352 O376 2.053 . S
Co352 O379 2.094 . S
Co352 O382 2.122 . S
Co353 O356 2.126 . S
Co353 H357 2.388 . S
Co353 O358 2.053 . S
Co353 O361 2.047 1_565 S
Co353 O367 2.113 1_565 S
Co353 O378 2.063 1_565 S
Co354 H355 2.388 . S
Co354 O356 2.053 . S
Co354 O358 2.126 . S
Co354 O363 2.063 . S
Co354 O377 2.047 . S
Co354 O383 2.113 . S
H355 Co352 2.400 . S
H355 Co354 2.388 . S
H355 O356 0.760 . S
O356 Co352 2.009 . S
O356 Co353 2.126 . S
O356 Co354 2.053 . S
O356 H355 0.760 . S
H357 Co353 2.388 . S
H357 O358 0.760 . S
H357 Co359 2.400 . S
O358 Co353 2.053 . S
O358 Co354 2.126 . S
O358 H357 0.760 . S
O358 Co359 2.009 . S
Co359 H357 2.400 . S
Co359 O358 2.009 . S
Co359 O360 2.053 1_565 S
Co359 O362 2.094 . S
Co359 O366 2.122 1_565 S
Co359 O380 2.115 1_565 S
Co359 O381 2.315 . S
O360 Co359 2.053 1_545 S
O360 C372 1.259 . S
O361 Co353 2.047 1_545 S
O361 C372 1.257 . S
O362 Co359 2.094 . S
O362 C373 1.253 . S
O363 Co354 2.063 . S
O363 C373 1.268 . S
O364 Co352 2.115 . S
O364 C374 1.281 . S
O365 Co352 2.315 . S
O365 C374 1.252 . S
O366 Co359 2.122 1_545 S
O366 C375 1.272 . S
O367 Co353 2.113 1_545 S
O367 C375 1.245 . S
C368 O376 1.259 . S
C368 O377 1.257 . S
C369 O378 1.268 1_565 S
C369 O379 1.253 . S
C370 O380 1.281 1_565 S
C370 O381 1.252 . S
C371 O382 1.272 . S
C371 O383 1.245 . S
C372 O360 1.259 . S
C372 O361 1.257 . S
C373 O362 1.253 . S
C373 O363 1.268 . S
C374 O364 1.281 . S
C374 O365 1.252 . S
C375 O366 1.272 . S
C375 O367 1.245 . S
O376 Co352 2.053 . S
O376 C368 1.259 . S
O377 Co354 2.047 . S
O377 C368 1.257 . S
O378 Co353 2.063 1_545 S
O378 C369 1.268 1_545 S
O379 Co352 2.094 . S
O379 C369 1.253 . S
O380 Co359 2.115 1_545 S
O380 C370 1.281 1_545 S
O381 Co359 2.315 . S
O381 C370 1.252 . S
O382 Co352 2.122 . S
O382 C371 1.272 . S
O383 Co354 2.113 . S
O383 C371 1.245 . S
Co384 H387 2.400 . S
Co384 O388 2.009 . S
Co384 O396 2.115 . S
Co384 O397 2.315 . S
Co384 O408 2.053 . S
Co384 O411 2.094 . S
Co384 O414 2.122 . S
Co385 O388 2.126 . S
Co385 H389 2.388 . S
Co385 O390 2.053 . S
Co385 O393 2.047 . S
Co385 O399 2.113 . S
Co385 O410 2.063 . S
Co386 H387 2.388 . S
Co386 O388 2.053 . S
Co386 O390 2.126 . S
Co386 O395 2.063 . S
Co386 O409 2.047 . S
Co386 O415 2.113 . S
H387 Co384 2.400 . S
H387 Co386 2.388 . S
H387 O388 0.760 . S
O388 Co384 2.009 . S
O388 Co385 2.126 . S
O388 Co386 2.053 . S
O388 H387 0.760 . S
H389 Co385 2.388 . S
H389 O390 0.760 . S
H389 Co391 2.400 . S
O390 Co385 2.053 . S
O390 Co386 2.126 . S
O390 H389 0.760 . S
O390 Co391 2.009 . S
Co391 H389 2.400 . S
Co391 O390 2.009 . S
Co391 O392 2.053 . S
Co391 O394 2.094 . S
Co391 O398 2.122 . S
Co391 O412 2.115 . S
Co391 O413 2.315 . S
O392 Co391 2.053 . S
O392 C404 1.259 . S
O393 Co385 2.047 . S
O393 C404 1.257 . S
O394 Co391 2.094 . S
O394 C405 1.253 . S
O395 Co386 2.063 . S
O395 C405 1.268 . S
O396 Co384 2.115 . S
O396 C406 1.281 . S
O397 Co384 2.315 . S
O397 C406 1.252 . S
O398 Co391 2.122 . S
O398 C407 1.272 . S
O399 Co385 2.113 . S
O399 C407 1.245 . S
C400 O408 1.259 . S
C400 O409 1.257 . S
C401 O410 1.268 . S
C401 O411 1.253 . S
C402 O412 1.281 . S
C402 O413 1.252 . S
C403 O414 1.272 . S
C403 O415 1.245 . S
C404 O392 1.259 . S
C404 O393 1.257 . S
C405 O394 1.253 . S
C405 O395 1.268 . S
C406 O396 1.281 . S
C406 O397 1.252 . S
C407 O398 1.272 . S
C407 O399 1.245 . S
O408 Co384 2.053 . S
O408 C400 1.259 . S
O409 Co386 2.047 . S
O409 C400 1.257 . S
O410 Co385 2.063 . S
O410 C401 1.268 . S
O411 Co384 2.094 . S
O411 C401 1.253 . S
O412 Co391 2.115 . S
O412 C402 1.281 . S
O413 Co391 2.315 . S
O413 C402 1.252 . S
O414 Co384 2.122 . S
O414 C403 1.272 . S
O415 Co386 2.113 . S
O415 C403 1.245 . S
Co416 H419 2.400 . S
Co416 O420 2.009 . S
Co416 O428 2.115 . S
Co416 O429 2.315 . S
Co416 O440 2.053 . S
Co416 O443 2.094 . S
Co416 O446 2.122 . S
Co417 O420 2.126 . S
Co417 H421 2.388 . S
Co417 O422 2.053 . S
Co417 O425 2.047 . S
Co417 O431 2.113 . S
Co417 O442 2.063 . S
Co418 H419 2.388 . S
Co418 O420 2.053 . S
Co418 O422 2.126 . S
Co418 O427 2.063 . S
Co418 O441 2.047 . S
Co418 O447 2.113 . S
H419 Co416 2.400 . S
H419 Co418 2.388 . S
H419 O420 0.760 . S
O420 Co416 2.009 . S
O420 Co417 2.126 . S
O420 Co418 2.053 . S
O420 H419 0.760 . S
H421 Co417 2.388 . S
H421 O422 0.760 . S
H421 Co423 2.400 . S
O422 Co417 2.053 . S
O422 Co418 2.126 . S
O422 H421 0.760 . S
O422 Co423 2.009 . S
Co423 H421 2.400 . S
Co423 O422 2.009 . S
Co423 O424 2.053 . S
Co423 O426 2.094 . S
Co423 O430 2.122 . S
Co423 O444 2.115 . S
Co423 O445 2.315 . S
O424 Co423 2.053 . S
O424 C436 1.259 . S
O425 Co417 2.047 . S
O425 C436 1.257 . S
O426 Co423 2.094 . S
O426 C437 1.253 . S
O427 Co418 2.063 . S
O427 C437 1.268 . S
O428 Co416 2.115 . S
O428 C438 1.281 . S
O429 Co416 2.315 . S
O429 C438 1.252 . S
O430 Co423 2.122 . S
O430 C439 1.272 . S
O431 Co417 2.113 . S
O431 C439 1.245 . S
C432 O440 1.259 . S
C432 O441 1.257 . S
C433 O442 1.268 . S
C433 O443 1.253 . S
C434 O444 1.281 . S
C434 O445 1.252 . S
C435 O446 1.272 . S
C435 O447 1.245 . S
C436 O424 1.259 . S
C436 O425 1.257 . S
C437 O426 1.253 . S
C437 O427 1.268 . S
C438 O428 1.281 . S
C438 O429 1.252 . S
C439 O430 1.272 . S
C439 O431 1.245 . S
O440 Co416 2.053 . S
O440 C432 1.259 . S
O441 Co418 2.047 . S
O441 C432 1.257 . S
O442 Co417 2.063 . S
O442 C433 1.268 . S
O443 Co416 2.094 . S
O443 C433 1.253 . S
O444 Co423 2.115 . S
O444 C434 1.281 . S
O445 Co423 2.315 . S
O445 C434 1.252 . S
O446 Co416 2.122 . S
O446 C435 1.272 . S
O447 Co418 2.113 . S
O447 C435 1.245 . S
Co448 H451 2.400 . S
Co448 O452 2.009 . S
Co448 O460 2.115 . S
Co448 O461 2.315 . S
Co448 O472 2.053 . S
Co448 O475 2.094 . S
Co448 O478 2.122 . S
Co449 O452 2.126 . S
Co449 H453 2.388 . S
Co449 O454 2.053 . S
Co449 O457 2.047 . S
Co449 O463 2.113 . S
Co449 O474 2.063 . S
Co450 H451 2.388 . S
Co450 O452 2.053 . S
Co450 O454 2.126 . S
Co450 O459 2.063 . S
Co450 O473 2.047 . S
Co450 O479 2.113 . S
H451 Co448 2.400 . S
H451 Co450 2.388 . S
H451 O452 0.760 . S
O452 Co448 2.009 . S
O452 Co449 2.126 . S
O452 Co450 2.053 . S
O452 H451 0.760 . S
H453 Co449 2.388 . S
H453 O454 0.760 . S
H453 Co455 2.400 . S
O454 Co449 2.053 . S
O454 Co450 2.126 . S
O454 H453 0.760 . S
O454 Co455 2.009 . S
Co455 H453 2.400 . S
Co455 O454 2.009 . S
Co455 O456 2.053 . S
Co455 O458 2.094 . S
Co455 O462 2.122 . S
Co455 O476 2.115 . S
Co455 O477 2.315 . S
O456 Co455 2.053 . S
O456 C468 1.259 . S
O457 Co449 2.047 . S
O457 C468 1.257 . S
O458 Co455 2.094 . S
O458 C469 1.253 . S
O459 Co450 2.063 . S
O459 C469 1.268 . S
O460 Co448 2.115 . S
O460 C470 1.281 . S
O461 Co448 2.315 . S
O461 C470 1.252 . S
O462 Co455 2.122 . S
O462 C471 1.272 . S
O463 Co449 2.113 . S
O463 C471 1.245 . S
C464 O472 1.259 . S
C464 O473 1.257 . S
C465 O474 1.268 . S
C465 O475 1.253 . S
C466 O476 1.281 . S
C466 O477 1.252 . S
C467 O478 1.272 . S
C467 O479 1.245 . S
C468 O456 1.259 . S
C468 O457 1.257 . S
C469 O458 1.253 . S
C469 O459 1.268 . S
C470 O460 1.281 . S
C470 O461 1.252 . S
C471 O462 1.272 . S
C471 O463 1.245 . S
O472 Co448 2.053 . S
O472 C464 1.259 . S
O473 Co450 2.047 . S
O473 C464 1.257 . S
O474 Co449 2.063 . S
O474 C465 1.268 . S
O475 Co448 2.094 . S
O475 C465 1.253 . S
O476 Co455 2.115 . S
O476 C466 1.281 . S
O477 Co455 2.315 . S
O477 C466 1.252 . S
O478 Co448 2.122 . S
O478 C467 1.272 . S
O479 Co450 2.113 . S
O479 C467 1.245 . S
Co480 H483 2.400 . S
Co480 O484 2.009 . S
Co480 O492 2.115 . S
Co480 O493 2.315 . S
Co480 O504 2.053 . S
Co480 O507 2.094 . S
Co480 O510 2.122 . S
Co481 O484 2.126 . S
Co481 H485 2.388 . S
Co481 O486 2.053 . S
Co481 O489 2.047 . S
Co481 O495 2.113 . S
Co481 O506 2.063 . S
Co482 H483 2.388 . S
Co482 O484 2.053 . S
Co482 O486 2.126 . S
Co482 O491 2.063 . S
Co482 O505 2.047 . S
Co482 O511 2.113 . S
H483 Co480 2.400 . S
H483 Co482 2.388 . S
H483 O484 0.760 . S
O484 Co480 2.009 . S
O484 Co481 2.126 . S
O484 Co482 2.053 . S
O484 H483 0.760 . S
H485 Co481 2.388 . S
H485 O486 0.760 . S
H485 Co487 2.400 . S
O486 Co481 2.053 . S
O486 Co482 2.126 . S
O486 H485 0.760 . S
O486 Co487 2.009 . S
Co487 H485 2.400 . S
Co487 O486 2.009 . S
Co487 O488 2.053 . S
Co487 O490 2.094 . S
Co487 O494 2.122 . S
Co487 O508 2.115 . S
Co487 O509 2.315 . S
O488 Co487 2.053 . S
O488 C500 1.259 . S
O489 Co481 2.047 . S
O489 C500 1.257 . S
O490 Co487 2.094 . S
O490 C501 1.253 . S
O491 Co482 2.063 . S
O491 C501 1.268 . S
O492 Co480 2.115 . S
O492 C502 1.281 . S
O493 Co480 2.315 . S
O493 C502 1.252 . S
O494 Co487 2.122 . S
O494 C503 1.272 . S
O495 Co481 2.113 . S
O495 C503 1.245 . S
C496 O504 1.259 . S
C496 O505 1.257 . S
C497 O506 1.268 . S
C497 O507 1.253 . S
C498 O508 1.281 . S
C498 O509 1.252 . S
C499 O510 1.272 . S
C499 O511 1.245 . S
C500 O488 1.259 . S
C500 O489 1.257 . S
C501 O490 1.253 . S
C501 O491 1.268 . S
C502 O492 1.281 . S
C502 O493 1.252 . S
C503 O494 1.272 . S
C503 O495 1.245 . S
O504 Co480 2.053 . S
O504 C496 1.259 . S
O505 Co482 2.047 . S
O505 C496 1.257 . S
O506 Co481 2.063 . S
O506 C497 1.268 . S
O507 Co480 2.094 . S
O507 C497 1.253 . S
O508 Co487 2.115 . S
O508 C498 1.281 . S
O509 Co487 2.315 . S
O509 C498 1.252 . S
O510 Co480 2.122 . S
O510 C499 1.272 . S
O511 Co482 2.113 . S
O511 C499 1.245 . S
C16 C404 0.786 . S
C20 C400 0.787 . S
C48 C436 0.787 . S
C52 C432 0.786 . S
C464 C84 0.786 . S
C80 C468 0.787 . S
C116 C496 0.787 . S
C112 C500 0.786 . S
C276 C144 0.786 . S
C272 C148 0.787 . S
C308 C176 0.787 . S
C304 C180 0.786 . S
C336 C212 0.786 . S
C208 C340 0.787 . S
C368 C244 0.787 . S
C240 C372 0.786 . S
C23 C403 2.115 . S
C19 C407 2.115 1_455 S
C55 C435 2.115 . S
C439 C51 2.115 1_655 S
C471 C83 2.115 . S
C467 C87 2.115 1_455 S
C503 C115 2.115 . S
C499 C119 2.115 1_455 S
C151 C275 2.115 . S
C147 C279 2.115 1_455 S
C183 C307 2.115 . S
C179 C311 2.115 1_455 S
C343 C211 2.115 . S
C339 C215 2.115 1_455 S
C375 C243 2.115 . S
C247 C371 2.115 1_655 S
C22 C305 2.547 . S
C310 C17 2.547 1_655 S
C273 C54 2.547 . S
C278 C49 2.547 1_655 S
C373 C82 2.547 . S
C85 C370 2.547 1_655 S
C114 C341 2.547 . S
C117 C338 2.547 1_655 S
C433 C150 2.547 . S
C145 C438 2.547 1_455 S
C182 C401 2.547 . S
C406 C177 2.547 1_655 S
C501 C210 2.547 . S
C498 C213 2.547 1_455 S
C469 C242 2.547 . S
C466 C245 2.547 1_455 S
C465 C21 2.243 . S
C86 C18 1.226 1_665 S
C369 C53 2.243 1_565 S
C50 C246 1.226 1_455 S
C405 C81 2.243 . S
C113 C309 2.243 1_565 S
C178 C118 1.226 1_455 S
C337 C149 2.243 1_554 S
C146 C214 1.226 1_456 S
C181 C497 2.243 . S
C277 C209 2.243 1_556 S
C437 C241 2.243 . S
C274 C342 1.226 1_546 S
C306 C502 1.226 . S
C434 C374 1.226 . S
C470 C402 1.226 . S
