# Generated by pormake.
# Topology gsi, (4)-cn, num edge types: 1
# Building blocks:
#     Node 0, Type 0, BuildingBlock: UXUYUI_clean_sbu_0, # of connection points: 4
#     Node 1, Type 0, BuildingBlock: UXUYUI_clean_sbu_0, # of connection points: 4
#     Node 2, Type 0, BuildingBlock: UXUYUI_clean_sbu_0, # of connection points: 4
#     Node 3, Type 0, BuildingBlock: UXUYUI_clean_sbu_0, # of connection points: 4
#     Node 4, Type 0, BuildingBlock: UXUYUI_clean_sbu_0, # of connection points: 4
#     Node 5, Type 0, BuildingBlock: UXUYUI_clean_sbu_0, # of connection points: 4
#     Node 6, Type 0, BuildingBlock: UXUYUI_clean_sbu_0, # of connection points: 4
#     Node 7, Type 0, BuildingBlock: UXUYUI_clean_sbu_0, # of connection points: 4
#     Node 8, Type 0, BuildingBlock: UXUYUI_clean_sbu_0, # of connection points: 4
#     Node 9, Type 0, BuildingBlock: UXUYUI_clean_sbu_0, # of connection points: 4
#     Node 10, Type 0, BuildingBlock: UXUYUI_clean_sbu_0, # of connection points: 4
#     Node 11, Type 0, BuildingBlock: UXUYUI_clean_sbu_0, # of connection points: 4
#     Node 12, Type 0, BuildingBlock: UXUYUI_clean_sbu_0, # of connection points: 4
#     Node 13, Type 0, BuildingBlock: UXUYUI_clean_sbu_0, # of connection points: 4
#     Node 14, Type 0, BuildingBlock: UXUYUI_clean_sbu_0, # of connection points: 4
#     Node 15, Type 0, BuildingBlock: UXUYUI_clean_sbu_0, # of connection points: 4
#     Edge 16, Type (0, 0), BuildingBlock: ZUJKAS_clean_linker_0, # of connection points: 2
#     Edge 17, Type (0, 0), BuildingBlock: ZUJKAS_clean_linker_0, # of connection points: 2
#     Edge 18, Type (0, 0), BuildingBlock: ZUJKAS_clean_linker_0, # of connection points: 2
#     Edge 19, Type (0, 0), BuildingBlock: ZUJKAS_clean_linker_0, # of connection points: 2
#     Edge 20, Type (0, 0), BuildingBlock: ZUJKAS_clean_linker_0, # of connection points: 2
#     Edge 21, Type (0, 0), BuildingBlock: ZUJKAS_clean_linker_0, # of connection points: 2
#     Edge 22, Type (0, 0), BuildingBlock: ZUJKAS_clean_linker_0, # of connection points: 2
#     Edge 23, Type (0, 0), BuildingBlock: ZUJKAS_clean_linker_0, # of connection points: 2
#     Edge 24, Type (0, 0), BuildingBlock: ZUJKAS_clean_linker_0, # of connection points: 2
#     Edge 25, Type (0, 0), BuildingBlock: ZUJKAS_clean_linker_0, # of connection points: 2
#     Edge 26, Type (0, 0), BuildingBlock: ZUJKAS_clean_linker_0, # of connection points: 2
#     Edge 27, Type (0, 0), BuildingBlock: ZUJKAS_clean_linker_0, # of connection points: 2
#     Edge 28, Type (0, 0), BuildingBlock: ZUJKAS_clean_linker_0, # of connection points: 2
#     Edge 29, Type (0, 0), BuildingBlock: ZUJKAS_clean_linker_0, # of connection points: 2
#     Edge 30, Type (0, 0), BuildingBlock: ZUJKAS_clean_linker_0, # of connection points: 2
#     Edge 31, Type (0, 0), BuildingBlock: ZUJKAS_clean_linker_0, # of connection points: 2
#     Edge 32, Type (0, 0), BuildingBlock: ZUJKAS_clean_linker_0, # of connection points: 2
#     Edge 33, Type (0, 0), BuildingBlock: ZUJKAS_clean_linker_0, # of connection points: 2
#     Edge 34, Type (0, 0), BuildingBlock: ZUJKAS_clean_linker_0, # of connection points: 2
#     Edge 35, Type (0, 0), BuildingBlock: ZUJKAS_clean_linker_0, # of connection points: 2
#     Edge 36, Type (0, 0), BuildingBlock: ZUJKAS_clean_linker_0, # of connection points: 2
#     Edge 37, Type (0, 0), BuildingBlock: ZUJKAS_clean_linker_0, # of connection points: 2
#     Edge 38, Type (0, 0), BuildingBlock: ZUJKAS_clean_linker_0, # of connection points: 2
#     Edge 39, Type (0, 0), BuildingBlock: ZUJKAS_clean_linker_0, # of connection points: 2
#     Edge 40, Type (0, 0), BuildingBlock: ZUJKAS_clean_linker_0, # of connection points: 2
#     Edge 41, Type (0, 0), BuildingBlock: ZUJKAS_clean_linker_0, # of connection points: 2
#     Edge 42, Type (0, 0), BuildingBlock: ZUJKAS_clean_linker_0, # of connection points: 2
#     Edge 43, Type (0, 0), BuildingBlock: ZUJKAS_clean_linker_0, # of connection points: 2
#     Edge 44, Type (0, 0), BuildingBlock: ZUJKAS_clean_linker_0, # of connection points: 2
#     Edge 45, Type (0, 0), BuildingBlock: ZUJKAS_clean_linker_0, # of connection points: 2
#     Edge 46, Type (0, 0), BuildingBlock: ZUJKAS_clean_linker_0, # of connection points: 2
#     Edge 47, Type (0, 0), BuildingBlock: ZUJKAS_clean_linker_0, # of connection points: 2
# Relax obj value: 0.073
# Max RMSD: 0.058
# Mean RMSD: 0.058
data_MOF--net-gsi--node1-UXUYUI_clean_sbu_0--edge1-ZUJKAS_clean_linker_0
_symmetry_space_group_name_H-M    P1
_symmetry_Int_Tables_number       1
_symmetry_cell_setting            triclinic
loop_
_symmetry_equiv_pos_as_xyz
'x, y, z'
_cell_length_a     74.493846
_cell_length_b     74.394462
_cell_length_c     74.378606
_cell_angle_alpha  90.024153
_cell_angle_beta   89.985577
_cell_angle_gamma 90.136217
loop_
_atom_site_label
_atom_site_type_symbol
_atom_site_fract_x
_atom_site_fract_y
_atom_site_fract_z
_atom_type_partial_charge
Li0 Li 0.13642 0.16376 0.14948 0.0
Li1 Li 0.1643 0.16579 0.16569 0.0
Li2 Li 0.16451 0.1528 0.13585 0.0
Li3 Li 0.15095 0.13615 0.16235 0.0
C4 C 0.15487 0.19562 0.14323 0.0
N5 N 0.14749 0.23198 0.1443 0.0
C6 C 0.14793 0.20337 0.15885 0.0
C7 C 0.1581 0.20635 0.12815 0.0
C8 C 0.14428 0.22177 0.15914 0.0
C9 C 0.15426 0.22471 0.12896 0.0
C10 C 0.13722 0.15963 0.19267 0.0
C11 C 0.13905 0.14963 0.22348 0.0
N12 N 0.12938 0.1642 0.22872 0.0
C13 C 0.12712 0.1744 0.19836 0.0
C14 C 0.14309 0.14705 0.20532 0.0
C15 C 0.12338 0.17652 0.21665 0.0
C16 C 0.10028 0.17296 0.15706 0.0
N17 N 0.11397 0.17566 0.14526 0.0
C18 C 0.09713 0.19838 0.13003 0.0
C19 C 0.11248 0.18775 0.13163 0.0
C20 C 0.08305 0.19642 0.14245 0.0
C21 C 0.0846 0.18321 0.15587 0.0
H22 H 0.10178 0.16326 0.16778 0.0
H23 H 0.12343 0.18956 0.12228 0.0
C24 C 0.18954 0.19313 0.17273 0.0
N25 N 0.17891 0.18076 0.18103 0.0
C26 C 0.2008 0.2043 0.18277 0.0
C27 C 0.19049 0.18947 0.20975 0.0
C28 C 0.17934 0.17868 0.1992 0.0
C29 C 0.20135 0.20255 0.20155 0.0
H30 H 0.18946 0.19417 0.15824 0.0
H31 H 0.17135 0.16844 0.20555 0.0
C32 C 0.13177 0.13956 0.12129 0.0
N33 N 0.11377 0.13902 0.08883 0.0
C34 C 0.11991 0.12554 0.11731 0.0
C35 C 0.13449 0.15331 0.10878 0.0
C36 C 0.11094 0.12551 0.10082 0.0
C37 C 0.12526 0.1528 0.09244 0.0
C38 C 0.19235 0.14503 0.16626 0.0
C39 C 0.20675 0.15325 0.15744 0.0
C40 C 0.19433 0.13939 0.18408 0.0
C41 C 0.22289 0.15584 0.16665 0.0
C42 C 0.21069 0.14221 0.19282 0.0
N43 N 0.22451 0.15032 0.18401 0.0
C44 C 0.18827 0.165 0.10929 0.0
C45 C 0.17841 0.13505 0.10461 0.0
C46 C 0.1991 0.1642 0.09399 0.0
N47 N 0.17826 0.15056 0.1143 0.0
C48 C 0.18907 0.13366 0.08917 0.0
C49 C 0.19967 0.14836 0.08369 0.0
H50 H 0.18806 0.17707 0.11739 0.0
H51 H 0.1703 0.12376 0.10893 0.0
C52 C 0.13087 0.10879 0.18007 0.0
N53 N 0.14732 0.11332 0.17354 0.0
C54 C 0.12867 0.09315 0.1903 0.0
C55 C 0.16026 0.08694 0.18648 0.0
C56 C 0.16181 0.1026 0.17624 0.0
C57 C 0.14357 0.08211 0.19395 0.0
H58 H 0.11958 0.11762 0.1778 0.0
H59 H 0.17475 0.10653 0.17092 0.0
O60 O 0.15827 0.17756 0.14252 0.0
O61 O 0.14067 0.15713 0.17476 0.0
O62 O 0.14057 0.13981 0.13742 0.0
O63 O 0.17626 0.14292 0.15765 0.0
H64 H 0.14546 0.19527 0.17063 0.0
H65 H 0.16336 0.20053 0.1159 0.0
H66 H 0.1389 0.22794 0.17115 0.0
H67 H 0.15664 0.23317 0.11737 0.0
H68 H 0.14365 0.14007 0.23341 0.0
H69 H 0.12211 0.1841 0.18878 0.0
H70 H 0.15097 0.13557 0.20126 0.0
H71 H 0.11563 0.18792 0.22123 0.0
H72 H 0.09638 0.20819 0.11931 0.0
H73 H 0.07411 0.18131 0.16578 0.0
H74 H 0.20922 0.21398 0.17588 0.0
H75 H 0.19051 0.18767 0.2242 0.0
H76 H 0.11765 0.11481 0.12689 0.0
H77 H 0.14357 0.1643 0.11164 0.0
H78 H 0.10171 0.11474 0.09755 0.0
H79 H 0.12722 0.16336 0.08264 0.0
H80 H 0.20541 0.15778 0.14369 0.0
H81 H 0.18327 0.13317 0.19117 0.0
H82 H 0.23411 0.16229 0.16002 0.0
H83 H 0.21238 0.13804 0.20665 0.0
H84 H 0.20724 0.17576 0.0905 0.0
H85 H 0.18893 0.12125 0.08156 0.0
H86 H 0.11548 0.08988 0.19547 0.0
H87 H 0.17221 0.07909 0.18906 0.0
Li88 Li 0.85073 0.34963 0.1657 0.0
Li89 Li 0.87884 0.35067 0.14964 0.0
Li90 Li 0.86516 0.37879 0.16235 0.0
Li91 Li 0.8512 0.36244 0.13586 0.0
C92 C 0.87815 0.35466 0.19271 0.0
N93 N 0.88631 0.34949 0.22861 0.0
C94 C 0.88822 0.33975 0.19806 0.0
C95 C 0.87246 0.36707 0.20564 0.0
C96 C 0.89213 0.33733 0.21626 0.0
C97 C 0.87666 0.36418 0.22371 0.0
C98 C 0.8593 0.31936 0.14357 0.0
C99 C 0.85872 0.29008 0.12966 0.0
N100 N 0.86522 0.28275 0.14508 0.0
C101 C 0.86593 0.31153 0.15928 0.0
C102 C 0.85562 0.30857 0.12863 0.0
C103 C 0.86884 0.293 0.15979 0.0
C104 C 0.8245 0.3232 0.17271 0.0
N105 N 0.83547 0.33528 0.18099 0.0
C106 C 0.82359 0.32701 0.20971 0.0
C107 C 0.83499 0.3375 0.19913 0.0
C108 C 0.8124 0.31416 0.20154 0.0
C109 C 0.81289 0.3124 0.18275 0.0
H110 H 0.82468 0.32201 0.15822 0.0
H111 H 0.84314 0.34763 0.20545 0.0
C112 C 0.91492 0.3412 0.15706 0.0
N113 N 0.90102 0.3382 0.14559 0.0
C114 C 0.93051 0.33081 0.15595 0.0
C115 C 0.91744 0.31483 0.13087 0.0
C116 C 0.90219 0.32563 0.13236 0.0
C117 C 0.93174 0.31714 0.14296 0.0
H118 H 0.91368 0.35131 0.16743 0.0
H119 H 0.8911 0.32362 0.12322 0.0
C120 C 0.82372 0.37182 0.1665 0.0
N121 N 0.79177 0.36862 0.18508 0.0
C122 C 0.8089 0.36361 0.15839 0.0
C123 C 0.82227 0.37853 0.18399 0.0
C124 C 0.79287 0.36208 0.16803 0.0
C125 C 0.806 0.37676 0.19317 0.0
C126 C 0.88421 0.37447 0.12125 0.0
C127 C 0.89622 0.38825 0.11687 0.0
C128 C 0.88121 0.36049 0.10904 0.0
C129 C 0.90504 0.38782 0.1003 0.0
C130 C 0.8903 0.36054 0.09261 0.0
N131 N 0.90193 0.37409 0.08862 0.0
C132 C 0.88512 0.40436 0.18258 0.0
C133 C 0.85607 0.41385 0.17379 0.0
C134 C 0.8874 0.41987 0.19299 0.0
N135 N 0.86948 0.40149 0.17358 0.0
C136 C 0.85784 0.4296 0.1839 0.0
C137 C 0.87352 0.43261 0.19398 0.0
H138 H 0.89554 0.39426 0.18223 0.0
H139 H 0.84373 0.41117 0.16659 0.0
C140 C 0.82677 0.35073 0.10987 0.0
N141 N 0.8375 0.36484 0.11431 0.0
C142 C 0.81586 0.35151 0.09464 0.0
C143 C 0.82727 0.38136 0.08871 0.0
C144 C 0.83799 0.37999 0.10411 0.0
C145 C 0.81595 0.36699 0.0838 0.0
H146 H 0.82648 0.33894 0.11837 0.0
H147 H 0.84665 0.39103 0.10798 0.0
O148 O 0.87458 0.3575 0.17487 0.0
O149 O 0.85659 0.33752 0.14266 0.0
O150 O 0.8397 0.37289 0.15751 0.0
O151 O 0.87554 0.37469 0.13745 0.0
H152 H 0.89308 0.33017 0.18827 0.0
H153 H 0.86458 0.37863 0.20184 0.0
H154 H 0.89986 0.32582 0.22057 0.0
H155 H 0.8722 0.3736 0.23384 0.0
H156 H 0.856 0.28157 0.11818 0.0
H157 H 0.86869 0.31967 0.17097 0.0
H158 H 0.85058 0.31444 0.11632 0.0
H159 H 0.87397 0.28677 0.17188 0.0
H160 H 0.82332 0.32916 0.2241 0.0
H161 H 0.80454 0.30265 0.17587 0.0
H162 H 0.94119 0.33299 0.16559 0.0
H163 H 0.91795 0.30466 0.12046 0.0
H164 H 0.80984 0.35827 0.1449 0.0
H165 H 0.83365 0.38484 0.19049 0.0
H166 H 0.78132 0.35564 0.16198 0.0
H167 H 0.80471 0.38178 0.20676 0.0
H168 H 0.89869 0.39915 0.1262 0.0
H169 H 0.87199 0.3497 0.1122 0.0
H170 H 0.91438 0.39839 0.09673 0.0
H171 H 0.88811 0.3498 0.08304 0.0
H172 H 0.89978 0.42174 0.20039 0.0
H173 H 0.84674 0.43896 0.18439 0.0
H174 H 0.80716 0.34023 0.09161 0.0
H175 H 0.82791 0.39349 0.08068 0.0
Li176 Li 0.14934 0.8795 0.35145 0.0
Li177 Li 0.16195 0.86606 0.37788 0.0
Li178 Li 0.16426 0.85085 0.34918 0.0
Li179 Li 0.13479 0.85181 0.3658 0.0
C180 C 0.18308 0.88925 0.35002 0.0
N181 N 0.19864 0.92057 0.3374 0.0
C182 C 0.18852 0.90264 0.36206 0.0
C183 C 0.1856 0.89179 0.33157 0.0
C184 C 0.19638 0.91836 0.35541 0.0
C185 C 0.19345 0.90773 0.32545 0.0
C186 C 0.134 0.8847 0.39158 0.0
C187 C 0.11794 0.88561 0.41971 0.0
N188 N 0.1271 0.90076 0.42433 0.0
C189 C 0.14318 0.90034 0.39654 0.0
C190 C 0.12122 0.87729 0.40319 0.0
C191 C 0.13954 0.90823 0.41319 0.0
C192 C 0.13702 0.89958 0.32155 0.0
N193 N 0.14432 0.90123 0.33823 0.0
C194 C 0.14759 0.933 0.33416 0.0
C195 C 0.14908 0.91761 0.34486 0.0
C196 C 0.14074 0.93156 0.31662 0.0
C197 C 0.13505 0.91463 0.3105 0.0
H198 H 0.13308 0.8865 0.31663 0.0
H199 H 0.15458 0.9187 0.35824 0.0
C200 C 0.19385 0.87031 0.39739 0.0
N201 N 0.17576 0.86935 0.39973 0.0
C202 C 0.20537 0.87086 0.41219 0.0
C203 C 0.17954 0.8694 0.43173 0.0
C204 C 0.16849 0.86875 0.41652 0.0
C205 C 0.19827 0.8703 0.42967 0.0
H206 H 0.1994 0.87015 0.38396 0.0
H207 H 0.15421 0.86706 0.41819 0.0
C208 C 0.13906 0.84714 0.3245 0.0
N209 N 0.13813 0.82609 0.29388 0.0
C210 C 0.12862 0.8315 0.32408 0.0
C211 C 0.14893 0.85213 0.3093 0.0
C212 C 0.12834 0.82104 0.30848 0.0
C213 C 0.14833 0.84128 0.29398 0.0
C214 C 0.16715 0.83177 0.38558 0.0
C215 C 0.18523 0.82773 0.38266 0.0
C216 C 0.15932 0.82797 0.40223 0.0
C217 C 0.19523 0.82002 0.39653 0.0
C218 C 0.16978 0.82025 0.41576 0.0
N219 N 0.18737 0.81649 0.41266 0.0
C220 C 0.19438 0.84196 0.32772 0.0
C221 C 0.17314 0.8185 0.33147 0.0
C222 C 0.20492 0.83106 0.31671 0.0
N223 N 0.17871 0.83562 0.33461 0.0
C224 C 0.18321 0.80715 0.32045 0.0
C225 C 0.19931 0.81343 0.31281 0.0
H226 H 0.19877 0.85544 0.33086 0.0
H227 H 0.16077 0.81371 0.33741 0.0
C228 C 0.09721 0.84543 0.36409 0.0
N229 N 0.11313 0.83869 0.36993 0.0
C230 C 0.08155 0.83507 0.36528 0.0
C231 C 0.09888 0.81128 0.3789 0.0
C232 C 0.11422 0.822 0.37727 0.0
C233 C 0.08229 0.81768 0.37264 0.0
H234 H 0.09679 0.85866 0.35808 0.0
H235 H 0.1271 0.81676 0.38135 0.0
O236 O 0.17517 0.87383 0.35625 0.0
O237 O 0.13725 0.87682 0.37532 0.0
O238 O 0.13977 0.85739 0.33977 0.0
O239 O 0.15731 0.83985 0.37235 0.0
H240 H 0.18645 0.90108 0.37636 0.0
H241 H 0.18132 0.88168 0.32204 0.0
H242 H 0.20058 0.92886 0.36457 0.0
H243 H 0.19536 0.90991 0.3112 0.0
H244 H 0.10813 0.88001 0.42886 0.0
H245 H 0.15318 0.90617 0.38775 0.0
H246 H 0.11397 0.86522 0.3995 0.0
H247 H 0.14663 0.92026 0.41728 0.0
H248 H 0.1519 0.94585 0.33949 0.0
H249 H 0.12973 0.91292 0.29705 0.0
H250 H 0.21972 0.8716 0.40994 0.0
H251 H 0.1735 0.86853 0.44495 0.0
H252 H 0.12093 0.82738 0.3357 0.0
H253 H 0.15714 0.86413 0.30941 0.0
H254 H 0.12038 0.80887 0.30799 0.0
H255 H 0.156 0.84492 0.28217 0.0
H256 H 0.19154 0.83073 0.3699 0.0
H257 H 0.14542 0.83128 0.4048 0.0
H258 H 0.20927 0.81692 0.39451 0.0
H259 H 0.16394 0.81737 0.42876 0.0
H260 H 0.21744 0.83633 0.31149 0.0
H261 H 0.17829 0.79371 0.31775 0.0
H262 H 0.06901 0.84055 0.36037 0.0
H263 H 0.10012 0.79785 0.38438 0.0
Li264 Li 0.85192 0.65057 0.37816 0.0
Li265 Li 0.86295 0.63488 0.35113 0.0
Li266 Li 0.8779 0.66229 0.3626 0.0
Li267 Li 0.84838 0.66373 0.34808 0.0
C268 C 0.87676 0.62864 0.38978 0.0
N269 N 0.87738 0.60881 0.42115 0.0
C270 C 0.87298 0.61024 0.38937 0.0
C271 C 0.88097 0.63695 0.4061 0.0
C272 C 0.87335 0.60045 0.40539 0.0
C273 C 0.88117 0.6267 0.42183 0.0
C274 C 0.82066 0.64242 0.35195 0.0
C275 C 0.79854 0.64205 0.32828 0.0
N276 N 0.78574 0.647 0.34033 0.0
C277 C 0.80728 0.64747 0.36412 0.0
C278 C 0.81626 0.63962 0.33389 0.0
C279 C 0.78971 0.64972 0.35798 0.0
C280 C 0.83644 0.66267 0.41076 0.0
N281 N 0.83976 0.64777 0.40073 0.0
C282 C 0.8227 0.62963 0.42113 0.0
C283 C 0.83315 0.63142 0.4056 0.0
C284 C 0.8188 0.64485 0.43165 0.0
C285 C 0.82601 0.66151 0.42634 0.0
H286 H 0.8414 0.67559 0.40637 0.0
H287 H 0.83563 0.61984 0.39717 0.0
C288 C 0.88292 0.60609 0.33528 0.0
N289 N 0.86618 0.61212 0.33937 0.0
C290 C 0.88511 0.59074 0.32463 0.0
C291 C 0.85287 0.58738 0.32369 0.0
C292 C 0.8513 0.60288 0.33417 0.0
C293 C 0.86993 0.58131 0.31846 0.0
H294 H 0.89456 0.61353 0.3398 0.0
H295 H 0.83815 0.60778 0.33778 0.0
C296 C 0.86311 0.69187 0.37487 0.0
N297 N 0.87885 0.7246 0.38274 0.0
C298 C 0.86167 0.70618 0.36279 0.0
C299 C 0.87245 0.69423 0.391 0.0
C300 C 0.86973 0.72262 0.36702 0.0
C301 C 0.88035 0.71087 0.39471 0.0
C302 C 0.87999 0.64904 0.32313 0.0
C303 C 0.89874 0.64839 0.32286 0.0
C304 C 0.87022 0.64154 0.30892 0.0
C305 C 0.90742 0.64017 0.30837 0.0
C306 C 0.8794 0.63339 0.29472 0.0
N307 N 0.89765 0.63289 0.29474 0.0
C308 C 0.91216 0.67229 0.37776 0.0
C309 C 0.90248 0.68876 0.35231 0.0
C310 C 0.9276 0.683 0.37912 0.0
N311 N 0.89995 0.67544 0.36455 0.0
C312 C 0.9176 0.69982 0.35323 0.0
C313 C 0.93045 0.69709 0.36679 0.0
H314 H 0.90985 0.66159 0.38731 0.0
H315 H 0.89252 0.69098 0.34197 0.0
C316 C 0.819 0.68658 0.34109 0.0
N317 N 0.83334 0.67828 0.33346 0.0
C318 C 0.80769 0.6973 0.33068 0.0
C319 C 0.82642 0.6911 0.30487 0.0
C320 C 0.8373 0.68043 0.31576 0.0
C321 C 0.81137 0.69967 0.3123 0.0
H322 H 0.81639 0.68491 0.3553 0.0
H323 H 0.84895 0.67393 0.31011 0.0
O324 O 0.8762 0.6385 0.3743 0.0
O325 O 0.83803 0.6405 0.35762 0.0
O326 O 0.85572 0.67553 0.37077 0.0
O327 O 0.87125 0.65679 0.33732 0.0
H328 H 0.86967 0.60362 0.37684 0.0
H329 H 0.88385 0.65121 0.40664 0.0
H330 H 0.87039 0.58621 0.4053 0.0
H331 H 0.88428 0.63297 0.43458 0.0
H332 H 0.79497 0.64005 0.31432 0.0
H333 H 0.81044 0.64981 0.37811 0.0
H334 H 0.82647 0.63588 0.32426 0.0
H335 H 0.77924 0.65369 0.36723 0.0
H336 H 0.81759 0.61648 0.42474 0.0
H337 H 0.82311 0.67369 0.43375 0.0
H338 H 0.89853 0.58638 0.32113 0.0
H339 H 0.8408 0.58059 0.31919 0.0
H340 H 0.85459 0.70456 0.35019 0.0
H341 H 0.87381 0.68324 0.40043 0.0
H342 H 0.86881 0.73379 0.35775 0.0
H343 H 0.88775 0.71285 0.40707 0.0
H344 H 0.90653 0.654 0.33378 0.0
H345 H 0.85571 0.64175 0.30901 0.0
H346 H 0.92192 0.63951 0.30802 0.0
H347 H 0.872 0.62741 0.28372 0.0
H348 H 0.93721 0.6802 0.38966 0.0
H349 H 0.91897 0.71065 0.34361 0.0
H350 H 0.79639 0.7039 0.337 0.0
H351 H 0.82968 0.69248 0.29074 0.0
Li352 Li 0.34913 0.84956 0.66532 0.0
Li353 Li 0.37745 0.85001 0.65037 0.0
Li354 Li 0.3648 0.87782 0.66302 0.0
Li355 Li 0.35122 0.86325 0.63609 0.0
C356 C 0.3795 0.8427 0.68673 0.0
N357 N 0.3936 0.81588 0.70814 0.0
C358 C 0.37517 0.82471 0.68343 0.0
C359 C 0.39097 0.84705 0.70094 0.0
C360 C 0.38244 0.81134 0.6944 0.0
C361 C 0.39797 0.8333 0.71161 0.0
C362 C 0.35808 0.82838 0.62688 0.0
C363 C 0.37232 0.82559 0.59788 0.0
N364 N 0.36397 0.80949 0.59544 0.0
C365 C 0.34962 0.81183 0.62406 0.0
C366 C 0.36951 0.83534 0.61368 0.0
C367 C 0.35278 0.80248 0.60809 0.0
C368 C 0.32092 0.82534 0.67209 0.0
N369 N 0.33342 0.83589 0.68021 0.0
C370 C 0.32356 0.82638 0.70925 0.0
C371 C 0.33485 0.83673 0.69841 0.0
C372 C 0.31061 0.81518 0.70125 0.0
C373 C 0.30927 0.81484 0.68241 0.0
H374 H 0.32007 0.82504 0.65757 0.0
H375 H 0.34479 0.84542 0.70451 0.0
C376 C 0.41533 0.84472 0.64612 0.0
N377 N 0.39909 0.83636 0.64682 0.0
C378 C 0.43111 0.83462 0.64448 0.0
C379 C 0.41312 0.80758 0.64418 0.0
C380 C 0.39777 0.81815 0.64585 0.0
C381 C 0.43012 0.81575 0.64353 0.0
H382 H 0.41604 0.85922 0.64703 0.0
H383 H 0.38479 0.81171 0.64671 0.0
C384 C 0.32499 0.875 0.66905 0.0
N385 N 0.29632 0.87765 0.69249 0.0
C386 C 0.30751 0.87191 0.66294 0.0
C387 C 0.32788 0.87951 0.68707 0.0
C388 C 0.2932 0.87329 0.675 0.0
C389 C 0.31321 0.88077 0.69871 0.0
C390 C 0.37755 0.89037 0.63016 0.0
C391 C 0.36282 0.90194 0.62932 0.0
C392 C 0.3939 0.8956 0.62255 0.0
C393 C 0.36469 0.91858 0.62082 0.0
C394 C 0.39523 0.91236 0.61417 0.0
N395 N 0.38072 0.9234 0.61349 0.0
C396 C 0.38348 0.90165 0.68654 0.0
C397 C 0.35704 0.91356 0.67356 0.0
C398 C 0.38562 0.91706 0.69714 0.0
N399 N 0.36923 0.9001 0.67522 0.0
C400 C 0.35869 0.92922 0.68381 0.0
C401 C 0.37295 0.93103 0.69608 0.0
H402 H 0.3929 0.89067 0.68772 0.0
H403 H 0.34568 0.91194 0.66465 0.0
C404 C 0.32187 0.85731 0.61402 0.0
N405 N 0.33806 0.86576 0.61402 0.0
C406 C 0.31096 0.85761 0.59877 0.0
C407 C 0.33371 0.87506 0.58351 0.0
C408 C 0.34427 0.8743 0.59907 0.0
C409 C 0.31679 0.86664 0.58323 0.0
H410 H 0.31751 0.85014 0.62589 0.0
H411 H 0.35748 0.88031 0.59905 0.0
O412 O 0.37262 0.85607 0.67614 0.0
O413 O 0.35495 0.83768 0.64244 0.0
O414 O 0.33924 0.87327 0.65758 0.0
O415 O 0.37619 0.87409 0.63861 0.0
H416 H 0.36628 0.82106 0.67253 0.0
H417 H 0.39444 0.86091 0.70371 0.0
H418 H 0.37921 0.79737 0.69197 0.0
H419 H 0.40688 0.83647 0.72265 0.0
H420 H 0.38113 0.83081 0.58757 0.0
H421 H 0.3407 0.80628 0.63414 0.0
H422 H 0.37617 0.84813 0.61556 0.0
H423 H 0.34633 0.78965 0.60574 0.0
H424 H 0.32485 0.82724 0.72373 0.0
H425 H 0.29957 0.80629 0.67572 0.0
H426 H 0.44391 0.84152 0.64391 0.0
H427 H 0.41167 0.79309 0.64385 0.0
H428 H 0.305 0.86847 0.64905 0.0
H429 H 0.34133 0.88168 0.69211 0.0
H430 H 0.27961 0.87088 0.67046 0.0
H431 H 0.31527 0.88413 0.71271 0.0
H432 H 0.35002 0.89807 0.63498 0.0
H433 H 0.40544 0.8868 0.62314 0.0
H434 H 0.35339 0.92765 0.62004 0.0
H435 H 0.4078 0.91658 0.60821 0.0
H436 H 0.39671 0.91772 0.70652 0.0
H437 H 0.34875 0.9397 0.68227 0.0
H438 H 0.29802 0.85097 0.5992 0.0
H439 H 0.33888 0.88185 0.57171 0.0
Li440 Li 0.85229 0.86346 0.8786 0.0
Li441 Li 0.86358 0.87882 0.85117 0.0
Li442 Li 0.84954 0.84971 0.8494 0.0
Li443 Li 0.87868 0.85209 0.86236 0.0
C444 C 0.82084 0.86968 0.85428 0.0
N445 N 0.78518 0.86281 0.84661 0.0
C446 C 0.81258 0.87804 0.83965 0.0
C447 C 0.81094 0.85787 0.86506 0.0
C448 C 0.79455 0.87438 0.83598 0.0
C449 C 0.79293 0.85457 0.86095 0.0
C450 C 0.87659 0.89121 0.88482 0.0
C451 C 0.89119 0.91088 0.90608 0.0
N452 N 0.87711 0.92243 0.90495 0.0
C453 C 0.86225 0.90326 0.88389 0.0
C454 C 0.89118 0.89502 0.89601 0.0
C455 C 0.86277 0.91897 0.89416 0.0
C456 C 0.84432 0.85517 0.9151 0.0
N457 N 0.84056 0.86651 0.90129 0.0
C458 C 0.81747 0.88067 0.91855 0.0
C459 C 0.82756 0.87922 0.90279 0.0
C460 C 0.82072 0.86888 0.93295 0.0
C461 C 0.83452 0.85612 0.93113 0.0
H462 H 0.85469 0.84514 0.91352 0.0
H463 H 0.82463 0.88791 0.89152 0.0
C464 C 0.85699 0.90104 0.82209 0.0
N465 N 0.86619 0.90077 0.83786 0.0
C466 C 0.85776 0.91605 0.81087 0.0
C467 C 0.87796 0.93018 0.83201 0.0
C468 C 0.87684 0.91481 0.84283 0.0
C469 C 0.86822 0.931 0.81581 0.0
H470 H 0.8492 0.88942 0.81814 0.0
H471 H 0.88455 0.91411 0.8551 0.0
C472 C 0.8611 0.82033 0.87013 0.0
N473 N 0.86813 0.78404 0.86661 0.0
C474 C 0.86646 0.81331 0.85355 0.0
C475 C 0.8593 0.80889 0.88492 0.0
C476 C 0.86996 0.79493 0.85204 0.0
C477 C 0.86292 0.79058 0.88287 0.0
C478 C 0.88626 0.86271 0.82729 0.0
C479 C 0.8875 0.85783 0.80919 0.0
C480 C 0.89999 0.87287 0.83515 0.0
C481 C 0.90251 0.86314 0.79925 0.0
C482 C 0.91477 0.87793 0.82475 0.0
N483 N 0.91572 0.873 0.80717 0.0
C484 C 0.83362 0.83936 0.81681 0.0
C485 C 0.82413 0.82206 0.84185 0.0
C486 C 0.82273 0.82927 0.80533 0.0
N487 N 0.83418 0.83553 0.83465 0.0
C488 C 0.8131 0.8116 0.83086 0.0
C489 C 0.81234 0.81509 0.8123 0.0
H490 H 0.84164 0.85029 0.81153 0.0
H491 H 0.82475 0.8194 0.85613 0.0
C492 C 0.90958 0.83886 0.88103 0.0
N493 N 0.90106 0.83946 0.86487 0.0
C494 C 0.92515 0.82854 0.88315 0.0
C495 C 0.92297 0.81986 0.85193 0.0
C496 C 0.90745 0.8302 0.85046 0.0
C497 C 0.93202 0.81882 0.86845 0.0
H498 H 0.90412 0.84618 0.89235 0.0
H499 H 0.90027 0.83043 0.83786 0.0
O500 O 0.83861 0.87271 0.85784 0.0
O501 O 0.87636 0.8756 0.8751 0.0
O502 O 0.85775 0.83831 0.87204 0.0
O503 O 0.87151 0.85771 0.83707 0.0
H504 H 0.81999 0.88726 0.8312 0.0
H505 H 0.81718 0.85105 0.87627 0.0
H506 H 0.788 0.88073 0.82468 0.0
H507 H 0.78515 0.84537 0.8691 0.0
H508 H 0.9024 0.91401 0.91479 0.0
H509 H 0.85092 0.90062 0.87521 0.0
H510 H 0.90235 0.88579 0.89692 0.0
H511 H 0.85178 0.92843 0.89354 0.0
H512 H 0.80681 0.89052 0.91919 0.0
H513 H 0.83764 0.84689 0.94193 0.0
H514 H 0.85043 0.9158 0.7983 0.0
H515 H 0.88621 0.94135 0.83639 0.0
H516 H 0.86793 0.82193 0.84194 0.0
H517 H 0.85516 0.81411 0.89786 0.0
H518 H 0.87414 0.78934 0.83929 0.0
H519 H 0.86159 0.78157 0.89421 0.0
H520 H 0.87695 0.85 0.8029 0.0
H521 H 0.89928 0.87684 0.84911 0.0
H522 H 0.90365 0.85944 0.78523 0.0
H523 H 0.92549 0.88579 0.83066 0.0
H524 H 0.82234 0.83263 0.79117 0.0
H525 H 0.80548 0.8007 0.83681 0.0
H526 H 0.93174 0.82817 0.89612 0.0
H527 H 0.92753 0.81232 0.84035 0.0
Li528 Li 0.13569 0.66379 0.86488 0.0
Li529 Li 0.16488 0.66528 0.84964 0.0
Li530 Li 0.14816 0.63676 0.85194 0.0
Li531 Li 0.1628 0.65032 0.87848 0.0
C532 C 0.12809 0.66802 0.83069 0.0
N533 N 0.1007 0.68748 0.81503 0.0
C534 C 0.13146 0.68518 0.8238 0.0
C535 C 0.11083 0.6607 0.82949 0.0
C536 C 0.11742 0.69481 0.81595 0.0
C537 C 0.09715 0.67077 0.82157 0.0
C538 C 0.1636 0.68491 0.8877 0.0
C539 C 0.18738 0.69609 0.90669 0.0
N540 N 0.17494 0.70182 0.91878 0.0
C541 C 0.15105 0.69093 0.90029 0.0
C542 C 0.18192 0.68755 0.89087 0.0
C543 C 0.15706 0.69946 0.91592 0.0
C544 C 0.09858 0.67044 0.87387 0.0
N545 N 0.11451 0.67781 0.8688 0.0
C546 C 0.10109 0.70687 0.86642 0.0
C547 C 0.11605 0.69568 0.8653 0.0
C548 C 0.08434 0.69966 0.8713 0.0
C549 C 0.08323 0.6812 0.87526 0.0
H550 H 0.09771 0.65618 0.87651 0.0
H551 H 0.12891 0.70118 0.86132 0.0
C552 C 0.18278 0.67428 0.81727 0.0
N553 N 0.17934 0.67982 0.83434 0.0
C554 C 0.19318 0.6849 0.8058 0.0
C555 C 0.19579 0.70698 0.82952 0.0
C556 C 0.18549 0.69586 0.84057 0.0
C557 C 0.19978 0.70152 0.81189 0.0
H558 H 0.17733 0.66165 0.81253 0.0
H559 H 0.18225 0.70011 0.85407 0.0
C560 C 0.13101 0.62352 0.88 0.0
N561 N 0.11742 0.5894 0.88557 0.0
C562 C 0.1399 0.61159 0.89144 0.0
C563 C 0.11515 0.61816 0.87149 0.0
C564 C 0.13282 0.59439 0.89406 0.0
C565 C 0.10852 0.60083 0.87444 0.0
C566 C 0.1893 0.64 0.84626 0.0
C567 C 0.18959 0.6294 0.83075 0.0
C568 C 0.20453 0.64994 0.85105 0.0
C569 C 0.2051 0.62902 0.82019 0.0
C570 C 0.21976 0.64922 0.84011 0.0
N571 N 0.21973 0.63887 0.82504 0.0
C572 C 0.13559 0.61585 0.82275 0.0
C573 C 0.14956 0.59888 0.84573 0.0
C574 C 0.13356 0.60046 0.81215 0.0
N575 N 0.14352 0.61482 0.83917 0.0
C576 C 0.14765 0.58311 0.83566 0.0
C577 C 0.13976 0.58377 0.81847 0.0
H578 H 0.13135 0.62873 0.81759 0.0
H579 H 0.15623 0.59848 0.85863 0.0
C580 C 0.16926 0.65101 0.91651 0.0
N581 N 0.17594 0.64591 0.90027 0.0
C582 C 0.17988 0.64977 0.93198 0.0
C583 C 0.20356 0.63694 0.91393 0.0
C584 C 0.19257 0.63859 0.89882 0.0
C585 C 0.19746 0.64296 0.93078 0.0
H586 H 0.1559 0.65658 0.91737 0.0
H587 H 0.19745 0.63428 0.88585 0.0
O588 O 0.14152 0.65859 0.8389 0.0
O589 O 0.158 0.67633 0.87241 0.0
O590 O 0.13783 0.64034 0.87712 0.0
O591 O 0.17416 0.64078 0.85664 0.0
H592 H 0.14471 0.69109 0.8247 0.0
H593 H 0.10798 0.64747 0.83486 0.0
H594 H 0.1198 0.70814 0.81066 0.0
H595 H 0.0837 0.66533 0.82068 0.0
H596 H 0.20151 0.69812 0.90937 0.0
H597 H 0.13683 0.68888 0.89813 0.0
H598 H 0.19181 0.68287 0.88133 0.0
H599 H 0.1475 0.70413 0.92582 0.0
H600 H 0.10265 0.72105 0.86351 0.0
H601 H 0.07056 0.67505 0.87894 0.0
H602 H 0.19574 0.68034 0.79221 0.0
H603 H 0.20069 0.71966 0.83476 0.0
H604 H 0.1522 0.61554 0.89812 0.0
H605 H 0.10816 0.62722 0.86255 0.0
H606 H 0.13958 0.58498 0.90282 0.0
H607 H 0.09633 0.59645 0.86785 0.0
H608 H 0.17794 0.62166 0.8268 0.0
H609 H 0.2045 0.65828 0.86296 0.0
H610 H 0.20549 0.62093 0.80811 0.0
H611 H 0.23158 0.65694 0.84359 0.0
H612 H 0.12776 0.6018 0.79888 0.0
H613 H 0.15247 0.57059 0.84123 0.0
H614 H 0.17457 0.65467 0.94461 0.0
H615 H 0.21678 0.63113 0.91236 0.0
Li616 Li 0.84893 0.16707 0.66509 0.0
Li617 Li 0.86357 0.13752 0.66322 0.0
Li618 Li 0.87762 0.16451 0.64973 0.0
Li619 Li 0.85065 0.15043 0.63651 0.0
C620 C 0.88658 0.16562 0.68466 0.0
N621 N 0.91692 0.17772 0.70232 0.0
C622 C 0.89912 0.15334 0.69128 0.0
C623 C 0.88942 0.18404 0.6871 0.0
C624 C 0.91437 0.15974 0.70018 0.0
C625 C 0.90487 0.18989 0.69602 0.0
C626 C 0.82951 0.13075 0.66855 0.0
C627 C 0.8203 0.09992 0.67266 0.0
N628 N 0.8141 0.10409 0.68934 0.0
C629 C 0.82299 0.13475 0.68572 0.0
C630 C 0.82809 0.11322 0.66192 0.0
C631 C 0.81525 0.12107 0.69602 0.0
C632 C 0.81778 0.18699 0.67397 0.0
N633 N 0.83433 0.18203 0.67982 0.0
C634 C 0.83017 0.19809 0.70731 0.0
C635 C 0.84056 0.18714 0.69622 0.0
C636 C 0.81322 0.20384 0.70143 0.0
C637 C 0.80702 0.19815 0.68453 0.0
H638 H 0.81292 0.18226 0.66112 0.0
H639 H 0.85355 0.18261 0.70076 0.0
C640 C 0.87121 0.10004 0.66954 0.0
N641 N 0.86733 0.11619 0.67714 0.0
C642 C 0.8723 0.08458 0.68022 0.0
C643 C 0.86581 0.10279 0.70632 0.0
C644 C 0.86481 0.11783 0.69517 0.0
C645 C 0.86939 0.08579 0.69888 0.0
H646 H 0.87304 0.09908 0.65516 0.0
H647 H 0.86171 0.13085 0.70084 0.0
C648 C 0.84635 0.19194 0.63954 0.0
N649 N 0.82681 0.22342 0.63772 0.0
C650 C 0.83073 0.19272 0.62916 0.0
C651 C 0.85207 0.2072 0.64893 0.0
C652 C 0.82104 0.20876 0.62841 0.0
C653 C 0.84198 0.22297 0.64787 0.0
C654 C 0.87766 0.13339 0.62242 0.0
C655 C 0.88825 0.14292 0.61017 0.0
C656 C 0.86896 0.11764 0.61698 0.0
C657 C 0.88988 0.13655 0.59257 0.0
C658 C 0.8709 0.11174 0.59925 0.0
N659 N 0.88123 0.12124 0.58752 0.0
C660 C 0.91555 0.1707 0.65124 0.0
C661 C 0.89863 0.19368 0.63724 0.0
C662 C 0.93113 0.18118 0.65023 0.0
N663 N 0.89961 0.17731 0.6453 0.0
C664 C 0.9139 0.20451 0.63573 0.0
C665 C 0.93036 0.19846 0.64264 0.0
H666 H 0.91607 0.15749 0.65727 0.0
H667 H 0.88588 0.19854 0.63235 0.0
C668 C 0.82246 0.13615 0.6152 0.0
N669 N 0.8377 0.1462 0.6146 0.0
C670 C 0.8117 0.13428 0.59993 0.0
C671 C 0.83259 0.15302 0.58357 0.0
C672 C 0.84298 0.15449 0.59918 0.0
C673 C 0.81654 0.14301 0.58387 0.0
H674 H 0.81837 0.12994 0.62767 0.0
H675 H 0.85496 0.16272 0.59916 0.0
O676 O 0.87165 0.15963 0.67574 0.0
O677 O 0.83761 0.14383 0.65847 0.0
O678 O 0.85595 0.17631 0.64057 0.0
O679 O 0.87563 0.13959 0.6396 0.0
H680 H 0.89721 0.13905 0.68941 0.0
H681 H 0.87988 0.19372 0.68202 0.0
H682 H 0.92423 0.1504 0.70531 0.0
H683 H 0.90729 0.20411 0.6979 0.0
H684 H 0.81927 0.08626 0.66776 0.0
H685 H 0.82406 0.1482 0.69112 0.0
H686 H 0.83329 0.10984 0.64876 0.0
H687 H 0.81023 0.12395 0.70936 0.0
H688 H 0.83541 0.2022 0.72026 0.0
H689 H 0.7939 0.20204 0.67966 0.0
H690 H 0.87492 0.07175 0.67386 0.0
H691 H 0.86376 0.10448 0.72063 0.0
H692 H 0.82601 0.18104 0.6219 0.0
H693 H 0.86409 0.20683 0.65706 0.0
H694 H 0.80889 0.20953 0.62049 0.0
H695 H 0.84621 0.23484 0.65514 0.0
H696 H 0.89503 0.15516 0.61417 0.0
H697 H 0.86059 0.11021 0.62627 0.0
H698 H 0.89798 0.14381 0.58291 0.0
H699 H 0.86414 0.09965 0.5948 0.0
H700 H 0.94361 0.1759 0.65546 0.0
H701 H 0.91268 0.21775 0.62981 0.0
H702 H 0.7996 0.12624 0.60077 0.0
H703 H 0.83676 0.1602 0.57162 0.0
Li704 Li 0.15148 0.37837 0.66434 0.0
Li705 Li 0.16405 0.34898 0.66607 0.0
Li706 Li 0.16269 0.36377 0.63728 0.0
Li707 Li 0.1351 0.35239 0.65215 0.0
C708 C 0.18672 0.38581 0.65413 0.0
N709 N 0.20729 0.41525 0.64459 0.0
C710 C 0.2048 0.38667 0.65902 0.0
C711 C 0.17909 0.3999 0.64434 0.0
C712 C 0.21498 0.40168 0.65409 0.0
C713 C 0.18972 0.41467 0.63965 0.0
C714 C 0.14363 0.36005 0.69558 0.0
C715 C 0.13144 0.36069 0.72561 0.0
N716 N 0.14771 0.36599 0.73203 0.0
C717 C 0.16025 0.36547 0.70249 0.0
C718 C 0.12911 0.35762 0.70723 0.0
C719 C 0.16203 0.36841 0.72095 0.0
C720 C 0.13256 0.40843 0.67886 0.0
N721 N 0.14892 0.40047 0.67758 0.0
C722 C 0.16163 0.4223 0.69753 0.0
C723 C 0.16333 0.40712 0.68666 0.0
C724 C 0.14484 0.43068 0.69945 0.0
C725 C 0.13019 0.42361 0.68976 0.0
H726 H 0.12123 0.40271 0.67174 0.0
H727 H 0.17614 0.40043 0.68585 0.0
C728 C 0.19624 0.33267 0.67722 0.0
N729 N 0.17824 0.33305 0.6801 0.0
C730 C 0.20714 0.32132 0.6874 0.0
C731 C 0.18071 0.31085 0.70314 0.0
C732 C 0.17033 0.3224 0.69267 0.0
C733 C 0.1994 0.31027 0.70064 0.0
H734 H 0.20211 0.34127 0.66706 0.0
H735 H 0.15595 0.32286 0.69456 0.0
C736 C 0.12933 0.37739 0.62501 0.0
N737 N 0.10948 0.37877 0.59367 0.0
C738 C 0.13061 0.36355 0.61236 0.0
C739 C 0.11795 0.39192 0.62173 0.0
C740 C 0.12047 0.3645 0.5966 0.0
C741 C 0.10802 0.39238 0.6058 0.0
C742 C 0.15866 0.3207 0.64512 0.0
C743 C 0.1731 0.31228 0.63662 0.0
C744 C 0.1474 0.31071 0.65638 0.0
C745 C 0.1761 0.29399 0.63959 0.0
C746 C 0.15084 0.29245 0.659 0.0
N747 N 0.165 0.28454 0.65063 0.0
C748 C 0.1917 0.35727 0.61497 0.0
C749 C 0.17175 0.37833 0.602 0.0
C750 C 0.20319 0.35856 0.60021 0.0
N751 N 0.17623 0.36687 0.61553 0.0
C752 C 0.18285 0.38 0.58688 0.0
C753 C 0.19884 0.37002 0.58585 0.0
H754 H 0.19522 0.34873 0.62618 0.0
H755 H 0.15973 0.38637 0.60299 0.0
C756 C 0.09905 0.34354 0.66096 0.0
N757 N 0.11235 0.34087 0.64874 0.0
C758 C 0.08315 0.33353 0.66001 0.0
C759 C 0.0947 0.31865 0.63356 0.0
C760 C 0.1104 0.32885 0.6351 0.0
C761 C 0.08092 0.3207 0.64629 0.0
H762 H 0.10099 0.35312 0.67174 0.0
H763 H 0.12131 0.32668 0.62576 0.0
O764 O 0.17671 0.37105 0.6587 0.0
O765 O 0.14146 0.35719 0.67752 0.0
O766 O 0.13894 0.37673 0.64067 0.0
O767 O 0.15573 0.3387 0.64272 0.0
H768 H 0.21091 0.37585 0.66656 0.0
H769 H 0.16514 0.39949 0.64037 0.0
H770 H 0.229 0.40253 0.6578 0.0
H771 H 0.184 0.42567 0.63208 0.0
H772 H 0.1203 0.35887 0.73478 0.0
H773 H 0.17166 0.36739 0.69372 0.0
H774 H 0.11617 0.3534 0.70212 0.0
H775 H 0.1748 0.37263 0.72645 0.0
H776 H 0.1734 0.42735 0.70444 0.0
H777 H 0.11693 0.42941 0.69097 0.0
H778 H 0.2215 0.32145 0.68514 0.0
H779 H 0.17414 0.30237 0.71298 0.0
H780 H 0.13944 0.35226 0.61459 0.0
H781 H 0.11678 0.40272 0.63143 0.0
H782 H 0.12135 0.35389 0.58669 0.0
H783 H 0.09916 0.40355 0.60309 0.0
H784 H 0.18192 0.31976 0.62781 0.0
H785 H 0.13634 0.31705 0.66332 0.0
H786 H 0.18725 0.28731 0.63312 0.0
H787 H 0.1423 0.28459 0.66778 0.0
H788 H 0.2153 0.35054 0.6 0.0
H789 H 0.17914 0.38926 0.5763 0.0
H790 H 0.0728 0.33567 0.67001 0.0
H791 H 0.09369 0.30875 0.62293 0.0
Li792 Li 0.63479 0.16286 0.36262 0.0
Li793 Li 0.66564 0.16423 0.34872 0.0
Li794 Li 0.65074 0.13562 0.35294 0.0
Li795 Li 0.66298 0.15129 0.3782 0.0
C796 C 0.63752 0.14861 0.32253 0.0
N797 N 0.62774 0.13109 0.29128 0.0
C798 C 0.65027 0.14542 0.30913 0.0
C799 C 0.61978 0.14299 0.32002 0.0
C800 C 0.64506 0.13651 0.29343 0.0
C801 C 0.61511 0.13414 0.30413 0.0
C802 C 0.6624 0.19359 0.36814 0.0
C803 C 0.68627 0.21541 0.36545 0.0
N804 N 0.674 0.22822 0.36118 0.0
C805 C 0.65002 0.207 0.36381 0.0
C806 C 0.68067 0.19785 0.36907 0.0
C807 C 0.65615 0.22442 0.36032 0.0
C808 C 0.60567 0.1797 0.38104 0.0
N809 N 0.61276 0.17576 0.36466 0.0
C810 C 0.59004 0.19301 0.34998 0.0
C811 C 0.60523 0.18208 0.34928 0.0
C812 C 0.58255 0.19767 0.3667 0.0
C813 C 0.59047 0.19066 0.38237 0.0
H814 H 0.6121 0.1747 0.39307 0.0
H815 H 0.61131 0.17901 0.33645 0.0
C816 C 0.69738 0.17427 0.33011 0.0
N817 N 0.67976 0.17821 0.33262 0.0
C818 C 0.70795 0.18496 0.31886 0.0
C819 C 0.68188 0.2032 0.31257 0.0
C820 C 0.67182 0.19214 0.32392 0.0
C821 C 0.70025 0.19976 0.31004 0.0
H822 H 0.70325 0.16285 0.33684 0.0
H823 H 0.65771 0.19482 0.32603 0.0
C824 C 0.62777 0.12544 0.37892 0.0
N825 N 0.60604 0.09569 0.3838 0.0
C826 C 0.63533 0.10884 0.38331 0.0
C827 C 0.60915 0.12695 0.37711 0.0
C828 C 0.62412 0.09394 0.38567 0.0
C829 C 0.5984 0.11174 0.37962 0.0
C830 C 0.69026 0.13379 0.36598 0.0
C831 C 0.68985 0.11546 0.37009 0.0
C832 C 0.70486 0.14425 0.37153 0.0
C833 C 0.70407 0.10789 0.37968 0.0
C834 C 0.71879 0.1362 0.38115 0.0
N835 N 0.71812 0.11834 0.38499 0.0
C836 C 0.66234 0.10674 0.33163 0.0
C837 C 0.63141 0.10459 0.33858 0.0
C838 C 0.6613 0.09142 0.32081 0.0
N839 N 0.64758 0.11296 0.3404 0.0
C840 C 0.62975 0.08919 0.32788 0.0
C841 C 0.64483 0.08242 0.31876 0.0
H842 H 0.67489 0.11399 0.33262 0.0
H843 H 0.61964 0.11012 0.34494 0.0
C844 C 0.68261 0.16468 0.408 0.0
N845 N 0.67496 0.14955 0.40114 0.0
C846 C 0.69328 0.16384 0.42342 0.0
C847 C 0.68746 0.13194 0.42498 0.0
C848 C 0.67686 0.13342 0.40953 0.0
C849 C 0.69608 0.14726 0.432 0.0
H850 H 0.6808 0.17738 0.40126 0.0
H851 H 0.6706 0.12158 0.40394 0.0
O852 O 0.6425 0.15679 0.33822 0.0
O853 O 0.65667 0.17636 0.37127 0.0
O854 O 0.63846 0.14023 0.3767 0.0
O855 O 0.67627 0.14154 0.3569 0.0
H856 H 0.66409 0.14958 0.31093 0.0
H857 H 0.60981 0.14518 0.33038 0.0
H858 H 0.6548 0.13384 0.28298 0.0
H859 H 0.60146 0.12959 0.30205 0.0
H860 H 0.70038 0.21884 0.36595 0.0
H861 H 0.63584 0.20402 0.36306 0.0
H862 H 0.69048 0.18763 0.3722 0.0
H863 H 0.64672 0.23491 0.35689 0.0
H864 H 0.5843 0.19785 0.33752 0.0
H865 H 0.58533 0.19405 0.39556 0.0
H866 H 0.72196 0.18159 0.31701 0.0
H867 H 0.67542 0.21453 0.30614 0.0
H868 H 0.6497 0.1074 0.38464 0.0
H869 H 0.60308 0.1397 0.37373 0.0
H870 H 0.62979 0.08098 0.38896 0.0
H871 H 0.58398 0.1127 0.37821 0.0
H872 H 0.67856 0.10718 0.36617 0.0
H873 H 0.70531 0.1585 0.36873 0.0
H874 H 0.70389 0.09374 0.38301 0.0
H875 H 0.73009 0.14417 0.38565 0.0
H876 H 0.67318 0.08703 0.3137 0.0
H877 H 0.61676 0.08274 0.3267 0.0
H878 H 0.69973 0.17599 0.42821 0.0
H879 H 0.68899 0.11892 0.43128 0.0
Li880 Li 0.63705 0.66416 0.64978 0.0
Li881 Li 0.66533 0.66468 0.66562 0.0
Li882 Li 0.66332 0.65062 0.63614 0.0
Li883 Li 0.64956 0.63646 0.66204 0.0
C884 C 0.65765 0.68581 0.62683 0.0
N885 N 0.65369 0.70503 0.5953 0.0
C886 C 0.66775 0.70139 0.62393 0.0
C887 C 0.64553 0.68 0.61369 0.0
C888 C 0.66556 0.71092 0.60791 0.0
C889 C 0.64373 0.6899 0.59785 0.0
C890 C 0.63451 0.67139 0.6861 0.0
C891 C 0.61582 0.68093 0.7108 0.0
N892 N 0.62027 0.69833 0.70732 0.0
C893 C 0.63892 0.68937 0.6828 0.0
C894 C 0.62289 0.66712 0.70023 0.0
C895 C 0.63158 0.70279 0.69366 0.0
C896 C 0.59919 0.67 0.64604 0.0
N897 N 0.61558 0.6781 0.64624 0.0
C898 C 0.60193 0.70711 0.64418 0.0
C899 C 0.61716 0.69629 0.6452 0.0
C900 C 0.58479 0.69923 0.6443 0.0
C901 C 0.58353 0.68036 0.64501 0.0
H902 H 0.59827 0.65552 0.64708 0.0
H903 H 0.63026 0.70252 0.64556 0.0
C904 C 0.69388 0.68819 0.67233 0.0
N905 N 0.68084 0.67845 0.68061 0.0
C906 C 0.7054 0.69906 0.6824 0.0
C907 C 0.68998 0.68948 0.70936 0.0
C908 C 0.6788 0.67875 0.69877 0.0
C909 C 0.70345 0.69991 0.70118 0.0
H910 H 0.69526 0.68754 0.65787 0.0
H911 H 0.66834 0.67084 0.70504 0.0
C912 C 0.63772 0.62396 0.62901 0.0
N913 N 0.63606 0.59124 0.61149 0.0
C914 C 0.653 0.61317 0.62773 0.0
C915 C 0.6216 0.61812 0.62136 0.0
C916 C 0.65189 0.59667 0.61883 0.0
C917 C 0.62103 0.60153 0.61256 0.0
C918 C 0.68597 0.63446 0.67129 0.0
C919 C 0.70291 0.62752 0.66729 0.0
C920 C 0.67979 0.63425 0.68904 0.0
C921 C 0.71343 0.62048 0.68114 0.0
C922 C 0.6907 0.62709 0.70251 0.0
N923 N 0.70716 0.62041 0.69831 0.0
C924 C 0.69506 0.64958 0.61654 0.0
C925 C 0.66958 0.64437 0.59819 0.0
C926 C 0.70641 0.64851 0.60165 0.0
N927 N 0.67704 0.64755 0.61458 0.0
C928 C 0.68047 0.64325 0.58287 0.0
C929 C 0.69918 0.64546 0.58445 0.0
H930 H 0.7006 0.65222 0.62972 0.0
H931 H 0.65518 0.64296 0.59696 0.0
C932 C 0.63084 0.61292 0.68571 0.0
N933 N 0.64477 0.614 0.67395 0.0
C934 C 0.62851 0.59758 0.69636 0.0
C935 C 0.65457 0.58452 0.68219 0.0
C936 C 0.65637 0.60007 0.67181 0.0
C937 C 0.64069 0.58323 0.69494 0.0
H938 H 0.62186 0.62422 0.68723 0.0
H939 H 0.66744 0.60123 0.66249 0.0
O940 O 0.65979 0.67629 0.64241 0.0
O941 O 0.6414 0.65797 0.67556 0.0
O942 O 0.63839 0.64019 0.63764 0.0
O943 O 0.67555 0.64136 0.65782 0.0
H944 H 0.67719 0.70606 0.63397 0.0
H945 H 0.63759 0.66798 0.61567 0.0
H946 H 0.67329 0.72301 0.60548 0.0
H947 H 0.63441 0.68555 0.58757 0.0
H948 H 0.6068 0.67782 0.72176 0.0
H949 H 0.64792 0.69296 0.67198 0.0
H950 H 0.61935 0.65329 0.703 0.0
H951 H 0.63486 0.71675 0.69123 0.0
H952 H 0.6036 0.72156 0.64339 0.0
H953 H 0.57059 0.6737 0.64529 0.0
H954 H 0.71577 0.70664 0.67554 0.0
H955 H 0.68785 0.68986 0.72375 0.0
H956 H 0.66562 0.61746 0.6335 0.0
H957 H 0.60965 0.62634 0.62223 0.0
H958 H 0.66361 0.58819 0.61774 0.0
H959 H 0.60863 0.59684 0.60659 0.0
H960 H 0.70787 0.62753 0.65361 0.0
H961 H 0.66668 0.63947 0.6924 0.0
H962 H 0.72657 0.61505 0.67823 0.0
H963 H 0.68607 0.62683 0.71629 0.0
H964 H 0.72074 0.65001 0.60363 0.0
H965 H 0.67424 0.64109 0.56989 0.0
H966 H 0.61769 0.59727 0.70609 0.0
H967 H 0.66412 0.57371 0.68042 0.0
Li968 Li 0.64927 0.38012 0.85063 0.0
Li969 Li 0.66306 0.36578 0.87749 0.0
Li970 Li 0.66508 0.35195 0.84835 0.0
Li971 Li 0.63685 0.35223 0.86343 0.0
C972 C 0.68913 0.37746 0.84435 0.0
N973 N 0.71771 0.37986 0.82077 0.0
C974 C 0.70664 0.37477 0.85049 0.0
C975 C 0.68615 0.38145 0.82623 0.0
C976 C 0.72091 0.37603 0.83836 0.0
C977 C 0.70077 0.38259 0.81452 0.0
C978 C 0.63685 0.39264 0.88362 0.0
C979 C 0.61977 0.4142 0.90071 0.0
N980 N 0.63409 0.42558 0.90055 0.0
C981 C 0.6514 0.40455 0.88362 0.0
C982 C 0.6209 0.39749 0.89221 0.0
C983 C 0.64974 0.42114 0.89226 0.0
C984 C 0.62913 0.4038 0.8285 0.0
N985 N 0.64441 0.4022 0.83835 0.0
C986 C 0.65476 0.43086 0.828 0.0
C987 C 0.65703 0.41544 0.83847 0.0
C988 C 0.63935 0.43273 0.81725 0.0
C989 C 0.6263 0.41902 0.81782 0.0
H990 H 0.61933 0.39305 0.82861 0.0
H991 H 0.66916 0.41377 0.84625 0.0
C992 C 0.69255 0.36029 0.89941 0.0
N993 N 0.67629 0.36853 0.89948 0.0
C994 C 0.70348 0.36067 0.91464 0.0
C995 C 0.6806 0.37772 0.93004 0.0
C996 C 0.67005 0.37695 0.91447 0.0
C997 C 0.69758 0.36948 0.93027 0.0
H998 H 0.69694 0.3532 0.8875 0.0
H999 H 0.65681 0.38284 0.91451 0.0
C1000 C 0.63445 0.34499 0.82705 0.0
N1001 N 0.61984 0.31839 0.8056 0.0
C1002 C 0.63871 0.32696 0.83011 0.0
C1003 C 0.62278 0.34949 0.81306 0.0
C1004 C 0.63118 0.31371 0.81913 0.0
C1005 C 0.61553 0.33585 0.80237 0.0
C1006 C 0.65641 0.33088 0.88691 0.0
C1007 C 0.66502 0.31447 0.88979 0.0
C1008 C 0.64493 0.33777 0.9001 0.0
C1009 C 0.66197 0.30517 0.90582 0.0
C1010 C 0.64225 0.32807 0.91595 0.0
N1011 N 0.65075 0.31211 0.91846 0.0
C1012 C 0.69347 0.32811 0.84167 0.0
C1013 C 0.67912 0.33872 0.81529 0.0
C1014 C 0.70511 0.31758 0.83143 0.0
N1015 N 0.68075 0.33828 0.83349 0.0
C1016 C 0.69042 0.32834 0.80454 0.0
C1017 C 0.70359 0.3175 0.81259 0.0
H1018 H 0.69454 0.3282 0.85618 0.0
H1019 H 0.66896 0.34706 0.80914 0.0
C1020 C 0.59899 0.34659 0.86748 0.0
N1021 N 0.61528 0.33839 0.86698 0.0
C1022 C 0.58324 0.33635 0.86894 0.0
C1023 C 0.60136 0.30947 0.86952 0.0
C1024 C 0.61667 0.32019 0.86801 0.0
C1025 C 0.58431 0.31748 0.86993 0.0
H1026 H 0.59822 0.36108 0.8665 0.0
H1027 H 0.62969 0.31388 0.86727 0.0
O1028 O 0.67492 0.37583 0.8559 0.0
O1029 O 0.63801 0.37638 0.87512 0.0
O1030 O 0.64154 0.35825 0.83768 0.0
O1031 O 0.65942 0.34014 0.8713 0.0
H1032 H 0.70922 0.37176 0.86447 0.0
H1033 H 0.67266 0.3833 0.82118 0.0
H1034 H 0.73453 0.37393 0.84292 0.0
H1035 H 0.69865 0.38555 0.80044 0.0
H1036 H 0.6075 0.41814 0.90741 0.0
H1037 H 0.66391 0.401 0.87719 0.0
H1038 H 0.60951 0.38843 0.89229 0.0
H1039 H 0.6609 0.43046 0.8924 0.0
H1040 H 0.66532 0.44088 0.82783 0.0
H1041 H 0.61409 0.41996 0.80998 0.0
H1042 H 0.71648 0.3542 0.91412 0.0
H1043 H 0.67535 0.38435 0.94189 0.0
H1044 H 0.64772 0.32321 0.84086 0.0
H1045 H 0.61936 0.36339 0.8105 0.0
H1046 H 0.63435 0.29971 0.82137 0.0
H1047 H 0.60647 0.33914 0.7915 0.0
H1048 H 0.67396 0.30898 0.87972 0.0
H1049 H 0.63816 0.35045 0.89817 0.0
H1050 H 0.66854 0.29244 0.90822 0.0
H1051 H 0.63341 0.33324 0.92626 0.0
H1052 H 0.71525 0.30969 0.83821 0.0
H1053 H 0.6886 0.32857 0.7901 0.0
H1054 H 0.5704 0.34312 0.86933 0.0
H1055 H 0.60287 0.29501 0.86988 0.0
Li1056 Li 0.35195 0.15072 0.87676 0.0
Li1057 Li 0.3655 0.13603 0.85 0.0
Li1058 Li 0.37788 0.1642 0.86209 0.0
Li1059 Li 0.34944 0.164 0.84735 0.0
C1060 C 0.37845 0.12414 0.88296 0.0
N1061 N 0.38174 0.09143 0.90021 0.0
C1062 C 0.3637 0.11255 0.88421 0.0
C1063 C 0.39487 0.11908 0.89047 0.0
C1064 C 0.36563 0.09608 0.89298 0.0
C1065 C 0.39626 0.10249 0.89915 0.0
C1066 C 0.32582 0.13765 0.84396 0.0
C1067 C 0.3145 0.13087 0.81433 0.0
N1068 N 0.29745 0.13312 0.82045 0.0
C1069 C 0.30819 0.13985 0.84996 0.0
C1070 C 0.32902 0.13309 0.82601 0.0
C1071 C 0.29403 0.13752 0.83786 0.0
C1072 C 0.3223 0.15583 0.89853 0.0
N1073 N 0.33888 0.14827 0.89888 0.0
C1074 C 0.33486 0.13994 0.92973 0.0
C1075 C 0.34543 0.14064 0.91416 0.0
C1076 C 0.31754 0.14744 0.92965 0.0
C1077 C 0.31134 0.15549 0.91374 0.0
H1078 H 0.31766 0.16232 0.88639 0.0
H1079 H 0.3589 0.1353 0.91439 0.0
C1080 C 0.38413 0.11241 0.8264 0.0
N1081 N 0.37012 0.11368 0.83804 0.0
C1082 C 0.38628 0.09702 0.81578 0.0
C1083 C 0.35991 0.0843 0.8298 0.0
C1084 C 0.35822 0.09994 0.84006 0.0
C1085 C 0.37387 0.08279 0.81716 0.0
H1086 H 0.3933 0.1236 0.82493 0.0
H1087 H 0.34704 0.10135 0.84921 0.0
C1088 C 0.35843 0.18582 0.88548 0.0
N1089 N 0.36432 0.20517 0.91665 0.0
C1090 C 0.34976 0.20222 0.88819 0.0
C1091 C 0.3701 0.17923 0.89864 0.0
C1092 C 0.35292 0.21182 0.90403 0.0
C1093 C 0.3729 0.18922 0.9143 0.0
C1094 C 0.37946 0.17109 0.82562 0.0
C1095 C 0.37485 0.18903 0.82872 0.0
C1096 C 0.3909 0.16681 0.81136 0.0
C1097 C 0.38182 0.20241 0.81753 0.0
C1098 C 0.39759 0.18058 0.80046 0.0
N1099 N 0.39295 0.19794 0.80375 0.0
C1100 C 0.41575 0.1703 0.86575 0.0
C1101 C 0.39777 0.19651 0.86575 0.0
C1102 C 0.4314 0.18076 0.86676 0.0
N1103 N 0.39937 0.1783 0.86516 0.0
C1104 C 0.41298 0.20743 0.86672 0.0
C1105 C 0.43013 0.19963 0.86704 0.0
H1106 H 0.41668 0.1558 0.86511 0.0
H1107 H 0.38467 0.20266 0.86513 0.0
C1108 C 0.32138 0.18817 0.84056 0.0
N1109 N 0.33347 0.17721 0.83243 0.0
C1110 C 0.30966 0.19852 0.83025 0.0
C1111 C 0.32286 0.18583 0.8034 0.0
C1112 C 0.33436 0.17577 0.81423 0.0
C1113 C 0.31038 0.1975 0.81139 0.0
H1114 H 0.32091 0.1889 0.85508 0.0
H1115 H 0.34411 0.1669 0.80814 0.0
O1116 O 0.37702 0.14028 0.87427 0.0
O1117 O 0.33991 0.14028 0.85548 0.0
O1118 O 0.3553 0.17627 0.87006 0.0
O1119 O 0.37292 0.15771 0.83645 0.0
H1120 H 0.35085 0.11628 0.87862 0.0
H1121 H 0.40642 0.1279 0.88958 0.0
H1122 H 0.35432 0.087 0.89407 0.0
H1123 H 0.40889 0.0984 0.90503 0.0
H1124 H 0.3168 0.12745 0.80038 0.0
H1125 H 0.30543 0.1433 0.8638 0.0
H1126 H 0.34259 0.13162 0.82104 0.0
H1127 H 0.28031 0.13921 0.84232 0.0
H1128 H 0.34033 0.13392 0.94179 0.0
H1129 H 0.29808 0.16137 0.91298 0.0
H1130 H 0.39714 0.0966 0.80612 0.0
H1131 H 0.35018 0.07361 0.83158 0.0
H1132 H 0.34067 0.20749 0.87814 0.0
H1133 H 0.37694 0.16657 0.89684 0.0
H1134 H 0.3463 0.22454 0.9063 0.0
H1135 H 0.38188 0.18429 0.92459 0.0
H1136 H 0.36601 0.19263 0.83965 0.0
H1137 H 0.39459 0.153 0.80874 0.0
H1138 H 0.37838 0.21634 0.8198 0.0
H1139 H 0.40647 0.17745 0.78938 0.0
H1140 H 0.44434 0.17416 0.86683 0.0
H1141 H 0.4113 0.22188 0.8672 0.0
H1142 H 0.30007 0.20714 0.83696 0.0
H1143 H 0.324 0.18477 0.78892 0.0
Li1144 Li 0.36277 0.37987 0.35371 0.0
Li1145 Li 0.351 0.3646 0.37931 0.0
Li1146 Li 0.3791 0.35302 0.36364 0.0
Li1147 Li 0.34809 0.35105 0.35013 0.0
C1148 C 0.38579 0.39095 0.37891 0.0
N1149 N 0.40691 0.42134 0.38227 0.0
C1150 C 0.37792 0.40755 0.38279 0.0
C1151 C 0.4044 0.38978 0.37685 0.0
C1152 C 0.38883 0.42277 0.38438 0.0
C1153 C 0.41485 0.4053 0.37859 0.0
C1154 C 0.3231 0.38098 0.3672 0.0
C1155 C 0.29466 0.37746 0.38235 0.0
N1156 N 0.29477 0.39527 0.38646 0.0
C1157 C 0.32292 0.39926 0.37157 0.0
C1158 C 0.30883 0.36999 0.3726 0.0
C1159 C 0.30846 0.40623 0.38129 0.0
C1160 C 0.35063 0.40905 0.33302 0.0
N1161 N 0.3657 0.40232 0.34082 0.0
C1162 C 0.38357 0.42521 0.32684 0.0
C1163 C 0.38203 0.41002 0.33783 0.0
C1164 C 0.36819 0.43248 0.3187 0.0
C1165 C 0.35154 0.42421 0.32201 0.0
H1166 H 0.33792 0.40229 0.33488 0.0
H1167 H 0.39396 0.40408 0.34347 0.0
C1168 C 0.33194 0.3515 0.40956 0.0
N1169 N 0.33933 0.36661 0.40238 0.0
C1170 C 0.32165 0.35243 0.42523 0.0
C1171 C 0.32723 0.3844 0.42631 0.0
C1172 C 0.33749 0.38283 0.41063 0.0
C1173 C 0.31894 0.36909 0.4337 0.0
H1174 H 0.3337 0.33874 0.40291 0.0
H1175 H 0.34356 0.39465 0.40478 0.0
C1176 C 0.37511 0.3663 0.32306 0.0
N1177 N 0.3831 0.38298 0.29086 0.0
C1178 C 0.36152 0.36965 0.31056 0.0
C1179 C 0.39278 0.37134 0.31916 0.0
C1180 C 0.36583 0.37813 0.29437 0.0
C1181 C 0.39654 0.37977 0.3028 0.0
C1182 C 0.35207 0.32203 0.37017 0.0
C1183 C 0.3647 0.30871 0.36629 0.0
C1184 C 0.33387 0.31745 0.37126 0.0
C1185 C 0.3589 0.29107 0.36338 0.0
C1186 C 0.32861 0.29967 0.36823 0.0
N1187 N 0.34112 0.28696 0.36437 0.0
C1188 C 0.40868 0.33739 0.38218 0.0
C1189 C 0.40882 0.33375 0.35053 0.0
C1190 C 0.42417 0.32688 0.38375 0.0
N1191 N 0.40134 0.34052 0.36575 0.0
C1192 C 0.42432 0.32326 0.35146 0.0
C1193 C 0.43215 0.31956 0.36824 0.0
H1194 H 0.40232 0.34279 0.39408 0.0
H1195 H 0.40246 0.33607 0.33768 0.0
C1196 C 0.31661 0.34129 0.33098 0.0
N1197 N 0.33394 0.33674 0.33434 0.0
C1198 C 0.30609 0.33069 0.3196 0.0
C1199 C 0.33158 0.31115 0.31506 0.0
C1200 C 0.34164 0.3222 0.32641 0.0
C1201 C 0.31353 0.31531 0.31158 0.0
H1202 H 0.31095 0.35316 0.3371 0.0
H1203 H 0.35558 0.31915 0.32902 0.0
O1204 O 0.37538 0.37587 0.37738 0.0
O1205 O 0.33733 0.37381 0.35803 0.0
O1206 O 0.37106 0.35856 0.33922 0.0
O1207 O 0.35747 0.33945 0.37277 0.0
H1208 H 0.36355 0.40872 0.38431 0.0
H1209 H 0.4107 0.37704 0.37386 0.0
H1210 H 0.38292 0.43572 0.38726 0.0
H1211 H 0.42926 0.40461 0.37698 0.0
H1212 H 0.28361 0.36907 0.38672 0.0
H1213 H 0.33393 0.40795 0.36776 0.0
H1214 H 0.30881 0.35579 0.36954 0.0
H1215 H 0.3082 0.42033 0.38483 0.0
H1216 H 0.39669 0.43111 0.32464 0.0
H1217 H 0.33939 0.42904 0.31567 0.0
H1218 H 0.31544 0.34029 0.43032 0.0
H1219 H 0.32573 0.39748 0.43252 0.0
H1220 H 0.34776 0.36597 0.31345 0.0
H1221 H 0.40341 0.36903 0.3288 0.0
H1222 H 0.35543 0.38092 0.28462 0.0
H1223 H 0.41012 0.38386 0.29965 0.0
H1224 H 0.37882 0.31192 0.36545 0.0
H1225 H 0.32388 0.32757 0.37411 0.0
H1226 H 0.36853 0.28065 0.36029 0.0
H1227 H 0.31457 0.296 0.36887 0.0
H1228 H 0.42982 0.32449 0.39694 0.0
H1229 H 0.42979 0.31765 0.33919 0.0
H1230 H 0.29221 0.33435 0.31731 0.0
H1231 H 0.33791 0.29959 0.3089 0.0
Li1232 Li 0.34821 0.66564 0.16607 0.0
Li1233 Li 0.36374 0.63674 0.1637 0.0
Li1234 Li 0.37653 0.6643 0.1502 0.0
Li1235 Li 0.34987 0.64953 0.13735 0.0
C1236 C 0.38714 0.6644 0.18421 0.0
N1237 N 0.41916 0.67529 0.19956 0.0
C1238 C 0.39981 0.65165 0.18958 0.0
C1239 C 0.39076 0.68269 0.18668 0.0
C1240 C 0.4159 0.65743 0.19733 0.0
C1241 C 0.40703 0.68792 0.19443 0.0
C1242 C 0.32993 0.62863 0.1693 0.0
C1243 C 0.32181 0.59743 0.17293 0.0
N1244 N 0.31553 0.6011 0.1897 0.0
C1245 C 0.32336 0.6321 0.18656 0.0
C1246 C 0.32911 0.61116 0.16239 0.0
C1247 C 0.31613 0.618 0.19666 0.0
C1248 C 0.31534 0.68099 0.17676 0.0
N1249 N 0.33306 0.67987 0.18095 0.0
C1250 C 0.32905 0.69937 0.20613 0.0
C1251 C 0.34001 0.68862 0.19539 0.0
C1252 C 0.3107 0.70101 0.20202 0.0
C1253 C 0.30387 0.69158 0.18713 0.0
H1254 H 0.31014 0.67366 0.16533 0.0
H1255 H 0.35408 0.6873 0.19857 0.0
C1256 C 0.37287 0.59944 0.1697 0.0
N1257 N 0.36825 0.61538 0.17736 0.0
C1258 C 0.37421 0.58391 0.18027 0.0
C1259 C 0.36643 0.60164 0.20635 0.0
C1260 C 0.36529 0.61676 0.19534 0.0
C1261 C 0.3707 0.58485 0.19884 0.0
H1262 H 0.37505 0.59868 0.15535 0.0
H1263 H 0.36164 0.62961 0.20106 0.0
C1264 C 0.3435 0.69039 0.14187 0.0
N1265 N 0.32123 0.72002 0.14323 0.0
C1266 C 0.32701 0.69018 0.1329 0.0
C1267 C 0.34867 0.7057 0.1515 0.0
C1268 C 0.31596 0.7053 0.13374 0.0
C1269 C 0.33721 0.72053 0.15205 0.0
C1270 C 0.37692 0.63346 0.12257 0.0
C1271 C 0.3865 0.64362 0.11 0.0
C1272 C 0.36882 0.61733 0.11732 0.0
C1273 C 0.38774 0.63748 0.09229 0.0
C1274 C 0.37033 0.61168 0.09947 0.0
N1275 N 0.37968 0.62179 0.08743 0.0
C1276 C 0.41447 0.6707 0.14925 0.0
C1277 C 0.39643 0.69469 0.13882 0.0
C1278 C 0.42992 0.68136 0.14782 0.0
N1279 N 0.39809 0.67768 0.14526 0.0
C1280 C 0.41149 0.70576 0.13709 0.0
C1281 C 0.42852 0.6993 0.14201 0.0
H1282 H 0.41548 0.65706 0.15414 0.0
H1283 H 0.38334 0.6998 0.13532 0.0
C1284 C 0.32243 0.63394 0.11569 0.0
N1285 N 0.33679 0.64524 0.11554 0.0
C1286 C 0.31166 0.63205 0.10043 0.0
C1287 C 0.33067 0.65341 0.08503 0.0
C1288 C 0.34114 0.65481 0.10058 0.0
C1289 C 0.31552 0.64208 0.08487 0.0
H1290 H 0.31905 0.62671 0.12781 0.0
H1291 H 0.35242 0.66398 0.10093 0.0
O1292 O 0.37139 0.65902 0.17638 0.0
O1293 O 0.33753 0.64216 0.15939 0.0
O1294 O 0.35434 0.67556 0.14158 0.0
O1295 O 0.37521 0.63944 0.13986 0.0
H1296 H 0.39736 0.63746 0.18761 0.0
H1297 H 0.38126 0.69276 0.18234 0.0
H1298 H 0.42585 0.64771 0.2015 0.0
H1299 H 0.41006 0.70203 0.19628 0.0
H1300 H 0.32125 0.58382 0.16781 0.0
H1301 H 0.32405 0.64547 0.19222 0.0
H1302 H 0.33441 0.60816 0.14919 0.0
H1303 H 0.31108 0.62048 0.21006 0.0
H1304 H 0.33494 0.70652 0.21736 0.0
H1305 H 0.28977 0.6922 0.18364 0.0
H1306 H 0.37742 0.57123 0.17389 0.0
H1307 H 0.3639 0.60308 0.22062 0.0
H1308 H 0.32267 0.67841 0.12556 0.0
H1309 H 0.36126 0.70602 0.15875 0.0
H1310 H 0.30313 0.70529 0.12692 0.0
H1311 H 0.34099 0.7324 0.15956 0.0
H1312 H 0.39279 0.65617 0.11385 0.0
H1313 H 0.36121 0.6094 0.12686 0.0
H1314 H 0.39505 0.64523 0.08239 0.0
H1315 H 0.36403 0.59929 0.09517 0.0
H1316 H 0.44271 0.67577 0.15184 0.0
H1317 H 0.40977 0.71931 0.13207 0.0
H1318 H 0.3003 0.62296 0.10091 0.0
H1319 H 0.33406 0.66163 0.07351 0.0
Li1320 Li 0.65183 0.87822 0.16407 0.0
Li1321 Li 0.66428 0.84864 0.16457 0.0
Li1322 Li 0.66418 0.86382 0.13666 0.0
Li1323 Li 0.63559 0.85076 0.15018 0.0
C1324 C 0.6865 0.88678 0.1555 0.0
N1325 N 0.70524 0.91818 0.14872 0.0
C1326 C 0.70301 0.88996 0.16386 0.0
C1327 C 0.67954 0.89961 0.1437 0.0
C1328 C 0.71227 0.90591 0.16027 0.0
C1329 C 0.68921 0.91538 0.14044 0.0
C1330 C 0.64154 0.84987 0.19263 0.0
C1331 C 0.63062 0.82914 0.21505 0.0
N1332 N 0.64252 0.83606 0.22708 0.0
C1333 C 0.65358 0.85685 0.20524 0.0
C1334 C 0.62989 0.83596 0.19756 0.0
C1335 C 0.65391 0.84965 0.22258 0.0
C1336 C 0.63361 0.91022 0.17569 0.0
N1337 N 0.64873 0.90013 0.17728 0.0
C1338 C 0.66072 0.92055 0.19907 0.0
C1339 C 0.66212 0.90496 0.18875 0.0
C1340 C 0.64528 0.93125 0.1978 0.0
C1341 C 0.63156 0.9259 0.18594 0.0
H1342 H 0.6231 0.90602 0.16656 0.0
H1343 H 0.67388 0.89658 0.19004 0.0
C1344 C 0.69596 0.83701 0.18148 0.0
N1345 N 0.67838 0.83274 0.17911 0.0
C1346 C 0.70698 0.82615 0.19205 0.0
C1347 C 0.68166 0.80649 0.19733 0.0
C1348 C 0.67116 0.81772 0.18664 0.0
C1349 C 0.69982 0.8107 0.20023 0.0
H1350 H 0.70147 0.84882 0.17507 0.0
H1351 H 0.65722 0.81442 0.18435 0.0
C1352 C 0.63175 0.8828 0.12528 0.0
N1353 N 0.6147 0.89719 0.09562 0.0
C1354 C 0.62379 0.8715 0.11255 0.0
C1355 C 0.63086 0.90144 0.12303 0.0
C1356 C 0.61528 0.87903 0.09762 0.0
C1357 C 0.62224 0.90844 0.10791 0.0
C1358 C 0.66477 0.8219 0.14164 0.0
C1359 C 0.68297 0.81976 0.13767 0.0
C1360 C 0.65455 0.80698 0.1468 0.0
C1361 C 0.69071 0.80273 0.13907 0.0
C1362 C 0.66277 0.79016 0.148 0.0
N1363 N 0.68053 0.78841 0.14417 0.0
C1364 C 0.69608 0.86557 0.11698 0.0
C1365 C 0.67072 0.87069 0.09853 0.0
C1366 C 0.70755 0.86713 0.10222 0.0
N1367 N 0.67802 0.86736 0.11496 0.0
C1368 C 0.68173 0.8723 0.08334 0.0
C1369 C 0.70044 0.87047 0.08506 0.0
H1370 H 0.70162 0.86265 0.13008 0.0
H1371 H 0.6564 0.87192 0.09708 0.0
C1372 C 0.59913 0.84194 0.15743 0.0
N1373 N 0.6131 0.83897 0.14606 0.0
C1374 C 0.5834 0.83171 0.156 0.0
C1375 C 0.59649 0.81605 0.13076 0.0
C1376 C 0.61197 0.82652 0.13273 0.0
C1377 C 0.58203 0.8183 0.14271 0.0
H1378 H 0.60044 0.85183 0.16802 0.0
H1379 H 0.6233 0.82437 0.1239 0.0
O1380 O 0.67723 0.87124 0.15906 0.0
O1381 O 0.64114 0.85661 0.17553 0.0
O1382 O 0.63987 0.87572 0.14016 0.0
O1383 O 0.65703 0.83853 0.14064 0.0
H1384 H 0.70858 0.88027 0.17314 0.0
H1385 H 0.66688 0.89742 0.13704 0.0
H1386 H 0.72504 0.90854 0.16668 0.0
H1387 H 0.68396 0.92539 0.1313 0.0
H1388 H 0.62176 0.81831 0.21903 0.0
H1389 H 0.66276 0.86752 0.20159 0.0
H1390 H 0.62056 0.83033 0.18794 0.0
H1391 H 0.66325 0.85484 0.23244 0.0
H1392 H 0.67148 0.92398 0.20826 0.0
H1393 H 0.61946 0.93381 0.18451 0.0
H1394 H 0.72099 0.82973 0.19362 0.0
H1395 H 0.67554 0.79478 0.20347 0.0
H1396 H 0.62445 0.85708 0.11401 0.0
H1397 H 0.63673 0.9104 0.13289 0.0
H1398 H 0.60918 0.87042 0.08759 0.0
H1399 H 0.62151 0.92283 0.10597 0.0
H1400 H 0.6911 0.83115 0.13374 0.0
H1401 H 0.6405 0.80841 0.15017 0.0
H1402 H 0.70481 0.80091 0.13615 0.0
H1403 H 0.65505 0.77853 0.15209 0.0
H1404 H 0.72183 0.86529 0.10419 0.0
H1405 H 0.67565 0.875 0.0704 0.0
H1406 H 0.57273 0.83383 0.16565 0.0
H1407 H 0.59598 0.80613 0.12011 0.0
H1408 H 0.22297 0.19268 0.22954 0.0
H1409 H 0.24221 0.21212 0.24793 0.0
H1410 H 0.22611 0.25804 0.21654 0.0
H1411 H 0.20665 0.23876 0.19825 0.0
H1412 H 0.27114 0.23579 0.23513 0.0
H1413 H 0.21608 0.2721 0.27016 0.0
H1414 H 0.21266 0.25078 0.25902 0.0
H1415 H 0.21452 0.27104 0.24605 0.0
C1416 C 0.22342 0.20694 0.22666 0.0
C1417 C 0.21323 0.21422 0.21252 0.0
C1418 C 0.23448 0.21799 0.23709 0.0
C1419 C 0.2354 0.2365 0.23368 0.0
C1420 C 0.2254 0.2438 0.21949 0.0
H1421 H 0.29008 0.32573 0.2853 0.0
H1422 H 0.27167 0.30646 0.26598 0.0
C1423 C 0.21441 0.23276 0.20898 0.0
C1424 C 0.24695 0.24817 0.24489 0.0
H1425 H 0.24566 0.28227 0.27555 0.0
C1426 C 0.26562 0.24593 0.24401 0.0
C1427 C 0.23963 0.2614 0.25638 0.0
C1428 C 0.21962 0.26397 0.25814 0.0
C1429 C 0.27724 0.25681 0.25416 0.0
C1430 C 0.26992 0.26996 0.26579 0.0
C1431 C 0.25123 0.27219 0.26662 0.0
C1432 C 0.28139 0.28152 0.27729 0.0
C1433 C 0.29723 0.2544 0.25201 0.0
C1434 C 0.29282 0.27389 0.29018 0.0
C1435 C 0.30337 0.28485 0.3012 0.0
C1436 C 0.30252 0.30367 0.29969 0.0
C1437 C 0.29092 0.31128 0.28688 0.0
C1438 C 0.28045 0.3003 0.2758 0.0
H1439 H 0.3006 0.24761 0.23913 0.0
H1440 H 0.30435 0.26752 0.2525 0.0
H1441 H 0.30234 0.2459 0.26314 0.0
H1442 H 0.29341 0.25945 0.29189 0.0
H1443 H 0.31194 0.27861 0.31116 0.0
H1444 H 0.77771 0.30418 0.19423 0.0
H1445 H 0.75798 0.28514 0.21246 0.0
H1446 H 0.79991 0.27929 0.25196 0.0
H1447 H 0.81979 0.29811 0.23377 0.0
H1448 H 0.76386 0.2493 0.22394 0.0
H1449 H 0.75641 0.29599 0.2817 0.0
H1450 H 0.76482 0.30317 0.26008 0.0
H1451 H 0.77925 0.29145 0.27546 0.0
C1452 C 0.78277 0.29875 0.20675 0.0
C1453 C 0.80031 0.30272 0.21258 0.0
C1454 C 0.77145 0.28796 0.21717 0.0
C1455 C 0.77741 0.28105 0.23366 0.0
C1456 C 0.79493 0.28483 0.23946 0.0
H1457 H 0.73437 0.21187 0.31632 0.0
H1458 H 0.75275 0.23126 0.29715 0.0
C1459 C 0.80626 0.2956 0.22905 0.0
C1460 C 0.76547 0.26949 0.24462 0.0
H1461 H 0.7453 0.2663 0.28571 0.0
C1462 C 0.75968 0.25304 0.2374 0.0
C1463 C 0.76008 0.27445 0.26216 0.0
C1464 C 0.76531 0.2923 0.2703 0.0
C1465 C 0.749 0.24116 0.24746 0.0
C1466 C 0.74374 0.24606 0.26507 0.0
C1467 C 0.7494 0.26259 0.27222 0.0
C1468 C 0.73257 0.23411 0.27643 0.0
C1469 C 0.74387 0.22327 0.23936 0.0
C1470 C 0.71509 0.22942 0.2712 0.0
C1471 C 0.70459 0.21823 0.28206 0.0
C1472 C 0.71137 0.2116 0.29841 0.0
C1473 C 0.72885 0.21649 0.30367 0.0
C1474 C 0.73933 0.22767 0.2928 0.0
H1475 H 0.75253 0.21977 0.22772 0.0
H1476 H 0.74481 0.21236 0.2495 0.0
H1477 H 0.72978 0.2239 0.23457 0.0
H1478 H 0.70951 0.23451 0.25875 0.0
H1479 H 0.69123 0.21464 0.27756 0.0
H1480 H 0.28377 0.72334 0.19071 0.0
H1481 H 0.26443 0.74243 0.20921 0.0
H1482 H 0.29146 0.72398 0.25698 0.0
H1483 H 0.31064 0.70461 0.23868 0.0
H1484 H 0.24124 0.73191 0.23855 0.0
H1485 H 0.29473 0.77981 0.25932 0.0
H1486 H 0.29721 0.76479 0.2404 0.0
H1487 H 0.29976 0.75647 0.26292 0.0
C1488 C 0.2855 0.7232 0.20517 0.0
C1489 C 0.29881 0.71249 0.21321 0.0
C1490 C 0.2745 0.73418 0.21569 0.0
C1491 C 0.2767 0.73476 0.2344 0.0
C1492 C 0.28979 0.72395 0.24251 0.0
H1493 H 0.20612 0.77741 0.31658 0.0
H1494 H 0.22426 0.75825 0.297 0.0
C1495 C 0.30076 0.71293 0.23202 0.0
C1496 C 0.2652 0.74657 0.24548 0.0
H1497 H 0.26641 0.78288 0.27354 0.0
C1498 C 0.2467 0.74308 0.24618 0.0
C1499 C 0.2724 0.76122 0.25524 0.0
C1500 C 0.29209 0.76596 0.25438 0.0
C1501 C 0.23521 0.7537 0.25669 0.0
C1502 C 0.24248 0.76807 0.26681 0.0
C1503 C 0.26093 0.77175 0.26585 0.0
C1504 C 0.23114 0.77953 0.27841 0.0
C1505 C 0.21536 0.74963 0.25674 0.0
C1506 C 0.22921 0.79786 0.27453 0.0
C1507 C 0.21879 0.80883 0.28561 0.0
C1508 C 0.21022 0.80169 0.3009 0.0
C1509 C 0.21227 0.78329 0.30476 0.0
C1510 C 0.22265 0.77232 0.29362 0.0
H1511 H 0.21144 0.74083 0.24532 0.0
H1512 H 0.2118 0.74264 0.26943 0.0
H1513 H 0.20742 0.76223 0.25605 0.0
H1514 H 0.2357 0.80365 0.26284 0.0
H1515 H 0.2173 0.82287 0.2821 0.0
H1516 H 0.8217 0.72422 0.28697 0.0
H1517 H 0.80245 0.74309 0.26822 0.0
H1518 H 0.7555 0.71995 0.29313 0.0
H1519 H 0.77467 0.70103 0.31196 0.0
H1520 H 0.77662 0.73298 0.24365 0.0
H1521 H 0.74677 0.77383 0.29845 0.0
H1522 H 0.76628 0.75989 0.30177 0.0
H1523 H 0.74423 0.75001 0.30144 0.0
C1524 C 0.80727 0.7231 0.28841 0.0
C1525 C 0.79969 0.71118 0.30098 0.0
C1526 C 0.79631 0.73393 0.27774 0.0
C1527 C 0.77757 0.7331 0.27947 0.0
C1528 C 0.76994 0.7211 0.29188 0.0
H1529 H 0.70031 0.77389 0.20189 0.0
H1530 H 0.71897 0.75494 0.22114 0.0
C1531 C 0.7809 0.71029 0.30261 0.0
C1532 C 0.76605 0.74454 0.26799 0.0
H1533 H 0.73416 0.77739 0.26936 0.0
C1534 C 0.76735 0.74272 0.24925 0.0
C1535 C 0.75415 0.75737 0.27535 0.0
C1536 C 0.75285 0.76056 0.29535 0.0
C1537 C 0.75691 0.75327 0.23765 0.0
C1538 C 0.74463 0.76574 0.24502 0.0
C1539 C 0.74347 0.76769 0.26376 0.0
C1540 C 0.73312 0.77716 0.23353 0.0
C1541 C 0.7594 0.75125 0.21761 0.0
C1542 C 0.73455 0.79593 0.23447 0.0
C1543 C 0.72375 0.80681 0.22367 0.0
C1544 C 0.71124 0.7991 0.21176 0.0
C1545 C 0.70971 0.78026 0.211 0.0
C1546 C 0.72051 0.7694 0.22184 0.0
H1547 H 0.77238 0.74471 0.21428 0.0
H1548 H 0.74845 0.74272 0.21215 0.0
H1549 H 0.75886 0.7645 0.21078 0.0
H1550 H 0.74411 0.80218 0.24351 0.0
H1551 H 0.72506 0.82126 0.22481 0.0
H1552 H 0.27452 0.80939 0.69736 0.0
H1553 H 0.25504 0.79048 0.71601 0.0
H1554 H 0.30043 0.77605 0.74893 0.0
H1555 H 0.31994 0.79499 0.73044 0.0
H1556 H 0.25651 0.75433 0.72269 0.0
H1557 H 0.26421 0.79268 0.78615 0.0
H1558 H 0.27133 0.80145 0.76467 0.0
H1559 H 0.28523 0.78574 0.77664 0.0
C1560 C 0.28035 0.80215 0.70856 0.0
C1561 C 0.29874 0.80377 0.71252 0.0
C1562 C 0.2692 0.79141 0.71922 0.0
C1563 C 0.27623 0.78211 0.73403 0.0
C1564 C 0.29463 0.78347 0.73785 0.0
H1565 H 0.22747 0.69177 0.78985 0.0
H1566 H 0.2456 0.71128 0.77049 0.0
C1567 C 0.30576 0.79428 0.72726 0.0
C1568 C 0.2644 0.77066 0.74527 0.0
H1569 H 0.25013 0.76401 0.78837 0.0
C1570 C 0.25503 0.75649 0.73703 0.0
C1571 C 0.2623 0.77367 0.76393 0.0
C1572 C 0.27115 0.78932 0.77336 0.0
C1573 C 0.24386 0.74501 0.74703 0.0
C1574 C 0.24235 0.74756 0.76582 0.0
C1575 C 0.25146 0.76195 0.77399 0.0
C1576 C 0.23123 0.73562 0.77729 0.0
C1577 C 0.23358 0.73046 0.7373 0.0
C1578 C 0.21744 0.74288 0.78788 0.0
C1579 C 0.20721 0.7318 0.79908 0.0
C1580 C 0.21058 0.71323 0.79989 0.0
C1581 C 0.2244 0.70598 0.78928 0.0
C1582 C 0.23473 0.7171 0.77818 0.0
H1583 H 0.23213 0.73354 0.72276 0.0
H1584 H 0.24095 0.71758 0.73851 0.0
H1585 H 0.21999 0.72861 0.74318 0.0
H1586 H 0.21455 0.75714 0.78743 0.0
H1587 H 0.19654 0.73774 0.80697 0.0
H1588 H 0.71505 0.73392 0.69309 0.0
H1589 H 0.73429 0.75351 0.71115 0.0
H1590 H 0.73692 0.71293 0.75246 0.0
H1591 H 0.71829 0.69295 0.73417 0.0
H1592 H 0.72809 0.76714 0.74484 0.0
H1593 H 0.7896 0.72528 0.74465 0.0
H1594 H 0.77107 0.72125 0.72953 0.0
H1595 H 0.77 0.71353 0.75242 0.0
C1596 C 0.71997 0.72902 0.70588 0.0
C1597 C 0.71521 0.71181 0.71213 0.0
C1598 C 0.73084 0.7403 0.71624 0.0
C1599 C 0.73724 0.73458 0.73302 0.0
C1600 C 0.73242 0.71748 0.73939 0.0
H1601 H 0.77862 0.8018 0.81889 0.0
H1602 H 0.76044 0.78254 0.79943 0.0
C1603 C 0.72158 0.70617 0.72901 0.0
C1604 C 0.74852 0.74672 0.74408 0.0
H1605 H 0.78921 0.75005 0.76492 0.0
C1606 C 0.74149 0.76345 0.74917 0.0
C1607 C 0.76608 0.74196 0.7495 0.0
C1608 C 0.77473 0.72461 0.74361 0.0
C1609 C 0.75143 0.77545 0.75983 0.0
C1610 C 0.76871 0.7704 0.76582 0.0
C1611 C 0.77587 0.7538 0.76045 0.0
C1612 C 0.77966 0.78216 0.77761 0.0
C1613 C 0.74343 0.79352 0.76433 0.0
C1614 C 0.79669 0.78795 0.77199 0.0
C1615 C 0.80724 0.79873 0.78319 0.0
C1616 C 0.80098 0.80387 0.80028 0.0
C1617 C 0.78391 0.79798 0.80588 0.0
C1618 C 0.7734 0.78715 0.79468 0.0
H1619 H 0.7326 0.79724 0.75477 0.0
H1620 H 0.7375 0.79297 0.77801 0.0
H1621 H 0.75383 0.80423 0.76418 0.0
H1622 H 0.80183 0.78412 0.75891 0.0
H1623 H 0.82044 0.80277 0.77857 0.0
H1624 H 0.71902 0.32553 0.78008 0.0
H1625 H 0.73739 0.30596 0.76117 0.0
H1626 H 0.7341 0.26414 0.80118 0.0
H1627 H 0.71504 0.28326 0.81979 0.0
H1628 H 0.76994 0.29046 0.76773 0.0
H1629 H 0.71833 0.23781 0.75618 0.0
H1630 H 0.71299 0.25946 0.76572 0.0
H1631 H 0.72258 0.24211 0.77953 0.0
C1632 C 0.722 0.31208 0.78476 0.0
C1633 C 0.71541 0.30593 0.8014 0.0
C1634 C 0.73261 0.30097 0.774 0.0
C1635 C 0.73684 0.28349 0.77962 0.0
C1636 C 0.73067 0.27744 0.7964 0.0
H1637 H 0.80625 0.20023 0.7373 0.0
H1638 H 0.78788 0.21989 0.7563 0.0
C1639 C 0.71998 0.2885 0.80713 0.0
C1640 C 0.74788 0.27167 0.76803 0.0
H1641 H 0.74802 0.23108 0.7465 0.0
C1642 C 0.76511 0.27752 0.76301 0.0
C1643 C 0.74152 0.25482 0.76183 0.0
C1644 C 0.72278 0.24823 0.76593 0.0
C1645 C 0.77624 0.26683 0.7522 0.0
C1646 C 0.76995 0.24993 0.74627 0.0
C1647 C 0.75276 0.24405 0.75121 0.0
C1648 C 0.78105 0.23819 0.7348 0.0
C1649 C 0.79475 0.27349 0.74731 0.0
C1650 C 0.78309 0.24198 0.71645 0.0
C1651 C 0.79347 0.23076 0.70557 0.0
C1652 C 0.80205 0.21564 0.71292 0.0
C1653 C 0.79994 0.21189 0.73133 0.0
C1654 C 0.78942 0.22304 0.74216 0.0
H1655 H 0.7984 0.28598 0.75464 0.0
H1656 H 0.8049 0.26299 0.75029 0.0
H1657 H 0.7953 0.27625 0.73265 0.0
H1658 H 0.77663 0.25362 0.71058 0.0
H1659 H 0.79498 0.23403 0.69146 0.0
H1660 H 0.19634 0.30376 0.73672 0.0
H1661 H 0.2151 0.2843 0.75534 0.0
H1662 H 0.24694 0.27056 0.70892 0.0
H1663 H 0.22811 0.28983 0.69013 0.0
H1664 H 0.22189 0.24701 0.75146 0.0
H1665 H 0.28419 0.28792 0.74629 0.0
H1666 H 0.26238 0.29658 0.74028 0.0
H1667 H 0.27414 0.28191 0.72515 0.0
C1668 C 0.20723 0.29648 0.73043 0.0
C1669 C 0.21075 0.29838 0.71193 0.0
C1670 C 0.21799 0.28545 0.7411 0.0
C1671 C 0.23252 0.27619 0.73354 0.0
C1672 C 0.23599 0.27788 0.71507 0.0
H1673 H 0.29225 0.18774 0.78086 0.0
H1674 H 0.27316 0.20667 0.76196 0.0
C1675 C 0.22523 0.28891 0.70437 0.0
C1676 C 0.24393 0.26463 0.74498 0.0
H1677 H 0.28665 0.25966 0.76076 0.0
C1678 C 0.23605 0.24976 0.75352 0.0
C1679 C 0.26233 0.2684 0.74777 0.0
C1680 C 0.27129 0.28465 0.73954 0.0
C1681 C 0.24616 0.2384 0.76464 0.0
C1682 C 0.26466 0.24193 0.76709 0.0
C1683 C 0.27249 0.25693 0.75872 0.0
C1684 C 0.27609 0.2304 0.77854 0.0
C1685 C 0.23693 0.2229 0.77392 0.0
C1686 C 0.2843 0.23759 0.79392 0.0
C1687 C 0.29531 0.22686 0.80466 0.0
C1688 C 0.29841 0.20877 0.80013 0.0
C1689 C 0.29022 0.20165 0.78464 0.0
C1690 C 0.27918 0.21239 0.77393 0.0
H1691 H 0.2221 0.22451 0.77403 0.0
H1692 H 0.24012 0.21024 0.76671 0.0
H1693 H 0.24169 0.22154 0.788 0.0
H1694 H 0.28217 0.25151 0.79762 0.0
H1695 H 0.30163 0.23282 0.81635 0.0
H1696 H 0.11316 0.94244 0.29488 0.0
H1697 H 0.11277 0.96799 0.27414 0.0
H1698 H 0.1668 0.9818 0.28989 0.0
H1699 H 0.16707 0.95653 0.31096 0.0
H1700 H 0.14672 0.0111 0.28765 0.0
H1701 H 0.13669 0.97066 0.22591 0.0
H1702 H 0.1193 0.96714 0.24222 0.0
H1703 H 0.14199 0.96059 0.24731 0.0
C1704 C 0.12496 0.95091 0.29387 0.0
C1705 C 0.14017 0.94745 0.30451 0.0
C1706 C 0.12476 0.96546 0.28194 0.0
C1707 C 0.1399 0.97662 0.28012 0.0
C1708 C 0.15498 0.97335 0.29098 0.0
H1709 H 0.16094 0.0496 0.19134 0.0
H1710 H 0.16004 0.02453 0.21248 0.0
C1711 C 0.1551 0.95895 0.30306 0.0
C1712 C 0.14001 0.99183 0.2671 0.0
H1713 H 0.13395 1.00235 0.22279 0.0
C1714 C 0.14397 0.00917 0.27346 0.0
C1715 C 0.13672 0.9893 0.24851 0.0
C1716 C 0.13362 0.9709 0.24053 0.0
C1717 C 0.14457 0.02404 0.26182 0.0
C1718 C 0.14056 0.02163 0.24336 0.0
C1719 C 0.13679 1.00426 0.23697 0.0
C1720 C 0.14072 0.03685 0.23036 0.0
C1721 C 0.14999 0.04208 0.2694 0.0
C1722 C 0.1299 0.05204 0.23311 0.0
C1723 C 0.13063 0.06658 0.2212 0.0
C1724 C 0.14198 0.06616 0.20606 0.0
C1725 C 0.15232 0.05063 0.20301 0.0
C1726 C 0.1517 0.03617 0.21503 0.0
H1727 H 0.15765 0.04064 0.28213 0.0
H1728 H 0.15834 0.04976 0.25968 0.0
H1729 H 0.13775 0.05002 0.27237 0.0
H1730 H 0.12096 0.05272 0.24457 0.0
H1731 H 0.12258 0.07832 0.22414 0.0
H1732 H 0.86377 0.46746 0.18712 0.0
H1733 H 0.86482 0.49313 0.20773 0.0
H1734 H 0.88693 0.45912 0.24908 0.0
H1735 H 0.88613 0.43351 0.22849 0.0
H1736 H 0.84768 0.4978 0.23902 0.0
H1737 H 0.92092 0.50122 0.2512 0.0
H1738 H 0.91129 0.48785 0.23338 0.0
H1739 H 0.9117 0.47947 0.25608 0.0
C1740 C 0.86895 0.46549 0.20057 0.0
C1741 C 0.87498 0.44847 0.20612 0.0
C1742 C 0.86958 0.48017 0.21233 0.0
C1743 C 0.87623 0.47816 0.22989 0.0
C1744 C 0.88222 0.46117 0.23547 0.0
H1745 H 0.85196 0.54917 0.31965 0.0
H1746 H 0.85376 0.52425 0.29823 0.0
C1747 C 0.88173 0.44651 0.22367 0.0
C1748 C 0.87604 0.4936 0.24263 0.0
H1749 H 0.9024 0.51826 0.2711 0.0
C1750 C 0.85967 0.50233 0.24594 0.0
C1751 C 0.89173 0.49971 0.25152 0.0
C1752 C 0.90993 0.4917 0.24774 0.0
C1753 C 0.85848 0.51674 0.25811 0.0
C1754 C 0.87401 0.52231 0.2676 0.0
C1755 C 0.89045 0.51383 0.26402 0.0
C1756 C 0.87349 0.53707 0.2811 0.0
C1757 C 0.84064 0.52604 0.26039 0.0
C1758 C 0.88452 0.55228 0.27905 0.0
C1759 C 0.88367 0.56645 0.29141 0.0
C1760 C 0.87175 0.56571 0.30607 0.0
C1761 C 0.86106 0.55027 0.30834 0.0
C1762 C 0.86203 0.53605 0.29606 0.0
H1763 H 0.83173 0.52377 0.24862 0.0
H1764 H 0.83376 0.52057 0.27244 0.0
H1765 H 0.84243 0.54074 0.26226 0.0
H1766 H 0.89353 0.55335 0.26767 0.0
H1767 H 0.89196 0.57822 0.28918 0.0
H1768 H 0.31287 0.11975 0.95364 0.0
H1769 H 0.29281 0.11883 0.97976 0.0
H1770 H 0.27604 0.17315 0.96879 0.0
H1771 H 0.29605 0.17424 0.94278 0.0
H1772 H 0.29155 0.14068 0.01044 0.0
H1773 H 0.22837 0.14594 0.9714 0.0
H1774 H 0.24964 0.14069 0.96105 0.0
H1775 H 0.24421 0.16355 0.96669 0.0
C1776 C 0.30501 0.13155 0.95686 0.0
C1777 C 0.30595 0.14701 0.94598 0.0
C1778 C 0.2935 0.13097 0.97174 0.0
C1779 C 0.28265 0.14579 0.976 0.0
C1780 C 0.28392 0.16139 0.96548 0.0
H1781 H 0.20575 0.1742 0.05811 0.0
H1782 H 0.22612 0.1728 0.03238 0.0
C1783 C 0.29539 0.16198 0.9506 0.0
C1784 C 0.27013 0.14506 0.99155 0.0
H1785 H 0.22594 0.14932 1.00311 0.0
C1786 C 0.27719 0.14242 0.00885 0.0
C1787 C 0.25139 0.14732 0.98943 0.0
C1788 C 0.24289 0.14937 0.97113 0.0
C1789 C 0.26608 0.14252 0.02414 0.0
C1790 C 0.24736 0.14503 0.02203 0.0
C1791 C 0.24029 0.14745 1.00471 0.0
C1792 C 0.23492 0.14562 0.03764 0.0
C1793 C 0.27454 0.14052 0.04245 0.0
C1794 C 0.23286 0.13069 0.04901 0.0
C1795 C 0.22128 0.13148 0.06382 0.0
C1796 C 0.21146 0.1472 0.06753 0.0
C1797 C 0.21331 0.16199 0.05586 0.0
C1798 C 0.22487 0.16118 0.04107 0.0
H1799 H 0.28923 0.14309 0.04208 0.0
H1800 H 0.26832 0.14986 0.05228 0.0
H1801 H 0.2724 0.12658 0.04733 0.0
H1802 H 0.24022 0.11842 0.04643 0.0
H1803 H 0.22029 0.11988 0.07256 0.0
H1804 H 0.79649 0.39598 0.07192 0.0
H1805 H 0.77595 0.39726 0.04623 0.0
H1806 H 0.78786 0.34198 0.03368 0.0
H1807 H 0.80849 0.3406 0.05917 0.0
H1808 H 0.78215 0.39098 0.00942 0.0
H1809 H 0.73294 0.34222 0.03711 0.0
H1810 H 0.75015 0.35257 0.05073 0.0
H1811 H 0.75554 0.33392 0.03634 0.0
C1812 C 0.79488 0.38414 0.0636 0.0
C1813 C 0.80406 0.36813 0.06773 0.0
C1814 C 0.78306 0.38487 0.04898 0.0
C1815 C 0.7801 0.36961 0.03825 0.0
C1816 C 0.78958 0.35378 0.04204 0.0
H1817 H 0.71778 0.34217 0.9443 0.0
H1818 H 0.73759 0.34311 0.97049 0.0
C1819 C 0.80138 0.35303 0.05663 0.0
C1820 C 0.76722 0.37024 0.02302 0.0
H1821 H 0.72914 0.35057 1.00649 0.0
C1822 C 0.77047 0.38225 0.00883 0.0
C1823 C 0.75198 0.35886 0.02228 0.0
C1824 C 0.7473 0.34627 0.0375 0.0
C1825 C 0.7592 0.3828 0.99367 0.0
C1826 C 0.74411 0.37124 0.99284 0.0
C1827 C 0.74074 0.35939 0.00713 0.0
C1828 C 0.73191 0.37086 0.97703 0.0
C1829 C 0.76387 0.39535 0.97843 0.0
C1830 C 0.72191 0.38607 0.97215 0.0
C1831 C 0.71061 0.3856 0.9571 0.0
C1832 C 0.70908 0.36989 0.94666 0.0
C1833 C 0.71888 0.35458 0.95183 0.0
C1834 C 0.73012 0.35506 0.96688 0.0
H1835 H 0.77797 0.40017 0.97928 0.0
H1836 H 0.76187 0.38865 0.96523 0.0
H1837 H 0.75493 0.40725 0.97897 0.0
H1838 H 0.72283 0.39831 0.97998 0.0
H1839 H 0.70333 0.39764 0.95347 0.0
H1840 H 0.29735 0.83907 0.56847 0.0
H1841 H 0.2777 0.84003 0.54215 0.0
H1842 H 0.2902 0.8962 0.53486 0.0
H1843 H 0.31002 0.89529 0.56111 0.0
H1844 H 0.24775 0.85972 0.53642 0.0
H1845 H 0.2989 0.87654 0.4849 0.0
H1846 H 0.30481 0.86928 0.50727 0.0
H1847 H 0.29828 0.89219 0.50325 0.0
C1848 C 0.29592 0.85164 0.56127 0.0
C1849 C 0.30528 0.86711 0.56688 0.0
C1850 C 0.28472 0.85215 0.54619 0.0
C1851 C 0.28263 0.86812 0.53636 0.0
C1852 C 0.29191 0.88361 0.54195 0.0
H1853 H 0.19465 0.88878 0.46137 0.0
H1854 H 0.21483 0.88842 0.48737 0.0
C1855 C 0.30322 0.88308 0.55698 0.0
C1856 C 0.27031 0.86862 0.52062 0.0
H1857 H 0.26839 0.87786 0.47567 0.0
C1858 C 0.25228 0.86366 0.52313 0.0
C1859 C 0.27625 0.87353 0.50322 0.0
C1860 C 0.29565 0.87802 0.4994 0.0
C1861 C 0.24 0.86361 0.50878 0.0
C1862 C 0.24581 0.86907 0.49149 0.0
C1863 C 0.26389 0.87387 0.48895 0.0
C1864 C 0.2335 0.86942 0.47575 0.0
C1865 C 0.22104 0.8573 0.5122 0.0
C1866 C 0.23748 0.85922 0.46038 0.0
C1867 C 0.22605 0.85952 0.44547 0.0
C1868 C 0.21039 0.87006 0.44558 0.0
C1869 C 0.20647 0.88033 0.46096 0.0
C1870 C 0.21797 0.88011 0.47585 0.0
H1871 H 0.2201 0.84905 0.52462 0.0
H1872 H 0.2122 0.86916 0.51394 0.0
H1873 H 0.21589 0.84925 0.50073 0.0
H1874 H 0.24937 0.85088 0.45998 0.0
H1875 H 0.22936 0.85127 0.43393 0.0
H1876 H 0.69681 0.62323 0.55495 0.0
H1877 H 0.71691 0.6221 0.52889 0.0
H1878 H 0.74872 0.665 0.55144 0.0
H1879 H 0.72859 0.66651 0.5773 0.0
H1880 H 0.7263 0.6506 0.50421 0.0
H1881 H 0.78556 0.62458 0.54115 0.0
H1882 H 0.76306 0.62344 0.55015 0.0
H1883 H 0.7754 0.6442 0.55086 0.0
C1884 C 0.70798 0.63254 0.55431 0.0
C1885 C 0.71113 0.64485 0.56836 0.0
C1886 C 0.71951 0.6318 0.53945 0.0
C1887 C 0.73448 0.64325 0.53838 0.0
C1888 C 0.73748 0.65576 0.55218 0.0
H1889 H 0.82166 0.66262 0.46391 0.0
H1890 H 0.80079 0.66188 0.48927 0.0
C1891 C 0.72596 0.65656 0.56699 0.0
C1892 C 0.74685 0.64237 0.52275 0.0
H1893 H 0.79044 0.63417 0.51113 0.0
C1894 C 0.7403 0.64688 0.50566 0.0
C1895 C 0.76511 0.63758 0.52473 0.0
C1896 C 0.77273 0.63202 0.54267 0.0
C1897 C 0.75164 0.64722 0.49055 0.0
C1898 C 0.76994 0.64248 0.49252 0.0
C1899 C 0.77643 0.6378 0.50961 0.0
C1900 C 0.78268 0.64263 0.47711 0.0
C1901 C 0.74402 0.65321 0.47273 0.0
C1902 C 0.77964 0.63181 0.46193 0.0
C1903 C 0.79146 0.63235 0.44731 0.0
C1904 C 0.80669 0.64359 0.4476 0.0
C1905 C 0.80993 0.65405 0.46305 0.0
C1906 C 0.79807 0.65355 0.47764 0.0
H1907 H 0.73139 0.66092 0.47447 0.0
H1908 H 0.7538 0.66169 0.46528 0.0
H1909 H 0.74095 0.64121 0.46442 0.0
H1910 H 0.76808 0.62298 0.46136 0.0
H1911 H 0.78841 0.62422 0.43561 0.0
H1912 H 0.93164 0.2806 0.13925 0.0
H1913 H 0.95737 0.26025 0.13926 0.0
H1914 H 0.99317 0.30551 0.14526 0.0
H1915 H 0.96742 0.32592 0.14561 0.0
H1916 H 0.98548 0.25739 0.11703 0.0
H1917 H 0.01024 0.27372 0.1854 0.0
H1918 H 0.98863 0.28106 0.17735 0.0
H1919 H 0.00869 0.29309 0.17114 0.0
C1920 C 0.945 0.28623 0.1405 0.0
C1921 C 0.94749 0.30487 0.14248 0.0
C1922 C 0.9597 0.27457 0.14057 0.0
C1923 C 0.97722 0.28128 0.1426 0.0
C1924 C 0.97978 0.29993 0.1442 0.0
H1925 H 0.08297 0.23281 0.13753 0.0
H1926 H 0.0571 0.25308 0.1372 0.0
C1927 C 0.96505 0.3116 0.14431 0.0
C1928 C 0.99276 0.26873 0.14268 0.0
H1929 H 0.02937 0.25574 0.16715 0.0
C1930 C 0.995 0.25697 0.12805 0.0
C1931 C 1.00519 0.2681 0.1571 0.0
C1932 C 1.003 0.27953 0.17372 0.0
C1933 C 0.00944 0.24487 0.12731 0.0
C1934 C 0.02195 0.24448 0.14157 0.0
C1935 C 0.01976 0.25616 0.1562 0.0
C1936 C 0.03748 0.23205 0.14149 0.0
C1937 C 0.01144 0.23275 0.11118 0.0
C1938 C 0.03499 0.21353 0.1441 0.0
C1939 C 0.04975 0.20191 0.14435 0.0
C1940 C 0.06725 0.20861 0.14187 0.0
C1941 C 0.06965 0.22719 0.13921 0.0
C1942 C 0.05491 0.2388 0.13913 0.0
H1943 H 1.00221 0.23655 0.10008 0.0
H1944 H 0.02546 0.23315 0.10612 0.0
H1945 H 0.00842 0.21869 0.11518 0.0
H1946 H 0.02163 0.2081 0.14608 0.0
H1947 H 0.04746 0.18767 0.14636 0.0
H1948 H 0.94709 0.70984 0.39729 0.0
H1949 H 0.97292 0.73021 0.3992 0.0
H1950 H 0.97573 0.73235 0.34139 0.0
H1951 H 0.95037 0.71153 0.33925 0.0
H1952 H 0.01014 0.72476 0.37797 0.0
H1953 H 0.9708 0.78676 0.36389 0.0
H1954 H 0.96075 0.76709 0.37406 0.0
H1955 H 0.96633 0.76697 0.35062 0.0
C1956 C 0.95334 0.71439 0.38496 0.0
C1957 C 0.94653 0.70904 0.36811 0.0
C1958 C 0.96802 0.72613 0.3861 0.0
C1959 C 0.97608 0.73286 0.37044 0.0
C1960 C 0.96954 0.72741 0.35363 0.0
H1961 H 0.05755 0.81235 0.34598 0.0
H1962 H 0.03192 0.79172 0.34606 0.0
C1963 C 0.95497 0.71559 0.35246 0.0
C1964 C 0.99131 0.74564 0.37158 0.0
H1965 H 1.00218 0.78994 0.36642 0.0
C1966 C 0.00845 0.73903 0.37556 0.0
C1967 C 0.98899 0.76417 0.36824 0.0
C1968 C 0.97074 0.77182 0.36403 0.0
C1969 C 0.02349 0.75048 0.37598 0.0
C1970 C 0.0212 0.76913 0.37281 0.0
C1971 C 1.00396 0.77569 0.36891 0.0
C1972 C 0.03653 0.782 0.37309 0.0
C1973 C 0.04176 0.74236 0.37919 0.0
C1974 C 0.04746 0.78373 0.38839 0.0
C1975 C 0.06219 0.79545 0.38833 0.0
C1976 C 0.06611 0.80592 0.37308 0.0
C1977 C 0.05481 0.80459 0.35799 0.0
C1978 C 0.0402 0.79274 0.358 0.0
H1979 H 0.04187 0.72773 0.37618 0.0
H1980 H 0.05218 0.74903 0.37084 0.0
H1981 H 0.04543 0.74409 0.39354 0.0
H1982 H 0.04462 0.776 0.4004 0.0
H1983 H 0.07047 0.79638 0.40026 0.0
H1984 H 0.57913 0.73057 0.6627 0.0
H1985 H 0.55278 0.75003 0.66182 0.0
H1986 H 0.52703 0.71363 0.62474 0.0
H1987 H 0.55343 0.69405 0.6255 0.0
H1988 H 0.53778 0.76743 0.63254 0.0
H1989 H 0.4887 0.72038 0.66339 0.0
H1990 H 0.51262 0.71668 0.6643 0.0
H1991 H 0.50028 0.7115 0.64418 0.0
C1992 C 0.56791 0.72671 0.65428 0.0
C1993 C 0.56844 0.71075 0.64412 0.0
C1994 C 0.55281 0.73783 0.65386 0.0
C1995 C 0.53784 0.73321 0.64338 0.0
C1996 C 0.53827 0.71728 0.63323 0.0
H1997 H 0.43542 0.78542 0.62326 0.0
H1998 H 0.46178 0.7659 0.62273 0.0
C1999 C 0.55338 0.70611 0.63366 0.0
C2000 C 0.52204 0.74537 0.64276 0.0
H2001 H 0.47711 0.74762 0.65171 0.0
C2002 C 0.52452 0.76311 0.63677 0.0
C2003 C 0.50474 0.73973 0.64828 0.0
C2004 C 0.50138 0.72109 0.65556 0.0
C2005 C 0.51014 0.77529 0.63595 0.0
C2006 C 0.49286 0.76966 0.64152 0.0
C2007 C 0.49036 0.7519 0.64742 0.0
C2008 C 0.47719 0.78199 0.64142 0.0
C2009 C 0.51351 0.79397 0.62879 0.0
C2010 C 0.47706 0.79754 0.65214 0.0
C2011 C 0.46197 0.80872 0.65253 0.0
C2012 C 0.44663 0.8045 0.64231 0.0
C2013 C 0.4469 0.78898 0.63147 0.0
C2014 C 0.46198 0.77782 0.63109 0.0
H2015 H 0.52611 0.79468 0.62081 0.0
H2016 H 0.50219 0.79852 0.62023 0.0
H2017 H 0.51481 0.80345 0.64024 0.0
H2018 H 0.4885 0.80084 0.66051 0.0
H2019 H 0.46213 0.82038 0.66125 0.0
H2020 H 0.89229 0.0569 0.69708 0.0
H2021 H 0.89283 0.03037 0.71658 0.0
H2022 H 0.84809 0.05133 0.74672 0.0
H2023 H 0.84722 0.0777 0.72717 0.0
H2024 H 0.87719 0.03892 0.76826 0.0
H2025 H 0.85597 0.98854 0.71724 0.0
H2026 H 0.87469 1.0025 0.71098 0.0
H2027 H 0.85295 0.01241 0.71408 0.0
C2028 C 0.88241 0.05578 0.70771 0.0
C2029 C 0.86973 0.06949 0.71054 0.0
C2030 C 0.88277 0.04061 0.71887 0.0
C2031 C 0.87042 0.03883 0.73301 0.0
C2032 C 0.85778 0.05247 0.7359 0.0
H2033 H 0.84074 0.94634 0.79676 0.0
H2034 H 0.84202 0.97242 0.77685 0.0
C2035 C 0.85737 0.06759 0.72475 0.0
C2036 C 0.87076 0.02289 0.74503 0.0
H2037 H 0.86419 0.97743 0.74586 0.0
C2038 C 0.8744 0.02546 0.76337 0.0
C2039 C 0.86693 1.00539 0.73863 0.0
C2040 C 0.86226 1.00195 0.71919 0.0
C2041 C 0.87441 0.01097 0.77549 0.0
C2042 C 0.87081 0.99343 0.76906 0.0
C2043 C 0.86708 0.99087 0.75073 0.0
C2044 C 0.87025 0.97763 0.78124 0.0
C2045 C 0.87784 0.01457 0.79516 0.0
C2046 C 0.88574 0.97182 0.79024 0.0
C2047 C 0.8851 0.95679 0.80156 0.0
C2048 C 0.86895 0.94723 0.80405 0.0
C2049 C 0.85347 0.95317 0.79498 0.0
C2050 C 0.85414 0.96814 0.78365 0.0
H2051 H 0.87661 0.02908 0.79848 0.0
H2052 H 0.86832 1.00685 0.80368 0.0
H2053 H 0.89165 0.01022 0.7986 0.0
H2054 H 0.89839 0.97878 0.78834 0.0
H2055 H 0.89735 0.95245 0.80807 0.0
H2056 H 0.11296 0.574 0.79487 0.0
H2057 H 0.11222 0.54799 0.77472 0.0
H2058 H 0.16297 0.53009 0.79579 0.0
H2059 H 0.16427 0.55636 0.8155 0.0
H2060 H 0.14442 0.53802 0.74871 0.0
H2061 H 0.12381 0.48642 0.79888 0.0
H2062 H 0.1182 0.50992 0.80142 0.0
H2063 H 0.14074 0.50253 0.80531 0.0
C2064 C 0.12406 0.56464 0.79518 0.0
C2065 C 0.13869 0.56738 0.80688 0.0
C2066 C 0.12353 0.54972 0.78371 0.0
C2067 C 0.13749 0.53712 0.78387 0.0
C2068 C 0.15199 0.53961 0.79562 0.0
H2069 H 0.16115 0.43636 0.73205 0.0
H2070 H 0.1588 0.46251 0.75162 0.0
C2071 C 0.15262 0.55459 0.80698 0.0
C2072 C 0.13722 0.52161 0.77138 0.0
H2073 H 0.13119 0.47615 0.76981 0.0
C2074 C 0.14142 0.52449 0.75323 0.0
C2075 C 0.13343 0.50402 0.77743 0.0
C2076 C 0.12869 0.50039 0.7968 0.0
C2077 C 0.14238 0.51011 0.74099 0.0
C2078 C 0.13851 0.49244 0.74699 0.0
C2079 C 0.1341 0.48966 0.76517 0.0
C2080 C 0.13968 0.47654 0.73487 0.0
C2081 C 0.14821 0.51394 0.72193 0.0
C2082 C 0.12952 0.47553 0.71898 0.0
C2083 C 0.1311 0.46067 0.7075 0.0
C2084 C 0.1427 0.44638 0.71179 0.0
C2085 C 0.15243 0.44726 0.72801 0.0
C2086 C 0.15096 0.46215 0.73936 0.0
H2087 H 0.1554 0.527 0.72087 0.0
H2088 H 0.15713 0.50318 0.71676 0.0
H2089 H 0.13619 0.51463 0.71316 0.0
H2090 H 0.12037 0.48623 0.71542 0.0
H2091 H 0.12343 0.46054 0.69514 0.0
H2092 H 0.73334 0.88687 0.08266 0.0
H2093 H 0.75378 0.88743 0.05692 0.0
H2094 H 0.71551 0.85707 0.02569 0.0
H2095 H 0.69501 0.85638 0.0514 0.0
H2096 H 0.76916 0.85866 0.03921 0.0
H2097 H 0.72761 0.89896 0.99232 0.0
H2098 H 0.72287 0.89755 0.01609 0.0
H2099 H 0.71632 0.87958 1.00128 0.0
C2100 C 0.72925 0.8803 0.07032 0.0
C2101 C 0.7125 0.87159 0.06911 0.0
C2102 C 0.74093 0.88069 0.0556 0.0
C2103 C 0.7361 0.87248 0.0393 0.0
C2104 C 0.71937 0.86384 0.038 0.0
H2105 H 0.80732 0.84053 0.95236 0.0
H2106 H 0.78745 0.84155 0.97851 0.0
C2107 C 0.70765 0.86346 0.05271 0.0
C2108 C 0.74886 0.87243 0.02393 0.0
H2109 H 0.75363 0.88515 0.98004 0.0
C2110 C 0.76579 0.8645 0.02628 0.0
C2111 C 0.74453 0.88024 0.00714 0.0
C2112 C 0.72692 0.88972 1.00404 0.0
C2113 C 0.77839 0.86392 0.01224 0.0
C2114 C 0.77385 0.87122 0.99528 0.0
C2115 C 0.75704 0.87942 0.993 0.0
C2116 C 0.78637 0.87059 0.97973 0.0
C2117 C 0.79656 0.85573 0.01576 0.0
C2118 C 0.7922 0.88656 0.97153 0.0
C2119 C 0.80358 0.88603 0.95657 0.0
C2120 C 0.80931 0.86949 0.94941 0.0
C2121 C 0.80348 0.85351 0.95771 0.0
C2122 C 0.79208 0.85406 0.97266 0.0
H2123 H 0.79962 0.85515 0.03037 0.0
H2124 H 0.79674 0.84178 0.01047 0.0
H2125 H 0.80734 0.86346 0.00892 0.0
H2126 H 0.78795 0.89947 0.97675 0.0
H2127 H 0.80793 0.8986 0.95065 0.0
H2128 H 0.18874 0.6356 0.96602 0.0
H2129 H 0.20864 0.63581 0.99218 0.0
H2130 H 0.25357 0.64872 0.95795 0.0
H2131 H 0.23371 0.6495 0.93193 0.0
H2132 H 0.23763 0.61528 0.9999 0.0
H2133 H 0.25854 0.6867 0.99616 0.0
H2134 H 0.24006 0.67785 0.9832 0.0
H2135 H 0.26282 0.67465 0.97572 0.0
C2136 C 0.2028 0.63876 0.96407 0.0
C2137 C 0.20955 0.64259 0.94679 0.0
C2138 C 0.2142 0.63874 0.97904 0.0
C2139 C 0.23257 0.64259 0.97711 0.0
C2140 C 0.23939 0.64612 0.95988 0.0
H2141 H 0.32468 0.6431 0.04902 0.0
H2142 H 0.30452 0.64288 0.02302 0.0
C2143 C 0.22801 0.64627 0.94493 0.0
C2144 C 0.24467 0.64252 0.99302 0.0
H2145 H 0.27511 0.66804 0.01619 0.0
C2146 C 0.24573 0.62686 1.00352 0.0
C2147 C 0.25525 0.65764 0.99778 0.0
C2148 C 0.25401 0.67522 0.98774 0.0
C2149 C 0.25731 0.6258 0.0184 0.0
C2150 C 0.26803 0.64083 0.02298 0.0
C2151 C 0.26696 0.6565 0.01255 0.0
C2152 C 0.28022 0.64068 0.03876 0.0
C2153 C 0.25826 0.60851 0.02894 0.0
C2154 C 0.27321 0.63969 0.05624 0.0
C2155 C 0.28465 0.64001 0.07114 0.0
C2156 C 0.3034 0.6413 0.0689 0.0
C2157 C 0.31035 0.64228 0.05131 0.0
C2158 C 0.29886 0.64206 0.03641 0.0
H2159 H 0.25216 0.59708 0.0215 0.0
H2160 H 0.27239 0.60513 0.03223 0.0
H2161 H 0.25085 0.61016 0.04179 0.0
H2162 H 0.25884 0.63896 0.05836 0.0
H2163 H 0.27875 0.63965 0.08443 0.0
H2164 H 0.69962 0.1708 0.46021 0.0
H2165 H 0.72075 0.16923 0.48532 0.0
H2166 H 0.74138 0.11915 0.46484 0.0
H2167 H 0.72044 0.1207 0.43954 0.0
H2168 H 0.73467 0.11875 0.50207 0.0
H2169 H 0.77517 0.17826 0.48233 0.0
H2170 H 0.75151 0.18252 0.48406 0.0
H2171 H 0.75969 0.16735 0.46715 0.0
C2172 C 0.70874 0.15952 0.46094 0.0
C2173 C 0.70836 0.14592 0.44777 0.0
C2174 C 0.72082 0.15865 0.47531 0.0
C2175 C 0.73284 0.14422 0.4768 0.0
C2176 C 0.73226 0.13044 0.46392 0.0
H2177 H 0.826 0.1404 0.5482 0.0
H2178 H 0.80607 0.13997 0.522 0.0
C2179 C 0.7202 0.1313 0.44952 0.0
C2180 C 0.74588 0.14343 0.49189 0.0
H2181 H 0.78088 0.16601 0.51129 0.0
C2182 C 0.74483 0.12904 0.50405 0.0
C2183 C 0.75929 0.15672 0.49431 0.0
C2184 C 0.76166 0.17201 0.4812 0.0
C2185 C 0.75652 0.12783 0.51883 0.0
C2186 C 0.76948 0.14149 0.52163 0.0
C2187 C 0.77084 0.15563 0.50921 0.0
C2188 C 0.78156 0.1415 0.53753 0.0
C2189 C 0.75501 0.11186 0.53123 0.0
C2190 C 0.77442 0.14273 0.55494 0.0
C2191 C 0.78576 0.14309 0.56991 0.0
C2192 C 0.80453 0.14229 0.56783 0.0
C2193 C 0.81164 0.14118 0.55032 0.0
C2194 C 0.80027 0.14085 0.53533 0.0
H2195 H 0.7479 0.10044 0.52471 0.0
H2196 H 0.76847 0.10723 0.53564 0.0
H2197 H 0.74727 0.11577 0.54336 0.0
H2198 H 0.76005 0.14368 0.55694 0.0
H2199 H 0.77979 0.14438 0.58313 0.0
H2200 H 0.18967 0.37193 0.55016 0.0
H2201 H 0.20985 0.37319 0.52417 0.0
H2202 H 0.25562 0.37233 0.55961 0.0
H2203 H 0.23559 0.37157 0.58565 0.0
H2204 H 0.25867 0.39762 0.53178 0.0
H2205 H 0.23936 0.33028 0.5058 0.0
H2206 H 0.22097 0.34548 0.5092 0.0
H2207 H 0.2337 0.33775 0.52818 0.0
C2208 C 0.20402 0.3722 0.55243 0.0
C2209 C 0.211 0.3715 0.57 0.0
C2210 C 0.21554 0.37274 0.53756 0.0
C2211 C 0.23424 0.37255 0.53995 0.0
C2212 C 0.24123 0.37234 0.55745 0.0
H2213 H 0.31679 0.34597 0.46234 0.0
H2214 H 0.2964 0.34751 0.48807 0.0
C2215 C 0.22975 0.37178 0.57232 0.0
C2216 C 0.24658 0.37242 0.52425 0.0
H2217 H 0.25909 0.34751 0.48776 0.0
C2218 C 0.25876 0.38669 0.52212 0.0
C2219 C 0.24683 0.35801 0.51182 0.0
C2220 C 0.23464 0.34191 0.51388 0.0
C2221 C 0.2711 0.38703 0.50782 0.0
C2222 C 0.27109 0.3728 0.49518 0.0
C2223 C 0.25899 0.35847 0.49738 0.0
C2224 C 0.28377 0.3723 0.47975 0.0
C2225 C 0.2843 0.40239 0.50659 0.0
C2226 C 0.28341 0.3857 0.46646 0.0
C2227 C 0.29503 0.38483 0.45169 0.0
C2228 C 0.30716 0.37047 0.44984 0.0
C2229 C 0.3075 0.35711 0.46323 0.0
C2230 C 0.2959 0.358 0.47799 0.0
H2231 H 0.28554 0.40969 0.51957 0.0
H2232 H 0.29778 0.39752 0.50253 0.0
H2233 H 0.27961 0.41208 0.49629 0.0
H2234 H 0.27391 0.39666 0.46734 0.0
H2235 H 0.29417 0.39517 0.44148 0.0
H2236 H 0.07449 0.72558 0.84722 0.0
H2237 H 0.04838 0.74539 0.84846 0.0
H2238 H 0.03111 0.71982 0.89753 0.0
H2239 H 0.05746 0.70012 0.89659 0.0
H2240 H 0.0114 0.73534 0.8492 0.0
H2241 H 0.03129 0.77416 0.90997 0.0
H2242 H 0.04703 0.76072 0.89735 0.0
H2243 H 0.0313 0.7501 0.91226 0.0
C2244 C 0.06525 0.72428 0.85839 0.0
C2245 C 0.06816 0.71136 0.8719 0.0
C2246 C 0.05028 0.73554 0.85902 0.0
C2247 C 0.03794 0.73425 0.87321 0.0
C2248 C 0.04062 0.72123 0.8866 0.0
H2249 H 0.94062 0.79595 0.89608 0.0
H2250 H 0.9661 0.7752 0.89774 0.0
C2251 C 0.05559 0.70988 0.88595 0.0
C2252 C 0.02213 0.74637 0.87371 0.0
H2253 H 1.00303 0.78084 0.89726 0.0
C2254 C 0.00955 0.74528 0.85971 0.0
C2255 C 0.01971 0.75925 0.88749 0.0
C2256 C 0.03308 0.76131 0.90258 0.0
C2257 C 0.99458 0.75672 0.85912 0.0
C2258 C 0.99236 0.7699 0.87268 0.0
C2259 C 1.00478 0.77078 0.88685 0.0
C2260 C 0.97741 0.7831 0.87213 0.0
C2261 C 0.98116 0.75439 0.8441 0.0
C2262 C 0.9756 0.7948 0.85745 0.0
C2263 C 0.96111 0.80666 0.85648 0.0
C2264 C 0.94817 0.8072 0.87026 0.0
C2265 C 0.9504 0.79595 0.8853 0.0
C2266 C 0.96489 0.78402 0.88622 0.0
H2267 H 0.98191 0.74074 0.83808 0.0
H2268 H 0.96725 0.75668 0.84893 0.0
H2269 H 0.9841 0.76429 0.83334 0.0
H2270 H 0.98536 0.7947 0.84666 0.0
H2271 H 0.95999 0.81539 0.84489 0.0
H2272 H 0.06417 0.30393 0.67446 0.0
H2273 H 0.03868 0.28317 0.67335 0.0
H2274 H 0.03555 0.28998 0.61586 0.0
H2275 H 0.06115 0.31063 0.61685 0.0
H2276 H 1.00425 0.28744 0.6621 0.0
H2277 H 0.03788 0.23586 0.62017 0.0
H2278 H 0.04997 0.25422 0.63044 0.0
H2279 H 0.03757 0.25772 0.60998 0.0
C2280 C 0.05796 0.30114 0.66159 0.0
C2281 C 0.06476 0.30888 0.64572 0.0
C2282 C 0.04344 0.28919 0.66097 0.0
C2283 C 0.03541 0.2847 0.64448 0.0
C2284 C 0.04183 0.29282 0.62868 0.0
H2285 H 0.94281 0.21953 0.6151 0.0
H2286 H 0.96832 0.24044 0.61565 0.0
C2287 C 0.05643 0.30468 0.62927 0.0
C2288 C 0.02025 0.27166 0.64389 0.0
H2289 H 1.00663 0.23181 0.62536 0.0
C2290 C 1.00482 0.27524 0.65413 0.0
C2291 C 0.021 0.25568 0.63353 0.0
C2292 C 0.03755 0.25051 0.62304 0.0
C2293 C 0.99005 0.26346 0.65407 0.0
C2294 C 0.99076 0.24763 0.64358 0.0
C2295 C 1.00613 0.24401 0.63332 0.0
C2296 C 0.97565 0.23462 0.64316 0.0
C2297 C 0.97365 0.26811 0.66501 0.0
C2298 C 0.97154 0.22423 0.65836 0.0
C2299 C 0.95707 0.21221 0.65806 0.0
C2300 C 0.94637 0.21044 0.64256 0.0
C2301 C 0.9507 0.22071 0.62728 0.0
C2302 C 0.96528 0.23261 0.62755 0.0
H2303 H 0.97393 0.28226 0.66977 0.0
H2304 H 0.96126 0.26593 0.65699 0.0
H2305 H 0.97296 0.25917 0.67693 0.0
H2306 H 0.97949 0.2255 0.67049 0.0
H2307 H 0.95398 0.20462 0.6701 0.0
H2308 H 0.55351 0.19629 0.38957 0.0
H2309 H 0.52793 0.21693 0.39084 0.0
H2310 H 0.55065 0.24793 0.34747 0.0
H2311 H 0.57634 0.22767 0.34628 0.0
H2312 H 0.52783 0.25526 0.3963 0.0
H2313 H 0.49925 0.23607 0.33007 0.0
H2314 H 0.51555 0.22242 0.34169 0.0
H2315 H 0.52261 0.24209 0.32956 0.0
C2316 C 0.55314 0.20757 0.38038 0.0
C2317 C 0.56695 0.21018 0.36769 0.0
C2318 C 0.53847 0.2193 0.38108 0.0
C2319 C 0.53725 0.23379 0.36906 0.0
C2320 C 0.55112 0.23661 0.35661 0.0
H2321 H 0.46174 0.31905 0.34635 0.0
H2322 H 0.48725 0.29844 0.34749 0.0
C2323 C 0.56578 0.22495 0.35592 0.0
C2324 C 0.5216 0.2461 0.36957 0.0
H2325 H 0.48671 0.2617 0.34425 0.0
C2326 C 0.51875 0.25661 0.38499 0.0
C2327 C 0.50981 0.24784 0.35477 0.0
C2328 C 0.5118 0.23641 0.33813 0.0
C2329 C 0.50469 0.26918 0.38581 0.0
C2330 C 0.49297 0.27101 0.37095 0.0
C2331 C 0.49574 0.26035 0.35561 0.0
C2332 C 0.47779 0.28397 0.37089 0.0
C2333 C 0.50287 0.28075 0.40238 0.0
C2334 C 0.46394 0.28269 0.38364 0.0
C2335 C 0.44933 0.29447 0.38302 0.0
C2336 C 0.44816 0.30767 0.36952 0.0
C2337 C 0.46211 0.30895 0.35682 0.0
C2338 C 0.47674 0.29721 0.35749 0.0
H2339 H 0.51551 0.28115 0.41029 0.0
H2340 H 0.49908 0.29472 0.39876 0.0
H2341 H 0.49218 0.27511 0.41112 0.0
H2342 H 0.46422 0.27231 0.39384 0.0
H2343 H 0.43867 0.2929 0.39281 0.0
H2344 H 0.66815 0.56557 0.71174 0.0
H2345 H 0.66626 0.53979 0.73197 0.0
H2346 H 0.60864 0.53935 0.72647 0.0
H2347 H 0.61041 0.5652 0.70611 0.0
H2348 H 0.61966 0.53597 0.7618 0.0
H2349 H 0.65621 0.4877 0.71849 0.0
H2350 H 0.66854 0.50804 0.72264 0.0
H2351 H 0.64787 0.50889 0.71018 0.0
C2352 C 0.65507 0.55984 0.7146 0.0
C2353 C 0.63944 0.56737 0.70713 0.0
C2354 C 0.65402 0.54509 0.7262 0.0
C2355 C 0.63734 0.53742 0.7305 0.0
C2356 C 0.62168 0.545 0.72327 0.0
H2357 H 0.62596 0.43311 0.78289 0.0
H2358 H 0.62394 0.45859 0.76227 0.0
C2359 C 0.62271 0.55981 0.71168 0.0
C2360 C 0.63626 0.52174 0.74287 0.0
H2361 H 0.65131 0.47881 0.74887 0.0
C2362 C 0.62648 0.52343 0.75892 0.0
C2363 C 0.64497 0.50529 0.73902 0.0
C2364 C 0.65484 0.50225 0.72157 0.0
C2365 C 0.62554 0.50928 0.77143 0.0
C2366 C 0.63489 0.4931 0.76792 0.0
C2367 C 0.64429 0.49127 0.75166 0.0
C2368 C 0.63517 0.4779 0.78092 0.0
C2369 C 0.61438 0.51173 0.78818 0.0
C2370 C 0.64215 0.48023 0.79831 0.0
C2371 C 0.64316 0.4657 0.81022 0.0
C2372 C 0.63734 0.44846 0.80496 0.0
C2373 C 0.63027 0.44622 0.78755 0.0
C2374 C 0.62925 0.46076 0.77566 0.0
H2375 H 0.60414 0.52242 0.78641 0.0
H2376 H 0.60746 0.49904 0.79196 0.0
H2377 H 0.62327 0.51576 0.79946 0.0
H2378 H 0.64714 0.49323 0.80258 0.0
H2379 H 0.64855 0.46799 0.82355 0.0
H2380 H 0.34613 0.06454 0.80119 0.0
H2381 H 0.34772 0.03876 0.78098 0.0
H2382 H 0.4055 0.03976 0.78418 0.0
H2383 H 0.40403 0.06513 0.80509 0.0
H2384 H 0.36334 0.03656 0.74795 0.0
H2385 H 0.39477 0.98724 0.79418 0.0
H2386 H 0.38537 0.00817 0.80198 0.0
H2387 H 0.40719 0.0078 0.79166 0.0
C2388 C 0.35919 0.05909 0.79793 0.0
C2389 C 0.37495 0.06687 0.80497 0.0
C2390 C 0.36008 0.04442 0.78621 0.0
C2391 C 0.37671 0.03713 0.78124 0.0
C2392 C 0.39249 0.0449 0.78809 0.0
H2393 H 0.40317 0.94933 0.70724 0.0
H2394 H 0.40477 0.97529 0.72748 0.0
C2395 C 0.39162 0.05957 0.79989 0.0
C2396 C 0.37742 0.02177 0.76843 0.0
H2397 H 0.39118 0.97818 0.76384 0.0
C2398 C 0.36942 0.0238 0.75144 0.0
C2399 C 0.3854 1.00511 0.77295 0.0
C2400 C 0.39353 1.00182 0.79123 0.0
C2401 C 0.36918 0.00968 0.7389 0.0
C2402 C 0.37698 0.99299 0.7435 0.0
C2403 C 0.38525 0.99101 0.76034 0.0
C2404 C 0.37606 0.97723 0.73126 0.0
C2405 C 0.36069 0.01277 0.72075 0.0
C2406 C 0.35941 0.96956 0.72689 0.0
C2407 C 0.35844 0.95465 0.71548 0.0
C2408 C 0.37412 0.94705 0.70815 0.0
C2409 C 0.39082 0.9547 0.71271 0.0
C2410 C 0.39178 0.9696 0.72422 0.0
H2411 H 0.35945 0.02732 0.71764 0.0
H2412 H 0.36862 1.00622 0.70994 0.0
H2413 H 0.34702 1.00681 0.72067 0.0
H2414 H 0.34714 0.97499 0.73248 0.0
H2415 H 0.34537 0.9489 0.71266 0.0
H2416 H 0.43612 0.23072 0.84829 0.0
H2417 H 0.46239 0.2504 0.84949 0.0
H2418 H 0.48745 0.2147 0.88756 0.0
H2419 H 0.46112 0.19492 0.88651 0.0
H2420 H 0.47667 0.26824 0.87904 0.0
H2421 H 0.52659 0.22138 0.84958 0.0
H2422 H 0.5027 0.21749 0.84815 0.0
H2423 H 0.51458 0.21257 0.86859 0.0
C2424 C 0.44718 0.22706 0.85699 0.0
C2425 C 0.44647 0.21124 0.86735 0.0
C2426 C 0.46223 0.2383 0.85759 0.0
C2427 C 0.47698 0.23395 0.86845 0.0
C2428 C 0.47638 0.21815 0.87879 0.0
H2429 H 0.57882 0.28717 0.89017 0.0
H2430 H 0.55254 0.2674 0.8903 0.0
C2431 C 0.46131 0.20686 0.87818 0.0
C2432 C 0.49271 0.24626 0.8693 0.0
H2433 H 0.5378 0.24883 0.86125 0.0
C2434 C 0.49004 0.26402 0.87511 0.0
C2435 C 0.51014 0.24073 0.86418 0.0
C2436 C 0.51372 0.22206 0.85712 0.0
C2437 C 0.50434 0.27633 0.87616 0.0
C2438 C 0.52176 0.27082 0.87098 0.0
C2439 C 0.52445 0.25303 0.86524 0.0
C2440 C 0.53738 0.28329 0.87131 0.0
C2441 C 0.50075 0.29503 0.88313 0.0
C2442 C 0.53762 0.2988 0.86056 0.0
C2443 C 0.55266 0.31013 0.8604 0.0
C2444 C 0.56784 0.30608 0.87089 0.0
C2445 C 0.56746 0.29059 0.88176 0.0
C2446 C 0.55243 0.2793 0.88191 0.0
H2447 H 0.48802 0.29565 0.8909 0.0
H2448 H 0.51189 0.29976 0.89185 0.0
H2449 H 0.49959 0.30441 0.8716 0.0
H2450 H 0.52632 0.30196 0.85197 0.0
H2451 H 0.5526 0.32176 0.85165 0.0
H2452 H 0.3471 0.57545 0.2254 0.0
H2453 H 0.34804 0.5491 0.24498 0.0
H2454 H 0.39546 0.53038 0.21758 0.0
H2455 H 0.39491 0.55702 0.19819 0.0
H2456 H 0.34673 0.51254 0.2355 0.0
H2457 H 0.41028 0.52948 0.27089 0.0
H2458 H 0.39801 0.54573 0.25775 0.0
H2459 H 0.41161 0.52912 0.24677 0.0
C2460 C 0.35787 0.56585 0.22365 0.0
C2461 C 0.37105 0.56847 0.21034 0.0
C2462 C 0.35831 0.55073 0.23478 0.0
C2463 C 0.37197 0.53791 0.23293 0.0
C2464 C 0.38498 0.54027 0.21946 0.0
H2465 H 0.39375 0.43931 0.29299 0.0
H2466 H 0.39494 0.46453 0.27185 0.0
C2467 C 0.38454 0.55541 0.20827 0.0
C2468 C 0.37234 0.52202 0.24501 0.0
H2469 H 0.39684 0.50157 0.278 0.0
C2470 C 0.35769 0.51013 0.24479 0.0
C2471 C 0.38668 0.51887 0.25708 0.0
C2472 C 0.40249 0.53152 0.25832 0.0
C2473 C 0.35699 0.49514 0.25626 0.0
C2474 C 0.37117 0.49216 0.26856 0.0
C2475 C 0.38597 0.50389 0.26859 0.0
C2476 C 0.37071 0.47714 0.28171 0.0
C2477 C 0.34117 0.48251 0.25493 0.0
C2478 C 0.35694 0.47606 0.29455 0.0
C2479 C 0.35626 0.46172 0.30668 0.0
C2480 C 0.36944 0.4482 0.30634 0.0
C2481 C 0.38349 0.44956 0.29375 0.0
C2482 C 0.38413 0.46392 0.28159 0.0
H2483 H 0.33423 0.48374 0.24176 0.0
H2484 H 0.34541 0.46832 0.25676 0.0
H2485 H 0.33134 0.48583 0.26563 0.0
H2486 H 0.34669 0.48634 0.2952 0.0
H2487 H 0.34544 0.46127 0.3164 0.0
H2488 H 0.61758 0.07382 0.2954 0.0
H2489 H 0.61567 0.04794 0.27515 0.0
H2490 H 0.66717 0.02945 0.29391 0.0
H2491 H 0.66892 0.05491 0.31461 0.0
H2492 H 0.63898 0.03871 0.24735 0.0
H2493 H 0.63601 0.98445 0.29843 0.0
H2494 H 0.63224 0.00777 0.30397 0.0
H2495 H 0.65472 0.99945 0.30118 0.0
C2496 C 0.62836 0.06408 0.29547 0.0
C2497 C 0.64337 0.06643 0.30674 0.0
C2498 C 0.6273 0.04937 0.28377 0.0
C2499 C 0.64116 0.03662 0.28317 0.0
C2500 C 0.65616 0.03892 0.29437 0.0
H2501 H 0.67065 0.95709 0.20429 0.0
H2502 H 0.66842 0.98303 0.22446 0.0
C2503 C 0.65723 0.05361 0.30606 0.0
C2504 C 0.64023 0.02125 0.27042 0.0
H2505 H 0.64107 0.97536 0.26809 0.0
C2506 C 0.63931 0.02486 0.2519 0.0
C2507 C 0.64052 1.00317 0.27636 0.0
C2508 C 0.64076 0.99842 0.29607 0.0
C2509 C 0.6392 0.01088 0.23917 0.0
C2510 C 0.64005 0.99287 0.24512 0.0
C2511 C 0.6405 0.98922 0.26361 0.0
C2512 C 0.64098 0.97765 0.23229 0.0
C2513 C 0.63821 0.01538 0.21943 0.0
C2514 C 0.62626 0.96607 0.23002 0.0
C2515 C 0.62745 0.95127 0.21843 0.0
C2516 C 0.6435 0.94765 0.20913 0.0
C2517 C 0.65815 0.95942 0.21136 0.0
C2518 C 0.65689 0.97429 0.2228 0.0
H2519 H 0.63492 0.02975 0.21711 0.0
H2520 H 0.65135 0.01248 0.21304 0.0
H2521 H 0.62793 1.00688 0.2127 0.0
H2522 H 0.61389 0.96843 0.23731 0.0
H2523 H 0.616 0.94237 0.21715 0.0
H2524 H 0.5812 0.78215 0.13556 0.0
H2525 H 0.5551 0.76227 0.13436 0.0
H2526 H 0.52058 0.80678 0.14763 0.0
H2527 H 0.54654 0.82696 0.14811 0.0
H2528 H 0.53143 0.75382 0.16102 0.0
H2529 H 0.49528 0.78567 0.10422 0.0
H2530 H 0.51839 0.7908 0.1094 0.0
H2531 H 0.50056 0.80098 0.12211 0.0
C2532 C 0.56803 0.78784 0.13787 0.0
C2533 C 0.56601 0.80625 0.14176 0.0
C2534 C 0.55313 0.77639 0.13734 0.0
C2535 C 0.53583 0.78306 0.14063 0.0
C2536 C 0.53374 0.80138 0.14467 0.0
H2537 H 0.43027 0.73497 0.15114 0.0
H2538 H 0.45643 0.75482 0.15057 0.0
C2539 C 0.54865 0.81287 0.14515 0.0
C2540 C 0.52011 0.77068 0.14042 0.0
H2541 H 0.47929 0.7634 0.1207 0.0
C2542 C 0.52008 0.75586 0.15212 0.0
C2543 C 0.5053 0.77332 0.1288 0.0
C2544 C 0.5049 0.78845 0.1153 0.0
C2545 C 0.50552 0.74383 0.15277 0.0
C2546 C 0.49067 0.74657 0.14126 0.0
C2547 C 0.49069 0.76135 0.12953 0.0
C2548 C 0.47485 0.73438 0.14136 0.0
C2549 C 0.50593 0.72852 0.16606 0.0
C2550 C 0.47647 0.71631 0.13615 0.0
C2551 C 0.46148 0.70492 0.13628 0.0
C2552 C 0.44453 0.71138 0.14158 0.0
C2553 C 0.443 0.72955 0.14669 0.0
C2554 C 0.45797 0.74093 0.14649 0.0
H2555 H 0.51634 0.73056 0.17657 0.0
H2556 H 0.49268 0.72688 0.17271 0.0
H2557 H 0.50903 0.71584 0.15883 0.0
H2558 H 0.48932 0.71106 0.13184 0.0
H2559 H 0.46313 0.6911 0.13201 0.0
loop_
_geom_bond_atom_site_label_1
_geom_bond_atom_site_label_2
_geom_bond_distance
_geom_bond_site_symmetry_2
_ccdc_geom_bond_type
Li0 N17 1.990 . S
Li0 O60 1.956 . S
Li0 O61 1.970 . S
Li0 O62 1.961 . S
Li1 N25 1.990 . S
Li1 O60 1.970 . S
Li1 O61 1.956 . S
Li1 O63 1.961 . S
Li2 N47 1.990 . S
Li2 O60 1.961 . S
Li2 O62 1.956 . S
Li2 O63 1.970 . S
Li3 N53 1.990 . S
Li3 O61 1.961 . S
Li3 O62 1.970 . S
Li3 O63 1.956 . S
C4 C6 1.348 . S
C4 C7 1.356 . S
C4 O60 1.325 . S
N5 C8 1.314 . S
N5 C9 1.279 . S
C6 C4 1.348 . S
C6 C8 1.353 . S
C6 H64 0.929 . S
C7 C4 1.356 . S
C7 C9 1.358 . S
C7 H65 0.930 . S
C8 N5 1.314 . S
C8 C6 1.353 . S
C8 H66 0.930 . S
C9 N5 1.279 . S
C9 C7 1.358 . S
C9 H67 0.930 . S
C10 C13 1.348 . S
C10 C14 1.356 . S
C10 O61 1.325 . S
C11 N12 1.279 . S
C11 C14 1.358 . S
C11 H68 0.930 . S
N12 C11 1.279 . S
N12 C15 1.314 . S
C13 C10 1.348 . S
C13 C15 1.353 . S
C13 H69 0.929 . S
C14 C10 1.356 . S
C14 C11 1.358 . S
C14 H70 0.930 . S
C15 N12 1.314 . S
C15 C13 1.353 . S
C15 H71 0.930 . S
C16 N17 1.314 . S
C16 C21 1.353 . S
C16 H22 0.930 . S
N17 Li0 1.990 . S
N17 C16 1.314 . S
N17 C19 1.279 . S
C18 C19 1.358 . S
C18 C20 1.356 . S
C18 H72 0.930 . S
C19 N17 1.279 . S
C19 C18 1.358 . S
C19 H23 0.930 . S
C20 C18 1.356 . S
C20 C21 1.348 . S
C21 C16 1.353 . S
C21 C20 1.348 . S
C21 H73 0.929 . S
H22 C16 0.930 . S
H23 C19 0.930 . S
C24 N25 1.314 . S
C24 C26 1.353 . S
C24 H30 0.930 . S
N25 Li1 1.990 . S
N25 C24 1.314 . S
N25 C28 1.279 . S
C26 C24 1.353 . S
C26 C29 1.348 . S
C26 H74 0.929 . S
C27 C28 1.358 . S
C27 C29 1.356 . S
C27 H75 0.930 . S
C28 N25 1.279 . S
C28 C27 1.358 . S
C28 H31 0.930 . S
C29 C26 1.348 . S
C29 C27 1.356 . S
H30 C24 0.930 . S
H31 C28 0.930 . S
C32 C34 1.348 . S
C32 C35 1.356 . S
C32 O62 1.325 . S
N33 C36 1.314 . S
N33 C37 1.279 . S
C34 C32 1.348 . S
C34 C36 1.353 . S
C34 H76 0.929 . S
C35 C32 1.356 . S
C35 C37 1.358 . S
C35 H77 0.930 . S
C36 N33 1.314 . S
C36 C34 1.353 . S
C36 H78 0.930 . S
C37 N33 1.279 . S
C37 C35 1.358 . S
C37 H79 0.930 . S
C38 C39 1.348 . S
C38 C40 1.356 . S
C38 O63 1.325 . S
C39 C38 1.348 . S
C39 C41 1.353 . S
C39 H80 0.929 . S
C40 C38 1.356 . S
C40 C42 1.358 . S
C40 H81 0.930 . S
C41 C39 1.353 . S
C41 N43 1.314 . S
C41 H82 0.930 . S
C42 C40 1.358 . S
C42 N43 1.279 . S
C42 H83 0.930 . S
N43 C41 1.314 . S
N43 C42 1.279 . S
C44 C46 1.353 . S
C44 N47 1.314 . S
C44 H50 0.930 . S
C45 N47 1.279 . S
C45 C48 1.358 . S
C45 H51 0.930 . S
C46 C44 1.353 . S
C46 C49 1.348 . S
C46 H84 0.929 . S
N47 Li2 1.990 . S
N47 C44 1.314 . S
N47 C45 1.279 . S
C48 C45 1.358 . S
C48 C49 1.356 . S
C48 H85 0.930 . S
C49 C46 1.348 . S
C49 C48 1.356 . S
H50 C44 0.930 . S
H51 C45 0.930 . S
C52 N53 1.314 . S
C52 C54 1.353 . S
C52 H58 0.930 . S
N53 Li3 1.990 . S
N53 C52 1.314 . S
N53 C56 1.279 . S
C54 C52 1.353 . S
C54 C57 1.348 . S
C54 H86 0.929 . S
C55 C56 1.358 . S
C55 C57 1.356 . S
C55 H87 0.930 . S
C56 N53 1.279 . S
C56 C55 1.358 . S
C56 H59 0.930 . S
C57 C54 1.348 . S
C57 C55 1.356 . S
H58 C52 0.930 . S
H59 C56 0.930 . S
O60 Li0 1.956 . S
O60 Li1 1.970 . S
O60 Li2 1.961 . S
O60 C4 1.325 . S
O61 Li0 1.970 . S
O61 Li1 1.956 . S
O61 Li3 1.961 . S
O61 C10 1.325 . S
O62 Li0 1.961 . S
O62 Li2 1.956 . S
O62 Li3 1.970 . S
O62 C32 1.325 . S
O63 Li1 1.961 . S
O63 Li2 1.970 . S
O63 Li3 1.956 . S
O63 C38 1.325 . S
H64 C6 0.929 . S
H65 C7 0.930 . S
H66 C8 0.930 . S
H67 C9 0.930 . S
H68 C11 0.930 . S
H69 C13 0.929 . S
H70 C14 0.930 . S
H71 C15 0.930 . S
H72 C18 0.930 . S
H73 C21 0.929 . S
H74 C26 0.929 . S
H75 C27 0.930 . S
H76 C34 0.929 . S
H77 C35 0.930 . S
H78 C36 0.930 . S
H79 C37 0.930 . S
H80 C39 0.929 . S
H81 C40 0.930 . S
H82 C41 0.930 . S
H83 C42 0.930 . S
H84 C46 0.929 . S
H85 C48 0.930 . S
H86 C54 0.929 . S
H87 C55 0.930 . S
Li88 N105 1.990 . S
Li88 O148 1.956 . S
Li88 O149 1.970 . S
Li88 O150 1.961 . S
Li89 N113 1.990 . S
Li89 O148 1.970 . S
Li89 O149 1.956 . S
Li89 O151 1.961 . S
Li90 N135 1.990 . S
Li90 O148 1.961 . S
Li90 O150 1.956 . S
Li90 O151 1.970 . S
Li91 N141 1.990 . S
Li91 O149 1.961 . S
Li91 O150 1.970 . S
Li91 O151 1.956 . S
C92 C94 1.348 . S
C92 C95 1.356 . S
C92 O148 1.325 . S
N93 C96 1.314 . S
N93 C97 1.279 . S
C94 C92 1.348 . S
C94 C96 1.353 . S
C94 H152 0.929 . S
C95 C92 1.356 . S
C95 C97 1.358 . S
C95 H153 0.930 . S
C96 N93 1.314 . S
C96 C94 1.353 . S
C96 H154 0.930 . S
C97 N93 1.279 . S
C97 C95 1.358 . S
C97 H155 0.930 . S
C98 C101 1.348 . S
C98 C102 1.356 . S
C98 O149 1.325 . S
C99 N100 1.279 . S
C99 C102 1.358 . S
C99 H156 0.930 . S
N100 C99 1.279 . S
N100 C103 1.314 . S
C101 C98 1.348 . S
C101 C103 1.353 . S
C101 H157 0.929 . S
C102 C98 1.356 . S
C102 C99 1.358 . S
C102 H158 0.930 . S
C103 N100 1.314 . S
C103 C101 1.353 . S
C103 H159 0.930 . S
C104 N105 1.314 . S
C104 C109 1.353 . S
C104 H110 0.930 . S
N105 Li88 1.990 . S
N105 C104 1.314 . S
N105 C107 1.279 . S
C106 C107 1.358 . S
C106 C108 1.356 . S
C106 H160 0.930 . S
C107 N105 1.279 . S
C107 C106 1.358 . S
C107 H111 0.930 . S
C108 C106 1.356 . S
C108 C109 1.348 . S
C109 C104 1.353 . S
C109 C108 1.348 . S
C109 H161 0.929 . S
H110 C104 0.930 . S
H111 C107 0.930 . S
C112 N113 1.314 . S
C112 C114 1.353 . S
C112 H118 0.930 . S
N113 Li89 1.990 . S
N113 C112 1.314 . S
N113 C116 1.279 . S
C114 C112 1.353 . S
C114 C117 1.348 . S
C114 H162 0.929 . S
C115 C116 1.358 . S
C115 C117 1.356 . S
C115 H163 0.930 . S
C116 N113 1.279 . S
C116 C115 1.358 . S
C116 H119 0.930 . S
C117 C114 1.348 . S
C117 C115 1.356 . S
H118 C112 0.930 . S
H119 C116 0.930 . S
C120 C122 1.348 . S
C120 C123 1.356 . S
C120 O150 1.325 . S
N121 C124 1.314 . S
N121 C125 1.279 . S
C122 C120 1.348 . S
C122 C124 1.353 . S
C122 H164 0.929 . S
C123 C120 1.356 . S
C123 C125 1.358 . S
C123 H165 0.930 . S
C124 N121 1.314 . S
C124 C122 1.353 . S
C124 H166 0.930 . S
C125 N121 1.279 . S
C125 C123 1.358 . S
C125 H167 0.930 . S
C126 C127 1.348 . S
C126 C128 1.356 . S
C126 O151 1.325 . S
C127 C126 1.348 . S
C127 C129 1.353 . S
C127 H168 0.929 . S
C128 C126 1.356 . S
C128 C130 1.358 . S
C128 H169 0.930 . S
C129 C127 1.353 . S
C129 N131 1.314 . S
C129 H170 0.930 . S
C130 C128 1.358 . S
C130 N131 1.279 . S
C130 H171 0.930 . S
N131 C129 1.314 . S
N131 C130 1.279 . S
C132 C134 1.353 . S
C132 N135 1.314 . S
C132 H138 0.930 . S
C133 N135 1.279 . S
C133 C136 1.358 . S
C133 H139 0.930 . S
C134 C132 1.353 . S
C134 C137 1.348 . S
C134 H172 0.929 . S
N135 Li90 1.990 . S
N135 C132 1.314 . S
N135 C133 1.279 . S
C136 C133 1.358 . S
C136 C137 1.356 . S
C136 H173 0.930 . S
C137 C134 1.348 . S
C137 C136 1.356 . S
H138 C132 0.930 . S
H139 C133 0.930 . S
C140 N141 1.314 . S
C140 C142 1.353 . S
C140 H146 0.930 . S
N141 Li91 1.990 . S
N141 C140 1.314 . S
N141 C144 1.279 . S
C142 C140 1.353 . S
C142 C145 1.348 . S
C142 H174 0.929 . S
C143 C144 1.358 . S
C143 C145 1.356 . S
C143 H175 0.930 . S
C144 N141 1.279 . S
C144 C143 1.358 . S
C144 H147 0.930 . S
C145 C142 1.348 . S
C145 C143 1.356 . S
H146 C140 0.930 . S
H147 C144 0.930 . S
O148 Li88 1.956 . S
O148 Li89 1.970 . S
O148 Li90 1.961 . S
O148 C92 1.325 . S
O149 Li88 1.970 . S
O149 Li89 1.956 . S
O149 Li91 1.961 . S
O149 C98 1.325 . S
O150 Li88 1.961 . S
O150 Li90 1.956 . S
O150 Li91 1.970 . S
O150 C120 1.325 . S
O151 Li89 1.961 . S
O151 Li90 1.970 . S
O151 Li91 1.956 . S
O151 C126 1.325 . S
H152 C94 0.929 . S
H153 C95 0.930 . S
H154 C96 0.930 . S
H155 C97 0.930 . S
H156 C99 0.930 . S
H157 C101 0.929 . S
H158 C102 0.930 . S
H159 C103 0.930 . S
H160 C106 0.930 . S
H161 C109 0.929 . S
H162 C114 0.929 . S
H163 C115 0.930 . S
H164 C122 0.929 . S
H165 C123 0.930 . S
H166 C124 0.930 . S
H167 C125 0.930 . S
H168 C127 0.929 . S
H169 C128 0.930 . S
H170 C129 0.930 . S
H171 C130 0.930 . S
H172 C134 0.929 . S
H173 C136 0.930 . S
H174 C142 0.929 . S
H175 C143 0.930 . S
Li176 N193 1.990 . S
Li176 O236 1.956 . S
Li176 O237 1.970 . S
Li176 O238 1.961 . S
Li177 N201 1.990 . S
Li177 O236 1.970 . S
Li177 O237 1.956 . S
Li177 O239 1.961 . S
Li178 N223 1.990 . S
Li178 O236 1.961 . S
Li178 O238 1.956 . S
Li178 O239 1.970 . S
Li179 N229 1.990 . S
Li179 O237 1.961 . S
Li179 O238 1.970 . S
Li179 O239 1.956 . S
C180 C182 1.348 . S
C180 C183 1.356 . S
C180 O236 1.325 . S
N181 C184 1.314 . S
N181 C185 1.279 . S
C182 C180 1.348 . S
C182 C184 1.353 . S
C182 H240 0.929 . S
C183 C180 1.356 . S
C183 C185 1.358 . S
C183 H241 0.930 . S
C184 N181 1.314 . S
C184 C182 1.353 . S
C184 H242 0.930 . S
C185 N181 1.279 . S
C185 C183 1.358 . S
C185 H243 0.930 . S
C186 C189 1.348 . S
C186 C190 1.356 . S
C186 O237 1.325 . S
C187 N188 1.279 . S
C187 C190 1.358 . S
C187 H244 0.930 . S
N188 C187 1.279 . S
N188 C191 1.314 . S
C189 C186 1.348 . S
C189 C191 1.353 . S
C189 H245 0.929 . S
C190 C186 1.356 . S
C190 C187 1.358 . S
C190 H246 0.930 . S
C191 N188 1.314 . S
C191 C189 1.353 . S
C191 H247 0.930 . S
C192 N193 1.314 . S
C192 C197 1.353 . S
C192 H198 0.930 . S
N193 Li176 1.990 . S
N193 C192 1.314 . S
N193 C195 1.279 . S
C194 C195 1.358 . S
C194 C196 1.356 . S
C194 H248 0.930 . S
C195 N193 1.279 . S
C195 C194 1.358 . S
C195 H199 0.930 . S
C196 C194 1.356 . S
C196 C197 1.348 . S
C197 C192 1.353 . S
C197 C196 1.348 . S
C197 H249 0.929 . S
H198 C192 0.930 . S
H199 C195 0.930 . S
C200 N201 1.314 . S
C200 C202 1.353 . S
C200 H206 0.930 . S
N201 Li177 1.990 . S
N201 C200 1.314 . S
N201 C204 1.279 . S
C202 C200 1.353 . S
C202 C205 1.348 . S
C202 H250 0.929 . S
C203 C204 1.358 . S
C203 C205 1.356 . S
C203 H251 0.930 . S
C204 N201 1.279 . S
C204 C203 1.358 . S
C204 H207 0.930 . S
C205 C202 1.348 . S
C205 C203 1.356 . S
H206 C200 0.930 . S
H207 C204 0.930 . S
C208 C210 1.348 . S
C208 C211 1.356 . S
C208 O238 1.325 . S
N209 C212 1.314 . S
N209 C213 1.279 . S
C210 C208 1.348 . S
C210 C212 1.353 . S
C210 H252 0.929 . S
C211 C208 1.356 . S
C211 C213 1.358 . S
C211 H253 0.930 . S
C212 N209 1.314 . S
C212 C210 1.353 . S
C212 H254 0.930 . S
C213 N209 1.279 . S
C213 C211 1.358 . S
C213 H255 0.930 . S
C214 C215 1.348 . S
C214 C216 1.356 . S
C214 O239 1.325 . S
C215 C214 1.348 . S
C215 C217 1.353 . S
C215 H256 0.929 . S
C216 C214 1.356 . S
C216 C218 1.358 . S
C216 H257 0.930 . S
C217 C215 1.353 . S
C217 N219 1.314 . S
C217 H258 0.930 . S
C218 C216 1.358 . S
C218 N219 1.279 . S
C218 H259 0.930 . S
N219 C217 1.314 . S
N219 C218 1.279 . S
C220 C222 1.353 . S
C220 N223 1.314 . S
C220 H226 0.930 . S
C221 N223 1.279 . S
C221 C224 1.358 . S
C221 H227 0.930 . S
C222 C220 1.353 . S
C222 C225 1.348 . S
C222 H260 0.929 . S
N223 Li178 1.990 . S
N223 C220 1.314 . S
N223 C221 1.279 . S
C224 C221 1.358 . S
C224 C225 1.356 . S
C224 H261 0.930 . S
C225 C222 1.348 . S
C225 C224 1.356 . S
H226 C220 0.930 . S
H227 C221 0.930 . S
C228 N229 1.314 . S
C228 C230 1.353 . S
C228 H234 0.930 . S
N229 Li179 1.990 . S
N229 C228 1.314 . S
N229 C232 1.279 . S
C230 C228 1.353 . S
C230 C233 1.348 . S
C230 H262 0.929 . S
C231 C232 1.358 . S
C231 C233 1.356 . S
C231 H263 0.930 . S
C232 N229 1.279 . S
C232 C231 1.358 . S
C232 H235 0.930 . S
C233 C230 1.348 . S
C233 C231 1.356 . S
H234 C228 0.930 . S
H235 C232 0.930 . S
O236 Li176 1.956 . S
O236 Li177 1.970 . S
O236 Li178 1.961 . S
O236 C180 1.325 . S
O237 Li176 1.970 . S
O237 Li177 1.956 . S
O237 Li179 1.961 . S
O237 C186 1.325 . S
O238 Li176 1.961 . S
O238 Li178 1.956 . S
O238 Li179 1.970 . S
O238 C208 1.325 . S
O239 Li177 1.961 . S
O239 Li178 1.970 . S
O239 Li179 1.956 . S
O239 C214 1.325 . S
H240 C182 0.929 . S
H241 C183 0.930 . S
H242 C184 0.930 . S
H243 C185 0.930 . S
H244 C187 0.930 . S
H245 C189 0.929 . S
H246 C190 0.930 . S
H247 C191 0.930 . S
H248 C194 0.930 . S
H249 C197 0.929 . S
H250 C202 0.929 . S
H251 C203 0.930 . S
H252 C210 0.929 . S
H253 C211 0.930 . S
H254 C212 0.930 . S
H255 C213 0.930 . S
H256 C215 0.929 . S
H257 C216 0.930 . S
H258 C217 0.930 . S
H259 C218 0.930 . S
H260 C222 0.929 . S
H261 C224 0.930 . S
H262 C230 0.929 . S
H263 C231 0.930 . S
Li264 N281 1.990 . S
Li264 O324 1.956 . S
Li264 O325 1.970 . S
Li264 O326 1.961 . S
Li265 N289 1.990 . S
Li265 O324 1.970 . S
Li265 O325 1.956 . S
Li265 O327 1.961 . S
Li266 N311 1.990 . S
Li266 O324 1.961 . S
Li266 O326 1.956 . S
Li266 O327 1.970 . S
Li267 N317 1.990 . S
Li267 O325 1.961 . S
Li267 O326 1.970 . S
Li267 O327 1.956 . S
C268 C270 1.348 . S
C268 C271 1.356 . S
C268 O324 1.325 . S
N269 C272 1.314 . S
N269 C273 1.279 . S
C270 C268 1.348 . S
C270 C272 1.353 . S
C270 H328 0.929 . S
C271 C268 1.356 . S
C271 C273 1.358 . S
C271 H329 0.930 . S
C272 N269 1.314 . S
C272 C270 1.353 . S
C272 H330 0.930 . S
C273 N269 1.279 . S
C273 C271 1.358 . S
C273 H331 0.930 . S
C274 C277 1.348 . S
C274 C278 1.356 . S
C274 O325 1.325 . S
C275 N276 1.279 . S
C275 C278 1.358 . S
C275 H332 0.930 . S
N276 C275 1.279 . S
N276 C279 1.314 . S
C277 C274 1.348 . S
C277 C279 1.353 . S
C277 H333 0.929 . S
C278 C274 1.356 . S
C278 C275 1.358 . S
C278 H334 0.930 . S
C279 N276 1.314 . S
C279 C277 1.353 . S
C279 H335 0.930 . S
C280 N281 1.314 . S
C280 C285 1.353 . S
C280 H286 0.930 . S
N281 Li264 1.990 . S
N281 C280 1.314 . S
N281 C283 1.279 . S
C282 C283 1.358 . S
C282 C284 1.356 . S
C282 H336 0.930 . S
C283 N281 1.279 . S
C283 C282 1.358 . S
C283 H287 0.930 . S
C284 C282 1.356 . S
C284 C285 1.348 . S
C285 C280 1.353 . S
C285 C284 1.348 . S
C285 H337 0.929 . S
H286 C280 0.930 . S
H287 C283 0.930 . S
C288 N289 1.314 . S
C288 C290 1.353 . S
C288 H294 0.930 . S
N289 Li265 1.990 . S
N289 C288 1.314 . S
N289 C292 1.279 . S
C290 C288 1.353 . S
C290 C293 1.348 . S
C290 H338 0.929 . S
C291 C292 1.358 . S
C291 C293 1.356 . S
C291 H339 0.930 . S
C292 N289 1.279 . S
C292 C291 1.358 . S
C292 H295 0.930 . S
C293 C290 1.348 . S
C293 C291 1.356 . S
H294 C288 0.930 . S
H295 C292 0.930 . S
C296 C298 1.348 . S
C296 C299 1.356 . S
C296 O326 1.325 . S
N297 C300 1.314 . S
N297 C301 1.279 . S
C298 C296 1.348 . S
C298 C300 1.353 . S
C298 H340 0.929 . S
C299 C296 1.356 . S
C299 C301 1.358 . S
C299 H341 0.930 . S
C300 N297 1.314 . S
C300 C298 1.353 . S
C300 H342 0.930 . S
C301 N297 1.279 . S
C301 C299 1.358 . S
C301 H343 0.930 . S
C302 C303 1.348 . S
C302 C304 1.356 . S
C302 O327 1.325 . S
C303 C302 1.348 . S
C303 C305 1.353 . S
C303 H344 0.929 . S
C304 C302 1.356 . S
C304 C306 1.358 . S
C304 H345 0.930 . S
C305 C303 1.353 . S
C305 N307 1.314 . S
C305 H346 0.930 . S
C306 C304 1.358 . S
C306 N307 1.279 . S
C306 H347 0.930 . S
N307 C305 1.314 . S
N307 C306 1.279 . S
C308 C310 1.353 . S
C308 N311 1.314 . S
C308 H314 0.930 . S
C309 N311 1.279 . S
C309 C312 1.358 . S
C309 H315 0.930 . S
C310 C308 1.353 . S
C310 C313 1.348 . S
C310 H348 0.929 . S
N311 Li266 1.990 . S
N311 C308 1.314 . S
N311 C309 1.279 . S
C312 C309 1.358 . S
C312 C313 1.356 . S
C312 H349 0.930 . S
C313 C310 1.348 . S
C313 C312 1.356 . S
H314 C308 0.930 . S
H315 C309 0.930 . S
C316 N317 1.314 . S
C316 C318 1.353 . S
C316 H322 0.930 . S
N317 Li267 1.990 . S
N317 C316 1.314 . S
N317 C320 1.279 . S
C318 C316 1.353 . S
C318 C321 1.348 . S
C318 H350 0.929 . S
C319 C320 1.358 . S
C319 C321 1.356 . S
C319 H351 0.930 . S
C320 N317 1.279 . S
C320 C319 1.358 . S
C320 H323 0.930 . S
C321 C318 1.348 . S
C321 C319 1.356 . S
H322 C316 0.930 . S
H323 C320 0.930 . S
O324 Li264 1.956 . S
O324 Li265 1.970 . S
O324 Li266 1.961 . S
O324 C268 1.325 . S
O325 Li264 1.970 . S
O325 Li265 1.956 . S
O325 Li267 1.961 . S
O325 C274 1.325 . S
O326 Li264 1.961 . S
O326 Li266 1.956 . S
O326 Li267 1.970 . S
O326 C296 1.325 . S
O327 Li265 1.961 . S
O327 Li266 1.970 . S
O327 Li267 1.956 . S
O327 C302 1.325 . S
H328 C270 0.929 . S
H329 C271 0.930 . S
H330 C272 0.930 . S
H331 C273 0.930 . S
H332 C275 0.930 . S
H333 C277 0.929 . S
H334 C278 0.930 . S
H335 C279 0.930 . S
H336 C282 0.930 . S
H337 C285 0.929 . S
H338 C290 0.929 . S
H339 C291 0.930 . S
H340 C298 0.929 . S
H341 C299 0.930 . S
H342 C300 0.930 . S
H343 C301 0.930 . S
H344 C303 0.929 . S
H345 C304 0.930 . S
H346 C305 0.930 . S
H347 C306 0.930 . S
H348 C310 0.929 . S
H349 C312 0.930 . S
H350 C318 0.929 . S
H351 C319 0.930 . S
Li352 N369 1.990 . S
Li352 O412 1.956 . S
Li352 O413 1.970 . S
Li352 O414 1.961 . S
Li353 N377 1.990 . S
Li353 O412 1.970 . S
Li353 O413 1.956 . S
Li353 O415 1.961 . S
Li354 N399 1.990 . S
Li354 O412 1.961 . S
Li354 O414 1.956 . S
Li354 O415 1.970 . S
Li355 N405 1.990 . S
Li355 O413 1.961 . S
Li355 O414 1.970 . S
Li355 O415 1.956 . S
C356 C358 1.348 . S
C356 C359 1.356 . S
C356 O412 1.325 . S
N357 C360 1.314 . S
N357 C361 1.279 . S
C358 C356 1.348 . S
C358 C360 1.353 . S
C358 H416 0.929 . S
C359 C356 1.356 . S
C359 C361 1.358 . S
C359 H417 0.930 . S
C360 N357 1.314 . S
C360 C358 1.353 . S
C360 H418 0.930 . S
C361 N357 1.279 . S
C361 C359 1.358 . S
C361 H419 0.930 . S
C362 C365 1.348 . S
C362 C366 1.356 . S
C362 O413 1.325 . S
C363 N364 1.279 . S
C363 C366 1.358 . S
C363 H420 0.930 . S
N364 C363 1.279 . S
N364 C367 1.314 . S
C365 C362 1.348 . S
C365 C367 1.353 . S
C365 H421 0.929 . S
C366 C362 1.356 . S
C366 C363 1.358 . S
C366 H422 0.930 . S
C367 N364 1.314 . S
C367 C365 1.353 . S
C367 H423 0.930 . S
C368 N369 1.314 . S
C368 C373 1.353 . S
C368 H374 0.930 . S
N369 Li352 1.990 . S
N369 C368 1.314 . S
N369 C371 1.279 . S
C370 C371 1.358 . S
C370 C372 1.356 . S
C370 H424 0.930 . S
C371 N369 1.279 . S
C371 C370 1.358 . S
C371 H375 0.930 . S
C372 C370 1.356 . S
C372 C373 1.348 . S
C373 C368 1.353 . S
C373 C372 1.348 . S
C373 H425 0.929 . S
H374 C368 0.930 . S
H375 C371 0.930 . S
C376 N377 1.314 . S
C376 C378 1.353 . S
C376 H382 0.930 . S
N377 Li353 1.990 . S
N377 C376 1.314 . S
N377 C380 1.279 . S
C378 C376 1.353 . S
C378 C381 1.348 . S
C378 H426 0.929 . S
C379 C380 1.358 . S
C379 C381 1.356 . S
C379 H427 0.930 . S
C380 N377 1.279 . S
C380 C379 1.358 . S
C380 H383 0.930 . S
C381 C378 1.348 . S
C381 C379 1.356 . S
H382 C376 0.930 . S
H383 C380 0.930 . S
C384 C386 1.348 . S
C384 C387 1.356 . S
C384 O414 1.325 . S
N385 C388 1.314 . S
N385 C389 1.279 . S
C386 C384 1.348 . S
C386 C388 1.353 . S
C386 H428 0.929 . S
C387 C384 1.356 . S
C387 C389 1.358 . S
C387 H429 0.930 . S
C388 N385 1.314 . S
C388 C386 1.353 . S
C388 H430 0.930 . S
C389 N385 1.279 . S
C389 C387 1.358 . S
C389 H431 0.930 . S
C390 C391 1.348 . S
C390 C392 1.356 . S
C390 O415 1.325 . S
C391 C390 1.348 . S
C391 C393 1.353 . S
C391 H432 0.929 . S
C392 C390 1.356 . S
C392 C394 1.358 . S
C392 H433 0.930 . S
C393 C391 1.353 . S
C393 N395 1.314 . S
C393 H434 0.930 . S
C394 C392 1.358 . S
C394 N395 1.279 . S
C394 H435 0.930 . S
N395 C393 1.314 . S
N395 C394 1.279 . S
C396 C398 1.353 . S
C396 N399 1.314 . S
C396 H402 0.930 . S
C397 N399 1.279 . S
C397 C400 1.358 . S
C397 H403 0.930 . S
C398 C396 1.353 . S
C398 C401 1.348 . S
C398 H436 0.929 . S
N399 Li354 1.990 . S
N399 C396 1.314 . S
N399 C397 1.279 . S
C400 C397 1.358 . S
C400 C401 1.356 . S
C400 H437 0.930 . S
C401 C398 1.348 . S
C401 C400 1.356 . S
H402 C396 0.930 . S
H403 C397 0.930 . S
C404 N405 1.314 . S
C404 C406 1.353 . S
C404 H410 0.930 . S
N405 Li355 1.990 . S
N405 C404 1.314 . S
N405 C408 1.279 . S
C406 C404 1.353 . S
C406 C409 1.348 . S
C406 H438 0.929 . S
C407 C408 1.358 . S
C407 C409 1.356 . S
C407 H439 0.930 . S
C408 N405 1.279 . S
C408 C407 1.358 . S
C408 H411 0.930 . S
C409 C406 1.348 . S
C409 C407 1.356 . S
H410 C404 0.930 . S
H411 C408 0.930 . S
O412 Li352 1.956 . S
O412 Li353 1.970 . S
O412 Li354 1.961 . S
O412 C356 1.325 . S
O413 Li352 1.970 . S
O413 Li353 1.956 . S
O413 Li355 1.961 . S
O413 C362 1.325 . S
O414 Li352 1.961 . S
O414 Li354 1.956 . S
O414 Li355 1.970 . S
O414 C384 1.325 . S
O415 Li353 1.961 . S
O415 Li354 1.970 . S
O415 Li355 1.956 . S
O415 C390 1.325 . S
H416 C358 0.929 . S
H417 C359 0.930 . S
H418 C360 0.930 . S
H419 C361 0.930 . S
H420 C363 0.930 . S
H421 C365 0.929 . S
H422 C366 0.930 . S
H423 C367 0.930 . S
H424 C370 0.930 . S
H425 C373 0.929 . S
H426 C378 0.929 . S
H427 C379 0.930 . S
H428 C386 0.929 . S
H429 C387 0.930 . S
H430 C388 0.930 . S
H431 C389 0.930 . S
H432 C391 0.929 . S
H433 C392 0.930 . S
H434 C393 0.930 . S
H435 C394 0.930 . S
H436 C398 0.929 . S
H437 C400 0.930 . S
H438 C406 0.929 . S
H439 C407 0.930 . S
Li440 N457 1.990 . S
Li440 O500 1.956 . S
Li440 O501 1.970 . S
Li440 O502 1.961 . S
Li441 N465 1.990 . S
Li441 O500 1.970 . S
Li441 O501 1.956 . S
Li441 O503 1.961 . S
Li442 N487 1.990 . S
Li442 O500 1.961 . S
Li442 O502 1.956 . S
Li442 O503 1.970 . S
Li443 N493 1.990 . S
Li443 O501 1.961 . S
Li443 O502 1.970 . S
Li443 O503 1.956 . S
C444 C446 1.348 . S
C444 C447 1.356 . S
C444 O500 1.325 . S
N445 C448 1.314 . S
N445 C449 1.279 . S
C446 C444 1.348 . S
C446 C448 1.353 . S
C446 H504 0.929 . S
C447 C444 1.356 . S
C447 C449 1.358 . S
C447 H505 0.930 . S
C448 N445 1.314 . S
C448 C446 1.353 . S
C448 H506 0.930 . S
C449 N445 1.279 . S
C449 C447 1.358 . S
C449 H507 0.930 . S
C450 C453 1.348 . S
C450 C454 1.356 . S
C450 O501 1.325 . S
C451 N452 1.279 . S
C451 C454 1.358 . S
C451 H508 0.930 . S
N452 C451 1.279 . S
N452 C455 1.314 . S
C453 C450 1.348 . S
C453 C455 1.353 . S
C453 H509 0.929 . S
C454 C450 1.356 . S
C454 C451 1.358 . S
C454 H510 0.930 . S
C455 N452 1.314 . S
C455 C453 1.353 . S
C455 H511 0.930 . S
C456 N457 1.314 . S
C456 C461 1.353 . S
C456 H462 0.930 . S
N457 Li440 1.990 . S
N457 C456 1.314 . S
N457 C459 1.279 . S
C458 C459 1.358 . S
C458 C460 1.356 . S
C458 H512 0.930 . S
C459 N457 1.279 . S
C459 C458 1.358 . S
C459 H463 0.930 . S
C460 C458 1.356 . S
C460 C461 1.348 . S
C461 C456 1.353 . S
C461 C460 1.348 . S
C461 H513 0.929 . S
H462 C456 0.930 . S
H463 C459 0.930 . S
C464 N465 1.314 . S
C464 C466 1.353 . S
C464 H470 0.930 . S
N465 Li441 1.990 . S
N465 C464 1.314 . S
N465 C468 1.279 . S
C466 C464 1.353 . S
C466 C469 1.348 . S
C466 H514 0.929 . S
C467 C468 1.358 . S
C467 C469 1.356 . S
C467 H515 0.930 . S
C468 N465 1.279 . S
C468 C467 1.358 . S
C468 H471 0.930 . S
C469 C466 1.348 . S
C469 C467 1.356 . S
H470 C464 0.930 . S
H471 C468 0.930 . S
C472 C474 1.348 . S
C472 C475 1.356 . S
C472 O502 1.325 . S
N473 C476 1.314 . S
N473 C477 1.279 . S
C474 C472 1.348 . S
C474 C476 1.353 . S
C474 H516 0.929 . S
C475 C472 1.356 . S
C475 C477 1.358 . S
C475 H517 0.930 . S
C476 N473 1.314 . S
C476 C474 1.353 . S
C476 H518 0.930 . S
C477 N473 1.279 . S
C477 C475 1.358 . S
C477 H519 0.930 . S
C478 C479 1.348 . S
C478 C480 1.356 . S
C478 O503 1.325 . S
C479 C478 1.348 . S
C479 C481 1.353 . S
C479 H520 0.929 . S
C480 C478 1.356 . S
C480 C482 1.358 . S
C480 H521 0.930 . S
C481 C479 1.353 . S
C481 N483 1.314 . S
C481 H522 0.930 . S
C482 C480 1.358 . S
C482 N483 1.279 . S
C482 H523 0.930 . S
N483 C481 1.314 . S
N483 C482 1.279 . S
C484 C486 1.353 . S
C484 N487 1.314 . S
C484 H490 0.930 . S
C485 N487 1.279 . S
C485 C488 1.358 . S
C485 H491 0.930 . S
C486 C484 1.353 . S
C486 C489 1.348 . S
C486 H524 0.929 . S
N487 Li442 1.990 . S
N487 C484 1.314 . S
N487 C485 1.279 . S
C488 C485 1.358 . S
C488 C489 1.356 . S
C488 H525 0.930 . S
C489 C486 1.348 . S
C489 C488 1.356 . S
H490 C484 0.930 . S
H491 C485 0.930 . S
C492 N493 1.314 . S
C492 C494 1.353 . S
C492 H498 0.930 . S
N493 Li443 1.990 . S
N493 C492 1.314 . S
N493 C496 1.279 . S
C494 C492 1.353 . S
C494 C497 1.348 . S
C494 H526 0.929 . S
C495 C496 1.358 . S
C495 C497 1.356 . S
C495 H527 0.930 . S
C496 N493 1.279 . S
C496 C495 1.358 . S
C496 H499 0.930 . S
C497 C494 1.348 . S
C497 C495 1.356 . S
H498 C492 0.930 . S
H499 C496 0.930 . S
O500 Li440 1.956 . S
O500 Li441 1.970 . S
O500 Li442 1.961 . S
O500 C444 1.325 . S
O501 Li440 1.970 . S
O501 Li441 1.956 . S
O501 Li443 1.961 . S
O501 C450 1.325 . S
O502 Li440 1.961 . S
O502 Li442 1.956 . S
O502 Li443 1.970 . S
O502 C472 1.325 . S
O503 Li441 1.961 . S
O503 Li442 1.970 . S
O503 Li443 1.956 . S
O503 C478 1.325 . S
H504 C446 0.929 . S
H505 C447 0.930 . S
H506 C448 0.930 . S
H507 C449 0.930 . S
H508 C451 0.930 . S
H509 C453 0.929 . S
H510 C454 0.930 . S
H511 C455 0.930 . S
H512 C458 0.930 . S
H513 C461 0.929 . S
H514 C466 0.929 . S
H515 C467 0.930 . S
H516 C474 0.929 . S
H517 C475 0.930 . S
H518 C476 0.930 . S
H519 C477 0.930 . S
H520 C479 0.929 . S
H521 C480 0.930 . S
H522 C481 0.930 . S
H523 C482 0.930 . S
H524 C486 0.929 . S
H525 C488 0.930 . S
H526 C494 0.929 . S
H527 C495 0.930 . S
Li528 N545 1.990 . S
Li528 O588 1.956 . S
Li528 O589 1.970 . S
Li528 O590 1.961 . S
Li529 N553 1.990 . S
Li529 O588 1.970 . S
Li529 O589 1.956 . S
Li529 O591 1.961 . S
Li530 N575 1.990 . S
Li530 O588 1.961 . S
Li530 O590 1.956 . S
Li530 O591 1.970 . S
Li531 N581 1.990 . S
Li531 O589 1.961 . S
Li531 O590 1.970 . S
Li531 O591 1.956 . S
C532 C534 1.348 . S
C532 C535 1.356 . S
C532 O588 1.325 . S
N533 C536 1.314 . S
N533 C537 1.279 . S
C534 C532 1.348 . S
C534 C536 1.353 . S
C534 H592 0.929 . S
C535 C532 1.356 . S
C535 C537 1.358 . S
C535 H593 0.930 . S
C536 N533 1.314 . S
C536 C534 1.353 . S
C536 H594 0.930 . S
C537 N533 1.279 . S
C537 C535 1.358 . S
C537 H595 0.930 . S
C538 C541 1.348 . S
C538 C542 1.356 . S
C538 O589 1.325 . S
C539 N540 1.279 . S
C539 C542 1.358 . S
C539 H596 0.930 . S
N540 C539 1.279 . S
N540 C543 1.314 . S
C541 C538 1.348 . S
C541 C543 1.353 . S
C541 H597 0.929 . S
C542 C538 1.356 . S
C542 C539 1.358 . S
C542 H598 0.930 . S
C543 N540 1.314 . S
C543 C541 1.353 . S
C543 H599 0.930 . S
C544 N545 1.314 . S
C544 C549 1.353 . S
C544 H550 0.930 . S
N545 Li528 1.990 . S
N545 C544 1.314 . S
N545 C547 1.279 . S
C546 C547 1.358 . S
C546 C548 1.356 . S
C546 H600 0.930 . S
C547 N545 1.279 . S
C547 C546 1.358 . S
C547 H551 0.930 . S
C548 C546 1.356 . S
C548 C549 1.348 . S
C549 C544 1.353 . S
C549 C548 1.348 . S
C549 H601 0.929 . S
H550 C544 0.930 . S
H551 C547 0.930 . S
C552 N553 1.314 . S
C552 C554 1.353 . S
C552 H558 0.930 . S
N553 Li529 1.990 . S
N553 C552 1.314 . S
N553 C556 1.279 . S
C554 C552 1.353 . S
C554 C557 1.348 . S
C554 H602 0.929 . S
C555 C556 1.358 . S
C555 C557 1.356 . S
C555 H603 0.930 . S
C556 N553 1.279 . S
C556 C555 1.358 . S
C556 H559 0.930 . S
C557 C554 1.348 . S
C557 C555 1.356 . S
H558 C552 0.930 . S
H559 C556 0.930 . S
C560 C562 1.348 . S
C560 C563 1.356 . S
C560 O590 1.325 . S
N561 C564 1.314 . S
N561 C565 1.279 . S
C562 C560 1.348 . S
C562 C564 1.353 . S
C562 H604 0.929 . S
C563 C560 1.356 . S
C563 C565 1.358 . S
C563 H605 0.930 . S
C564 N561 1.314 . S
C564 C562 1.353 . S
C564 H606 0.930 . S
C565 N561 1.279 . S
C565 C563 1.358 . S
C565 H607 0.930 . S
C566 C567 1.348 . S
C566 C568 1.356 . S
C566 O591 1.325 . S
C567 C566 1.348 . S
C567 C569 1.353 . S
C567 H608 0.929 . S
C568 C566 1.356 . S
C568 C570 1.358 . S
C568 H609 0.930 . S
C569 C567 1.353 . S
C569 N571 1.314 . S
C569 H610 0.930 . S
C570 C568 1.358 . S
C570 N571 1.279 . S
C570 H611 0.930 . S
N571 C569 1.314 . S
N571 C570 1.279 . S
C572 C574 1.353 . S
C572 N575 1.314 . S
C572 H578 0.930 . S
C573 N575 1.279 . S
C573 C576 1.358 . S
C573 H579 0.930 . S
C574 C572 1.353 . S
C574 C577 1.348 . S
C574 H612 0.929 . S
N575 Li530 1.990 . S
N575 C572 1.314 . S
N575 C573 1.279 . S
C576 C573 1.358 . S
C576 C577 1.356 . S
C576 H613 0.930 . S
C577 C574 1.348 . S
C577 C576 1.356 . S
H578 C572 0.930 . S
H579 C573 0.930 . S
C580 N581 1.314 . S
C580 C582 1.353 . S
C580 H586 0.930 . S
N581 Li531 1.990 . S
N581 C580 1.314 . S
N581 C584 1.279 . S
C582 C580 1.353 . S
C582 C585 1.348 . S
C582 H614 0.929 . S
C583 C584 1.358 . S
C583 C585 1.356 . S
C583 H615 0.930 . S
C584 N581 1.279 . S
C584 C583 1.358 . S
C584 H587 0.930 . S
C585 C582 1.348 . S
C585 C583 1.356 . S
H586 C580 0.930 . S
H587 C584 0.930 . S
O588 Li528 1.956 . S
O588 Li529 1.970 . S
O588 Li530 1.961 . S
O588 C532 1.325 . S
O589 Li528 1.970 . S
O589 Li529 1.956 . S
O589 Li531 1.961 . S
O589 C538 1.325 . S
O590 Li528 1.961 . S
O590 Li530 1.956 . S
O590 Li531 1.970 . S
O590 C560 1.325 . S
O591 Li529 1.961 . S
O591 Li530 1.970 . S
O591 Li531 1.956 . S
O591 C566 1.325 . S
H592 C534 0.929 . S
H593 C535 0.930 . S
H594 C536 0.930 . S
H595 C537 0.930 . S
H596 C539 0.930 . S
H597 C541 0.929 . S
H598 C542 0.930 . S
H599 C543 0.930 . S
H600 C546 0.930 . S
H601 C549 0.929 . S
H602 C554 0.929 . S
H603 C555 0.930 . S
H604 C562 0.929 . S
H605 C563 0.930 . S
H606 C564 0.930 . S
H607 C565 0.930 . S
H608 C567 0.929 . S
H609 C568 0.930 . S
H610 C569 0.930 . S
H611 C570 0.930 . S
H612 C574 0.929 . S
H613 C576 0.930 . S
H614 C582 0.929 . S
H615 C583 0.930 . S
Li616 N633 1.990 . S
Li616 O676 1.956 . S
Li616 O677 1.970 . S
Li616 O678 1.961 . S
Li617 N641 1.990 . S
Li617 O676 1.970 . S
Li617 O677 1.956 . S
Li617 O679 1.961 . S
Li618 N663 1.990 . S
Li618 O676 1.961 . S
Li618 O678 1.956 . S
Li618 O679 1.970 . S
Li619 N669 1.990 . S
Li619 O677 1.961 . S
Li619 O678 1.970 . S
Li619 O679 1.956 . S
C620 C622 1.348 . S
C620 C623 1.356 . S
C620 O676 1.325 . S
N621 C624 1.314 . S
N621 C625 1.279 . S
C622 C620 1.348 . S
C622 C624 1.353 . S
C622 H680 0.929 . S
C623 C620 1.356 . S
C623 C625 1.358 . S
C623 H681 0.930 . S
C624 N621 1.314 . S
C624 C622 1.353 . S
C624 H682 0.930 . S
C625 N621 1.279 . S
C625 C623 1.358 . S
C625 H683 0.930 . S
C626 C629 1.348 . S
C626 C630 1.356 . S
C626 O677 1.325 . S
C627 N628 1.279 . S
C627 C630 1.358 . S
C627 H684 0.930 . S
N628 C627 1.279 . S
N628 C631 1.314 . S
C629 C626 1.348 . S
C629 C631 1.353 . S
C629 H685 0.929 . S
C630 C626 1.356 . S
C630 C627 1.358 . S
C630 H686 0.930 . S
C631 N628 1.314 . S
C631 C629 1.353 . S
C631 H687 0.930 . S
C632 N633 1.314 . S
C632 C637 1.353 . S
C632 H638 0.930 . S
N633 Li616 1.990 . S
N633 C632 1.314 . S
N633 C635 1.279 . S
C634 C635 1.358 . S
C634 C636 1.356 . S
C634 H688 0.930 . S
C635 N633 1.279 . S
C635 C634 1.358 . S
C635 H639 0.930 . S
C636 C634 1.356 . S
C636 C637 1.348 . S
C637 C632 1.353 . S
C637 C636 1.348 . S
C637 H689 0.929 . S
H638 C632 0.930 . S
H639 C635 0.930 . S
C640 N641 1.314 . S
C640 C642 1.353 . S
C640 H646 0.930 . S
N641 Li617 1.990 . S
N641 C640 1.314 . S
N641 C644 1.279 . S
C642 C640 1.353 . S
C642 C645 1.348 . S
C642 H690 0.929 . S
C643 C644 1.358 . S
C643 C645 1.356 . S
C643 H691 0.930 . S
C644 N641 1.279 . S
C644 C643 1.358 . S
C644 H647 0.930 . S
C645 C642 1.348 . S
C645 C643 1.356 . S
H646 C640 0.930 . S
H647 C644 0.930 . S
C648 C650 1.348 . S
C648 C651 1.356 . S
C648 O678 1.325 . S
N649 C652 1.314 . S
N649 C653 1.279 . S
C650 C648 1.348 . S
C650 C652 1.353 . S
C650 H692 0.929 . S
C651 C648 1.356 . S
C651 C653 1.358 . S
C651 H693 0.930 . S
C652 N649 1.314 . S
C652 C650 1.353 . S
C652 H694 0.930 . S
C653 N649 1.279 . S
C653 C651 1.358 . S
C653 H695 0.930 . S
C654 C655 1.348 . S
C654 C656 1.356 . S
C654 O679 1.325 . S
C655 C654 1.348 . S
C655 C657 1.353 . S
C655 H696 0.929 . S
C656 C654 1.356 . S
C656 C658 1.358 . S
C656 H697 0.930 . S
C657 C655 1.353 . S
C657 N659 1.314 . S
C657 H698 0.930 . S
C658 C656 1.358 . S
C658 N659 1.279 . S
C658 H699 0.930 . S
N659 C657 1.314 . S
N659 C658 1.279 . S
C660 C662 1.353 . S
C660 N663 1.314 . S
C660 H666 0.930 . S
C661 N663 1.279 . S
C661 C664 1.358 . S
C661 H667 0.930 . S
C662 C660 1.353 . S
C662 C665 1.348 . S
C662 H700 0.929 . S
N663 Li618 1.990 . S
N663 C660 1.314 . S
N663 C661 1.279 . S
C664 C661 1.358 . S
C664 C665 1.356 . S
C664 H701 0.930 . S
C665 C662 1.348 . S
C665 C664 1.356 . S
H666 C660 0.930 . S
H667 C661 0.930 . S
C668 N669 1.314 . S
C668 C670 1.353 . S
C668 H674 0.930 . S
N669 Li619 1.990 . S
N669 C668 1.314 . S
N669 C672 1.279 . S
C670 C668 1.353 . S
C670 C673 1.348 . S
C670 H702 0.929 . S
C671 C672 1.358 . S
C671 C673 1.356 . S
C671 H703 0.930 . S
C672 N669 1.279 . S
C672 C671 1.358 . S
C672 H675 0.930 . S
C673 C670 1.348 . S
C673 C671 1.356 . S
H674 C668 0.930 . S
H675 C672 0.930 . S
O676 Li616 1.956 . S
O676 Li617 1.970 . S
O676 Li618 1.961 . S
O676 C620 1.325 . S
O677 Li616 1.970 . S
O677 Li617 1.956 . S
O677 Li619 1.961 . S
O677 C626 1.325 . S
O678 Li616 1.961 . S
O678 Li618 1.956 . S
O678 Li619 1.970 . S
O678 C648 1.325 . S
O679 Li617 1.961 . S
O679 Li618 1.970 . S
O679 Li619 1.956 . S
O679 C654 1.325 . S
H680 C622 0.929 . S
H681 C623 0.930 . S
H682 C624 0.930 . S
H683 C625 0.930 . S
H684 C627 0.930 . S
H685 C629 0.929 . S
H686 C630 0.930 . S
H687 C631 0.930 . S
H688 C634 0.930 . S
H689 C637 0.929 . S
H690 C642 0.929 . S
H691 C643 0.930 . S
H692 C650 0.929 . S
H693 C651 0.930 . S
H694 C652 0.930 . S
H695 C653 0.930 . S
H696 C655 0.929 . S
H697 C656 0.930 . S
H698 C657 0.930 . S
H699 C658 0.930 . S
H700 C662 0.929 . S
H701 C664 0.930 . S
H702 C670 0.929 . S
H703 C671 0.930 . S
Li704 N721 1.990 . S
Li704 O764 1.956 . S
Li704 O765 1.970 . S
Li704 O766 1.961 . S
Li705 N729 1.990 . S
Li705 O764 1.970 . S
Li705 O765 1.956 . S
Li705 O767 1.961 . S
Li706 N751 1.990 . S
Li706 O764 1.961 . S
Li706 O766 1.956 . S
Li706 O767 1.970 . S
Li707 N757 1.990 . S
Li707 O765 1.961 . S
Li707 O766 1.970 . S
Li707 O767 1.956 . S
C708 C710 1.348 . S
C708 C711 1.356 . S
C708 O764 1.325 . S
N709 C712 1.314 . S
N709 C713 1.279 . S
C710 C708 1.348 . S
C710 C712 1.353 . S
C710 H768 0.929 . S
C711 C708 1.356 . S
C711 C713 1.358 . S
C711 H769 0.930 . S
C712 N709 1.314 . S
C712 C710 1.353 . S
C712 H770 0.930 . S
C713 N709 1.279 . S
C713 C711 1.358 . S
C713 H771 0.930 . S
C714 C717 1.348 . S
C714 C718 1.356 . S
C714 O765 1.325 . S
C715 N716 1.279 . S
C715 C718 1.358 . S
C715 H772 0.930 . S
N716 C715 1.279 . S
N716 C719 1.314 . S
C717 C714 1.348 . S
C717 C719 1.353 . S
C717 H773 0.929 . S
C718 C714 1.356 . S
C718 C715 1.358 . S
C718 H774 0.930 . S
C719 N716 1.314 . S
C719 C717 1.353 . S
C719 H775 0.930 . S
C720 N721 1.314 . S
C720 C725 1.353 . S
C720 H726 0.930 . S
N721 Li704 1.990 . S
N721 C720 1.314 . S
N721 C723 1.279 . S
C722 C723 1.358 . S
C722 C724 1.356 . S
C722 H776 0.930 . S
C723 N721 1.279 . S
C723 C722 1.358 . S
C723 H727 0.930 . S
C724 C722 1.356 . S
C724 C725 1.348 . S
C725 C720 1.353 . S
C725 C724 1.348 . S
C725 H777 0.929 . S
H726 C720 0.930 . S
H727 C723 0.930 . S
C728 N729 1.314 . S
C728 C730 1.353 . S
C728 H734 0.930 . S
N729 Li705 1.990 . S
N729 C728 1.314 . S
N729 C732 1.279 . S
C730 C728 1.353 . S
C730 C733 1.348 . S
C730 H778 0.929 . S
C731 C732 1.358 . S
C731 C733 1.356 . S
C731 H779 0.930 . S
C732 N729 1.279 . S
C732 C731 1.358 . S
C732 H735 0.930 . S
C733 C730 1.348 . S
C733 C731 1.356 . S
H734 C728 0.930 . S
H735 C732 0.930 . S
C736 C738 1.348 . S
C736 C739 1.356 . S
C736 O766 1.325 . S
N737 C740 1.314 . S
N737 C741 1.279 . S
C738 C736 1.348 . S
C738 C740 1.353 . S
C738 H780 0.929 . S
C739 C736 1.356 . S
C739 C741 1.358 . S
C739 H781 0.930 . S
C740 N737 1.314 . S
C740 C738 1.353 . S
C740 H782 0.930 . S
C741 N737 1.279 . S
C741 C739 1.358 . S
C741 H783 0.930 . S
C742 C743 1.348 . S
C742 C744 1.356 . S
C742 O767 1.325 . S
C743 C742 1.348 . S
C743 C745 1.353 . S
C743 H784 0.929 . S
C744 C742 1.356 . S
C744 C746 1.358 . S
C744 H785 0.930 . S
C745 C743 1.353 . S
C745 N747 1.314 . S
C745 H786 0.930 . S
C746 C744 1.358 . S
C746 N747 1.279 . S
C746 H787 0.930 . S
N747 C745 1.314 . S
N747 C746 1.279 . S
C748 C750 1.353 . S
C748 N751 1.314 . S
C748 H754 0.930 . S
C749 N751 1.279 . S
C749 C752 1.358 . S
C749 H755 0.930 . S
C750 C748 1.353 . S
C750 C753 1.348 . S
C750 H788 0.929 . S
N751 Li706 1.990 . S
N751 C748 1.314 . S
N751 C749 1.279 . S
C752 C749 1.358 . S
C752 C753 1.356 . S
C752 H789 0.930 . S
C753 C750 1.348 . S
C753 C752 1.356 . S
H754 C748 0.930 . S
H755 C749 0.930 . S
C756 N757 1.314 . S
C756 C758 1.353 . S
C756 H762 0.930 . S
N757 Li707 1.990 . S
N757 C756 1.314 . S
N757 C760 1.279 . S
C758 C756 1.353 . S
C758 C761 1.348 . S
C758 H790 0.929 . S
C759 C760 1.358 . S
C759 C761 1.356 . S
C759 H791 0.930 . S
C760 N757 1.279 . S
C760 C759 1.358 . S
C760 H763 0.930 . S
C761 C758 1.348 . S
C761 C759 1.356 . S
H762 C756 0.930 . S
H763 C760 0.930 . S
O764 Li704 1.956 . S
O764 Li705 1.970 . S
O764 Li706 1.961 . S
O764 C708 1.325 . S
O765 Li704 1.970 . S
O765 Li705 1.956 . S
O765 Li707 1.961 . S
O765 C714 1.325 . S
O766 Li704 1.961 . S
O766 Li706 1.956 . S
O766 Li707 1.970 . S
O766 C736 1.325 . S
O767 Li705 1.961 . S
O767 Li706 1.970 . S
O767 Li707 1.956 . S
O767 C742 1.325 . S
H768 C710 0.929 . S
H769 C711 0.930 . S
H770 C712 0.930 . S
H771 C713 0.930 . S
H772 C715 0.930 . S
H773 C717 0.929 . S
H774 C718 0.930 . S
H775 C719 0.930 . S
H776 C722 0.930 . S
H777 C725 0.929 . S
H778 C730 0.929 . S
H779 C731 0.930 . S
H780 C738 0.929 . S
H781 C739 0.930 . S
H782 C740 0.930 . S
H783 C741 0.930 . S
H784 C743 0.929 . S
H785 C744 0.930 . S
H786 C745 0.930 . S
H787 C746 0.930 . S
H788 C750 0.929 . S
H789 C752 0.930 . S
H790 C758 0.929 . S
H791 C759 0.930 . S
Li792 N809 1.990 . S
Li792 O852 1.956 . S
Li792 O853 1.970 . S
Li792 O854 1.961 . S
Li793 N817 1.990 . S
Li793 O852 1.970 . S
Li793 O853 1.956 . S
Li793 O855 1.961 . S
Li794 N839 1.990 . S
Li794 O852 1.961 . S
Li794 O854 1.956 . S
Li794 O855 1.970 . S
Li795 N845 1.990 . S
Li795 O853 1.961 . S
Li795 O854 1.970 . S
Li795 O855 1.956 . S
C796 C798 1.348 . S
C796 C799 1.356 . S
C796 O852 1.325 . S
N797 C800 1.314 . S
N797 C801 1.279 . S
C798 C796 1.348 . S
C798 C800 1.353 . S
C798 H856 0.929 . S
C799 C796 1.356 . S
C799 C801 1.358 . S
C799 H857 0.930 . S
C800 N797 1.314 . S
C800 C798 1.353 . S
C800 H858 0.930 . S
C801 N797 1.279 . S
C801 C799 1.358 . S
C801 H859 0.930 . S
C802 C805 1.348 . S
C802 C806 1.356 . S
C802 O853 1.325 . S
C803 N804 1.279 . S
C803 C806 1.358 . S
C803 H860 0.930 . S
N804 C803 1.279 . S
N804 C807 1.314 . S
C805 C802 1.348 . S
C805 C807 1.353 . S
C805 H861 0.929 . S
C806 C802 1.356 . S
C806 C803 1.358 . S
C806 H862 0.930 . S
C807 N804 1.314 . S
C807 C805 1.353 . S
C807 H863 0.930 . S
C808 N809 1.314 . S
C808 C813 1.353 . S
C808 H814 0.930 . S
N809 Li792 1.990 . S
N809 C808 1.314 . S
N809 C811 1.279 . S
C810 C811 1.358 . S
C810 C812 1.356 . S
C810 H864 0.930 . S
C811 N809 1.279 . S
C811 C810 1.358 . S
C811 H815 0.930 . S
C812 C810 1.356 . S
C812 C813 1.348 . S
C813 C808 1.353 . S
C813 C812 1.348 . S
C813 H865 0.929 . S
H814 C808 0.930 . S
H815 C811 0.930 . S
C816 N817 1.314 . S
C816 C818 1.353 . S
C816 H822 0.930 . S
N817 Li793 1.990 . S
N817 C816 1.314 . S
N817 C820 1.279 . S
C818 C816 1.353 . S
C818 C821 1.348 . S
C818 H866 0.929 . S
C819 C820 1.358 . S
C819 C821 1.356 . S
C819 H867 0.930 . S
C820 N817 1.279 . S
C820 C819 1.358 . S
C820 H823 0.930 . S
C821 C818 1.348 . S
C821 C819 1.356 . S
H822 C816 0.930 . S
H823 C820 0.930 . S
C824 C826 1.348 . S
C824 C827 1.356 . S
C824 O854 1.325 . S
N825 C828 1.314 . S
N825 C829 1.279 . S
C826 C824 1.348 . S
C826 C828 1.353 . S
C826 H868 0.929 . S
C827 C824 1.356 . S
C827 C829 1.358 . S
C827 H869 0.930 . S
C828 N825 1.314 . S
C828 C826 1.353 . S
C828 H870 0.930 . S
C829 N825 1.279 . S
C829 C827 1.358 . S
C829 H871 0.930 . S
C830 C831 1.348 . S
C830 C832 1.356 . S
C830 O855 1.325 . S
C831 C830 1.348 . S
C831 C833 1.353 . S
C831 H872 0.929 . S
C832 C830 1.356 . S
C832 C834 1.358 . S
C832 H873 0.930 . S
C833 C831 1.353 . S
C833 N835 1.314 . S
C833 H874 0.930 . S
C834 C832 1.358 . S
C834 N835 1.279 . S
C834 H875 0.930 . S
N835 C833 1.314 . S
N835 C834 1.279 . S
C836 C838 1.353 . S
C836 N839 1.314 . S
C836 H842 0.930 . S
C837 N839 1.279 . S
C837 C840 1.358 . S
C837 H843 0.930 . S
C838 C836 1.353 . S
C838 C841 1.348 . S
C838 H876 0.929 . S
N839 Li794 1.990 . S
N839 C836 1.314 . S
N839 C837 1.279 . S
C840 C837 1.358 . S
C840 C841 1.356 . S
C840 H877 0.930 . S
C841 C838 1.348 . S
C841 C840 1.356 . S
H842 C836 0.930 . S
H843 C837 0.930 . S
C844 N845 1.314 . S
C844 C846 1.353 . S
C844 H850 0.930 . S
N845 Li795 1.990 . S
N845 C844 1.314 . S
N845 C848 1.279 . S
C846 C844 1.353 . S
C846 C849 1.348 . S
C846 H878 0.929 . S
C847 C848 1.358 . S
C847 C849 1.356 . S
C847 H879 0.930 . S
C848 N845 1.279 . S
C848 C847 1.358 . S
C848 H851 0.930 . S
C849 C846 1.348 . S
C849 C847 1.356 . S
H850 C844 0.930 . S
H851 C848 0.930 . S
O852 Li792 1.956 . S
O852 Li793 1.970 . S
O852 Li794 1.961 . S
O852 C796 1.325 . S
O853 Li792 1.970 . S
O853 Li793 1.956 . S
O853 Li795 1.961 . S
O853 C802 1.325 . S
O854 Li792 1.961 . S
O854 Li794 1.956 . S
O854 Li795 1.970 . S
O854 C824 1.325 . S
O855 Li793 1.961 . S
O855 Li794 1.970 . S
O855 Li795 1.956 . S
O855 C830 1.325 . S
H856 C798 0.929 . S
H857 C799 0.930 . S
H858 C800 0.930 . S
H859 C801 0.930 . S
H860 C803 0.930 . S
H861 C805 0.929 . S
H862 C806 0.930 . S
H863 C807 0.930 . S
H864 C810 0.930 . S
H865 C813 0.929 . S
H866 C818 0.929 . S
H867 C819 0.930 . S
H868 C826 0.929 . S
H869 C827 0.930 . S
H870 C828 0.930 . S
H871 C829 0.930 . S
H872 C831 0.929 . S
H873 C832 0.930 . S
H874 C833 0.930 . S
H875 C834 0.930 . S
H876 C838 0.929 . S
H877 C840 0.930 . S
H878 C846 0.929 . S
H879 C847 0.930 . S
Li880 N897 1.990 . S
Li880 O940 1.956 . S
Li880 O941 1.970 . S
Li880 O942 1.961 . S
Li881 N905 1.990 . S
Li881 O940 1.970 . S
Li881 O941 1.956 . S
Li881 O943 1.961 . S
Li882 N927 1.990 . S
Li882 O940 1.961 . S
Li882 O942 1.956 . S
Li882 O943 1.970 . S
Li883 N933 1.990 . S
Li883 O941 1.961 . S
Li883 O942 1.970 . S
Li883 O943 1.956 . S
C884 C886 1.348 . S
C884 C887 1.356 . S
C884 O940 1.325 . S
N885 C888 1.314 . S
N885 C889 1.279 . S
C886 C884 1.348 . S
C886 C888 1.353 . S
C886 H944 0.929 . S
C887 C884 1.356 . S
C887 C889 1.358 . S
C887 H945 0.930 . S
C888 N885 1.314 . S
C888 C886 1.353 . S
C888 H946 0.930 . S
C889 N885 1.279 . S
C889 C887 1.358 . S
C889 H947 0.930 . S
C890 C893 1.348 . S
C890 C894 1.356 . S
C890 O941 1.325 . S
C891 N892 1.279 . S
C891 C894 1.358 . S
C891 H948 0.930 . S
N892 C891 1.279 . S
N892 C895 1.314 . S
C893 C890 1.348 . S
C893 C895 1.353 . S
C893 H949 0.929 . S
C894 C890 1.356 . S
C894 C891 1.358 . S
C894 H950 0.930 . S
C895 N892 1.314 . S
C895 C893 1.353 . S
C895 H951 0.930 . S
C896 N897 1.314 . S
C896 C901 1.353 . S
C896 H902 0.930 . S
N897 Li880 1.990 . S
N897 C896 1.314 . S
N897 C899 1.279 . S
C898 C899 1.358 . S
C898 C900 1.356 . S
C898 H952 0.930 . S
C899 N897 1.279 . S
C899 C898 1.358 . S
C899 H903 0.930 . S
C900 C898 1.356 . S
C900 C901 1.348 . S
C901 C896 1.353 . S
C901 C900 1.348 . S
C901 H953 0.929 . S
H902 C896 0.930 . S
H903 C899 0.930 . S
C904 N905 1.314 . S
C904 C906 1.353 . S
C904 H910 0.930 . S
N905 Li881 1.990 . S
N905 C904 1.314 . S
N905 C908 1.279 . S
C906 C904 1.353 . S
C906 C909 1.348 . S
C906 H954 0.929 . S
C907 C908 1.358 . S
C907 C909 1.356 . S
C907 H955 0.930 . S
C908 N905 1.279 . S
C908 C907 1.358 . S
C908 H911 0.930 . S
C909 C906 1.348 . S
C909 C907 1.356 . S
H910 C904 0.930 . S
H911 C908 0.930 . S
C912 C914 1.348 . S
C912 C915 1.356 . S
C912 O942 1.325 . S
N913 C916 1.314 . S
N913 C917 1.279 . S
C914 C912 1.348 . S
C914 C916 1.353 . S
C914 H956 0.929 . S
C915 C912 1.356 . S
C915 C917 1.358 . S
C915 H957 0.930 . S
C916 N913 1.314 . S
C916 C914 1.353 . S
C916 H958 0.930 . S
C917 N913 1.279 . S
C917 C915 1.358 . S
C917 H959 0.930 . S
C918 C919 1.348 . S
C918 C920 1.356 . S
C918 O943 1.325 . S
C919 C918 1.348 . S
C919 C921 1.353 . S
C919 H960 0.929 . S
C920 C918 1.356 . S
C920 C922 1.358 . S
C920 H961 0.930 . S
C921 C919 1.353 . S
C921 N923 1.314 . S
C921 H962 0.930 . S
C922 C920 1.358 . S
C922 N923 1.279 . S
C922 H963 0.930 . S
N923 C921 1.314 . S
N923 C922 1.279 . S
C924 C926 1.353 . S
C924 N927 1.314 . S
C924 H930 0.930 . S
C925 N927 1.279 . S
C925 C928 1.358 . S
C925 H931 0.930 . S
C926 C924 1.353 . S
C926 C929 1.348 . S
C926 H964 0.929 . S
N927 Li882 1.990 . S
N927 C924 1.314 . S
N927 C925 1.279 . S
C928 C925 1.358 . S
C928 C929 1.356 . S
C928 H965 0.930 . S
C929 C926 1.348 . S
C929 C928 1.356 . S
H930 C924 0.930 . S
H931 C925 0.930 . S
C932 N933 1.314 . S
C932 C934 1.353 . S
C932 H938 0.930 . S
N933 Li883 1.990 . S
N933 C932 1.314 . S
N933 C936 1.279 . S
C934 C932 1.353 . S
C934 C937 1.348 . S
C934 H966 0.929 . S
C935 C936 1.358 . S
C935 C937 1.356 . S
C935 H967 0.930 . S
C936 N933 1.279 . S
C936 C935 1.358 . S
C936 H939 0.930 . S
C937 C934 1.348 . S
C937 C935 1.356 . S
H938 C932 0.930 . S
H939 C936 0.930 . S
O940 Li880 1.956 . S
O940 Li881 1.970 . S
O940 Li882 1.961 . S
O940 C884 1.325 . S
O941 Li880 1.970 . S
O941 Li881 1.956 . S
O941 Li883 1.961 . S
O941 C890 1.325 . S
O942 Li880 1.961 . S
O942 Li882 1.956 . S
O942 Li883 1.970 . S
O942 C912 1.325 . S
O943 Li881 1.961 . S
O943 Li882 1.970 . S
O943 Li883 1.956 . S
O943 C918 1.325 . S
H944 C886 0.929 . S
H945 C887 0.930 . S
H946 C888 0.930 . S
H947 C889 0.930 . S
H948 C891 0.930 . S
H949 C893 0.929 . S
H950 C894 0.930 . S
H951 C895 0.930 . S
H952 C898 0.930 . S
H953 C901 0.929 . S
H954 C906 0.929 . S
H955 C907 0.930 . S
H956 C914 0.929 . S
H957 C915 0.930 . S
H958 C916 0.930 . S
H959 C917 0.930 . S
H960 C919 0.929 . S
H961 C920 0.930 . S
H962 C921 0.930 . S
H963 C922 0.930 . S
H964 C926 0.929 . S
H965 C928 0.930 . S
H966 C934 0.929 . S
H967 C935 0.930 . S
Li968 N985 1.990 . S
Li968 O1028 1.956 . S
Li968 O1029 1.970 . S
Li968 O1030 1.961 . S
Li969 N993 1.990 . S
Li969 O1028 1.970 . S
Li969 O1029 1.956 . S
Li969 O1031 1.961 . S
Li970 N1015 1.990 . S
Li970 O1028 1.961 . S
Li970 O1030 1.956 . S
Li970 O1031 1.970 . S
Li971 N1021 1.990 . S
Li971 O1029 1.961 . S
Li971 O1030 1.970 . S
Li971 O1031 1.956 . S
C972 C974 1.348 . S
C972 C975 1.356 . S
C972 O1028 1.325 . S
N973 C976 1.314 . S
N973 C977 1.279 . S
C974 C972 1.348 . S
C974 C976 1.353 . S
C974 H1032 0.929 . S
C975 C972 1.356 . S
C975 C977 1.358 . S
C975 H1033 0.930 . S
C976 N973 1.314 . S
C976 C974 1.353 . S
C976 H1034 0.930 . S
C977 N973 1.279 . S
C977 C975 1.358 . S
C977 H1035 0.930 . S
C978 C981 1.348 . S
C978 C982 1.356 . S
C978 O1029 1.325 . S
C979 N980 1.279 . S
C979 C982 1.358 . S
C979 H1036 0.930 . S
N980 C979 1.279 . S
N980 C983 1.314 . S
C981 C978 1.348 . S
C981 C983 1.353 . S
C981 H1037 0.929 . S
C982 C978 1.356 . S
C982 C979 1.358 . S
C982 H1038 0.930 . S
C983 N980 1.314 . S
C983 C981 1.353 . S
C983 H1039 0.930 . S
C984 N985 1.314 . S
C984 C989 1.353 . S
C984 H990 0.930 . S
N985 Li968 1.990 . S
N985 C984 1.314 . S
N985 C987 1.279 . S
C986 C987 1.358 . S
C986 C988 1.356 . S
C986 H1040 0.930 . S
C987 N985 1.279 . S
C987 C986 1.358 . S
C987 H991 0.930 . S
C988 C986 1.356 . S
C988 C989 1.348 . S
C989 C984 1.353 . S
C989 C988 1.348 . S
C989 H1041 0.929 . S
H990 C984 0.930 . S
H991 C987 0.930 . S
C992 N993 1.314 . S
C992 C994 1.353 . S
C992 H998 0.930 . S
N993 Li969 1.990 . S
N993 C992 1.314 . S
N993 C996 1.279 . S
C994 C992 1.353 . S
C994 C997 1.348 . S
C994 H1042 0.929 . S
C995 C996 1.358 . S
C995 C997 1.356 . S
C995 H1043 0.930 . S
C996 N993 1.279 . S
C996 C995 1.358 . S
C996 H999 0.930 . S
C997 C994 1.348 . S
C997 C995 1.356 . S
H998 C992 0.930 . S
H999 C996 0.930 . S
C1000 C1002 1.348 . S
C1000 C1003 1.356 . S
C1000 O1030 1.325 . S
N1001 C1004 1.314 . S
N1001 C1005 1.279 . S
C1002 C1000 1.348 . S
C1002 C1004 1.353 . S
C1002 H1044 0.929 . S
C1003 C1000 1.356 . S
C1003 C1005 1.358 . S
C1003 H1045 0.930 . S
C1004 N1001 1.314 . S
C1004 C1002 1.353 . S
C1004 H1046 0.930 . S
C1005 N1001 1.279 . S
C1005 C1003 1.358 . S
C1005 H1047 0.930 . S
C1006 C1007 1.348 . S
C1006 C1008 1.356 . S
C1006 O1031 1.325 . S
C1007 C1006 1.348 . S
C1007 C1009 1.353 . S
C1007 H1048 0.929 . S
C1008 C1006 1.356 . S
C1008 C1010 1.358 . S
C1008 H1049 0.930 . S
C1009 C1007 1.353 . S
C1009 N1011 1.314 . S
C1009 H1050 0.930 . S
C1010 C1008 1.358 . S
C1010 N1011 1.279 . S
C1010 H1051 0.930 . S
N1011 C1009 1.314 . S
N1011 C1010 1.279 . S
C1012 C1014 1.353 . S
C1012 N1015 1.314 . S
C1012 H1018 0.930 . S
C1013 N1015 1.279 . S
C1013 C1016 1.358 . S
C1013 H1019 0.930 . S
C1014 C1012 1.353 . S
C1014 C1017 1.348 . S
C1014 H1052 0.929 . S
N1015 Li970 1.990 . S
N1015 C1012 1.314 . S
N1015 C1013 1.279 . S
C1016 C1013 1.358 . S
C1016 C1017 1.356 . S
C1016 H1053 0.930 . S
C1017 C1014 1.348 . S
C1017 C1016 1.356 . S
H1018 C1012 0.930 . S
H1019 C1013 0.930 . S
C1020 N1021 1.314 . S
C1020 C1022 1.353 . S
C1020 H1026 0.930 . S
N1021 Li971 1.990 . S
N1021 C1020 1.314 . S
N1021 C1024 1.279 . S
C1022 C1020 1.353 . S
C1022 C1025 1.348 . S
C1022 H1054 0.929 . S
C1023 C1024 1.358 . S
C1023 C1025 1.356 . S
C1023 H1055 0.930 . S
C1024 N1021 1.279 . S
C1024 C1023 1.358 . S
C1024 H1027 0.930 . S
C1025 C1022 1.348 . S
C1025 C1023 1.356 . S
H1026 C1020 0.930 . S
H1027 C1024 0.930 . S
O1028 Li968 1.956 . S
O1028 Li969 1.970 . S
O1028 Li970 1.961 . S
O1028 C972 1.325 . S
O1029 Li968 1.970 . S
O1029 Li969 1.956 . S
O1029 Li971 1.961 . S
O1029 C978 1.325 . S
O1030 Li968 1.961 . S
O1030 Li970 1.956 . S
O1030 Li971 1.970 . S
O1030 C1000 1.325 . S
O1031 Li969 1.961 . S
O1031 Li970 1.970 . S
O1031 Li971 1.956 . S
O1031 C1006 1.325 . S
H1032 C974 0.929 . S
H1033 C975 0.930 . S
H1034 C976 0.930 . S
H1035 C977 0.930 . S
H1036 C979 0.930 . S
H1037 C981 0.929 . S
H1038 C982 0.930 . S
H1039 C983 0.930 . S
H1040 C986 0.930 . S
H1041 C989 0.929 . S
H1042 C994 0.929 . S
H1043 C995 0.930 . S
H1044 C1002 0.929 . S
H1045 C1003 0.930 . S
H1046 C1004 0.930 . S
H1047 C1005 0.930 . S
H1048 C1007 0.929 . S
H1049 C1008 0.930 . S
H1050 C1009 0.930 . S
H1051 C1010 0.930 . S
H1052 C1014 0.929 . S
H1053 C1016 0.930 . S
H1054 C1022 0.929 . S
H1055 C1023 0.930 . S
Li1056 N1073 1.990 . S
Li1056 O1116 1.956 . S
Li1056 O1117 1.970 . S
Li1056 O1118 1.961 . S
Li1057 N1081 1.990 . S
Li1057 O1116 1.970 . S
Li1057 O1117 1.956 . S
Li1057 O1119 1.961 . S
Li1058 N1103 1.990 . S
Li1058 O1116 1.961 . S
Li1058 O1118 1.956 . S
Li1058 O1119 1.970 . S
Li1059 N1109 1.990 . S
Li1059 O1117 1.961 . S
Li1059 O1118 1.970 . S
Li1059 O1119 1.956 . S
C1060 C1062 1.348 . S
C1060 C1063 1.356 . S
C1060 O1116 1.325 . S
N1061 C1064 1.314 . S
N1061 C1065 1.279 . S
C1062 C1060 1.348 . S
C1062 C1064 1.353 . S
C1062 H1120 0.929 . S
C1063 C1060 1.356 . S
C1063 C1065 1.358 . S
C1063 H1121 0.930 . S
C1064 N1061 1.314 . S
C1064 C1062 1.353 . S
C1064 H1122 0.930 . S
C1065 N1061 1.279 . S
C1065 C1063 1.358 . S
C1065 H1123 0.930 . S
C1066 C1069 1.348 . S
C1066 C1070 1.356 . S
C1066 O1117 1.325 . S
C1067 N1068 1.279 . S
C1067 C1070 1.358 . S
C1067 H1124 0.930 . S
N1068 C1067 1.279 . S
N1068 C1071 1.314 . S
C1069 C1066 1.348 . S
C1069 C1071 1.353 . S
C1069 H1125 0.929 . S
C1070 C1066 1.356 . S
C1070 C1067 1.358 . S
C1070 H1126 0.930 . S
C1071 N1068 1.314 . S
C1071 C1069 1.353 . S
C1071 H1127 0.930 . S
C1072 N1073 1.314 . S
C1072 C1077 1.353 . S
C1072 H1078 0.930 . S
N1073 Li1056 1.990 . S
N1073 C1072 1.314 . S
N1073 C1075 1.279 . S
C1074 C1075 1.358 . S
C1074 C1076 1.356 . S
C1074 H1128 0.930 . S
C1075 N1073 1.279 . S
C1075 C1074 1.358 . S
C1075 H1079 0.930 . S
C1076 C1074 1.356 . S
C1076 C1077 1.348 . S
C1077 C1072 1.353 . S
C1077 C1076 1.348 . S
C1077 H1129 0.929 . S
H1078 C1072 0.930 . S
H1079 C1075 0.930 . S
C1080 N1081 1.314 . S
C1080 C1082 1.353 . S
C1080 H1086 0.930 . S
N1081 Li1057 1.990 . S
N1081 C1080 1.314 . S
N1081 C1084 1.279 . S
C1082 C1080 1.353 . S
C1082 C1085 1.348 . S
C1082 H1130 0.929 . S
C1083 C1084 1.358 . S
C1083 C1085 1.356 . S
C1083 H1131 0.930 . S
C1084 N1081 1.279 . S
C1084 C1083 1.358 . S
C1084 H1087 0.930 . S
C1085 C1082 1.348 . S
C1085 C1083 1.356 . S
H1086 C1080 0.930 . S
H1087 C1084 0.930 . S
C1088 C1090 1.348 . S
C1088 C1091 1.356 . S
C1088 O1118 1.325 . S
N1089 C1092 1.314 . S
N1089 C1093 1.279 . S
C1090 C1088 1.348 . S
C1090 C1092 1.353 . S
C1090 H1132 0.929 . S
C1091 C1088 1.356 . S
C1091 C1093 1.358 . S
C1091 H1133 0.930 . S
C1092 N1089 1.314 . S
C1092 C1090 1.353 . S
C1092 H1134 0.930 . S
C1093 N1089 1.279 . S
C1093 C1091 1.358 . S
C1093 H1135 0.930 . S
C1094 C1095 1.348 . S
C1094 C1096 1.356 . S
C1094 O1119 1.325 . S
C1095 C1094 1.348 . S
C1095 C1097 1.353 . S
C1095 H1136 0.929 . S
C1096 C1094 1.356 . S
C1096 C1098 1.358 . S
C1096 H1137 0.930 . S
C1097 C1095 1.353 . S
C1097 N1099 1.314 . S
C1097 H1138 0.930 . S
C1098 C1096 1.358 . S
C1098 N1099 1.279 . S
C1098 H1139 0.930 . S
N1099 C1097 1.314 . S
N1099 C1098 1.279 . S
C1100 C1102 1.353 . S
C1100 N1103 1.314 . S
C1100 H1106 0.930 . S
C1101 N1103 1.279 . S
C1101 C1104 1.358 . S
C1101 H1107 0.930 . S
C1102 C1100 1.353 . S
C1102 C1105 1.348 . S
C1102 H1140 0.929 . S
N1103 Li1058 1.990 . S
N1103 C1100 1.314 . S
N1103 C1101 1.279 . S
C1104 C1101 1.358 . S
C1104 C1105 1.356 . S
C1104 H1141 0.930 . S
C1105 C1102 1.348 . S
C1105 C1104 1.356 . S
H1106 C1100 0.930 . S
H1107 C1101 0.930 . S
C1108 N1109 1.314 . S
C1108 C1110 1.353 . S
C1108 H1114 0.930 . S
N1109 Li1059 1.990 . S
N1109 C1108 1.314 . S
N1109 C1112 1.279 . S
C1110 C1108 1.353 . S
C1110 C1113 1.348 . S
C1110 H1142 0.929 . S
C1111 C1112 1.358 . S
C1111 C1113 1.356 . S
C1111 H1143 0.930 . S
C1112 N1109 1.279 . S
C1112 C1111 1.358 . S
C1112 H1115 0.930 . S
C1113 C1110 1.348 . S
C1113 C1111 1.356 . S
H1114 C1108 0.930 . S
H1115 C1112 0.930 . S
O1116 Li1056 1.956 . S
O1116 Li1057 1.970 . S
O1116 Li1058 1.961 . S
O1116 C1060 1.325 . S
O1117 Li1056 1.970 . S
O1117 Li1057 1.956 . S
O1117 Li1059 1.961 . S
O1117 C1066 1.325 . S
O1118 Li1056 1.961 . S
O1118 Li1058 1.956 . S
O1118 Li1059 1.970 . S
O1118 C1088 1.325 . S
O1119 Li1057 1.961 . S
O1119 Li1058 1.970 . S
O1119 Li1059 1.956 . S
O1119 C1094 1.325 . S
H1120 C1062 0.929 . S
H1121 C1063 0.930 . S
H1122 C1064 0.930 . S
H1123 C1065 0.930 . S
H1124 C1067 0.930 . S
H1125 C1069 0.929 . S
H1126 C1070 0.930 . S
H1127 C1071 0.930 . S
H1128 C1074 0.930 . S
H1129 C1077 0.929 . S
H1130 C1082 0.929 . S
H1131 C1083 0.930 . S
H1132 C1090 0.929 . S
H1133 C1091 0.930 . S
H1134 C1092 0.930 . S
H1135 C1093 0.930 . S
H1136 C1095 0.929 . S
H1137 C1096 0.930 . S
H1138 C1097 0.930 . S
H1139 C1098 0.930 . S
H1140 C1102 0.929 . S
H1141 C1104 0.930 . S
H1142 C1110 0.929 . S
H1143 C1111 0.930 . S
Li1144 N1161 1.990 . S
Li1144 O1204 1.956 . S
Li1144 O1205 1.970 . S
Li1144 O1206 1.961 . S
Li1145 N1169 1.990 . S
Li1145 O1204 1.970 . S
Li1145 O1205 1.956 . S
Li1145 O1207 1.961 . S
Li1146 N1191 1.990 . S
Li1146 O1204 1.961 . S
Li1146 O1206 1.956 . S
Li1146 O1207 1.970 . S
Li1147 N1197 1.990 . S
Li1147 O1205 1.961 . S
Li1147 O1206 1.970 . S
Li1147 O1207 1.956 . S
C1148 C1150 1.348 . S
C1148 C1151 1.356 . S
C1148 O1204 1.325 . S
N1149 C1152 1.314 . S
N1149 C1153 1.279 . S
C1150 C1148 1.348 . S
C1150 C1152 1.353 . S
C1150 H1208 0.929 . S
C1151 C1148 1.356 . S
C1151 C1153 1.358 . S
C1151 H1209 0.930 . S
C1152 N1149 1.314 . S
C1152 C1150 1.353 . S
C1152 H1210 0.930 . S
C1153 N1149 1.279 . S
C1153 C1151 1.358 . S
C1153 H1211 0.930 . S
C1154 C1157 1.348 . S
C1154 C1158 1.356 . S
C1154 O1205 1.325 . S
C1155 N1156 1.279 . S
C1155 C1158 1.358 . S
C1155 H1212 0.930 . S
N1156 C1155 1.279 . S
N1156 C1159 1.314 . S
C1157 C1154 1.348 . S
C1157 C1159 1.353 . S
C1157 H1213 0.929 . S
C1158 C1154 1.356 . S
C1158 C1155 1.358 . S
C1158 H1214 0.930 . S
C1159 N1156 1.314 . S
C1159 C1157 1.353 . S
C1159 H1215 0.930 . S
C1160 N1161 1.314 . S
C1160 C1165 1.353 . S
C1160 H1166 0.930 . S
N1161 Li1144 1.990 . S
N1161 C1160 1.314 . S
N1161 C1163 1.279 . S
C1162 C1163 1.358 . S
C1162 C1164 1.356 . S
C1162 H1216 0.930 . S
C1163 N1161 1.279 . S
C1163 C1162 1.358 . S
C1163 H1167 0.930 . S
C1164 C1162 1.356 . S
C1164 C1165 1.348 . S
C1165 C1160 1.353 . S
C1165 C1164 1.348 . S
C1165 H1217 0.929 . S
H1166 C1160 0.930 . S
H1167 C1163 0.930 . S
C1168 N1169 1.314 . S
C1168 C1170 1.353 . S
C1168 H1174 0.930 . S
N1169 Li1145 1.990 . S
N1169 C1168 1.314 . S
N1169 C1172 1.279 . S
C1170 C1168 1.353 . S
C1170 C1173 1.348 . S
C1170 H1218 0.929 . S
C1171 C1172 1.358 . S
C1171 C1173 1.356 . S
C1171 H1219 0.930 . S
C1172 N1169 1.279 . S
C1172 C1171 1.358 . S
C1172 H1175 0.930 . S
C1173 C1170 1.348 . S
C1173 C1171 1.356 . S
H1174 C1168 0.930 . S
H1175 C1172 0.930 . S
C1176 C1178 1.348 . S
C1176 C1179 1.356 . S
C1176 O1206 1.325 . S
N1177 C1180 1.314 . S
N1177 C1181 1.279 . S
C1178 C1176 1.348 . S
C1178 C1180 1.353 . S
C1178 H1220 0.929 . S
C1179 C1176 1.356 . S
C1179 C1181 1.358 . S
C1179 H1221 0.930 . S
C1180 N1177 1.314 . S
C1180 C1178 1.353 . S
C1180 H1222 0.930 . S
C1181 N1177 1.279 . S
C1181 C1179 1.358 . S
C1181 H1223 0.930 . S
C1182 C1183 1.348 . S
C1182 C1184 1.356 . S
C1182 O1207 1.325 . S
C1183 C1182 1.348 . S
C1183 C1185 1.353 . S
C1183 H1224 0.929 . S
C1184 C1182 1.356 . S
C1184 C1186 1.358 . S
C1184 H1225 0.930 . S
C1185 C1183 1.353 . S
C1185 N1187 1.314 . S
C1185 H1226 0.930 . S
C1186 C1184 1.358 . S
C1186 N1187 1.279 . S
C1186 H1227 0.930 . S
N1187 C1185 1.314 . S
N1187 C1186 1.279 . S
C1188 C1190 1.353 . S
C1188 N1191 1.314 . S
C1188 H1194 0.930 . S
C1189 N1191 1.279 . S
C1189 C1192 1.358 . S
C1189 H1195 0.930 . S
C1190 C1188 1.353 . S
C1190 C1193 1.348 . S
C1190 H1228 0.929 . S
N1191 Li1146 1.990 . S
N1191 C1188 1.314 . S
N1191 C1189 1.279 . S
C1192 C1189 1.358 . S
C1192 C1193 1.356 . S
C1192 H1229 0.930 . S
C1193 C1190 1.348 . S
C1193 C1192 1.356 . S
H1194 C1188 0.930 . S
H1195 C1189 0.930 . S
C1196 N1197 1.314 . S
C1196 C1198 1.353 . S
C1196 H1202 0.930 . S
N1197 Li1147 1.990 . S
N1197 C1196 1.314 . S
N1197 C1200 1.279 . S
C1198 C1196 1.353 . S
C1198 C1201 1.348 . S
C1198 H1230 0.929 . S
C1199 C1200 1.358 . S
C1199 C1201 1.356 . S
C1199 H1231 0.930 . S
C1200 N1197 1.279 . S
C1200 C1199 1.358 . S
C1200 H1203 0.930 . S
C1201 C1198 1.348 . S
C1201 C1199 1.356 . S
H1202 C1196 0.930 . S
H1203 C1200 0.930 . S
O1204 Li1144 1.956 . S
O1204 Li1145 1.970 . S
O1204 Li1146 1.961 . S
O1204 C1148 1.325 . S
O1205 Li1144 1.970 . S
O1205 Li1145 1.956 . S
O1205 Li1147 1.961 . S
O1205 C1154 1.325 . S
O1206 Li1144 1.961 . S
O1206 Li1146 1.956 . S
O1206 Li1147 1.970 . S
O1206 C1176 1.325 . S
O1207 Li1145 1.961 . S
O1207 Li1146 1.970 . S
O1207 Li1147 1.956 . S
O1207 C1182 1.325 . S
H1208 C1150 0.929 . S
H1209 C1151 0.930 . S
H1210 C1152 0.930 . S
H1211 C1153 0.930 . S
H1212 C1155 0.930 . S
H1213 C1157 0.929 . S
H1214 C1158 0.930 . S
H1215 C1159 0.930 . S
H1216 C1162 0.930 . S
H1217 C1165 0.929 . S
H1218 C1170 0.929 . S
H1219 C1171 0.930 . S
H1220 C1178 0.929 . S
H1221 C1179 0.930 . S
H1222 C1180 0.930 . S
H1223 C1181 0.930 . S
H1224 C1183 0.929 . S
H1225 C1184 0.930 . S
H1226 C1185 0.930 . S
H1227 C1186 0.930 . S
H1228 C1190 0.929 . S
H1229 C1192 0.930 . S
H1230 C1198 0.929 . S
H1231 C1199 0.930 . S
Li1232 N1249 1.990 . S
Li1232 O1292 1.956 . S
Li1232 O1293 1.970 . S
Li1232 O1294 1.961 . S
Li1233 N1257 1.990 . S
Li1233 O1292 1.970 . S
Li1233 O1293 1.956 . S
Li1233 O1295 1.961 . S
Li1234 N1279 1.990 . S
Li1234 O1292 1.961 . S
Li1234 O1294 1.956 . S
Li1234 O1295 1.970 . S
Li1235 N1285 1.990 . S
Li1235 O1293 1.961 . S
Li1235 O1294 1.970 . S
Li1235 O1295 1.956 . S
C1236 C1238 1.348 . S
C1236 C1239 1.356 . S
C1236 O1292 1.325 . S
N1237 C1240 1.314 . S
N1237 C1241 1.279 . S
C1238 C1236 1.348 . S
C1238 C1240 1.353 . S
C1238 H1296 0.929 . S
C1239 C1236 1.356 . S
C1239 C1241 1.358 . S
C1239 H1297 0.930 . S
C1240 N1237 1.314 . S
C1240 C1238 1.353 . S
C1240 H1298 0.930 . S
C1241 N1237 1.279 . S
C1241 C1239 1.358 . S
C1241 H1299 0.930 . S
C1242 C1245 1.348 . S
C1242 C1246 1.356 . S
C1242 O1293 1.325 . S
C1243 N1244 1.279 . S
C1243 C1246 1.358 . S
C1243 H1300 0.930 . S
N1244 C1243 1.279 . S
N1244 C1247 1.314 . S
C1245 C1242 1.348 . S
C1245 C1247 1.353 . S
C1245 H1301 0.929 . S
C1246 C1242 1.356 . S
C1246 C1243 1.358 . S
C1246 H1302 0.930 . S
C1247 N1244 1.314 . S
C1247 C1245 1.353 . S
C1247 H1303 0.930 . S
C1248 N1249 1.314 . S
C1248 C1253 1.353 . S
C1248 H1254 0.930 . S
N1249 Li1232 1.990 . S
N1249 C1248 1.314 . S
N1249 C1251 1.279 . S
C1250 C1251 1.358 . S
C1250 C1252 1.356 . S
C1250 H1304 0.930 . S
C1251 N1249 1.279 . S
C1251 C1250 1.358 . S
C1251 H1255 0.930 . S
C1252 C1250 1.356 . S
C1252 C1253 1.348 . S
C1253 C1248 1.353 . S
C1253 C1252 1.348 . S
C1253 H1305 0.929 . S
H1254 C1248 0.930 . S
H1255 C1251 0.930 . S
C1256 N1257 1.314 . S
C1256 C1258 1.353 . S
C1256 H1262 0.930 . S
N1257 Li1233 1.990 . S
N1257 C1256 1.314 . S
N1257 C1260 1.279 . S
C1258 C1256 1.353 . S
C1258 C1261 1.348 . S
C1258 H1306 0.929 . S
C1259 C1260 1.358 . S
C1259 C1261 1.356 . S
C1259 H1307 0.930 . S
C1260 N1257 1.279 . S
C1260 C1259 1.358 . S
C1260 H1263 0.930 . S
C1261 C1258 1.348 . S
C1261 C1259 1.356 . S
H1262 C1256 0.930 . S
H1263 C1260 0.930 . S
C1264 C1266 1.348 . S
C1264 C1267 1.356 . S
C1264 O1294 1.325 . S
N1265 C1268 1.314 . S
N1265 C1269 1.279 . S
C1266 C1264 1.348 . S
C1266 C1268 1.353 . S
C1266 H1308 0.929 . S
C1267 C1264 1.356 . S
C1267 C1269 1.358 . S
C1267 H1309 0.930 . S
C1268 N1265 1.314 . S
C1268 C1266 1.353 . S
C1268 H1310 0.930 . S
C1269 N1265 1.279 . S
C1269 C1267 1.358 . S
C1269 H1311 0.930 . S
C1270 C1271 1.348 . S
C1270 C1272 1.356 . S
C1270 O1295 1.325 . S
C1271 C1270 1.348 . S
C1271 C1273 1.353 . S
C1271 H1312 0.929 . S
C1272 C1270 1.356 . S
C1272 C1274 1.358 . S
C1272 H1313 0.930 . S
C1273 C1271 1.353 . S
C1273 N1275 1.314 . S
C1273 H1314 0.930 . S
C1274 C1272 1.358 . S
C1274 N1275 1.279 . S
C1274 H1315 0.930 . S
N1275 C1273 1.314 . S
N1275 C1274 1.279 . S
C1276 C1278 1.353 . S
C1276 N1279 1.314 . S
C1276 H1282 0.930 . S
C1277 N1279 1.279 . S
C1277 C1280 1.358 . S
C1277 H1283 0.930 . S
C1278 C1276 1.353 . S
C1278 C1281 1.348 . S
C1278 H1316 0.929 . S
N1279 Li1234 1.990 . S
N1279 C1276 1.314 . S
N1279 C1277 1.279 . S
C1280 C1277 1.358 . S
C1280 C1281 1.356 . S
C1280 H1317 0.930 . S
C1281 C1278 1.348 . S
C1281 C1280 1.356 . S
H1282 C1276 0.930 . S
H1283 C1277 0.930 . S
C1284 N1285 1.314 . S
C1284 C1286 1.353 . S
C1284 H1290 0.930 . S
N1285 Li1235 1.990 . S
N1285 C1284 1.314 . S
N1285 C1288 1.279 . S
C1286 C1284 1.353 . S
C1286 C1289 1.348 . S
C1286 H1318 0.929 . S
C1287 C1288 1.358 . S
C1287 C1289 1.356 . S
C1287 H1319 0.930 . S
C1288 N1285 1.279 . S
C1288 C1287 1.358 . S
C1288 H1291 0.930 . S
C1289 C1286 1.348 . S
C1289 C1287 1.356 . S
H1290 C1284 0.930 . S
H1291 C1288 0.930 . S
O1292 Li1232 1.956 . S
O1292 Li1233 1.970 . S
O1292 Li1234 1.961 . S
O1292 C1236 1.325 . S
O1293 Li1232 1.970 . S
O1293 Li1233 1.956 . S
O1293 Li1235 1.961 . S
O1293 C1242 1.325 . S
O1294 Li1232 1.961 . S
O1294 Li1234 1.956 . S
O1294 Li1235 1.970 . S
O1294 C1264 1.325 . S
O1295 Li1233 1.961 . S
O1295 Li1234 1.970 . S
O1295 Li1235 1.956 . S
O1295 C1270 1.325 . S
H1296 C1238 0.929 . S
H1297 C1239 0.930 . S
H1298 C1240 0.930 . S
H1299 C1241 0.930 . S
H1300 C1243 0.930 . S
H1301 C1245 0.929 . S
H1302 C1246 0.930 . S
H1303 C1247 0.930 . S
H1304 C1250 0.930 . S
H1305 C1253 0.929 . S
H1306 C1258 0.929 . S
H1307 C1259 0.930 . S
H1308 C1266 0.929 . S
H1309 C1267 0.930 . S
H1310 C1268 0.930 . S
H1311 C1269 0.930 . S
H1312 C1271 0.929 . S
H1313 C1272 0.930 . S
H1314 C1273 0.930 . S
H1315 C1274 0.930 . S
H1316 C1278 0.929 . S
H1317 C1280 0.930 . S
H1318 C1286 0.929 . S
H1319 C1287 0.930 . S
Li1320 N1337 1.990 . S
Li1320 O1380 1.956 . S
Li1320 O1381 1.970 . S
Li1320 O1382 1.961 . S
Li1321 N1345 1.990 . S
Li1321 O1380 1.970 . S
Li1321 O1381 1.956 . S
Li1321 O1383 1.961 . S
Li1322 N1367 1.990 . S
Li1322 O1380 1.961 . S
Li1322 O1382 1.956 . S
Li1322 O1383 1.970 . S
Li1323 N1373 1.990 . S
Li1323 O1381 1.961 . S
Li1323 O1382 1.970 . S
Li1323 O1383 1.956 . S
C1324 C1326 1.348 . S
C1324 C1327 1.356 . S
C1324 O1380 1.325 . S
N1325 C1328 1.314 . S
N1325 C1329 1.279 . S
C1326 C1324 1.348 . S
C1326 C1328 1.353 . S
C1326 H1384 0.929 . S
C1327 C1324 1.356 . S
C1327 C1329 1.358 . S
C1327 H1385 0.930 . S
C1328 N1325 1.314 . S
C1328 C1326 1.353 . S
C1328 H1386 0.930 . S
C1329 N1325 1.279 . S
C1329 C1327 1.358 . S
C1329 H1387 0.930 . S
C1330 C1333 1.348 . S
C1330 C1334 1.356 . S
C1330 O1381 1.325 . S
C1331 N1332 1.279 . S
C1331 C1334 1.358 . S
C1331 H1388 0.930 . S
N1332 C1331 1.279 . S
N1332 C1335 1.314 . S
C1333 C1330 1.348 . S
C1333 C1335 1.353 . S
C1333 H1389 0.929 . S
C1334 C1330 1.356 . S
C1334 C1331 1.358 . S
C1334 H1390 0.930 . S
C1335 N1332 1.314 . S
C1335 C1333 1.353 . S
C1335 H1391 0.930 . S
C1336 N1337 1.314 . S
C1336 C1341 1.353 . S
C1336 H1342 0.930 . S
N1337 Li1320 1.990 . S
N1337 C1336 1.314 . S
N1337 C1339 1.279 . S
C1338 C1339 1.358 . S
C1338 C1340 1.356 . S
C1338 H1392 0.930 . S
C1339 N1337 1.279 . S
C1339 C1338 1.358 . S
C1339 H1343 0.930 . S
C1340 C1338 1.356 . S
C1340 C1341 1.348 . S
C1341 C1336 1.353 . S
C1341 C1340 1.348 . S
C1341 H1393 0.929 . S
H1342 C1336 0.930 . S
H1343 C1339 0.930 . S
C1344 N1345 1.314 . S
C1344 C1346 1.353 . S
C1344 H1350 0.930 . S
N1345 Li1321 1.990 . S
N1345 C1344 1.314 . S
N1345 C1348 1.279 . S
C1346 C1344 1.353 . S
C1346 C1349 1.348 . S
C1346 H1394 0.929 . S
C1347 C1348 1.358 . S
C1347 C1349 1.356 . S
C1347 H1395 0.930 . S
C1348 N1345 1.279 . S
C1348 C1347 1.358 . S
C1348 H1351 0.930 . S
C1349 C1346 1.348 . S
C1349 C1347 1.356 . S
H1350 C1344 0.930 . S
H1351 C1348 0.930 . S
C1352 C1354 1.348 . S
C1352 C1355 1.356 . S
C1352 O1382 1.325 . S
N1353 C1356 1.314 . S
N1353 C1357 1.279 . S
C1354 C1352 1.348 . S
C1354 C1356 1.353 . S
C1354 H1396 0.929 . S
C1355 C1352 1.356 . S
C1355 C1357 1.358 . S
C1355 H1397 0.930 . S
C1356 N1353 1.314 . S
C1356 C1354 1.353 . S
C1356 H1398 0.930 . S
C1357 N1353 1.279 . S
C1357 C1355 1.358 . S
C1357 H1399 0.930 . S
C1358 C1359 1.348 . S
C1358 C1360 1.356 . S
C1358 O1383 1.325 . S
C1359 C1358 1.348 . S
C1359 C1361 1.353 . S
C1359 H1400 0.929 . S
C1360 C1358 1.356 . S
C1360 C1362 1.358 . S
C1360 H1401 0.930 . S
C1361 C1359 1.353 . S
C1361 N1363 1.314 . S
C1361 H1402 0.930 . S
C1362 C1360 1.358 . S
C1362 N1363 1.279 . S
C1362 H1403 0.930 . S
N1363 C1361 1.314 . S
N1363 C1362 1.279 . S
C1364 C1366 1.353 . S
C1364 N1367 1.314 . S
C1364 H1370 0.930 . S
C1365 N1367 1.279 . S
C1365 C1368 1.358 . S
C1365 H1371 0.930 . S
C1366 C1364 1.353 . S
C1366 C1369 1.348 . S
C1366 H1404 0.929 . S
N1367 Li1322 1.990 . S
N1367 C1364 1.314 . S
N1367 C1365 1.279 . S
C1368 C1365 1.358 . S
C1368 C1369 1.356 . S
C1368 H1405 0.930 . S
C1369 C1366 1.348 . S
C1369 C1368 1.356 . S
H1370 C1364 0.930 . S
H1371 C1365 0.930 . S
C1372 N1373 1.314 . S
C1372 C1374 1.353 . S
C1372 H1378 0.930 . S
N1373 Li1323 1.990 . S
N1373 C1372 1.314 . S
N1373 C1376 1.279 . S
C1374 C1372 1.353 . S
C1374 C1377 1.348 . S
C1374 H1406 0.929 . S
C1375 C1376 1.358 . S
C1375 C1377 1.356 . S
C1375 H1407 0.930 . S
C1376 N1373 1.279 . S
C1376 C1375 1.358 . S
C1376 H1379 0.930 . S
C1377 C1374 1.348 . S
C1377 C1375 1.356 . S
H1378 C1372 0.930 . S
H1379 C1376 0.930 . S
O1380 Li1320 1.956 . S
O1380 Li1321 1.970 . S
O1380 Li1322 1.961 . S
O1380 C1324 1.325 . S
O1381 Li1320 1.970 . S
O1381 Li1321 1.956 . S
O1381 Li1323 1.961 . S
O1381 C1330 1.325 . S
O1382 Li1320 1.961 . S
O1382 Li1322 1.956 . S
O1382 Li1323 1.970 . S
O1382 C1352 1.325 . S
O1383 Li1321 1.961 . S
O1383 Li1322 1.970 . S
O1383 Li1323 1.956 . S
O1383 C1358 1.325 . S
H1384 C1326 0.929 . S
H1385 C1327 0.930 . S
H1386 C1328 0.930 . S
H1387 C1329 0.930 . S
H1388 C1331 0.930 . S
H1389 C1333 0.929 . S
H1390 C1334 0.930 . S
H1391 C1335 0.930 . S
H1392 C1338 0.930 . S
H1393 C1341 0.929 . S
H1394 C1346 0.929 . S
H1395 C1347 0.930 . S
H1396 C1354 0.929 . S
H1397 C1355 0.930 . S
H1398 C1356 0.930 . S
H1399 C1357 0.930 . S
H1400 C1359 0.929 . S
H1401 C1360 0.930 . S
H1402 C1361 0.930 . S
H1403 C1362 0.930 . S
H1404 C1366 0.929 . S
H1405 C1368 0.930 . S
H1406 C1374 0.929 . S
H1407 C1375 0.930 . S
H1408 C1416 0.929 . S
H1409 C1418 0.930 . S
H1410 C1420 0.930 . S
H1411 C1423 0.929 . S
H1412 C1426 0.930 . S
H1413 C1428 0.960 . S
H1414 C1428 0.960 . S
H1415 C1428 0.960 . S
C1416 H1408 0.929 . S
C1416 C1417 1.377 . S
C1416 C1418 1.384 . S
C1417 C1416 1.377 . S
C1417 C1423 1.390 . S
C1418 H1409 0.930 . S
C1418 C1416 1.384 . S
C1418 C1419 1.372 . S
C1419 C1418 1.372 . S
C1419 C1420 1.400 . S
C1419 C1424 1.490 . S
C1420 H1410 0.930 . S
C1420 C1419 1.400 . S
C1420 C1423 1.386 . S
H1421 C1437 0.930 . S
H1422 C1438 0.931 . S
C1423 H1411 0.929 . S
C1423 C1417 1.390 . S
C1423 C1420 1.386 . S
C1424 C1419 1.490 . S
C1424 C1426 1.395 . S
C1424 C1427 1.403 . S
H1425 C1431 0.930 . S
C1426 H1412 0.930 . S
C1426 C1424 1.395 . S
C1426 C1429 1.403 . S
C1427 C1424 1.403 . S
C1427 C1428 1.524 . S
C1427 C1431 1.400 . S
C1428 H1413 0.960 . S
C1428 H1414 0.960 . S
C1428 H1415 0.960 . S
C1428 C1427 1.524 . S
C1429 C1426 1.403 . S
C1429 C1430 1.392 . S
C1429 C1433 1.495 . S
C1430 C1429 1.392 . S
C1430 C1431 1.385 . S
C1430 C1432 1.478 . S
C1431 H1425 0.930 . S
C1431 C1427 1.400 . S
C1431 C1430 1.385 . S
C1432 C1430 1.478 . S
C1432 C1434 1.381 . S
C1432 C1438 1.383 . S
C1433 C1429 1.495 . S
C1433 H1439 0.959 . S
C1433 H1440 0.961 . S
C1433 H1441 0.960 . S
C1434 C1432 1.381 . S
C1434 C1435 1.394 . S
C1434 H1442 0.930 . S
C1435 C1434 1.394 . S
C1435 C1436 1.383 . S
C1435 H1443 0.929 . S
C1436 C1435 1.383 . S
C1436 C1437 1.377 . S
C1437 H1421 0.930 . S
C1437 C1436 1.377 . S
C1437 C1438 1.379 . S
C1438 H1422 0.931 . S
C1438 C1432 1.383 . S
C1438 C1437 1.379 . S
H1439 C1433 0.959 . S
H1440 C1433 0.961 . S
H1441 C1433 0.960 . S
H1442 C1434 0.930 . S
H1443 C1435 0.929 . S
H1444 C1452 0.929 . S
H1445 C1454 0.930 . S
H1446 C1456 0.930 . S
H1447 C1459 0.929 . S
H1448 C1462 0.930 . S
H1449 C1464 0.960 . S
H1450 C1464 0.960 . S
H1451 C1464 0.960 . S
C1452 H1444 0.929 . S
C1452 C1453 1.377 . S
C1452 C1454 1.384 . S
C1453 C1452 1.377 . S
C1453 C1459 1.390 . S
C1454 H1445 0.930 . S
C1454 C1452 1.384 . S
C1454 C1455 1.372 . S
C1455 C1454 1.372 . S
C1455 C1456 1.400 . S
C1455 C1460 1.490 . S
C1456 H1446 0.930 . S
C1456 C1455 1.400 . S
C1456 C1459 1.386 . S
H1457 C1473 0.930 . S
H1458 C1474 0.931 . S
C1459 H1447 0.929 . S
C1459 C1453 1.390 . S
C1459 C1456 1.386 . S
C1460 C1455 1.490 . S
C1460 C1462 1.395 . S
C1460 C1463 1.403 . S
H1461 C1467 0.930 . S
C1462 H1448 0.930 . S
C1462 C1460 1.395 . S
C1462 C1465 1.403 . S
C1463 C1460 1.403 . S
C1463 C1464 1.524 . S
C1463 C1467 1.400 . S
C1464 H1449 0.960 . S
C1464 H1450 0.960 . S
C1464 H1451 0.960 . S
C1464 C1463 1.524 . S
C1465 C1462 1.403 . S
C1465 C1466 1.392 . S
C1465 C1469 1.495 . S
C1466 C1465 1.392 . S
C1466 C1467 1.385 . S
C1466 C1468 1.478 . S
C1467 H1461 0.930 . S
C1467 C1463 1.400 . S
C1467 C1466 1.385 . S
C1468 C1466 1.478 . S
C1468 C1470 1.381 . S
C1468 C1474 1.383 . S
C1469 C1465 1.495 . S
C1469 H1475 0.959 . S
C1469 H1476 0.961 . S
C1469 H1477 0.960 . S
C1470 C1468 1.381 . S
C1470 C1471 1.394 . S
C1470 H1478 0.930 . S
C1471 C1470 1.394 . S
C1471 C1472 1.383 . S
C1471 H1479 0.929 . S
C1472 C1471 1.383 . S
C1472 C1473 1.377 . S
C1473 H1457 0.930 . S
C1473 C1472 1.377 . S
C1473 C1474 1.379 . S
C1474 H1458 0.931 . S
C1474 C1468 1.383 . S
C1474 C1473 1.379 . S
H1475 C1469 0.959 . S
H1476 C1469 0.961 . S
H1477 C1469 0.960 . S
H1478 C1470 0.930 . S
H1479 C1471 0.929 . S
H1480 C1488 0.929 . S
H1481 C1490 0.930 . S
H1482 C1492 0.930 . S
H1483 C1495 0.929 . S
H1484 C1498 0.930 . S
H1485 C1500 0.960 . S
H1486 C1500 0.960 . S
H1487 C1500 0.960 . S
C1488 H1480 0.929 . S
C1488 C1489 1.377 . S
C1488 C1490 1.384 . S
C1489 C1488 1.377 . S
C1489 C1495 1.390 . S
C1490 H1481 0.930 . S
C1490 C1488 1.384 . S
C1490 C1491 1.372 . S
C1491 C1490 1.372 . S
C1491 C1492 1.400 . S
C1491 C1496 1.490 . S
C1492 H1482 0.930 . S
C1492 C1491 1.400 . S
C1492 C1495 1.386 . S
H1493 C1509 0.930 . S
H1494 C1510 0.931 . S
C1495 H1483 0.929 . S
C1495 C1489 1.390 . S
C1495 C1492 1.386 . S
C1496 C1491 1.490 . S
C1496 C1498 1.395 . S
C1496 C1499 1.403 . S
H1497 C1503 0.930 . S
C1498 H1484 0.930 . S
C1498 C1496 1.395 . S
C1498 C1501 1.403 . S
C1499 C1496 1.403 . S
C1499 C1500 1.524 . S
C1499 C1503 1.400 . S
C1500 H1485 0.960 . S
C1500 H1486 0.960 . S
C1500 H1487 0.960 . S
C1500 C1499 1.524 . S
C1501 C1498 1.403 . S
C1501 C1502 1.392 . S
C1501 C1505 1.495 . S
C1502 C1501 1.392 . S
C1502 C1503 1.385 . S
C1502 C1504 1.478 . S
C1503 H1497 0.930 . S
C1503 C1499 1.400 . S
C1503 C1502 1.385 . S
C1504 C1502 1.478 . S
C1504 C1506 1.381 . S
C1504 C1510 1.383 . S
C1505 C1501 1.495 . S
C1505 H1511 0.959 . S
C1505 H1512 0.961 . S
C1505 H1513 0.960 . S
C1506 C1504 1.381 . S
C1506 C1507 1.394 . S
C1506 H1514 0.930 . S
C1507 C1506 1.394 . S
C1507 C1508 1.383 . S
C1507 H1515 0.929 . S
C1508 C1507 1.383 . S
C1508 C1509 1.377 . S
C1509 H1493 0.930 . S
C1509 C1508 1.377 . S
C1509 C1510 1.379 . S
C1510 H1494 0.931 . S
C1510 C1504 1.383 . S
C1510 C1509 1.379 . S
H1511 C1505 0.959 . S
H1512 C1505 0.961 . S
H1513 C1505 0.960 . S
H1514 C1506 0.930 . S
H1515 C1507 0.929 . S
H1516 C1524 0.929 . S
H1517 C1526 0.930 . S
H1518 C1528 0.930 . S
H1519 C1531 0.929 . S
H1520 C1534 0.930 . S
H1521 C1536 0.960 . S
H1522 C1536 0.960 . S
H1523 C1536 0.960 . S
C1524 H1516 0.929 . S
C1524 C1525 1.377 . S
C1524 C1526 1.384 . S
C1525 C1524 1.377 . S
C1525 C1531 1.390 . S
C1526 H1517 0.930 . S
C1526 C1524 1.384 . S
C1526 C1527 1.372 . S
C1527 C1526 1.372 . S
C1527 C1528 1.400 . S
C1527 C1532 1.490 . S
C1528 H1518 0.930 . S
C1528 C1527 1.400 . S
C1528 C1531 1.386 . S
H1529 C1545 0.930 . S
H1530 C1546 0.931 . S
C1531 H1519 0.929 . S
C1531 C1525 1.390 . S
C1531 C1528 1.386 . S
C1532 C1527 1.490 . S
C1532 C1534 1.395 . S
C1532 C1535 1.403 . S
H1533 C1539 0.930 . S
C1534 H1520 0.930 . S
C1534 C1532 1.395 . S
C1534 C1537 1.403 . S
C1535 C1532 1.403 . S
C1535 C1536 1.524 . S
C1535 C1539 1.400 . S
C1536 H1521 0.960 . S
C1536 H1522 0.960 . S
C1536 H1523 0.960 . S
C1536 C1535 1.524 . S
C1537 C1534 1.403 . S
C1537 C1538 1.392 . S
C1537 C1541 1.495 . S
C1538 C1537 1.392 . S
C1538 C1539 1.385 . S
C1538 C1540 1.478 . S
C1539 H1533 0.930 . S
C1539 C1535 1.400 . S
C1539 C1538 1.385 . S
C1540 C1538 1.478 . S
C1540 C1542 1.381 . S
C1540 C1546 1.383 . S
C1541 C1537 1.495 . S
C1541 H1547 0.959 . S
C1541 H1548 0.961 . S
C1541 H1549 0.960 . S
C1542 C1540 1.381 . S
C1542 C1543 1.394 . S
C1542 H1550 0.930 . S
C1543 C1542 1.394 . S
C1543 C1544 1.383 . S
C1543 H1551 0.929 . S
C1544 C1543 1.383 . S
C1544 C1545 1.377 . S
C1545 H1529 0.930 . S
C1545 C1544 1.377 . S
C1545 C1546 1.379 . S
C1546 H1530 0.931 . S
C1546 C1540 1.383 . S
C1546 C1545 1.379 . S
H1547 C1541 0.959 . S
H1548 C1541 0.961 . S
H1549 C1541 0.960 . S
H1550 C1542 0.930 . S
H1551 C1543 0.929 . S
H1552 C1560 0.929 . S
H1553 C1562 0.930 . S
H1554 C1564 0.930 . S
H1555 C1567 0.929 . S
H1556 C1570 0.930 . S
H1557 C1572 0.960 . S
H1558 C1572 0.960 . S
H1559 C1572 0.960 . S
C1560 H1552 0.929 . S
C1560 C1561 1.377 . S
C1560 C1562 1.384 . S
C1561 C1560 1.377 . S
C1561 C1567 1.390 . S
C1562 H1553 0.930 . S
C1562 C1560 1.384 . S
C1562 C1563 1.372 . S
C1563 C1562 1.372 . S
C1563 C1564 1.400 . S
C1563 C1568 1.490 . S
C1564 H1554 0.930 . S
C1564 C1563 1.400 . S
C1564 C1567 1.386 . S
H1565 C1581 0.930 . S
H1566 C1582 0.931 . S
C1567 H1555 0.929 . S
C1567 C1561 1.390 . S
C1567 C1564 1.386 . S
C1568 C1563 1.490 . S
C1568 C1570 1.395 . S
C1568 C1571 1.403 . S
H1569 C1575 0.930 . S
C1570 H1556 0.930 . S
C1570 C1568 1.395 . S
C1570 C1573 1.403 . S
C1571 C1568 1.403 . S
C1571 C1572 1.524 . S
C1571 C1575 1.400 . S
C1572 H1557 0.960 . S
C1572 H1558 0.960 . S
C1572 H1559 0.960 . S
C1572 C1571 1.524 . S
C1573 C1570 1.403 . S
C1573 C1574 1.392 . S
C1573 C1577 1.495 . S
C1574 C1573 1.392 . S
C1574 C1575 1.385 . S
C1574 C1576 1.478 . S
C1575 H1569 0.930 . S
C1575 C1571 1.400 . S
C1575 C1574 1.385 . S
C1576 C1574 1.478 . S
C1576 C1578 1.381 . S
C1576 C1582 1.383 . S
C1577 C1573 1.495 . S
C1577 H1583 0.959 . S
C1577 H1584 0.961 . S
C1577 H1585 0.960 . S
C1578 C1576 1.381 . S
C1578 C1579 1.394 . S
C1578 H1586 0.930 . S
C1579 C1578 1.394 . S
C1579 C1580 1.383 . S
C1579 H1587 0.929 . S
C1580 C1579 1.383 . S
C1580 C1581 1.377 . S
C1581 H1565 0.930 . S
C1581 C1580 1.377 . S
C1581 C1582 1.379 . S
C1582 H1566 0.931 . S
C1582 C1576 1.383 . S
C1582 C1581 1.379 . S
H1583 C1577 0.959 . S
H1584 C1577 0.961 . S
H1585 C1577 0.960 . S
H1586 C1578 0.930 . S
H1587 C1579 0.929 . S
H1588 C1596 0.929 . S
H1589 C1598 0.930 . S
H1590 C1600 0.930 . S
H1591 C1603 0.929 . S
H1592 C1606 0.930 . S
H1593 C1608 0.960 . S
H1594 C1608 0.960 . S
H1595 C1608 0.960 . S
C1596 H1588 0.929 . S
C1596 C1597 1.377 . S
C1596 C1598 1.384 . S
C1597 C1596 1.377 . S
C1597 C1603 1.390 . S
C1598 H1589 0.930 . S
C1598 C1596 1.384 . S
C1598 C1599 1.372 . S
C1599 C1598 1.372 . S
C1599 C1600 1.400 . S
C1599 C1604 1.490 . S
C1600 H1590 0.930 . S
C1600 C1599 1.400 . S
C1600 C1603 1.386 . S
H1601 C1617 0.930 . S
H1602 C1618 0.931 . S
C1603 H1591 0.929 . S
C1603 C1597 1.390 . S
C1603 C1600 1.386 . S
C1604 C1599 1.490 . S
C1604 C1606 1.395 . S
C1604 C1607 1.403 . S
H1605 C1611 0.930 . S
C1606 H1592 0.930 . S
C1606 C1604 1.395 . S
C1606 C1609 1.403 . S
C1607 C1604 1.403 . S
C1607 C1608 1.524 . S
C1607 C1611 1.400 . S
C1608 H1593 0.960 . S
C1608 H1594 0.960 . S
C1608 H1595 0.960 . S
C1608 C1607 1.524 . S
C1609 C1606 1.403 . S
C1609 C1610 1.392 . S
C1609 C1613 1.495 . S
C1610 C1609 1.392 . S
C1610 C1611 1.385 . S
C1610 C1612 1.478 . S
C1611 H1605 0.930 . S
C1611 C1607 1.400 . S
C1611 C1610 1.385 . S
C1612 C1610 1.478 . S
C1612 C1614 1.381 . S
C1612 C1618 1.383 . S
C1613 C1609 1.495 . S
C1613 H1619 0.959 . S
C1613 H1620 0.961 . S
C1613 H1621 0.960 . S
C1614 C1612 1.381 . S
C1614 C1615 1.394 . S
C1614 H1622 0.930 . S
C1615 C1614 1.394 . S
C1615 C1616 1.383 . S
C1615 H1623 0.929 . S
C1616 C1615 1.383 . S
C1616 C1617 1.377 . S
C1617 H1601 0.930 . S
C1617 C1616 1.377 . S
C1617 C1618 1.379 . S
C1618 H1602 0.931 . S
C1618 C1612 1.383 . S
C1618 C1617 1.379 . S
H1619 C1613 0.959 . S
H1620 C1613 0.961 . S
H1621 C1613 0.960 . S
H1622 C1614 0.930 . S
H1623 C1615 0.929 . S
H1624 C1632 0.929 . S
H1625 C1634 0.930 . S
H1626 C1636 0.930 . S
H1627 C1639 0.929 . S
H1628 C1642 0.930 . S
H1629 C1644 0.960 . S
H1630 C1644 0.960 . S
H1631 C1644 0.960 . S
C1632 H1624 0.929 . S
C1632 C1633 1.377 . S
C1632 C1634 1.384 . S
C1633 C1632 1.377 . S
C1633 C1639 1.390 . S
C1634 H1625 0.930 . S
C1634 C1632 1.384 . S
C1634 C1635 1.372 . S
C1635 C1634 1.372 . S
C1635 C1636 1.400 . S
C1635 C1640 1.490 . S
C1636 H1626 0.930 . S
C1636 C1635 1.400 . S
C1636 C1639 1.386 . S
H1637 C1653 0.930 . S
H1638 C1654 0.931 . S
C1639 H1627 0.929 . S
C1639 C1633 1.390 . S
C1639 C1636 1.386 . S
C1640 C1635 1.490 . S
C1640 C1642 1.395 . S
C1640 C1643 1.403 . S
H1641 C1647 0.930 . S
C1642 H1628 0.930 . S
C1642 C1640 1.395 . S
C1642 C1645 1.403 . S
C1643 C1640 1.403 . S
C1643 C1644 1.524 . S
C1643 C1647 1.400 . S
C1644 H1629 0.960 . S
C1644 H1630 0.960 . S
C1644 H1631 0.960 . S
C1644 C1643 1.524 . S
C1645 C1642 1.403 . S
C1645 C1646 1.392 . S
C1645 C1649 1.495 . S
C1646 C1645 1.392 . S
C1646 C1647 1.385 . S
C1646 C1648 1.478 . S
C1647 H1641 0.930 . S
C1647 C1643 1.400 . S
C1647 C1646 1.385 . S
C1648 C1646 1.478 . S
C1648 C1650 1.381 . S
C1648 C1654 1.383 . S
C1649 C1645 1.495 . S
C1649 H1655 0.959 . S
C1649 H1656 0.961 . S
C1649 H1657 0.960 . S
C1650 C1648 1.381 . S
C1650 C1651 1.394 . S
C1650 H1658 0.930 . S
C1651 C1650 1.394 . S
C1651 C1652 1.383 . S
C1651 H1659 0.929 . S
C1652 C1651 1.383 . S
C1652 C1653 1.377 . S
C1653 H1637 0.930 . S
C1653 C1652 1.377 . S
C1653 C1654 1.379 . S
C1654 H1638 0.931 . S
C1654 C1648 1.383 . S
C1654 C1653 1.379 . S
H1655 C1649 0.959 . S
H1656 C1649 0.961 . S
H1657 C1649 0.960 . S
H1658 C1650 0.930 . S
H1659 C1651 0.929 . S
H1660 C1668 0.929 . S
H1661 C1670 0.930 . S
H1662 C1672 0.930 . S
H1663 C1675 0.929 . S
H1664 C1678 0.930 . S
H1665 C1680 0.960 . S
H1666 C1680 0.960 . S
H1667 C1680 0.960 . S
C1668 H1660 0.929 . S
C1668 C1669 1.377 . S
C1668 C1670 1.384 . S
C1669 C1668 1.377 . S
C1669 C1675 1.390 . S
C1670 H1661 0.930 . S
C1670 C1668 1.384 . S
C1670 C1671 1.372 . S
C1671 C1670 1.372 . S
C1671 C1672 1.400 . S
C1671 C1676 1.490 . S
C1672 H1662 0.930 . S
C1672 C1671 1.400 . S
C1672 C1675 1.386 . S
H1673 C1689 0.930 . S
H1674 C1690 0.931 . S
C1675 H1663 0.929 . S
C1675 C1669 1.390 . S
C1675 C1672 1.386 . S
C1676 C1671 1.490 . S
C1676 C1678 1.395 . S
C1676 C1679 1.403 . S
H1677 C1683 0.930 . S
C1678 H1664 0.930 . S
C1678 C1676 1.395 . S
C1678 C1681 1.403 . S
C1679 C1676 1.403 . S
C1679 C1680 1.524 . S
C1679 C1683 1.400 . S
C1680 H1665 0.960 . S
C1680 H1666 0.960 . S
C1680 H1667 0.960 . S
C1680 C1679 1.524 . S
C1681 C1678 1.403 . S
C1681 C1682 1.392 . S
C1681 C1685 1.495 . S
C1682 C1681 1.392 . S
C1682 C1683 1.385 . S
C1682 C1684 1.478 . S
C1683 H1677 0.930 . S
C1683 C1679 1.400 . S
C1683 C1682 1.385 . S
C1684 C1682 1.478 . S
C1684 C1686 1.381 . S
C1684 C1690 1.383 . S
C1685 C1681 1.495 . S
C1685 H1691 0.959 . S
C1685 H1692 0.961 . S
C1685 H1693 0.960 . S
C1686 C1684 1.381 . S
C1686 C1687 1.394 . S
C1686 H1694 0.930 . S
C1687 C1686 1.394 . S
C1687 C1688 1.383 . S
C1687 H1695 0.929 . S
C1688 C1687 1.383 . S
C1688 C1689 1.377 . S
C1689 H1673 0.930 . S
C1689 C1688 1.377 . S
C1689 C1690 1.379 . S
C1690 H1674 0.931 . S
C1690 C1684 1.383 . S
C1690 C1689 1.379 . S
H1691 C1685 0.959 . S
H1692 C1685 0.961 . S
H1693 C1685 0.960 . S
H1694 C1686 0.930 . S
H1695 C1687 0.929 . S
H1696 C1704 0.929 . S
H1697 C1706 0.930 . S
H1698 C1708 0.930 . S
H1699 C1711 0.929 . S
H1700 C1714 0.930 . S
H1701 C1716 0.960 . S
H1702 C1716 0.960 . S
H1703 C1716 0.960 . S
C1704 H1696 0.929 . S
C1704 C1705 1.377 . S
C1704 C1706 1.384 . S
C1705 C1704 1.377 . S
C1705 C1711 1.390 . S
C1706 H1697 0.930 . S
C1706 C1704 1.384 . S
C1706 C1707 1.372 . S
C1707 C1706 1.372 . S
C1707 C1708 1.400 . S
C1707 C1712 1.490 . S
C1708 H1698 0.930 . S
C1708 C1707 1.400 . S
C1708 C1711 1.386 . S
H1709 C1725 0.930 . S
H1710 C1726 0.931 . S
C1711 H1699 0.929 . S
C1711 C1705 1.390 . S
C1711 C1708 1.386 . S
C1712 C1707 1.490 . S
C1712 C1714 1.395 1_565 S
C1712 C1715 1.403 . S
H1713 C1719 0.931 . S
C1714 H1700 0.930 . S
C1714 C1712 1.395 1_545 S
C1714 C1717 1.403 . S
C1715 C1712 1.403 . S
C1715 C1716 1.524 . S
C1715 C1719 1.404 . S
C1716 H1701 0.960 . S
C1716 H1702 0.960 . S
C1716 H1703 0.960 . S
C1716 C1715 1.524 . S
C1717 C1714 1.403 . S
C1717 C1718 1.392 . S
C1717 C1721 1.495 . S
C1718 C1717 1.392 . S
C1718 C1719 1.381 1_545 S
C1718 C1720 1.478 . S
C1719 H1713 0.931 . S
C1719 C1715 1.404 . S
C1719 C1718 1.381 1_565 S
C1720 C1718 1.478 . S
C1720 C1722 1.381 . S
C1720 C1726 1.383 . S
C1721 C1717 1.495 . S
C1721 H1727 0.959 . S
C1721 H1728 0.961 . S
C1721 H1729 0.960 . S
C1722 C1720 1.381 . S
C1722 C1723 1.394 . S
C1722 H1730 0.930 . S
C1723 C1722 1.394 . S
C1723 C1724 1.383 . S
C1723 H1731 0.929 . S
C1724 C1723 1.383 . S
C1724 C1725 1.377 . S
C1725 H1709 0.930 . S
C1725 C1724 1.377 . S
C1725 C1726 1.379 . S
C1726 H1710 0.931 . S
C1726 C1720 1.383 . S
C1726 C1725 1.379 . S
H1727 C1721 0.959 . S
H1728 C1721 0.961 . S
H1729 C1721 0.960 . S
H1730 C1722 0.930 . S
H1731 C1723 0.929 . S
H1732 C1740 0.929 . S
H1733 C1742 0.930 . S
H1734 C1744 0.930 . S
H1735 C1747 0.929 . S
H1736 C1750 0.930 . S
H1737 C1752 0.960 . S
H1738 C1752 0.960 . S
H1739 C1752 0.960 . S
C1740 H1732 0.929 . S
C1740 C1741 1.377 . S
C1740 C1742 1.384 . S
C1741 C1740 1.377 . S
C1741 C1747 1.390 . S
C1742 H1733 0.930 . S
C1742 C1740 1.384 . S
C1742 C1743 1.372 . S
C1743 C1742 1.372 . S
C1743 C1744 1.400 . S
C1743 C1748 1.490 . S
C1744 H1734 0.930 . S
C1744 C1743 1.400 . S
C1744 C1747 1.386 . S
H1745 C1761 0.930 . S
H1746 C1762 0.931 . S
C1747 H1735 0.929 . S
C1747 C1741 1.390 . S
C1747 C1744 1.386 . S
C1748 C1743 1.490 . S
C1748 C1750 1.395 . S
C1748 C1751 1.403 . S
H1749 C1755 0.930 . S
C1750 H1736 0.930 . S
C1750 C1748 1.395 . S
C1750 C1753 1.403 . S
C1751 C1748 1.403 . S
C1751 C1752 1.524 . S
C1751 C1755 1.400 . S
C1752 H1737 0.960 . S
C1752 H1738 0.960 . S
C1752 H1739 0.960 . S
C1752 C1751 1.524 . S
C1753 C1750 1.403 . S
C1753 C1754 1.392 . S
C1753 C1757 1.495 . S
C1754 C1753 1.392 . S
C1754 C1755 1.385 . S
C1754 C1756 1.478 . S
C1755 H1749 0.930 . S
C1755 C1751 1.400 . S
C1755 C1754 1.385 . S
C1756 C1754 1.478 . S
C1756 C1758 1.381 . S
C1756 C1762 1.383 . S
C1757 C1753 1.495 . S
C1757 H1763 0.959 . S
C1757 H1764 0.961 . S
C1757 H1765 0.960 . S
C1758 C1756 1.381 . S
C1758 C1759 1.394 . S
C1758 H1766 0.930 . S
C1759 C1758 1.394 . S
C1759 C1760 1.383 . S
C1759 H1767 0.929 . S
C1760 C1759 1.383 . S
C1760 C1761 1.377 . S
C1761 H1745 0.930 . S
C1761 C1760 1.377 . S
C1761 C1762 1.379 . S
C1762 H1746 0.931 . S
C1762 C1756 1.383 . S
C1762 C1761 1.379 . S
H1763 C1757 0.959 . S
H1764 C1757 0.961 . S
H1765 C1757 0.960 . S
H1766 C1758 0.930 . S
H1767 C1759 0.929 . S
H1768 C1776 0.929 . S
H1769 C1778 0.930 . S
H1770 C1780 0.930 . S
H1771 C1783 0.929 . S
H1772 C1786 0.930 . S
H1773 C1788 0.960 . S
H1774 C1788 0.960 . S
H1775 C1788 0.960 . S
C1776 H1768 0.929 . S
C1776 C1777 1.377 . S
C1776 C1778 1.384 . S
C1777 C1776 1.377 . S
C1777 C1783 1.390 . S
C1778 H1769 0.930 . S
C1778 C1776 1.384 . S
C1778 C1779 1.372 . S
C1779 C1778 1.372 . S
C1779 C1780 1.400 . S
C1779 C1784 1.490 . S
C1780 H1770 0.930 . S
C1780 C1779 1.400 . S
C1780 C1783 1.386 . S
H1781 C1797 0.930 . S
H1782 C1798 0.931 . S
C1783 H1771 0.929 . S
C1783 C1777 1.390 . S
C1783 C1780 1.386 . S
C1784 C1779 1.490 . S
C1784 C1786 1.395 1_556 S
C1784 C1787 1.403 . S
H1785 C1791 0.934 . S
C1786 H1772 0.930 . S
C1786 C1784 1.395 1_554 S
C1786 C1789 1.403 . S
C1787 C1784 1.403 . S
C1787 C1788 1.524 . S
C1787 C1791 1.426 . S
C1788 H1773 0.960 . S
C1788 H1774 0.960 . S
C1788 H1775 0.960 . S
C1788 C1787 1.524 . S
C1789 C1786 1.403 . S
C1789 C1790 1.392 . S
C1789 C1793 1.495 . S
C1790 C1789 1.392 . S
C1790 C1791 1.357 1_554 S
C1790 C1792 1.478 . S
C1791 H1785 0.934 . S
C1791 C1787 1.426 . S
C1791 C1790 1.357 1_556 S
C1792 C1790 1.478 . S
C1792 C1794 1.381 . S
C1792 C1798 1.383 . S
C1793 C1789 1.495 . S
C1793 H1799 0.959 . S
C1793 H1800 0.961 . S
C1793 H1801 0.960 . S
C1794 C1792 1.381 . S
C1794 C1795 1.394 . S
C1794 H1802 0.930 . S
C1795 C1794 1.394 . S
C1795 C1796 1.383 . S
C1795 H1803 0.929 . S
C1796 C1795 1.383 . S
C1796 C1797 1.377 . S
C1797 H1781 0.930 . S
C1797 C1796 1.377 . S
C1797 C1798 1.379 . S
C1798 H1782 0.931 . S
C1798 C1792 1.383 . S
C1798 C1797 1.379 . S
H1799 C1793 0.959 . S
H1800 C1793 0.961 . S
H1801 C1793 0.960 . S
H1802 C1794 0.930 . S
H1803 C1795 0.929 . S
H1804 C1812 0.929 . S
H1805 C1814 0.930 . S
H1806 C1816 0.930 . S
H1807 C1819 0.929 . S
H1808 C1822 0.930 . S
H1809 C1824 0.960 . S
H1810 C1824 0.960 . S
H1811 C1824 0.960 . S
C1812 H1804 0.929 . S
C1812 C1813 1.377 . S
C1812 C1814 1.384 . S
C1813 C1812 1.377 . S
C1813 C1819 1.390 . S
C1814 H1805 0.930 . S
C1814 C1812 1.384 . S
C1814 C1815 1.372 . S
C1815 C1814 1.372 . S
C1815 C1816 1.400 . S
C1815 C1820 1.490 . S
C1816 H1806 0.930 . S
C1816 C1815 1.400 . S
C1816 C1819 1.386 . S
H1817 C1833 0.930 . S
H1818 C1834 0.931 . S
C1819 H1807 0.929 . S
C1819 C1813 1.390 . S
C1819 C1816 1.386 . S
C1820 C1815 1.490 . S
C1820 C1822 1.395 1_554 S
C1820 C1823 1.403 . S
H1821 C1827 0.930 . S
C1822 H1808 0.930 . S
C1822 C1820 1.395 1_556 S
C1822 C1825 1.403 . S
C1823 C1820 1.403 . S
C1823 C1824 1.524 . S
C1823 C1827 1.354 1_554 S
C1824 H1809 0.960 . S
C1824 H1810 0.960 . S
C1824 H1811 0.960 . S
C1824 C1823 1.524 . S
C1825 C1822 1.403 . S
C1825 C1826 1.392 . S
C1825 C1829 1.495 . S
C1826 C1825 1.392 . S
C1826 C1827 1.433 . S
C1826 C1828 1.478 . S
C1827 H1821 0.930 . S
C1827 C1823 1.354 1_556 S
C1827 C1826 1.433 . S
C1828 C1826 1.478 . S
C1828 C1830 1.381 . S
C1828 C1834 1.383 . S
C1829 C1825 1.495 . S
C1829 H1835 0.959 . S
C1829 H1836 0.961 . S
C1829 H1837 0.960 . S
C1830 C1828 1.381 . S
C1830 C1831 1.394 . S
C1830 H1838 0.930 . S
C1831 C1830 1.394 . S
C1831 C1832 1.383 . S
C1831 H1839 0.929 . S
C1832 C1831 1.383 . S
C1832 C1833 1.377 . S
C1833 H1817 0.930 . S
C1833 C1832 1.377 . S
C1833 C1834 1.379 . S
C1834 H1818 0.931 . S
C1834 C1828 1.383 . S
C1834 C1833 1.379 . S
H1835 C1829 0.959 . S
H1836 C1829 0.961 . S
H1837 C1829 0.960 . S
H1838 C1830 0.930 . S
H1839 C1831 0.929 . S
H1840 C1848 0.929 . S
H1841 C1850 0.930 . S
H1842 C1852 0.930 . S
H1843 C1855 0.929 . S
H1844 C1858 0.930 . S
H1845 C1860 0.960 . S
H1846 C1860 0.960 . S
H1847 C1860 0.960 . S
C1848 H1840 0.929 . S
C1848 C1849 1.377 . S
C1848 C1850 1.384 . S
C1849 C1848 1.377 . S
C1849 C1855 1.390 . S
C1850 H1841 0.930 . S
C1850 C1848 1.384 . S
C1850 C1851 1.372 . S
C1851 C1850 1.372 . S
C1851 C1852 1.400 . S
C1851 C1856 1.490 . S
C1852 H1842 0.930 . S
C1852 C1851 1.400 . S
C1852 C1855 1.386 . S
H1853 C1869 0.930 . S
H1854 C1870 0.931 . S
C1855 H1843 0.929 . S
C1855 C1849 1.390 . S
C1855 C1852 1.386 . S
C1856 C1851 1.490 . S
C1856 C1858 1.395 . S
C1856 C1859 1.403 . S
H1857 C1863 0.930 . S
C1858 H1844 0.930 . S
C1858 C1856 1.395 . S
C1858 C1861 1.403 . S
C1859 C1856 1.403 . S
C1859 C1860 1.524 . S
C1859 C1863 1.400 . S
C1860 H1845 0.960 . S
C1860 H1846 0.960 . S
C1860 H1847 0.960 . S
C1860 C1859 1.524 . S
C1861 C1858 1.403 . S
C1861 C1862 1.392 . S
C1861 C1865 1.495 . S
C1862 C1861 1.392 . S
C1862 C1863 1.385 . S
C1862 C1864 1.478 . S
C1863 H1857 0.930 . S
C1863 C1859 1.400 . S
C1863 C1862 1.385 . S
C1864 C1862 1.478 . S
C1864 C1866 1.381 . S
C1864 C1870 1.383 . S
C1865 C1861 1.495 . S
C1865 H1871 0.959 . S
C1865 H1872 0.961 . S
C1865 H1873 0.960 . S
C1866 C1864 1.381 . S
C1866 C1867 1.394 . S
C1866 H1874 0.930 . S
C1867 C1866 1.394 . S
C1867 C1868 1.383 . S
C1867 H1875 0.929 . S
C1868 C1867 1.383 . S
C1868 C1869 1.377 . S
C1869 H1853 0.930 . S
C1869 C1868 1.377 . S
C1869 C1870 1.379 . S
C1870 H1854 0.931 . S
C1870 C1864 1.383 . S
C1870 C1869 1.379 . S
H1871 C1865 0.959 . S
H1872 C1865 0.961 . S
H1873 C1865 0.960 . S
H1874 C1866 0.930 . S
H1875 C1867 0.929 . S
H1876 C1884 0.929 . S
H1877 C1886 0.930 . S
H1878 C1888 0.930 . S
H1879 C1891 0.929 . S
H1880 C1894 0.930 . S
H1881 C1896 0.960 . S
H1882 C1896 0.960 . S
H1883 C1896 0.960 . S
C1884 H1876 0.929 . S
C1884 C1885 1.377 . S
C1884 C1886 1.384 . S
C1885 C1884 1.377 . S
C1885 C1891 1.390 . S
C1886 H1877 0.930 . S
C1886 C1884 1.384 . S
C1886 C1887 1.372 . S
C1887 C1886 1.372 . S
C1887 C1888 1.400 . S
C1887 C1892 1.490 . S
C1888 H1878 0.930 . S
C1888 C1887 1.400 . S
C1888 C1891 1.386 . S
H1889 C1905 0.930 . S
H1890 C1906 0.931 . S
C1891 H1879 0.929 . S
C1891 C1885 1.390 . S
C1891 C1888 1.386 . S
C1892 C1887 1.490 . S
C1892 C1894 1.395 . S
C1892 C1895 1.403 . S
H1893 C1899 0.930 . S
C1894 H1880 0.930 . S
C1894 C1892 1.395 . S
C1894 C1897 1.403 . S
C1895 C1892 1.403 . S
C1895 C1896 1.524 . S
C1895 C1899 1.400 . S
C1896 H1881 0.960 . S
C1896 H1882 0.960 . S
C1896 H1883 0.960 . S
C1896 C1895 1.524 . S
C1897 C1894 1.403 . S
C1897 C1898 1.392 . S
C1897 C1901 1.495 . S
C1898 C1897 1.392 . S
C1898 C1899 1.385 . S
C1898 C1900 1.478 . S
C1899 H1893 0.930 . S
C1899 C1895 1.400 . S
C1899 C1898 1.385 . S
C1900 C1898 1.478 . S
C1900 C1902 1.381 . S
C1900 C1906 1.383 . S
C1901 C1897 1.495 . S
C1901 H1907 0.959 . S
C1901 H1908 0.961 . S
C1901 H1909 0.960 . S
C1902 C1900 1.381 . S
C1902 C1903 1.394 . S
C1902 H1910 0.930 . S
C1903 C1902 1.394 . S
C1903 C1904 1.383 . S
C1903 H1911 0.929 . S
C1904 C1903 1.383 . S
C1904 C1905 1.377 . S
C1905 H1889 0.930 . S
C1905 C1904 1.377 . S
C1905 C1906 1.379 . S
C1906 H1890 0.931 . S
C1906 C1900 1.383 . S
C1906 C1905 1.379 . S
H1907 C1901 0.959 . S
H1908 C1901 0.961 . S
H1909 C1901 0.960 . S
H1910 C1902 0.930 . S
H1911 C1903 0.929 . S
H1912 C1920 0.929 . S
H1913 C1922 0.930 . S
H1914 C1924 0.930 . S
H1915 C1927 0.929 . S
H1916 C1930 0.930 . S
H1917 C1932 0.960 1_455 S
H1918 C1932 0.960 . S
H1919 C1932 0.960 . S
C1920 H1912 0.929 . S
C1920 C1921 1.377 . S
C1920 C1922 1.384 . S
C1921 C1920 1.377 . S
C1921 C1927 1.390 . S
C1922 H1913 0.930 . S
C1922 C1920 1.384 . S
C1922 C1923 1.372 . S
C1923 C1922 1.372 . S
C1923 C1924 1.400 . S
C1923 C1928 1.490 . S
C1924 H1914 0.930 . S
C1924 C1923 1.400 . S
C1924 C1927 1.386 . S
H1925 C1941 0.930 . S
H1926 C1942 0.931 . S
C1927 H1915 0.929 . S
C1927 C1921 1.390 . S
C1927 C1924 1.386 . S
C1928 C1923 1.490 . S
C1928 C1930 1.395 . S
C1928 C1931 1.403 . S
H1929 C1935 0.930 . S
C1930 H1916 0.930 . S
C1930 C1928 1.395 . S
C1930 C1933 1.375 1_655 S
C1931 C1928 1.403 . S
C1931 C1932 1.524 . S
C1931 C1935 1.400 1_655 S
C1932 H1917 0.960 1_655 S
C1932 H1918 0.960 . S
C1932 H1919 0.960 . S
C1932 C1931 1.524 . S
C1933 C1930 1.375 1_455 S
C1933 C1934 1.418 . S
C1933 C1937 1.498 . S
C1934 C1933 1.418 . S
C1934 C1935 1.385 . S
C1934 C1936 1.478 . S
C1935 H1929 0.930 . S
C1935 C1931 1.400 1_455 S
C1935 C1934 1.385 . S
C1936 C1934 1.478 . S
C1936 C1938 1.381 . S
C1936 C1942 1.383 . S
C1937 C1933 1.498 . S
C1937 H1943 0.959 1_455 S
C1937 H1944 0.961 . S
C1937 H1945 0.960 . S
C1938 C1936 1.381 . S
C1938 C1939 1.394 . S
C1938 H1946 0.930 . S
C1939 C1938 1.394 . S
C1939 C1940 1.383 . S
C1939 H1947 0.929 . S
C1940 C1939 1.383 . S
C1940 C1941 1.377 . S
C1941 H1925 0.930 . S
C1941 C1940 1.377 . S
C1941 C1942 1.379 . S
C1942 H1926 0.931 . S
C1942 C1936 1.383 . S
C1942 C1941 1.379 . S
H1943 C1937 0.959 1_655 S
H1944 C1937 0.961 . S
H1945 C1937 0.960 . S
H1946 C1938 0.930 . S
H1947 C1939 0.929 . S
H1948 C1956 0.929 . S
H1949 C1958 0.930 . S
H1950 C1960 0.930 . S
H1951 C1963 0.929 . S
H1952 C1966 0.930 . S
H1953 C1968 0.960 . S
H1954 C1968 0.960 . S
H1955 C1968 0.960 . S
C1956 H1948 0.929 . S
C1956 C1957 1.377 . S
C1956 C1958 1.384 . S
C1957 C1956 1.377 . S
C1957 C1963 1.390 . S
C1958 H1949 0.930 . S
C1958 C1956 1.384 . S
C1958 C1959 1.372 . S
C1959 C1958 1.372 . S
C1959 C1960 1.400 . S
C1959 C1964 1.490 . S
C1960 H1950 0.930 . S
C1960 C1959 1.400 . S
C1960 C1963 1.386 . S
H1961 C1977 0.930 . S
H1962 C1978 0.931 . S
C1963 H1951 0.929 . S
C1963 C1957 1.390 . S
C1963 C1960 1.386 . S
C1964 C1959 1.490 . S
C1964 C1966 1.395 1_655 S
C1964 C1967 1.403 . S
H1965 C1971 0.931 . S
C1966 H1952 0.930 . S
C1966 C1964 1.395 1_455 S
C1966 C1969 1.403 . S
C1967 C1964 1.403 . S
C1967 C1968 1.524 . S
C1967 C1971 1.407 . S
C1968 H1953 0.960 . S
C1968 H1954 0.960 . S
C1968 H1955 0.960 . S
C1968 C1967 1.524 . S
C1969 C1966 1.403 . S
C1969 C1970 1.392 . S
C1969 C1973 1.495 . S
C1970 C1969 1.392 . S
C1970 C1971 1.377 1_455 S
C1970 C1972 1.478 . S
C1971 H1965 0.931 . S
C1971 C1967 1.407 . S
C1971 C1970 1.377 1_655 S
C1972 C1970 1.478 . S
C1972 C1974 1.381 . S
C1972 C1978 1.383 . S
C1973 C1969 1.495 . S
C1973 H1979 0.959 . S
C1973 H1980 0.961 . S
C1973 H1981 0.960 . S
C1974 C1972 1.381 . S
C1974 C1975 1.394 . S
C1974 H1982 0.930 . S
C1975 C1974 1.394 . S
C1975 C1976 1.383 . S
C1975 H1983 0.929 . S
C1976 C1975 1.383 . S
C1976 C1977 1.377 . S
C1977 H1961 0.930 . S
C1977 C1976 1.377 . S
C1977 C1978 1.379 . S
C1978 H1962 0.931 . S
C1978 C1972 1.383 . S
C1978 C1977 1.379 . S
H1979 C1973 0.959 . S
H1980 C1973 0.961 . S
H1981 C1973 0.960 . S
H1982 C1974 0.930 . S
H1983 C1975 0.929 . S
H1984 C1992 0.929 . S
H1985 C1994 0.930 . S
H1986 C1996 0.930 . S
H1987 C1999 0.929 . S
H1988 C2002 0.930 . S
H1989 C2004 0.960 . S
H1990 C2004 0.960 . S
H1991 C2004 0.960 . S
C1992 H1984 0.929 . S
C1992 C1993 1.377 . S
C1992 C1994 1.384 . S
C1993 C1992 1.377 . S
C1993 C1999 1.390 . S
C1994 H1985 0.930 . S
C1994 C1992 1.384 . S
C1994 C1995 1.372 . S
C1995 C1994 1.372 . S
C1995 C1996 1.400 . S
C1995 C2000 1.490 . S
C1996 H1986 0.930 . S
C1996 C1995 1.400 . S
C1996 C1999 1.386 . S
H1997 C2013 0.930 . S
H1998 C2014 0.931 . S
C1999 H1987 0.929 . S
C1999 C1993 1.390 . S
C1999 C1996 1.386 . S
C2000 C1995 1.490 . S
C2000 C2002 1.395 . S
C2000 C2003 1.403 . S
H2001 C2007 0.930 . S
C2002 H1988 0.930 . S
C2002 C2000 1.395 . S
C2002 C2005 1.403 . S
C2003 C2000 1.403 . S
C2003 C2004 1.524 . S
C2003 C2007 1.400 . S
C2004 H1989 0.960 . S
C2004 H1990 0.960 . S
C2004 H1991 0.960 . S
C2004 C2003 1.524 . S
C2005 C2002 1.403 . S
C2005 C2006 1.392 . S
C2005 C2009 1.495 . S
C2006 C2005 1.392 . S
C2006 C2007 1.385 . S
C2006 C2008 1.478 . S
C2007 H2001 0.930 . S
C2007 C2003 1.400 . S
C2007 C2006 1.385 . S
C2008 C2006 1.478 . S
C2008 C2010 1.381 . S
C2008 C2014 1.383 . S
C2009 C2005 1.495 . S
C2009 H2015 0.959 . S
C2009 H2016 0.961 . S
C2009 H2017 0.960 . S
C2010 C2008 1.381 . S
C2010 C2011 1.394 . S
C2010 H2018 0.930 . S
C2011 C2010 1.394 . S
C2011 C2012 1.383 . S
C2011 H2019 0.929 . S
C2012 C2011 1.383 . S
C2012 C2013 1.377 . S
C2013 H1997 0.930 . S
C2013 C2012 1.377 . S
C2013 C2014 1.379 . S
C2014 H1998 0.931 . S
C2014 C2008 1.383 . S
C2014 C2013 1.379 . S
H2015 C2009 0.959 . S
H2016 C2009 0.961 . S
H2017 C2009 0.960 . S
H2018 C2010 0.930 . S
H2019 C2011 0.929 . S
H2020 C2028 0.929 . S
H2021 C2030 0.930 . S
H2022 C2032 0.930 . S
H2023 C2035 0.929 . S
H2024 C2038 0.930 . S
H2025 C2040 0.960 . S
H2026 C2040 0.960 . S
H2027 C2040 0.960 . S
C2028 H2020 0.929 . S
C2028 C2029 1.377 . S
C2028 C2030 1.384 . S
C2029 C2028 1.377 . S
C2029 C2035 1.390 . S
C2030 H2021 0.930 . S
C2030 C2028 1.384 . S
C2030 C2031 1.372 . S
C2031 C2030 1.372 . S
C2031 C2032 1.400 . S
C2031 C2036 1.490 . S
C2032 H2022 0.930 . S
C2032 C2031 1.400 . S
C2032 C2035 1.386 . S
H2033 C2049 0.930 . S
H2034 C2050 0.931 . S
C2035 H2023 0.929 . S
C2035 C2029 1.390 . S
C2035 C2032 1.386 . S
C2036 C2031 1.490 . S
C2036 C2038 1.395 . S
C2036 C2039 1.403 1_545 S
H2037 C2043 0.930 . S
C2038 H2024 0.930 . S
C2038 C2036 1.395 . S
C2038 C2041 1.403 . S
C2039 C2036 1.403 1_565 S
C2039 C2040 1.524 . S
C2039 C2043 1.400 . S
C2040 H2025 0.960 . S
C2040 H2026 0.960 . S
C2040 H2027 0.960 . S
C2040 C2039 1.524 . S
C2041 C2038 1.403 . S
C2041 C2042 1.392 1_545 S
C2041 C2045 1.495 . S
C2042 C2041 1.392 1_565 S
C2042 C2043 1.385 . S
C2042 C2044 1.478 . S
C2043 H2037 0.930 . S
C2043 C2039 1.400 . S
C2043 C2042 1.385 . S
C2044 C2042 1.478 . S
C2044 C2046 1.381 . S
C2044 C2050 1.383 . S
C2045 C2041 1.495 . S
C2045 H2051 0.959 . S
C2045 H2052 0.961 . S
C2045 H2053 0.960 . S
C2046 C2044 1.381 . S
C2046 C2047 1.394 . S
C2046 H2054 0.930 . S
C2047 C2046 1.394 . S
C2047 C2048 1.383 . S
C2047 H2055 0.929 . S
C2048 C2047 1.383 . S
C2048 C2049 1.377 . S
C2049 H2033 0.930 . S
C2049 C2048 1.377 . S
C2049 C2050 1.379 . S
C2050 H2034 0.931 . S
C2050 C2044 1.383 . S
C2050 C2049 1.379 . S
H2051 C2045 0.959 . S
H2052 C2045 0.961 . S
H2053 C2045 0.960 . S
H2054 C2046 0.930 . S
H2055 C2047 0.929 . S
H2056 C2064 0.929 . S
H2057 C2066 0.930 . S
H2058 C2068 0.930 . S
H2059 C2071 0.929 . S
H2060 C2074 0.930 . S
H2061 C2076 0.960 . S
H2062 C2076 0.960 . S
H2063 C2076 0.960 . S
C2064 H2056 0.929 . S
C2064 C2065 1.377 . S
C2064 C2066 1.384 . S
C2065 C2064 1.377 . S
C2065 C2071 1.390 . S
C2066 H2057 0.930 . S
C2066 C2064 1.384 . S
C2066 C2067 1.372 . S
C2067 C2066 1.372 . S
C2067 C2068 1.400 . S
C2067 C2072 1.490 . S
C2068 H2058 0.930 . S
C2068 C2067 1.400 . S
C2068 C2071 1.386 . S
H2069 C2085 0.930 . S
H2070 C2086 0.931 . S
C2071 H2059 0.929 . S
C2071 C2065 1.390 . S
C2071 C2068 1.386 . S
C2072 C2067 1.490 . S
C2072 C2074 1.395 . S
C2072 C2075 1.403 . S
H2073 C2079 0.930 . S
C2074 H2060 0.930 . S
C2074 C2072 1.395 . S
C2074 C2077 1.403 . S
C2075 C2072 1.403 . S
C2075 C2076 1.524 . S
C2075 C2079 1.400 . S
C2076 H2061 0.960 . S
C2076 H2062 0.960 . S
C2076 H2063 0.960 . S
C2076 C2075 1.524 . S
C2077 C2074 1.403 . S
C2077 C2078 1.392 . S
C2077 C2081 1.495 . S
C2078 C2077 1.392 . S
C2078 C2079 1.385 . S
C2078 C2080 1.478 . S
C2079 H2073 0.930 . S
C2079 C2075 1.400 . S
C2079 C2078 1.385 . S
C2080 C2078 1.478 . S
C2080 C2082 1.381 . S
C2080 C2086 1.383 . S
C2081 C2077 1.495 . S
C2081 H2087 0.959 . S
C2081 H2088 0.961 . S
C2081 H2089 0.960 . S
C2082 C2080 1.381 . S
C2082 C2083 1.394 . S
C2082 H2090 0.930 . S
C2083 C2082 1.394 . S
C2083 C2084 1.383 . S
C2083 H2091 0.929 . S
C2084 C2083 1.383 . S
C2084 C2085 1.377 . S
C2085 H2069 0.930 . S
C2085 C2084 1.377 . S
C2085 C2086 1.379 . S
C2086 H2070 0.931 . S
C2086 C2080 1.383 . S
C2086 C2085 1.379 . S
H2087 C2081 0.959 . S
H2088 C2081 0.961 . S
H2089 C2081 0.960 . S
H2090 C2082 0.930 . S
H2091 C2083 0.929 . S
H2092 C2100 0.929 . S
H2093 C2102 0.930 . S
H2094 C2104 0.930 . S
H2095 C2107 0.929 . S
H2096 C2110 0.930 . S
H2097 C2112 0.960 . S
H2098 C2112 0.960 . S
H2099 C2112 0.960 . S
C2100 H2092 0.929 . S
C2100 C2101 1.377 . S
C2100 C2102 1.384 . S
C2101 C2100 1.377 . S
C2101 C2107 1.390 . S
C2102 H2093 0.930 . S
C2102 C2100 1.384 . S
C2102 C2103 1.372 . S
C2103 C2102 1.372 . S
C2103 C2104 1.400 . S
C2103 C2108 1.490 . S
C2104 H2094 0.930 . S
C2104 C2103 1.400 . S
C2104 C2107 1.386 . S
H2105 C2121 0.930 . S
H2106 C2122 0.931 . S
C2107 H2095 0.929 . S
C2107 C2101 1.390 . S
C2107 C2104 1.386 . S
C2108 C2103 1.490 . S
C2108 C2110 1.395 . S
C2108 C2111 1.403 1_554 S
H2109 C2115 0.930 . S
C2110 H2096 0.930 . S
C2110 C2108 1.395 . S
C2110 C2113 1.403 . S
C2111 C2108 1.403 1_556 S
C2111 C2112 1.524 . S
C2111 C2115 1.400 . S
C2112 H2097 0.960 . S
C2112 H2098 0.960 . S
C2112 H2099 0.960 . S
C2112 C2111 1.524 . S
C2113 C2110 1.403 . S
C2113 C2114 1.392 1_554 S
C2113 C2117 1.495 . S
C2114 C2113 1.392 1_556 S
C2114 C2115 1.385 . S
C2114 C2116 1.478 . S
C2115 H2109 0.930 . S
C2115 C2111 1.400 . S
C2115 C2114 1.385 . S
C2116 C2114 1.478 . S
C2116 C2118 1.381 . S
C2116 C2122 1.383 . S
C2117 C2113 1.495 . S
C2117 H2123 0.959 . S
C2117 H2124 0.961 . S
C2117 H2125 0.960 . S
C2118 C2116 1.381 . S
C2118 C2119 1.394 . S
C2118 H2126 0.930 . S
C2119 C2118 1.394 . S
C2119 C2120 1.383 . S
C2119 H2127 0.929 . S
C2120 C2119 1.383 . S
C2120 C2121 1.377 . S
C2121 H2105 0.930 . S
C2121 C2120 1.377 . S
C2121 C2122 1.379 . S
C2122 H2106 0.931 . S
C2122 C2116 1.383 . S
C2122 C2121 1.379 . S
H2123 C2117 0.959 . S
H2124 C2117 0.961 . S
H2125 C2117 0.960 . S
H2126 C2118 0.930 . S
H2127 C2119 0.929 . S
H2128 C2136 0.929 . S
H2129 C2138 0.930 . S
H2130 C2140 0.930 . S
H2131 C2143 0.929 . S
H2132 C2146 0.930 . S
H2133 C2148 0.960 . S
H2134 C2148 0.960 . S
H2135 C2148 0.960 . S
C2136 H2128 0.929 . S
C2136 C2137 1.377 . S
C2136 C2138 1.384 . S
C2137 C2136 1.377 . S
C2137 C2143 1.390 . S
C2138 H2129 0.930 . S
C2138 C2136 1.384 . S
C2138 C2139 1.372 . S
C2139 C2138 1.372 . S
C2139 C2140 1.400 . S
C2139 C2144 1.490 . S
C2140 H2130 0.930 . S
C2140 C2139 1.400 . S
C2140 C2143 1.386 . S
H2141 C2157 0.930 . S
H2142 C2158 0.931 . S
C2143 H2131 0.929 . S
C2143 C2137 1.390 . S
C2143 C2140 1.386 . S
C2144 C2139 1.490 . S
C2144 C2146 1.395 1_556 S
C2144 C2147 1.403 . S
H2145 C2151 0.928 . S
C2146 H2132 0.930 . S
C2146 C2144 1.395 1_554 S
C2146 C2149 1.403 . S
C2147 C2144 1.403 . S
C2147 C2148 1.524 . S
C2147 C2151 1.355 1_556 S
C2148 H2133 0.960 . S
C2148 H2134 0.960 . S
C2148 H2135 0.960 . S
C2148 C2147 1.524 . S
C2149 C2146 1.403 . S
C2149 C2150 1.392 . S
C2149 C2153 1.495 . S
C2150 C2149 1.392 . S
C2150 C2151 1.434 . S
C2150 C2152 1.478 . S
C2151 H2145 0.928 . S
C2151 C2147 1.355 1_554 S
C2151 C2150 1.434 . S
C2152 C2150 1.478 . S
C2152 C2154 1.381 . S
C2152 C2158 1.383 . S
C2153 C2149 1.495 . S
C2153 H2159 0.959 . S
C2153 H2160 0.961 . S
C2153 H2161 0.960 . S
C2154 C2152 1.381 . S
C2154 C2155 1.394 . S
C2154 H2162 0.930 . S
C2155 C2154 1.394 . S
C2155 C2156 1.383 . S
C2155 H2163 0.929 . S
C2156 C2155 1.383 . S
C2156 C2157 1.377 . S
C2157 H2141 0.930 . S
C2157 C2156 1.377 . S
C2157 C2158 1.379 . S
C2158 H2142 0.931 . S
C2158 C2152 1.383 . S
C2158 C2157 1.379 . S
H2159 C2153 0.959 . S
H2160 C2153 0.961 . S
H2161 C2153 0.960 . S
H2162 C2154 0.930 . S
H2163 C2155 0.929 . S
H2164 C2172 0.929 . S
H2165 C2174 0.930 . S
H2166 C2176 0.930 . S
H2167 C2179 0.929 . S
H2168 C2182 0.930 . S
H2169 C2184 0.960 . S
H2170 C2184 0.960 . S
H2171 C2184 0.960 . S
C2172 H2164 0.929 . S
C2172 C2173 1.377 . S
C2172 C2174 1.384 . S
C2173 C2172 1.377 . S
C2173 C2179 1.390 . S
C2174 H2165 0.930 . S
C2174 C2172 1.384 . S
C2174 C2175 1.372 . S
C2175 C2174 1.372 . S
C2175 C2176 1.400 . S
C2175 C2180 1.490 . S
C2176 H2166 0.930 . S
C2176 C2175 1.400 . S
C2176 C2179 1.386 . S
H2177 C2193 0.930 . S
H2178 C2194 0.931 . S
C2179 H2167 0.929 . S
C2179 C2173 1.390 . S
C2179 C2176 1.386 . S
C2180 C2175 1.490 . S
C2180 C2182 1.395 . S
C2180 C2183 1.403 . S
H2181 C2187 0.930 . S
C2182 H2168 0.930 . S
C2182 C2180 1.395 . S
C2182 C2185 1.403 . S
C2183 C2180 1.403 . S
C2183 C2184 1.524 . S
C2183 C2187 1.400 . S
C2184 H2169 0.960 . S
C2184 H2170 0.960 . S
C2184 H2171 0.960 . S
C2184 C2183 1.524 . S
C2185 C2182 1.403 . S
C2185 C2186 1.392 . S
C2185 C2189 1.495 . S
C2186 C2185 1.392 . S
C2186 C2187 1.385 . S
C2186 C2188 1.478 . S
C2187 H2181 0.930 . S
C2187 C2183 1.400 . S
C2187 C2186 1.385 . S
C2188 C2186 1.478 . S
C2188 C2190 1.381 . S
C2188 C2194 1.383 . S
C2189 C2185 1.495 . S
C2189 H2195 0.959 . S
C2189 H2196 0.961 . S
C2189 H2197 0.960 . S
C2190 C2188 1.381 . S
C2190 C2191 1.394 . S
C2190 H2198 0.930 . S
C2191 C2190 1.394 . S
C2191 C2192 1.383 . S
C2191 H2199 0.929 . S
C2192 C2191 1.383 . S
C2192 C2193 1.377 . S
C2193 H2177 0.930 . S
C2193 C2192 1.377 . S
C2193 C2194 1.379 . S
C2194 H2178 0.931 . S
C2194 C2188 1.383 . S
C2194 C2193 1.379 . S
H2195 C2189 0.959 . S
H2196 C2189 0.961 . S
H2197 C2189 0.960 . S
H2198 C2190 0.930 . S
H2199 C2191 0.929 . S
H2200 C2208 0.929 . S
H2201 C2210 0.930 . S
H2202 C2212 0.930 . S
H2203 C2215 0.929 . S
H2204 C2218 0.930 . S
H2205 C2220 0.960 . S
H2206 C2220 0.960 . S
H2207 C2220 0.960 . S
C2208 H2200 0.929 . S
C2208 C2209 1.377 . S
C2208 C2210 1.384 . S
C2209 C2208 1.377 . S
C2209 C2215 1.390 . S
C2210 H2201 0.930 . S
C2210 C2208 1.384 . S
C2210 C2211 1.372 . S
C2211 C2210 1.372 . S
C2211 C2212 1.400 . S
C2211 C2216 1.490 . S
C2212 H2202 0.930 . S
C2212 C2211 1.400 . S
C2212 C2215 1.386 . S
H2213 C2229 0.930 . S
H2214 C2230 0.931 . S
C2215 H2203 0.929 . S
C2215 C2209 1.390 . S
C2215 C2212 1.386 . S
C2216 C2211 1.490 . S
C2216 C2218 1.395 . S
C2216 C2219 1.403 . S
H2217 C2223 0.930 . S
C2218 H2204 0.930 . S
C2218 C2216 1.395 . S
C2218 C2221 1.403 . S
C2219 C2216 1.403 . S
C2219 C2220 1.524 . S
C2219 C2223 1.400 . S
C2220 H2205 0.960 . S
C2220 H2206 0.960 . S
C2220 H2207 0.960 . S
C2220 C2219 1.524 . S
C2221 C2218 1.403 . S
C2221 C2222 1.392 . S
C2221 C2225 1.495 . S
C2222 C2221 1.392 . S
C2222 C2223 1.385 . S
C2222 C2224 1.478 . S
C2223 H2217 0.930 . S
C2223 C2219 1.400 . S
C2223 C2222 1.385 . S
C2224 C2222 1.478 . S
C2224 C2226 1.381 . S
C2224 C2230 1.383 . S
C2225 C2221 1.495 . S
C2225 H2231 0.959 . S
C2225 H2232 0.961 . S
C2225 H2233 0.960 . S
C2226 C2224 1.381 . S
C2226 C2227 1.394 . S
C2226 H2234 0.930 . S
C2227 C2226 1.394 . S
C2227 C2228 1.383 . S
C2227 H2235 0.929 . S
C2228 C2227 1.383 . S
C2228 C2229 1.377 . S
C2229 H2213 0.930 . S
C2229 C2228 1.377 . S
C2229 C2230 1.379 . S
C2230 H2214 0.931 . S
C2230 C2224 1.383 . S
C2230 C2229 1.379 . S
H2231 C2225 0.959 . S
H2232 C2225 0.961 . S
H2233 C2225 0.960 . S
H2234 C2226 0.930 . S
H2235 C2227 0.929 . S
H2236 C2244 0.929 . S
H2237 C2246 0.930 . S
H2238 C2248 0.930 . S
H2239 C2251 0.929 . S
H2240 C2254 0.930 . S
H2241 C2256 0.960 . S
H2242 C2256 0.960 . S
H2243 C2256 0.960 . S
C2244 H2236 0.929 . S
C2244 C2245 1.377 . S
C2244 C2246 1.384 . S
C2245 C2244 1.377 . S
C2245 C2251 1.390 . S
C2246 H2237 0.930 . S
C2246 C2244 1.384 . S
C2246 C2247 1.372 . S
C2247 C2246 1.372 . S
C2247 C2248 1.400 . S
C2247 C2252 1.490 . S
C2248 H2238 0.930 . S
C2248 C2247 1.400 . S
C2248 C2251 1.386 . S
H2249 C2265 0.930 . S
H2250 C2266 0.931 . S
C2251 H2239 0.929 . S
C2251 C2245 1.390 . S
C2251 C2248 1.386 . S
C2252 C2247 1.490 . S
C2252 C2254 1.395 1_455 S
C2252 C2255 1.403 . S
H2253 C2259 0.929 1_455 S
C2254 H2240 0.930 . S
C2254 C2252 1.395 1_655 S
C2254 C2257 1.403 . S
C2255 C2252 1.403 . S
C2255 C2256 1.524 . S
C2255 C2259 1.394 1_455 S
C2256 H2241 0.960 . S
C2256 H2242 0.960 . S
C2256 H2243 0.960 . S
C2256 C2255 1.524 . S
C2257 C2254 1.403 . S
C2257 C2258 1.392 . S
C2257 C2261 1.495 . S
C2258 C2257 1.392 . S
C2258 C2259 1.391 . S
C2258 C2260 1.478 . S
C2259 H2253 0.929 1_655 S
C2259 C2255 1.394 1_655 S
C2259 C2258 1.391 . S
C2260 C2258 1.478 . S
C2260 C2262 1.381 . S
C2260 C2266 1.383 . S
C2261 C2257 1.495 . S
C2261 H2267 0.959 . S
C2261 H2268 0.961 . S
C2261 H2269 0.960 . S
C2262 C2260 1.381 . S
C2262 C2263 1.394 . S
C2262 H2270 0.930 . S
C2263 C2262 1.394 . S
C2263 C2264 1.383 . S
C2263 H2271 0.929 . S
C2264 C2263 1.383 . S
C2264 C2265 1.377 . S
C2265 H2249 0.930 . S
C2265 C2264 1.377 . S
C2265 C2266 1.379 . S
C2266 H2250 0.931 . S
C2266 C2260 1.383 . S
C2266 C2265 1.379 . S
H2267 C2261 0.959 . S
H2268 C2261 0.961 . S
H2269 C2261 0.960 . S
H2270 C2262 0.930 . S
H2271 C2263 0.929 . S
H2272 C2280 0.929 . S
H2273 C2282 0.930 . S
H2274 C2284 0.930 . S
H2275 C2287 0.929 . S
H2276 C2290 0.930 . S
H2277 C2292 0.960 . S
H2278 C2292 0.960 . S
H2279 C2292 0.960 . S
C2280 H2272 0.929 . S
C2280 C2281 1.377 . S
C2280 C2282 1.384 . S
C2281 C2280 1.377 . S
C2281 C2287 1.390 . S
C2282 H2273 0.930 . S
C2282 C2280 1.384 . S
C2282 C2283 1.372 . S
C2283 C2282 1.372 . S
C2283 C2284 1.400 . S
C2283 C2288 1.490 . S
C2284 H2274 0.930 . S
C2284 C2283 1.400 . S
C2284 C2287 1.386 . S
H2285 C2301 0.930 . S
H2286 C2302 0.931 . S
C2287 H2275 0.929 . S
C2287 C2281 1.390 . S
C2287 C2284 1.386 . S
C2288 C2283 1.490 . S
C2288 C2290 1.395 1_455 S
C2288 C2291 1.403 . S
H2289 C2295 0.927 1_455 S
C2290 H2276 0.930 . S
C2290 C2288 1.395 1_655 S
C2290 C2293 1.403 . S
C2291 C2288 1.403 . S
C2291 C2292 1.524 . S
C2291 C2295 1.398 1_455 S
C2292 H2277 0.960 . S
C2292 H2278 0.960 . S
C2292 H2279 0.960 . S
C2292 C2291 1.524 . S
C2293 C2290 1.403 . S
C2293 C2294 1.392 . S
C2293 C2297 1.495 . S
C2294 C2293 1.392 . S
C2294 C2295 1.387 . S
C2294 C2296 1.478 . S
C2295 H2289 0.927 1_655 S
C2295 C2291 1.398 1_655 S
C2295 C2294 1.387 . S
C2296 C2294 1.478 . S
C2296 C2298 1.381 . S
C2296 C2302 1.383 . S
C2297 C2293 1.495 . S
C2297 H2303 0.959 . S
C2297 H2304 0.961 . S
C2297 H2305 0.960 . S
C2298 C2296 1.381 . S
C2298 C2299 1.394 . S
C2298 H2306 0.930 . S
C2299 C2298 1.394 . S
C2299 C2300 1.383 . S
C2299 H2307 0.929 . S
C2300 C2299 1.383 . S
C2300 C2301 1.377 . S
C2301 H2285 0.930 . S
C2301 C2300 1.377 . S
C2301 C2302 1.379 . S
C2302 H2286 0.931 . S
C2302 C2296 1.383 . S
C2302 C2301 1.379 . S
H2303 C2297 0.959 . S
H2304 C2297 0.961 . S
H2305 C2297 0.960 . S
H2306 C2298 0.930 . S
H2307 C2299 0.929 . S
H2308 C2316 0.929 . S
H2309 C2318 0.930 . S
H2310 C2320 0.930 . S
H2311 C2323 0.929 . S
H2312 C2326 0.930 . S
H2313 C2328 0.960 . S
H2314 C2328 0.960 . S
H2315 C2328 0.960 . S
C2316 H2308 0.929 . S
C2316 C2317 1.377 . S
C2316 C2318 1.384 . S
C2317 C2316 1.377 . S
C2317 C2323 1.390 . S
C2318 H2309 0.930 . S
C2318 C2316 1.384 . S
C2318 C2319 1.372 . S
C2319 C2318 1.372 . S
C2319 C2320 1.400 . S
C2319 C2324 1.490 . S
C2320 H2310 0.930 . S
C2320 C2319 1.400 . S
C2320 C2323 1.386 . S
H2321 C2337 0.930 . S
H2322 C2338 0.931 . S
C2323 H2311 0.929 . S
C2323 C2317 1.390 . S
C2323 C2320 1.386 . S
C2324 C2319 1.490 . S
C2324 C2326 1.395 . S
C2324 C2327 1.403 . S
H2325 C2331 0.930 . S
C2326 H2312 0.930 . S
C2326 C2324 1.395 . S
C2326 C2329 1.403 . S
C2327 C2324 1.403 . S
C2327 C2328 1.524 . S
C2327 C2331 1.400 . S
C2328 H2313 0.960 . S
C2328 H2314 0.960 . S
C2328 H2315 0.960 . S
C2328 C2327 1.524 . S
C2329 C2326 1.403 . S
C2329 C2330 1.392 . S
C2329 C2333 1.495 . S
C2330 C2329 1.392 . S
C2330 C2331 1.385 . S
C2330 C2332 1.478 . S
C2331 H2325 0.930 . S
C2331 C2327 1.400 . S
C2331 C2330 1.385 . S
C2332 C2330 1.478 . S
C2332 C2334 1.381 . S
C2332 C2338 1.383 . S
C2333 C2329 1.495 . S
C2333 H2339 0.959 . S
C2333 H2340 0.961 . S
C2333 H2341 0.960 . S
C2334 C2332 1.381 . S
C2334 C2335 1.394 . S
C2334 H2342 0.930 . S
C2335 C2334 1.394 . S
C2335 C2336 1.383 . S
C2335 H2343 0.929 . S
C2336 C2335 1.383 . S
C2336 C2337 1.377 . S
C2337 H2321 0.930 . S
C2337 C2336 1.377 . S
C2337 C2338 1.379 . S
C2338 H2322 0.931 . S
C2338 C2332 1.383 . S
C2338 C2337 1.379 . S
H2339 C2333 0.959 . S
H2340 C2333 0.961 . S
H2341 C2333 0.960 . S
H2342 C2334 0.930 . S
H2343 C2335 0.929 . S
H2344 C2352 0.929 . S
H2345 C2354 0.930 . S
H2346 C2356 0.930 . S
H2347 C2359 0.929 . S
H2348 C2362 0.930 . S
H2349 C2364 0.960 . S
H2350 C2364 0.960 . S
H2351 C2364 0.960 . S
C2352 H2344 0.929 . S
C2352 C2353 1.377 . S
C2352 C2354 1.384 . S
C2353 C2352 1.377 . S
C2353 C2359 1.390 . S
C2354 H2345 0.930 . S
C2354 C2352 1.384 . S
C2354 C2355 1.372 . S
C2355 C2354 1.372 . S
C2355 C2356 1.400 . S
C2355 C2360 1.490 . S
C2356 H2346 0.930 . S
C2356 C2355 1.400 . S
C2356 C2359 1.386 . S
H2357 C2373 0.930 . S
H2358 C2374 0.931 . S
C2359 H2347 0.929 . S
C2359 C2353 1.390 . S
C2359 C2356 1.386 . S
C2360 C2355 1.490 . S
C2360 C2362 1.395 . S
C2360 C2363 1.403 . S
H2361 C2367 0.930 . S
C2362 H2348 0.930 . S
C2362 C2360 1.395 . S
C2362 C2365 1.403 . S
C2363 C2360 1.403 . S
C2363 C2364 1.524 . S
C2363 C2367 1.400 . S
C2364 H2349 0.960 . S
C2364 H2350 0.960 . S
C2364 H2351 0.960 . S
C2364 C2363 1.524 . S
C2365 C2362 1.403 . S
C2365 C2366 1.392 . S
C2365 C2369 1.495 . S
C2366 C2365 1.392 . S
C2366 C2367 1.385 . S
C2366 C2368 1.478 . S
C2367 H2361 0.930 . S
C2367 C2363 1.400 . S
C2367 C2366 1.385 . S
C2368 C2366 1.478 . S
C2368 C2370 1.381 . S
C2368 C2374 1.383 . S
C2369 C2365 1.495 . S
C2369 H2375 0.959 . S
C2369 H2376 0.961 . S
C2369 H2377 0.960 . S
C2370 C2368 1.381 . S
C2370 C2371 1.394 . S
C2370 H2378 0.930 . S
C2371 C2370 1.394 . S
C2371 C2372 1.383 . S
C2371 H2379 0.929 . S
C2372 C2371 1.383 . S
C2372 C2373 1.377 . S
C2373 H2357 0.930 . S
C2373 C2372 1.377 . S
C2373 C2374 1.379 . S
C2374 H2358 0.931 . S
C2374 C2368 1.383 . S
C2374 C2373 1.379 . S
H2375 C2369 0.959 . S
H2376 C2369 0.961 . S
H2377 C2369 0.960 . S
H2378 C2370 0.930 . S
H2379 C2371 0.929 . S
H2380 C2388 0.929 . S
H2381 C2390 0.930 . S
H2382 C2392 0.930 . S
H2383 C2395 0.929 . S
H2384 C2398 0.930 . S
H2385 C2400 0.960 . S
H2386 C2400 0.960 . S
H2387 C2400 0.960 . S
C2388 H2380 0.929 . S
C2388 C2389 1.377 . S
C2388 C2390 1.384 . S
C2389 C2388 1.377 . S
C2389 C2395 1.390 . S
C2390 H2381 0.930 . S
C2390 C2388 1.384 . S
C2390 C2391 1.372 . S
C2391 C2390 1.372 . S
C2391 C2392 1.400 . S
C2391 C2396 1.490 . S
C2392 H2382 0.930 . S
C2392 C2391 1.400 . S
C2392 C2395 1.386 . S
H2393 C2409 0.930 . S
H2394 C2410 0.931 . S
C2395 H2383 0.929 . S
C2395 C2389 1.390 . S
C2395 C2392 1.386 . S
C2396 C2391 1.490 . S
C2396 C2398 1.395 . S
C2396 C2399 1.403 1_545 S
H2397 C2403 0.930 . S
C2398 H2384 0.930 . S
C2398 C2396 1.395 . S
C2398 C2401 1.403 . S
C2399 C2396 1.403 1_565 S
C2399 C2400 1.524 . S
C2399 C2403 1.400 . S
C2400 H2385 0.960 . S
C2400 H2386 0.960 . S
C2400 H2387 0.960 . S
C2400 C2399 1.524 . S
C2401 C2398 1.403 . S
C2401 C2402 1.392 1_545 S
C2401 C2405 1.495 . S
C2402 C2401 1.392 1_565 S
C2402 C2403 1.385 . S
C2402 C2404 1.478 . S
C2403 H2397 0.930 . S
C2403 C2399 1.400 . S
C2403 C2402 1.385 . S
C2404 C2402 1.478 . S
C2404 C2406 1.381 . S
C2404 C2410 1.383 . S
C2405 C2401 1.495 . S
C2405 H2411 0.959 . S
C2405 H2412 0.961 . S
C2405 H2413 0.960 . S
C2406 C2404 1.381 . S
C2406 C2407 1.394 . S
C2406 H2414 0.930 . S
C2407 C2406 1.394 . S
C2407 C2408 1.383 . S
C2407 H2415 0.929 . S
C2408 C2407 1.383 . S
C2408 C2409 1.377 . S
C2409 H2393 0.930 . S
C2409 C2408 1.377 . S
C2409 C2410 1.379 . S
C2410 H2394 0.931 . S
C2410 C2404 1.383 . S
C2410 C2409 1.379 . S
H2411 C2405 0.959 . S
H2412 C2405 0.961 . S
H2413 C2405 0.960 . S
H2414 C2406 0.930 . S
H2415 C2407 0.929 . S
H2416 C2424 0.929 . S
H2417 C2426 0.930 . S
H2418 C2428 0.930 . S
H2419 C2431 0.929 . S
H2420 C2434 0.930 . S
H2421 C2436 0.960 . S
H2422 C2436 0.960 . S
H2423 C2436 0.960 . S
C2424 H2416 0.929 . S
C2424 C2425 1.377 . S
C2424 C2426 1.384 . S
C2425 C2424 1.377 . S
C2425 C2431 1.390 . S
C2426 H2417 0.930 . S
C2426 C2424 1.384 . S
C2426 C2427 1.372 . S
C2427 C2426 1.372 . S
C2427 C2428 1.400 . S
C2427 C2432 1.490 . S
C2428 H2418 0.930 . S
C2428 C2427 1.400 . S
C2428 C2431 1.386 . S
H2429 C2445 0.930 . S
H2430 C2446 0.931 . S
C2431 H2419 0.929 . S
C2431 C2425 1.390 . S
C2431 C2428 1.386 . S
C2432 C2427 1.490 . S
C2432 C2434 1.395 . S
C2432 C2435 1.403 . S
H2433 C2439 0.930 . S
C2434 H2420 0.930 . S
C2434 C2432 1.395 . S
C2434 C2437 1.403 . S
C2435 C2432 1.403 . S
C2435 C2436 1.524 . S
C2435 C2439 1.400 . S
C2436 H2421 0.960 . S
C2436 H2422 0.960 . S
C2436 H2423 0.960 . S
C2436 C2435 1.524 . S
C2437 C2434 1.403 . S
C2437 C2438 1.392 . S
C2437 C2441 1.495 . S
C2438 C2437 1.392 . S
C2438 C2439 1.385 . S
C2438 C2440 1.478 . S
C2439 H2433 0.930 . S
C2439 C2435 1.400 . S
C2439 C2438 1.385 . S
C2440 C2438 1.478 . S
C2440 C2442 1.381 . S
C2440 C2446 1.383 . S
C2441 C2437 1.495 . S
C2441 H2447 0.959 . S
C2441 H2448 0.961 . S
C2441 H2449 0.960 . S
C2442 C2440 1.381 . S
C2442 C2443 1.394 . S
C2442 H2450 0.930 . S
C2443 C2442 1.394 . S
C2443 C2444 1.383 . S
C2443 H2451 0.929 . S
C2444 C2443 1.383 . S
C2444 C2445 1.377 . S
C2445 H2429 0.930 . S
C2445 C2444 1.377 . S
C2445 C2446 1.379 . S
C2446 H2430 0.931 . S
C2446 C2440 1.383 . S
C2446 C2445 1.379 . S
H2447 C2441 0.959 . S
H2448 C2441 0.961 . S
H2449 C2441 0.960 . S
H2450 C2442 0.930 . S
H2451 C2443 0.929 . S
H2452 C2460 0.929 . S
H2453 C2462 0.930 . S
H2454 C2464 0.930 . S
H2455 C2467 0.929 . S
H2456 C2470 0.930 . S
H2457 C2472 0.960 . S
H2458 C2472 0.960 . S
H2459 C2472 0.960 . S
C2460 H2452 0.929 . S
C2460 C2461 1.377 . S
C2460 C2462 1.384 . S
C2461 C2460 1.377 . S
C2461 C2467 1.390 . S
C2462 H2453 0.930 . S
C2462 C2460 1.384 . S
C2462 C2463 1.372 . S
C2463 C2462 1.372 . S
C2463 C2464 1.400 . S
C2463 C2468 1.490 . S
C2464 H2454 0.930 . S
C2464 C2463 1.400 . S
C2464 C2467 1.386 . S
H2465 C2481 0.930 . S
H2466 C2482 0.931 . S
C2467 H2455 0.929 . S
C2467 C2461 1.390 . S
C2467 C2464 1.386 . S
C2468 C2463 1.490 . S
C2468 C2470 1.395 . S
C2468 C2471 1.403 . S
H2469 C2475 0.930 . S
C2470 H2456 0.930 . S
C2470 C2468 1.395 . S
C2470 C2473 1.403 . S
C2471 C2468 1.403 . S
C2471 C2472 1.524 . S
C2471 C2475 1.400 . S
C2472 H2457 0.960 . S
C2472 H2458 0.960 . S
C2472 H2459 0.960 . S
C2472 C2471 1.524 . S
C2473 C2470 1.403 . S
C2473 C2474 1.392 . S
C2473 C2477 1.495 . S
C2474 C2473 1.392 . S
C2474 C2475 1.385 . S
C2474 C2476 1.478 . S
C2475 H2469 0.930 . S
C2475 C2471 1.400 . S
C2475 C2474 1.385 . S
C2476 C2474 1.478 . S
C2476 C2478 1.381 . S
C2476 C2482 1.383 . S
C2477 C2473 1.495 . S
C2477 H2483 0.959 . S
C2477 H2484 0.961 . S
C2477 H2485 0.960 . S
C2478 C2476 1.381 . S
C2478 C2479 1.394 . S
C2478 H2486 0.930 . S
C2479 C2478 1.394 . S
C2479 C2480 1.383 . S
C2479 H2487 0.929 . S
C2480 C2479 1.383 . S
C2480 C2481 1.377 . S
C2481 H2465 0.930 . S
C2481 C2480 1.377 . S
C2481 C2482 1.379 . S
C2482 H2466 0.931 . S
C2482 C2476 1.383 . S
C2482 C2481 1.379 . S
H2483 C2477 0.959 . S
H2484 C2477 0.961 . S
H2485 C2477 0.960 . S
H2486 C2478 0.930 . S
H2487 C2479 0.929 . S
H2488 C2496 0.929 . S
H2489 C2498 0.930 . S
H2490 C2500 0.930 . S
H2491 C2503 0.929 . S
H2492 C2506 0.930 . S
H2493 C2508 0.960 1_565 S
H2494 C2508 0.960 . S
H2495 C2508 0.960 . S
C2496 H2488 0.929 . S
C2496 C2497 1.377 . S
C2496 C2498 1.384 . S
C2497 C2496 1.377 . S
C2497 C2503 1.390 . S
C2498 H2489 0.930 . S
C2498 C2496 1.384 . S
C2498 C2499 1.372 . S
C2499 C2498 1.372 . S
C2499 C2500 1.400 . S
C2499 C2504 1.490 . S
C2500 H2490 0.930 . S
C2500 C2499 1.400 . S
C2500 C2503 1.386 . S
H2501 C2517 0.930 . S
H2502 C2518 0.931 . S
C2503 H2491 0.929 . S
C2503 C2497 1.390 . S
C2503 C2500 1.386 . S
C2504 C2499 1.490 . S
C2504 C2506 1.395 . S
C2504 C2507 1.403 . S
H2505 C2511 0.930 . S
C2506 H2492 0.930 . S
C2506 C2504 1.395 . S
C2506 C2509 1.403 1_545 S
C2507 C2504 1.403 . S
C2507 C2508 1.524 . S
C2507 C2511 1.400 1_545 S
C2508 H2493 0.960 1_545 S
C2508 H2494 0.960 . S
C2508 H2495 0.960 . S
C2508 C2507 1.524 . S
C2509 C2506 1.403 1_565 S
C2509 C2510 1.392 . S
C2509 C2513 1.495 . S
C2510 C2509 1.392 . S
C2510 C2511 1.385 . S
C2510 C2512 1.478 . S
C2511 H2505 0.930 . S
C2511 C2507 1.400 1_565 S
C2511 C2510 1.385 . S
C2512 C2510 1.478 . S
C2512 C2514 1.381 . S
C2512 C2518 1.383 . S
C2513 C2509 1.495 . S
C2513 H2519 0.959 1_565 S
C2513 H2520 0.961 . S
C2513 H2521 0.960 . S
C2514 C2512 1.381 . S
C2514 C2515 1.394 . S
C2514 H2522 0.930 . S
C2515 C2514 1.394 . S
C2515 C2516 1.383 . S
C2515 H2523 0.929 . S
C2516 C2515 1.383 . S
C2516 C2517 1.377 . S
C2517 H2501 0.930 . S
C2517 C2516 1.377 . S
C2517 C2518 1.379 . S
C2518 H2502 0.931 . S
C2518 C2512 1.383 . S
C2518 C2517 1.379 . S
H2519 C2513 0.959 1_545 S
H2520 C2513 0.961 . S
H2521 C2513 0.960 . S
H2522 C2514 0.930 . S
H2523 C2515 0.929 . S
H2524 C2532 0.929 . S
H2525 C2534 0.930 . S
H2526 C2536 0.930 . S
H2527 C2539 0.929 . S
H2528 C2542 0.930 . S
H2529 C2544 0.960 . S
H2530 C2544 0.960 . S
H2531 C2544 0.960 . S
C2532 H2524 0.929 . S
C2532 C2533 1.377 . S
C2532 C2534 1.384 . S
C2533 C2532 1.377 . S
C2533 C2539 1.390 . S
C2534 H2525 0.930 . S
C2534 C2532 1.384 . S
C2534 C2535 1.372 . S
C2535 C2534 1.372 . S
C2535 C2536 1.400 . S
C2535 C2540 1.490 . S
C2536 H2526 0.930 . S
C2536 C2535 1.400 . S
C2536 C2539 1.386 . S
H2537 C2553 0.930 . S
H2538 C2554 0.931 . S
C2539 H2527 0.929 . S
C2539 C2533 1.390 . S
C2539 C2536 1.386 . S
C2540 C2535 1.490 . S
C2540 C2542 1.395 . S
C2540 C2543 1.403 . S
H2541 C2547 0.930 . S
C2542 H2528 0.930 . S
C2542 C2540 1.395 . S
C2542 C2545 1.403 . S
C2543 C2540 1.403 . S
C2543 C2544 1.524 . S
C2543 C2547 1.400 . S
C2544 H2529 0.960 . S
C2544 H2530 0.960 . S
C2544 H2531 0.960 . S
C2544 C2543 1.524 . S
C2545 C2542 1.403 . S
C2545 C2546 1.392 . S
C2545 C2549 1.495 . S
C2546 C2545 1.392 . S
C2546 C2547 1.385 . S
C2546 C2548 1.478 . S
C2547 H2541 0.930 . S
C2547 C2543 1.400 . S
C2547 C2546 1.385 . S
C2548 C2546 1.478 . S
C2548 C2550 1.381 . S
C2548 C2554 1.383 . S
C2549 C2545 1.495 . S
C2549 H2555 0.959 . S
C2549 H2556 0.961 . S
C2549 H2557 0.960 . S
C2550 C2548 1.381 . S
C2550 C2551 1.394 . S
C2550 H2558 0.930 . S
C2551 C2550 1.394 . S
C2551 C2552 1.383 . S
C2551 H2559 0.929 . S
C2552 C2551 1.383 . S
C2552 C2553 1.377 . S
C2553 H2537 0.930 . S
C2553 C2552 1.377 . S
C2553 C2554 1.379 . S
C2554 H2538 0.931 . S
C2554 C2548 1.383 . S
C2554 C2553 1.379 . S
H2555 C2549 0.959 . S
H2556 C2549 0.961 . S
H2557 C2549 0.960 . S
H2558 C2550 0.930 . S
H2559 C2551 0.929 . S
C1417 C29 0.495 . S
C1436 C1201 0.501 . S
C1453 C108 0.494 . S
C1472 C821 0.505 . S
C1489 C1252 0.478 . S
C1508 C225 0.478 . S
C1525 C321 0.480 . S
C1544 C1349 0.486 . S
C1561 C372 0.494 . S
C1580 C557 0.505 . S
C1597 C909 0.496 . S
C1616 C489 0.502 . S
C1633 C1017 0.478 . S
C1652 C636 0.476 . S
C1669 C733 0.480 . S
C1688 C1113 0.485 . S
C1705 C196 1.721 . S
C1724 C57 1.704 . S
C1741 C137 1.723 . S
C1760 C293 1.706 . S
C1777 C1076 1.731 . S
C1796 C49 1.717 . S
C1813 C145 1.730 . S
C1832 C997 1.720 . S
C1849 C409 1.732 . S
C1868 C205 1.735 . S
C1885 C929 1.730 . S
C1904 C284 1.719 . S
C1921 C117 1.725 . S
C1940 C20 1.730 . S
C1957 C313 1.682 . S
C1976 C233 1.667 . S
C1993 C900 1.727 . S
C2012 C381 1.736 . S
C2029 C645 1.713 . S
C2048 C469 1.719 . S
C2065 C577 1.711 . S
C2084 C724 1.708 . S
C2101 C1369 1.718 . S
C2120 C460 1.718 . S
C2137 C585 1.708 . S
C2156 C1289 1.705 . S
C2173 C849 1.709 . S
C2192 C673 1.706 . S
C2209 C753 1.719 . S
C2228 C1173 1.708 . S
C2245 C548 1.728 . S
C2264 C497 1.715 . S
C2281 C761 1.733 . S
C2300 C665 1.720 . S
C2317 C812 1.732 . S
C2336 C1193 1.736 . S
C2353 C937 1.720 . S
C2372 C988 1.731 . S
C2389 C1085 1.722 . S
C2408 C401 1.729 . S
C2425 C1105 1.682 . S
C2444 C1025 1.692 . S
C2461 C1261 1.709 . S
C2480 C1164 1.697 . S
C2497 C841 1.714 . S
C2516 C1340 1.717 . S
C2533 C1377 1.735 . S
C2552 C1281 1.738 . S
