# Generated by pormake.
# Topology yfs, (5)-cn, num edge types: 1
# Building blocks:
#     Node 0, Type 0, BuildingBlock: XOMCOT_clean_sbu_1, # of connection points: 5
#     Node 1, Type 0, BuildingBlock: XOMCOT_clean_sbu_1, # of connection points: 5
#     Node 2, Type 0, BuildingBlock: XOMCOT_clean_sbu_1, # of connection points: 5
#     Node 3, Type 0, BuildingBlock: XOMCOT_clean_sbu_1, # of connection points: 5
#     Node 4, Type 0, BuildingBlock: XOMCOT_clean_sbu_1, # of connection points: 5
#     Node 5, Type 0, BuildingBlock: XOMCOT_clean_sbu_1, # of connection points: 5
#     Node 6, Type 0, BuildingBlock: XOMCOT_clean_sbu_1, # of connection points: 5
#     Node 7, Type 0, BuildingBlock: XOMCOT_clean_sbu_1, # of connection points: 5
#     Node 8, Type 0, BuildingBlock: XOMCOT_clean_sbu_1, # of connection points: 5
#     Node 9, Type 0, BuildingBlock: XOMCOT_clean_sbu_1, # of connection points: 5
#     Node 10, Type 0, BuildingBlock: XOMCOT_clean_sbu_1, # of connection points: 5
#     Node 11, Type 0, BuildingBlock: XOMCOT_clean_sbu_1, # of connection points: 5
#     Node 12, Type 0, BuildingBlock: XOMCOT_clean_sbu_1, # of connection points: 5
#     Node 13, Type 0, BuildingBlock: XOMCOT_clean_sbu_1, # of connection points: 5
#     Node 14, Type 0, BuildingBlock: XOMCOT_clean_sbu_1, # of connection points: 5
#     Node 15, Type 0, BuildingBlock: XOMCOT_clean_sbu_1, # of connection points: 5
#     Node 16, Type 0, BuildingBlock: XOMCOT_clean_sbu_1, # of connection points: 5
#     Node 17, Type 0, BuildingBlock: XOMCOT_clean_sbu_1, # of connection points: 5
#     Node 18, Type 0, BuildingBlock: XOMCOT_clean_sbu_1, # of connection points: 5
#     Node 19, Type 0, BuildingBlock: XOMCOT_clean_sbu_1, # of connection points: 5
#     Node 20, Type 0, BuildingBlock: XOMCOT_clean_sbu_1, # of connection points: 5
#     Node 21, Type 0, BuildingBlock: XOMCOT_clean_sbu_1, # of connection points: 5
#     Node 22, Type 0, BuildingBlock: XOMCOT_clean_sbu_1, # of connection points: 5
#     Node 23, Type 0, BuildingBlock: XOMCOT_clean_sbu_1, # of connection points: 5
#     Node 24, Type 0, BuildingBlock: XOMCOT_clean_sbu_1, # of connection points: 5
#     Node 25, Type 0, BuildingBlock: XOMCOT_clean_sbu_1, # of connection points: 5
#     Node 26, Type 0, BuildingBlock: XOMCOT_clean_sbu_1, # of connection points: 5
#     Node 27, Type 0, BuildingBlock: XOMCOT_clean_sbu_1, # of connection points: 5
#     Node 28, Type 0, BuildingBlock: XOMCOT_clean_sbu_1, # of connection points: 5
#     Node 29, Type 0, BuildingBlock: XOMCOT_clean_sbu_1, # of connection points: 5
#     Node 30, Type 0, BuildingBlock: XOMCOT_clean_sbu_1, # of connection points: 5
#     Node 31, Type 0, BuildingBlock: XOMCOT_clean_sbu_1, # of connection points: 5
#     Edge 32, Type (0, 0), BuildingBlock: OJICUG_clean_linker_0, # of connection points: 2
#     Edge 33, Type (0, 0), BuildingBlock: OJICUG_clean_linker_0, # of connection points: 2
#     Edge 34, Type (0, 0), BuildingBlock: OJICUG_clean_linker_0, # of connection points: 2
#     Edge 35, Type (0, 0), BuildingBlock: OJICUG_clean_linker_0, # of connection points: 2
#     Edge 36, Type (0, 0), BuildingBlock: OJICUG_clean_linker_0, # of connection points: 2
#     Edge 37, Type (0, 0), BuildingBlock: OJICUG_clean_linker_0, # of connection points: 2
#     Edge 38, Type (0, 0), BuildingBlock: OJICUG_clean_linker_0, # of connection points: 2
#     Edge 39, Type (0, 0), BuildingBlock: OJICUG_clean_linker_0, # of connection points: 2
#     Edge 40, Type (0, 0), BuildingBlock: OJICUG_clean_linker_0, # of connection points: 2
#     Edge 41, Type (0, 0), BuildingBlock: OJICUG_clean_linker_0, # of connection points: 2
#     Edge 42, Type (0, 0), BuildingBlock: OJICUG_clean_linker_0, # of connection points: 2
#     Edge 43, Type (0, 0), BuildingBlock: OJICUG_clean_linker_0, # of connection points: 2
#     Edge 44, Type (0, 0), BuildingBlock: OJICUG_clean_linker_0, # of connection points: 2
#     Edge 45, Type (0, 0), BuildingBlock: OJICUG_clean_linker_0, # of connection points: 2
#     Edge 46, Type (0, 0), BuildingBlock: OJICUG_clean_linker_0, # of connection points: 2
#     Edge 47, Type (0, 0), BuildingBlock: OJICUG_clean_linker_0, # of connection points: 2
#     Edge 48, Type (0, 0), BuildingBlock: OJICUG_clean_linker_0, # of connection points: 2
#     Edge 49, Type (0, 0), BuildingBlock: OJICUG_clean_linker_0, # of connection points: 2
#     Edge 50, Type (0, 0), BuildingBlock: OJICUG_clean_linker_0, # of connection points: 2
#     Edge 51, Type (0, 0), BuildingBlock: OJICUG_clean_linker_0, # of connection points: 2
#     Edge 52, Type (0, 0), BuildingBlock: OJICUG_clean_linker_0, # of connection points: 2
#     Edge 53, Type (0, 0), BuildingBlock: OJICUG_clean_linker_0, # of connection points: 2
#     Edge 54, Type (0, 0), BuildingBlock: OJICUG_clean_linker_0, # of connection points: 2
#     Edge 55, Type (0, 0), BuildingBlock: OJICUG_clean_linker_0, # of connection points: 2
#     Edge 56, Type (0, 0), BuildingBlock: OJICUG_clean_linker_0, # of connection points: 2
#     Edge 57, Type (0, 0), BuildingBlock: OJICUG_clean_linker_0, # of connection points: 2
#     Edge 58, Type (0, 0), BuildingBlock: OJICUG_clean_linker_0, # of connection points: 2
#     Edge 59, Type (0, 0), BuildingBlock: OJICUG_clean_linker_0, # of connection points: 2
#     Edge 60, Type (0, 0), BuildingBlock: OJICUG_clean_linker_0, # of connection points: 2
#     Edge 61, Type (0, 0), BuildingBlock: OJICUG_clean_linker_0, # of connection points: 2
#     Edge 62, Type (0, 0), BuildingBlock: OJICUG_clean_linker_0, # of connection points: 2
#     Edge 63, Type (0, 0), BuildingBlock: OJICUG_clean_linker_0, # of connection points: 2
#     Edge 64, Type (0, 0), BuildingBlock: OJICUG_clean_linker_0, # of connection points: 2
#     Edge 65, Type (0, 0), BuildingBlock: OJICUG_clean_linker_0, # of connection points: 2
#     Edge 66, Type (0, 0), BuildingBlock: OJICUG_clean_linker_0, # of connection points: 2
#     Edge 67, Type (0, 0), BuildingBlock: OJICUG_clean_linker_0, # of connection points: 2
#     Edge 68, Type (0, 0), BuildingBlock: OJICUG_clean_linker_0, # of connection points: 2
#     Edge 69, Type (0, 0), BuildingBlock: OJICUG_clean_linker_0, # of connection points: 2
#     Edge 70, Type (0, 0), BuildingBlock: OJICUG_clean_linker_0, # of connection points: 2
#     Edge 71, Type (0, 0), BuildingBlock: OJICUG_clean_linker_0, # of connection points: 2
#     Edge 72, Type (0, 0), BuildingBlock: OJICUG_clean_linker_0, # of connection points: 2
#     Edge 73, Type (0, 0), BuildingBlock: OJICUG_clean_linker_0, # of connection points: 2
#     Edge 74, Type (0, 0), BuildingBlock: OJICUG_clean_linker_0, # of connection points: 2
#     Edge 75, Type (0, 0), BuildingBlock: OJICUG_clean_linker_0, # of connection points: 2
#     Edge 76, Type (0, 0), BuildingBlock: OJICUG_clean_linker_0, # of connection points: 2
#     Edge 77, Type (0, 0), BuildingBlock: OJICUG_clean_linker_0, # of connection points: 2
#     Edge 78, Type (0, 0), BuildingBlock: OJICUG_clean_linker_0, # of connection points: 2
#     Edge 79, Type (0, 0), BuildingBlock: OJICUG_clean_linker_0, # of connection points: 2
#     Edge 80, Type (0, 0), BuildingBlock: OJICUG_clean_linker_0, # of connection points: 2
#     Edge 81, Type (0, 0), BuildingBlock: OJICUG_clean_linker_0, # of connection points: 2
#     Edge 82, Type (0, 0), BuildingBlock: OJICUG_clean_linker_0, # of connection points: 2
#     Edge 83, Type (0, 0), BuildingBlock: OJICUG_clean_linker_0, # of connection points: 2
#     Edge 84, Type (0, 0), BuildingBlock: OJICUG_clean_linker_0, # of connection points: 2
#     Edge 85, Type (0, 0), BuildingBlock: OJICUG_clean_linker_0, # of connection points: 2
#     Edge 86, Type (0, 0), BuildingBlock: OJICUG_clean_linker_0, # of connection points: 2
#     Edge 87, Type (0, 0), BuildingBlock: OJICUG_clean_linker_0, # of connection points: 2
#     Edge 88, Type (0, 0), BuildingBlock: OJICUG_clean_linker_0, # of connection points: 2
#     Edge 89, Type (0, 0), BuildingBlock: OJICUG_clean_linker_0, # of connection points: 2
#     Edge 90, Type (0, 0), BuildingBlock: OJICUG_clean_linker_0, # of connection points: 2
#     Edge 91, Type (0, 0), BuildingBlock: OJICUG_clean_linker_0, # of connection points: 2
#     Edge 92, Type (0, 0), BuildingBlock: OJICUG_clean_linker_0, # of connection points: 2
#     Edge 93, Type (0, 0), BuildingBlock: OJICUG_clean_linker_0, # of connection points: 2
#     Edge 94, Type (0, 0), BuildingBlock: OJICUG_clean_linker_0, # of connection points: 2
#     Edge 95, Type (0, 0), BuildingBlock: OJICUG_clean_linker_0, # of connection points: 2
#     Edge 96, Type (0, 0), BuildingBlock: OJICUG_clean_linker_0, # of connection points: 2
#     Edge 97, Type (0, 0), BuildingBlock: OJICUG_clean_linker_0, # of connection points: 2
#     Edge 98, Type (0, 0), BuildingBlock: OJICUG_clean_linker_0, # of connection points: 2
#     Edge 99, Type (0, 0), BuildingBlock: OJICUG_clean_linker_0, # of connection points: 2
#     Edge 100, Type (0, 0), BuildingBlock: OJICUG_clean_linker_0, # of connection points: 2
#     Edge 101, Type (0, 0), BuildingBlock: OJICUG_clean_linker_0, # of connection points: 2
#     Edge 102, Type (0, 0), BuildingBlock: OJICUG_clean_linker_0, # of connection points: 2
#     Edge 103, Type (0, 0), BuildingBlock: OJICUG_clean_linker_0, # of connection points: 2
#     Edge 104, Type (0, 0), BuildingBlock: OJICUG_clean_linker_0, # of connection points: 2
#     Edge 105, Type (0, 0), BuildingBlock: OJICUG_clean_linker_0, # of connection points: 2
#     Edge 106, Type (0, 0), BuildingBlock: OJICUG_clean_linker_0, # of connection points: 2
#     Edge 107, Type (0, 0), BuildingBlock: OJICUG_clean_linker_0, # of connection points: 2
#     Edge 108, Type (0, 0), BuildingBlock: OJICUG_clean_linker_0, # of connection points: 2
#     Edge 109, Type (0, 0), BuildingBlock: OJICUG_clean_linker_0, # of connection points: 2
#     Edge 110, Type (0, 0), BuildingBlock: OJICUG_clean_linker_0, # of connection points: 2
#     Edge 111, Type (0, 0), BuildingBlock: OJICUG_clean_linker_0, # of connection points: 2
# Relax obj value: 0.557
# Max RMSD: 0.262
# Mean RMSD: 0.262
data_MOF--net-yfs--node1-XOMCOT_clean_sbu_1--edge1-OJICUG_clean_linker_0
_symmetry_space_group_name_H-M    P1
_symmetry_Int_Tables_number       1
_symmetry_cell_setting            triclinic
loop_
_symmetry_equiv_pos_as_xyz
'x, y, z'
_cell_length_a     32.599977
_cell_length_b     32.618446
_cell_length_c     65.620706
_cell_angle_alpha  89.971354
_cell_angle_beta   89.933463
_cell_angle_gamma 90.203766
loop_
_atom_site_label
_atom_site_type_symbol
_atom_site_fract_x
_atom_site_fract_y
_atom_site_fract_z
_atom_type_partial_charge
C0 C 0.37888 0.05944 0.17907 0.0
C1 C 0.41235 0.05081 0.16706 0.0
N2 N 0.44304 0.07648 0.17224 0.0
N3 N 0.38802 0.09038 0.19188 0.0
C4 C 0.42789 0.09916 0.18778 0.0
H5 H 0.3485 0.04657 0.17723 0.0
Co6 Co 0.34482 0.11764 0.2053 0.0
C7 C 0.36991 0.18332 0.1756 0.0
O8 O 0.40782 0.18152 0.18211 0.0
N9 N 0.30004 0.14263 0.21761 0.0
C10 C 0.24144 0.17655 0.22011 0.0
C11 C 0.26557 0.15294 0.20759 0.0
C12 C 0.29546 0.15864 0.23646 0.0
N13 N 0.26072 0.18074 0.23814 0.0
O14 O 0.34515 0.07787 0.22689 0.0
H15 H 0.25972 0.14606 0.19173 0.0
H16 H 0.31858 0.15666 0.24824 0.0
O17 O 0.34274 0.15917 0.18313 0.0
C18 C 0.32883 0.04256 0.22835 0.0
O19 O 0.30874 0.02712 0.21279 0.0
N20 N 0.38149 0.15055 0.22106 0.0
C21 C 0.43307 0.19891 0.24526 0.0
C22 C 0.43717 0.15612 0.24494 0.0
C23 C 0.41122 0.13256 0.2327 0.0
C24 C 0.37577 0.19199 0.22215 0.0
C25 C 0.40131 0.21658 0.23389 0.0
H26 H 0.41573 0.09976 0.23227 0.0
H27 H 0.35124 0.20652 0.21381 0.0
H28 H 0.44487 0.12368 0.19496 0.0
H29 H 0.41253 0.03028 0.15411 0.0
H30 H 0.21362 0.19224 0.21569 0.0
H31 H 0.46089 0.14093 0.25363 0.0
H32 H 0.39699 0.24943 0.23321 0.0
C33 C 0.19713 0.13492 0.43333 0.0
C34 C 0.20473 0.1647 0.41887 0.0
N35 N 0.16919 0.17347 0.40954 0.0
N36 N 0.15651 0.12614 0.43398 0.0
C37 C 0.14105 0.14876 0.4184 0.0
H38 H 0.22045 0.11993 0.44227 0.0
Co39 Co 0.12822 0.08621 0.45045 0.0
C40 C 0.04403 0.0926 0.43035 0.0
O41 O 0.02565 0.10557 0.44691 0.0
N42 N 0.10135 0.04455 0.46536 0.0
C43 C 0.08978 0.98404 0.4801 0.0
C44 C 0.11667 0.00666 0.46829 0.0
C45 C 0.06489 0.04386 0.47525 0.0
N46 N 0.05728 0.00779 0.48457 0.0
O47 O 0.1744 0.08376 0.47013 0.0
H48 H 0.14599 0.99643 0.46253 0.0
H49 H 0.04479 0.06981 0.47643 0.0
O50 O 0.08267 0.0855 0.43046 0.0
C51 C 0.19366 0.11186 0.47993 0.0
O52 O 0.18523 0.1506 0.47636 0.0
N53 N 0.10313 0.12807 0.46714 0.0
C54 C 0.06411 0.18519 0.49203 0.0
C55 C 0.06695 0.19152 0.47105 0.0
C56 C 0.08633 0.16261 0.4589 0.0
C57 C 0.10246 0.12307 0.48796 0.0
C58 C 0.0824 0.15089 0.50065 0.0
H59 H 0.08487 0.16721 0.4428 0.0
H60 H 0.11617 0.09645 0.49497 0.0
H61 H 0.10948 0.14741 0.41346 0.0
H62 H 0.2343 0.17785 0.41507 0.0
H63 H 0.09457 0.95311 0.48555 0.0
H64 H 0.05214 0.21756 0.46393 0.0
H65 H 0.08021 0.14503 0.51687 0.0
C66 C 0.10468 0.93998 0.68559 0.0
C67 C 0.07583 0.94717 0.67067 0.0
N68 N 0.06632 0.91119 0.66186 0.0
N69 N 0.11221 0.89928 0.68701 0.0
C70 C 0.09006 0.88329 0.67141 0.0
H71 H 0.11962 0.96352 0.69447 0.0
Co72 Co 0.14994 0.871 0.70449 0.0
C73 C 0.13791 0.78592 0.68641 0.0
O74 O 0.11963 0.77137 0.7027 0.0
N75 N 0.18996 0.84452 0.72023 0.0
C76 C 0.24921 0.83501 0.73631 0.0
C77 C 0.22706 0.86114 0.72408 0.0
C78 C 0.19066 0.80786 0.7299 0.0
N79 N 0.22597 0.80164 0.74009 0.0
O80 O 0.15346 0.91832 0.72305 0.0
H81 H 0.23699 0.8909 0.71867 0.0
H82 H 0.16526 0.78669 0.73028 0.0
O83 O 0.14969 0.82344 0.68578 0.0
C84 C 0.12584 0.93846 0.7326 0.0
O85 O 0.08688 0.93064 0.72914 0.0
N86 N 0.10617 0.84895 0.72144 0.0
C87 C 0.04724 0.81171 0.74632 0.0
C88 C 0.03976 0.81792 0.72562 0.0
C89 C 0.06953 0.8362 0.71349 0.0
C90 C 0.11176 0.84679 0.74219 0.0
C91 C 0.08333 0.82698 0.7548 0.0
H92 H 0.06371 0.83634 0.69752 0.0
H93 H 0.13923 0.85898 0.74916 0.0
H94 H 0.09024 0.85117 0.66747 0.0
H95 H 0.06334 0.97669 0.66648 0.0
H96 H 0.27936 0.84088 0.74258 0.0
H97 H 0.01241 0.80556 0.71846 0.0
H98 H 0.09005 0.82256 0.77081 0.0
C99 C 0.31471 0.86759 0.92989 0.0
C100 C 0.30684 0.83499 0.91714 0.0
N101 N 0.33304 0.80452 0.92168 0.0
N102 N 0.34564 0.85813 0.94264 0.0
C103 C 0.35537 0.81894 0.93758 0.0
H104 H 0.30129 0.89775 0.92864 0.0
Co105 Co 0.37318 0.9004 0.95715 0.0
C106 C 0.44016 0.87748 0.92736 0.0
O107 O 0.43939 0.83924 0.93348 0.0
N108 N 0.39925 0.94397 0.97051 0.0
C109 C 0.43706 0.0003 0.9737 0.0
C110 C 0.41193 0.97824 0.96091 0.0
C111 C 0.41546 0.94678 0.98945 0.0
N112 N 0.43998 0.98003 0.99155 0.0
O113 O 0.33224 0.89933 0.97863 0.0
H114 H 0.40579 0.98516 0.94508 0.0
H115 H 0.41185 0.92323 1.00094 0.0
O116 O 0.4154 0.90353 0.93522 0.0
C117 C 0.29607 0.91367 0.98001 0.0
O118 O 0.27979 0.93265 0.96435 0.0
N119 N 0.4044 0.86216 0.97252 0.0
C120 C 0.44952 0.80858 0.99692 0.0
C121 C 0.40667 0.80554 0.99594 0.0
C122 C 0.38477 0.83234 0.98353 0.0
C123 C 0.44592 0.86683 0.97424 0.0
C124 C 0.46895 0.84031 0.98612 0.0
H125 H 0.3519 0.82846 0.98248 0.0
H126 H 0.46169 0.89132 0.96634 0.0
H127 H 0.38004 0.80191 0.9445 0.0
H128 H 0.28624 0.83534 0.90421 0.0
H129 H 0.45448 0.02735 0.96953 0.0
H130 H 0.3902 0.78182 1.00414 0.0
H131 H 0.50198 0.84378 0.98595 0.0
C132 C 0.42521 0.92346 0.32756 0.0
C133 C 0.45602 0.93307 0.34108 0.0
N134 N 0.44503 0.9195 0.35967 0.0
N135 N 0.39494 0.90272 0.33728 0.0
C136 C 0.40733 0.90279 0.35702 0.0
H137 H 0.42531 0.93186 0.31169 0.0
Co138 Co 0.34611 0.87732 0.32687 0.0
C139 C 0.37363 0.81359 0.35726 0.0
O140 O 0.41144 0.81467 0.35027 0.0
N141 N 0.2979 0.85323 0.31721 0.0
C142 C 0.24226 0.81385 0.31708 0.0
C143 C 0.26631 0.83967 0.32866 0.0
C144 C 0.2913 0.83701 0.29855 0.0
N145 N 0.25869 0.81148 0.29825 0.0
O146 O 0.34279 0.91639 0.30499 0.0
H147 H 0.26319 0.84504 0.34485 0.0
H148 H 0.31235 0.84072 0.28591 0.0
O149 O 0.34649 0.83725 0.34955 0.0
C150 C 0.33858 0.95512 0.30515 0.0
O151 O 0.33719 0.97472 0.32262 0.0
N152 N 0.37726 0.8412 0.30961 0.0
C153 C 0.4243 0.7872 0.28612 0.0
C154 C 0.42458 0.82937 0.28205 0.0
C155 C 0.40107 0.85573 0.29397 0.0
C156 C 0.37201 0.79975 0.31151 0.0
C157 C 0.39589 0.77245 0.30048 0.0
H158 H 0.40222 0.88775 0.29023 0.0
H159 H 0.34941 0.78717 0.32181 0.0
H160 H 0.38949 0.88959 0.36927 0.0
H161 H 0.48431 0.94892 0.33744 0.0
H162 H 0.21712 0.79521 0.32267 0.0
H163 H 0.44377 0.84237 0.27022 0.0
H164 H 0.39313 0.74027 0.30418 0.0
C165 C 0.31485 0.17856 0.58006 0.0
C166 C 0.30535 0.20868 0.59394 0.0
N167 N 0.32127 0.19809 0.61208 0.0
N168 N 0.3381 0.14944 0.58905 0.0
C169 C 0.33905 0.16126 0.60885 0.0
H170 H 0.30468 0.17828 0.56444 0.0
Co171 Co 0.36373 0.10232 0.57732 0.0
C172 C 0.42675 0.12647 0.60899 0.0
O173 O 0.42601 0.16476 0.60272 0.0
N174 N 0.38772 0.05536 0.56625 0.0
C175 C 0.42459 -0.00159 0.56466 0.0
C176 C 0.39969 0.0221 0.57683 0.0
C177 C 0.40408 0.05033 0.54749 0.0
N178 N 0.42801 0.01674 0.5463 0.0
O179 O 0.32425 0.10309 0.55521 0.0
H180 H 0.39353 0.01717 0.59285 0.0
H181 H 0.4012 0.07277 0.53543 0.0
O182 O 0.40364 0.09971 0.60036 0.0
C183 C 0.30044 0.07523 0.54837 0.0
O184 O 0.30009 0.03892 0.55704 0.0
N185 N 0.40077 0.13557 0.56135 0.0
C186 C 0.45615 0.18108 0.53754 0.0
C187 C 0.41377 0.18498 0.53478 0.0
C188 C 0.38678 0.16216 0.5468 0.0
C189 C 0.4421 0.12888 0.56283 0.0
C190 C 0.4701 0.15171 0.5515 0.0
H191 H 0.35469 0.16582 0.54388 0.0
H192 H 0.45403 0.10527 0.57269 0.0
H193 H 0.35341 0.1436 0.62074 0.0
H194 H 0.28811 0.23625 0.59081 0.0
H195 H 0.4417 0.97182 0.56958 0.0
H196 H 0.40131 0.20602 0.52365 0.0
H197 H 0.50243 0.14708 0.55435 0.0
C198 C 0.06424 0.07031 0.83029 0.0
C199 C 0.03495 0.06275 0.84495 0.0
N200 N 0.04657 0.0814 0.86229 0.0
N201 N 0.09391 0.09494 0.83797 0.0
C202 C 0.08306 0.0991 0.85783 0.0
H203 H 0.06385 0.05746 0.81518 0.0
Co204 Co 0.14164 0.11724 0.82506 0.0
C205 C 0.11873 0.18647 0.85287 0.0
O206 O 0.08063 0.18495 0.84632 0.0
N207 N 0.18948 0.13801 0.81307 0.0
C208 C 0.24756 0.17336 0.81081 0.0
C209 C 0.22313 0.14993 0.82341 0.0
C210 C 0.19515 0.15261 0.79399 0.0
N211 N 0.22933 0.17587 0.79242 0.0
O212 O 0.13965 0.07432 0.80489 0.0
H213 H 0.22764 0.14522 0.83957 0.0
H214 H 0.17254 0.14967 0.78201 0.0
O215 O 0.14513 0.16093 0.84599 0.0
C216 C 0.16688 0.04949 0.79854 0.0
O217 O 0.20373 0.05021 0.80662 0.0
N218 N 0.10947 0.15187 0.80745 0.0
C219 C 0.06323 0.20396 0.7825 0.0
C220 C 0.05847 0.16134 0.78135 0.0
C221 C 0.08167 0.13599 0.79394 0.0
C222 C 0.11757 0.19308 0.80692 0.0
C223 C 0.09444 0.21954 0.79502 0.0
H224 H 0.077 0.10361 0.79249 0.0
H225 H 0.14214 0.20614 0.81585 0.0
H226 H 0.10139 0.11534 0.8689 0.0
H227 H 0.00747 0.04447 0.84298 0.0
H228 H 0.27433 0.19066 0.81549 0.0
H229 H 0.03608 0.14754 0.77127 0.0
H230 H 0.10002 0.2521 0.79657 0.0
C231 C 0.17427 0.81671 0.08003 0.0
C232 C 0.18347 0.78571 0.09348 0.0
N233 N 0.17104 0.79706 0.11217 0.0
N234 N 0.15483 0.84744 0.08993 0.0
C235 C 0.15554 0.83518 0.10968 0.0
H236 H 0.18195 0.81632 0.06408 0.0
Co237 Co 0.12996 0.8963 0.07949 0.0
C238 C 0.0675 0.87077 0.11183 0.0
O239 O 0.06768 0.83243 0.10565 0.0
N240 N 0.10645 0.94444 0.0696 0.0
C241 C 0.06903 0.00111 0.06837 0.0
C242 C 0.09331 0.97676 0.08056 0.0
C243 C 0.09141 0.95071 0.05068 0.0
N244 N 0.06724 0.98409 0.04966 0.0
O245 O 0.16879 0.89861 0.05704 0.0
H246 H 0.09818 0.98052 0.09675 0.0
H247 H 0.0953 0.92923 0.03828 0.0
O248 O 0.09046 0.89725 0.10285 0.0
C249 C 0.2077 0.90229 0.05694 0.0
O250 O 0.2276 0.90385 0.07432 0.0
N251 N 0.09245 0.86517 0.06283 0.0
C252 C 0.03659 0.82225 0.03828 0.0
C253 C 0.07876 0.82011 0.03452 0.0
C254 C 0.10601 0.84173 0.04687 0.0
C255 C 0.05114 0.87076 0.06522 0.0
C256 C 0.0229 0.84904 0.05353 0.0
H257 H 0.13793 0.83984 0.043 0.0
H258 H 0.03937 0.8927 0.07601 0.0
H259 H 0.14347 0.85335 0.12205 0.0
H260 H 0.19807 0.75695 0.08969 0.0
H261 H 0.05117 0.02713 0.0734 0.0
H262 H 0.09085 0.80127 0.02235 0.0
H263 H 0.99066 0.85239 0.05707 0.0
C264 C 0.60626 0.95083 0.84712 0.0
C265 C 0.57815 0.95763 0.86246 0.0
N266 N 0.5696 0.92153 0.87145 0.0
N267 N 0.61436 0.91027 0.84567 0.0
C268 C 0.59335 0.89401 0.86162 0.0
H269 H 0.62013 0.97454 0.83791 0.0
Co270 Co 0.65088 0.88223 0.82741 0.0
C271 C 0.63698 0.7967 0.84515 0.0
O272 O 0.61627 0.78359 0.82931 0.0
N273 N 0.68982 0.8561 0.8109 0.0
C274 C 0.74691 0.84821 0.79279 0.0
C275 C 0.72543 0.87409 0.8054 0.0
C276 C 0.69084 0.81885 0.80183 0.0
N277 N 0.7249 0.8135 0.79043 0.0
O278 O 0.65415 0.93027 0.80916 0.0
H279 H 0.73476 0.90459 0.80996 0.0
H280 H 0.6665 0.79658 0.80292 0.0
O281 O 0.6507 0.83361 0.84567 0.0
C282 C 0.62681 0.95068 0.79956 0.0
O283 O 0.58775 0.94344 0.80311 0.0
N284 N 0.60609 0.86155 0.81084 0.0
C285 C 0.54406 0.82851 0.78647 0.0
C286 C 0.53772 0.83487 0.80724 0.0
C287 C 0.56902 0.85089 0.81912 0.0
C288 C 0.611 0.85894 0.79006 0.0
C289 C 0.5809 0.84119 0.77769 0.0
H290 H 0.56367 0.85115 0.83512 0.0
H291 H 0.63877 0.86973 0.78282 0.0
H292 H 0.59377 0.8618 0.86537 0.0
H293 H 0.5653 0.98696 0.86669 0.0
H294 H 0.77585 0.85508 0.78543 0.0
H295 H 0.50986 0.82426 0.81463 0.0
H296 H 0.58678 0.83646 0.76161 0.0
C297 C 0.80461 0.85794 0.60203 0.0
C298 C 0.79427 0.82619 0.61491 0.0
N299 N 0.82296 0.79687 0.61319 0.0
N300 N 0.83976 0.84901 0.59217 0.0
C301 C 0.84949 0.81095 0.59892 0.0
H302 H 0.78914 0.88715 0.60102 0.0
Co303 Co 0.86736 0.89061 0.5775 0.0
C304 C 0.93625 0.86835 0.60635 0.0
O305 O 0.93628 0.83041 0.59982 0.0
N306 N 0.89292 0.93404 0.56378 0.0
C307 C 0.92779 0.99208 0.56001 0.0
C308 C 0.90447 0.9689 0.57317 0.0
C309 C 0.90804 0.93746 0.54463 0.0
N310 N 0.93067 0.9719 0.54215 0.0
O311 O 0.82531 0.88858 0.55672 0.0
H312 H 0.89846 0.97577 0.58902 0.0
H313 H 0.90482 0.91384 0.53316 0.0
O314 O 0.91043 0.89407 0.59908 0.0
C315 C 0.80215 0.91689 0.54997 0.0
O316 O 0.80425 0.95369 0.55803 0.0
N317 N 0.89828 0.85204 0.56207 0.0
C318 C 0.94346 0.79861 0.53749 0.0
C319 C 0.90089 0.79378 0.53966 0.0
C320 C 0.87893 0.82069 0.55209 0.0
C321 C 0.93952 0.85781 0.55951 0.0
C322 C 0.96252 0.83149 0.54752 0.0
H323 H 0.84628 0.81602 0.55383 0.0
H324 H 0.95514 0.88304 0.56687 0.0
H325 H 0.87609 0.79397 0.59413 0.0
H326 H 0.7698 0.82641 0.62608 0.0
H327 H 0.94399 0.02003 0.56386 0.0
H328 H 0.8847 0.76899 0.53216 0.0
H329 H 0.99538 0.83621 0.54691 0.0
C330 C 0.92669 0.07319 0.32529 0.0
C331 C 0.95735 0.06368 0.33889 0.0
N332 N 0.94633 0.07744 0.35742 0.0
N333 N 0.89661 0.09414 0.33491 0.0
C334 C 0.90882 0.09414 0.35466 0.0
H335 H 0.92667 0.06441 0.30947 0.0
Co336 Co 0.84761 0.11885 0.32466 0.0
C337 C 0.87463 0.18251 0.35527 0.0
O338 O 0.91204 0.18268 0.34775 0.0
N339 N 0.79907 0.14191 0.31514 0.0
C340 C 0.74284 0.17999 0.31451 0.0
C341 C 0.76743 0.15551 0.32646 0.0
C342 C 0.79203 0.15667 0.29624 0.0
N343 N 0.75903 0.1814 0.2956 0.0
O344 O 0.84502 0.0803 0.30246 0.0
H345 H 0.76454 0.1511 0.34274 0.0
H346 H 0.81306 0.15265 0.28363 0.0
O347 O 0.84751 0.15843 0.34768 0.0
C348 C 0.83938 0.04172 0.30245 0.0
O349 O 0.83592 0.02207 0.31985 0.0
N350 N 0.87816 0.15622 0.3076 0.0
C351 C 0.92157 0.21201 0.28318 0.0
C352 C 0.92466 0.16976 0.27982 0.0
C353 C 0.90277 0.14253 0.29212 0.0
C354 C 0.8713 0.19745 0.30935 0.0
C355 C 0.89323 0.22568 0.29774 0.0
H356 H 0.90555 0.11049 0.28871 0.0
H357 H 0.8486 0.2091 0.31981 0.0
H358 H 0.89085 0.10713 0.36686 0.0
H359 H 0.98551 0.04772 0.33534 0.0
H360 H 0.71754 0.19853 0.31985 0.0
H361 H 0.94464 0.15761 0.26811 0.0
H362 H 0.889 0.25791 0.30097 0.0
C363 C 0.67902 0.17169 0.08473 0.0
C364 C 0.68746 0.20273 0.09827 0.0
N365 N 0.67026 0.19315 0.11629 0.0
N366 N 0.65524 0.14284 0.09376 0.0
C367 C 0.65291 0.15588 0.11335 0.0
H368 H 0.69015 0.17075 0.06929 0.0
Co369 Co 0.63013 0.09516 0.08197 0.0
C370 C 0.56603 0.11882 0.11307 0.0
O371 O 0.56626 0.157 0.10662 0.0
N372 N 0.60639 0.04771 0.07081 0.0
C373 C 0.56787 0.99146 0.0694 0.0
C374 C 0.59353 0.01474 0.08146 0.0
C375 C 0.58986 0.04274 0.05207 0.0
N376 N 0.56483 0.00973 0.05103 0.0
O377 O 0.67043 0.09621 0.06023 0.0
H378 H 0.59934 0.00997 0.09751 0.0
H379 H 0.59312 0.06508 0.03998 0.0
O380 O 0.58965 0.0924 0.10466 0.0
C381 C 0.69438 0.06938 0.05271 0.0
O382 O 0.69441 0.03201 0.06019 0.0
N383 N 0.5937 0.12794 0.06557 0.0
C384 C 0.5399 0.17129 0.04014 0.0
C385 C 0.58242 0.17522 0.03793 0.0
C386 C 0.60855 0.15379 0.05085 0.0
C387 C 0.55226 0.12129 0.06669 0.0
C388 C 0.52502 0.14315 0.05457 0.0
H389 H 0.64074 0.15783 0.0484 0.0
H390 H 0.53969 0.09822 0.07673 0.0
H391 H 0.63788 0.13878 0.12529 0.0
H392 H 0.70477 0.23031 0.09497 0.0
H393 H 0.54987 0.96539 0.07441 0.0
H394 H 0.59571 0.19525 0.02653 0.0
H395 H 0.49252 0.13859 0.05709 0.0
C396 C 0.61387 0.06733 0.67589 0.0
C397 C 0.58132 0.0594 0.66312 0.0
N398 N 0.55064 0.08525 0.66784 0.0
N399 N 0.60416 0.09809 0.68868 0.0
C400 C 0.56485 0.10746 0.68379 0.0
H401 H 0.64398 0.05365 0.6749 0.0
Co402 Co 0.64609 0.12331 0.70408 0.0
C403 C 0.62491 0.19278 0.67589 0.0
O404 O 0.58639 0.19068 0.6815 0.0
N405 N 0.68978 0.14674 0.71838 0.0
C406 C 0.74934 0.17859 0.72284 0.0
C407 C 0.72574 0.15637 0.70944 0.0
C408 C 0.69283 0.16193 0.73751 0.0
N409 N 0.72825 0.18272 0.74039 0.0
O410 O 0.64255 0.07984 0.72405 0.0
H411 H 0.73318 0.14985 0.6937 0.0
H412 H 0.66845 0.16012 0.74868 0.0
O413 O 0.65103 0.16767 0.68338 0.0
C414 C 0.67008 0.05706 0.73182 0.0
O415 O 0.70809 0.05991 0.72527 0.0
N416 N 0.60794 0.1541 0.71991 0.0
C417 C 0.5542 0.19895 0.74452 0.0
C418 C 0.55005 0.15629 0.74263 0.0
C419 C 0.57693 0.13457 0.73013 0.0
C420 C 0.61359 0.19532 0.7225 0.0
C421 C 0.58702 0.2182 0.73445 0.0
H422 H 0.57209 0.10202 0.72831 0.0
H423 H 0.63892 0.211 0.71522 0.0
H424 H 0.54741 0.13153 0.69099 0.0
H425 H 0.58167 0.0388 0.6502 0.0
H426 H 0.77829 0.19336 0.71935 0.0
H427 H 0.52556 0.13983 0.75025 0.0
H428 H 0.59146 0.25107 0.73494 0.0
C429 C 0.69735 0.8645 0.43504 0.0
C430 C 0.70519 0.83309 0.42152 0.0
N431 N 0.66942 0.8215 0.4131 0.0
N432 N 0.6565 0.87164 0.43599 0.0
C433 C 0.64119 0.8469 0.42123 0.0
H434 H 0.72039 0.88069 0.44373 0.0
Co435 Co 0.62729 0.90943 0.45304 0.0
C436 C 0.54321 0.90887 0.43279 0.0
O437 O 0.52421 0.90085 0.44995 0.0
N438 N 0.59974 0.94893 0.46887 0.0
C439 C 0.58603 0.00965 0.48279 0.0
C440 C 0.61229 0.98826 0.47022 0.0
C441 C 0.5657 0.94734 0.48071 0.0
N442 N 0.55675 0.98362 0.48943 0.0
O443 O 0.67291 0.91053 0.47308 0.0
H444 H 0.6391 0.00051 0.4626 0.0
H445 H 0.5475 0.92011 0.48307 0.0
O446 O 0.58247 0.91167 0.43246 0.0
C447 C 0.69343 0.88216 0.48193 0.0
O448 O 0.68636 0.84359 0.47723 0.0
N449 N 0.60152 0.8653 0.46822 0.0
C450 C 0.56257 0.8036 0.49057 0.0
C451 C 0.56184 0.80322 0.46934 0.0
C452 C 0.58095 0.83441 0.45853 0.0
C453 C 0.60315 0.86514 0.48918 0.0
C454 C 0.58351 0.83475 0.50066 0.0
H455 H 0.5764 0.83448 0.44244 0.0
H456 H 0.61796 0.88982 0.49735 0.0
H457 H 0.60992 0.84801 0.41593 0.0
H458 H 0.73474 0.81927 0.4186 0.0
H459 H 0.58883 0.04161 0.487 0.0
H460 H 0.54465 0.77998 0.46114 0.0
H461 H 0.58363 0.83633 0.51715 0.0
C462 C 0.87789 0.93386 0.17614 0.0
C463 C 0.9114 0.94114 0.16386 0.0
N464 N 0.94173 0.91557 0.16942 0.0
N465 N 0.8866 0.90392 0.18959 0.0
C466 C 0.92628 0.89427 0.18545 0.0
H467 H 0.84771 0.94682 0.17406 0.0
Co468 Co 0.84318 0.8769 0.20352 0.0
C469 C 0.86894 0.80908 0.17525 0.0
O470 O 0.90673 0.81059 0.18198 0.0
N471 N 0.79847 0.85134 0.21625 0.0
C472 C 0.74249 0.81268 0.21882 0.0
C473 C 0.76514 0.8377 0.20616 0.0
C474 C 0.79436 0.83597 0.23529 0.0
N475 N 0.76147 0.81087 0.23702 0.0
O476 O 0.8424 0.91828 0.22443 0.0
H477 H 0.7595 0.84288 0.19013 0.0
H478 H 0.81704 0.84024 0.24714 0.0
O479 O 0.84209 0.83397 0.18223 0.0
C480 C 0.82911 0.95481 0.22543 0.0
O481 O 0.81242 0.97183 0.20932 0.0
N482 N 0.88016 0.84646 0.22004 0.0
C483 C 0.9323 0.80253 0.2457 0.0
C484 C 0.93512 0.84534 0.24441 0.0
C485 C 0.90908 0.86664 0.23136 0.0
C486 C 0.87547 0.80502 0.22215 0.0
C487 C 0.90129 0.78258 0.23466 0.0
H488 H 0.91294 0.89944 0.23004 0.0
H489 H 0.8516 0.78884 0.21401 0.0
H490 H 0.94298 0.87024 0.19309 0.0
H491 H 0.91185 0.96075 0.15054 0.0
H492 H 0.71627 0.79434 0.21435 0.0
H493 H 0.95827 0.86219 0.25279 0.0
H494 H 0.89799 0.74955 0.23475 0.0
C495 C 0.80043 0.14249 0.94049 0.0
C496 C 0.79232 0.17158 0.92579 0.0
N497 N 0.82748 0.18002 0.91595 0.0
N498 N 0.84102 0.13376 0.94072 0.0
C499 C 0.85592 0.15587 0.92476 0.0
H500 H 0.77739 0.12778 0.9498 0.0
Co501 Co 0.87012 0.09451 0.95709 0.0
C502 C 0.95386 0.10247 0.93652 0.0
O503 O 0.97291 0.11571 0.95285 0.0
N504 N 0.89776 0.05368 0.97194 0.0
C505 C 0.90921 0.99384 0.98722 0.0
C506 C 0.88254 0.01571 0.9751 0.0
C507 C 0.93405 0.05378 0.98196 0.0
N508 N 0.94143 0.01817 0.99166 0.0
O509 O 0.82425 0.09038 0.97666 0.0
H510 H 0.8533 0.00501 0.96938 0.0
H511 H 0.95411 0.07998 0.98301 0.0
O512 O 0.91532 0.09484 0.9371 0.0
C513 C 0.80428 0.11694 0.987 0.0
O514 O 0.81173 0.15621 0.98429 0.0
N515 N 0.89456 0.1371 0.97367 0.0
C516 C 0.93582 0.19391 0.99806 0.0
C517 C 0.9313 0.20062 0.97716 0.0
C518 C 0.91094 0.17181 0.96526 0.0
C519 C 0.89597 0.13218 0.99448 0.0
C520 C 0.91743 0.15963 1.00687 0.0
H521 H 0.9115 0.17648 0.94913 0.0
H522 H 0.88241 0.10554 1.00163 0.0
H523 H 0.88734 0.15464 0.91957 0.0
H524 H 0.76262 0.18435 0.92213 0.0
H525 H 0.90439 0.9631 0.99299 0.0
H526 H 0.94614 0.22648 0.96979 0.0
H527 H 0.92082 0.15337 0.02299 0.0
C528 C 0.89585 0.54457 0.68851 0.0
C529 C 0.92474 0.53742 0.6736 0.0
N530 N 0.93146 0.57275 0.6636 0.0
N531 N 0.8857 0.58479 0.68875 0.0
C532 C 0.90644 0.6003 0.67252 0.0
H533 H 0.8824 0.52124 0.69814 0.0
Co534 Co 0.84482 0.61118 0.70511 0.0
C535 C 0.84892 0.69236 0.68191 0.0
O536 O 0.86652 0.71241 0.69685 0.0
N537 N 0.80179 0.63538 0.71979 0.0
C538 C 0.74532 0.64085 0.73866 0.0
C539 C 0.7688 0.61485 0.72693 0.0
C540 C 0.79693 0.67406 0.72677 0.0
N541 N 0.76354 0.67796 0.73875 0.0
O542 O 0.84809 0.56722 0.72618 0.0
H543 H 0.76319 0.58251 0.72452 0.0
H544 H 0.81885 0.69835 0.72434 0.0
O545 O 0.83938 0.6544 0.68388 0.0
C546 C 0.88013 0.554 0.73538 0.0
O547 O 0.9165 0.56713 0.7296 0.0
N548 N 0.88527 0.64197 0.72079 0.0
C549 C 0.94032 0.68671 0.7448 0.0
C550 C 0.94871 0.67916 0.72428 0.0
C551 C 0.92094 0.65687 0.71259 0.0
C552 C 0.87866 0.64677 0.74138 0.0
C553 C 0.9051 0.67003 0.7535 0.0
H554 H 0.92757 0.65441 0.69671 0.0
H555 H 0.85239 0.63291 0.74873 0.0
H556 H 0.90371 0.63156 0.66728 0.0
H557 H 0.93866 0.50824 0.66997 0.0
H558 H 0.71835 0.63246 0.74737 0.0
H559 H 0.97554 0.69239 0.71701 0.0
H560 H 0.89786 0.67526 0.7694 0.0
C561 C 0.70113 0.6429 0.93255 0.0
C562 C 0.70691 0.67203 0.91762 0.0
N563 N 0.67025 0.68073 0.90941 0.0
N564 N 0.66063 0.63458 0.93474 0.0
C565 C 0.64318 0.65648 0.9194 0.0
H566 H 0.72545 0.62817 0.94095 0.0
Co567 Co 0.63653 0.59461 0.95273 0.0
C568 C 0.55101 0.59173 0.93439 0.0
O569 O 0.53322 0.60304 0.95138 0.0
N570 N 0.61422 0.55246 0.96914 0.0
C571 C 0.60822 0.49235 0.98512 0.0
C572 C 0.6323 0.51585 0.97225 0.0
C573 C 0.5791 0.55013 0.9801 0.0
N574 N 0.57486 0.5144 0.99014 0.0
O575 O 0.68353 0.59874 0.97183 0.0
H576 H 0.66144 0.507 0.96574 0.0
H577 H 0.5573 0.5746 0.9814 0.0
O578 O 0.59014 0.58835 0.93347 0.0
C579 C 0.69943 0.63114 0.97962 0.0
O580 O 0.68692 0.66732 0.97338 0.0
N581 N 0.60859 0.63582 0.96877 0.0
C582 C 0.56322 0.68927 0.99289 0.0
C583 C 0.56458 0.69421 0.97178 0.0
C584 C 0.58741 0.66728 0.96003 0.0
C585 C 0.6098 0.63304 0.98971 0.0
C586 C 0.58682 0.6591 1.00205 0.0
H587 H 0.58477 0.67022 0.94389 0.0
H588 H 0.62695 0.60901 0.99713 0.0
H589 H 0.61124 0.65427 0.91517 0.0
H590 H 0.736 0.68481 0.91274 0.0
H591 H 0.61521 0.46193 0.99067 0.0
H592 H 0.54625 0.71746 0.96432 0.0
H593 H 0.58629 0.65471 0.01841 0.0
C594 C 0.60054 0.45091 0.1887 0.0
C595 C 0.57182 0.45825 0.17373 0.0
N596 N 0.56651 0.42356 0.16302 0.0
N597 N 0.61233 0.41115 0.18816 0.0
C598 C 0.59229 0.39619 0.17157 0.0
H599 H 0.61259 0.47397 0.19884 0.0
Co600 Co 0.65139 0.38248 0.20493 0.0
C601 C 0.64177 0.29787 0.18568 0.0
O602 O 0.62514 0.28134 0.20194 0.0
N603 N 0.69204 0.35529 0.22006 0.0
C604 C 0.75143 0.34364 0.23575 0.0
C605 C 0.72973 0.37075 0.22377 0.0
C606 C 0.69199 0.31848 0.22957 0.0
N607 N 0.72722 0.31098 0.23951 0.0
O608 O 0.65553 0.42889 0.22424 0.0
H609 H 0.74038 0.40034 0.21847 0.0
H610 H 0.66603 0.2981 0.23016 0.0
O611 O 0.65129 0.33604 0.18548 0.0
C612 C 0.62966 0.44787 0.23547 0.0
O613 O 0.59027 0.43989 0.23362 0.0
N614 N 0.6084 0.35886 0.22157 0.0
C615 C 0.55106 0.3172 0.24539 0.0
C616 C 0.54374 0.32411 0.22474 0.0
C617 C 0.57276 0.34476 0.2131 0.0
C618 C 0.61358 0.35585 0.24231 0.0
C619 C 0.58585 0.334 0.25443 0.0
H620 H 0.5676 0.34575 0.19702 0.0
H621 H 0.64052 0.36852 0.24958 0.0
H622 H 0.59524 0.3651 0.16613 0.0
H623 H 0.5568 0.48714 0.17066 0.0
H624 H 0.78192 0.34836 0.24185 0.0
H625 H 0.51717 0.31081 0.21728 0.0
H626 H 0.59228 0.32904 0.27043 0.0
C627 C 0.81808 0.3156 0.45144 0.0
C628 C 0.8125 0.28478 0.43735 0.0
N629 N 0.83571 0.29336 0.42094 0.0
N630 N 0.84584 0.34315 0.44437 0.0
C631 C 0.85386 0.32962 0.42523 0.0
H632 H 0.80253 0.31731 0.46594 0.0
Co633 Co 0.86806 0.39077 0.45753 0.0
C634 C 0.94005 0.36786 0.43117 0.0
O635 O 0.93862 0.32994 0.43796 0.0
N636 N 0.88853 0.43833 0.46969 0.0
C637 C 0.92277 0.49688 0.47267 0.0
C638 C 0.90088 0.47214 0.45959 0.0
C639 C 0.90134 0.44412 0.48906 0.0
N640 N 0.92382 0.47864 0.4911 0.0
O641 O 0.8242 0.38939 0.47737 0.0
H642 H 0.89735 0.47672 0.44336 0.0
H643 H 0.89764 0.42146 0.50098 0.0
O644 O 0.91324 0.39389 0.4372 0.0
C645 C 0.79975 0.41732 0.48336 0.0
O646 O 0.80101 0.45367 0.47475 0.0
N647 N 0.90127 0.35808 0.47553 0.0
C648 C 0.95147 0.30794 0.4995 0.0
C649 C 0.90869 0.3037 0.50004 0.0
C650 C 0.88429 0.32879 0.48788 0.0
C651 C 0.94241 0.36607 0.47709 0.0
C652 C 0.96801 0.34102 0.48852 0.0
H653 H 0.85177 0.32399 0.48847 0.0
H654 H 0.95619 0.39137 0.46891 0.0
H655 H 0.87246 0.34607 0.41433 0.0
H656 H 0.79385 0.25756 0.43935 0.0
H657 H 0.94009 0.52394 0.46839 0.0
H658 H 0.89406 0.28002 0.50907 0.0
H659 H 0.00071 0.34643 0.48756 0.0
C660 C 0.89001 0.445 0.85175 0.0
C661 C 0.91851 0.45179 0.86686 0.0
N662 N 0.92911 0.41533 0.8747 0.0
N663 N 0.88417 0.4042 0.84911 0.0
C664 C 0.90673 0.38739 0.86435 0.0
H665 H 0.8739 0.46877 0.84359 0.0
Co666 Co 0.84536 0.3783 0.8313 0.0
C667 C 0.85493 0.29286 0.84962 0.0
O668 O 0.8742 0.27859 0.83359 0.0
N669 N 0.80383 0.35403 0.81546 0.0
C670 C 0.74547 0.34609 0.79831 0.0
C671 C 0.76856 0.37255 0.81006 0.0
C672 C 0.80099 0.31614 0.80721 0.0
N673 N 0.76627 0.31069 0.79641 0.0
O674 O 0.84625 0.42653 0.81242 0.0
H675 H 0.76056 0.40367 0.81408 0.0
H676 H 0.82469 0.29341 0.80822 0.0
O677 O 0.84291 0.3303 0.85007 0.0
C678 C 0.87826 0.44384 0.80481 0.0
O679 O 0.91479 0.43202 0.81086 0.0
N680 N 0.88749 0.3542 0.81416 0.0
C681 C 0.94466 0.31894 0.78787 0.0
C682 C 0.95339 0.32348 0.80855 0.0
C683 C 0.92453 0.34109 0.82141 0.0
C684 C 0.88056 0.35297 0.79347 0.0
C685 C 0.90814 0.33432 0.78017 0.0
H686 H 0.93153 0.34113 0.83728 0.0
H687 H 0.85312 0.36598 0.78697 0.0
H688 H 0.90703 0.35502 0.86788 0.0
H689 H 0.92947 0.48129 0.87214 0.0
H690 H 0.71649 0.35299 0.79107 0.0
H691 H 0.98133 0.31106 0.81499 0.0
H692 H 0.90063 0.33123 0.76416 0.0
C693 C 0.79782 0.63539 0.09945 0.0
C694 C 0.79075 0.66345 0.11472 0.0
N695 N 0.82714 0.6744 0.12268 0.0
N696 N 0.83868 0.63019 0.09688 0.0
C697 C 0.85514 0.65213 0.11238 0.0
H698 H 0.77426 0.61977 0.09084 0.0
Co699 Co 0.86522 0.59391 0.07828 0.0
C700 C 0.95068 0.60166 0.09667 0.0
O701 O 0.96512 0.62064 0.08056 0.0
N702 N 0.88928 0.55445 0.06148 0.0
C703 C 0.89486 0.49684 0.0436 0.0
C704 C 0.86968 0.51972 0.05599 0.0
C705 C 0.92655 0.55164 0.05255 0.0
N706 N 0.93056 0.51724 0.04137 0.0
O707 O 0.81783 0.59651 0.05922 0.0
H708 H 0.83874 0.51183 0.06054 0.0
H709 H 0.94997 0.57482 0.0536 0.0
O710 O 0.913 0.58998 0.09724 0.0
C711 C 0.80091 0.62898 0.05211 0.0
O712 O 0.81159 0.66497 0.05943 0.0
N713 N 0.88991 0.63821 0.0625 0.0
C714 C 0.92356 0.70041 0.03834 0.0
C715 C 0.91968 0.70541 0.05934 0.0
C716 C 0.90316 0.67409 0.07109 0.0
C717 C 0.89149 0.63431 0.04162 0.0
C718 C 0.90922 0.66454 0.02932 0.0
H719 H 0.90413 0.67848 0.08713 0.0
H720 H 0.87902 0.60756 0.03413 0.0
H721 H 0.88747 0.65236 0.11591 0.0
H722 H 0.76112 0.67466 0.11959 0.0
H723 H 0.88705 0.468 0.03641 0.0
H724 H 0.93174 0.73249 0.06685 0.0
H725 H 0.9121 0.65974 1.01305 0.0
C726 C 0.62753 0.55988 0.36081 0.0
C727 C 0.59446 0.55096 0.37317 0.0
N728 N 0.56267 0.57448 0.36737 0.0
N729 N 0.61698 0.58896 0.34722 0.0
C730 C 0.57679 0.59615 0.35121 0.0
H731 H 0.65836 0.54833 0.36268 0.0
Co732 Co 0.65752 0.61694 0.33193 0.0
C733 C 0.63296 0.68278 0.36178 0.0
O734 O 0.59429 0.67845 0.35686 0.0
N735 N 0.69951 0.64381 0.31771 0.0
C736 C 0.75585 0.6815 0.31405 0.0
C737 C 0.73462 0.65557 0.32681 0.0
C738 C 0.70084 0.66156 0.29907 0.0
N739 N 0.73418 0.6859 0.29671 0.0
O740 O 0.65633 0.5735 0.31166 0.0
H741 H 0.74275 0.64813 0.34235 0.0
H742 H 0.67649 0.6588 0.28796 0.0
O743 O 0.66021 0.66077 0.35299 0.0
C744 C 0.68343 0.55443 0.30137 0.0
O745 O 0.72251 0.56195 0.30459 0.0
N746 N 0.6173 0.6457 0.31645 0.0
C747 C 0.56078 0.68684 0.29176 0.0
C748 C 0.56113 0.64391 0.29275 0.0
C749 C 0.58891 0.62413 0.30544 0.0
C750 C 0.61875 0.68743 0.31484 0.0
C751 C 0.59054 0.70849 0.30296 0.0
H752 H 0.58667 0.59127 0.30677 0.0
H753 H 0.64213 0.70489 0.32266 0.0
H754 H 0.55872 0.61902 0.34345 0.0
H755 H 0.59504 0.53164 0.38658 0.0
H756 H 0.78344 0.69829 0.31794 0.0
H757 H 0.53954 0.62543 0.28423 0.0
H758 H 0.59161 0.74161 0.30326 0.0
C759 C 0.69466 0.36674 0.59951 0.0
C760 C 0.70255 0.33846 0.61462 0.0
N761 N 0.66663 0.32742 0.6231 0.0
N762 N 0.65368 0.37218 0.59762 0.0
C763 C 0.63807 0.34969 0.6132 0.0
H764 H 0.71782 0.38253 0.5907 0.0
Co765 Co 0.62441 0.40785 0.57958 0.0
C766 C 0.5395 0.39249 0.59772 0.0
O767 O 0.52668 0.37159 0.58188 0.0
N768 N 0.59675 0.44608 0.56334 0.0
C769 C 0.58454 0.50375 0.54634 0.0
C770 C 0.61209 0.48328 0.55854 0.0
C771 C 0.55952 0.44502 0.55426 0.0
N772 N 0.55163 0.47933 0.54355 0.0
O773 O 0.67208 0.4118 0.56097 0.0
H774 H 0.64183 0.49447 0.56332 0.0
H775 H 0.53909 0.41904 0.55472 0.0
O776 O 0.57624 0.40672 0.5982 0.0
C777 C 0.69293 0.3836 0.5522 0.0
O778 O 0.68614 0.34498 0.5569 0.0
N779 N 0.60434 0.36267 0.56299 0.0
C780 C 0.57245 0.30086 0.53813 0.0
C781 C 0.5783 0.29417 0.55891 0.0
C782 C 0.5939 0.32536 0.57104 0.0
C783 C 0.60231 0.36782 0.5422 0.0
C784 C 0.58516 0.33786 0.52959 0.0
H785 H 0.59402 0.31969 0.58701 0.0
H786 H 0.61297 0.39582 0.53513 0.0
H787 H 0.60578 0.34832 0.6168 0.0
H788 H 0.73242 0.32721 0.61907 0.0
H789 H 0.58908 0.53359 0.53946 0.0
H790 H 0.56776 0.26607 0.56607 0.0
H791 H 0.58087 0.34397 0.51351 0.0
C792 C 0.10701 0.44391 0.35204 0.0
C793 C 0.07963 0.44935 0.36782 0.0
N794 N 0.06854 0.41219 0.37485 0.0
N795 N 0.1118 0.40343 0.34827 0.0
C796 C 0.08995 0.3853 0.36341 0.0
H797 H 0.12278 0.4683 0.34405 0.0
Co798 Co 0.14833 0.37834 0.32917 0.0
C799 C 0.13819 0.29172 0.34607 0.0
O800 O 0.11705 0.27912 0.33027 0.0
N801 N 0.1878 0.35473 0.31213 0.0
C802 C 0.24588 0.34631 0.29481 0.0
C803 C 0.22369 0.37264 0.30698 0.0
C804 C 0.18922 0.31741 0.30323 0.0
N805 N 0.22381 0.31168 0.2924 0.0
O806 O 0.14728 0.42775 0.31117 0.0
H807 H 0.23297 0.40306 0.3117 0.0
H808 H 0.16491 0.29511 0.30407 0.0
O809 O 0.15118 0.32888 0.34697 0.0
C810 C 0.11538 0.44625 0.30438 0.0
O811 O 0.079 0.43559 0.31128 0.0
N812 N 0.10405 0.35625 0.31251 0.0
C813 C 0.04309 0.325 0.2869 0.0
C814 C 0.03652 0.32804 0.30784 0.0
C815 C 0.06722 0.34351 0.32032 0.0
C816 C 0.10916 0.3563 0.29167 0.0
C817 C 0.07963 0.33963 0.27867 0.0
H818 H 0.0615 0.3422 0.33628 0.0
H819 H 0.13652 0.36893 0.28478 0.0
H820 H 0.08917 0.3526 0.36591 0.0
H821 H 0.06927 0.47844 0.3738 0.0
H822 H 0.27536 0.35261 0.28785 0.0
H823 H 0.00871 0.316 0.31472 0.0
H824 H 0.08558 0.3376 0.26245 0.0
C825 C 0.30177 0.35772 0.09931 0.0
C826 C 0.29436 0.32944 0.11448 0.0
N827 N 0.33063 0.3179 0.12231 0.0
N828 N 0.34268 0.36254 0.09662 0.0
C829 C 0.35891 0.3401 0.11199 0.0
H830 H 0.2784 0.37368 0.09078 0.0
Co831 Co 0.36982 0.39845 0.07781 0.0
C832 C 0.45515 0.39195 0.09648 0.0
O833 O 0.47007 0.37287 0.08054 0.0
N834 N 0.39504 0.43726 0.06076 0.0
C835 C 0.40409 0.49552 0.04367 0.0
C836 C 0.37775 0.47348 0.05598 0.0
C837 C 0.43204 0.43823 0.05139 0.0
N838 N 0.43814 0.47301 0.04073 0.0
O839 O 0.32223 0.39591 0.05876 0.0
H840 H 0.34775 0.48314 0.06109 0.0
H841 H 0.45389 0.41361 0.05182 0.0
O842 O 0.4173 0.40269 0.09685 0.0
C843 C 0.30466 0.36333 0.05203 0.0
O844 O 0.31522 0.32749 0.05953 0.0
N845 N 0.3939 0.35373 0.06231 0.0
C846 C 0.42683 0.29122 0.03835 0.0
C847 C 0.42411 0.28695 0.05945 0.0
C848 C 0.40797 0.31848 0.0711 0.0
C849 C 0.39437 0.35684 0.04138 0.0
C850 C 0.41167 0.32644 0.02916 0.0
H851 H 0.40997 0.31489 0.08718 0.0
H852 H 0.3816 0.38329 0.0338 0.0
H853 H 0.39119 0.3398 0.11557 0.0
H854 H 0.26458 0.31853 0.11941 0.0
H855 H 0.39827 0.52538 0.0371 0.0
H856 H 0.43695 0.26041 0.06706 0.0
H857 H 0.41383 0.33075 1.01283 0.0
C858 C 0.42597 0.56833 0.8322 0.0
C859 C 0.45686 0.55822 0.84549 0.0
N860 N 0.44808 0.57476 0.86371 0.0
N861 N 0.39821 0.59265 0.84162 0.0
C862 C 0.4117 0.59383 0.86114 0.0
H863 H 0.42409 0.55756 0.81671 0.0
Co864 Co 0.35049 0.61793 0.83036 0.0
C865 C 0.37452 0.68155 0.86204 0.0
O866 O 0.41268 0.68151 0.85551 0.0
N867 N 0.30306 0.64132 0.81958 0.0
C868 C 0.2449 0.67619 0.81733 0.0
C869 C 0.26951 0.65321 0.82999 0.0
C870 C 0.29745 0.65591 0.80052 0.0
N871 N 0.26301 0.67843 0.79888 0.0
O872 O 0.351 0.5785 0.80819 0.0
H873 H 0.26474 0.64805 0.84611 0.0
H874 H 0.31981 0.65258 0.78844 0.0
O875 O 0.34801 0.65792 0.85353 0.0
C876 C 0.32358 0.55406 0.80146 0.0
O877 O 0.28741 0.55283 0.81029 0.0
N878 N 0.383 0.6552 0.81416 0.0
C879 C 0.42666 0.71047 0.78943 0.0
C880 C 0.39781 0.72443 0.80369 0.0
C881 C 0.37586 0.69644 0.8155 0.0
C882 C 0.40941 0.64121 0.79951 0.0
C883 C 0.4312 0.66812 0.78701 0.0
H884 H 0.35252 0.70826 0.82556 0.0
H885 H 0.41362 0.60914 0.79683 0.0
H886 H 0.3955 0.60886 0.87336 0.0
H887 H 0.48355 0.53985 0.84201 0.0
H888 H 0.21765 0.69275 0.82185 0.0
H889 H 0.39282 0.75676 0.80634 0.0
H890 H 0.45187 0.65558 0.77571 0.0
C891 C 0.1969 0.63752 0.5958 0.0
C892 C 0.20427 0.66619 0.61081 0.0
N893 N 0.16873 0.67367 0.62045 0.0
N894 N 0.15642 0.62811 0.59524 0.0
C895 C 0.1408 0.64939 0.61125 0.0
H896 H 0.22031 0.62363 0.58647 0.0
Co897 Co 0.12798 0.58866 0.57869 0.0
C898 C 0.04392 0.60431 0.59765 0.0
O899 O 0.03011 0.62494 0.58195 0.0
N900 N 0.10092 0.54718 0.5641 0.0
C901 C 0.08919 0.48898 0.54739 0.0
C902 C 0.11754 0.51109 0.5585 0.0
C903 C 0.06221 0.54572 0.55677 0.0
N904 N 0.05455 0.51123 0.54617 0.0
O905 O 0.17495 0.58403 0.55971 0.0
H906 H 0.14871 0.50198 0.56178 0.0
H907 H 0.04054 0.57036 0.5581 0.0
O908 O 0.08059 0.59018 0.59763 0.0
C909 C 0.19391 0.61112 0.5491 0.0
O910 O 0.18561 0.65016 0.55177 0.0
N911 N 0.10558 0.63057 0.56093 0.0
C912 C 0.06395 0.68477 0.53559 0.0
C913 C 0.07491 0.69638 0.55532 0.0
C914 C 0.09565 0.66892 0.56774 0.0
C915 C 0.10035 0.62176 0.5406 0.0
C916 C 0.078 0.64768 0.52787 0.0
H917 H 0.09985 0.67787 0.58325 0.0
H918 H 0.11167 0.59348 0.53419 0.0
H919 H 0.10897 0.64843 0.61579 0.0
H920 H 0.23369 0.67951 0.61472 0.0
H921 H 0.09433 0.4598 0.53999 0.0
H922 H 0.06421 0.72506 0.56173 0.0
H923 H 0.07044 0.63813 0.51252 0.0
C924 C 0.10349 0.54712 0.18612 0.0
C925 C 0.07435 0.5395 0.1714 0.0
N926 N 0.06445 0.57532 0.16264 0.0
N927 N 0.1106 0.58795 0.18761 0.0
C928 C 0.0879 0.60373 0.17212 0.0
H929 H 0.11906 0.52384 0.19488 0.0
Co930 Co 0.14967 0.61458 0.20516 0.0
C931 C 0.15388 0.69867 0.18486 0.0
O932 O 0.14489 0.71801 0.20177 0.0
N933 N 0.19068 0.63967 0.22135 0.0
C934 C 0.25076 0.65001 0.23681 0.0
C935 C 0.22875 0.62449 0.22401 0.0
C936 C 0.19065 0.67457 0.23252 0.0
N937 N 0.2263 0.68134 0.24224 0.0
O938 O 0.14631 0.56874 0.22536 0.0
H939 H 0.23963 0.59632 0.21724 0.0
H940 H 0.16477 0.69472 0.23405 0.0
O941 O 0.15552 0.65937 0.18466 0.0
C942 C 0.11416 0.55214 0.23316 0.0
O943 O 0.07779 0.56328 0.22655 0.0
N944 N 0.10732 0.64294 0.22023 0.0
C945 C 0.05259 0.68961 0.24299 0.0
C946 C 0.04993 0.68853 0.22177 0.0
C947 C 0.07749 0.66506 0.2107 0.0
C948 C 0.10811 0.64195 0.24122 0.0
C949 C 0.08122 0.66535 0.25288 0.0
H950 H 0.07635 0.66773 0.19449 0.0
H951 H 0.13157 0.62514 0.24925 0.0
H952 H 0.08928 0.63532 0.16726 0.0
H953 H 0.06254 0.50976 0.16697 0.0
H954 H 0.28182 0.6453 0.2421 0.0
H955 H 0.02791 0.70741 0.21374 0.0
H956 H 0.08403 0.66588 0.26933 0.0
C957 C 0.19548 0.34812 0.93426 0.0
C958 C 0.20059 0.3208 0.91848 0.0
N959 N 0.16331 0.31079 0.9112 0.0
N960 N 0.15503 0.35411 0.93776 0.0
C961 C 0.13667 0.33274 0.92254 0.0
H962 H 0.22009 0.36333 0.94232 0.0
Co963 Co 0.1309 0.39232 0.95624 0.0
C964 C 0.04457 0.38361 0.93905 0.0
O965 O 0.03097 0.36331 0.95495 0.0
N966 N 0.10874 0.43355 0.97269 0.0
C967 C 0.10444 0.49075 0.99101 0.0
C968 C 0.12948 0.46719 0.97883 0.0
C969 C 0.07097 0.43787 0.98089 0.0
N970 N 0.06776 0.47186 0.99241 0.0
O971 O 0.17955 0.39056 0.97429 0.0
H972 H 0.1611 0.47375 0.97498 0.0
H973 H 0.04661 0.41584 0.97918 0.0
O974 O 0.08197 0.39593 0.93829 0.0
C975 C 0.19665 0.35874 0.98191 0.0
O976 O 0.1849 0.32215 0.97582 0.0
N977 N 0.10664 0.34966 0.97338 0.0
C978 C 0.06582 0.29427 0.99888 0.0
C979 C 0.07322 0.28463 0.97849 0.0
C980 C 0.09356 0.31256 0.96605 0.0
C981 C 0.10421 0.35658 0.99404 0.0
C982 C 0.08245 0.33015 1.00689 0.0
H983 H 0.09532 0.3048 0.95033 0.0
H984 H 0.11796 0.38349 1.00079 0.0
H985 H 0.10398 0.33267 0.91998 0.0
H986 H 0.22958 0.30994 0.91258 0.0
H987 H 0.11299 0.51879 0.99875 0.0
H988 H 0.06039 0.25708 0.97175 0.0
H989 H 0.0777 0.33824 0.02273 0.0
C990 C 0.38565 0.45081 0.68649 0.0
C991 C 0.41481 0.4584 0.67171 0.0
N992 N 0.42262 0.42304 0.66199 0.0
N993 N 0.37627 0.41034 0.68693 0.0
C994 C 0.39787 0.39504 0.67093 0.0
H995 H 0.37158 0.47406 0.69585 0.0
Co996 Co 0.3372 0.38171 0.7038 0.0
C997 C 0.34531 0.29762 0.6837 0.0
O998 O 0.36154 0.28 0.69972 0.0
N999 N 0.29641 0.35437 0.71904 0.0
C1000 C 0.23708 0.34151 0.73472 0.0
C1001 C 0.25876 0.36939 0.72304 0.0
C1002 C 0.29649 0.31714 0.72814 0.0
N1003 N 0.26126 0.30878 0.73803 0.0
O1004 O 0.33454 0.4279 0.72336 0.0
H1005 H 0.24805 0.3991 0.71806 0.0
H1006 H 0.32246 0.29696 0.7284 0.0
O1007 O 0.3364 0.33586 0.68403 0.0
C1008 C 0.36233 0.44724 0.73331 0.0
O1009 O 0.40121 0.43911 0.7299 0.0
N1010 N 0.3799 0.35745 0.72026 0.0
C1011 C 0.43573 0.31499 0.74435 0.0
C1012 C 0.44328 0.32102 0.72363 0.0
C1013 C 0.41502 0.34212 0.71187 0.0
C1014 C 0.37467 0.35528 0.74105 0.0
C1015 C 0.40166 0.33313 0.75331 0.0
H1016 H 0.42026 0.34247 0.69581 0.0
H1017 H 0.34808 0.36868 0.74824 0.0
H1018 H 0.39625 0.36349 0.66599 0.0
H1019 H 0.42834 0.48784 0.66803 0.0
H1020 H 0.20656 0.34567 0.74087 0.0
H1021 H 0.46938 0.30677 0.71627 0.0
H1022 H 0.39509 0.32888 0.76936 0.0
C1023 C 0.31415 0.6681 0.44793 0.0
C1024 C 0.30808 0.70009 0.4346 0.0
N1025 N 0.33007 0.69278 0.41768 0.0
N1026 N 0.34112 0.64104 0.43989 0.0
C1027 C 0.3478 0.65598 0.42088 0.0
H1028 H 0.29996 0.66565 0.46273 0.0
Co1029 Co 0.36513 0.59382 0.45261 0.0
C1030 C 0.43354 0.61612 0.42332 0.0
O1031 O 0.43364 0.65425 0.42982 0.0
N1032 N 0.38733 0.54701 0.46461 0.0
C1033 C 0.42277 0.48946 0.4679 0.0
C1034 C 0.39999 0.51313 0.45474 0.0
C1035 C 0.40103 0.54239 0.48389 0.0
N1036 N 0.42408 0.50845 0.48613 0.0
O1037 O 0.32342 0.5954 0.47373 0.0
H1038 H 0.39586 0.50772 0.43861 0.0
H1039 H 0.39714 0.56537 0.49561 0.0
O1040 O 0.40785 0.59027 0.43081 0.0
C1041 C 0.29976 0.56805 0.4812 0.0
O1042 O 0.30044 0.53066 0.47378 0.0
N1043 N 0.40028 0.62742 0.46934 0.0
C1044 C 0.45217 0.67678 0.49308 0.0
C1045 C 0.40946 0.68023 0.49455 0.0
C1046 C 0.38427 0.6558 0.48243 0.0
C1047 C 0.44165 0.62039 0.46965 0.0
C1048 C 0.46806 0.6452 0.48091 0.0
H1049 H 0.35185 0.66013 0.48387 0.0
H1050 H 0.45484 0.59571 0.46089 0.0
H1051 H 0.36545 0.64046 0.40934 0.0
H1052 H 0.29047 0.72751 0.43759 0.0
H1053 H 0.4402 0.4625 0.4638 0.0
H1054 H 0.3953 0.70257 0.50449 0.0
H1055 H 0.50069 0.64051 0.47915 0.0
C1056 C 0.21059 0.22178 0.25739 0.0
C1057 C 0.25143 0.2109 0.25345 0.0
H1058 H 0.16977 0.26261 0.27264 0.0
C1059 C 0.28313 0.23271 0.26322 0.0
H1060 H 0.18563 0.20553 0.25006 0.0
C1061 C 0.27412 0.26549 0.27616 0.0
C1062 C 0.23326 0.27691 0.27974 0.0
H1063 H 0.31497 0.22554 0.26024 0.0
H1064 H 0.2991 0.28209 0.28326 0.0
C1065 C 0.20158 0.25432 0.27042 0.0
C1066 C 0.97898 0.94918 0.51524 0.0
C1067 C 0.95945 0.98092 0.52603 0.0
H1068 H 0.02538 0.93283 0.49357 0.0
C1069 C 0.97142 0.02158 0.5222 0.0
H1070 H 0.97096 0.91744 0.51803 0.0
C1071 C 0.00293 0.03032 0.50843 0.0
C1072 C 0.02335 -0.0014 0.49804 0.0
H1073 H 0.95691 0.04668 0.5302 0.0
H1074 H 0.01207 0.06199 0.50652 0.0
C1075 C 0.01063 0.95793 0.50143 0.0
C1076 C 0.28476 0.72579 0.77145 0.0
C1077 C 0.25326 0.70687 0.78279 0.0
H1078 H 0.30068 0.77067 0.74893 0.0
C1079 C 0.21248 0.71845 0.77918 0.0
H1080 H 0.3166 0.71816 0.77407 0.0
C1081 C 0.20343 0.74879 0.76482 0.0
C1082 C 0.23504 0.76846 0.75387 0.0
H1083 H 0.18765 0.70441 0.78767 0.0
H1084 H 0.17176 0.75777 0.76281 0.0
C1085 C 0.27574 0.75631 0.75721 0.0
C1086 C 0.48674 0.95507 0.01867 0.0
C1087 C 0.47 0.98761 1.00731 0.0
H1088 H 0.53062 0.93653 0.04118 0.0
C1089 C 0.48525 0.02741 1.01057 0.0
H1090 H 0.47641 0.92387 1.01631 0.0
C1091 C 0.51667 0.0345 0.02462 0.0
C1092 C 0.5337 0.00196 0.03585 0.0
H1093 H 0.4728 0.0532 1.00228 0.0
H1094 H 0.527 0.0657 0.02692 0.0
C1095 C 0.51813 0.9622 0.0328 0.0
C1096 C 0.20271 0.73214 0.26762 0.0
C1097 C 0.23471 0.71449 0.2562 0.0
H1098 H 0.18525 0.77721 0.28971 0.0
C1099 C 0.27461 0.73011 0.25846 0.0
H1100 H 0.17168 0.72046 0.26653 0.0
C1101 C 0.2823 0.7627 0.2718 0.0
C1102 C 0.25027 0.78019 0.28329 0.0
H1103 H 0.2998 0.71731 0.24982 0.0
H1104 H 0.31356 0.7734 0.27348 0.0
C1105 C 0.21043 0.76452 0.28102 0.0
C1106 C 0.50782 0.03179 0.50551 0.0
C1107 C 0.52328 0.9919 0.50328 0.0
H1108 H 0.4656 0.07108 0.52085 0.0
C1109 C 0.50553 0.96007 0.51487 0.0
H1110 H 0.52044 0.05695 0.49673 0.0
C1111 C 0.47353 0.96802 0.52847 0.0
C1112 C 0.45844 0.00798 0.53091 0.0
H1113 H 0.51689 0.92903 0.51383 0.0
H1114 H 0.46084 0.9429 0.53726 0.0
C1115 C 0.4758 0.03975 0.51914 0.0
C1116 C 0.20536 0.22596 0.76669 0.0
C1117 C 0.23769 0.20659 0.77714 0.0
H1118 H 0.18753 0.27376 0.74612 0.0
C1119 C 0.27792 0.22058 0.7739 0.0
H1120 H 0.17388 0.21651 0.76906 0.0
C1121 C 0.28563 0.25365 0.7609 0.0
C1122 C 0.25323 0.27368 0.75083 0.0
H1123 H 0.30338 0.20637 0.78175 0.0
H1124 H 0.31694 0.26427 0.75926 0.0
C1125 C 0.21305 0.25922 0.75375 0.0
C1126 C 0.01995 0.96138 0.02238 0.0
C1127 C 0.0377 0.99317 0.03396 0.0
H1128 H 0.97547 0.94446 0.99987 0.0
C1129 C 0.02397 0.03345 0.03094 0.0
H1130 H 0.02918 0.92985 0.02458 0.0
C1131 C 0.99295 0.04172 0.01684 0.0
C1132 C 0.97469 0.00982 1.00553 0.0
H1133 H 0.03699 0.05848 0.03964 0.0
H1134 H 0.98249 0.07301 1.01525 0.0
C1135 C 0.98874 0.96961 1.0084 0.0
C1136 C 0.77535 0.77093 0.77194 0.0
C1137 C 0.73452 0.7791 0.77745 0.0
H1138 H 0.81661 0.73229 0.75558 0.0
C1139 C 0.70328 0.75341 0.76983 0.0
H1140 H 0.80025 0.78955 0.77775 0.0
C1141 C 0.71272 0.72038 0.75708 0.0
C1142 C 0.75353 0.71246 0.75152 0.0
H1143 H 0.67141 0.75909 0.77342 0.0
H1144 H 0.68806 0.70132 0.75135 0.0
C1145 C 0.78473 0.73809 0.75913 0.0
C1146 C 0.7827 0.22982 0.26901 0.0
C1147 C 0.75051 0.21186 0.28029 0.0
H1148 H 0.80046 0.27562 0.24725 0.0
C1149 C 0.71049 0.22646 0.27754 0.0
H1150 H 0.81406 0.21989 0.27103 0.0
C1151 C 0.70282 0.25856 0.26397 0.0
C1152 C 0.73511 0.277 0.25297 0.0
H1153 H 0.68522 0.21333 0.28607 0.0
H1154 H 0.67171 0.26967 0.26256 0.0
C1155 C 0.77508 0.26216 0.25557 0.0
C1156 C 0.78769 0.25255 0.77474 0.0
C1157 C 0.75631 0.27609 0.78363 0.0
H1158 H 0.80319 0.20391 0.75426 0.0
C1159 C 0.7153 0.26616 0.77921 0.0
H1160 H 0.81964 0.25959 0.77755 0.0
C1161 C 0.70594 0.23414 0.76578 0.0
C1162 C 0.73744 0.21161 0.75636 0.0
H1163 H 0.69048 0.28348 0.78594 0.0
H1164 H 0.67409 0.22826 0.76211 0.0
C1165 C 0.77835 0.22077 0.76126 0.0
C1166 C 0.7146 0.76517 0.25622 0.0
C1167 C 0.7543 0.78044 0.25261 0.0
H1168 H 0.67689 0.72347 0.2731 0.0
C1169 C 0.78733 0.76331 0.26341 0.0
H1170 H 0.68856 0.77779 0.24817 0.0
C1171 C 0.7808 0.73176 0.27747 0.0
C1172 C 0.74108 0.71656 0.28117 0.0
H1173 H 0.81847 0.77351 0.26065 0.0
H1174 H 0.80698 0.71904 0.28535 0.0
C1175 C 0.70802 0.73369 0.27036 0.0
C1176 C 0.53024 0.46235 1.0066 0.0
C1177 C 0.54159 0.50351 1.00365 0.0
H1178 H 0.48792 0.42037 0.02041 0.0
C1179 C 0.51893 0.53427 1.01363 0.0
H1180 H 0.54676 0.43799 0.99903 0.0
C1181 C 0.48514 0.52425 0.02574 0.0
C1182 C 0.47335 0.48321 0.02841 0.0
H1183 H 0.52735 0.56625 1.01221 0.0
H1184 H 0.46849 0.54865 0.03321 0.0
C1185 C 0.49648 0.4523 0.01885 0.0
C1186 C -0.00207 0.5355 0.5243 0.0
C1187 C 0.01908 0.50308 0.53374 0.0
H1188 H 0.95058 0.55296 0.50341 0.0
C1189 C 0.00615 0.46268 0.53012 0.0
H1190 H 0.00746 0.56699 0.52654 0.0
C1191 C 0.97345 0.45476 0.51693 0.0
C1192 C 0.95327 0.4871 0.5069 0.0
H1193 H 0.02172 0.4372 0.53728 0.0
H1194 H 0.96528 0.42317 0.51391 0.0
C1195 C 0.9655 0.52755 0.51096 0.0
C1196 C 0.02549 0.52483 1.00908 0.0
C1197 C 0.0332 0.48344 1.00477 0.0
H1198 H 0.98627 0.56817 0.02367 0.0
C1199 C 0.00667 0.45334 1.01277 0.0
H1200 H 0.0451 0.54867 1.00294 0.0
C1201 C 0.97307 0.46441 0.02473 0.0
C1202 C 0.96523 0.50582 0.029 0.0
H1203 H 0.01224 0.4211 1.0101 0.0
H1204 H 0.95362 0.44048 0.03089 0.0
C1205 C 0.9918 0.53593 0.02101 0.0
C1206 C 0.4978 0.45348 0.52027 0.0
C1207 C 0.51721 0.48642 0.53027 0.0
H1208 H 0.45252 0.43479 0.49846 0.0
C1209 C 0.50349 0.52643 0.5265 0.0
H1210 H 0.50794 0.42229 0.52265 0.0
C1211 C 0.47176 0.5335 0.51266 0.0
C1212 C 0.45319 0.50068 0.50217 0.0
H1213 H 0.51762 0.55233 0.53408 0.0
H1214 H 0.46301 0.56486 0.50961 0.0
C1215 C 0.46624 0.46058 0.50631 0.0
C1216 C 0.38623 0.25057 0.15941 0.0
C1217 C 0.35832 0.21808 0.16224 0.0
H1218 H 0.39881 0.30819 0.1455 0.0
C1219 C 0.31983 0.22016 0.15271 0.0
H1220 H 0.41589 0.25054 0.16683 0.0
C1221 C 0.31014 0.25347 0.14005 0.0
C1222 C 0.33859 0.28556 0.13687 0.0
H1223 H 0.29756 0.19578 0.15472 0.0
H1224 H 0.28083 0.25342 0.13235 0.0
C1225 C 0.37641 0.28387 0.14707 0.0
C1226 C 0.01411 0.07626 0.37485 0.0
C1227 C 0.97094 0.07844 0.37579 0.0
H1228 H 0.0711 0.07914 0.39119 0.0
C1229 C 0.95242 0.08398 0.39496 0.0
H1230 H 0.02966 0.07258 0.3604 0.0
C1231 C 0.97624 0.08822 0.41254 0.0
C1232 C 0.01932 0.08679 0.41154 0.0
H1233 H 0.91942 0.08517 0.39647 0.0
H1234 H 0.9607 0.09274 0.42695 0.0
C1235 C 0.038 0.08029 0.39251 0.0
C1236 C 0.1749 0.76715 0.65399 0.0
C1237 C 0.14546 0.75791 0.669 0.0
H1238 H 0.2058 0.74714 0.62684 0.0
C1239 C 0.12397 0.72053 0.66771 0.0
H1240 H 0.19207 0.79561 0.65459 0.0
C1241 C 0.13164 0.69306 0.65183 0.0
C1242 C 0.16141 0.70195 0.63697 0.0
H1243 H 0.10105 0.7124 0.67899 0.0
H1244 H 0.11466 0.6645 0.65137 0.0
C1245 C 0.18303 0.73927 0.63823 0.0
C1246 C 0.53966 0.87565 0.89764 0.0
C1247 C 0.53852 0.91263 0.88665 0.0
H1248 H 0.5098 0.83567 0.91869 0.0
C1249 C 0.50505 0.93921 0.88987 0.0
H1250 H 0.56515 0.85475 0.89612 0.0
C1251 C 0.47315 0.9284 0.90328 0.0
C1252 C 0.47382 0.8906 0.91354 0.0
H1253 H 0.50281 0.96783 0.88163 0.0
H1254 H 0.44758 0.94915 0.90524 0.0
C1255 C 0.50772 0.86468 0.91072 0.0
C1256 C 0.32272 0.78262 0.3818 0.0
C1257 C 0.36176 0.7823 0.37263 0.0
H1258 H 0.28181 0.75405 0.40322 0.0
C1259 C 0.3893 0.75102 0.37791 0.0
H1260 H 0.30066 0.80614 0.37797 0.0
C1261 C 0.37831 0.72103 0.39212 0.0
C1262 C 0.33961 0.72166 0.40162 0.0
H1263 H 0.41952 0.7496 0.37107 0.0
H1264 H 0.40071 0.69802 0.39609 0.0
C1265 C 0.31187 0.75276 0.39624 0.0
C1266 C 0.47251 0.14508 0.63822 0.0
C1267 C 0.45531 0.11471 0.62562 0.0
H1268 H 0.51571 0.15959 0.66162 0.0
C1269 C 0.46738 0.07376 0.62846 0.0
H1270 H 0.46371 0.1769 0.63655 0.0
C1271 C 0.49747 0.06379 0.64291 0.0
C1272 C 0.51573 0.09444 0.65503 0.0
H1273 H 0.4547 0.04962 0.61901 0.0
H1274 H 0.50714 0.0322 0.64431 0.0
C1275 C 0.50212 0.13507 0.6528 0.0
C1276 C 0.11484 0.2815 0.88597 0.0
C1277 C 0.15332 0.28093 0.89565 0.0
H1278 H 0.0738 0.25229 0.86513 0.0
C1279 C 0.18092 0.24934 0.89064 0.0
H1280 H 0.09298 0.30559 0.889 0.0
C1281 C 0.16997 0.21879 0.87664 0.0
C1282 C 0.13107 0.21894 0.86744 0.0
H1283 H 0.21063 0.24752 0.89789 0.0
H1284 H 0.19175 0.19471 0.87329 0.0
C1285 C 0.10381 0.25085 0.87215 0.0
C1286 C 0.9963 0.93538 0.14479 0.0
C1287 C 0.97723 0.90544 0.15708 0.0
H1288 H 0.03999 0.94821 0.12107 0.0
C1289 C 0.99058 0.8646 0.15536 0.0
H1290 H 0.9869 0.96711 0.14577 0.0
C1291 C 0.0206 0.85369 0.14107 0.0
C1292 C 0.03858 0.88337 0.12827 0.0
H1293 H 0.97649 0.84058 0.16435 0.0
H1294 H 0.0291 0.82173 0.13975 0.0
C1295 C 0.02681 0.92454 0.13066 0.0
C1296 C 0.68469 0.74652 0.89181 0.0
C1297 C 0.66172 0.71002 0.89344 0.0
H1298 H 0.69452 0.80293 0.8756 0.0
C1299 C 0.63 0.70294 0.8794 0.0
H1300 H 0.70898 0.75309 0.90257 0.0
C1301 C 0.62192 0.73127 0.86389 0.0
C1302 C 0.64493 0.76774 0.8622 0.0
H1303 H 0.6119 0.6751 0.88015 0.0
H1304 H 0.59754 0.72451 0.85319 0.0
C1305 C 0.67618 0.77523 0.87647 0.0
C1306 C 0.03659 0.86667 0.63518 0.0
C1307 C 0.03505 0.90284 0.64676 0.0
H1308 H 0.007 0.82761 0.61372 0.0
C1309 C 0.0011 0.92908 0.6442 0.0
H1310 H 0.06249 0.84615 0.63622 0.0
C1311 C 0.96902 0.9186 0.63086 0.0
C1312 C 0.9701 0.88149 0.62001 0.0
H1313 H -0.00133 0.95709 0.65292 0.0
H1314 H 0.94302 0.93897 0.62942 0.0
C1315 C 0.00456 0.85604 0.62216 0.0
C1316 C 0.89239 0.24102 0.37842 0.0
C1317 C 0.86383 0.2114 0.37194 0.0
H1318 H 0.90594 0.29009 0.39891 0.0
C1319 C 0.82513 0.21006 0.38144 0.0
H1320 H 0.92246 0.24309 0.37145 0.0
C1321 C 0.81556 0.23731 0.39728 0.0
C1322 C 0.8443 0.26678 0.40383 0.0
H1323 H 0.80233 0.18775 0.37678 0.0
H1324 H 0.78564 0.23535 0.40439 0.0
C1325 C 0.88273 0.26838 0.39408 0.0
C1326 C 0.52636 0.06571 0.13289 0.0
C1327 C 0.53793 0.10683 0.12987 0.0
H1328 H 0.48715 0.02373 0.149 0.0
C1329 C 0.52084 0.13706 0.14252 0.0
H1330 H 0.53906 0.04169 0.12343 0.0
C1331 C 0.4916 0.12674 0.15727 0.0
C1332 C 0.47823 0.08595 0.1596 0.0
H1333 H 0.52939 0.16898 0.14074 0.0
H1334 H 0.47803 0.15117 0.16609 0.0
C1335 C 0.49661 0.05543 0.14751 0.0
C1336 C 0.62221 0.29531 0.64914 0.0
C1337 C 0.65886 0.29538 0.63787 0.0
H1338 H 0.58293 0.26317 0.66965 0.0
C1339 C 0.6859 0.26203 0.64014 0.0
H1340 H 0.6011 0.32075 0.6483 0.0
C1341 C 0.67563 0.22878 0.6528 0.0
C1342 C 0.63796 0.22812 0.66321 0.0
H1343 H 0.7143 0.26089 0.63162 0.0
H1344 H 0.69655 0.20316 0.65397 0.0
C1345 C 0.6118 0.26211 0.66148 0.0
C1346 C 0.51304 0.92051 0.37694 0.0
C1347 C 0.46982 0.91898 0.378 0.0
H1348 H 0.57015 0.91833 0.39322 0.0
C1349 C 0.45139 0.91504 0.39728 0.0
H1350 H 0.52849 0.92294 0.36239 0.0
C1351 C 0.47532 0.91208 0.4149 0.0
C1352 C 0.51846 0.91304 0.41384 0.0
H1353 H 0.41837 0.91427 0.39884 0.0
H1354 H 0.45977 0.90891 0.42942 0.0
C1355 C 0.53705 0.91759 0.39463 0.0
C1356 C 0.81848 0.77278 0.15241 0.0
C1357 C 0.85678 0.77418 0.16216 0.0
H1358 H 0.779 0.73999 0.13202 0.0
C1359 C 0.88374 0.74098 0.1598 0.0
H1360 H 0.79693 0.79776 0.15408 0.0
C1361 C 0.87318 0.7076 0.14763 0.0
C1362 C 0.8356 0.70664 0.13719 0.0
H1363 H 0.91319 0.74054 0.16742 0.0
H1364 H 0.89482 0.68269 0.14636 0.0
C1365 C 0.80807 0.73942 0.13995 0.0
C1366 C 0.95776 0.08606 0.89907 0.0
C1367 C 0.97754 0.09625 0.91741 0.0
H1368 H 0.96397 0.07367 0.86722 0.0
C1369 C 0.02051 0.10032 0.9174 0.0
H1370 H 0.9247 0.08284 0.8985 0.0
C1371 C 0.04313 0.09464 0.8995 0.0
C1372 C 0.02343 0.08489 0.88106 0.0
H1373 H 0.03688 0.10784 0.93127 0.0
H1374 H 0.07613 0.0978 0.9002 0.0
C1375 C 0.9804 0.0805 0.88113 0.0
C1376 C 0.79844 0.741 0.63583 0.0
C1377 C 0.83066 0.76536 0.62815 0.0
H1378 H 0.77927 0.69744 0.65865 0.0
C1379 C 0.86959 0.76227 0.63718 0.0
H1380 H 0.76811 0.7431 0.62921 0.0
C1381 C 0.87561 0.73727 0.65422 0.0
C1382 C 0.84317 0.71391 0.66229 0.0
H1383 H 0.89479 0.78113 0.63182 0.0
H1384 H 0.90548 0.737 0.66146 0.0
C1385 C 0.80481 0.71494 0.65259 0.0
C1386 C 0.51701 0.57364 0.87972 0.0
C1387 C 0.47399 0.57588 0.88154 0.0
H1388 H 0.57523 0.57712 0.89488 0.0
C1389 C 0.45687 0.58167 0.90096 0.0
H1390 H 0.5313 0.56977 0.86496 0.0
C1391 C 0.482 0.58611 0.91803 0.0
C1392 C 0.525 0.58487 0.91617 0.0
H1393 H 0.42397 0.58296 0.90301 0.0
H1394 H 0.46753 0.59091 0.9327 0.0
C1395 C 0.54226 0.57811 0.89685 0.0
C1396 C 0.66988 0.26235 0.13226 0.0
C1397 C 0.6659 0.21939 0.13398 0.0
H1398 H 0.66522 0.32083 0.14706 0.0
C1399 C 0.65487 0.20287 0.15302 0.0
H1400 H 0.67769 0.27647 0.11785 0.0
C1401 C 0.64713 0.22843 0.16966 0.0
C1402 C 0.65049 0.27129 0.16784 0.0
H1403 H 0.65202 0.17012 0.15516 0.0
H1404 H 0.63851 0.21441 0.18401 0.0
C1405 C 0.66239 0.28796 0.14899 0.0
C1406 C 0.97435 0.41927 0.40804 0.0
C1407 C 0.9736 0.38028 0.41715 0.0
H1408 H 0.00491 0.45997 0.38734 0.0
C1409 C 0.00573 0.35293 0.41295 0.0
H1410 H 0.95017 0.44114 0.41103 0.0
C1411 C 0.03743 0.36391 0.39967 0.0
C1412 C 0.03777 0.40245 0.39004 0.0
H1413 H 0.00652 0.32283 0.41991 0.0
H1414 H 0.0616 0.34195 0.39696 0.0
C1415 C 0.00602 0.4302 0.39458 0.0
C1416 C 0.81149 0.24529 0.89818 0.0
C1417 C 0.83378 0.20846 0.89934 0.0
H1418 H 0.80109 0.30143 0.88179 0.0
C1419 C 0.86314 0.20019 0.88424 0.0
H1420 H 0.78897 0.25268 0.90973 0.0
C1421 C 0.86988 0.22778 0.86829 0.0
C1422 C 0.8478 0.26471 0.86709 0.0
H1423 H 0.88058 0.17202 0.88458 0.0
H1424 H 0.89263 0.22008 0.85689 0.0
C1425 C 0.81866 0.27333 0.8823 0.0
C1426 C 0.97111 0.56502 0.12906 0.0
C1427 C 0.97881 0.59512 0.11419 0.0
H1428 H 0.99282 0.53476 0.15606 0.0
C1429 C 0.01493 0.61875 0.11573 0.0
H1430 H 0.94366 0.54629 0.1283 0.0
C1431 C 0.04272 0.61243 0.13163 0.0
C1432 C 0.03553 0.58189 0.14629 0.0
H1433 H 0.02184 0.64234 0.10462 0.0
H1434 H 0.07029 0.63099 0.13221 0.0
C1435 C -0.0006 0.55822 0.14484 0.0
C1436 C 0.62196 0.76855 0.39997 0.0
C1437 C 0.66134 0.78629 0.40026 0.0
H1438 H 0.58263 0.72211 0.38801 0.0
C1439 C 0.69247 0.76804 0.38845 0.0
H1440 H 0.59743 0.78062 0.40929 0.0
C1441 C 0.68398 0.73352 0.3763 0.0
C1442 C 0.6442 0.71674 0.37574 0.0
H1443 H 0.72317 0.78075 0.38832 0.0
H1444 H 0.70822 0.72067 0.36701 0.0
C1445 C 0.61352 0.73449 0.38787 0.0
C1446 C 0.47327 0.37783 0.61574 0.0
C1447 C 0.51026 0.40013 0.6147 0.0
H1448 H 0.41646 0.36782 0.63138 0.0
C1449 C 0.51788 0.43034 0.62951 0.0
H1450 H 0.4663 0.35431 0.60461 0.0
C1451 C 0.48889 0.43833 0.64484 0.0
C1452 C 0.45195 0.41589 0.64585 0.0
H1453 H 0.54597 0.44815 0.62913 0.0
H1454 H 0.49565 0.46163 0.6561 0.0
C1455 C 0.44465 0.38545 0.63115 0.0
C1456 C 0.18465 0.24003 0.39274 0.0
C1457 C 0.16217 0.2031 0.39356 0.0
H1458 H 0.19436 0.29749 0.37736 0.0
C1459 C 0.13179 0.19605 0.37881 0.0
H1460 H 0.20794 0.24652 0.40404 0.0
C1461 C 0.12417 0.22495 0.36357 0.0
C1462 C 0.1464 0.262 0.36275 0.0
H1463 H 0.11416 0.16786 0.37888 0.0
H1464 H 0.1006 0.21819 0.35244 0.0
C1465 C 0.17663 0.26934 0.37758 0.0
C1466 C 0.50043 0.43655 0.1453 0.0
C1467 C 0.53852 0.41636 0.14631 0.0
H1468 H 0.44374 0.4443 0.12902 0.0
C1469 C 0.54841 0.38806 0.13098 0.0
H1470 H 0.49171 0.45818 0.15703 0.0
C1471 C 0.52119 0.38028 0.11499 0.0
C1472 C 0.48302 0.40024 0.11395 0.0
H1473 H 0.57752 0.37221 0.13118 0.0
H1474 H 0.53017 0.35837 0.10343 0.0
C1475 C 0.47282 0.42835 0.12937 0.0
C1476 C 0.3831 0.75658 0.90615 0.0
C1477 C 0.34238 0.76985 0.90865 0.0
H1478 H 0.42502 0.71879 0.88954 0.0
C1479 C 0.31171 0.75145 0.89656 0.0
H1480 H 0.40766 0.77019 0.91493 0.0
C1481 C 0.32169 0.7216 0.88194 0.0
C1482 C 0.36271 0.70989 0.87884 0.0
H1483 H 0.28004 0.76081 0.89814 0.0
H1484 H 0.29749 0.70884 0.87257 0.0
C1485 C 0.39313 0.72727 0.89139 0.0
C1486 C 0.97854 0.61791 0.6164 0.0
C1487 C 0.01579 0.59644 0.61502 0.0
H1488 H 0.92249 0.62694 0.63272 0.0
C1489 C 0.0248 0.56681 0.6299 0.0
H1490 H 0.97053 0.64096 0.60522 0.0
C1491 C 0.99689 0.55857 0.64567 0.0
C1492 C 0.95968 0.58016 0.64703 0.0
H1493 H 0.05316 0.54966 0.62925 0.0
H1494 H 0.00468 0.53575 0.657 0.0
C1495 C 0.95096 0.61001 0.63224 0.0
C1496 C 0.16226 0.76635 0.16726 0.0
C1497 C 0.16043 0.72327 0.16603 0.0
H1498 H 0.16802 0.8233 0.15139 0.0
C1499 C 0.16409 0.70475 0.1468 0.0
H1500 H 0.15992 0.7818 0.18181 0.0
C1501 C 0.16859 0.72884 0.1292 0.0
C1502 C 0.1696 0.77204 0.13041 0.0
H1503 H 0.16267 0.67171 0.14528 0.0
H1504 H 0.17006 0.71355 0.11459 0.0
C1505 C 0.16681 0.79033 0.14974 0.0
C1506 C 0.99404 0.43158 0.89262 0.0
C1507 C 0.95826 0.40759 0.89076 0.0
H1508 H 0.04999 0.4424 0.90909 0.0
C1509 C 0.95173 0.37541 0.9046 0.0
H1510 H 6e-05 0.45628 0.88199 0.0
C1511 C 0.97994 0.36773 0.92014 0.0
C1512 C 0.01577 0.39162 0.92204 0.0
H1513 H 0.9244 0.35657 0.90363 0.0
H1514 H 0.97366 0.34287 0.93065 0.0
C1515 C 0.02275 0.42342 0.908 0.0
C1516 C 0.33311 0.20509 0.64924 0.0
C1517 C 0.32406 0.22303 0.63029 0.0
H1518 H 0.34695 0.21432 0.68072 0.0
C1519 C 0.32064 0.26608 0.62925 0.0
H1520 H 0.33537 0.17219 0.65085 0.0
C1521 C 0.32699 0.29044 0.64657 0.0
C1522 C 0.33713 0.27237 0.66532 0.0
H1523 H 0.3143 0.28122 0.61494 0.0
H1524 H 0.32482 0.32345 0.64515 0.0
C1525 C 0.33971 0.22939 0.66647 0.0
C1526 C 0.48085 0.63381 0.39465 0.0
C1527 C 0.46347 0.60382 0.40742 0.0
H1528 H 0.52506 0.64799 0.37174 0.0
C1529 C 0.47683 0.56305 0.40553 0.0
H1530 H 0.47119 0.66548 0.39565 0.0
C1531 C 0.50843 0.55301 0.39185 0.0
C1532 C 0.52667 0.58336 0.3795 0.0
H1533 H 0.46406 0.53928 0.4152 0.0
H1534 H 0.51921 0.52168 0.3912 0.0
C1535 C 0.51169 0.62367 0.38077 0.0
C1536 C 0.53686 0.2453 0.25319 0.0
C1537 C 0.52571 0.28642 0.25568 0.0
H1538 H 0.51573 0.18463 0.24763 0.0
C1539 C 0.48534 0.29619 0.261 0.0
H1540 H 0.56799 0.23738 0.24894 0.0
C1541 C 0.45521 0.26571 0.26081 0.0
C1542 C 0.46506 0.22569 0.25443 0.0
H1543 H 0.47632 0.32788 0.26297 0.0
H1544 H 0.42363 0.27455 0.26338 0.0
C1545 C 0.50666 0.21504 0.25239 0.0
C1546 C 0.96586 0.2334 0.50461 0.0
C1547 C 0.97873 0.27446 0.50676 0.0
H1548 H 0.9844 0.17167 0.49896 0.0
C1549 C 0.02038 0.28232 0.51106 0.0
H1550 H 0.93424 0.22558 0.50141 0.0
C1551 C 0.0493 0.25113 0.50902 0.0
C1552 C 0.03652 0.2116 0.50365 0.0
H1553 H 0.03125 0.31323 0.51379 0.0
H1554 H 0.08166 0.25877 0.5095 0.0
C1555 C 0.99466 0.20216 0.50319 0.0
C1556 C 0.95104 0.75687 0.75754 0.0
C1557 C 0.96582 0.71673 0.75565 0.0
H1558 H 0.96696 0.82057 0.75655 0.0
C1559 C 0.00787 0.70917 0.75793 0.0
H1560 H 0.91865 0.7632 0.75566 0.0
C1561 C 0.0354 0.74194 0.75894 0.0
C1562 C 0.02093 0.78223 0.75711 0.0
H1563 H 0.01972 0.67833 0.75638 0.0
H1564 H 0.06797 0.73561 0.75796 0.0
C1565 C 0.97861 0.78967 0.75813 0.0
C1566 C 0.4919 0.70339 1.00172 0.0
C1567 C 0.53336 0.71332 1.00433 0.0
H1568 H 0.43185 0.72651 0.99727 0.0
C1569 C 0.54445 0.75229 1.01134 0.0
H1570 H 0.48302 0.67323 0.99633 0.0
C1571 C 0.51486 0.78301 1.01242 0.0
C1572 C 0.47459 0.77507 1.00567 0.0
H1573 H 0.57644 0.76025 1.01352 0.0
H1574 H 0.52467 0.81392 1.01603 0.0
C1575 C 0.46255 0.73418 1.00229 0.0
C1576 C 0.45267 0.71716 0.27901 0.0
C1577 C 0.45749 0.76 0.27842 0.0
H1578 H 0.48129 0.66007 0.28467 0.0
C1579 C 0.4971 0.77601 0.27504 0.0
H1580 H 0.42257 0.70319 0.27998 0.0
C1581 C 0.53122 0.75058 0.27623 0.0
C1582 C 0.52649 0.7092 0.28178 0.0
H1583 H 0.50266 0.80859 0.2737 0.0
H1584 H 0.56133 0.76442 0.27488 0.0
C1585 C 0.48681 0.69204 0.28126 0.0
C1586 C 0.50397 0.283 0.52588 0.0
C1587 C 0.54545 0.2724 0.52723 0.0
H1588 H 0.44248 0.26209 0.52855 0.0
C1589 C 0.5569 0.23121 0.52546 0.0
H1590 H 0.49463 0.31474 0.52732 0.0
C1591 C 0.5269 0.20061 0.52564 0.0
C1592 C 0.48537 0.21104 0.52842 0.0
H1593 H 0.58891 0.22256 0.52638 0.0
H1594 H 0.53664 0.16892 0.52586 0.0
C1595 C 0.474 0.25252 0.52669 0.0
C1596 C 0.99025 0.22044 0.77449 0.0
C1597 C 0.03188 0.23211 0.77394 0.0
H1598 H 0.92855 0.24075 0.77851 0.0
C1599 C 0.04165 0.27356 0.77022 0.0
H1600 H 0.98107 0.18896 0.77709 0.0
C1601 C 0.01125 0.30339 0.77171 0.0
C1602 C 0.97076 0.29169 0.77588 0.0
H1603 H 0.07322 0.28347 0.76862 0.0
H1604 H 0.02006 0.33545 0.77197 0.0
C1605 C 0.95981 0.2502 0.77529 0.0
C1606 C 0.93653 0.77104 0.02651 0.0
C1607 C 0.94908 0.73004 0.02731 0.0
H1608 H 0.95535 0.83372 0.02805 0.0
C1609 C 0.99066 0.72056 0.02501 0.0
H1610 H 0.90441 0.7788 0.02818 0.0
C1611 C 0.01992 0.7517 0.02591 0.0
C1612 C 0.00766 0.79266 0.02876 0.0
H1613 H 0.00082 0.68898 0.02568 0.0
H1614 H 0.05179 0.74282 0.02705 0.0
C1615 C 0.96578 0.80233 0.02688 0.0
C1616 C 0.49693 0.72906 0.77692 0.0
C1617 C 0.45541 0.7398 0.77944 0.0
H1618 H 0.55878 0.75071 0.77586 0.0
C1619 C 0.44398 0.78092 0.77631 0.0
H1620 H 0.50725 0.69786 0.77899 0.0
C1621 C 0.47401 0.8114 0.77494 0.0
C1622 C 0.51557 0.80079 0.77601 0.0
H1623 H 0.41214 0.79013 0.77711 0.0
H1624 H 0.46484 0.84326 0.77564 0.0
C1625 C 0.52678 0.75946 0.77495 0.0
C1626 C 0.00786 0.77698 0.51957 0.0
C1627 C 0.96923 0.76659 0.52779 0.0
H1628 H 0.07013 0.75768 0.5156 0.0
C1629 C 0.95995 0.72497 0.5311 0.0
H1630 H 0.01543 0.80852 0.51596 0.0
C1631 C 0.99082 0.69566 0.52982 0.0
C1632 C 0.03122 0.70784 0.52561 0.0
H1633 H 0.93057 0.71552 0.53724 0.0
H1634 H 0.98436 0.66479 0.53508 0.0
C1635 C 0.03906 0.74786 0.51895 0.0
C1636 C 0.99319 0.22904 0.27244 0.0
C1637 C 0.95192 0.24113 0.27432 0.0
H1638 H 0.05583 0.2482 0.27404 0.0
C1639 C 0.9424 0.28305 0.27248 0.0
H1640 H 0.00205 0.19718 0.27355 0.0
C1641 C 0.97364 0.31235 0.2733 0.0
C1642 C 0.01451 0.2998 0.27508 0.0
H1643 H 0.91089 0.29341 0.27284 0.0
H1644 H 0.96562 0.34437 0.27503 0.0
C1645 C 0.02433 0.25837 0.27264 0.0
C1646 C 0.52362 0.24146 0.02709 0.0
C1647 C 0.51147 0.20035 0.02995 0.0
H1648 H 0.50416 0.30385 0.02625 0.0
C1649 C 0.46981 0.19007 0.0273 0.0
H1650 H 0.55525 0.25098 0.02872 0.0
C1651 C 0.44038 0.22095 0.02644 0.0
C1652 C 0.45264 0.26209 0.02736 0.0
H1653 H 0.45948 0.15855 0.02826 0.0
H1654 H 0.40823 0.21275 0.02768 0.0
C1655 C 0.49423 0.27212 0.02554 0.0
C1656 C 0.44949 0.24295 0.7515 0.0
C1657 C 0.4601 0.28401 0.75488 0.0
H1658 H 0.47148 0.18312 0.74522 0.0
C1659 C 0.49981 0.29394 0.76129 0.0
H1660 H 0.41883 0.23492 0.74646 0.0
C1661 C 0.53018 0.2639 0.76119 0.0
C1662 C 0.52127 0.22431 0.75377 0.0
H1663 H 0.5084 0.32559 0.76401 0.0
H1664 H 0.5614 0.27297 0.76463 0.0
C1665 C 0.47996 0.21321 0.75075 0.0
C1666 C 0.5499 0.73411 0.50417 0.0
C1667 C 0.53619 0.77429 0.50125 0.0
H1668 H 0.53323 0.67083 0.50552 0.0
C1669 C 0.49416 0.78258 0.50167 0.0
H1670 H 0.5824 0.72729 0.5039 0.0
C1671 C 0.46601 0.75044 0.50149 0.0
C1672 C 0.47966 0.70948 0.50122 0.0
H1673 H 0.48318 0.81355 0.49929 0.0
H1674 H 0.43418 0.7582 0.49904 0.0
C1675 C 0.52165 0.70183 0.5046 0.0
C1676 C 0.95789 0.7378 0.26177 0.0
C1677 C 0.96571 0.77799 0.25487 0.0
H1678 H 0.98101 0.67641 0.26322 0.0
C1679 C 0.0066 0.79023 0.25156 0.0
H1680 H 0.92694 0.72788 0.26532 0.0
C1681 C 0.03755 0.76106 0.25115 0.0
C1682 C 0.0278 0.71962 0.25391 0.0
H1683 H 0.01418 0.82089 0.24646 0.0
H1684 H 0.06778 0.77005 0.24583 0.0
C1685 C 0.9888 0.70839 0.26089 0.0
C1686 C 0.00535 0.20226 1.01186 0.0
C1687 C 0.96608 0.21881 1.00908 0.0
H1688 H 0.06985 0.21473 1.01108 0.0
C1689 C 0.96064 0.26137 1.01015 0.0
H1690 H 0.01008 0.16944 1.01089 0.0
C1691 C 0.99478 0.28724 1.01074 0.0
C1692 C 0.03434 0.27053 1.00975 0.0
H1693 H 0.93054 0.27458 1.00786 0.0
H1694 H 0.99022 0.31992 1.00883 0.0
C1695 C 0.03953 0.22811 1.012 0.0
C1696 C 0.34318 0.02004 0.28467 0.0
C1697 C 0.33599 0.97761 0.28554 0.0
H1698 H 0.34713 0.07366 0.2659 0.0
C1699 C 0.32653 0.95659 0.2674 0.0
H1700 H 0.3507 0.03708 0.29833 0.0
C1701 C 0.32388 0.97763 0.24884 0.0
C1702 C 0.33143 0.02 0.24794 0.0
H1703 H 0.32076 0.92386 0.26755 0.0
H1704 H 0.31632 0.96061 0.23517 0.0
C1705 C 0.34129 0.04094 0.26605 0.0
C1706 C 0.25078 0.05259 0.52106 0.0
C1707 C 0.27387 0.08387 0.53045 0.0
H1708 H 0.20765 0.03661 0.49761 0.0
C1709 C 0.27139 0.12382 0.5225 0.0
H1710 H 0.25205 0.02142 0.52672 0.0
C1711 C 0.24608 0.13246 0.50588 0.0
C1712 C 0.2226 0.1014 0.49662 0.0
H1713 H 0.2886 0.14874 0.52925 0.0
H1714 H 0.24466 0.16377 0.50041 0.0
C1715 C 0.2255 0.06123 0.50429 0.0
C1716 C 0.17792 0.9715 0.75576 0.0
C1717 C 0.13725 0.96807 0.74879 0.0
H1718 H 0.21924 -0.00035 0.77705 0.0
C1719 C 0.10676 0.99173 0.75824 0.0
H1720 H 0.20212 0.95347 0.7489 0.0
C1721 C 0.11651 0.01796 0.77433 0.0
C1722 C 0.15702 0.02123 0.78149 0.0
H1723 H 0.0751 0.98982 0.75333 0.0
H1724 H 0.09202 0.03538 0.78126 0.0
C1725 C 0.18769 -0.00224 0.77198 0.0
C1726 C 0.20932 0.91348 0.01897 0.0
C1727 C 0.23022 0.90459 0.03721 0.0
H1728 H 0.21362 0.92381 0.98673 0.0
C1729 C 0.27282 0.89817 0.03638 0.0
H1730 H 0.17651 0.91864 0.01905 0.0
C1731 C 0.29397 0.90051 0.01779 0.0
C1732 C 0.2732 0.91005 0.9996 0.0
H1733 H 0.28985 0.8911 0.05009 0.0
H1734 H 0.3268 0.8954 0.01774 0.0
C1735 C 0.23061 0.91655 1.00044 0.0
C1736 C 0.67961 0.98267 0.77632 0.0
C1737 C 0.63864 0.97924 0.7829 0.0
H1738 H 0.72172 0.00956 0.75496 0.0
C1739 C 0.60835 0.00159 0.77253 0.0
H1740 H 0.7037 0.96565 0.78386 0.0
C1741 C 0.61861 0.02649 0.75594 0.0
C1742 C 0.65947 0.02976 0.74921 0.0
H1743 H 0.57646 -0.00037 0.77709 0.0
H1744 H 0.59432 0.04304 0.74834 0.0
C1745 C 0.68991 0.00763 0.75965 0.0
C1746 C 0.72531 0.93178 0.50685 0.0
C1747 C 0.72227 0.89192 0.4988 0.0
H1748 H 0.75258 0.97096 0.52938 0.0
C1749 C 0.74588 0.86063 0.50767 0.0
H1750 H 0.70741 0.95658 0.50048 0.0
C1751 C 0.77163 0.86881 0.52421 0.0
C1752 C 0.77444 0.90851 0.53243 0.0
H1753 H 0.74436 0.82955 0.50191 0.0
H1754 H 0.7892 0.84381 0.5306 0.0
C1755 C 0.75106 0.93997 0.52351 0.0
C1756 C 0.8299 0.04092 0.26446 0.0
C1757 C 0.83687 0.01945 0.28276 0.0
H1758 H 0.82145 0.03743 0.23209 0.0
C1759 C 0.84133 0.97667 0.28198 0.0
H1760 H 0.82622 0.07392 0.26453 0.0
C1761 C 0.83919 0.95587 0.26335 0.0
C1762 C 0.8318 0.97728 0.24507 0.0
H1763 H 0.84687 0.95924 0.29575 0.0
H1764 H 0.84291 0.92288 0.2633 0.0
C1765 C 0.82703 0.02003 0.24586 0.0
C1766 C 0.77204 0.06262 1.00933 0.0
C1767 C 0.77489 0.10382 1.00306 0.0
H1768 H 0.74464 0.01935 0.02997 0.0
C1769 C 0.75058 0.13312 1.013 0.0
H1770 H 0.79052 0.03927 1.00206 0.0
C1771 C 0.72444 0.12176 0.02891 0.0
C1772 C 0.72188 0.08076 0.03546 0.0
H1773 H 0.75191 0.16512 1.00861 0.0
H1774 H 0.70663 0.14545 0.03618 0.0
C1775 C 0.74589 0.05123 0.0254 0.0
C1776 C 0.84051 0.50782 0.75974 0.0
C1777 C 0.87739 0.5267 0.75349 0.0
H1778 H 0.81145 0.46653 0.78106 0.0
C1779 C 0.91298 0.5199 0.76502 0.0
H1780 H 0.81247 0.51271 0.75127 0.0
C1781 C 0.91226 0.49433 0.78198 0.0
C1782 C 0.87601 0.47431 0.788 0.0
H1783 H 0.94186 0.53428 0.76097 0.0
H1784 H 0.9407 0.48982 0.79019 0.0
C1785 C 0.83985 0.48165 0.77686 0.0
C1786 C 0.76142 0.66502 0.02515 0.0
C1787 C 0.77408 0.62779 0.03386 0.0
H1788 H 0.72926 0.69514 1.00133 0.0
C1789 C 0.76275 0.59088 0.02424 0.0
H1790 H 0.76967 0.69415 0.03196 0.0
C1791 C 0.73896 0.59148 1.00636 0.0
C1792 C 0.72657 0.629 0.99773 0.0
H1793 H 0.7723 0.56169 0.03047 0.0
H1794 H 0.73015 0.56269 0.99937 0.0
C1795 C 0.7383 0.66562 1.00737 0.0
C1796 C 0.62851 0.51716 0.28191 0.0
C1797 C 0.67031 0.52637 0.28468 0.0
H1798 H 0.58303 0.48602 0.26426 0.0
C1799 C 0.69889 0.50965 0.27092 0.0
H1800 H 0.60557 0.52889 0.29227 0.0
C1801 C 0.68587 0.48457 0.25476 0.0
C1802 C 0.64394 0.47579 0.25195 0.0
H1803 H 0.73133 0.5161 0.27255 0.0
H1804 H 0.70866 0.472 0.24452 0.0
C1805 C 0.61551 0.49242 0.26575 0.0
C1806 C 0.76995 0.36983 0.50953 0.0
C1807 C 0.77229 0.40932 0.50102 0.0
H1808 H 0.74379 0.33103 0.53233 0.0
C1809 C 0.74909 0.44092 0.50994 0.0
H1810 H 0.78726 0.3447 0.50313 0.0
C1811 C 0.72399 0.43306 0.5269 0.0
C1812 C 0.72153 0.39339 0.53525 0.0
H1813 H 0.7503 0.47176 0.50384 0.0
H1814 H 0.70609 0.45788 0.53326 0.0
C1815 C 0.74496 0.36199 0.52638 0.0
C1816 C 0.08025 0.51716 0.26241 0.0
C1817 C 0.11644 0.52539 0.2515 0.0
H1818 H 0.05188 0.48725 0.28755 0.0
C1819 C 0.15358 0.50893 0.25875 0.0
H1820 H 0.0511 0.52965 0.25757 0.0
C1821 C 0.15402 0.48387 0.27627 0.0
C1822 C 0.1174 0.47537 0.28693 0.0
H1823 H 0.18207 0.51496 0.25078 0.0
H1824 H 0.18276 0.47071 0.28127 0.0
C1825 C 0.08075 0.49284 0.27983 0.0
C1826 C 0.26279 0.40068 0.02526 0.0
C1827 C 0.27685 0.36403 0.03414 0.0
H1828 H 0.22614 0.42809 1.00163 0.0
C1829 C 0.2654 0.32656 0.0252 0.0
H1830 H 0.27132 0.43006 0.0317 0.0
C1831 C 0.24052 0.32546 1.00803 0.0
C1832 C 0.22577 0.36176 0.99923 0.0
H1833 H 0.27584 0.29763 0.03137 0.0
H1834 H 0.23246 0.29574 1.00182 0.0
C1835 C 0.2372 0.39955 1.00799 0.0
C1836 C 0.37262 0.52607 0.77546 0.0
C1837 C 0.33269 0.52758 0.78355 0.0
H1838 H 0.41308 0.50001 0.75337 0.0
C1839 C 0.30191 0.50353 0.77434 0.0
H1840 H 0.39715 0.54408 0.78203 0.0
C1841 C 0.31107 0.47823 0.75764 0.0
C1842 C 0.35127 0.47624 0.74988 0.0
H1843 H 0.27077 0.50403 0.7801 0.0
H1844 H 0.28686 0.4596 0.75111 0.0
C1845 C 0.38179 0.50069 0.75893 0.0
C1846 C 0.22551 0.55815 0.52592 0.0
C1847 C 0.22257 0.59904 0.53256 0.0
H1848 H 0.25186 0.51622 0.50439 0.0
C1849 C 0.24553 0.62925 0.52233 0.0
H1850 H 0.208 0.53415 0.53337 0.0
C1851 C 0.27042 0.61906 0.50577 0.0
C1852 C 0.27305 0.57836 0.49887 0.0
H1853 H 0.24403 0.66108 0.52697 0.0
H1854 H 0.28726 0.64339 0.49829 0.0
C1855 C 0.25043 0.54793 0.50921 0.0
loop_
_geom_bond_atom_site_label_1
_geom_bond_atom_site_label_2
_geom_bond_distance
_geom_bond_site_symmetry_2
_ccdc_geom_bond_type
C0 C1 1.351 . S
C0 N3 1.368 . S
C0 H5 0.931 . S
C1 C0 1.351 . S
C1 N2 1.373 . S
C1 H29 0.930 . S
N2 C1 1.373 . S
N2 C4 1.340 . S
N3 C0 1.368 . S
N3 C4 1.321 . S
N3 Co6 2.135 . S
C4 N2 1.340 . S
C4 N3 1.321 . S
C4 H28 0.930 . S
H5 C0 0.931 . S
Co6 N3 2.135 . S
Co6 N9 2.121 . S
Co6 O14 2.055 . S
Co6 O17 2.039 . S
Co6 N20 2.140 . S
C7 O8 1.227 . S
C7 O17 1.265 . S
O8 C7 1.227 . S
N9 Co6 2.121 . S
N9 C11 1.375 . S
N9 C12 1.313 . S
C10 C11 1.338 . S
C10 N13 1.377 . S
C10 H30 0.930 . S
C11 N9 1.375 . S
C11 C10 1.338 . S
C11 H15 0.931 . S
C12 N9 1.313 . S
C12 N13 1.344 . S
C12 H16 0.930 . S
N13 C10 1.377 . S
N13 C12 1.344 . S
O14 Co6 2.055 . S
O14 C18 1.253 . S
H15 C11 0.931 . S
H16 C12 0.930 . S
O17 Co6 2.039 . S
O17 C7 1.265 . S
C18 O14 1.253 . S
C18 O19 1.227 . S
O19 C18 1.227 . S
N20 Co6 2.140 . S
N20 C23 1.346 . S
N20 C24 1.345 . S
C21 C22 1.387 . S
C21 C25 1.391 . S
C22 C21 1.387 . S
C22 C23 1.369 . S
C22 H31 0.929 . S
C23 N20 1.346 . S
C23 C22 1.369 . S
C23 H26 0.928 . S
C24 N20 1.345 . S
C24 C25 1.371 . S
C24 H27 0.931 . S
C25 C21 1.391 . S
C25 C24 1.371 . S
C25 H32 0.930 . S
H26 C23 0.928 . S
H27 C24 0.931 . S
H28 C4 0.930 . S
H29 C1 0.930 . S
H30 C10 0.930 . S
H31 C22 0.929 . S
H32 C25 0.930 . S
C33 C34 1.351 . S
C33 N36 1.368 . S
C33 H38 0.931 . S
C34 C33 1.351 . S
C34 N35 1.373 . S
C34 H62 0.930 . S
N35 C34 1.373 . S
N35 C37 1.340 . S
N36 C33 1.368 . S
N36 C37 1.321 . S
N36 Co39 2.135 . S
C37 N35 1.340 . S
C37 N36 1.321 . S
C37 H61 0.930 . S
H38 C33 0.931 . S
Co39 N36 2.135 . S
Co39 N42 2.121 . S
Co39 O47 2.055 . S
Co39 O50 2.039 . S
Co39 N53 2.140 . S
C40 O41 1.227 . S
C40 O50 1.265 . S
O41 C40 1.227 . S
N42 Co39 2.121 . S
N42 C44 1.375 . S
N42 C45 1.313 . S
C43 C44 1.338 . S
C43 N46 1.377 . S
C43 H63 0.930 . S
C44 N42 1.375 . S
C44 C43 1.338 . S
C44 H48 0.931 . S
C45 N42 1.313 . S
C45 N46 1.344 . S
C45 H49 0.930 . S
N46 C43 1.377 . S
N46 C45 1.344 . S
O47 Co39 2.055 . S
O47 C51 1.253 . S
H48 C44 0.931 . S
H49 C45 0.930 . S
O50 Co39 2.039 . S
O50 C40 1.265 . S
C51 O47 1.253 . S
C51 O52 1.227 . S
O52 C51 1.227 . S
N53 Co39 2.140 . S
N53 C56 1.346 . S
N53 C57 1.345 . S
C54 C55 1.387 . S
C54 C58 1.391 . S
C55 C54 1.387 . S
C55 C56 1.369 . S
C55 H64 0.929 . S
C56 N53 1.346 . S
C56 C55 1.369 . S
C56 H59 0.928 . S
C57 N53 1.345 . S
C57 C58 1.371 . S
C57 H60 0.931 . S
C58 C54 1.391 . S
C58 C57 1.371 . S
C58 H65 0.930 . S
H59 C56 0.928 . S
H60 C57 0.931 . S
H61 C37 0.930 . S
H62 C34 0.930 . S
H63 C43 0.930 . S
H64 C55 0.929 . S
H65 C58 0.930 . S
C66 C67 1.351 . S
C66 N69 1.368 . S
C66 H71 0.931 . S
C67 C66 1.351 . S
C67 N68 1.373 . S
C67 H95 0.930 . S
N68 C67 1.373 . S
N68 C70 1.340 . S
N69 C66 1.368 . S
N69 C70 1.321 . S
N69 Co72 2.135 . S
C70 N68 1.340 . S
C70 N69 1.321 . S
C70 H94 0.930 . S
H71 C66 0.931 . S
Co72 N69 2.135 . S
Co72 N75 2.121 . S
Co72 O80 2.055 . S
Co72 O83 2.039 . S
Co72 N86 2.140 . S
C73 O74 1.227 . S
C73 O83 1.265 . S
O74 C73 1.227 . S
N75 Co72 2.121 . S
N75 C77 1.375 . S
N75 C78 1.313 . S
C76 C77 1.338 . S
C76 N79 1.377 . S
C76 H96 0.930 . S
C77 N75 1.375 . S
C77 C76 1.338 . S
C77 H81 0.931 . S
C78 N75 1.313 . S
C78 N79 1.344 . S
C78 H82 0.930 . S
N79 C76 1.377 . S
N79 C78 1.344 . S
O80 Co72 2.055 . S
O80 C84 1.253 . S
H81 C77 0.931 . S
H82 C78 0.930 . S
O83 Co72 2.039 . S
O83 C73 1.265 . S
C84 O80 1.253 . S
C84 O85 1.227 . S
O85 C84 1.227 . S
N86 Co72 2.140 . S
N86 C89 1.346 . S
N86 C90 1.345 . S
C87 C88 1.387 . S
C87 C91 1.391 . S
C88 C87 1.387 . S
C88 C89 1.369 . S
C88 H97 0.929 . S
C89 N86 1.346 . S
C89 C88 1.369 . S
C89 H92 0.928 . S
C90 N86 1.345 . S
C90 C91 1.371 . S
C90 H93 0.931 . S
C91 C87 1.391 . S
C91 C90 1.371 . S
C91 H98 0.930 . S
H92 C89 0.928 . S
H93 C90 0.931 . S
H94 C70 0.930 . S
H95 C67 0.930 . S
H96 C76 0.930 . S
H97 C88 0.929 . S
H98 C91 0.930 . S
C99 C100 1.351 . S
C99 N102 1.368 . S
C99 H104 0.931 . S
C100 C99 1.351 . S
C100 N101 1.373 . S
C100 H128 0.930 . S
N101 C100 1.373 . S
N101 C103 1.340 . S
N102 C99 1.368 . S
N102 C103 1.321 . S
N102 Co105 2.135 . S
C103 N101 1.340 . S
C103 N102 1.321 . S
C103 H127 0.930 . S
H104 C99 0.931 . S
Co105 N102 2.135 . S
Co105 N108 2.121 . S
Co105 O113 2.055 . S
Co105 O116 2.039 . S
Co105 N119 2.140 . S
C106 O107 1.227 . S
C106 O116 1.265 . S
O107 C106 1.227 . S
N108 Co105 2.121 . S
N108 C110 1.375 . S
N108 C111 1.313 . S
C109 C110 1.338 . S
C109 N112 1.377 . S
C109 H129 0.930 . S
C110 N108 1.375 . S
C110 C109 1.338 . S
C110 H114 0.931 . S
C111 N108 1.313 . S
C111 N112 1.344 . S
C111 H115 0.930 . S
N112 C109 1.377 . S
N112 C111 1.344 . S
O113 Co105 2.055 . S
O113 C117 1.253 . S
H114 C110 0.931 . S
H115 C111 0.930 . S
O116 Co105 2.039 . S
O116 C106 1.265 . S
C117 O113 1.253 . S
C117 O118 1.227 . S
O118 C117 1.227 . S
N119 Co105 2.140 . S
N119 C122 1.346 . S
N119 C123 1.345 . S
C120 C121 1.387 . S
C120 C124 1.391 . S
C121 C120 1.387 . S
C121 C122 1.369 . S
C121 H130 0.929 . S
C122 N119 1.346 . S
C122 C121 1.369 . S
C122 H125 0.928 . S
C123 N119 1.345 . S
C123 C124 1.371 . S
C123 H126 0.931 . S
C124 C120 1.391 . S
C124 C123 1.371 . S
C124 H131 0.930 . S
H125 C122 0.928 . S
H126 C123 0.931 . S
H127 C103 0.930 . S
H128 C100 0.930 . S
H129 C109 0.930 . S
H130 C121 0.929 . S
H131 C124 0.930 . S
C132 C133 1.351 . S
C132 N135 1.368 . S
C132 H137 0.931 . S
C133 C132 1.351 . S
C133 N134 1.373 . S
C133 H161 0.930 . S
N134 C133 1.373 . S
N134 C136 1.340 . S
N135 C132 1.368 . S
N135 C136 1.321 . S
N135 Co138 2.135 . S
C136 N134 1.340 . S
C136 N135 1.321 . S
C136 H160 0.930 . S
H137 C132 0.931 . S
Co138 N135 2.135 . S
Co138 N141 2.121 . S
Co138 O146 2.055 . S
Co138 O149 2.039 . S
Co138 N152 2.140 . S
C139 O140 1.227 . S
C139 O149 1.265 . S
O140 C139 1.227 . S
N141 Co138 2.121 . S
N141 C143 1.375 . S
N141 C144 1.313 . S
C142 C143 1.338 . S
C142 N145 1.377 . S
C142 H162 0.930 . S
C143 N141 1.375 . S
C143 C142 1.338 . S
C143 H147 0.931 . S
C144 N141 1.313 . S
C144 N145 1.344 . S
C144 H148 0.930 . S
N145 C142 1.377 . S
N145 C144 1.344 . S
O146 Co138 2.055 . S
O146 C150 1.253 . S
H147 C143 0.931 . S
H148 C144 0.930 . S
O149 Co138 2.039 . S
O149 C139 1.265 . S
C150 O146 1.253 . S
C150 O151 1.227 . S
O151 C150 1.227 . S
N152 Co138 2.140 . S
N152 C155 1.346 . S
N152 C156 1.345 . S
C153 C154 1.387 . S
C153 C157 1.391 . S
C154 C153 1.387 . S
C154 C155 1.369 . S
C154 H163 0.929 . S
C155 N152 1.346 . S
C155 C154 1.369 . S
C155 H158 0.928 . S
C156 N152 1.345 . S
C156 C157 1.371 . S
C156 H159 0.931 . S
C157 C153 1.391 . S
C157 C156 1.371 . S
C157 H164 0.930 . S
H158 C155 0.928 . S
H159 C156 0.931 . S
H160 C136 0.930 . S
H161 C133 0.930 . S
H162 C142 0.930 . S
H163 C154 0.929 . S
H164 C157 0.930 . S
C165 C166 1.351 . S
C165 N168 1.368 . S
C165 H170 0.931 . S
C166 C165 1.351 . S
C166 N167 1.373 . S
C166 H194 0.930 . S
N167 C166 1.373 . S
N167 C169 1.340 . S
N168 C165 1.368 . S
N168 C169 1.321 . S
N168 Co171 2.135 . S
C169 N167 1.340 . S
C169 N168 1.321 . S
C169 H193 0.930 . S
H170 C165 0.931 . S
Co171 N168 2.135 . S
Co171 N174 2.121 . S
Co171 O179 2.055 . S
Co171 O182 2.039 . S
Co171 N185 2.140 . S
C172 O173 1.227 . S
C172 O182 1.265 . S
O173 C172 1.227 . S
N174 Co171 2.121 . S
N174 C176 1.375 . S
N174 C177 1.313 . S
C175 C176 1.338 . S
C175 N178 1.377 . S
C175 H195 0.930 . S
C176 N174 1.375 . S
C176 C175 1.338 . S
C176 H180 0.931 . S
C177 N174 1.313 . S
C177 N178 1.344 . S
C177 H181 0.930 . S
N178 C175 1.377 . S
N178 C177 1.344 . S
O179 Co171 2.055 . S
O179 C183 1.253 . S
H180 C176 0.931 . S
H181 C177 0.930 . S
O182 Co171 2.039 . S
O182 C172 1.265 . S
C183 O179 1.253 . S
C183 O184 1.227 . S
O184 C183 1.227 . S
N185 Co171 2.140 . S
N185 C188 1.346 . S
N185 C189 1.345 . S
C186 C187 1.387 . S
C186 C190 1.391 . S
C187 C186 1.387 . S
C187 C188 1.369 . S
C187 H196 0.929 . S
C188 N185 1.346 . S
C188 C187 1.369 . S
C188 H191 0.928 . S
C189 N185 1.345 . S
C189 C190 1.371 . S
C189 H192 0.931 . S
C190 C186 1.391 . S
C190 C189 1.371 . S
C190 H197 0.930 . S
H191 C188 0.928 . S
H192 C189 0.931 . S
H193 C169 0.930 . S
H194 C166 0.930 . S
H195 C175 0.930 . S
H196 C187 0.929 . S
H197 C190 0.930 . S
C198 C199 1.351 . S
C198 N201 1.368 . S
C198 H203 0.931 . S
C199 C198 1.351 . S
C199 N200 1.373 . S
C199 H227 0.930 . S
N200 C199 1.373 . S
N200 C202 1.340 . S
N201 C198 1.368 . S
N201 C202 1.321 . S
N201 Co204 2.135 . S
C202 N200 1.340 . S
C202 N201 1.321 . S
C202 H226 0.930 . S
H203 C198 0.931 . S
Co204 N201 2.135 . S
Co204 N207 2.121 . S
Co204 O212 2.055 . S
Co204 O215 2.039 . S
Co204 N218 2.140 . S
C205 O206 1.227 . S
C205 O215 1.265 . S
O206 C205 1.227 . S
N207 Co204 2.121 . S
N207 C209 1.375 . S
N207 C210 1.313 . S
C208 C209 1.338 . S
C208 N211 1.377 . S
C208 H228 0.930 . S
C209 N207 1.375 . S
C209 C208 1.338 . S
C209 H213 0.931 . S
C210 N207 1.313 . S
C210 N211 1.344 . S
C210 H214 0.930 . S
N211 C208 1.377 . S
N211 C210 1.344 . S
O212 Co204 2.055 . S
O212 C216 1.253 . S
H213 C209 0.931 . S
H214 C210 0.930 . S
O215 Co204 2.039 . S
O215 C205 1.265 . S
C216 O212 1.253 . S
C216 O217 1.227 . S
O217 C216 1.227 . S
N218 Co204 2.140 . S
N218 C221 1.346 . S
N218 C222 1.345 . S
C219 C220 1.387 . S
C219 C223 1.391 . S
C220 C219 1.387 . S
C220 C221 1.369 . S
C220 H229 0.929 . S
C221 N218 1.346 . S
C221 C220 1.369 . S
C221 H224 0.928 . S
C222 N218 1.345 . S
C222 C223 1.371 . S
C222 H225 0.931 . S
C223 C219 1.391 . S
C223 C222 1.371 . S
C223 H230 0.930 . S
H224 C221 0.928 . S
H225 C222 0.931 . S
H226 C202 0.930 . S
H227 C199 0.930 . S
H228 C208 0.930 . S
H229 C220 0.929 . S
H230 C223 0.930 . S
C231 C232 1.351 . S
C231 N234 1.368 . S
C231 H236 0.931 . S
C232 C231 1.351 . S
C232 N233 1.373 . S
C232 H260 0.930 . S
N233 C232 1.373 . S
N233 C235 1.340 . S
N234 C231 1.368 . S
N234 C235 1.321 . S
N234 Co237 2.135 . S
C235 N233 1.340 . S
C235 N234 1.321 . S
C235 H259 0.930 . S
H236 C231 0.931 . S
Co237 N234 2.135 . S
Co237 N240 2.121 . S
Co237 O245 2.055 . S
Co237 O248 2.039 . S
Co237 N251 2.140 . S
C238 O239 1.227 . S
C238 O248 1.265 . S
O239 C238 1.227 . S
N240 Co237 2.121 . S
N240 C242 1.375 . S
N240 C243 1.313 . S
C241 C242 1.338 . S
C241 N244 1.377 . S
C241 H261 0.930 . S
C242 N240 1.375 . S
C242 C241 1.338 . S
C242 H246 0.931 . S
C243 N240 1.313 . S
C243 N244 1.344 . S
C243 H247 0.930 . S
N244 C241 1.377 . S
N244 C243 1.344 . S
O245 Co237 2.055 . S
O245 C249 1.253 . S
H246 C242 0.931 . S
H247 C243 0.930 . S
O248 Co237 2.039 . S
O248 C238 1.265 . S
C249 O245 1.253 . S
C249 O250 1.227 . S
O250 C249 1.227 . S
N251 Co237 2.140 . S
N251 C254 1.346 . S
N251 C255 1.345 . S
C252 C253 1.387 . S
C252 C256 1.391 . S
C253 C252 1.387 . S
C253 C254 1.369 . S
C253 H262 0.929 . S
C254 N251 1.346 . S
C254 C253 1.369 . S
C254 H257 0.928 . S
C255 N251 1.345 . S
C255 C256 1.371 . S
C255 H258 0.931 . S
C256 C252 1.391 . S
C256 C255 1.371 . S
C256 H263 0.930 . S
H257 C254 0.928 . S
H258 C255 0.931 . S
H259 C235 0.930 . S
H260 C232 0.930 . S
H261 C241 0.930 . S
H262 C253 0.929 . S
H263 C256 0.930 . S
C264 C265 1.351 . S
C264 N267 1.368 . S
C264 H269 0.931 . S
C265 C264 1.351 . S
C265 N266 1.373 . S
C265 H293 0.930 . S
N266 C265 1.373 . S
N266 C268 1.340 . S
N267 C264 1.368 . S
N267 C268 1.321 . S
N267 Co270 2.135 . S
C268 N266 1.340 . S
C268 N267 1.321 . S
C268 H292 0.930 . S
H269 C264 0.931 . S
Co270 N267 2.135 . S
Co270 N273 2.121 . S
Co270 O278 2.055 . S
Co270 O281 2.039 . S
Co270 N284 2.140 . S
C271 O272 1.227 . S
C271 O281 1.265 . S
O272 C271 1.227 . S
N273 Co270 2.121 . S
N273 C275 1.375 . S
N273 C276 1.313 . S
C274 C275 1.338 . S
C274 N277 1.377 . S
C274 H294 0.930 . S
C275 N273 1.375 . S
C275 C274 1.338 . S
C275 H279 0.931 . S
C276 N273 1.313 . S
C276 N277 1.344 . S
C276 H280 0.930 . S
N277 C274 1.377 . S
N277 C276 1.344 . S
O278 Co270 2.055 . S
O278 C282 1.253 . S
H279 C275 0.931 . S
H280 C276 0.930 . S
O281 Co270 2.039 . S
O281 C271 1.265 . S
C282 O278 1.253 . S
C282 O283 1.227 . S
O283 C282 1.227 . S
N284 Co270 2.140 . S
N284 C287 1.346 . S
N284 C288 1.345 . S
C285 C286 1.387 . S
C285 C289 1.391 . S
C286 C285 1.387 . S
C286 C287 1.369 . S
C286 H295 0.929 . S
C287 N284 1.346 . S
C287 C286 1.369 . S
C287 H290 0.928 . S
C288 N284 1.345 . S
C288 C289 1.371 . S
C288 H291 0.931 . S
C289 C285 1.391 . S
C289 C288 1.371 . S
C289 H296 0.930 . S
H290 C287 0.928 . S
H291 C288 0.931 . S
H292 C268 0.930 . S
H293 C265 0.930 . S
H294 C274 0.930 . S
H295 C286 0.929 . S
H296 C289 0.930 . S
C297 C298 1.351 . S
C297 N300 1.368 . S
C297 H302 0.931 . S
C298 C297 1.351 . S
C298 N299 1.373 . S
C298 H326 0.930 . S
N299 C298 1.373 . S
N299 C301 1.340 . S
N300 C297 1.368 . S
N300 C301 1.321 . S
N300 Co303 2.135 . S
C301 N299 1.340 . S
C301 N300 1.321 . S
C301 H325 0.930 . S
H302 C297 0.931 . S
Co303 N300 2.135 . S
Co303 N306 2.121 . S
Co303 O311 2.055 . S
Co303 O314 2.039 . S
Co303 N317 2.140 . S
C304 O305 1.227 . S
C304 O314 1.265 . S
O305 C304 1.227 . S
N306 Co303 2.121 . S
N306 C308 1.375 . S
N306 C309 1.313 . S
C307 C308 1.338 . S
C307 N310 1.377 . S
C307 H327 0.930 . S
C308 N306 1.375 . S
C308 C307 1.338 . S
C308 H312 0.931 . S
C309 N306 1.313 . S
C309 N310 1.344 . S
C309 H313 0.930 . S
N310 C307 1.377 . S
N310 C309 1.344 . S
O311 Co303 2.055 . S
O311 C315 1.253 . S
H312 C308 0.931 . S
H313 C309 0.930 . S
O314 Co303 2.039 . S
O314 C304 1.265 . S
C315 O311 1.253 . S
C315 O316 1.227 . S
O316 C315 1.227 . S
N317 Co303 2.140 . S
N317 C320 1.346 . S
N317 C321 1.345 . S
C318 C319 1.387 . S
C318 C322 1.391 . S
C319 C318 1.387 . S
C319 C320 1.369 . S
C319 H328 0.929 . S
C320 N317 1.346 . S
C320 C319 1.369 . S
C320 H323 0.928 . S
C321 N317 1.345 . S
C321 C322 1.371 . S
C321 H324 0.931 . S
C322 C318 1.391 . S
C322 C321 1.371 . S
C322 H329 0.930 . S
H323 C320 0.928 . S
H324 C321 0.931 . S
H325 C301 0.930 . S
H326 C298 0.930 . S
H327 C307 0.930 . S
H328 C319 0.929 . S
H329 C322 0.930 . S
C330 C331 1.351 . S
C330 N333 1.368 . S
C330 H335 0.931 . S
C331 C330 1.351 . S
C331 N332 1.373 . S
C331 H359 0.930 . S
N332 C331 1.373 . S
N332 C334 1.340 . S
N333 C330 1.368 . S
N333 C334 1.321 . S
N333 Co336 2.135 . S
C334 N332 1.340 . S
C334 N333 1.321 . S
C334 H358 0.930 . S
H335 C330 0.931 . S
Co336 N333 2.135 . S
Co336 N339 2.121 . S
Co336 O344 2.055 . S
Co336 O347 2.039 . S
Co336 N350 2.140 . S
C337 O338 1.227 . S
C337 O347 1.265 . S
O338 C337 1.227 . S
N339 Co336 2.121 . S
N339 C341 1.375 . S
N339 C342 1.313 . S
C340 C341 1.338 . S
C340 N343 1.377 . S
C340 H360 0.930 . S
C341 N339 1.375 . S
C341 C340 1.338 . S
C341 H345 0.931 . S
C342 N339 1.313 . S
C342 N343 1.344 . S
C342 H346 0.930 . S
N343 C340 1.377 . S
N343 C342 1.344 . S
O344 Co336 2.055 . S
O344 C348 1.253 . S
H345 C341 0.931 . S
H346 C342 0.930 . S
O347 Co336 2.039 . S
O347 C337 1.265 . S
C348 O344 1.253 . S
C348 O349 1.227 . S
O349 C348 1.227 . S
N350 Co336 2.140 . S
N350 C353 1.346 . S
N350 C354 1.345 . S
C351 C352 1.387 . S
C351 C355 1.391 . S
C352 C351 1.387 . S
C352 C353 1.369 . S
C352 H361 0.929 . S
C353 N350 1.346 . S
C353 C352 1.369 . S
C353 H356 0.928 . S
C354 N350 1.345 . S
C354 C355 1.371 . S
C354 H357 0.931 . S
C355 C351 1.391 . S
C355 C354 1.371 . S
C355 H362 0.930 . S
H356 C353 0.928 . S
H357 C354 0.931 . S
H358 C334 0.930 . S
H359 C331 0.930 . S
H360 C340 0.930 . S
H361 C352 0.929 . S
H362 C355 0.930 . S
C363 C364 1.351 . S
C363 N366 1.368 . S
C363 H368 0.931 . S
C364 C363 1.351 . S
C364 N365 1.373 . S
C364 H392 0.930 . S
N365 C364 1.373 . S
N365 C367 1.340 . S
N366 C363 1.368 . S
N366 C367 1.321 . S
N366 Co369 2.135 . S
C367 N365 1.340 . S
C367 N366 1.321 . S
C367 H391 0.930 . S
H368 C363 0.931 . S
Co369 N366 2.135 . S
Co369 N372 2.121 . S
Co369 O377 2.055 . S
Co369 O380 2.039 . S
Co369 N383 2.140 . S
C370 O371 1.227 . S
C370 O380 1.265 . S
O371 C370 1.227 . S
N372 Co369 2.121 . S
N372 C374 1.375 . S
N372 C375 1.313 . S
C373 C374 1.338 . S
C373 N376 1.377 . S
C373 H393 0.930 . S
C374 N372 1.375 . S
C374 C373 1.338 . S
C374 H378 0.931 . S
C375 N372 1.313 . S
C375 N376 1.344 . S
C375 H379 0.930 . S
N376 C373 1.377 . S
N376 C375 1.344 . S
O377 Co369 2.055 . S
O377 C381 1.253 . S
H378 C374 0.931 . S
H379 C375 0.930 . S
O380 Co369 2.039 . S
O380 C370 1.265 . S
C381 O377 1.253 . S
C381 O382 1.227 . S
O382 C381 1.227 . S
N383 Co369 2.140 . S
N383 C386 1.346 . S
N383 C387 1.345 . S
C384 C385 1.387 . S
C384 C388 1.391 . S
C385 C384 1.387 . S
C385 C386 1.369 . S
C385 H394 0.929 . S
C386 N383 1.346 . S
C386 C385 1.369 . S
C386 H389 0.928 . S
C387 N383 1.345 . S
C387 C388 1.371 . S
C387 H390 0.931 . S
C388 C384 1.391 . S
C388 C387 1.371 . S
C388 H395 0.930 . S
H389 C386 0.928 . S
H390 C387 0.931 . S
H391 C367 0.930 . S
H392 C364 0.930 . S
H393 C373 0.930 . S
H394 C385 0.929 . S
H395 C388 0.930 . S
C396 C397 1.351 . S
C396 N399 1.368 . S
C396 H401 0.931 . S
C397 C396 1.351 . S
C397 N398 1.373 . S
C397 H425 0.930 . S
N398 C397 1.373 . S
N398 C400 1.340 . S
N399 C396 1.368 . S
N399 C400 1.321 . S
N399 Co402 2.135 . S
C400 N398 1.340 . S
C400 N399 1.321 . S
C400 H424 0.930 . S
H401 C396 0.931 . S
Co402 N399 2.135 . S
Co402 N405 2.121 . S
Co402 O410 2.055 . S
Co402 O413 2.039 . S
Co402 N416 2.140 . S
C403 O404 1.227 . S
C403 O413 1.265 . S
O404 C403 1.227 . S
N405 Co402 2.121 . S
N405 C407 1.375 . S
N405 C408 1.313 . S
C406 C407 1.338 . S
C406 N409 1.377 . S
C406 H426 0.930 . S
C407 N405 1.375 . S
C407 C406 1.338 . S
C407 H411 0.931 . S
C408 N405 1.313 . S
C408 N409 1.344 . S
C408 H412 0.930 . S
N409 C406 1.377 . S
N409 C408 1.344 . S
O410 Co402 2.055 . S
O410 C414 1.253 . S
H411 C407 0.931 . S
H412 C408 0.930 . S
O413 Co402 2.039 . S
O413 C403 1.265 . S
C414 O410 1.253 . S
C414 O415 1.227 . S
O415 C414 1.227 . S
N416 Co402 2.140 . S
N416 C419 1.346 . S
N416 C420 1.345 . S
C417 C418 1.387 . S
C417 C421 1.391 . S
C418 C417 1.387 . S
C418 C419 1.369 . S
C418 H427 0.929 . S
C419 N416 1.346 . S
C419 C418 1.369 . S
C419 H422 0.928 . S
C420 N416 1.345 . S
C420 C421 1.371 . S
C420 H423 0.931 . S
C421 C417 1.391 . S
C421 C420 1.371 . S
C421 H428 0.930 . S
H422 C419 0.928 . S
H423 C420 0.931 . S
H424 C400 0.930 . S
H425 C397 0.930 . S
H426 C406 0.930 . S
H427 C418 0.929 . S
H428 C421 0.930 . S
C429 C430 1.351 . S
C429 N432 1.368 . S
C429 H434 0.931 . S
C430 C429 1.351 . S
C430 N431 1.373 . S
C430 H458 0.930 . S
N431 C430 1.373 . S
N431 C433 1.340 . S
N432 C429 1.368 . S
N432 C433 1.321 . S
N432 Co435 2.135 . S
C433 N431 1.340 . S
C433 N432 1.321 . S
C433 H457 0.930 . S
H434 C429 0.931 . S
Co435 N432 2.135 . S
Co435 N438 2.121 . S
Co435 O443 2.055 . S
Co435 O446 2.039 . S
Co435 N449 2.140 . S
C436 O437 1.227 . S
C436 O446 1.265 . S
O437 C436 1.227 . S
N438 Co435 2.121 . S
N438 C440 1.375 . S
N438 C441 1.313 . S
C439 C440 1.338 . S
C439 N442 1.377 . S
C439 H459 0.930 . S
C440 N438 1.375 . S
C440 C439 1.338 . S
C440 H444 0.931 . S
C441 N438 1.313 . S
C441 N442 1.344 . S
C441 H445 0.930 . S
N442 C439 1.377 . S
N442 C441 1.344 . S
O443 Co435 2.055 . S
O443 C447 1.253 . S
H444 C440 0.931 . S
H445 C441 0.930 . S
O446 Co435 2.039 . S
O446 C436 1.265 . S
C447 O443 1.253 . S
C447 O448 1.227 . S
O448 C447 1.227 . S
N449 Co435 2.140 . S
N449 C452 1.346 . S
N449 C453 1.345 . S
C450 C451 1.387 . S
C450 C454 1.391 . S
C451 C450 1.387 . S
C451 C452 1.369 . S
C451 H460 0.929 . S
C452 N449 1.346 . S
C452 C451 1.369 . S
C452 H455 0.928 . S
C453 N449 1.345 . S
C453 C454 1.371 . S
C453 H456 0.931 . S
C454 C450 1.391 . S
C454 C453 1.371 . S
C454 H461 0.930 . S
H455 C452 0.928 . S
H456 C453 0.931 . S
H457 C433 0.930 . S
H458 C430 0.930 . S
H459 C439 0.930 . S
H460 C451 0.929 . S
H461 C454 0.930 . S
C462 C463 1.351 . S
C462 N465 1.368 . S
C462 H467 0.931 . S
C463 C462 1.351 . S
C463 N464 1.373 . S
C463 H491 0.930 . S
N464 C463 1.373 . S
N464 C466 1.340 . S
N465 C462 1.368 . S
N465 C466 1.321 . S
N465 Co468 2.135 . S
C466 N464 1.340 . S
C466 N465 1.321 . S
C466 H490 0.930 . S
H467 C462 0.931 . S
Co468 N465 2.135 . S
Co468 N471 2.121 . S
Co468 O476 2.055 . S
Co468 O479 2.039 . S
Co468 N482 2.140 . S
C469 O470 1.227 . S
C469 O479 1.265 . S
O470 C469 1.227 . S
N471 Co468 2.121 . S
N471 C473 1.375 . S
N471 C474 1.313 . S
C472 C473 1.338 . S
C472 N475 1.377 . S
C472 H492 0.930 . S
C473 N471 1.375 . S
C473 C472 1.338 . S
C473 H477 0.931 . S
C474 N471 1.313 . S
C474 N475 1.344 . S
C474 H478 0.930 . S
N475 C472 1.377 . S
N475 C474 1.344 . S
O476 Co468 2.055 . S
O476 C480 1.253 . S
H477 C473 0.931 . S
H478 C474 0.930 . S
O479 Co468 2.039 . S
O479 C469 1.265 . S
C480 O476 1.253 . S
C480 O481 1.227 . S
O481 C480 1.227 . S
N482 Co468 2.140 . S
N482 C485 1.346 . S
N482 C486 1.345 . S
C483 C484 1.387 . S
C483 C487 1.391 . S
C484 C483 1.387 . S
C484 C485 1.369 . S
C484 H493 0.929 . S
C485 N482 1.346 . S
C485 C484 1.369 . S
C485 H488 0.928 . S
C486 N482 1.345 . S
C486 C487 1.371 . S
C486 H489 0.931 . S
C487 C483 1.391 . S
C487 C486 1.371 . S
C487 H494 0.930 . S
H488 C485 0.928 . S
H489 C486 0.931 . S
H490 C466 0.930 . S
H491 C463 0.930 . S
H492 C472 0.930 . S
H493 C484 0.929 . S
H494 C487 0.930 . S
C495 C496 1.351 . S
C495 N498 1.368 . S
C495 H500 0.931 . S
C496 C495 1.351 . S
C496 N497 1.373 . S
C496 H524 0.930 . S
N497 C496 1.373 . S
N497 C499 1.340 . S
N498 C495 1.368 . S
N498 C499 1.321 . S
N498 Co501 2.135 . S
C499 N497 1.340 . S
C499 N498 1.321 . S
C499 H523 0.930 . S
H500 C495 0.931 . S
Co501 N498 2.135 . S
Co501 N504 2.121 . S
Co501 O509 2.055 . S
Co501 O512 2.039 . S
Co501 N515 2.140 . S
C502 O503 1.227 . S
C502 O512 1.265 . S
O503 C502 1.227 . S
N504 Co501 2.121 . S
N504 C506 1.375 . S
N504 C507 1.313 . S
C505 C506 1.338 . S
C505 N508 1.377 . S
C505 H525 0.930 . S
C506 N504 1.375 . S
C506 C505 1.338 . S
C506 H510 0.931 . S
C507 N504 1.313 . S
C507 N508 1.344 . S
C507 H511 0.930 . S
N508 C505 1.377 . S
N508 C507 1.344 . S
O509 Co501 2.055 . S
O509 C513 1.253 . S
H510 C506 0.931 . S
H511 C507 0.930 . S
O512 Co501 2.039 . S
O512 C502 1.265 . S
C513 O509 1.253 . S
C513 O514 1.227 . S
O514 C513 1.227 . S
N515 Co501 2.140 . S
N515 C518 1.346 . S
N515 C519 1.345 . S
C516 C517 1.387 . S
C516 C520 1.391 . S
C517 C516 1.387 . S
C517 C518 1.369 . S
C517 H526 0.929 . S
C518 N515 1.346 . S
C518 C517 1.369 . S
C518 H521 0.928 . S
C519 N515 1.345 . S
C519 C520 1.371 . S
C519 H522 0.931 . S
C520 C516 1.391 . S
C520 C519 1.371 . S
C520 H527 0.930 . S
H521 C518 0.928 . S
H522 C519 0.931 . S
H523 C499 0.930 . S
H524 C496 0.930 . S
H525 C505 0.930 . S
H526 C517 0.929 . S
H527 C520 0.930 . S
C528 C529 1.351 . S
C528 N531 1.368 . S
C528 H533 0.931 . S
C529 C528 1.351 . S
C529 N530 1.373 . S
C529 H557 0.930 . S
N530 C529 1.373 . S
N530 C532 1.340 . S
N531 C528 1.368 . S
N531 C532 1.321 . S
N531 Co534 2.135 . S
C532 N530 1.340 . S
C532 N531 1.321 . S
C532 H556 0.930 . S
H533 C528 0.931 . S
Co534 N531 2.135 . S
Co534 N537 2.121 . S
Co534 O542 2.055 . S
Co534 O545 2.039 . S
Co534 N548 2.140 . S
C535 O536 1.227 . S
C535 O545 1.265 . S
O536 C535 1.227 . S
N537 Co534 2.121 . S
N537 C539 1.375 . S
N537 C540 1.313 . S
C538 C539 1.338 . S
C538 N541 1.377 . S
C538 H558 0.930 . S
C539 N537 1.375 . S
C539 C538 1.338 . S
C539 H543 0.931 . S
C540 N537 1.313 . S
C540 N541 1.344 . S
C540 H544 0.930 . S
N541 C538 1.377 . S
N541 C540 1.344 . S
O542 Co534 2.055 . S
O542 C546 1.253 . S
H543 C539 0.931 . S
H544 C540 0.930 . S
O545 Co534 2.039 . S
O545 C535 1.265 . S
C546 O542 1.253 . S
C546 O547 1.227 . S
O547 C546 1.227 . S
N548 Co534 2.140 . S
N548 C551 1.346 . S
N548 C552 1.345 . S
C549 C550 1.387 . S
C549 C553 1.391 . S
C550 C549 1.387 . S
C550 C551 1.369 . S
C550 H559 0.929 . S
C551 N548 1.346 . S
C551 C550 1.369 . S
C551 H554 0.928 . S
C552 N548 1.345 . S
C552 C553 1.371 . S
C552 H555 0.931 . S
C553 C549 1.391 . S
C553 C552 1.371 . S
C553 H560 0.930 . S
H554 C551 0.928 . S
H555 C552 0.931 . S
H556 C532 0.930 . S
H557 C529 0.930 . S
H558 C538 0.930 . S
H559 C550 0.929 . S
H560 C553 0.930 . S
C561 C562 1.351 . S
C561 N564 1.368 . S
C561 H566 0.931 . S
C562 C561 1.351 . S
C562 N563 1.373 . S
C562 H590 0.930 . S
N563 C562 1.373 . S
N563 C565 1.340 . S
N564 C561 1.368 . S
N564 C565 1.321 . S
N564 Co567 2.135 . S
C565 N563 1.340 . S
C565 N564 1.321 . S
C565 H589 0.930 . S
H566 C561 0.931 . S
Co567 N564 2.135 . S
Co567 N570 2.121 . S
Co567 O575 2.055 . S
Co567 O578 2.039 . S
Co567 N581 2.140 . S
C568 O569 1.227 . S
C568 O578 1.265 . S
O569 C568 1.227 . S
N570 Co567 2.121 . S
N570 C572 1.375 . S
N570 C573 1.313 . S
C571 C572 1.338 . S
C571 N574 1.377 . S
C571 H591 0.930 . S
C572 N570 1.375 . S
C572 C571 1.338 . S
C572 H576 0.931 . S
C573 N570 1.313 . S
C573 N574 1.344 . S
C573 H577 0.930 . S
N574 C571 1.377 . S
N574 C573 1.344 . S
O575 Co567 2.055 . S
O575 C579 1.253 . S
H576 C572 0.931 . S
H577 C573 0.930 . S
O578 Co567 2.039 . S
O578 C568 1.265 . S
C579 O575 1.253 . S
C579 O580 1.227 . S
O580 C579 1.227 . S
N581 Co567 2.140 . S
N581 C584 1.346 . S
N581 C585 1.345 . S
C582 C583 1.387 . S
C582 C586 1.391 . S
C583 C582 1.387 . S
C583 C584 1.369 . S
C583 H592 0.929 . S
C584 N581 1.346 . S
C584 C583 1.369 . S
C584 H587 0.928 . S
C585 N581 1.345 . S
C585 C586 1.371 . S
C585 H588 0.931 . S
C586 C582 1.391 . S
C586 C585 1.371 . S
C586 H593 0.930 . S
H587 C584 0.928 . S
H588 C585 0.931 . S
H589 C565 0.930 . S
H590 C562 0.930 . S
H591 C571 0.930 . S
H592 C583 0.929 . S
H593 C586 0.930 . S
C594 C595 1.351 . S
C594 N597 1.368 . S
C594 H599 0.931 . S
C595 C594 1.351 . S
C595 N596 1.373 . S
C595 H623 0.930 . S
N596 C595 1.373 . S
N596 C598 1.340 . S
N597 C594 1.368 . S
N597 C598 1.321 . S
N597 Co600 2.135 . S
C598 N596 1.340 . S
C598 N597 1.321 . S
C598 H622 0.930 . S
H599 C594 0.931 . S
Co600 N597 2.135 . S
Co600 N603 2.121 . S
Co600 O608 2.055 . S
Co600 O611 2.039 . S
Co600 N614 2.140 . S
C601 O602 1.227 . S
C601 O611 1.265 . S
O602 C601 1.227 . S
N603 Co600 2.121 . S
N603 C605 1.375 . S
N603 C606 1.313 . S
C604 C605 1.338 . S
C604 N607 1.377 . S
C604 H624 0.930 . S
C605 N603 1.375 . S
C605 C604 1.338 . S
C605 H609 0.931 . S
C606 N603 1.313 . S
C606 N607 1.344 . S
C606 H610 0.930 . S
N607 C604 1.377 . S
N607 C606 1.344 . S
O608 Co600 2.055 . S
O608 C612 1.253 . S
H609 C605 0.931 . S
H610 C606 0.930 . S
O611 Co600 2.039 . S
O611 C601 1.265 . S
C612 O608 1.253 . S
C612 O613 1.227 . S
O613 C612 1.227 . S
N614 Co600 2.140 . S
N614 C617 1.346 . S
N614 C618 1.345 . S
C615 C616 1.387 . S
C615 C619 1.391 . S
C616 C615 1.387 . S
C616 C617 1.369 . S
C616 H625 0.929 . S
C617 N614 1.346 . S
C617 C616 1.369 . S
C617 H620 0.928 . S
C618 N614 1.345 . S
C618 C619 1.371 . S
C618 H621 0.931 . S
C619 C615 1.391 . S
C619 C618 1.371 . S
C619 H626 0.930 . S
H620 C617 0.928 . S
H621 C618 0.931 . S
H622 C598 0.930 . S
H623 C595 0.930 . S
H624 C604 0.930 . S
H625 C616 0.929 . S
H626 C619 0.930 . S
C627 C628 1.351 . S
C627 N630 1.368 . S
C627 H632 0.931 . S
C628 C627 1.351 . S
C628 N629 1.373 . S
C628 H656 0.930 . S
N629 C628 1.373 . S
N629 C631 1.340 . S
N630 C627 1.368 . S
N630 C631 1.321 . S
N630 Co633 2.135 . S
C631 N629 1.340 . S
C631 N630 1.321 . S
C631 H655 0.930 . S
H632 C627 0.931 . S
Co633 N630 2.135 . S
Co633 N636 2.121 . S
Co633 O641 2.055 . S
Co633 O644 2.039 . S
Co633 N647 2.140 . S
C634 O635 1.227 . S
C634 O644 1.265 . S
O635 C634 1.227 . S
N636 Co633 2.121 . S
N636 C638 1.375 . S
N636 C639 1.313 . S
C637 C638 1.338 . S
C637 N640 1.377 . S
C637 H657 0.930 . S
C638 N636 1.375 . S
C638 C637 1.338 . S
C638 H642 0.931 . S
C639 N636 1.313 . S
C639 N640 1.344 . S
C639 H643 0.930 . S
N640 C637 1.377 . S
N640 C639 1.344 . S
O641 Co633 2.055 . S
O641 C645 1.253 . S
H642 C638 0.931 . S
H643 C639 0.930 . S
O644 Co633 2.039 . S
O644 C634 1.265 . S
C645 O641 1.253 . S
C645 O646 1.227 . S
O646 C645 1.227 . S
N647 Co633 2.140 . S
N647 C650 1.346 . S
N647 C651 1.345 . S
C648 C649 1.387 . S
C648 C652 1.391 . S
C649 C648 1.387 . S
C649 C650 1.369 . S
C649 H658 0.929 . S
C650 N647 1.346 . S
C650 C649 1.369 . S
C650 H653 0.928 . S
C651 N647 1.345 . S
C651 C652 1.371 . S
C651 H654 0.931 . S
C652 C648 1.391 . S
C652 C651 1.371 . S
C652 H659 0.930 . S
H653 C650 0.928 . S
H654 C651 0.931 . S
H655 C631 0.930 . S
H656 C628 0.930 . S
H657 C637 0.930 . S
H658 C649 0.929 . S
H659 C652 0.930 . S
C660 C661 1.351 . S
C660 N663 1.368 . S
C660 H665 0.931 . S
C661 C660 1.351 . S
C661 N662 1.373 . S
C661 H689 0.930 . S
N662 C661 1.373 . S
N662 C664 1.340 . S
N663 C660 1.368 . S
N663 C664 1.321 . S
N663 Co666 2.135 . S
C664 N662 1.340 . S
C664 N663 1.321 . S
C664 H688 0.930 . S
H665 C660 0.931 . S
Co666 N663 2.135 . S
Co666 N669 2.121 . S
Co666 O674 2.055 . S
Co666 O677 2.039 . S
Co666 N680 2.140 . S
C667 O668 1.227 . S
C667 O677 1.265 . S
O668 C667 1.227 . S
N669 Co666 2.121 . S
N669 C671 1.375 . S
N669 C672 1.313 . S
C670 C671 1.338 . S
C670 N673 1.377 . S
C670 H690 0.930 . S
C671 N669 1.375 . S
C671 C670 1.338 . S
C671 H675 0.931 . S
C672 N669 1.313 . S
C672 N673 1.344 . S
C672 H676 0.930 . S
N673 C670 1.377 . S
N673 C672 1.344 . S
O674 Co666 2.055 . S
O674 C678 1.253 . S
H675 C671 0.931 . S
H676 C672 0.930 . S
O677 Co666 2.039 . S
O677 C667 1.265 . S
C678 O674 1.253 . S
C678 O679 1.227 . S
O679 C678 1.227 . S
N680 Co666 2.140 . S
N680 C683 1.346 . S
N680 C684 1.345 . S
C681 C682 1.387 . S
C681 C685 1.391 . S
C682 C681 1.387 . S
C682 C683 1.369 . S
C682 H691 0.929 . S
C683 N680 1.346 . S
C683 C682 1.369 . S
C683 H686 0.928 . S
C684 N680 1.345 . S
C684 C685 1.371 . S
C684 H687 0.931 . S
C685 C681 1.391 . S
C685 C684 1.371 . S
C685 H692 0.930 . S
H686 C683 0.928 . S
H687 C684 0.931 . S
H688 C664 0.930 . S
H689 C661 0.930 . S
H690 C670 0.930 . S
H691 C682 0.929 . S
H692 C685 0.930 . S
C693 C694 1.351 . S
C693 N696 1.368 . S
C693 H698 0.931 . S
C694 C693 1.351 . S
C694 N695 1.373 . S
C694 H722 0.930 . S
N695 C694 1.373 . S
N695 C697 1.340 . S
N696 C693 1.368 . S
N696 C697 1.321 . S
N696 Co699 2.135 . S
C697 N695 1.340 . S
C697 N696 1.321 . S
C697 H721 0.930 . S
H698 C693 0.931 . S
Co699 N696 2.135 . S
Co699 N702 2.121 . S
Co699 O707 2.055 . S
Co699 O710 2.039 . S
Co699 N713 2.140 . S
C700 O701 1.227 . S
C700 O710 1.265 . S
O701 C700 1.227 . S
N702 Co699 2.121 . S
N702 C704 1.375 . S
N702 C705 1.313 . S
C703 C704 1.338 . S
C703 N706 1.377 . S
C703 H723 0.930 . S
C704 N702 1.375 . S
C704 C703 1.338 . S
C704 H708 0.931 . S
C705 N702 1.313 . S
C705 N706 1.344 . S
C705 H709 0.930 . S
N706 C703 1.377 . S
N706 C705 1.344 . S
O707 Co699 2.055 . S
O707 C711 1.253 . S
H708 C704 0.931 . S
H709 C705 0.930 . S
O710 Co699 2.039 . S
O710 C700 1.265 . S
C711 O707 1.253 . S
C711 O712 1.227 . S
O712 C711 1.227 . S
N713 Co699 2.140 . S
N713 C716 1.346 . S
N713 C717 1.345 . S
C714 C715 1.387 . S
C714 C718 1.391 . S
C715 C714 1.387 . S
C715 C716 1.369 . S
C715 H724 0.929 . S
C716 N713 1.346 . S
C716 C715 1.369 . S
C716 H719 0.928 . S
C717 N713 1.345 . S
C717 C718 1.371 . S
C717 H720 0.931 . S
C718 C714 1.391 . S
C718 C717 1.371 . S
C718 H725 0.930 . S
H719 C716 0.928 . S
H720 C717 0.931 . S
H721 C697 0.930 . S
H722 C694 0.930 . S
H723 C703 0.930 . S
H724 C715 0.929 . S
H725 C718 0.930 . S
C726 C727 1.351 . S
C726 N729 1.368 . S
C726 H731 0.931 . S
C727 C726 1.351 . S
C727 N728 1.373 . S
C727 H755 0.930 . S
N728 C727 1.373 . S
N728 C730 1.340 . S
N729 C726 1.368 . S
N729 C730 1.321 . S
N729 Co732 2.135 . S
C730 N728 1.340 . S
C730 N729 1.321 . S
C730 H754 0.930 . S
H731 C726 0.931 . S
Co732 N729 2.135 . S
Co732 N735 2.121 . S
Co732 O740 2.055 . S
Co732 O743 2.039 . S
Co732 N746 2.140 . S
C733 O734 1.227 . S
C733 O743 1.265 . S
O734 C733 1.227 . S
N735 Co732 2.121 . S
N735 C737 1.375 . S
N735 C738 1.313 . S
C736 C737 1.338 . S
C736 N739 1.377 . S
C736 H756 0.930 . S
C737 N735 1.375 . S
C737 C736 1.338 . S
C737 H741 0.931 . S
C738 N735 1.313 . S
C738 N739 1.344 . S
C738 H742 0.930 . S
N739 C736 1.377 . S
N739 C738 1.344 . S
O740 Co732 2.055 . S
O740 C744 1.253 . S
H741 C737 0.931 . S
H742 C738 0.930 . S
O743 Co732 2.039 . S
O743 C733 1.265 . S
C744 O740 1.253 . S
C744 O745 1.227 . S
O745 C744 1.227 . S
N746 Co732 2.140 . S
N746 C749 1.346 . S
N746 C750 1.345 . S
C747 C748 1.387 . S
C747 C751 1.391 . S
C748 C747 1.387 . S
C748 C749 1.369 . S
C748 H757 0.929 . S
C749 N746 1.346 . S
C749 C748 1.369 . S
C749 H752 0.928 . S
C750 N746 1.345 . S
C750 C751 1.371 . S
C750 H753 0.931 . S
C751 C747 1.391 . S
C751 C750 1.371 . S
C751 H758 0.930 . S
H752 C749 0.928 . S
H753 C750 0.931 . S
H754 C730 0.930 . S
H755 C727 0.930 . S
H756 C736 0.930 . S
H757 C748 0.929 . S
H758 C751 0.930 . S
C759 C760 1.351 . S
C759 N762 1.368 . S
C759 H764 0.931 . S
C760 C759 1.351 . S
C760 N761 1.373 . S
C760 H788 0.930 . S
N761 C760 1.373 . S
N761 C763 1.340 . S
N762 C759 1.368 . S
N762 C763 1.321 . S
N762 Co765 2.135 . S
C763 N761 1.340 . S
C763 N762 1.321 . S
C763 H787 0.930 . S
H764 C759 0.931 . S
Co765 N762 2.135 . S
Co765 N768 2.121 . S
Co765 O773 2.055 . S
Co765 O776 2.039 . S
Co765 N779 2.140 . S
C766 O767 1.227 . S
C766 O776 1.265 . S
O767 C766 1.227 . S
N768 Co765 2.121 . S
N768 C770 1.375 . S
N768 C771 1.313 . S
C769 C770 1.338 . S
C769 N772 1.377 . S
C769 H789 0.930 . S
C770 N768 1.375 . S
C770 C769 1.338 . S
C770 H774 0.931 . S
C771 N768 1.313 . S
C771 N772 1.344 . S
C771 H775 0.930 . S
N772 C769 1.377 . S
N772 C771 1.344 . S
O773 Co765 2.055 . S
O773 C777 1.253 . S
H774 C770 0.931 . S
H775 C771 0.930 . S
O776 Co765 2.039 . S
O776 C766 1.265 . S
C777 O773 1.253 . S
C777 O778 1.227 . S
O778 C777 1.227 . S
N779 Co765 2.140 . S
N779 C782 1.346 . S
N779 C783 1.345 . S
C780 C781 1.387 . S
C780 C784 1.391 . S
C781 C780 1.387 . S
C781 C782 1.369 . S
C781 H790 0.929 . S
C782 N779 1.346 . S
C782 C781 1.369 . S
C782 H785 0.928 . S
C783 N779 1.345 . S
C783 C784 1.371 . S
C783 H786 0.931 . S
C784 C780 1.391 . S
C784 C783 1.371 . S
C784 H791 0.930 . S
H785 C782 0.928 . S
H786 C783 0.931 . S
H787 C763 0.930 . S
H788 C760 0.930 . S
H789 C769 0.930 . S
H790 C781 0.929 . S
H791 C784 0.930 . S
C792 C793 1.351 . S
C792 N795 1.368 . S
C792 H797 0.931 . S
C793 C792 1.351 . S
C793 N794 1.373 . S
C793 H821 0.930 . S
N794 C793 1.373 . S
N794 C796 1.340 . S
N795 C792 1.368 . S
N795 C796 1.321 . S
N795 Co798 2.135 . S
C796 N794 1.340 . S
C796 N795 1.321 . S
C796 H820 0.930 . S
H797 C792 0.931 . S
Co798 N795 2.135 . S
Co798 N801 2.121 . S
Co798 O806 2.055 . S
Co798 O809 2.039 . S
Co798 N812 2.140 . S
C799 O800 1.227 . S
C799 O809 1.265 . S
O800 C799 1.227 . S
N801 Co798 2.121 . S
N801 C803 1.375 . S
N801 C804 1.313 . S
C802 C803 1.338 . S
C802 N805 1.377 . S
C802 H822 0.930 . S
C803 N801 1.375 . S
C803 C802 1.338 . S
C803 H807 0.931 . S
C804 N801 1.313 . S
C804 N805 1.344 . S
C804 H808 0.930 . S
N805 C802 1.377 . S
N805 C804 1.344 . S
O806 Co798 2.055 . S
O806 C810 1.253 . S
H807 C803 0.931 . S
H808 C804 0.930 . S
O809 Co798 2.039 . S
O809 C799 1.265 . S
C810 O806 1.253 . S
C810 O811 1.227 . S
O811 C810 1.227 . S
N812 Co798 2.140 . S
N812 C815 1.346 . S
N812 C816 1.345 . S
C813 C814 1.387 . S
C813 C817 1.391 . S
C814 C813 1.387 . S
C814 C815 1.369 . S
C814 H823 0.929 . S
C815 N812 1.346 . S
C815 C814 1.369 . S
C815 H818 0.928 . S
C816 N812 1.345 . S
C816 C817 1.371 . S
C816 H819 0.931 . S
C817 C813 1.391 . S
C817 C816 1.371 . S
C817 H824 0.930 . S
H818 C815 0.928 . S
H819 C816 0.931 . S
H820 C796 0.930 . S
H821 C793 0.930 . S
H822 C802 0.930 . S
H823 C814 0.929 . S
H824 C817 0.930 . S
C825 C826 1.351 . S
C825 N828 1.368 . S
C825 H830 0.931 . S
C826 C825 1.351 . S
C826 N827 1.373 . S
C826 H854 0.930 . S
N827 C826 1.373 . S
N827 C829 1.340 . S
N828 C825 1.368 . S
N828 C829 1.321 . S
N828 Co831 2.135 . S
C829 N827 1.340 . S
C829 N828 1.321 . S
C829 H853 0.930 . S
H830 C825 0.931 . S
Co831 N828 2.135 . S
Co831 N834 2.121 . S
Co831 O839 2.055 . S
Co831 O842 2.039 . S
Co831 N845 2.140 . S
C832 O833 1.227 . S
C832 O842 1.265 . S
O833 C832 1.227 . S
N834 Co831 2.121 . S
N834 C836 1.375 . S
N834 C837 1.313 . S
C835 C836 1.338 . S
C835 N838 1.377 . S
C835 H855 0.930 . S
C836 N834 1.375 . S
C836 C835 1.338 . S
C836 H840 0.931 . S
C837 N834 1.313 . S
C837 N838 1.344 . S
C837 H841 0.930 . S
N838 C835 1.377 . S
N838 C837 1.344 . S
O839 Co831 2.055 . S
O839 C843 1.253 . S
H840 C836 0.931 . S
H841 C837 0.930 . S
O842 Co831 2.039 . S
O842 C832 1.265 . S
C843 O839 1.253 . S
C843 O844 1.227 . S
O844 C843 1.227 . S
N845 Co831 2.140 . S
N845 C848 1.346 . S
N845 C849 1.345 . S
C846 C847 1.387 . S
C846 C850 1.391 . S
C847 C846 1.387 . S
C847 C848 1.369 . S
C847 H856 0.929 . S
C848 N845 1.346 . S
C848 C847 1.369 . S
C848 H851 0.928 . S
C849 N845 1.345 . S
C849 C850 1.371 . S
C849 H852 0.931 . S
C850 C846 1.391 . S
C850 C849 1.371 . S
C850 H857 0.930 . S
H851 C848 0.928 . S
H852 C849 0.931 . S
H853 C829 0.930 . S
H854 C826 0.930 . S
H855 C835 0.930 . S
H856 C847 0.929 . S
H857 C850 0.930 . S
C858 C859 1.351 . S
C858 N861 1.368 . S
C858 H863 0.931 . S
C859 C858 1.351 . S
C859 N860 1.373 . S
C859 H887 0.930 . S
N860 C859 1.373 . S
N860 C862 1.340 . S
N861 C858 1.368 . S
N861 C862 1.321 . S
N861 Co864 2.135 . S
C862 N860 1.340 . S
C862 N861 1.321 . S
C862 H886 0.930 . S
H863 C858 0.931 . S
Co864 N861 2.135 . S
Co864 N867 2.121 . S
Co864 O872 2.055 . S
Co864 O875 2.039 . S
Co864 N878 2.140 . S
C865 O866 1.227 . S
C865 O875 1.265 . S
O866 C865 1.227 . S
N867 Co864 2.121 . S
N867 C869 1.375 . S
N867 C870 1.313 . S
C868 C869 1.338 . S
C868 N871 1.377 . S
C868 H888 0.930 . S
C869 N867 1.375 . S
C869 C868 1.338 . S
C869 H873 0.931 . S
C870 N867 1.313 . S
C870 N871 1.344 . S
C870 H874 0.930 . S
N871 C868 1.377 . S
N871 C870 1.344 . S
O872 Co864 2.055 . S
O872 C876 1.253 . S
H873 C869 0.931 . S
H874 C870 0.930 . S
O875 Co864 2.039 . S
O875 C865 1.265 . S
C876 O872 1.253 . S
C876 O877 1.227 . S
O877 C876 1.227 . S
N878 Co864 2.140 . S
N878 C881 1.346 . S
N878 C882 1.345 . S
C879 C880 1.387 . S
C879 C883 1.391 . S
C880 C879 1.387 . S
C880 C881 1.369 . S
C880 H889 0.929 . S
C881 N878 1.346 . S
C881 C880 1.369 . S
C881 H884 0.928 . S
C882 N878 1.345 . S
C882 C883 1.371 . S
C882 H885 0.931 . S
C883 C879 1.391 . S
C883 C882 1.371 . S
C883 H890 0.930 . S
H884 C881 0.928 . S
H885 C882 0.931 . S
H886 C862 0.930 . S
H887 C859 0.930 . S
H888 C868 0.930 . S
H889 C880 0.929 . S
H890 C883 0.930 . S
C891 C892 1.351 . S
C891 N894 1.368 . S
C891 H896 0.931 . S
C892 C891 1.351 . S
C892 N893 1.373 . S
C892 H920 0.930 . S
N893 C892 1.373 . S
N893 C895 1.340 . S
N894 C891 1.368 . S
N894 C895 1.321 . S
N894 Co897 2.135 . S
C895 N893 1.340 . S
C895 N894 1.321 . S
C895 H919 0.930 . S
H896 C891 0.931 . S
Co897 N894 2.135 . S
Co897 N900 2.121 . S
Co897 O905 2.055 . S
Co897 O908 2.039 . S
Co897 N911 2.140 . S
C898 O899 1.227 . S
C898 O908 1.265 . S
O899 C898 1.227 . S
N900 Co897 2.121 . S
N900 C902 1.375 . S
N900 C903 1.313 . S
C901 C902 1.338 . S
C901 N904 1.377 . S
C901 H921 0.930 . S
C902 N900 1.375 . S
C902 C901 1.338 . S
C902 H906 0.931 . S
C903 N900 1.313 . S
C903 N904 1.344 . S
C903 H907 0.930 . S
N904 C901 1.377 . S
N904 C903 1.344 . S
O905 Co897 2.055 . S
O905 C909 1.253 . S
H906 C902 0.931 . S
H907 C903 0.930 . S
O908 Co897 2.039 . S
O908 C898 1.265 . S
C909 O905 1.253 . S
C909 O910 1.227 . S
O910 C909 1.227 . S
N911 Co897 2.140 . S
N911 C914 1.346 . S
N911 C915 1.345 . S
C912 C913 1.387 . S
C912 C916 1.391 . S
C913 C912 1.387 . S
C913 C914 1.369 . S
C913 H922 0.929 . S
C914 N911 1.346 . S
C914 C913 1.369 . S
C914 H917 0.928 . S
C915 N911 1.345 . S
C915 C916 1.371 . S
C915 H918 0.931 . S
C916 C912 1.391 . S
C916 C915 1.371 . S
C916 H923 0.930 . S
H917 C914 0.928 . S
H918 C915 0.931 . S
H919 C895 0.930 . S
H920 C892 0.930 . S
H921 C901 0.930 . S
H922 C913 0.929 . S
H923 C916 0.930 . S
C924 C925 1.351 . S
C924 N927 1.368 . S
C924 H929 0.931 . S
C925 C924 1.351 . S
C925 N926 1.373 . S
C925 H953 0.930 . S
N926 C925 1.373 . S
N926 C928 1.340 . S
N927 C924 1.368 . S
N927 C928 1.321 . S
N927 Co930 2.135 . S
C928 N926 1.340 . S
C928 N927 1.321 . S
C928 H952 0.930 . S
H929 C924 0.931 . S
Co930 N927 2.135 . S
Co930 N933 2.121 . S
Co930 O938 2.055 . S
Co930 O941 2.039 . S
Co930 N944 2.140 . S
C931 O932 1.227 . S
C931 O941 1.265 . S
O932 C931 1.227 . S
N933 Co930 2.121 . S
N933 C935 1.375 . S
N933 C936 1.313 . S
C934 C935 1.338 . S
C934 N937 1.377 . S
C934 H954 0.930 . S
C935 N933 1.375 . S
C935 C934 1.338 . S
C935 H939 0.931 . S
C936 N933 1.313 . S
C936 N937 1.344 . S
C936 H940 0.930 . S
N937 C934 1.377 . S
N937 C936 1.344 . S
O938 Co930 2.055 . S
O938 C942 1.253 . S
H939 C935 0.931 . S
H940 C936 0.930 . S
O941 Co930 2.039 . S
O941 C931 1.265 . S
C942 O938 1.253 . S
C942 O943 1.227 . S
O943 C942 1.227 . S
N944 Co930 2.140 . S
N944 C947 1.346 . S
N944 C948 1.345 . S
C945 C946 1.387 . S
C945 C949 1.391 . S
C946 C945 1.387 . S
C946 C947 1.369 . S
C946 H955 0.929 . S
C947 N944 1.346 . S
C947 C946 1.369 . S
C947 H950 0.928 . S
C948 N944 1.345 . S
C948 C949 1.371 . S
C948 H951 0.931 . S
C949 C945 1.391 . S
C949 C948 1.371 . S
C949 H956 0.930 . S
H950 C947 0.928 . S
H951 C948 0.931 . S
H952 C928 0.930 . S
H953 C925 0.930 . S
H954 C934 0.930 . S
H955 C946 0.929 . S
H956 C949 0.930 . S
C957 C958 1.351 . S
C957 N960 1.368 . S
C957 H962 0.931 . S
C958 C957 1.351 . S
C958 N959 1.373 . S
C958 H986 0.930 . S
N959 C958 1.373 . S
N959 C961 1.340 . S
N960 C957 1.368 . S
N960 C961 1.321 . S
N960 Co963 2.135 . S
C961 N959 1.340 . S
C961 N960 1.321 . S
C961 H985 0.930 . S
H962 C957 0.931 . S
Co963 N960 2.135 . S
Co963 N966 2.121 . S
Co963 O971 2.055 . S
Co963 O974 2.039 . S
Co963 N977 2.140 . S
C964 O965 1.227 . S
C964 O974 1.265 . S
O965 C964 1.227 . S
N966 Co963 2.121 . S
N966 C968 1.375 . S
N966 C969 1.313 . S
C967 C968 1.338 . S
C967 N970 1.377 . S
C967 H987 0.930 . S
C968 N966 1.375 . S
C968 C967 1.338 . S
C968 H972 0.931 . S
C969 N966 1.313 . S
C969 N970 1.344 . S
C969 H973 0.930 . S
N970 C967 1.377 . S
N970 C969 1.344 . S
O971 Co963 2.055 . S
O971 C975 1.253 . S
H972 C968 0.931 . S
H973 C969 0.930 . S
O974 Co963 2.039 . S
O974 C964 1.265 . S
C975 O971 1.253 . S
C975 O976 1.227 . S
O976 C975 1.227 . S
N977 Co963 2.140 . S
N977 C980 1.346 . S
N977 C981 1.345 . S
C978 C979 1.387 . S
C978 C982 1.391 . S
C979 C978 1.387 . S
C979 C980 1.369 . S
C979 H988 0.929 . S
C980 N977 1.346 . S
C980 C979 1.369 . S
C980 H983 0.928 . S
C981 N977 1.345 . S
C981 C982 1.371 . S
C981 H984 0.931 . S
C982 C978 1.391 . S
C982 C981 1.371 . S
C982 H989 0.930 . S
H983 C980 0.928 . S
H984 C981 0.931 . S
H985 C961 0.930 . S
H986 C958 0.930 . S
H987 C967 0.930 . S
H988 C979 0.929 . S
H989 C982 0.930 . S
C990 C991 1.351 . S
C990 N993 1.368 . S
C990 H995 0.931 . S
C991 C990 1.351 . S
C991 N992 1.373 . S
C991 H1019 0.930 . S
N992 C991 1.373 . S
N992 C994 1.340 . S
N993 C990 1.368 . S
N993 C994 1.321 . S
N993 Co996 2.135 . S
C994 N992 1.340 . S
C994 N993 1.321 . S
C994 H1018 0.930 . S
H995 C990 0.931 . S
Co996 N993 2.135 . S
Co996 N999 2.121 . S
Co996 O1004 2.055 . S
Co996 O1007 2.039 . S
Co996 N1010 2.140 . S
C997 O998 1.227 . S
C997 O1007 1.265 . S
O998 C997 1.227 . S
N999 Co996 2.121 . S
N999 C1001 1.375 . S
N999 C1002 1.313 . S
C1000 C1001 1.338 . S
C1000 N1003 1.377 . S
C1000 H1020 0.930 . S
C1001 N999 1.375 . S
C1001 C1000 1.338 . S
C1001 H1005 0.931 . S
C1002 N999 1.313 . S
C1002 N1003 1.344 . S
C1002 H1006 0.930 . S
N1003 C1000 1.377 . S
N1003 C1002 1.344 . S
O1004 Co996 2.055 . S
O1004 C1008 1.253 . S
H1005 C1001 0.931 . S
H1006 C1002 0.930 . S
O1007 Co996 2.039 . S
O1007 C997 1.265 . S
C1008 O1004 1.253 . S
C1008 O1009 1.227 . S
O1009 C1008 1.227 . S
N1010 Co996 2.140 . S
N1010 C1013 1.346 . S
N1010 C1014 1.345 . S
C1011 C1012 1.387 . S
C1011 C1015 1.391 . S
C1012 C1011 1.387 . S
C1012 C1013 1.369 . S
C1012 H1021 0.929 . S
C1013 N1010 1.346 . S
C1013 C1012 1.369 . S
C1013 H1016 0.928 . S
C1014 N1010 1.345 . S
C1014 C1015 1.371 . S
C1014 H1017 0.931 . S
C1015 C1011 1.391 . S
C1015 C1014 1.371 . S
C1015 H1022 0.930 . S
H1016 C1013 0.928 . S
H1017 C1014 0.931 . S
H1018 C994 0.930 . S
H1019 C991 0.930 . S
H1020 C1000 0.930 . S
H1021 C1012 0.929 . S
H1022 C1015 0.930 . S
C1023 C1024 1.351 . S
C1023 N1026 1.368 . S
C1023 H1028 0.931 . S
C1024 C1023 1.351 . S
C1024 N1025 1.373 . S
C1024 H1052 0.930 . S
N1025 C1024 1.373 . S
N1025 C1027 1.340 . S
N1026 C1023 1.368 . S
N1026 C1027 1.321 . S
N1026 Co1029 2.135 . S
C1027 N1025 1.340 . S
C1027 N1026 1.321 . S
C1027 H1051 0.930 . S
H1028 C1023 0.931 . S
Co1029 N1026 2.135 . S
Co1029 N1032 2.121 . S
Co1029 O1037 2.055 . S
Co1029 O1040 2.039 . S
Co1029 N1043 2.140 . S
C1030 O1031 1.227 . S
C1030 O1040 1.265 . S
O1031 C1030 1.227 . S
N1032 Co1029 2.121 . S
N1032 C1034 1.375 . S
N1032 C1035 1.313 . S
C1033 C1034 1.338 . S
C1033 N1036 1.377 . S
C1033 H1053 0.930 . S
C1034 N1032 1.375 . S
C1034 C1033 1.338 . S
C1034 H1038 0.931 . S
C1035 N1032 1.313 . S
C1035 N1036 1.344 . S
C1035 H1039 0.930 . S
N1036 C1033 1.377 . S
N1036 C1035 1.344 . S
O1037 Co1029 2.055 . S
O1037 C1041 1.253 . S
H1038 C1034 0.931 . S
H1039 C1035 0.930 . S
O1040 Co1029 2.039 . S
O1040 C1030 1.265 . S
C1041 O1037 1.253 . S
C1041 O1042 1.227 . S
O1042 C1041 1.227 . S
N1043 Co1029 2.140 . S
N1043 C1046 1.346 . S
N1043 C1047 1.345 . S
C1044 C1045 1.387 . S
C1044 C1048 1.391 . S
C1045 C1044 1.387 . S
C1045 C1046 1.369 . S
C1045 H1054 0.929 . S
C1046 N1043 1.346 . S
C1046 C1045 1.369 . S
C1046 H1049 0.928 . S
C1047 N1043 1.345 . S
C1047 C1048 1.371 . S
C1047 H1050 0.931 . S
C1048 C1044 1.391 . S
C1048 C1047 1.371 . S
C1048 H1055 0.930 . S
H1049 C1046 0.928 . S
H1050 C1047 0.931 . S
H1051 C1027 0.930 . S
H1052 C1024 0.930 . S
H1053 C1033 0.930 . S
H1054 C1045 0.929 . S
H1055 C1048 0.930 . S
C1056 C1057 1.387 . S
C1056 H1060 0.950 . S
C1056 C1065 1.390 . S
C1057 C1056 1.387 . S
C1057 C1059 1.387 . S
H1058 C1065 0.950 . S
C1059 C1057 1.387 . S
C1059 C1061 1.390 . S
C1059 H1063 0.950 . S
H1060 C1056 0.950 . S
C1061 C1059 1.390 . S
C1061 C1062 1.387 . S
C1061 H1064 0.950 . S
C1062 C1061 1.387 . S
C1062 C1065 1.387 . S
H1063 C1059 0.950 . S
H1064 C1061 0.950 . S
C1065 C1056 1.390 . S
C1065 H1058 0.950 . S
C1065 C1062 1.387 . S
C1066 C1067 1.387 . S
C1066 H1070 0.950 . S
C1066 C1075 1.390 1_655 S
C1067 C1066 1.387 . S
C1067 C1069 1.387 1_565 S
H1068 C1075 0.950 . S
C1069 C1067 1.387 1_545 S
C1069 C1071 1.390 1_655 S
C1069 H1073 0.950 . S
H1070 C1066 0.950 . S
C1071 C1069 1.390 1_455 S
C1071 C1072 1.387 . S
C1071 H1074 0.950 . S
C1072 C1071 1.387 . S
C1072 C1075 1.387 1_545 S
H1073 C1069 0.950 . S
H1074 C1071 0.950 . S
C1075 C1066 1.390 1_455 S
C1075 H1068 0.950 . S
C1075 C1072 1.387 1_565 S
C1076 C1077 1.387 . S
C1076 H1080 0.950 . S
C1076 C1085 1.390 . S
C1077 C1076 1.387 . S
C1077 C1079 1.387 . S
H1078 C1085 0.950 . S
C1079 C1077 1.387 . S
C1079 C1081 1.390 . S
C1079 H1083 0.950 . S
H1080 C1076 0.950 . S
C1081 C1079 1.390 . S
C1081 C1082 1.387 . S
C1081 H1084 0.950 . S
C1082 C1081 1.387 . S
C1082 C1085 1.387 . S
H1083 C1079 0.950 . S
H1084 C1081 0.950 . S
C1085 C1076 1.390 . S
C1085 H1078 0.950 . S
C1085 C1082 1.387 . S
C1086 C1087 1.387 1_554 S
C1086 H1090 0.950 . S
C1086 C1095 1.390 . S
C1087 C1086 1.387 1_556 S
C1087 C1089 1.387 1_565 S
H1088 C1095 0.950 . S
C1089 C1087 1.387 1_545 S
C1089 C1091 1.390 . S
C1089 H1093 0.950 . S
H1090 C1086 0.950 . S
C1091 C1089 1.390 . S
C1091 C1092 1.387 1_556 S
C1091 H1094 0.950 . S
C1092 C1091 1.387 1_554 S
C1092 C1095 1.387 1_545 S
H1093 C1089 0.950 . S
H1094 C1091 0.950 . S
C1095 C1086 1.390 . S
C1095 H1088 0.950 . S
C1095 C1092 1.387 1_565 S
C1096 C1097 1.387 . S
C1096 H1100 0.950 . S
C1096 C1105 1.390 . S
C1097 C1096 1.387 . S
C1097 C1099 1.387 . S
H1098 C1105 0.950 . S
C1099 C1097 1.387 . S
C1099 C1101 1.390 . S
C1099 H1103 0.950 . S
H1100 C1096 0.950 . S
C1101 C1099 1.390 . S
C1101 C1102 1.387 . S
C1101 H1104 0.950 . S
C1102 C1101 1.387 . S
C1102 C1105 1.387 . S
H1103 C1099 0.950 . S
H1104 C1101 0.950 . S
C1105 C1096 1.390 . S
C1105 H1098 0.950 . S
C1105 C1102 1.387 . S
C1106 C1107 1.387 1_545 S
C1106 H1110 0.950 . S
C1106 C1115 1.390 . S
C1107 C1106 1.387 1_565 S
C1107 C1109 1.387 . S
H1108 C1115 0.950 . S
C1109 C1107 1.387 . S
C1109 C1111 1.390 . S
C1109 H1113 0.950 . S
H1110 C1106 0.950 . S
C1111 C1109 1.390 . S
C1111 C1112 1.387 1_565 S
C1111 H1114 0.950 . S
C1112 C1111 1.387 1_545 S
C1112 C1115 1.387 . S
H1113 C1109 0.950 . S
H1114 C1111 0.950 . S
C1115 C1106 1.390 . S
C1115 H1108 0.950 . S
C1115 C1112 1.387 . S
C1116 C1117 1.387 . S
C1116 H1120 0.950 . S
C1116 C1125 1.390 . S
C1117 C1116 1.387 . S
C1117 C1119 1.387 . S
H1118 C1125 0.950 . S
C1119 C1117 1.387 . S
C1119 C1121 1.390 . S
C1119 H1123 0.950 . S
H1120 C1116 0.950 . S
C1121 C1119 1.390 . S
C1121 C1122 1.387 . S
C1121 H1124 0.950 . S
C1122 C1121 1.387 . S
C1122 C1125 1.387 . S
H1123 C1119 0.950 . S
H1124 C1121 0.950 . S
C1125 C1116 1.390 . S
C1125 H1118 0.950 . S
C1125 C1122 1.387 . S
C1126 C1127 1.387 1_556 S
C1126 H1130 0.950 . S
C1126 C1135 1.390 1_455 S
C1127 C1126 1.387 1_554 S
C1127 C1129 1.387 1_565 S
H1128 C1135 0.950 . S
C1129 C1127 1.387 1_545 S
C1129 C1131 1.390 1_455 S
C1129 H1133 0.950 . S
H1130 C1126 0.950 . S
C1131 C1129 1.390 1_655 S
C1131 C1132 1.387 1_554 S
C1131 H1134 0.950 . S
C1132 C1131 1.387 1_556 S
C1132 C1135 1.387 1_545 S
H1133 C1129 0.950 . S
H1134 C1131 0.950 . S
C1135 C1126 1.390 1_655 S
C1135 H1128 0.950 . S
C1135 C1132 1.387 1_565 S
C1136 C1137 1.387 . S
C1136 H1140 0.950 . S
C1136 C1145 1.390 . S
C1137 C1136 1.387 . S
C1137 C1139 1.387 . S
H1138 C1145 0.950 . S
C1139 C1137 1.387 . S
C1139 C1141 1.390 . S
C1139 H1143 0.950 . S
H1140 C1136 0.950 . S
C1141 C1139 1.390 . S
C1141 C1142 1.387 . S
C1141 H1144 0.950 . S
C1142 C1141 1.387 . S
C1142 C1145 1.387 . S
H1143 C1139 0.950 . S
H1144 C1141 0.950 . S
C1145 C1136 1.390 . S
C1145 H1138 0.950 . S
C1145 C1142 1.387 . S
C1146 C1147 1.387 . S
C1146 H1150 0.950 . S
C1146 C1155 1.390 . S
C1147 C1146 1.387 . S
C1147 C1149 1.387 . S
H1148 C1155 0.950 . S
C1149 C1147 1.387 . S
C1149 C1151 1.390 . S
C1149 H1153 0.950 . S
H1150 C1146 0.950 . S
C1151 C1149 1.390 . S
C1151 C1152 1.387 . S
C1151 H1154 0.950 . S
C1152 C1151 1.387 . S
C1152 C1155 1.387 . S
H1153 C1149 0.950 . S
H1154 C1151 0.950 . S
C1155 C1146 1.390 . S
C1155 H1148 0.950 . S
C1155 C1152 1.387 . S
C1156 C1157 1.387 . S
C1156 H1160 0.950 . S
C1156 C1165 1.390 . S
C1157 C1156 1.387 . S
C1157 C1159 1.387 . S
H1158 C1165 0.950 . S
C1159 C1157 1.387 . S
C1159 C1161 1.390 . S
C1159 H1163 0.950 . S
H1160 C1156 0.950 . S
C1161 C1159 1.390 . S
C1161 C1162 1.387 . S
C1161 H1164 0.950 . S
C1162 C1161 1.387 . S
C1162 C1165 1.387 . S
H1163 C1159 0.950 . S
H1164 C1161 0.950 . S
C1165 C1156 1.390 . S
C1165 H1158 0.950 . S
C1165 C1162 1.387 . S
C1166 C1167 1.387 . S
C1166 H1170 0.950 . S
C1166 C1175 1.390 . S
C1167 C1166 1.387 . S
C1167 C1169 1.387 . S
H1168 C1175 0.950 . S
C1169 C1167 1.387 . S
C1169 C1171 1.390 . S
C1169 H1173 0.950 . S
H1170 C1166 0.950 . S
C1171 C1169 1.390 . S
C1171 C1172 1.387 . S
C1171 H1174 0.950 . S
C1172 C1171 1.387 . S
C1172 C1175 1.387 . S
H1173 C1169 0.950 . S
H1174 C1171 0.950 . S
C1175 C1166 1.390 . S
C1175 H1168 0.950 . S
C1175 C1172 1.387 . S
C1176 C1177 1.387 1_554 S
C1176 H1180 0.950 . S
C1176 C1185 1.390 . S
C1177 C1176 1.387 1_556 S
C1177 C1179 1.387 . S
H1178 C1185 0.950 . S
C1179 C1177 1.387 . S
C1179 C1181 1.390 . S
C1179 H1183 0.950 . S
H1180 C1176 0.950 . S
C1181 C1179 1.390 . S
C1181 C1182 1.387 1_556 S
C1181 H1184 0.950 . S
C1182 C1181 1.387 1_554 S
C1182 C1185 1.387 . S
H1183 C1179 0.950 . S
H1184 C1181 0.950 . S
C1185 C1176 1.390 . S
C1185 H1178 0.950 . S
C1185 C1182 1.387 . S
C1186 C1187 1.387 . S
C1186 H1190 0.950 . S
C1186 C1195 1.390 1_455 S
C1187 C1186 1.387 . S
C1187 C1189 1.387 . S
H1188 C1195 0.950 . S
C1189 C1187 1.387 . S
C1189 C1191 1.390 1_455 S
C1189 H1193 0.950 . S
H1190 C1186 0.950 . S
C1191 C1189 1.390 1_655 S
C1191 C1192 1.387 . S
C1191 H1194 0.950 . S
C1192 C1191 1.387 . S
C1192 C1195 1.387 . S
H1193 C1189 0.950 . S
H1194 C1191 0.950 . S
C1195 C1186 1.390 1_655 S
C1195 H1188 0.950 . S
C1195 C1192 1.387 . S
C1196 C1197 1.387 . S
C1196 H1200 0.950 . S
C1196 C1205 1.391 1_456 S
C1197 C1196 1.387 . S
C1197 C1199 1.387 . S
H1198 C1205 0.950 . S
C1199 C1197 1.387 . S
C1199 C1201 1.391 1_456 S
C1199 H1203 0.950 . S
H1200 C1196 0.950 . S
C1201 C1199 1.391 1_654 S
C1201 C1202 1.387 . S
C1201 H1204 0.950 . S
C1202 C1201 1.387 . S
C1202 C1205 1.387 . S
H1203 C1199 0.950 . S
H1204 C1201 0.950 . S
C1205 C1196 1.391 1_654 S
C1205 H1198 0.950 . S
C1205 C1202 1.387 . S
C1206 C1207 1.387 . S
C1206 H1210 0.950 . S
C1206 C1215 1.390 . S
C1207 C1206 1.387 . S
C1207 C1209 1.387 . S
H1208 C1215 0.950 . S
C1209 C1207 1.387 . S
C1209 C1211 1.390 . S
C1209 H1213 0.950 . S
H1210 C1206 0.950 . S
C1211 C1209 1.390 . S
C1211 C1212 1.387 . S
C1211 H1214 0.950 . S
C1212 C1211 1.387 . S
C1212 C1215 1.387 . S
H1213 C1209 0.950 . S
H1214 C1211 0.950 . S
C1215 C1206 1.390 . S
C1215 H1208 0.950 . S
C1215 C1212 1.387 . S
C1216 C1217 1.387 . S
C1216 H1220 0.950 . S
C1216 C1225 1.390 . S
C1217 C1216 1.387 . S
C1217 C1219 1.387 . S
H1218 C1225 0.950 . S
C1219 C1217 1.387 . S
C1219 C1221 1.390 . S
C1219 H1223 0.950 . S
H1220 C1216 0.950 . S
C1221 C1219 1.390 . S
C1221 C1222 1.387 . S
C1221 H1224 0.950 . S
C1222 C1221 1.387 . S
C1222 C1225 1.387 . S
H1223 C1219 0.950 . S
H1224 C1221 0.950 . S
C1225 C1216 1.390 . S
C1225 H1218 0.950 . S
C1225 C1222 1.387 . S
C1226 C1227 1.387 . S
C1226 H1230 0.950 . S
C1226 C1235 1.390 1_655 S
C1227 C1226 1.387 . S
C1227 C1229 1.387 . S
H1228 C1235 0.950 . S
C1229 C1227 1.387 . S
C1229 C1231 1.390 1_655 S
C1229 H1233 0.950 . S
H1230 C1226 0.950 . S
C1231 C1229 1.390 1_455 S
C1231 C1232 1.387 . S
C1231 H1234 0.950 . S
C1232 C1231 1.387 . S
C1232 C1235 1.387 . S
H1233 C1229 0.950 . S
H1234 C1231 0.950 . S
C1235 C1226 1.390 1_455 S
C1235 H1228 0.950 . S
C1235 C1232 1.387 . S
C1236 C1237 1.387 . S
C1236 H1240 0.950 . S
C1236 C1245 1.390 . S
C1237 C1236 1.387 . S
C1237 C1239 1.387 . S
H1238 C1245 0.950 . S
C1239 C1237 1.387 . S
C1239 C1241 1.390 . S
C1239 H1243 0.950 . S
H1240 C1236 0.950 . S
C1241 C1239 1.390 . S
C1241 C1242 1.387 . S
C1241 H1244 0.950 . S
C1242 C1241 1.387 . S
C1242 C1245 1.387 . S
H1243 C1239 0.950 . S
H1244 C1241 0.950 . S
C1245 C1236 1.390 . S
C1245 H1238 0.950 . S
C1245 C1242 1.387 . S
C1246 C1247 1.387 . S
C1246 H1250 0.950 . S
C1246 C1255 1.390 . S
C1247 C1246 1.387 . S
C1247 C1249 1.387 . S
H1248 C1255 0.950 . S
C1249 C1247 1.387 . S
C1249 C1251 1.390 . S
C1249 H1253 0.950 . S
H1250 C1246 0.950 . S
C1251 C1249 1.390 . S
C1251 C1252 1.387 . S
C1251 H1254 0.950 . S
C1252 C1251 1.387 . S
C1252 C1255 1.387 . S
H1253 C1249 0.950 . S
H1254 C1251 0.950 . S
C1255 C1246 1.390 . S
C1255 H1248 0.950 . S
C1255 C1252 1.387 . S
C1256 C1257 1.387 . S
C1256 H1260 0.950 . S
C1256 C1265 1.390 . S
C1257 C1256 1.387 . S
C1257 C1259 1.387 . S
H1258 C1265 0.950 . S
C1259 C1257 1.387 . S
C1259 C1261 1.390 . S
C1259 H1263 0.950 . S
H1260 C1256 0.950 . S
C1261 C1259 1.390 . S
C1261 C1262 1.387 . S
C1261 H1264 0.950 . S
C1262 C1261 1.387 . S
C1262 C1265 1.387 . S
H1263 C1259 0.950 . S
H1264 C1261 0.950 . S
C1265 C1256 1.390 . S
C1265 H1258 0.950 . S
C1265 C1262 1.387 . S
C1266 C1267 1.387 . S
C1266 H1270 0.950 . S
C1266 C1275 1.390 . S
C1267 C1266 1.387 . S
C1267 C1269 1.387 . S
H1268 C1275 0.950 . S
C1269 C1267 1.387 . S
C1269 C1271 1.390 . S
C1269 H1273 0.950 . S
H1270 C1266 0.950 . S
C1271 C1269 1.390 . S
C1271 C1272 1.387 . S
C1271 H1274 0.950 . S
C1272 C1271 1.387 . S
C1272 C1275 1.387 . S
H1273 C1269 0.950 . S
H1274 C1271 0.950 . S
C1275 C1266 1.390 . S
C1275 H1268 0.950 . S
C1275 C1272 1.387 . S
C1276 C1277 1.387 . S
C1276 H1280 0.950 . S
C1276 C1285 1.390 . S
C1277 C1276 1.387 . S
C1277 C1279 1.387 . S
H1278 C1285 0.950 . S
C1279 C1277 1.387 . S
C1279 C1281 1.390 . S
C1279 H1283 0.950 . S
H1280 C1276 0.950 . S
C1281 C1279 1.390 . S
C1281 C1282 1.387 . S
C1281 H1284 0.950 . S
C1282 C1281 1.387 . S
C1282 C1285 1.387 . S
H1283 C1279 0.950 . S
H1284 C1281 0.950 . S
C1285 C1276 1.390 . S
C1285 H1278 0.950 . S
C1285 C1282 1.387 . S
C1286 C1287 1.387 . S
C1286 H1290 0.950 . S
C1286 C1295 1.390 1_655 S
C1287 C1286 1.387 . S
C1287 C1289 1.387 1_655 S
H1288 C1295 0.950 . S
C1289 C1287 1.387 1_455 S
C1289 C1291 1.390 . S
C1289 H1293 0.950 1_455 S
H1290 C1286 0.950 . S
C1291 C1289 1.390 . S
C1291 C1292 1.387 . S
C1291 H1294 0.950 . S
C1292 C1291 1.387 . S
C1292 C1295 1.387 . S
H1293 C1289 0.950 1_655 S
H1294 C1291 0.950 . S
C1295 C1286 1.390 1_455 S
C1295 H1288 0.950 . S
C1295 C1292 1.387 . S
C1296 C1297 1.387 . S
C1296 H1300 0.950 . S
C1296 C1305 1.390 . S
C1297 C1296 1.387 . S
C1297 C1299 1.387 . S
H1298 C1305 0.950 . S
C1299 C1297 1.387 . S
C1299 C1301 1.390 . S
C1299 H1303 0.950 . S
H1300 C1296 0.950 . S
C1301 C1299 1.390 . S
C1301 C1302 1.387 . S
C1301 H1304 0.950 . S
C1302 C1301 1.387 . S
C1302 C1305 1.387 . S
H1303 C1299 0.950 . S
H1304 C1301 0.950 . S
C1305 C1296 1.390 . S
C1305 H1298 0.950 . S
C1305 C1302 1.387 . S
C1306 C1307 1.387 . S
C1306 H1310 0.950 . S
C1306 C1315 1.390 1_455 S
C1307 C1306 1.387 . S
C1307 C1309 1.380 1_455 S
H1308 C1315 0.950 . S
C1309 C1307 1.380 1_655 S
C1309 C1311 1.404 . S
C1309 H1313 0.944 1_655 S
H1310 C1306 0.950 . S
C1311 C1309 1.404 . S
C1311 C1312 1.387 . S
C1311 H1314 0.950 . S
C1312 C1311 1.387 . S
C1312 C1315 1.387 . S
H1313 C1309 0.944 1_455 S
H1314 C1311 0.950 . S
C1315 C1306 1.390 1_655 S
C1315 H1308 0.950 . S
C1315 C1312 1.387 . S
C1316 C1317 1.387 . S
C1316 H1320 0.950 . S
C1316 C1325 1.390 . S
C1317 C1316 1.387 . S
C1317 C1319 1.387 . S
H1318 C1325 0.950 . S
C1319 C1317 1.387 . S
C1319 C1321 1.390 . S
C1319 H1323 0.950 . S
H1320 C1316 0.950 . S
C1321 C1319 1.390 . S
C1321 C1322 1.387 . S
C1321 H1324 0.950 . S
C1322 C1321 1.387 . S
C1322 C1325 1.387 . S
H1323 C1319 0.950 . S
H1324 C1321 0.950 . S
C1325 C1316 1.390 . S
C1325 H1318 0.950 . S
C1325 C1322 1.387 . S
C1326 C1327 1.387 . S
C1326 H1330 0.950 . S
C1326 C1335 1.390 . S
C1327 C1326 1.387 . S
C1327 C1329 1.387 . S
H1328 C1335 0.950 . S
C1329 C1327 1.387 . S
C1329 C1331 1.390 . S
C1329 H1333 0.950 . S
H1330 C1326 0.950 . S
C1331 C1329 1.390 . S
C1331 C1332 1.387 . S
C1331 H1334 0.950 . S
C1332 C1331 1.387 . S
C1332 C1335 1.387 . S
H1333 C1329 0.950 . S
H1334 C1331 0.950 . S
C1335 C1326 1.390 . S
C1335 H1328 0.950 . S
C1335 C1332 1.387 . S
C1336 C1337 1.387 . S
C1336 H1340 0.950 . S
C1336 C1345 1.390 . S
C1337 C1336 1.387 . S
C1337 C1339 1.387 . S
H1338 C1345 0.950 . S
C1339 C1337 1.387 . S
C1339 C1341 1.390 . S
C1339 H1343 0.950 . S
H1340 C1336 0.950 . S
C1341 C1339 1.390 . S
C1341 C1342 1.387 . S
C1341 H1344 0.950 . S
C1342 C1341 1.387 . S
C1342 C1345 1.387 . S
H1343 C1339 0.950 . S
H1344 C1341 0.950 . S
C1345 C1336 1.390 . S
C1345 H1338 0.950 . S
C1345 C1342 1.387 . S
C1346 C1347 1.387 . S
C1346 H1350 0.950 . S
C1346 C1355 1.390 . S
C1347 C1346 1.387 . S
C1347 C1349 1.387 . S
H1348 C1355 0.950 . S
C1349 C1347 1.387 . S
C1349 C1351 1.390 . S
C1349 H1353 0.950 . S
H1350 C1346 0.950 . S
C1351 C1349 1.390 . S
C1351 C1352 1.387 . S
C1351 H1354 0.950 . S
C1352 C1351 1.387 . S
C1352 C1355 1.387 . S
H1353 C1349 0.950 . S
H1354 C1351 0.950 . S
C1355 C1346 1.390 . S
C1355 H1348 0.950 . S
C1355 C1352 1.387 . S
C1356 C1357 1.387 . S
C1356 H1360 0.950 . S
C1356 C1365 1.390 . S
C1357 C1356 1.387 . S
C1357 C1359 1.387 . S
H1358 C1365 0.950 . S
C1359 C1357 1.387 . S
C1359 C1361 1.390 . S
C1359 H1363 0.950 . S
H1360 C1356 0.950 . S
C1361 C1359 1.390 . S
C1361 C1362 1.387 . S
C1361 H1364 0.950 . S
C1362 C1361 1.387 . S
C1362 C1365 1.387 . S
H1363 C1359 0.950 . S
H1364 C1361 0.950 . S
C1365 C1356 1.390 . S
C1365 H1358 0.950 . S
C1365 C1362 1.387 . S
C1366 C1367 1.387 . S
C1366 H1370 0.950 . S
C1366 C1375 1.390 1_655 S
C1367 C1366 1.387 . S
C1367 C1369 1.387 . S
H1368 C1375 0.950 . S
C1369 C1367 1.387 . S
C1369 C1371 1.390 1_655 S
C1369 H1373 0.950 . S
H1370 C1366 0.950 . S
C1371 C1369 1.390 1_455 S
C1371 C1372 1.387 . S
C1371 H1374 0.950 . S
C1372 C1371 1.387 . S
C1372 C1375 1.387 . S
H1373 C1369 0.950 . S
H1374 C1371 0.950 . S
C1375 C1366 1.390 1_455 S
C1375 H1368 0.950 . S
C1375 C1372 1.387 . S
C1376 C1377 1.387 . S
C1376 H1380 0.950 . S
C1376 C1385 1.390 . S
C1377 C1376 1.387 . S
C1377 C1379 1.387 . S
H1378 C1385 0.950 . S
C1379 C1377 1.387 . S
C1379 C1381 1.390 . S
C1379 H1383 0.950 . S
H1380 C1376 0.950 . S
C1381 C1379 1.390 . S
C1381 C1382 1.387 . S
C1381 H1384 0.950 . S
C1382 C1381 1.387 . S
C1382 C1385 1.387 . S
H1383 C1379 0.950 . S
H1384 C1381 0.950 . S
C1385 C1376 1.390 . S
C1385 H1378 0.950 . S
C1385 C1382 1.387 . S
C1386 C1387 1.387 . S
C1386 H1390 0.950 . S
C1386 C1395 1.390 . S
C1387 C1386 1.387 . S
C1387 C1389 1.387 . S
H1388 C1395 0.950 . S
C1389 C1387 1.387 . S
C1389 C1391 1.390 . S
C1389 H1393 0.950 . S
H1390 C1386 0.950 . S
C1391 C1389 1.390 . S
C1391 C1392 1.387 . S
C1391 H1394 0.950 . S
C1392 C1391 1.387 . S
C1392 C1395 1.387 . S
H1393 C1389 0.950 . S
H1394 C1391 0.950 . S
C1395 C1386 1.390 . S
C1395 H1388 0.950 . S
C1395 C1392 1.387 . S
C1396 C1397 1.387 . S
C1396 H1400 0.950 . S
C1396 C1405 1.390 . S
C1397 C1396 1.387 . S
C1397 C1399 1.387 . S
H1398 C1405 0.950 . S
C1399 C1397 1.387 . S
C1399 C1401 1.390 . S
C1399 H1403 0.950 . S
H1400 C1396 0.950 . S
C1401 C1399 1.390 . S
C1401 C1402 1.387 . S
C1401 H1404 0.950 . S
C1402 C1401 1.387 . S
C1402 C1405 1.387 . S
H1403 C1399 0.950 . S
H1404 C1401 0.950 . S
C1405 C1396 1.390 . S
C1405 H1398 0.950 . S
C1405 C1402 1.387 . S
C1406 C1407 1.387 . S
C1406 H1410 0.950 . S
C1406 C1415 1.390 1_655 S
C1407 C1406 1.387 . S
C1407 C1409 1.387 . S
H1408 C1415 0.950 . S
C1409 C1407 1.387 . S
C1409 C1411 1.390 1_655 S
C1409 H1413 0.950 . S
H1410 C1406 0.950 . S
C1411 C1409 1.390 1_455 S
C1411 C1412 1.387 . S
C1411 H1414 0.950 . S
C1412 C1411 1.387 . S
C1412 C1415 1.387 . S
H1413 C1409 0.950 . S
H1414 C1411 0.950 . S
C1415 C1406 1.390 1_455 S
C1415 H1408 0.950 . S
C1415 C1412 1.387 . S
C1416 C1417 1.387 . S
C1416 H1420 0.950 . S
C1416 C1425 1.390 . S
C1417 C1416 1.387 . S
C1417 C1419 1.387 . S
H1418 C1425 0.950 . S
C1419 C1417 1.387 . S
C1419 C1421 1.390 . S
C1419 H1423 0.950 . S
H1420 C1416 0.950 . S
C1421 C1419 1.390 . S
C1421 C1422 1.387 . S
C1421 H1424 0.950 . S
C1422 C1421 1.387 . S
C1422 C1425 1.387 . S
H1423 C1419 0.950 . S
H1424 C1421 0.950 . S
C1425 C1416 1.390 . S
C1425 H1418 0.950 . S
C1425 C1422 1.387 . S
C1426 C1427 1.387 . S
C1426 H1430 0.950 . S
C1426 C1435 1.391 1_655 S
C1427 C1426 1.387 . S
C1427 C1429 1.387 . S
H1428 C1435 0.949 . S
C1429 C1427 1.387 . S
C1429 C1431 1.390 1_655 S
C1429 H1433 0.950 . S
H1430 C1426 0.950 . S
C1431 C1429 1.390 1_455 S
C1431 C1432 1.387 . S
C1431 H1434 0.950 . S
C1432 C1431 1.387 . S
C1432 C1435 1.387 . S
H1433 C1429 0.950 . S
H1434 C1431 0.950 . S
C1435 C1426 1.391 1_455 S
C1435 H1428 0.949 . S
C1435 C1432 1.387 . S
C1436 C1437 1.387 . S
C1436 H1440 0.950 . S
C1436 C1445 1.390 . S
C1437 C1436 1.387 . S
C1437 C1439 1.387 . S
H1438 C1445 0.950 . S
C1439 C1437 1.387 . S
C1439 C1441 1.390 . S
C1439 H1443 0.950 . S
H1440 C1436 0.950 . S
C1441 C1439 1.390 . S
C1441 C1442 1.387 . S
C1441 H1444 0.950 . S
C1442 C1441 1.387 . S
C1442 C1445 1.387 . S
H1443 C1439 0.950 . S
H1444 C1441 0.950 . S
C1445 C1436 1.390 . S
C1445 H1438 0.950 . S
C1445 C1442 1.387 . S
C1446 C1447 1.387 . S
C1446 H1450 0.950 . S
C1446 C1455 1.390 . S
C1447 C1446 1.387 . S
C1447 C1449 1.387 . S
H1448 C1455 0.950 . S
C1449 C1447 1.387 . S
C1449 C1451 1.390 . S
C1449 H1453 0.950 . S
H1450 C1446 0.950 . S
C1451 C1449 1.390 . S
C1451 C1452 1.387 . S
C1451 H1454 0.950 . S
C1452 C1451 1.387 . S
C1452 C1455 1.387 . S
H1453 C1449 0.950 . S
H1454 C1451 0.950 . S
C1455 C1446 1.390 . S
C1455 H1448 0.950 . S
C1455 C1452 1.387 . S
C1456 C1457 1.387 . S
C1456 H1460 0.950 . S
C1456 C1465 1.390 . S
C1457 C1456 1.387 . S
C1457 C1459 1.387 . S
H1458 C1465 0.950 . S
C1459 C1457 1.387 . S
C1459 C1461 1.390 . S
C1459 H1463 0.950 . S
H1460 C1456 0.950 . S
C1461 C1459 1.390 . S
C1461 C1462 1.387 . S
C1461 H1464 0.950 . S
C1462 C1461 1.387 . S
C1462 C1465 1.387 . S
H1463 C1459 0.950 . S
H1464 C1461 0.950 . S
C1465 C1456 1.390 . S
C1465 H1458 0.950 . S
C1465 C1462 1.387 . S
C1466 C1467 1.387 . S
C1466 H1470 0.950 . S
C1466 C1475 1.390 . S
C1467 C1466 1.387 . S
C1467 C1469 1.387 . S
H1468 C1475 0.950 . S
C1469 C1467 1.387 . S
C1469 C1471 1.390 . S
C1469 H1473 0.950 . S
H1470 C1466 0.950 . S
C1471 C1469 1.390 . S
C1471 C1472 1.387 . S
C1471 H1474 0.950 . S
C1472 C1471 1.387 . S
C1472 C1475 1.387 . S
H1473 C1469 0.950 . S
H1474 C1471 0.950 . S
C1475 C1466 1.390 . S
C1475 H1468 0.950 . S
C1475 C1472 1.387 . S
C1476 C1477 1.387 . S
C1476 H1480 0.950 . S
C1476 C1485 1.390 . S
C1477 C1476 1.387 . S
C1477 C1479 1.387 . S
H1478 C1485 0.950 . S
C1479 C1477 1.387 . S
C1479 C1481 1.390 . S
C1479 H1483 0.950 . S
H1480 C1476 0.950 . S
C1481 C1479 1.390 . S
C1481 C1482 1.387 . S
C1481 H1484 0.950 . S
C1482 C1481 1.387 . S
C1482 C1485 1.387 . S
H1483 C1479 0.950 . S
H1484 C1481 0.950 . S
C1485 C1476 1.390 . S
C1485 H1478 0.950 . S
C1485 C1482 1.387 . S
C1486 C1487 1.387 . S
C1486 H1490 0.950 . S
C1486 C1495 1.390 1_455 S
C1487 C1486 1.387 . S
C1487 C1489 1.387 . S
H1488 C1495 0.950 . S
C1489 C1487 1.387 . S
C1489 C1491 1.390 1_455 S
C1489 H1493 0.950 . S
H1490 C1486 0.950 . S
C1491 C1489 1.390 1_655 S
C1491 C1492 1.387 . S
C1491 H1494 0.950 . S
C1492 C1491 1.387 . S
C1492 C1495 1.387 . S
H1493 C1489 0.950 . S
H1494 C1491 0.950 . S
C1495 C1486 1.390 1_655 S
C1495 H1488 0.950 . S
C1495 C1492 1.387 . S
C1496 C1497 1.387 . S
C1496 H1500 0.950 . S
C1496 C1505 1.390 . S
C1497 C1496 1.387 . S
C1497 C1499 1.387 . S
H1498 C1505 0.950 . S
C1499 C1497 1.387 . S
C1499 C1501 1.390 . S
C1499 H1503 0.950 . S
H1500 C1496 0.950 . S
C1501 C1499 1.390 . S
C1501 C1502 1.387 . S
C1501 H1504 0.950 . S
C1502 C1501 1.387 . S
C1502 C1505 1.387 . S
H1503 C1499 0.950 . S
H1504 C1501 0.950 . S
C1505 C1496 1.390 . S
C1505 H1498 0.950 . S
C1505 C1502 1.387 . S
C1506 C1507 1.387 1_455 S
C1506 H1510 0.950 1_455 S
C1506 C1515 1.390 . S
C1507 C1506 1.387 1_655 S
C1507 C1509 1.387 . S
H1508 C1515 0.950 . S
C1509 C1507 1.387 . S
C1509 C1511 1.390 1_655 S
C1509 H1513 0.950 . S
H1510 C1506 0.950 1_655 S
C1511 C1509 1.390 1_455 S
C1511 C1512 1.387 . S
C1511 H1514 0.950 . S
C1512 C1511 1.387 . S
C1512 C1515 1.387 . S
H1513 C1509 0.950 . S
H1514 C1511 0.950 . S
C1515 C1506 1.390 . S
C1515 H1508 0.950 . S
C1515 C1512 1.387 . S
C1516 C1517 1.387 . S
C1516 H1520 0.950 . S
C1516 C1525 1.390 . S
C1517 C1516 1.387 . S
C1517 C1519 1.387 . S
H1518 C1525 0.950 . S
C1519 C1517 1.387 . S
C1519 C1521 1.390 . S
C1519 H1523 0.950 . S
H1520 C1516 0.950 . S
C1521 C1519 1.390 . S
C1521 C1522 1.387 . S
C1521 H1524 0.950 . S
C1522 C1521 1.387 . S
C1522 C1525 1.387 . S
H1523 C1519 0.950 . S
H1524 C1521 0.950 . S
C1525 C1516 1.390 . S
C1525 H1518 0.950 . S
C1525 C1522 1.387 . S
C1526 C1527 1.387 . S
C1526 H1530 0.950 . S
C1526 C1535 1.390 . S
C1527 C1526 1.387 . S
C1527 C1529 1.387 . S
H1528 C1535 0.950 . S
C1529 C1527 1.387 . S
C1529 C1531 1.390 . S
C1529 H1533 0.950 . S
H1530 C1526 0.950 . S
C1531 C1529 1.390 . S
C1531 C1532 1.387 . S
C1531 H1534 0.950 . S
C1532 C1531 1.387 . S
C1532 C1535 1.387 . S
H1533 C1529 0.950 . S
H1534 C1531 0.950 . S
C1535 C1526 1.390 . S
C1535 H1528 0.950 . S
C1535 C1532 1.387 . S
C1536 C1537 1.387 . S
C1536 H1540 0.950 . S
C1536 C1545 1.390 . S
C1537 C1536 1.387 . S
C1537 C1539 1.387 . S
H1538 C1545 0.950 . S
C1539 C1537 1.387 . S
C1539 C1541 1.390 . S
C1539 H1543 0.950 . S
H1540 C1536 0.950 . S
C1541 C1539 1.390 . S
C1541 C1542 1.387 . S
C1541 H1544 0.950 . S
C1542 C1541 1.387 . S
C1542 C1545 1.387 . S
H1543 C1539 0.950 . S
H1544 C1541 0.950 . S
C1545 C1536 1.390 . S
C1545 H1538 0.950 . S
C1545 C1542 1.387 . S
C1546 C1547 1.387 . S
C1546 H1550 0.950 . S
C1546 C1555 1.390 1_655 S
C1547 C1546 1.387 . S
C1547 C1549 1.387 . S
H1548 C1555 0.950 . S
C1549 C1547 1.387 . S
C1549 C1551 1.390 1_655 S
C1549 H1553 0.950 . S
H1550 C1546 0.950 . S
C1551 C1549 1.390 1_455 S
C1551 C1552 1.387 . S
C1551 H1554 0.950 . S
C1552 C1551 1.387 . S
C1552 C1555 1.387 . S
H1553 C1549 0.950 . S
H1554 C1551 0.950 . S
C1555 C1546 1.390 1_455 S
C1555 H1548 0.950 . S
C1555 C1552 1.387 . S
C1556 C1557 1.387 . S
C1556 H1560 0.950 . S
C1556 C1565 1.390 1_655 S
C1557 C1556 1.387 . S
C1557 C1559 1.387 . S
H1558 C1565 0.950 . S
C1559 C1557 1.387 . S
C1559 C1561 1.390 1_655 S
C1559 H1563 0.950 . S
H1560 C1556 0.950 . S
C1561 C1559 1.390 1_455 S
C1561 C1562 1.387 . S
C1561 H1564 0.950 . S
C1562 C1561 1.387 . S
C1562 C1565 1.387 . S
H1563 C1559 0.950 . S
H1564 C1561 0.950 . S
C1565 C1556 1.390 1_455 S
C1565 H1558 0.950 . S
C1565 C1562 1.387 . S
C1566 C1567 1.387 . S
C1566 H1570 0.950 . S
C1566 C1575 1.390 . S
C1567 C1566 1.387 . S
C1567 C1569 1.387 . S
H1568 C1575 0.950 . S
C1569 C1567 1.387 . S
C1569 C1571 1.390 . S
C1569 H1573 0.950 . S
H1570 C1566 0.950 . S
C1571 C1569 1.390 . S
C1571 C1572 1.387 . S
C1571 H1574 0.950 . S
C1572 C1571 1.387 . S
C1572 C1575 1.387 . S
H1573 C1569 0.950 . S
H1574 C1571 0.950 . S
C1575 C1566 1.390 . S
C1575 H1568 0.950 . S
C1575 C1572 1.387 . S
C1576 C1577 1.387 . S
C1576 H1580 0.950 . S
C1576 C1585 1.390 . S
C1577 C1576 1.387 . S
C1577 C1579 1.387 . S
H1578 C1585 0.950 . S
C1579 C1577 1.387 . S
C1579 C1581 1.390 . S
C1579 H1583 0.950 . S
H1580 C1576 0.950 . S
C1581 C1579 1.390 . S
C1581 C1582 1.387 . S
C1581 H1584 0.950 . S
C1582 C1581 1.387 . S
C1582 C1585 1.387 . S
H1583 C1579 0.950 . S
H1584 C1581 0.950 . S
C1585 C1576 1.390 . S
C1585 H1578 0.950 . S
C1585 C1582 1.387 . S
C1586 C1587 1.387 . S
C1586 H1590 0.950 . S
C1586 C1595 1.390 . S
C1587 C1586 1.387 . S
C1587 C1589 1.387 . S
H1588 C1595 0.950 . S
C1589 C1587 1.387 . S
C1589 C1591 1.390 . S
C1589 H1593 0.950 . S
H1590 C1586 0.950 . S
C1591 C1589 1.390 . S
C1591 C1592 1.387 . S
C1591 H1594 0.950 . S
C1592 C1591 1.387 . S
C1592 C1595 1.387 . S
H1593 C1589 0.950 . S
H1594 C1591 0.950 . S
C1595 C1586 1.390 . S
C1595 H1588 0.950 . S
C1595 C1592 1.387 . S
C1596 C1597 1.387 . S
C1596 H1600 0.950 . S
C1596 C1605 1.390 1_455 S
C1597 C1596 1.387 . S
C1597 C1599 1.387 . S
H1598 C1605 0.950 . S
C1599 C1597 1.387 . S
C1599 C1601 1.390 1_455 S
C1599 H1603 0.950 . S
H1600 C1596 0.950 . S
C1601 C1599 1.390 1_655 S
C1601 C1602 1.387 . S
C1601 H1604 0.950 . S
C1602 C1601 1.387 . S
C1602 C1605 1.387 . S
H1603 C1599 0.950 . S
H1604 C1601 0.950 . S
C1605 C1596 1.390 1_655 S
C1605 H1598 0.950 . S
C1605 C1602 1.387 . S
C1606 C1607 1.387 . S
C1606 H1610 0.950 . S
C1606 C1615 1.390 1_655 S
C1607 C1606 1.387 . S
C1607 C1609 1.387 . S
H1608 C1615 0.950 . S
C1609 C1607 1.387 . S
C1609 C1611 1.390 1_655 S
C1609 H1613 0.950 . S
H1610 C1606 0.950 . S
C1611 C1609 1.390 1_455 S
C1611 C1612 1.387 . S
C1611 H1614 0.950 . S
C1612 C1611 1.387 . S
C1612 C1615 1.387 . S
H1613 C1609 0.950 . S
H1614 C1611 0.950 . S
C1615 C1606 1.390 1_455 S
C1615 H1608 0.950 . S
C1615 C1612 1.387 . S
C1616 C1617 1.387 . S
C1616 H1620 0.950 . S
C1616 C1625 1.390 . S
C1617 C1616 1.387 . S
C1617 C1619 1.387 . S
H1618 C1625 0.950 . S
C1619 C1617 1.387 . S
C1619 C1621 1.390 . S
C1619 H1623 0.950 . S
H1620 C1616 0.950 . S
C1621 C1619 1.390 . S
C1621 C1622 1.387 . S
C1621 H1624 0.950 . S
C1622 C1621 1.387 . S
C1622 C1625 1.387 . S
H1623 C1619 0.950 . S
H1624 C1621 0.950 . S
C1625 C1616 1.390 . S
C1625 H1618 0.950 . S
C1625 C1622 1.387 . S
C1626 C1627 1.387 . S
C1626 H1630 0.950 . S
C1626 C1635 1.390 1_655 S
C1627 C1626 1.387 . S
C1627 C1629 1.387 . S
H1628 C1635 0.950 . S
C1629 C1627 1.387 . S
C1629 C1631 1.390 1_655 S
C1629 H1633 0.950 . S
H1630 C1626 0.950 . S
C1631 C1629 1.390 1_455 S
C1631 C1632 1.387 . S
C1631 H1634 0.950 . S
C1632 C1631 1.387 . S
C1632 C1635 1.387 . S
H1633 C1629 0.950 . S
H1634 C1631 0.950 . S
C1635 C1626 1.390 1_455 S
C1635 H1628 0.950 . S
C1635 C1632 1.387 . S
C1636 C1637 1.387 . S
C1636 H1640 0.950 . S
C1636 C1645 1.390 1_655 S
C1637 C1636 1.387 . S
C1637 C1639 1.387 . S
H1638 C1645 0.950 . S
C1639 C1637 1.387 . S
C1639 C1641 1.390 1_655 S
C1639 H1643 0.950 . S
H1640 C1636 0.950 . S
C1641 C1639 1.390 1_455 S
C1641 C1642 1.387 . S
C1641 H1644 0.950 . S
C1642 C1641 1.387 . S
C1642 C1645 1.387 . S
H1643 C1639 0.950 . S
H1644 C1641 0.950 . S
C1645 C1636 1.390 1_455 S
C1645 H1638 0.950 . S
C1645 C1642 1.387 . S
C1646 C1647 1.387 . S
C1646 H1650 0.950 . S
C1646 C1655 1.390 . S
C1647 C1646 1.387 . S
C1647 C1649 1.387 . S
H1648 C1655 0.950 . S
C1649 C1647 1.387 . S
C1649 C1651 1.390 . S
C1649 H1653 0.950 . S
H1650 C1646 0.950 . S
C1651 C1649 1.390 . S
C1651 C1652 1.387 . S
C1651 H1654 0.950 . S
C1652 C1651 1.387 . S
C1652 C1655 1.387 . S
H1653 C1649 0.950 . S
H1654 C1651 0.950 . S
C1655 C1646 1.390 . S
C1655 H1648 0.950 . S
C1655 C1652 1.387 . S
C1656 C1657 1.387 . S
C1656 H1660 0.950 . S
C1656 C1665 1.390 . S
C1657 C1656 1.387 . S
C1657 C1659 1.387 . S
H1658 C1665 0.950 . S
C1659 C1657 1.387 . S
C1659 C1661 1.390 . S
C1659 H1663 0.950 . S
H1660 C1656 0.950 . S
C1661 C1659 1.390 . S
C1661 C1662 1.387 . S
C1661 H1664 0.950 . S
C1662 C1661 1.387 . S
C1662 C1665 1.387 . S
H1663 C1659 0.950 . S
H1664 C1661 0.950 . S
C1665 C1656 1.390 . S
C1665 H1658 0.950 . S
C1665 C1662 1.387 . S
C1666 C1667 1.387 . S
C1666 H1670 0.950 . S
C1666 C1675 1.390 . S
C1667 C1666 1.387 . S
C1667 C1669 1.387 . S
H1668 C1675 0.950 . S
C1669 C1667 1.387 . S
C1669 C1671 1.390 . S
C1669 H1673 0.950 . S
H1670 C1666 0.950 . S
C1671 C1669 1.390 . S
C1671 C1672 1.387 . S
C1671 H1674 0.950 . S
C1672 C1671 1.387 . S
C1672 C1675 1.387 . S
H1673 C1669 0.950 . S
H1674 C1671 0.950 . S
C1675 C1666 1.390 . S
C1675 H1668 0.950 . S
C1675 C1672 1.387 . S
C1676 C1677 1.387 . S
C1676 H1680 0.950 . S
C1676 C1685 1.390 1_655 S
C1677 C1676 1.387 . S
C1677 C1679 1.387 . S
H1678 C1685 0.950 . S
C1679 C1677 1.387 . S
C1679 C1681 1.390 1_655 S
C1679 H1683 0.950 . S
H1680 C1676 0.950 . S
C1681 C1679 1.390 1_455 S
C1681 C1682 1.387 . S
C1681 H1684 0.950 . S
C1682 C1681 1.387 . S
C1682 C1685 1.387 . S
H1683 C1679 0.950 . S
H1684 C1681 0.950 . S
C1685 C1676 1.390 1_455 S
C1685 H1678 0.950 . S
C1685 C1682 1.387 . S
C1686 C1687 1.387 . S
C1686 H1690 0.950 . S
C1686 C1695 1.390 1_655 S
C1687 C1686 1.387 . S
C1687 C1689 1.387 . S
H1688 C1695 0.950 . S
C1689 C1687 1.387 . S
C1689 C1691 1.390 1_655 S
C1689 H1693 0.950 . S
H1690 C1686 0.950 . S
C1691 C1689 1.390 1_455 S
C1691 C1692 1.387 . S
C1691 H1694 0.950 . S
C1692 C1691 1.387 . S
C1692 C1695 1.387 . S
H1693 C1689 0.950 . S
H1694 C1691 0.950 . S
C1695 C1686 1.390 1_455 S
C1695 H1688 0.950 . S
C1695 C1692 1.387 . S
C1696 C1697 1.387 . S
C1696 H1700 0.950 . S
C1696 C1705 1.390 1_565 S
C1697 C1696 1.387 . S
C1697 C1699 1.387 . S
H1698 C1705 0.950 . S
C1699 C1697 1.387 . S
C1699 C1701 1.390 1_565 S
C1699 H1703 0.950 . S
H1700 C1696 0.950 . S
C1701 C1699 1.390 1_545 S
C1701 C1702 1.387 . S
C1701 H1704 0.950 . S
C1702 C1701 1.387 . S
C1702 C1705 1.387 . S
H1703 C1699 0.950 . S
H1704 C1701 0.950 . S
C1705 C1696 1.390 1_545 S
C1705 H1698 0.950 . S
C1705 C1702 1.387 . S
C1706 C1707 1.387 . S
C1706 H1710 0.950 . S
C1706 C1715 1.390 . S
C1707 C1706 1.387 . S
C1707 C1709 1.387 . S
H1708 C1715 0.950 . S
C1709 C1707 1.387 . S
C1709 C1711 1.390 . S
C1709 H1713 0.950 . S
H1710 C1706 0.950 . S
C1711 C1709 1.390 . S
C1711 C1712 1.387 . S
C1711 H1714 0.950 . S
C1712 C1711 1.387 . S
C1712 C1715 1.387 . S
H1713 C1709 0.950 . S
H1714 C1711 0.950 . S
C1715 C1706 1.390 . S
C1715 H1708 0.950 . S
C1715 C1712 1.387 . S
C1716 C1717 1.387 . S
C1716 H1720 0.950 . S
C1716 C1725 1.390 1_565 S
C1717 C1716 1.387 . S
C1717 C1719 1.387 . S
H1718 C1725 0.950 . S
C1719 C1717 1.387 . S
C1719 C1721 1.390 1_565 S
C1719 H1723 0.950 . S
H1720 C1716 0.950 . S
C1721 C1719 1.390 1_545 S
C1721 C1722 1.387 . S
C1721 H1724 0.950 . S
C1722 C1721 1.387 . S
C1722 C1725 1.387 . S
H1723 C1719 0.950 . S
H1724 C1721 0.950 . S
C1725 C1716 1.390 1_545 S
C1725 H1718 0.950 . S
C1725 C1722 1.387 . S
C1726 C1727 1.387 . S
C1726 H1730 0.950 . S
C1726 C1735 1.390 1_554 S
C1727 C1726 1.387 . S
C1727 C1729 1.387 . S
H1728 C1735 0.950 . S
C1729 C1727 1.387 . S
C1729 C1731 1.390 1_554 S
C1729 H1733 0.950 . S
H1730 C1726 0.950 . S
C1731 C1729 1.390 1_556 S
C1731 C1732 1.387 . S
C1731 H1734 0.950 . S
C1732 C1731 1.387 . S
C1732 C1735 1.387 . S
H1733 C1729 0.950 . S
H1734 C1731 0.950 . S
C1735 C1726 1.390 1_556 S
C1735 H1728 0.950 . S
C1735 C1732 1.387 . S
C1736 C1737 1.387 . S
C1736 H1740 0.950 . S
C1736 C1745 1.390 1_565 S
C1737 C1736 1.387 . S
C1737 C1739 1.387 . S
H1738 C1745 0.950 . S
C1739 C1737 1.387 . S
C1739 C1741 1.390 1_565 S
C1739 H1743 0.950 . S
H1740 C1736 0.950 . S
C1741 C1739 1.390 1_545 S
C1741 C1742 1.387 . S
C1741 H1744 0.950 . S
C1742 C1741 1.387 . S
C1742 C1745 1.387 . S
H1743 C1739 0.950 . S
H1744 C1741 0.950 . S
C1745 C1736 1.390 1_545 S
C1745 H1738 0.950 . S
C1745 C1742 1.387 . S
C1746 C1747 1.387 . S
C1746 H1750 0.950 . S
C1746 C1755 1.390 . S
C1747 C1746 1.387 . S
C1747 C1749 1.387 . S
H1748 C1755 0.950 . S
C1749 C1747 1.387 . S
C1749 C1751 1.390 . S
C1749 H1753 0.950 . S
H1750 C1746 0.950 . S
C1751 C1749 1.390 . S
C1751 C1752 1.387 . S
C1751 H1754 0.950 . S
C1752 C1751 1.387 . S
C1752 C1755 1.387 . S
H1753 C1749 0.950 . S
H1754 C1751 0.950 . S
C1755 C1746 1.390 . S
C1755 H1748 0.950 . S
C1755 C1752 1.387 . S
C1756 C1757 1.387 . S
C1756 H1760 0.950 . S
C1756 C1765 1.390 1_545 S
C1757 C1756 1.387 . S
C1757 C1759 1.387 . S
H1758 C1765 0.950 . S
C1759 C1757 1.387 . S
C1759 C1761 1.390 1_545 S
C1759 H1763 0.950 . S
H1760 C1756 0.950 . S
C1761 C1759 1.390 1_565 S
C1761 C1762 1.387 . S
C1761 H1764 0.950 . S
C1762 C1761 1.387 . S
C1762 C1765 1.387 . S
H1763 C1759 0.950 . S
H1764 C1761 0.950 . S
C1765 C1756 1.390 1_565 S
C1765 H1758 0.950 . S
C1765 C1762 1.387 . S
C1766 C1767 1.387 . S
C1766 H1770 0.950 . S
C1766 C1775 1.390 1_556 S
C1767 C1766 1.387 . S
C1767 C1769 1.387 . S
H1768 C1775 0.950 . S
C1769 C1767 1.387 . S
C1769 C1771 1.390 1_556 S
C1769 H1773 0.950 . S
H1770 C1766 0.950 . S
C1771 C1769 1.390 1_554 S
C1771 C1772 1.387 . S
C1771 H1774 0.950 . S
C1772 C1771 1.387 . S
C1772 C1775 1.387 . S
H1773 C1769 0.950 . S
H1774 C1771 0.950 . S
C1775 C1766 1.390 1_554 S
C1775 H1768 0.950 . S
C1775 C1772 1.387 . S
C1776 C1777 1.387 . S
C1776 H1780 0.950 . S
C1776 C1785 1.390 . S
C1777 C1776 1.387 . S
C1777 C1779 1.387 . S
H1778 C1785 0.950 . S
C1779 C1777 1.387 . S
C1779 C1781 1.390 . S
C1779 H1783 0.950 . S
H1780 C1776 0.950 . S
C1781 C1779 1.390 . S
C1781 C1782 1.387 . S
C1781 H1784 0.950 . S
C1782 C1781 1.387 . S
C1782 C1785 1.387 . S
H1783 C1779 0.950 . S
H1784 C1781 0.950 . S
C1785 C1776 1.390 . S
C1785 H1778 0.950 . S
C1785 C1782 1.387 . S
C1786 C1787 1.387 . S
C1786 H1790 0.950 . S
C1786 C1795 1.390 1_554 S
C1787 C1786 1.387 . S
C1787 C1789 1.387 . S
H1788 C1795 0.950 . S
C1789 C1787 1.387 . S
C1789 C1791 1.390 1_554 S
C1789 H1793 0.950 . S
H1790 C1786 0.950 . S
C1791 C1789 1.390 1_556 S
C1791 C1792 1.387 . S
C1791 H1794 0.950 . S
C1792 C1791 1.387 . S
C1792 C1795 1.387 . S
H1793 C1789 0.950 . S
H1794 C1791 0.950 . S
C1795 C1786 1.390 1_556 S
C1795 H1788 0.950 . S
C1795 C1792 1.387 . S
C1796 C1797 1.387 . S
C1796 H1800 0.950 . S
C1796 C1805 1.390 . S
C1797 C1796 1.387 . S
C1797 C1799 1.387 . S
H1798 C1805 0.950 . S
C1799 C1797 1.387 . S
C1799 C1801 1.390 . S
C1799 H1803 0.950 . S
H1800 C1796 0.950 . S
C1801 C1799 1.390 . S
C1801 C1802 1.387 . S
C1801 H1804 0.950 . S
C1802 C1801 1.387 . S
C1802 C1805 1.387 . S
H1803 C1799 0.950 . S
H1804 C1801 0.950 . S
C1805 C1796 1.390 . S
C1805 H1798 0.950 . S
C1805 C1802 1.387 . S
C1806 C1807 1.387 . S
C1806 H1810 0.950 . S
C1806 C1815 1.390 . S
C1807 C1806 1.387 . S
C1807 C1809 1.387 . S
H1808 C1815 0.950 . S
C1809 C1807 1.387 . S
C1809 C1811 1.390 . S
C1809 H1813 0.950 . S
H1810 C1806 0.950 . S
C1811 C1809 1.390 . S
C1811 C1812 1.387 . S
C1811 H1814 0.950 . S
C1812 C1811 1.387 . S
C1812 C1815 1.387 . S
H1813 C1809 0.950 . S
H1814 C1811 0.950 . S
C1815 C1806 1.390 . S
C1815 H1808 0.950 . S
C1815 C1812 1.387 . S
C1816 C1817 1.387 . S
C1816 H1820 0.950 . S
C1816 C1825 1.390 . S
C1817 C1816 1.387 . S
C1817 C1819 1.387 . S
H1818 C1825 0.950 . S
C1819 C1817 1.387 . S
C1819 C1821 1.390 . S
C1819 H1823 0.950 . S
H1820 C1816 0.950 . S
C1821 C1819 1.390 . S
C1821 C1822 1.387 . S
C1821 H1824 0.950 . S
C1822 C1821 1.387 . S
C1822 C1825 1.387 . S
H1823 C1819 0.950 . S
H1824 C1821 0.950 . S
C1825 C1816 1.390 . S
C1825 H1818 0.950 . S
C1825 C1822 1.387 . S
C1826 C1827 1.387 . S
C1826 H1830 0.950 . S
C1826 C1835 1.390 1_554 S
C1827 C1826 1.387 . S
C1827 C1829 1.387 . S
H1828 C1835 0.950 . S
C1829 C1827 1.387 . S
C1829 C1831 1.390 1_554 S
C1829 H1833 0.950 . S
H1830 C1826 0.950 . S
C1831 C1829 1.390 1_556 S
C1831 C1832 1.387 . S
C1831 H1834 0.950 . S
C1832 C1831 1.387 . S
C1832 C1835 1.387 . S
H1833 C1829 0.950 . S
H1834 C1831 0.950 . S
C1835 C1826 1.390 1_556 S
C1835 H1828 0.950 . S
C1835 C1832 1.387 . S
C1836 C1837 1.387 . S
C1836 H1840 0.950 . S
C1836 C1845 1.390 . S
C1837 C1836 1.387 . S
C1837 C1839 1.387 . S
H1838 C1845 0.950 . S
C1839 C1837 1.387 . S
C1839 C1841 1.390 . S
C1839 H1843 0.950 . S
H1840 C1836 0.950 . S
C1841 C1839 1.390 . S
C1841 C1842 1.387 . S
C1841 H1844 0.950 . S
C1842 C1841 1.387 . S
C1842 C1845 1.387 . S
H1843 C1839 0.950 . S
H1844 C1841 0.950 . S
C1845 C1836 1.390 . S
C1845 H1838 0.950 . S
C1845 C1842 1.387 . S
C1846 C1847 1.387 . S
C1846 H1850 0.950 . S
C1846 C1855 1.390 . S
C1847 C1846 1.387 . S
C1847 C1849 1.387 . S
H1848 C1855 0.950 . S
C1849 C1847 1.387 . S
C1849 C1851 1.390 . S
C1849 H1853 0.950 . S
H1850 C1846 0.950 . S
C1851 C1849 1.390 . S
C1851 C1852 1.387 . S
C1851 H1854 0.950 . S
C1852 C1851 1.387 . S
C1852 C1855 1.387 . S
H1853 C1849 0.950 . S
H1854 C1851 0.950 . S
C1855 C1846 1.390 . S
C1855 H1848 0.950 . S
C1855 C1852 1.387 . S
C1057 N13 1.635 . S
C1062 N805 1.635 . S
C1067 N310 1.635 . S
C1072 N46 1.635 . S
C1077 N871 1.635 . S
C1082 N79 1.635 . S
C1087 N112 1.639 . S
C1092 N376 1.639 . S
C1097 N937 1.635 . S
C1102 N145 1.635 . S
C1107 N442 1.640 . S
C1112 N178 1.640 . S
C1117 N211 1.639 . S
C1122 N1003 1.639 . S
C1127 N244 1.639 . S
C1132 N508 1.639 . S
C1137 N277 1.639 . S
C1142 N541 1.639 . S
C1147 N343 1.638 . S
C1152 N607 1.638 . S
C1157 N673 1.640 . S
C1162 N409 1.640 . S
C1167 N475 1.639 . S
C1172 N739 1.639 . S
C1177 N574 1.636 . S
C1182 N838 1.636 . S
C1187 N904 1.635 . S
C1192 N640 1.635 . S
C1197 N970 1.639 . S
C1202 N706 1.639 . S
C1207 N772 1.639 . S
C1212 N1036 1.639 . S
C1217 C7 1.415 . S
C1222 N827 1.493 . S
C1227 N332 1.497 . S
C1232 C40 1.419 . S
C1237 C73 1.420 . S
C1242 N893 1.497 . S
C1247 N266 1.493 . S
C1252 C106 1.416 . S
C1257 C139 1.420 . S
C1262 N1025 1.496 . S
C1267 C172 1.419 . S
C1272 N398 1.494 . S
C1277 N959 1.495 . S
C1282 C205 1.419 . S
C1287 N464 1.497 . S
C1292 C238 1.420 . S
C1297 N563 1.493 . S
C1302 C271 1.417 . S
C1307 N68 1.497 . S
C1312 C304 1.419 . S
C1317 C337 1.418 . S
C1322 N629 1.497 . S
C1327 C370 1.415 . S
C1332 N2 1.493 . S
C1337 N761 1.497 . S
C1342 C403 1.419 . S
C1347 N134 1.493 . S
C1352 C436 1.416 . S
C1357 C469 1.417 . S
C1362 N695 1.493 . S
C1367 C502 1.416 . S
C1372 N200 1.493 . S
C1377 N299 1.497 . S
C1382 C535 1.419 . S
C1387 N860 1.497 . S
C1392 C568 1.419 . S
C1397 N365 1.497 . S
C1402 C601 1.419 . S
C1407 C634 1.419 . S
C1412 N794 1.497 . S
C1417 N497 1.497 . S
C1422 C667 1.419 . S
C1427 C700 1.419 . S
C1432 N926 1.497 . S
C1437 N431 1.494 . S
C1442 C733 1.415 . S
C1447 C766 1.416 . S
C1452 N992 1.493 . S
C1457 N35 1.493 . S
C1462 C799 1.415 . S
C1467 N596 1.493 . S
C1472 C832 1.415 . S
C1477 N101 1.496 . S
C1482 C865 1.417 . S
C1487 C898 1.419 . S
C1492 N530 1.497 . S
C1497 C931 1.419 . S
C1502 N233 1.497 . S
C1507 N662 1.493 . S
C1512 C964 1.416 . S
C1517 N167 1.497 . S
C1522 C997 1.419 . S
C1527 C1030 1.420 . S
C1532 N728 1.496 . S
C1537 C615 0.506 . S
C1542 C21 0.506 . S
C1547 C648 0.506 . S
C1552 C54 0.506 . S
C1557 C549 0.506 . S
C1562 C87 0.506 . S
C1567 C582 0.506 . S
C1572 C120 0.506 . S
C1577 C153 0.496 . S
C1582 C747 0.496 . S
C1587 C780 0.506 . S
C1592 C186 0.506 . S
C1597 C219 0.506 . S
C1602 C681 0.506 . S
C1607 C714 0.496 . S
C1612 C252 0.496 . S
C1617 C879 0.496 . S
C1622 C285 0.496 . S
C1627 C318 0.506 . S
C1632 C912 0.506 . S
C1637 C351 0.496 . S
C1642 C813 0.496 . S
C1647 C384 0.496 . S
C1652 C846 0.496 . S
C1657 C1011 0.496 . S
C1662 C417 0.496 . S
C1667 C450 0.506 . S
C1672 C1044 0.506 . S
C1677 C483 0.506 . S
C1682 C945 0.506 . S
C1687 C516 0.506 . S
C1692 C978 0.506 . S
C1697 C150 1.955 . S
C1702 C18 1.955 . S
C1707 C183 1.955 . S
C1712 C51 1.955 . S
C1717 C84 1.955 . S
C1722 C216 1.955 . S
C1727 C249 1.957 . S
C1732 C117 1.957 . S
C1737 C282 1.957 . S
C1742 C414 1.957 . S
C1747 C447 1.955 . S
C1752 C315 1.955 . S
C1757 C348 1.955 . S
C1762 C480 1.955 . S
C1767 C513 1.957 . S
C1772 C381 1.957 . S
C1777 C546 1.955 . S
C1782 C678 1.955 . S
C1787 C711 1.957 . S
C1792 C579 1.957 . S
C1797 C744 1.955 . S
C1802 C612 1.955 . S
C1807 C645 1.957 . S
C1812 C777 1.957 . S
C1817 C942 1.955 . S
C1822 C810 1.955 . S
C1827 C843 1.957 . S
C1832 C975 1.957 . S
C1837 C876 1.955 . S
C1842 C1008 1.955 . S
C1847 C909 1.957 . S
C1852 C1041 1.957 . S
