# Generated by pormake.
# Topology uni, (4)-cn, num edge types: 1
# Building blocks:
#     Node 0, Type 0, BuildingBlock: QUQFOY_clean_sbu_1, # of connection points: 4
#     Node 1, Type 0, BuildingBlock: QUQFOY_clean_sbu_1, # of connection points: 4
#     Node 2, Type 0, BuildingBlock: QUQFOY_clean_sbu_1, # of connection points: 4
#     Node 3, Type 0, BuildingBlock: QUQFOY_clean_sbu_1, # of connection points: 4
#     Node 4, Type 0, BuildingBlock: QUQFOY_clean_sbu_1, # of connection points: 4
#     Node 5, Type 0, BuildingBlock: QUQFOY_clean_sbu_1, # of connection points: 4
#     Edge 6, Type (0, 0), BuildingBlock: FUNLAD_clean_linker_1, # of connection points: 2
#     Edge 7, Type (0, 0), BuildingBlock: FUNLAD_clean_linker_1, # of connection points: 2
#     Edge 8, Type (0, 0), BuildingBlock: FUNLAD_clean_linker_1, # of connection points: 2
#     Edge 9, Type (0, 0), BuildingBlock: FUNLAD_clean_linker_1, # of connection points: 2
#     Edge 10, Type (0, 0), BuildingBlock: FUNLAD_clean_linker_1, # of connection points: 2
#     Edge 11, Type (0, 0), BuildingBlock: FUNLAD_clean_linker_1, # of connection points: 2
#     Edge 12, Type (0, 0), BuildingBlock: FUNLAD_clean_linker_1, # of connection points: 2
#     Edge 13, Type (0, 0), BuildingBlock: FUNLAD_clean_linker_1, # of connection points: 2
#     Edge 14, Type (0, 0), BuildingBlock: FUNLAD_clean_linker_1, # of connection points: 2
#     Edge 15, Type (0, 0), BuildingBlock: FUNLAD_clean_linker_1, # of connection points: 2
#     Edge 16, Type (0, 0), BuildingBlock: FUNLAD_clean_linker_1, # of connection points: 2
#     Edge 17, Type (0, 0), BuildingBlock: FUNLAD_clean_linker_1, # of connection points: 2
# Relax obj value: 0.074
# Max RMSD: 0.155
# Mean RMSD: 0.155
data_MOF--net-uni--node1-QUQFOY_clean_sbu_1--edge1-FUNLAD_clean_linker_1
_symmetry_space_group_name_H-M    P1
_symmetry_Int_Tables_number       1
_symmetry_cell_setting            triclinic
loop_
_symmetry_equiv_pos_as_xyz
'x, y, z'
_cell_length_a     43.501116
_cell_length_b     43.703586
_cell_length_c     23.187306
_cell_angle_alpha  90.212655
_cell_angle_beta   89.403625
_cell_angle_gamma 120.21005
loop_
_atom_site_label
_atom_site_type_symbol
_atom_site_fract_x
_atom_site_fract_y
_atom_site_fract_z
_atom_type_partial_charge
O0 O 0.6311 0.0501 0.98703 0.0
Cd1 Cd 0.66456 0.06361 0.05627 0.0
Cd2 Cd 0.6361 0.98903 0.05444 0.0
O3 O 0.62061 0.99558 0.97327 0.0
O4 O 0.69381 0.11621 0.05085 0.0
O5 O 0.717 0.08145 0.04324 0.0
C6 C 0.72127 0.11292 0.04219 0.0
C7 C 0.64823 0.94287 0.06653 0.0
C8 C 0.61771 0.02182 0.95756 0.0
C9 C 0.61643 0.0231 0.15297 0.0
O10 O 0.6106 0.99549 0.12555 0.0
O11 O 0.6398 0.05371 0.13547 0.0
O12 O 0.61666 0.93687 0.05681 0.0
O13 O 0.67378 0.97539 0.06777 0.0
O14 O 0.62826 0.63308 0.13348 0.0
Cd15 Cd 0.6441 0.66719 0.20294 0.0
Cd16 Cd 0.67815 0.63182 0.23122 0.0
O17 O 0.65972 0.60751 0.15264 0.0
O18 O 0.63363 0.705 0.18085 0.0
O19 O 0.68802 0.71569 0.19888 0.0
C20 C 0.66722 0.72739 0.18433 0.0
C21 C 0.73787 0.65349 0.25348 0.0
C22 C 0.63809 0.61095 0.12078 0.0
C23 C 0.61868 0.62316 0.30987 0.0
O24 O 0.64125 0.61367 0.29789 0.0
O25 O 0.61664 0.64604 0.27911 0.0
O26 O 0.71506 0.62004 0.25386 0.0
O27 O 0.72683 0.675 0.24034 0.0
O28 O 1.02304 0.60483 0.316 0.0
Cd29 Cd 0.99936 0.61838 0.38145 0.0
Cd30 Cd 0.07003 0.64864 0.42664 0.0
O31 O 0.07459 0.62128 0.35763 0.0
O32 O 0.94999 0.59845 0.3521 0.0
O33 O 0.98448 0.6553 0.37103 0.0
C34 C 0.95416 0.62968 0.35421 0.0
C35 C 0.11802 0.70554 0.44409 0.0
C36 C 0.05301 0.60635 0.31659 0.0
C37 C 1.01017 0.59471 0.4995 0.0
O38 O 0.04307 0.61772 0.49657 0.0
O39 O 0.98934 0.59097 0.45862 0.0
O40 O 0.12004 0.67764 0.45365 0.0
O41 O 0.0885 0.70148 0.42456 0.0
O42 O 0.42994 1.00646 0.4816 0.0
Cd43 Cd 0.39478 0.99108 0.55103 0.0
Cd44 Cd 0.42993 0.06229 0.56664 0.0
O45 O 0.4513 0.06417 0.48638 0.0
O46 O 0.35854 0.94074 0.53512 0.0
O47 O 0.34532 0.98336 0.54098 0.0
C48 C 0.33505 0.95039 0.53243 0.0
C49 C 0.40796 0.09989 0.58934 0.0
C50 C 0.44968 0.0375 0.46144 0.0
C51 C 0.44065 0.01807 0.65426 0.0
O52 O 0.45176 0.0487 0.63318 0.0
O53 O 0.41502 0.9909 0.63132 0.0
O54 O 0.44163 0.11155 0.5849 0.0
O55 O 0.38638 0.06671 0.57957 0.0
O56 O 0.46434 0.42173 0.6397 0.0
Cd57 Cd 0.446 0.39523 0.71691 0.0
Cd58 Cd 0.40638 0.42821 0.71449 0.0
O59 O 0.42858 0.44372 0.63302 0.0
O60 O 0.46585 0.36292 0.7173 0.0
O61 O 0.40805 0.34335 0.71591 0.0
C62 C 0.4338 0.33667 0.71501 0.0
C63 C 0.34586 0.40575 0.73244 0.0
C64 C 0.45351 0.43964 0.61259 0.0
C65 C 0.46117 0.45045 0.80707 0.0
O66 O 0.43908 0.45648 0.78153 0.0
O67 O 0.46633 0.4256 0.79048 0.0
O68 O 0.36642 0.43817 0.71686 0.0
O69 O 0.35928 0.38535 0.73591 0.0
O70 O 0.05677 0.4393 0.80875 0.0
Cd71 Cd 0.07458 0.42324 0.87754 0.0
Cd72 Cd 1.00394 0.39041 0.90979 0.0
O73 O 1.0003 0.41466 0.83554 0.0
O74 O 0.12449 0.43684 0.85693 0.0
O75 O 0.08151 0.3811 0.86665 0.0
C76 C 0.11436 0.40365 0.85478 0.0
C77 C 0.96281 0.33058 0.92611 0.0
C78 C 0.02554 0.43368 0.80063 0.0
C79 C 0.05626 0.44643 0.98894 0.0
O80 O 0.02407 0.42267 0.98094 0.0
O81 O 0.08042 0.45086 0.95308 0.0
O82 O 0.95412 0.35462 0.93195 0.0
O83 O 0.99501 0.3404 0.91022 0.0
H84 H 0.57527 0.99236 0.21848 0.0
C85 C 0.59351 0.01903 0.20305 0.0
H86 H 0.6083 0.07298 0.20881 0.0
H87 H 0.45485 0.03433 0.29923 0.0
H88 H 0.4551 0.05563 0.20277 0.0
H89 H 0.50489 0.07032 0.13536 0.0
H90 H 0.55461 0.06358 0.16391 0.0
C91 C 0.59175 0.0464 0.22595 0.0
C92 C 0.56339 0.04024 0.2686 0.0
C93 C 0.53494 0.04521 0.25169 0.0
C94 C 0.50649 0.03729 0.29088 0.0
C95 C 0.47766 0.04094 0.2719 0.0
C96 C 0.47732 0.0529 0.21644 0.0
C97 C 0.50533 0.06112 0.17846 0.0
C98 C 0.53377 0.05721 0.19551 0.0
H99 H 0.49017 0.07037 0.39621 0.0
C100 C 0.47353 0.04341 0.4118 0.0
H101 H 0.46259 0.99063 0.40648 0.0
H102 H 0.61536 0.03081 0.31622 0.0
H103 H 0.61549 1.01004 0.41301 0.0
H104 H 0.56614 0.99609 0.48097 0.0
H105 H 0.51643 1.00289 0.45265 0.0
C106 C 0.47777 0.01736 0.38931 0.0
C107 C 0.50697 0.02517 0.34734 0.0
C108 C 0.53564 0.02059 0.36443 0.0
C109 C 0.56398 0.02834 0.32513 0.0
C110 C 0.59276 0.02452 0.34388 0.0
C111 C 0.59329 1.01285 0.39946 0.0
C112 C 0.56552 1.00502 0.43773 0.0
C113 C 0.53706 1.00894 0.42079 0.0
H114 H 0.57466 0.61541 0.36784 0.0
C115 C 0.59241 0.60549 0.35679 0.0
H116 H 0.60378 0.56433 0.36865 0.0
H117 H 0.50673 0.54167 0.60359 0.0
H118 H 0.55518 0.59839 0.63484 0.0
H119 H 0.60519 0.63549 0.5691 0.0
H120 H 0.607 0.61609 0.47169 0.0
C121 C 0.5876 0.57569 0.38182 0.0
C122 C 0.55691 0.55438 0.4212 0.0
C123 C 0.5562 0.56627 0.4779 0.0
C124 C 0.5275 0.5447 0.51596 0.0
C125 C 0.52775 0.55696 0.57273 0.0
C126 C 0.55545 0.58947 0.59131 0.0
C127 C 0.58359 0.61037 0.55429 0.0
C128 C 0.58419 0.59898 0.49832 0.0
H129 H 0.49217 0.45199 0.54196 0.0
C130 C 0.47313 0.45865 0.56014 0.0
H131 H 0.45529 0.49553 0.55997 0.0
H132 H 0.54915 0.52462 0.31424 0.0
H133 H 0.50025 0.46819 0.28264 0.0
H134 H 0.4503 0.43109 0.34852 0.0
H135 H 0.44902 0.45021 0.44653 0.0
C136 C 0.4724 0.48702 0.53981 0.0
C137 C 0.49988 0.5111 0.49749 0.0
C138 C 0.50001 0.49975 0.44021 0.0
C139 C 0.52866 0.52131 0.40214 0.0
C140 C 0.52817 0.50925 0.34515 0.0
C141 C 0.5002 0.47694 0.32636 0.0
C142 C 0.47209 0.45605 0.36347 0.0
C143 C 0.4718 0.46722 0.41971 0.0
H144 H 0.04162 0.46543 0.72119 0.0
C145 C 1.01999 0.45208 0.75233 0.0
H146 H 0.97091 0.4455 0.78202 0.0
H147 H 1.01429 0.59674 0.67745 0.0
H148 H 1.01217 0.60657 0.78026 0.0
H149 H 1.0007 0.55964 0.85054 0.0
H150 H 0.99114 0.5026 0.81858 0.0
C151 C 0.99178 0.45674 0.74931 0.0
C152 C 0.99199 0.48232 0.70685 0.0
C153 C 0.99685 0.51525 0.72636 0.0
C154 C 1.00379 0.54243 0.68594 0.0
C155 C 1.00921 0.57532 0.70648 0.0
C156 C 1.008 0.58127 0.7653 0.0
C157 C 1.00151 0.55484 0.80486 0.0
C158 C 0.99607 0.5222 0.78591 0.0
H159 H 0.9682 0.54951 0.54882 0.0
C160 C 0.99641 0.56913 0.54767 0.0
H161 H 0.04666 0.5859 0.58457 0.0
H162 H 0.97681 0.42004 0.65526 0.0
H163 H 0.97855 0.40993 0.55245 0.0
H164 H 0.99359 0.45791 0.48237 0.0
H165 H 1.00645 0.51596 0.51436 0.0
C166 C 1.01837 0.56663 0.58516 0.0
C167 C 1.00573 0.53658 0.62626 0.0
C168 C 0.99876 0.50291 0.60652 0.0
C169 C 0.9913 0.47558 0.64692 0.0
C170 C 0.98367 0.44197 0.6263 0.0
C171 C 0.98439 0.43578 0.56748 0.0
C172 C 0.99276 0.46276 0.52802 0.0
C173 C 0.99997 0.49599 0.54703 0.0
H174 H 0.5995 1.00594 0.86795 0.0
C175 C 0.59682 0.01885 0.90624 0.0
H176 H 0.57089 0.04269 0.94723 0.0
H177 H 0.52212 0.09816 0.74286 0.0
H178 H 0.56087 0.15169 0.79531 0.0
H179 H 0.59776 0.15108 0.87479 0.0
H180 H 0.59555 0.09681 0.90299 0.0
C181 C 0.57361 0.03064 0.90782 0.0
C182 C 0.55319 0.03072 0.85658 0.0
C183 C 0.55592 0.0631 0.83906 0.0
C184 C 0.53579 0.06376 0.79165 0.0
C185 C 0.53765 0.09618 0.77722 0.0
C186 C 0.5597 0.12719 0.80717 0.0
C187 C 0.58038 0.12682 0.85201 0.0
C188 C 0.57866 0.09531 0.86793 0.0
H189 H 0.44341 0.99333 0.73563 0.0
C190 C 0.45886 1.01395 0.70419 0.0
H191 H 0.50941 0.05411 0.67651 0.0
H192 H 0.53526 0.96264 0.88529 0.0
H193 H 0.50108 0.91014 0.82743 0.0
H194 H 0.47521 0.91347 0.73511 0.0
H195 H 0.48205 0.969 0.70167 0.0
C196 C 0.49437 0.03414 0.70916 0.0
C197 C 0.51424 0.03239 0.75988 0.0
C198 C 0.51265 1.00028 0.77591 0.0
C199 C 0.53051 0.99904 0.8262 0.0
C200 C 0.52477 0.96576 0.84512 0.0
C201 C 0.5048 0.93526 0.81263 0.0
C202 C 0.49004 0.93709 0.76089 0.0
C203 C 0.49384 0.96912 0.74252 0.0
H204 H 0.63152 0.56851 0.06132 0.0
C205 C 0.62188 0.5865 0.07188 0.0
H206 H 0.58323 0.60096 0.05446 0.0
H207 H 0.54529 0.52792 0.80841 0.0
H208 H 0.58245 0.58927 0.77946 0.0
H209 H 0.61606 0.63565 0.85161 0.0
H210 H 0.61284 0.62088 0.95316 0.0
C211 C 0.59329 0.58324 0.04462 0.0
C212 C 0.57383 0.55499 0.00124 0.0
C213 C 0.57567 0.56413 0.94227 0.0
C214 C 0.55588 0.53747 0.90084 0.0
C215 C 0.55902 0.54721 0.84194 0.0
C216 C 0.58045 0.58232 0.82466 0.0
C217 C 0.5994 0.60842 0.86527 0.0
C218 C 0.59724 0.59959 0.92342 0.0
H219 H 0.47626 0.49457 0.86766 0.0
C220 C 0.48246 0.47445 0.85387 0.0
H221 H 0.51752 0.4545 0.86359 0.0
H222 H 0.56282 0.52852 0.11151 0.0
H223 H 0.52611 0.46713 0.14009 0.0
H224 H 0.49281 0.42078 0.06776 0.0
H225 H 0.49585 0.4357 0.96632 0.0
C226 C 0.51077 0.47438 0.87627 0.0
C227 C 0.53374 0.50181 0.91873 0.0
C228 C 0.53257 0.49252 0.97747 0.0
C229 C 0.5523 0.51918 0.01898 0.0
C230 C 0.54923 0.50933 0.07783 0.0
C231 C 0.52804 0.47415 0.09493 0.0
C232 C 0.50925 0.44807 0.05423 0.0
C233 C 0.51126 0.45699 -0.00384 0.0
H234 H 0.08642 0.49971 0.02609 0.0
C235 C 0.06477 0.47298 0.03458 0.0
H236 H 1.02266 0.43928 0.0895 0.0
H237 H 0.11611 0.60402 0.20543 0.0
H238 H 0.16917 0.59941 0.19472 0.0
H239 H 0.16565 0.54539 0.15451 0.0
H240 H 0.10939 0.49657 0.12197 0.0
C241 C 0.04414 0.4662 0.08179 0.0
C242 C 0.04563 0.49524 0.11821 0.0
C243 C 0.07806 0.5218 0.14251 0.0
C244 C 0.07945 0.55127 0.17139 0.0
C245 C 0.11305 0.57972 0.18778 0.0
C246 C 0.14378 0.5776 0.18123 0.0
C247 C 0.14184 0.5473 0.15822 0.0
C248 C 0.10943 0.51964 0.13908 0.0
H249 H 0.07554 0.57362 0.28885 0.0
C250 C 0.06069 0.58594 0.27408 0.0
H251 H 0.0329 0.59249 0.20641 0.0
H252 H 0.97927 0.45084 0.07342 0.0
H253 H 0.92556 0.45256 0.09271 0.0
H254 H 0.92624 0.49835 0.15591 0.0
H255 H 0.98081 0.54324 0.19871 0.0
C256 C 0.04747 0.57972 0.22048 0.0
C257 C 0.04758 0.55185 0.18291 0.0
C258 C 1.01487 0.52456 0.16054 0.0
C259 C 1.01412 0.49695 0.12664 0.0
C260 C 0.98143 0.47157 0.10157 0.0
C261 C 0.95025 0.47231 0.11198 0.0
C262 C 0.95065 0.49815 0.14736 0.0
C263 C 0.98241 0.52397 0.17147 0.0
H264 H 0.70985 0.7836 0.17578 0.0
C265 C 0.68145 0.76536 0.17187 0.0
H266 H 0.63134 0.7595 0.15351 0.0
H267 H 0.66557 0.91351 0.20372 0.0
H268 H 0.6393 0.88646 0.29616 0.0
H269 H 0.62843 0.8269 0.32068 0.0
H270 H 0.64382 0.79403 0.25301 0.0
C271 C 0.65988 0.77748 0.1559 0.0
C272 C 0.67278 0.81563 0.14524 0.0
C273 C 0.66406 0.83463 0.18549 0.0
C274 C 0.6702 0.86888 0.17131 0.0
C275 C 0.66104 0.88721 0.21216 0.0
C276 C 0.6461 0.87206 0.2654 0.0
C277 C 0.63998 0.83852 0.27921 0.0
C278 C 0.64882 0.8199 0.23992 0.0
H279 H 0.63018 0.88639 0.07576 0.0
C280 C 0.65346 0.91274 0.07868 0.0
H281 H 0.70787 0.94193 0.10161 0.0
H282 H 0.69523 0.78766 0.0599 0.0
H283 H 0.72347 0.81584 0.9692 0.0
H284 H 0.73477 0.87565 0.94546 0.0
H285 H 0.71769 0.90764 0.01238 0.0
C286 C 0.6841 0.9161 0.09741 0.0
C287 C 0.6847 0.88392 0.11667 0.0
C288 C 0.69589 0.86613 0.07821 0.0
C289 C 0.68973 0.83179 0.09229 0.0
C290 C 0.69969 0.81394 0.05182 0.0
C291 C 0.71586 0.8298 -0.00046 0.0
C292 C 0.7222 0.86348 0.98613 0.0
C293 C 0.71225 0.88151 0.02477 0.0
H294 H 0.89916 0.61087 0.32846 0.0
C295 C 0.92402 0.63455 0.33951 0.0
H296 H 0.94963 0.69016 0.3506 0.0
H297 H 0.82367 0.6774 0.18646 0.0
H298 H 0.87368 0.70452 0.11982 0.0
H299 H 0.93284 0.71537 0.14825 0.0
H300 H 0.94223 0.69885 0.24368 0.0
C301 C 0.92516 0.66581 0.34089 0.0
C302 C 0.8922 0.66701 0.32864 0.0
C303 C 0.88746 0.67811 0.27381 0.0
C304 C 0.85342 0.67241 0.25785 0.0
C305 C 0.84901 0.68183 0.20148 0.0
C306 C 0.87751 0.69729 0.16264 0.0
C307 C 0.91082 0.70336 0.17861 0.0
C308 C 0.91585 0.69376 0.23341 0.0
H309 H 0.79362 0.69519 0.27034 0.0
C310 C 0.77551 0.66678 0.2681 0.0
H311 H 0.76908 0.61594 0.27828 0.0
H312 H 0.89424 0.64869 0.44047 0.0
H313 H 0.84503 0.62387 0.50917 0.0
H314 H 0.78605 0.61407 0.48198 0.0
H315 H 0.77592 0.62908 0.38606 0.0
C316 C 0.78744 0.64435 0.27887 0.0
C317 C 0.82446 0.65631 0.29751 0.0
C318 C 0.83005 0.64778 0.35393 0.0
C319 C 0.86397 0.65327 0.36956 0.0
C320 C 0.8688 0.64448 0.42616 0.0
C321 C 0.84085 0.63041 0.46607 0.0
C322 C 0.80765 0.62491 0.45076 0.0
C323 C 0.80217 0.63349 0.39547 0.0
H324 H 0.17386 0.74141 0.4667 0.0
C325 C 0.14937 0.74066 0.45474 0.0
H326 H 0.12498 0.77143 0.44076 0.0
H327 H 0.2507 0.88713 0.6025 0.0
H328 H 0.20088 0.86458 0.6695 0.0
H329 H 0.14195 0.81515 0.64233 0.0
H330 H 0.13258 0.78776 0.54786 0.0
C331 C 0.14921 0.77122 0.45077 0.0
C332 C 0.18244 0.80532 0.4626 0.0
C333 C 0.18716 0.822 0.51691 0.0
C334 C 0.22104 0.85097 0.53213 0.0
C335 C 0.22544 0.86569 0.58801 0.0
C336 C 0.19706 0.85287 0.62706 0.0
C337 C 0.16388 0.825 0.6118 0.0
C338 C 0.15887 0.80952 0.55751 0.0
H339 H 0.27867 0.93378 0.51554 0.0
C340 C 0.29756 0.92452 0.51898 0.0
H341 H 0.30587 0.88109 0.51155 0.0
H342 H 0.18063 0.78278 0.35198 0.0
H343 H 0.22971 0.80662 0.28304 0.0
H344 H 0.28836 0.85705 0.30886 0.0
H345 H 0.29832 0.88396 0.40367 0.0
C346 C 0.28674 0.89014 0.51008 0.0
C347 C 0.2499 0.86368 0.49229 0.0
C348 C 0.24441 0.84844 0.43653 0.0
C349 C 0.21065 0.81932 0.42164 0.0
C350 C 0.20593 0.80462 0.36569 0.0
C351 C 0.2338 0.81815 0.32566 0.0
C352 C 0.26682 0.84655 0.34019 0.0
C353 C 0.27222 0.86165 0.39485 0.0
H354 H 0.45123 0.29754 0.71049 0.0
C355 C 0.42792 0.30055 0.70844 0.0
H356 H 0.3731 0.2751 0.68975 0.0
H357 H 0.3918 0.16756 0.52663 0.0
H358 H 0.37287 0.19702 0.45936 0.0
H359 H 0.36319 0.2454 0.49162 0.0
H360 H 0.37249 0.26469 0.59133 0.0
C361 C 0.39637 0.27232 0.69493 0.0
C362 C 0.39438 0.23829 0.67865 0.0
C363 C 0.38759 0.22651 0.62062 0.0
C364 C 0.39294 0.1984 0.60205 0.0
C365 C 0.38769 0.18838 0.54325 0.0
C366 C 0.3769 0.20515 0.50411 0.0
C367 C 0.37147 0.2324 0.52227 0.0
C368 C 0.37689 0.2432 0.57969 0.0
H369 H 0.366 0.11337 0.60768 0.0
C370 C 0.39454 0.12374 0.60629 0.0
H371 H 0.44546 0.16761 0.62212 0.0
H372 H 0.4018 0.24906 0.79505 0.0
H373 H 0.41856 0.21806 0.86335 0.0
H374 H 0.429 0.17017 0.83094 0.0
H375 H 0.42246 0.15276 0.73018 0.0
C376 C 0.41698 0.15756 0.62123 0.0
C377 C 0.40462 0.1819 0.6418 0.0
C378 C 0.40854 0.19176 0.70073 0.0
C379 C 0.40307 0.21972 0.71928 0.0
C380 C 0.40662 0.22863 0.77854 0.0
C381 C 0.41596 0.2109 0.81819 0.0
C382 C 0.4218 0.1839 0.79995 0.0
C383 C 0.41811 0.17428 0.74198 0.0
H384 H 0.12982 0.37059 0.80396 0.0
C385 C 0.13929 0.39226 0.83459 0.0
H386 H 0.18218 0.43208 0.8801 0.0
H387 H 0.24463 0.3379 0.73999 0.0
H388 H 0.1969 0.28494 0.78475 0.0
H389 H 0.15298 0.28824 0.84871 0.0
H390 H 0.15563 0.34421 0.86618 0.0
C391 C 0.17385 0.4108 0.84884 0.0
C392 C 0.20243 0.40823 0.81652 0.0
C393 C 0.20217 0.37572 0.81085 0.0
C394 C 0.22943 0.37431 0.77823 0.0
C395 C 0.22621 0.34089 0.76778 0.0
C396 C 0.19871 0.31022 0.79272 0.0
C397 C 0.17385 0.31204 0.82842 0.0
C398 C 0.17546 0.34433 0.8376 0.0
H399 H 0.30001 0.37848 0.79172 0.0
C400 C 0.30925 0.39394 0.75225 0.0
H401 H 0.29973 0.42109 0.68717 0.0
H402 H 0.20956 0.47445 0.81266 0.0
H403 H 0.25997 0.528 0.77594 0.0
H404 H 0.31158 0.52714 0.73295 0.0
H405 H 0.31256 0.47264 0.72498 0.0
C406 C 0.28977 0.40609 0.72702 0.0
C407 C 0.25897 0.40599 0.75665 0.0
C408 C 0.25972 0.43868 0.76388 0.0
C409 C 0.23091 0.43956 0.79189 0.0
C410 C 0.23135 0.47225 0.7945 0.0
C411 C 0.26008 0.50332 0.77314 0.0
C412 C 0.28904 0.50281 0.74874 0.0
C413 C 0.28905 0.47106 0.74408 0.0
H414 H 0.94473 0.27328 0.9311 0.0
C415 C 0.9367 0.29291 0.93771 0.0
H416 H 0.89512 0.30214 0.96171 0.0
H417 H 0.76703 0.15117 0.9102 0.0
H418 H 0.76715 0.1817 0.82291 0.0
H419 H 0.81713 0.24141 0.80035 0.0
H420 H 0.86742 0.27085 0.86475 0.0
C421 C 0.90356 0.28273 0.95654 0.0
C422 C 0.87612 0.24496 0.96669 0.0
C423 C 0.84689 0.22815 0.92876 0.0
C424 C 0.81785 0.19393 0.94215 0.0
C425 C 0.78934 0.17752 0.90286 0.0
C426 C 0.78919 0.19465 0.8524 0.0
C427 C 0.81734 0.22825 0.83968 0.0
C428 C 0.84596 0.2449 0.87715 0.0
H429 H 0.75671 0.17002 0.02898 0.0
C430 C 0.7558 0.14469 0.02873 0.0
H431 H 0.78517 0.11888 0.01263 0.0
H432 H 0.92868 0.26883 0.04762 0.0
H433 H 0.92924 0.23738 0.13318 0.0
H434 H 0.8791 0.17776 0.15568 0.0
H435 H 0.82789 0.14927 0.09277 0.0
C436 C 0.78502 0.14366 0.01262 0.0
C437 C 0.81775 0.17682 -0.00591 0.0
C438 C 0.84795 0.19261 0.03015 0.0
C439 C 0.87709 0.22687 0.01673 0.0
C440 C 0.90613 0.24267 0.05507 0.0
C441 C 0.90674 0.22494 0.10448 0.0
C442 C 0.87848 0.19138 0.11719 0.0
C443 C 0.84928 0.17533 0.08075 0.0
loop_
_geom_bond_atom_site_label_1
_geom_bond_atom_site_label_2
_geom_bond_distance
_geom_bond_site_symmetry_2
_ccdc_geom_bond_type
O0 Cd1 2.223 . S
O0 C8 1.315 1_554 S
Cd1 O0 2.223 . S
Cd1 O4 2.297 . S
Cd1 O5 2.439 . S
Cd1 O11 2.240 . S
Cd2 O3 2.240 1_564 S
Cd2 O10 2.223 . S
Cd2 O12 2.297 . S
Cd2 O13 2.439 . S
O3 Cd2 2.240 1_546 S
O3 C8 1.279 . S
O4 Cd1 2.297 . S
O4 C6 1.247 . S
O5 Cd1 2.439 . S
O5 C6 1.208 . S
C6 O4 1.247 . S
C6 O5 1.208 . S
C7 O12 1.247 . S
C7 O13 1.208 . S
C8 O0 1.315 1_556 S
C8 O3 1.279 . S
C9 O10 1.315 . S
C9 O11 1.279 1_565 S
O10 Cd2 2.223 . S
O10 C9 1.315 . S
O11 Cd1 2.240 . S
O11 C9 1.279 1_545 S
O12 Cd2 2.297 . S
O12 C7 1.247 . S
O13 Cd2 2.439 . S
O13 C7 1.208 . S
O14 Cd15 2.223 . S
O14 C22 1.315 . S
Cd15 O14 2.223 . S
Cd15 O18 2.297 . S
Cd15 O19 2.439 . S
Cd15 O25 2.240 . S
Cd16 O17 2.240 . S
Cd16 O24 2.223 . S
Cd16 O26 2.297 . S
Cd16 O27 2.439 . S
O17 Cd16 2.240 . S
O17 C22 1.279 . S
O18 Cd15 2.297 . S
O18 C20 1.247 . S
O19 Cd15 2.439 . S
O19 C20 1.208 . S
C20 O18 1.247 . S
C20 O19 1.208 . S
C21 O26 1.247 . S
C21 O27 1.208 . S
C22 O14 1.315 . S
C22 O17 1.279 . S
C23 O24 1.315 . S
C23 O25 1.279 . S
O24 Cd16 2.223 . S
O24 C23 1.315 . S
O25 Cd15 2.240 . S
O25 C23 1.279 . S
O26 Cd16 2.297 . S
O26 C21 1.247 . S
O27 Cd16 2.439 . S
O27 C21 1.208 . S
O28 Cd29 2.223 . S
O28 C36 1.315 . S
Cd29 O28 2.223 . S
Cd29 O32 2.297 . S
Cd29 O33 2.439 . S
Cd29 O39 2.240 1_655 S
Cd30 O31 2.240 . S
Cd30 O38 2.223 . S
Cd30 O40 2.297 . S
Cd30 O41 2.439 . S
O31 Cd30 2.240 . S
O31 C36 1.279 1_455 S
O32 Cd29 2.297 . S
O32 C34 1.247 . S
O33 Cd29 2.439 . S
O33 C34 1.208 . S
C34 O32 1.247 . S
C34 O33 1.208 . S
C35 O40 1.247 . S
C35 O41 1.208 . S
C36 O28 1.315 . S
C36 O31 1.279 1_655 S
C37 O38 1.315 . S
C37 O39 1.279 . S
O38 Cd30 2.223 . S
O38 C37 1.315 . S
O39 Cd29 2.240 1_455 S
O39 C37 1.279 . S
O40 Cd30 2.297 . S
O40 C35 1.247 . S
O41 Cd30 2.439 . S
O41 C35 1.208 . S
O42 Cd43 2.223 . S
O42 C50 1.315 . S
Cd43 O42 2.223 . S
Cd43 O46 2.297 . S
Cd43 O47 2.439 . S
Cd43 O53 2.240 1_565 S
Cd44 O45 2.240 . S
Cd44 O52 2.223 . S
Cd44 O54 2.297 . S
Cd44 O55 2.439 . S
O45 Cd44 2.240 . S
O45 C50 1.279 1_545 S
O46 Cd43 2.297 . S
O46 C48 1.247 . S
O47 Cd43 2.439 . S
O47 C48 1.208 . S
C48 O46 1.247 . S
C48 O47 1.208 . S
C49 O54 1.247 . S
C49 O55 1.208 . S
C50 O42 1.315 . S
C50 O45 1.279 1_565 S
C51 O52 1.315 . S
C51 O53 1.279 . S
O52 Cd44 2.223 . S
O52 C51 1.315 . S
O53 Cd43 2.240 1_545 S
O53 C51 1.279 . S
O54 Cd44 2.297 . S
O54 C49 1.247 . S
O55 Cd44 2.439 . S
O55 C49 1.208 . S
O56 Cd57 2.223 . S
O56 C64 1.315 . S
Cd57 O56 2.223 . S
Cd57 O60 2.297 . S
Cd57 O61 2.439 . S
Cd57 O67 2.240 . S
Cd58 O59 2.240 . S
Cd58 O66 2.223 . S
Cd58 O68 2.297 . S
Cd58 O69 2.439 . S
O59 Cd58 2.240 . S
O59 C64 1.279 . S
O60 Cd57 2.297 . S
O60 C62 1.247 . S
O61 Cd57 2.439 . S
O61 C62 1.208 . S
C62 O60 1.247 . S
C62 O61 1.208 . S
C63 O68 1.247 . S
C63 O69 1.208 . S
C64 O56 1.315 . S
C64 O59 1.279 . S
C65 O66 1.315 . S
C65 O67 1.279 . S
O66 Cd58 2.223 . S
O66 C65 1.315 . S
O67 Cd57 2.240 . S
O67 C65 1.279 . S
O68 Cd58 2.297 . S
O68 C63 1.247 . S
O69 Cd58 2.439 . S
O69 C63 1.208 . S
O70 Cd71 2.223 . S
O70 C78 1.315 . S
Cd71 O70 2.223 . S
Cd71 O74 2.297 . S
Cd71 O75 2.439 . S
Cd71 O81 2.240 . S
Cd72 O73 2.240 1_655 S
Cd72 O80 2.223 . S
Cd72 O82 2.297 . S
Cd72 O83 2.439 . S
O73 Cd72 2.240 1_455 S
O73 C78 1.279 . S
O74 Cd71 2.297 . S
O74 C76 1.247 . S
O75 Cd71 2.439 . S
O75 C76 1.208 . S
C76 O74 1.247 . S
C76 O75 1.208 . S
C77 O82 1.247 . S
C77 O83 1.208 . S
C78 O70 1.315 . S
C78 O73 1.279 . S
C79 O80 1.315 . S
C79 O81 1.279 1_655 S
O80 Cd72 2.223 . S
O80 C79 1.315 . S
O81 Cd71 2.240 . S
O81 C79 1.279 1_455 S
O82 Cd72 2.297 . S
O82 C77 1.247 . S
O83 Cd72 2.439 . S
O83 C77 1.208 . S
H84 C85 0.951 . S
C85 H84 0.951 . S
C85 C91 1.265 1_565 S
H86 C91 0.950 . S
H87 C95 0.949 . S
H88 C96 0.950 . S
H89 C97 0.951 . S
H90 C98 0.951 . S
C91 C85 1.265 1_545 S
C91 H86 0.950 . S
C91 C92 1.478 . S
C92 C91 1.478 . S
C92 C93 1.397 . S
C92 C109 1.394 1_545 S
C93 C92 1.397 . S
C93 C94 1.438 . S
C93 C98 1.429 . S
C94 C93 1.438 . S
C94 C95 1.428 . S
C94 C107 1.394 1_545 S
C95 H87 0.949 . S
C95 C94 1.428 . S
C95 C96 1.345 . S
C96 H88 0.950 . S
C96 C95 1.345 . S
C96 C97 1.424 . S
C97 H89 0.951 . S
C97 C96 1.424 . S
C97 C98 1.347 . S
C98 H90 0.951 . S
C98 C93 1.429 . S
C98 C97 1.347 . S
H99 C100 0.951 . S
C100 H99 0.951 . S
C100 C106 1.265 1_545 S
H101 C106 0.950 . S
H102 C110 0.949 . S
H103 C111 0.950 . S
H104 C112 0.951 . S
H105 C113 0.951 . S
C106 C100 1.265 1_565 S
C106 H101 0.950 . S
C106 C107 1.478 . S
C107 C94 1.394 1_565 S
C107 C106 1.478 . S
C107 C108 1.397 . S
C108 C107 1.397 . S
C108 C109 1.438 . S
C108 C113 1.429 . S
C109 C92 1.394 1_565 S
C109 C108 1.438 . S
C109 C110 1.428 . S
C110 H102 0.949 . S
C110 C109 1.428 . S
C110 C111 1.345 . S
C111 H103 0.950 . S
C111 C110 1.345 . S
C111 C112 1.424 . S
C112 H104 0.951 . S
C112 C111 1.424 . S
C112 C113 1.347 . S
C113 H105 0.951 . S
C113 C108 1.429 . S
C113 C112 1.347 . S
H114 C115 0.951 . S
C115 H114 0.951 . S
C115 C121 1.265 . S
H116 C121 0.950 . S
H117 C125 0.949 . S
H118 C126 0.950 . S
H119 C127 0.951 . S
H120 C128 0.951 . S
C121 C115 1.265 . S
C121 H116 0.950 . S
C121 C122 1.478 . S
C122 C121 1.478 . S
C122 C123 1.397 . S
C122 C139 1.394 . S
C123 C122 1.397 . S
C123 C124 1.438 . S
C123 C128 1.429 . S
C124 C123 1.438 . S
C124 C125 1.428 . S
C124 C137 1.394 . S
C125 H117 0.949 . S
C125 C124 1.428 . S
C125 C126 1.345 . S
C126 H118 0.950 . S
C126 C125 1.345 . S
C126 C127 1.424 . S
C127 H119 0.951 . S
C127 C126 1.424 . S
C127 C128 1.347 . S
C128 H120 0.951 . S
C128 C123 1.429 . S
C128 C127 1.347 . S
H129 C130 0.951 . S
C130 H129 0.951 . S
C130 C136 1.265 . S
H131 C136 0.950 . S
H132 C140 0.949 . S
H133 C141 0.950 . S
H134 C142 0.951 . S
H135 C143 0.951 . S
C136 C130 1.265 . S
C136 H131 0.950 . S
C136 C137 1.478 . S
C137 C124 1.394 . S
C137 C136 1.478 . S
C137 C138 1.397 . S
C138 C137 1.397 . S
C138 C139 1.438 . S
C138 C143 1.429 . S
C139 C122 1.394 . S
C139 C138 1.438 . S
C139 C140 1.428 . S
C140 H132 0.949 . S
C140 C139 1.428 . S
C140 C141 1.345 . S
C141 H133 0.950 . S
C141 C140 1.345 . S
C141 C142 1.424 . S
C142 H134 0.951 . S
C142 C141 1.424 . S
C142 C143 1.347 . S
C143 H135 0.951 . S
C143 C138 1.429 . S
C143 C142 1.347 . S
H144 C145 0.951 . S
C145 H144 0.951 . S
C145 C151 1.265 . S
H146 C151 0.950 1_655 S
H147 C155 0.949 . S
H148 C156 0.950 . S
H149 C157 0.951 . S
H150 C158 0.951 . S
C151 C145 1.265 . S
C151 H146 0.950 1_455 S
C151 C152 1.478 . S
C152 C151 1.478 . S
C152 C153 1.397 . S
C152 C169 1.394 . S
C153 C152 1.397 . S
C153 C154 1.438 . S
C153 C158 1.429 . S
C154 C153 1.438 . S
C154 C155 1.428 . S
C154 C167 1.394 . S
C155 H147 0.949 . S
C155 C154 1.428 . S
C155 C156 1.345 . S
C156 H148 0.950 . S
C156 C155 1.345 . S
C156 C157 1.424 . S
C157 H149 0.951 . S
C157 C156 1.424 . S
C157 C158 1.347 . S
C158 H150 0.951 . S
C158 C153 1.429 . S
C158 C157 1.347 . S
H159 C160 0.951 . S
C160 H159 0.951 . S
C160 C166 1.265 . S
H161 C166 0.950 . S
H162 C170 0.949 1_655 S
H163 C171 0.946 . S
H164 C172 0.951 . S
H165 C173 0.951 . S
C166 C160 1.265 . S
C166 H161 0.950 . S
C166 C167 1.478 . S
C167 C154 1.394 . S
C167 C166 1.478 . S
C167 C168 1.397 . S
C168 C167 1.397 . S
C168 C169 1.438 . S
C168 C173 1.429 . S
C169 C152 1.394 . S
C169 C168 1.438 . S
C169 C170 1.428 . S
C170 H162 0.949 1_455 S
C170 C169 1.428 . S
C170 C171 1.347 1_455 S
C171 H163 0.946 . S
C171 C170 1.347 1_655 S
C171 C172 1.426 1_655 S
C172 H164 0.951 . S
C172 C171 1.426 1_455 S
C172 C173 1.347 . S
C173 H165 0.951 . S
C173 C168 1.429 . S
C173 C172 1.347 . S
H174 C175 0.951 . S
C175 H174 0.951 . S
C175 C181 1.265 . S
H176 C181 0.950 . S
H177 C185 0.949 . S
H178 C186 0.950 . S
H179 C187 0.951 . S
H180 C188 0.951 . S
C181 C175 1.265 . S
C181 H176 0.950 . S
C181 C182 1.478 . S
C182 C181 1.478 . S
C182 C183 1.397 . S
C182 C199 1.394 1_545 S
C183 C182 1.397 . S
C183 C184 1.438 . S
C183 C188 1.429 . S
C184 C183 1.438 . S
C184 C185 1.428 . S
C184 C197 1.394 . S
C185 H177 0.949 . S
C185 C184 1.428 . S
C185 C186 1.345 . S
C186 H178 0.950 . S
C186 C185 1.345 . S
C186 C187 1.424 . S
C187 H179 0.951 . S
C187 C186 1.424 . S
C187 C188 1.347 . S
C188 H180 0.951 . S
C188 C183 1.429 . S
C188 C187 1.347 . S
H189 C190 0.951 . S
C190 H189 0.951 . S
C190 C196 1.265 . S
H191 C196 0.950 . S
H192 C200 0.949 . S
H193 C201 0.950 . S
H194 C202 0.951 . S
H195 C203 0.951 . S
C196 C190 1.265 . S
C196 H191 0.950 . S
C196 C197 1.478 . S
C197 C184 1.394 . S
C197 C196 1.478 . S
C197 C198 1.397 1_545 S
C198 C197 1.397 1_565 S
C198 C199 1.438 . S
C198 C203 1.429 . S
C199 C182 1.394 1_565 S
C199 C198 1.438 . S
C199 C200 1.428 . S
C200 H192 0.949 . S
C200 C199 1.428 . S
C200 C201 1.345 . S
C201 H193 0.950 . S
C201 C200 1.345 . S
C201 C202 1.424 . S
C202 H194 0.951 . S
C202 C201 1.424 . S
C202 C203 1.347 . S
C203 H195 0.951 . S
C203 C198 1.429 . S
C203 C202 1.347 . S
H204 C205 0.951 . S
C205 H204 0.951 . S
C205 C211 1.265 . S
H206 C211 0.950 . S
H207 C215 0.949 . S
H208 C216 0.950 . S
H209 C217 0.951 . S
H210 C218 0.959 . S
C211 C205 1.265 . S
C211 H206 0.950 . S
C211 C212 1.478 . S
C212 C211 1.478 . S
C212 C213 1.397 1_554 S
C212 C229 1.394 . S
C213 C212 1.397 1_556 S
C213 C214 1.438 . S
C213 C218 1.429 . S
C214 C213 1.438 . S
C214 C215 1.428 . S
C214 C227 1.394 . S
C215 H207 0.949 . S
C215 C214 1.428 . S
C215 C216 1.345 . S
C216 H208 0.950 . S
C216 C215 1.345 . S
C216 C217 1.424 . S
C217 H209 0.951 . S
C217 C216 1.424 . S
C217 C218 1.347 . S
C218 H210 0.959 . S
C218 C213 1.429 . S
C218 C217 1.347 . S
H219 C220 0.951 . S
C220 H219 0.951 . S
C220 C226 1.265 . S
H221 C226 0.950 . S
H222 C230 0.949 . S
H223 C231 0.950 . S
H224 C232 0.951 . S
H225 C233 0.951 . S
C226 C220 1.265 . S
C226 H221 0.950 . S
C226 C227 1.478 . S
C227 C214 1.394 . S
C227 C226 1.478 . S
C227 C228 1.397 . S
C228 C227 1.397 . S
C228 C229 1.438 1_556 S
C228 C233 1.429 . S
C229 C212 1.394 . S
C229 C228 1.438 1_554 S
C229 C230 1.428 . S
C230 H222 0.949 . S
C230 C229 1.428 . S
C230 C231 1.345 . S
C231 H223 0.950 . S
C231 C230 1.345 . S
C231 C232 1.424 . S
C232 H224 0.951 . S
C232 C231 1.424 . S
C232 C233 1.347 1_554 S
C233 H225 0.951 . S
C233 C228 1.429 . S
C233 C232 1.347 1_556 S
H234 C235 0.937 1_655 S
C235 H234 0.937 1_455 S
C235 C241 1.267 . S
H236 C241 0.950 . S
H237 C245 0.949 . S
H238 C246 0.950 . S
H239 C247 0.951 . S
H240 C248 0.951 . S
C241 C235 1.267 . S
C241 H236 0.950 . S
C241 C242 1.478 . S
C242 C241 1.478 . S
C242 C243 1.397 . S
C242 C259 1.394 1_455 S
C243 C242 1.397 . S
C243 C244 1.438 . S
C243 C248 1.429 . S
C244 C243 1.438 . S
C244 C245 1.428 . S
C244 C257 1.397 1_455 S
C245 H237 0.949 . S
C245 C244 1.428 . S
C245 C246 1.345 . S
C246 H238 0.950 . S
C246 C245 1.345 . S
C246 C247 1.424 . S
C247 H239 0.951 . S
C247 C246 1.424 . S
C247 C248 1.347 . S
C248 H240 0.951 . S
C248 C243 1.429 . S
C248 C247 1.347 . S
H249 C250 0.951 . S
C250 H249 0.951 . S
C250 C256 1.265 1_455 S
H251 C256 0.950 . S
H252 C260 0.949 . S
H253 C261 0.950 . S
H254 C262 0.951 . S
H255 C263 0.951 . S
C256 C250 1.265 1_655 S
C256 H251 0.950 . S
C256 C257 1.477 . S
C257 C244 1.397 1_655 S
C257 C256 1.477 . S
C257 C258 1.395 . S
C258 C257 1.395 . S
C258 C259 1.438 . S
C258 C263 1.429 . S
C259 C242 1.394 1_655 S
C259 C258 1.438 . S
C259 C260 1.428 . S
C260 H252 0.949 . S
C260 C259 1.428 . S
C260 C261 1.345 . S
C261 H253 0.950 . S
C261 C260 1.345 . S
C261 C262 1.424 . S
C262 H254 0.951 . S
C262 C261 1.424 . S
C262 C263 1.347 . S
C263 H255 0.951 . S
C263 C258 1.429 . S
C263 C262 1.347 . S
H264 C265 0.951 . S
C265 H264 0.951 . S
C265 C271 1.265 . S
H266 C271 0.950 . S
H267 C275 0.949 . S
H268 C276 0.950 . S
H269 C277 0.951 . S
H270 C278 0.951 . S
C271 C265 1.265 . S
C271 H266 0.950 . S
C271 C272 1.478 . S
C272 C271 1.478 . S
C272 C273 1.397 . S
C272 C289 1.394 . S
C273 C272 1.397 . S
C273 C274 1.438 . S
C273 C278 1.429 . S
C274 C273 1.438 . S
C274 C275 1.428 . S
C274 C287 1.394 . S
C275 H267 0.949 . S
C275 C274 1.428 . S
C275 C276 1.345 . S
C276 H268 0.950 . S
C276 C275 1.345 . S
C276 C277 1.424 . S
C277 H269 0.951 . S
C277 C276 1.424 . S
C277 C278 1.347 . S
C278 H270 0.951 . S
C278 C273 1.429 . S
C278 C277 1.347 . S
H279 C280 0.951 . S
C280 H279 0.951 . S
C280 C286 1.265 . S
H281 C286 0.950 . S
H282 C290 0.949 . S
H283 C291 0.950 1_556 S
H284 C292 0.951 1_556 S
H285 C293 0.951 . S
C286 C280 1.265 . S
C286 H281 0.950 . S
C286 C287 1.478 . S
C287 C274 1.394 . S
C287 C286 1.478 . S
C287 C288 1.397 . S
C288 C287 1.397 . S
C288 C289 1.438 . S
C288 C293 1.429 . S
C289 C272 1.394 . S
C289 C288 1.438 . S
C289 C290 1.428 . S
C290 H282 0.949 . S
C290 C289 1.428 . S
C290 C291 1.345 . S
C291 H283 0.950 1_554 S
C291 C290 1.345 . S
C291 C292 1.424 . S
C292 H284 0.951 1_554 S
C292 C291 1.424 . S
C292 C293 1.347 . S
C293 H285 0.951 . S
C293 C288 1.429 . S
C293 C292 1.347 . S
H294 C295 0.951 . S
C295 H294 0.951 . S
C295 C301 1.265 . S
H296 C301 0.950 . S
H297 C305 0.949 . S
H298 C306 0.950 . S
H299 C307 0.951 . S
H300 C308 0.951 . S
C301 C295 1.265 . S
C301 H296 0.950 . S
C301 C302 1.478 . S
C302 C301 1.478 . S
C302 C303 1.397 . S
C302 C319 1.394 . S
C303 C302 1.397 . S
C303 C304 1.438 . S
C303 C308 1.429 . S
C304 C303 1.438 . S
C304 C305 1.428 . S
C304 C317 1.394 . S
C305 H297 0.949 . S
C305 C304 1.428 . S
C305 C306 1.345 . S
C306 H298 0.950 . S
C306 C305 1.345 . S
C306 C307 1.424 . S
C307 H299 0.951 . S
C307 C306 1.424 . S
C307 C308 1.347 . S
C308 H300 0.951 . S
C308 C303 1.429 . S
C308 C307 1.347 . S
H309 C310 0.951 . S
C310 H309 0.951 . S
C310 C316 1.265 . S
H311 C316 0.950 . S
H312 C320 0.949 . S
H313 C321 0.950 . S
H314 C322 0.951 . S
H315 C323 0.951 . S
C316 C310 1.265 . S
C316 H311 0.950 . S
C316 C317 1.478 . S
C317 C304 1.394 . S
C317 C316 1.478 . S
C317 C318 1.397 . S
C318 C317 1.397 . S
C318 C319 1.438 . S
C318 C323 1.429 . S
C319 C302 1.394 . S
C319 C318 1.438 . S
C319 C320 1.428 . S
C320 H312 0.949 . S
C320 C319 1.428 . S
C320 C321 1.345 . S
C321 H313 0.950 . S
C321 C320 1.345 . S
C321 C322 1.424 . S
C322 H314 0.951 . S
C322 C321 1.424 . S
C322 C323 1.347 . S
C323 H315 0.951 . S
C323 C318 1.429 . S
C323 C322 1.347 . S
H324 C325 0.951 . S
C325 H324 0.951 . S
C325 C331 1.265 . S
H326 C331 0.950 . S
H327 C335 0.949 . S
H328 C336 0.950 . S
H329 C337 0.951 . S
H330 C338 0.951 . S
C331 C325 1.265 . S
C331 H326 0.950 . S
C331 C332 1.478 . S
C332 C331 1.478 . S
C332 C333 1.397 . S
C332 C349 1.394 . S
C333 C332 1.397 . S
C333 C334 1.438 . S
C333 C338 1.429 . S
C334 C333 1.438 . S
C334 C335 1.428 . S
C334 C347 1.394 . S
C335 H327 0.949 . S
C335 C334 1.428 . S
C335 C336 1.345 . S
C336 H328 0.950 . S
C336 C335 1.345 . S
C336 C337 1.424 . S
C337 H329 0.951 . S
C337 C336 1.424 . S
C337 C338 1.347 . S
C338 H330 0.951 . S
C338 C333 1.429 . S
C338 C337 1.347 . S
H339 C340 0.951 . S
C340 H339 0.951 . S
C340 C346 1.265 . S
H341 C346 0.950 . S
H342 C350 0.949 . S
H343 C351 0.950 . S
H344 C352 0.951 . S
H345 C353 0.951 . S
C346 C340 1.265 . S
C346 H341 0.950 . S
C346 C347 1.478 . S
C347 C334 1.394 . S
C347 C346 1.478 . S
C347 C348 1.397 . S
C348 C347 1.397 . S
C348 C349 1.438 . S
C348 C353 1.429 . S
C349 C332 1.394 . S
C349 C348 1.438 . S
C349 C350 1.428 . S
C350 H342 0.949 . S
C350 C349 1.428 . S
C350 C351 1.345 . S
C351 H343 0.950 . S
C351 C350 1.345 . S
C351 C352 1.424 . S
C352 H344 0.951 . S
C352 C351 1.424 . S
C352 C353 1.347 . S
C353 H345 0.951 . S
C353 C348 1.429 . S
C353 C352 1.347 . S
H354 C355 0.951 . S
C355 H354 0.951 . S
C355 C361 1.265 . S
H356 C361 0.950 . S
H357 C365 0.949 . S
H358 C366 0.950 . S
H359 C367 0.951 . S
H360 C368 0.951 . S
C361 C355 1.265 . S
C361 H356 0.950 . S
C361 C362 1.478 . S
C362 C361 1.478 . S
C362 C363 1.397 . S
C362 C379 1.394 . S
C363 C362 1.397 . S
C363 C364 1.438 . S
C363 C368 1.429 . S
C364 C363 1.438 . S
C364 C365 1.428 . S
C364 C377 1.394 . S
C365 H357 0.949 . S
C365 C364 1.428 . S
C365 C366 1.345 . S
C366 H358 0.950 . S
C366 C365 1.345 . S
C366 C367 1.424 . S
C367 H359 0.951 . S
C367 C366 1.424 . S
C367 C368 1.347 . S
C368 H360 0.951 . S
C368 C363 1.429 . S
C368 C367 1.347 . S
H369 C370 0.951 . S
C370 H369 0.951 . S
C370 C376 1.265 . S
H371 C376 0.950 . S
H372 C380 0.949 . S
H373 C381 0.950 . S
H374 C382 0.951 . S
H375 C383 0.951 . S
C376 C370 1.265 . S
C376 H371 0.950 . S
C376 C377 1.478 . S
C377 C364 1.394 . S
C377 C376 1.478 . S
C377 C378 1.397 . S
C378 C377 1.397 . S
C378 C379 1.438 . S
C378 C383 1.429 . S
C379 C362 1.394 . S
C379 C378 1.438 . S
C379 C380 1.428 . S
C380 H372 0.949 . S
C380 C379 1.428 . S
C380 C381 1.345 . S
C381 H373 0.950 . S
C381 C380 1.345 . S
C381 C382 1.424 . S
C382 H374 0.951 . S
C382 C381 1.424 . S
C382 C383 1.347 . S
C383 H375 0.951 . S
C383 C378 1.429 . S
C383 C382 1.347 . S
H384 C385 0.951 . S
C385 H384 0.951 . S
C385 C391 1.265 . S
H386 C391 0.950 . S
H387 C395 0.949 . S
H388 C396 0.950 . S
H389 C397 0.951 . S
H390 C398 0.951 . S
C391 C385 1.265 . S
C391 H386 0.950 . S
C391 C392 1.478 . S
C392 C391 1.478 . S
C392 C393 1.397 . S
C392 C409 1.394 . S
C393 C392 1.397 . S
C393 C394 1.438 . S
C393 C398 1.429 . S
C394 C393 1.438 . S
C394 C395 1.428 . S
C394 C407 1.394 . S
C395 H387 0.949 . S
C395 C394 1.428 . S
C395 C396 1.345 . S
C396 H388 0.950 . S
C396 C395 1.345 . S
C396 C397 1.424 . S
C397 H389 0.951 . S
C397 C396 1.424 . S
C397 C398 1.347 . S
C398 H390 0.951 . S
C398 C393 1.429 . S
C398 C397 1.347 . S
H399 C400 0.951 . S
C400 H399 0.951 . S
C400 C406 1.265 . S
H401 C406 0.950 . S
H402 C410 0.949 . S
H403 C411 0.950 . S
H404 C412 0.951 . S
H405 C413 0.951 . S
C406 C400 1.265 . S
C406 H401 0.950 . S
C406 C407 1.478 . S
C407 C394 1.394 . S
C407 C406 1.478 . S
C407 C408 1.397 . S
C408 C407 1.397 . S
C408 C409 1.438 . S
C408 C413 1.429 . S
C409 C392 1.394 . S
C409 C408 1.438 . S
C409 C410 1.428 . S
C410 H402 0.949 . S
C410 C409 1.428 . S
C410 C411 1.345 . S
C411 H403 0.950 . S
C411 C410 1.345 . S
C411 C412 1.424 . S
C412 H404 0.951 . S
C412 C411 1.424 . S
C412 C413 1.347 . S
C413 H405 0.951 . S
C413 C408 1.429 . S
C413 C412 1.347 . S
H414 C415 0.951 . S
C415 H414 0.951 . S
C415 C421 1.265 . S
H416 C421 0.950 . S
H417 C425 0.949 . S
H418 C426 0.950 . S
H419 C427 0.951 . S
H420 C428 0.951 . S
C421 C415 1.265 . S
C421 H416 0.950 . S
C421 C422 1.478 . S
C422 C421 1.478 . S
C422 C423 1.397 . S
C422 C439 1.394 1_556 S
C423 C422 1.397 . S
C423 C424 1.438 . S
C423 C428 1.429 . S
C424 C423 1.438 . S
C424 C425 1.428 . S
C424 C437 1.394 . S
C425 H417 0.949 . S
C425 C424 1.428 . S
C425 C426 1.345 . S
C426 H418 0.950 . S
C426 C425 1.345 . S
C426 C427 1.424 . S
C427 H419 0.951 . S
C427 C426 1.424 . S
C427 C428 1.347 . S
C428 H420 0.951 . S
C428 C423 1.429 . S
C428 C427 1.347 . S
H429 C430 0.951 . S
C430 H429 0.951 . S
C430 C436 1.265 1_554 S
H431 C436 0.950 . S
H432 C440 0.949 . S
H433 C441 0.950 . S
H434 C442 0.951 . S
H435 C443 0.951 . S
C436 C430 1.265 1_556 S
C436 H431 0.950 . S
C436 C437 1.478 . S
C437 C424 1.394 . S
C437 C436 1.478 . S
C437 C438 1.397 1_556 S
C438 C437 1.397 1_554 S
C438 C439 1.438 . S
C438 C443 1.429 . S
C439 C422 1.394 1_554 S
C439 C438 1.438 . S
C439 C440 1.428 . S
C440 H432 0.949 . S
C440 C439 1.428 . S
C440 C441 1.345 . S
C441 H433 0.950 . S
C441 C440 1.345 . S
C441 C442 1.424 . S
C442 H434 0.951 . S
C442 C441 1.424 . S
C442 C443 1.347 . S
C443 H435 0.951 . S
C443 C438 1.429 . S
C443 C442 1.347 . S
C85 C9 1.811 . S
C100 C50 1.826 1_545 S
C115 C23 1.828 . S
C130 C64 1.808 . S
C145 C78 1.801 . S
C160 C37 1.827 . S
C175 C8 1.814 . S
C190 C51 1.813 . S
C205 C22 1.830 . S
C220 C65 1.800 . S
C235 C79 1.826 1_454 S
C250 C36 1.819 1_455 S
C265 C20 1.461 . S
C280 C7 1.382 . S
C295 C34 1.427 . S
C310 C21 1.470 . S
C325 C35 1.377 . S
C340 C48 1.456 . S
C355 C62 1.381 . S
C370 C49 1.460 . S
C385 C76 1.450 . S
C400 C63 1.458 . S
C415 C77 1.440 . S
C430 C6 1.370 . S
