# Generated by pormake.
# Topology uoj, (4)-cn, num edge types: 1
# Building blocks:
#     Node 0, Type 0, BuildingBlock: ESEHIV_clean_sbu_0, # of connection points: 4
#     Node 1, Type 0, BuildingBlock: ESEHIV_clean_sbu_0, # of connection points: 4
#     Node 2, Type 0, BuildingBlock: ESEHIV_clean_sbu_0, # of connection points: 4
#     Node 3, Type 0, BuildingBlock: ESEHIV_clean_sbu_0, # of connection points: 4
#     Node 4, Type 0, BuildingBlock: ESEHIV_clean_sbu_0, # of connection points: 4
#     Node 5, Type 0, BuildingBlock: ESEHIV_clean_sbu_0, # of connection points: 4
#     Node 6, Type 0, BuildingBlock: ESEHIV_clean_sbu_0, # of connection points: 4
#     Node 7, Type 0, BuildingBlock: ESEHIV_clean_sbu_0, # of connection points: 4
#     Edge 8, Type (0, 0), BuildingBlock: KIFKEQ_clean_linker_1, # of connection points: 2
#     Edge 9, Type (0, 0), BuildingBlock: KIFKEQ_clean_linker_1, # of connection points: 2
#     Edge 10, Type (0, 0), BuildingBlock: KIFKEQ_clean_linker_1, # of connection points: 2
#     Edge 11, Type (0, 0), BuildingBlock: KIFKEQ_clean_linker_1, # of connection points: 2
#     Edge 12, Type (0, 0), BuildingBlock: KIFKEQ_clean_linker_1, # of connection points: 2
#     Edge 13, Type (0, 0), BuildingBlock: KIFKEQ_clean_linker_1, # of connection points: 2
#     Edge 14, Type (0, 0), BuildingBlock: KIFKEQ_clean_linker_1, # of connection points: 2
#     Edge 15, Type (0, 0), BuildingBlock: KIFKEQ_clean_linker_1, # of connection points: 2
#     Edge 16, Type (0, 0), BuildingBlock: KIFKEQ_clean_linker_1, # of connection points: 2
#     Edge 17, Type (0, 0), BuildingBlock: KIFKEQ_clean_linker_1, # of connection points: 2
#     Edge 18, Type (0, 0), BuildingBlock: KIFKEQ_clean_linker_1, # of connection points: 2
#     Edge 19, Type (0, 0), BuildingBlock: KIFKEQ_clean_linker_1, # of connection points: 2
#     Edge 20, Type (0, 0), BuildingBlock: KIFKEQ_clean_linker_1, # of connection points: 2
#     Edge 21, Type (0, 0), BuildingBlock: KIFKEQ_clean_linker_1, # of connection points: 2
#     Edge 22, Type (0, 0), BuildingBlock: KIFKEQ_clean_linker_1, # of connection points: 2
#     Edge 23, Type (0, 0), BuildingBlock: KIFKEQ_clean_linker_1, # of connection points: 2
# Relax obj value: 0.035
# Max RMSD: 0.222
# Mean RMSD: 0.222
data_MOF--net-uoj--node1-ESEHIV_clean_sbu_0--edge1-KIFKEQ_clean_linker_1
_symmetry_space_group_name_H-M    P1
_symmetry_Int_Tables_number       1
_symmetry_cell_setting            triclinic
loop_
_symmetry_equiv_pos_as_xyz
'x, y, z'
_cell_length_a     35.308852
_cell_length_b     35.241189
_cell_length_c     45.292434
_cell_angle_alpha  90.129322
_cell_angle_beta   90.037414
_cell_angle_gamma 90.244893
loop_
_atom_site_label
_atom_site_type_symbol
_atom_site_fract_x
_atom_site_fract_y
_atom_site_fract_z
_atom_type_partial_charge
Cu0 Cu 0.03561 0.30592 0.43064 0.0
N1 N 0.9892 0.28047 0.43117 0.0
N2 N 0.93884 0.24809 0.44763 0.0
C3 C 0.97251 0.26415 0.4547 0.0
C4 C 0.93435 0.25467 0.41846 0.0
C5 C 0.96541 0.27467 0.40841 0.0
O6 O 0.06857 0.28103 0.45905 0.0
C7 C 0.05316 0.38299 0.44332 0.0
O8 O 0.08842 0.3723 0.43947 0.0
H9 H 0.98516 0.26374 0.47647 0.0
H10 H 0.97029 0.28444 0.3861 0.0
N11 N 0.05616 0.30338 0.39259 0.0
N12 N 0.08303 0.31996 0.3497 0.0
C13 C 0.0684 0.33229 0.37558 0.0
C14 C 0.06295 0.2717 0.37691 0.0
C15 C 0.07951 0.28178 0.35049 0.0
C16 C 0.10394 0.27611 0.45526 0.0
O17 O 0.12035 0.29008 0.43162 0.0
H18 H 0.06657 0.36176 0.38208 0.0
H19 H 0.05689 0.24322 0.38446 0.0
O20 O 0.02672 0.35851 0.44122 0.0
H21 H 0.91011 0.24621 0.40534 0.0
H22 H 0.08919 0.26234 0.33362 0.0
Cu23 Cu 0.30657 1.00792 0.6099 0.0
N24 N 0.28194 0.05464 0.60869 0.0
N25 N 0.24941 0.10454 0.59199 0.0
C26 C 0.26319 0.06971 0.58564 0.0
C27 C 0.26003 0.1115 0.62015 0.0
C28 C 0.28017 0.08076 0.63032 0.0
O29 O 0.28186 0.97454 0.58137 0.0
C30 C 0.38278 0.99134 0.59335 0.0
O31 O 0.37081 0.95616 0.59057 0.0
H32 H 0.25963 0.05525 0.56471 0.0
H33 H 0.29298 0.07777 0.65189 0.0
N34 N 0.30355 0.98839 0.64822 0.0
N35 N 0.31983 0.96143 0.691 0.0
C36 C 0.33015 0.96847 0.66281 0.0
C37 C 0.27543 0.9939 0.66778 0.0
C38 C 0.28545 0.97745 0.69423 0.0
C39 C 0.27542 0.9394 0.58561 0.0
O40 O 0.28771 0.92332 0.60991 0.0
H41 H 0.357 0.9603 0.65325 0.0
H42 H 0.24975 1.00948 0.66325 0.0
O43 O 0.35941 1.01709 0.60057 0.0
H44 H 0.25444 0.1373 0.63236 0.0
H45 H 0.26879 0.97728 0.71429 0.0
Cu46 Cu 1.00169 0.7391 0.43388 0.0
N47 N 0.04845 0.7639 0.43351 0.0
N48 N 0.09955 0.79593 0.44919 0.0
C49 C 0.06562 0.78079 0.45665 0.0
C50 C 0.10367 0.78817 0.42013 0.0
C51 C 0.07215 0.7684 0.41056 0.0
O52 O 0.97113 0.76315 0.46435 0.0
C53 C 0.98444 0.66071 0.4412 0.0
O54 O 0.94969 0.67086 0.43467 0.0
H55 H 0.05315 0.7822 0.47844 0.0
H56 H 0.06692 0.75783 0.38848 0.0
N57 N 0.97795 0.74467 0.39716 0.0
N58 N 0.94806 0.73178 0.35478 0.0
C59 C 0.97002 0.71792 0.37665 0.0
C60 C 0.96106 0.7765 0.38758 0.0
C61 C 0.94237 0.76858 0.36158 0.0
C62 C 0.9351 0.76434 0.46374 0.0
O63 O 0.91677 0.74661 0.44253 0.0
H64 H 0.97844 0.68852 0.37846 0.0
H65 H 0.96098 0.80318 0.39944 0.0
O66 O 1.01036 0.68585 0.44245 0.0
H67 H 0.12797 0.79562 0.40677 0.0
H68 H 0.92517 0.78809 0.34898 0.0
Cu69 Cu 0.73838 0.03975 0.61482 0.0
N70 N 0.76366 0.9934 0.61493 0.0
N71 N 0.79595 0.94264 0.59949 0.0
C72 C 0.77968 0.97581 0.59168 0.0
C73 C 0.7898 0.93938 0.62881 0.0
C74 C 0.76984 0.97068 0.63823 0.0
O75 O 0.76172 0.07138 0.58459 0.0
C76 C 0.66229 0.05403 0.59673 0.0
O77 O 0.67477 0.08811 0.59006 0.0
H78 H 0.7798 0.98746 0.56959 0.0
H79 H 0.76042 0.97649 0.6605 0.0
N80 N 0.74367 0.06229 0.65198 0.0
N81 N 0.73109 0.09213 0.69451 0.0
C82 C 0.71672 0.0784 0.66889 0.0
C83 C 0.77607 0.06578 0.66735 0.0
C84 C 0.76846 0.08413 0.69353 0.0
C85 C 0.76626 0.1071 0.58721 0.0
O86 O 0.75265 0.12448 0.61057 0.0
H87 H 0.68736 0.08053 0.66226 0.0
H88 H 0.80333 0.05559 0.65996 0.0
O89 O 0.68521 0.02972 0.60712 0.0
H90 H 0.79859 0.91583 0.64245 0.0
H91 H 0.78888 0.09063 0.71065 0.0
Cu92 Cu 0.51091 0.80752 0.92864 0.0
N93 N 0.55815 0.78393 0.93129 0.0
N94 N 0.60761 0.7507 0.94794 0.0
C95 C 0.57212 0.76303 0.95368 0.0
C96 C 0.6162 0.76456 0.92099 0.0
C97 C 0.58578 0.78512 0.91088 0.0
O98 O 0.47466 0.77931 0.95246 0.0
C99 C 0.49042 0.88297 0.94618 0.0
O100 O 0.45533 0.87045 0.9454 0.0
H101 H 0.55648 0.75685 0.97366 0.0
H102 H 0.584 0.8002 0.89016 0.0
N103 N 0.4949 0.80663 0.88923 0.0
N104 N 0.46868 0.8233 0.84625 0.0
C105 C 0.4727 0.83189 0.87518 0.0
C106 C 0.50487 0.78108 0.86855 0.0
C107 C 0.48893 0.7914 0.84199 0.0
C108 C 0.4707 0.7838 0.98016 0.0
O109 O 0.49091 0.80988 0.99379 0.0
H110 H 0.46052 0.85656 0.88572 0.0
H111 H 0.52284 0.75683 0.87246 0.0
O112 O 0.51738 0.86014 0.94077 0.0
H113 H 0.64291 0.76085 0.90965 0.0
H114 H 0.4918 0.77648 0.82119 0.0
Cu115 Cu 0.81278 0.53945 0.10885 0.0
N116 N 0.78858 0.49228 0.10972 0.0
N117 N 0.75552 0.441 0.09576 0.0
C118 C 0.766 0.47685 0.08885 0.0
C119 C 0.77208 0.43378 0.12202 0.0
C120 C 0.79238 0.46546 0.13057 0.0
O121 O 0.78842 0.57013 0.07848 0.0
C122 C 0.88956 0.55529 0.09193 0.0
O123 O 0.87745 0.58954 0.08569 0.0
H124 H 0.75849 0.49118 0.06857 0.0
H125 H 0.80932 0.46856 0.15035 0.0
N126 N 0.80726 0.5631 0.14558 0.0
N127 N 0.81998 0.59484 0.18718 0.0
C128 C 0.83458 0.5751 0.16429 0.0
C129 C 0.77443 0.57526 0.15724 0.0
C130 C 0.7822 0.59506 0.1828 0.0
C131 C 0.78467 0.60596 0.08077 0.0
O132 O 0.8005 0.62375 0.10314 0.0
H133 H 0.86456 0.57098 0.16052 0.0
H134 H 0.74691 0.57117 0.14719 0.0
O135 O 0.86621 0.53054 0.10136 0.0
H136 H 0.76979 0.40745 0.13416 0.0
H137 H 0.76177 0.60907 0.19686 0.0
Cu138 Cu 0.53828 0.24048 0.93427 0.0
N139 N 0.49282 0.26712 0.93149 0.0
N140 N 0.44323 0.30347 0.94314 0.0
C141 C 0.4741 0.28505 0.95334 0.0
C142 C 0.44257 0.29672 0.91379 0.0
C143 C 0.47311 0.27425 0.9067 0.0
O144 O 0.56843 0.26442 0.96528 0.0
C145 C 0.54936 0.16398 0.95373 0.0
O146 O 0.58246 0.17615 0.9631 0.0
H147 H 0.48356 0.28547 0.97607 0.0
H148 H 0.48079 0.26423 0.88493 0.0
N149 N 0.56372 0.24487 0.89828 0.0
N150 N 0.59537 0.23132 0.8568 0.0
C151 C 0.57861 0.21719 0.88133 0.0
C152 C 0.57115 0.27749 0.88406 0.0
C153 C 0.59061 0.26928 0.85853 0.0
C154 C 0.6045 0.265 0.96508 0.0
O155 O 0.62271 0.24635 0.94438 0.0
H156 H 0.57769 0.18744 0.88716 0.0
H157 H 0.56289 0.30531 0.8918 0.0
O158 O 0.52671 0.18724 0.94162 0.0
H159 H 0.42149 0.30721 0.89853 0.0
H160 H 0.60009 0.28975 0.84234 0.0
Cu161 Cu 0.24478 0.50999 0.11299 0.0
N162 N 0.27174 0.55574 0.11346 0.0
N163 N 0.30786 0.60492 0.09967 0.0
C164 C 0.28984 0.57287 0.09087 0.0
C165 C 0.30061 0.60801 0.12884 0.0
C166 C 0.2783 0.57775 0.13722 0.0
O167 O 0.27125 0.47448 0.08753 0.0
C168 C 0.16903 0.4938 0.09514 0.0
O169 O 0.18017 0.45827 0.09528 0.0
H170 H 0.29052 0.56158 0.06863 0.0
H171 H 0.26782 0.57197 0.1592 0.0
N172 N 0.24469 0.48965 0.15107 0.0
N173 N 0.22636 0.46229 0.19332 0.0
C174 C 0.21528 0.47567 0.16669 0.0
C175 C 0.27533 0.48491 0.16826 0.0
C176 C 0.26418 0.46814 0.19429 0.0
C177 C 0.26694 0.47144 0.05975 0.0
O178 O 0.24175 0.49264 0.04633 0.0
H179 H 0.1864 0.47544 0.15871 0.0
H180 H 0.3039 0.49274 0.16208 0.0
O181 O 0.19287 0.51989 0.10109 0.0
H182 H 0.31053 0.63067 0.14309 0.0
H183 H 0.28274 0.46005 0.2122 0.0
H184 H 0.24109 0.45805 0.25202 0.0
H185 H 0.15909 0.4255 0.18574 0.0
H186 H 0.20453 0.42473 0.28935 0.0
H187 H 0.12158 0.39336 0.22344 0.0
H188 H 0.09163 0.3011 0.29188 0.0
H189 H 0.12469 0.33717 0.25397 0.0
H190 H 0.14638 0.42687 0.31697 0.0
H191 H 0.11474 0.39013 0.35518 0.0
C192 C 0.21521 0.44389 0.24536 0.0
C193 C 0.2033 0.44431 0.21572 0.0
C194 C 0.19392 0.42514 0.26692 0.0
C195 C 0.16004 0.40629 0.25948 0.0
C196 C 0.14774 0.4072 0.22992 0.0
C197 C 0.16907 0.42603 0.20832 0.0
C198 C 0.10359 0.3284 0.29774 0.0
C199 C 0.10064 0.34245 0.32676 0.0
C200 C 0.12219 0.34935 0.27585 0.0
C201 C 0.13835 0.38494 0.28237 0.0
C202 C 0.13472 0.39936 0.31122 0.0
C203 C 0.11613 0.37841 0.33311 0.0
H204 H 0.32357 0.97847 0.74911 0.0
H205 H 0.36504 0.90058 0.68329 0.0
H206 H 0.36053 0.94626 0.78687 0.0
H207 H 0.40064 0.86682 0.72107 0.0
H208 H 0.48813 0.83391 0.78923 0.0
H209 H 0.45292 0.86848 0.75176 0.0
H210 H 0.36541 0.89255 0.81588 0.0
H211 H 0.40199 0.85953 0.85353 0.0
C212 C 0.34029 0.95407 0.74285 0.0
C213 C 0.34147 0.94202 0.71329 0.0
C214 C 0.3614 0.93539 0.76451 0.0
C215 C 0.38374 0.90366 0.75728 0.0
C216 C 0.38457 0.89154 0.72759 0.0
C217 C 0.364 0.91072 0.70586 0.0
C218 C 0.46134 0.84664 0.7952 0.0
C219 C 0.44777 0.84403 0.82426 0.0
C220 C 0.44094 0.86632 0.77368 0.0
C221 C 0.40597 0.88334 0.78051 0.0
C222 C 0.39246 0.88058 0.80972 0.0
C223 C 0.41329 0.86148 0.83137 0.0
H224 H 0.87574 0.73693 0.33676 0.0
H225 H 0.98076 0.6794 0.31941 0.0
H226 H 0.84547 0.70254 0.29657 0.0
H227 H 0.95154 0.64637 0.27755 0.0
H228 H 0.87877 0.56832 0.21922 0.0
H229 H 0.91037 0.60018 0.26055 0.0
H230 H 0.83979 0.69871 0.24667 0.0
H231 H 0.80702 0.66551 0.20702 0.0
C232 C 0.89245 0.7172 0.3239 0.0
C233 C 0.93057 0.71096 0.33098 0.0
C234 C 0.87525 0.69759 0.30062 0.0
C235 C 0.89599 0.67184 0.28317 0.0
C236 C 0.93429 0.66548 0.29052 0.0
C237 C 0.95123 0.68452 0.31438 0.0
C238 C 0.87025 0.5968 0.22521 0.0
C239 C 0.84027 0.61437 0.21027 0.0
C240 C 0.88844 0.61527 0.24879 0.0
C241 C 0.87758 0.65213 0.25748 0.0
C242 C 0.84834 0.66998 0.24156 0.0
C243 C 0.82964 0.65115 0.21859 0.0
H244 H 0.58448 0.1577 0.84049 0.0
H245 H 0.65036 0.25792 0.82044 0.0
H246 H 0.6173 0.1232 0.80136 0.0
H247 H 0.68201 0.22401 0.78083 0.0
H248 H 0.76062 0.1418 0.73426 0.0
H249 H 0.72767 0.17402 0.77408 0.0
H250 H 0.62278 0.12053 0.74743 0.0
H251 H 0.65616 0.08704 0.70808 0.0
C252 C 0.60595 0.17239 0.82783 0.0
C253 C 0.61469 0.21067 0.8337 0.0
C254 C 0.62448 0.15272 0.80515 0.0
C255 C 0.65233 0.1708 0.78791 0.0
C256 C 0.66104 0.20903 0.79385 0.0
C257 C 0.64251 0.22866 0.81641 0.0
C258 C 0.73064 0.1365 0.73699 0.0
C259 C 0.71116 0.11166 0.71788 0.0
C260 C 0.7116 0.15538 0.75969 0.0
C261 C 0.67251 0.15001 0.76395 0.0
C262 C 0.65296 0.12508 0.74495 0.0
C263 C 0.67203 0.1062 0.72215 0.0
H264 H 0.25151 0.10644 0.53207 0.0
H265 H 0.1998 0.15948 0.60797 0.0
H266 H 0.21632 0.14859 0.49958 0.0
H267 H 0.16553 0.20244 0.57551 0.0
H268 H 0.07887 0.24259 0.5062 0.0
H269 H 0.11413 0.20133 0.53938 0.0
H270 H 0.21403 0.21546 0.48547 0.0
H271 H 0.17868 0.25629 0.45202 0.0
C272 C 0.23258 0.12698 0.54186 0.0
C273 C 0.22852 0.12947 0.57269 0.0
C274 C 0.21272 0.15149 0.52322 0.0
C275 C 0.18817 0.17901 0.53492 0.0
C276 C 0.18396 0.18138 0.56574 0.0
C277 C 0.20393 0.15698 0.58438 0.0
C278 C 0.10841 0.23707 0.50148 0.0
C279 C 0.1259 0.25273 0.47638 0.0
C280 C 0.12868 0.21352 0.52059 0.0
C281 C 0.16689 0.20495 0.51504 0.0
C282 C 0.1845 0.22102 0.49016 0.0
C283 C 0.16427 0.24467 0.47109 0.0
H284 H 0.24167 0.96485 0.53492 0.0
H285 H 0.25583 0.86423 0.58807 0.0
H286 H 0.19996 0.92975 0.50166 0.0
H287 H 0.21476 0.82894 0.55446 0.0
H288 H 0.10524 0.79091 0.50893 0.0
H289 H 0.14868 0.82537 0.54102 0.0
H290 H 0.19851 0.87986 0.46498 0.0
H291 H 0.15397 0.84656 0.43293 0.0
C292 C 0.23622 0.93513 0.53936 0.0
C293 C 0.25204 0.91743 0.56426 0.0
C294 C 0.2124 0.91493 0.52018 0.0
C295 C 0.20381 0.8765 0.5254 0.0
C296 C 0.22023 0.85864 0.55001 0.0
C297 C 0.24403 0.87884 0.56919 0.0
C298 C 0.12515 0.81048 0.49899 0.0
C299 C 0.12586 0.81593 0.46823 0.0
C300 C 0.15047 0.82992 0.51743 0.0
C301 C 0.17724 0.85537 0.50563 0.0
C302 C 0.17806 0.86077 0.47488 0.0
C303 C 0.15273 0.84131 0.45643 0.0
H304 H 0.78587 0.93208 0.54062 0.0
H305 H 0.8509 0.89304 0.61532 0.0
H306 H 0.81951 0.88789 0.50866 0.0
H307 H 0.88373 0.848 0.58353 0.0
H308 H 0.964 0.8054 0.51007 0.0
H309 H 0.93005 0.84788 0.54329 0.0
H310 H 0.82493 0.81965 0.49948 0.0
H311 H 0.85887 0.77757 0.466 0.0
C312 C 0.80737 0.91415 0.55025 0.0
C313 C 0.81566 0.91622 0.58058 0.0
C314 C 0.82636 0.88846 0.53197 0.0
C315 C 0.85426 0.8643 0.54354 0.0
C316 C 0.86262 0.8664 0.57385 0.0
C317 C 0.8435 0.89198 0.59215 0.0
C318 C 0.93361 0.80805 0.50763 0.0
C319 C 0.9142 0.78812 0.48529 0.0
C320 C 0.91412 0.8323 0.52677 0.0
C321 C 0.87478 0.83732 0.52397 0.0
C322 C 0.8553 0.81687 0.50196 0.0
C323 C 0.87475 0.79252 0.48289 0.0
H324 H 0.8017 0.07956 0.53783 0.0
H325 H 0.78284 0.18301 0.58697 0.0
H326 H 0.84266 0.11399 0.50372 0.0
H327 H 0.82322 0.21752 0.55255 0.0
H328 H 0.93255 0.25611 0.5071 0.0
H329 H 0.88979 0.2221 0.53993 0.0
H330 H 0.84253 0.16189 0.46526 0.0
H331 H 0.88632 0.19488 0.43252 0.0
C332 C 0.80595 0.10972 0.5412 0.0
C333 C 0.78905 0.12846 0.56523 0.0
C334 C 0.82934 0.12951 0.52155 0.0
C335 C 0.83643 0.16852 0.52545 0.0
C336 C 0.8189 0.18738 0.54916 0.0
C337 C 0.7955 0.16761 0.56879 0.0
C338 C 0.91334 0.23539 0.49765 0.0
C339 C 0.91307 0.22826 0.46708 0.0
C340 C 0.88843 0.21619 0.51648 0.0
C341 C 0.86259 0.1893 0.50527 0.0
C342 C 0.86227 0.18216 0.4747 0.0
C343 C 0.88714 0.20142 0.45586 0.0
H344 H 0.29927 0.62129 0.04157 0.0
H345 H 0.36847 0.64598 0.1178 0.0
H346 H 0.33697 0.66557 1.01226 0.0
H347 H 0.40686 0.6893 0.08857 0.0
H348 H 0.44736 0.79161 0.03744 0.0
H349 H 0.40675 0.74911 0.06569 0.0
H350 H 0.39658 0.67515 0.98979 0.0
H351 H 0.43595 0.71851 0.96127 0.0
C352 C 0.3228 0.63589 0.05197 0.0
C353 C 0.33073 0.63026 0.08205 0.0
C354 C 0.34453 0.66126 0.03518 0.0
C355 C 0.37502 0.68134 0.04798 0.0
C356 C 0.38314 0.67519 0.07802 0.0
C357 C 0.36119 0.65017 0.09483 0.0
C358 C 0.43629 0.76637 0.02674 0.0
C359 C 0.44498 0.75849 0.99709 0.0
C360 C 0.41317 0.74177 0.04302 0.0
C361 C 0.39844 0.70836 0.03019 0.0
C362 C 0.40687 0.70076 1.00039 0.0
C363 C 0.42968 0.72558 0.98403 0.0
H364 H 0.7632 0.68024 0.08414 0.0
H365 H 0.74953 0.57937 0.03069 0.0
H366 H 0.71976 0.71419 0.05189 0.0
H367 H 0.70585 0.61349 0.99844 0.0
H368 H 0.6624 0.70183 0.93073 0.0
H369 H 0.70575 0.66657 0.96234 0.0
H370 H 0.65122 0.7133 0.0395 0.0
H371 H 0.60828 0.74912 1.00783 0.0
C372 C 0.75109 0.66531 0.06543 0.0
C373 C 0.75992 0.62703 0.06002 0.0
C374 C 0.72592 0.68473 0.04708 0.0
C375 C 0.70914 0.66649 0.02271 0.0
C376 C 0.71848 0.62842 1.01694 0.0
C377 C 0.74345 0.60885 0.03546 0.0
C378 C 0.65974 0.70469 0.95443 0.0
C379 C 0.63197 0.72847 0.96674 0.0
C380 C 0.68437 0.6842 0.97255 0.0
C381 C 0.68206 0.68723 1.00344 0.0
C382 C 0.65401 0.71067 1.01577 0.0
C383 C 0.62914 0.7309 0.99764 0.0
H384 H 0.69837 0.45889 0.05839 0.0
H385 H 0.76161 0.36447 0.0932 0.0
H386 H 0.66088 0.4151 0.02807 0.0
H387 H 0.724 0.32072 0.06314 0.0
H388 H 0.68055 0.26444 0.97634 0.0
H389 H 0.71631 0.30657 1.009 0.0
H390 H 0.61271 0.36233 0.03452 0.0
H391 H 0.57678 0.32009 1.0019 0.0
C392 C 0.70427 0.42882 0.05954 0.0
C393 C 0.73297 0.41518 0.0782 0.0
C394 C 0.68259 0.40371 0.0424 0.0
C395 C 0.68947 0.36445 0.04324 0.0
C396 C 0.71817 0.35082 0.06188 0.0
C397 C 0.7395 0.37586 0.07928 0.0
C398 C 0.66532 0.28548 0.98907 0.0
C399 C 0.62579 0.28888 0.98648 0.0
C400 C 0.68582 0.30953 1.00787 0.0
C401 C 0.66735 0.33787 0.02426 0.0
C402 C 0.62777 0.34101 0.02195 0.0
C403 C 0.60718 0.31662 1.00343 0.0
H404 H 0.42235 0.29437 1.00023 0.0
H405 H 0.40501 0.36507 0.92382 0.0
H406 H 0.37817 0.3333 0.02833 0.0
H407 H 0.36172 0.40473 0.95194 0.0
H408 H 0.25988 0.44983 1.0018 0.0
H409 H 0.30111 0.40773 0.97374 0.0
H410 H 0.37182 0.39321 0.05082 0.0
H411 H 0.32983 0.43396 0.07902 0.0
C412 C 0.40935 0.31847 0.98953 0.0
C413 C 0.41717 0.32658 0.9598 0.0
C414 C 0.38404 0.34091 1.00564 0.0
C415 C 0.36623 0.37235 0.99251 0.0
C416 C 0.37419 0.38041 0.96272 0.0
C417 C 0.39917 0.35771 0.94656 0.0
C418 C 0.28414 0.43748 1.01276 0.0
C419 C 0.29148 0.44527 0.04267 0.0
C420 C 0.30799 0.4135 0.99662 0.0
C421 C 0.34002 0.39699 1.00989 0.0
C422 C 0.34717 0.40475 0.03988 0.0
C423 C 0.32314 0.4284 0.05607 0.0
H424 H 0.94014 0.59908 0.42847 0.0
H425 H 0.05033 0.6304 0.46233 0.0
H426 H 0.95711 0.5324 0.43144 0.0
H427 H 0.06689 0.56355 0.46646 0.0
H428 H 0.98557 0.41379 0.46014 0.0
H429 H 0.96901 0.48072 0.46308 0.0
H430 H 0.0827 0.51109 0.43642 0.0
H431 H 0.09955 0.44424 0.43467 0.0
C432 C 0.96782 0.5917 0.43697 0.0
C433 C 0.99393 0.62008 0.44503 0.0
C434 C 0.97752 0.55336 0.43887 0.0
C435 C 1.01346 0.54238 0.44917 0.0
C436 C 0.03922 0.57085 0.45792 0.0
C437 C 0.02964 0.60923 0.45574 0.0
C438 C 1.00711 0.4348 0.45518 0.0
C439 C 0.04385 0.42367 0.4471 0.0
C440 C 0.99755 0.47323 0.45666 0.0
C441 C 0.02437 0.50151 0.44975 0.0
C442 C 0.06138 0.49028 0.4423 0.0
C443 C 0.07104 0.45185 0.44114 0.0
H444 H 0.62651 0.98821 0.61267 0.0
H445 H 0.60582 0.09775 0.57328 0.0
H446 H 0.55931 0.97322 0.60944 0.0
H447 H 0.5386 0.08232 0.56931 0.0
H448 H 0.41723 0.06007 0.60216 0.0
H449 H 0.48458 0.07467 0.60086 0.0
H450 H 0.50839 0.95875 0.57601 0.0
H451 H 0.4409 0.94385 0.57809 0.0
C452 C 0.60769 1.00898 0.60303 0.0
C453 C 0.62159 0.04428 0.59336 0.0
C454 C 0.56911 1.00025 0.60099 0.0
C455 C 0.54341 0.02654 0.58913 0.0
C456 C 0.55745 0.0616 0.57896 0.0
C457 C 0.59606 0.07038 0.5811 0.0
C458 C 0.43676 0.0377 0.59622 0.0
C459 C 0.42361 1.00071 0.59037 0.0
C460 C 0.47546 0.04616 0.5953 0.0
C461 C 0.50204 1.0179 0.5884 0.0
C462 C 0.4888 0.98109 0.58186 0.0
C463 C 0.45005 0.97259 0.58286 0.0
H464 H 0.58961 0.1071 0.98015 0.0
H465 H 0.48641 0.12809 0.93169 0.0
H466 H 0.57453 0.03957 0.98147 0.0
H467 H 0.47183 0.06049 0.9323 0.0
H468 H 0.44011 0.94012 0.95803 0.0
H469 H 0.45341 1.00787 0.96275 0.0
H470 H 0.57242 0.98639 0.94859 0.0
H471 H 0.55929 0.91877 0.94468 0.0
C472 C 0.56368 0.09735 0.96979 0.0
C473 C 0.5393 0.12308 0.95574 0.0
C474 C 0.55512 0.05853 0.9704 0.0
C475 C 0.52202 0.0444 0.95687 0.0
C476 C 0.4973 0.0703 0.9433 0.0
C477 C 0.5058 0.10912 0.94279 0.0
C478 C 0.46916 0.94982 0.95619 0.0
C479 C 0.49859 0.92393 0.95092 0.0
C480 C 0.47677 0.98875 0.9587 0.0
C481 C 0.51399 1.00277 0.95593 0.0
C482 C 0.54348 0.9767 0.95126 0.0
C483 C 0.53589 0.93783 0.94884 0.0
H484 H 0.11106 0.44592 0.07948 0.0
H485 H 0.13497 0.56298 0.10134 0.0
H486 H 0.04384 0.46063 0.07564 0.0
H487 H 0.06775 0.57745 0.09845 0.0
H488 H 0.94687 0.59927 0.06939 0.0
H489 H 1.01419 0.58432 0.06684 0.0
H490 H 0.99205 0.47546 0.10719 0.0
H491 H 0.92482 0.48993 0.10889 0.0
C492 C 0.10201 0.47482 0.0834 0.0
C493 C 0.12845 0.50321 0.09081 0.0
C494 C 0.06338 0.48323 0.08141 0.0
C495 C 0.05016 0.52021 0.08694 0.0
C496 C 0.0768 0.54877 0.09366 0.0
C497 C 0.11543 0.5404 0.09549 0.0
C498 C 0.95635 0.57205 0.07755 0.0
C499 C 0.93039 0.54585 0.08938 0.0
C500 C 0.99504 0.56354 0.07624 0.0
C501 C 1.00874 0.52867 0.08686 0.0
C502 C 0.9826 0.50233 0.09835 0.0
C503 C 0.94396 0.51075 0.09952 0.0
loop_
_geom_bond_atom_site_label_1
_geom_bond_atom_site_label_2
_geom_bond_distance
_geom_bond_site_symmetry_2
_ccdc_geom_bond_type
Cu0 N1 1.999 . S
Cu0 O6 1.974 . S
Cu0 N11 1.985 . S
Cu0 O20 1.959 . S
N1 Cu0 1.999 . S
N1 C3 1.263 . S
N1 C5 1.389 1_455 S
N2 C3 1.358 1_655 S
N2 C4 1.400 . S
C3 N1 1.263 . S
C3 N2 1.358 1_455 S
C3 H9 0.930 . S
C4 N2 1.400 . S
C4 C5 1.351 . S
C4 H21 0.930 . S
C5 N1 1.389 1_655 S
C5 C4 1.351 . S
C5 H10 0.930 . S
O6 Cu0 1.974 . S
O6 C16 1.282 . S
C7 O8 1.261 . S
C7 O20 1.251 . S
O8 C7 1.261 . S
H9 C3 0.930 . S
H10 C5 0.930 . S
N11 Cu0 1.985 . S
N11 C13 1.335 . S
N11 C14 1.390 . S
N12 C13 1.345 . S
N12 C15 1.336 . S
C13 N11 1.335 . S
C13 N12 1.345 . S
C13 H18 0.930 . S
C14 N11 1.390 . S
C14 C15 1.346 . S
C14 H19 0.930 . S
C15 N12 1.336 . S
C15 C14 1.346 . S
C15 H22 0.929 . S
C16 O6 1.282 . S
C16 O17 1.216 . S
O17 C16 1.216 . S
H18 C13 0.930 . S
H19 C14 0.930 . S
O20 Cu0 1.959 . S
O20 C7 1.251 . S
H21 C4 0.930 . S
H22 C15 0.929 . S
Cu23 N24 1.999 . S
Cu23 O29 1.974 . S
Cu23 N34 1.985 . S
Cu23 O43 1.959 . S
N24 Cu23 1.999 . S
N24 C26 1.263 . S
N24 C28 1.389 1_565 S
N25 C26 1.358 1_545 S
N25 C27 1.400 . S
C26 N24 1.263 . S
C26 N25 1.358 1_565 S
C26 H32 0.930 . S
C27 N25 1.400 . S
C27 C28 1.351 . S
C27 H44 0.930 . S
C28 N24 1.389 1_545 S
C28 C27 1.351 . S
C28 H33 0.930 . S
O29 Cu23 1.974 . S
O29 C39 1.282 . S
C30 O31 1.261 . S
C30 O43 1.251 . S
O31 C30 1.261 . S
H32 C26 0.930 . S
H33 C28 0.930 . S
N34 Cu23 1.985 . S
N34 C36 1.335 . S
N34 C37 1.390 . S
N35 C36 1.345 . S
N35 C38 1.336 . S
C36 N34 1.335 . S
C36 N35 1.345 . S
C36 H41 0.930 . S
C37 N34 1.390 . S
C37 C38 1.346 . S
C37 H42 0.930 . S
C38 N35 1.336 . S
C38 C37 1.346 . S
C38 H45 0.929 . S
C39 O29 1.282 . S
C39 O40 1.216 . S
O40 C39 1.216 . S
H41 C36 0.930 . S
H42 C37 0.930 . S
O43 Cu23 1.959 . S
O43 C30 1.251 . S
H44 C27 0.930 . S
H45 C38 0.929 . S
Cu46 N47 1.999 . S
Cu46 O52 1.974 . S
Cu46 N57 1.985 . S
Cu46 O66 1.959 . S
N47 Cu46 1.999 . S
N47 C49 1.263 . S
N47 C51 1.389 1_655 S
N48 C49 1.358 1_455 S
N48 C50 1.400 . S
C49 N47 1.263 . S
C49 N48 1.358 1_655 S
C49 H55 0.930 . S
C50 N48 1.400 . S
C50 C51 1.351 . S
C50 H67 0.930 . S
C51 N47 1.389 1_455 S
C51 C50 1.351 . S
C51 H56 0.930 . S
O52 Cu46 1.974 . S
O52 C62 1.282 . S
C53 O54 1.261 . S
C53 O66 1.251 . S
O54 C53 1.261 . S
H55 C49 0.930 . S
H56 C51 0.930 . S
N57 Cu46 1.985 . S
N57 C59 1.335 . S
N57 C60 1.390 . S
N58 C59 1.345 . S
N58 C61 1.336 . S
C59 N57 1.335 . S
C59 N58 1.345 . S
C59 H64 0.930 . S
C60 N57 1.390 . S
C60 C61 1.346 . S
C60 H65 0.930 . S
C61 N58 1.336 . S
C61 C60 1.346 . S
C61 H68 0.929 . S
C62 O52 1.282 . S
C62 O63 1.216 . S
O63 C62 1.216 . S
H64 C59 0.930 . S
H65 C60 0.930 . S
O66 Cu46 1.959 . S
O66 C53 1.251 . S
H67 C50 0.930 . S
H68 C61 0.929 . S
Cu69 N70 1.999 . S
Cu69 O75 1.974 . S
Cu69 N80 1.985 . S
Cu69 O89 1.959 . S
N70 Cu69 1.999 . S
N70 C72 1.263 . S
N70 C74 1.389 1_545 S
N71 C72 1.358 1_565 S
N71 C73 1.400 . S
C72 N70 1.263 . S
C72 N71 1.358 1_545 S
C72 H78 0.930 . S
C73 N71 1.400 . S
C73 C74 1.351 . S
C73 H90 0.930 . S
C74 N70 1.389 1_565 S
C74 C73 1.351 . S
C74 H79 0.930 . S
O75 Cu69 1.974 . S
O75 C85 1.282 . S
C76 O77 1.261 . S
C76 O89 1.251 . S
O77 C76 1.261 . S
H78 C72 0.930 . S
H79 C74 0.930 . S
N80 Cu69 1.985 . S
N80 C82 1.335 . S
N80 C83 1.390 . S
N81 C82 1.345 . S
N81 C84 1.336 . S
C82 N80 1.335 . S
C82 N81 1.345 . S
C82 H87 0.930 . S
C83 N80 1.390 . S
C83 C84 1.346 . S
C83 H88 0.930 . S
C84 N81 1.336 . S
C84 C83 1.346 . S
C84 H91 0.929 . S
C85 O75 1.282 . S
C85 O86 1.216 . S
O86 C85 1.216 . S
H87 C82 0.930 . S
H88 C83 0.930 . S
O89 Cu69 1.959 . S
O89 C76 1.251 . S
H90 C73 0.930 . S
H91 C84 0.929 . S
Cu92 N93 1.999 . S
Cu92 O98 1.974 . S
Cu92 N103 1.985 . S
Cu92 O112 1.959 . S
N93 Cu92 1.999 . S
N93 C95 1.263 . S
N93 C97 1.389 . S
N94 C95 1.358 . S
N94 C96 1.400 . S
C95 N93 1.263 . S
C95 N94 1.358 . S
C95 H101 0.930 . S
C96 N94 1.400 . S
C96 C97 1.351 . S
C96 H113 0.930 . S
C97 N93 1.389 . S
C97 C96 1.351 . S
C97 H102 0.930 . S
O98 Cu92 1.974 . S
O98 C108 1.282 . S
C99 O100 1.261 . S
C99 O112 1.251 . S
O100 C99 1.261 . S
H101 C95 0.930 . S
H102 C97 0.930 . S
N103 Cu92 1.985 . S
N103 C105 1.335 . S
N103 C106 1.390 . S
N104 C105 1.345 . S
N104 C107 1.336 . S
C105 N103 1.335 . S
C105 N104 1.345 . S
C105 H110 0.930 . S
C106 N103 1.390 . S
C106 C107 1.346 . S
C106 H111 0.930 . S
C107 N104 1.336 . S
C107 C106 1.346 . S
C107 H114 0.929 . S
C108 O98 1.282 . S
C108 O109 1.216 . S
O109 C108 1.216 . S
H110 C105 0.930 . S
H111 C106 0.930 . S
O112 Cu92 1.959 . S
O112 C99 1.251 . S
H113 C96 0.930 . S
H114 C107 0.929 . S
Cu115 N116 1.999 . S
Cu115 O121 1.974 . S
Cu115 N126 1.985 . S
Cu115 O135 1.959 . S
N116 Cu115 1.999 . S
N116 C118 1.263 . S
N116 C120 1.389 . S
N117 C118 1.358 . S
N117 C119 1.400 . S
C118 N116 1.263 . S
C118 N117 1.358 . S
C118 H124 0.930 . S
C119 N117 1.400 . S
C119 C120 1.351 . S
C119 H136 0.930 . S
C120 N116 1.389 . S
C120 C119 1.351 . S
C120 H125 0.930 . S
O121 Cu115 1.974 . S
O121 C131 1.282 . S
C122 O123 1.261 . S
C122 O135 1.251 . S
O123 C122 1.261 . S
H124 C118 0.930 . S
H125 C120 0.930 . S
N126 Cu115 1.985 . S
N126 C128 1.335 . S
N126 C129 1.390 . S
N127 C128 1.345 . S
N127 C130 1.336 . S
C128 N126 1.335 . S
C128 N127 1.345 . S
C128 H133 0.930 . S
C129 N126 1.390 . S
C129 C130 1.346 . S
C129 H134 0.930 . S
C130 N127 1.336 . S
C130 C129 1.346 . S
C130 H137 0.929 . S
C131 O121 1.282 . S
C131 O132 1.216 . S
O132 C131 1.216 . S
H133 C128 0.930 . S
H134 C129 0.930 . S
O135 Cu115 1.959 . S
O135 C122 1.251 . S
H136 C119 0.930 . S
H137 C130 0.929 . S
Cu138 N139 1.999 . S
Cu138 O144 1.974 . S
Cu138 N149 1.985 . S
Cu138 O158 1.959 . S
N139 Cu138 1.999 . S
N139 C141 1.263 . S
N139 C143 1.389 . S
N140 C141 1.358 . S
N140 C142 1.400 . S
C141 N139 1.263 . S
C141 N140 1.358 . S
C141 H147 0.930 . S
C142 N140 1.400 . S
C142 C143 1.351 . S
C142 H159 0.930 . S
C143 N139 1.389 . S
C143 C142 1.351 . S
C143 H148 0.930 . S
O144 Cu138 1.974 . S
O144 C154 1.282 . S
C145 O146 1.261 . S
C145 O158 1.251 . S
O146 C145 1.261 . S
H147 C141 0.930 . S
H148 C143 0.930 . S
N149 Cu138 1.985 . S
N149 C151 1.335 . S
N149 C152 1.390 . S
N150 C151 1.345 . S
N150 C153 1.336 . S
C151 N149 1.335 . S
C151 N150 1.345 . S
C151 H156 0.930 . S
C152 N149 1.390 . S
C152 C153 1.346 . S
C152 H157 0.930 . S
C153 N150 1.336 . S
C153 C152 1.346 . S
C153 H160 0.929 . S
C154 O144 1.282 . S
C154 O155 1.216 . S
O155 C154 1.216 . S
H156 C151 0.930 . S
H157 C152 0.930 . S
O158 Cu138 1.959 . S
O158 C145 1.251 . S
H159 C142 0.930 . S
H160 C153 0.929 . S
Cu161 N162 1.999 . S
Cu161 O167 1.974 . S
Cu161 N172 1.985 . S
Cu161 O181 1.959 . S
N162 Cu161 1.999 . S
N162 C164 1.263 . S
N162 C166 1.389 . S
N163 C164 1.358 . S
N163 C165 1.400 . S
C164 N162 1.263 . S
C164 N163 1.358 . S
C164 H170 0.930 . S
C165 N163 1.400 . S
C165 C166 1.351 . S
C165 H182 0.930 . S
C166 N162 1.389 . S
C166 C165 1.351 . S
C166 H171 0.930 . S
O167 Cu161 1.974 . S
O167 C177 1.282 . S
C168 O169 1.261 . S
C168 O181 1.251 . S
O169 C168 1.261 . S
H170 C164 0.930 . S
H171 C166 0.930 . S
N172 Cu161 1.985 . S
N172 C174 1.335 . S
N172 C175 1.390 . S
N173 C174 1.345 . S
N173 C176 1.336 . S
C174 N172 1.335 . S
C174 N173 1.345 . S
C174 H179 0.930 . S
C175 N172 1.390 . S
C175 C176 1.346 . S
C175 H180 0.930 . S
C176 N173 1.336 . S
C176 C175 1.346 . S
C176 H183 0.929 . S
C177 O167 1.282 . S
C177 O178 1.216 . S
O178 C177 1.216 . S
H179 C174 0.930 . S
H180 C175 0.930 . S
O181 Cu161 1.959 . S
O181 C168 1.251 . S
H182 C165 0.930 . S
H183 C176 0.929 . S
H184 C192 0.950 . S
H185 C197 0.950 . S
H186 C194 0.950 . S
H187 C196 0.950 . S
H188 C198 0.950 . S
H189 C200 0.950 . S
H190 C202 0.950 . S
H191 C203 0.950 . S
C192 H184 0.950 . S
C192 C193 1.386 . S
C192 C194 1.391 . S
C193 C192 1.386 . S
C193 C197 1.393 . S
C194 H186 0.950 . S
C194 C192 1.391 . S
C194 C195 1.400 . S
C195 C194 1.400 . S
C195 C196 1.398 . S
C195 C201 1.491 . S
C196 H187 0.950 . S
C196 C195 1.398 . S
C196 C197 1.391 . S
C197 H185 0.950 . S
C197 C193 1.393 . S
C197 C196 1.391 . S
C198 H188 0.950 . S
C198 C199 1.386 . S
C198 C200 1.391 . S
C199 C198 1.386 . S
C199 C203 1.393 . S
C200 H189 0.950 . S
C200 C198 1.391 . S
C200 C201 1.400 . S
C201 C195 1.491 . S
C201 C200 1.400 . S
C201 C202 1.398 . S
C202 H190 0.950 . S
C202 C201 1.398 . S
C202 C203 1.391 . S
C203 H191 0.950 . S
C203 C199 1.393 . S
C203 C202 1.391 . S
H204 C212 0.950 . S
H205 C217 0.950 . S
H206 C214 0.950 . S
H207 C216 0.950 . S
H208 C218 0.950 . S
H209 C220 0.950 . S
H210 C222 0.950 . S
H211 C223 0.950 . S
C212 H204 0.950 . S
C212 C213 1.386 . S
C212 C214 1.391 . S
C213 C212 1.386 . S
C213 C217 1.393 . S
C214 H206 0.950 . S
C214 C212 1.391 . S
C214 C215 1.400 . S
C215 C214 1.400 . S
C215 C216 1.398 . S
C215 C221 1.491 . S
C216 H207 0.950 . S
C216 C215 1.398 . S
C216 C217 1.391 . S
C217 H205 0.950 . S
C217 C213 1.393 . S
C217 C216 1.391 . S
C218 H208 0.950 . S
C218 C219 1.386 . S
C218 C220 1.391 . S
C219 C218 1.386 . S
C219 C223 1.393 . S
C220 H209 0.950 . S
C220 C218 1.391 . S
C220 C221 1.400 . S
C221 C215 1.491 . S
C221 C220 1.400 . S
C221 C222 1.398 . S
C222 H210 0.950 . S
C222 C221 1.398 . S
C222 C223 1.391 . S
C223 H211 0.950 . S
C223 C219 1.393 . S
C223 C222 1.391 . S
H224 C232 0.950 . S
H225 C237 0.950 . S
H226 C234 0.950 . S
H227 C236 0.950 . S
H228 C238 0.950 . S
H229 C240 0.950 . S
H230 C242 0.950 . S
H231 C243 0.950 . S
C232 H224 0.950 . S
C232 C233 1.386 . S
C232 C234 1.391 . S
C233 C232 1.386 . S
C233 C237 1.393 . S
C234 H226 0.950 . S
C234 C232 1.391 . S
C234 C235 1.400 . S
C235 C234 1.400 . S
C235 C236 1.398 . S
C235 C241 1.491 . S
C236 H227 0.950 . S
C236 C235 1.398 . S
C236 C237 1.391 . S
C237 H225 0.950 . S
C237 C233 1.393 . S
C237 C236 1.391 . S
C238 H228 0.950 . S
C238 C239 1.386 . S
C238 C240 1.391 . S
C239 C238 1.386 . S
C239 C243 1.393 . S
C240 H229 0.950 . S
C240 C238 1.391 . S
C240 C241 1.400 . S
C241 C235 1.491 . S
C241 C240 1.400 . S
C241 C242 1.398 . S
C242 H230 0.950 . S
C242 C241 1.398 . S
C242 C243 1.391 . S
C243 H231 0.950 . S
C243 C239 1.393 . S
C243 C242 1.391 . S
H244 C252 0.950 . S
H245 C257 0.950 . S
H246 C254 0.950 . S
H247 C256 0.950 . S
H248 C258 0.950 . S
H249 C260 0.950 . S
H250 C262 0.950 . S
H251 C263 0.950 . S
C252 H244 0.950 . S
C252 C253 1.386 . S
C252 C254 1.391 . S
C253 C252 1.386 . S
C253 C257 1.393 . S
C254 H246 0.950 . S
C254 C252 1.391 . S
C254 C255 1.400 . S
C255 C254 1.400 . S
C255 C256 1.398 . S
C255 C261 1.491 . S
C256 H247 0.950 . S
C256 C255 1.398 . S
C256 C257 1.391 . S
C257 H245 0.950 . S
C257 C253 1.393 . S
C257 C256 1.391 . S
C258 H248 0.950 . S
C258 C259 1.386 . S
C258 C260 1.391 . S
C259 C258 1.386 . S
C259 C263 1.393 . S
C260 H249 0.950 . S
C260 C258 1.391 . S
C260 C261 1.400 . S
C261 C255 1.491 . S
C261 C260 1.400 . S
C261 C262 1.398 . S
C262 H250 0.950 . S
C262 C261 1.398 . S
C262 C263 1.391 . S
C263 H251 0.950 . S
C263 C259 1.393 . S
C263 C262 1.391 . S
H264 C272 0.950 . S
H265 C277 0.950 . S
H266 C274 0.950 . S
H267 C276 0.950 . S
H268 C278 0.950 . S
H269 C280 0.950 . S
H270 C282 0.950 . S
H271 C283 0.950 . S
C272 H264 0.950 . S
C272 C273 1.386 . S
C272 C274 1.391 . S
C273 C272 1.386 . S
C273 C277 1.393 . S
C274 H266 0.950 . S
C274 C272 1.391 . S
C274 C275 1.400 . S
C275 C274 1.400 . S
C275 C276 1.398 . S
C275 C281 1.491 . S
C276 H267 0.950 . S
C276 C275 1.398 . S
C276 C277 1.391 . S
C277 H265 0.950 . S
C277 C273 1.393 . S
C277 C276 1.391 . S
C278 H268 0.950 . S
C278 C279 1.386 . S
C278 C280 1.391 . S
C279 C278 1.386 . S
C279 C283 1.393 . S
C280 H269 0.950 . S
C280 C278 1.391 . S
C280 C281 1.400 . S
C281 C275 1.491 . S
C281 C280 1.400 . S
C281 C282 1.398 . S
C282 H270 0.950 . S
C282 C281 1.398 . S
C282 C283 1.391 . S
C283 H271 0.950 . S
C283 C279 1.393 . S
C283 C282 1.391 . S
H284 C292 0.950 . S
H285 C297 0.950 . S
H286 C294 0.950 . S
H287 C296 0.950 . S
H288 C298 0.950 . S
H289 C300 0.950 . S
H290 C302 0.950 . S
H291 C303 0.950 . S
C292 H284 0.950 . S
C292 C293 1.386 . S
C292 C294 1.391 . S
C293 C292 1.386 . S
C293 C297 1.393 . S
C294 H286 0.950 . S
C294 C292 1.391 . S
C294 C295 1.400 . S
C295 C294 1.400 . S
C295 C296 1.398 . S
C295 C301 1.491 . S
C296 H287 0.950 . S
C296 C295 1.398 . S
C296 C297 1.391 . S
C297 H285 0.950 . S
C297 C293 1.393 . S
C297 C296 1.391 . S
C298 H288 0.950 . S
C298 C299 1.386 . S
C298 C300 1.391 . S
C299 C298 1.386 . S
C299 C303 1.393 . S
C300 H289 0.950 . S
C300 C298 1.391 . S
C300 C301 1.400 . S
C301 C295 1.491 . S
C301 C300 1.400 . S
C301 C302 1.398 . S
C302 H290 0.950 . S
C302 C301 1.398 . S
C302 C303 1.391 . S
C303 H291 0.950 . S
C303 C299 1.393 . S
C303 C302 1.391 . S
H304 C312 0.950 . S
H305 C317 0.950 . S
H306 C314 0.950 . S
H307 C316 0.950 . S
H308 C318 0.950 . S
H309 C320 0.950 . S
H310 C322 0.950 . S
H311 C323 0.950 . S
C312 H304 0.950 . S
C312 C313 1.386 . S
C312 C314 1.391 . S
C313 C312 1.386 . S
C313 C317 1.393 . S
C314 H306 0.950 . S
C314 C312 1.391 . S
C314 C315 1.400 . S
C315 C314 1.400 . S
C315 C316 1.398 . S
C315 C321 1.491 . S
C316 H307 0.950 . S
C316 C315 1.398 . S
C316 C317 1.391 . S
C317 H305 0.950 . S
C317 C313 1.393 . S
C317 C316 1.391 . S
C318 H308 0.950 . S
C318 C319 1.386 . S
C318 C320 1.391 . S
C319 C318 1.386 . S
C319 C323 1.393 . S
C320 H309 0.950 . S
C320 C318 1.391 . S
C320 C321 1.400 . S
C321 C315 1.491 . S
C321 C320 1.400 . S
C321 C322 1.398 . S
C322 H310 0.950 . S
C322 C321 1.398 . S
C322 C323 1.391 . S
C323 H311 0.950 . S
C323 C319 1.393 . S
C323 C322 1.391 . S
H324 C332 0.950 . S
H325 C337 0.950 . S
H326 C334 0.950 . S
H327 C336 0.950 . S
H328 C338 0.950 . S
H329 C340 0.950 . S
H330 C342 0.950 . S
H331 C343 0.950 . S
C332 H324 0.950 . S
C332 C333 1.386 . S
C332 C334 1.391 . S
C333 C332 1.386 . S
C333 C337 1.393 . S
C334 H326 0.950 . S
C334 C332 1.391 . S
C334 C335 1.400 . S
C335 C334 1.400 . S
C335 C336 1.398 . S
C335 C341 1.491 . S
C336 H327 0.950 . S
C336 C335 1.398 . S
C336 C337 1.391 . S
C337 H325 0.950 . S
C337 C333 1.393 . S
C337 C336 1.391 . S
C338 H328 0.950 . S
C338 C339 1.386 . S
C338 C340 1.391 . S
C339 C338 1.386 . S
C339 C343 1.393 . S
C340 H329 0.950 . S
C340 C338 1.391 . S
C340 C341 1.400 . S
C341 C335 1.491 . S
C341 C340 1.400 . S
C341 C342 1.398 . S
C342 H330 0.950 . S
C342 C341 1.398 . S
C342 C343 1.391 . S
C343 H331 0.950 . S
C343 C339 1.393 . S
C343 C342 1.391 . S
H344 C352 0.950 . S
H345 C357 0.950 . S
H346 C354 0.950 . S
H347 C356 0.950 . S
H348 C358 0.950 . S
H349 C360 0.950 1_554 S
H350 C362 0.950 . S
H351 C363 0.950 . S
C352 H344 0.950 . S
C352 C353 1.386 1_556 S
C352 C354 1.391 . S
C353 C352 1.386 1_554 S
C353 C357 1.393 . S
C354 H346 0.950 . S
C354 C352 1.391 . S
C354 C355 1.400 . S
C355 C354 1.400 . S
C355 C356 1.398 1_556 S
C355 C361 1.491 . S
C356 H347 0.950 . S
C356 C355 1.398 1_554 S
C356 C357 1.391 . S
C357 H345 0.950 . S
C357 C353 1.393 . S
C357 C356 1.391 . S
C358 H348 0.950 . S
C358 C359 1.386 . S
C358 C360 1.391 . S
C359 C358 1.386 . S
C359 C363 1.393 . S
C360 H349 0.950 1_556 S
C360 C358 1.391 . S
C360 C361 1.400 . S
C361 C355 1.491 . S
C361 C360 1.400 . S
C361 C362 1.398 . S
C362 H350 0.950 . S
C362 C361 1.398 . S
C362 C363 1.391 . S
C363 H351 0.950 . S
C363 C359 1.393 . S
C363 C362 1.391 . S
H364 C372 0.950 . S
H365 C377 0.950 . S
H366 C374 0.950 . S
H367 C376 0.950 . S
H368 C378 0.950 . S
H369 C380 0.950 . S
H370 C382 0.950 . S
H371 C383 0.950 . S
C372 H364 0.950 . S
C372 C373 1.386 . S
C372 C374 1.391 . S
C373 C372 1.386 . S
C373 C377 1.393 . S
C374 H366 0.950 . S
C374 C372 1.391 . S
C374 C375 1.400 . S
C375 C374 1.400 . S
C375 C376 1.398 . S
C375 C381 1.491 . S
C376 H367 0.950 . S
C376 C375 1.398 . S
C376 C377 1.391 . S
C377 H365 0.950 . S
C377 C373 1.393 . S
C377 C376 1.391 . S
C378 H368 0.950 . S
C378 C379 1.386 . S
C378 C380 1.391 1_556 S
C379 C378 1.386 . S
C379 C383 1.393 1_556 S
C380 H369 0.950 . S
C380 C378 1.391 1_554 S
C380 C381 1.400 . S
C381 C375 1.491 . S
C381 C380 1.400 . S
C381 C382 1.398 . S
C382 H370 0.950 . S
C382 C381 1.398 . S
C382 C383 1.391 . S
C383 H371 0.950 . S
C383 C379 1.393 1_554 S
C383 C382 1.391 . S
H384 C392 0.950 . S
H385 C397 0.950 . S
H386 C394 0.950 . S
H387 C396 0.950 . S
H388 C398 0.950 . S
H389 C400 0.950 . S
H390 C402 0.950 . S
H391 C403 0.950 . S
C392 H384 0.950 . S
C392 C393 1.386 . S
C392 C394 1.391 . S
C393 C392 1.386 . S
C393 C397 1.393 1_554 S
C394 H386 0.950 . S
C394 C392 1.391 . S
C394 C395 1.400 1_554 S
C395 C394 1.400 1_556 S
C395 C396 1.398 . S
C395 C401 1.491 . S
C396 H387 0.950 . S
C396 C395 1.398 . S
C396 C397 1.391 . S
C397 H385 0.950 . S
C397 C393 1.393 1_556 S
C397 C396 1.391 . S
C398 H388 0.950 . S
C398 C399 1.386 . S
C398 C400 1.391 . S
C399 C398 1.386 . S
C399 C403 1.393 . S
C400 H389 0.950 . S
C400 C398 1.391 . S
C400 C401 1.400 . S
C401 C395 1.491 . S
C401 C400 1.400 . S
C401 C402 1.398 . S
C402 H390 0.950 . S
C402 C401 1.398 . S
C402 C403 1.391 . S
C403 H391 0.950 . S
C403 C399 1.393 . S
C403 C402 1.391 . S
H404 C412 0.950 . S
H405 C417 0.950 . S
H406 C414 0.950 . S
H407 C416 0.950 . S
H408 C418 0.950 . S
H409 C420 0.950 1_556 S
H410 C422 0.950 . S
H411 C423 0.950 . S
C412 H404 0.950 . S
C412 C413 1.386 1_554 S
C412 C414 1.391 . S
C413 C412 1.386 1_556 S
C413 C417 1.393 . S
C414 H406 0.950 . S
C414 C412 1.391 . S
C414 C415 1.400 . S
C415 C414 1.400 . S
C415 C416 1.398 1_554 S
C415 C421 1.491 . S
C416 H407 0.950 . S
C416 C415 1.398 1_556 S
C416 C417 1.391 . S
C417 H405 0.950 . S
C417 C413 1.393 . S
C417 C416 1.391 . S
C418 H408 0.950 . S
C418 C419 1.386 . S
C418 C420 1.391 . S
C419 C418 1.386 . S
C419 C423 1.393 . S
C420 H409 0.950 1_554 S
C420 C418 1.391 . S
C420 C421 1.400 . S
C421 C415 1.491 . S
C421 C420 1.400 . S
C421 C422 1.398 . S
C422 H410 0.950 . S
C422 C421 1.398 . S
C422 C423 1.391 . S
C423 H411 0.950 . S
C423 C419 1.393 . S
C423 C422 1.391 . S
H424 C432 0.950 . S
H425 C437 0.950 . S
H426 C434 0.950 . S
H427 C436 0.949 1_455 S
H428 C438 0.950 . S
H429 C440 0.950 . S
H430 C442 0.949 1_655 S
H431 C443 0.950 . S
C432 H424 0.950 . S
C432 C433 1.386 . S
C432 C434 1.391 . S
C433 C432 1.386 . S
C433 C437 1.393 . S
C434 H426 0.950 . S
C434 C432 1.391 . S
C434 C435 1.400 . S
C435 C434 1.400 . S
C435 C436 1.399 . S
C435 C441 1.491 1_655 S
C436 H427 0.949 1_655 S
C436 C435 1.399 . S
C436 C437 1.391 . S
C437 H425 0.950 . S
C437 C433 1.393 . S
C437 C436 1.391 . S
C438 H428 0.950 . S
C438 C439 1.386 . S
C438 C440 1.391 . S
C439 C438 1.386 . S
C439 C443 1.393 . S
C440 H429 0.950 . S
C440 C438 1.391 . S
C440 C441 1.400 . S
C441 C435 1.491 1_455 S
C441 C440 1.400 . S
C441 C442 1.399 . S
C442 H430 0.949 1_455 S
C442 C441 1.399 . S
C442 C443 1.391 . S
C443 H431 0.950 . S
C443 C439 1.393 . S
C443 C442 1.391 . S
H444 C452 0.950 . S
H445 C457 0.950 . S
H446 C454 0.950 . S
H447 C456 0.950 . S
H448 C458 0.950 . S
H449 C460 0.950 . S
H450 C462 0.950 . S
H451 C463 0.950 . S
C452 H444 0.950 . S
C452 C453 1.386 1_565 S
C452 C454 1.391 . S
C453 C452 1.386 1_545 S
C453 C457 1.393 . S
C454 H446 0.950 . S
C454 C452 1.391 . S
C454 C455 1.400 1_565 S
C455 C454 1.400 1_545 S
C455 C456 1.398 . S
C455 C461 1.491 1_545 S
C456 H447 0.950 . S
C456 C455 1.398 . S
C456 C457 1.391 . S
C457 H445 0.950 . S
C457 C453 1.393 . S
C457 C456 1.391 . S
C458 H448 0.950 . S
C458 C459 1.386 1_545 S
C458 C460 1.391 . S
C459 C458 1.386 1_565 S
C459 C463 1.393 . S
C460 H449 0.950 . S
C460 C458 1.391 . S
C460 C461 1.400 1_545 S
C461 C455 1.491 1_565 S
C461 C460 1.400 1_565 S
C461 C462 1.398 . S
C462 H450 0.950 . S
C462 C461 1.398 . S
C462 C463 1.391 . S
C463 H451 0.950 . S
C463 C459 1.393 . S
C463 C462 1.391 . S
H464 C472 0.950 . S
H465 C477 0.950 . S
H466 C474 0.950 . S
H467 C476 0.950 . S
H468 C478 0.950 . S
H469 C480 0.950 . S
H470 C482 0.950 . S
H471 C483 0.950 . S
C472 H464 0.950 . S
C472 C473 1.386 . S
C472 C474 1.391 . S
C473 C472 1.386 . S
C473 C477 1.393 . S
C474 H466 0.950 . S
C474 C472 1.391 . S
C474 C475 1.400 . S
C475 C474 1.400 . S
C475 C476 1.398 . S
C475 C481 1.491 1_545 S
C476 H467 0.950 . S
C476 C475 1.398 . S
C476 C477 1.391 . S
C477 H465 0.950 . S
C477 C473 1.393 . S
C477 C476 1.391 . S
C478 H468 0.950 . S
C478 C479 1.386 . S
C478 C480 1.391 . S
C479 C478 1.386 . S
C479 C483 1.393 . S
C480 H469 0.950 . S
C480 C478 1.391 . S
C480 C481 1.400 . S
C481 C475 1.491 1_565 S
C481 C480 1.400 . S
C481 C482 1.398 . S
C482 H470 0.950 . S
C482 C481 1.398 . S
C482 C483 1.391 . S
C483 H471 0.950 . S
C483 C479 1.393 . S
C483 C482 1.391 . S
H484 C492 0.950 . S
H485 C497 0.950 . S
H486 C494 0.950 . S
H487 C496 0.950 . S
H488 C498 0.950 . S
H489 C500 0.950 . S
H490 C502 0.950 . S
H491 C503 0.950 . S
C492 H484 0.950 . S
C492 C493 1.386 . S
C492 C494 1.391 . S
C493 C492 1.386 . S
C493 C497 1.393 . S
C494 H486 0.950 . S
C494 C492 1.391 . S
C494 C495 1.400 . S
C495 C494 1.400 . S
C495 C496 1.398 . S
C495 C501 1.491 1_455 S
C496 H487 0.950 . S
C496 C495 1.398 . S
C496 C497 1.391 . S
C497 H485 0.950 . S
C497 C493 1.393 . S
C497 C496 1.391 . S
C498 H488 0.950 . S
C498 C499 1.386 . S
C498 C500 1.391 . S
C499 C498 1.386 . S
C499 C503 1.393 . S
C500 H489 0.950 . S
C500 C498 1.391 . S
C500 C501 1.400 . S
C501 C495 1.491 1_655 S
C501 C500 1.400 . S
C501 C502 1.398 . S
C502 H490 0.950 . S
C502 C501 1.398 . S
C502 C503 1.391 . S
C503 H491 0.950 . S
C503 C499 1.393 . S
C503 C502 1.391 . S
C193 N173 1.762 . S
C199 N12 1.756 . S
C213 N35 1.746 . S
C219 N104 1.759 . S
C233 N58 1.746 . S
C239 N127 1.740 . S
C253 N150 1.752 . S
C259 N81 1.741 . S
C273 N25 1.649 . S
C279 C16 1.704 . S
C293 C39 1.704 . S
C299 N48 1.649 . S
C313 N71 1.649 . S
C319 C62 1.705 . S
C333 C85 1.705 . S
C339 N2 1.649 . S
C353 N163 1.631 . S
C359 C108 1.719 . S
C373 C131 1.706 . S
C379 N94 1.648 . S
C393 N117 1.649 . S
C399 C154 1.704 . S
C413 N140 1.631 . S
C419 C177 1.707 . S
C433 C53 1.836 . S
C439 C7 1.836 . S
C453 C76 1.829 . S
C459 C30 1.824 . S
C473 C145 1.824 . S
C479 C99 1.833 . S
C493 C168 1.831 . S
C499 C122 1.824 . S
