# Generated by pormake.
# Topology whz, (6)-cn, num edge types: 1
# Building blocks:
#     Node 0, Type 0, BuildingBlock: LEVNOQ01_clean_sbu_1, # of connection points: 6
#     Node 1, Type 0, BuildingBlock: LEVNOQ01_clean_sbu_1, # of connection points: 6
#     Node 2, Type 0, BuildingBlock: LEVNOQ01_clean_sbu_1, # of connection points: 6
#     Node 3, Type 0, BuildingBlock: LEVNOQ01_clean_sbu_1, # of connection points: 6
#     Node 4, Type 0, BuildingBlock: LEVNOQ01_clean_sbu_1, # of connection points: 6
#     Node 5, Type 0, BuildingBlock: LEVNOQ01_clean_sbu_1, # of connection points: 6
#     Node 6, Type 0, BuildingBlock: LEVNOQ01_clean_sbu_1, # of connection points: 6
#     Node 7, Type 0, BuildingBlock: LEVNOQ01_clean_sbu_1, # of connection points: 6
#     Node 8, Type 0, BuildingBlock: LEVNOQ01_clean_sbu_1, # of connection points: 6
#     Node 9, Type 0, BuildingBlock: LEVNOQ01_clean_sbu_1, # of connection points: 6
#     Node 10, Type 0, BuildingBlock: LEVNOQ01_clean_sbu_1, # of connection points: 6
#     Node 11, Type 0, BuildingBlock: LEVNOQ01_clean_sbu_1, # of connection points: 6
#     Node 12, Type 0, BuildingBlock: LEVNOQ01_clean_sbu_1, # of connection points: 6
#     Node 13, Type 0, BuildingBlock: LEVNOQ01_clean_sbu_1, # of connection points: 6
#     Node 14, Type 0, BuildingBlock: LEVNOQ01_clean_sbu_1, # of connection points: 6
#     Node 15, Type 0, BuildingBlock: LEVNOQ01_clean_sbu_1, # of connection points: 6
#     Edge 16, Type (0, 0), None
#     Edge 17, Type (0, 0), None
#     Edge 18, Type (0, 0), None
#     Edge 19, Type (0, 0), None
#     Edge 20, Type (0, 0), None
#     Edge 21, Type (0, 0), None
#     Edge 22, Type (0, 0), None
#     Edge 23, Type (0, 0), None
#     Edge 24, Type (0, 0), None
#     Edge 25, Type (0, 0), None
#     Edge 26, Type (0, 0), None
#     Edge 27, Type (0, 0), None
#     Edge 28, Type (0, 0), None
#     Edge 29, Type (0, 0), None
#     Edge 30, Type (0, 0), None
#     Edge 31, Type (0, 0), None
#     Edge 32, Type (0, 0), None
#     Edge 33, Type (0, 0), None
#     Edge 34, Type (0, 0), None
#     Edge 35, Type (0, 0), None
#     Edge 36, Type (0, 0), None
#     Edge 37, Type (0, 0), None
#     Edge 38, Type (0, 0), None
#     Edge 39, Type (0, 0), None
#     Edge 40, Type (0, 0), None
#     Edge 41, Type (0, 0), None
#     Edge 42, Type (0, 0), None
#     Edge 43, Type (0, 0), None
#     Edge 44, Type (0, 0), None
#     Edge 45, Type (0, 0), None
#     Edge 46, Type (0, 0), None
#     Edge 47, Type (0, 0), None
#     Edge 48, Type (0, 0), None
#     Edge 49, Type (0, 0), None
#     Edge 50, Type (0, 0), None
#     Edge 51, Type (0, 0), None
#     Edge 52, Type (0, 0), None
#     Edge 53, Type (0, 0), None
#     Edge 54, Type (0, 0), None
#     Edge 55, Type (0, 0), None
#     Edge 56, Type (0, 0), None
#     Edge 57, Type (0, 0), None
#     Edge 58, Type (0, 0), None
#     Edge 59, Type (0, 0), None
#     Edge 60, Type (0, 0), None
#     Edge 61, Type (0, 0), None
#     Edge 62, Type (0, 0), None
#     Edge 63, Type (0, 0), None
# Relax obj value: 0.382
# Max RMSD: 0.242
# Mean RMSD: 0.242
data_MOF--net-whz--node1-LEVNOQ01_clean_sbu_1--edge1-none
_symmetry_space_group_name_H-M    P1
_symmetry_Int_Tables_number       1
_symmetry_cell_setting            triclinic
loop_
_symmetry_equiv_pos_as_xyz
'x, y, z'
_cell_length_a     17.948002
_cell_length_b     17.954452
_cell_length_c     24.593797
_cell_angle_alpha  90.017038
_cell_angle_beta   89.984931
_cell_angle_gamma 89.988178
loop_
_atom_site_label
_atom_site_type_symbol
_atom_site_fract_x
_atom_site_fract_y
_atom_site_fract_z
_atom_type_partial_charge
O0 O 0.22478 0.14234 0.98734 0.0
Mg1 Mg 0.28163 0.20539 0.05065 0.0
O2 O 0.23964 0.04656 0.04236 0.0
Mg3 Mg 0.24742 0.10766 0.12284 0.0
O4 O 0.36493 0.15828 0.09492 0.0
O5 O 0.37872 0.23892 0.02429 0.0
O6 O 0.26829 0.18457 0.19926 0.0
O7 O 0.31867 0.01037 0.16773 0.0
Mg8 Mg 0.17463 0.09729 0.19507 0.0
O9 O 0.13006 0.03719 0.13844 0.0
O10 O 0.15019 0.20892 0.2005 0.0
O11 O 0.25596 0.03958 0.24137 0.0
O12 O 0.07642 0.05874 0.22017 0.0
C13 C 0.17258 0.27191 0.09623 0.0
C14 C 0.22334 0.07268 0.99548 0.0
C15 C 0.40623 0.19967 0.06325 0.0
C16 C 0.21489 0.22539 0.21489 0.0
C17 C 0.30738 0.00208 0.21905 0.0
C18 C 0.07571 0.02779 0.17308 0.0
O19 O 0.23774 0.29588 0.093 0.0
O20 O 0.16164 0.20195 0.09141 0.0
O21 O 0.698 0.45297 0.47243 0.0
Mg22 Mg 0.65732 0.35693 0.44147 0.0
O23 O 0.6542 0.53762 0.41412 0.0
Mg24 Mg 0.54479 0.47768 0.37713 0.0
O25 O 0.58277 0.35383 0.38116 0.0
O26 O 0.69651 0.38693 0.36126 0.0
O27 O 0.43156 0.40187 0.3622 0.0
O28 O 0.58981 0.47487 0.29083 0.0
Mg29 Mg 0.44669 0.52482 0.33501 0.0
O30 O 0.50175 0.61452 0.36263 0.0
O31 O 0.38891 0.49311 0.40705 0.0
O32 O 0.47848 0.45144 0.26276 0.0
O33 O 0.39435 0.62119 0.31486 0.0
C34 C 0.52155 0.4199 0.49947 0.0
C35 C 0.69394 0.51916 0.45577 0.0
C36 C 0.64676 0.3362 0.36232 0.0
C37 C 0.38184 0.42639 0.39452 0.0
C38 C 0.54836 0.44688 0.25468 0.0
C39 C 0.44606 0.65413 0.3421 0.0
O40 O 0.56304 0.36302 0.49374 0.0
O41 O 0.51493 0.47158 0.46427 0.0
O42 O 0.16717 0.74921 0.48739 0.0
Mg43 Mg 0.11035 0.68609 0.55068 0.0
O44 O 0.15227 0.84489 0.54254 0.0
Mg45 Mg 0.14446 0.78378 0.62296 0.0
O46 O 0.02699 0.73313 0.59498 0.0
O47 O 0.01331 0.65255 0.52427 0.0
O48 O 0.12355 0.70694 0.69938 0.0
O49 O 0.07318 0.88112 0.6678 0.0
Mg50 Mg 0.21716 0.79432 0.6953 0.0
O51 O 0.26179 0.85428 0.63861 0.0
O52 O 0.24167 0.6827 0.70063 0.0
O53 O 0.13567 0.85207 0.74154 0.0
O54 O 0.31531 0.83298 0.72039 0.0
C55 C 0.21934 0.6195 0.59629 0.0
C56 C 0.16855 0.81886 0.49561 0.0
C57 C -0.01426 0.69176 0.56326 0.0
C58 C 0.17697 0.66618 0.71501 0.0
C59 C 0.08432 0.88953 0.71911 0.0
C60 C 0.3161 0.86378 0.67327 0.0
O61 O 0.15419 0.59555 0.59296 0.0
O62 O 0.2303 0.68946 0.59154 0.0
O63 O 0.91317 0.4402 0.76271 0.0
Mg64 Mg 0.94495 0.36693 0.83497 0.0
O65 O 0.80184 0.41712 0.79101 0.0
Mg66 Mg 0.84688 0.41418 0.8773 0.0
O67 O 0.88982 0.2773 0.86267 0.0
O68 O -0.00288 0.27048 0.81475 0.0
O69 O 0.87687 0.42002 0.96442 0.0
O70 O 0.7375 0.35415 0.91422 0.0
Mg71 Mg 0.73472 0.53468 0.94198 0.0
O72 O 0.80909 0.53827 0.88154 0.0
O73 O 0.82904 0.52862 0.99407 0.0
O74 O 0.694 0.43862 0.97281 0.0
O75 O 0.69579 0.50484 0.86158 0.0
C76 C 0.00991 0.46529 0.89458 0.0
C77 C 0.84329 0.44492 0.75476 0.0
C78 C 0.94543 0.23762 0.84206 0.0
C79 C 0.8704 0.47166 0.99969 0.0
C80 C 0.69794 0.37249 0.956 0.0
C81 C 0.74562 0.55548 0.86175 0.0
O82 O 0.00284 0.39854 0.90697 0.0
O83 O -0.03983 0.48987 0.86232 0.0
O84 O 0.69048 0.72859 0.99848 0.0
Mg85 Mg 0.61713 0.69675 0.92625 0.0
O86 O 0.66718 0.83986 0.97027 0.0
Mg87 Mg 0.66427 0.79476 0.884 0.0
O88 O 0.52734 0.75169 0.89864 0.0
O89 O 0.5208 0.6444 0.94651 0.0
O90 O 0.67014 0.76473 0.79687 0.0
O91 O 0.60418 0.90409 0.84708 0.0
Mg92 Mg 0.78478 0.90683 0.81931 0.0
O93 O 0.7884 0.83263 0.87978 0.0
O94 O 0.77877 0.81248 0.76724 0.0
O95 O 0.68869 -0.05252 0.7885 0.0
O96 O 0.75475 -0.0541 0.89966 0.0
C97 C 0.71551 0.63182 0.8667 0.0
C98 C 0.69511 0.79845 0.00647 0.0
C99 C 0.48778 0.69601 0.91925 0.0
C100 C 0.7218 0.77115 0.76161 0.0
C101 C 0.62254 0.94362 0.80531 0.0
C102 C 0.80552 0.89619 0.89946 0.0
O103 O 0.64876 0.63889 0.85422 0.0
O104 O 0.7401 0.68155 0.89896 0.0
O105 O 0.3926 0.41689 0.77385 0.0
Mg106 Mg 0.45572 0.36 0.71055 0.0
O107 O 0.29688 0.40202 0.71874 0.0
Mg108 Mg 0.35804 0.39423 0.63831 0.0
O109 O 0.40863 0.27673 0.66625 0.0
O110 O 0.48922 0.26298 0.73694 0.0
O111 O 0.43497 0.37332 0.56185 0.0
O112 O 0.26071 0.32305 0.59345 0.0
Mg113 Mg 0.34766 0.46704 0.56609 0.0
O114 O 0.28757 0.51164 0.62276 0.0
O115 O 0.45938 0.49136 0.56074 0.0
O116 O 0.28981 0.38573 0.51982 0.0
O117 O 0.30914 0.5653 0.54107 0.0
C118 C 0.52231 0.46894 0.66501 0.0
C119 C 0.32292 0.41833 0.76565 0.0
C120 C 0.44999 0.23546 0.69796 0.0
C121 C 0.47584 0.42669 0.54629 0.0
C122 C 0.25234 0.33433 0.54215 0.0
C123 C 0.27822 0.56603 0.58817 0.0
O124 O 0.54629 0.4038 0.66826 0.0
O125 O 0.45233 0.47992 0.66979 0.0
O126 O 0.70161 0.16274 0.4987 0.0
Mg127 Mg 0.77491 0.19455 0.42644 0.0
O128 O 0.72474 0.05149 0.4703 0.0
Mg129 Mg 0.72764 0.0967 0.38407 0.0
O130 O 0.86464 0.13963 0.39866 0.0
O131 O 0.87128 0.24683 0.44668 0.0
O132 O 0.72171 0.12684 0.29697 0.0
O133 O 0.78766 -0.01262 0.34701 0.0
Mg134 Mg 0.60706 -0.01527 0.31934 0.0
O135 O 0.60348 0.05893 0.37987 0.0
O136 O 0.61308 0.07909 0.26734 0.0
O137 O 0.70313 0.94403 0.28844 0.0
O138 O 0.637 0.94561 0.39967 0.0
C139 C 0.67659 0.2597 0.36707 0.0
C140 C 0.69689 0.09287 0.50658 0.0
C141 C 0.90424 0.19526 0.4193 0.0
C142 C 0.67005 0.12044 0.26173 0.0
C143 C 0.76929 -0.05212 0.30522 0.0
C144 C 0.58628 -0.00462 0.3995 0.0
O145 O 0.7433 0.25251 0.35452 0.0
O146 O 0.65191 0.20996 0.39926 0.0
O147 O -0.00076 0.47466 0.27401 0.0
Mg148 Mg 0.93616 0.53154 0.21074 0.0
O149 O 0.09496 0.48937 0.21884 0.0
Mg150 Mg 0.03389 0.49717 0.13842 0.0
O151 O -0.01667 0.61467 0.16635 0.0
O152 O 0.90277 0.62868 0.23706 0.0
O153 O -0.04295 0.5181 0.06201 0.0
O154 O 0.13129 0.56827 0.09357 0.0
Mg155 Mg 0.04427 0.42433 0.06617 0.0
O156 O 0.10433 0.37973 0.1228 0.0
O157 O 0.93255 0.40006 0.06084 0.0
O158 O 0.10216 0.5056 0.01992 0.0
O159 O 0.08277 0.32609 0.04108 0.0
C160 C 0.86952 0.4226 0.16516 0.0
C161 C 0.06891 0.47314 0.26577 0.0
C162 C 0.942 0.65606 0.19803 0.0
C163 C 0.91616 0.46475 0.04644 0.0
C164 C 0.13966 0.55697 0.04227 0.0
C165 C 0.1137 0.32536 0.08817 0.0
O166 O 0.84557 0.48775 0.16849 0.0
O167 O 0.93949 0.41158 0.16989 0.0
O168 O 0.72481 0.64236 0.48733 0.0
Mg169 Mg 0.78169 0.70538 0.55065 0.0
O170 O 0.73968 0.54656 0.54235 0.0
Mg171 Mg 0.74747 0.60765 0.62283 0.0
O172 O 0.86498 0.65826 0.59491 0.0
O173 O 0.87876 0.7389 0.52427 0.0
O174 O 0.76834 0.68453 0.69926 0.0
O175 O 0.8187 0.51033 0.66772 0.0
Mg176 Mg 0.67468 0.59727 0.69506 0.0
O177 O 0.6301 0.53717 0.63843 0.0
O178 O 0.65022 0.70889 0.70049 0.0
O179 O 0.75601 0.53955 0.74136 0.0
O180 O 0.57649 0.55871 0.72019 0.0
C181 C 0.67265 0.77191 0.59623 0.0
C182 C 0.72336 0.57269 0.49547 0.0
C183 C 0.90627 0.69968 0.56325 0.0
C184 C 0.71492 0.72534 0.71488 0.0
C185 C 0.80742 0.50204 0.71903 0.0
C186 C 0.57576 0.52779 0.67309 0.0
O187 O 0.73781 0.79587 0.59301 0.0
O188 O 0.6617 0.70195 0.59141 0.0
O189 O 0.19802 -0.04705 0.97245 0.0
Mg190 Mg 0.15731 0.85691 0.94151 0.0
O191 O 0.1542 0.0376 0.91414 0.0
Mg192 Mg 0.0448 -0.02235 0.87714 0.0
O193 O 0.08277 0.8538 0.88119 0.0
O194 O 0.19652 0.88689 0.8613 0.0
O195 O 0.93158 0.90185 0.8622 0.0
O196 O 0.08987 -0.02518 0.79086 0.0
Mg197 Mg -0.0533 0.02481 0.83497 0.0
O198 O 0.00178 0.11449 0.86263 0.0
O199 O 0.88884 -0.00685 0.90699 0.0
O200 O -0.02147 -0.04859 0.76273 0.0
O201 O 0.89441 0.1212 0.81481 0.0
C202 C 0.02151 0.91991 0.99947 0.0
C203 C 0.19397 0.01913 0.95578 0.0
C204 C 0.14676 0.83616 0.86235 0.0
C205 C 0.88182 0.92643 0.89446 0.0
C206 C 0.04841 -0.05318 0.75471 0.0
C207 C -0.0539 0.15412 0.84208 0.0
O208 O 0.06302 0.86305 0.99377 0.0
O209 O 0.01489 -0.02842 0.96426 0.0
O210 O 0.66714 0.2492 0.98739 0.0
Mg211 Mg 0.6103 0.1861 0.05069 0.0
O212 O 0.65223 0.34489 0.04253 0.0
Mg213 Mg 0.64441 0.28381 0.12296 0.0
O214 O 0.52694 0.23316 0.09498 0.0
O215 O 0.51327 0.15256 0.02428 0.0
O216 O 0.62349 0.20698 0.19938 0.0
O217 O 0.57313 0.38116 0.16778 0.0
Mg218 Mg 0.71708 0.29436 0.19529 0.0
O219 O 0.76174 0.35431 0.13861 0.0
O220 O 0.74163 0.18274 0.20063 0.0
O221 O 0.63559 0.3521 0.24153 0.0
O222 O 0.81521 0.33303 0.22042 0.0
C223 C 0.71928 0.11952 0.0963 0.0
C224 C 0.66853 0.31885 0.99561 0.0
C225 C 0.4857 0.19175 0.06327 0.0
C226 C 0.67693 0.16624 0.21501 0.0
C227 C 0.58426 0.38957 0.21909 0.0
C228 C 0.81603 0.36379 0.17328 0.0
O229 O 0.65412 0.09557 0.09298 0.0
O230 O 0.73024 0.18948 0.09154 0.0
O231 O 0.41315 0.94022 0.26269 0.0
Mg232 Mg 0.44496 0.86693 0.33494 0.0
O233 O 0.3018 0.91717 0.29103 0.0
Mg234 Mg 0.34687 0.91421 0.37731 0.0
O235 O 0.3898 0.77734 0.36267 0.0
O236 O 0.49707 0.77047 0.31471 0.0
O237 O 0.37691 0.92002 0.46441 0.0
O238 O 0.2375 0.85418 0.41423 0.0
Mg239 Mg 0.23473 0.0347 0.44201 0.0
O240 O 0.30909 0.0383 0.38156 0.0
O241 O 0.32907 0.02861 0.49409 0.0
O242 O 0.194 0.93864 0.47283 0.0
O243 O 0.19578 0.00487 0.36162 0.0
C244 C 0.50993 -0.03475 0.39453 0.0
C245 C 0.34326 0.94497 0.25479 0.0
C246 C 0.44539 0.73764 0.34204 0.0
C247 C 0.37045 -0.02835 0.49969 0.0
C248 C 0.19792 0.87251 0.45601 0.0
C249 C 0.24561 0.05551 0.36177 0.0
O250 O 0.50292 0.8985 0.40692 0.0
O251 O 0.46016 -0.01011 0.36233 0.0
O252 O 0.19049 0.2286 0.49851 0.0
Mg253 Mg 0.11713 0.19676 0.42628 0.0
O254 O 0.16722 0.3399 0.47028 0.0
Mg255 Mg 0.16428 0.29481 0.38401 0.0
O256 O 0.02736 0.25173 0.39866 0.0
O257 O 0.02079 0.14443 0.44652 0.0
O258 O 0.17013 0.26478 0.29688 0.0
O259 O 0.10419 0.40414 0.3471 0.0
Mg260 Mg 0.28479 0.40688 0.31931 0.0
O261 O 0.2884 0.33268 0.37979 0.0
O262 O 0.27875 0.31254 0.26723 0.0
O263 O 0.1887 0.44755 0.28851 0.0
O264 O 0.2548 0.44603 0.39965 0.0
C265 C 0.21551 0.13185 0.36672 0.0
C266 C 0.19516 0.29846 0.50646 0.0
C267 C -0.01221 0.19606 0.41926 0.0
C268 C 0.22177 0.27122 0.26161 0.0
C269 C 0.12255 0.44369 0.30535 0.0
C270 C 0.3055 0.39624 0.39947 0.0
O271 O 0.14876 0.13892 0.35424 0.0
O272 O 0.24011 0.18159 0.39897 0.0
O273 O 0.8926 0.91695 0.2738 0.0
Mg274 Mg -0.04431 0.86004 0.21049 0.0
O275 O 0.79684 0.90202 0.21873 0.0
Mg276 Mg 0.858 0.89424 0.1383 0.0
O277 O 0.9086 0.77673 0.16624 0.0
O278 O -0.01077 0.76305 0.23691 0.0
O279 O 0.93492 0.87334 0.06184 0.0
O280 O 0.76067 0.82305 0.09344 0.0
Mg281 Mg 0.8476 -0.03294 0.06607 0.0
O282 O 0.78751 0.01164 0.12275 0.0
O283 O -0.04069 -0.00861 0.06072 0.0
O284 O 0.78975 0.88575 0.0198 0.0
O285 O 0.80906 0.06532 0.04106 0.0
C286 C 0.02225 -0.03105 0.16499 0.0
C287 C 0.82291 0.91836 0.26562 0.0
C288 C -0.05 0.7355 0.19795 0.0
C289 C -0.02422 0.92672 0.04628 0.0
C290 C 0.75229 0.83434 0.04215 0.0
C291 C 0.77815 0.06604 0.08817 0.0
O292 O 0.04625 0.90381 0.16817 0.0
O293 O -0.04772 -0.02005 0.16978 0.0
O294 O 0.2016 0.66271 0.99873 0.0
Mg295 Mg 0.27491 0.69452 0.92647 0.0
O296 O 0.22469 0.55143 0.97031 0.0
Mg297 Mg 0.22763 0.59665 0.88408 0.0
O298 O 0.36462 0.63958 0.89868 0.0
O299 O 0.37128 0.74679 0.9467 0.0
O300 O 0.22173 0.62679 0.79698 0.0
O301 O 0.28765 0.48733 0.84703 0.0
Mg302 Mg 0.10705 0.48466 0.81934 0.0
O303 O 0.10348 0.55888 0.87987 0.0
O304 O 0.11312 0.57901 0.76733 0.0
O305 O 0.20312 0.44394 0.78845 0.0
O306 O 0.13694 0.44548 0.89966 0.0
C307 C 0.17659 0.75966 0.86709 0.0
C308 C 0.19684 0.59283 0.00657 0.0
C309 C 0.40423 0.69521 0.91932 0.0
C310 C 0.17009 0.62036 0.76172 0.0
C311 C 0.26928 0.44779 0.80526 0.0
C312 C 0.08629 0.49533 0.89951 0.0
O313 O 0.2433 0.75248 0.85455 0.0
O314 O 0.1519 0.70991 0.89927 0.0
O315 O 0.49924 -0.02539 0.77395 0.0
Mg316 Mg 0.43618 0.03151 0.71068 0.0
O317 O 0.595 -0.01062 0.71883 0.0
Mg318 Mg 0.53395 -0.00284 0.63841 0.0
O319 O 0.48336 0.11467 0.66633 0.0
O320 O 0.40275 0.12861 0.73703 0.0
O321 O 0.45711 0.01809 0.562 0.0
O322 O 0.63133 0.06828 0.59357 0.0
Mg323 Mg 0.54435 0.92433 0.56615 0.0
O324 O 0.6044 0.87974 0.62279 0.0
O325 O 0.43265 0.90004 0.56081 0.0
O326 O 0.60223 0.00561 0.51991 0.0
O327 O 0.58287 0.82611 0.54106 0.0
C328 C 0.36959 0.92258 0.66512 0.0
C329 C 0.56892 -0.02689 0.76574 0.0
C330 C 0.44199 0.15602 0.69801 0.0
C331 C 0.41623 -0.03526 0.54642 0.0
C332 C 0.63972 0.05699 0.54227 0.0
C333 C 0.61378 0.82537 0.58816 0.0
O334 O 0.34562 -0.01227 0.66839 0.0
O335 O 0.43956 0.91155 0.66987 0.0
loop_
_geom_bond_atom_site_label_1
_geom_bond_atom_site_label_2
_geom_bond_distance
_geom_bond_site_symmetry_2
_ccdc_geom_bond_type
O0 Mg1 1.990 . S
O0 C14 1.253 . S
Mg1 O0 1.990 . S
Mg1 O4 2.180 . S
Mg1 O5 2.117 . S
Mg1 O19 2.030 . S
O2 Mg3 2.072 . S
O2 C14 1.260 . S
Mg3 O2 2.072 . S
Mg3 O4 2.099 . S
Mg3 O6 2.079 . S
Mg3 O7 2.072 . S
Mg3 O9 2.099 . S
Mg3 O20 2.079 . S
O4 Mg1 2.180 . S
O4 Mg3 2.099 . S
O4 C15 1.279 . S
O5 Mg1 2.117 . S
O5 C15 1.250 . S
O6 Mg3 2.079 . S
O6 C16 1.264 . S
O7 Mg3 2.072 . S
O7 C17 1.260 . S
Mg8 O9 2.180 . S
Mg8 O10 2.030 . S
Mg8 O11 1.990 1_545 S
Mg8 O12 2.117 . S
O9 Mg3 2.099 . S
O9 Mg8 2.180 . S
O9 C18 1.279 . S
O10 Mg8 2.030 . S
O10 C16 1.248 . S
O11 Mg8 1.990 1_565 S
O11 C17 1.253 1_565 S
O12 Mg8 2.117 . S
O12 C18 1.250 . S
C13 O19 1.248 . S
C13 O20 1.264 . S
C14 O0 1.253 . S
C14 O2 1.260 . S
C15 O4 1.279 . S
C15 O5 1.250 . S
C16 O6 1.264 . S
C16 O10 1.248 . S
C17 O7 1.260 . S
C17 O11 1.253 1_545 S
C18 O9 1.279 . S
C18 O12 1.250 . S
O19 Mg1 2.030 . S
O19 C13 1.248 . S
O20 Mg3 2.079 . S
O20 C13 1.264 . S
O21 Mg22 1.990 . S
O21 C35 1.253 . S
Mg22 O21 1.990 . S
Mg22 O25 2.180 . S
Mg22 O26 2.117 . S
Mg22 O40 2.030 . S
O23 Mg24 2.072 . S
O23 C35 1.260 . S
Mg24 O23 2.072 . S
Mg24 O25 2.099 . S
Mg24 O27 2.079 . S
Mg24 O28 2.072 . S
Mg24 O30 2.099 . S
Mg24 O41 2.079 . S
O25 Mg22 2.180 . S
O25 Mg24 2.099 . S
O25 C36 1.279 . S
O26 Mg22 2.117 . S
O26 C36 1.250 . S
O27 Mg24 2.079 . S
O27 C37 1.264 . S
O28 Mg24 2.072 . S
O28 C38 1.260 . S
Mg29 O30 2.180 . S
Mg29 O31 2.030 . S
Mg29 O32 1.990 . S
Mg29 O33 2.117 . S
O30 Mg24 2.099 . S
O30 Mg29 2.180 . S
O30 C39 1.279 . S
O31 Mg29 2.030 . S
O31 C37 1.248 . S
O32 Mg29 1.990 . S
O32 C38 1.253 . S
O33 Mg29 2.117 . S
O33 C39 1.250 . S
C34 O40 1.248 . S
C34 O41 1.264 . S
C35 O21 1.253 . S
C35 O23 1.260 . S
C36 O25 1.279 . S
C36 O26 1.250 . S
C37 O27 1.264 . S
C37 O31 1.248 . S
C38 O28 1.260 . S
C38 O32 1.253 . S
C39 O30 1.279 . S
C39 O33 1.250 . S
O40 Mg22 2.030 . S
O40 C34 1.248 . S
O41 Mg24 2.079 . S
O41 C34 1.264 . S
O42 Mg43 1.990 . S
O42 C56 1.253 . S
Mg43 O42 1.990 . S
Mg43 O46 2.180 . S
Mg43 O47 2.117 1_455 S
Mg43 O61 2.030 . S
O44 Mg45 2.072 . S
O44 C56 1.260 . S
Mg45 O44 2.072 . S
Mg45 O46 2.099 . S
Mg45 O48 2.079 . S
Mg45 O49 2.072 . S
Mg45 O51 2.099 . S
Mg45 O62 2.079 . S
O46 Mg43 2.180 . S
O46 Mg45 2.099 . S
O46 C57 1.279 . S
O47 Mg43 2.117 1_655 S
O47 C57 1.250 1_655 S
O48 Mg45 2.079 . S
O48 C58 1.264 . S
O49 Mg45 2.072 . S
O49 C59 1.260 . S
Mg50 O51 2.180 . S
Mg50 O52 2.030 . S
Mg50 O53 1.990 1_565 S
Mg50 O54 2.117 . S
O51 Mg45 2.099 . S
O51 Mg50 2.180 . S
O51 C60 1.279 . S
O52 Mg50 2.030 . S
O52 C58 1.248 . S
O53 Mg50 1.990 1_545 S
O53 C59 1.253 1_545 S
O54 Mg50 2.117 . S
O54 C60 1.250 . S
C55 O61 1.248 . S
C55 O62 1.264 . S
C56 O42 1.253 . S
C56 O44 1.260 . S
C57 O46 1.279 . S
C57 O47 1.250 1_455 S
C58 O48 1.264 . S
C58 O52 1.248 . S
C59 O49 1.260 . S
C59 O53 1.253 1_565 S
C60 O51 1.279 . S
C60 O54 1.250 . S
O61 Mg43 2.030 . S
O61 C55 1.248 . S
O62 Mg45 2.079 . S
O62 C55 1.264 . S
O63 Mg64 1.990 1_655 S
O63 C77 1.253 . S
Mg64 O63 1.990 1_455 S
Mg64 O67 2.180 1_455 S
Mg64 O68 2.117 1_455 S
Mg64 O82 2.030 . S
O65 Mg66 2.072 . S
O65 C77 1.260 . S
Mg66 O65 2.072 . S
Mg66 O67 2.099 . S
Mg66 O69 2.079 . S
Mg66 O70 2.072 . S
Mg66 O72 2.099 . S
Mg66 O83 2.079 1_655 S
O67 Mg64 2.180 1_655 S
O67 Mg66 2.099 . S
O67 C78 1.279 . S
O68 Mg64 2.117 1_655 S
O68 C78 1.250 . S
O69 Mg66 2.079 . S
O69 C79 1.264 1_556 S
O70 Mg66 2.072 . S
O70 C80 1.260 . S
Mg71 O72 2.180 . S
Mg71 O73 2.030 1_556 S
Mg71 O74 1.990 . S
Mg71 O75 2.117 . S
O72 Mg66 2.099 . S
O72 Mg71 2.180 . S
O72 C81 1.279 . S
O73 Mg71 2.030 1_554 S
O73 C79 1.248 . S
O74 Mg71 1.990 . S
O74 C80 1.253 . S
O75 Mg71 2.117 . S
O75 C81 1.250 . S
C76 O82 1.248 . S
C76 O83 1.264 . S
C77 O63 1.253 . S
C77 O65 1.260 . S
C78 O67 1.279 . S
C78 O68 1.250 . S
C79 O69 1.264 1_554 S
C79 O73 1.248 . S
C80 O70 1.260 . S
C80 O74 1.253 . S
C81 O72 1.279 . S
C81 O75 1.250 . S
O82 Mg64 2.030 . S
O82 C76 1.248 . S
O83 Mg66 2.079 1_455 S
O83 C76 1.264 . S
O84 Mg85 1.990 . S
O84 C98 1.253 . S
Mg85 O84 1.990 . S
Mg85 O88 2.180 . S
Mg85 O89 2.117 . S
Mg85 O103 2.030 . S
O86 Mg87 2.072 . S
O86 C98 1.260 . S
Mg87 O86 2.072 . S
Mg87 O88 2.099 . S
Mg87 O90 2.079 . S
Mg87 O91 2.072 . S
Mg87 O93 2.099 . S
Mg87 O104 2.079 . S
O88 Mg85 2.180 . S
O88 Mg87 2.099 . S
O88 C99 1.279 . S
O89 Mg85 2.117 . S
O89 C99 1.250 . S
O90 Mg87 2.079 . S
O90 C100 1.264 . S
O91 Mg87 2.072 . S
O91 C101 1.260 . S
Mg92 O93 2.180 . S
Mg92 O94 2.030 . S
Mg92 O95 1.990 1_565 S
Mg92 O96 2.117 . S
O93 Mg87 2.099 . S
O93 Mg92 2.180 . S
O93 C102 1.279 . S
O94 Mg92 2.030 . S
O94 C100 1.248 . S
O95 Mg92 1.990 1_545 S
O95 C101 1.253 1_545 S
O96 Mg92 2.117 . S
O96 C102 1.250 . S
C97 O103 1.248 . S
C97 O104 1.264 . S
C98 O84 1.253 . S
C98 O86 1.260 . S
C99 O88 1.279 . S
C99 O89 1.250 . S
C100 O90 1.264 . S
C100 O94 1.248 . S
C101 O91 1.260 . S
C101 O95 1.253 1_565 S
C102 O93 1.279 . S
C102 O96 1.250 . S
O103 Mg85 2.030 . S
O103 C97 1.248 . S
O104 Mg87 2.079 . S
O104 C97 1.264 . S
O105 Mg106 1.990 . S
O105 C119 1.253 . S
Mg106 O105 1.990 . S
Mg106 O109 2.180 . S
Mg106 O110 2.117 . S
Mg106 O124 2.030 . S
O107 Mg108 2.072 . S
O107 C119 1.260 . S
Mg108 O107 2.072 . S
Mg108 O109 2.099 . S
Mg108 O111 2.079 . S
Mg108 O112 2.072 . S
Mg108 O114 2.099 . S
Mg108 O125 2.079 . S
O109 Mg106 2.180 . S
O109 Mg108 2.099 . S
O109 C120 1.279 . S
O110 Mg106 2.117 . S
O110 C120 1.250 . S
O111 Mg108 2.079 . S
O111 C121 1.264 . S
O112 Mg108 2.072 . S
O112 C122 1.260 . S
Mg113 O114 2.180 . S
Mg113 O115 2.030 . S
Mg113 O116 1.990 . S
Mg113 O117 2.117 . S
O114 Mg108 2.099 . S
O114 Mg113 2.180 . S
O114 C123 1.279 . S
O115 Mg113 2.030 . S
O115 C121 1.248 . S
O116 Mg113 1.990 . S
O116 C122 1.253 . S
O117 Mg113 2.117 . S
O117 C123 1.250 . S
C118 O124 1.248 . S
C118 O125 1.264 . S
C119 O105 1.253 . S
C119 O107 1.260 . S
C120 O109 1.279 . S
C120 O110 1.250 . S
C121 O111 1.264 . S
C121 O115 1.248 . S
C122 O112 1.260 . S
C122 O116 1.253 . S
C123 O114 1.279 . S
C123 O117 1.250 . S
O124 Mg106 2.030 . S
O124 C118 1.248 . S
O125 Mg108 2.079 . S
O125 C118 1.264 . S
O126 Mg127 1.990 . S
O126 C140 1.253 . S
Mg127 O126 1.990 . S
Mg127 O130 2.180 . S
Mg127 O131 2.117 1_655 S
Mg127 O145 2.030 . S
O128 Mg129 2.072 . S
O128 C140 1.260 . S
Mg129 O128 2.072 . S
Mg129 O130 2.099 . S
Mg129 O132 2.079 . S
Mg129 O133 2.072 . S
Mg129 O135 2.099 . S
Mg129 O146 2.079 . S
O130 Mg127 2.180 . S
O130 Mg129 2.099 . S
O130 C141 1.279 . S
O131 Mg127 2.117 1_455 S
O131 C141 1.250 1_455 S
O132 Mg129 2.079 . S
O132 C142 1.264 . S
O133 Mg129 2.072 . S
O133 C143 1.260 . S
Mg134 O135 2.180 . S
Mg134 O136 2.030 . S
Mg134 O137 1.990 1_545 S
Mg134 O138 2.117 . S
O135 Mg129 2.099 . S
O135 Mg134 2.180 . S
O135 C144 1.279 . S
O136 Mg134 2.030 . S
O136 C142 1.248 . S
O137 Mg134 1.990 1_565 S
O137 C143 1.253 1_565 S
O138 Mg134 2.117 . S
O138 C144 1.250 . S
C139 O145 1.248 . S
C139 O146 1.264 . S
C140 O126 1.253 . S
C140 O128 1.260 . S
C141 O130 1.279 . S
C141 O131 1.250 1_655 S
C142 O132 1.264 . S
C142 O136 1.248 . S
C143 O133 1.260 . S
C143 O137 1.253 1_545 S
C144 O135 1.279 . S
C144 O138 1.250 . S
O145 Mg127 2.030 . S
O145 C139 1.248 . S
O146 Mg129 2.079 . S
O146 C139 1.264 . S
O147 Mg148 1.990 1_455 S
O147 C161 1.253 . S
Mg148 O147 1.990 1_655 S
Mg148 O151 2.180 1_655 S
Mg148 O152 2.117 1_655 S
Mg148 O166 2.030 . S
O149 Mg150 2.072 . S
O149 C161 1.260 . S
Mg150 O149 2.072 . S
Mg150 O151 2.099 . S
Mg150 O153 2.079 . S
Mg150 O154 2.072 . S
Mg150 O156 2.099 . S
Mg150 O167 2.079 1_455 S
O151 Mg148 2.180 1_455 S
O151 Mg150 2.099 . S
O151 C162 1.279 . S
O152 Mg148 2.117 1_455 S
O152 C162 1.250 . S
O153 Mg150 2.079 . S
O153 C163 1.264 1_554 S
O154 Mg150 2.072 . S
O154 C164 1.260 . S
Mg155 O156 2.180 . S
Mg155 O157 2.030 1_554 S
Mg155 O158 1.990 . S
Mg155 O159 2.117 . S
O156 Mg150 2.099 . S
O156 Mg155 2.180 . S
O156 C165 1.279 . S
O157 Mg155 2.030 1_556 S
O157 C163 1.248 . S
O158 Mg155 1.990 . S
O158 C164 1.253 . S
O159 Mg155 2.117 . S
O159 C165 1.250 . S
C160 O166 1.248 . S
C160 O167 1.264 . S
C161 O147 1.253 . S
C161 O149 1.260 . S
C162 O151 1.279 . S
C162 O152 1.250 . S
C163 O153 1.264 1_556 S
C163 O157 1.248 . S
C164 O154 1.260 . S
C164 O158 1.253 . S
C165 O156 1.279 . S
C165 O159 1.250 . S
O166 Mg148 2.030 . S
O166 C160 1.248 . S
O167 Mg150 2.079 1_655 S
O167 C160 1.264 . S
O168 Mg169 1.990 . S
O168 C182 1.253 . S
Mg169 O168 1.990 . S
Mg169 O172 2.180 . S
Mg169 O173 2.117 1_655 S
Mg169 O187 2.030 . S
O170 Mg171 2.072 . S
O170 C182 1.260 . S
Mg171 O170 2.072 . S
Mg171 O172 2.099 . S
Mg171 O174 2.079 . S
Mg171 O175 2.072 . S
Mg171 O177 2.099 . S
Mg171 O188 2.079 . S
O172 Mg169 2.180 . S
O172 Mg171 2.099 . S
O172 C183 1.279 . S
O173 Mg169 2.117 1_455 S
O173 C183 1.250 1_455 S
O174 Mg171 2.079 . S
O174 C184 1.264 . S
O175 Mg171 2.072 . S
O175 C185 1.260 . S
Mg176 O177 2.180 . S
Mg176 O178 2.030 . S
Mg176 O179 1.990 . S
Mg176 O180 2.117 . S
O177 Mg171 2.099 . S
O177 Mg176 2.180 . S
O177 C186 1.279 . S
O178 Mg176 2.030 . S
O178 C184 1.248 . S
O179 Mg176 1.990 . S
O179 C185 1.253 . S
O180 Mg176 2.117 . S
O180 C186 1.250 . S
C181 O187 1.248 . S
C181 O188 1.264 . S
C182 O168 1.253 . S
C182 O170 1.260 . S
C183 O172 1.279 . S
C183 O173 1.250 1_655 S
C184 O174 1.264 . S
C184 O178 1.248 . S
C185 O175 1.260 . S
C185 O179 1.253 . S
C186 O177 1.279 . S
C186 O180 1.250 . S
O187 Mg169 2.030 . S
O187 C181 1.248 . S
O188 Mg171 2.079 . S
O188 C181 1.264 . S
O189 Mg190 1.990 1_545 S
O189 C203 1.253 . S
Mg190 O189 1.990 1_565 S
Mg190 O193 2.180 . S
Mg190 O194 2.117 . S
Mg190 O208 2.030 1_566 S
O191 Mg192 2.072 . S
O191 C203 1.260 . S
Mg192 O191 2.072 . S
Mg192 O193 2.099 1_545 S
Mg192 O195 2.079 1_445 S
Mg192 O196 2.072 . S
Mg192 O198 2.099 . S
Mg192 O209 2.079 . S
O193 Mg190 2.180 . S
O193 Mg192 2.099 1_565 S
O193 C204 1.279 . S
O194 Mg190 2.117 . S
O194 C204 1.250 . S
O195 Mg192 2.079 1_665 S
O195 C205 1.264 . S
O196 Mg192 2.072 . S
O196 C206 1.260 . S
Mg197 O198 2.180 1_655 S
Mg197 O199 2.030 . S
Mg197 O200 1.990 1_655 S
Mg197 O201 2.117 1_655 S
O198 Mg192 2.099 . S
O198 Mg197 2.180 1_455 S
O198 C207 1.279 . S
O199 Mg197 2.030 . S
O199 C205 1.248 1_545 S
O200 Mg197 1.990 1_455 S
O200 C206 1.253 . S
O201 Mg197 2.117 1_455 S
O201 C207 1.250 . S
C202 O208 1.248 . S
C202 O209 1.264 1_554 S
C203 O189 1.253 . S
C203 O191 1.260 . S
C204 O193 1.279 . S
C204 O194 1.250 . S
C205 O195 1.264 . S
C205 O199 1.248 1_565 S
C206 O196 1.260 . S
C206 O200 1.253 . S
C207 O198 1.279 . S
C207 O201 1.250 . S
O208 Mg190 2.030 1_544 S
O208 C202 1.248 . S
O209 Mg192 2.079 . S
O209 C202 1.264 1_556 S
O210 Mg211 1.990 . S
O210 C224 1.253 . S
Mg211 O210 1.990 . S
Mg211 O214 2.180 . S
Mg211 O215 2.117 . S
Mg211 O229 2.030 . S
O212 Mg213 2.072 . S
O212 C224 1.260 . S
Mg213 O212 2.072 . S
Mg213 O214 2.099 . S
Mg213 O216 2.079 . S
Mg213 O217 2.072 . S
Mg213 O219 2.099 . S
Mg213 O230 2.079 . S
O214 Mg211 2.180 . S
O214 Mg213 2.099 . S
O214 C225 1.279 . S
O215 Mg211 2.117 . S
O215 C225 1.250 . S
O216 Mg213 2.079 . S
O216 C226 1.264 . S
O217 Mg213 2.072 . S
O217 C227 1.260 . S
Mg218 O219 2.180 . S
Mg218 O220 2.030 . S
Mg218 O221 1.990 . S
Mg218 O222 2.117 . S
O219 Mg213 2.099 . S
O219 Mg218 2.180 . S
O219 C228 1.279 . S
O220 Mg218 2.030 . S
O220 C226 1.248 . S
O221 Mg218 1.990 . S
O221 C227 1.253 . S
O222 Mg218 2.117 . S
O222 C228 1.250 . S
C223 O229 1.248 . S
C223 O230 1.264 . S
C224 O210 1.253 . S
C224 O212 1.260 . S
C225 O214 1.279 . S
C225 O215 1.250 . S
C226 O216 1.264 . S
C226 O220 1.248 . S
C227 O217 1.260 . S
C227 O221 1.253 . S
C228 O219 1.279 . S
C228 O222 1.250 . S
O229 Mg211 2.030 . S
O229 C223 1.248 . S
O230 Mg213 2.079 . S
O230 C223 1.264 . S
O231 Mg232 1.990 . S
O231 C245 1.253 . S
Mg232 O231 1.990 . S
Mg232 O235 2.180 . S
Mg232 O236 2.117 . S
Mg232 O250 2.030 . S
O233 Mg234 2.072 . S
O233 C245 1.260 . S
Mg234 O233 2.072 . S
Mg234 O235 2.099 . S
Mg234 O237 2.079 . S
Mg234 O238 2.072 . S
Mg234 O240 2.099 1_565 S
Mg234 O251 2.079 1_565 S
O235 Mg232 2.180 . S
O235 Mg234 2.099 . S
O235 C246 1.279 . S
O236 Mg232 2.117 . S
O236 C246 1.250 . S
O237 Mg234 2.079 . S
O237 C247 1.264 . S
O238 Mg234 2.072 . S
O238 C248 1.260 . S
Mg239 O240 2.180 . S
Mg239 O241 2.030 1_545 S
Mg239 O242 1.990 1_545 S
Mg239 O243 2.117 . S
O240 Mg234 2.099 1_545 S
O240 Mg239 2.180 . S
O240 C249 1.279 . S
O241 Mg239 2.030 1_565 S
O241 C247 1.248 . S
O242 Mg239 1.990 1_565 S
O242 C248 1.253 . S
O243 Mg239 2.117 . S
O243 C249 1.250 . S
C244 O250 1.248 1_545 S
C244 O251 1.264 . S
C245 O231 1.253 . S
C245 O233 1.260 . S
C246 O235 1.279 . S
C246 O236 1.250 . S
C247 O237 1.264 . S
C247 O241 1.248 . S
C248 O238 1.260 . S
C248 O242 1.253 . S
C249 O240 1.279 . S
C249 O243 1.250 . S
O250 Mg232 2.030 . S
O250 C244 1.248 1_565 S
O251 Mg234 2.079 1_545 S
O251 C244 1.264 . S
O252 Mg253 1.990 . S
O252 C266 1.253 . S
Mg253 O252 1.990 . S
Mg253 O256 2.180 . S
Mg253 O257 2.117 1_455 S
Mg253 O271 2.030 . S
O254 Mg255 2.072 . S
O254 C266 1.260 . S
Mg255 O254 2.072 . S
Mg255 O256 2.099 . S
Mg255 O258 2.079 . S
Mg255 O259 2.072 . S
Mg255 O261 2.099 . S
Mg255 O272 2.079 . S
O256 Mg253 2.180 . S
O256 Mg255 2.099 . S
O256 C267 1.279 . S
O257 Mg253 2.117 1_655 S
O257 C267 1.250 1_655 S
O258 Mg255 2.079 . S
O258 C268 1.264 . S
O259 Mg255 2.072 . S
O259 C269 1.260 . S
Mg260 O261 2.180 . S
Mg260 O262 2.030 . S
Mg260 O263 1.990 . S
Mg260 O264 2.117 . S
O261 Mg255 2.099 . S
O261 Mg260 2.180 . S
O261 C270 1.279 . S
O262 Mg260 2.030 . S
O262 C268 1.248 . S
O263 Mg260 1.990 . S
O263 C269 1.253 . S
O264 Mg260 2.117 . S
O264 C270 1.250 . S
C265 O271 1.248 . S
C265 O272 1.264 . S
C266 O252 1.253 . S
C266 O254 1.260 . S
C267 O256 1.279 . S
C267 O257 1.250 1_455 S
C268 O258 1.264 . S
C268 O262 1.248 . S
C269 O259 1.260 . S
C269 O263 1.253 . S
C270 O261 1.279 . S
C270 O264 1.250 . S
O271 Mg253 2.030 . S
O271 C265 1.248 . S
O272 Mg255 2.079 . S
O272 C265 1.264 . S
O273 Mg274 1.990 1_655 S
O273 C287 1.253 . S
Mg274 O273 1.990 1_455 S
Mg274 O277 2.180 1_455 S
Mg274 O278 2.117 1_455 S
Mg274 O292 2.030 . S
O275 Mg276 2.072 . S
O275 C287 1.260 . S
Mg276 O275 2.072 . S
Mg276 O277 2.099 . S
Mg276 O279 2.079 . S
Mg276 O280 2.072 . S
Mg276 O282 2.099 1_565 S
Mg276 O293 2.079 1_665 S
O277 Mg274 2.180 1_655 S
O277 Mg276 2.099 . S
O277 C288 1.279 . S
O278 Mg274 2.117 1_655 S
O278 C288 1.250 . S
O279 Mg276 2.079 . S
O279 C289 1.264 1_554 S
O280 Mg276 2.072 . S
O280 C290 1.260 . S
Mg281 O282 2.180 . S
Mg281 O283 2.030 1_544 S
Mg281 O284 1.990 1_545 S
Mg281 O285 2.117 . S
O282 Mg276 2.099 1_545 S
O282 Mg281 2.180 . S
O282 C291 1.279 . S
O283 Mg281 2.030 1_566 S
O283 C289 1.248 . S
O284 Mg281 1.990 1_565 S
O284 C290 1.253 . S
O285 Mg281 2.117 . S
O285 C291 1.250 . S
C286 O292 1.248 1_545 S
C286 O293 1.264 . S
C287 O273 1.253 . S
C287 O275 1.260 . S
C288 O277 1.279 . S
C288 O278 1.250 . S
C289 O279 1.264 1_556 S
C289 O283 1.248 . S
C290 O280 1.260 . S
C290 O284 1.253 . S
C291 O282 1.279 . S
C291 O285 1.250 . S
O292 Mg274 2.030 . S
O292 C286 1.248 1_565 S
O293 Mg276 2.079 1_445 S
O293 C286 1.264 . S
O294 Mg295 1.990 . S
O294 C308 1.253 . S
Mg295 O294 1.990 . S
Mg295 O298 2.180 . S
Mg295 O299 2.117 . S
Mg295 O313 2.030 . S
O296 Mg297 2.072 . S
O296 C308 1.260 . S
Mg297 O296 2.072 . S
Mg297 O298 2.099 . S
Mg297 O300 2.079 . S
Mg297 O301 2.072 . S
Mg297 O303 2.099 . S
Mg297 O314 2.079 . S
O298 Mg295 2.180 . S
O298 Mg297 2.099 . S
O298 C309 1.279 . S
O299 Mg295 2.117 . S
O299 C309 1.250 . S
O300 Mg297 2.079 . S
O300 C310 1.264 . S
O301 Mg297 2.072 . S
O301 C311 1.260 . S
Mg302 O303 2.180 . S
Mg302 O304 2.030 . S
Mg302 O305 1.990 . S
Mg302 O306 2.117 . S
O303 Mg297 2.099 . S
O303 Mg302 2.180 . S
O303 C312 1.279 . S
O304 Mg302 2.030 . S
O304 C310 1.248 . S
O305 Mg302 1.990 . S
O305 C311 1.253 . S
O306 Mg302 2.117 . S
O306 C312 1.250 . S
C307 O313 1.248 . S
C307 O314 1.264 . S
C308 O294 1.253 . S
C308 O296 1.260 . S
C309 O298 1.279 . S
C309 O299 1.250 . S
C310 O300 1.264 . S
C310 O304 1.248 . S
C311 O301 1.260 . S
C311 O305 1.253 . S
C312 O303 1.279 . S
C312 O306 1.250 . S
O313 Mg295 2.030 . S
O313 C307 1.248 . S
O314 Mg297 2.079 . S
O314 C307 1.264 . S
O315 Mg316 1.990 . S
O315 C329 1.253 . S
Mg316 O315 1.990 . S
Mg316 O319 2.180 . S
Mg316 O320 2.117 . S
Mg316 O334 2.030 . S
O317 Mg318 2.072 . S
O317 C329 1.260 . S
Mg318 O317 2.072 . S
Mg318 O319 2.099 . S
Mg318 O321 2.079 . S
Mg318 O322 2.072 . S
Mg318 O324 2.099 1_545 S
Mg318 O335 2.079 1_545 S
O319 Mg316 2.180 . S
O319 Mg318 2.099 . S
O319 C330 1.279 . S
O320 Mg316 2.117 . S
O320 C330 1.250 . S
O321 Mg318 2.079 . S
O321 C331 1.264 . S
O322 Mg318 2.072 . S
O322 C332 1.260 . S
Mg323 O324 2.180 . S
Mg323 O325 2.030 1_565 S
Mg323 O326 1.990 1_565 S
Mg323 O327 2.117 . S
O324 Mg318 2.099 1_565 S
O324 Mg323 2.180 . S
O324 C333 1.279 . S
O325 Mg323 2.030 1_545 S
O325 C331 1.248 . S
O326 Mg323 1.990 1_545 S
O326 C332 1.253 . S
O327 Mg323 2.117 . S
O327 C333 1.250 . S
C328 O334 1.248 1_565 S
C328 O335 1.264 . S
C329 O315 1.253 . S
C329 O317 1.260 . S
C330 O319 1.279 . S
C330 O320 1.250 . S
C331 O321 1.264 . S
C331 O325 1.248 . S
C332 O322 1.260 . S
C332 O326 1.253 . S
C333 O324 1.279 . S
C333 O327 1.250 . S
O334 Mg316 2.030 . S
O334 C328 1.248 1_545 S
O335 Mg318 2.079 1_565 S
O335 C328 1.264 . S
C16 C268 1.464 . S
C121 C34 1.464 . S
C58 C310 1.464 . S
C79 C163 1.464 1_654 S
C100 C184 1.464 . S
C226 C142 1.464 . S
C289 C202 1.464 1_666 S
C247 C331 1.464 1_565 S
C203 C14 2.075 1_556 S
C38 C227 2.075 . S
C56 C248 2.075 . S
C185 C77 2.075 . S
C290 C98 2.075 1_554 S
C311 C119 2.075 . S
C140 C332 2.075 . S
C269 C161 2.075 . S
C182 C35 2.075 . S
C206 C59 2.075 1_545 S
C224 C80 2.075 1_554 S
C17 C245 2.075 1_545 S
C122 C266 2.075 . S
C287 C143 2.075 1_565 S
C164 C308 2.075 1_554 S
C329 C101 2.075 1_545 S
C15 C225 1.068 . S
C39 C246 1.068 . S
C183 C57 1.068 1_655 S
C78 C207 1.068 1_655 S
C99 C309 1.068 . S
C120 C330 1.068 . S
C267 C141 1.068 1_455 S
C162 C288 1.068 1_455 S
C13 C165 1.136 . S
C270 C37 1.135 . S
C55 C123 1.136 . S
C76 C312 1.135 . S
C97 C81 1.136 . S
C186 C118 1.135 . S
C139 C36 1.136 . S
C228 C160 1.135 . S
C181 C333 1.136 . S
C102 C205 1.136 . S
C291 C223 1.136 . S
C244 C144 1.136 . S
C265 C249 1.136 . S
C286 C18 1.136 . S
C204 C307 1.136 . S
C60 C328 1.136 . S
