# Generated by pormake.
# Topology toc-e, (7)-cn, num edge types: 1
# Building blocks:
#     Node 0, Type 0, BuildingBlock: NUHQUE_clean_sbu_2, # of connection points: 7
#     Node 1, Type 0, BuildingBlock: NUHQUE_clean_sbu_2, # of connection points: 7
#     Node 2, Type 0, BuildingBlock: NUHQUE_clean_sbu_2, # of connection points: 7
#     Node 3, Type 0, BuildingBlock: NUHQUE_clean_sbu_2, # of connection points: 7
#     Node 4, Type 0, BuildingBlock: NUHQUE_clean_sbu_2, # of connection points: 7
#     Node 5, Type 0, BuildingBlock: NUHQUE_clean_sbu_2, # of connection points: 7
#     Node 6, Type 0, BuildingBlock: NUHQUE_clean_sbu_2, # of connection points: 7
#     Node 7, Type 0, BuildingBlock: NUHQUE_clean_sbu_2, # of connection points: 7
#     Node 8, Type 0, BuildingBlock: NUHQUE_clean_sbu_2, # of connection points: 7
#     Node 9, Type 0, BuildingBlock: NUHQUE_clean_sbu_2, # of connection points: 7
#     Node 10, Type 0, BuildingBlock: NUHQUE_clean_sbu_2, # of connection points: 7
#     Node 11, Type 0, BuildingBlock: NUHQUE_clean_sbu_2, # of connection points: 7
#     Node 12, Type 0, BuildingBlock: NUHQUE_clean_sbu_2, # of connection points: 7
#     Node 13, Type 0, BuildingBlock: NUHQUE_clean_sbu_2, # of connection points: 7
#     Node 14, Type 0, BuildingBlock: NUHQUE_clean_sbu_2, # of connection points: 7
#     Node 15, Type 0, BuildingBlock: NUHQUE_clean_sbu_2, # of connection points: 7
#     Node 16, Type 0, BuildingBlock: NUHQUE_clean_sbu_2, # of connection points: 7
#     Node 17, Type 0, BuildingBlock: NUHQUE_clean_sbu_2, # of connection points: 7
#     Node 18, Type 0, BuildingBlock: NUHQUE_clean_sbu_2, # of connection points: 7
#     Node 19, Type 0, BuildingBlock: NUHQUE_clean_sbu_2, # of connection points: 7
#     Node 20, Type 0, BuildingBlock: NUHQUE_clean_sbu_2, # of connection points: 7
#     Node 21, Type 0, BuildingBlock: NUHQUE_clean_sbu_2, # of connection points: 7
#     Node 22, Type 0, BuildingBlock: NUHQUE_clean_sbu_2, # of connection points: 7
#     Node 23, Type 0, BuildingBlock: NUHQUE_clean_sbu_2, # of connection points: 7
#     Edge 24, Type (0, 0), None
#     Edge 25, Type (0, 0), None
#     Edge 26, Type (0, 0), None
#     Edge 27, Type (0, 0), None
#     Edge 28, Type (0, 0), None
#     Edge 29, Type (0, 0), None
#     Edge 30, Type (0, 0), None
#     Edge 31, Type (0, 0), None
#     Edge 32, Type (0, 0), None
#     Edge 33, Type (0, 0), None
#     Edge 34, Type (0, 0), None
#     Edge 35, Type (0, 0), None
#     Edge 36, Type (0, 0), None
#     Edge 37, Type (0, 0), None
#     Edge 38, Type (0, 0), None
#     Edge 39, Type (0, 0), None
#     Edge 40, Type (0, 0), None
#     Edge 41, Type (0, 0), None
#     Edge 42, Type (0, 0), None
#     Edge 43, Type (0, 0), None
#     Edge 44, Type (0, 0), None
#     Edge 45, Type (0, 0), None
#     Edge 46, Type (0, 0), None
#     Edge 47, Type (0, 0), None
#     Edge 48, Type (0, 0), None
#     Edge 49, Type (0, 0), None
#     Edge 50, Type (0, 0), None
#     Edge 51, Type (0, 0), None
#     Edge 52, Type (0, 0), None
#     Edge 53, Type (0, 0), None
#     Edge 54, Type (0, 0), None
#     Edge 55, Type (0, 0), None
#     Edge 56, Type (0, 0), None
#     Edge 57, Type (0, 0), None
#     Edge 58, Type (0, 0), None
#     Edge 59, Type (0, 0), None
#     Edge 60, Type (0, 0), None
#     Edge 61, Type (0, 0), None
#     Edge 62, Type (0, 0), None
#     Edge 63, Type (0, 0), None
#     Edge 64, Type (0, 0), None
#     Edge 65, Type (0, 0), None
#     Edge 66, Type (0, 0), None
#     Edge 67, Type (0, 0), None
#     Edge 68, Type (0, 0), None
#     Edge 69, Type (0, 0), None
#     Edge 70, Type (0, 0), None
#     Edge 71, Type (0, 0), None
#     Edge 72, Type (0, 0), None
#     Edge 73, Type (0, 0), None
#     Edge 74, Type (0, 0), None
#     Edge 75, Type (0, 0), None
#     Edge 76, Type (0, 0), None
#     Edge 77, Type (0, 0), None
#     Edge 78, Type (0, 0), None
#     Edge 79, Type (0, 0), None
#     Edge 80, Type (0, 0), None
#     Edge 81, Type (0, 0), None
#     Edge 82, Type (0, 0), None
#     Edge 83, Type (0, 0), None
#     Edge 84, Type (0, 0), None
#     Edge 85, Type (0, 0), None
#     Edge 86, Type (0, 0), None
#     Edge 87, Type (0, 0), None
#     Edge 88, Type (0, 0), None
#     Edge 89, Type (0, 0), None
#     Edge 90, Type (0, 0), None
#     Edge 91, Type (0, 0), None
#     Edge 92, Type (0, 0), None
#     Edge 93, Type (0, 0), None
#     Edge 94, Type (0, 0), None
#     Edge 95, Type (0, 0), None
#     Edge 96, Type (0, 0), None
#     Edge 97, Type (0, 0), None
#     Edge 98, Type (0, 0), None
#     Edge 99, Type (0, 0), None
#     Edge 100, Type (0, 0), None
#     Edge 101, Type (0, 0), None
#     Edge 102, Type (0, 0), None
#     Edge 103, Type (0, 0), None
#     Edge 104, Type (0, 0), None
#     Edge 105, Type (0, 0), None
#     Edge 106, Type (0, 0), None
#     Edge 107, Type (0, 0), None
# Relax obj value: 0.339
# Max RMSD: 0.248
# Mean RMSD: 0.248
data_MOF--net-toc-e--node1-NUHQUE_clean_sbu_2--edge1-none
_symmetry_space_group_name_H-M    P1
_symmetry_Int_Tables_number       1
_symmetry_cell_setting            triclinic
loop_
_symmetry_equiv_pos_as_xyz
'x, y, z'
_cell_length_a     25.694588
_cell_length_b     25.703763
_cell_length_c     25.697378
_cell_angle_alpha  89.979958
_cell_angle_beta   89.978472
_cell_angle_gamma 90.026681
loop_
_atom_site_label
_atom_site_type_symbol
_atom_site_fract_x
_atom_site_fract_y
_atom_site_fract_z
_atom_type_partial_charge
O0 O 0.2852 0.49226 0.81515 0.0
Tb1 Tb 0.24543 0.43918 0.7613 0.0
Eu2 Eu 0.20266 0.37918 0.66417 0.0
C3 C 0.3363 0.49364 0.8206 0.0
O4 O 0.3659 0.47807 0.78201 0.0
C5 C 0.32039 0.36006 0.70189 0.0
O6 O 0.13635 0.33964 0.62125 0.0
C7 C 0.23394 0.46098 0.61572 0.0
C8 C 1.09285 0.36242 0.60447 0.0
O9 O 1.05418 0.33219 0.59028 0.0
C10 C 0.12476 0.44092 0.73716 0.0
C11 C 0.22002 0.51392 0.60117 0.0
C12 C 0.18234 0.53864 0.632 0.0
C13 C 0.19444 0.58572 0.65634 0.0
C14 C 0.24371 0.60847 0.64587 0.0
C15 C 0.27633 0.58937 0.60553 0.0
C16 C 0.26218 0.54246 0.5819 0.0
O17 O 0.3154 0.40885 0.71877 0.0
O18 O 0.2775 0.33416 0.68754 0.0
O19 O 0.22255 0.35998 0.77862 0.0
O20 O 0.2343 0.4145 0.84054 0.0
C21 C 0.2212 0.36753 0.82859 0.0
O22 O 0.13234 0.39543 0.71553 0.0
O23 O 0.16603 0.47049 0.74638 0.0
O24 O 0.21474 0.42085 0.59044 0.0
O25 O 0.23765 0.45427 0.66621 0.0
H26 H 0.14824 0.5171 0.6445 0.0
H27 H 0.25875 0.63699 0.67227 0.0
H28 H 0.29086 0.52252 0.55809 0.0
O29 O 0.70218 0.78478 0.31534 0.0
Tb30 Tb 0.75527 0.74505 0.26144 0.0
Eu31 Eu 0.81535 0.7024 0.16425 0.0
C32 C 0.70079 0.83586 0.32077 0.0
O33 O 0.71636 0.86546 0.28216 0.0
C34 C 0.83439 0.8201 0.20202 0.0
O35 O 0.85492 0.63616 0.12129 0.0
C36 C 0.73359 0.73358 0.11575 0.0
C37 C 0.83213 0.59269 0.10446 0.0
O38 O 0.86237 0.55407 1.09022 0.0
C39 C 0.75359 0.6244 0.23726 0.0
C40 C 0.68069 0.71957 0.10107 0.0
C41 C 0.65591 0.68186 0.13186 0.0
C42 C 0.60877 0.6939 0.15616 0.0
C43 C 0.58604 0.74313 0.14567 0.0
C44 C 0.60519 0.77577 0.10535 0.0
C45 C 0.65214 0.76167 1.08175 0.0
O46 O 0.78557 0.81503 0.21888 0.0
O47 O 0.86034 0.77726 0.18767 0.0
O48 O 0.8345 0.7223 0.27872 0.0
O49 O 0.77994 0.73396 0.34066 0.0
C50 C 0.82693 0.72094 0.32869 0.0
O51 O 0.79908 0.63204 0.21555 0.0
O52 O 0.72401 0.66562 0.24656 0.0
O53 O 0.77381 0.71451 1.0905 0.0
O54 O 0.74018 0.73722 0.16625 0.0
H55 H 0.67745 0.64781 0.14439 0.0
H56 H 0.5575 0.75813 0.17209 0.0
H57 H 0.67213 0.79036 1.05796 0.0
O58 O 0.40954 0.20193 0.81521 0.0
Tb59 Tb 0.44935 0.25502 0.76133 0.0
Eu60 Eu 0.49217 0.31502 0.66413 0.0
C61 C 0.35844 0.20055 0.82066 0.0
O62 O 0.32887 0.21614 0.78207 0.0
C63 C 0.37445 0.33413 0.70189 0.0
O64 O 0.55854 0.35452 0.62117 0.0
C65 C 0.46089 0.23327 0.61569 0.0
C66 C 0.60202 0.33171 0.60438 0.0
O67 O 0.64072 0.36192 0.59016 0.0
C68 C 0.57005 0.25326 0.73715 0.0
C69 C 0.47483 0.18037 0.60105 0.0
C70 C 0.51253 0.1556 0.63182 0.0
C71 C 0.50044 0.10847 0.65611 0.0
C72 C 0.45117 1.08573 0.64564 0.0
C73 C 0.41855 0.10489 0.60535 0.0
C74 C 0.43269 0.15184 0.58176 0.0
O75 O 0.37943 0.28534 0.71877 0.0
O76 O 0.41734 0.36004 0.68753 0.0
O77 O 0.47222 0.33421 0.77862 0.0
O78 O 0.4604 0.27967 0.84056 0.0
C79 C 0.4735 0.32665 0.82859 0.0
O80 O 0.56248 0.29874 0.71545 0.0
O81 O 0.52877 0.2237 0.74644 0.0
O82 O 0.48003 0.27345 0.5904 0.0
O83 O 0.45724 0.23989 0.66619 0.0
H84 H 0.5466 0.17713 0.64434 0.0
H85 H 0.43613 1.05719 0.67206 0.0
H86 H 0.40401 0.17182 0.55798 0.0
O87 O 0.9925 0.90944 0.31527 0.0
Tb88 Tb 0.93943 0.9492 0.26139 0.0
Eu89 Eu 0.87933 0.99192 0.16431 0.0
C90 C 0.9939 0.85835 0.32069 0.0
O91 O 0.97834 0.82878 0.2821 0.0
C92 C 0.86029 0.87419 0.20203 0.0
O93 O 0.83965 1.05813 0.12139 0.0
C94 C 0.96111 0.96076 0.11578 0.0
C95 C 0.86239 0.10165 0.10456 0.0
O96 O 0.83212 0.14025 1.09036 0.0
C97 C 0.94114 1.06988 0.23722 0.0
C98 C 1.01404 0.97473 0.10113 0.0
C99 C 1.03881 1.01242 0.13191 0.0
C100 C 1.0859 1.00033 0.15625 0.0
C101 C 0.10862 0.95108 0.1458 0.0
C102 C 1.08948 0.91846 0.1055 0.0
C103 C 1.04257 0.9326 1.08186 0.0
O104 O 0.90911 0.87924 0.21888 0.0
O105 O 0.83434 0.91703 0.18772 0.0
O106 O 0.8602 0.97197 0.27871 0.0
O107 O 0.91475 0.96026 0.34062 0.0
C108 C 0.86776 0.9733 0.32868 0.0
O109 O 0.89563 1.06226 0.21558 0.0
O110 O 0.97072 1.02864 0.24647 0.0
O111 O 0.92092 0.97989 1.09054 0.0
O112 O 0.95447 0.95706 0.16628 0.0
H113 H 1.01729 1.04648 0.1444 0.0
H114 H 0.13713 0.93606 0.17223 0.0
H115 H 1.02259 0.90392 1.05808 0.0
O116 O 0.28503 0.20195 0.87931 0.0
Tb117 Tb 0.24529 0.25504 0.93316 0.0
Eu118 Eu 0.20251 0.31506 1.0303 0.0
C119 C 0.33613 0.20054 0.87389 0.0
O120 O 0.36574 0.21611 0.91246 0.0
C121 C 0.32027 0.33414 0.99257 0.0
O122 O 0.13624 0.35469 1.07319 0.0
C123 C 0.23373 0.23331 1.0788 0.0
C124 C 1.0927 0.33194 1.08997 0.0
O125 O 1.05405 0.36219 0.10414 0.0
C126 C 0.12459 0.25327 0.95735 0.0
C127 C 0.21977 0.18039 1.09346 0.0
C128 C 0.18207 0.15561 1.06269 0.0
C129 C 0.19415 0.10851 1.03839 0.0
C130 C 0.24341 1.0858 1.04886 0.0
C131 C 0.27605 0.10496 1.08914 0.0
C132 C 0.26192 0.15188 0.11274 0.0
O133 O 0.31524 0.28534 0.97572 0.0
O134 O 0.2774 0.36006 1.00688 0.0
O135 O 0.22247 0.33423 0.91586 0.0
O136 O 0.23431 0.27973 0.85392 0.0
C137 C 0.22126 0.3267 0.86589 0.0
O138 O 0.13218 0.29876 0.97901 0.0
O139 O 0.16585 0.22372 0.94808 0.0
O140 O 0.21459 0.27348 0.10406 0.0
O141 O 0.2374 0.23995 1.0283 0.0
H142 H 0.148 0.17713 1.05017 0.0
H143 H 0.25843 1.05726 1.02246 0.0
H144 H 0.29061 0.17187 0.1365 0.0
O145 O 0.99253 0.78493 0.37932 0.0
Tb146 Tb 0.93945 0.74511 0.43321 0.0
Eu147 Eu 0.87939 0.7023 0.53037 0.0
C148 C 0.99393 0.83603 0.37392 0.0
O149 O 0.97836 0.86559 0.41252 0.0
C150 C 0.86031 0.82002 0.49264 0.0
O151 O 0.83985 0.63599 0.57334 0.0
C152 C 0.96116 0.73354 0.57885 0.0
C153 C 0.86265 0.59253 0.59017 0.0
O154 O 0.83242 0.55387 0.60442 0.0
C155 C 0.94117 0.62442 0.45735 0.0
C156 C 1.01406 0.71957 0.59352 0.0
C157 C 1.03883 0.68189 0.56274 0.0
C158 C 1.08596 0.69399 0.53841 0.0
C159 C 0.10869 0.74325 0.54887 0.0
C160 C 1.08955 0.77584 0.58919 0.0
C161 C 1.04261 0.76169 0.61281 0.0
O162 O 0.90913 0.81502 0.47577 0.0
O163 O 0.83437 0.77714 0.50699 0.0
O164 O 0.86022 0.72225 0.41595 0.0
O165 O 0.91477 0.73411 0.35398 0.0
C166 C 0.86777 0.72105 0.36598 0.0
O167 O 0.89568 0.63199 0.47907 0.0
O168 O 0.97074 0.66568 0.44805 0.0
O169 O 0.92094 0.71442 0.60412 0.0
O170 O 0.95455 0.7372 0.52835 0.0
H171 H 1.01729 0.64783 0.55022 0.0
H172 H 0.13721 0.75829 0.52243 0.0
H173 H 1.02263 0.79035 0.6366 0.0
O174 O 0.40967 0.49223 0.87924 0.0
Tb175 Tb 0.44937 0.43913 0.93312 0.0
Eu176 Eu 0.49206 0.37914 1.03036 0.0
C177 C 0.35857 0.49365 0.87383 0.0
O178 O 0.32893 0.47807 0.9124 0.0
C179 C 0.37435 0.36005 0.99258 0.0
O180 O 0.55836 0.33963 1.07329 0.0
C181 C 0.46083 0.46088 1.07883 0.0
C182 C 0.60186 0.36243 1.09008 0.0
O183 O 0.64052 0.33223 0.10428 0.0
C184 C 0.57004 0.44087 0.95731 0.0
C185 C 0.47483 0.51377 1.09349 0.0
C186 C 0.51256 0.53855 1.06272 0.0
C187 C 0.50053 0.5857 1.03846 0.0
C188 C 0.45129 0.60844 1.04897 0.0
C189 C 0.41862 0.58926 1.08925 0.0
C190 C 0.43271 0.5423 0.11282 0.0
O191 O 0.3794 0.40885 0.97571 0.0
O192 O 0.41721 0.33413 1.00694 0.0
O193 O 0.47218 0.35993 0.91585 0.0
O194 O 0.46039 0.41445 0.85389 0.0
C195 C 0.47341 0.36748 0.86588 0.0
O196 O 0.56242 0.3954 0.97903 0.0
O197 O 0.5288 0.47043 0.948 0.0
O198 O 0.47991 0.42069 0.1041 0.0
O199 O 0.45721 0.45427 1.02832 0.0
H200 H 0.5466 0.51701 1.05016 0.0
H201 H 0.4363 0.63699 1.02257 0.0
H202 H 0.404 0.52232 0.13659 0.0
O203 O 0.70217 0.90924 0.37939 0.0
Tb204 Tb 0.75524 0.94903 0.43325 0.0
Eu205 Eu 0.81531 0.99179 0.53032 0.0
C206 C 0.70076 0.85815 0.37399 0.0
O207 O 0.71631 0.82856 0.41258 0.0
C208 C 0.83439 0.87408 0.49263 0.0
O209 O 0.85491 1.05805 0.57325 0.0
C210 C 0.73349 0.96056 0.57881 0.0
C211 C 0.83215 0.10153 0.59006 0.0
O212 O 0.86241 0.14016 0.60426 0.0
C213 C 0.75353 1.0697 0.45735 0.0
C214 C 0.68055 0.9745 0.59339 0.0
C215 C 0.65582 1.01216 0.56255 0.0
C216 C 0.60875 1.00004 0.53817 0.0
C217 C 0.58601 0.95078 0.54862 0.0
C218 C 0.6051 0.91819 0.58898 0.0
C219 C 0.65199 0.93235 0.61265 0.0
O220 O 0.78558 0.87908 0.47577 0.0
O221 O 0.86032 0.91695 0.50697 0.0
O222 O 0.83446 0.9719 0.41595 0.0
O223 O 0.77993 0.96011 0.35401 0.0
C224 C 0.82692 0.97317 0.36598 0.0
O225 O 0.79904 1.06211 0.47899 0.0
O226 O 0.72394 1.02844 0.44813 0.0
O227 O 0.77365 0.97975 0.60407 0.0
O228 O 0.74018 0.95683 0.52833 0.0
H229 H 0.67736 1.04625 0.55006 0.0
H230 H 0.55751 0.93573 0.52219 0.0
H231 H 0.67193 0.90369 0.63647 0.0
O232 O 0.81531 0.28477 0.49241 0.0
Tb233 Tb 0.76144 0.245 0.43935 0.0
Eu234 Eu 0.66435 0.20224 0.37926 0.0
C235 C 0.82074 0.33586 0.49381 0.0
O236 O 0.78214 0.36543 0.47824 0.0
C237 C 0.70206 0.31999 0.36022 0.0
O238 O 0.62143 0.13601 0.3396 0.0
C239 C 0.61583 0.23342 0.46104 0.0
C240 C 0.60462 1.09249 0.36234 0.0
O241 O 0.59043 1.05387 0.33208 0.0
C242 C 0.73727 0.12432 0.44107 0.0
C243 C 0.60118 0.21946 0.51397 0.0
C244 C 0.63197 0.18178 0.53874 0.0
C245 C 0.65633 0.19387 0.58582 0.0
C246 C 0.64588 0.24312 0.60854 0.0
C247 C 0.60558 0.27572 0.58939 0.0
C248 C 0.58192 0.26159 0.5425 0.0
O249 O 0.71891 0.31495 0.40902 0.0
O250 O 0.68775 0.27713 0.33427 0.0
O251 O 0.77876 0.22222 0.36014 0.0
O252 O 0.84068 0.23394 0.41468 0.0
C253 C 0.82873 0.22089 0.36769 0.0
O254 O 0.71563 0.13192 0.39557 0.0
O255 O 0.74652 0.16556 0.47064 0.0
O256 O 0.59058 0.21428 0.42086 0.0
O257 O 0.66633 0.23712 0.45439 0.0
H258 H 0.64446 0.14771 0.51721 0.0
H259 H 0.67231 0.25814 0.63706 0.0
H260 H 0.55814 0.29027 0.52253 0.0
O261 O 0.90953 0.31497 0.99244 0.0
Tb262 Tb 0.94929 0.26113 0.93936 0.0
Eu263 Eu 0.99206 0.16401 0.87933 0.0
C264 C 0.85843 0.32042 0.99382 0.0
O265 O 0.82882 0.28185 0.97822 0.0
C266 C 0.87434 0.20173 0.86022 0.0
O267 O 1.05835 0.1211 0.83977 0.0
C268 C 0.96077 0.11555 0.96113 0.0
C269 C 0.10184 0.1043 0.86255 0.0
O270 O 0.1405 1.09011 0.83231 0.0
C271 C 1.06997 0.23699 0.94109 0.0
C272 C 0.9747 0.10097 1.01407 0.0
C273 C 1.01238 0.13179 1.03882 0.0
C274 C 1.00026 0.15613 1.0859 0.0
C275 C 0.95098 0.14565 0.10864 0.0
C276 C 0.91839 0.10532 1.08951 0.0
C277 C 0.93253 1.08169 1.04261 0.0
O278 O 0.87933 0.2186 0.90903 0.0
O279 O 0.91722 0.18739 0.83431 0.0
O280 O 0.97216 0.27846 0.86015 0.0
O281 O 0.96044 0.34035 0.91469 0.0
C282 C 0.97352 0.32841 0.86771 0.0
O283 O 1.06238 0.21535 0.89559 0.0
O284 O 1.0287 0.2462 0.97067 0.0
O285 O 0.97997 1.09029 0.92098 0.0
O286 O 0.95708 0.16602 0.95444 0.0
H287 H 1.04647 0.14429 1.01728 0.0
H288 H 0.93593 0.17206 0.13715 0.0
H289 H 0.90385 1.05788 1.02265 0.0
O290 O 0.87937 0.40929 0.49244 0.0
Tb291 Tb 0.93327 0.44912 0.43937 0.0
Eu292 Eu 1.03044 0.49192 0.37931 0.0
C293 C 0.87397 0.35819 0.49384 0.0
O294 O 0.91257 0.32863 0.47828 0.0
C295 C 0.9927 0.3742 0.36023 0.0
O296 O 1.07342 0.55823 0.33978 0.0
C297 C 1.07893 0.46068 0.46107 0.0
C298 C 1.09024 0.6017 0.36258 0.0
O299 O 0.10448 0.64037 0.33236 0.0
C300 C 0.95743 0.5698 0.44109 0.0
C301 C 1.0936 0.47466 0.51397 0.0
C302 C 1.06282 0.51234 0.53874 0.0
C303 C 1.0385 0.50025 0.58587 0.0
C304 C 1.04895 0.451 0.60861 0.0
C305 C 1.08926 0.41841 0.58944 0.0
C306 C 0.11289 0.43254 0.54251 0.0
O307 O 0.97583 0.3792 0.40904 0.0
O308 O 1.00705 0.41708 0.3343 0.0
O309 O 0.91599 0.47194 0.36016 0.0
O310 O 0.85404 0.46016 0.41471 0.0
C311 C 0.86601 0.47324 0.36772 0.0
O312 O 0.97914 0.56223 0.3956 0.0
O313 O 0.94813 0.52854 0.47066 0.0
O314 O 0.1042 0.4798 0.42086 0.0
O315 O 1.02842 0.45702 0.45447 0.0
H316 H 1.0503 0.5464 0.5172 0.0
H317 H 1.02252 0.43596 0.63714 0.0
H318 H 0.13668 0.40386 0.52253 0.0
O319 O 0.78507 0.37906 0.99243 0.0
Tb320 Tb 0.74535 0.43293 0.93933 0.0
Eu321 Eu 0.70267 0.53016 0.8793 0.0
C322 C 0.83617 0.37364 0.99383 0.0
O323 O 0.86581 0.41221 0.97824 0.0
C324 C 0.82037 0.49237 0.86023 0.0
O325 O 0.63638 0.57309 0.83978 0.0
C326 C 0.73391 0.57864 0.96105 0.0
C327 C 0.59291 0.58991 0.86259 0.0
O328 O 0.55425 0.60413 0.83237 0.0
C329 C 0.62468 0.45713 0.94105 0.0
C330 C 0.71992 0.59331 1.01395 0.0
C331 C 0.6822 0.56254 1.03874 0.0
C332 C 0.69424 0.53827 1.08589 0.0
C333 C 0.74349 0.54878 0.10863 0.0
C334 C 0.77613 0.58908 1.08943 0.0
C335 C 0.76204 0.61265 1.04248 0.0
O336 O 0.81532 0.47551 0.90904 0.0
O337 O 0.77752 0.50673 0.8343 0.0
O338 O 0.72257 0.41564 0.86011 0.0
O339 O 0.73426 0.35372 0.91467 0.0
C340 C 0.72122 0.36568 0.86768 0.0
O341 O 0.63231 0.47884 0.89557 0.0
O342 O 0.66592 0.44783 0.97062 0.0
O343 O 0.71482 0.60389 0.92084 0.0
O344 O 0.73753 0.52814 0.95445 0.0
H345 H 0.64814 0.54998 1.0172 0.0
H346 H 0.75851 0.52239 0.13717 0.0
H347 H 0.79074 0.63643 1.02249 0.0
O348 O 0.81539 0.40938 0.20212 0.0
Tb349 Tb 0.76149 0.4491 0.25521 0.0
Eu350 Eu 0.66429 0.49177 0.31526 0.0
C351 C 0.82082 0.3583 0.20072 0.0
O352 O 0.78221 0.3287 0.2163 0.0
C353 C 0.70205 0.37407 0.33431 0.0
O354 O 0.62133 0.55802 0.3548 0.0
C355 C 0.6158 0.46058 0.23349 0.0
C356 C 0.60451 0.60149 0.33201 0.0
O357 O 0.59028 0.64012 0.36224 0.0
C358 C 0.73733 0.56976 0.25352 0.0
C359 C 0.60114 0.47459 0.1806 0.0
C360 C 0.63195 0.51231 0.15583 0.0
C361 C 0.65626 0.50028 0.1087 0.0
C362 C 0.64577 0.45105 1.08595 0.0
C363 C 0.60545 0.41841 0.10511 0.0
C364 C 0.58182 0.43249 0.15204 0.0
O365 O 0.71892 0.37913 0.2855 0.0
O366 O 0.68769 0.41691 0.36025 0.0
O367 O 0.77875 0.47188 0.33443 0.0
O368 O 0.84072 0.46013 0.27989 0.0
C369 C 0.82872 0.47314 0.32688 0.0
O370 O 0.71561 0.56212 0.299 0.0
O371 O 0.74664 0.52853 0.22394 0.0
O372 O 0.59053 0.47966 0.2737 0.0
O373 O 0.6663 0.45693 0.2401 0.0
H374 H 0.64448 0.54635 0.17738 0.0
H375 H 0.67219 0.43605 1.05741 0.0
H376 H 0.55802 0.40379 0.17201 0.0
O377 O 0.78517 0.31504 0.70208 0.0
Tb378 Tb 0.74537 0.26117 0.75518 0.0
Eu379 Eu 0.70254 0.16399 0.81521 0.0
C380 C 0.83628 0.32049 0.70071 0.0
O381 O 0.86586 0.28193 0.71632 0.0
C382 C 0.82027 0.20173 0.8343 0.0
O383 O 0.63621 0.12104 0.85476 0.0
C384 C 0.73382 0.11552 0.73346 0.0
C385 C 0.59273 0.10422 0.83195 0.0
O386 O 0.55404 1.08999 0.86218 0.0
C387 C 0.62466 0.237 0.75342 0.0
C388 C 0.71986 0.10084 0.68056 0.0
C389 C 0.68218 0.13161 0.65577 0.0
C390 C 0.69428 0.15591 0.60864 0.0
C391 C 0.74355 0.14544 0.58591 0.0
C392 C 0.77615 0.10514 0.60509 0.0
C393 C 0.76201 1.08155 0.65203 0.0
O394 O 0.81529 0.2186 0.78549 0.0
O395 O 0.77738 0.18739 0.86023 0.0
O396 O 0.7225 0.27844 0.83439 0.0
O397 O 0.7344 0.34038 0.77986 0.0
C398 C 0.72132 0.3284 0.82684 0.0
O399 O 0.63222 0.21528 0.7989 0.0
O400 O 0.66594 0.2463 0.72386 0.0
O401 O 0.71468 1.09026 0.77367 0.0
O402 O 0.73747 0.16601 0.74006 0.0
H403 H 0.6481 0.14413 0.6773 0.0
H404 H 0.75861 0.17185 0.55738 0.0
H405 H 0.79068 1.05778 0.67202 0.0
O406 O 0.87944 0.28493 0.20211 0.0
Tb407 Tb 0.93331 0.24517 0.25518 0.0
Eu408 Eu 1.0304 0.20242 0.31523 0.0
C409 C 0.87405 0.33602 0.20069 0.0
O410 O 0.91264 0.36562 0.21623 0.0
C411 C 0.9927 0.32014 0.33431 0.0
O412 O 1.07333 0.13617 0.35482 0.0
C413 C 1.07889 0.23365 0.23342 0.0
C414 C 1.09014 1.09269 0.33206 0.0
O415 O 0.10435 1.05406 0.36232 0.0
C416 C 0.95741 0.1245 0.25348 0.0
C417 C 1.09346 0.2197 0.18048 0.0
C418 C 1.06261 0.18202 0.15576 0.0
C419 C 1.03823 0.19412 0.10868 0.0
C420 C 1.0487 0.24337 1.08593 0.0
C421 C 1.08905 0.27597 0.10503 0.0
C422 C 0.11272 0.26184 0.15192 0.0
O423 O 0.97583 0.31512 0.28551 0.0
O424 O 1.00704 0.27727 0.36024 0.0
O425 O 0.91601 0.2223 0.3344 0.0
O426 O 0.85406 0.23407 0.27987 0.0
C427 C 0.86604 0.22102 0.32685 0.0
O428 O 0.97906 0.1321 0.29898 0.0
O429 O 0.94819 0.16576 0.22389 0.0
O430 O 0.10415 0.21447 0.27357 0.0
O431 O 1.0284 0.23737 0.24011 0.0
H432 H 1.05012 0.14794 0.17731 0.0
H433 H 1.02227 0.2584 1.05742 0.0
H434 H 0.13655 0.29052 0.17185 0.0
O435 O 0.90969 0.37915 0.7021 0.0
Tb436 Tb 0.94944 0.43299 0.75521 0.0
Eu437 Eu 0.99221 0.53009 0.81527 0.0
C438 C 0.85858 0.37372 0.70069 0.0
O439 O 0.82897 0.41227 0.71627 0.0
C440 C 0.87446 0.49236 0.83432 0.0
O441 O 1.05847 0.57298 0.85493 0.0
C442 C 0.961 0.57861 0.73351 0.0
C443 C 0.102 0.58979 0.83218 0.0
O444 O 0.14064 0.60398 0.86244 0.0
C445 C 1.07014 0.45717 0.75345 0.0
C446 C 0.97495 0.59328 0.68058 0.0
C447 C 1.01264 0.56252 0.65579 0.0
C448 C 1.00054 0.53821 0.60869 0.0
C449 C 0.95127 0.54867 0.58598 0.0
C450 C 0.91866 0.58895 0.60516 0.0
C451 C 0.9328 0.61256 0.65207 0.0
O452 O 0.87949 0.47552 0.78551 0.0
O453 O 0.91733 0.50667 0.86026 0.0
O454 O 0.97225 0.41568 0.83442 0.0
O455 O 0.96041 0.35376 0.77989 0.0
C456 C 0.97346 0.36572 0.82687 0.0
O457 O 1.06255 0.47883 0.79894 0.0
O458 O 1.02888 0.44791 0.72389 0.0
O459 O 0.98014 0.60385 0.77369 0.0
O460 O 0.95732 0.52812 0.74013 0.0
H461 H 1.04672 0.55001 0.6773 0.0
H462 H 0.93624 0.52228 0.55745 0.0
H463 H 0.90411 0.63632 0.67206 0.0
O464 O 0.49251 0.81515 0.28498 0.0
Tb465 Tb 0.43942 0.76127 0.24526 0.0
Eu466 Eu 0.37936 0.66405 0.20258 0.0
C467 C 0.49389 0.82059 0.33608 0.0
O468 O 0.47829 0.78201 0.36569 0.0
C469 C 0.3603 0.70184 0.32028 0.0
O470 O 0.33981 0.62112 0.1363 0.0
C471 C 0.4611 0.61555 0.2338 0.0
C472 C 0.36262 0.60427 1.09284 0.0
O473 O 0.33241 0.59006 1.05417 0.0
C474 C 0.44112 0.73707 0.12459 0.0
C475 C 0.514 0.60086 0.2198 0.0
C476 C 0.5388 0.63164 0.18209 0.0
C477 C 0.58594 0.65592 0.19414 0.0
C478 C 0.60868 0.64541 0.24338 0.0
C479 C 0.58949 0.60511 0.27601 0.0
C480 C 0.54253 0.58152 0.26191 0.0
O481 O 0.40912 0.7187 0.31522 0.0
O482 O 0.33436 0.68748 0.27743 0.0
O483 O 0.36019 0.77855 0.22248 0.0
O484 O 0.41475 0.84047 0.23417 0.0
C485 C 0.36776 0.82851 0.22114 0.0
O486 O 0.39564 0.71535 0.13222 0.0
O487 O 0.4707 0.74637 0.16583 0.0
O488 O 0.42088 0.59031 0.21472 0.0
O489 O 0.45452 0.66605 0.23743 0.0
H490 H 0.51726 0.64419 0.14803 0.0
H491 H 0.63723 0.67181 0.2584 0.0
H492 H 0.52254 0.55774 0.29061 0.0
O493 O 0.49253 0.87922 0.40946 0.0
Tb494 Tb 0.43945 0.93306 0.44923 0.0
Eu495 Eu 0.37939 1.03014 0.492 0.0
C496 C 0.49393 0.87381 0.35835 0.0
O497 O 0.47836 0.91238 0.32874 0.0
C498 C 0.3603 0.99243 0.37427 0.0
O499 O 0.33978 1.07304 0.55827 0.0
C500 C 0.46119 1.07863 0.46073 0.0
C501 C 0.36254 1.08987 0.60175 0.0
O502 O 0.3323 0.10404 0.64042 0.0
C503 C 0.44117 0.9572 0.5699 0.0
C504 C 0.51414 1.09321 0.47466 0.0
C505 C 0.53889 1.06239 0.51233 0.0
C506 C 0.58596 1.03801 0.5002 0.0
C507 C 0.60869 1.04848 0.45092 0.0
C508 C 0.58958 1.08882 0.41834 0.0
C509 C 0.54269 0.11248 0.43249 0.0
O510 O 0.40911 0.97558 0.37928 0.0
O511 O 0.33437 1.00676 0.41715 0.0
O512 O 0.36023 0.91573 0.4721 0.0
O513 O 0.41478 0.85384 0.46039 0.0
C514 C 0.36779 0.86578 0.47346 0.0
O515 O 0.39566 0.97882 0.56232 0.0
O516 O 0.47076 0.948 0.52864 0.0
O517 O 0.42104 0.10388 0.47994 0.0
O518 O 0.45451 1.02816 0.45702 0.0
H519 H 0.51736 1.0499 0.54643 0.0
H520 H 0.63719 1.02207 0.43586 0.0
H521 H 0.52273 0.13629 0.40382 0.0
O522 O 0.31532 0.99226 0.90949 0.0
Tb523 Tb 0.26143 0.93918 0.94929 0.0
Eu524 Eu 0.16422 0.87916 0.9921 0.0
C525 C 0.32076 0.99364 0.85838 0.0
O526 O 0.28216 0.97806 0.82882 0.0
C527 C 0.20198 0.86006 0.87437 0.0
O528 O 0.12126 0.83966 1.05846 0.0
C529 C 0.11576 0.96091 0.96083 0.0
C530 C 0.10446 0.86247 0.10193 0.0
O531 O 1.09027 0.83228 0.14065 0.0
C532 C 0.23724 0.94092 1.06998 0.0
C533 C 0.10111 1.0138 0.9748 0.0
C534 C 0.13188 1.03857 1.01249 0.0
C535 C 0.15619 1.0857 1.00042 0.0
C536 C 0.14572 0.10844 0.95116 0.0
C537 C 0.10542 1.08927 0.91855 0.0
C538 C 1.08181 1.04233 0.93266 0.0
O539 O 0.21886 0.90886 0.87936 0.0
O540 O 0.18761 0.83415 0.91726 0.0
O541 O 0.27871 0.85999 0.97214 0.0
O542 O 0.34066 0.91452 0.96033 0.0
C543 C 0.32868 0.86754 0.97343 0.0
O544 O 0.21554 0.89544 1.0624 0.0
O545 O 0.24654 0.97048 1.02871 0.0
O546 O 1.09047 0.92071 0.97996 0.0
O547 O 0.16627 0.95429 0.95718 0.0
H548 H 0.14441 1.01703 1.04656 0.0
H549 H 0.17213 0.13699 0.93613 0.0
H550 H 1.05804 1.02236 0.90398 0.0
O551 O 0.20218 0.81505 0.40961 0.0
Tb552 Tb 0.25527 0.76121 0.44936 0.0
Eu553 Eu 0.31536 0.66413 0.49211 0.0
C554 C 0.20079 0.8205 0.35851 0.0
O555 O 0.21637 0.78194 0.32892 0.0
C556 C 0.3344 0.70185 0.37436 0.0
O557 O 0.35506 0.62125 0.55834 0.0
C558 C 0.23359 0.61559 0.46092 0.0
C559 C 0.33232 0.60442 0.60187 0.0
O560 O 0.36258 0.59026 0.64051 0.0
C561 C 0.25353 0.73703 0.57005 0.0
C562 C 0.18066 0.60093 0.47487 0.0
C563 C 0.15587 0.6317 0.51256 0.0
C564 C 0.10878 0.65603 0.50045 0.0
C565 C 1.08606 0.64557 0.45119 0.0
C566 C 0.10523 0.60528 0.41858 0.0
C567 C 0.15214 0.58166 0.43272 0.0
O568 O 0.28558 0.71868 0.3794 0.0
O569 O 0.36035 0.68755 0.41723 0.0
O570 O 0.33449 0.77852 0.47217 0.0
O571 O 0.27996 0.84043 0.46036 0.0
C572 C 0.32695 0.82847 0.4734 0.0
O573 O 0.29903 0.71539 0.56245 0.0
O574 O 0.22396 0.74629 0.5288 0.0
O575 O 0.27378 0.59037 0.48007 0.0
O576 O 0.24022 0.66608 0.45722 0.0
H577 H 0.17739 0.6442 0.54664 0.0
H578 H 1.05754 0.67197 0.43616 0.0
H579 H 0.17212 0.55789 0.40404 0.0
O580 O 0.37931 0.70196 0.90957 0.0
Tb581 Tb 0.4332 0.75506 0.94928 0.0
Eu582 Eu 0.53045 0.81505 0.99198 0.0
C583 C 0.37387 0.70057 0.85848 0.0
O584 O 0.41247 0.71615 0.82887 0.0
C585 C 0.49267 0.83414 0.87427 0.0
O586 O 0.57339 0.85456 1.05828 0.0
C587 C 0.57892 0.73331 0.96076 0.0
C588 C 0.5902 0.83176 0.10176 0.0
O589 O 0.60438 0.86195 0.14045 0.0
C590 C 0.45738 0.75333 1.06995 0.0
C591 C 0.59358 0.68043 0.97476 0.0
C592 C 0.56279 0.65566 1.01248 0.0
C593 C 0.53852 0.60851 1.00047 0.0
C594 C 0.54903 0.58575 0.95123 0.0
C595 C 0.58932 0.60494 0.91858 0.0
C596 C 0.61291 0.65189 0.93265 0.0
O597 O 0.47579 0.78534 0.87932 0.0
O598 O 0.50704 0.86006 0.91713 0.0
O599 O 0.41595 0.83425 0.97209 0.0
O600 O 0.35397 0.77974 0.96031 0.0
C601 C 0.36597 0.82671 0.97333 0.0
O602 O 0.47911 0.79879 1.06233 0.0
O603 O 0.44807 0.72377 1.02871 0.0
O604 O 0.60419 0.77351 0.97984 0.0
O605 O 0.52841 0.73992 0.95713 0.0
H606 H 0.55024 0.6772 1.04653 0.0
H607 H 0.52263 0.55719 0.93624 0.0
H608 H 0.63669 0.67187 0.90394 0.0
O609 O 0.20215 0.87914 0.2851 0.0
Tb610 Tb 0.25525 0.93301 0.24529 0.0
Eu611 Eu 0.3153 1.03019 0.20249 0.0
C612 C 0.20075 0.87372 0.33621 0.0
O613 O 0.21634 0.91229 0.36579 0.0
C614 C 0.33438 0.99244 0.32021 0.0
O615 O 0.35486 1.07314 0.13617 0.0
C616 C 0.23356 1.07868 0.23376 0.0
C617 C 0.33206 1.08999 1.09271 0.0
O618 O 0.36227 0.10421 1.05401 0.0
C619 C 0.25351 0.95718 0.1246 0.0
C620 C 0.18066 1.09336 0.21979 0.0
C621 C 0.15586 1.06259 0.18211 0.0
C622 C 0.10872 1.03829 0.19421 0.0
C623 C 1.08599 1.04876 0.24347 0.0
C624 C 0.10517 1.08907 0.27606 0.0
C625 C 0.15212 0.11267 0.26192 0.0
O626 O 0.28556 0.97558 0.31521 0.0
O627 O 0.36032 1.00678 0.27733 0.0
O628 O 0.33447 0.91575 0.22243 0.0
O629 O 0.27993 0.8538 0.23431 0.0
C630 C 0.32692 0.86579 0.22123 0.0
O631 O 0.299 0.97891 0.13217 0.0
O632 O 0.22395 0.94787 0.16587 0.0
O633 O 0.27378 0.10393 0.21463 0.0
O634 O 0.24014 1.02818 0.2374 0.0
H635 H 0.1774 1.05006 0.14804 0.0
H636 H 1.05746 1.02235 0.25853 0.0
H637 H 0.17212 0.13644 0.29059 0.0
O638 O 0.31523 0.70195 0.7851 0.0
Tb639 Tb 0.26138 0.75502 0.74534 0.0
Eu640 Eu 0.16427 0.81503 0.70258 0.0
C641 C 0.32064 0.70053 0.8362 0.0
O642 O 0.28205 0.71607 0.86581 0.0
C643 C 0.20198 0.83414 0.82031 0.0
O644 O 0.12136 0.8546 0.63629 0.0
C645 C 0.1158 0.73323 0.73384 0.0
C646 C 0.10457 0.83183 0.59279 0.0
O647 O 1.09041 0.86206 0.55411 0.0
C648 C 0.23725 0.75329 0.62467 0.0
C649 C 0.10126 0.68029 0.71991 0.0
C650 C 0.1321 0.65557 0.68223 0.0
C651 C 0.15646 0.6085 0.69433 0.0
C652 C 0.14599 0.58575 0.74359 0.0
C653 C 0.10565 0.60485 0.7762 0.0
C654 C 1.08199 0.65174 0.76207 0.0
O655 O 0.21886 0.78535 0.81531 0.0
O656 O 0.18763 0.86004 0.77743 0.0
O657 O 0.27871 0.83421 0.72247 0.0
O658 O 0.34062 0.77969 0.7342 0.0
C659 C 0.32867 0.82666 0.72111 0.0
O660 O 0.21562 0.79878 0.63227 0.0
O661 O 0.24645 0.72371 0.66594 0.0
O662 O 1.09053 0.77335 0.71463 0.0
O663 O 0.16629 0.73994 0.73756 0.0
H664 H 0.1446 0.67711 0.64814 0.0
H665 H 0.17239 0.55722 0.75862 0.0
H666 H 1.05818 0.67167 0.79076 0.0
O667 O 0.3794 0.99223 0.78497 0.0
Tb668 Tb 0.43326 0.93915 0.74522 0.0
Eu669 Eu 0.53037 0.87912 0.70244 0.0
C670 C 0.37399 0.99365 0.83607 0.0
O671 O 0.41257 0.9781 0.86567 0.0
C672 C 0.49265 0.86005 0.82019 0.0
O673 O 0.57325 0.83947 0.63618 0.0
C674 C 0.57888 0.96088 0.73364 0.0
C675 C 0.59006 0.86221 0.59265 0.0
O676 O 0.60419 0.83196 0.55398 0.0
C677 C 0.45743 0.94091 0.62453 0.0
C678 C 0.59352 1.01381 0.71969 0.0
C679 C 0.56273 1.03857 0.682 0.0
C680 C 0.5384 1.08566 0.69408 0.0
C681 C 0.54887 0.10839 0.74333 0.0
C682 C 0.58916 1.08923 0.77595 0.0
C683 C 0.61279 1.04233 0.76184 0.0
O684 O 0.4758 0.90884 0.81517 0.0
O685 O 0.50696 0.83412 0.77732 0.0
O686 O 0.41596 0.85996 0.72239 0.0
O687 O 0.35402 0.91446 0.73422 0.0
C688 C 0.36599 0.8675 0.72117 0.0
O689 O 0.47908 0.89543 0.63212 0.0
O690 O 0.44818 0.97047 0.66578 0.0
O691 O 0.60414 0.92072 0.71449 0.0
O692 O 0.52838 0.95423 0.73734 0.0
H693 H 0.55022 1.01705 0.64792 0.0
H694 H 0.52247 0.13692 0.75835 0.0
H695 H 0.63656 1.02236 0.79052 0.0
loop_
_geom_bond_atom_site_label_1
_geom_bond_atom_site_label_2
_geom_bond_distance
_geom_bond_site_symmetry_2
_ccdc_geom_bond_type
O0 Tb1 2.292 . S
O0 C3 1.255 . S
Tb1 O0 2.292 . S
Tb1 O17 2.326 . S
Tb1 O19 2.500 . S
Tb1 O20 2.473 . S
Tb1 O23 2.324 . S
Eu2 O6 2.292 . S
Eu2 C7 2.852 . S
Eu2 O18 2.324 . S
Eu2 O22 2.326 . S
Eu2 O24 2.500 . S
Eu2 O25 2.473 . S
C3 O0 1.255 . S
C3 O4 1.247 . S
O4 C3 1.247 . S
C5 O17 1.242 . S
C5 O18 1.258 . S
O6 Eu2 2.292 . S
O6 C8 1.255 . S
C7 Eu2 2.852 . S
C7 C11 1.503 . S
C7 O24 1.273 . S
C7 O25 1.257 . S
C8 O6 1.255 . S
C8 O9 1.247 . S
O9 C8 1.247 . S
C10 O22 1.242 . S
C10 O23 1.258 . S
C11 C7 1.503 . S
C11 C12 1.379 . S
C11 C16 1.392 . S
C12 C11 1.379 . S
C12 C13 1.404 . S
C12 H26 0.929 . S
C13 C12 1.404 . S
C13 C14 1.389 . S
C14 C13 1.389 . S
C14 C15 1.399 . S
C14 H27 0.931 . S
C15 C14 1.399 . S
C15 C16 1.390 . S
C16 C11 1.392 . S
C16 C15 1.390 . S
C16 H28 0.929 . S
O17 Tb1 2.326 . S
O17 C5 1.242 . S
O18 Eu2 2.324 . S
O18 C5 1.258 . S
O19 Tb1 2.500 . S
O19 C21 1.273 . S
O20 Tb1 2.473 . S
O20 C21 1.257 . S
C21 O19 1.273 . S
C21 O20 1.257 . S
O22 Eu2 2.326 . S
O22 C10 1.242 . S
O23 Tb1 2.324 . S
O23 C10 1.258 . S
O24 Eu2 2.500 . S
O24 C7 1.273 . S
O25 Eu2 2.473 . S
O25 C7 1.257 . S
H26 C12 0.929 . S
H27 C14 0.931 . S
H28 C16 0.929 . S
O29 Tb30 2.292 . S
O29 C32 1.255 . S
Tb30 O29 2.292 . S
Tb30 O46 2.326 . S
Tb30 O48 2.500 . S
Tb30 O49 2.473 . S
Tb30 O52 2.324 . S
Eu31 O35 2.292 . S
Eu31 C36 2.852 . S
Eu31 O47 2.324 . S
Eu31 O51 2.326 . S
Eu31 O53 2.500 . S
Eu31 O54 2.473 . S
C32 O29 1.255 . S
C32 O33 1.247 . S
O33 C32 1.247 . S
C34 O46 1.242 . S
C34 O47 1.258 . S
O35 Eu31 2.292 . S
O35 C37 1.255 . S
C36 Eu31 2.852 . S
C36 C40 1.503 . S
C36 O53 1.273 . S
C36 O54 1.257 . S
C37 O35 1.255 . S
C37 O38 1.247 . S
O38 C37 1.247 . S
C39 O51 1.242 . S
C39 O52 1.258 . S
C40 C36 1.503 . S
C40 C41 1.379 . S
C40 C45 1.392 . S
C41 C40 1.379 . S
C41 C42 1.404 . S
C41 H55 0.929 . S
C42 C41 1.404 . S
C42 C43 1.389 . S
C43 C42 1.389 . S
C43 C44 1.399 . S
C43 H56 0.931 . S
C44 C43 1.399 . S
C44 C45 1.390 . S
C45 C40 1.392 . S
C45 C44 1.390 . S
C45 H57 0.929 . S
O46 Tb30 2.326 . S
O46 C34 1.242 . S
O47 Eu31 2.324 . S
O47 C34 1.258 . S
O48 Tb30 2.500 . S
O48 C50 1.273 . S
O49 Tb30 2.473 . S
O49 C50 1.257 . S
C50 O48 1.273 . S
C50 O49 1.257 . S
O51 Eu31 2.326 . S
O51 C39 1.242 . S
O52 Tb30 2.324 . S
O52 C39 1.258 . S
O53 Eu31 2.500 . S
O53 C36 1.273 . S
O54 Eu31 2.473 . S
O54 C36 1.257 . S
H55 C41 0.929 . S
H56 C43 0.931 . S
H57 C45 0.929 . S
O58 Tb59 2.292 . S
O58 C61 1.255 . S
Tb59 O58 2.292 . S
Tb59 O75 2.326 . S
Tb59 O77 2.500 . S
Tb59 O78 2.473 . S
Tb59 O81 2.324 . S
Eu60 O64 2.292 . S
Eu60 C65 2.852 . S
Eu60 O76 2.324 . S
Eu60 O80 2.326 . S
Eu60 O82 2.500 . S
Eu60 O83 2.473 . S
C61 O58 1.255 . S
C61 O62 1.247 . S
O62 C61 1.247 . S
C63 O75 1.242 . S
C63 O76 1.258 . S
O64 Eu60 2.292 . S
O64 C66 1.255 . S
C65 Eu60 2.852 . S
C65 C69 1.503 . S
C65 O82 1.273 . S
C65 O83 1.257 . S
C66 O64 1.255 . S
C66 O67 1.247 . S
O67 C66 1.247 . S
C68 O80 1.242 . S
C68 O81 1.258 . S
C69 C65 1.503 . S
C69 C70 1.379 . S
C69 C74 1.392 . S
C70 C69 1.379 . S
C70 C71 1.404 1_545 S
C70 H84 0.929 . S
C71 C70 1.404 1_565 S
C71 C72 1.389 . S
C72 C71 1.389 . S
C72 C73 1.399 . S
C72 H85 0.931 . S
C73 C72 1.399 . S
C73 C74 1.390 1_565 S
C74 C69 1.392 . S
C74 C73 1.390 1_545 S
C74 H86 0.929 . S
O75 Tb59 2.326 . S
O75 C63 1.242 . S
O76 Eu60 2.324 . S
O76 C63 1.258 . S
O77 Tb59 2.500 . S
O77 C79 1.273 . S
O78 Tb59 2.473 . S
O78 C79 1.257 . S
C79 O77 1.273 . S
C79 O78 1.257 . S
O80 Eu60 2.326 . S
O80 C68 1.242 . S
O81 Tb59 2.324 . S
O81 C68 1.258 . S
O82 Eu60 2.500 . S
O82 C65 1.273 . S
O83 Eu60 2.473 . S
O83 C65 1.257 . S
H84 C70 0.929 . S
H85 C72 0.931 . S
H86 C74 0.929 . S
O87 Tb88 2.292 . S
O87 C90 1.255 . S
Tb88 O87 2.292 . S
Tb88 O104 2.326 . S
Tb88 O106 2.500 . S
Tb88 O107 2.473 . S
Tb88 O110 2.324 . S
Eu89 O93 2.292 . S
Eu89 C94 2.852 . S
Eu89 O105 2.324 . S
Eu89 O109 2.326 . S
Eu89 O111 2.500 . S
Eu89 O112 2.473 . S
C90 O87 1.255 . S
C90 O91 1.247 . S
O91 C90 1.247 . S
C92 O104 1.242 . S
C92 O105 1.258 . S
O93 Eu89 2.292 . S
O93 C95 1.255 . S
C94 Eu89 2.852 . S
C94 C98 1.503 . S
C94 O111 1.273 . S
C94 O112 1.257 . S
C95 O93 1.255 . S
C95 O96 1.247 . S
O96 C95 1.247 . S
C97 O109 1.242 . S
C97 O110 1.258 . S
C98 C94 1.503 . S
C98 C99 1.379 . S
C98 C103 1.392 . S
C99 C98 1.379 . S
C99 C100 1.404 1_655 S
C99 H113 0.929 . S
C100 C99 1.404 1_455 S
C100 C101 1.389 . S
C101 C100 1.389 . S
C101 C102 1.399 . S
C101 H114 0.931 . S
C102 C101 1.399 . S
C102 C103 1.390 1_455 S
C103 C98 1.392 . S
C103 C102 1.390 1_655 S
C103 H115 0.929 . S
O104 Tb88 2.326 . S
O104 C92 1.242 . S
O105 Eu89 2.324 . S
O105 C92 1.258 . S
O106 Tb88 2.500 . S
O106 C108 1.273 . S
O107 Tb88 2.473 . S
O107 C108 1.257 . S
C108 O106 1.273 . S
C108 O107 1.257 . S
O109 Eu89 2.326 . S
O109 C97 1.242 . S
O110 Tb88 2.324 . S
O110 C97 1.258 . S
O111 Eu89 2.500 . S
O111 C94 1.273 . S
O112 Eu89 2.473 . S
O112 C94 1.257 . S
H113 C99 0.929 . S
H114 C101 0.931 . S
H115 C103 0.929 . S
O116 Tb117 2.292 . S
O116 C119 1.255 . S
Tb117 O116 2.292 . S
Tb117 O133 2.326 . S
Tb117 O135 2.500 . S
Tb117 O136 2.473 . S
Tb117 O139 2.324 . S
Eu118 O122 2.292 . S
Eu118 C123 2.852 . S
Eu118 O134 2.324 . S
Eu118 O138 2.326 . S
Eu118 O140 2.500 . S
Eu118 O141 2.473 . S
C119 O116 1.255 . S
C119 O120 1.247 . S
O120 C119 1.247 . S
C121 O133 1.242 . S
C121 O134 1.258 . S
O122 Eu118 2.292 . S
O122 C124 1.255 . S
C123 Eu118 2.852 . S
C123 C127 1.503 . S
C123 O140 1.273 . S
C123 O141 1.257 . S
C124 O122 1.255 . S
C124 O125 1.247 . S
O125 C124 1.247 . S
C126 O138 1.242 . S
C126 O139 1.258 . S
C127 C123 1.503 . S
C127 C128 1.379 . S
C127 C132 1.392 . S
C128 C127 1.379 . S
C128 C129 1.404 1_545 S
C128 H142 0.929 . S
C129 C128 1.404 1_565 S
C129 C130 1.389 . S
C130 C129 1.389 . S
C130 C131 1.399 . S
C130 H143 0.931 . S
C131 C130 1.399 . S
C131 C132 1.390 1_565 S
C132 C127 1.392 . S
C132 C131 1.390 1_545 S
C132 H144 0.929 . S
O133 Tb117 2.326 . S
O133 C121 1.242 . S
O134 Eu118 2.324 . S
O134 C121 1.258 . S
O135 Tb117 2.500 . S
O135 C137 1.273 . S
O136 Tb117 2.473 . S
O136 C137 1.257 . S
C137 O135 1.273 . S
C137 O136 1.257 . S
O138 Eu118 2.326 . S
O138 C126 1.242 . S
O139 Tb117 2.324 . S
O139 C126 1.258 . S
O140 Eu118 2.500 . S
O140 C123 1.273 . S
O141 Eu118 2.473 . S
O141 C123 1.257 . S
H142 C128 0.929 . S
H143 C130 0.931 . S
H144 C132 0.929 . S
O145 Tb146 2.292 . S
O145 C148 1.255 . S
Tb146 O145 2.292 . S
Tb146 O162 2.326 . S
Tb146 O164 2.500 . S
Tb146 O165 2.473 . S
Tb146 O168 2.324 . S
Eu147 O151 2.292 . S
Eu147 C152 2.852 . S
Eu147 O163 2.324 . S
Eu147 O167 2.326 . S
Eu147 O169 2.500 . S
Eu147 O170 2.473 . S
C148 O145 1.255 . S
C148 O149 1.247 . S
O149 C148 1.247 . S
C150 O162 1.242 . S
C150 O163 1.258 . S
O151 Eu147 2.292 . S
O151 C153 1.255 . S
C152 Eu147 2.852 . S
C152 C156 1.503 . S
C152 O169 1.273 . S
C152 O170 1.257 . S
C153 O151 1.255 . S
C153 O154 1.247 . S
O154 C153 1.247 . S
C155 O167 1.242 . S
C155 O168 1.258 . S
C156 C152 1.503 . S
C156 C157 1.379 . S
C156 C161 1.392 . S
C157 C156 1.379 . S
C157 C158 1.404 1_655 S
C157 H171 0.929 . S
C158 C157 1.404 1_455 S
C158 C159 1.389 . S
C159 C158 1.389 . S
C159 C160 1.399 . S
C159 H172 0.931 . S
C160 C159 1.399 . S
C160 C161 1.390 1_455 S
C161 C156 1.392 . S
C161 C160 1.390 1_655 S
C161 H173 0.929 . S
O162 Tb146 2.326 . S
O162 C150 1.242 . S
O163 Eu147 2.324 . S
O163 C150 1.258 . S
O164 Tb146 2.500 . S
O164 C166 1.273 . S
O165 Tb146 2.473 . S
O165 C166 1.257 . S
C166 O164 1.273 . S
C166 O165 1.257 . S
O167 Eu147 2.326 . S
O167 C155 1.242 . S
O168 Tb146 2.324 . S
O168 C155 1.258 . S
O169 Eu147 2.500 . S
O169 C152 1.273 . S
O170 Eu147 2.473 . S
O170 C152 1.257 . S
H171 C157 0.929 . S
H172 C159 0.931 . S
H173 C161 0.929 . S
O174 Tb175 2.292 . S
O174 C177 1.255 . S
Tb175 O174 2.292 . S
Tb175 O191 2.326 . S
Tb175 O193 2.500 . S
Tb175 O194 2.473 . S
Tb175 O197 2.324 . S
Eu176 O180 2.292 . S
Eu176 C181 2.852 . S
Eu176 O192 2.324 . S
Eu176 O196 2.326 . S
Eu176 O198 2.500 . S
Eu176 O199 2.473 . S
C177 O174 1.255 . S
C177 O178 1.247 . S
O178 C177 1.247 . S
C179 O191 1.242 . S
C179 O192 1.258 . S
O180 Eu176 2.292 . S
O180 C182 1.255 . S
C181 Eu176 2.852 . S
C181 C185 1.503 . S
C181 O198 1.273 . S
C181 O199 1.257 . S
C182 O180 1.255 . S
C182 O183 1.247 . S
O183 C182 1.247 . S
C184 O196 1.242 . S
C184 O197 1.258 . S
C185 C181 1.503 . S
C185 C186 1.379 . S
C185 C190 1.392 . S
C186 C185 1.379 . S
C186 C187 1.404 . S
C186 H200 0.929 . S
C187 C186 1.404 . S
C187 C188 1.389 . S
C188 C187 1.389 . S
C188 C189 1.399 . S
C188 H201 0.931 . S
C189 C188 1.399 . S
C189 C190 1.390 . S
C190 C185 1.392 . S
C190 C189 1.390 . S
C190 H202 0.929 . S
O191 Tb175 2.326 . S
O191 C179 1.242 . S
O192 Eu176 2.324 . S
O192 C179 1.258 . S
O193 Tb175 2.500 . S
O193 C195 1.273 . S
O194 Tb175 2.473 . S
O194 C195 1.257 . S
C195 O193 1.273 . S
C195 O194 1.257 . S
O196 Eu176 2.326 . S
O196 C184 1.242 . S
O197 Tb175 2.324 . S
O197 C184 1.258 . S
O198 Eu176 2.500 . S
O198 C181 1.273 . S
O199 Eu176 2.473 . S
O199 C181 1.257 . S
H200 C186 0.929 . S
H201 C188 0.931 . S
H202 C190 0.929 . S
O203 Tb204 2.292 . S
O203 C206 1.255 . S
Tb204 O203 2.292 . S
Tb204 O220 2.326 . S
Tb204 O222 2.500 . S
Tb204 O223 2.473 . S
Tb204 O226 2.324 . S
Eu205 O209 2.292 . S
Eu205 C210 2.852 . S
Eu205 O221 2.324 . S
Eu205 O225 2.326 . S
Eu205 O227 2.500 . S
Eu205 O228 2.473 . S
C206 O203 1.255 . S
C206 O207 1.247 . S
O207 C206 1.247 . S
C208 O220 1.242 . S
C208 O221 1.258 . S
O209 Eu205 2.292 . S
O209 C211 1.255 . S
C210 Eu205 2.852 . S
C210 C214 1.503 . S
C210 O227 1.273 . S
C210 O228 1.257 . S
C211 O209 1.255 . S
C211 O212 1.247 . S
O212 C211 1.247 . S
C213 O225 1.242 . S
C213 O226 1.258 . S
C214 C210 1.503 . S
C214 C215 1.379 . S
C214 C219 1.392 . S
C215 C214 1.379 . S
C215 C216 1.404 . S
C215 H229 0.929 . S
C216 C215 1.404 . S
C216 C217 1.389 . S
C217 C216 1.389 . S
C217 C218 1.399 . S
C217 H230 0.931 . S
C218 C217 1.399 . S
C218 C219 1.390 . S
C219 C214 1.392 . S
C219 C218 1.390 . S
C219 H231 0.929 . S
O220 Tb204 2.326 . S
O220 C208 1.242 . S
O221 Eu205 2.324 . S
O221 C208 1.258 . S
O222 Tb204 2.500 . S
O222 C224 1.273 . S
O223 Tb204 2.473 . S
O223 C224 1.257 . S
C224 O222 1.273 . S
C224 O223 1.257 . S
O225 Eu205 2.326 . S
O225 C213 1.242 . S
O226 Tb204 2.324 . S
O226 C213 1.258 . S
O227 Eu205 2.500 . S
O227 C210 1.273 . S
O228 Eu205 2.473 . S
O228 C210 1.257 . S
H229 C215 0.929 . S
H230 C217 0.931 . S
H231 C219 0.929 . S
O232 Tb233 2.292 . S
O232 C235 1.255 . S
Tb233 O232 2.292 . S
Tb233 O249 2.326 . S
Tb233 O251 2.500 . S
Tb233 O252 2.473 . S
Tb233 O255 2.324 . S
Eu234 O238 2.292 . S
Eu234 C239 2.852 . S
Eu234 O250 2.324 . S
Eu234 O254 2.326 . S
Eu234 O256 2.500 . S
Eu234 O257 2.473 . S
C235 O232 1.255 . S
C235 O236 1.247 . S
O236 C235 1.247 . S
C237 O249 1.242 . S
C237 O250 1.258 . S
O238 Eu234 2.292 . S
O238 C240 1.255 . S
C239 Eu234 2.852 . S
C239 C243 1.503 . S
C239 O256 1.273 . S
C239 O257 1.257 . S
C240 O238 1.255 . S
C240 O241 1.247 . S
O241 C240 1.247 . S
C242 O254 1.242 . S
C242 O255 1.258 . S
C243 C239 1.503 . S
C243 C244 1.379 . S
C243 C248 1.392 . S
C244 C243 1.379 . S
C244 C245 1.404 . S
C244 H258 0.929 . S
C245 C244 1.404 . S
C245 C246 1.389 . S
C246 C245 1.389 . S
C246 C247 1.399 . S
C246 H259 0.931 . S
C247 C246 1.399 . S
C247 C248 1.390 . S
C248 C243 1.392 . S
C248 C247 1.390 . S
C248 H260 0.929 . S
O249 Tb233 2.326 . S
O249 C237 1.242 . S
O250 Eu234 2.324 . S
O250 C237 1.258 . S
O251 Tb233 2.500 . S
O251 C253 1.273 . S
O252 Tb233 2.473 . S
O252 C253 1.257 . S
C253 O251 1.273 . S
C253 O252 1.257 . S
O254 Eu234 2.326 . S
O254 C242 1.242 . S
O255 Tb233 2.324 . S
O255 C242 1.258 . S
O256 Eu234 2.500 . S
O256 C239 1.273 . S
O257 Eu234 2.473 . S
O257 C239 1.257 . S
H258 C244 0.929 . S
H259 C246 0.931 . S
H260 C248 0.929 . S
O261 Tb262 2.292 . S
O261 C264 1.255 . S
Tb262 O261 2.292 . S
Tb262 O278 2.326 . S
Tb262 O280 2.500 . S
Tb262 O281 2.473 . S
Tb262 O284 2.324 . S
Eu263 O267 2.292 . S
Eu263 C268 2.852 . S
Eu263 O279 2.324 . S
Eu263 O283 2.326 . S
Eu263 O285 2.500 . S
Eu263 O286 2.473 . S
C264 O261 1.255 . S
C264 O265 1.247 . S
O265 C264 1.247 . S
C266 O278 1.242 . S
C266 O279 1.258 . S
O267 Eu263 2.292 . S
O267 C269 1.255 . S
C268 Eu263 2.852 . S
C268 C272 1.503 . S
C268 O285 1.273 . S
C268 O286 1.257 . S
C269 O267 1.255 . S
C269 O270 1.247 . S
O270 C269 1.247 . S
C271 O283 1.242 . S
C271 O284 1.258 . S
C272 C268 1.503 . S
C272 C273 1.379 . S
C272 C277 1.392 . S
C273 C272 1.379 . S
C273 C274 1.404 1_556 S
C273 H287 0.929 . S
C274 C273 1.404 1_554 S
C274 C275 1.389 . S
C275 C274 1.389 . S
C275 C276 1.399 . S
C275 H288 0.931 . S
C276 C275 1.399 . S
C276 C277 1.390 1_554 S
C277 C272 1.392 . S
C277 C276 1.390 1_556 S
C277 H289 0.929 . S
O278 Tb262 2.326 . S
O278 C266 1.242 . S
O279 Eu263 2.324 . S
O279 C266 1.258 . S
O280 Tb262 2.500 . S
O280 C282 1.273 . S
O281 Tb262 2.473 . S
O281 C282 1.257 . S
C282 O280 1.273 . S
C282 O281 1.257 . S
O283 Eu263 2.326 . S
O283 C271 1.242 . S
O284 Tb262 2.324 . S
O284 C271 1.258 . S
O285 Eu263 2.500 . S
O285 C268 1.273 . S
O286 Eu263 2.473 . S
O286 C268 1.257 . S
H287 C273 0.929 . S
H288 C275 0.931 . S
H289 C277 0.929 . S
O290 Tb291 2.292 . S
O290 C293 1.255 . S
Tb291 O290 2.292 . S
Tb291 O307 2.326 . S
Tb291 O309 2.500 . S
Tb291 O310 2.473 . S
Tb291 O313 2.324 . S
Eu292 O296 2.292 . S
Eu292 C297 2.852 . S
Eu292 O308 2.324 . S
Eu292 O312 2.326 . S
Eu292 O314 2.500 . S
Eu292 O315 2.473 . S
C293 O290 1.255 . S
C293 O294 1.247 . S
O294 C293 1.247 . S
C295 O307 1.242 . S
C295 O308 1.258 . S
O296 Eu292 2.292 . S
O296 C298 1.255 . S
C297 Eu292 2.852 . S
C297 C301 1.503 . S
C297 O314 1.273 . S
C297 O315 1.257 . S
C298 O296 1.255 . S
C298 O299 1.247 . S
O299 C298 1.247 . S
C300 O312 1.242 . S
C300 O313 1.258 . S
C301 C297 1.503 . S
C301 C302 1.379 . S
C301 C306 1.392 . S
C302 C301 1.379 . S
C302 C303 1.404 . S
C302 H316 0.929 . S
C303 C302 1.404 . S
C303 C304 1.389 . S
C304 C303 1.389 . S
C304 C305 1.399 . S
C304 H317 0.931 . S
C305 C304 1.399 . S
C305 C306 1.390 . S
C306 C301 1.392 . S
C306 C305 1.390 . S
C306 H318 0.929 . S
O307 Tb291 2.326 . S
O307 C295 1.242 . S
O308 Eu292 2.324 . S
O308 C295 1.258 . S
O309 Tb291 2.500 . S
O309 C311 1.273 . S
O310 Tb291 2.473 . S
O310 C311 1.257 . S
C311 O309 1.273 . S
C311 O310 1.257 . S
O312 Eu292 2.326 . S
O312 C300 1.242 . S
O313 Tb291 2.324 . S
O313 C300 1.258 . S
O314 Eu292 2.500 . S
O314 C297 1.273 . S
O315 Eu292 2.473 . S
O315 C297 1.257 . S
H316 C302 0.929 . S
H317 C304 0.931 . S
H318 C306 0.929 . S
O319 Tb320 2.292 . S
O319 C322 1.255 . S
Tb320 O319 2.292 . S
Tb320 O336 2.326 . S
Tb320 O338 2.500 . S
Tb320 O339 2.473 . S
Tb320 O342 2.324 . S
Eu321 O325 2.292 . S
Eu321 C326 2.852 . S
Eu321 O337 2.324 . S
Eu321 O341 2.326 . S
Eu321 O343 2.500 . S
Eu321 O344 2.473 . S
C322 O319 1.255 . S
C322 O323 1.247 . S
O323 C322 1.247 . S
C324 O336 1.242 . S
C324 O337 1.258 . S
O325 Eu321 2.292 . S
O325 C327 1.255 . S
C326 Eu321 2.852 . S
C326 C330 1.503 . S
C326 O343 1.273 . S
C326 O344 1.257 . S
C327 O325 1.255 . S
C327 O328 1.247 . S
O328 C327 1.247 . S
C329 O341 1.242 . S
C329 O342 1.258 . S
C330 C326 1.503 . S
C330 C331 1.379 . S
C330 C335 1.392 . S
C331 C330 1.379 . S
C331 C332 1.404 1_556 S
C331 H345 0.929 . S
C332 C331 1.404 1_554 S
C332 C333 1.389 . S
C333 C332 1.389 . S
C333 C334 1.399 . S
C333 H346 0.931 . S
C334 C333 1.399 . S
C334 C335 1.390 1_554 S
C335 C330 1.392 . S
C335 C334 1.390 1_556 S
C335 H347 0.929 . S
O336 Tb320 2.326 . S
O336 C324 1.242 . S
O337 Eu321 2.324 . S
O337 C324 1.258 . S
O338 Tb320 2.500 . S
O338 C340 1.273 . S
O339 Tb320 2.473 . S
O339 C340 1.257 . S
C340 O338 1.273 . S
C340 O339 1.257 . S
O341 Eu321 2.326 . S
O341 C329 1.242 . S
O342 Tb320 2.324 . S
O342 C329 1.258 . S
O343 Eu321 2.500 . S
O343 C326 1.273 . S
O344 Eu321 2.473 . S
O344 C326 1.257 . S
H345 C331 0.929 . S
H346 C333 0.931 . S
H347 C335 0.929 . S
O348 Tb349 2.292 . S
O348 C351 1.255 . S
Tb349 O348 2.292 . S
Tb349 O365 2.326 . S
Tb349 O367 2.500 . S
Tb349 O368 2.473 . S
Tb349 O371 2.324 . S
Eu350 O354 2.292 . S
Eu350 C355 2.852 . S
Eu350 O366 2.324 . S
Eu350 O370 2.326 . S
Eu350 O372 2.500 . S
Eu350 O373 2.473 . S
C351 O348 1.255 . S
C351 O352 1.247 . S
O352 C351 1.247 . S
C353 O365 1.242 . S
C353 O366 1.258 . S
O354 Eu350 2.292 . S
O354 C356 1.255 . S
C355 Eu350 2.852 . S
C355 C359 1.503 . S
C355 O372 1.273 . S
C355 O373 1.257 . S
C356 O354 1.255 . S
C356 O357 1.247 . S
O357 C356 1.247 . S
C358 O370 1.242 . S
C358 O371 1.258 . S
C359 C355 1.503 . S
C359 C360 1.379 . S
C359 C364 1.392 . S
C360 C359 1.379 . S
C360 C361 1.404 1_554 S
C360 H374 0.929 . S
C361 C360 1.404 1_556 S
C361 C362 1.389 . S
C362 C361 1.389 . S
C362 C363 1.399 . S
C362 H375 0.931 . S
C363 C362 1.399 . S
C363 C364 1.390 1_556 S
C364 C359 1.392 . S
C364 C363 1.390 1_554 S
C364 H376 0.929 . S
O365 Tb349 2.326 . S
O365 C353 1.242 . S
O366 Eu350 2.324 . S
O366 C353 1.258 . S
O367 Tb349 2.500 . S
O367 C369 1.273 . S
O368 Tb349 2.473 . S
O368 C369 1.257 . S
C369 O367 1.273 . S
C369 O368 1.257 . S
O370 Eu350 2.326 . S
O370 C358 1.242 . S
O371 Tb349 2.324 . S
O371 C358 1.258 . S
O372 Eu350 2.500 . S
O372 C355 1.273 . S
O373 Eu350 2.473 . S
O373 C355 1.257 . S
H374 C360 0.929 . S
H375 C362 0.931 . S
H376 C364 0.929 . S
O377 Tb378 2.292 . S
O377 C380 1.255 . S
Tb378 O377 2.292 . S
Tb378 O394 2.326 . S
Tb378 O396 2.500 . S
Tb378 O397 2.473 . S
Tb378 O400 2.324 . S
Eu379 O383 2.292 . S
Eu379 C384 2.852 . S
Eu379 O395 2.324 . S
Eu379 O399 2.326 . S
Eu379 O401 2.500 . S
Eu379 O402 2.473 . S
C380 O377 1.255 . S
C380 O381 1.247 . S
O381 C380 1.247 . S
C382 O394 1.242 . S
C382 O395 1.258 . S
O383 Eu379 2.292 . S
O383 C385 1.255 . S
C384 Eu379 2.852 . S
C384 C388 1.503 . S
C384 O401 1.273 . S
C384 O402 1.257 . S
C385 O383 1.255 . S
C385 O386 1.247 . S
O386 C385 1.247 . S
C387 O399 1.242 . S
C387 O400 1.258 . S
C388 C384 1.503 . S
C388 C389 1.379 . S
C388 C393 1.392 . S
C389 C388 1.379 . S
C389 C390 1.404 . S
C389 H403 0.929 . S
C390 C389 1.404 . S
C390 C391 1.389 . S
C391 C390 1.389 . S
C391 C392 1.399 . S
C391 H404 0.931 . S
C392 C391 1.399 . S
C392 C393 1.390 . S
C393 C388 1.392 . S
C393 C392 1.390 . S
C393 H405 0.929 . S
O394 Tb378 2.326 . S
O394 C382 1.242 . S
O395 Eu379 2.324 . S
O395 C382 1.258 . S
O396 Tb378 2.500 . S
O396 C398 1.273 . S
O397 Tb378 2.473 . S
O397 C398 1.257 . S
C398 O396 1.273 . S
C398 O397 1.257 . S
O399 Eu379 2.326 . S
O399 C387 1.242 . S
O400 Tb378 2.324 . S
O400 C387 1.258 . S
O401 Eu379 2.500 . S
O401 C384 1.273 . S
O402 Eu379 2.473 . S
O402 C384 1.257 . S
H403 C389 0.929 . S
H404 C391 0.931 . S
H405 C393 0.929 . S
O406 Tb407 2.292 . S
O406 C409 1.255 . S
Tb407 O406 2.292 . S
Tb407 O423 2.326 . S
Tb407 O425 2.500 . S
Tb407 O426 2.473 . S
Tb407 O429 2.324 . S
Eu408 O412 2.292 . S
Eu408 C413 2.852 . S
Eu408 O424 2.324 . S
Eu408 O428 2.326 . S
Eu408 O430 2.500 . S
Eu408 O431 2.473 . S
C409 O406 1.255 . S
C409 O410 1.247 . S
O410 C409 1.247 . S
C411 O423 1.242 . S
C411 O424 1.258 . S
O412 Eu408 2.292 . S
O412 C414 1.255 . S
C413 Eu408 2.852 . S
C413 C417 1.503 . S
C413 O430 1.273 . S
C413 O431 1.257 . S
C414 O412 1.255 . S
C414 O415 1.247 . S
O415 C414 1.247 . S
C416 O428 1.242 . S
C416 O429 1.258 . S
C417 C413 1.503 . S
C417 C418 1.379 . S
C417 C422 1.392 . S
C418 C417 1.379 . S
C418 C419 1.404 1_554 S
C418 H432 0.929 . S
C419 C418 1.404 1_556 S
C419 C420 1.389 . S
C420 C419 1.389 . S
C420 C421 1.399 . S
C420 H433 0.931 . S
C421 C420 1.399 . S
C421 C422 1.390 1_556 S
C422 C417 1.392 . S
C422 C421 1.390 1_554 S
C422 H434 0.929 . S
O423 Tb407 2.326 . S
O423 C411 1.242 . S
O424 Eu408 2.324 . S
O424 C411 1.258 . S
O425 Tb407 2.500 . S
O425 C427 1.273 . S
O426 Tb407 2.473 . S
O426 C427 1.257 . S
C427 O425 1.273 . S
C427 O426 1.257 . S
O428 Eu408 2.326 . S
O428 C416 1.242 . S
O429 Tb407 2.324 . S
O429 C416 1.258 . S
O430 Eu408 2.500 . S
O430 C413 1.273 . S
O431 Eu408 2.473 . S
O431 C413 1.257 . S
H432 C418 0.929 . S
H433 C420 0.931 . S
H434 C422 0.929 . S
O435 Tb436 2.292 . S
O435 C438 1.255 . S
Tb436 O435 2.292 . S
Tb436 O452 2.326 . S
Tb436 O454 2.500 . S
Tb436 O455 2.473 . S
Tb436 O458 2.324 . S
Eu437 O441 2.292 . S
Eu437 C442 2.852 . S
Eu437 O453 2.324 . S
Eu437 O457 2.326 . S
Eu437 O459 2.500 . S
Eu437 O460 2.473 . S
C438 O435 1.255 . S
C438 O439 1.247 . S
O439 C438 1.247 . S
C440 O452 1.242 . S
C440 O453 1.258 . S
O441 Eu437 2.292 . S
O441 C443 1.255 . S
C442 Eu437 2.852 . S
C442 C446 1.503 . S
C442 O459 1.273 . S
C442 O460 1.257 . S
C443 O441 1.255 . S
C443 O444 1.247 . S
O444 C443 1.247 . S
C445 O457 1.242 . S
C445 O458 1.258 . S
C446 C442 1.503 . S
C446 C447 1.379 . S
C446 C451 1.392 . S
C447 C446 1.379 . S
C447 C448 1.404 . S
C447 H461 0.929 . S
C448 C447 1.404 . S
C448 C449 1.389 . S
C449 C448 1.389 . S
C449 C450 1.399 . S
C449 H462 0.931 . S
C450 C449 1.399 . S
C450 C451 1.390 . S
C451 C446 1.392 . S
C451 C450 1.390 . S
C451 H463 0.929 . S
O452 Tb436 2.326 . S
O452 C440 1.242 . S
O453 Eu437 2.324 . S
O453 C440 1.258 . S
O454 Tb436 2.500 . S
O454 C456 1.273 . S
O455 Tb436 2.473 . S
O455 C456 1.257 . S
C456 O454 1.273 . S
C456 O455 1.257 . S
O457 Eu437 2.326 . S
O457 C445 1.242 . S
O458 Tb436 2.324 . S
O458 C445 1.258 . S
O459 Eu437 2.500 . S
O459 C442 1.273 . S
O460 Eu437 2.473 . S
O460 C442 1.257 . S
H461 C447 0.929 . S
H462 C449 0.931 . S
H463 C451 0.929 . S
O464 Tb465 2.292 . S
O464 C467 1.255 . S
Tb465 O464 2.292 . S
Tb465 O481 2.326 . S
Tb465 O483 2.500 . S
Tb465 O484 2.473 . S
Tb465 O487 2.324 . S
Eu466 O470 2.292 . S
Eu466 C471 2.852 . S
Eu466 O482 2.324 . S
Eu466 O486 2.326 . S
Eu466 O488 2.500 . S
Eu466 O489 2.473 . S
C467 O464 1.255 . S
C467 O468 1.247 . S
O468 C467 1.247 . S
C469 O481 1.242 . S
C469 O482 1.258 . S
O470 Eu466 2.292 . S
O470 C472 1.255 . S
C471 Eu466 2.852 . S
C471 C475 1.503 . S
C471 O488 1.273 . S
C471 O489 1.257 . S
C472 O470 1.255 . S
C472 O473 1.247 . S
O473 C472 1.247 . S
C474 O486 1.242 . S
C474 O487 1.258 . S
C475 C471 1.503 . S
C475 C476 1.379 . S
C475 C480 1.392 . S
C476 C475 1.379 . S
C476 C477 1.404 . S
C476 H490 0.929 . S
C477 C476 1.404 . S
C477 C478 1.389 . S
C478 C477 1.389 . S
C478 C479 1.399 . S
C478 H491 0.931 . S
C479 C478 1.399 . S
C479 C480 1.390 . S
C480 C475 1.392 . S
C480 C479 1.390 . S
C480 H492 0.929 . S
O481 Tb465 2.326 . S
O481 C469 1.242 . S
O482 Eu466 2.324 . S
O482 C469 1.258 . S
O483 Tb465 2.500 . S
O483 C485 1.273 . S
O484 Tb465 2.473 . S
O484 C485 1.257 . S
C485 O483 1.273 . S
C485 O484 1.257 . S
O486 Eu466 2.326 . S
O486 C474 1.242 . S
O487 Tb465 2.324 . S
O487 C474 1.258 . S
O488 Eu466 2.500 . S
O488 C471 1.273 . S
O489 Eu466 2.473 . S
O489 C471 1.257 . S
H490 C476 0.929 . S
H491 C478 0.931 . S
H492 C480 0.929 . S
O493 Tb494 2.292 . S
O493 C496 1.255 . S
Tb494 O493 2.292 . S
Tb494 O510 2.326 . S
Tb494 O512 2.500 . S
Tb494 O513 2.473 . S
Tb494 O516 2.324 . S
Eu495 O499 2.292 . S
Eu495 C500 2.852 . S
Eu495 O511 2.324 . S
Eu495 O515 2.326 . S
Eu495 O517 2.500 . S
Eu495 O518 2.473 . S
C496 O493 1.255 . S
C496 O497 1.247 . S
O497 C496 1.247 . S
C498 O510 1.242 . S
C498 O511 1.258 . S
O499 Eu495 2.292 . S
O499 C501 1.255 . S
C500 Eu495 2.852 . S
C500 C504 1.503 . S
C500 O517 1.273 . S
C500 O518 1.257 . S
C501 O499 1.255 . S
C501 O502 1.247 . S
O502 C501 1.247 . S
C503 O515 1.242 . S
C503 O516 1.258 . S
C504 C500 1.503 . S
C504 C505 1.379 . S
C504 C509 1.392 . S
C505 C504 1.379 . S
C505 C506 1.404 . S
C505 H519 0.929 . S
C506 C505 1.404 . S
C506 C507 1.389 . S
C507 C506 1.389 . S
C507 C508 1.399 . S
C507 H520 0.931 . S
C508 C507 1.399 . S
C508 C509 1.390 . S
C509 C504 1.392 . S
C509 C508 1.390 . S
C509 H521 0.929 . S
O510 Tb494 2.326 . S
O510 C498 1.242 . S
O511 Eu495 2.324 . S
O511 C498 1.258 . S
O512 Tb494 2.500 . S
O512 C514 1.273 . S
O513 Tb494 2.473 . S
O513 C514 1.257 . S
C514 O512 1.273 . S
C514 O513 1.257 . S
O515 Eu495 2.326 . S
O515 C503 1.242 . S
O516 Tb494 2.324 . S
O516 C503 1.258 . S
O517 Eu495 2.500 . S
O517 C500 1.273 . S
O518 Eu495 2.473 . S
O518 C500 1.257 . S
H519 C505 0.929 . S
H520 C507 0.931 . S
H521 C509 0.929 . S
O522 Tb523 2.292 . S
O522 C525 1.255 . S
Tb523 O522 2.292 . S
Tb523 O539 2.326 . S
Tb523 O541 2.500 . S
Tb523 O542 2.473 . S
Tb523 O545 2.324 . S
Eu524 O528 2.292 . S
Eu524 C529 2.852 . S
Eu524 O540 2.324 . S
Eu524 O544 2.326 . S
Eu524 O546 2.500 . S
Eu524 O547 2.473 . S
C525 O522 1.255 . S
C525 O526 1.247 . S
O526 C525 1.247 . S
C527 O539 1.242 . S
C527 O540 1.258 . S
O528 Eu524 2.292 . S
O528 C530 1.255 . S
C529 Eu524 2.852 . S
C529 C533 1.503 . S
C529 O546 1.273 . S
C529 O547 1.257 . S
C530 O528 1.255 . S
C530 O531 1.247 . S
O531 C530 1.247 . S
C532 O544 1.242 . S
C532 O545 1.258 . S
C533 C529 1.503 . S
C533 C534 1.379 . S
C533 C538 1.392 . S
C534 C533 1.379 . S
C534 C535 1.404 1_565 S
C534 H548 0.929 . S
C535 C534 1.404 1_545 S
C535 C536 1.389 . S
C536 C535 1.389 . S
C536 C537 1.399 . S
C536 H549 0.931 . S
C537 C536 1.399 . S
C537 C538 1.390 1_545 S
C538 C533 1.392 . S
C538 C537 1.390 1_565 S
C538 H550 0.929 . S
O539 Tb523 2.326 . S
O539 C527 1.242 . S
O540 Eu524 2.324 . S
O540 C527 1.258 . S
O541 Tb523 2.500 . S
O541 C543 1.273 . S
O542 Tb523 2.473 . S
O542 C543 1.257 . S
C543 O541 1.273 . S
C543 O542 1.257 . S
O544 Eu524 2.326 . S
O544 C532 1.242 . S
O545 Tb523 2.324 . S
O545 C532 1.258 . S
O546 Eu524 2.500 . S
O546 C529 1.273 . S
O547 Eu524 2.473 . S
O547 C529 1.257 . S
H548 C534 0.929 . S
H549 C536 0.931 . S
H550 C538 0.929 . S
O551 Tb552 2.292 . S
O551 C554 1.255 . S
Tb552 O551 2.292 . S
Tb552 O568 2.326 . S
Tb552 O570 2.500 . S
Tb552 O571 2.473 . S
Tb552 O574 2.324 . S
Eu553 O557 2.292 . S
Eu553 C558 2.852 . S
Eu553 O569 2.324 . S
Eu553 O573 2.326 . S
Eu553 O575 2.500 . S
Eu553 O576 2.473 . S
C554 O551 1.255 . S
C554 O555 1.247 . S
O555 C554 1.247 . S
C556 O568 1.242 . S
C556 O569 1.258 . S
O557 Eu553 2.292 . S
O557 C559 1.255 . S
C558 Eu553 2.852 . S
C558 C562 1.503 . S
C558 O575 1.273 . S
C558 O576 1.257 . S
C559 O557 1.255 . S
C559 O560 1.247 . S
O560 C559 1.247 . S
C561 O573 1.242 . S
C561 O574 1.258 . S
C562 C558 1.503 . S
C562 C563 1.379 . S
C562 C567 1.392 . S
C563 C562 1.379 . S
C563 C564 1.404 1_455 S
C563 H577 0.929 . S
C564 C563 1.404 1_655 S
C564 C565 1.389 . S
C565 C564 1.389 . S
C565 C566 1.399 . S
C565 H578 0.931 . S
C566 C565 1.399 . S
C566 C567 1.390 1_655 S
C567 C562 1.392 . S
C567 C566 1.390 1_455 S
C567 H579 0.929 . S
O568 Tb552 2.326 . S
O568 C556 1.242 . S
O569 Eu553 2.324 . S
O569 C556 1.258 . S
O570 Tb552 2.500 . S
O570 C572 1.273 . S
O571 Tb552 2.473 . S
O571 C572 1.257 . S
C572 O570 1.273 . S
C572 O571 1.257 . S
O573 Eu553 2.326 . S
O573 C561 1.242 . S
O574 Tb552 2.324 . S
O574 C561 1.258 . S
O575 Eu553 2.500 . S
O575 C558 1.273 . S
O576 Eu553 2.473 . S
O576 C558 1.257 . S
H577 C563 0.929 . S
H578 C565 0.931 . S
H579 C567 0.929 . S
O580 Tb581 2.292 . S
O580 C583 1.255 . S
Tb581 O580 2.292 . S
Tb581 O597 2.326 . S
Tb581 O599 2.500 . S
Tb581 O600 2.473 . S
Tb581 O603 2.324 . S
Eu582 O586 2.292 . S
Eu582 C587 2.852 . S
Eu582 O598 2.324 . S
Eu582 O602 2.326 . S
Eu582 O604 2.500 . S
Eu582 O605 2.473 . S
C583 O580 1.255 . S
C583 O584 1.247 . S
O584 C583 1.247 . S
C585 O597 1.242 . S
C585 O598 1.258 . S
O586 Eu582 2.292 . S
O586 C588 1.255 . S
C587 Eu582 2.852 . S
C587 C591 1.503 . S
C587 O604 1.273 . S
C587 O605 1.257 . S
C588 O586 1.255 . S
C588 O589 1.247 . S
O589 C588 1.247 . S
C590 O602 1.242 . S
C590 O603 1.258 . S
C591 C587 1.503 . S
C591 C592 1.379 . S
C591 C596 1.392 . S
C592 C591 1.379 . S
C592 C593 1.404 . S
C592 H606 0.929 . S
C593 C592 1.404 . S
C593 C594 1.389 . S
C594 C593 1.389 . S
C594 C595 1.399 . S
C594 H607 0.931 . S
C595 C594 1.399 . S
C595 C596 1.390 . S
C596 C591 1.392 . S
C596 C595 1.390 . S
C596 H608 0.929 . S
O597 Tb581 2.326 . S
O597 C585 1.242 . S
O598 Eu582 2.324 . S
O598 C585 1.258 . S
O599 Tb581 2.500 . S
O599 C601 1.273 . S
O600 Tb581 2.473 . S
O600 C601 1.257 . S
C601 O599 1.273 . S
C601 O600 1.257 . S
O602 Eu582 2.326 . S
O602 C590 1.242 . S
O603 Tb581 2.324 . S
O603 C590 1.258 . S
O604 Eu582 2.500 . S
O604 C587 1.273 . S
O605 Eu582 2.473 . S
O605 C587 1.257 . S
H606 C592 0.929 . S
H607 C594 0.931 . S
H608 C596 0.929 . S
O609 Tb610 2.292 . S
O609 C612 1.255 . S
Tb610 O609 2.292 . S
Tb610 O626 2.326 . S
Tb610 O628 2.500 . S
Tb610 O629 2.473 . S
Tb610 O632 2.324 . S
Eu611 O615 2.292 . S
Eu611 C616 2.852 . S
Eu611 O627 2.324 . S
Eu611 O631 2.326 . S
Eu611 O633 2.500 . S
Eu611 O634 2.473 . S
C612 O609 1.255 . S
C612 O613 1.247 . S
O613 C612 1.247 . S
C614 O626 1.242 . S
C614 O627 1.258 . S
O615 Eu611 2.292 . S
O615 C617 1.255 . S
C616 Eu611 2.852 . S
C616 C620 1.503 . S
C616 O633 1.273 . S
C616 O634 1.257 . S
C617 O615 1.255 . S
C617 O618 1.247 . S
O618 C617 1.247 . S
C619 O631 1.242 . S
C619 O632 1.258 . S
C620 C616 1.503 . S
C620 C621 1.379 . S
C620 C625 1.392 . S
C621 C620 1.379 . S
C621 C622 1.404 1_455 S
C621 H635 0.929 . S
C622 C621 1.404 1_655 S
C622 C623 1.389 . S
C623 C622 1.389 . S
C623 C624 1.399 . S
C623 H636 0.931 . S
C624 C623 1.399 . S
C624 C625 1.390 1_655 S
C625 C620 1.392 . S
C625 C624 1.390 1_455 S
C625 H637 0.929 . S
O626 Tb610 2.326 . S
O626 C614 1.242 . S
O627 Eu611 2.324 . S
O627 C614 1.258 . S
O628 Tb610 2.500 . S
O628 C630 1.273 . S
O629 Tb610 2.473 . S
O629 C630 1.257 . S
C630 O628 1.273 . S
C630 O629 1.257 . S
O631 Eu611 2.326 . S
O631 C619 1.242 . S
O632 Tb610 2.324 . S
O632 C619 1.258 . S
O633 Eu611 2.500 . S
O633 C616 1.273 . S
O634 Eu611 2.473 . S
O634 C616 1.257 . S
H635 C621 0.929 . S
H636 C623 0.931 . S
H637 C625 0.929 . S
O638 Tb639 2.292 . S
O638 C641 1.255 . S
Tb639 O638 2.292 . S
Tb639 O655 2.326 . S
Tb639 O657 2.500 . S
Tb639 O658 2.473 . S
Tb639 O661 2.324 . S
Eu640 O644 2.292 . S
Eu640 C645 2.852 . S
Eu640 O656 2.324 . S
Eu640 O660 2.326 . S
Eu640 O662 2.500 . S
Eu640 O663 2.473 . S
C641 O638 1.255 . S
C641 O642 1.247 . S
O642 C641 1.247 . S
C643 O655 1.242 . S
C643 O656 1.258 . S
O644 Eu640 2.292 . S
O644 C646 1.255 . S
C645 Eu640 2.852 . S
C645 C649 1.503 . S
C645 O662 1.273 . S
C645 O663 1.257 . S
C646 O644 1.255 . S
C646 O647 1.247 . S
O647 C646 1.247 . S
C648 O660 1.242 . S
C648 O661 1.258 . S
C649 C645 1.503 . S
C649 C650 1.379 . S
C649 C654 1.392 . S
C650 C649 1.379 . S
C650 C651 1.404 . S
C650 H664 0.929 . S
C651 C650 1.404 . S
C651 C652 1.389 . S
C652 C651 1.389 . S
C652 C653 1.399 . S
C652 H665 0.931 . S
C653 C652 1.399 . S
C653 C654 1.390 . S
C654 C649 1.392 . S
C654 C653 1.390 . S
C654 H666 0.929 . S
O655 Tb639 2.326 . S
O655 C643 1.242 . S
O656 Eu640 2.324 . S
O656 C643 1.258 . S
O657 Tb639 2.500 . S
O657 C659 1.273 . S
O658 Tb639 2.473 . S
O658 C659 1.257 . S
C659 O657 1.273 . S
C659 O658 1.257 . S
O660 Eu640 2.326 . S
O660 C648 1.242 . S
O661 Tb639 2.324 . S
O661 C648 1.258 . S
O662 Eu640 2.500 . S
O662 C645 1.273 . S
O663 Eu640 2.473 . S
O663 C645 1.257 . S
H664 C650 0.929 . S
H665 C652 0.931 . S
H666 C654 0.929 . S
O667 Tb668 2.292 . S
O667 C670 1.255 . S
Tb668 O667 2.292 . S
Tb668 O684 2.326 . S
Tb668 O686 2.500 . S
Tb668 O687 2.473 . S
Tb668 O690 2.324 . S
Eu669 O673 2.292 . S
Eu669 C674 2.852 . S
Eu669 O685 2.324 . S
Eu669 O689 2.326 . S
Eu669 O691 2.500 . S
Eu669 O692 2.473 . S
C670 O667 1.255 . S
C670 O671 1.247 . S
O671 C670 1.247 . S
C672 O684 1.242 . S
C672 O685 1.258 . S
O673 Eu669 2.292 . S
O673 C675 1.255 . S
C674 Eu669 2.852 . S
C674 C678 1.503 . S
C674 O691 1.273 . S
C674 O692 1.257 . S
C675 O673 1.255 . S
C675 O676 1.247 . S
O676 C675 1.247 . S
C677 O689 1.242 . S
C677 O690 1.258 . S
C678 C674 1.503 . S
C678 C679 1.379 . S
C678 C683 1.392 . S
C679 C678 1.379 . S
C679 C680 1.404 1_565 S
C679 H693 0.929 . S
C680 C679 1.404 1_545 S
C680 C681 1.389 . S
C681 C680 1.389 . S
C681 C682 1.399 . S
C681 H694 0.931 . S
C682 C681 1.399 . S
C682 C683 1.390 1_545 S
C683 C678 1.392 . S
C683 C682 1.390 1_565 S
C683 H695 0.929 . S
O684 Tb668 2.326 . S
O684 C672 1.242 . S
O685 Eu669 2.324 . S
O685 C672 1.258 . S
O686 Tb668 2.500 . S
O686 C688 1.273 . S
O687 Tb668 2.473 . S
O687 C688 1.257 . S
C688 O686 1.273 . S
C688 O687 1.257 . S
O689 Eu669 2.326 . S
O689 C677 1.242 . S
O690 Tb668 2.324 . S
O690 C677 1.258 . S
O691 Eu669 2.500 . S
O691 C674 1.273 . S
O692 Eu669 2.473 . S
O692 C674 1.257 . S
H693 C679 0.929 . S
H694 C681 0.931 . S
H695 C683 0.929 . S
C15 C559 3.550 . S
C588 C44 3.550 1_556 S
C73 C501 3.550 . S
C530 C102 3.550 1_556 S
C617 C131 3.550 1_554 S
C160 C646 3.550 . S
C472 C189 3.550 1_554 S
C218 C675 3.550 . S
C66 C247 3.550 . S
C276 C95 3.550 1_545 S
C8 C305 3.550 1_455 S
C334 C37 3.550 . S
C363 C182 3.550 . S
C211 C392 3.550 1_565 S
C421 C124 3.550 1_655 S
C153 C450 3.550 . S
C356 C479 3.550 . S
C240 C508 3.550 1_545 S
C269 C537 3.550 1_655 S
C566 C298 3.550 . S
C595 C327 3.550 . S
C624 C414 3.550 1_565 S
C443 C653 3.550 1_655 S
C682 C385 3.550 . S
C5 C63 3.548 . S
C34 C92 3.548 . S
C179 C121 3.548 . S
C150 C208 3.548 . S
C237 C353 3.548 . S
C382 C266 3.548 . S
C295 C411 3.548 . S
C324 C440 3.548 . S
C469 C556 3.548 . S
C614 C498 3.548 . S
C643 C527 3.548 . S
C585 C672 3.548 . S
C651 C13 3.778 . S
C42 C477 3.778 . S
C680 C71 3.778 1_545 S
C100 C622 3.778 1_455 S
C535 C129 3.778 1_545 S
C158 C564 3.778 1_455 S
C187 C593 3.778 . S
C506 C216 3.778 . S
C390 C245 3.778 . S
C419 C274 3.778 1_556 S
C448 C303 3.778 . S
C332 C361 3.778 1_554 S
C300 C155 3.832 . S
C184 C329 3.832 . S
C213 C242 3.832 1_565 S
C271 C126 3.832 1_655 S
C97 C416 3.832 1_565 S
C445 C10 3.832 1_655 S
C39 C358 3.832 . S
C387 C68 3.832 . S
C503 C677 3.832 . S
C532 C619 3.832 1_556 S
C648 C561 3.832 . S
C590 C474 3.832 1_556 S
C21 C137 2.020 . S
C50 C166 2.020 . S
C195 C79 2.020 . S
C108 C224 2.020 . S
C253 C427 2.020 . S
C282 C456 2.020 . S
C311 C369 2.020 . S
C398 C340 2.020 . S
C485 C630 2.020 . S
C514 C572 2.020 . S
C543 C601 2.020 . S
C659 C688 2.020 . S
C90 C148 1.071 . S
C177 C3 1.071 . S
C32 C206 1.071 . S
C61 C119 1.071 . S
C525 C670 1.071 . S
C612 C554 1.071 . S
C641 C583 1.071 . S
C496 C467 1.071 . S
C264 C322 1.071 . S
C380 C438 1.071 . S
C409 C351 1.071 . S
C235 C293 1.071 . S
