# Generated by pormake.
# Topology qtz-e, (6)-cn, num edge types: 1
# Building blocks:
#     Node 0, Type 0, BuildingBlock: BETDAH_clean_sbu_0, # of connection points: 6
#     Node 1, Type 0, BuildingBlock: BETDAH_clean_sbu_0, # of connection points: 6
#     Node 2, Type 0, BuildingBlock: BETDAH_clean_sbu_0, # of connection points: 6
#     Node 3, Type 0, BuildingBlock: BETDAH_clean_sbu_0, # of connection points: 6
#     Node 4, Type 0, BuildingBlock: BETDAH_clean_sbu_0, # of connection points: 6
#     Node 5, Type 0, BuildingBlock: BETDAH_clean_sbu_0, # of connection points: 6
#     Edge 6, Type (0, 0), BuildingBlock: EYOCIG_clean_linker_4, # of connection points: 2
#     Edge 7, Type (0, 0), BuildingBlock: EYOCIG_clean_linker_4, # of connection points: 2
#     Edge 8, Type (0, 0), BuildingBlock: EYOCIG_clean_linker_4, # of connection points: 2
#     Edge 9, Type (0, 0), BuildingBlock: EYOCIG_clean_linker_4, # of connection points: 2
#     Edge 10, Type (0, 0), BuildingBlock: EYOCIG_clean_linker_4, # of connection points: 2
#     Edge 11, Type (0, 0), BuildingBlock: EYOCIG_clean_linker_4, # of connection points: 2
#     Edge 12, Type (0, 0), BuildingBlock: EYOCIG_clean_linker_4, # of connection points: 2
#     Edge 13, Type (0, 0), BuildingBlock: EYOCIG_clean_linker_4, # of connection points: 2
#     Edge 14, Type (0, 0), BuildingBlock: EYOCIG_clean_linker_4, # of connection points: 2
#     Edge 15, Type (0, 0), BuildingBlock: EYOCIG_clean_linker_4, # of connection points: 2
#     Edge 16, Type (0, 0), BuildingBlock: EYOCIG_clean_linker_4, # of connection points: 2
#     Edge 17, Type (0, 0), BuildingBlock: EYOCIG_clean_linker_4, # of connection points: 2
#     Edge 18, Type (0, 0), BuildingBlock: EYOCIG_clean_linker_4, # of connection points: 2
#     Edge 19, Type (0, 0), BuildingBlock: EYOCIG_clean_linker_4, # of connection points: 2
#     Edge 20, Type (0, 0), BuildingBlock: EYOCIG_clean_linker_4, # of connection points: 2
#     Edge 21, Type (0, 0), BuildingBlock: EYOCIG_clean_linker_4, # of connection points: 2
#     Edge 22, Type (0, 0), BuildingBlock: EYOCIG_clean_linker_4, # of connection points: 2
#     Edge 23, Type (0, 0), BuildingBlock: EYOCIG_clean_linker_4, # of connection points: 2
# Relax obj value: 0.090
# Max RMSD: 0.182
# Mean RMSD: 0.182
data_MOF--net-qtz-e--node1-BETDAH_clean_sbu_0--edge1-EYOCIG_clean_linker_4
_symmetry_space_group_name_H-M    P1
_symmetry_Int_Tables_number       1
_symmetry_cell_setting            triclinic
loop_
_symmetry_equiv_pos_as_xyz
'x, y, z'
_cell_length_a     20.395259
_cell_length_b     20.397547
_cell_length_c     44.961732
_cell_angle_alpha  90.044739
_cell_angle_beta   89.953447
_cell_angle_gamma 120.0105
loop_
_atom_site_label
_atom_site_type_symbol
_atom_site_fract_x
_atom_site_fract_y
_atom_site_fract_z
_atom_type_partial_charge
Ho0 Ho 0.21987 0.48022 0.07865 0.0
Ho1 Ho 0.17385 0.33823 0.03835 0.0
C2 C 0.13219 0.30899 0.10706 0.0
C3 C 0.21409 0.57508 0.11471 0.0
C4 C 0.21839 0.58376 0.14737 0.0
C5 C 0.15247 0.56356 0.16393 0.0
C6 C 0.15627 0.57255 0.19479 0.0
C7 C 0.22602 0.60202 0.20935 0.0
C8 C 0.29174 0.62155 0.19313 0.0
C9 C 0.2881 0.61251 0.16233 0.0
C10 C 0.33003 0.4493 0.07137 0.0
C11 C 0.27145 0.50835 1.01126 0.0
C12 C 0.16453 0.23824 1.00013 0.0
C13 C 0.17356 0.22922 0.96775 0.0
C14 C 0.24521 0.25146 0.95546 0.0
C15 C 0.25233 0.23654 0.92557 0.0
C16 C 0.18811 0.19884 0.90743 0.0
C17 C 0.11663 0.17734 0.91933 0.0
C18 C 0.10936 0.19217 0.94925 0.0
C19 C 0.07565 0.39043 0.04355 0.0
O20 O 0.15311 0.38148 0.10955 0.0
O21 O 0.14207 0.27903 0.08254 0.0
O22 O 0.27621 0.58772 0.10116 0.0
O23 O 0.15331 0.51617 0.10405 0.0
O24 O 0.34103 0.51482 0.07949 0.0
O25 O 0.26043 0.39903 0.07281 0.0
O26 O 0.25312 0.43642 1.0094 0.0
O27 O 0.25214 0.53631 0.03402 0.0
O28 O 0.10698 0.24569 1.00816 0.0
O29 O 0.22542 0.28126 0.01576 0.0
O30 O 0.05338 0.31893 0.04158 0.0
O31 O 0.14558 0.42817 0.0412 0.0
H32 H 0.09813 0.54149 0.15299 0.0
H33 H 0.10512 0.55784 0.20717 0.0
H34 H 0.34608 0.64504 0.20421 0.0
H35 H 0.34005 0.62875 0.15031 0.0
H36 H 0.29576 0.2792 0.96903 0.0
H37 H 0.30804 0.25353 0.91673 0.0
H38 H 0.06635 0.1481 0.90564 0.0
H39 H 0.05325 0.17329 0.95805 0.0
Ho40 Ho 0.73615 0.22106 0.4115 0.0
Ho41 Ho 0.83216 0.17456 0.37157 0.0
C42 C 0.81931 0.13345 0.44031 0.0
C43 C 0.63572 0.21622 0.44744 0.0
C44 C 0.63115 0.22064 0.48009 0.0
C45 C 0.58514 0.15481 0.49663 0.0
C46 C 0.57966 0.15877 0.52747 0.0
C47 C 0.61993 0.22856 0.54202 0.0
C48 C 0.66643 0.29417 0.52583 0.0
C49 C 0.67211 0.29038 0.49505 0.0
C50 C 0.87708 0.33125 0.40399 0.0
C51 C 0.75923 0.27128 0.34402 0.0
C52 C 0.92294 0.16498 0.33348 0.0
C53 C 0.94139 0.17445 0.30114 0.0
C54 C 0.99074 0.24627 0.289 0.0
C55 C 0.01299 0.25375 0.25912 0.0
C56 C 0.98673 0.18974 0.24086 0.0
C57 C 0.93683 0.1181 0.25262 0.0
C58 C 0.91454 0.11047 0.28252 0.0
C59 C 0.68181 0.07627 0.37683 0.0
O60 O 0.76793 0.15466 0.44266 0.0
O61 O 0.85921 0.14293 0.41584 0.0
O62 O 0.68565 0.27814 0.43394 0.0
O63 O 0.63337 0.15518 0.43681 0.0
O64 O 0.82234 0.34229 0.41172 0.0
O65 O 0.85809 0.2618 0.40581 0.0
O66 O 0.81312 0.25331 0.34236 0.0
O67 O 0.71186 0.25208 0.36673 0.0
O68 O 0.85757 0.10765 0.34128 0.0
O69 O 0.94108 0.22569 0.34929 0.0
O70 O 0.73113 0.05407 0.37509 0.0
O71 O 0.71389 0.14613 0.37427 0.0
H72 H 0.55286 0.10046 0.4857 0.0
H73 H 0.54299 0.1077 0.53985 0.0
H74 H 0.69728 0.34853 0.53691 0.0
H75 H 0.70803 0.34225 0.48303 0.0
H76 H 0.01333 0.29668 0.30266 0.0
H77 H 0.05165 0.30958 0.25039 0.0
H78 H 0.91599 0.06798 0.23884 0.0
H79 H 0.87733 0.05425 0.29121 0.0
Ho80 Ho 0.51197 0.73742 0.74526 0.0
Ho81 Ho 0.65401 0.83334 0.70501 0.0
C82 C 0.68322 0.82137 0.77373 0.0
C83 C 0.41714 0.63701 0.78137 0.0
C84 C 0.40869 0.63263 0.81404 0.0
C85 C 0.42924 0.58712 0.83052 0.0
C86 C 0.42035 0.58186 0.86138 0.0
C87 C 0.39063 0.62185 0.87602 0.0
C88 C 0.37079 0.66785 0.85989 0.0
C89 C 0.37973 0.67332 0.82909 0.0
C90 C 0.54238 0.87818 0.73769 0.0
C91 C 0.48389 0.75976 0.67778 0.0
C92 C 0.75382 0.92396 0.66674 0.0
C93 C 0.76247 0.94223 0.6344 0.0
C94 C 0.74006 0.99168 0.62232 0.0
C95 C 0.75464 0.01388 0.59245 0.0
C96 C 0.79216 0.98749 0.57411 0.0
C97 C 0.81379 0.93746 0.58579 0.0
C98 C 0.79931 0.91521 0.6157 0.0
C99 C 0.60217 0.6831 0.71041 0.0
O100 O 0.61068 0.76989 0.77623 0.0
O101 O 0.71326 0.86098 0.74918 0.0
O102 O 0.40469 0.68669 0.76793 0.0
O103 O 0.47581 0.63486 0.77059 0.0
O104 O 0.47681 0.82351 0.74569 0.0
O105 O 0.5929 0.85924 0.73934 0.0
O106 O 0.55573 0.81369 0.67596 0.0
O107 O 0.45603 0.71272 0.70059 0.0
O108 O 0.74602 0.85871 0.67455 0.0
O109 O 0.71132 0.94207 0.68262 0.0
O110 O 0.67368 0.73245 0.70849 0.0
O111 O 0.56433 0.71511 0.70794 0.0
H112 H 0.45148 0.55506 0.81951 0.0
H113 H 0.43529 0.54555 0.8737 0.0
H114 H 0.34712 0.69847 0.87104 0.0
H115 H 0.3632 0.70884 0.81713 0.0
H116 H 0.71246 0.01439 0.63605 0.0
H117 H 0.73756 0.05264 0.58378 0.0
H118 H 0.84289 0.91652 0.57195 0.0
H119 H 0.81829 0.87794 0.62432 0.0
Ho120 Ho 0.77026 0.51353 0.07833 0.0
Ho121 Ho 0.81721 0.65583 0.03815 0.0
C122 C 0.85925 0.68467 0.10685 0.0
C123 C 0.77521 0.41794 0.11416 0.0
C124 C 0.77117 0.40905 0.1468 0.0
C125 C 0.83722 0.42912 0.16322 0.0
C126 C 0.83361 0.41978 0.19406 0.0
C127 C 0.76395 0.3901 0.20872 0.0
C128 C 0.69811 0.37071 0.19265 0.0
C129 C 0.70156 0.38009 0.16188 0.0
C130 C 0.66087 0.54564 0.07128 0.0
C131 C 0.71843 0.48586 1.01098 0.0
C132 C 0.82715 0.75615 1.00003 0.0
C133 C 0.8178 0.76511 0.96769 0.0
C134 C 0.74603 0.74276 0.95553 0.0
C135 C 0.73866 0.75756 0.92566 0.0
C136 C 0.80274 0.79523 0.90742 0.0
C137 C 0.87432 0.81684 0.9192 0.0
C138 C 0.88184 0.80214 0.9491 0.0
C139 C 0.91453 0.60256 0.04316 0.0
O140 O 0.83774 0.61203 0.10928 0.0
O141 O 0.84963 0.71492 0.08238 0.0
O142 O 0.71317 0.40605 0.1008 0.0
O143 O 0.83622 0.47652 0.10345 0.0
O144 O 0.64935 0.47991 0.07933 0.0
O145 O 0.73062 0.59547 0.07267 0.0
O146 O 0.73731 0.55795 1.00919 0.0
O147 O 0.73746 0.45757 0.03368 0.0
O148 O 0.88437 0.74799 1.00786 0.0
O149 O 0.76635 0.71371 0.01583 0.0
O150 O 0.93731 0.67419 0.04128 0.0
O151 O 0.84458 0.56524 0.04085 0.0
H152 H 0.89149 0.45133 0.15219 0.0
H153 H 0.88485 0.43438 0.20634 0.0
H154 H 0.64385 0.34707 0.20382 0.0
H155 H 0.64952 0.36392 0.14996 0.0
H156 H 0.69558 0.71501 0.96917 0.0
H157 H 0.68288 0.74049 0.91691 0.0
H158 H 0.92449 0.84606 0.90544 0.0
H159 H 0.93802 0.82107 0.9578 0.0
Ho160 Ho 0.25414 0.77246 0.41205 0.0
Ho161 Ho 0.15832 0.81839 0.37162 0.0
C162 C 0.17122 0.86105 0.44024 0.0
C163 C 0.3549 0.77829 0.44798 0.0
C164 C 0.35927 0.77343 0.48061 0.0
C165 C 0.40548 0.839 0.49726 0.0
C166 C 0.41081 0.83469 0.52808 0.0
C167 C 0.3702 0.76479 0.54251 0.0
C168 C 0.3235 0.69942 0.5262 0.0
C169 C 0.31794 0.70358 0.49544 0.0
C170 C 0.11274 0.66261 0.40509 0.0
C171 C 0.23054 0.72032 0.34468 0.0
C172 C 0.06764 0.82745 0.33339 0.0
C173 C 0.04964 0.81816 0.30102 0.0
C174 C 0.00027 0.74643 0.2888 0.0
C175 C 0.97832 0.73908 0.2589 0.0
C176 C 0.00489 0.80316 0.24069 0.0
C177 C 0.05483 0.87472 0.25252 0.0
C178 C 0.07684 0.88221 0.28245 0.0
C179 C 0.30883 0.91623 0.37665 0.0
O180 O 0.22266 0.83999 0.44279 0.0
O181 O 0.13126 0.85089 0.41575 0.0
O182 O 0.30573 0.71629 0.43429 0.0
O183 O 0.35636 0.83905 0.43756 0.0
O184 O 0.16706 0.65146 0.41335 0.0
O185 O 0.13249 0.73232 0.40628 0.0
O186 O 0.17699 0.73871 0.34278 0.0
O187 O 0.27777 0.73975 0.36743 0.0
O188 O 0.13267 0.88505 0.34135 0.0
O189 O 0.04973 0.76669 0.34911 0.0
O190 O 0.25981 0.93874 0.37459 0.0
O191 O 0.2764 0.84628 0.37446 0.0
H192 H 0.438 0.89343 0.48641 0.0
H193 H 0.44763 0.88557 0.54054 0.0
H194 H 0.29236 0.64497 0.53718 0.0
H195 H 0.28184 0.6519 0.48334 0.0
H196 H 0.97741 0.69597 0.30243 0.0
H197 H 0.93961 0.68332 0.25012 0.0
H198 H 0.07591 0.9249 0.23878 0.0
H199 H 0.11405 0.93839 0.29119 0.0
Ho200 Ho 0.47818 0.2552 0.74496 0.0
Ho201 Ho 0.33595 0.16009 0.70486 0.0
C202 C 0.30711 0.172 0.77362 0.0
C203 C 0.57362 0.35506 0.7811 0.0
C204 C 0.58168 0.35985 0.81378 0.0
C205 C 0.56072 0.40536 0.83008 0.0
C206 C 0.56937 0.41106 0.86095 0.0
C207 C 0.59926 0.37153 0.87577 0.0
C208 C 0.61954 0.32556 0.85981 0.0
C209 C 0.61086 0.31967 0.829 0.0
C210 C 0.44722 0.11438 0.73702 0.0
C211 C 0.50589 0.23302 0.67741 0.0
C212 C 0.23578 0.06994 0.6666 0.0
C213 C 0.22704 0.05186 0.63424 0.0
C214 C 0.24936 0.00246 0.62202 0.0
C215 C 0.23478 0.98053 0.59211 0.0
C216 C 0.19735 0.00715 0.5739 0.0
C217 C 0.17577 0.05712 0.58573 0.0
C218 C 0.19026 0.07911 0.61566 0.0
C219 C 0.38846 0.31043 0.71043 0.0
O220 O 0.37975 0.22318 0.77608 0.0
O221 O 0.27684 0.13254 0.74907 0.0
O222 O 0.58497 0.30432 0.76791 0.0
O223 O 0.51583 0.35838 0.77007 0.0
O224 O 0.51306 0.16894 0.74478 0.0
O225 O 0.39679 0.13341 0.739 0.0
O226 O 0.43393 0.17939 0.67562 0.0
O227 O 0.53403 0.27992 0.70026 0.0
O228 O 0.24393 0.13527 0.67453 0.0
O229 O 0.27812 0.05147 0.68237 0.0
O230 O 0.31688 0.26133 0.7086 0.0
O231 O 0.42603 0.27816 0.7078 0.0
H232 H 0.53836 0.4371 0.81895 0.0
H233 H 0.55412 0.44736 0.87314 0.0
H234 H 0.64338 0.29532 0.87109 0.0
H235 H 0.62777 0.28423 0.81718 0.0
H236 H 0.27692 0.97957 0.63564 0.0
H237 H 0.25181 0.9418 0.58332 0.0
H238 H 0.14673 0.07824 0.57199 0.0
H239 H 0.17135 0.11636 0.62442 0.0
C240 C 0.24102 0.65557 0.29617 0.0
C241 C 0.24132 0.68461 0.31941 0.0
C242 C 0.23617 0.6305 0.26677 0.0
C243 C 0.23132 0.61743 0.24059 0.0
C244 C 0.58077 0.24385 0.62876 0.0
C245 C 0.55212 0.24395 0.65205 0.0
C246 C 0.60109 0.23901 0.59938 0.0
C247 C 0.60954 0.23403 0.57323 0.0
C248 C 0.3366 0.58336 0.96279 0.0
C249 C 0.30737 0.55477 0.98602 0.0
C250 C 0.36196 0.60343 0.93343 0.0
C251 C 0.37518 0.61158 0.90725 0.0
C252 C 0.74891 0.33558 0.2954 0.0
C253 C 0.74858 0.30668 0.31866 0.0
C254 C 0.75389 0.36087 0.26606 0.0
C255 C 0.75882 0.37432 0.23992 0.0
C256 C 0.40888 0.7487 0.62919 0.0
C257 C 0.43753 0.74863 0.65247 0.0
C258 C 0.38868 0.75369 0.59983 0.0
C259 C 0.38036 0.75893 0.57369 0.0
C260 C 0.65291 0.41099 0.96252 0.0
C261 C 0.68228 0.4396 0.98573 0.0
C262 C 0.62756 0.39071 0.93317 0.0
C263 C 0.61447 0.38228 0.907 0.0
C264 C 0.4559 0.47429 0.04997 0.0
C265 C 0.39047 0.44504 0.05732 0.0
C266 C 0.53533 0.52141 0.04995 0.0
C267 C 0.60075 0.55043 0.05725 0.0
C268 C 0.01204 0.53687 0.38356 0.0
C269 C 0.04825 0.60227 0.39092 0.0
C270 C 0.97952 0.45743 0.38347 0.0
C271 C 0.94276 0.39188 0.39055 0.0
C272 C 0.47075 0.01188 0.71644 0.0
C273 C 0.44198 0.04865 0.72355 0.0
C274 C 0.51765 0.97937 0.71653 0.0
C275 C 0.54677 0.94308 0.72383 0.0
C276 C 0.52371 0.53544 0.71498 0.0
C277 C 0.56726 0.60254 0.71312 0.0
C278 C 0.46737 0.4581 0.715 0.0
C279 C 0.42369 0.39102 0.71316 0.0
C280 C 0.00572 0.46837 0.04769 0.0
C281 C 0.02993 0.42533 0.046 0.0
C282 C 0.98373 0.52396 0.0476 0.0
C283 C 0.95976 0.56716 0.04577 0.0
C284 C 0.45659 0.98533 0.38108 0.0
C285 C 0.38946 0.96163 0.37924 0.0
C286 C 0.53403 0.00677 0.38116 0.0
C287 C 0.60121 0.0306 0.37942 0.0
C288 C 0.23176 0.16074 0.82292 0.0
C289 C 0.26029 0.16092 0.7993 0.0
C290 C 0.20872 0.16937 0.85175 0.0
C291 C 0.19618 0.18137 0.87689 0.0
C292 C 0.03683 0.21067 0.18518 0.0
C293 C 0.01236 0.19811 0.21033 0.0
C294 C 0.06835 0.2336 0.15633 0.0
C295 C 0.09661 0.26208 0.13271 0.0
C296 C 0.82133 0.03775 0.51846 0.0
C297 C 0.8094 0.01322 0.54359 0.0
C298 C 0.83011 0.06939 0.48964 0.0
C299 C 0.83017 0.09774 0.46601 0.0
C300 C 0.75873 0.833 0.82296 0.0
C301 C 0.73016 0.83271 0.79936 0.0
C302 C 0.78181 0.82446 0.85178 0.0
C303 C 0.79444 0.81255 0.8769 0.0
C304 C 0.95511 0.78251 0.18499 0.0
C305 C 0.97944 0.79494 0.21015 0.0
C306 C 0.92358 0.75975 0.15614 0.0
C307 C 0.89514 0.73141 0.13251 0.0
C308 C 0.16841 0.9573 0.51819 0.0
C309 C 0.18018 0.98173 0.54334 0.0
C310 C 0.1599 0.92561 0.48938 0.0
C311 C 0.16004 0.89702 0.46582 0.0
loop_
_geom_bond_atom_site_label_1
_geom_bond_atom_site_label_2
_geom_bond_distance
_geom_bond_site_symmetry_2
_ccdc_geom_bond_type
Ho0 C3 2.811 . S
Ho0 O20 2.322 . S
Ho0 O22 2.378 . S
Ho0 O23 2.524 . S
Ho0 O24 2.381 . S
Ho0 O25 2.669 . S
Ho0 O27 2.346 . S
Ho0 O31 2.305 . S
Ho1 C12 2.811 1_554 S
Ho1 O21 2.346 . S
Ho1 O25 2.305 . S
Ho1 O26 2.322 1_554 S
Ho1 O28 2.378 1_554 S
Ho1 O29 2.524 1_554 S
Ho1 O30 2.381 . S
Ho1 O31 2.669 . S
C2 O20 1.259 . S
C2 O21 1.268 . S
C3 Ho0 2.811 . S
C3 C4 1.488 . S
C3 O22 1.215 . S
C3 O23 1.289 . S
C4 C3 1.488 . S
C4 C5 1.348 . S
C4 C9 1.413 . S
C5 C4 1.348 . S
C5 C6 1.442 . S
C5 H32 0.930 . S
C6 C5 1.442 . S
C6 C7 1.381 . S
C6 H33 0.931 . S
C7 C6 1.381 . S
C7 C8 1.321 . S
C8 C7 1.321 . S
C8 C9 1.403 . S
C8 H34 0.934 . S
C9 C4 1.413 . S
C9 C8 1.403 . S
C9 H35 0.930 . S
C10 O24 1.275 . S
C10 O25 1.256 . S
C11 O26 1.259 . S
C11 O27 1.268 1_556 S
C12 Ho1 2.811 1_556 S
C12 C13 1.488 . S
C12 O28 1.215 . S
C12 O29 1.289 . S
C13 C12 1.488 . S
C13 C14 1.348 . S
C13 C18 1.413 . S
C14 C13 1.348 . S
C14 C15 1.442 . S
C14 H36 0.930 . S
C15 C14 1.442 . S
C15 C16 1.381 . S
C15 H37 0.931 . S
C16 C15 1.381 . S
C16 C17 1.321 . S
C17 C16 1.321 . S
C17 C18 1.403 . S
C17 H38 0.934 . S
C18 C13 1.413 . S
C18 C17 1.403 . S
C18 H39 0.930 . S
C19 O30 1.275 . S
C19 O31 1.256 . S
O20 Ho0 2.322 . S
O20 C2 1.259 . S
O21 Ho1 2.346 . S
O21 C2 1.268 . S
O22 Ho0 2.378 . S
O22 C3 1.215 . S
O23 Ho0 2.524 . S
O23 C3 1.289 . S
O24 Ho0 2.381 . S
O24 C10 1.275 . S
O25 Ho0 2.669 . S
O25 Ho1 2.305 . S
O25 C10 1.256 . S
O26 Ho1 2.322 1_556 S
O26 C11 1.259 . S
O27 Ho0 2.346 . S
O27 C11 1.268 1_554 S
O28 Ho1 2.378 1_556 S
O28 C12 1.215 . S
O29 Ho1 2.524 1_556 S
O29 C12 1.289 . S
O30 Ho1 2.381 . S
O30 C19 1.275 . S
O31 Ho0 2.305 . S
O31 Ho1 2.669 . S
O31 C19 1.256 . S
H32 C5 0.930 . S
H33 C6 0.931 . S
H34 C8 0.934 . S
H35 C9 0.930 . S
H36 C14 0.930 . S
H37 C15 0.931 . S
H38 C17 0.934 . S
H39 C18 0.930 . S
Ho40 C43 2.811 . S
Ho40 O60 2.322 . S
Ho40 O62 2.378 . S
Ho40 O63 2.524 . S
Ho40 O64 2.381 . S
Ho40 O65 2.669 . S
Ho40 O67 2.346 . S
Ho40 O71 2.305 . S
Ho41 C52 2.811 . S
Ho41 O61 2.346 . S
Ho41 O65 2.305 . S
Ho41 O66 2.322 . S
Ho41 O68 2.378 . S
Ho41 O69 2.524 . S
Ho41 O70 2.381 . S
Ho41 O71 2.669 . S
C42 O60 1.259 . S
C42 O61 1.268 . S
C43 Ho40 2.811 . S
C43 C44 1.488 . S
C43 O62 1.215 . S
C43 O63 1.289 . S
C44 C43 1.488 . S
C44 C45 1.348 . S
C44 C49 1.413 . S
C45 C44 1.348 . S
C45 C46 1.442 . S
C45 H72 0.930 . S
C46 C45 1.442 . S
C46 C47 1.381 . S
C46 H73 0.931 . S
C47 C46 1.381 . S
C47 C48 1.321 . S
C48 C47 1.321 . S
C48 C49 1.403 . S
C48 H74 0.934 . S
C49 C44 1.413 . S
C49 C48 1.403 . S
C49 H75 0.930 . S
C50 O64 1.275 . S
C50 O65 1.256 . S
C51 O66 1.259 . S
C51 O67 1.268 . S
C52 Ho41 2.811 . S
C52 C53 1.488 . S
C52 O68 1.215 . S
C52 O69 1.289 . S
C53 C52 1.488 . S
C53 C54 1.348 . S
C53 C58 1.413 . S
C54 C53 1.348 . S
C54 C55 1.442 1_655 S
C54 H76 0.930 1_655 S
C55 C54 1.442 1_455 S
C55 C56 1.379 . S
C55 H77 0.931 . S
C56 C55 1.379 . S
C56 C57 1.317 1_455 S
C57 C56 1.317 1_655 S
C57 C58 1.403 . S
C57 H78 0.934 . S
C58 C53 1.413 . S
C58 C57 1.403 . S
C58 H79 0.930 . S
C59 O70 1.275 . S
C59 O71 1.256 . S
O60 Ho40 2.322 . S
O60 C42 1.259 . S
O61 Ho41 2.346 . S
O61 C42 1.268 . S
O62 Ho40 2.378 . S
O62 C43 1.215 . S
O63 Ho40 2.524 . S
O63 C43 1.289 . S
O64 Ho40 2.381 . S
O64 C50 1.275 . S
O65 Ho40 2.669 . S
O65 Ho41 2.305 . S
O65 C50 1.256 . S
O66 Ho41 2.322 . S
O66 C51 1.259 . S
O67 Ho40 2.346 . S
O67 C51 1.268 . S
O68 Ho41 2.378 . S
O68 C52 1.215 . S
O69 Ho41 2.524 . S
O69 C52 1.289 . S
O70 Ho41 2.381 . S
O70 C59 1.275 . S
O71 Ho40 2.305 . S
O71 Ho41 2.669 . S
O71 C59 1.256 . S
H72 C45 0.930 . S
H73 C46 0.931 . S
H74 C48 0.934 . S
H75 C49 0.930 . S
H76 C54 0.930 1_455 S
H77 C55 0.931 . S
H78 C57 0.934 . S
H79 C58 0.930 . S
Ho80 C83 2.811 . S
Ho80 O100 2.322 . S
Ho80 O102 2.378 . S
Ho80 O103 2.524 . S
Ho80 O104 2.381 . S
Ho80 O105 2.669 . S
Ho80 O107 2.346 . S
Ho80 O111 2.305 . S
Ho81 C92 2.811 . S
Ho81 O101 2.346 . S
Ho81 O105 2.305 . S
Ho81 O106 2.322 . S
Ho81 O108 2.378 . S
Ho81 O109 2.524 . S
Ho81 O110 2.381 . S
Ho81 O111 2.669 . S
C82 O100 1.259 . S
C82 O101 1.268 . S
C83 Ho80 2.811 . S
C83 C84 1.488 . S
C83 O102 1.215 . S
C83 O103 1.289 . S
C84 C83 1.488 . S
C84 C85 1.348 . S
C84 C89 1.413 . S
C85 C84 1.348 . S
C85 C86 1.442 . S
C85 H112 0.930 . S
C86 C85 1.442 . S
C86 C87 1.381 . S
C86 H113 0.931 . S
C87 C86 1.381 . S
C87 C88 1.321 . S
C88 C87 1.321 . S
C88 C89 1.403 . S
C88 H114 0.934 . S
C89 C84 1.413 . S
C89 C88 1.403 . S
C89 H115 0.930 . S
C90 O104 1.275 . S
C90 O105 1.256 . S
C91 O106 1.259 . S
C91 O107 1.268 . S
C92 Ho81 2.811 . S
C92 C93 1.488 . S
C92 O108 1.215 . S
C92 O109 1.289 . S
C93 C92 1.488 . S
C93 C94 1.348 . S
C93 C98 1.413 . S
C94 C93 1.348 . S
C94 C95 1.442 1_565 S
C94 H116 0.930 1_565 S
C95 C94 1.442 1_545 S
C95 C96 1.392 . S
C95 H117 0.931 . S
C96 C95 1.392 . S
C96 C97 1.307 1_545 S
C97 C96 1.307 1_565 S
C97 C98 1.403 . S
C97 H118 0.934 . S
C98 C93 1.413 . S
C98 C97 1.403 . S
C98 H119 0.930 . S
C99 O110 1.275 . S
C99 O111 1.256 . S
O100 Ho80 2.322 . S
O100 C82 1.259 . S
O101 Ho81 2.346 . S
O101 C82 1.268 . S
O102 Ho80 2.378 . S
O102 C83 1.215 . S
O103 Ho80 2.524 . S
O103 C83 1.289 . S
O104 Ho80 2.381 . S
O104 C90 1.275 . S
O105 Ho80 2.669 . S
O105 Ho81 2.305 . S
O105 C90 1.256 . S
O106 Ho81 2.322 . S
O106 C91 1.259 . S
O107 Ho80 2.346 . S
O107 C91 1.268 . S
O108 Ho81 2.378 . S
O108 C92 1.215 . S
O109 Ho81 2.524 . S
O109 C92 1.289 . S
O110 Ho81 2.381 . S
O110 C99 1.275 . S
O111 Ho80 2.305 . S
O111 Ho81 2.669 . S
O111 C99 1.256 . S
H112 C85 0.930 . S
H113 C86 0.931 . S
H114 C88 0.934 . S
H115 C89 0.930 . S
H116 C94 0.930 1_545 S
H117 C95 0.931 . S
H118 C97 0.934 . S
H119 C98 0.930 . S
Ho120 C123 2.811 . S
Ho120 O140 2.322 . S
Ho120 O142 2.378 . S
Ho120 O143 2.524 . S
Ho120 O144 2.381 . S
Ho120 O145 2.669 . S
Ho120 O147 2.346 . S
Ho120 O151 2.305 . S
Ho121 C132 2.811 1_554 S
Ho121 O141 2.346 . S
Ho121 O145 2.305 . S
Ho121 O146 2.322 1_554 S
Ho121 O148 2.378 1_554 S
Ho121 O149 2.524 1_554 S
Ho121 O150 2.381 . S
Ho121 O151 2.669 . S
C122 O140 1.259 . S
C122 O141 1.268 . S
C123 Ho120 2.811 . S
C123 C124 1.488 . S
C123 O142 1.215 . S
C123 O143 1.289 . S
C124 C123 1.488 . S
C124 C125 1.348 . S
C124 C129 1.413 . S
C125 C124 1.348 . S
C125 C126 1.442 . S
C125 H152 0.930 . S
C126 C125 1.442 . S
C126 C127 1.381 . S
C126 H153 0.931 . S
C127 C126 1.381 . S
C127 C128 1.321 . S
C128 C127 1.321 . S
C128 C129 1.403 . S
C128 H154 0.934 . S
C129 C124 1.413 . S
C129 C128 1.403 . S
C129 H155 0.930 . S
C130 O144 1.275 . S
C130 O145 1.256 . S
C131 O146 1.259 . S
C131 O147 1.268 1_556 S
C132 Ho121 2.811 1_556 S
C132 C133 1.488 . S
C132 O148 1.215 . S
C132 O149 1.289 . S
C133 C132 1.488 . S
C133 C134 1.348 . S
C133 C138 1.413 . S
C134 C133 1.348 . S
C134 C135 1.442 . S
C134 H156 0.930 . S
C135 C134 1.442 . S
C135 C136 1.381 . S
C135 H157 0.931 . S
C136 C135 1.381 . S
C136 C137 1.321 . S
C137 C136 1.321 . S
C137 C138 1.403 . S
C137 H158 0.934 . S
C138 C133 1.413 . S
C138 C137 1.403 . S
C138 H159 0.930 . S
C139 O150 1.275 . S
C139 O151 1.256 . S
O140 Ho120 2.322 . S
O140 C122 1.259 . S
O141 Ho121 2.346 . S
O141 C122 1.268 . S
O142 Ho120 2.378 . S
O142 C123 1.215 . S
O143 Ho120 2.524 . S
O143 C123 1.289 . S
O144 Ho120 2.381 . S
O144 C130 1.275 . S
O145 Ho120 2.669 . S
O145 Ho121 2.305 . S
O145 C130 1.256 . S
O146 Ho121 2.322 1_556 S
O146 C131 1.259 . S
O147 Ho120 2.346 . S
O147 C131 1.268 1_554 S
O148 Ho121 2.378 1_556 S
O148 C132 1.215 . S
O149 Ho121 2.524 1_556 S
O149 C132 1.289 . S
O150 Ho121 2.381 . S
O150 C139 1.275 . S
O151 Ho120 2.305 . S
O151 Ho121 2.669 . S
O151 C139 1.256 . S
H152 C125 0.930 . S
H153 C126 0.931 . S
H154 C128 0.934 . S
H155 C129 0.930 . S
H156 C134 0.930 . S
H157 C135 0.931 . S
H158 C137 0.934 . S
H159 C138 0.930 . S
Ho160 C163 2.811 . S
Ho160 O180 2.322 . S
Ho160 O182 2.378 . S
Ho160 O183 2.524 . S
Ho160 O184 2.381 . S
Ho160 O185 2.669 . S
Ho160 O187 2.346 . S
Ho160 O191 2.305 . S
Ho161 C172 2.811 . S
Ho161 O181 2.346 . S
Ho161 O185 2.305 . S
Ho161 O186 2.322 . S
Ho161 O188 2.378 . S
Ho161 O189 2.524 . S
Ho161 O190 2.381 . S
Ho161 O191 2.669 . S
C162 O180 1.259 . S
C162 O181 1.268 . S
C163 Ho160 2.811 . S
C163 C164 1.488 . S
C163 O182 1.215 . S
C163 O183 1.289 . S
C164 C163 1.488 . S
C164 C165 1.348 . S
C164 C169 1.413 . S
C165 C164 1.348 . S
C165 C166 1.442 . S
C165 H192 0.930 . S
C166 C165 1.442 . S
C166 C167 1.381 . S
C166 H193 0.931 . S
C167 C166 1.381 . S
C167 C168 1.321 . S
C168 C167 1.321 . S
C168 C169 1.403 . S
C168 H194 0.934 . S
C169 C164 1.413 . S
C169 C168 1.403 . S
C169 H195 0.930 . S
C170 O184 1.275 . S
C170 O185 1.256 . S
C171 O186 1.259 . S
C171 O187 1.268 . S
C172 Ho161 2.811 . S
C172 C173 1.488 . S
C172 O188 1.215 . S
C172 O189 1.289 . S
C173 C172 1.488 . S
C173 C174 1.348 . S
C173 C178 1.413 . S
C174 C173 1.348 . S
C174 C175 1.442 1_455 S
C174 H196 0.930 1_455 S
C175 C174 1.442 1_655 S
C175 C176 1.379 . S
C175 H197 0.931 . S
C176 C175 1.379 . S
C176 C177 1.317 1_655 S
C177 C176 1.317 1_455 S
C177 C178 1.403 . S
C177 H198 0.934 . S
C178 C173 1.413 . S
C178 C177 1.403 . S
C178 H199 0.930 . S
C179 O190 1.275 . S
C179 O191 1.256 . S
O180 Ho160 2.322 . S
O180 C162 1.259 . S
O181 Ho161 2.346 . S
O181 C162 1.268 . S
O182 Ho160 2.378 . S
O182 C163 1.215 . S
O183 Ho160 2.524 . S
O183 C163 1.289 . S
O184 Ho160 2.381 . S
O184 C170 1.275 . S
O185 Ho160 2.669 . S
O185 Ho161 2.305 . S
O185 C170 1.256 . S
O186 Ho161 2.322 . S
O186 C171 1.259 . S
O187 Ho160 2.346 . S
O187 C171 1.268 . S
O188 Ho161 2.378 . S
O188 C172 1.215 . S
O189 Ho161 2.524 . S
O189 C172 1.289 . S
O190 Ho161 2.381 . S
O190 C179 1.275 . S
O191 Ho160 2.305 . S
O191 Ho161 2.669 . S
O191 C179 1.256 . S
H192 C165 0.930 . S
H193 C166 0.931 . S
H194 C168 0.934 . S
H195 C169 0.930 . S
H196 C174 0.930 1_655 S
H197 C175 0.931 . S
H198 C177 0.934 . S
H199 C178 0.930 . S
Ho200 C203 2.811 . S
Ho200 O220 2.322 . S
Ho200 O222 2.378 . S
Ho200 O223 2.524 . S
Ho200 O224 2.381 . S
Ho200 O225 2.669 . S
Ho200 O227 2.346 . S
Ho200 O231 2.305 . S
Ho201 C212 2.811 . S
Ho201 O221 2.346 . S
Ho201 O225 2.305 . S
Ho201 O226 2.322 . S
Ho201 O228 2.378 . S
Ho201 O229 2.524 . S
Ho201 O230 2.381 . S
Ho201 O231 2.669 . S
C202 O220 1.259 . S
C202 O221 1.268 . S
C203 Ho200 2.811 . S
C203 C204 1.488 . S
C203 O222 1.215 . S
C203 O223 1.289 . S
C204 C203 1.488 . S
C204 C205 1.348 . S
C204 C209 1.413 . S
C205 C204 1.348 . S
C205 C206 1.442 . S
C205 H232 0.930 . S
C206 C205 1.442 . S
C206 C207 1.381 . S
C206 H233 0.931 . S
C207 C206 1.381 . S
C207 C208 1.321 . S
C208 C207 1.321 . S
C208 C209 1.403 . S
C208 H234 0.934 . S
C209 C204 1.413 . S
C209 C208 1.403 . S
C209 H235 0.930 . S
C210 O224 1.275 . S
C210 O225 1.256 . S
C211 O226 1.259 . S
C211 O227 1.268 . S
C212 Ho201 2.811 . S
C212 C213 1.488 . S
C212 O228 1.215 . S
C212 O229 1.289 . S
C213 C212 1.488 . S
C213 C214 1.348 . S
C213 C218 1.413 . S
C214 C213 1.348 . S
C214 C215 1.442 1_545 S
C214 H236 0.930 1_545 S
C215 C214 1.442 1_565 S
C215 C216 1.392 . S
C215 H237 0.931 . S
C216 C215 1.392 . S
C216 C217 1.307 1_565 S
C217 C216 1.307 1_545 S
C217 C218 1.403 . S
C217 H238 0.934 . S
C218 C213 1.413 . S
C218 C217 1.403 . S
C218 H239 0.930 . S
C219 O230 1.275 . S
C219 O231 1.256 . S
O220 Ho200 2.322 . S
O220 C202 1.259 . S
O221 Ho201 2.346 . S
O221 C202 1.268 . S
O222 Ho200 2.378 . S
O222 C203 1.215 . S
O223 Ho200 2.524 . S
O223 C203 1.289 . S
O224 Ho200 2.381 . S
O224 C210 1.275 . S
O225 Ho200 2.669 . S
O225 Ho201 2.305 . S
O225 C210 1.256 . S
O226 Ho201 2.322 . S
O226 C211 1.259 . S
O227 Ho200 2.346 . S
O227 C211 1.268 . S
O228 Ho201 2.378 . S
O228 C212 1.215 . S
O229 Ho201 2.524 . S
O229 C212 1.289 . S
O230 Ho201 2.381 . S
O230 C219 1.275 . S
O231 Ho200 2.305 . S
O231 Ho201 2.669 . S
O231 C219 1.256 . S
H232 C205 0.930 . S
H233 C206 0.931 . S
H234 C208 0.934 . S
H235 C209 0.930 . S
H236 C214 0.930 1_565 S
H237 C215 0.931 . S
H238 C217 0.934 . S
H239 C218 0.930 . S
C240 C241 1.170 . S
C240 C242 1.380 . S
C241 C240 1.170 . S
C242 C240 1.380 . S
C242 C243 1.170 . S
C243 C242 1.170 . S
C244 C245 1.170 . S
C244 C246 1.380 . S
C245 C244 1.170 . S
C246 C244 1.380 . S
C246 C247 1.170 . S
C247 C246 1.170 . S
C248 C249 1.170 . S
C248 C250 1.380 . S
C249 C248 1.170 . S
C250 C248 1.380 . S
C250 C251 1.170 . S
C251 C250 1.170 . S
C252 C253 1.170 . S
C252 C254 1.380 . S
C253 C252 1.170 . S
C254 C252 1.380 . S
C254 C255 1.170 . S
C255 C254 1.170 . S
C256 C257 1.170 . S
C256 C258 1.380 . S
C257 C256 1.170 . S
C258 C256 1.380 . S
C258 C259 1.170 . S
C259 C258 1.170 . S
C260 C261 1.170 . S
C260 C262 1.380 . S
C261 C260 1.170 . S
C262 C260 1.380 . S
C262 C263 1.170 . S
C263 C262 1.170 . S
C264 C265 1.170 . S
C264 C266 1.380 . S
C265 C264 1.170 . S
C266 C264 1.380 . S
C266 C267 1.170 . S
C267 C266 1.170 . S
C268 C269 1.170 . S
C268 C270 1.380 1_455 S
C269 C268 1.170 . S
C270 C268 1.380 1_655 S
C270 C271 1.170 . S
C271 C270 1.170 . S
C272 C273 1.170 . S
C272 C274 1.380 1_545 S
C273 C272 1.170 . S
C274 C272 1.380 1_565 S
C274 C275 1.170 . S
C275 C274 1.170 . S
C276 C277 1.170 . S
C276 C278 1.380 . S
C277 C276 1.170 . S
C278 C276 1.380 . S
C278 C279 1.170 . S
C279 C278 1.170 . S
C280 C281 1.170 . S
C280 C282 1.380 1_455 S
C281 C280 1.170 . S
C282 C280 1.380 1_655 S
C282 C283 1.170 . S
C283 C282 1.170 . S
C284 C285 1.170 . S
C284 C286 1.380 1_565 S
C285 C284 1.170 . S
C286 C284 1.380 1_545 S
C286 C287 1.170 . S
C287 C286 1.170 . S
C288 C289 1.170 . S
C288 C290 1.380 . S
C289 C288 1.170 . S
C290 C288 1.380 . S
C290 C291 1.170 . S
C291 C290 1.170 . S
C292 C293 1.170 . S
C292 C294 1.380 . S
C293 C292 1.170 . S
C294 C292 1.380 . S
C294 C295 1.170 . S
C295 C294 1.170 . S
C296 C297 1.170 . S
C296 C298 1.380 . S
C297 C296 1.170 . S
C298 C296 1.380 . S
C298 C299 1.170 . S
C299 C298 1.170 . S
C300 C301 1.170 . S
C300 C302 1.380 . S
C301 C300 1.170 . S
C302 C300 1.380 . S
C302 C303 1.170 . S
C303 C302 1.170 . S
C304 C305 1.170 . S
C304 C306 1.380 . S
C305 C304 1.170 . S
C306 C304 1.380 . S
C306 C307 1.170 . S
C307 C306 1.170 . S
C308 C309 1.170 . S
C308 C310 1.380 . S
C309 C308 1.170 . S
C310 C308 1.380 . S
C310 C311 1.170 . S
C311 C310 1.170 . S
C241 C171 1.228 . S
C243 C7 1.221 . S
C245 C211 1.206 . S
C247 C47 1.232 . S
C249 C11 1.229 . S
C251 C87 1.221 . S
C253 C51 1.207 . S
C255 C127 1.232 . S
C257 C91 1.208 . S
C259 C167 1.231 . S
C261 C131 1.227 . S
C263 C207 1.222 . S
C265 C10 1.172 . S
C267 C130 1.221 . S
C269 C170 1.179 . S
C271 C50 1.217 . S
C273 C210 1.230 . S
C275 C90 1.148 . S
C277 C99 1.400 . S
C279 C219 1.384 . S
C281 C19 1.394 . S
C283 C139 1.385 . S
C285 C179 1.388 . S
C287 C59 1.393 . S
C289 C202 1.389 . S
C291 C16 1.377 . S
C293 C56 1.382 . S
C295 C2 1.391 . S
C297 C96 1.344 . S
C299 C42 1.409 . S
C301 C82 1.389 . S
C303 C136 1.377 . S
C305 C176 1.343 . S
C307 C122 1.409 . S
C309 C216 1.373 . S
C311 C162 1.394 . S
