# Generated by pormake.
# Topology uli, (4)-cn, num edge types: 1
# Building blocks:
#     Node 0, Type 0, BuildingBlock: GALJAG_clean_sbu_0, # of connection points: 4
#     Node 1, Type 0, BuildingBlock: GALJAG_clean_sbu_0, # of connection points: 4
#     Node 2, Type 0, BuildingBlock: GALJAG_clean_sbu_0, # of connection points: 4
#     Node 3, Type 0, BuildingBlock: GALJAG_clean_sbu_0, # of connection points: 4
#     Node 4, Type 0, BuildingBlock: GALJAG_clean_sbu_0, # of connection points: 4
#     Node 5, Type 0, BuildingBlock: GALJAG_clean_sbu_0, # of connection points: 4
#     Node 6, Type 0, BuildingBlock: GALJAG_clean_sbu_0, # of connection points: 4
#     Node 7, Type 0, BuildingBlock: GALJAG_clean_sbu_0, # of connection points: 4
#     Node 8, Type 0, BuildingBlock: GALJAG_clean_sbu_0, # of connection points: 4
#     Node 9, Type 0, BuildingBlock: GALJAG_clean_sbu_0, # of connection points: 4
#     Node 10, Type 0, BuildingBlock: GALJAG_clean_sbu_0, # of connection points: 4
#     Node 11, Type 0, BuildingBlock: GALJAG_clean_sbu_0, # of connection points: 4
#     Node 12, Type 0, BuildingBlock: GALJAG_clean_sbu_0, # of connection points: 4
#     Node 13, Type 0, BuildingBlock: GALJAG_clean_sbu_0, # of connection points: 4
#     Node 14, Type 0, BuildingBlock: GALJAG_clean_sbu_0, # of connection points: 4
#     Node 15, Type 0, BuildingBlock: GALJAG_clean_sbu_0, # of connection points: 4
#     Node 16, Type 0, BuildingBlock: GALJAG_clean_sbu_0, # of connection points: 4
#     Node 17, Type 0, BuildingBlock: GALJAG_clean_sbu_0, # of connection points: 4
#     Node 18, Type 0, BuildingBlock: GALJAG_clean_sbu_0, # of connection points: 4
#     Node 19, Type 0, BuildingBlock: GALJAG_clean_sbu_0, # of connection points: 4
#     Node 20, Type 0, BuildingBlock: GALJAG_clean_sbu_0, # of connection points: 4
#     Node 21, Type 0, BuildingBlock: GALJAG_clean_sbu_0, # of connection points: 4
#     Node 22, Type 0, BuildingBlock: GALJAG_clean_sbu_0, # of connection points: 4
#     Node 23, Type 0, BuildingBlock: GALJAG_clean_sbu_0, # of connection points: 4
#     Node 24, Type 0, BuildingBlock: GALJAG_clean_sbu_0, # of connection points: 4
#     Node 25, Type 0, BuildingBlock: GALJAG_clean_sbu_0, # of connection points: 4
#     Node 26, Type 0, BuildingBlock: GALJAG_clean_sbu_0, # of connection points: 4
#     Node 27, Type 0, BuildingBlock: GALJAG_clean_sbu_0, # of connection points: 4
#     Node 28, Type 0, BuildingBlock: GALJAG_clean_sbu_0, # of connection points: 4
#     Node 29, Type 0, BuildingBlock: GALJAG_clean_sbu_0, # of connection points: 4
#     Node 30, Type 0, BuildingBlock: GALJAG_clean_sbu_0, # of connection points: 4
#     Node 31, Type 0, BuildingBlock: GALJAG_clean_sbu_0, # of connection points: 4
#     Node 32, Type 0, BuildingBlock: GALJAG_clean_sbu_0, # of connection points: 4
#     Node 33, Type 0, BuildingBlock: GALJAG_clean_sbu_0, # of connection points: 4
#     Node 34, Type 0, BuildingBlock: GALJAG_clean_sbu_0, # of connection points: 4
#     Node 35, Type 0, BuildingBlock: GALJAG_clean_sbu_0, # of connection points: 4
#     Node 36, Type 0, BuildingBlock: GALJAG_clean_sbu_0, # of connection points: 4
#     Node 37, Type 0, BuildingBlock: GALJAG_clean_sbu_0, # of connection points: 4
#     Node 38, Type 0, BuildingBlock: GALJAG_clean_sbu_0, # of connection points: 4
#     Node 39, Type 0, BuildingBlock: GALJAG_clean_sbu_0, # of connection points: 4
#     Node 40, Type 0, BuildingBlock: GALJAG_clean_sbu_0, # of connection points: 4
#     Node 41, Type 0, BuildingBlock: GALJAG_clean_sbu_0, # of connection points: 4
#     Node 42, Type 0, BuildingBlock: GALJAG_clean_sbu_0, # of connection points: 4
#     Node 43, Type 0, BuildingBlock: GALJAG_clean_sbu_0, # of connection points: 4
#     Node 44, Type 0, BuildingBlock: GALJAG_clean_sbu_0, # of connection points: 4
#     Node 45, Type 0, BuildingBlock: GALJAG_clean_sbu_0, # of connection points: 4
#     Node 46, Type 0, BuildingBlock: GALJAG_clean_sbu_0, # of connection points: 4
#     Node 47, Type 0, BuildingBlock: GALJAG_clean_sbu_0, # of connection points: 4
#     Edge 48, Type (0, 0), BuildingBlock: EZIPEK_clean_linker_0, # of connection points: 2
#     Edge 49, Type (0, 0), BuildingBlock: EZIPEK_clean_linker_0, # of connection points: 2
#     Edge 50, Type (0, 0), BuildingBlock: EZIPEK_clean_linker_0, # of connection points: 2
#     Edge 51, Type (0, 0), BuildingBlock: EZIPEK_clean_linker_0, # of connection points: 2
#     Edge 52, Type (0, 0), BuildingBlock: EZIPEK_clean_linker_0, # of connection points: 2
#     Edge 53, Type (0, 0), BuildingBlock: EZIPEK_clean_linker_0, # of connection points: 2
#     Edge 54, Type (0, 0), BuildingBlock: EZIPEK_clean_linker_0, # of connection points: 2
#     Edge 55, Type (0, 0), BuildingBlock: EZIPEK_clean_linker_0, # of connection points: 2
#     Edge 56, Type (0, 0), BuildingBlock: EZIPEK_clean_linker_0, # of connection points: 2
#     Edge 57, Type (0, 0), BuildingBlock: EZIPEK_clean_linker_0, # of connection points: 2
#     Edge 58, Type (0, 0), BuildingBlock: EZIPEK_clean_linker_0, # of connection points: 2
#     Edge 59, Type (0, 0), BuildingBlock: EZIPEK_clean_linker_0, # of connection points: 2
#     Edge 60, Type (0, 0), BuildingBlock: EZIPEK_clean_linker_0, # of connection points: 2
#     Edge 61, Type (0, 0), BuildingBlock: EZIPEK_clean_linker_0, # of connection points: 2
#     Edge 62, Type (0, 0), BuildingBlock: EZIPEK_clean_linker_0, # of connection points: 2
#     Edge 63, Type (0, 0), BuildingBlock: EZIPEK_clean_linker_0, # of connection points: 2
#     Edge 64, Type (0, 0), BuildingBlock: EZIPEK_clean_linker_0, # of connection points: 2
#     Edge 65, Type (0, 0), BuildingBlock: EZIPEK_clean_linker_0, # of connection points: 2
#     Edge 66, Type (0, 0), BuildingBlock: EZIPEK_clean_linker_0, # of connection points: 2
#     Edge 67, Type (0, 0), BuildingBlock: EZIPEK_clean_linker_0, # of connection points: 2
#     Edge 68, Type (0, 0), BuildingBlock: EZIPEK_clean_linker_0, # of connection points: 2
#     Edge 69, Type (0, 0), BuildingBlock: EZIPEK_clean_linker_0, # of connection points: 2
#     Edge 70, Type (0, 0), BuildingBlock: EZIPEK_clean_linker_0, # of connection points: 2
#     Edge 71, Type (0, 0), BuildingBlock: EZIPEK_clean_linker_0, # of connection points: 2
#     Edge 72, Type (0, 0), BuildingBlock: EZIPEK_clean_linker_0, # of connection points: 2
#     Edge 73, Type (0, 0), BuildingBlock: EZIPEK_clean_linker_0, # of connection points: 2
#     Edge 74, Type (0, 0), BuildingBlock: EZIPEK_clean_linker_0, # of connection points: 2
#     Edge 75, Type (0, 0), BuildingBlock: EZIPEK_clean_linker_0, # of connection points: 2
#     Edge 76, Type (0, 0), BuildingBlock: EZIPEK_clean_linker_0, # of connection points: 2
#     Edge 77, Type (0, 0), BuildingBlock: EZIPEK_clean_linker_0, # of connection points: 2
#     Edge 78, Type (0, 0), BuildingBlock: EZIPEK_clean_linker_0, # of connection points: 2
#     Edge 79, Type (0, 0), BuildingBlock: EZIPEK_clean_linker_0, # of connection points: 2
#     Edge 80, Type (0, 0), BuildingBlock: EZIPEK_clean_linker_0, # of connection points: 2
#     Edge 81, Type (0, 0), BuildingBlock: EZIPEK_clean_linker_0, # of connection points: 2
#     Edge 82, Type (0, 0), BuildingBlock: EZIPEK_clean_linker_0, # of connection points: 2
#     Edge 83, Type (0, 0), BuildingBlock: EZIPEK_clean_linker_0, # of connection points: 2
#     Edge 84, Type (0, 0), BuildingBlock: EZIPEK_clean_linker_0, # of connection points: 2
#     Edge 85, Type (0, 0), BuildingBlock: EZIPEK_clean_linker_0, # of connection points: 2
#     Edge 86, Type (0, 0), BuildingBlock: EZIPEK_clean_linker_0, # of connection points: 2
#     Edge 87, Type (0, 0), BuildingBlock: EZIPEK_clean_linker_0, # of connection points: 2
#     Edge 88, Type (0, 0), BuildingBlock: EZIPEK_clean_linker_0, # of connection points: 2
#     Edge 89, Type (0, 0), BuildingBlock: EZIPEK_clean_linker_0, # of connection points: 2
#     Edge 90, Type (0, 0), BuildingBlock: EZIPEK_clean_linker_0, # of connection points: 2
#     Edge 91, Type (0, 0), BuildingBlock: EZIPEK_clean_linker_0, # of connection points: 2
#     Edge 92, Type (0, 0), BuildingBlock: EZIPEK_clean_linker_0, # of connection points: 2
#     Edge 93, Type (0, 0), BuildingBlock: EZIPEK_clean_linker_0, # of connection points: 2
#     Edge 94, Type (0, 0), BuildingBlock: EZIPEK_clean_linker_0, # of connection points: 2
#     Edge 95, Type (0, 0), BuildingBlock: EZIPEK_clean_linker_0, # of connection points: 2
#     Edge 96, Type (0, 0), BuildingBlock: EZIPEK_clean_linker_0, # of connection points: 2
#     Edge 97, Type (0, 0), BuildingBlock: EZIPEK_clean_linker_0, # of connection points: 2
#     Edge 98, Type (0, 0), BuildingBlock: EZIPEK_clean_linker_0, # of connection points: 2
#     Edge 99, Type (0, 0), BuildingBlock: EZIPEK_clean_linker_0, # of connection points: 2
#     Edge 100, Type (0, 0), BuildingBlock: EZIPEK_clean_linker_0, # of connection points: 2
#     Edge 101, Type (0, 0), BuildingBlock: EZIPEK_clean_linker_0, # of connection points: 2
#     Edge 102, Type (0, 0), BuildingBlock: EZIPEK_clean_linker_0, # of connection points: 2
#     Edge 103, Type (0, 0), BuildingBlock: EZIPEK_clean_linker_0, # of connection points: 2
#     Edge 104, Type (0, 0), BuildingBlock: EZIPEK_clean_linker_0, # of connection points: 2
#     Edge 105, Type (0, 0), BuildingBlock: EZIPEK_clean_linker_0, # of connection points: 2
#     Edge 106, Type (0, 0), BuildingBlock: EZIPEK_clean_linker_0, # of connection points: 2
#     Edge 107, Type (0, 0), BuildingBlock: EZIPEK_clean_linker_0, # of connection points: 2
#     Edge 108, Type (0, 0), BuildingBlock: EZIPEK_clean_linker_0, # of connection points: 2
#     Edge 109, Type (0, 0), BuildingBlock: EZIPEK_clean_linker_0, # of connection points: 2
#     Edge 110, Type (0, 0), BuildingBlock: EZIPEK_clean_linker_0, # of connection points: 2
#     Edge 111, Type (0, 0), BuildingBlock: EZIPEK_clean_linker_0, # of connection points: 2
#     Edge 112, Type (0, 0), BuildingBlock: EZIPEK_clean_linker_0, # of connection points: 2
#     Edge 113, Type (0, 0), BuildingBlock: EZIPEK_clean_linker_0, # of connection points: 2
#     Edge 114, Type (0, 0), BuildingBlock: EZIPEK_clean_linker_0, # of connection points: 2
#     Edge 115, Type (0, 0), BuildingBlock: EZIPEK_clean_linker_0, # of connection points: 2
#     Edge 116, Type (0, 0), BuildingBlock: EZIPEK_clean_linker_0, # of connection points: 2
#     Edge 117, Type (0, 0), BuildingBlock: EZIPEK_clean_linker_0, # of connection points: 2
#     Edge 118, Type (0, 0), BuildingBlock: EZIPEK_clean_linker_0, # of connection points: 2
#     Edge 119, Type (0, 0), BuildingBlock: EZIPEK_clean_linker_0, # of connection points: 2
#     Edge 120, Type (0, 0), BuildingBlock: EZIPEK_clean_linker_0, # of connection points: 2
#     Edge 121, Type (0, 0), BuildingBlock: EZIPEK_clean_linker_0, # of connection points: 2
#     Edge 122, Type (0, 0), BuildingBlock: EZIPEK_clean_linker_0, # of connection points: 2
#     Edge 123, Type (0, 0), BuildingBlock: EZIPEK_clean_linker_0, # of connection points: 2
#     Edge 124, Type (0, 0), BuildingBlock: EZIPEK_clean_linker_0, # of connection points: 2
#     Edge 125, Type (0, 0), BuildingBlock: EZIPEK_clean_linker_0, # of connection points: 2
#     Edge 126, Type (0, 0), BuildingBlock: EZIPEK_clean_linker_0, # of connection points: 2
#     Edge 127, Type (0, 0), BuildingBlock: EZIPEK_clean_linker_0, # of connection points: 2
#     Edge 128, Type (0, 0), BuildingBlock: EZIPEK_clean_linker_0, # of connection points: 2
#     Edge 129, Type (0, 0), BuildingBlock: EZIPEK_clean_linker_0, # of connection points: 2
#     Edge 130, Type (0, 0), BuildingBlock: EZIPEK_clean_linker_0, # of connection points: 2
#     Edge 131, Type (0, 0), BuildingBlock: EZIPEK_clean_linker_0, # of connection points: 2
#     Edge 132, Type (0, 0), BuildingBlock: EZIPEK_clean_linker_0, # of connection points: 2
#     Edge 133, Type (0, 0), BuildingBlock: EZIPEK_clean_linker_0, # of connection points: 2
#     Edge 134, Type (0, 0), BuildingBlock: EZIPEK_clean_linker_0, # of connection points: 2
#     Edge 135, Type (0, 0), BuildingBlock: EZIPEK_clean_linker_0, # of connection points: 2
#     Edge 136, Type (0, 0), BuildingBlock: EZIPEK_clean_linker_0, # of connection points: 2
#     Edge 137, Type (0, 0), BuildingBlock: EZIPEK_clean_linker_0, # of connection points: 2
#     Edge 138, Type (0, 0), BuildingBlock: EZIPEK_clean_linker_0, # of connection points: 2
#     Edge 139, Type (0, 0), BuildingBlock: EZIPEK_clean_linker_0, # of connection points: 2
#     Edge 140, Type (0, 0), BuildingBlock: EZIPEK_clean_linker_0, # of connection points: 2
#     Edge 141, Type (0, 0), BuildingBlock: EZIPEK_clean_linker_0, # of connection points: 2
#     Edge 142, Type (0, 0), BuildingBlock: EZIPEK_clean_linker_0, # of connection points: 2
#     Edge 143, Type (0, 0), BuildingBlock: EZIPEK_clean_linker_0, # of connection points: 2
# Relax obj value: 0.561
# Max RMSD: 0.176
# Mean RMSD: 0.176
data_MOF--net-uli--node1-GALJAG_clean_sbu_0--edge1-EZIPEK_clean_linker_0
_symmetry_space_group_name_H-M    P1
_symmetry_Int_Tables_number       1
_symmetry_cell_setting            triclinic
loop_
_symmetry_equiv_pos_as_xyz
'x, y, z'
_cell_length_a     48.658768
_cell_length_b     48.638424
_cell_length_c     48.637654
_cell_angle_alpha  89.977713
_cell_angle_beta   90.067923
_cell_angle_gamma 89.978291
loop_
_atom_site_label
_atom_site_type_symbol
_atom_site_fract_x
_atom_site_fract_y
_atom_site_fract_z
_atom_type_partial_charge
In0 In 0.08509 0.25235 0.26528 0.0
O1 O 0.10765 0.26433 0.30471 0.0
O2 O 0.10725 0.29282 0.2716 0.0
C3 C 0.08821 0.19688 0.26811 0.0
C4 C 0.03259 0.26611 0.27462 0.0
C5 C 0.11096 0.25555 0.21694 0.0
O6 O 0.09901 0.21261 0.2857 0.0
O7 O 0.0751 0.2094 0.24958 0.0
O8 O 0.08616 0.26287 0.21962 0.0
O9 O 0.12265 0.24736 0.23861 0.0
C10 C 0.11606 0.28693 0.29523 0.0
O11 O 0.04682 0.25298 0.29182 0.0
O12 O 0.04487 0.27283 0.25285 0.0
In13 In 0.73566 0.12901 0.24304 0.0
O14 O 0.69412 0.11227 0.25603 0.0
O15 O 0.70712 0.10625 0.21476 0.0
C16 C 0.75915 0.15297 0.28642 0.0
C17 C 0.77189 0.08874 0.23597 0.0
C18 C 0.72163 0.17391 0.21435 0.0
O19 O 0.73657 0.14026 0.28885 0.0
O20 O 0.76933 0.15331 0.26261 0.0
O21 O 0.73921 0.15687 0.20556 0.0
O22 O 0.71153 0.16851 0.2376 0.0
C23 C 0.68807 0.10367 0.23216 0.0
O24 O 0.77186 0.10975 0.22063 0.0
O25 O 0.75387 0.08839 0.25464 0.0
In26 In 0.90345 0.75013 0.23473 0.0
O27 O 0.94945 0.7586 0.2368 0.0
O28 O 0.92849 0.74795 0.27384 0.0
C29 C 0.88876 0.76251 0.1831 0.0
C30 C 0.89062 0.69672 0.23487 0.0
C31 C 0.87634 0.792 0.25799 0.0
O32 O 0.91369 0.76341 0.19054 0.0
O33 O 0.87195 0.7549 0.20125 0.0
O34 O 0.87294 0.76749 0.26586 0.0
O35 O 0.89407 0.79517 0.23938 0.0
C36 C 0.95065 0.75492 0.2625 0.0
O37 O 0.8769 0.71452 0.24774 0.0
O38 O 0.91144 0.70554 0.22217 0.0
In39 In 0.28598 0.89834 0.2266 0.0
O40 O 0.28507 0.94418 0.21796 0.0
O41 O 0.28523 0.93093 0.25985 0.0
C42 C 0.27841 0.87546 0.17697 0.0
C43 C 0.33618 0.87843 0.23817 0.0
C44 C 0.23683 0.88197 0.24554 0.0
O45 O 0.28002 0.90125 0.17981 0.0
O46 O 0.28204 0.8618 0.19866 0.0
O47 O 0.25904 0.87441 0.25674 0.0
O48 O 0.23945 0.89837 0.22567 0.0
C49 C 0.28354 0.95065 0.24307 0.0
O50 O 0.31473 0.87076 0.25054 0.0
O51 O 0.3327 0.89784 0.22126 0.0
In52 In 0.08033 0.7375 0.75802 0.0
O53 O 0.03374 0.74162 0.75998 0.0
O54 O 0.05377 0.74983 0.72188 0.0
C55 C 0.09663 0.74005 0.81058 0.0
C56 C 0.09231 0.68509 0.74534 0.0
C57 C 0.10833 0.78286 0.74436 0.0
O58 O 0.07206 0.74522 0.80381 0.0
O59 O 0.11199 0.73223 0.79128 0.0
O60 O 0.11092 0.76068 0.73103 0.0
O61 O 0.09107 0.78224 0.76364 0.0
C62 C 0.03159 0.74914 0.73519 0.0
O63 O 0.10542 0.70522 0.73559 0.0
O64 O 0.07223 0.69129 0.76053 0.0
In65 In 0.2472 0.12824 0.77661 0.0
O66 O 0.28791 0.11333 0.75992 0.0
O67 O 0.27806 0.1034 0.8013 0.0
C68 C 0.23157 0.16674 0.74078 0.0
C69 C 0.212 0.08698 0.76577 0.0
C70 C 0.25197 0.16403 0.81856 0.0
O71 O 0.25505 0.15573 0.73935 0.0
O72 O 0.21614 0.15794 0.75962 0.0
O73 O 0.23284 0.14637 0.81752 0.0
O74 O 0.26799 0.16326 0.79826 0.0
C75 C 0.29552 0.10225 0.7822 0.0
O76 O 0.21404 0.09771 0.78935 0.0
O77 O 0.22851 0.09667 0.74831 0.0
In78 In 0.91016 0.24108 0.76707 0.0
O79 O 0.87586 0.25736 0.73973 0.0
O80 O 0.89396 0.28479 0.76879 0.0
C81 C 0.91149 0.18668 0.7566 0.0
C82 C 0.95842 0.25597 0.7459 0.0
C83 C 0.88945 0.23715 0.81762 0.0
O84 O 0.89674 0.20333 0.74305 0.0
O85 O 0.92573 0.19782 0.7752 0.0
O86 O 0.91303 0.24747 0.81371 0.0
O87 O 0.87708 0.22878 0.79645 0.0
C88 C 0.876 0.28103 0.75046 0.0
O89 O 0.9541 0.25641 0.77152 0.0
O90 O 0.93843 0.24855 0.73118 0.0
In91 In 0.69661 0.87362 0.74945 0.0
O92 O 0.71699 0.90469 0.77773 0.0
O93 O 0.70618 0.91687 0.73676 0.0
C94 C 0.69656 0.82492 0.77482 0.0
C95 C 0.64234 0.88268 0.75178 0.0
C96 C 0.73557 0.86163 0.71294 0.0
O97 O 0.70541 0.84652 0.78635 0.0
O98 O 0.68719 0.828 0.75079 0.0
O99 O 0.7112 0.86698 0.70527 0.0
O100 O 0.73972 0.86196 0.73854 0.0
C101 C 0.71748 0.92312 0.75931 0.0
O102 O 0.65424 0.87547 0.72973 0.0
O103 O 0.65838 0.88648 0.77184 0.0
In104 In 0.21716 0.10476 0.2351 0.0
O105 O 0.25157 0.13536 0.24514 0.0
O106 O 0.22157 0.12693 0.27576 0.0
C107 C 0.21688 0.1038 0.17972 0.0
C108 C 0.24347 0.05894 0.252 0.0
C109 C 0.16495 0.11907 0.24527 0.0
O110 O 0.22674 0.1235 0.19342 0.0
O111 O 0.20774 0.08411 0.19387 0.0
O112 O 0.17416 0.09564 0.25179 0.0
O113 O 0.18162 0.13455 0.23283 0.0
C114 C 0.24316 0.13966 0.26933 0.0
O115 O 0.2178 0.06214 0.25433 0.0
O116 O 0.25525 0.07831 0.2395 0.0
In117 In 0.86567 0.27541 0.31454 0.0
O118 O 0.9053 0.2548 0.30282 0.0
O119 O 0.90467 0.29892 0.30521 0.0
C120 C 0.82945 0.23436 0.32157 0.0
C121 C 0.87118 0.28749 0.36782 0.0
C122 C 0.84065 0.29513 0.26938 0.0
O123 O 0.85227 0.23069 0.30967 0.0
O124 O 0.82574 0.25816 0.33103 0.0
O125 O 0.83716 0.30636 0.29264 0.0
O126 O 0.85774 0.27569 0.26907 0.0
C127 C 0.91827 0.27723 0.30051 0.0
O128 O 0.85999 0.30413 0.35103 0.0
O129 O 0.88106 0.26615 0.35682 0.0
In130 In 0.78145 0.92964 0.24019 0.0
O131 O 0.73658 0.91948 0.24956 0.0
O132 O 0.76531 0.91812 0.2824 0.0
C133 C 0.76832 0.921 0.18719 0.0
C134 C 0.79999 0.98145 0.24026 0.0
C135 C 0.81536 0.88938 0.25595 0.0
O136 O 0.75318 0.93504 0.2029 0.0
O137 O 0.7903 0.91247 0.19798 0.0
O138 O 0.8163 0.91291 0.26696 0.0
O139 O 0.79804 0.88672 0.23683 0.0
C140 C 0.74129 0.91308 0.27424 0.0
O141 O 0.81403 0.96202 0.23059 0.0
O142 O 0.77748 0.97459 0.25098 0.0
In143 In 0.10754 0.77878 0.28375 0.0
O144 O 0.0677 0.7977 0.29872 0.0
O145 O 0.07114 0.75424 0.29847 0.0
C146 C 0.14136 0.82092 0.27428 0.0
C147 C 0.14111 0.75462 0.32004 0.0
C148 C 0.09544 0.76629 0.23113 0.0
O149 O 0.11959 0.82423 0.28815 0.0
O150 O 0.14537 0.79696 0.26529 0.0
O151 O 0.10613 0.74909 0.24753 0.0
O152 O 0.09131 0.78963 0.24156 0.0
C153 C 0.05601 0.77486 0.30286 0.0
O154 O 0.13698 0.74476 0.29636 0.0
O155 O 0.12701 0.77559 0.326 0.0
In156 In 0.20968 0.92181 0.75226 0.0
O157 O 0.179 0.95717 0.75496 0.0
O158 O 0.2203 0.96661 0.74434 0.0
C159 C 0.17357 0.88074 0.74553 0.0
C160 C 0.24387 0.90327 0.71315 0.0
C161 C 0.22613 0.91519 0.80498 0.0
O162 O 0.17194 0.90272 0.73173 0.0
O163 O 0.19275 0.87998 0.76296 0.0
O164 O 0.24228 0.91361 0.78476 0.0
O165 O 0.20157 0.92022 0.79829 0.0
C166 C 0.19658 0.9754 0.74976 0.0
O167 O 0.25258 0.91274 0.73569 0.0
O168 O 0.21842 0.906 0.70923 0.0
In169 In 0.12051 0.28101 0.6944 0.0
O170 O 0.08429 0.25787 0.71114 0.0
O171 O 0.07683 0.29712 0.69245 0.0
C172 C 0.16487 0.24968 0.69964 0.0
C173 C 0.12018 0.27524 0.63969 0.0
C174 C 0.13117 0.31195 0.7385 0.0
O175 O 0.1409 0.24077 0.7045 0.0
O176 O 0.16651 0.27442 0.69177 0.0
O177 O 0.12983 0.3229 0.71474 0.0
O178 O 0.12716 0.28635 0.73918 0.0
C179 C 0.06713 0.27647 0.705 0.0
O180 O 0.12841 0.29738 0.65101 0.0
O181 O 0.11144 0.25734 0.65632 0.0
In182 In 0.79556 0.07759 0.76718 0.0
O183 O 0.79803 0.03161 0.75812 0.0
O184 O 0.76023 0.04845 0.77275 0.0
C185 C 0.8464 0.09775 0.76106 0.0
C186 C 0.77104 0.10025 0.72308 0.0
C187 C 0.78754 0.08819 0.8207 0.0
O188 O 0.84205 0.07213 0.76018 0.0
O189 O 0.82559 0.11252 0.76523 0.0
O190 O 0.77549 0.10119 0.8017 0.0
O191 O 0.80371 0.0695 0.81277 0.0
C192 C 0.77327 0.02748 0.76495 0.0
O193 O 0.76576 0.10771 0.74737 0.0
O194 O 0.78835 0.08105 0.72095 0.0
In195 In 0.87501 0.78541 0.67339 0.0
O196 O 0.86953 0.76109 0.6342 0.0
O197 O 0.88558 0.80186 0.63154 0.0
C198 C 0.85423 0.76143 0.71785 0.0
C199 C 0.92717 0.77964 0.68827 0.0
C200 C 0.83326 0.82114 0.66985 0.0
O201 O 0.85424 0.74919 0.69478 0.0
O202 O 0.8648 0.78516 0.71816 0.0
O203 O 0.83117 0.79576 0.6647 0.0
O204 O 0.85702 0.82853 0.67787 0.0
C205 C 0.87708 0.78084 0.61886 0.0
O206 O 0.91585 0.80316 0.68754 0.0
O207 O 0.91252 0.75973 0.68026 0.0
In208 In 0.21229 0.21328 0.08598 0.0
O209 O 0.1851 0.21727 0.04776 0.0
O210 O 0.21912 0.24424 0.05158 0.0
C211 C 0.21136 0.15769 0.08562 0.0
C212 C 0.26202 0.22119 0.1089 0.0
C213 C 0.17797 0.23498 0.1233 0.0
O214 O 0.23258 0.17144 0.08005 0.0
O215 O 0.19014 0.17225 0.08869 0.0
O216 O 0.19215 0.24996 0.10759 0.0
O217 O 0.18101 0.20948 0.12001 0.0
C218 C 0.1984 0.23711 0.03782 0.0
O219 O 0.23993 0.22254 0.12235 0.0
O220 O 0.25922 0.21659 0.08349 0.0
In221 In 0.23348 0.78006 0.89638 0.0
O222 O 0.23427 0.78512 0.94258 0.0
O223 O 0.23254 0.74435 0.92646 0.0
C224 C 0.2359 0.83251 0.87971 0.0
C225 C 0.28048 0.76159 0.87434 0.0
C226 C 0.18228 0.76733 0.88018 0.0
O227 O 0.23845 0.82617 0.90475 0.0
O228 O 0.2322 0.81271 0.86347 0.0
O229 O 0.20334 0.7561 0.87009 0.0
O230 O 0.18688 0.78464 0.89892 0.0
C231 C 0.23264 0.75968 0.94734 0.0
O232 O 0.25713 0.7534 0.86662 0.0
O233 O 0.28037 0.77872 0.8938 0.0
In234 In 0.20369 0.31233 0.88795 0.0
O235 O 0.2443 0.33466 0.88871 0.0
O236 O 0.20823 0.35872 0.8926 0.0
C237 C 0.22488 0.26422 0.87115 0.0
C238 C 0.18725 0.29644 0.93819 0.0
C239 C 0.17355 0.32615 0.84361 0.0
O240 O 0.23975 0.2845 0.8775 0.0
O241 O 0.19934 0.2681 0.87347 0.0
O242 O 0.16489 0.33008 0.86782 0.0
O243 O 0.19722 0.31575 0.84202 0.0
C244 C 0.23408 0.35845 0.8903 0.0
O245 O 0.17044 0.29904 0.9186 0.0
O246 O 0.21144 0.30386 0.93293 0.0
In247 In 0.76032 0.20692 0.92064 0.0
O248 O 0.73327 0.23316 0.893 0.0
O249 O 0.71384 0.20166 0.91647 0.0
C250 C 0.80892 0.22068 0.89861 0.0
C251 C 0.75839 0.23081 0.97026 0.0
C252 C 0.76433 0.15375 0.90665 0.0
O253 O 0.78638 0.22967 0.8894 0.0
O254 O 0.80714 0.2057 0.91973 0.0
O255 O 0.7689 0.16147 0.93106 0.0
O256 O 0.75742 0.17252 0.89022 0.0
C257 C 0.7114 0.22049 0.89877 0.0
O258 O 0.75178 0.20595 0.96675 0.0
O259 O 0.76601 0.24334 0.94894 0.0
In260 In 0.77679 0.71673 0.86545 0.0
O261 O 0.76689 0.67158 0.87202 0.0
O262 O 0.80845 0.68442 0.87561 0.0
C263 C 0.73322 0.7394 0.84073 0.0
C264 C 0.77607 0.739 0.91554 0.0
C265 C 0.80716 0.72706 0.8208 0.0
O266 O 0.7351 0.71358 0.84348 0.0
O267 O 0.75198 0.75318 0.85206 0.0
O268 O 0.81059 0.74029 0.84296 0.0
O269 O 0.78967 0.70803 0.82179 0.0
C270 C 0.7917 0.66463 0.87585 0.0
O271 O 0.79634 0.74188 0.89955 0.0
O272 O 0.75648 0.72465 0.90634 0.0
In273 In 0.76564 0.80264 0.07665 0.0
O274 O 0.74242 0.77117 0.10187 0.0
O275 O 0.71932 0.79515 0.07341 0.0
C276 C 0.81427 0.79205 0.10053 0.0
C277 C 0.7707 0.78586 0.02437 0.0
C278 C 0.75876 0.85336 0.09743 0.0
O279 O 0.79311 0.77768 0.10474 0.0
O280 O 0.81136 0.81133 0.08336 0.0
O281 O 0.76691 0.84983 0.07302 0.0
O282 O 0.75326 0.83165 0.11037 0.0
C283 C 0.7192 0.77688 0.09184 0.0
O284 O 0.75903 0.80824 0.03045 0.0
O285 O 0.7802 0.77255 0.04445 0.0
In286 In 0.19551 0.7459 0.11244 0.0
O287 O 0.21683 0.7204 0.14507 0.0
O288 O 0.18568 0.70097 0.12111 0.0
C289 C 0.22448 0.79207 0.12134 0.0
C290 C 0.20935 0.73832 0.05997 0.0
C291 C 0.14599 0.7559 0.13422 0.0
O292 O 0.22957 0.76974 0.13363 0.0
O293 O 0.20511 0.79097 0.10408 0.0
O294 O 0.14846 0.74323 0.11171 0.0
O295 O 0.16799 0.76505 0.14426 0.0
C296 C 0.20241 0.69924 0.14085 0.0
O297 O 0.18702 0.74951 0.06697 0.0
O298 O 0.22405 0.7294 0.07943 0.0
In299 In 0.7467 0.30797 0.12461 0.0
O300 O 0.77278 0.28968 0.09075 0.0
O301 O 0.72946 0.29426 0.08389 0.0
C302 C 0.77927 0.31178 0.16898 0.0
C303 C 0.74034 0.36145 0.11292 0.0
C304 C 0.71783 0.26758 0.1477 0.0
O305 O 0.78817 0.30324 0.14606 0.0
O306 O 0.75447 0.31923 0.16917 0.0
O307 O 0.70794 0.29164 0.1459 0.0
O308 O 0.7408 0.26405 0.13634 0.0
C309 C 0.75242 0.28604 0.07494 0.0
O310 O 0.72042 0.34639 0.12033 0.0
O311 O 0.76289 0.34887 0.11051 0.0
In312 In 0.59942 0.75127 0.75639 0.0
O313 O 0.59885 0.79087 0.78125 0.0
O314 O 0.57316 0.78811 0.74605 0.0
C315 C 0.64365 0.72246 0.77217 0.0
C316 C 0.55747 0.72123 0.77545 0.0
C317 C 0.6211 0.75837 0.70632 0.0
O318 O 0.63878 0.74604 0.78209 0.0
O319 O 0.6259 0.71344 0.75558 0.0
O320 O 0.6003 0.74316 0.7101 0.0
O321 O 0.62948 0.77106 0.72729 0.0
C322 C 0.58184 0.80282 0.76552 0.0
O323 O 0.56047 0.72641 0.75016 0.0
O324 O 0.57591 0.73079 0.79102 0.0
In325 In 0.21419 0.58817 0.70816 0.0
O326 O 0.22086 0.54929 0.6824 0.0
O327 O 0.2161 0.54546 0.72578 0.0
C328 C 0.21959 0.62978 0.6726 0.0
C329 C 0.16168 0.59805 0.72335 0.0
C330 C 0.26089 0.60039 0.73483 0.0
O331 O 0.21585 0.60537 0.66433 0.0
O332 O 0.21962 0.63283 0.69834 0.0
O333 O 0.23798 0.59917 0.74704 0.0
O334 O 0.26033 0.59416 0.70965 0.0
C335 C 0.22088 0.53372 0.7032 0.0
O336 O 0.18171 0.59916 0.73986 0.0
O337 O 0.16834 0.59109 0.6993 0.0
In338 In 0.39467 0.19331 0.73982 0.0
O339 O 0.37603 0.17075 0.77601 0.0
O340 O 0.40135 0.14816 0.74839 0.0
C341 C 0.37629 0.24502 0.74001 0.0
C342 C 0.44605 0.20697 0.75233 0.0
C343 C 0.36557 0.17702 0.69588 0.0
O344 O 0.37029 0.22831 0.7591 0.0
O345 O 0.39131 0.23559 0.72109 0.0
O346 O 0.39157 0.17526 0.69643 0.0
O347 O 0.35483 0.18655 0.71749 0.0
C348 C 0.38618 0.14767 0.76941 0.0
O349 O 0.43948 0.19934 0.72829 0.0
O350 O 0.42709 0.20641 0.76996 0.0
In351 In 0.75069 0.39352 0.70952 0.0
O352 O 0.75273 0.43458 0.68606 0.0
O353 O 0.76638 0.43314 0.72753 0.0
C354 C 0.73502 0.35863 0.66945 0.0
C355 C 0.7935 0.36311 0.72619 0.0
C356 C 0.70706 0.3911 0.74361 0.0
O357 O 0.7181 0.37246 0.68326 0.0
O358 O 0.75981 0.36478 0.67346 0.0
O359 O 0.73093 0.38358 0.75068 0.0
O360 O 0.70553 0.39963 0.71914 0.0
C361 C 0.76183 0.44756 0.70659 0.0
O362 O 0.77152 0.3649 0.73992 0.0
O363 O 0.79445 0.37782 0.70478 0.0
In364 In 0.60701 0.22079 0.2267 0.0
O365 O 0.56165 0.23062 0.22702 0.0
O366 O 0.58201 0.22698 0.18802 0.0
C367 C 0.62604 0.2154 0.27808 0.0
C368 C 0.61083 0.16733 0.21422 0.0
C369 C 0.63231 0.2692 0.2195 0.0
O370 O 0.60075 0.21951 0.2732 0.0
O371 O 0.64111 0.21307 0.25707 0.0
O372 O 0.64068 0.24765 0.20736 0.0
O373 O 0.61108 0.26623 0.23408 0.0
C374 C 0.55998 0.23132 0.20104 0.0
O375 O 0.62548 0.1854 0.20232 0.0
O376 O 0.5943 0.17672 0.23184 0.0
In377 In 0.7752 0.60609 0.28601 0.0
O378 O 0.79834 0.6143 0.24624 0.0
O379 O 0.82153 0.60824 0.28262 0.0
C380 C 0.73032 0.61016 0.2539 0.0
C381 C 0.77465 0.55455 0.30671 0.0
C382 C 0.77614 0.64888 0.32151 0.0
O383 O 0.74966 0.5938 0.2483 0.0
O384 O 0.73358 0.62398 0.27557 0.0
O385 O 0.76969 0.62484 0.3289 0.0
O386 O 0.78153 0.65088 0.29629 0.0
C387 C 0.8219 0.61306 0.25712 0.0
O388 O 0.75341 0.56932 0.30543 0.0
O389 O 0.79603 0.5665 0.2985 0.0
In390 In 0.41271 0.73483 0.26598 0.0
O391 O 0.45772 0.72584 0.25696 0.0
O392 O 0.42872 0.72121 0.22438 0.0
C393 C 0.40997 0.73321 0.32117 0.0
C394 C 0.4036 0.78811 0.25508 0.0
C395 C 0.37545 0.69476 0.26003 0.0
O396 O 0.42896 0.72128 0.3081 0.0
O397 O 0.3937 0.74692 0.30636 0.0
O398 O 0.37221 0.71817 0.24927 0.0
O399 O 0.39753 0.69142 0.27313 0.0
C400 C 0.4533 0.71926 0.23223 0.0
O401 O 0.38776 0.76916 0.2472 0.0
O402 O 0.42498 0.7803 0.26765 0.0
In403 In 0.25604 0.38039 0.3153 0.0
O404 O 0.24638 0.42615 0.31096 0.0
O405 O 0.24669 0.40129 0.27487 0.0
C406 C 0.28087 0.37837 0.36508 0.0
C407 C 0.20765 0.35469 0.31852 0.0
C408 C 0.29568 0.35275 0.28914 0.0
O409 O 0.29008 0.39246 0.34541 0.0
O410 O 0.25786 0.36759 0.36015 0.0
O411 O 0.2732 0.34166 0.29575 0.0
O412 O 0.29816 0.37773 0.2955 0.0
C413 C 0.24372 0.42479 0.28516 0.0
O414 O 0.22743 0.34595 0.30417 0.0
O415 O 0.21218 0.37668 0.33166 0.0
In416 In 0.77392 0.61403 0.74839 0.0
O417 O 0.74863 0.57862 0.73236 0.0
O418 O 0.79235 0.57413 0.73265 0.0
C419 C 0.73478 0.64919 0.76522 0.0
C420 C 0.79545 0.60154 0.79782 0.0
C421 C 0.79031 0.64414 0.70529 0.0
O422 O 0.72913 0.62545 0.75636 0.0
O423 O 0.75999 0.65509 0.76583 0.0
O424 O 0.8051 0.6419 0.72658 0.0
O425 O 0.76873 0.62986 0.70528 0.0
C426 C 0.76919 0.56345 0.72771 0.0
O427 O 0.8093 0.61346 0.77927 0.0
O428 O 0.77111 0.59596 0.79086 0.0
In429 In 0.40048 0.69186 0.77406 0.0
O430 O 0.38177 0.73122 0.79053 0.0
O431 O 0.37703 0.69467 0.81431 0.0
C432 C 0.40886 0.71841 0.72588 0.0
C433 C 0.4523 0.68118 0.79151 0.0
C434 C 0.36054 0.65466 0.76503 0.0
O435 O 0.40563 0.73066 0.74851 0.0
O436 O 0.40796 0.69253 0.72782 0.0
O437 O 0.38124 0.6489 0.77968 0.0
O438 O 0.36075 0.67831 0.75452 0.0
C439 C 0.37112 0.71976 0.81123 0.0
O440 O 0.44104 0.6681 0.77217 0.0
O441 O 0.43688 0.699 0.8022 0.0
In442 In 0.27544 0.37709 0.74629 0.0
O443 O 0.2535 0.37607 0.78707 0.0
O444 O 0.29018 0.40009 0.78429 0.0
C445 C 0.25129 0.33723 0.71766 0.0
C446 C 0.25613 0.42332 0.72348 0.0
C447 C 0.32197 0.34814 0.74445 0.0
O448 O 0.24588 0.34085 0.74288 0.0
O449 O 0.26735 0.35454 0.70691 0.0
O450 O 0.31876 0.3693 0.72956 0.0
O451 O 0.30309 0.34362 0.76153 0.0
C452 C 0.2707 0.39146 0.79905 0.0
O453 O 0.28137 0.42024 0.72914 0.0
O454 O 0.24128 0.40256 0.72791 0.0
In455 In 0.60365 0.26975 0.77703 0.0
O456 O 0.63631 0.24482 0.79883 0.0
O457 O 0.60625 0.26474 0.82363 0.0
C458 C 0.60828 0.25309 0.72476 0.0
C459 C 0.55164 0.25311 0.77884 0.0
C460 C 0.62737 0.31939 0.77517 0.0
O461 O 0.6205 0.24104 0.74432 0.0
O462 O 0.59432 0.27384 0.73155 0.0
O463 O 0.60289 0.31654 0.78342 0.0
O464 O 0.63935 0.29759 0.76805 0.0
C465 C 0.62789 0.25047 0.82272 0.0
O466 O 0.55786 0.27835 0.78058 0.0
O467 O 0.57161 0.23658 0.77847 0.0
In468 In 0.73552 0.40467 0.24108 0.0
O469 O 0.72439 0.44445 0.26283 0.0
O470 O 0.76649 0.43146 0.26145 0.0
C471 C 0.69618 0.36859 0.22915 0.0
C472 C 0.74235 0.42389 0.19018 0.0
C473 C 0.75402 0.37006 0.27863 0.0
O474 O 0.69082 0.39068 0.24211 0.0
O475 O 0.7208 0.36567 0.22144 0.0
O476 O 0.76681 0.37335 0.25605 0.0
O477 O 0.73288 0.38479 0.28216 0.0
C478 C 0.74927 0.44927 0.26922 0.0
O479 O 0.7604 0.40921 0.2021 0.0
O480 O 0.72154 0.42946 0.20467 0.0
In481 In 0.6063 0.70027 0.19371 0.0
O482 O 0.5674 0.67591 0.20129 0.0
O483 O 0.56557 0.70837 0.17242 0.0
C484 C 0.64006 0.65748 0.20249 0.0
C485 C 0.63336 0.72477 0.15233 0.0
C486 C 0.60197 0.72939 0.24085 0.0
O487 O 0.61582 0.65387 0.19383 0.0
O488 O 0.64702 0.68214 0.20608 0.0
O489 O 0.59163 0.73764 0.21858 0.0
O490 O 0.61399 0.70653 0.23929 0.0
C491 C 0.55262 0.68985 0.18513 0.0
O492 O 0.63194 0.73484 0.17614 0.0
O493 O 0.61988 0.70287 0.14877 0.0
In494 In 0.24457 0.58255 0.25691 0.0
O495 O 0.25873 0.5417 0.2399 0.0
O496 O 0.21697 0.54563 0.25173 0.0
C497 C 0.28921 0.61418 0.2574 0.0
C498 C 0.21867 0.61296 0.21918 0.0
C499 C 0.24167 0.5779 0.31203 0.0
O500 O 0.28962 0.59035 0.24691 0.0
O501 O 0.26663 0.62161 0.26774 0.0
O502 O 0.22356 0.59049 0.29811 0.0
O503 O 0.26066 0.56762 0.29772 0.0
C504 C 0.23558 0.53016 0.24238 0.0
O505 O 0.20817 0.60852 0.24258 0.0
O506 O 0.24078 0.60033 0.21442 0.0
In507 In 0.40151 0.24428 0.20847 0.0
O508 O 0.36993 0.21571 0.18855 0.0
O509 O 0.3758 0.25567 0.17139 0.0
C510 C 0.41778 0.21949 0.25536 0.0
C511 C 0.44939 0.24509 0.181 0.0
C512 C 0.37347 0.28377 0.23413 0.0
O513 O 0.40183 0.20792 0.2383 0.0
O514 O 0.42575 0.24302 0.24797 0.0
O515 O 0.39416 0.28932 0.21939 0.0
O516 O 0.36732 0.25867 0.23588 0.0
C517 C 0.36249 0.23343 0.171 0.0
O518 O 0.43839 0.26644 0.19087 0.0
O519 O 0.43561 0.22339 0.18469 0.0
In520 In 0.74154 0.75228 0.58334 0.0
O521 O 0.72581 0.73307 0.54406 0.0
O522 O 0.72054 0.77663 0.5503 0.0
C523 C 0.76581 0.71926 0.61984 0.0
C524 C 0.78957 0.77086 0.5648 0.0
C525 C 0.69884 0.75986 0.61676 0.0
O526 O 0.75148 0.70966 0.60013 0.0
O527 O 0.76838 0.7451 0.62018 0.0
O528 O 0.71789 0.77766 0.61493 0.0
O529 O 0.70075 0.7397 0.60046 0.0
C530 C 0.71737 0.756 0.53477 0.0
O531 O 0.77302 0.78627 0.57799 0.0
O532 O 0.78109 0.74658 0.5609 0.0
In533 In 0.74103 0.24937 0.39901 0.0
O534 O 0.78589 0.23958 0.40449 0.0
O535 O 0.76889 0.27507 0.4249 0.0
C536 C 0.69965 0.23188 0.36834 0.0
C537 C 0.72654 0.22226 0.44313 0.0
C538 C 0.74915 0.28849 0.36254 0.0
O539 O 0.72395 0.22244 0.36523 0.0
O540 O 0.69641 0.24859 0.38815 0.0
O541 O 0.7354 0.29311 0.3844 0.0
O542 O 0.75856 0.2643 0.35948 0.0
C543 C 0.78997 0.26052 0.41985 0.0
O544 O 0.72 0.24741 0.43956 0.0
O545 O 0.73981 0.21063 0.42381 0.0
In546 In 0.68504 0.78258 0.36792 0.0
O547 O 0.66999 0.76502 0.4088 0.0
O548 O 0.69982 0.79694 0.40983 0.0
C549 C 0.64101 0.77123 0.33703 0.0
C550 C 0.69672 0.83082 0.3438 0.0
C551 C 0.72222 0.74269 0.35931 0.0
O552 O 0.63831 0.78295 0.36008 0.0
O553 O 0.66521 0.76511 0.33032 0.0
O554 O 0.7291 0.76731 0.36372 0.0
O555 O 0.69668 0.73822 0.35932 0.0
C556 C 0.68597 0.77955 0.42311 0.0
O557 O 0.71076 0.80934 0.34038 0.0
O558 O 0.6769 0.82855 0.36041 0.0
In559 In 0.27822 0.69532 0.40849 0.0
O560 O 0.28021 0.69374 0.45516 0.0
O561 O 0.27937 0.7331 0.43571 0.0
C562 C 0.26826 0.64263 0.39563 0.0
C563 C 0.23325 0.71584 0.38388 0.0
C564 C 0.33005 0.70481 0.39231 0.0
O565 O 0.26294 0.65204 0.4192 0.0
O566 O 0.27989 0.6592 0.3795 0.0
O567 O 0.30951 0.71642 0.38152 0.0
O568 O 0.32461 0.68813 0.41146 0.0
C569 C 0.28068 0.71955 0.45773 0.0
O570 O 0.2572 0.72036 0.3751 0.0
O571 O 0.23188 0.70171 0.40556 0.0
In572 In 0.33249 0.23218 0.38648 0.0
O573 O 0.29919 0.23048 0.35338 0.0
O574 O 0.31784 0.19296 0.36623 0.0
C575 C 0.32712 0.2865 0.39455 0.0
C576 C 0.3189 0.21316 0.43692 0.0
C577 C 0.3782 0.22162 0.35766 0.0
O578 O 0.30877 0.27188 0.38355 0.0
O579 O 0.34866 0.27383 0.40163 0.0
O580 O 0.37263 0.20855 0.37939 0.0
O581 O 0.36211 0.24112 0.35201 0.0
C582 C 0.30103 0.20474 0.35036 0.0
O583 O 0.34325 0.21939 0.43051 0.0
O584 O 0.30182 0.21713 0.41785 0.0
In585 In 0.24769 0.22229 0.59296 0.0
O586 O 0.20262 0.21003 0.5894 0.0
O587 O 0.21561 0.24873 0.57341 0.0
C588 C 0.28373 0.19001 0.61847 0.0
C589 C 0.27094 0.21691 0.5439 0.0
C590 C 0.24319 0.25502 0.63627 0.0
O591 O 0.25993 0.1811 0.61219 0.0
O592 O 0.28876 0.21451 0.61134 0.0
O593 O 0.25618 0.26238 0.61485 0.0
O594 O 0.23255 0.23129 0.63573 0.0
C595 C 0.19576 0.23268 0.57817 0.0
O596 O 0.27267 0.23915 0.55745 0.0
O597 O 0.25692 0.19793 0.55488 0.0
In598 In 0.69509 0.20223 0.60678 0.0
O599 O 0.68255 0.18345 0.56559 0.0
O600 O 0.72065 0.20463 0.56814 0.0
C601 C 0.6438 0.20952 0.62703 0.0
C602 C 0.7208 0.16306 0.63601 0.0
C603 C 0.71155 0.25283 0.62158 0.0
O604 O 0.65333 0.22356 0.60754 0.0
O605 O 0.65967 0.19065 0.63485 0.0
O606 O 0.71788 0.23157 0.63505 0.0
O607 O 0.69773 0.24857 0.60006 0.0
C608 C 0.70329 0.19266 0.55313 0.0
O609 O 0.7304 0.187 0.63316 0.0
O610 O 0.69911 0.15818 0.62254 0.0
In611 In 0.29854 0.77043 0.62034 0.0
O612 O 0.27605 0.79599 0.65171 0.0
O613 O 0.30216 0.81742 0.6239 0.0
C614 C 0.26495 0.72787 0.63109 0.0
C615 C 0.29501 0.76478 0.56571 0.0
C616 C 0.34734 0.76175 0.64423 0.0
O617 O 0.25577 0.75121 0.62443 0.0
O618 O 0.29075 0.72627 0.63255 0.0
O619 O 0.34564 0.77246 0.6206 0.0
O620 O 0.32482 0.75586 0.65553 0.0
C621 C 0.28601 0.81866 0.64416 0.0
O622 O 0.31348 0.75331 0.57978 0.0
O623 O 0.2795 0.78092 0.57877 0.0
C624 C 0.96752 0.28794 0.31086 0.0
C625 C 0.94738 0.27778 0.29239 0.0
C626 C 0.98316 0.26096 0.26145 0.0
C627 C 0.00332 0.27206 0.27937 0.0
N628 N 0.01498 0.30159 0.31743 0.0
N629 N 0.93544 0.26103 0.24728 0.0
C630 C 0.99558 0.28728 0.30297 0.0
C631 C 0.95503 0.26629 0.26676 0.0
N632 N 0.96006 0.29686 0.33644 0.0
N633 N 0.9907 0.24402 0.24031 0.0
H634 H 0.91461 0.26506 0.25038 0.0
H635 H 0.94008 0.25529 0.22719 0.0
H636 H 0.01107 0.23914 0.23583 0.0
H637 H 0.97664 0.23287 0.22862 0.0
H638 H 0.97417 0.30151 0.35187 0.0
H639 H 0.93971 0.29759 0.34311 0.0
H640 H 0.0102 0.31526 0.33319 0.0
H641 H 0.03571 0.30185 0.31194 0.0
C642 C 0.8102 0.0275 0.25941 0.0
C643 C 0.80679 0.01058 0.23611 0.0
C644 C 0.79124 0.04951 0.20861 0.0
C645 C 0.79116 0.06558 0.23294 0.0
N646 N 0.81027 0.07396 0.27769 0.0
N647 N 0.80519 0.00684 0.18682 0.0
C648 C 0.80424 0.0559 0.25707 0.0
C649 C 0.80145 0.02222 0.20999 0.0
N650 N 0.81766 0.016 0.28392 0.0
N651 N 0.77952 0.05929 0.18502 0.0
H652 H 0.81287 0.98686 0.18752 0.0
H653 H 0.80354 0.01474 0.16699 0.0
H654 H 0.7726 0.07942 0.18283 0.0
H655 H 0.77563 0.04713 0.16784 0.0
H656 H 0.81758 0.02657 0.30253 0.0
H657 H 0.82328 0.99532 0.2855 0.0
H658 H 0.82122 0.06867 0.29532 0.0
H659 H 0.80644 0.09499 0.27565 0.0
C660 C 0.0143 0.7452 0.30668 0.0
C661 C 0.02563 0.7719 0.30474 0.0
C662 C 0.98442 0.78855 0.28159 0.0
C663 C 0.97548 0.76087 0.27877 0.0
N664 N 0.98037 0.71273 0.28986 0.0
N665 N 0.01526 0.82012 0.30491 0.0
C666 C 0.98959 0.73917 0.29229 0.0
C667 C 0.0087 0.79408 0.29676 0.0
N668 N 0.027 0.72614 0.32293 0.0
N669 N 0.97023 0.80937 0.2691 0.0
H670 H 0.03145 0.82391 0.31847 0.0
H671 H 0.0028 0.83717 0.30139 0.0
H672 H 0.95182 0.8063 0.25856 0.0
H673 H 0.97748 0.82946 0.2678 0.0
H674 H 0.01913 0.70666 0.32693 0.0
H675 H 0.04413 0.73121 0.33485 0.0
H676 H 0.99125 0.69565 0.29678 0.0
H677 H 0.96238 0.70758 0.27937 0.0
C678 C 0.29432 0.00089 0.24609 0.0
C679 C 0.27631 0.97873 0.25189 0.0
C680 C 0.24256 0.01086 0.27078 0.0
C681 C 0.25778 0.03281 0.25943 0.0
N682 N 0.30354 0.04968 0.25126 0.0
N683 N 0.23247 0.96237 0.26899 0.0
C684 C 0.28544 0.02823 0.25149 0.0
C685 C 0.25045 0.98353 0.26465 0.0
N686 N 0.31952 0.9958 0.23479 0.0
N687 N 0.22154 0.01619 0.28858 0.0
H688 H 0.23688 0.94197 0.2643 0.0
H689 H 0.21217 0.96534 0.27509 0.0
H690 H 0.21741 0.03602 0.29564 0.0
H691 H 0.21102 0.00091 0.29927 0.0
H692 H 0.33225 0.01107 0.2269 0.0
H693 H 0.32726 0.97596 0.23221 0.0
H694 H 0.32444 0.0476 0.24725 0.0
H695 H 0.29834 0.06903 0.25889 0.0
C696 C 0.97343 0.75811 0.68391 0.0
C697 C 0.9551 0.77482 0.69918 0.0
C698 C 0.989 0.7781 0.7362 0.0
C699 C 0.00529 0.75795 0.72282 0.0
N700 N 0.0106 0.72517 0.68586 0.0
N701 N 0.94335 0.79648 0.74243 0.0
C702 C 0.99695 0.74702 0.6971 0.0
C703 C 0.9623 0.78384 0.726 0.0
N704 N 0.96871 0.75335 0.65661 0.0
N705 N -0.00069 0.79255 0.758 0.0
H706 H 0.9232 0.80042 0.73634 0.0
H707 H 0.94689 0.80063 0.76315 0.0
H708 H 0.01919 0.7898 0.76554 0.0
H709 H 0.98917 0.80932 0.76665 0.0
H710 H 0.98279 0.74343 0.64389 0.0
H711 H 0.95211 0.76191 0.64603 0.0
H712 H 0.00362 0.71472 0.66852 0.0
H713 H 0.02729 0.71564 0.69538 0.0
C714 C 0.18555 0.04548 0.7817 0.0
C715 C 0.19558 0.06179 0.75989 0.0
C716 C 0.19401 0.02223 0.72898 0.0
C717 C 0.19082 0.00503 0.7523 0.0
N718 N 0.18243 -0.00016 0.80111 0.0
N719 N 0.19455 0.06894 0.71107 0.0
C720 C 0.18545 0.01649 0.77865 0.0
C721 C 0.1951 0.05116 0.7328 0.0
N722 N 0.17515 0.05776 0.80467 0.0
N723 N 0.19707 0.01076 0.70351 0.0
H724 H 0.19266 0.06286 0.69065 0.0
H725 H 0.19287 0.09015 0.71391 0.0
H726 H 0.19476 0.98971 0.70001 0.0
H727 H 0.20263 0.0218 0.68606 0.0
H728 H 0.16572 0.04695 0.82056 0.0
H729 H 0.17243 0.07899 0.8059 0.0
H730 H 0.18205 0.00722 0.8212 0.0
H731 H 0.18208 0.97846 0.79997 0.0
C732 C 0.02461 0.24823 0.70588 0.0
C733 C 0.0377 0.27354 0.71193 0.0
C734 C 0.99636 0.28916 0.73615 0.0
C735 C 0.98538 0.26231 0.73382 0.0
N736 N 0.99025 0.21502 0.71944 0.0
N737 N 0.03667 0.31812 0.73415 0.0
C738 C -0.00028 0.2415 0.71933 0.0
C739 C 0.02367 0.29422 0.72715 0.0
N740 N 0.03556 0.23101 0.68656 0.0
N741 N 0.98039 0.31 0.74621 0.0
H742 H 0.05618 0.32344 0.72728 0.0
H743 H 0.02877 0.33208 0.74832 0.0
H744 H 0.96028 0.30701 0.753 0.0
H745 H 0.98612 0.33062 0.74556 0.0
H746 H 0.02555 0.21348 0.67942 0.0
H747 H 0.05322 0.23587 0.67541 0.0
H748 H 0.00153 0.19852 0.71176 0.0
H749 H 0.97227 0.20903 0.72942 0.0
C750 C 0.73346 -0.00156 0.75084 0.0
C751 C 0.75976 0.00036 0.76329 0.0
C752 C 0.75927 0.95085 0.77196 0.0
C753 C 0.73153 0.94977 0.76283 0.0
N754 N 0.69026 0.97405 0.74966 0.0
N755 N 0.79518 0.97932 0.79117 0.0
C756 C 0.71801 0.97405 0.75411 0.0
C757 C 0.77202 0.97684 0.77544 0.0
N758 N 0.72373 0.01935 0.73475 0.0
N759 N 0.774 0.92724 0.77592 0.0
H760 H 0.80477 -0.00191 0.795 0.0
H761 H 0.8032 0.96311 0.80268 0.0
H762 H 0.766 0.90765 0.77261 0.0
H763 H 0.79508 0.92721 0.77973 0.0
H764 H 0.7057 0.01783 0.72326 0.0
H765 H 0.73522 0.03688 0.73027 0.0
H766 H 0.67912 0.99193 0.74569 0.0
H767 H 0.67797 0.9568 0.75295 0.0
C768 C 0.1875 0.28146 0.01423 0.0
C769 C 0.18949 0.25235 0.01302 0.0
C770 C 0.17665 0.25372 0.96437 0.0
C771 C 0.18084 0.28257 0.96441 0.0
N772 N 0.1894 0.32451 0.98916 0.0
N773 N 0.18799 0.21051 0.98622 0.0
C774 C 0.18577 0.29666 0.98937 0.0
C775 C 0.18406 0.23829 0.98803 0.0
N776 N 0.18646 0.29446 0.03912 0.0
N777 N 0.16613 0.24099 0.94166 0.0
H778 H 0.19425 0.19839 0.00273 0.0
H779 H 0.1875 0.1998 0.96768 0.0
H780 H 0.16063 0.25153 0.92386 0.0
H781 H 0.16032 0.22038 0.94147 0.0
H782 H 0.18266 0.31542 0.0413 0.0
H783 H 0.18649 0.28385 0.05776 0.0
H784 H 0.19654 0.33559 0.00604 0.0
H785 H 0.18631 0.33639 0.97153 0.0
C786 C 0.24941 0.75558 0.99538 0.0
C787 C 0.22931 0.74903 0.97544 0.0
C788 C 0.20098 0.72735 0.0108 0.0
C789 C 0.21854 0.73847 0.03114 0.0
N790 N 0.25828 0.766 0.04307 0.0
N791 N 0.18438 0.731 0.9641 0.0
C792 C 0.24274 0.75297 0.0236 0.0
C793 C 0.20481 0.73511 0.98298 0.0
N794 N 0.27489 0.7642 0.9873 0.0
N795 N 0.18072 0.70934 0.01813 0.0
H796 H 0.18593 0.737 0.94361 0.0
H797 H 0.16491 0.72377 0.96927 0.0
H798 H 0.17768 0.70309 0.03844 0.0
H799 H 0.16888 0.69857 0.00391 0.0
H800 H 0.29126 0.76676 0.00089 0.0
H801 H 0.28042 0.76607 0.96665 0.0
H802 H 0.27419 0.77949 0.03827 0.0
H803 H 0.25391 0.76534 0.06398 0.0
C804 C 0.74252 0.26999 -0.00048 0.0
C805 C 0.75686 0.24467 0.99721 0.0
C806 C 0.76649 0.24542 0.04656 0.0
C807 C 0.7549 0.27216 0.04813 0.0
N808 N 0.73696 0.31228 0.02503 0.0
N809 N 0.78748 0.21111 0.01737 0.0
C810 C 0.74436 0.28516 0.02429 0.0
C811 C 0.77026 0.23311 0.02041 0.0
N812 N 0.72612 0.27899 0.97853 0.0
N813 N 0.77274 0.23121 0.07001 0.0
H814 H 0.79145 0.20189 -0.00156 0.0
H815 H 0.79994 0.20376 0.03319 0.0
H816 H 0.7696 0.23907 0.08969 0.0
H817 H 0.77846 0.21056 0.06998 0.0
H818 H 0.71299 0.29582 0.9803 0.0
H819 H 0.72344 0.26802 0.96036 0.0
H820 H 0.73177 0.32348 0.00751 0.0
H821 H 0.7387 0.32437 0.04266 0.0
C822 C 0.78063 0.77977 0.94699 0.0
C823 C 0.77521 0.75131 0.94327 0.0
C824 C 0.7624 0.74731 0.99161 0.0
C825 C 0.7714 0.77467 0.99616 0.0
N826 N 0.79375 0.81555 0.97899 0.0
N827 N 0.76701 0.70667 0.96354 0.0
C828 C 0.78181 0.7906 0.97408 0.0
C829 C 0.76782 0.73466 0.96601 0.0
N830 N 0.78342 0.79672 0.92475 0.0
N831 N 0.74758 0.73376 0.01125 0.0
H832 H 0.77207 0.69637 0.94544 0.0
H833 H 0.76428 0.69359 0.9803 0.0
H834 H 0.74174 0.74287 0.02974 0.0
H835 H 0.73836 0.71473 0.00783 0.0
H836 H 0.78459 0.81805 0.92641 0.0
H837 H 0.78172 0.78987 0.90451 0.0
H838 H 0.80419 0.82663 0.96394 0.0
H839 H 0.79553 0.824 -0.00139 0.0
C840 C 0.51716 0.71569 0.80743 0.0
C841 C 0.53384 0.70519 0.78587 0.0
C842 C 0.50072 0.66797 0.778 0.0
C843 C 0.48258 0.68128 0.79649 0.0
N844 N 0.48004 0.70595 0.83913 0.0
N845 N 0.54634 0.66656 0.75748 0.0
C846 C 0.49315 0.7011 0.81483 0.0
C847 C 0.52717 0.67966 0.7733 0.0
N848 N 0.52271 0.74054 0.81931 0.0
N849 N 0.49256 0.64438 0.76521 0.0
H850 H 0.5662 0.67419 0.75483 0.0
H851 H 0.54353 0.64729 0.74868 0.0
H852 H 0.47529 0.63345 0.7717 0.0
H853 H 0.50302 0.63524 0.74897 0.0
H854 H 0.5093 0.75011 0.83298 0.0
H855 H 0.53932 0.75287 0.81387 0.0
H856 H 0.4879 0.7189 0.85429 0.0
H857 H 0.46313 0.69422 0.84525 0.0
C858 C 0.22002 0.46048 0.72629 0.0
C859 C 0.24452 0.44997 0.71422 0.0
C860 C 0.25203 0.49405 0.69106 0.0
C861 C 0.22697 0.50397 0.70225 0.0
N862 N 0.18312 0.49364 0.72263 0.0
N863 N 0.2786 0.45393 0.67841 0.0
C864 C 0.20959 0.48607 0.71713 0.0
C865 C 0.25886 0.46585 0.69441 0.0
N866 N 0.20772 0.44742 0.74794 0.0
N867 N 0.2702 0.51163 0.67885 0.0
H868 H 0.28334 0.43304 0.67952 0.0
H869 H 0.28795 0.46404 0.66201 0.0
H870 H 0.26645 0.53254 0.67619 0.0
H871 H 0.29006 0.50581 0.67336 0.0
H872 H 0.19161 0.45609 0.75906 0.0
H873 H 0.21517 0.42952 0.75694 0.0
H874 H 0.16877 0.48031 0.73129 0.0
H875 H 0.17477 0.51217 0.71567 0.0
C876 C 0.48877 0.20759 0.78091 0.0
C877 C 0.47308 0.2188 0.75903 0.0
C878 C 0.50878 0.25298 0.75026 0.0
C879 C 0.52345 0.24331 0.77362 0.0
N880 N 0.52507 0.21499 0.81427 0.0
N881 N 0.46479 0.25639 0.72754 0.0
C882 C 0.51273 0.22164 0.78989 0.0
C883 C 0.48208 0.24272 0.74503 0.0
N884 N 0.48134 0.18305 0.7924 0.0
N885 N 0.52074 0.27078 0.7321 0.0
H886 H 0.4448 0.24997 0.72336 0.0
H887 H 0.46935 0.27564 0.71931 0.0
H888 H 0.54041 0.27879 0.73456 0.0
H889 H 0.51206 0.27566 0.71311 0.0
H890 H 0.49353 0.17246 0.80648 0.0
H891 H 0.46413 0.17195 0.78601 0.0
H892 H 0.51672 0.20117 0.82831 0.0
H893 H 0.54234 0.22532 0.82171 0.0
C894 C 0.77965 0.49419 0.69283 0.0
C895 C 0.76151 0.47777 0.70858 0.0
C896 C 0.74938 0.51717 0.7371 0.0
C897 C 0.76612 0.53419 0.72039 0.0
N898 N 0.79303 0.5403 0.67919 0.0
N899 N 0.72319 0.47515 0.73995 0.0
C900 C 0.78008 0.52313 0.69726 0.0
C901 C 0.74446 0.48979 0.72887 0.0
N902 N 0.79711 0.48208 0.67449 0.0
N903 N 0.73958 0.52644 0.76177 0.0
H904 H 0.71838 0.45517 0.73383 0.0
H905 H 0.70853 0.48389 0.75289 0.0
H906 H 0.74387 0.5459 0.76964 0.0
H907 H 0.72973 0.51372 0.77591 0.0
H908 H 0.81293 0.49258 0.66463 0.0
H909 H 0.79689 0.46101 0.67048 0.0
H910 H 0.80133 0.53371 0.6606 0.0
H911 H 0.79334 0.56161 0.68161 0.0
C912 C 0.49556 0.26761 0.17714 0.0
C913 C 0.4788 0.24433 0.17254 0.0
C914 C 0.51871 0.21414 0.17582 0.0
C915 C 0.53379 0.23653 0.18688 0.0
N916 N 0.53868 0.28514 0.19514 0.0
N917 N 0.47697 0.19926 0.15266 0.0
C918 C 0.52303 0.2636 0.18616 0.0
C919 C 0.49127 0.21868 0.16699 0.0
N920 N 0.48539 0.29322 0.17181 0.0
N921 N 0.53 0.18839 0.17542 0.0
H922 H 0.4576 0.20344 0.14438 0.0
H923 H 0.48529 0.18061 0.14629 0.0
H924 H 0.55028 0.18449 0.18121 0.0
H925 H 0.51897 0.17071 0.1706 0.0
H926 H 0.49696 0.31116 0.17317 0.0
H927 H 0.46615 0.296 0.16271 0.0
H928 H 0.53103 0.3049 0.19815 0.0
H929 H 0.55931 0.28294 0.20063 0.0
C930 C 0.74192 0.48471 0.30642 0.0
C931 C 0.75809 0.47411 0.28445 0.0
C932 C 0.7928 0.50871 0.29454 0.0
C933 C 0.77305 0.52413 0.30901 0.0
N934 N 0.73078 0.52451 0.33451 0.0
N935 N 0.79822 0.47979 0.25507 0.0
C936 C 0.7482 0.51127 0.317 0.0
C937 C 0.78365 0.48678 0.27804 0.0
N938 N 0.72153 0.46913 0.3178 0.0
N939 N 0.81998 0.51533 0.29605 0.0
H940 H 0.79097 0.46634 0.24007 0.0
H941 H 0.81594 0.49027 0.24912 0.0
H942 H 0.82721 0.53018 0.30977 0.0
H943 H 0.83523 0.50356 0.28665 0.0
H944 H 0.71048 0.4751 0.33512 0.0
H945 H 0.71769 0.4489 0.31184 0.0
H946 H 0.71078 0.51797 0.33843 0.0
H947 H 0.7366 0.54242 0.34482 0.0
C948 C 0.50939 0.67195 0.20628 0.0
C949 C 0.52208 0.68976 0.18719 0.0
C950 C 0.48421 0.7224 0.1912 0.0
C951 C 0.47482 0.70755 0.21449 0.0
N952 N 0.47524 0.66635 0.2422 0.0
N953 N 0.51405 0.72252 0.15117 0.0
C954 C 0.48617 0.68147 0.22117 0.0
C955 C 0.507 0.71206 0.17622 0.0
N956 N 0.51911 0.64577 0.20916 0.0
N957 N 0.47257 0.7471 0.18452 0.0
H958 H 0.52926 0.7134 0.1391 0.0
H959 H 0.50281 0.73766 0.14102 0.0
H960 H 0.45573 0.75525 0.19496 0.0
H961 H 0.4806 0.76031 0.16972 0.0
H962 H 0.5101 0.63089 0.22157 0.0
H963 H 0.53472 0.63818 0.19653 0.0
H964 H 0.48434 0.64871 0.25019 0.0
H965 H 0.45722 0.67196 0.25236 0.0
C966 C 0.2094 0.48739 0.2539 0.0
C967 C 0.23259 0.49975 0.24155 0.0
C968 C 0.26003 0.45876 0.25029 0.0
C969 C 0.2388 0.4491 0.26786 0.0
N970 N 0.19232 0.45222 0.28481 0.0
N971 N 0.27335 0.49171 0.21517 0.0
C972 C 0.21297 0.4626 0.26888 0.0
C973 C 0.25587 0.48355 0.23551 0.0
N974 N 0.18405 0.4988 0.2501 0.0
N975 N 0.28475 0.44541 0.24927 0.0
H976 H 0.26919 0.50897 0.20306 0.0
H977 H 0.2898 0.47994 0.20819 0.0
H978 H 0.28877 0.4273 0.26001 0.0
H979 H 0.30195 0.4532 0.23923 0.0
H980 H 0.16586 0.49 0.2571 0.0
H981 H 0.18106 0.51541 0.23683 0.0
H982 H 0.1741 0.46268 0.28885 0.0
H983 H 0.19397 0.43351 0.29515 0.0
C984 C 0.68087 0.76784 0.50042 0.0
C985 C 0.70825 0.75954 0.50611 0.0
C986 C 0.71943 0.76108 0.45722 0.0
C987 C 0.693 0.77224 0.45173 0.0
N988 N 0.649 0.78822 0.46769 0.0
N989 N 0.75493 0.75237 0.4908 0.0
C990 C 0.6737 0.776 0.4732 0.0
C991 C 0.72786 0.7571 0.48476 0.0
N992 N 0.66172 0.76735 0.52096 0.0
N993 N 0.73624 0.75335 0.43609 0.0
H994 H 0.76217 0.74895 0.51065 0.0
H995 H 0.77066 0.75409 0.47639 0.0
H996 H 0.73113 0.75605 0.41552 0.0
H997 H 0.75412 0.7419 0.43883 0.0
H998 H 0.64082 0.77065 0.51778 0.0
H999 H 0.66646 0.76148 0.54106 0.0
H1000 H 0.63509 0.79419 0.48279 0.0
H1001 H 0.64313 0.79414 0.44791 0.0
C1002 C 0.69155 0.20878 0.47767 0.0
C1003 C 0.71917 0.20778 0.46871 0.0
C1004 C 0.73228 0.18557 0.51184 0.0
C1005 C 0.7063 0.19253 0.52292 0.0
N1006 N 0.66124 0.2131 0.51656 0.0
N1007 N 0.76676 0.1965 0.47787 0.0
C1008 C 0.68563 0.20421 0.50581 0.0
C1009 C 0.73979 0.19599 0.48568 0.0
N1010 N 0.67102 0.21414 0.45922 0.0
N1011 N 0.74976 0.16916 0.52651 0.0
H1012 H 0.77343 0.20437 0.45913 0.0
H1013 H 0.78285 0.1911 0.49096 0.0
H1014 H 0.74444 0.16093 0.5456 0.0
H1015 H 0.76806 0.16144 0.51852 0.0
H1016 H 0.65023 0.21263 0.46411 0.0
H1017 H 0.67481 0.21713 0.43831 0.0
H1018 H 0.64719 0.22483 0.50541 0.0
H1019 H 0.6557 0.21085 0.53707 0.0
C1020 C 0.26109 0.73282 0.50309 0.0
C1021 C 0.28351 0.73303 0.48462 0.0
C1022 C 0.3109 0.7597 0.51731 0.0
C1023 C 0.28977 0.75652 0.53704 0.0
N1024 N 0.24625 0.73635 0.55031 0.0
N1025 N 0.33099 0.7433 0.47482 0.0
C1026 C 0.2651 0.74233 0.53034 0.0
C1027 C 0.30874 0.74573 0.4918 0.0
N1028 N 0.23585 0.72395 0.49444 0.0
N1029 N 0.33277 0.77645 0.52286 0.0
H1030 H 0.33029 0.73273 0.45619 0.0
H1031 H 0.35071 0.74964 0.48023 0.0
H1032 H 0.33476 0.78715 0.54135 0.0
H1033 H 0.34753 0.78175 0.50831 0.0
H1034 H 0.21803 0.72617 0.50607 0.0
H1035 H 0.23225 0.71654 0.47462 0.0
H1036 H 0.2297 0.72312 0.54724 0.0
H1037 H 0.24823 0.74264 0.57066 0.0
C1038 C 0.26867 0.20402 0.49423 0.0
C1039 C 0.28457 0.21287 0.51703 0.0
C1040 C 0.32637 0.21123 0.48868 0.0
C1041 C 0.30968 0.20589 0.46534 0.0
N1042 N 0.2691 0.18259 0.44941 0.0
N1043 N 0.32876 0.22384 0.53695 0.0
C1044 C 0.28203 0.19776 0.46919 0.0
C1045 C 0.31356 0.21607 0.51459 0.0
N1046 N 0.24062 0.20332 0.49584 0.0
N1047 N 0.35429 0.20917 0.48656 0.0
H1048 H 0.32068 0.22534 0.55671 0.0
H1049 H 0.3492 0.23 0.5359 0.0
H1050 H 0.36388 0.20129 0.46912 0.0
H1051 H 0.36782 0.21134 0.50298 0.0
H1052 H 0.22802 0.19991 0.47884 0.0
H1053 H 0.22971 0.20889 0.51342 0.0
H1054 H 0.24963 0.17407 0.45195 0.0
H1055 H 0.27947 0.17534 0.4321 0.0
C1056 C 0.11831 0.13646 0.23301 0.0
C1057 C 0.13764 0.12929 0.25364 0.0
C1058 C 0.11136 0.15541 0.28762 0.0
C1059 C 0.09646 0.16745 0.26578 0.0
N1060 N 0.07488 0.15868 0.22219 0.0
N1061 N 0.15109 0.1286 0.30145 0.0
C1062 C 0.09633 0.15444 0.23978 0.0
C1063 C 0.13319 0.13699 0.28146 0.0
N1064 N 0.12187 0.12708 0.2068 0.0
N1065 N 0.10424 0.16163 0.31403 0.0
H1066 H 0.16681 0.11452 0.29781 0.0
H1067 H 0.15102 0.13621 0.32144 0.0
H1068 H 0.08737 0.17418 0.31837 0.0
H1069 H 0.11293 0.15239 0.33128 0.0
H1070 H 0.11063 0.13414 0.18999 0.0
H1071 H 0.13692 0.11262 0.20185 0.0
H1072 H 0.0728 0.14879 0.20333 0.0
H1073 H 0.05736 0.1695 0.22818 0.0
C1074 C 0.81407 0.18572 0.32852 0.0
C1075 C 0.8075 0.21327 0.32146 0.0
C1076 C 0.76159 0.19838 0.30739 0.0
C1077 C 0.77075 0.171 0.30769 0.0
N1078 N 0.80413 0.1373 0.32089 0.0
N1079 N 0.77503 0.24532 0.30113 0.0
C1080 C 0.7964 0.16422 0.31952 0.0
C1081 C 0.78097 0.21971 0.31091 0.0
N1082 N 0.83707 0.1803 0.34369 0.0
N1083 N 0.73459 0.20396 0.3022 0.0
H1084 H 0.78772 0.26237 0.30317 0.0
H1085 H 0.7585 0.24875 0.28799 0.0
H1086 H 0.72017 0.1884 0.29906 0.0
H1087 H 0.72628 0.22366 0.30351 0.0
H1088 H 0.84202 0.16082 0.35108 0.0
H1089 H 0.84988 0.19589 0.35101 0.0
H1090 H 0.82383 0.13084 0.32625 0.0
H1091 H 0.79056 0.12146 0.31581 0.0
C1092 C 0.83106 0.81528 0.26844 0.0
C1093 C 0.86026 0.81574 0.26812 0.0
C1094 C 0.86022 0.866 0.26726 0.0
C1095 C 0.83116 0.86546 0.26587 0.0
N1096 N 0.78937 0.84125 0.27664 0.0
N1097 N 0.90152 0.84068 0.27899 0.0
C1098 C 0.81674 0.84057 0.27041 0.0
C1099 C 0.87444 0.84094 0.27163 0.0
N1100 N 0.81684 0.79132 0.26489 0.0
N1101 N 0.87435 0.8898 0.26256 0.0
H1102 H 0.91183 0.82236 0.28335 0.0
H1103 H 0.91257 0.85838 0.28379 0.0
H1104 H 0.8648 0.90865 0.25917 0.0
H1105 H 0.89562 0.89044 0.2602 0.0
H1106 H 0.79575 0.79074 0.26124 0.0
H1107 H 0.82595 0.77202 0.26409 0.0
H1108 H 0.77823 0.82392 0.2825 0.0
H1109 H 0.77863 0.85968 0.27897 0.0
C1110 C 0.19997 0.87203 0.2803 0.0
C1111 C 0.2099 0.87009 0.25294 0.0
C1112 C 0.16816 0.84572 0.23932 0.0
C1113 C 0.16085 0.84308 0.2673 0.0
N1114 N 0.16935 0.85357 0.31503 0.0
N1115 N 0.20522 0.85126 0.20708 0.0
C1116 C 0.17633 0.85659 0.28801 0.0
C1117 C 0.1943 0.85629 0.23247 0.0
N1118 N 0.21285 0.88891 0.2987 0.0
N1119 N 0.15003 0.83787 0.21931 0.0
H1120 H 0.22489 0.85735 0.20133 0.0
H1121 H 0.1959 0.83839 0.19272 0.0
H1122 H 0.13042 0.83046 0.22389 0.0
H1123 H 0.15327 0.84149 0.19844 0.0
H1124 H 0.20504 0.89333 0.31812 0.0
H1125 H 0.23025 0.90037 0.29369 0.0
H1126 H 0.18185 0.85986 0.33124 0.0
H1127 H 0.1516 0.84342 0.32138 0.0
C1128 C 0.11159 0.83362 0.73793 0.0
C1129 C 0.12498 0.80771 0.73912 0.0
C1130 C 0.16946 0.83073 0.73572 0.0
C1131 C 0.15632 0.85637 0.74014 0.0
N1132 N 0.11467 0.88229 0.74779 0.0
N1133 N 0.16733 0.78173 0.74301 0.0
C1134 C 0.12727 0.85797 0.74152 0.0
C1135 C 0.15411 0.80617 0.73868 0.0
N1136 N 0.08397 0.83491 0.73297 0.0
N1137 N 0.19653 0.82985 0.72826 0.0
H1138 H 0.15719 0.76318 0.74633 0.0
H1139 H 0.1885 0.78032 0.74594 0.0
H1140 H 0.20822 0.84754 0.72499 0.0
H1141 H 0.20643 0.8118 0.72233 0.0
H1142 H 0.07354 0.85329 0.72944 0.0
H1143 H 0.07203 0.81743 0.72944 0.0
H1144 H 0.09376 0.88384 0.75212 0.0
H1145 H 0.12538 0.90058 0.75092 0.0
C1146 C 0.22559 0.21684 0.73511 0.0
C1147 C 0.22308 0.1902 0.72374 0.0
C1148 C 0.19148 0.2076 0.68886 0.0
C1149 C 0.18917 0.23225 0.70413 0.0
N1150 N 0.20483 0.26179 0.74085 0.0
N1151 N 0.20545 0.15971 0.68904 0.0
C1152 C 0.207 0.23766 0.72659 0.0
C1153 C 0.20704 0.18554 0.69993 0.0
N1154 N 0.24535 0.2218 0.75448 0.0
N1155 N 0.1786 0.20547 0.66397 0.0
H1156 H 0.21731 0.1434 0.69642 0.0
H1157 H 0.19174 0.1542 0.67355 0.0
H1158 H 0.1674 0.22172 0.65547 0.0
H1159 H 0.18118 0.18889 0.6507 0.0
H1160 H 0.24965 0.24119 0.7624 0.0
H1161 H 0.25922 0.20668 0.76078 0.0
H1162 H 0.21497 0.26564 0.7593 0.0
H1163 H 0.19192 0.2778 0.73485 0.0
C1164 C 0.9085 0.13972 0.77795 0.0
C1165 C 0.90785 0.15636 0.75404 0.0
C1166 C 0.87956 0.12181 0.73091 0.0
C1167 C 0.87349 0.11058 0.75702 0.0
N1168 N 0.88429 0.10549 0.80496 0.0
N1169 N 0.90165 0.1587 0.70516 0.0
C1170 C 0.88913 0.11806 0.78034 0.0
C1171 C 0.89652 0.1456 0.72945 0.0
N1172 N 0.92771 0.14428 0.79788 0.0
N1173 N 0.86824 0.11013 0.70803 0.0
H1174 H 0.91577 0.17482 0.7039 0.0
H1175 H 0.89271 0.15349 0.68645 0.0
H1176 H 0.85628 0.09235 0.70923 0.0
H1177 H 0.87167 0.11687 0.68804 0.0
H1178 H 0.92986 0.1319 0.81523 0.0
H1179 H 0.94386 0.15807 0.79513 0.0
H1180 H 0.89239 0.11241 0.82355 0.0
H1181 H 0.87123 0.08855 0.80665 0.0
C1182 C 0.783 0.82733 0.66172 0.0
C1183 C 0.80819 0.83895 0.6706 0.0
C1184 C 0.78239 0.87373 0.69621 0.0
C1185 C 0.75864 0.85688 0.69386 0.0
N1186 N 0.7359 0.81752 0.67381 0.0
N1187 N 0.8314 0.8791 0.68795 0.0
C1188 C 0.75853 0.83402 0.67591 0.0
C1189 C 0.80779 0.86425 0.68509 0.0
N1190 N 0.78254 0.8104 0.63939 0.0
N1191 N 0.78029 0.89884 0.70868 0.0
H1192 H 0.84863 0.87546 0.67577 0.0
H1193 H 0.83368 0.89565 0.70129 0.0
H1194 H 0.7616 0.90653 0.71585 0.0
H1195 H 0.79627 0.91293 0.71028 0.0
H1196 H 0.76439 0.80294 0.63087 0.0
H1197 H 0.80003 0.80697 0.62744 0.0
H1198 H 0.73623 0.79862 0.66374 0.0
H1199 H 0.71741 0.82169 0.68377 0.0
C1200 C 0.2403 0.10913 0.13443 0.0
C1201 C 0.21563 0.10471 0.14932 0.0
C1202 C 0.1888 0.1183 0.10898 0.0
C1203 C 0.21299 0.12966 0.09783 0.0
N1204 N 0.26111 0.12232 0.09082 0.0
N1205 N 0.16623 0.09939 0.14923 0.0
C1206 C 0.23868 0.12029 0.10748 0.0
C1207 C 0.18977 0.10659 0.13577 0.0
N1208 N 0.26504 0.10396 0.14667 0.0
N1209 N 0.16515 0.1195 0.09394 0.0
H1210 H 0.16633 0.08968 0.1683 0.0
H1211 H 0.14657 0.10332 0.14179 0.0
H1212 H 0.16505 0.12773 0.07409 0.0
H1213 H 0.1467 0.11047 0.09985 0.0
H1214 H 0.28386 0.10956 0.13823 0.0
H1215 H 0.26651 0.09441 0.16585 0.0
H1216 H 0.28048 0.11479 0.09592 0.0
H1217 H 0.2593 0.1293 0.07059 0.0
C1218 C 0.8053 0.33149 0.2091 0.0
C1219 C 0.79479 0.30828 0.19487 0.0
C1220 C 0.80963 0.27809 0.23226 0.0
C1221 C 0.82316 0.30068 0.24498 0.0
N1222 N 0.83577 0.34861 0.24486 0.0
N1223 N 0.78859 0.25912 0.19148 0.0
C1224 C 0.82126 0.32743 0.23342 0.0
C1225 C 0.79744 0.2815 0.20605 0.0
N1226 N 0.80007 0.3573 0.19928 0.0
N1227 N 0.80737 0.2535 0.24576 0.0
H1228 H 0.77824 0.26053 0.17282 0.0
H1229 H 0.79322 0.23891 0.19686 0.0
H1230 H 0.81603 0.24974 0.26495 0.0
H1231 H 0.79464 0.23755 0.23931 0.0
H1232 H 0.80481 0.37522 0.20995 0.0
H1233 H 0.78943 0.36086 0.18098 0.0
H1234 H 0.8376 0.36796 0.23593 0.0
H1235 H 0.84769 0.34636 0.26254 0.0
C1236 C 0.78201 0.91454 0.13851 0.0
C1237 C 0.761 0.91331 0.15863 0.0
C1238 C 0.7334 0.88536 0.1273 0.0
C1239 C 0.75722 0.88023 0.11154 0.0
N1240 N 0.80411 0.89183 0.10019 0.0
N1241 N 0.71531 0.8982 0.17167 0.0
C1242 C 0.7813 0.89599 0.11598 0.0
C1243 C 0.73586 0.89966 0.1526 0.0
N1244 N 0.80272 0.93327 0.1413 0.0
N1245 N 0.70866 0.87577 0.1182 0.0
H1246 H 0.71568 0.90855 0.19035 0.0
H1247 H 0.6983 0.88539 0.16954 0.0
H1248 H 0.70681 0.86556 0.09939 0.0
H1249 H 0.69 0.88046 0.12759 0.0
H1250 H 0.81755 0.93677 0.12628 0.0
H1251 H 0.80323 0.94729 0.15754 0.0
H1252 H 0.82335 0.89987 0.10501 0.0
H1253 H 0.80411 0.87944 0.08275 0.0
C1254 C 0.09354 0.78375 0.18254 0.0
C1255 C 0.09369 0.76124 0.20097 0.0
C1256 C 0.11363 0.7319 0.16559 0.0
C1257 C 0.12068 0.75607 0.15077 0.0
N1258 N 0.11453 0.80435 0.14226 0.0
N1259 N 0.08985 0.71233 0.20507 0.0
C1260 C 0.1091 0.78174 0.15799 0.0
C1261 C 0.09908 0.73462 0.19075 0.0
N1262 N 0.07807 0.80643 0.18823 0.0
N1263 N 0.12288 0.70687 0.15685 0.0
H1264 H 0.07779 0.71457 0.22267 0.0
H1265 H 0.09161 0.69213 0.19826 0.0
H1266 H 0.13221 0.70409 0.13779 0.0
H1267 H 0.12177 0.68897 0.16851 0.0
H1268 H 0.07603 0.82303 0.17486 0.0
H1269 H 0.06443 0.80688 0.20476 0.0
H1270 H 0.10965 0.82433 0.14817 0.0
H1271 H 0.12492 0.80291 0.12353 0.0
C1272 C 0.21301 0.90142 0.85291 0.0
C1273 C 0.23375 0.90496 0.83288 0.0
C1274 C 0.26119 0.86876 0.85409 0.0
C1275 C 0.23769 0.86088 0.86937 0.0
N1276 N 0.19235 0.8709 0.88655 0.0
N1277 N 0.28236 0.90325 0.82476 0.0
C1278 C 0.21417 0.87806 0.87042 0.0
C1279 C 0.25958 0.89227 0.83686 0.0
N1280 N 0.19283 0.92075 0.85537 0.0
N1281 N 0.28435 0.85288 0.85495 0.0
H1282 H 0.28151 0.92183 0.81405 0.0
H1283 H 0.30222 0.89596 0.82799 0.0
H1284 H 0.28641 0.83627 0.86841 0.0
H1285 H 0.30101 0.85552 0.84182 0.0
H1286 H 0.17783 0.92039 0.87061 0.0
H1287 H 0.19321 0.9389 0.84391 0.0
H1288 H 0.17333 0.88066 0.88575 0.0
H1289 H 0.19304 0.85431 0.90015 0.0
C1290 C 0.11989 0.31877 0.78752 0.0
C1291 C 0.13624 0.32671 0.76476 0.0
C1292 C 0.16982 0.34642 0.79661 0.0
C1293 C 0.15724 0.33172 0.81844 0.0
N1294 N 0.11934 0.30402 0.83491 0.0
N1295 N 0.17574 0.351 0.74729 0.0
C1296 C 0.13155 0.31862 0.81424 0.0
C1297 C 0.16059 0.34209 0.76914 0.0
N1298 N 0.09338 0.31064 0.78324 0.0
N1299 N 0.19054 0.36447 0.80233 0.0
H1300 H 0.16916 0.34903 0.72702 0.0
H1301 H 0.19516 0.35974 0.7492 0.0
H1302 H 0.19742 0.36798 0.82237 0.0
H1303 H 0.1987 0.37793 0.78783 0.0
H1304 H 0.07949 0.30693 0.79909 0.0
H1305 H 0.08467 0.31038 0.76366 0.0
H1306 H 0.10253 0.29115 0.8318 0.0
H1307 H 0.12688 0.30321 0.85492 0.0
C1308 C 0.75398 0.09651 0.85815 0.0
C1309 C 0.78183 0.09435 0.84994 0.0
C1310 C 0.796 0.11646 0.89284 0.0
C1311 C 0.76869 0.12562 0.89624 0.0
N1312 N 0.72069 0.12045 0.88666 0.0
N1313 N 0.83009 0.09923 0.86093 0.0
C1314 C 0.74726 0.11372 0.88068 0.0
C1315 C 0.80318 0.1026 0.86813 0.0
N1316 N 0.73423 0.08234 0.84408 0.0
N1317 N 0.81497 0.12193 0.91277 0.0
H1318 H 0.83623 0.08877 0.84333 0.0
H1319 H 0.84642 0.10771 0.87184 0.0
H1320 H 0.80967 0.13192 0.93098 0.0
H1321 H 0.83497 0.11432 0.9125 0.0
H1322 H 0.71367 0.08168 0.84989 0.0
H1323 H 0.73907 0.06915 0.82785 0.0
H1324 H 0.70397 0.11526 0.87436 0.0
H1325 H 0.71571 0.13206 0.90403 0.0
C1326 C 0.81084 0.76044 0.78197 0.0
C1327 C 0.8195 0.73545 0.79439 0.0
C1328 C 0.84987 0.72599 0.75529 0.0
C1329 C 0.8405 0.75051 0.74259 0.0
N1330 N 0.8074 0.7873 0.74012 0.0
N1331 N 0.84315 0.69193 0.79114 0.0
C1332 C 0.81964 0.76668 0.7549 0.0
C1333 C 0.83763 0.71734 0.78041 0.0
N1334 N 0.79408 0.77819 0.79592 0.0
N1335 N 0.87139 0.71178 0.74416 0.0
H1336 H 0.83601 0.6855 0.81031 0.0
H1337 H 0.85339 0.67656 0.78032 0.0
H1338 H 0.88079 0.71741 0.72575 0.0
H1339 H 0.88122 0.69554 0.75406 0.0
H1340 H 0.78978 0.79809 0.78933 0.0
H1341 H 0.78561 0.77383 0.81506 0.0
H1342 H 0.79057 0.79858 0.74694 0.0
H1343 H 0.81235 0.79148 0.71969 0.0
C1344 C 0.15097 0.26909 0.18811 0.0
C1345 C 0.12542 0.25528 0.19032 0.0
C1346 C 0.13148 0.23641 0.14418 0.0
C1347 C 0.15901 0.24585 0.14428 0.0
N1348 N 0.19605 0.2698 0.16719 0.0
N1349 N 0.09221 0.22336 0.17156 0.0
C1350 C 0.16901 0.26226 0.16624 0.0
C1351 C 0.1156 0.23862 0.16848 0.0
N1352 N 0.15782 0.28889 0.20685 0.0
N1353 N 0.12052 0.22549 0.12071 0.0
H1354 H 0.08001 0.2239 0.18914 0.0
H1355 H 0.08607 0.20837 0.15755 0.0
H1356 H 0.13158 0.22405 0.10239 0.0
H1357 H 0.09978 0.22058 0.11863 0.0
H1358 H 0.17502 0.30148 0.2049 0.0
H1359 H 0.1448 0.29459 0.2229 0.0
H1360 H 0.20513 0.27885 0.18435 0.0
H1361 H 0.21006 0.26527 0.15166 0.0
C1362 C 0.14531 0.73352 0.86931 0.0
C1363 C 0.15446 0.76121 0.86967 0.0
C1364 C 0.11398 0.77504 0.84314 0.0
C1365 C 0.10875 0.74701 0.83751 0.0
N1366 N 0.11574 0.69939 0.84783 0.0
N1367 N 0.14789 0.80881 0.85667 0.0
C1368 C 0.12303 0.72619 0.8519 0.0
C1369 C 0.13851 0.7823 0.85721 0.0
N1370 N 0.15802 0.71443 0.88557 0.0
N1371 N 0.09594 0.79466 0.83429 0.0
H1372 H 0.1659 0.81517 0.86634 0.0
H1373 H 0.13889 0.82428 0.84491 0.0
H1374 H 0.07771 0.78976 0.82416 0.0
H1375 H 0.09745 0.81534 0.83961 0.0
H1376 H 0.15122 0.69428 0.88785 0.0
H1377 H 0.17435 0.7194 0.89856 0.0
H1378 H 0.12711 0.68265 0.85479 0.0
H1379 H 0.09805 0.69415 0.83686 0.0
C1380 C 0.22799 0.21287 0.87452 0.0
C1381 C 0.23639 0.23773 0.8617 0.0
C1382 C 0.26692 0.21152 0.83192 0.0
C1383 C 0.25254 0.18714 0.83882 0.0
N1384 N 0.22468 0.16311 0.87194 0.0
N1385 N 0.26272 0.26049 0.82606 0.0
C1386 C 0.23468 0.18731 0.86188 0.0
C1387 C 0.25585 0.2371 0.84003 0.0
N1388 N 0.21475 0.21378 0.89928 0.0
N1389 N 0.2916 0.21029 0.81866 0.0
H1390 H 0.25424 0.2797 0.83031 0.0
H1391 H 0.27482 0.26021 0.80838 0.0
H1392 H 0.30208 0.19181 0.81579 0.0
H1393 H 0.30345 0.22768 0.8146 0.0
H1394 H 0.20973 0.19647 0.91079 0.0
H1395 H 0.21115 0.23217 0.90968 0.0
H1396 H 0.20862 0.16185 0.88602 0.0
H1397 H 0.23288 0.14413 0.86625 0.0
C1398 C 0.84873 0.20223 0.87164 0.0
C1399 C 0.83496 0.22502 0.88366 0.0
C1400 C 0.86359 0.25692 0.85731 0.0
C1401 C 0.87659 0.23409 0.8448 0.0
N1402 N 0.88808 0.1861 0.84561 0.0
N1403 N 0.83382 0.27344 0.89381 0.0
C1404 C 0.87145 0.20709 0.85412 0.0
C1405 C 0.844 0.25223 0.87847 0.0
N1406 N 0.83876 0.17617 0.87495 0.0
N1407 N 0.86875 0.28285 0.84781 0.0
H1408 H 0.81959 0.2704 0.90957 0.0
H1409 H 0.8412 0.29349 0.89266 0.0
H1410 H 0.88368 0.28694 0.833 0.0
H1411 H 0.85746 0.30007 0.85365 0.0
H1412 H 0.84596 0.15933 0.8639 0.0
H1413 H 0.82173 0.17158 0.887 0.0
H1414 H 0.88692 0.16618 0.85341 0.0
H1415 H 0.90489 0.18942 0.83272 0.0
C1416 C 0.68493 0.79221 0.81253 0.0
C1417 C 0.69931 0.79766 0.78783 0.0
C1418 C 0.7252 0.75488 0.79314 0.0
C1419 C 0.71521 0.75289 0.82041 0.0
N1420 N 0.68399 0.76706 0.85575 0.0
N1421 N 0.73163 0.78362 0.75285 0.0
C1422 C 0.6941 0.77047 0.82979 0.0
C1423 C 0.71858 0.77847 0.77723 0.0
N1424 N 0.66256 0.80783 0.81924 0.0
N1425 N 0.7418 0.73459 0.78307 0.0
H1426 H 0.72739 0.80064 0.74057 0.0
H1427 H 0.74745 0.77167 0.74493 0.0
H1428 H 0.74579 0.71667 0.79409 0.0
H1429 H 0.74935 0.73388 0.7631 0.0
H1430 H 0.6498 0.80372 0.83589 0.0
H1431 H 0.65538 0.82363 0.80658 0.0
H1432 H 0.67077 0.7809 0.86529 0.0
H1433 H 0.68967 0.75037 0.86803 0.0
C1434 C 0.8524 0.76096 0.11488 0.0
C1435 C 0.83988 0.78726 0.11618 0.0
C1436 C 0.87052 0.80009 0.15404 0.0
C1437 C 0.8787 0.77228 0.15622 0.0
N1438 N 0.88005 0.7264 0.13816 0.0
N1439 N 0.83648 0.83225 0.13708 0.0
C1440 C 0.87078 0.75283 0.13612 0.0
C1441 C 0.84928 0.80727 0.13529 0.0
N1442 N 0.84665 0.74396 0.09325 0.0
N1443 N 0.88268 0.81939 0.17043 0.0
H1444 H 0.82076 0.83841 0.12389 0.0
H1445 H 0.84013 0.84632 0.15278 0.0
H1446 H 0.89825 0.8144 0.18434 0.0
H1447 H 0.87937 0.84044 0.16841 0.0
H1448 H 0.85651 0.72528 0.08986 0.0
H1449 H 0.83353 0.74975 0.07726 0.0
H1450 H 0.8726 0.7102 0.12633 0.0
H1451 H 0.89492 0.72061 0.15254 0.0
C1452 C 0.22575 0.84235 0.13437 0.0
C1453 C 0.23987 0.81763 0.12753 0.0
C1454 C 0.28329 0.8378 0.14305 0.0
C1455 C 0.26875 0.86138 0.15181 0.0
N1456 N 0.22951 0.8908 0.14558 0.0
N1457 N 0.28289 0.79535 0.11694 0.0
C1458 C 0.24118 0.86536 0.1436 0.0
C1459 C 0.26901 0.81656 0.12902 0.0
N1460 N 0.19766 0.84327 0.13456 0.0
N1461 N 0.31052 0.83539 0.14938 0.0
H1462 H 0.27295 0.77968 0.10624 0.0
H1463 H 0.30421 0.79453 0.11537 0.0
H1464 H 0.32155 0.85169 0.15794 0.0
H1465 H 0.32181 0.81737 0.14693 0.0
H1466 H 0.18654 0.85975 0.14249 0.0
H1467 H 0.18516 0.82675 0.12927 0.0
H1468 H 0.21002 0.89539 0.13794 0.0
H1469 H 0.24058 0.90804 0.15178 0.0
C1470 C 0.71829 0.22517 0.21034 0.0
C1471 C 0.71381 0.19879 0.19876 0.0
C1472 C 0.70143 0.21978 0.15471 0.0
C1473 C 0.70714 0.24597 0.16603 0.0
N1474 N 0.71215 0.27434 0.20626 0.0
N1475 N 0.69359 0.17117 0.16295 0.0
C1476 C 0.71213 0.24887 0.19453 0.0
C1477 C 0.70283 0.19615 0.17187 0.0
N1478 N 0.73085 0.22771 0.23535 0.0
N1479 N 0.69589 0.2176 0.12726 0.0
H1480 H 0.69402 0.15362 0.1753 0.0
H1481 H 0.68338 0.16831 0.14436 0.0
H1482 H 0.69329 0.23488 0.11477 0.0
H1483 H 0.69483 0.19895 0.11681 0.0
H1484 H 0.73762 0.24643 0.24317 0.0
H1485 H 0.73704 0.21095 0.24715 0.0
H1486 H 0.7121 0.2773 0.22744 0.0
H1487 H 0.70901 0.29229 0.19505 0.0
C1488 C 0.69808 0.67107 0.79416 0.0
C1489 C 0.71346 0.6703 0.76941 0.0
C1490 C 0.68882 0.71062 0.7524 0.0
C1491 C 0.67041 0.70844 0.77476 0.0
N1492 N 0.65702 0.68753 0.81746 0.0
N1493 N 0.72269 0.68805 0.724 0.0
C1494 C 0.67508 0.68913 0.79605 0.0
C1495 C 0.70874 0.68984 0.7483 0.0
N1496 N 0.70574 0.65485 0.81581 0.0
N1497 N 0.68762 0.73304 0.73553 0.0
H1498 H 0.73746 0.67307 0.72007 0.0
H1499 H 0.71828 0.70014 0.70693 0.0
H1500 H 0.67427 0.74934 0.73928 0.0
H1501 H 0.70191 0.73717 0.72016 0.0
H1502 H 0.69703 0.65626 0.83529 0.0
H1503 H 0.72239 0.64134 0.8148 0.0
H1504 H 0.65742 0.67201 0.83218 0.0
H1505 H 0.6408 0.7014 0.81979 0.0
C1506 C 0.28559 0.6378 0.76046 0.0
C1507 C 0.2861 0.61151 0.74776 0.0
C1508 C 0.33653 0.61122 0.7499 0.0
C1509 C 0.33574 0.63719 0.76304 0.0
N1510 N 0.30981 0.67044 0.78903 0.0
N1511 N 0.31124 0.57022 0.7368 0.0
C1512 C 0.31031 0.64883 0.77108 0.0
C1513 C 0.31138 0.59722 0.74458 0.0
N1514 N 0.26216 0.65336 0.76053 0.0
N1515 N 0.36103 0.60061 0.74125 0.0
H1516 H 0.29311 0.55931 0.73331 0.0
H1517 H 0.32882 0.558 0.73643 0.0
H1518 H 0.37983 0.61013 0.7452 0.0
H1519 H 0.36259 0.58333 0.72872 0.0
H1520 H 0.26183 0.67387 0.76671 0.0
H1521 H 0.24362 0.64704 0.75194 0.0
H1522 H 0.29176 0.67817 0.79756 0.0
H1523 H 0.32763 0.67854 0.79775 0.0
C1524 C 0.34926 0.28221 0.71691 0.0
C1525 C 0.3659 0.27354 0.73927 0.0
C1526 C 0.35959 0.31809 0.76184 0.0
C1527 C 0.3429 0.3267 0.73954 0.0
N1528 N 0.32812 0.32016 0.69257 0.0
N1529 N 0.39264 0.28505 0.7794 0.0
C1530 C 0.34008 0.3099 0.71585 0.0
C1531 C 0.37288 0.29208 0.76066 0.0
N1532 N 0.34063 0.26358 0.69767 0.0
N1533 N 0.36199 0.33455 0.78447 0.0
H1534 H 0.40299 0.26626 0.77889 0.0
H1535 H 0.40048 0.29865 0.79395 0.0
H1536 H 0.35404 0.35449 0.78502 0.0
H1537 H 0.37084 0.32816 0.8029 0.0
H1538 H 0.32589 0.26795 0.68276 0.0
H1539 H 0.34621 0.24289 0.69799 0.0
H1540 H 0.32765 0.30962 0.67394 0.0
H1541 H 0.32124 0.34034 0.69087 0.0
C1542 C 0.63608 0.36539 0.75384 0.0
C1543 C 0.64213 0.34585 0.77463 0.0
C1544 C 0.68521 0.36963 0.78495 0.0
C1545 C 0.68216 0.38424 0.76007 0.0
N1546 N 0.6498 0.40776 0.73112 0.0
N1547 N 0.67018 0.33109 0.81274 0.0
C1548 C 0.65585 0.38602 0.7478 0.0
C1549 C 0.66574 0.34896 0.79152 0.0
N1550 N 0.61263 0.36291 0.73858 0.0
N1551 N 0.70628 0.37615 0.80231 0.0
H1552 H 0.65566 0.31645 0.8185 0.0
H1553 H 0.68842 0.33008 0.82389 0.0
H1554 H 0.71925 0.39279 0.7984 0.0
H1555 H 0.70894 0.36743 0.82167 0.0
H1556 H 0.60872 0.37441 0.72094 0.0
H1557 H 0.59748 0.3484 0.74297 0.0
H1558 H 0.63041 0.41128 0.72275 0.0
H1559 H 0.66349 0.42408 0.72855 0.0
C1560 C 0.66876 0.33603 0.19992 0.0
C1561 C 0.6766 0.34549 0.22646 0.0
C1562 C 0.6584 0.30348 0.24716 0.0
C1563 C 0.64857 0.29492 0.22105 0.0
N1564 N 0.64139 0.304 0.17293 0.0
N1565 N 0.67512 0.34038 0.2759 0.0
C1566 C 0.65291 0.31146 0.19745 0.0
C1567 C 0.66997 0.33002 0.25025 0.0
N1568 N 0.67687 0.35033 0.17712 0.0
N1569 N 0.65838 0.28545 0.26871 0.0
H1570 H 0.68466 0.35918 0.27937 0.0
H1571 H 0.66781 0.33143 0.29391 0.0
H1572 H 0.65183 0.2652 0.26684 0.0
H1573 H 0.66753 0.28944 0.28761 0.0
H1574 H 0.67469 0.343 0.15714 0.0
H1575 H 0.68702 0.36919 0.17826 0.0
H1576 H 0.64146 0.31643 0.15551 0.0
H1577 H 0.63011 0.28593 0.17046 0.0
C1578 C 0.67939 0.6117 0.25049 0.0
C1579 C 0.70519 0.61317 0.23704 0.0
C1580 C 0.68231 0.63013 0.19558 0.0
C1581 C 0.65847 0.63508 0.21129 0.0
N1582 N 0.63281 0.62925 0.25314 0.0
N1583 N 0.73156 0.62333 0.19611 0.0
C1584 C 0.6563 0.62485 0.23842 0.0
C1585 C 0.70674 0.62154 0.20909 0.0
N1586 N 0.67716 0.59775 0.27478 0.0
N1587 N 0.68138 0.63394 0.16781 0.0
H1588 H 0.75002 0.61732 0.20514 0.0
H1589 H 0.7341 0.6324 0.17688 0.0
H1590 H 0.66309 0.6392 0.15787 0.0
H1591 H 0.69748 0.62895 0.15464 0.0
H1592 H 0.6585 0.59409 0.28459 0.0
H1593 H 0.69377 0.58746 0.28368 0.0
H1594 H 0.63115 0.62546 0.27414 0.0
H1595 H 0.61519 0.63785 0.2444 0.0
C1596 C 0.32262 0.64273 0.28345 0.0
C1597 C 0.31322 0.63257 0.2578 0.0
C1598 C 0.34709 0.66093 0.23372 0.0
C1599 C 0.35416 0.67332 0.25911 0.0
N1600 N 0.3455 0.67966 0.30759 0.0
N1601 N 0.3134 0.63466 0.20817 0.0
C1602 C 0.34117 0.66515 0.28389 0.0
C1603 C 0.32472 0.64221 0.23278 0.0
N1604 N 0.31432 0.63049 0.30737 0.0
N1605 N 0.36215 0.66653 0.21068 0.0
H1606 H 0.29691 0.62108 0.20651 0.0
H1607 H 0.31889 0.64354 0.18948 0.0
H1608 H 0.37862 0.68027 0.21061 0.0
H1609 H 0.35984 0.65588 0.19225 0.0
H1610 H 0.32259 0.63529 0.32655 0.0
H1611 H 0.30112 0.61359 0.30781 0.0
H1612 H 0.33404 0.67666 0.32541 0.0
H1613 H 0.35867 0.69653 0.30874 0.0
C1614 C 0.35327 0.30166 0.27741 0.0
C1615 C 0.35716 0.30471 0.24868 0.0
C1616 C 0.32446 0.34297 0.24781 0.0
C1617 C 0.31785 0.33729 0.27564 0.0
N1618 N 0.32461 0.31074 0.31707 0.0
N1619 N 0.3452 0.32651 0.20566 0.0
C1620 C 0.33191 0.31652 0.29053 0.0
C1621 C 0.34279 0.3252 0.23365 0.0
N1622 N 0.37065 0.28521 0.29223 0.0
N1623 N 0.31293 0.36509 0.23479 0.0
H1624 H 0.35854 0.31411 0.19442 0.0
H1625 H 0.33258 0.33853 0.19322 0.0
H1626 H 0.29805 0.37757 0.24383 0.0
H1627 H 0.3194 0.37223 0.21569 0.0
H1628 H 0.3707 0.28421 0.31361 0.0
H1629 H 0.38697 0.27456 0.28329 0.0
H1630 H 0.3316 0.29356 0.32777 0.0
H1631 H 0.3103 0.32232 0.32805 0.0
C1632 C 0.79659 0.65725 0.65613 0.0
C1633 C 0.79424 0.66539 0.68396 0.0
C1634 C 0.77542 0.70977 0.66999 0.0
C1635 C 0.77767 0.70173 0.64189 0.0
N1636 N 0.79882 0.67172 0.6085 0.0
N1637 N 0.79067 0.7023 0.71683 0.0
C1638 C 0.79093 0.67664 0.635 0.0
C1639 C 0.78722 0.69282 0.69061 0.0
N1640 N 0.80352 0.63075 0.64999 0.0
N1641 N 0.76008 0.73216 0.67742 0.0
H1642 H 0.79912 0.69036 0.73248 0.0
H1643 H 0.78793 0.72282 0.72228 0.0
H1644 H 0.74888 0.74409 0.66364 0.0
H1645 H 0.75575 0.73718 0.69778 0.0
H1646 H 0.80231 0.62257 0.63023 0.0
H1647 H 0.80939 0.61665 0.6651 0.0
H1648 H 0.81057 0.65477 0.60275 0.0
H1649 H 0.79619 0.68607 0.59277 0.0
C1650 C 0.40282 0.71773 0.6746 0.0
C1651 C 0.40686 0.73305 0.69897 0.0
C1652 C 0.38375 0.7726 0.67846 0.0
C1653 C 0.37353 0.7549 0.65774 0.0
N1654 N 0.37592 0.71219 0.63288 0.0
N1655 N 0.41498 0.77819 0.71717 0.0
C1656 C 0.3845 0.72813 0.65435 0.0
C1657 C 0.40188 0.76171 0.69863 0.0
N1658 N 0.41696 0.69381 0.67082 0.0
N1659 N 0.37476 0.79918 0.67961 0.0
H1660 H 0.42992 0.7704 0.73049 0.0
H1661 H 0.41343 0.79953 0.71734 0.0
H1662 H 0.36253 0.80775 0.66417 0.0
H1663 H 0.37878 0.81241 0.69594 0.0
H1664 H 0.41617 0.68226 0.65283 0.0
H1665 H 0.43205 0.68738 0.68469 0.0
H1666 H 0.38053 0.69138 0.63098 0.0
H1667 H 0.3633 0.71983 0.61727 0.0
C1668 C 0.25743 0.28797 0.70539 0.0
C1669 C 0.2425 0.31285 0.70199 0.0
C1670 C 0.22245 0.29589 0.65909 0.0
C1671 C 0.24049 0.27307 0.6604 0.0
N1672 N 0.27038 0.24341 0.68653 0.0
N1673 N 0.20938 0.34037 0.67773 0.0
C1674 C 0.25635 0.26773 0.68429 0.0
C1675 C 0.22415 0.31652 0.67968 0.0
N1676 N 0.27374 0.28458 0.72807 0.0
N1677 N 0.20339 0.29735 0.63845 0.0
H1678 H 0.20937 0.35514 0.69329 0.0
H1679 H 0.1978 0.346 0.66065 0.0
H1680 H 0.20158 0.28225 0.62332 0.0
H1681 H 0.18798 0.31213 0.63736 0.0
H1682 H 0.28719 0.26827 0.73112 0.0
H1683 H 0.27391 0.29845 0.74439 0.0
H1684 H 0.28116 0.23714 0.70388 0.0
H1685 H 0.27037 0.22847 0.67117 0.0
C1686 C 0.61176 0.20208 0.66634 0.0
C1687 C 0.62129 0.21947 0.64508 0.0
C1688 C 0.61463 0.2599 0.6737 0.0
C1689 C 0.60878 0.24236 0.69633 0.0
N1690 N 0.5909 0.19862 0.71153 0.0
N1691 N 0.61586 0.26386 0.62404 0.0
C1692 C 0.60376 0.21393 0.69179 0.0
C1693 C 0.61714 0.24812 0.6472 0.0
N1694 N 0.61133 0.17433 0.66223 0.0
N1695 N 0.61983 0.28724 0.67754 0.0
H1696 H 0.61568 0.25506 0.60447 0.0
H1697 H 0.61126 0.28479 0.62437 0.0
H1698 H 0.61949 0.29677 0.69669 0.0
H1699 H 0.62706 0.29997 0.66189 0.0
H1700 H 0.60801 0.16001 0.67778 0.0
H1701 H 0.61487 0.16581 0.64284 0.0
H1702 H 0.58499 0.17825 0.70876 0.0
H1703 H 0.58369 0.20716 0.72982 0.0
C1704 C 0.74997 0.32146 0.29215 0.0
C1705 C 0.76014 0.34791 0.29827 0.0
C1706 C 0.76735 0.33409 0.34619 0.0
C1707 C 0.75282 0.30938 0.3408 0.0
N1708 N 0.7251 0.28244 0.30969 0.0
N1709 N 0.77792 0.38048 0.33095 0.0
C1710 C 0.74287 0.30373 0.31402 0.0
C1711 C 0.76884 0.35452 0.32527 0.0
N1712 N 0.74681 0.31331 0.2655 0.0
N1713 N 0.78015 0.33774 0.37092 0.0
H1714 H 0.78067 0.39527 0.31563 0.0
H1715 H 0.78156 0.38763 0.3508 0.0
H1716 H 0.77939 0.32314 0.38659 0.0
H1717 H 0.79318 0.35419 0.3751 0.0
H1718 H 0.74258 0.29303 0.26021 0.0
H1719 H 0.75172 0.32582 0.24881 0.0
H1720 H 0.71527 0.27906 0.29096 0.0
H1721 H 0.71885 0.26916 0.32526 0.0
C1722 C 0.5959 0.72959 0.29155 0.0
C1723 C 0.60088 0.7448 0.26714 0.0
C1724 C 0.61588 0.78379 0.29511 0.0
C1725 C 0.61836 0.76588 0.31775 0.0
N1726 N 0.60819 0.72283 0.33949 0.0
N1727 N 0.61434 0.78779 0.24564 0.0
C1728 C 0.6069 0.73928 0.31678 0.0
C1729 C 0.60962 0.77268 0.26885 0.0
N1730 N 0.58095 0.70586 0.29034 0.0
N1731 N 0.62058 0.8112 0.29881 0.0
H1732 H 0.60986 0.78096 0.2259 0.0
H1733 H 0.62415 0.80681 0.24585 0.0
H1734 H 0.62547 0.81926 0.31812 0.0
H1735 H 0.61715 0.82594 0.28365 0.0
H1736 H 0.57506 0.69475 0.30766 0.0
H1737 H 0.57211 0.6989 0.27204 0.0
H1738 H 0.60323 0.70201 0.33933 0.0
H1739 H 0.61525 0.73016 0.35841 0.0
C1740 C 0.23091 0.61098 0.38048 0.0
C1741 C 0.25925 0.61543 0.38571 0.0
C1742 C 0.27062 0.57803 0.35448 0.0
C1743 C 0.24432 0.58105 0.34243 0.0
N1744 N 0.19667 0.59166 0.34936 0.0
N1745 N 0.30609 0.60029 0.38145 0.0
C1746 C 0.22335 0.59439 0.35755 0.0
C1747 C 0.2791 0.59755 0.37432 0.0
N1748 N 0.21165 0.62313 0.39684 0.0
N1749 N 0.28712 0.55663 0.34705 0.0
H1750 H 0.31245 0.61371 0.39697 0.0
H1751 H 0.32197 0.59009 0.37134 0.0
H1752 H 0.28005 0.54094 0.33423 0.0
H1753 H 0.30607 0.55268 0.35624 0.0
H1754 H 0.1906 0.62008 0.39482 0.0
H1755 H 0.21697 0.63488 0.41395 0.0
H1756 H 0.18041 0.603 0.35735 0.0
H1757 H 0.19095 0.57737 0.33439 0.0
C1758 C 0.42021 0.23082 0.33014 0.0
C1759 C 0.39882 0.21251 0.33737 0.0
C1760 C 0.40497 0.18779 0.29396 0.0
C1761 C 0.4207 0.21021 0.28445 0.0
N1762 N 0.45564 0.2427 0.29697 0.0
N1763 N 0.37376 0.17052 0.32874 0.0
C1764 C 0.43258 0.22833 0.30385 0.0
C1765 C 0.39276 0.18944 0.32045 0.0
N1766 N 0.42733 0.25149 0.34775 0.0
N1767 N 0.40227 0.16508 0.27773 0.0
H1768 H 0.36564 0.17026 0.34853 0.0
H1769 H 0.36565 0.15541 0.31595 0.0
H1770 H 0.4128 0.16335 0.25911 0.0
H1771 H 0.39238 0.14713 0.28384 0.0
H1772 H 0.44046 0.26754 0.3425 0.0
H1773 H 0.41922 0.25281 0.36758 0.0
H1774 H 0.46632 0.25525 0.31062 0.0
H1775 H 0.46568 0.2394 0.27829 0.0
C1776 C 0.67411 0.7356 0.65469 0.0
C1777 C 0.67796 0.75996 0.639 0.0
C1778 C 0.64303 0.78335 0.66686 0.0
C1779 C 0.63762 0.75825 0.68079 0.0
N1780 N 0.64475 0.7091 0.68462 0.0
N1781 N 0.66294 0.80565 0.62691 0.0
C1782 C 0.65183 0.73388 0.67335 0.0
C1783 C 0.66161 0.78355 0.64422 0.0
N1784 N 0.69294 0.71472 0.65336 0.0
N1785 N 0.63052 0.80704 0.67537 0.0
H1786 H 0.67583 0.8063 0.60982 0.0
H1787 H 0.64959 0.82235 0.62803 0.0
H1788 H 0.61529 0.80737 0.69046 0.0
H1789 H 0.63621 0.8265 0.66849 0.0
H1790 H 0.69243 0.69739 0.6659 0.0
H1791 H 0.71098 0.71584 0.64196 0.0
H1792 H 0.65206 0.69037 0.67725 0.0
H1793 H 0.62991 0.70667 0.69978 0.0
C1794 C 0.67378 0.19902 0.33763 0.0
C1795 C 0.67709 0.22594 0.34846 0.0
C1796 C 0.63767 0.24133 0.3209 0.0
C1797 C 0.63853 0.21639 0.3059 0.0
N1798 N 0.65739 0.17098 0.29976 0.0
N1799 N 0.66471 0.27435 0.34588 0.0
C1800 C 0.65653 0.195 0.31431 0.0
C1801 C 0.65945 0.24751 0.33928 0.0
N1802 N 0.68643 0.17721 0.35005 0.0
N1803 N 0.61677 0.25969 0.317 0.0
H1804 H 0.68179 0.28088 0.35695 0.0
H1805 H 0.65397 0.29082 0.33736 0.0
H1806 H 0.60052 0.25642 0.30349 0.0
H1807 H 0.61399 0.27689 0.32947 0.0
H1808 H 0.68304 0.15686 0.34432 0.0
H1809 H 0.69805 0.17919 0.36796 0.0
H1810 H 0.67256 0.15611 0.30255 0.0
H1811 H 0.64351 0.1665 0.28401 0.0
C1812 C 0.75675 0.67269 0.36334 0.0
C1813 C 0.77234 0.67384 0.33888 0.0
C1814 C 0.76236 0.72272 0.33364 0.0
C1815 C 0.74242 0.72039 0.35487 0.0
N1816 N 0.72306 0.69476 0.39279 0.0
N1817 N 0.80215 0.70222 0.31171 0.0
C1818 C 0.74063 0.69592 0.37089 0.0
C1819 C 0.77918 0.69972 0.32762 0.0
N1820 N 0.75877 0.65012 0.37993 0.0
N1821 N 0.76372 0.7458 0.31763 0.0
H1822 H 0.8156 0.68575 0.30872 0.0
H1823 H 0.80959 0.72099 0.30459 0.0
H1824 H 0.7513 0.76299 0.32048 0.0
H1825 H 0.77571 0.74708 0.29995 0.0
H1826 H 0.74906 0.64819 0.39887 0.0
H1827 H 0.77311 0.63461 0.37623 0.0
H1828 H 0.71821 0.67676 0.40327 0.0
H1829 H 0.71257 0.7119 0.40021 0.0
C1830 C 0.36635 0.7395 0.38252 0.0
C1831 C 0.35828 0.71146 0.38332 0.0
C1832 C 0.39962 0.69904 0.35767 0.0
C1833 C 0.40243 0.72692 0.35003 0.0
N1834 N 0.39449 0.77435 0.36021 0.0
N1835 N 0.3682 0.66377 0.37322 0.0
C1836 C 0.38809 0.7474 0.36476 0.0
C1837 C 0.37564 0.69083 0.37212 0.0
N1838 N 0.35285 0.75833 0.3984 0.0
N1839 N 0.41954 0.68059 0.35072 0.0
H1840 H 0.3508 0.65681 0.38354 0.0
H1841 H 0.37835 0.64838 0.36234 0.0
H1842 H 0.43791 0.68675 0.34159 0.0
H1843 H 0.41941 0.66016 0.35714 0.0
H1844 H 0.35858 0.77886 0.40008 0.0
H1845 H 0.3369 0.75282 0.41161 0.0
H1846 H 0.38317 0.79088 0.36766 0.0
H1847 H 0.41149 0.77988 0.34834 0.0
C1848 C 0.2988 0.32437 0.41361 0.0
C1849 C 0.32264 0.31618 0.39899 0.0
C1850 C 0.32683 0.3625 0.3803 0.0
C1851 C 0.29891 0.36676 0.38687 0.0
N1852 N 0.26217 0.35836 0.41829 0.0
N1853 N 0.36214 0.32848 0.37158 0.0
C1854 C 0.28649 0.35007 0.40709 0.0
C1855 C 0.33811 0.33584 0.38404 0.0
N1856 N 0.28773 0.30698 0.43266 0.0
N1857 N 0.34193 0.38367 0.36989 0.0
H1858 H 0.37119 0.30925 0.37432 0.0
H1859 H 0.37241 0.34103 0.35761 0.0
H1860 H 0.33372 0.40345 0.36829 0.0
H1861 H 0.36292 0.38233 0.36595 0.0
H1862 H 0.27043 0.31141 0.44437 0.0
H1863 H 0.29711 0.28833 0.43778 0.0
H1864 H 0.25057 0.34676 0.43198 0.0
H1865 H 0.25393 0.37768 0.41373 0.0
C1866 C 0.322 0.15739 0.67779 0.0
C1867 C 0.34797 0.1694 0.67204 0.0
C1868 C 0.33255 0.17792 0.62498 0.0
C1869 C 0.30505 0.17425 0.63361 0.0
N1870 N 0.27328 0.15727 0.66773 0.0
N1871 N 0.37878 0.18975 0.63849 0.0
C1872 C 0.29963 0.16229 0.6596 0.0
C1873 C 0.35386 0.17854 0.64492 0.0
N1874 N 0.31891 0.14149 0.70075 0.0
N1875 N 0.33797 0.18136 0.59765 0.0
H1876 H 0.39549 0.19006 0.65179 0.0
H1877 H 0.38249 0.20005 0.62009 0.0
H1878 H 0.3224 0.18039 0.58287 0.0
H1879 H 0.35779 0.18208 0.58959 0.0
H1880 H 0.30115 0.13034 0.70501 0.0
H1881 H 0.33534 0.13712 0.71388 0.0
H1882 H 0.26811 0.15179 0.68773 0.0
H1883 H 0.25639 0.15933 0.65477 0.0
C1884 C 0.70541 0.28731 0.65878 0.0
C1885 C 0.7162 0.28071 0.63256 0.0
C1886 C 0.73496 0.32732 0.62839 0.0
C1887 C 0.72717 0.33256 0.65598 0.0
N1888 N 0.71034 0.31495 0.69954 0.0
N1889 N 0.74363 0.29303 0.59319 0.0
C1890 C 0.71373 0.31194 0.67176 0.0
C1891 C 0.73149 0.3004 0.61742 0.0
N1892 N 0.68659 0.2704 0.67103 0.0
N1893 N 0.74511 0.34821 0.61259 0.0
H1894 H 0.74157 0.27349 0.58461 0.0
H1895 H 0.75744 0.30552 0.58265 0.0
H1896 H 0.74776 0.36813 0.62007 0.0
H1897 H 0.74868 0.34643 0.59156 0.0
H1898 H 0.67611 0.27563 0.68895 0.0
H1899 H 0.67922 0.25246 0.6619 0.0
H1900 H 0.70355 0.29911 0.71226 0.0
H1901 H 0.71701 0.332 0.71061 0.0
C1902 C 0.21214 0.67892 0.66156 0.0
C1903 C 0.22484 0.65366 0.65447 0.0
C1904 C 0.25513 0.6784 0.62299 0.0
C1905 C 0.24742 0.70346 0.63568 0.0
N1906 N 0.21849 0.72775 0.66805 0.0
N1907 N 0.25952 0.62928 0.62827 0.0
C1908 C 0.22543 0.70398 0.6548 0.0
C1909 C 0.24622 0.65319 0.63462 0.0
N1910 N 0.18752 0.67877 0.67504 0.0
N1911 N 0.2709 0.67877 0.59976 0.0
H1912 H 0.25386 0.61013 0.63586 0.0
H1913 H 0.27751 0.62872 0.61668 0.0
H1914 H 0.27708 0.69705 0.59036 0.0
H1915 H 0.27514 0.66122 0.58823 0.0
H1916 H 0.17614 0.69652 0.67885 0.0
H1917 H 0.17717 0.66054 0.67968 0.0
H1918 H 0.20476 0.72836 0.68446 0.0
H1919 H 0.22789 0.74658 0.66423 0.0
C1920 C 0.18384 0.3104 0.32614 0.0
C1921 C 0.18184 0.33885 0.32047 0.0
C1922 C 0.13313 0.33303 0.30954 0.0
C1923 C 0.13706 0.30414 0.3089 0.0
N1924 N 0.16776 0.26511 0.3143 0.0
N1925 N 0.15451 0.37781 0.30621 0.0
C1926 C 0.16263 0.2926 0.31716 0.0
C1927 C 0.15631 0.35052 0.31257 0.0
N1928 N 0.20618 0.30042 0.33998 0.0
N1929 N 0.10721 0.34362 0.30726 0.0
H1930 H 0.17089 0.39139 0.30838 0.0
H1931 H 0.13724 0.38665 0.29711 0.0
H1932 H 0.08984 0.33113 0.30558 0.0
H1933 H 0.10273 0.36439 0.30992 0.0
H1934 H 0.20761 0.28017 0.34686 0.0
H1935 H 0.22185 0.31319 0.34722 0.0
H1936 H 0.18722 0.25656 0.31696 0.0
H1937 H 0.15351 0.25098 0.30694 0.0
C1938 C 0.65309 0.10717 0.19544 0.0
C1939 C 0.65906 0.10073 0.22315 0.0
C1940 C 0.61563 0.12134 0.23661 0.0
C1941 C 0.61729 0.13754 0.21243 0.0
N1942 N 0.6299 0.13926 0.16479 0.0
N1943 N 0.64093 0.09161 0.268 0.0
C1944 C 0.63314 0.12779 0.19016 0.0
C1945 C 0.6381 0.10383 0.24295 0.0
N1946 N 0.66741 0.09459 0.17494 0.0
N1947 N 0.59308 0.12302 0.25313 0.0
H1948 H 0.65696 0.07783 0.27186 0.0
H1949 H 0.62795 0.09535 0.28459 0.0
H1950 H 0.5757 0.13413 0.24723 0.0
H1951 H 0.59039 0.11108 0.27069 0.0
H1952 H 0.66361 0.0978 0.15412 0.0
H1953 H 0.68152 0.07899 0.17932 0.0
H1954 H 0.64245 0.13481 0.14806 0.0
H1955 H 0.61428 0.15349 0.16089 0.0
C1956 C 0.84462 0.63729 0.21782 0.0
C1957 C 0.84711 0.62324 0.24312 0.0
C1958 C 0.88828 0.64949 0.25441 0.0
C1959 C 0.88112 0.6681 0.2332 0.0
N1960 N 0.85569 0.67847 0.19195 0.0
N1961 N 0.87885 0.60557 0.27649 0.0
C1962 C 0.86073 0.6612 0.21353 0.0
C1963 C 0.87166 0.62585 0.25848 0.0
N1964 N 0.82726 0.6274 0.19813 0.0
N1965 N 0.90974 0.65546 0.27152 0.0
H1966 H 0.86742 0.58746 0.27803 0.0
H1967 H 0.89718 0.60531 0.28752 0.0
H1968 H 0.92269 0.67223 0.26814 0.0
H1969 H 0.91431 0.64436 0.28925 0.0
H1970 H 0.82543 0.63582 0.17854 0.0
H1971 H 0.81707 0.60867 0.20058 0.0
H1972 H 0.83906 0.67636 0.17864 0.0
H1973 H 0.86787 0.69566 0.188 0.0
C1974 C 0.38585 0.83254 0.27408 0.0
C1975 C 0.3959 0.81725 0.25141 0.0
C1976 C 0.37505 0.84977 0.21919 0.0
C1977 C 0.36244 0.86331 0.24185 0.0
N1978 N 0.36347 0.8743 0.28993 0.0
N1979 N 0.40827 0.81569 0.20375 0.0
C1980 C 0.37063 0.85695 0.26904 0.0
C1981 C 0.39331 0.82752 0.22436 0.0
N1982 N 0.38919 0.82273 0.3002 0.0
N1983 N 0.36821 0.85673 0.19284 0.0
H1984 H 0.42179 0.79941 0.20739 0.0
H1985 H 0.40934 0.82349 0.18384 0.0
H1986 H 0.35655 0.87393 0.18784 0.0
H1987 H 0.3735 0.845 0.17575 0.0
H1988 H 0.37935 0.83099 0.31731 0.0
H1989 H 0.40103 0.80545 0.30468 0.0
H1990 H 0.37045 0.87216 0.31006 0.0
H1991 H 0.35259 0.89247 0.28634 0.0
C1992 C 0.11398 0.64196 0.76346 0.0
C1993 C 0.1018 0.65652 0.7412 0.0
C1994 C 0.1173 0.62086 0.70923 0.0
C1995 C 0.13444 0.61035 0.7303 0.0
N1996 N 0.13812 0.60078 0.77846 0.0
N1997 N 0.08886 0.65877 0.69344 0.0
C1998 C 0.1291 0.61762 0.75788 0.0
C1999 C 0.10215 0.64535 0.71426 0.0
N2000 N 0.11306 0.65252 0.78947 0.0
N2001 N 0.11462 0.60672 0.68515 0.0
H2002 H 0.07628 0.67582 0.6969 0.0
H2003 H 0.09104 0.6537 0.67277 0.0
H2004 H 0.12307 0.58719 0.68254 0.0
H2005 H 0.10128 0.61242 0.6694 0.0
H2006 H 0.12447 0.64478 0.80586 0.0
H2007 H 0.10189 0.67005 0.79451 0.0
H2008 H 0.13332 0.60358 0.79912 0.0
H2009 H 0.14789 0.58213 0.77424 0.0
C2010 C 0.36204 0.1226 0.80685 0.0
C2011 C 0.37501 0.12176 0.78089 0.0
C2012 C 0.34127 0.0891 0.7641 0.0
C2013 C 0.32486 0.09586 0.78705 0.0
N2014 N 0.32558 0.10437 0.83576 0.0
N2015 N 0.38638 0.09218 0.74291 0.0
C2016 C 0.33749 0.10735 0.81059 0.0
C2017 C 0.368 0.10053 0.7623 0.0
N2018 N 0.37234 0.1393 0.82687 0.0
N2019 N 0.33038 0.07359 0.74345 0.0
H2020 H 0.40656 0.09942 0.74281 0.0
H2021 H 0.38265 0.07606 0.72933 0.0
H2022 H 0.31101 0.06452 0.74538 0.0
H2023 H 0.34007 0.07043 0.72464 0.0
H2024 H 0.36232 0.14325 0.84535 0.0
H2025 H 0.39103 0.14955 0.82428 0.0
H2026 H 0.33433 0.11164 0.8539 0.0
H2027 H 0.30842 0.09182 0.83857 0.0
C2028 C 0.84288 0.35013 0.73439 0.0
C2029 C 0.81484 0.34237 0.7325 0.0
C2030 C 0.82683 0.29519 0.74509 0.0
C2031 C 0.85511 0.30213 0.74385 0.0
N2032 N 0.89034 0.33516 0.73246 0.0
N2033 N 0.78123 0.30588 0.72883 0.0
C2034 C 0.86327 0.32935 0.73717 0.0
C2035 C 0.80708 0.31444 0.73581 0.0
N2036 N 0.84997 0.37732 0.73449 0.0
N2037 N 0.8186 0.27076 0.7563 0.0
H2038 H 0.76641 0.31893 0.72051 0.0
H2039 H 0.77555 0.28523 0.72833 0.0
H2040 H 0.83222 0.25643 0.76459 0.0
H2041 H 0.79805 0.26611 0.76015 0.0
H2042 H 0.8698 0.38422 0.73865 0.0
H2043 H 0.83554 0.39312 0.73299 0.0
H2044 H 0.89712 0.354 0.72486 0.0
H2045 H 0.90581 0.32035 0.73355 0.0
C2046 C 0.60374 0.87265 0.78341 0.0
C2047 C 0.61247 0.87813 0.75623 0.0
C2048 C 0.57765 0.84654 0.73936 0.0
C2049 C 0.57912 0.83322 0.76521 0.0
N2050 N 0.58439 0.83816 0.81399 0.0
N2051 N 0.60008 0.87894 0.7085 0.0
C2052 C 0.58849 0.84828 0.78819 0.0
C2053 C 0.59626 0.8684 0.73418 0.0
N2054 N 0.61108 0.89 0.80413 0.0
N2055 N 0.55921 0.83782 0.72014 0.0
H2056 H 0.61272 0.896 0.7053 0.0
H2057 H 0.5911 0.87081 0.69085 0.0
H2058 H 0.54453 0.82288 0.7248 0.0
H2059 H 0.55662 0.84721 0.70108 0.0
H2060 H 0.60458 0.88763 0.82438 0.0
H2061 H 0.6216 0.90827 0.80004 0.0
H2062 H 0.59321 0.84658 0.83158 0.0
H2063 H 0.57219 0.82079 0.81728 0.0
C2064 C 0.28456 0.19792 0.30164 0.0
C2065 C 0.28514 0.18922 0.32954 0.0
C2066 C 0.26227 0.14644 0.31663 0.0
C2067 C 0.25827 0.15669 0.28958 0.0
N2068 N 0.26077 0.19504 0.25803 0.0
N2069 N 0.26824 0.15821 0.36446 0.0
C2070 C 0.26803 0.18327 0.28249 0.0
C2071 C 0.2721 0.16437 0.33731 0.0
N2072 N 0.30074 0.21921 0.293 0.0
N2073 N 0.25811 0.11924 0.32239 0.0
H2074 H 0.27393 0.17147 0.38031 0.0
H2075 H 0.25658 0.14148 0.37101 0.0
H2076 H 0.25281 0.10478 0.30747 0.0
H2077 H 0.26318 0.11046 0.34128 0.0
H2078 H 0.30304 0.22442 0.27234 0.0
H2079 H 0.31409 0.22984 0.30596 0.0
H2080 H 0.26521 0.21543 0.25317 0.0
H2081 H 0.24792 0.18547 0.2438 0.0
C2082 C 0.84623 0.30777 0.40765 0.0
C2083 C 0.86429 0.28746 0.39756 0.0
C2084 C 0.84049 0.25208 0.42333 0.0
C2085 C 0.81821 0.27057 0.42574 0.0
N2086 N 0.80682 0.31744 0.43691 0.0
N2087 N 0.88846 0.24638 0.41025 0.0
C2088 C 0.82351 0.29916 0.42383 0.0
C2089 C 0.86505 0.26172 0.41102 0.0
N2090 N 0.85005 0.3345 0.4002 0.0
N2091 N 0.83729 0.22536 0.43112 0.0
H2092 H 0.90633 0.25407 0.40117 0.0
H2093 H 0.89069 0.22767 0.42042 0.0
H2094 H 0.81956 0.21879 0.44125 0.0
H2095 H 0.85181 0.21009 0.42732 0.0
H2096 H 0.83627 0.35022 0.40473 0.0
H2097 H 0.86747 0.34049 0.38916 0.0
H2098 H 0.81005 0.33859 0.43678 0.0
H2099 H 0.79142 0.31087 0.4503 0.0
C2100 C 0.71432 0.86941 0.2798 0.0
C2101 C 0.72287 0.89525 0.29059 0.0
C2102 C 0.70935 0.88064 0.33695 0.0
C2103 C 0.70102 0.855 0.32597 0.0
N2104 N 0.68673 0.82866 0.28654 0.0
N2105 N 0.72207 0.92804 0.32763 0.0
C2106 C 0.7004 0.85078 0.29721 0.0
C2107 C 0.71813 0.90173 0.31865 0.0
N2108 N 0.72166 0.86128 0.25388 0.0
N2109 N 0.71036 0.88428 0.36478 0.0
H2110 H 0.72816 0.94385 0.31446 0.0
H2111 H 0.71686 0.9347 0.34729 0.0
H2112 H 0.70366 0.86938 0.37866 0.0
H2113 H 0.71927 0.90135 0.37413 0.0
H2114 H 0.71884 0.84129 0.24673 0.0
H2115 H 0.73294 0.87319 0.24022 0.0
H2116 H 0.68313 0.82614 0.26556 0.0
H2117 H 0.67654 0.81437 0.29883 0.0
C2118 C 0.20546 0.75426 0.36431 0.0
C2119 C 0.20862 0.72576 0.36919 0.0
C2120 C 0.16507 0.71668 0.34552 0.0
C2121 C 0.16369 0.74475 0.33785 0.0
N2122 N 0.1862 0.789 0.33461 0.0
N2123 N 0.19431 0.67911 0.36006 0.0
C2124 C 0.18478 0.7633 0.3459 0.0
C2125 C 0.18913 0.70669 0.35874 0.0
N2126 N 0.22187 0.77277 0.37766 0.0
N2127 N 0.14321 0.6997 0.34071 0.0
H2128 H 0.21224 0.67107 0.36861 0.0
H2129 H 0.1822 0.66438 0.35031 0.0
H2130 H 0.12513 0.70644 0.33131 0.0
H2131 H 0.14203 0.67971 0.3483 0.0
H2132 H 0.21854 0.79392 0.37697 0.0
H2133 H 0.23709 0.76691 0.39162 0.0
H2134 H 0.20277 0.80222 0.33764 0.0
H2135 H 0.17245 0.79602 0.31978 0.0
C2136 C 0.26808 0.86712 0.64882 0.0
C2137 C 0.28128 0.84386 0.66042 0.0
C2138 C 0.27343 0.86144 0.70672 0.0
C2139 C 0.26051 0.88511 0.69533 0.0
N2140 N 0.25167 0.91375 0.6559 0.0
N2141 N 0.30478 0.82365 0.69908 0.0
C2142 C 0.25993 0.88904 0.66641 0.0
C2143 C 0.28681 0.84275 0.68894 0.0
N2144 N 0.26193 0.86761 0.62141 0.0
N2145 N 0.27095 0.85523 0.73405 0.0
H2146 H 0.31512 0.80972 0.68647 0.0
H2147 H 0.3116 0.82364 0.7194 0.0
H2148 H 0.26011 0.86711 0.74811 0.0
H2149 H 0.27732 0.83653 0.74236 0.0
H2150 H 0.2495 0.88254 0.61239 0.0
H2151 H 0.26783 0.85205 0.60791 0.0
H2152 H 0.253 0.91876 0.63513 0.0
H2153 H 0.24594 0.93022 0.66841 0.0
C2154 C 0.14533 0.22653 0.58815 0.0
C2155 C 0.16691 0.24315 0.57809 0.0
C2156 C 0.14347 0.28448 0.59421 0.0
C2157 C 0.12696 0.26731 0.61083 0.0
N2158 N 0.10056 0.22554 0.6104 0.0
N2159 N 0.17648 0.28669 0.55669 0.0
C2160 C 0.12384 0.23935 0.60318 0.0
C2161 C 0.16254 0.27191 0.57599 0.0
N2162 N 0.146 0.19882 0.58405 0.0
N2163 N 0.14136 0.31233 0.59646 0.0
H2164 H 0.18889 0.27701 0.5421 0.0
H2165 H 0.1735 0.30761 0.55329 0.0
H2166 H 0.12541 0.32152 0.60748 0.0
H2167 H 0.15505 0.32604 0.58739 0.0
H2168 H 0.13262 0.18509 0.59354 0.0
H2169 H 0.16026 0.18981 0.57079 0.0
H2170 H 0.0964 0.20539 0.60453 0.0
H2171 H 0.08416 0.2356 0.61994 0.0
C2172 C 0.77447 0.12572 0.67818 0.0
C2173 C 0.75802 0.11345 0.69893 0.0
C2174 C 0.71659 0.13253 0.67768 0.0
C2175 C 0.73286 0.1434 0.65595 0.0
N2176 N 0.77621 0.14449 0.63206 0.0
N2177 N 0.71319 0.09922 0.7145 0.0
C2178 C 0.7615 0.13809 0.65511 0.0
C2179 C 0.72899 0.11495 0.69741 0.0
N2180 N 0.80236 0.1271 0.68125 0.0
N2181 N 0.68978 0.14035 0.68076 0.0
H2182 H 0.72153 0.08594 0.72914 0.0
H2183 H 0.69198 0.09729 0.71229 0.0
H2184 H 0.67976 0.15376 0.66746 0.0
H2185 H 0.67814 0.13556 0.69808 0.0
H2186 H 0.81504 0.13839 0.66821 0.0
H2187 H 0.81263 0.11923 0.69832 0.0
H2188 H 0.79663 0.13872 0.62925 0.0
H2189 H 0.76718 0.15306 0.61456 0.0
C2190 C 0.8286 0.80447 0.56819 0.0
C2191 C 0.81906 0.77799 0.56097 0.0
C2192 C 0.86208 0.75748 0.57596 0.0
C2193 C 0.86787 0.78228 0.58984 0.0
N2194 N 0.86702 0.83153 0.58537 0.0
N2195 N 0.83352 0.73469 0.54186 0.0
C2196 C 0.85474 0.80674 0.581 0.0
C2197 C 0.83833 0.75624 0.55911 0.0
N2198 N 0.81227 0.82681 0.56378 0.0
N2199 N 0.87819 0.73501 0.58054 0.0
H2200 H 0.81688 0.73478 0.52828 0.0
H2201 H 0.84743 0.71868 0.53889 0.0
H2202 H 0.89618 0.73641 0.59222 0.0
H2203 H 0.8734 0.71539 0.57343 0.0
H2204 H 0.81661 0.84635 0.57137 0.0
H2205 H 0.79412 0.82532 0.55239 0.0
H2206 H 0.85885 0.85014 0.57862 0.0
H2207 H 0.887 0.83288 0.59309 0.0
C2208 C 0.30932 0.20401 0.12149 0.0
C2209 C 0.28902 0.22503 0.1224 0.0
C2210 C 0.31587 0.24982 0.15685 0.0
C2211 C 0.33739 0.23027 0.15408 0.0
N2212 N 0.35673 0.19128 0.13043 0.0
N2213 N 0.27601 0.27092 0.13594 0.0
C2214 C 0.33476 0.20806 0.13541 0.0
C2215 C 0.29325 0.24886 0.13855 0.0
N2216 N 0.30387 0.17966 0.10858 0.0
N2217 N 0.31616 0.26835 0.17798 0.0
H2218 H 0.25955 0.27129 0.12217 0.0
H2219 H 0.27975 0.28984 0.14526 0.0
H2220 H 0.33156 0.26887 0.19286 0.0
H2221 H 0.29963 0.28118 0.18255 0.0
H2222 H 0.31661 0.16251 0.11001 0.0
H2223 H 0.28551 0.17575 0.0983 0.0
H2224 H 0.35693 0.17653 0.11491 0.0
H2225 H 0.37565 0.1937 0.14023 0.0
C2226 C 0.32642 0.74496 0.81453 0.0
C2227 C 0.34962 0.73323 0.82788 0.0
C2228 C 0.32784 0.7407 0.87269 0.0
C2229 C 0.30562 0.75397 0.85923 0.0
N2230 N 0.28806 0.7762 0.81846 0.0
N2231 N 0.37511 0.72504 0.86962 0.0
C2232 C 0.3063 0.75849 0.83049 0.0
C2233 C 0.35118 0.73267 0.85701 0.0
N2234 N 0.3224 0.74161 0.78688 0.0
N2235 N 0.32616 0.73462 0.90007 0.0
H2236 H 0.39269 0.71948 0.85868 0.0
H2237 H 0.37834 0.72671 0.89073 0.0
H2238 H 0.30939 0.74015 0.9122 0.0
H2239 H 0.34039 0.7223 0.91028 0.0
H2240 H 0.30427 0.74731 0.77698 0.0
H2241 H 0.33558 0.73046 0.77424 0.0
H2242 H 0.28946 0.78222 0.79793 0.0
H2243 H 0.27349 0.78725 0.82965 0.0
C2244 C 0.2352 0.40286 0.86569 0.0
C2245 C 0.2498 0.38258 0.88035 0.0
C2246 C 0.28711 0.38431 0.84723 0.0
C2247 C 0.26852 0.39718 0.82873 0.0
N2248 N 0.2287 0.4255 0.82156 0.0
N2249 N 0.2942 0.36659 0.89366 0.0
C2250 C 0.24401 0.40934 0.83865 0.0
C2251 C 0.27774 0.37821 0.87418 0.0
N2252 N 0.21272 0.4147 0.87743 0.0
N2253 N 0.3123 0.37578 0.8383 0.0
H2254 H 0.28652 0.36193 0.91318 0.0
H2255 H 0.31524 0.36357 0.89133 0.0
H2256 H 0.31987 0.38068 0.81888 0.0
H2257 H 0.3256 0.36371 0.84993 0.0
H2258 H 0.20125 0.43029 0.86829 0.0
H2259 H 0.20716 0.41009 0.89766 0.0
H2260 H 0.20924 0.43294 0.82638 0.0
H2261 H 0.23589 0.43131 0.8022 0.0
C2262 C 0.65303 0.26068 0.86705 0.0
C2263 C 0.64325 0.24133 0.84741 0.0
C2264 C 0.67488 0.20645 0.86517 0.0
C2265 C 0.68544 0.22606 0.88401 0.0
N2266 N 0.67977 0.26861 0.90845 0.0
N2267 N 0.63796 0.19402 0.83404 0.0
C2268 C 0.67288 0.25217 0.88674 0.0
C2269 C 0.65195 0.21357 0.8486 0.0
N2270 N 0.6447 0.2875 0.86602 0.0
N2271 N 0.68774 0.18168 0.86183 0.0
H2272 H 0.6206 0.19868 0.82229 0.0
H2273 H 0.64169 0.17301 0.83591 0.0
H2274 H 0.7045 0.17553 0.87364 0.0
H2275 H 0.68302 0.16798 0.84607 0.0
H2276 H 0.65417 0.3032 0.87707 0.0
H2277 H 0.62917 0.29461 0.85317 0.0
H2278 H 0.6695 0.28674 0.91333 0.0
H2279 H 0.69411 0.26264 0.92322 0.0
C2280 C 0.82805 0.61508 0.83536 0.0
C2281 C 0.80389 0.60115 0.82721 0.0
C2282 C 0.78083 0.61512 0.8692 0.0
C2283 C 0.80097 0.63584 0.87177 0.0
N2284 N 0.84951 0.64435 0.86995 0.0
N2285 N 0.76593 0.57448 0.844 0.0
C2286 C 0.82689 0.6317 0.85933 0.0
C2287 C 0.78329 0.59623 0.84713 0.0
N2288 N 0.85105 0.61339 0.8195 0.0
N2289 N 0.75879 0.61516 0.88645 0.0
H2290 H 0.76865 0.56036 0.82804 0.0
H2291 H 0.7508 0.56923 0.85817 0.0
H2292 H 0.75784 0.62868 0.90312 0.0
H2293 H 0.74187 0.60227 0.88419 0.0
H2294 H 0.86859 0.62521 0.82267 0.0
H2295 H 0.85224 0.59957 0.80311 0.0
H2296 H 0.86929 0.64178 0.86225 0.0
H2297 H 0.84836 0.65554 0.88825 0.0
C2298 C 0.69319 0.73428 0.103 0.0
C2299 C 0.69391 0.76336 0.10185 0.0
C2300 C 0.64956 0.7653 0.12554 0.0
C2301 C 0.65169 0.73683 0.1313 0.0
N2302 N 0.67742 0.69437 0.12783 0.0
N2303 N 0.67381 0.80715 0.11419 0.0
C2304 C 0.67373 0.72117 0.12026 0.0
C2305 C 0.67214 0.77912 0.11326 0.0
N2306 N 0.71108 0.71918 0.08749 0.0
N2307 N 0.62587 0.77905 0.13175 0.0
H2308 H 0.69012 0.81821 0.10591 0.0
H2309 H 0.6601 0.81937 0.12518 0.0
H2310 H 0.60886 0.76928 0.14042 0.0
H2311 H 0.6221 0.79926 0.12576 0.0
H2312 H 0.70972 0.69791 0.08541 0.0
H2313 H 0.7255 0.72821 0.07447 0.0
H2314 H 0.69501 0.68314 0.12308 0.0
H2315 H 0.66409 0.68393 0.14083 0.0
C2316 C 0.20751 0.62725 0.17122 0.0
C2317 C 0.20836 0.63387 0.19963 0.0
C2318 C 0.19721 0.68161 0.18856 0.0
C2319 C 0.20211 0.67604 0.1604 0.0
N2320 N 0.21328 0.64369 0.12453 0.0
N2321 N 0.20794 0.66894 0.23518 0.0
C2322 C 0.20727 0.6488 0.15148 0.0
C2323 C 0.20386 0.66139 0.20841 0.0
N2324 N 0.20662 0.60034 0.1632 0.0
N2325 N 0.18571 0.70605 0.19635 0.0
H2326 H 0.21391 0.65543 0.25066 0.0
H2327 H 0.20793 0.68939 0.24158 0.0
H2328 H 0.17979 0.72113 0.18229 0.0
H2329 H 0.17922 0.70997 0.21639 0.0
H2330 H 0.20359 0.59423 0.1429 0.0
H2331 H 0.20601 0.58416 0.17729 0.0
H2332 H 0.22018 0.62469 0.11747 0.0
H2333 H 0.21345 0.65899 0.10951 0.0
C2334 C 0.71655 0.42398 0.14618 0.0
C2335 C 0.74205 0.42707 0.15986 0.0
C2336 C 0.76471 0.40526 0.12117 0.0
C2337 C 0.73954 0.39184 0.11572 0.0
N2338 N 0.69048 0.39601 0.11383 0.0
N2339 N 0.79101 0.43032 0.15557 0.0
C2340 C 0.71493 0.40437 0.12464 0.0
C2341 C 0.76648 0.42164 0.1452 0.0
N2342 N 0.69438 0.43895 0.15442 0.0
N2343 N 0.78663 0.40097 0.10433 0.0
H2344 H 0.79186 0.44303 0.17287 0.0
H2345 H 0.80997 0.42469 0.14742 0.0
H2346 H 0.78466 0.38922 0.08645 0.0
H2347 H 0.80546 0.41086 0.10671 0.0
H2348 H 0.67529 0.43811 0.14479 0.0
H2349 H 0.69627 0.4543 0.16931 0.0
H2350 H 0.67143 0.40217 0.12138 0.0
H2351 H 0.68979 0.38248 0.09717 0.0
loop_
_geom_bond_atom_site_label_1
_geom_bond_atom_site_label_2
_geom_bond_distance
_geom_bond_site_symmetry_2
_ccdc_geom_bond_type
In0 O1 2.294 . S
In0 O2 2.326 . S
In0 O6 2.266 . S
In0 O7 2.326 . S
In0 O8 2.266 . S
In0 O9 2.326 . S
In0 O11 2.294 . S
In0 O12 2.326 . S
O1 In0 2.294 . S
O1 C10 1.240 . S
O2 In0 2.326 . S
O2 C10 1.252 . S
C3 O6 1.252 . S
C3 O7 1.260 . S
C4 O11 1.240 . S
C4 O12 1.252 . S
C5 O8 1.252 . S
C5 O9 1.260 . S
O6 In0 2.266 . S
O6 C3 1.252 . S
O7 In0 2.326 . S
O7 C3 1.260 . S
O8 In0 2.266 . S
O8 C5 1.252 . S
O9 In0 2.326 . S
O9 C5 1.260 . S
C10 O1 1.240 . S
C10 O2 1.252 . S
O11 In0 2.294 . S
O11 C4 1.240 . S
O12 In0 2.326 . S
O12 C4 1.252 . S
In13 O14 2.294 . S
In13 O15 2.326 . S
In13 O19 2.266 . S
In13 O20 2.326 . S
In13 O21 2.266 . S
In13 O22 2.326 . S
In13 O24 2.294 . S
In13 O25 2.326 . S
O14 In13 2.294 . S
O14 C23 1.240 . S
O15 In13 2.326 . S
O15 C23 1.252 . S
C16 O19 1.252 . S
C16 O20 1.260 . S
C17 O24 1.240 . S
C17 O25 1.252 . S
C18 O21 1.252 . S
C18 O22 1.260 . S
O19 In13 2.266 . S
O19 C16 1.252 . S
O20 In13 2.326 . S
O20 C16 1.260 . S
O21 In13 2.266 . S
O21 C18 1.252 . S
O22 In13 2.326 . S
O22 C18 1.260 . S
C23 O14 1.240 . S
C23 O15 1.252 . S
O24 In13 2.294 . S
O24 C17 1.240 . S
O25 In13 2.326 . S
O25 C17 1.252 . S
In26 O27 2.294 . S
In26 O28 2.326 . S
In26 O32 2.266 . S
In26 O33 2.326 . S
In26 O34 2.266 . S
In26 O35 2.326 . S
In26 O37 2.294 . S
In26 O38 2.326 . S
O27 In26 2.294 . S
O27 C36 1.240 . S
O28 In26 2.326 . S
O28 C36 1.252 . S
C29 O32 1.252 . S
C29 O33 1.260 . S
C30 O37 1.240 . S
C30 O38 1.252 . S
C31 O34 1.252 . S
C31 O35 1.260 . S
O32 In26 2.266 . S
O32 C29 1.252 . S
O33 In26 2.326 . S
O33 C29 1.260 . S
O34 In26 2.266 . S
O34 C31 1.252 . S
O35 In26 2.326 . S
O35 C31 1.260 . S
C36 O27 1.240 . S
C36 O28 1.252 . S
O37 In26 2.294 . S
O37 C30 1.240 . S
O38 In26 2.326 . S
O38 C30 1.252 . S
In39 O40 2.294 . S
In39 O41 2.326 . S
In39 O45 2.266 . S
In39 O46 2.326 . S
In39 O47 2.266 . S
In39 O48 2.326 . S
In39 O50 2.294 . S
In39 O51 2.326 . S
O40 In39 2.294 . S
O40 C49 1.240 . S
O41 In39 2.326 . S
O41 C49 1.252 . S
C42 O45 1.252 . S
C42 O46 1.260 . S
C43 O50 1.240 . S
C43 O51 1.252 . S
C44 O47 1.252 . S
C44 O48 1.260 . S
O45 In39 2.266 . S
O45 C42 1.252 . S
O46 In39 2.326 . S
O46 C42 1.260 . S
O47 In39 2.266 . S
O47 C44 1.252 . S
O48 In39 2.326 . S
O48 C44 1.260 . S
C49 O40 1.240 . S
C49 O41 1.252 . S
O50 In39 2.294 . S
O50 C43 1.240 . S
O51 In39 2.326 . S
O51 C43 1.252 . S
In52 O53 2.294 . S
In52 O54 2.326 . S
In52 O58 2.266 . S
In52 O59 2.326 . S
In52 O60 2.266 . S
In52 O61 2.326 . S
In52 O63 2.294 . S
In52 O64 2.326 . S
O53 In52 2.294 . S
O53 C62 1.240 . S
O54 In52 2.326 . S
O54 C62 1.252 . S
C55 O58 1.252 . S
C55 O59 1.260 . S
C56 O63 1.240 . S
C56 O64 1.252 . S
C57 O60 1.252 . S
C57 O61 1.260 . S
O58 In52 2.266 . S
O58 C55 1.252 . S
O59 In52 2.326 . S
O59 C55 1.260 . S
O60 In52 2.266 . S
O60 C57 1.252 . S
O61 In52 2.326 . S
O61 C57 1.260 . S
C62 O53 1.240 . S
C62 O54 1.252 . S
O63 In52 2.294 . S
O63 C56 1.240 . S
O64 In52 2.326 . S
O64 C56 1.252 . S
In65 O66 2.294 . S
In65 O67 2.326 . S
In65 O71 2.266 . S
In65 O72 2.326 . S
In65 O73 2.266 . S
In65 O74 2.326 . S
In65 O76 2.294 . S
In65 O77 2.326 . S
O66 In65 2.294 . S
O66 C75 1.240 . S
O67 In65 2.326 . S
O67 C75 1.252 . S
C68 O71 1.252 . S
C68 O72 1.260 . S
C69 O76 1.240 . S
C69 O77 1.252 . S
C70 O73 1.252 . S
C70 O74 1.260 . S
O71 In65 2.266 . S
O71 C68 1.252 . S
O72 In65 2.326 . S
O72 C68 1.260 . S
O73 In65 2.266 . S
O73 C70 1.252 . S
O74 In65 2.326 . S
O74 C70 1.260 . S
C75 O66 1.240 . S
C75 O67 1.252 . S
O76 In65 2.294 . S
O76 C69 1.240 . S
O77 In65 2.326 . S
O77 C69 1.252 . S
In78 O79 2.294 . S
In78 O80 2.326 . S
In78 O84 2.266 . S
In78 O85 2.326 . S
In78 O86 2.266 . S
In78 O87 2.326 . S
In78 O89 2.294 . S
In78 O90 2.326 . S
O79 In78 2.294 . S
O79 C88 1.240 . S
O80 In78 2.326 . S
O80 C88 1.252 . S
C81 O84 1.252 . S
C81 O85 1.260 . S
C82 O89 1.240 . S
C82 O90 1.252 . S
C83 O86 1.252 . S
C83 O87 1.260 . S
O84 In78 2.266 . S
O84 C81 1.252 . S
O85 In78 2.326 . S
O85 C81 1.260 . S
O86 In78 2.266 . S
O86 C83 1.252 . S
O87 In78 2.326 . S
O87 C83 1.260 . S
C88 O79 1.240 . S
C88 O80 1.252 . S
O89 In78 2.294 . S
O89 C82 1.240 . S
O90 In78 2.326 . S
O90 C82 1.252 . S
In91 O92 2.294 . S
In91 O93 2.326 . S
In91 O97 2.266 . S
In91 O98 2.326 . S
In91 O99 2.266 . S
In91 O100 2.326 . S
In91 O102 2.294 . S
In91 O103 2.326 . S
O92 In91 2.294 . S
O92 C101 1.240 . S
O93 In91 2.326 . S
O93 C101 1.252 . S
C94 O97 1.252 . S
C94 O98 1.260 . S
C95 O102 1.240 . S
C95 O103 1.252 . S
C96 O99 1.252 . S
C96 O100 1.260 . S
O97 In91 2.266 . S
O97 C94 1.252 . S
O98 In91 2.326 . S
O98 C94 1.260 . S
O99 In91 2.266 . S
O99 C96 1.252 . S
O100 In91 2.326 . S
O100 C96 1.260 . S
C101 O92 1.240 . S
C101 O93 1.252 . S
O102 In91 2.294 . S
O102 C95 1.240 . S
O103 In91 2.326 . S
O103 C95 1.252 . S
In104 O105 2.294 . S
In104 O106 2.326 . S
In104 O110 2.266 . S
In104 O111 2.326 . S
In104 O112 2.266 . S
In104 O113 2.326 . S
In104 O115 2.294 . S
In104 O116 2.326 . S
O105 In104 2.294 . S
O105 C114 1.240 . S
O106 In104 2.326 . S
O106 C114 1.252 . S
C107 O110 1.252 . S
C107 O111 1.260 . S
C108 O115 1.240 . S
C108 O116 1.252 . S
C109 O112 1.252 . S
C109 O113 1.260 . S
O110 In104 2.266 . S
O110 C107 1.252 . S
O111 In104 2.326 . S
O111 C107 1.260 . S
O112 In104 2.266 . S
O112 C109 1.252 . S
O113 In104 2.326 . S
O113 C109 1.260 . S
C114 O105 1.240 . S
C114 O106 1.252 . S
O115 In104 2.294 . S
O115 C108 1.240 . S
O116 In104 2.326 . S
O116 C108 1.252 . S
In117 O118 2.294 . S
In117 O119 2.326 . S
In117 O123 2.266 . S
In117 O124 2.326 . S
In117 O125 2.266 . S
In117 O126 2.326 . S
In117 O128 2.294 . S
In117 O129 2.326 . S
O118 In117 2.294 . S
O118 C127 1.240 . S
O119 In117 2.326 . S
O119 C127 1.252 . S
C120 O123 1.252 . S
C120 O124 1.260 . S
C121 O128 1.240 . S
C121 O129 1.252 . S
C122 O125 1.252 . S
C122 O126 1.260 . S
O123 In117 2.266 . S
O123 C120 1.252 . S
O124 In117 2.326 . S
O124 C120 1.260 . S
O125 In117 2.266 . S
O125 C122 1.252 . S
O126 In117 2.326 . S
O126 C122 1.260 . S
C127 O118 1.240 . S
C127 O119 1.252 . S
O128 In117 2.294 . S
O128 C121 1.240 . S
O129 In117 2.326 . S
O129 C121 1.252 . S
In130 O131 2.294 . S
In130 O132 2.326 . S
In130 O136 2.266 . S
In130 O137 2.326 . S
In130 O138 2.266 . S
In130 O139 2.326 . S
In130 O141 2.294 . S
In130 O142 2.326 . S
O131 In130 2.294 . S
O131 C140 1.240 . S
O132 In130 2.326 . S
O132 C140 1.252 . S
C133 O136 1.252 . S
C133 O137 1.260 . S
C134 O141 1.240 . S
C134 O142 1.252 . S
C135 O138 1.252 . S
C135 O139 1.260 . S
O136 In130 2.266 . S
O136 C133 1.252 . S
O137 In130 2.326 . S
O137 C133 1.260 . S
O138 In130 2.266 . S
O138 C135 1.252 . S
O139 In130 2.326 . S
O139 C135 1.260 . S
C140 O131 1.240 . S
C140 O132 1.252 . S
O141 In130 2.294 . S
O141 C134 1.240 . S
O142 In130 2.326 . S
O142 C134 1.252 . S
In143 O144 2.294 . S
In143 O145 2.326 . S
In143 O149 2.266 . S
In143 O150 2.326 . S
In143 O151 2.266 . S
In143 O152 2.326 . S
In143 O154 2.294 . S
In143 O155 2.326 . S
O144 In143 2.294 . S
O144 C153 1.240 . S
O145 In143 2.326 . S
O145 C153 1.252 . S
C146 O149 1.252 . S
C146 O150 1.260 . S
C147 O154 1.240 . S
C147 O155 1.252 . S
C148 O151 1.252 . S
C148 O152 1.260 . S
O149 In143 2.266 . S
O149 C146 1.252 . S
O150 In143 2.326 . S
O150 C146 1.260 . S
O151 In143 2.266 . S
O151 C148 1.252 . S
O152 In143 2.326 . S
O152 C148 1.260 . S
C153 O144 1.240 . S
C153 O145 1.252 . S
O154 In143 2.294 . S
O154 C147 1.240 . S
O155 In143 2.326 . S
O155 C147 1.252 . S
In156 O157 2.294 . S
In156 O158 2.326 . S
In156 O162 2.266 . S
In156 O163 2.326 . S
In156 O164 2.266 . S
In156 O165 2.326 . S
In156 O167 2.294 . S
In156 O168 2.326 . S
O157 In156 2.294 . S
O157 C166 1.240 . S
O158 In156 2.326 . S
O158 C166 1.252 . S
C159 O162 1.252 . S
C159 O163 1.260 . S
C160 O167 1.240 . S
C160 O168 1.252 . S
C161 O164 1.252 . S
C161 O165 1.260 . S
O162 In156 2.266 . S
O162 C159 1.252 . S
O163 In156 2.326 . S
O163 C159 1.260 . S
O164 In156 2.266 . S
O164 C161 1.252 . S
O165 In156 2.326 . S
O165 C161 1.260 . S
C166 O157 1.240 . S
C166 O158 1.252 . S
O167 In156 2.294 . S
O167 C160 1.240 . S
O168 In156 2.326 . S
O168 C160 1.252 . S
In169 O170 2.294 . S
In169 O171 2.326 . S
In169 O175 2.266 . S
In169 O176 2.326 . S
In169 O177 2.266 . S
In169 O178 2.326 . S
In169 O180 2.294 . S
In169 O181 2.326 . S
O170 In169 2.294 . S
O170 C179 1.240 . S
O171 In169 2.326 . S
O171 C179 1.252 . S
C172 O175 1.252 . S
C172 O176 1.260 . S
C173 O180 1.240 . S
C173 O181 1.252 . S
C174 O177 1.252 . S
C174 O178 1.260 . S
O175 In169 2.266 . S
O175 C172 1.252 . S
O176 In169 2.326 . S
O176 C172 1.260 . S
O177 In169 2.266 . S
O177 C174 1.252 . S
O178 In169 2.326 . S
O178 C174 1.260 . S
C179 O170 1.240 . S
C179 O171 1.252 . S
O180 In169 2.294 . S
O180 C173 1.240 . S
O181 In169 2.326 . S
O181 C173 1.252 . S
In182 O183 2.294 . S
In182 O184 2.326 . S
In182 O188 2.266 . S
In182 O189 2.326 . S
In182 O190 2.266 . S
In182 O191 2.326 . S
In182 O193 2.294 . S
In182 O194 2.326 . S
O183 In182 2.294 . S
O183 C192 1.240 . S
O184 In182 2.326 . S
O184 C192 1.252 . S
C185 O188 1.252 . S
C185 O189 1.260 . S
C186 O193 1.240 . S
C186 O194 1.252 . S
C187 O190 1.252 . S
C187 O191 1.260 . S
O188 In182 2.266 . S
O188 C185 1.252 . S
O189 In182 2.326 . S
O189 C185 1.260 . S
O190 In182 2.266 . S
O190 C187 1.252 . S
O191 In182 2.326 . S
O191 C187 1.260 . S
C192 O183 1.240 . S
C192 O184 1.252 . S
O193 In182 2.294 . S
O193 C186 1.240 . S
O194 In182 2.326 . S
O194 C186 1.252 . S
In195 O196 2.294 . S
In195 O197 2.326 . S
In195 O201 2.266 . S
In195 O202 2.326 . S
In195 O203 2.266 . S
In195 O204 2.326 . S
In195 O206 2.294 . S
In195 O207 2.326 . S
O196 In195 2.294 . S
O196 C205 1.240 . S
O197 In195 2.326 . S
O197 C205 1.252 . S
C198 O201 1.252 . S
C198 O202 1.260 . S
C199 O206 1.240 . S
C199 O207 1.252 . S
C200 O203 1.252 . S
C200 O204 1.260 . S
O201 In195 2.266 . S
O201 C198 1.252 . S
O202 In195 2.326 . S
O202 C198 1.260 . S
O203 In195 2.266 . S
O203 C200 1.252 . S
O204 In195 2.326 . S
O204 C200 1.260 . S
C205 O196 1.240 . S
C205 O197 1.252 . S
O206 In195 2.294 . S
O206 C199 1.240 . S
O207 In195 2.326 . S
O207 C199 1.252 . S
In208 O209 2.294 . S
In208 O210 2.326 . S
In208 O214 2.266 . S
In208 O215 2.326 . S
In208 O216 2.266 . S
In208 O217 2.326 . S
In208 O219 2.294 . S
In208 O220 2.326 . S
O209 In208 2.294 . S
O209 C218 1.240 . S
O210 In208 2.326 . S
O210 C218 1.252 . S
C211 O214 1.252 . S
C211 O215 1.260 . S
C212 O219 1.240 . S
C212 O220 1.252 . S
C213 O216 1.252 . S
C213 O217 1.260 . S
O214 In208 2.266 . S
O214 C211 1.252 . S
O215 In208 2.326 . S
O215 C211 1.260 . S
O216 In208 2.266 . S
O216 C213 1.252 . S
O217 In208 2.326 . S
O217 C213 1.260 . S
C218 O209 1.240 . S
C218 O210 1.252 . S
O219 In208 2.294 . S
O219 C212 1.240 . S
O220 In208 2.326 . S
O220 C212 1.252 . S
In221 O222 2.294 . S
In221 O223 2.326 . S
In221 O227 2.266 . S
In221 O228 2.326 . S
In221 O229 2.266 . S
In221 O230 2.326 . S
In221 O232 2.294 . S
In221 O233 2.326 . S
O222 In221 2.294 . S
O222 C231 1.240 . S
O223 In221 2.326 . S
O223 C231 1.252 . S
C224 O227 1.252 . S
C224 O228 1.260 . S
C225 O232 1.240 . S
C225 O233 1.252 . S
C226 O229 1.252 . S
C226 O230 1.260 . S
O227 In221 2.266 . S
O227 C224 1.252 . S
O228 In221 2.326 . S
O228 C224 1.260 . S
O229 In221 2.266 . S
O229 C226 1.252 . S
O230 In221 2.326 . S
O230 C226 1.260 . S
C231 O222 1.240 . S
C231 O223 1.252 . S
O232 In221 2.294 . S
O232 C225 1.240 . S
O233 In221 2.326 . S
O233 C225 1.252 . S
In234 O235 2.294 . S
In234 O236 2.326 . S
In234 O240 2.266 . S
In234 O241 2.326 . S
In234 O242 2.266 . S
In234 O243 2.326 . S
In234 O245 2.294 . S
In234 O246 2.326 . S
O235 In234 2.294 . S
O235 C244 1.240 . S
O236 In234 2.326 . S
O236 C244 1.252 . S
C237 O240 1.252 . S
C237 O241 1.260 . S
C238 O245 1.240 . S
C238 O246 1.252 . S
C239 O242 1.252 . S
C239 O243 1.260 . S
O240 In234 2.266 . S
O240 C237 1.252 . S
O241 In234 2.326 . S
O241 C237 1.260 . S
O242 In234 2.266 . S
O242 C239 1.252 . S
O243 In234 2.326 . S
O243 C239 1.260 . S
C244 O235 1.240 . S
C244 O236 1.252 . S
O245 In234 2.294 . S
O245 C238 1.240 . S
O246 In234 2.326 . S
O246 C238 1.252 . S
In247 O248 2.294 . S
In247 O249 2.326 . S
In247 O253 2.266 . S
In247 O254 2.326 . S
In247 O255 2.266 . S
In247 O256 2.326 . S
In247 O258 2.294 . S
In247 O259 2.326 . S
O248 In247 2.294 . S
O248 C257 1.240 . S
O249 In247 2.326 . S
O249 C257 1.252 . S
C250 O253 1.252 . S
C250 O254 1.260 . S
C251 O258 1.240 . S
C251 O259 1.252 . S
C252 O255 1.252 . S
C252 O256 1.260 . S
O253 In247 2.266 . S
O253 C250 1.252 . S
O254 In247 2.326 . S
O254 C250 1.260 . S
O255 In247 2.266 . S
O255 C252 1.252 . S
O256 In247 2.326 . S
O256 C252 1.260 . S
C257 O248 1.240 . S
C257 O249 1.252 . S
O258 In247 2.294 . S
O258 C251 1.240 . S
O259 In247 2.326 . S
O259 C251 1.252 . S
In260 O261 2.294 . S
In260 O262 2.326 . S
In260 O266 2.266 . S
In260 O267 2.326 . S
In260 O268 2.266 . S
In260 O269 2.326 . S
In260 O271 2.294 . S
In260 O272 2.326 . S
O261 In260 2.294 . S
O261 C270 1.240 . S
O262 In260 2.326 . S
O262 C270 1.252 . S
C263 O266 1.252 . S
C263 O267 1.260 . S
C264 O271 1.240 . S
C264 O272 1.252 . S
C265 O268 1.252 . S
C265 O269 1.260 . S
O266 In260 2.266 . S
O266 C263 1.252 . S
O267 In260 2.326 . S
O267 C263 1.260 . S
O268 In260 2.266 . S
O268 C265 1.252 . S
O269 In260 2.326 . S
O269 C265 1.260 . S
C270 O261 1.240 . S
C270 O262 1.252 . S
O271 In260 2.294 . S
O271 C264 1.240 . S
O272 In260 2.326 . S
O272 C264 1.252 . S
In273 O274 2.294 . S
In273 O275 2.326 . S
In273 O279 2.266 . S
In273 O280 2.326 . S
In273 O281 2.266 . S
In273 O282 2.326 . S
In273 O284 2.294 . S
In273 O285 2.326 . S
O274 In273 2.294 . S
O274 C283 1.240 . S
O275 In273 2.326 . S
O275 C283 1.252 . S
C276 O279 1.252 . S
C276 O280 1.260 . S
C277 O284 1.240 . S
C277 O285 1.252 . S
C278 O281 1.252 . S
C278 O282 1.260 . S
O279 In273 2.266 . S
O279 C276 1.252 . S
O280 In273 2.326 . S
O280 C276 1.260 . S
O281 In273 2.266 . S
O281 C278 1.252 . S
O282 In273 2.326 . S
O282 C278 1.260 . S
C283 O274 1.240 . S
C283 O275 1.252 . S
O284 In273 2.294 . S
O284 C277 1.240 . S
O285 In273 2.326 . S
O285 C277 1.252 . S
In286 O287 2.294 . S
In286 O288 2.326 . S
In286 O292 2.266 . S
In286 O293 2.326 . S
In286 O294 2.266 . S
In286 O295 2.326 . S
In286 O297 2.294 . S
In286 O298 2.326 . S
O287 In286 2.294 . S
O287 C296 1.240 . S
O288 In286 2.326 . S
O288 C296 1.252 . S
C289 O292 1.252 . S
C289 O293 1.260 . S
C290 O297 1.240 . S
C290 O298 1.252 . S
C291 O294 1.252 . S
C291 O295 1.260 . S
O292 In286 2.266 . S
O292 C289 1.252 . S
O293 In286 2.326 . S
O293 C289 1.260 . S
O294 In286 2.266 . S
O294 C291 1.252 . S
O295 In286 2.326 . S
O295 C291 1.260 . S
C296 O287 1.240 . S
C296 O288 1.252 . S
O297 In286 2.294 . S
O297 C290 1.240 . S
O298 In286 2.326 . S
O298 C290 1.252 . S
In299 O300 2.294 . S
In299 O301 2.326 . S
In299 O305 2.266 . S
In299 O306 2.326 . S
In299 O307 2.266 . S
In299 O308 2.326 . S
In299 O310 2.294 . S
In299 O311 2.326 . S
O300 In299 2.294 . S
O300 C309 1.240 . S
O301 In299 2.326 . S
O301 C309 1.252 . S
C302 O305 1.252 . S
C302 O306 1.260 . S
C303 O310 1.240 . S
C303 O311 1.252 . S
C304 O307 1.252 . S
C304 O308 1.260 . S
O305 In299 2.266 . S
O305 C302 1.252 . S
O306 In299 2.326 . S
O306 C302 1.260 . S
O307 In299 2.266 . S
O307 C304 1.252 . S
O308 In299 2.326 . S
O308 C304 1.260 . S
C309 O300 1.240 . S
C309 O301 1.252 . S
O310 In299 2.294 . S
O310 C303 1.240 . S
O311 In299 2.326 . S
O311 C303 1.252 . S
In312 O313 2.294 . S
In312 O314 2.326 . S
In312 O318 2.266 . S
In312 O319 2.326 . S
In312 O320 2.266 . S
In312 O321 2.326 . S
In312 O323 2.294 . S
In312 O324 2.326 . S
O313 In312 2.294 . S
O313 C322 1.240 . S
O314 In312 2.326 . S
O314 C322 1.252 . S
C315 O318 1.252 . S
C315 O319 1.260 . S
C316 O323 1.240 . S
C316 O324 1.252 . S
C317 O320 1.252 . S
C317 O321 1.260 . S
O318 In312 2.266 . S
O318 C315 1.252 . S
O319 In312 2.326 . S
O319 C315 1.260 . S
O320 In312 2.266 . S
O320 C317 1.252 . S
O321 In312 2.326 . S
O321 C317 1.260 . S
C322 O313 1.240 . S
C322 O314 1.252 . S
O323 In312 2.294 . S
O323 C316 1.240 . S
O324 In312 2.326 . S
O324 C316 1.252 . S
In325 O326 2.294 . S
In325 O327 2.326 . S
In325 O331 2.266 . S
In325 O332 2.326 . S
In325 O333 2.266 . S
In325 O334 2.326 . S
In325 O336 2.294 . S
In325 O337 2.326 . S
O326 In325 2.294 . S
O326 C335 1.240 . S
O327 In325 2.326 . S
O327 C335 1.252 . S
C328 O331 1.252 . S
C328 O332 1.260 . S
C329 O336 1.240 . S
C329 O337 1.252 . S
C330 O333 1.252 . S
C330 O334 1.260 . S
O331 In325 2.266 . S
O331 C328 1.252 . S
O332 In325 2.326 . S
O332 C328 1.260 . S
O333 In325 2.266 . S
O333 C330 1.252 . S
O334 In325 2.326 . S
O334 C330 1.260 . S
C335 O326 1.240 . S
C335 O327 1.252 . S
O336 In325 2.294 . S
O336 C329 1.240 . S
O337 In325 2.326 . S
O337 C329 1.252 . S
In338 O339 2.294 . S
In338 O340 2.326 . S
In338 O344 2.266 . S
In338 O345 2.326 . S
In338 O346 2.266 . S
In338 O347 2.326 . S
In338 O349 2.294 . S
In338 O350 2.326 . S
O339 In338 2.294 . S
O339 C348 1.240 . S
O340 In338 2.326 . S
O340 C348 1.252 . S
C341 O344 1.252 . S
C341 O345 1.260 . S
C342 O349 1.240 . S
C342 O350 1.252 . S
C343 O346 1.252 . S
C343 O347 1.260 . S
O344 In338 2.266 . S
O344 C341 1.252 . S
O345 In338 2.326 . S
O345 C341 1.260 . S
O346 In338 2.266 . S
O346 C343 1.252 . S
O347 In338 2.326 . S
O347 C343 1.260 . S
C348 O339 1.240 . S
C348 O340 1.252 . S
O349 In338 2.294 . S
O349 C342 1.240 . S
O350 In338 2.326 . S
O350 C342 1.252 . S
In351 O352 2.294 . S
In351 O353 2.326 . S
In351 O357 2.266 . S
In351 O358 2.326 . S
In351 O359 2.266 . S
In351 O360 2.326 . S
In351 O362 2.294 . S
In351 O363 2.326 . S
O352 In351 2.294 . S
O352 C361 1.240 . S
O353 In351 2.326 . S
O353 C361 1.252 . S
C354 O357 1.252 . S
C354 O358 1.260 . S
C355 O362 1.240 . S
C355 O363 1.252 . S
C356 O359 1.252 . S
C356 O360 1.260 . S
O357 In351 2.266 . S
O357 C354 1.252 . S
O358 In351 2.326 . S
O358 C354 1.260 . S
O359 In351 2.266 . S
O359 C356 1.252 . S
O360 In351 2.326 . S
O360 C356 1.260 . S
C361 O352 1.240 . S
C361 O353 1.252 . S
O362 In351 2.294 . S
O362 C355 1.240 . S
O363 In351 2.326 . S
O363 C355 1.252 . S
In364 O365 2.294 . S
In364 O366 2.326 . S
In364 O370 2.266 . S
In364 O371 2.326 . S
In364 O372 2.266 . S
In364 O373 2.326 . S
In364 O375 2.294 . S
In364 O376 2.326 . S
O365 In364 2.294 . S
O365 C374 1.240 . S
O366 In364 2.326 . S
O366 C374 1.252 . S
C367 O370 1.252 . S
C367 O371 1.260 . S
C368 O375 1.240 . S
C368 O376 1.252 . S
C369 O372 1.252 . S
C369 O373 1.260 . S
O370 In364 2.266 . S
O370 C367 1.252 . S
O371 In364 2.326 . S
O371 C367 1.260 . S
O372 In364 2.266 . S
O372 C369 1.252 . S
O373 In364 2.326 . S
O373 C369 1.260 . S
C374 O365 1.240 . S
C374 O366 1.252 . S
O375 In364 2.294 . S
O375 C368 1.240 . S
O376 In364 2.326 . S
O376 C368 1.252 . S
In377 O378 2.294 . S
In377 O379 2.326 . S
In377 O383 2.266 . S
In377 O384 2.326 . S
In377 O385 2.266 . S
In377 O386 2.326 . S
In377 O388 2.294 . S
In377 O389 2.326 . S
O378 In377 2.294 . S
O378 C387 1.240 . S
O379 In377 2.326 . S
O379 C387 1.252 . S
C380 O383 1.252 . S
C380 O384 1.260 . S
C381 O388 1.240 . S
C381 O389 1.252 . S
C382 O385 1.252 . S
C382 O386 1.260 . S
O383 In377 2.266 . S
O383 C380 1.252 . S
O384 In377 2.326 . S
O384 C380 1.260 . S
O385 In377 2.266 . S
O385 C382 1.252 . S
O386 In377 2.326 . S
O386 C382 1.260 . S
C387 O378 1.240 . S
C387 O379 1.252 . S
O388 In377 2.294 . S
O388 C381 1.240 . S
O389 In377 2.326 . S
O389 C381 1.252 . S
In390 O391 2.294 . S
In390 O392 2.326 . S
In390 O396 2.266 . S
In390 O397 2.326 . S
In390 O398 2.266 . S
In390 O399 2.326 . S
In390 O401 2.294 . S
In390 O402 2.326 . S
O391 In390 2.294 . S
O391 C400 1.240 . S
O392 In390 2.326 . S
O392 C400 1.252 . S
C393 O396 1.252 . S
C393 O397 1.260 . S
C394 O401 1.240 . S
C394 O402 1.252 . S
C395 O398 1.252 . S
C395 O399 1.260 . S
O396 In390 2.266 . S
O396 C393 1.252 . S
O397 In390 2.326 . S
O397 C393 1.260 . S
O398 In390 2.266 . S
O398 C395 1.252 . S
O399 In390 2.326 . S
O399 C395 1.260 . S
C400 O391 1.240 . S
C400 O392 1.252 . S
O401 In390 2.294 . S
O401 C394 1.240 . S
O402 In390 2.326 . S
O402 C394 1.252 . S
In403 O404 2.294 . S
In403 O405 2.326 . S
In403 O409 2.266 . S
In403 O410 2.326 . S
In403 O411 2.266 . S
In403 O412 2.326 . S
In403 O414 2.294 . S
In403 O415 2.326 . S
O404 In403 2.294 . S
O404 C413 1.240 . S
O405 In403 2.326 . S
O405 C413 1.252 . S
C406 O409 1.252 . S
C406 O410 1.260 . S
C407 O414 1.240 . S
C407 O415 1.252 . S
C408 O411 1.252 . S
C408 O412 1.260 . S
O409 In403 2.266 . S
O409 C406 1.252 . S
O410 In403 2.326 . S
O410 C406 1.260 . S
O411 In403 2.266 . S
O411 C408 1.252 . S
O412 In403 2.326 . S
O412 C408 1.260 . S
C413 O404 1.240 . S
C413 O405 1.252 . S
O414 In403 2.294 . S
O414 C407 1.240 . S
O415 In403 2.326 . S
O415 C407 1.252 . S
In416 O417 2.294 . S
In416 O418 2.326 . S
In416 O422 2.266 . S
In416 O423 2.326 . S
In416 O424 2.266 . S
In416 O425 2.326 . S
In416 O427 2.294 . S
In416 O428 2.326 . S
O417 In416 2.294 . S
O417 C426 1.240 . S
O418 In416 2.326 . S
O418 C426 1.252 . S
C419 O422 1.252 . S
C419 O423 1.260 . S
C420 O427 1.240 . S
C420 O428 1.252 . S
C421 O424 1.252 . S
C421 O425 1.260 . S
O422 In416 2.266 . S
O422 C419 1.252 . S
O423 In416 2.326 . S
O423 C419 1.260 . S
O424 In416 2.266 . S
O424 C421 1.252 . S
O425 In416 2.326 . S
O425 C421 1.260 . S
C426 O417 1.240 . S
C426 O418 1.252 . S
O427 In416 2.294 . S
O427 C420 1.240 . S
O428 In416 2.326 . S
O428 C420 1.252 . S
In429 O430 2.294 . S
In429 O431 2.326 . S
In429 O435 2.266 . S
In429 O436 2.326 . S
In429 O437 2.266 . S
In429 O438 2.326 . S
In429 O440 2.294 . S
In429 O441 2.326 . S
O430 In429 2.294 . S
O430 C439 1.240 . S
O431 In429 2.326 . S
O431 C439 1.252 . S
C432 O435 1.252 . S
C432 O436 1.260 . S
C433 O440 1.240 . S
C433 O441 1.252 . S
C434 O437 1.252 . S
C434 O438 1.260 . S
O435 In429 2.266 . S
O435 C432 1.252 . S
O436 In429 2.326 . S
O436 C432 1.260 . S
O437 In429 2.266 . S
O437 C434 1.252 . S
O438 In429 2.326 . S
O438 C434 1.260 . S
C439 O430 1.240 . S
C439 O431 1.252 . S
O440 In429 2.294 . S
O440 C433 1.240 . S
O441 In429 2.326 . S
O441 C433 1.252 . S
In442 O443 2.294 . S
In442 O444 2.326 . S
In442 O448 2.266 . S
In442 O449 2.326 . S
In442 O450 2.266 . S
In442 O451 2.326 . S
In442 O453 2.294 . S
In442 O454 2.326 . S
O443 In442 2.294 . S
O443 C452 1.240 . S
O444 In442 2.326 . S
O444 C452 1.252 . S
C445 O448 1.252 . S
C445 O449 1.260 . S
C446 O453 1.240 . S
C446 O454 1.252 . S
C447 O450 1.252 . S
C447 O451 1.260 . S
O448 In442 2.266 . S
O448 C445 1.252 . S
O449 In442 2.326 . S
O449 C445 1.260 . S
O450 In442 2.266 . S
O450 C447 1.252 . S
O451 In442 2.326 . S
O451 C447 1.260 . S
C452 O443 1.240 . S
C452 O444 1.252 . S
O453 In442 2.294 . S
O453 C446 1.240 . S
O454 In442 2.326 . S
O454 C446 1.252 . S
In455 O456 2.294 . S
In455 O457 2.326 . S
In455 O461 2.266 . S
In455 O462 2.326 . S
In455 O463 2.266 . S
In455 O464 2.326 . S
In455 O466 2.294 . S
In455 O467 2.326 . S
O456 In455 2.294 . S
O456 C465 1.240 . S
O457 In455 2.326 . S
O457 C465 1.252 . S
C458 O461 1.252 . S
C458 O462 1.260 . S
C459 O466 1.240 . S
C459 O467 1.252 . S
C460 O463 1.252 . S
C460 O464 1.260 . S
O461 In455 2.266 . S
O461 C458 1.252 . S
O462 In455 2.326 . S
O462 C458 1.260 . S
O463 In455 2.266 . S
O463 C460 1.252 . S
O464 In455 2.326 . S
O464 C460 1.260 . S
C465 O456 1.240 . S
C465 O457 1.252 . S
O466 In455 2.294 . S
O466 C459 1.240 . S
O467 In455 2.326 . S
O467 C459 1.252 . S
In468 O469 2.294 . S
In468 O470 2.326 . S
In468 O474 2.266 . S
In468 O475 2.326 . S
In468 O476 2.266 . S
In468 O477 2.326 . S
In468 O479 2.294 . S
In468 O480 2.326 . S
O469 In468 2.294 . S
O469 C478 1.240 . S
O470 In468 2.326 . S
O470 C478 1.252 . S
C471 O474 1.252 . S
C471 O475 1.260 . S
C472 O479 1.240 . S
C472 O480 1.252 . S
C473 O476 1.252 . S
C473 O477 1.260 . S
O474 In468 2.266 . S
O474 C471 1.252 . S
O475 In468 2.326 . S
O475 C471 1.260 . S
O476 In468 2.266 . S
O476 C473 1.252 . S
O477 In468 2.326 . S
O477 C473 1.260 . S
C478 O469 1.240 . S
C478 O470 1.252 . S
O479 In468 2.294 . S
O479 C472 1.240 . S
O480 In468 2.326 . S
O480 C472 1.252 . S
In481 O482 2.294 . S
In481 O483 2.326 . S
In481 O487 2.266 . S
In481 O488 2.326 . S
In481 O489 2.266 . S
In481 O490 2.326 . S
In481 O492 2.294 . S
In481 O493 2.326 . S
O482 In481 2.294 . S
O482 C491 1.240 . S
O483 In481 2.326 . S
O483 C491 1.252 . S
C484 O487 1.252 . S
C484 O488 1.260 . S
C485 O492 1.240 . S
C485 O493 1.252 . S
C486 O489 1.252 . S
C486 O490 1.260 . S
O487 In481 2.266 . S
O487 C484 1.252 . S
O488 In481 2.326 . S
O488 C484 1.260 . S
O489 In481 2.266 . S
O489 C486 1.252 . S
O490 In481 2.326 . S
O490 C486 1.260 . S
C491 O482 1.240 . S
C491 O483 1.252 . S
O492 In481 2.294 . S
O492 C485 1.240 . S
O493 In481 2.326 . S
O493 C485 1.252 . S
In494 O495 2.294 . S
In494 O496 2.326 . S
In494 O500 2.266 . S
In494 O501 2.326 . S
In494 O502 2.266 . S
In494 O503 2.326 . S
In494 O505 2.294 . S
In494 O506 2.326 . S
O495 In494 2.294 . S
O495 C504 1.240 . S
O496 In494 2.326 . S
O496 C504 1.252 . S
C497 O500 1.252 . S
C497 O501 1.260 . S
C498 O505 1.240 . S
C498 O506 1.252 . S
C499 O502 1.252 . S
C499 O503 1.260 . S
O500 In494 2.266 . S
O500 C497 1.252 . S
O501 In494 2.326 . S
O501 C497 1.260 . S
O502 In494 2.266 . S
O502 C499 1.252 . S
O503 In494 2.326 . S
O503 C499 1.260 . S
C504 O495 1.240 . S
C504 O496 1.252 . S
O505 In494 2.294 . S
O505 C498 1.240 . S
O506 In494 2.326 . S
O506 C498 1.252 . S
In507 O508 2.294 . S
In507 O509 2.326 . S
In507 O513 2.266 . S
In507 O514 2.326 . S
In507 O515 2.266 . S
In507 O516 2.326 . S
In507 O518 2.294 . S
In507 O519 2.326 . S
O508 In507 2.294 . S
O508 C517 1.240 . S
O509 In507 2.326 . S
O509 C517 1.252 . S
C510 O513 1.252 . S
C510 O514 1.260 . S
C511 O518 1.240 . S
C511 O519 1.252 . S
C512 O515 1.252 . S
C512 O516 1.260 . S
O513 In507 2.266 . S
O513 C510 1.252 . S
O514 In507 2.326 . S
O514 C510 1.260 . S
O515 In507 2.266 . S
O515 C512 1.252 . S
O516 In507 2.326 . S
O516 C512 1.260 . S
C517 O508 1.240 . S
C517 O509 1.252 . S
O518 In507 2.294 . S
O518 C511 1.240 . S
O519 In507 2.326 . S
O519 C511 1.252 . S
In520 O521 2.294 . S
In520 O522 2.326 . S
In520 O526 2.266 . S
In520 O527 2.326 . S
In520 O528 2.266 . S
In520 O529 2.326 . S
In520 O531 2.294 . S
In520 O532 2.326 . S
O521 In520 2.294 . S
O521 C530 1.240 . S
O522 In520 2.326 . S
O522 C530 1.252 . S
C523 O526 1.252 . S
C523 O527 1.260 . S
C524 O531 1.240 . S
C524 O532 1.252 . S
C525 O528 1.252 . S
C525 O529 1.260 . S
O526 In520 2.266 . S
O526 C523 1.252 . S
O527 In520 2.326 . S
O527 C523 1.260 . S
O528 In520 2.266 . S
O528 C525 1.252 . S
O529 In520 2.326 . S
O529 C525 1.260 . S
C530 O521 1.240 . S
C530 O522 1.252 . S
O531 In520 2.294 . S
O531 C524 1.240 . S
O532 In520 2.326 . S
O532 C524 1.252 . S
In533 O534 2.294 . S
In533 O535 2.326 . S
In533 O539 2.266 . S
In533 O540 2.326 . S
In533 O541 2.266 . S
In533 O542 2.326 . S
In533 O544 2.294 . S
In533 O545 2.326 . S
O534 In533 2.294 . S
O534 C543 1.240 . S
O535 In533 2.326 . S
O535 C543 1.252 . S
C536 O539 1.252 . S
C536 O540 1.260 . S
C537 O544 1.240 . S
C537 O545 1.252 . S
C538 O541 1.252 . S
C538 O542 1.260 . S
O539 In533 2.266 . S
O539 C536 1.252 . S
O540 In533 2.326 . S
O540 C536 1.260 . S
O541 In533 2.266 . S
O541 C538 1.252 . S
O542 In533 2.326 . S
O542 C538 1.260 . S
C543 O534 1.240 . S
C543 O535 1.252 . S
O544 In533 2.294 . S
O544 C537 1.240 . S
O545 In533 2.326 . S
O545 C537 1.252 . S
In546 O547 2.294 . S
In546 O548 2.326 . S
In546 O552 2.266 . S
In546 O553 2.326 . S
In546 O554 2.266 . S
In546 O555 2.326 . S
In546 O557 2.294 . S
In546 O558 2.326 . S
O547 In546 2.294 . S
O547 C556 1.240 . S
O548 In546 2.326 . S
O548 C556 1.252 . S
C549 O552 1.252 . S
C549 O553 1.260 . S
C550 O557 1.240 . S
C550 O558 1.252 . S
C551 O554 1.252 . S
C551 O555 1.260 . S
O552 In546 2.266 . S
O552 C549 1.252 . S
O553 In546 2.326 . S
O553 C549 1.260 . S
O554 In546 2.266 . S
O554 C551 1.252 . S
O555 In546 2.326 . S
O555 C551 1.260 . S
C556 O547 1.240 . S
C556 O548 1.252 . S
O557 In546 2.294 . S
O557 C550 1.240 . S
O558 In546 2.326 . S
O558 C550 1.252 . S
In559 O560 2.294 . S
In559 O561 2.326 . S
In559 O565 2.266 . S
In559 O566 2.326 . S
In559 O567 2.266 . S
In559 O568 2.326 . S
In559 O570 2.294 . S
In559 O571 2.326 . S
O560 In559 2.294 . S
O560 C569 1.240 . S
O561 In559 2.326 . S
O561 C569 1.252 . S
C562 O565 1.252 . S
C562 O566 1.260 . S
C563 O570 1.240 . S
C563 O571 1.252 . S
C564 O567 1.252 . S
C564 O568 1.260 . S
O565 In559 2.266 . S
O565 C562 1.252 . S
O566 In559 2.326 . S
O566 C562 1.260 . S
O567 In559 2.266 . S
O567 C564 1.252 . S
O568 In559 2.326 . S
O568 C564 1.260 . S
C569 O560 1.240 . S
C569 O561 1.252 . S
O570 In559 2.294 . S
O570 C563 1.240 . S
O571 In559 2.326 . S
O571 C563 1.252 . S
In572 O573 2.294 . S
In572 O574 2.326 . S
In572 O578 2.266 . S
In572 O579 2.326 . S
In572 O580 2.266 . S
In572 O581 2.326 . S
In572 O583 2.294 . S
In572 O584 2.326 . S
O573 In572 2.294 . S
O573 C582 1.240 . S
O574 In572 2.326 . S
O574 C582 1.252 . S
C575 O578 1.252 . S
C575 O579 1.260 . S
C576 O583 1.240 . S
C576 O584 1.252 . S
C577 O580 1.252 . S
C577 O581 1.260 . S
O578 In572 2.266 . S
O578 C575 1.252 . S
O579 In572 2.326 . S
O579 C575 1.260 . S
O580 In572 2.266 . S
O580 C577 1.252 . S
O581 In572 2.326 . S
O581 C577 1.260 . S
C582 O573 1.240 . S
C582 O574 1.252 . S
O583 In572 2.294 . S
O583 C576 1.240 . S
O584 In572 2.326 . S
O584 C576 1.252 . S
In585 O586 2.294 . S
In585 O587 2.326 . S
In585 O591 2.266 . S
In585 O592 2.326 . S
In585 O593 2.266 . S
In585 O594 2.326 . S
In585 O596 2.294 . S
In585 O597 2.326 . S
O586 In585 2.294 . S
O586 C595 1.240 . S
O587 In585 2.326 . S
O587 C595 1.252 . S
C588 O591 1.252 . S
C588 O592 1.260 . S
C589 O596 1.240 . S
C589 O597 1.252 . S
C590 O593 1.252 . S
C590 O594 1.260 . S
O591 In585 2.266 . S
O591 C588 1.252 . S
O592 In585 2.326 . S
O592 C588 1.260 . S
O593 In585 2.266 . S
O593 C590 1.252 . S
O594 In585 2.326 . S
O594 C590 1.260 . S
C595 O586 1.240 . S
C595 O587 1.252 . S
O596 In585 2.294 . S
O596 C589 1.240 . S
O597 In585 2.326 . S
O597 C589 1.252 . S
In598 O599 2.294 . S
In598 O600 2.326 . S
In598 O604 2.266 . S
In598 O605 2.326 . S
In598 O606 2.266 . S
In598 O607 2.326 . S
In598 O609 2.294 . S
In598 O610 2.326 . S
O599 In598 2.294 . S
O599 C608 1.240 . S
O600 In598 2.326 . S
O600 C608 1.252 . S
C601 O604 1.252 . S
C601 O605 1.260 . S
C602 O609 1.240 . S
C602 O610 1.252 . S
C603 O606 1.252 . S
C603 O607 1.260 . S
O604 In598 2.266 . S
O604 C601 1.252 . S
O605 In598 2.326 . S
O605 C601 1.260 . S
O606 In598 2.266 . S
O606 C603 1.252 . S
O607 In598 2.326 . S
O607 C603 1.260 . S
C608 O599 1.240 . S
C608 O600 1.252 . S
O609 In598 2.294 . S
O609 C602 1.240 . S
O610 In598 2.326 . S
O610 C602 1.252 . S
In611 O612 2.294 . S
In611 O613 2.326 . S
In611 O617 2.266 . S
In611 O618 2.326 . S
In611 O619 2.266 . S
In611 O620 2.326 . S
In611 O622 2.294 . S
In611 O623 2.326 . S
O612 In611 2.294 . S
O612 C621 1.240 . S
O613 In611 2.326 . S
O613 C621 1.252 . S
C614 O617 1.252 . S
C614 O618 1.260 . S
C615 O622 1.240 . S
C615 O623 1.252 . S
C616 O619 1.252 . S
C616 O620 1.260 . S
O617 In611 2.266 . S
O617 C614 1.252 . S
O618 In611 2.326 . S
O618 C614 1.260 . S
O619 In611 2.266 . S
O619 C616 1.252 . S
O620 In611 2.326 . S
O620 C616 1.260 . S
C621 O612 1.240 . S
C621 O613 1.252 . S
O622 In611 2.294 . S
O622 C615 1.240 . S
O623 In611 2.326 . S
O623 C615 1.252 . S
C624 C625 1.363 . S
C624 C630 1.379 . S
C624 N632 1.356 . S
C625 C624 1.363 . S
C625 C631 1.363 1_655 S
C626 C627 1.363 . S
C626 C631 1.379 . S
C626 N633 1.356 . S
C627 C626 1.363 . S
C627 C630 1.363 1_455 S
N628 C630 1.356 . S
N628 H640 0.984 . S
N628 H641 0.985 1_655 S
N629 C631 1.356 . S
N629 H634 0.985 1_455 S
N629 H635 0.985 . S
C630 C624 1.379 . S
C630 C627 1.363 1_655 S
C630 N628 1.356 . S
C631 C625 1.363 1_455 S
C631 C626 1.379 . S
C631 N629 1.356 . S
N632 C624 1.356 . S
N632 H638 0.984 . S
N632 H639 0.984 . S
N633 C626 1.356 . S
N633 H636 0.984 . S
N633 H637 0.985 . S
H634 N629 0.985 1_655 S
H635 N629 0.985 . S
H636 N633 0.984 . S
H637 N633 0.985 . S
H638 N632 0.984 . S
H639 N632 0.984 . S
H640 N628 0.984 . S
H641 N628 0.985 1_455 S
C642 C643 1.363 . S
C642 C648 1.379 1_565 S
C642 N650 1.356 . S
C643 C642 1.363 . S
C643 C649 1.363 . S
C644 C645 1.363 . S
C644 C649 1.379 1_545 S
C644 N651 1.356 . S
C645 C644 1.363 . S
C645 C648 1.363 . S
N646 C648 1.356 . S
N646 H658 0.984 . S
N646 H659 0.985 . S
N647 C649 1.356 . S
N647 H652 0.984 . S
N647 H653 0.985 . S
C648 C642 1.379 1_545 S
C648 C645 1.363 . S
C648 N646 1.356 . S
C649 C643 1.363 . S
C649 C644 1.379 1_565 S
C649 N647 1.356 . S
N650 C642 1.356 . S
N650 H656 0.984 1_565 S
N650 H657 0.984 . S
N651 C644 1.356 . S
N651 H654 0.984 . S
N651 H655 0.985 1_545 S
H652 N647 0.984 . S
H653 N647 0.985 . S
H654 N651 0.984 . S
H655 N651 0.985 1_565 S
H656 N650 0.984 1_545 S
H657 N650 0.984 . S
H658 N646 0.984 . S
H659 N646 0.985 . S
C660 C661 1.363 . S
C660 C666 1.378 . S
C660 N668 1.356 . S
C661 C660 1.363 . S
C661 C667 1.364 1_455 S
C662 C663 1.363 . S
C662 C667 1.378 . S
C662 N669 1.356 . S
C663 C662 1.363 . S
C663 C666 1.364 1_655 S
N664 C666 1.356 1_655 S
N664 H676 0.984 1_655 S
N664 H677 0.985 . S
N665 C667 1.356 1_455 S
N665 H670 0.984 . S
N665 H671 0.985 1_455 S
C666 C660 1.378 . S
C666 C663 1.364 1_455 S
C666 N664 1.356 1_455 S
C667 C661 1.364 1_655 S
C667 C662 1.378 . S
C667 N665 1.356 1_655 S
N668 C660 1.356 . S
N668 H674 0.984 . S
N668 H675 0.984 . S
N669 C662 1.356 . S
N669 H672 0.984 . S
N669 H673 0.985 . S
H670 N665 0.984 . S
H671 N665 0.985 1_655 S
H672 N669 0.984 . S
H673 N669 0.985 . S
H674 N668 0.984 . S
H675 N668 0.984 . S
H676 N664 0.984 1_455 S
H677 N664 0.985 . S
C678 C679 1.363 1_545 S
C678 C684 1.379 . S
C678 N686 1.356 . S
C679 C678 1.363 1_565 S
C679 C685 1.363 . S
C680 C681 1.363 1_565 S
C680 C685 1.379 . S
C680 N687 1.356 . S
C681 C680 1.363 1_545 S
C681 C684 1.363 . S
N682 C684 1.356 . S
N682 H694 0.984 . S
N682 H695 0.985 . S
N683 C685 1.356 . S
N683 H688 0.984 . S
N683 H689 0.985 . S
C684 C678 1.379 . S
C684 C681 1.363 . S
C684 N682 1.356 . S
C685 C679 1.363 . S
C685 C680 1.379 . S
C685 N683 1.356 . S
N686 C678 1.356 . S
N686 H692 0.984 . S
N686 H693 0.971 1_545 S
N687 C680 1.356 . S
N687 H690 0.971 1_565 S
N687 H691 0.985 . S
H688 N683 0.984 . S
H689 N683 0.985 . S
H690 N687 0.971 1_545 S
H691 N687 0.985 . S
H692 N686 0.984 . S
H693 N686 0.971 1_565 S
H694 N682 0.984 . S
H695 N682 0.985 . S
C696 C697 1.363 . S
C696 C702 1.379 . S
C696 N704 1.356 . S
C697 C696 1.363 . S
C697 C703 1.363 1_655 S
C698 C699 1.363 . S
C698 C703 1.379 . S
C698 N705 1.356 . S
C699 C698 1.363 . S
C699 C702 1.363 1_455 S
N700 C702 1.356 . S
N700 H712 0.984 . S
N700 H713 1.008 . S
N701 C703 1.356 . S
N701 H706 1.008 . S
N701 H707 0.985 . S
C702 C696 1.379 . S
C702 C699 1.363 1_655 S
C702 N700 1.356 . S
C703 C697 1.363 1_455 S
C703 C698 1.379 . S
C703 N701 1.356 . S
N704 C696 1.356 . S
N704 H710 0.984 . S
N704 H711 0.984 . S
N705 C698 1.356 . S
N705 H708 0.984 . S
N705 H709 0.985 . S
H706 N701 1.008 . S
H707 N701 0.985 . S
H708 N705 0.984 . S
H709 N705 0.985 . S
H710 N704 0.984 . S
H711 N704 0.984 . S
H712 N700 0.984 . S
H713 N700 1.008 . S
C714 C715 1.363 1_565 S
C714 C720 1.379 . S
C714 N722 1.356 . S
C715 C714 1.363 1_545 S
C715 C721 1.363 . S
C716 C717 1.363 1_545 S
C716 C721 1.379 . S
C716 N723 1.356 . S
C717 C716 1.363 1_565 S
C717 C720 1.363 . S
N718 C720 1.356 . S
N718 H730 0.984 . S
N718 H731 0.985 . S
N719 C721 1.356 . S
N719 H724 0.984 . S
N719 H725 0.985 . S
C720 C714 1.379 . S
C720 C717 1.363 . S
C720 N718 1.356 . S
C721 C715 1.363 . S
C721 C716 1.379 . S
C721 N719 1.356 . S
N722 C714 1.356 . S
N722 H728 0.984 . S
N722 H729 0.984 . S
N723 C716 1.356 . S
N723 H726 0.984 . S
N723 H727 0.985 . S
H724 N719 0.984 . S
H725 N719 0.985 . S
H726 N723 0.984 . S
H727 N723 0.985 . S
H728 N722 0.984 . S
H729 N722 0.984 . S
H730 N718 0.984 . S
H731 N718 0.985 . S
C732 C733 1.363 1_655 S
C732 C738 1.379 . S
C732 N740 1.356 . S
C733 C732 1.363 1_455 S
C733 C739 1.363 . S
C734 C735 1.363 1_455 S
C734 C739 1.379 . S
C734 N741 1.356 . S
C735 C734 1.363 1_655 S
C735 C738 1.363 . S
N736 C738 1.356 . S
N736 H748 0.984 . S
N736 H749 0.985 . S
N737 C739 1.356 . S
N737 H742 0.984 . S
N737 H743 0.985 . S
C738 C732 1.379 . S
C738 C735 1.363 . S
C738 N736 1.356 . S
C739 C733 1.363 . S
C739 C734 1.379 . S
C739 N737 1.356 . S
N740 C732 1.356 . S
N740 H746 0.984 . S
N740 H747 0.984 1_655 S
N741 C734 1.356 . S
N741 H744 0.984 1_455 S
N741 H745 0.985 . S
H742 N737 0.984 . S
H743 N737 0.985 . S
H744 N741 0.984 1_655 S
H745 N741 0.985 . S
H746 N740 0.984 . S
H747 N740 0.984 1_455 S
H748 N736 0.984 . S
H749 N736 0.985 . S
C750 C751 1.363 . S
C750 C756 1.379 1_545 S
C750 N758 1.356 . S
C751 C750 1.363 . S
C751 C757 1.363 . S
C752 C753 1.363 . S
C752 C757 1.379 1_565 S
C752 N759 1.356 . S
C753 C752 1.363 . S
C753 C756 1.363 . S
N754 C756 1.356 . S
N754 H766 0.984 . S
N754 H767 0.985 . S
N755 C757 1.356 . S
N755 H760 0.984 . S
N755 H761 0.985 . S
C756 C750 1.379 1_565 S
C756 C753 1.363 . S
C756 N754 1.356 . S
C757 C751 1.363 . S
C757 C752 1.379 1_545 S
C757 N755 1.356 . S
N758 C750 1.356 . S
N758 H764 0.984 . S
N758 H765 0.984 . S
N759 C752 1.356 . S
N759 H762 0.984 . S
N759 H763 0.985 . S
H760 N755 0.984 . S
H761 N755 0.985 . S
H762 N759 0.984 . S
H763 N759 0.985 . S
H764 N758 0.984 . S
H765 N758 0.984 . S
H766 N754 0.984 . S
H767 N754 0.985 . S
C768 C769 1.363 1_556 S
C768 C774 1.379 . S
C768 N776 1.356 . S
C769 C768 1.363 1_554 S
C769 C775 1.363 . S
C770 C771 1.363 1_554 S
C770 C775 1.379 . S
C770 N777 1.356 . S
C771 C770 1.363 1_556 S
C771 C774 1.363 . S
N772 C774 1.356 . S
N772 H784 0.984 . S
N772 H785 0.985 . S
N773 C775 1.356 . S
N773 H778 0.984 . S
N773 H779 0.985 . S
C774 C768 1.379 . S
C774 C771 1.363 . S
C774 N772 1.356 . S
C775 C769 1.363 . S
C775 C770 1.379 . S
C775 N773 1.356 . S
N776 C768 1.356 . S
N776 H782 0.984 . S
N776 H783 0.991 . S
N777 C770 1.356 . S
N777 H780 0.991 . S
N777 H781 0.985 . S
H778 N773 0.984 . S
H779 N773 0.985 . S
H780 N777 0.991 . S
H781 N777 0.985 . S
H782 N776 0.984 . S
H783 N776 0.991 . S
H784 N772 0.984 . S
H785 N772 0.985 . S
C786 C787 1.363 1_554 S
C786 C792 1.379 . S
C786 N794 1.356 . S
C787 C786 1.363 1_556 S
C787 C793 1.363 . S
C788 C789 1.363 1_556 S
C788 C793 1.379 . S
C788 N795 1.356 . S
C789 C788 1.363 1_554 S
C789 C792 1.363 . S
N790 C792 1.356 . S
N790 H802 0.984 . S
N790 H803 0.985 . S
N791 C793 1.356 . S
N791 H796 0.984 . S
N791 H797 0.985 . S
C792 C786 1.379 . S
C792 C789 1.363 . S
C792 N790 1.356 . S
C793 C787 1.363 . S
C793 C788 1.379 . S
C793 N791 1.356 . S
N794 C786 1.356 . S
N794 H800 0.984 . S
N794 H801 0.984 1_554 S
N795 C788 1.356 . S
N795 H798 0.984 1_556 S
N795 H799 0.985 . S
H796 N791 0.984 . S
H797 N791 0.985 . S
H798 N795 0.984 1_554 S
H799 N795 0.985 . S
H800 N794 0.984 . S
H801 N794 0.984 1_556 S
H802 N790 0.984 . S
H803 N790 0.985 . S
C804 C805 1.363 1_554 S
C804 C810 1.379 . S
C804 N812 1.356 . S
C805 C804 1.363 1_556 S
C805 C811 1.363 . S
C806 C807 1.363 1_556 S
C806 C811 1.379 . S
C806 N813 1.356 . S
C807 C806 1.363 1_554 S
C807 C810 1.363 . S
N808 C810 1.356 . S
N808 H820 0.984 . S
N808 H821 0.985 . S
N809 C811 1.356 . S
N809 H814 0.984 . S
N809 H815 0.985 . S
C810 C804 1.379 . S
C810 C807 1.363 . S
C810 N808 1.356 . S
C811 C805 1.363 . S
C811 C806 1.379 . S
C811 N809 1.356 . S
N812 C804 1.356 . S
N812 H818 0.984 . S
N812 H819 0.984 1_554 S
N813 C806 1.356 . S
N813 H816 0.984 1_556 S
N813 H817 0.985 . S
H814 N809 0.984 . S
H815 N809 0.985 . S
H816 N813 0.984 1_554 S
H817 N813 0.985 . S
H818 N812 0.984 . S
H819 N812 0.984 1_556 S
H820 N808 0.984 . S
H821 N808 0.985 . S
C822 C823 1.363 . S
C822 C828 1.379 . S
C822 N830 1.356 . S
C823 C822 1.363 . S
C823 C829 1.363 1_556 S
C824 C825 1.363 . S
C824 C829 1.379 . S
C824 N831 1.356 . S
C825 C824 1.363 . S
C825 C828 1.363 1_554 S
N826 C828 1.356 . S
N826 H838 0.985 . S
N826 H839 0.984 1_556 S
N827 C829 1.356 . S
N827 H832 0.984 1_554 S
N827 H833 0.985 . S
C828 C822 1.379 . S
C828 C825 1.363 1_556 S
C828 N826 1.356 . S
C829 C823 1.363 1_554 S
C829 C824 1.379 . S
C829 N827 1.356 . S
N830 C822 1.356 . S
N830 H836 0.984 . S
N830 H837 0.984 . S
N831 C824 1.356 . S
N831 H834 0.984 . S
N831 H835 0.985 . S
H832 N827 0.984 1_556 S
H833 N827 0.985 . S
H834 N831 0.984 . S
H835 N831 0.985 . S
H836 N830 0.984 . S
H837 N830 0.984 . S
H838 N826 0.985 . S
H839 N826 0.984 1_554 S
C840 C841 1.363 . S
C840 C846 1.379 . S
C840 N848 1.356 . S
C841 C840 1.363 . S
C841 C847 1.363 . S
C842 C843 1.363 . S
C842 C847 1.379 . S
C842 N849 1.356 . S
C843 C842 1.363 . S
C843 C846 1.363 . S
N844 C846 1.356 . S
N844 H856 0.984 . S
N844 H857 0.985 . S
N845 C847 1.356 . S
N845 H850 0.984 . S
N845 H851 0.985 . S
C846 C840 1.379 . S
C846 C843 1.363 . S
C846 N844 1.356 . S
C847 C841 1.363 . S
C847 C842 1.379 . S
C847 N845 1.356 . S
N848 C840 1.356 . S
N848 H854 0.984 . S
N848 H855 0.984 . S
N849 C842 1.356 . S
N849 H852 0.984 . S
N849 H853 0.985 . S
H850 N845 0.984 . S
H851 N845 0.985 . S
H852 N849 0.984 . S
H853 N849 0.985 . S
H854 N848 0.984 . S
H855 N848 0.984 . S
H856 N844 0.984 . S
H857 N844 0.985 . S
C858 C859 1.363 . S
C858 C864 1.379 . S
C858 N866 1.356 . S
C859 C858 1.363 . S
C859 C865 1.363 . S
C860 C861 1.363 . S
C860 C865 1.379 . S
C860 N867 1.356 . S
C861 C860 1.363 . S
C861 C864 1.363 . S
N862 C864 1.356 . S
N862 H874 0.984 . S
N862 H875 0.985 . S
N863 C865 1.356 . S
N863 H868 0.984 . S
N863 H869 0.985 . S
C864 C858 1.379 . S
C864 C861 1.363 . S
C864 N862 1.356 . S
C865 C859 1.363 . S
C865 C860 1.379 . S
C865 N863 1.356 . S
N866 C858 1.356 . S
N866 H872 0.984 . S
N866 H873 0.984 . S
N867 C860 1.356 . S
N867 H870 0.984 . S
N867 H871 0.985 . S
H868 N863 0.984 . S
H869 N863 0.985 . S
H870 N867 0.984 . S
H871 N867 0.985 . S
H872 N866 0.984 . S
H873 N866 0.984 . S
H874 N862 0.984 . S
H875 N862 0.985 . S
C876 C877 1.363 . S
C876 C882 1.379 . S
C876 N884 1.356 . S
C877 C876 1.363 . S
C877 C883 1.363 . S
C878 C879 1.363 . S
C878 C883 1.379 . S
C878 N885 1.356 . S
C879 C878 1.363 . S
C879 C882 1.363 . S
N880 C882 1.356 . S
N880 H892 0.984 . S
N880 H893 0.985 . S
N881 C883 1.356 . S
N881 H886 0.984 . S
N881 H887 0.985 . S
C882 C876 1.379 . S
C882 C879 1.363 . S
C882 N880 1.356 . S
C883 C877 1.363 . S
C883 C878 1.379 . S
C883 N881 1.356 . S
N884 C876 1.356 . S
N884 H890 0.984 . S
N884 H891 0.984 . S
N885 C878 1.356 . S
N885 H888 0.984 . S
N885 H889 0.985 . S
H886 N881 0.984 . S
H887 N881 0.985 . S
H888 N885 0.984 . S
H889 N885 0.985 . S
H890 N884 0.984 . S
H891 N884 0.984 . S
H892 N880 0.984 . S
H893 N880 0.985 . S
C894 C895 1.363 . S
C894 C900 1.379 . S
C894 N902 1.356 . S
C895 C894 1.363 . S
C895 C901 1.363 . S
C896 C897 1.363 . S
C896 C901 1.379 . S
C896 N903 1.356 . S
C897 C896 1.363 . S
C897 C900 1.363 . S
N898 C900 1.356 . S
N898 H910 0.984 . S
N898 H911 0.985 . S
N899 C901 1.356 . S
N899 H904 0.984 . S
N899 H905 0.985 . S
C900 C894 1.379 . S
C900 C897 1.363 . S
C900 N898 1.356 . S
C901 C895 1.363 . S
C901 C896 1.379 . S
C901 N899 1.356 . S
N902 C894 1.356 . S
N902 H908 0.984 . S
N902 H909 0.984 . S
N903 C896 1.356 . S
N903 H906 0.984 . S
N903 H907 0.985 . S
H904 N899 0.984 . S
H905 N899 0.985 . S
H906 N903 0.984 . S
H907 N903 0.985 . S
H908 N902 0.984 . S
H909 N902 0.984 . S
H910 N898 0.984 . S
H911 N898 0.985 . S
C912 C913 1.363 . S
C912 C918 1.379 . S
C912 N920 1.356 . S
C913 C912 1.363 . S
C913 C919 1.363 . S
C914 C915 1.363 . S
C914 C919 1.379 . S
C914 N921 1.356 . S
C915 C914 1.363 . S
C915 C918 1.363 . S
N916 C918 1.356 . S
N916 H928 0.984 . S
N916 H929 0.985 . S
N917 C919 1.356 . S
N917 H922 0.984 . S
N917 H923 0.985 . S
C918 C912 1.379 . S
C918 C915 1.363 . S
C918 N916 1.356 . S
C919 C913 1.363 . S
C919 C914 1.379 . S
C919 N917 1.356 . S
N920 C912 1.356 . S
N920 H926 0.984 . S
N920 H927 0.984 . S
N921 C914 1.356 . S
N921 H924 0.984 . S
N921 H925 0.985 . S
H922 N917 0.984 . S
H923 N917 0.985 . S
H924 N921 0.984 . S
H925 N921 0.985 . S
H926 N920 0.984 . S
H927 N920 0.984 . S
H928 N916 0.984 . S
H929 N916 0.985 . S
C930 C931 1.363 . S
C930 C936 1.379 . S
C930 N938 1.356 . S
C931 C930 1.363 . S
C931 C937 1.363 . S
C932 C933 1.363 . S
C932 C937 1.379 . S
C932 N939 1.356 . S
C933 C932 1.363 . S
C933 C936 1.363 . S
N934 C936 1.356 . S
N934 H946 0.984 . S
N934 H947 0.985 . S
N935 C937 1.356 . S
N935 H940 0.984 . S
N935 H941 0.985 . S
C936 C930 1.379 . S
C936 C933 1.363 . S
C936 N934 1.356 . S
C937 C931 1.363 . S
C937 C932 1.379 . S
C937 N935 1.356 . S
N938 C930 1.356 . S
N938 H944 0.984 . S
N938 H945 0.984 . S
N939 C932 1.356 . S
N939 H942 0.984 . S
N939 H943 0.985 . S
H940 N935 0.984 . S
H941 N935 0.985 . S
H942 N939 0.984 . S
H943 N939 0.985 . S
H944 N938 0.984 . S
H945 N938 0.984 . S
H946 N934 0.984 . S
H947 N934 0.985 . S
C948 C949 1.363 . S
C948 C954 1.379 . S
C948 N956 1.356 . S
C949 C948 1.363 . S
C949 C955 1.363 . S
C950 C951 1.363 . S
C950 C955 1.379 . S
C950 N957 1.356 . S
C951 C950 1.363 . S
C951 C954 1.363 . S
N952 C954 1.356 . S
N952 H964 0.984 . S
N952 H965 0.985 . S
N953 C955 1.356 . S
N953 H958 0.984 . S
N953 H959 0.985 . S
C954 C948 1.379 . S
C954 C951 1.363 . S
C954 N952 1.356 . S
C955 C949 1.363 . S
C955 C950 1.379 . S
C955 N953 1.356 . S
N956 C948 1.356 . S
N956 H962 0.984 . S
N956 H963 0.984 . S
N957 C950 1.356 . S
N957 H960 0.984 . S
N957 H961 0.985 . S
H958 N953 0.984 . S
H959 N953 0.985 . S
H960 N957 0.984 . S
H961 N957 0.985 . S
H962 N956 0.984 . S
H963 N956 0.984 . S
H964 N952 0.984 . S
H965 N952 0.985 . S
C966 C967 1.363 . S
C966 C972 1.379 . S
C966 N974 1.356 . S
C967 C966 1.363 . S
C967 C973 1.363 . S
C968 C969 1.363 . S
C968 C973 1.379 . S
C968 N975 1.356 . S
C969 C968 1.363 . S
C969 C972 1.363 . S
N970 C972 1.356 . S
N970 H982 0.984 . S
N970 H983 0.985 . S
N971 C973 1.356 . S
N971 H976 0.984 . S
N971 H977 0.985 . S
C972 C966 1.379 . S
C972 C969 1.363 . S
C972 N970 1.356 . S
C973 C967 1.363 . S
C973 C968 1.379 . S
C973 N971 1.356 . S
N974 C966 1.356 . S
N974 H980 0.984 . S
N974 H981 0.984 . S
N975 C968 1.356 . S
N975 H978 0.984 . S
N975 H979 0.985 . S
H976 N971 0.984 . S
H977 N971 0.985 . S
H978 N975 0.984 . S
H979 N975 0.985 . S
H980 N974 0.984 . S
H981 N974 0.984 . S
H982 N970 0.984 . S
H983 N970 0.985 . S
C984 C985 1.363 . S
C984 C990 1.379 . S
C984 N992 1.356 . S
C985 C984 1.363 . S
C985 C991 1.363 . S
C986 C987 1.363 . S
C986 C991 1.379 . S
C986 N993 1.356 . S
C987 C986 1.363 . S
C987 C990 1.363 . S
N988 C990 1.356 . S
N988 H1000 0.984 . S
N988 H1001 0.985 . S
N989 C991 1.356 . S
N989 H994 0.984 . S
N989 H995 0.985 . S
C990 C984 1.379 . S
C990 C987 1.363 . S
C990 N988 1.356 . S
C991 C985 1.363 . S
C991 C986 1.379 . S
C991 N989 1.356 . S
N992 C984 1.356 . S
N992 H998 0.984 . S
N992 H999 0.984 . S
N993 C986 1.356 . S
N993 H996 0.984 . S
N993 H997 0.985 . S
H994 N989 0.984 . S
H995 N989 0.985 . S
H996 N993 0.984 . S
H997 N993 0.985 . S
H998 N992 0.984 . S
H999 N992 0.984 . S
H1000 N988 0.984 . S
H1001 N988 0.985 . S
C1002 C1003 1.363 . S
C1002 C1008 1.379 . S
C1002 N1010 1.356 . S
C1003 C1002 1.363 . S
C1003 C1009 1.363 . S
C1004 C1005 1.363 . S
C1004 C1009 1.379 . S
C1004 N1011 1.356 . S
C1005 C1004 1.363 . S
C1005 C1008 1.363 . S
N1006 C1008 1.356 . S
N1006 H1018 0.984 . S
N1006 H1019 0.985 . S
N1007 C1009 1.356 . S
N1007 H1012 0.984 . S
N1007 H1013 0.985 . S
C1008 C1002 1.379 . S
C1008 C1005 1.363 . S
C1008 N1006 1.356 . S
C1009 C1003 1.363 . S
C1009 C1004 1.379 . S
C1009 N1007 1.356 . S
N1010 C1002 1.356 . S
N1010 H1016 0.984 . S
N1010 H1017 0.984 . S
N1011 C1004 1.356 . S
N1011 H1014 0.984 . S
N1011 H1015 0.985 . S
H1012 N1007 0.984 . S
H1013 N1007 0.985 . S
H1014 N1011 0.984 . S
H1015 N1011 0.985 . S
H1016 N1010 0.984 . S
H1017 N1010 0.984 . S
H1018 N1006 0.984 . S
H1019 N1006 0.985 . S
C1020 C1021 1.363 . S
C1020 C1026 1.379 . S
C1020 N1028 1.356 . S
C1021 C1020 1.363 . S
C1021 C1027 1.363 . S
C1022 C1023 1.363 . S
C1022 C1027 1.379 . S
C1022 N1029 1.356 . S
C1023 C1022 1.363 . S
C1023 C1026 1.363 . S
N1024 C1026 1.356 . S
N1024 H1036 0.984 . S
N1024 H1037 0.985 . S
N1025 C1027 1.356 . S
N1025 H1030 0.984 . S
N1025 H1031 0.985 . S
C1026 C1020 1.379 . S
C1026 C1023 1.363 . S
C1026 N1024 1.356 . S
C1027 C1021 1.363 . S
C1027 C1022 1.379 . S
C1027 N1025 1.356 . S
N1028 C1020 1.356 . S
N1028 H1034 0.984 . S
N1028 H1035 0.984 . S
N1029 C1022 1.356 . S
N1029 H1032 0.984 . S
N1029 H1033 0.985 . S
H1030 N1025 0.984 . S
H1031 N1025 0.985 . S
H1032 N1029 0.984 . S
H1033 N1029 0.985 . S
H1034 N1028 0.984 . S
H1035 N1028 0.984 . S
H1036 N1024 0.984 . S
H1037 N1024 0.985 . S
C1038 C1039 1.363 . S
C1038 C1044 1.379 . S
C1038 N1046 1.356 . S
C1039 C1038 1.363 . S
C1039 C1045 1.363 . S
C1040 C1041 1.363 . S
C1040 C1045 1.379 . S
C1040 N1047 1.356 . S
C1041 C1040 1.363 . S
C1041 C1044 1.363 . S
N1042 C1044 1.356 . S
N1042 H1054 0.984 . S
N1042 H1055 0.985 . S
N1043 C1045 1.356 . S
N1043 H1048 0.984 . S
N1043 H1049 0.985 . S
C1044 C1038 1.379 . S
C1044 C1041 1.363 . S
C1044 N1042 1.356 . S
C1045 C1039 1.363 . S
C1045 C1040 1.379 . S
C1045 N1043 1.356 . S
N1046 C1038 1.356 . S
N1046 H1052 0.984 . S
N1046 H1053 0.984 . S
N1047 C1040 1.356 . S
N1047 H1050 0.984 . S
N1047 H1051 0.985 . S
H1048 N1043 0.984 . S
H1049 N1043 0.985 . S
H1050 N1047 0.984 . S
H1051 N1047 0.985 . S
H1052 N1046 0.984 . S
H1053 N1046 0.984 . S
H1054 N1042 0.984 . S
H1055 N1042 0.985 . S
C1056 C1057 1.363 . S
C1056 C1062 1.379 . S
C1056 N1064 1.356 . S
C1057 C1056 1.363 . S
C1057 C1063 1.363 . S
C1058 C1059 1.363 . S
C1058 C1063 1.379 . S
C1058 N1065 1.356 . S
C1059 C1058 1.363 . S
C1059 C1062 1.363 . S
N1060 C1062 1.356 . S
N1060 H1072 0.984 . S
N1060 H1073 0.985 . S
N1061 C1063 1.356 . S
N1061 H1066 0.984 . S
N1061 H1067 0.985 . S
C1062 C1056 1.379 . S
C1062 C1059 1.363 . S
C1062 N1060 1.356 . S
C1063 C1057 1.363 . S
C1063 C1058 1.379 . S
C1063 N1061 1.356 . S
N1064 C1056 1.356 . S
N1064 H1070 0.984 . S
N1064 H1071 0.984 . S
N1065 C1058 1.356 . S
N1065 H1068 0.984 . S
N1065 H1069 0.985 . S
H1066 N1061 0.984 . S
H1067 N1061 0.985 . S
H1068 N1065 0.984 . S
H1069 N1065 0.985 . S
H1070 N1064 0.984 . S
H1071 N1064 0.984 . S
H1072 N1060 0.984 . S
H1073 N1060 0.985 . S
C1074 C1075 1.363 . S
C1074 C1080 1.379 . S
C1074 N1082 1.356 . S
C1075 C1074 1.363 . S
C1075 C1081 1.363 . S
C1076 C1077 1.363 . S
C1076 C1081 1.379 . S
C1076 N1083 1.356 . S
C1077 C1076 1.363 . S
C1077 C1080 1.363 . S
N1078 C1080 1.356 . S
N1078 H1090 0.984 . S
N1078 H1091 0.985 . S
N1079 C1081 1.356 . S
N1079 H1084 0.984 . S
N1079 H1085 0.985 . S
C1080 C1074 1.379 . S
C1080 C1077 1.363 . S
C1080 N1078 1.356 . S
C1081 C1075 1.363 . S
C1081 C1076 1.379 . S
C1081 N1079 1.356 . S
N1082 C1074 1.356 . S
N1082 H1088 0.984 . S
N1082 H1089 0.984 . S
N1083 C1076 1.356 . S
N1083 H1086 0.984 . S
N1083 H1087 0.985 . S
H1084 N1079 0.984 . S
H1085 N1079 0.985 . S
H1086 N1083 0.984 . S
H1087 N1083 0.985 . S
H1088 N1082 0.984 . S
H1089 N1082 0.984 . S
H1090 N1078 0.984 . S
H1091 N1078 0.985 . S
C1092 C1093 1.363 . S
C1092 C1098 1.379 . S
C1092 N1100 1.356 . S
C1093 C1092 1.363 . S
C1093 C1099 1.363 . S
C1094 C1095 1.363 . S
C1094 C1099 1.379 . S
C1094 N1101 1.356 . S
C1095 C1094 1.363 . S
C1095 C1098 1.363 . S
N1096 C1098 1.356 . S
N1096 H1108 0.984 . S
N1096 H1109 0.985 . S
N1097 C1099 1.356 . S
N1097 H1102 0.984 . S
N1097 H1103 0.985 . S
C1098 C1092 1.379 . S
C1098 C1095 1.363 . S
C1098 N1096 1.356 . S
C1099 C1093 1.363 . S
C1099 C1094 1.379 . S
C1099 N1097 1.356 . S
N1100 C1092 1.356 . S
N1100 H1106 0.984 . S
N1100 H1107 0.984 . S
N1101 C1094 1.356 . S
N1101 H1104 0.984 . S
N1101 H1105 0.985 . S
H1102 N1097 0.984 . S
H1103 N1097 0.985 . S
H1104 N1101 0.984 . S
H1105 N1101 0.985 . S
H1106 N1100 0.984 . S
H1107 N1100 0.984 . S
H1108 N1096 0.984 . S
H1109 N1096 0.985 . S
C1110 C1111 1.363 . S
C1110 C1116 1.379 . S
C1110 N1118 1.356 . S
C1111 C1110 1.363 . S
C1111 C1117 1.363 . S
C1112 C1113 1.363 . S
C1112 C1117 1.379 . S
C1112 N1119 1.356 . S
C1113 C1112 1.363 . S
C1113 C1116 1.363 . S
N1114 C1116 1.356 . S
N1114 H1126 0.984 . S
N1114 H1127 0.985 . S
N1115 C1117 1.356 . S
N1115 H1120 0.984 . S
N1115 H1121 0.985 . S
C1116 C1110 1.379 . S
C1116 C1113 1.363 . S
C1116 N1114 1.356 . S
C1117 C1111 1.363 . S
C1117 C1112 1.379 . S
C1117 N1115 1.356 . S
N1118 C1110 1.356 . S
N1118 H1124 0.984 . S
N1118 H1125 0.984 . S
N1119 C1112 1.356 . S
N1119 H1122 0.984 . S
N1119 H1123 0.985 . S
H1120 N1115 0.984 . S
H1121 N1115 0.985 . S
H1122 N1119 0.984 . S
H1123 N1119 0.985 . S
H1124 N1118 0.984 . S
H1125 N1118 0.984 . S
H1126 N1114 0.984 . S
H1127 N1114 0.985 . S
C1128 C1129 1.363 . S
C1128 C1134 1.379 . S
C1128 N1136 1.356 . S
C1129 C1128 1.363 . S
C1129 C1135 1.363 . S
C1130 C1131 1.363 . S
C1130 C1135 1.379 . S
C1130 N1137 1.356 . S
C1131 C1130 1.363 . S
C1131 C1134 1.363 . S
N1132 C1134 1.356 . S
N1132 H1144 0.984 . S
N1132 H1145 0.985 . S
N1133 C1135 1.356 . S
N1133 H1138 0.984 . S
N1133 H1139 0.985 . S
C1134 C1128 1.379 . S
C1134 C1131 1.363 . S
C1134 N1132 1.356 . S
C1135 C1129 1.363 . S
C1135 C1130 1.379 . S
C1135 N1133 1.356 . S
N1136 C1128 1.356 . S
N1136 H1142 0.984 . S
N1136 H1143 0.984 . S
N1137 C1130 1.356 . S
N1137 H1140 0.984 . S
N1137 H1141 0.985 . S
H1138 N1133 0.984 . S
H1139 N1133 0.985 . S
H1140 N1137 0.984 . S
H1141 N1137 0.985 . S
H1142 N1136 0.984 . S
H1143 N1136 0.984 . S
H1144 N1132 0.984 . S
H1145 N1132 0.985 . S
C1146 C1147 1.363 . S
C1146 C1152 1.379 . S
C1146 N1154 1.356 . S
C1147 C1146 1.363 . S
C1147 C1153 1.363 . S
C1148 C1149 1.363 . S
C1148 C1153 1.379 . S
C1148 N1155 1.356 . S
C1149 C1148 1.363 . S
C1149 C1152 1.363 . S
N1150 C1152 1.356 . S
N1150 H1162 0.984 . S
N1150 H1163 0.985 . S
N1151 C1153 1.356 . S
N1151 H1156 0.984 . S
N1151 H1157 0.985 . S
C1152 C1146 1.379 . S
C1152 C1149 1.363 . S
C1152 N1150 1.356 . S
C1153 C1147 1.363 . S
C1153 C1148 1.379 . S
C1153 N1151 1.356 . S
N1154 C1146 1.356 . S
N1154 H1160 0.984 . S
N1154 H1161 0.984 . S
N1155 C1148 1.356 . S
N1155 H1158 0.984 . S
N1155 H1159 0.985 . S
H1156 N1151 0.984 . S
H1157 N1151 0.985 . S
H1158 N1155 0.984 . S
H1159 N1155 0.985 . S
H1160 N1154 0.984 . S
H1161 N1154 0.984 . S
H1162 N1150 0.984 . S
H1163 N1150 0.985 . S
C1164 C1165 1.363 . S
C1164 C1170 1.379 . S
C1164 N1172 1.356 . S
C1165 C1164 1.363 . S
C1165 C1171 1.363 . S
C1166 C1167 1.363 . S
C1166 C1171 1.379 . S
C1166 N1173 1.356 . S
C1167 C1166 1.363 . S
C1167 C1170 1.363 . S
N1168 C1170 1.356 . S
N1168 H1180 0.984 . S
N1168 H1181 0.985 . S
N1169 C1171 1.356 . S
N1169 H1174 0.984 . S
N1169 H1175 0.985 . S
C1170 C1164 1.379 . S
C1170 C1167 1.363 . S
C1170 N1168 1.356 . S
C1171 C1165 1.363 . S
C1171 C1166 1.379 . S
C1171 N1169 1.356 . S
N1172 C1164 1.356 . S
N1172 H1178 0.984 . S
N1172 H1179 0.984 . S
N1173 C1166 1.356 . S
N1173 H1176 0.984 . S
N1173 H1177 0.985 . S
H1174 N1169 0.984 . S
H1175 N1169 0.985 . S
H1176 N1173 0.984 . S
H1177 N1173 0.985 . S
H1178 N1172 0.984 . S
H1179 N1172 0.984 . S
H1180 N1168 0.984 . S
H1181 N1168 0.985 . S
C1182 C1183 1.363 . S
C1182 C1188 1.379 . S
C1182 N1190 1.356 . S
C1183 C1182 1.363 . S
C1183 C1189 1.363 . S
C1184 C1185 1.363 . S
C1184 C1189 1.379 . S
C1184 N1191 1.356 . S
C1185 C1184 1.363 . S
C1185 C1188 1.363 . S
N1186 C1188 1.356 . S
N1186 H1198 0.984 . S
N1186 H1199 0.985 . S
N1187 C1189 1.356 . S
N1187 H1192 0.984 . S
N1187 H1193 0.985 . S
C1188 C1182 1.379 . S
C1188 C1185 1.363 . S
C1188 N1186 1.356 . S
C1189 C1183 1.363 . S
C1189 C1184 1.379 . S
C1189 N1187 1.356 . S
N1190 C1182 1.356 . S
N1190 H1196 0.984 . S
N1190 H1197 0.984 . S
N1191 C1184 1.356 . S
N1191 H1194 0.984 . S
N1191 H1195 0.985 . S
H1192 N1187 0.984 . S
H1193 N1187 0.985 . S
H1194 N1191 0.984 . S
H1195 N1191 0.985 . S
H1196 N1190 0.984 . S
H1197 N1190 0.984 . S
H1198 N1186 0.984 . S
H1199 N1186 0.985 . S
C1200 C1201 1.363 . S
C1200 C1206 1.379 . S
C1200 N1208 1.356 . S
C1201 C1200 1.363 . S
C1201 C1207 1.363 . S
C1202 C1203 1.363 . S
C1202 C1207 1.379 . S
C1202 N1209 1.356 . S
C1203 C1202 1.363 . S
C1203 C1206 1.363 . S
N1204 C1206 1.356 . S
N1204 H1216 0.984 . S
N1204 H1217 0.985 . S
N1205 C1207 1.356 . S
N1205 H1210 0.984 . S
N1205 H1211 0.985 . S
C1206 C1200 1.379 . S
C1206 C1203 1.363 . S
C1206 N1204 1.356 . S
C1207 C1201 1.363 . S
C1207 C1202 1.379 . S
C1207 N1205 1.356 . S
N1208 C1200 1.356 . S
N1208 H1214 0.984 . S
N1208 H1215 0.984 . S
N1209 C1202 1.356 . S
N1209 H1212 0.984 . S
N1209 H1213 0.985 . S
H1210 N1205 0.984 . S
H1211 N1205 0.985 . S
H1212 N1209 0.984 . S
H1213 N1209 0.985 . S
H1214 N1208 0.984 . S
H1215 N1208 0.984 . S
H1216 N1204 0.984 . S
H1217 N1204 0.985 . S
C1218 C1219 1.363 . S
C1218 C1224 1.379 . S
C1218 N1226 1.356 . S
C1219 C1218 1.363 . S
C1219 C1225 1.363 . S
C1220 C1221 1.363 . S
C1220 C1225 1.379 . S
C1220 N1227 1.356 . S
C1221 C1220 1.363 . S
C1221 C1224 1.363 . S
N1222 C1224 1.356 . S
N1222 H1234 0.984 . S
N1222 H1235 0.985 . S
N1223 C1225 1.356 . S
N1223 H1228 0.984 . S
N1223 H1229 0.985 . S
C1224 C1218 1.379 . S
C1224 C1221 1.363 . S
C1224 N1222 1.356 . S
C1225 C1219 1.363 . S
C1225 C1220 1.379 . S
C1225 N1223 1.356 . S
N1226 C1218 1.356 . S
N1226 H1232 0.984 . S
N1226 H1233 0.984 . S
N1227 C1220 1.356 . S
N1227 H1230 0.984 . S
N1227 H1231 0.985 . S
H1228 N1223 0.984 . S
H1229 N1223 0.985 . S
H1230 N1227 0.984 . S
H1231 N1227 0.985 . S
H1232 N1226 0.984 . S
H1233 N1226 0.984 . S
H1234 N1222 0.984 . S
H1235 N1222 0.985 . S
C1236 C1237 1.363 . S
C1236 C1242 1.379 . S
C1236 N1244 1.356 . S
C1237 C1236 1.363 . S
C1237 C1243 1.363 . S
C1238 C1239 1.363 . S
C1238 C1243 1.379 . S
C1238 N1245 1.356 . S
C1239 C1238 1.363 . S
C1239 C1242 1.363 . S
N1240 C1242 1.356 . S
N1240 H1252 0.984 . S
N1240 H1253 0.985 . S
N1241 C1243 1.356 . S
N1241 H1246 0.984 . S
N1241 H1247 0.985 . S
C1242 C1236 1.379 . S
C1242 C1239 1.363 . S
C1242 N1240 1.356 . S
C1243 C1237 1.363 . S
C1243 C1238 1.379 . S
C1243 N1241 1.356 . S
N1244 C1236 1.356 . S
N1244 H1250 0.984 . S
N1244 H1251 0.984 . S
N1245 C1238 1.356 . S
N1245 H1248 0.984 . S
N1245 H1249 0.985 . S
H1246 N1241 0.984 . S
H1247 N1241 0.985 . S
H1248 N1245 0.984 . S
H1249 N1245 0.985 . S
H1250 N1244 0.984 . S
H1251 N1244 0.984 . S
H1252 N1240 0.984 . S
H1253 N1240 0.985 . S
C1254 C1255 1.363 . S
C1254 C1260 1.379 . S
C1254 N1262 1.356 . S
C1255 C1254 1.363 . S
C1255 C1261 1.363 . S
C1256 C1257 1.363 . S
C1256 C1261 1.379 . S
C1256 N1263 1.356 . S
C1257 C1256 1.363 . S
C1257 C1260 1.363 . S
N1258 C1260 1.356 . S
N1258 H1270 0.984 . S
N1258 H1271 0.985 . S
N1259 C1261 1.356 . S
N1259 H1264 0.984 . S
N1259 H1265 0.985 . S
C1260 C1254 1.379 . S
C1260 C1257 1.363 . S
C1260 N1258 1.356 . S
C1261 C1255 1.363 . S
C1261 C1256 1.379 . S
C1261 N1259 1.356 . S
N1262 C1254 1.356 . S
N1262 H1268 0.984 . S
N1262 H1269 0.984 . S
N1263 C1256 1.356 . S
N1263 H1266 0.984 . S
N1263 H1267 0.985 . S
H1264 N1259 0.984 . S
H1265 N1259 0.985 . S
H1266 N1263 0.984 . S
H1267 N1263 0.985 . S
H1268 N1262 0.984 . S
H1269 N1262 0.984 . S
H1270 N1258 0.984 . S
H1271 N1258 0.985 . S
C1272 C1273 1.363 . S
C1272 C1278 1.379 . S
C1272 N1280 1.356 . S
C1273 C1272 1.363 . S
C1273 C1279 1.363 . S
C1274 C1275 1.363 . S
C1274 C1279 1.379 . S
C1274 N1281 1.356 . S
C1275 C1274 1.363 . S
C1275 C1278 1.363 . S
N1276 C1278 1.356 . S
N1276 H1288 0.984 . S
N1276 H1289 0.985 . S
N1277 C1279 1.356 . S
N1277 H1282 0.984 . S
N1277 H1283 0.985 . S
C1278 C1272 1.379 . S
C1278 C1275 1.363 . S
C1278 N1276 1.356 . S
C1279 C1273 1.363 . S
C1279 C1274 1.379 . S
C1279 N1277 1.356 . S
N1280 C1272 1.356 . S
N1280 H1286 0.984 . S
N1280 H1287 0.984 . S
N1281 C1274 1.356 . S
N1281 H1284 0.984 . S
N1281 H1285 0.985 . S
H1282 N1277 0.984 . S
H1283 N1277 0.985 . S
H1284 N1281 0.984 . S
H1285 N1281 0.985 . S
H1286 N1280 0.984 . S
H1287 N1280 0.984 . S
H1288 N1276 0.984 . S
H1289 N1276 0.985 . S
C1290 C1291 1.363 . S
C1290 C1296 1.379 . S
C1290 N1298 1.356 . S
C1291 C1290 1.363 . S
C1291 C1297 1.363 . S
C1292 C1293 1.363 . S
C1292 C1297 1.379 . S
C1292 N1299 1.356 . S
C1293 C1292 1.363 . S
C1293 C1296 1.363 . S
N1294 C1296 1.356 . S
N1294 H1306 0.984 . S
N1294 H1307 0.985 . S
N1295 C1297 1.356 . S
N1295 H1300 0.984 . S
N1295 H1301 0.985 . S
C1296 C1290 1.379 . S
C1296 C1293 1.363 . S
C1296 N1294 1.356 . S
C1297 C1291 1.363 . S
C1297 C1292 1.379 . S
C1297 N1295 1.356 . S
N1298 C1290 1.356 . S
N1298 H1304 0.984 . S
N1298 H1305 0.984 . S
N1299 C1292 1.356 . S
N1299 H1302 0.984 . S
N1299 H1303 0.985 . S
H1300 N1295 0.984 . S
H1301 N1295 0.985 . S
H1302 N1299 0.984 . S
H1303 N1299 0.985 . S
H1304 N1298 0.984 . S
H1305 N1298 0.984 . S
H1306 N1294 0.984 . S
H1307 N1294 0.985 . S
C1308 C1309 1.363 . S
C1308 C1314 1.379 . S
C1308 N1316 1.356 . S
C1309 C1308 1.363 . S
C1309 C1315 1.363 . S
C1310 C1311 1.363 . S
C1310 C1315 1.379 . S
C1310 N1317 1.356 . S
C1311 C1310 1.363 . S
C1311 C1314 1.363 . S
N1312 C1314 1.356 . S
N1312 H1324 0.984 . S
N1312 H1325 0.985 . S
N1313 C1315 1.356 . S
N1313 H1318 0.984 . S
N1313 H1319 0.985 . S
C1314 C1308 1.379 . S
C1314 C1311 1.363 . S
C1314 N1312 1.356 . S
C1315 C1309 1.363 . S
C1315 C1310 1.379 . S
C1315 N1313 1.356 . S
N1316 C1308 1.356 . S
N1316 H1322 0.984 . S
N1316 H1323 0.984 . S
N1317 C1310 1.356 . S
N1317 H1320 0.984 . S
N1317 H1321 0.985 . S
H1318 N1313 0.984 . S
H1319 N1313 0.985 . S
H1320 N1317 0.984 . S
H1321 N1317 0.985 . S
H1322 N1316 0.984 . S
H1323 N1316 0.984 . S
H1324 N1312 0.984 . S
H1325 N1312 0.985 . S
C1326 C1327 1.363 . S
C1326 C1332 1.379 . S
C1326 N1334 1.356 . S
C1327 C1326 1.363 . S
C1327 C1333 1.363 . S
C1328 C1329 1.363 . S
C1328 C1333 1.379 . S
C1328 N1335 1.356 . S
C1329 C1328 1.363 . S
C1329 C1332 1.363 . S
N1330 C1332 1.356 . S
N1330 H1342 0.984 . S
N1330 H1343 0.985 . S
N1331 C1333 1.356 . S
N1331 H1336 0.984 . S
N1331 H1337 0.985 . S
C1332 C1326 1.379 . S
C1332 C1329 1.363 . S
C1332 N1330 1.356 . S
C1333 C1327 1.363 . S
C1333 C1328 1.379 . S
C1333 N1331 1.356 . S
N1334 C1326 1.356 . S
N1334 H1340 0.984 . S
N1334 H1341 0.984 . S
N1335 C1328 1.356 . S
N1335 H1338 0.984 . S
N1335 H1339 0.985 . S
H1336 N1331 0.984 . S
H1337 N1331 0.985 . S
H1338 N1335 0.984 . S
H1339 N1335 0.985 . S
H1340 N1334 0.984 . S
H1341 N1334 0.984 . S
H1342 N1330 0.984 . S
H1343 N1330 0.985 . S
C1344 C1345 1.363 . S
C1344 C1350 1.379 . S
C1344 N1352 1.356 . S
C1345 C1344 1.363 . S
C1345 C1351 1.363 . S
C1346 C1347 1.363 . S
C1346 C1351 1.379 . S
C1346 N1353 1.356 . S
C1347 C1346 1.363 . S
C1347 C1350 1.363 . S
N1348 C1350 1.356 . S
N1348 H1360 0.984 . S
N1348 H1361 0.985 . S
N1349 C1351 1.356 . S
N1349 H1354 0.984 . S
N1349 H1355 0.985 . S
C1350 C1344 1.379 . S
C1350 C1347 1.363 . S
C1350 N1348 1.356 . S
C1351 C1345 1.363 . S
C1351 C1346 1.379 . S
C1351 N1349 1.356 . S
N1352 C1344 1.356 . S
N1352 H1358 0.984 . S
N1352 H1359 0.984 . S
N1353 C1346 1.356 . S
N1353 H1356 0.984 . S
N1353 H1357 0.985 . S
H1354 N1349 0.984 . S
H1355 N1349 0.985 . S
H1356 N1353 0.984 . S
H1357 N1353 0.985 . S
H1358 N1352 0.984 . S
H1359 N1352 0.984 . S
H1360 N1348 0.984 . S
H1361 N1348 0.985 . S
C1362 C1363 1.363 . S
C1362 C1368 1.379 . S
C1362 N1370 1.356 . S
C1363 C1362 1.363 . S
C1363 C1369 1.363 . S
C1364 C1365 1.363 . S
C1364 C1369 1.379 . S
C1364 N1371 1.356 . S
C1365 C1364 1.363 . S
C1365 C1368 1.363 . S
N1366 C1368 1.356 . S
N1366 H1378 0.984 . S
N1366 H1379 0.985 . S
N1367 C1369 1.356 . S
N1367 H1372 0.984 . S
N1367 H1373 0.985 . S
C1368 C1362 1.379 . S
C1368 C1365 1.363 . S
C1368 N1366 1.356 . S
C1369 C1363 1.363 . S
C1369 C1364 1.379 . S
C1369 N1367 1.356 . S
N1370 C1362 1.356 . S
N1370 H1376 0.984 . S
N1370 H1377 0.984 . S
N1371 C1364 1.356 . S
N1371 H1374 0.984 . S
N1371 H1375 0.985 . S
H1372 N1367 0.984 . S
H1373 N1367 0.985 . S
H1374 N1371 0.984 . S
H1375 N1371 0.985 . S
H1376 N1370 0.984 . S
H1377 N1370 0.984 . S
H1378 N1366 0.984 . S
H1379 N1366 0.985 . S
C1380 C1381 1.363 . S
C1380 C1386 1.379 . S
C1380 N1388 1.356 . S
C1381 C1380 1.363 . S
C1381 C1387 1.363 . S
C1382 C1383 1.363 . S
C1382 C1387 1.379 . S
C1382 N1389 1.356 . S
C1383 C1382 1.363 . S
C1383 C1386 1.363 . S
N1384 C1386 1.356 . S
N1384 H1396 0.984 . S
N1384 H1397 0.985 . S
N1385 C1387 1.356 . S
N1385 H1390 0.984 . S
N1385 H1391 0.985 . S
C1386 C1380 1.379 . S
C1386 C1383 1.363 . S
C1386 N1384 1.356 . S
C1387 C1381 1.363 . S
C1387 C1382 1.379 . S
C1387 N1385 1.356 . S
N1388 C1380 1.356 . S
N1388 H1394 0.984 . S
N1388 H1395 0.984 . S
N1389 C1382 1.356 . S
N1389 H1392 0.984 . S
N1389 H1393 0.985 . S
H1390 N1385 0.984 . S
H1391 N1385 0.985 . S
H1392 N1389 0.984 . S
H1393 N1389 0.985 . S
H1394 N1388 0.984 . S
H1395 N1388 0.984 . S
H1396 N1384 0.984 . S
H1397 N1384 0.985 . S
C1398 C1399 1.363 . S
C1398 C1404 1.379 . S
C1398 N1406 1.356 . S
C1399 C1398 1.363 . S
C1399 C1405 1.363 . S
C1400 C1401 1.363 . S
C1400 C1405 1.379 . S
C1400 N1407 1.356 . S
C1401 C1400 1.363 . S
C1401 C1404 1.363 . S
N1402 C1404 1.356 . S
N1402 H1414 0.984 . S
N1402 H1415 0.985 . S
N1403 C1405 1.356 . S
N1403 H1408 0.984 . S
N1403 H1409 0.985 . S
C1404 C1398 1.379 . S
C1404 C1401 1.363 . S
C1404 N1402 1.356 . S
C1405 C1399 1.363 . S
C1405 C1400 1.379 . S
C1405 N1403 1.356 . S
N1406 C1398 1.356 . S
N1406 H1412 0.984 . S
N1406 H1413 0.984 . S
N1407 C1400 1.356 . S
N1407 H1410 0.984 . S
N1407 H1411 0.985 . S
H1408 N1403 0.984 . S
H1409 N1403 0.985 . S
H1410 N1407 0.984 . S
H1411 N1407 0.985 . S
H1412 N1406 0.984 . S
H1413 N1406 0.984 . S
H1414 N1402 0.984 . S
H1415 N1402 0.985 . S
C1416 C1417 1.363 . S
C1416 C1422 1.379 . S
C1416 N1424 1.356 . S
C1417 C1416 1.363 . S
C1417 C1423 1.363 . S
C1418 C1419 1.363 . S
C1418 C1423 1.379 . S
C1418 N1425 1.356 . S
C1419 C1418 1.363 . S
C1419 C1422 1.363 . S
N1420 C1422 1.356 . S
N1420 H1432 0.984 . S
N1420 H1433 0.985 . S
N1421 C1423 1.356 . S
N1421 H1426 0.984 . S
N1421 H1427 0.985 . S
C1422 C1416 1.379 . S
C1422 C1419 1.363 . S
C1422 N1420 1.356 . S
C1423 C1417 1.363 . S
C1423 C1418 1.379 . S
C1423 N1421 1.356 . S
N1424 C1416 1.356 . S
N1424 H1430 0.984 . S
N1424 H1431 0.984 . S
N1425 C1418 1.356 . S
N1425 H1428 0.984 . S
N1425 H1429 0.985 . S
H1426 N1421 0.984 . S
H1427 N1421 0.985 . S
H1428 N1425 0.984 . S
H1429 N1425 0.985 . S
H1430 N1424 0.984 . S
H1431 N1424 0.984 . S
H1432 N1420 0.984 . S
H1433 N1420 0.985 . S
C1434 C1435 1.363 . S
C1434 C1440 1.379 . S
C1434 N1442 1.356 . S
C1435 C1434 1.363 . S
C1435 C1441 1.363 . S
C1436 C1437 1.363 . S
C1436 C1441 1.379 . S
C1436 N1443 1.356 . S
C1437 C1436 1.363 . S
C1437 C1440 1.363 . S
N1438 C1440 1.356 . S
N1438 H1450 0.984 . S
N1438 H1451 0.985 . S
N1439 C1441 1.356 . S
N1439 H1444 0.984 . S
N1439 H1445 0.985 . S
C1440 C1434 1.379 . S
C1440 C1437 1.363 . S
C1440 N1438 1.356 . S
C1441 C1435 1.363 . S
C1441 C1436 1.379 . S
C1441 N1439 1.356 . S
N1442 C1434 1.356 . S
N1442 H1448 0.984 . S
N1442 H1449 0.984 . S
N1443 C1436 1.356 . S
N1443 H1446 0.984 . S
N1443 H1447 0.985 . S
H1444 N1439 0.984 . S
H1445 N1439 0.985 . S
H1446 N1443 0.984 . S
H1447 N1443 0.985 . S
H1448 N1442 0.984 . S
H1449 N1442 0.984 . S
H1450 N1438 0.984 . S
H1451 N1438 0.985 . S
C1452 C1453 1.363 . S
C1452 C1458 1.379 . S
C1452 N1460 1.356 . S
C1453 C1452 1.363 . S
C1453 C1459 1.363 . S
C1454 C1455 1.363 . S
C1454 C1459 1.379 . S
C1454 N1461 1.356 . S
C1455 C1454 1.363 . S
C1455 C1458 1.363 . S
N1456 C1458 1.356 . S
N1456 H1468 0.984 . S
N1456 H1469 0.985 . S
N1457 C1459 1.356 . S
N1457 H1462 0.984 . S
N1457 H1463 0.985 . S
C1458 C1452 1.379 . S
C1458 C1455 1.363 . S
C1458 N1456 1.356 . S
C1459 C1453 1.363 . S
C1459 C1454 1.379 . S
C1459 N1457 1.356 . S
N1460 C1452 1.356 . S
N1460 H1466 0.984 . S
N1460 H1467 0.984 . S
N1461 C1454 1.356 . S
N1461 H1464 0.984 . S
N1461 H1465 0.985 . S
H1462 N1457 0.984 . S
H1463 N1457 0.985 . S
H1464 N1461 0.984 . S
H1465 N1461 0.985 . S
H1466 N1460 0.984 . S
H1467 N1460 0.984 . S
H1468 N1456 0.984 . S
H1469 N1456 0.985 . S
C1470 C1471 1.363 . S
C1470 C1476 1.379 . S
C1470 N1478 1.356 . S
C1471 C1470 1.363 . S
C1471 C1477 1.363 . S
C1472 C1473 1.363 . S
C1472 C1477 1.379 . S
C1472 N1479 1.356 . S
C1473 C1472 1.363 . S
C1473 C1476 1.363 . S
N1474 C1476 1.356 . S
N1474 H1486 0.984 . S
N1474 H1487 0.985 . S
N1475 C1477 1.356 . S
N1475 H1480 0.984 . S
N1475 H1481 0.985 . S
C1476 C1470 1.379 . S
C1476 C1473 1.363 . S
C1476 N1474 1.356 . S
C1477 C1471 1.363 . S
C1477 C1472 1.379 . S
C1477 N1475 1.356 . S
N1478 C1470 1.356 . S
N1478 H1484 0.984 . S
N1478 H1485 0.984 . S
N1479 C1472 1.356 . S
N1479 H1482 0.984 . S
N1479 H1483 0.985 . S
H1480 N1475 0.984 . S
H1481 N1475 0.985 . S
H1482 N1479 0.984 . S
H1483 N1479 0.985 . S
H1484 N1478 0.984 . S
H1485 N1478 0.984 . S
H1486 N1474 0.984 . S
H1487 N1474 0.985 . S
C1488 C1489 1.363 . S
C1488 C1494 1.379 . S
C1488 N1496 1.356 . S
C1489 C1488 1.363 . S
C1489 C1495 1.363 . S
C1490 C1491 1.363 . S
C1490 C1495 1.379 . S
C1490 N1497 1.356 . S
C1491 C1490 1.363 . S
C1491 C1494 1.363 . S
N1492 C1494 1.356 . S
N1492 H1504 0.984 . S
N1492 H1505 0.985 . S
N1493 C1495 1.356 . S
N1493 H1498 0.984 . S
N1493 H1499 0.985 . S
C1494 C1488 1.379 . S
C1494 C1491 1.363 . S
C1494 N1492 1.356 . S
C1495 C1489 1.363 . S
C1495 C1490 1.379 . S
C1495 N1493 1.356 . S
N1496 C1488 1.356 . S
N1496 H1502 0.984 . S
N1496 H1503 0.984 . S
N1497 C1490 1.356 . S
N1497 H1500 0.984 . S
N1497 H1501 0.985 . S
H1498 N1493 0.984 . S
H1499 N1493 0.985 . S
H1500 N1497 0.984 . S
H1501 N1497 0.985 . S
H1502 N1496 0.984 . S
H1503 N1496 0.984 . S
H1504 N1492 0.984 . S
H1505 N1492 0.985 . S
C1506 C1507 1.363 . S
C1506 C1512 1.379 . S
C1506 N1514 1.356 . S
C1507 C1506 1.363 . S
C1507 C1513 1.363 . S
C1508 C1509 1.363 . S
C1508 C1513 1.379 . S
C1508 N1515 1.356 . S
C1509 C1508 1.363 . S
C1509 C1512 1.363 . S
N1510 C1512 1.356 . S
N1510 H1522 0.984 . S
N1510 H1523 0.985 . S
N1511 C1513 1.356 . S
N1511 H1516 0.984 . S
N1511 H1517 0.985 . S
C1512 C1506 1.379 . S
C1512 C1509 1.363 . S
C1512 N1510 1.356 . S
C1513 C1507 1.363 . S
C1513 C1508 1.379 . S
C1513 N1511 1.356 . S
N1514 C1506 1.356 . S
N1514 H1520 0.984 . S
N1514 H1521 0.984 . S
N1515 C1508 1.356 . S
N1515 H1518 0.984 . S
N1515 H1519 0.985 . S
H1516 N1511 0.984 . S
H1517 N1511 0.985 . S
H1518 N1515 0.984 . S
H1519 N1515 0.985 . S
H1520 N1514 0.984 . S
H1521 N1514 0.984 . S
H1522 N1510 0.984 . S
H1523 N1510 0.985 . S
C1524 C1525 1.363 . S
C1524 C1530 1.379 . S
C1524 N1532 1.356 . S
C1525 C1524 1.363 . S
C1525 C1531 1.363 . S
C1526 C1527 1.363 . S
C1526 C1531 1.379 . S
C1526 N1533 1.356 . S
C1527 C1526 1.363 . S
C1527 C1530 1.363 . S
N1528 C1530 1.356 . S
N1528 H1540 0.984 . S
N1528 H1541 0.985 . S
N1529 C1531 1.356 . S
N1529 H1534 0.984 . S
N1529 H1535 0.985 . S
C1530 C1524 1.379 . S
C1530 C1527 1.363 . S
C1530 N1528 1.356 . S
C1531 C1525 1.363 . S
C1531 C1526 1.379 . S
C1531 N1529 1.356 . S
N1532 C1524 1.356 . S
N1532 H1538 0.984 . S
N1532 H1539 0.984 . S
N1533 C1526 1.356 . S
N1533 H1536 0.984 . S
N1533 H1537 0.985 . S
H1534 N1529 0.984 . S
H1535 N1529 0.985 . S
H1536 N1533 0.984 . S
H1537 N1533 0.985 . S
H1538 N1532 0.984 . S
H1539 N1532 0.984 . S
H1540 N1528 0.984 . S
H1541 N1528 0.985 . S
C1542 C1543 1.363 . S
C1542 C1548 1.379 . S
C1542 N1550 1.356 . S
C1543 C1542 1.363 . S
C1543 C1549 1.363 . S
C1544 C1545 1.363 . S
C1544 C1549 1.379 . S
C1544 N1551 1.356 . S
C1545 C1544 1.363 . S
C1545 C1548 1.363 . S
N1546 C1548 1.356 . S
N1546 H1558 0.984 . S
N1546 H1559 0.985 . S
N1547 C1549 1.356 . S
N1547 H1552 0.984 . S
N1547 H1553 0.985 . S
C1548 C1542 1.379 . S
C1548 C1545 1.363 . S
C1548 N1546 1.356 . S
C1549 C1543 1.363 . S
C1549 C1544 1.379 . S
C1549 N1547 1.356 . S
N1550 C1542 1.356 . S
N1550 H1556 0.984 . S
N1550 H1557 0.984 . S
N1551 C1544 1.356 . S
N1551 H1554 0.984 . S
N1551 H1555 0.985 . S
H1552 N1547 0.984 . S
H1553 N1547 0.985 . S
H1554 N1551 0.984 . S
H1555 N1551 0.985 . S
H1556 N1550 0.984 . S
H1557 N1550 0.984 . S
H1558 N1546 0.984 . S
H1559 N1546 0.985 . S
C1560 C1561 1.363 . S
C1560 C1566 1.379 . S
C1560 N1568 1.356 . S
C1561 C1560 1.363 . S
C1561 C1567 1.363 . S
C1562 C1563 1.363 . S
C1562 C1567 1.379 . S
C1562 N1569 1.356 . S
C1563 C1562 1.363 . S
C1563 C1566 1.363 . S
N1564 C1566 1.356 . S
N1564 H1576 0.984 . S
N1564 H1577 0.985 . S
N1565 C1567 1.356 . S
N1565 H1570 0.984 . S
N1565 H1571 0.985 . S
C1566 C1560 1.379 . S
C1566 C1563 1.363 . S
C1566 N1564 1.356 . S
C1567 C1561 1.363 . S
C1567 C1562 1.379 . S
C1567 N1565 1.356 . S
N1568 C1560 1.356 . S
N1568 H1574 0.984 . S
N1568 H1575 0.984 . S
N1569 C1562 1.356 . S
N1569 H1572 0.984 . S
N1569 H1573 0.985 . S
H1570 N1565 0.984 . S
H1571 N1565 0.985 . S
H1572 N1569 0.984 . S
H1573 N1569 0.985 . S
H1574 N1568 0.984 . S
H1575 N1568 0.984 . S
H1576 N1564 0.984 . S
H1577 N1564 0.985 . S
C1578 C1579 1.363 . S
C1578 C1584 1.379 . S
C1578 N1586 1.356 . S
C1579 C1578 1.363 . S
C1579 C1585 1.363 . S
C1580 C1581 1.363 . S
C1580 C1585 1.379 . S
C1580 N1587 1.356 . S
C1581 C1580 1.363 . S
C1581 C1584 1.363 . S
N1582 C1584 1.356 . S
N1582 H1594 0.984 . S
N1582 H1595 0.985 . S
N1583 C1585 1.356 . S
N1583 H1588 0.984 . S
N1583 H1589 0.985 . S
C1584 C1578 1.379 . S
C1584 C1581 1.363 . S
C1584 N1582 1.356 . S
C1585 C1579 1.363 . S
C1585 C1580 1.379 . S
C1585 N1583 1.356 . S
N1586 C1578 1.356 . S
N1586 H1592 0.984 . S
N1586 H1593 0.984 . S
N1587 C1580 1.356 . S
N1587 H1590 0.984 . S
N1587 H1591 0.985 . S
H1588 N1583 0.984 . S
H1589 N1583 0.985 . S
H1590 N1587 0.984 . S
H1591 N1587 0.985 . S
H1592 N1586 0.984 . S
H1593 N1586 0.984 . S
H1594 N1582 0.984 . S
H1595 N1582 0.985 . S
C1596 C1597 1.363 . S
C1596 C1602 1.379 . S
C1596 N1604 1.356 . S
C1597 C1596 1.363 . S
C1597 C1603 1.363 . S
C1598 C1599 1.363 . S
C1598 C1603 1.379 . S
C1598 N1605 1.356 . S
C1599 C1598 1.363 . S
C1599 C1602 1.363 . S
N1600 C1602 1.356 . S
N1600 H1612 0.984 . S
N1600 H1613 0.985 . S
N1601 C1603 1.356 . S
N1601 H1606 0.984 . S
N1601 H1607 0.985 . S
C1602 C1596 1.379 . S
C1602 C1599 1.363 . S
C1602 N1600 1.356 . S
C1603 C1597 1.363 . S
C1603 C1598 1.379 . S
C1603 N1601 1.356 . S
N1604 C1596 1.356 . S
N1604 H1610 0.984 . S
N1604 H1611 0.984 . S
N1605 C1598 1.356 . S
N1605 H1608 0.984 . S
N1605 H1609 0.985 . S
H1606 N1601 0.984 . S
H1607 N1601 0.985 . S
H1608 N1605 0.984 . S
H1609 N1605 0.985 . S
H1610 N1604 0.984 . S
H1611 N1604 0.984 . S
H1612 N1600 0.984 . S
H1613 N1600 0.985 . S
C1614 C1615 1.363 . S
C1614 C1620 1.379 . S
C1614 N1622 1.356 . S
C1615 C1614 1.363 . S
C1615 C1621 1.363 . S
C1616 C1617 1.363 . S
C1616 C1621 1.379 . S
C1616 N1623 1.356 . S
C1617 C1616 1.363 . S
C1617 C1620 1.363 . S
N1618 C1620 1.356 . S
N1618 H1630 0.984 . S
N1618 H1631 0.985 . S
N1619 C1621 1.356 . S
N1619 H1624 0.984 . S
N1619 H1625 0.985 . S
C1620 C1614 1.379 . S
C1620 C1617 1.363 . S
C1620 N1618 1.356 . S
C1621 C1615 1.363 . S
C1621 C1616 1.379 . S
C1621 N1619 1.356 . S
N1622 C1614 1.356 . S
N1622 H1628 0.984 . S
N1622 H1629 0.984 . S
N1623 C1616 1.356 . S
N1623 H1626 0.984 . S
N1623 H1627 0.985 . S
H1624 N1619 0.984 . S
H1625 N1619 0.985 . S
H1626 N1623 0.984 . S
H1627 N1623 0.985 . S
H1628 N1622 0.984 . S
H1629 N1622 0.984 . S
H1630 N1618 0.984 . S
H1631 N1618 0.985 . S
C1632 C1633 1.363 . S
C1632 C1638 1.379 . S
C1632 N1640 1.356 . S
C1633 C1632 1.363 . S
C1633 C1639 1.363 . S
C1634 C1635 1.363 . S
C1634 C1639 1.379 . S
C1634 N1641 1.356 . S
C1635 C1634 1.363 . S
C1635 C1638 1.363 . S
N1636 C1638 1.356 . S
N1636 H1648 0.984 . S
N1636 H1649 0.985 . S
N1637 C1639 1.356 . S
N1637 H1642 0.984 . S
N1637 H1643 0.985 . S
C1638 C1632 1.379 . S
C1638 C1635 1.363 . S
C1638 N1636 1.356 . S
C1639 C1633 1.363 . S
C1639 C1634 1.379 . S
C1639 N1637 1.356 . S
N1640 C1632 1.356 . S
N1640 H1646 0.984 . S
N1640 H1647 0.984 . S
N1641 C1634 1.356 . S
N1641 H1644 0.984 . S
N1641 H1645 0.985 . S
H1642 N1637 0.984 . S
H1643 N1637 0.985 . S
H1644 N1641 0.984 . S
H1645 N1641 0.985 . S
H1646 N1640 0.984 . S
H1647 N1640 0.984 . S
H1648 N1636 0.984 . S
H1649 N1636 0.985 . S
C1650 C1651 1.363 . S
C1650 C1656 1.379 . S
C1650 N1658 1.356 . S
C1651 C1650 1.363 . S
C1651 C1657 1.363 . S
C1652 C1653 1.363 . S
C1652 C1657 1.379 . S
C1652 N1659 1.356 . S
C1653 C1652 1.363 . S
C1653 C1656 1.363 . S
N1654 C1656 1.356 . S
N1654 H1666 0.984 . S
N1654 H1667 0.985 . S
N1655 C1657 1.356 . S
N1655 H1660 0.984 . S
N1655 H1661 0.985 . S
C1656 C1650 1.379 . S
C1656 C1653 1.363 . S
C1656 N1654 1.356 . S
C1657 C1651 1.363 . S
C1657 C1652 1.379 . S
C1657 N1655 1.356 . S
N1658 C1650 1.356 . S
N1658 H1664 0.984 . S
N1658 H1665 0.984 . S
N1659 C1652 1.356 . S
N1659 H1662 0.984 . S
N1659 H1663 0.985 . S
H1660 N1655 0.984 . S
H1661 N1655 0.985 . S
H1662 N1659 0.984 . S
H1663 N1659 0.985 . S
H1664 N1658 0.984 . S
H1665 N1658 0.984 . S
H1666 N1654 0.984 . S
H1667 N1654 0.985 . S
C1668 C1669 1.363 . S
C1668 C1674 1.379 . S
C1668 N1676 1.356 . S
C1669 C1668 1.363 . S
C1669 C1675 1.363 . S
C1670 C1671 1.363 . S
C1670 C1675 1.379 . S
C1670 N1677 1.356 . S
C1671 C1670 1.363 . S
C1671 C1674 1.363 . S
N1672 C1674 1.356 . S
N1672 H1684 0.984 . S
N1672 H1685 0.985 . S
N1673 C1675 1.356 . S
N1673 H1678 0.984 . S
N1673 H1679 0.985 . S
C1674 C1668 1.379 . S
C1674 C1671 1.363 . S
C1674 N1672 1.356 . S
C1675 C1669 1.363 . S
C1675 C1670 1.379 . S
C1675 N1673 1.356 . S
N1676 C1668 1.356 . S
N1676 H1682 0.984 . S
N1676 H1683 0.984 . S
N1677 C1670 1.356 . S
N1677 H1680 0.984 . S
N1677 H1681 0.985 . S
H1678 N1673 0.984 . S
H1679 N1673 0.985 . S
H1680 N1677 0.984 . S
H1681 N1677 0.985 . S
H1682 N1676 0.984 . S
H1683 N1676 0.984 . S
H1684 N1672 0.984 . S
H1685 N1672 0.985 . S
C1686 C1687 1.363 . S
C1686 C1692 1.379 . S
C1686 N1694 1.356 . S
C1687 C1686 1.363 . S
C1687 C1693 1.363 . S
C1688 C1689 1.363 . S
C1688 C1693 1.379 . S
C1688 N1695 1.356 . S
C1689 C1688 1.363 . S
C1689 C1692 1.363 . S
N1690 C1692 1.356 . S
N1690 H1702 0.984 . S
N1690 H1703 0.985 . S
N1691 C1693 1.356 . S
N1691 H1696 0.984 . S
N1691 H1697 0.985 . S
C1692 C1686 1.379 . S
C1692 C1689 1.363 . S
C1692 N1690 1.356 . S
C1693 C1687 1.363 . S
C1693 C1688 1.379 . S
C1693 N1691 1.356 . S
N1694 C1686 1.356 . S
N1694 H1700 0.984 . S
N1694 H1701 0.984 . S
N1695 C1688 1.356 . S
N1695 H1698 0.984 . S
N1695 H1699 0.985 . S
H1696 N1691 0.984 . S
H1697 N1691 0.985 . S
H1698 N1695 0.984 . S
H1699 N1695 0.985 . S
H1700 N1694 0.984 . S
H1701 N1694 0.984 . S
H1702 N1690 0.984 . S
H1703 N1690 0.985 . S
C1704 C1705 1.363 . S
C1704 C1710 1.379 . S
C1704 N1712 1.356 . S
C1705 C1704 1.363 . S
C1705 C1711 1.363 . S
C1706 C1707 1.363 . S
C1706 C1711 1.379 . S
C1706 N1713 1.356 . S
C1707 C1706 1.363 . S
C1707 C1710 1.363 . S
N1708 C1710 1.356 . S
N1708 H1720 0.984 . S
N1708 H1721 0.985 . S
N1709 C1711 1.356 . S
N1709 H1714 0.984 . S
N1709 H1715 0.985 . S
C1710 C1704 1.379 . S
C1710 C1707 1.363 . S
C1710 N1708 1.356 . S
C1711 C1705 1.363 . S
C1711 C1706 1.379 . S
C1711 N1709 1.356 . S
N1712 C1704 1.356 . S
N1712 H1718 0.984 . S
N1712 H1719 0.984 . S
N1713 C1706 1.356 . S
N1713 H1716 0.984 . S
N1713 H1717 0.985 . S
H1714 N1709 0.984 . S
H1715 N1709 0.985 . S
H1716 N1713 0.984 . S
H1717 N1713 0.985 . S
H1718 N1712 0.984 . S
H1719 N1712 0.984 . S
H1720 N1708 0.984 . S
H1721 N1708 0.985 . S
C1722 C1723 1.363 . S
C1722 C1728 1.379 . S
C1722 N1730 1.356 . S
C1723 C1722 1.363 . S
C1723 C1729 1.363 . S
C1724 C1725 1.363 . S
C1724 C1729 1.379 . S
C1724 N1731 1.356 . S
C1725 C1724 1.363 . S
C1725 C1728 1.363 . S
N1726 C1728 1.356 . S
N1726 H1738 0.984 . S
N1726 H1739 0.985 . S
N1727 C1729 1.356 . S
N1727 H1732 0.984 . S
N1727 H1733 0.985 . S
C1728 C1722 1.379 . S
C1728 C1725 1.363 . S
C1728 N1726 1.356 . S
C1729 C1723 1.363 . S
C1729 C1724 1.379 . S
C1729 N1727 1.356 . S
N1730 C1722 1.356 . S
N1730 H1736 0.984 . S
N1730 H1737 0.984 . S
N1731 C1724 1.356 . S
N1731 H1734 0.984 . S
N1731 H1735 0.985 . S
H1732 N1727 0.984 . S
H1733 N1727 0.985 . S
H1734 N1731 0.984 . S
H1735 N1731 0.985 . S
H1736 N1730 0.984 . S
H1737 N1730 0.984 . S
H1738 N1726 0.984 . S
H1739 N1726 0.985 . S
C1740 C1741 1.363 . S
C1740 C1746 1.379 . S
C1740 N1748 1.356 . S
C1741 C1740 1.363 . S
C1741 C1747 1.363 . S
C1742 C1743 1.363 . S
C1742 C1747 1.379 . S
C1742 N1749 1.356 . S
C1743 C1742 1.363 . S
C1743 C1746 1.363 . S
N1744 C1746 1.356 . S
N1744 H1756 0.984 . S
N1744 H1757 0.985 . S
N1745 C1747 1.356 . S
N1745 H1750 0.984 . S
N1745 H1751 0.985 . S
C1746 C1740 1.379 . S
C1746 C1743 1.363 . S
C1746 N1744 1.356 . S
C1747 C1741 1.363 . S
C1747 C1742 1.379 . S
C1747 N1745 1.356 . S
N1748 C1740 1.356 . S
N1748 H1754 0.984 . S
N1748 H1755 0.984 . S
N1749 C1742 1.356 . S
N1749 H1752 0.984 . S
N1749 H1753 0.985 . S
H1750 N1745 0.984 . S
H1751 N1745 0.985 . S
H1752 N1749 0.984 . S
H1753 N1749 0.985 . S
H1754 N1748 0.984 . S
H1755 N1748 0.984 . S
H1756 N1744 0.984 . S
H1757 N1744 0.985 . S
C1758 C1759 1.363 . S
C1758 C1764 1.379 . S
C1758 N1766 1.356 . S
C1759 C1758 1.363 . S
C1759 C1765 1.363 . S
C1760 C1761 1.363 . S
C1760 C1765 1.379 . S
C1760 N1767 1.356 . S
C1761 C1760 1.363 . S
C1761 C1764 1.363 . S
N1762 C1764 1.356 . S
N1762 H1774 0.984 . S
N1762 H1775 0.985 . S
N1763 C1765 1.356 . S
N1763 H1768 0.984 . S
N1763 H1769 0.985 . S
C1764 C1758 1.379 . S
C1764 C1761 1.363 . S
C1764 N1762 1.356 . S
C1765 C1759 1.363 . S
C1765 C1760 1.379 . S
C1765 N1763 1.356 . S
N1766 C1758 1.356 . S
N1766 H1772 0.984 . S
N1766 H1773 0.984 . S
N1767 C1760 1.356 . S
N1767 H1770 0.984 . S
N1767 H1771 0.985 . S
H1768 N1763 0.984 . S
H1769 N1763 0.985 . S
H1770 N1767 0.984 . S
H1771 N1767 0.985 . S
H1772 N1766 0.984 . S
H1773 N1766 0.984 . S
H1774 N1762 0.984 . S
H1775 N1762 0.985 . S
C1776 C1777 1.363 . S
C1776 C1782 1.379 . S
C1776 N1784 1.356 . S
C1777 C1776 1.363 . S
C1777 C1783 1.363 . S
C1778 C1779 1.363 . S
C1778 C1783 1.379 . S
C1778 N1785 1.356 . S
C1779 C1778 1.363 . S
C1779 C1782 1.363 . S
N1780 C1782 1.356 . S
N1780 H1792 0.984 . S
N1780 H1793 0.985 . S
N1781 C1783 1.356 . S
N1781 H1786 0.984 . S
N1781 H1787 0.985 . S
C1782 C1776 1.379 . S
C1782 C1779 1.363 . S
C1782 N1780 1.356 . S
C1783 C1777 1.363 . S
C1783 C1778 1.379 . S
C1783 N1781 1.356 . S
N1784 C1776 1.356 . S
N1784 H1790 0.984 . S
N1784 H1791 0.984 . S
N1785 C1778 1.356 . S
N1785 H1788 0.984 . S
N1785 H1789 0.985 . S
H1786 N1781 0.984 . S
H1787 N1781 0.985 . S
H1788 N1785 0.984 . S
H1789 N1785 0.985 . S
H1790 N1784 0.984 . S
H1791 N1784 0.984 . S
H1792 N1780 0.984 . S
H1793 N1780 0.985 . S
C1794 C1795 1.363 . S
C1794 C1800 1.379 . S
C1794 N1802 1.356 . S
C1795 C1794 1.363 . S
C1795 C1801 1.363 . S
C1796 C1797 1.363 . S
C1796 C1801 1.379 . S
C1796 N1803 1.356 . S
C1797 C1796 1.363 . S
C1797 C1800 1.363 . S
N1798 C1800 1.356 . S
N1798 H1810 0.984 . S
N1798 H1811 0.985 . S
N1799 C1801 1.356 . S
N1799 H1804 0.984 . S
N1799 H1805 0.985 . S
C1800 C1794 1.379 . S
C1800 C1797 1.363 . S
C1800 N1798 1.356 . S
C1801 C1795 1.363 . S
C1801 C1796 1.379 . S
C1801 N1799 1.356 . S
N1802 C1794 1.356 . S
N1802 H1808 0.984 . S
N1802 H1809 0.984 . S
N1803 C1796 1.356 . S
N1803 H1806 0.984 . S
N1803 H1807 0.985 . S
H1804 N1799 0.984 . S
H1805 N1799 0.985 . S
H1806 N1803 0.984 . S
H1807 N1803 0.985 . S
H1808 N1802 0.984 . S
H1809 N1802 0.984 . S
H1810 N1798 0.984 . S
H1811 N1798 0.985 . S
C1812 C1813 1.363 . S
C1812 C1818 1.379 . S
C1812 N1820 1.356 . S
C1813 C1812 1.363 . S
C1813 C1819 1.363 . S
C1814 C1815 1.363 . S
C1814 C1819 1.379 . S
C1814 N1821 1.356 . S
C1815 C1814 1.363 . S
C1815 C1818 1.363 . S
N1816 C1818 1.356 . S
N1816 H1828 0.984 . S
N1816 H1829 0.985 . S
N1817 C1819 1.356 . S
N1817 H1822 0.984 . S
N1817 H1823 0.985 . S
C1818 C1812 1.379 . S
C1818 C1815 1.363 . S
C1818 N1816 1.356 . S
C1819 C1813 1.363 . S
C1819 C1814 1.379 . S
C1819 N1817 1.356 . S
N1820 C1812 1.356 . S
N1820 H1826 0.984 . S
N1820 H1827 0.984 . S
N1821 C1814 1.356 . S
N1821 H1824 0.984 . S
N1821 H1825 0.985 . S
H1822 N1817 0.984 . S
H1823 N1817 0.985 . S
H1824 N1821 0.984 . S
H1825 N1821 0.985 . S
H1826 N1820 0.984 . S
H1827 N1820 0.984 . S
H1828 N1816 0.984 . S
H1829 N1816 0.985 . S
C1830 C1831 1.363 . S
C1830 C1836 1.379 . S
C1830 N1838 1.356 . S
C1831 C1830 1.363 . S
C1831 C1837 1.363 . S
C1832 C1833 1.363 . S
C1832 C1837 1.379 . S
C1832 N1839 1.356 . S
C1833 C1832 1.363 . S
C1833 C1836 1.363 . S
N1834 C1836 1.356 . S
N1834 H1846 0.984 . S
N1834 H1847 0.985 . S
N1835 C1837 1.356 . S
N1835 H1840 0.984 . S
N1835 H1841 0.985 . S
C1836 C1830 1.379 . S
C1836 C1833 1.363 . S
C1836 N1834 1.356 . S
C1837 C1831 1.363 . S
C1837 C1832 1.379 . S
C1837 N1835 1.356 . S
N1838 C1830 1.356 . S
N1838 H1844 0.984 . S
N1838 H1845 0.984 . S
N1839 C1832 1.356 . S
N1839 H1842 0.984 . S
N1839 H1843 0.985 . S
H1840 N1835 0.984 . S
H1841 N1835 0.985 . S
H1842 N1839 0.984 . S
H1843 N1839 0.985 . S
H1844 N1838 0.984 . S
H1845 N1838 0.984 . S
H1846 N1834 0.984 . S
H1847 N1834 0.985 . S
C1848 C1849 1.363 . S
C1848 C1854 1.379 . S
C1848 N1856 1.356 . S
C1849 C1848 1.363 . S
C1849 C1855 1.363 . S
C1850 C1851 1.363 . S
C1850 C1855 1.379 . S
C1850 N1857 1.356 . S
C1851 C1850 1.363 . S
C1851 C1854 1.363 . S
N1852 C1854 1.356 . S
N1852 H1864 0.984 . S
N1852 H1865 0.985 . S
N1853 C1855 1.356 . S
N1853 H1858 0.984 . S
N1853 H1859 0.985 . S
C1854 C1848 1.379 . S
C1854 C1851 1.363 . S
C1854 N1852 1.356 . S
C1855 C1849 1.363 . S
C1855 C1850 1.379 . S
C1855 N1853 1.356 . S
N1856 C1848 1.356 . S
N1856 H1862 0.984 . S
N1856 H1863 0.984 . S
N1857 C1850 1.356 . S
N1857 H1860 0.984 . S
N1857 H1861 0.985 . S
H1858 N1853 0.984 . S
H1859 N1853 0.985 . S
H1860 N1857 0.984 . S
H1861 N1857 0.985 . S
H1862 N1856 0.984 . S
H1863 N1856 0.984 . S
H1864 N1852 0.984 . S
H1865 N1852 0.985 . S
C1866 C1867 1.363 . S
C1866 C1872 1.379 . S
C1866 N1874 1.356 . S
C1867 C1866 1.363 . S
C1867 C1873 1.363 . S
C1868 C1869 1.363 . S
C1868 C1873 1.379 . S
C1868 N1875 1.356 . S
C1869 C1868 1.363 . S
C1869 C1872 1.363 . S
N1870 C1872 1.356 . S
N1870 H1882 0.984 . S
N1870 H1883 0.985 . S
N1871 C1873 1.356 . S
N1871 H1876 0.984 . S
N1871 H1877 0.985 . S
C1872 C1866 1.379 . S
C1872 C1869 1.363 . S
C1872 N1870 1.356 . S
C1873 C1867 1.363 . S
C1873 C1868 1.379 . S
C1873 N1871 1.356 . S
N1874 C1866 1.356 . S
N1874 H1880 0.984 . S
N1874 H1881 0.984 . S
N1875 C1868 1.356 . S
N1875 H1878 0.984 . S
N1875 H1879 0.985 . S
H1876 N1871 0.984 . S
H1877 N1871 0.985 . S
H1878 N1875 0.984 . S
H1879 N1875 0.985 . S
H1880 N1874 0.984 . S
H1881 N1874 0.984 . S
H1882 N1870 0.984 . S
H1883 N1870 0.985 . S
C1884 C1885 1.363 . S
C1884 C1890 1.379 . S
C1884 N1892 1.356 . S
C1885 C1884 1.363 . S
C1885 C1891 1.363 . S
C1886 C1887 1.363 . S
C1886 C1891 1.379 . S
C1886 N1893 1.356 . S
C1887 C1886 1.363 . S
C1887 C1890 1.363 . S
N1888 C1890 1.356 . S
N1888 H1900 0.984 . S
N1888 H1901 0.985 . S
N1889 C1891 1.356 . S
N1889 H1894 0.984 . S
N1889 H1895 0.985 . S
C1890 C1884 1.379 . S
C1890 C1887 1.363 . S
C1890 N1888 1.356 . S
C1891 C1885 1.363 . S
C1891 C1886 1.379 . S
C1891 N1889 1.356 . S
N1892 C1884 1.356 . S
N1892 H1898 0.984 . S
N1892 H1899 0.984 . S
N1893 C1886 1.356 . S
N1893 H1896 0.984 . S
N1893 H1897 0.985 . S
H1894 N1889 0.984 . S
H1895 N1889 0.985 . S
H1896 N1893 0.984 . S
H1897 N1893 0.985 . S
H1898 N1892 0.984 . S
H1899 N1892 0.984 . S
H1900 N1888 0.984 . S
H1901 N1888 0.985 . S
C1902 C1903 1.363 . S
C1902 C1908 1.379 . S
C1902 N1910 1.356 . S
C1903 C1902 1.363 . S
C1903 C1909 1.363 . S
C1904 C1905 1.363 . S
C1904 C1909 1.379 . S
C1904 N1911 1.356 . S
C1905 C1904 1.363 . S
C1905 C1908 1.363 . S
N1906 C1908 1.356 . S
N1906 H1918 0.984 . S
N1906 H1919 0.985 . S
N1907 C1909 1.356 . S
N1907 H1912 0.984 . S
N1907 H1913 0.985 . S
C1908 C1902 1.379 . S
C1908 C1905 1.363 . S
C1908 N1906 1.356 . S
C1909 C1903 1.363 . S
C1909 C1904 1.379 . S
C1909 N1907 1.356 . S
N1910 C1902 1.356 . S
N1910 H1916 0.984 . S
N1910 H1917 0.984 . S
N1911 C1904 1.356 . S
N1911 H1914 0.984 . S
N1911 H1915 0.985 . S
H1912 N1907 0.984 . S
H1913 N1907 0.985 . S
H1914 N1911 0.984 . S
H1915 N1911 0.985 . S
H1916 N1910 0.984 . S
H1917 N1910 0.984 . S
H1918 N1906 0.984 . S
H1919 N1906 0.985 . S
C1920 C1921 1.363 . S
C1920 C1926 1.379 . S
C1920 N1928 1.356 . S
C1921 C1920 1.363 . S
C1921 C1927 1.363 . S
C1922 C1923 1.363 . S
C1922 C1927 1.379 . S
C1922 N1929 1.356 . S
C1923 C1922 1.363 . S
C1923 C1926 1.363 . S
N1924 C1926 1.356 . S
N1924 H1936 0.984 . S
N1924 H1937 0.985 . S
N1925 C1927 1.356 . S
N1925 H1930 0.984 . S
N1925 H1931 0.985 . S
C1926 C1920 1.379 . S
C1926 C1923 1.363 . S
C1926 N1924 1.356 . S
C1927 C1921 1.363 . S
C1927 C1922 1.379 . S
C1927 N1925 1.356 . S
N1928 C1920 1.356 . S
N1928 H1934 0.984 . S
N1928 H1935 0.984 . S
N1929 C1922 1.356 . S
N1929 H1932 0.984 . S
N1929 H1933 0.985 . S
H1930 N1925 0.984 . S
H1931 N1925 0.985 . S
H1932 N1929 0.984 . S
H1933 N1929 0.985 . S
H1934 N1928 0.984 . S
H1935 N1928 0.984 . S
H1936 N1924 0.984 . S
H1937 N1924 0.985 . S
C1938 C1939 1.363 . S
C1938 C1944 1.379 . S
C1938 N1946 1.356 . S
C1939 C1938 1.363 . S
C1939 C1945 1.363 . S
C1940 C1941 1.363 . S
C1940 C1945 1.379 . S
C1940 N1947 1.356 . S
C1941 C1940 1.363 . S
C1941 C1944 1.363 . S
N1942 C1944 1.356 . S
N1942 H1954 0.984 . S
N1942 H1955 0.985 . S
N1943 C1945 1.356 . S
N1943 H1948 0.984 . S
N1943 H1949 0.985 . S
C1944 C1938 1.379 . S
C1944 C1941 1.363 . S
C1944 N1942 1.356 . S
C1945 C1939 1.363 . S
C1945 C1940 1.379 . S
C1945 N1943 1.356 . S
N1946 C1938 1.356 . S
N1946 H1952 0.984 . S
N1946 H1953 0.984 . S
N1947 C1940 1.356 . S
N1947 H1950 0.984 . S
N1947 H1951 0.985 . S
H1948 N1943 0.984 . S
H1949 N1943 0.985 . S
H1950 N1947 0.984 . S
H1951 N1947 0.985 . S
H1952 N1946 0.984 . S
H1953 N1946 0.984 . S
H1954 N1942 0.984 . S
H1955 N1942 0.985 . S
C1956 C1957 1.363 . S
C1956 C1962 1.379 . S
C1956 N1964 1.356 . S
C1957 C1956 1.363 . S
C1957 C1963 1.363 . S
C1958 C1959 1.363 . S
C1958 C1963 1.379 . S
C1958 N1965 1.356 . S
C1959 C1958 1.363 . S
C1959 C1962 1.363 . S
N1960 C1962 1.356 . S
N1960 H1972 0.984 . S
N1960 H1973 0.985 . S
N1961 C1963 1.356 . S
N1961 H1966 0.984 . S
N1961 H1967 0.985 . S
C1962 C1956 1.379 . S
C1962 C1959 1.363 . S
C1962 N1960 1.356 . S
C1963 C1957 1.363 . S
C1963 C1958 1.379 . S
C1963 N1961 1.356 . S
N1964 C1956 1.356 . S
N1964 H1970 0.984 . S
N1964 H1971 0.984 . S
N1965 C1958 1.356 . S
N1965 H1968 0.984 . S
N1965 H1969 0.985 . S
H1966 N1961 0.984 . S
H1967 N1961 0.985 . S
H1968 N1965 0.984 . S
H1969 N1965 0.985 . S
H1970 N1964 0.984 . S
H1971 N1964 0.984 . S
H1972 N1960 0.984 . S
H1973 N1960 0.985 . S
C1974 C1975 1.363 . S
C1974 C1980 1.379 . S
C1974 N1982 1.356 . S
C1975 C1974 1.363 . S
C1975 C1981 1.363 . S
C1976 C1977 1.363 . S
C1976 C1981 1.379 . S
C1976 N1983 1.356 . S
C1977 C1976 1.363 . S
C1977 C1980 1.363 . S
N1978 C1980 1.356 . S
N1978 H1990 0.984 . S
N1978 H1991 0.985 . S
N1979 C1981 1.356 . S
N1979 H1984 0.984 . S
N1979 H1985 0.985 . S
C1980 C1974 1.379 . S
C1980 C1977 1.363 . S
C1980 N1978 1.356 . S
C1981 C1975 1.363 . S
C1981 C1976 1.379 . S
C1981 N1979 1.356 . S
N1982 C1974 1.356 . S
N1982 H1988 0.984 . S
N1982 H1989 0.984 . S
N1983 C1976 1.356 . S
N1983 H1986 0.984 . S
N1983 H1987 0.985 . S
H1984 N1979 0.984 . S
H1985 N1979 0.985 . S
H1986 N1983 0.984 . S
H1987 N1983 0.985 . S
H1988 N1982 0.984 . S
H1989 N1982 0.984 . S
H1990 N1978 0.984 . S
H1991 N1978 0.985 . S
C1992 C1993 1.363 . S
C1992 C1998 1.379 . S
C1992 N2000 1.356 . S
C1993 C1992 1.363 . S
C1993 C1999 1.363 . S
C1994 C1995 1.363 . S
C1994 C1999 1.379 . S
C1994 N2001 1.356 . S
C1995 C1994 1.363 . S
C1995 C1998 1.363 . S
N1996 C1998 1.356 . S
N1996 H2008 0.984 . S
N1996 H2009 0.985 . S
N1997 C1999 1.356 . S
N1997 H2002 0.984 . S
N1997 H2003 0.985 . S
C1998 C1992 1.379 . S
C1998 C1995 1.363 . S
C1998 N1996 1.356 . S
C1999 C1993 1.363 . S
C1999 C1994 1.379 . S
C1999 N1997 1.356 . S
N2000 C1992 1.356 . S
N2000 H2006 0.984 . S
N2000 H2007 0.984 . S
N2001 C1994 1.356 . S
N2001 H2004 0.984 . S
N2001 H2005 0.985 . S
H2002 N1997 0.984 . S
H2003 N1997 0.985 . S
H2004 N2001 0.984 . S
H2005 N2001 0.985 . S
H2006 N2000 0.984 . S
H2007 N2000 0.984 . S
H2008 N1996 0.984 . S
H2009 N1996 0.985 . S
C2010 C2011 1.363 . S
C2010 C2016 1.379 . S
C2010 N2018 1.356 . S
C2011 C2010 1.363 . S
C2011 C2017 1.363 . S
C2012 C2013 1.363 . S
C2012 C2017 1.379 . S
C2012 N2019 1.356 . S
C2013 C2012 1.363 . S
C2013 C2016 1.363 . S
N2014 C2016 1.356 . S
N2014 H2026 0.984 . S
N2014 H2027 0.985 . S
N2015 C2017 1.356 . S
N2015 H2020 0.984 . S
N2015 H2021 0.985 . S
C2016 C2010 1.379 . S
C2016 C2013 1.363 . S
C2016 N2014 1.356 . S
C2017 C2011 1.363 . S
C2017 C2012 1.379 . S
C2017 N2015 1.356 . S
N2018 C2010 1.356 . S
N2018 H2024 0.984 . S
N2018 H2025 0.984 . S
N2019 C2012 1.356 . S
N2019 H2022 0.984 . S
N2019 H2023 0.985 . S
H2020 N2015 0.984 . S
H2021 N2015 0.985 . S
H2022 N2019 0.984 . S
H2023 N2019 0.985 . S
H2024 N2018 0.984 . S
H2025 N2018 0.984 . S
H2026 N2014 0.984 . S
H2027 N2014 0.985 . S
C2028 C2029 1.363 . S
C2028 C2034 1.379 . S
C2028 N2036 1.356 . S
C2029 C2028 1.363 . S
C2029 C2035 1.363 . S
C2030 C2031 1.363 . S
C2030 C2035 1.379 . S
C2030 N2037 1.356 . S
C2031 C2030 1.363 . S
C2031 C2034 1.363 . S
N2032 C2034 1.356 . S
N2032 H2044 0.984 . S
N2032 H2045 0.985 . S
N2033 C2035 1.356 . S
N2033 H2038 0.984 . S
N2033 H2039 0.985 . S
C2034 C2028 1.379 . S
C2034 C2031 1.363 . S
C2034 N2032 1.356 . S
C2035 C2029 1.363 . S
C2035 C2030 1.379 . S
C2035 N2033 1.356 . S
N2036 C2028 1.356 . S
N2036 H2042 0.984 . S
N2036 H2043 0.984 . S
N2037 C2030 1.356 . S
N2037 H2040 0.984 . S
N2037 H2041 0.985 . S
H2038 N2033 0.984 . S
H2039 N2033 0.985 . S
H2040 N2037 0.984 . S
H2041 N2037 0.985 . S
H2042 N2036 0.984 . S
H2043 N2036 0.984 . S
H2044 N2032 0.984 . S
H2045 N2032 0.985 . S
C2046 C2047 1.363 . S
C2046 C2052 1.379 . S
C2046 N2054 1.356 . S
C2047 C2046 1.363 . S
C2047 C2053 1.363 . S
C2048 C2049 1.363 . S
C2048 C2053 1.379 . S
C2048 N2055 1.356 . S
C2049 C2048 1.363 . S
C2049 C2052 1.363 . S
N2050 C2052 1.356 . S
N2050 H2062 0.984 . S
N2050 H2063 0.985 . S
N2051 C2053 1.356 . S
N2051 H2056 0.984 . S
N2051 H2057 0.985 . S
C2052 C2046 1.379 . S
C2052 C2049 1.363 . S
C2052 N2050 1.356 . S
C2053 C2047 1.363 . S
C2053 C2048 1.379 . S
C2053 N2051 1.356 . S
N2054 C2046 1.356 . S
N2054 H2060 0.984 . S
N2054 H2061 0.984 . S
N2055 C2048 1.356 . S
N2055 H2058 0.984 . S
N2055 H2059 0.985 . S
H2056 N2051 0.984 . S
H2057 N2051 0.985 . S
H2058 N2055 0.984 . S
H2059 N2055 0.985 . S
H2060 N2054 0.984 . S
H2061 N2054 0.984 . S
H2062 N2050 0.984 . S
H2063 N2050 0.985 . S
C2064 C2065 1.363 . S
C2064 C2070 1.379 . S
C2064 N2072 1.356 . S
C2065 C2064 1.363 . S
C2065 C2071 1.363 . S
C2066 C2067 1.363 . S
C2066 C2071 1.379 . S
C2066 N2073 1.356 . S
C2067 C2066 1.363 . S
C2067 C2070 1.363 . S
N2068 C2070 1.356 . S
N2068 H2080 0.984 . S
N2068 H2081 0.985 . S
N2069 C2071 1.356 . S
N2069 H2074 0.984 . S
N2069 H2075 0.985 . S
C2070 C2064 1.379 . S
C2070 C2067 1.363 . S
C2070 N2068 1.356 . S
C2071 C2065 1.363 . S
C2071 C2066 1.379 . S
C2071 N2069 1.356 . S
N2072 C2064 1.356 . S
N2072 H2078 0.984 . S
N2072 H2079 0.984 . S
N2073 C2066 1.356 . S
N2073 H2076 0.984 . S
N2073 H2077 0.985 . S
H2074 N2069 0.984 . S
H2075 N2069 0.985 . S
H2076 N2073 0.984 . S
H2077 N2073 0.985 . S
H2078 N2072 0.984 . S
H2079 N2072 0.984 . S
H2080 N2068 0.984 . S
H2081 N2068 0.985 . S
C2082 C2083 1.363 . S
C2082 C2088 1.379 . S
C2082 N2090 1.356 . S
C2083 C2082 1.363 . S
C2083 C2089 1.363 . S
C2084 C2085 1.363 . S
C2084 C2089 1.379 . S
C2084 N2091 1.356 . S
C2085 C2084 1.363 . S
C2085 C2088 1.363 . S
N2086 C2088 1.356 . S
N2086 H2098 0.984 . S
N2086 H2099 0.985 . S
N2087 C2089 1.356 . S
N2087 H2092 0.984 . S
N2087 H2093 0.985 . S
C2088 C2082 1.379 . S
C2088 C2085 1.363 . S
C2088 N2086 1.356 . S
C2089 C2083 1.363 . S
C2089 C2084 1.379 . S
C2089 N2087 1.356 . S
N2090 C2082 1.356 . S
N2090 H2096 0.984 . S
N2090 H2097 0.984 . S
N2091 C2084 1.356 . S
N2091 H2094 0.984 . S
N2091 H2095 0.985 . S
H2092 N2087 0.984 . S
H2093 N2087 0.985 . S
H2094 N2091 0.984 . S
H2095 N2091 0.985 . S
H2096 N2090 0.984 . S
H2097 N2090 0.984 . S
H2098 N2086 0.984 . S
H2099 N2086 0.985 . S
C2100 C2101 1.363 . S
C2100 C2106 1.379 . S
C2100 N2108 1.356 . S
C2101 C2100 1.363 . S
C2101 C2107 1.363 . S
C2102 C2103 1.363 . S
C2102 C2107 1.379 . S
C2102 N2109 1.356 . S
C2103 C2102 1.363 . S
C2103 C2106 1.363 . S
N2104 C2106 1.356 . S
N2104 H2116 0.984 . S
N2104 H2117 0.985 . S
N2105 C2107 1.356 . S
N2105 H2110 0.984 . S
N2105 H2111 0.985 . S
C2106 C2100 1.379 . S
C2106 C2103 1.363 . S
C2106 N2104 1.356 . S
C2107 C2101 1.363 . S
C2107 C2102 1.379 . S
C2107 N2105 1.356 . S
N2108 C2100 1.356 . S
N2108 H2114 0.984 . S
N2108 H2115 0.984 . S
N2109 C2102 1.356 . S
N2109 H2112 0.984 . S
N2109 H2113 0.985 . S
H2110 N2105 0.984 . S
H2111 N2105 0.985 . S
H2112 N2109 0.984 . S
H2113 N2109 0.985 . S
H2114 N2108 0.984 . S
H2115 N2108 0.984 . S
H2116 N2104 0.984 . S
H2117 N2104 0.985 . S
C2118 C2119 1.363 . S
C2118 C2124 1.379 . S
C2118 N2126 1.356 . S
C2119 C2118 1.363 . S
C2119 C2125 1.363 . S
C2120 C2121 1.363 . S
C2120 C2125 1.379 . S
C2120 N2127 1.356 . S
C2121 C2120 1.363 . S
C2121 C2124 1.363 . S
N2122 C2124 1.356 . S
N2122 H2134 0.984 . S
N2122 H2135 0.985 . S
N2123 C2125 1.356 . S
N2123 H2128 0.984 . S
N2123 H2129 0.985 . S
C2124 C2118 1.379 . S
C2124 C2121 1.363 . S
C2124 N2122 1.356 . S
C2125 C2119 1.363 . S
C2125 C2120 1.379 . S
C2125 N2123 1.356 . S
N2126 C2118 1.356 . S
N2126 H2132 0.984 . S
N2126 H2133 0.984 . S
N2127 C2120 1.356 . S
N2127 H2130 0.984 . S
N2127 H2131 0.985 . S
H2128 N2123 0.984 . S
H2129 N2123 0.985 . S
H2130 N2127 0.984 . S
H2131 N2127 0.985 . S
H2132 N2126 0.984 . S
H2133 N2126 0.984 . S
H2134 N2122 0.984 . S
H2135 N2122 0.985 . S
C2136 C2137 1.363 . S
C2136 C2142 1.379 . S
C2136 N2144 1.356 . S
C2137 C2136 1.363 . S
C2137 C2143 1.363 . S
C2138 C2139 1.363 . S
C2138 C2143 1.379 . S
C2138 N2145 1.356 . S
C2139 C2138 1.363 . S
C2139 C2142 1.363 . S
N2140 C2142 1.356 . S
N2140 H2152 0.984 . S
N2140 H2153 0.985 . S
N2141 C2143 1.356 . S
N2141 H2146 0.984 . S
N2141 H2147 0.985 . S
C2142 C2136 1.379 . S
C2142 C2139 1.363 . S
C2142 N2140 1.356 . S
C2143 C2137 1.363 . S
C2143 C2138 1.379 . S
C2143 N2141 1.356 . S
N2144 C2136 1.356 . S
N2144 H2150 0.984 . S
N2144 H2151 0.984 . S
N2145 C2138 1.356 . S
N2145 H2148 0.984 . S
N2145 H2149 0.985 . S
H2146 N2141 0.984 . S
H2147 N2141 0.985 . S
H2148 N2145 0.984 . S
H2149 N2145 0.985 . S
H2150 N2144 0.984 . S
H2151 N2144 0.984 . S
H2152 N2140 0.984 . S
H2153 N2140 0.985 . S
C2154 C2155 1.363 . S
C2154 C2160 1.379 . S
C2154 N2162 1.356 . S
C2155 C2154 1.363 . S
C2155 C2161 1.363 . S
C2156 C2157 1.363 . S
C2156 C2161 1.379 . S
C2156 N2163 1.356 . S
C2157 C2156 1.363 . S
C2157 C2160 1.363 . S
N2158 C2160 1.356 . S
N2158 H2170 0.984 . S
N2158 H2171 0.985 . S
N2159 C2161 1.356 . S
N2159 H2164 0.984 . S
N2159 H2165 0.985 . S
C2160 C2154 1.379 . S
C2160 C2157 1.363 . S
C2160 N2158 1.356 . S
C2161 C2155 1.363 . S
C2161 C2156 1.379 . S
C2161 N2159 1.356 . S
N2162 C2154 1.356 . S
N2162 H2168 0.984 . S
N2162 H2169 0.984 . S
N2163 C2156 1.356 . S
N2163 H2166 0.984 . S
N2163 H2167 0.985 . S
H2164 N2159 0.984 . S
H2165 N2159 0.985 . S
H2166 N2163 0.984 . S
H2167 N2163 0.985 . S
H2168 N2162 0.984 . S
H2169 N2162 0.984 . S
H2170 N2158 0.984 . S
H2171 N2158 0.985 . S
C2172 C2173 1.363 . S
C2172 C2178 1.379 . S
C2172 N2180 1.356 . S
C2173 C2172 1.363 . S
C2173 C2179 1.363 . S
C2174 C2175 1.363 . S
C2174 C2179 1.379 . S
C2174 N2181 1.356 . S
C2175 C2174 1.363 . S
C2175 C2178 1.363 . S
N2176 C2178 1.356 . S
N2176 H2188 0.984 . S
N2176 H2189 0.985 . S
N2177 C2179 1.356 . S
N2177 H2182 0.984 . S
N2177 H2183 0.985 . S
C2178 C2172 1.379 . S
C2178 C2175 1.363 . S
C2178 N2176 1.356 . S
C2179 C2173 1.363 . S
C2179 C2174 1.379 . S
C2179 N2177 1.356 . S
N2180 C2172 1.356 . S
N2180 H2186 0.984 . S
N2180 H2187 0.984 . S
N2181 C2174 1.356 . S
N2181 H2184 0.984 . S
N2181 H2185 0.985 . S
H2182 N2177 0.984 . S
H2183 N2177 0.985 . S
H2184 N2181 0.984 . S
H2185 N2181 0.985 . S
H2186 N2180 0.984 . S
H2187 N2180 0.984 . S
H2188 N2176 0.984 . S
H2189 N2176 0.985 . S
C2190 C2191 1.363 . S
C2190 C2196 1.379 . S
C2190 N2198 1.356 . S
C2191 C2190 1.363 . S
C2191 C2197 1.363 . S
C2192 C2193 1.363 . S
C2192 C2197 1.379 . S
C2192 N2199 1.356 . S
C2193 C2192 1.363 . S
C2193 C2196 1.363 . S
N2194 C2196 1.356 . S
N2194 H2206 0.984 . S
N2194 H2207 0.985 . S
N2195 C2197 1.356 . S
N2195 H2200 0.984 . S
N2195 H2201 0.985 . S
C2196 C2190 1.379 . S
C2196 C2193 1.363 . S
C2196 N2194 1.356 . S
C2197 C2191 1.363 . S
C2197 C2192 1.379 . S
C2197 N2195 1.356 . S
N2198 C2190 1.356 . S
N2198 H2204 0.984 . S
N2198 H2205 0.984 . S
N2199 C2192 1.356 . S
N2199 H2202 0.984 . S
N2199 H2203 0.985 . S
H2200 N2195 0.984 . S
H2201 N2195 0.985 . S
H2202 N2199 0.984 . S
H2203 N2199 0.985 . S
H2204 N2198 0.984 . S
H2205 N2198 0.984 . S
H2206 N2194 0.984 . S
H2207 N2194 0.985 . S
C2208 C2209 1.363 . S
C2208 C2214 1.379 . S
C2208 N2216 1.356 . S
C2209 C2208 1.363 . S
C2209 C2215 1.363 . S
C2210 C2211 1.363 . S
C2210 C2215 1.379 . S
C2210 N2217 1.356 . S
C2211 C2210 1.363 . S
C2211 C2214 1.363 . S
N2212 C2214 1.356 . S
N2212 H2224 0.984 . S
N2212 H2225 0.985 . S
N2213 C2215 1.356 . S
N2213 H2218 0.984 . S
N2213 H2219 0.985 . S
C2214 C2208 1.379 . S
C2214 C2211 1.363 . S
C2214 N2212 1.356 . S
C2215 C2209 1.363 . S
C2215 C2210 1.379 . S
C2215 N2213 1.356 . S
N2216 C2208 1.356 . S
N2216 H2222 0.984 . S
N2216 H2223 0.984 . S
N2217 C2210 1.356 . S
N2217 H2220 0.984 . S
N2217 H2221 0.985 . S
H2218 N2213 0.984 . S
H2219 N2213 0.985 . S
H2220 N2217 0.984 . S
H2221 N2217 0.985 . S
H2222 N2216 0.984 . S
H2223 N2216 0.984 . S
H2224 N2212 0.984 . S
H2225 N2212 0.985 . S
C2226 C2227 1.363 . S
C2226 C2232 1.379 . S
C2226 N2234 1.356 . S
C2227 C2226 1.363 . S
C2227 C2233 1.363 . S
C2228 C2229 1.363 . S
C2228 C2233 1.379 . S
C2228 N2235 1.356 . S
C2229 C2228 1.363 . S
C2229 C2232 1.363 . S
N2230 C2232 1.356 . S
N2230 H2242 0.984 . S
N2230 H2243 0.985 . S
N2231 C2233 1.356 . S
N2231 H2236 0.984 . S
N2231 H2237 0.985 . S
C2232 C2226 1.379 . S
C2232 C2229 1.363 . S
C2232 N2230 1.356 . S
C2233 C2227 1.363 . S
C2233 C2228 1.379 . S
C2233 N2231 1.356 . S
N2234 C2226 1.356 . S
N2234 H2240 0.984 . S
N2234 H2241 0.984 . S
N2235 C2228 1.356 . S
N2235 H2238 0.984 . S
N2235 H2239 0.985 . S
H2236 N2231 0.984 . S
H2237 N2231 0.985 . S
H2238 N2235 0.984 . S
H2239 N2235 0.985 . S
H2240 N2234 0.984 . S
H2241 N2234 0.984 . S
H2242 N2230 0.984 . S
H2243 N2230 0.985 . S
C2244 C2245 1.363 . S
C2244 C2250 1.379 . S
C2244 N2252 1.356 . S
C2245 C2244 1.363 . S
C2245 C2251 1.363 . S
C2246 C2247 1.363 . S
C2246 C2251 1.379 . S
C2246 N2253 1.356 . S
C2247 C2246 1.363 . S
C2247 C2250 1.363 . S
N2248 C2250 1.356 . S
N2248 H2260 0.984 . S
N2248 H2261 0.985 . S
N2249 C2251 1.356 . S
N2249 H2254 0.984 . S
N2249 H2255 0.985 . S
C2250 C2244 1.379 . S
C2250 C2247 1.363 . S
C2250 N2248 1.356 . S
C2251 C2245 1.363 . S
C2251 C2246 1.379 . S
C2251 N2249 1.356 . S
N2252 C2244 1.356 . S
N2252 H2258 0.984 . S
N2252 H2259 0.984 . S
N2253 C2246 1.356 . S
N2253 H2256 0.984 . S
N2253 H2257 0.985 . S
H2254 N2249 0.984 . S
H2255 N2249 0.985 . S
H2256 N2253 0.984 . S
H2257 N2253 0.985 . S
H2258 N2252 0.984 . S
H2259 N2252 0.984 . S
H2260 N2248 0.984 . S
H2261 N2248 0.985 . S
C2262 C2263 1.363 . S
C2262 C2268 1.379 . S
C2262 N2270 1.356 . S
C2263 C2262 1.363 . S
C2263 C2269 1.363 . S
C2264 C2265 1.363 . S
C2264 C2269 1.379 . S
C2264 N2271 1.356 . S
C2265 C2264 1.363 . S
C2265 C2268 1.363 . S
N2266 C2268 1.356 . S
N2266 H2278 0.984 . S
N2266 H2279 0.985 . S
N2267 C2269 1.356 . S
N2267 H2272 0.984 . S
N2267 H2273 0.985 . S
C2268 C2262 1.379 . S
C2268 C2265 1.363 . S
C2268 N2266 1.356 . S
C2269 C2263 1.363 . S
C2269 C2264 1.379 . S
C2269 N2267 1.356 . S
N2270 C2262 1.356 . S
N2270 H2276 0.984 . S
N2270 H2277 0.984 . S
N2271 C2264 1.356 . S
N2271 H2274 0.984 . S
N2271 H2275 0.985 . S
H2272 N2267 0.984 . S
H2273 N2267 0.985 . S
H2274 N2271 0.984 . S
H2275 N2271 0.985 . S
H2276 N2270 0.984 . S
H2277 N2270 0.984 . S
H2278 N2266 0.984 . S
H2279 N2266 0.985 . S
C2280 C2281 1.363 . S
C2280 C2286 1.379 . S
C2280 N2288 1.356 . S
C2281 C2280 1.363 . S
C2281 C2287 1.363 . S
C2282 C2283 1.363 . S
C2282 C2287 1.379 . S
C2282 N2289 1.356 . S
C2283 C2282 1.363 . S
C2283 C2286 1.363 . S
N2284 C2286 1.356 . S
N2284 H2296 0.984 . S
N2284 H2297 0.985 . S
N2285 C2287 1.356 . S
N2285 H2290 0.984 . S
N2285 H2291 0.985 . S
C2286 C2280 1.379 . S
C2286 C2283 1.363 . S
C2286 N2284 1.356 . S
C2287 C2281 1.363 . S
C2287 C2282 1.379 . S
C2287 N2285 1.356 . S
N2288 C2280 1.356 . S
N2288 H2294 0.984 . S
N2288 H2295 0.984 . S
N2289 C2282 1.356 . S
N2289 H2292 0.984 . S
N2289 H2293 0.985 . S
H2290 N2285 0.984 . S
H2291 N2285 0.985 . S
H2292 N2289 0.984 . S
H2293 N2289 0.985 . S
H2294 N2288 0.984 . S
H2295 N2288 0.984 . S
H2296 N2284 0.984 . S
H2297 N2284 0.985 . S
C2298 C2299 1.363 . S
C2298 C2304 1.379 . S
C2298 N2306 1.356 . S
C2299 C2298 1.363 . S
C2299 C2305 1.363 . S
C2300 C2301 1.363 . S
C2300 C2305 1.379 . S
C2300 N2307 1.356 . S
C2301 C2300 1.363 . S
C2301 C2304 1.363 . S
N2302 C2304 1.356 . S
N2302 H2314 0.984 . S
N2302 H2315 0.985 . S
N2303 C2305 1.356 . S
N2303 H2308 0.984 . S
N2303 H2309 0.985 . S
C2304 C2298 1.379 . S
C2304 C2301 1.363 . S
C2304 N2302 1.356 . S
C2305 C2299 1.363 . S
C2305 C2300 1.379 . S
C2305 N2303 1.356 . S
N2306 C2298 1.356 . S
N2306 H2312 0.984 . S
N2306 H2313 0.984 . S
N2307 C2300 1.356 . S
N2307 H2310 0.984 . S
N2307 H2311 0.985 . S
H2308 N2303 0.984 . S
H2309 N2303 0.985 . S
H2310 N2307 0.984 . S
H2311 N2307 0.985 . S
H2312 N2306 0.984 . S
H2313 N2306 0.984 . S
H2314 N2302 0.984 . S
H2315 N2302 0.985 . S
C2316 C2317 1.363 . S
C2316 C2322 1.379 . S
C2316 N2324 1.356 . S
C2317 C2316 1.363 . S
C2317 C2323 1.363 . S
C2318 C2319 1.363 . S
C2318 C2323 1.379 . S
C2318 N2325 1.356 . S
C2319 C2318 1.363 . S
C2319 C2322 1.363 . S
N2320 C2322 1.356 . S
N2320 H2332 0.984 . S
N2320 H2333 0.985 . S
N2321 C2323 1.356 . S
N2321 H2326 0.984 . S
N2321 H2327 0.985 . S
C2322 C2316 1.379 . S
C2322 C2319 1.363 . S
C2322 N2320 1.356 . S
C2323 C2317 1.363 . S
C2323 C2318 1.379 . S
C2323 N2321 1.356 . S
N2324 C2316 1.356 . S
N2324 H2330 0.984 . S
N2324 H2331 0.984 . S
N2325 C2318 1.356 . S
N2325 H2328 0.984 . S
N2325 H2329 0.985 . S
H2326 N2321 0.984 . S
H2327 N2321 0.985 . S
H2328 N2325 0.984 . S
H2329 N2325 0.985 . S
H2330 N2324 0.984 . S
H2331 N2324 0.984 . S
H2332 N2320 0.984 . S
H2333 N2320 0.985 . S
C2334 C2335 1.363 . S
C2334 C2340 1.379 . S
C2334 N2342 1.356 . S
C2335 C2334 1.363 . S
C2335 C2341 1.363 . S
C2336 C2337 1.363 . S
C2336 C2341 1.379 . S
C2336 N2343 1.356 . S
C2337 C2336 1.363 . S
C2337 C2340 1.363 . S
N2338 C2340 1.356 . S
N2338 H2350 0.984 . S
N2338 H2351 0.985 . S
N2339 C2341 1.356 . S
N2339 H2344 0.984 . S
N2339 H2345 0.985 . S
C2340 C2334 1.379 . S
C2340 C2337 1.363 . S
C2340 N2338 1.356 . S
C2341 C2335 1.363 . S
C2341 C2336 1.379 . S
C2341 N2339 1.356 . S
N2342 C2334 1.356 . S
N2342 H2348 0.984 . S
N2342 H2349 0.984 . S
N2343 C2336 1.356 . S
N2343 H2346 0.984 . S
N2343 H2347 0.985 . S
H2344 N2339 0.984 . S
H2345 N2339 0.985 . S
H2346 N2343 0.984 . S
H2347 N2343 0.985 . S
H2348 N2342 0.984 . S
H2349 N2342 0.984 . S
H2350 N2338 0.984 . S
H2351 N2338 0.985 . S
C625 C127 1.808 . S
C627 C4 1.808 . S
C643 C134 1.808 . S
C645 C17 1.808 . S
C661 C153 1.808 . S
C663 C36 1.808 . S
C679 C49 1.808 . S
C681 C108 1.808 . S
C697 C199 1.808 . S
C699 C62 1.808 . S
C715 C69 1.808 . S
C717 C166 1.808 . S
C733 C179 1.808 . S
C735 C82 1.808 . S
C751 C192 1.808 . S
C753 C101 1.808 . S
C769 C218 1.808 . S
C771 C238 1.808 . S
C787 C231 1.808 . S
C789 C290 1.808 . S
C805 C251 1.808 . S
C807 C309 1.808 . S
C823 C264 1.808 . S
C825 C277 1.808 . S
C841 C316 1.808 . S
C843 C433 1.808 . S
C859 C446 1.808 . S
C861 C335 1.808 . S
C877 C342 1.808 . S
C879 C459 1.808 . S
C895 C361 1.808 . S
C897 C426 1.808 . S
C913 C511 1.808 . S
C915 C374 1.808 . S
C931 C478 1.808 . S
C933 C381 1.808 . S
C949 C491 1.808 . S
C951 C400 1.808 . S
C967 C504 1.808 . S
C969 C413 1.808 . S
C985 C530 1.808 . S
C987 C556 1.808 . S
C1003 C537 1.808 . S
C1005 C608 1.808 . S
C1021 C569 1.808 . S
C1023 C615 1.808 . S
C1039 C589 1.808 . S
C1041 C576 1.808 . S
C1057 C109 1.358 . S
C1059 C3 1.450 . S
C1075 C120 1.358 . S
C1077 C16 1.450 . S
C1093 C31 1.450 . S
C1095 C135 1.358 . S
C1111 C44 1.450 . S
C1113 C146 1.358 . S
C1129 C57 1.450 . S
C1131 C159 1.358 . S
C1147 C68 1.450 . S
C1149 C172 1.358 . S
C1165 C81 1.450 . S
C1167 C185 1.358 . S
C1183 C200 1.358 . S
C1185 C96 1.450 . S
C1201 C107 1.450 . S
C1203 C211 1.358 . S
C1219 C302 1.358 . S
C1221 C122 1.450 . S
C1237 C133 1.450 . S
C1239 C278 1.358 . S
C1255 C148 1.450 . S
C1257 C291 1.358 . S
C1273 C161 1.450 . S
C1275 C224 1.358 . S
C1291 C174 1.450 . S
C1293 C239 1.358 . S
C1309 C187 1.450 . S
C1311 C252 1.358 . S
C1327 C265 1.358 . S
C1329 C198 1.450 . S
C1345 C5 1.358 . S
C1347 C213 1.450 . S
C1363 C226 1.450 . S
C1365 C55 1.358 . S
C1381 C237 1.450 . S
C1383 C70 1.358 . S
C1399 C250 1.450 . S
C1401 C83 1.358 . S
C1417 C94 1.358 . S
C1419 C263 1.450 . S
C1435 C276 1.450 . S
C1437 C29 1.358 . S
C1453 C289 1.450 . S
C1455 C42 1.358 . S
C1471 C18 1.358 . S
C1473 C304 1.450 . S
C1489 C419 1.358 . S
C1491 C315 1.450 . S
C1507 C330 1.450 . S
C1509 C434 1.358 . S
C1525 C341 1.450 . S
C1527 C447 1.358 . S
C1543 C460 1.358 . S
C1545 C356 1.450 . S
C1561 C471 1.358 . S
C1563 C369 1.450 . S
C1579 C380 1.450 . S
C1581 C484 1.358 . S
C1597 C497 1.358 . S
C1599 C395 1.450 . S
C1615 C512 1.358 . S
C1617 C408 1.450 . S
C1633 C421 1.450 . S
C1635 C523 1.358 . S
C1651 C432 1.450 . S
C1653 C616 1.358 . S
C1669 C445 1.450 . S
C1671 C590 1.358 . S
C1687 C601 1.358 . S
C1689 C458 1.450 . S
C1705 C473 1.450 . S
C1707 C538 1.358 . S
C1723 C486 1.450 . S
C1725 C549 1.358 . S
C1741 C562 1.358 . S
C1743 C499 1.450 . S
C1759 C577 1.358 . S
C1761 C510 1.450 . S
C1777 C525 1.450 . S
C1779 C317 1.358 . S
C1795 C536 1.450 . S
C1797 C367 1.358 . S
C1813 C382 1.358 . S
C1815 C551 1.450 . S
C1831 C564 1.450 . S
C1833 C393 1.358 . S
C1849 C575 1.450 . S
C1851 C406 1.358 . S
C1867 C343 1.358 . S
C1869 C588 1.450 . S
C1885 C603 1.450 . S
C1887 C354 1.358 . S
C1903 C328 1.358 . S
C1905 C614 1.450 . S
C1921 C407 1.631 . S
C1923 C10 1.631 . S
C1939 C23 1.631 . S
C1941 C368 1.631 . S
C1957 C387 1.631 . S
C1959 C30 1.631 . S
C1975 C394 1.631 . S
C1977 C43 1.631 . S
C1993 C56 1.631 . S
C1995 C329 1.631 . S
C2011 C348 1.631 . S
C2013 C75 1.631 . S
C2029 C355 1.631 . S
C2031 C88 1.631 . S
C2047 C95 1.631 . S
C2049 C322 1.631 . S
C2065 C582 1.631 . S
C2067 C114 1.631 . S
C2083 C121 1.631 . S
C2085 C543 1.631 . S
C2101 C140 1.631 . S
C2103 C550 1.631 . S
C2119 C563 1.631 . S
C2121 C147 1.631 . S
C2137 C621 1.631 . S
C2139 C160 1.631 . S
C2155 C595 1.631 . S
C2157 C173 1.631 . S
C2173 C186 1.631 . S
C2175 C602 1.631 . S
C2191 C524 1.631 . S
C2193 C205 1.631 . S
C2209 C212 1.631 . S
C2211 C517 1.631 . S
C2227 C439 1.631 . S
C2229 C225 1.631 . S
C2245 C244 1.631 . S
C2247 C452 1.631 . S
C2263 C465 1.631 . S
C2265 C257 1.631 . S
C2281 C420 1.631 . S
C2283 C270 1.631 . S
C2299 C283 1.631 . S
C2301 C485 1.631 . S
C2317 C498 1.631 . S
C2319 C296 1.631 . S
C2335 C472 1.631 . S
C2337 C303 1.631 . S
