# Generated by pormake.
# Topology wkj, (6)-cn, num edge types: 1
# Building blocks:
#     Node 0, Type 0, BuildingBlock: LEVNOQ01_clean_sbu_1, # of connection points: 6
#     Node 1, Type 0, BuildingBlock: LEVNOQ01_clean_sbu_1, # of connection points: 6
#     Node 2, Type 0, BuildingBlock: LEVNOQ01_clean_sbu_1, # of connection points: 6
#     Node 3, Type 0, BuildingBlock: LEVNOQ01_clean_sbu_1, # of connection points: 6
#     Node 4, Type 0, BuildingBlock: LEVNOQ01_clean_sbu_1, # of connection points: 6
#     Node 5, Type 0, BuildingBlock: LEVNOQ01_clean_sbu_1, # of connection points: 6
#     Node 6, Type 0, BuildingBlock: LEVNOQ01_clean_sbu_1, # of connection points: 6
#     Node 7, Type 0, BuildingBlock: LEVNOQ01_clean_sbu_1, # of connection points: 6
#     Node 8, Type 0, BuildingBlock: LEVNOQ01_clean_sbu_1, # of connection points: 6
#     Node 9, Type 0, BuildingBlock: LEVNOQ01_clean_sbu_1, # of connection points: 6
#     Node 10, Type 0, BuildingBlock: LEVNOQ01_clean_sbu_1, # of connection points: 6
#     Node 11, Type 0, BuildingBlock: LEVNOQ01_clean_sbu_1, # of connection points: 6
#     Edge 12, Type (0, 0), BuildingBlock: MIFKUJ_clean_linker_0, # of connection points: 2
#     Edge 13, Type (0, 0), BuildingBlock: MIFKUJ_clean_linker_0, # of connection points: 2
#     Edge 14, Type (0, 0), BuildingBlock: MIFKUJ_clean_linker_0, # of connection points: 2
#     Edge 15, Type (0, 0), BuildingBlock: MIFKUJ_clean_linker_0, # of connection points: 2
#     Edge 16, Type (0, 0), BuildingBlock: MIFKUJ_clean_linker_0, # of connection points: 2
#     Edge 17, Type (0, 0), BuildingBlock: MIFKUJ_clean_linker_0, # of connection points: 2
#     Edge 18, Type (0, 0), BuildingBlock: MIFKUJ_clean_linker_0, # of connection points: 2
#     Edge 19, Type (0, 0), BuildingBlock: MIFKUJ_clean_linker_0, # of connection points: 2
#     Edge 20, Type (0, 0), BuildingBlock: MIFKUJ_clean_linker_0, # of connection points: 2
#     Edge 21, Type (0, 0), BuildingBlock: MIFKUJ_clean_linker_0, # of connection points: 2
#     Edge 22, Type (0, 0), BuildingBlock: MIFKUJ_clean_linker_0, # of connection points: 2
#     Edge 23, Type (0, 0), BuildingBlock: MIFKUJ_clean_linker_0, # of connection points: 2
#     Edge 24, Type (0, 0), BuildingBlock: MIFKUJ_clean_linker_0, # of connection points: 2
#     Edge 25, Type (0, 0), BuildingBlock: MIFKUJ_clean_linker_0, # of connection points: 2
#     Edge 26, Type (0, 0), BuildingBlock: MIFKUJ_clean_linker_0, # of connection points: 2
#     Edge 27, Type (0, 0), BuildingBlock: MIFKUJ_clean_linker_0, # of connection points: 2
#     Edge 28, Type (0, 0), BuildingBlock: MIFKUJ_clean_linker_0, # of connection points: 2
#     Edge 29, Type (0, 0), BuildingBlock: MIFKUJ_clean_linker_0, # of connection points: 2
#     Edge 30, Type (0, 0), BuildingBlock: MIFKUJ_clean_linker_0, # of connection points: 2
#     Edge 31, Type (0, 0), BuildingBlock: MIFKUJ_clean_linker_0, # of connection points: 2
#     Edge 32, Type (0, 0), BuildingBlock: MIFKUJ_clean_linker_0, # of connection points: 2
#     Edge 33, Type (0, 0), BuildingBlock: MIFKUJ_clean_linker_0, # of connection points: 2
#     Edge 34, Type (0, 0), BuildingBlock: MIFKUJ_clean_linker_0, # of connection points: 2
#     Edge 35, Type (0, 0), BuildingBlock: MIFKUJ_clean_linker_0, # of connection points: 2
#     Edge 36, Type (0, 0), BuildingBlock: MIFKUJ_clean_linker_0, # of connection points: 2
#     Edge 37, Type (0, 0), BuildingBlock: MIFKUJ_clean_linker_0, # of connection points: 2
#     Edge 38, Type (0, 0), BuildingBlock: MIFKUJ_clean_linker_0, # of connection points: 2
#     Edge 39, Type (0, 0), BuildingBlock: MIFKUJ_clean_linker_0, # of connection points: 2
#     Edge 40, Type (0, 0), BuildingBlock: MIFKUJ_clean_linker_0, # of connection points: 2
#     Edge 41, Type (0, 0), BuildingBlock: MIFKUJ_clean_linker_0, # of connection points: 2
#     Edge 42, Type (0, 0), BuildingBlock: MIFKUJ_clean_linker_0, # of connection points: 2
#     Edge 43, Type (0, 0), BuildingBlock: MIFKUJ_clean_linker_0, # of connection points: 2
#     Edge 44, Type (0, 0), BuildingBlock: MIFKUJ_clean_linker_0, # of connection points: 2
#     Edge 45, Type (0, 0), BuildingBlock: MIFKUJ_clean_linker_0, # of connection points: 2
#     Edge 46, Type (0, 0), BuildingBlock: MIFKUJ_clean_linker_0, # of connection points: 2
#     Edge 47, Type (0, 0), BuildingBlock: MIFKUJ_clean_linker_0, # of connection points: 2
# Relax obj value: 0.510
# Max RMSD: 0.239
# Mean RMSD: 0.239
data_MOF--net-wkj--node1-LEVNOQ01_clean_sbu_1--edge1-MIFKUJ_clean_linker_0
_symmetry_space_group_name_H-M    P1
_symmetry_Int_Tables_number       1
_symmetry_cell_setting            triclinic
loop_
_symmetry_equiv_pos_as_xyz
'x, y, z'
_cell_length_a     65.047171
_cell_length_b     64.934844
_cell_length_c     31.959388
_cell_angle_alpha  89.836552
_cell_angle_beta   90.09332
_cell_angle_gamma 119.86798
loop_
_atom_site_label
_atom_site_type_symbol
_atom_site_fract_x
_atom_site_fract_y
_atom_site_fract_z
_atom_type_partial_charge
O0 O 0.47009 0.1175 0.35927 0.0
Mg1 Mg 0.44123 0.11637 0.32653 0.0
O2 O 0.47884 0.09522 0.31795 0.0
Mg3 Mg 0.45214 0.08333 0.2607 0.0
O4 O 0.4491 0.11573 0.26607 0.0
O5 O 0.44382 0.14446 0.29042 0.0
O6 O 0.42479 0.07082 0.20508 0.0
O7 O 0.48443 0.10534 0.21412 0.0
Mg8 Mg 0.4621 0.04954 0.19409 0.0
O9 O 0.454 0.05023 0.25435 0.0
O10 O 0.43259 0.04799 0.16313 0.0
O11 O 0.49494 0.08075 0.18509 0.0
O12 O 0.4574 0.02047 0.23016 0.0
C13 C 0.40645 0.0646 0.33142 0.0
C14 C 0.48221 0.10749 0.35135 0.0
C15 C 0.4488 0.13506 0.25944 0.0
C16 C 0.42039 0.05766 0.17271 0.0
C17 C 0.49867 0.10157 0.192 0.0
C18 C 0.45244 0.03001 0.26097 0.0
O19 O 0.40908 0.08508 0.33766 0.0
O20 O 0.42054 0.06163 0.30746 0.0
O21 O 0.33877 0.46933 0.67909 0.0
Mg22 Mg 0.31151 0.43795 0.65016 0.0
O23 O 0.36957 0.47203 0.64334 0.0
Mg24 Mg 0.35579 0.44497 0.58648 0.0
O25 O 0.3206 0.44238 0.58938 0.0
O26 O 0.28654 0.43857 0.60887 0.0
O27 O 0.34242 0.41664 0.53127 0.0
O28 O 0.36719 0.47685 0.53883 0.0
Mg29 Mg 0.402 0.45465 0.52413 0.0
O30 O 0.39054 0.44689 0.58295 0.0
O31 O 0.37478 0.42467 0.49404 0.0
O32 O 0.40284 0.48719 0.51244 0.0
O33 O 0.42424 0.4493 0.56585 0.0
C34 C 0.3282 0.40195 0.66096 0.0
C35 C 0.361 0.47886 0.67292 0.0
C36 C 0.3016 0.44253 0.57948 0.0
C37 C 0.3527 0.41199 0.5014 0.0
C38 C 0.38558 0.49092 0.51746 0.0
C39 C 0.40832 0.4448 0.59382 0.0
O40 O 0.3119 0.40683 0.66849 0.0
O41 O 0.34471 0.41399 0.63455 0.0
O42 O 0.8599 0.3452 0.00387 0.0
Mg43 Mg 0.86602 0.31842 0.97877 0.0
O44 O 0.88529 0.37657 0.96575 0.0
Mg45 Mg 0.89987 0.36303 0.91105 0.0
O46 O 0.87016 0.32675 0.91822 0.0
O47 O 0.84254 0.29136 0.93767 0.0
O48 O 0.9143 0.34925 0.85722 0.0
O49 O 0.87585 0.37009 0.86349 0.0
Mg50 Mg 0.92972 0.40656 0.84141 0.0
O51 O 0.93101 0.39901 0.90189 0.0
O52 O 0.93157 0.37867 0.81029 0.0
O53 O 0.89737 0.4062 0.83574 0.0
O54 O 0.95886 0.43254 0.87525 0.0
C55 C 0.91968 0.34016 0.98796 0.0
C56 C 0.87032 0.36738 0.99587 0.0
C57 C 0.85309 0.30639 0.90793 0.0
C58 C 0.92496 0.35759 0.82236 0.0
C59 C 0.87754 0.38771 0.84244 0.0
C60 C 0.9505 0.41854 0.90707 0.0
O61 O 0.89923 0.32276 0.99622 0.0
O62 O 0.9227 0.35592 0.96054 0.0
O63 O 0.52641 0.87818 0.34857 0.0
Mg64 Mg 0.55817 0.88181 0.32203 0.0
O65 O 0.51161 0.89154 0.29874 0.0
Mg66 Mg 0.54023 0.90694 0.2469 0.0
O67 O 0.54963 0.88013 0.2623 0.0
O68 O 0.55422 0.85172 0.28866 0.0
O69 O 0.57123 0.92291 0.19769 0.0
O70 O 0.51258 0.88153 0.19684 0.0
Mg71 Mg 0.53375 0.94019 0.17133 0.0
O72 O 0.52977 0.93356 0.23252 0.0
O73 O 0.57034 0.9526 0.16371 0.0
O74 O 0.51106 0.90541 0.14752 0.0
O75 O 0.51902 0.95776 0.20623 0.0
C76 C 0.58442 0.93449 0.31869 0.0
C77 C 0.51024 0.88209 0.33464 0.0
C78 C 0.54736 0.85966 0.25791 0.0
C79 C 0.58073 0.9411 0.17362 0.0
C80 C 0.50472 0.8848 0.16205 0.0
C81 C 0.52039 0.94652 0.23839 0.0
O82 O 0.58751 0.91684 0.32459 0.0
O83 O 0.5673 0.93282 0.29633 0.0
O84 O 0.62653 0.49657 0.64798 0.0
Mg85 Mg 0.65872 0.52863 0.63996 0.0
O86 O 0.60527 0.51297 0.62694 0.0
Mg87 Mg 0.62741 0.54587 0.58175 0.0
O88 O 0.65774 0.53939 0.58105 0.0
O89 O 0.68538 0.5312 0.60024 0.0
O90 O 0.65029 0.57863 0.53613 0.0
O91 O 0.61109 0.52092 0.52342 0.0
Mg92 Mg 0.59543 0.56311 0.52712 0.0
O93 O 0.59767 0.55442 0.58626 0.0
O94 O 0.62781 0.59377 0.51573 0.0
O95 O 0.58844 0.53274 0.49082 0.0
O96 O 0.57131 0.56471 0.56822 0.0
C97 C 0.65478 0.57127 0.67248 0.0
C98 C 0.60695 0.49631 0.64554 0.0
C99 C 0.6764 0.53845 0.57178 0.0
C100 C 0.64775 0.59478 0.51762 0.0
C101 C 0.59679 0.51874 0.49393 0.0
C102 C 0.58071 0.55818 0.59713 0.0
O103 O 0.66305 0.55741 0.67897 0.0
O104 O 0.64276 0.56956 0.6397 0.0
O105 O 0.1254 0.65474 0.01299 0.0
Mg106 Mg 0.12197 0.68112 0.97941 0.0
O107 O 0.09772 0.62259 0.97994 0.0
Mg108 Mg 0.08186 0.6351 0.92524 0.0
O109 O 0.11525 0.66922 0.91954 0.0
O110 O 0.14683 0.70332 0.93514 0.0
O111 O 0.06612 0.6483 0.87166 0.0
O112 O 0.0949 0.61836 0.87459 0.0
Mg113 Mg 0.03375 0.59087 0.87676 0.0
O114 O 0.04864 0.60168 0.93234 0.0
O115 O 0.02905 0.61961 0.85883 0.0
O116 O 0.06208 0.58897 0.84508 0.0
O117 O 0.01587 0.56781 0.92817 0.0
C118 C 0.07205 0.66827 0.99692 0.0
C119 C 0.1134 0.63229 0.00887 0.0
C120 C 0.13415 0.68777 0.90737 0.0
C121 C 0.04579 0.6409 0.85461 0.0
C122 C 0.08464 0.60127 0.84836 0.0
C123 C 0.0333 0.5828 0.95069 0.0
O124 O 0.09325 0.68525 1.00004 0.0
O125 O 0.06695 0.6503 0.97399 0.0
O126 O 0.8755 0.53157 0.32761 0.0
Mg127 Mg 0.88785 0.56217 0.36815 0.0
O128 O 0.88299 0.50774 0.36744 0.0
Mg129 Mg 0.90515 0.53062 0.42251 0.0
O130 O 0.88297 0.54768 0.42556 0.0
O131 O 0.86512 0.56748 0.40718 0.0
O132 O 0.92846 0.55571 0.47609 0.0
O133 O 0.87922 0.50244 0.47185 0.0
Mg134 Mg 0.93378 0.50859 0.47709 0.0
O135 O 0.92611 0.51207 0.41748 0.0
O136 O 0.95343 0.54426 0.49989 0.0
O137 O 0.89957 0.48746 0.50377 0.0
O138 O 0.94647 0.4943 0.43108 0.0
C139 C 0.93777 0.57915 0.36024 0.0
C140 C 0.87469 0.51174 0.33403 0.0
C141 C 0.86812 0.55453 0.43437 0.0
C142 C 0.94623 0.55924 0.49844 0.0
C143 C 0.88056 0.48815 0.49808 0.0
C144 C 0.93679 0.50134 0.4036 0.0
O145 O 0.92406 0.58761 0.36389 0.0
O146 O 0.93196 0.55856 0.37458 0.0
O147 O 0.35806 0.86473 0.68456 0.0
Mg148 Mg 0.32902 0.86787 0.70488 0.0
O149 O 0.38463 0.90007 0.70958 0.0
Mg150 Mg 0.3676 0.91378 0.75885 0.0
O151 O 0.33516 0.878 0.76561 0.0
O152 O 0.30487 0.84342 0.74621 0.0
O153 O 0.35096 0.92783 0.80867 0.0
O154 O 0.38466 0.90185 0.81138 0.0
Mg155 Mg 0.41038 0.9589 0.81097 0.0
O156 O 0.39959 0.95043 0.75114 0.0
O157 O 0.38124 0.95897 0.83985 0.0
O158 O 0.4183 0.93271 0.83356 0.0
O159 O 0.43077 0.98487 0.76616 0.0
C160 C 0.3347 0.91526 0.67753 0.0
C161 C 0.37926 0.8816 0.68759 0.0
C162 C 0.31679 0.85818 0.77558 0.0
C163 C 0.35916 0.94496 0.83493 0.0
C164 C 0.4037 0.91051 0.83304 0.0
C165 C 0.41653 0.97061 0.7382 0.0
O166 O 0.3228 0.89289 0.67259 0.0
O167 O 0.35072 0.92466 0.70566 0.0
O168 O 0.46356 0.33705 0.99718 0.0
Mg169 Mg 0.43377 0.31185 0.03175 0.0
O170 O 0.468 0.36975 0.02799 0.0
Mg171 Mg 0.43953 0.35852 0.08185 0.0
O172 O 0.43885 0.32405 0.09121 0.0
O173 O 0.43603 0.28957 0.07563 0.0
O174 O 0.41026 0.34489 0.13572 0.0
O175 O 0.46972 0.37498 0.13201 0.0
Mg176 Mg 0.43381 0.39812 0.13082 0.0
O177 O 0.44093 0.39406 0.07076 0.0
O178 O 0.39923 0.37168 0.14585 0.0
O179 O 0.46175 0.39942 0.1685 0.0
O180 O 0.43849 0.42538 0.09092 0.0
C181 C 0.39621 0.32345 0.01112 0.0
C182 C 0.47408 0.35956 1.00021 0.0
C183 C 0.43933 0.30538 0.10321 0.0
C184 C 0.39598 0.35099 0.1514 0.0
C185 C 0.47391 0.38922 0.16259 0.0
C186 C 0.44223 0.41409 0.06149 0.0
O187 O 0.40103 0.30679 0.01057 0.0
O188 O 0.40877 0.34238 0.03233 0.0
O189 O 0.11678 0.46586 0.33006 0.0
Mg190 Mg 0.10655 0.4345 0.36778 0.0
O191 O 0.10638 0.48586 0.3737 0.0
Mg192 Mg 0.08477 0.45874 0.42523 0.0
O193 O 0.1118 0.44666 0.42743 0.0
O194 O 0.13098 0.42947 0.40124 0.0
O195 O 0.06188 0.42971 0.47516 0.0
O196 O 0.10606 0.4859 0.47911 0.0
Mg197 Mg 0.04773 0.47206 0.47941 0.0
O198 O 0.05941 0.47162 0.42226 0.0
O199 O 0.03278 0.43588 0.49721 0.0
O200 O 0.08036 0.49453 0.51031 0.0
O201 O 0.03314 0.48288 0.42981 0.0
C202 C 0.0571 0.41289 0.35604 0.0
C203 C 0.1157 0.48441 0.33938 0.0
C204 C 0.12794 0.4408 0.43145 0.0
C205 C 0.04261 0.42316 0.49543 0.0
C206 C 0.10099 0.49704 0.50665 0.0
C207 C 0.04627 0.47871 0.40524 0.0
O208 O 0.07196 0.40583 0.35927 0.0
O209 O 0.06113 0.43228 0.37317 0.0
O210 O 0.6525 0.12001 0.67658 0.0
Mg211 Mg 0.67151 0.10827 0.71572 0.0
O212 O 0.61858 0.10217 0.71206 0.0
Mg213 Mg 0.62357 0.08022 0.764 0.0
O214 O 0.6614 0.10948 0.77544 0.0
O215 O 0.69858 0.13123 0.75338 0.0
O216 O 0.62949 0.05825 0.81513 0.0
O217 O 0.61251 0.09883 0.81511 0.0
Mg218 Mg 0.57319 0.04076 0.81103 0.0
O219 O 0.58607 0.05186 0.75307 0.0
O220 O 0.59504 0.02791 0.83639 0.0
O221 O 0.57687 0.07213 0.83984 0.0
O222 O 0.54916 0.02352 0.76144 0.0
C223 C 0.65016 0.05922 0.69663 0.0
C224 C 0.63123 0.11547 0.68203 0.0
C225 C 0.6829 0.12617 0.78214 0.0
C226 C 0.61759 0.03918 0.83628 0.0
C227 C 0.59446 0.09319 0.83848 0.0
C228 C 0.56606 0.03717 0.73653 0.0
O229 O 0.6708 0.07679 0.70014 0.0
O230 O 0.63264 0.05952 0.71405 0.0
O231 O 0.4982 0.63397 0.03213 0.0
Mg232 Mg 0.53438 0.64937 0.04418 0.0
O233 O 0.5074 0.60668 0.04679 0.0
Mg234 Mg 0.53943 0.624 0.09792 0.0
O235 O 0.54653 0.66364 0.10247 0.0
O236 O 0.54858 0.6843 0.0443 0.0
O237 O 0.56973 0.63621 0.14886 0.0
O238 O 0.51036 0.61356 0.15031 0.0
Mg239 Mg 0.53272 0.57678 0.15639 0.0
O240 O 0.535 0.58833 0.09807 0.0
O241 O 0.56634 0.60337 0.17887 0.0
O242 O 0.50318 0.57919 0.17948 0.0
O243 O 0.53001 0.55287 0.10803 0.0
C244 C 0.56985 0.63985 0.01053 0.0
C245 C 0.49342 0.61272 0.02924 0.0
C246 C 0.55174 0.68352 0.08387 0.0
C247 C 0.57734 0.62579 0.17347 0.0
C248 C 0.49855 0.59597 0.17514 0.0
C249 C 0.533 0.56941 0.08232 0.0
O250 O 0.55472 0.64518 0.99803 0.0
O251 O 0.56902 0.6331 0.04817 0.0
H252 H 0.41861 0.13612 0.20348 0.0
H253 H 0.42805 0.17229 0.16597 0.0
H254 H 0.50246 0.19984 0.19111 0.0
H255 H 0.49276 0.16335 0.22903 0.0
H256 H 0.485 0.22215 0.23563 0.0
H257 H 0.4835 0.2042 0.09139 0.0
H258 H 0.46922 0.18074 0.02657 0.0
H259 H 0.40372 0.18142 0.03564 0.0
H260 H 0.41741 0.20458 0.10079 0.0
H261 H 0.48315 0.32603 0.13633 0.0
H262 H 0.49505 0.30024 0.1716 0.0
H263 H 0.42175 0.25004 0.19762 0.0
H264 H 0.40991 0.27566 0.16204 0.0
H265 H 0.44977 0.24546 0.12032 0.0
H266 H 0.44695 0.25435 0.27009 0.0
H267 H 0.45899 0.27592 0.33705 0.0
H268 H 0.53033 0.29038 0.31831 0.0
H269 H 0.51877 0.26917 0.25083 0.0
C270 C 0.43708 0.14916 0.19826 0.0
C271 C 0.45497 0.14736 0.21938 0.0
C272 C 0.44255 0.16995 0.17684 0.0
C273 C 0.46596 0.18902 0.17664 0.0
C274 C 0.48428 0.1854 0.1913 0.0
C275 C 0.47876 0.16448 0.21263 0.0
C276 C 0.46965 0.21334 0.17364 0.0
C277 C 0.47801 0.22764 0.20972 0.0
C278 C 0.45991 0.22014 0.14047 0.0
C279 C 0.45154 0.20617 0.10112 0.0
C280 C 0.46599 0.19924 0.07973 0.0
C281 C 0.458 0.186 0.04287 0.0
C282 C 0.43558 0.1796 0.027 0.0
C283 C 0.4211 0.18643 0.04792 0.0
C284 C 0.42901 0.19968 0.08478 0.0
C285 C 0.46977 0.31047 0.15272 0.0
C286 C 0.44564 0.30226 0.14552 0.0
C287 C 0.4766 0.29564 0.17259 0.0
C288 C 0.45918 0.27302 0.1859 0.0
C289 C 0.4354 0.26743 0.18717 0.0
C290 C 0.42863 0.28219 0.16715 0.0
C291 C 0.46407 0.2533 0.18283 0.0
C292 C 0.45741 0.24018 0.14549 0.0
C293 C 0.47503 0.24741 0.21494 0.0
C294 C 0.4821 0.26056 0.25504 0.0
C295 C 0.46529 0.26245 0.27989 0.0
C296 C 0.472 0.27452 0.31805 0.0
C297 C 0.49544 0.28462 0.33183 0.0
C298 C 0.5122 0.28262 0.30752 0.0
C299 C 0.50558 0.27058 0.26933 0.0
H300 H 0.5006 0.29392 0.36142 0.0
H301 H 0.42942 0.16934 0.99847 0.0
H302 H 0.328 0.48541 0.54255 0.0
H303 H 0.31066 0.50319 0.49706 0.0
H304 H 0.24838 0.43428 0.48156 0.0
H305 H 0.26556 0.41679 0.52698 0.0
H306 H 0.25307 0.46526 0.41734 0.0
H307 H 0.25391 0.46404 0.57869 0.0
H308 H 0.2784 0.47691 0.64282 0.0
H309 H 0.31591 0.5485 0.59631 0.0
H310 H 0.29164 0.53594 0.5319 0.0
H311 H 0.145 0.41876 0.48007 0.0
H312 H 0.1867 0.43728 0.49942 0.0
H313 H 0.19638 0.50607 0.46714 0.0
H314 H 0.15425 0.48756 0.44902 0.0
H315 H 0.22997 0.49755 0.53782 0.0
H316 H 0.20738 0.49284 0.39108 0.0
H317 H 0.17852 0.47312 0.33408 0.0
H318 H 0.18133 0.40916 0.35437 0.0
H319 H 0.20985 0.42837 0.412 0.0
C320 C 0.31133 0.4739 0.52702 0.0
C321 C 0.29783 0.44986 0.53835 0.0
C322 C 0.30138 0.48411 0.50127 0.0
C323 C 0.27797 0.47017 0.48706 0.0
C324 C 0.26642 0.44542 0.49242 0.0
C325 C 0.27621 0.43535 0.5184 0.0
C326 C 0.2628 0.48072 0.47869 0.0
C327 C 0.2486 0.47337 0.44275 0.0
C328 C 0.257 0.49143 0.51181 0.0
C329 C 0.27106 0.49911 0.55077 0.0
C330 C 0.26732 0.48253 0.58238 0.0
C331 C 0.28119 0.48974 0.61864 0.0
C332 C 0.29871 0.5135 0.62362 0.0
C333 C 0.30235 0.53011 0.5924 0.0
C334 C 0.28854 0.52297 0.55604 0.0
C335 C 0.15561 0.43797 0.48 0.0
C336 C 0.14668 0.45177 0.46279 0.0
C337 C 0.17946 0.44855 0.49074 0.0
C338 C 0.19456 0.47289 0.48356 0.0
C339 C 0.18492 0.48724 0.4727 0.0
C340 C 0.16082 0.47665 0.46267 0.0
C341 C 0.21992 0.48119 0.47722 0.0
C342 C 0.23557 0.49161 0.51066 0.0
C343 C 0.22707 0.47335 0.44169 0.0
C344 C 0.21078 0.46208 0.40577 0.0
C345 C 0.20182 0.47457 0.38338 0.0
C346 C 0.18551 0.46347 0.351 0.0
C347 C 0.17814 0.43992 0.34055 0.0
C348 C 0.1871 0.42743 0.36241 0.0
C349 C 0.20338 0.43843 0.39488 0.0
H350 H 0.16545 0.43134 0.31556 0.0
H351 H 0.30946 0.51905 0.65167 0.0
H352 H 0.83727 0.32934 0.85763 0.0
H353 H 0.80492 0.30828 0.80792 0.0
H354 H 0.81484 0.24741 0.81645 0.0
H355 H 0.84756 0.26876 0.86431 0.0
H356 H 0.78777 0.24227 0.75181 0.0
H357 H 0.78785 0.26277 0.9074 0.0
H358 H 0.79875 0.29463 0.95951 0.0
H359 H 0.76439 0.32397 0.88529 0.0
H360 H 0.75339 0.29229 0.83277 0.0
H361 H 0.7171 0.13992 0.8409 0.0
H362 H 0.74362 0.18234 0.8507 0.0
H363 H 0.69048 0.19659 0.80007 0.0
H364 H 0.66352 0.15396 0.79185 0.0
H365 H 0.7306 0.2333 0.8631 0.0
H366 H 0.72023 0.19791 0.71895 0.0
H367 H 0.71493 0.16555 0.67167 0.0
H368 H 0.77274 0.16305 0.73183 0.0
H369 H 0.77863 0.1957 0.77876 0.0
C370 C 0.83376 0.31222 0.84617 0.0
C371 C 0.84433 0.3003 0.86518 0.0
C372 C 0.81503 0.30005 0.81813 0.0
C373 C 0.80663 0.27585 0.81051 0.0
C374 C 0.82059 0.2659 0.82264 0.0
C375 C 0.83932 0.27807 0.85022 0.0
C376 C 0.7811 0.25911 0.80379 0.0
C377 C 0.77492 0.24072 0.77505 0.0
C378 C 0.76421 0.25696 0.8342 0.0
C379 C 0.76984 0.27529 0.86639 0.0
C380 C 0.78249 0.27595 0.90249 0.0
C381 C 0.78875 0.29399 0.93195 0.0
C382 C 0.78226 0.31131 0.92571 0.0
C383 C 0.7694 0.31055 0.89008 0.0
C384 C 0.76313 0.29256 0.86049 0.0
C385 C 0.71035 0.15194 0.83526 0.0
C386 C 0.6887 0.14396 0.81456 0.0
C387 C 0.72566 0.17621 0.8401 0.0
C388 C 0.71919 0.19239 0.82442 0.0
C389 C 0.69579 0.18425 0.81172 0.0
C390 C 0.68028 0.15985 0.8077 0.0
C391 C 0.7381 0.21628 0.81253 0.0
C392 C 0.74272 0.23559 0.83788 0.0
C393 C 0.7538 0.21916 0.77954 0.0
C394 C 0.74985 0.19917 0.75216 0.0
C395 C 0.73178 0.19043 0.72198 0.0
C396 C 0.7288 0.17218 0.69507 0.0
C397 C 0.74357 0.16233 0.69861 0.0
C398 C 0.76139 0.17075 0.72898 0.0
C399 C 0.76466 0.18922 0.75552 0.0
H400 H 0.74111 0.14809 0.67798 0.0
H401 H 0.7872 0.32532 0.94847 0.0
H402 H 0.58264 0.72839 0.06075 0.0
H403 H 0.57928 0.76266 0.08099 0.0
H404 H 0.53051 0.72136 0.17936 0.0
H405 H 0.53349 0.68669 0.15837 0.0
H406 H 0.51039 0.73666 0.12276 0.0
H407 H 0.58316 0.77155 0.20055 0.0
H408 H 0.62561 0.7866 0.21412 0.0
H409 H 0.64412 0.83663 0.11333 0.0
H410 H 0.60175 0.82166 0.09877 0.0
H411 H 0.51266 0.81434 0.26187 0.0
H412 H 0.50353 0.78541 0.20728 0.0
H413 H 0.54493 0.8418 0.11952 0.0
H414 H 0.55403 0.87108 0.17504 0.0
H415 H 0.56849 0.82131 0.14876 0.0
H416 H 0.49314 0.79208 0.08932 0.0
H417 H 0.45069 0.77911 0.08731 0.0
H418 H 0.43543 0.71868 0.16383 0.0
H419 H 0.47799 0.73181 0.1679 0.0
C420 C 0.57208 0.72699 0.08796 0.0
C421 C 0.55794 0.70498 0.1076 0.0
C422 C 0.57014 0.74655 0.09943 0.0
C423 C 0.55425 0.74429 0.131 0.0
C424 C 0.54261 0.7232 0.15446 0.0
C425 C 0.54456 0.70355 0.14291 0.0
C426 C 0.54703 0.76237 0.1347 0.0
C427 C 0.52294 0.75518 0.1291 0.0
C428 C 0.56374 0.78661 0.14015 0.0
C429 C 0.58925 0.79522 0.14815 0.0
C430 C 0.59626 0.78554 0.1809 0.0
C431 C 0.62032 0.79412 0.18888 0.0
C432 C 0.63755 0.81249 0.16449 0.0
C433 C 0.63075 0.82235 0.13211 0.0
C434 C 0.60672 0.81383 0.12399 0.0
C435 C 0.51882 0.82056 0.23037 0.0
C436 C 0.53495 0.84451 0.22256 0.0
C437 C 0.5132 0.80404 0.19878 0.0
C438 C 0.52436 0.81144 0.15972 0.0
C439 C 0.53653 0.8358 0.14978 0.0
C440 C 0.54198 0.85246 0.18152 0.0
C441 C 0.53146 0.79556 0.1396 0.0
C442 C 0.55577 0.80296 0.14144 0.0
C443 C 0.51481 0.77146 0.13186 0.0
C444 C 0.48895 0.76297 0.12876 0.0
C445 C 0.48081 0.77607 0.10592 0.0
C446 C 0.45664 0.76867 0.10443 0.0
C447 C 0.44028 0.74796 0.12514 0.0
C448 C 0.4481 0.73467 0.1476 0.0
C449 C 0.47229 0.74211 0.14953 0.0
H450 H 0.42157 0.74225 0.12388 0.0
H451 H 0.65616 0.81914 0.17077 0.0
H452 H 0.71568 0.58047 0.5648 0.0
H453 H 0.74878 0.58427 0.52496 0.0
H454 H 0.7013 0.52264 0.45216 0.0
H455 H 0.66817 0.51789 0.49514 0.0
H456 H 0.72546 0.51148 0.49687 0.0
H457 H 0.74972 0.57861 0.40894 0.0
H458 H 0.75887 0.61884 0.38769 0.0
H459 H 0.81365 0.64928 0.48073 0.0
H460 H 0.80462 0.60931 0.50305 0.0
H461 H 0.83021 0.51126 0.43037 0.0
H462 H 0.79191 0.50554 0.45113 0.0
H463 H 0.82654 0.5667 0.53205 0.0
H464 H 0.86502 0.57363 0.50774 0.0
H465 H 0.80741 0.57591 0.46972 0.0
H466 H 0.77888 0.50645 0.56101 0.0
H467 H 0.76848 0.46538 0.57907 0.0
H468 H 0.72105 0.43905 0.47415 0.0
H469 H 0.73142 0.47987 0.45504 0.0
C470 C 0.71212 0.56872 0.53838 0.0
C471 C 0.68977 0.54855 0.53353 0.0
C472 C 0.73118 0.57091 0.51526 0.0
C473 C 0.72774 0.55324 0.48626 0.0
C474 C 0.70443 0.53614 0.47512 0.0
C475 C 0.68542 0.53355 0.49929 0.0
C476 C 0.74742 0.54834 0.47922 0.0
C477 C 0.74331 0.52552 0.48977 0.0
C478 C 0.77085 0.56666 0.47122 0.0
C479 C 0.77642 0.59085 0.45771 0.0
C480 C 0.76362 0.59386 0.42506 0.0
C481 C 0.76881 0.61664 0.4128 0.0
C482 C 0.78683 0.63659 0.43284 0.0
C483 C 0.79972 0.63382 0.46517 0.0
C484 C 0.79461 0.61109 0.47757 0.0
C485 C 0.82958 0.52251 0.45475 0.0
C486 C 0.85028 0.54319 0.4668 0.0
C487 C 0.80756 0.51928 0.46657 0.0
C488 C 0.80634 0.53616 0.49218 0.0
C489 C 0.82715 0.55379 0.51143 0.0
C490 C 0.84916 0.55758 0.49814 0.0
C491 C 0.78546 0.5395 0.48953 0.0
C492 C 0.78948 0.56195 0.47659 0.0
C493 C 0.76195 0.52079 0.49486 0.0
C494 C 0.75609 0.49628 0.5064 0.0
C495 C 0.76641 0.49193 0.54156 0.0
C496 C 0.76048 0.46867 0.55203 0.0
C497 C 0.74414 0.44965 0.52772 0.0
C498 C 0.73371 0.4538 0.49291 0.0
C499 C 0.7396 0.47698 0.48228 0.0
H500 H 0.73944 0.43166 0.53578 0.0
H501 H 0.7908 0.65421 0.42331 0.0
H502 H 0.28694 0.86935 0.81387 0.0
H503 H 0.25135 0.83586 0.84198 0.0
H504 H 0.28926 0.79767 0.85965 0.0
H505 H 0.32472 0.83116 0.83023 0.0
H506 H 0.25961 0.78085 0.79459 0.0
H507 H 0.25325 0.79977 0.9366 0.0
H508 H 0.25362 0.82442 0.99542 0.0
H509 H 0.19623 0.8295 0.93957 0.0
H510 H 0.19571 0.80516 0.88007 0.0
H511 H 0.16406 0.67603 0.87078 0.0
H512 H 0.19731 0.70736 0.83314 0.0
H513 H 0.15668 0.74228 0.81028 0.0
H514 H 0.12353 0.71097 0.84881 0.0
H515 H 0.18718 0.76142 0.87503 0.0
H516 H 0.19245 0.7407 0.73434 0.0
H517 H 0.19182 0.71538 0.67648 0.0
H518 H 0.25098 0.71288 0.73063 0.0
H519 H 0.25177 0.73789 0.7892 0.0
C520 C 0.28821 0.85461 0.82699 0.0
C521 C 0.30792 0.85209 0.81816 0.0
C522 C 0.26768 0.83524 0.84269 0.0
C523 C 0.26744 0.81389 0.85108 0.0
C524 C 0.28899 0.81383 0.85227 0.0
C525 C 0.3094 0.83316 0.83613 0.0
C526 C 0.24505 0.79124 0.84574 0.0
C527 C 0.24384 0.77628 0.81282 0.0
C528 C 0.2243 0.78606 0.86789 0.0
C529 C 0.22459 0.80078 0.90364 0.0
C530 C 0.24085 0.80632 0.93663 0.0
C531 C 0.24105 0.8202 0.97016 0.0
C532 C 0.22499 0.82857 0.97118 0.0
C533 C 0.20866 0.82302 0.93872 0.0
C534 C 0.20839 0.80915 0.90511 0.0
C535 C 0.16155 0.68934 0.8547 0.0
C536 C 0.14193 0.69193 0.86401 0.0
C537 C 0.18068 0.70742 0.83324 0.0
C538 C 0.17977 0.72769 0.82078 0.0
C539 C 0.15784 0.72699 0.82064 0.0
C540 C 0.13879 0.70895 0.84237 0.0
C541 C 0.20173 0.7509 0.82404 0.0
C542 C 0.2029 0.76601 0.85662 0.0
C543 C 0.22243 0.75614 0.80167 0.0
C544 C 0.22206 0.74108 0.7664 0.0
C545 C 0.20521 0.7346 0.73415 0.0
C546 C 0.20485 0.72033 0.70115 0.0
C547 C 0.22132 0.71249 0.69992 0.0
C548 C 0.23823 0.71896 0.73163 0.0
C549 C 0.23866 0.73322 0.76471 0.0
H550 H 0.22101 0.70144 0.67436 0.0
H551 H 0.22518 0.83931 0.99717 0.0
H552 H 0.55955 0.10379 0.85105 0.0
H553 H 0.55441 0.12292 0.91299 0.0
H554 H 0.6229 0.13795 0.95846 0.0
H555 H 0.62859 0.11977 0.89541 0.0
H556 H 0.5727 0.10059 1.00089 0.0
H557 H 0.62501 0.1811 0.95939 0.0
H558 H 0.6406 0.21594 0.91273 0.0
H559 H 0.5741 0.21478 0.91881 0.0
H560 H 0.55795 0.17964 0.96498 0.0
H561 H 0.54542 0.11609 0.1974 0.0
H562 H 0.57294 0.13194 0.13856 0.0
H563 H 0.52208 0.14274 0.06951 0.0
H564 H 0.49485 0.12769 0.12921 0.0
H565 H 0.56954 0.17281 0.0407 0.0
H566 H 0.51479 0.09011 0.06642 0.0
H567 H 0.49541 0.05345 0.10871 0.0
H568 H 0.56237 0.05651 0.12576 0.0
H569 H 0.58221 0.09341 0.08395 0.0
C570 C 0.57397 0.11223 0.87329 0.0
C571 C 0.59449 0.11045 0.86848 0.0
C572 C 0.57106 0.1232 0.90858 0.0
C573 C 0.58836 0.13204 0.94011 0.0
C574 C 0.60956 0.13166 0.93408 0.0
C575 C 0.61279 0.12128 0.8981 0.0
C576 C 0.58164 0.13596 0.9824 0.0
C577 C 0.57264 0.11665 0.01005 0.0
C578 C 0.58063 0.15653 0.9934 0.0
C579 C 0.59016 0.17751 0.96526 0.0
C580 C 0.61358 0.18804 0.95034 0.0
C581 C 0.62256 0.20792 0.92409 0.0
C582 C 0.60833 0.21752 0.9127 0.0
C583 C 0.5851 0.2073 0.92761 0.0
C584 C 0.57603 0.18741 0.95385 0.0
C585 C 0.54077 0.12331 0.17075 0.0
C586 C 0.51806 0.12068 0.16776 0.0
C587 C 0.55644 0.1322 0.13694 0.0
C588 C 0.5493 0.13789 0.09917 0.0
C589 C 0.52795 0.13839 0.09825 0.0
C590 C 0.51241 0.12987 0.1325 0.0
C591 C 0.56094 0.13749 0.05931 0.0
C592 C 0.5703 0.15708 0.03194 0.0
C593 C 0.56186 0.11692 0.04771 0.0
C594 C 0.55002 0.09468 0.07263 0.0
C595 C 0.52541 0.08307 0.07949 0.0
C596 C 0.51433 0.06223 0.1033 0.0
C597 C 0.52767 0.05272 0.12008 0.0
C598 C 0.55209 0.06395 0.11288 0.0
C599 C 0.56325 0.08482 0.08912 0.0
H600 H 0.51907 0.03659 0.13854 0.0
H601 H 0.61532 0.23293 0.89241 0.0
H602 H 0.45273 0.56112 0.18205 0.0
H603 H 0.42666 0.55425 0.24206 0.0
H604 H 0.47852 0.62136 0.29458 0.0
H605 H 0.50425 0.62875 0.23354 0.0
H606 H 0.46591 0.57215 0.33507 0.0
H607 H 0.43512 0.62166 0.2902 0.0
H608 H 0.41603 0.63653 0.24156 0.0
H609 H 0.35275 0.56822 0.24187 0.0
H610 H 0.37161 0.55279 0.29002 0.0
H611 H 0.41652 0.53787 0.52629 0.0
H612 H 0.42913 0.56691 0.46947 0.0
H613 H 0.37138 0.51619 0.3932 0.0
H614 H 0.35809 0.48747 0.45097 0.0
H615 H 0.38731 0.56346 0.367 0.0
H616 H 0.41901 0.51179 0.39527 0.0
H617 H 0.43641 0.49339 0.43998 0.0
H618 H 0.49658 0.56205 0.46463 0.0
H619 H 0.47932 0.58088 0.42046 0.0
C620 C 0.45798 0.57493 0.20536 0.0
C621 C 0.48035 0.59553 0.20315 0.0
C622 C 0.44309 0.57101 0.23959 0.0
C623 C 0.4506 0.58735 0.27262 0.0
C624 C 0.47224 0.60873 0.26906 0.0
C625 C 0.48689 0.61295 0.2342 0.0
C626 C 0.43877 0.57944 0.31384 0.0
C627 C 0.44905 0.57089 0.34254 0.0
C628 C 0.41629 0.57688 0.32262 0.0
C629 C 0.40491 0.58599 0.2934 0.0
C630 C 0.41724 0.60971 0.27951 0.0
C631 C 0.40643 0.61827 0.25212 0.0
C632 C 0.38322 0.60331 0.23853 0.0
C633 C 0.37075 0.57977 0.25238 0.0
C634 C 0.38149 0.57112 0.27977 0.0
C635 C 0.40568 0.53348 0.49836 0.0
C636 C 0.3864 0.5105 0.49284 0.0
C637 C 0.41297 0.55003 0.46575 0.0
C638 C 0.40162 0.54347 0.42664 0.0
C639 C 0.38047 0.52162 0.423 0.0
C640 C 0.37285 0.50521 0.45607 0.0
C641 C 0.41468 0.55648 0.38833 0.0
C642 C 0.4045 0.56543 0.35996 0.0
C643 C 0.43713 0.55901 0.37901 0.0
C644 C 0.44776 0.54776 0.40502 0.0
C645 C 0.43588 0.52297 0.41045 0.0
C646 C 0.44572 0.51246 0.43565 0.0
C647 C 0.46755 0.52655 0.45526 0.0
C648 C 0.47964 0.55117 0.44951 0.0
C649 C 0.46984 0.56177 0.42439 0.0
H650 H 0.47513 0.51839 0.4748 0.0
H651 H 0.37487 0.60998 0.21735 0.0
H652 H 0.85308 0.3581 0.7785 0.0
H653 H 0.83563 0.36943 0.7211 0.0
H654 H 0.84048 0.42686 0.79577 0.0
H655 H 0.85852 0.41602 0.85244 0.0
H656 H 0.80151 0.38496 0.69746 0.0
H657 H 0.87812 0.47601 0.7464 0.0
H658 H 0.9152 0.49273 0.78743 0.0
H659 H 0.92245 0.43227 0.75709 0.0
H660 H 0.88558 0.41536 0.71569 0.0
H661 H 0.86253 0.50301 0.55992 0.0
H662 H 0.84381 0.48016 0.62362 0.0
H663 H 0.83719 0.41726 0.56569 0.0
H664 H 0.85643 0.4402 0.50265 0.0
H665 H 0.87151 0.4623 0.65927 0.0
H666 H 0.79374 0.3688 0.619 0.0
H667 H 0.75734 0.35052 0.57613 0.0
H668 H 0.75366 0.41459 0.58378 0.0
H669 H 0.79011 0.43333 0.62608 0.0
C670 C 0.84904 0.3722 0.78354 0.0
C671 C 0.8572 0.38629 0.81969 0.0
C672 C 0.83913 0.37873 0.75063 0.0
C673 C 0.83727 0.39932 0.75385 0.0
C674 C 0.84196 0.41104 0.79252 0.0
C675 C 0.85214 0.40475 0.82503 0.0
C676 C 0.83666 0.41191 0.71535 0.0
C677 C 0.81676 0.40185 0.68896 0.0
C678 C 0.85654 0.434 0.70433 0.0
C679 C 0.87899 0.44434 0.72843 0.0
C680 C 0.88769 0.46636 0.74844 0.0
C681 C 0.90865 0.47584 0.77177 0.0
C682 C 0.92112 0.46352 0.77501 0.0
C683 C 0.91274 0.44176 0.75471 0.0
C684 C 0.8918 0.4322 0.73139 0.0
C685 C 0.85583 0.48403 0.56 0.0
C686 C 0.86077 0.47328 0.52642 0.0
C687 C 0.84527 0.471 0.59649 0.0
C688 C 0.83915 0.44699 0.5995 0.0
C689 C 0.84147 0.43564 0.564 0.0
C690 C 0.85243 0.44875 0.52789 0.0
C691 C 0.83622 0.43565 0.6412 0.0
C692 C 0.85587 0.44577 0.66808 0.0
C693 C 0.81632 0.41349 0.65189 0.0
C694 C 0.79476 0.40252 0.62542 0.0
C695 C 0.78519 0.379 0.61137 0.0
C696 C 0.76459 0.36859 0.58703 0.0
C697 C 0.75327 0.38145 0.57691 0.0
C698 C 0.76258 0.40475 0.59107 0.0
C699 C 0.78328 0.41532 0.61506 0.0
H700 H 0.73725 0.37332 0.55828 0.0
H701 H 0.9373 0.47087 0.79316 0.0
H702 H 0.37145 0.8679 0.86872 0.0
H703 H 0.37916 0.84724 0.92595 0.0
H704 H 0.454 0.89725 0.91669 0.0
H705 H 0.44647 0.91814 0.86053 0.0
H706 H 0.41257 0.82811 0.94541 0.0
H707 H 0.46924 0.9226 0.00914 0.0
H708 H 0.47197 0.96172 1.00136 0.0
H709 H 0.39707 0.92767 0.9782 0.0
H710 H 0.39386 0.88838 0.98652 0.0
H711 H 0.50834 0.86417 0.09091 0.0
H712 H 0.47792 0.84948 0.03633 0.0
H713 H 0.42781 0.84956 0.12427 0.0
H714 H 0.45806 0.86367 0.17904 0.0
H715 H 0.44523 0.88586 0.06224 0.0
H716 H 0.40557 0.80287 0.07191 0.0
H717 H 0.39886 0.76212 0.07774 0.0
H718 H 0.43403 0.77026 0.96023 0.0
H719 H 0.44096 0.8111 0.95363 0.0
C720 C 0.3896 0.87405 0.87814 0.0
C721 C 0.40834 0.89493 0.86075 0.0
C722 C 0.39397 0.86214 0.91066 0.0
C723 C 0.41712 0.87088 0.92578 0.0
C724 C 0.43599 0.89032 0.90562 0.0
C725 C 0.43164 0.90234 0.87371 0.0
C726 C 0.42156 0.86302 0.96678 0.0
C727 C 0.41958 0.84057 0.97117 0.0
C728 C 0.42982 0.879 1.00084 0.0
C729 C 0.43135 0.90257 0.99832 0.0
C730 C 0.45333 0.92348 0.00286 0.0
C731 C 0.45496 0.94567 0.99823 0.0
C732 C 0.43471 0.94717 0.98923 0.0
C733 C 0.41275 0.92648 0.98512 0.0
C734 C 0.41101 0.90425 0.98979 0.0
C735 C 0.49036 0.85936 0.09929 0.0
C736 C 0.48547 0.86496 0.13911 0.0
C737 C 0.47296 0.85106 0.06801 0.0
C738 C 0.45066 0.84869 0.0761 0.0
C739 C 0.44485 0.85114 0.1174 0.0
C740 C 0.46212 0.85906 0.1488 0.0
C741 C 0.43716 0.85117 0.04079 0.0
C742 C 0.43769 0.87297 0.03715 0.0
C743 C 0.42717 0.83435 0.00812 0.0
C744 C 0.42395 0.81016 0.01244 0.0
C745 C 0.41209 0.79608 0.04748 0.0
C746 C 0.40807 0.77289 0.05077 0.0
C747 C 0.41599 0.7636 0.01935 0.0
C748 C 0.42789 0.77747 0.98452 0.0
C749 C 0.43178 0.80062 0.9809 0.0
H750 H 0.41297 0.74568 0.02208 0.0
H751 H 0.43603 0.96437 0.98546 0.0
H752 H 0.46886 0.38609 0.2463 0.0
H753 H 0.50013 0.40035 0.299 0.0
H754 H 0.55228 0.41735 0.20208 0.0
H755 H 0.52061 0.40245 0.14889 0.0
H756 H 0.53966 0.39483 0.32549 0.0
H757 H 0.59503 0.47426 0.22649 0.0
H758 H 0.59292 0.49377 0.1614 0.0
H759 H 0.52011 0.47206 0.187 0.0
H760 H 0.52194 0.45272 0.25244 0.0
H761 H 0.61812 0.49229 0.47272 0.0
H762 H 0.60749 0.4644 0.41352 0.0
H763 H 0.54901 0.47538 0.38337 0.0
H764 H 0.55929 0.50278 0.44128 0.0
H765 H 0.57983 0.48264 0.31512 0.0
H766 H 0.54069 0.42619 0.43375 0.0
H767 H 0.5424 0.40573 0.49773 0.0
H768 H 0.58391 0.38116 0.43299 0.0
H769 H 0.58265 0.40172 0.36878 0.0
C770 C 0.48692 0.39221 0.23634 0.0
C771 C 0.49243 0.39344 0.19365 0.0
C772 C 0.50476 0.40014 0.26651 0.0
C773 C 0.52857 0.41 0.25457 0.0
C774 C 0.534 0.40969 0.21201 0.0
C775 C 0.51597 0.40127 0.18168 0.0
C776 C 0.54711 0.42463 0.28574 0.0
C777 C 0.549 0.41405 0.32292 0.0
C778 C 0.55966 0.44966 0.2823 0.0
C779 C 0.55858 0.46192 0.24398 0.0
C780 C 0.57863 0.47378 0.21824 0.0
C781 C 0.57748 0.48479 0.18133 0.0
C782 C 0.55638 0.48411 0.17003 0.0
C783 C 0.53643 0.47255 0.19576 0.0
C784 C 0.53752 0.4616 0.23276 0.0
C785 C 0.60284 0.48848 0.45367 0.0
C786 C 0.58972 0.50001 0.46151 0.0
C787 C 0.59686 0.47262 0.41985 0.0
C788 C 0.57764 0.46808 0.39369 0.0
C789 C 0.56411 0.47887 0.4027 0.0
C790 C 0.57003 0.49456 0.43602 0.0
C791 C 0.57134 0.45291 0.35578 0.0
C792 C 0.57169 0.46346 0.31717 0.0
C793 C 0.56114 0.42793 0.35797 0.0
C794 C 0.56187 0.41576 0.39671 0.0
C795 C 0.55038 0.41663 0.43331 0.0
C796 C 0.55122 0.40496 0.46957 0.0
C797 C 0.56334 0.39223 0.46948 0.0
C798 C 0.57459 0.39108 0.43307 0.0
C799 C 0.57381 0.40273 0.39676 0.0
H800 H 0.56395 0.3832 0.49757 0.0
H801 H 0.5555 0.49256 0.14137 0.0
H802 H 0.07481 0.55761 0.82245 0.0
H803 H 0.09493 0.5479 0.76806 0.0
H804 H 0.14601 0.62223 0.75285 0.0
H805 H 0.12623 0.63207 0.80867 0.0
H806 H 0.11902 0.59572 0.67779 0.0
H807 H 0.16866 0.59236 0.78385 0.0
H808 H 0.17787 0.58132 0.85233 0.0
H809 H 0.13581 0.50745 0.82118 0.0
H810 H 0.12603 0.51801 0.75276 0.0
H811 H 0.13735 0.54306 0.50355 0.0
H812 H 0.15298 0.56918 0.56482 0.0
H813 H 0.11472 0.50845 0.64593 0.0
H814 H 0.10038 0.48259 0.5852 0.0
H815 H 0.14989 0.53974 0.68769 0.0
H816 H 0.08924 0.54152 0.59962 0.0
H817 H 0.07422 0.54878 0.53348 0.0
H818 H 0.13069 0.62132 0.53347 0.0
H819 H 0.14618 0.61436 0.59942 0.0
C820 C 0.09064 0.57186 0.80818 0.0
C821 C 0.09895 0.59558 0.8197 0.0
C822 C 0.10218 0.56628 0.77725 0.0
C823 C 0.12203 0.58432 0.75657 0.0
C824 C 0.13083 0.60805 0.76871 0.0
C825 C 0.11958 0.61362 0.80058 0.0
C826 C 0.13141 0.57811 0.7193 0.0
C827 C 0.12654 0.58412 0.67982 0.0
C828 C 0.14063 0.5625 0.72211 0.0
C829 C 0.14655 0.55601 0.76316 0.0
C830 C 0.16124 0.57376 0.79169 0.0
C831 C 0.16658 0.56758 0.8305 0.0
C832 C 0.15742 0.5437 0.84111 0.0
C833 C 0.14291 0.52594 0.8129 0.0
C834 C 0.1375 0.53202 0.77406 0.0
C835 C 0.13351 0.53528 0.53458 0.0
C836 C 0.11784 0.51088 0.53988 0.0
C837 C 0.14211 0.55021 0.56961 0.0
C838 C 0.13438 0.54095 0.61012 0.0
C839 C 0.12092 0.5162 0.61524 0.0
C840 C 0.11275 0.50133 0.58043 0.0
C841 C 0.13648 0.55649 0.64614 0.0
C842 C 0.14334 0.55214 0.68543 0.0
C843 C 0.12837 0.57311 0.6434 0.0
C844 C 0.11902 0.57735 0.60402 0.0
C845 C 0.09849 0.55898 0.58536 0.0
C846 C 0.0899 0.56304 0.54795 0.0
C847 C 0.10154 0.58548 0.52921 0.0
C848 C 0.12174 0.60393 0.54795 0.0
C849 C 0.13044 0.59994 0.58532 0.0
H850 H 0.09487 0.5886 0.50024 0.0
H851 H 0.16157 0.53896 0.87117 0.0
H852 H 0.34771 0.9792 0.82567 0.0
H853 H 0.34133 -0.00085 0.88471 0.0
H854 H 0.33234 0.94237 0.96647 0.0
H855 H 0.33863 0.92231 0.90722 0.0
H856 H 0.30898 0.9738 0.99201 0.0
H857 H 0.38517 0.97526 0.96605 0.0
H858 H 0.41554 0.97723 0.91738 0.0
H859 H 0.42277 0.04108 0.86301 0.0
H860 H 0.39246 0.03947 0.91162 0.0
H861 H 0.37888 0.01685 0.17466 0.0
H862 H 0.35262 -0.00068 0.11484 0.0
H863 H 0.3902 0.06605 0.04871 0.0
H864 H 0.41696 0.08338 0.10865 0.0
H865 H 0.39422 0.03315 0.01004 0.0
H866 H 0.32793 0.03651 0.065 0.0
H867 H 0.29837 0.03188 0.11789 0.0
H868 H 0.27156 0.95664 0.1215 0.0
H869 H 0.30116 0.96083 0.06907 0.0
C870 C 0.34266 0.97016 0.85562 0.0
C871 C 0.3435 0.94921 0.86202 0.0
C872 C 0.3391 0.98162 0.88941 0.0
C873 C 0.33659 0.97233 0.92996 0.0
C874 C 0.33401 0.94969 0.93534 0.0
C875 C 0.33753 0.93818 0.90143 0.0
C876 C 0.34401 0.98876 0.96601 0.0
C877 C 0.32754 0.9869 0.99618 0.0
C878 C 0.36818 0.0059 0.97102 0.0
C879 C 0.38655 0.00718 0.94215 0.0
C880 C 0.39326 0.9897 0.94367 0.0
C881 C 0.41049 0.99078 0.91622 0.0
C882 C 0.42106 0.00926 0.88708 0.0
C883 C 0.41455 0.02678 0.88557 0.0
C884 C 0.39742 0.02584 0.91315 0.0
C885 C 0.38063 0.02812 0.14825 0.0
C886 C 0.39969 0.05147 0.14622 0.0
C887 C 0.36558 0.01809 0.11395 0.0
C888 C 0.36938 0.0313 0.07705 0.0
C889 C 0.38687 0.05551 0.07685 0.0
C890 C 0.40204 0.0655 0.11118 0.0
C891 C 0.35926 0.01863 0.03696 0.0
C892 C 0.37543 0.02084 0.0058 0.0
C893 C 0.33488 0.00167 0.0318 0.0
C894 C 0.31688 -0.00098 0.06315 0.0
C895 C 0.31584 0.01899 0.07724 0.0
C896 C 0.29905 0.01644 0.10713 0.0
C897 C 0.28311 0.99399 0.12307 0.0
C898 C 0.2839 0.97402 0.10909 0.0
C899 C 0.30065 0.97647 0.07921 0.0
H900 H 0.27014 0.99205 0.14623 0.0
H901 H 0.43429 0.00999 0.86566 0.0
H902 H 0.40536 0.33808 0.22632 0.0
H903 H 0.38135 0.33056 0.28906 0.0
H904 H 0.3238 0.3252 0.21351 0.0
H905 H 0.34858 0.33432 0.15107 0.0
H906 H 0.33558 0.35835 0.2654 0.0
H907 H 0.3196 0.27827 0.28393 0.0
H908 H 0.3296 0.24633 0.28823 0.0
H909 H 0.37617 0.28144 0.39166 0.0
H910 H 0.36674 0.31373 0.38769 0.0
H911 H 0.31098 0.39376 0.45547 0.0
H912 H 0.29967 0.36419 0.39914 0.0
H913 H 0.35778 0.35328 0.43398 0.0
H914 H 0.36755 0.38083 0.49112 0.0
H915 H 0.32965 0.31666 0.39868 0.0
H916 H 0.36076 0.40097 0.35994 0.0
H917 H 0.35806 0.43753 0.35521 0.0
H918 H 0.29159 0.39922 0.2905 0.0
H919 H 0.29385 0.36242 0.2952 0.0
C920 C 0.38714 0.33404 0.22293 0.0
C921 C 0.37872 0.33662 0.18394 0.0
C922 C 0.37332 0.32972 0.25895 0.0
C923 C 0.3506 0.3273 0.25635 0.0
C924 C 0.34124 0.32709 0.21654 0.0
C925 C 0.35531 0.33206 0.18074 0.0
C926 C 0.3391 0.33025 0.29456 0.0
C927 C 0.33364 0.34866 0.29421 0.0
C928 C 0.33702 0.31814 0.33265 0.0
C929 C 0.34241 0.29846 0.33547 0.0
C930 C 0.33203 0.27924 0.3075 0.0
C931 C 0.33761 0.26106 0.30989 0.0
C932 C 0.3535 0.26185 0.34019 0.0
C933 C 0.36382 0.28081 0.36825 0.0
C934 C 0.35831 0.29902 0.366 0.0
C935 C 0.32048 0.3841 0.45206 0.0
C936 C 0.3404 0.38983 0.47697 0.0
C937 C 0.3143 0.36747 0.4195 0.0
C938 C 0.32851 0.35714 0.41082 0.0
C939 C 0.34656 0.36096 0.43917 0.0
C940 C 0.35229 0.37694 0.47191 0.0
C941 C 0.32781 0.34574 0.36979 0.0
C942 C 0.33082 0.32569 0.36943 0.0
C943 C 0.32868 0.35693 0.33117 0.0
C944 C 0.32731 0.37897 0.32842 0.0
C945 C 0.34554 0.40038 0.34486 0.0
C946 C 0.34409 0.42111 0.3422 0.0
C947 C 0.32462 0.42067 0.3227 0.0
C948 C 0.30661 0.39951 0.30571 0.0
C949 C 0.30796 0.37872 0.30839 0.0
H950 H 0.32353 0.43674 0.32065 0.0
H951 H 0.35782 0.24779 0.34194 0.0
H952 H -0.0041 0.39299 0.50811 0.0
H953 H 0.97836 0.36383 0.56414 0.0
H954 H 0.04753 0.37513 0.59738 0.0
H955 H 0.06527 0.40447 0.54071 0.0
H956 H 0.97581 0.32318 0.59858 0.0
H957 H 0.052 0.38566 0.70265 0.0
H958 H 0.08594 0.42667 0.70274 0.0
H959 H 0.0465 0.44962 0.62695 0.0
H960 H 0.01226 0.40887 0.62701 0.0
H961 H 0.95784 0.34461 0.83872 0.0
H962 H 0.9802 0.33709 0.78495 0.0
H963 H 0.93116 0.33434 0.69103 0.0
H964 H 0.90918 0.34205 0.74447 0.0
H965 H 0.00131 0.37164 0.72794 0.0
H966 H 0.93234 0.3073 0.60503 0.0
H967 H 0.896 0.26812 0.60454 0.0
H968 H 0.91701 0.24971 0.71971 0.0
H969 H 0.95368 0.28863 0.72065 0.0
C970 C 0.00727 0.38864 0.52641 0.0
C971 C 0.03195 0.40122 0.52066 0.0
C972 C -0.0028 0.37182 0.55823 0.0
C973 C 0.01167 0.36755 0.58531 0.0
C974 C 0.03608 0.37825 0.57688 0.0
C975 C 0.04618 0.39498 0.54453 0.0
C976 C 0.00169 0.35622 0.62627 0.0
C977 C 0.98149 0.3335 0.62716 0.0
C978 C 0.00952 0.36954 0.6637 0.0
C979 C 0.02976 0.3942 0.66438 0.0
C980 C 0.05059 0.3995 0.68614 0.0
C981 C 0.06986 0.42269 0.68617 0.0
C982 C 0.06841 0.44072 0.66472 0.0
C983 C 0.04763 0.43564 0.64345 0.0
C984 C 0.0283 0.41251 0.64346 0.0
C985 C 0.95116 0.34101 0.80694 0.0
C986 C 0.93177 0.34368 0.79553 0.0
C987 C 0.96401 0.3369 0.77621 0.0
C988 C 0.9574 0.33514 0.7339 0.0
C989 C 0.93644 0.3352 0.72344 0.0
C990 C 0.92383 0.33961 0.75398 0.0
C991 C 0.97459 0.33891 0.7001 0.0
C992 C -0.00383 0.36048 0.70031 0.0
C993 C 0.96776 0.32464 0.66371 0.0
C994 C 0.94584 0.30098 0.6629 0.0
C995 C 0.92936 0.29484 0.63008 0.0
C996 C 0.90865 0.27268 0.62978 0.0
C997 C 0.90419 0.25644 0.66208 0.0
C998 C 0.92046 0.26232 0.69474 0.0
C999 C 0.9412 0.28446 0.6952 0.0
H1000 H 0.88814 0.23931 0.6618 0.0
H1001 H 0.08336 0.45863 0.66467 0.0
H1002 H 0.58865 0.91915 0.10925 0.0
H1003 H 0.61804 0.94041 0.05502 0.0
H1004 H 0.65274 0.00172 0.1354 0.0
H1005 H 0.62264 0.98062 0.18898 0.0
H1006 H 0.63321 0.01066 0.074 0.0
H1007 H 0.68572 0.98128 0.08042 0.0
H1008 H 0.7002 0.95289 0.08796 0.0
H1009 H 0.66322 0.9171 0.97606 0.0
H1010 H 0.64817 0.945 0.96811 0.0
H1011 H 0.65872 0.06629 0.87899 0.0
H1012 H 0.67337 0.05332 0.93845 0.0
H1013 H 0.61915 0.98077 0.91634 0.0
H1014 H 0.60405 0.99365 0.85777 0.0
H1015 H 0.66509 0.98789 0.95284 0.0
H1016 H 0.60098 0.00707 0.97105 0.0
H1017 H 0.58471 0.03404 0.96357 0.0
H1018 H 0.6439 0.08802 0.0318 0.0
H1019 H 0.66071 0.06142 0.03902 0.0
C1020 C 0.60343 0.93662 0.11625 0.0
C1021 C 0.60342 0.9484 0.1529 0.0
C1022 C 0.62034 0.94884 0.0852 0.0
C1023 C 0.63745 0.9729 0.09076 0.0
C1024 C 0.63962 0.98326 0.13025 0.0
C1025 C 0.62249 0.97117 0.16097 0.0
C1026 C 0.64715 0.98836 0.05322 0.0
C1027 C 0.64118 0.00627 0.04825 0.0
C1028 C 0.65705 0.98245 0.01904 0.0
C1029 C 0.66574 0.96528 0.02375 0.0
C1030 C 0.68048 0.96724 0.05758 0.0
C1031 C 0.68884 0.95124 0.06189 0.0
C1032 C 0.68263 0.93319 0.03252 0.0
C1033 C 0.66804 0.93111 0.99877 0.0
C1034 C 0.65963 0.94706 0.99429 0.0
C1035 C 0.65049 0.04749 0.88592 0.0
C1036 C 0.63001 0.03097 0.86442 0.0
C1037 C 0.65896 0.04011 0.91969 0.0
C1038 C 0.64728 0.01612 0.9317 0.0
C1039 C 0.6285 -0.00067 0.90729 0.0
C1040 C 0.61972 0.00673 0.87418 0.0
C1041 C 0.6504 0.00921 0.97427 0.0
C1042 C 0.65841 0.99291 0.9797 0.0
C1043 C 0.64231 0.01644 0.00919 0.0
C1044 C 0.63227 0.03244 0.00499 0.0
C1045 C 0.61063 0.02478 0.98407 0.0
C1046 C 0.60129 0.03997 0.97994 0.0
C1047 C 0.61331 0.06277 0.99705 0.0
C1048 C 0.63466 0.07039 0.01842 0.0
C1049 C 0.64412 0.05528 0.02251 0.0
H1050 H 0.60604 0.07451 0.99388 0.0
H1051 H 0.68913 0.92084 0.0359 0.0
H1052 H 0.66621 0.64238 0.51736 0.0
H1053 H 0.6715 0.66377 0.45187 0.0
H1054 H 0.6717 0.60658 0.38431 0.0
H1055 H 0.66654 0.58515 0.45001 0.0
H1056 H 0.69648 0.65919 0.34346 0.0
H1057 H 0.61873 0.58996 0.38638 0.0
H1058 H 0.58764 0.56583 0.43787 0.0
H1059 H 0.58879 0.62853 0.48355 0.0
H1060 H 0.61962 0.65294 0.43164 0.0
H1061 H 0.61489 0.6189 0.17481 0.0
H1062 H 0.64434 0.63087 0.23043 0.0
H1063 H 0.61772 0.67364 0.28526 0.0
H1064 H 0.5882 0.66174 0.22894 0.0
H1065 H 0.6118 0.63736 0.33481 0.0
H1066 H 0.67636 0.69902 0.26108 0.0
H1067 H 0.70353 0.71843 0.20186 0.0
H1068 H 0.72711 0.66743 0.20934 0.0
H1069 H 0.69983 0.64747 0.26824 0.0
C1070 C 0.66929 0.63522 0.48899 0.0
C1071 C 0.66567 0.612 0.48867 0.0
C1072 C 0.67209 0.64739 0.45141 0.0
C1073 C 0.67152 0.63654 0.4132 0.0
C1074 C 0.67224 0.61528 0.41349 0.0
C1075 C 0.66952 0.60311 0.45123 0.0
C1076 C 0.66292 0.64321 0.37536 0.0
C1077 C 0.67803 0.65454 0.34132 0.0
C1078 C 0.63894 0.6374 0.37289 0.0
C1079 C 0.62154 0.62322 0.40563 0.0
C1080 C 0.61244 0.59857 0.40767 0.0
C1081 C 0.59478 0.58484 0.43669 0.0
C1082 C 0.58626 0.59564 0.46402 0.0
C1083 C 0.59541 0.6202 0.46237 0.0
C1084 C 0.6129 0.63397 0.43307 0.0
C1085 C 0.6161 0.63177 0.19764 0.0
C1086 C 0.59934 0.63942 0.19775 0.0
C1087 C 0.63303 0.6387 0.22937 0.0
C1088 C 0.6333 0.65316 0.26213 0.0
C1089 C 0.61795 0.6626 0.26012 0.0
C1090 C 0.60115 0.65589 0.22791 0.0
C1091 C 0.6452 0.65347 0.30208 0.0
C1092 C 0.63052 0.64297 0.33687 0.0
C1093 C 0.66942 0.65973 0.30447 0.0
C1094 C 0.68591 0.67165 0.26902 0.0
C1095 C 0.68719 0.69181 0.24991 0.0
C1096 C 0.70265 0.70294 0.21642 0.0
C1097 C 0.71701 0.69415 0.20181 0.0
C1098 C 0.71598 0.67423 0.22071 0.0
C1099 C 0.70054 0.66302 0.25422 0.0
H1100 H 0.72896 0.70279 0.17587 0.0
H1101 H 0.57258 0.58498 0.48646 0.0
H1102 H 0.00814 0.6475 0.8454 0.0
H1103 H 0.99297 0.65066 0.77731 0.0
H1104 H 0.05906 0.66611 0.71995 0.0
H1105 H 0.07451 0.66341 0.78837 0.0
H1106 H 0.02668 0.68168 0.67199 0.0
H1107 H 0.03039 0.61273 0.72776 0.0
H1108 H 0.02635 0.58518 0.78464 0.0
H1109 H 0.95452 0.56874 0.80535 0.0
H1110 H 0.95823 0.59628 0.74848 0.0
H1111 H 0.99317 0.58536 0.51712 0.0
H1112 H 0.01151 0.61585 0.57128 0.0
H1113 H 0.94389 0.61027 0.59692 0.0
H1114 H 0.9256 0.58046 0.54139 0.0
H1115 H 0.97429 0.59437 0.65982 0.0
H1116 H 0.96983 0.6562 0.58536 0.0
H1117 H 0.97614 0.68314 0.52622 0.0
H1118 H 0.05147 0.71314 0.53783 0.0
H1119 H 0.04559 0.68605 0.59665 0.0
C1120 C 0.02001 0.65321 0.81875 0.0
C1121 C 0.04232 0.65486 0.82188 0.0
C1122 C 0.01131 0.65499 0.77979 0.0
C1123 C 0.02472 0.6581 0.74357 0.0
C1124 C 0.04846 0.66374 0.74758 0.0
C1125 C 0.05731 0.66223 0.78679 0.0
C1126 C 0.01207 0.64801 0.70374 0.0
C1127 C 0.01521 0.66264 0.66912 0.0
C1128 C -0.00298 0.62317 0.7002 0.0
C1129 C -0.00534 0.60667 0.73432 0.0
C1130 C 0.01379 0.60331 0.74463 0.0
C1131 C 0.01154 0.58765 0.77673 0.0
C1132 C 0.9902 0.57525 0.79868 0.0
C1133 C 0.97104 0.57839 0.78838 0.0
C1134 C 0.97319 0.59397 0.75616 0.0
C1135 C 0.9824 0.59123 0.53335 0.0
C1136 C 0.95796 0.58046 0.5254 0.0
C1137 C 0.99293 0.6088 0.56393 0.0
C1138 C 0.97912 0.61555 0.58758 0.0
C1139 C 0.95494 0.60571 0.57826 0.0
C1140 C 0.9445 0.58858 0.54679 0.0
C1141 C 0.98868 0.62792 0.62771 0.0
C1142 C 0.98524 0.61352 0.66263 0.0
C1143 C 0.0036 0.65282 0.63088 0.0
C1144 C 0.00724 0.6688 0.595 0.0
C1145 C 0.98773 0.66825 0.57488 0.0
C1146 C 0.99123 0.68364 0.54153 0.0
C1147 C 0.01419 0.69978 0.52815 0.0
C1148 C 0.03369 0.70059 0.54816 0.0
C1149 C 0.03028 0.68522 0.58152 0.0
H1150 H 0.01686 0.71171 0.50237 0.0
H1151 H 0.98852 0.56321 0.82364 0.0
H1152 H 0.42883 0.98276 0.27183 0.0
H1153 H 0.43021 0.96246 0.33352 0.0
H1154 H 0.45913 0.02794 0.40363 0.0
H1155 H 0.45836 0.04864 0.3401 0.0
H1156 H 0.49103 0.01867 0.39308 0.0
H1157 H 0.41373 0.9695 0.43445 0.0
H1158 H 0.37062 0.94296 0.42913 0.0
H1159 H 0.3809 0.88679 0.38429 0.0
H1160 H 0.42359 0.91308 0.38401 0.0
H1161 H 0.53395 0.94167 0.31698 0.0
H1162 H 0.51945 0.94882 0.38346 0.0
H1163 H 0.46738 0.95811 0.3151 0.0
H1164 H 0.48243 0.95207 0.24949 0.0
H1165 H 0.4582 0.9328 0.41322 0.0
H1166 H 0.50865 0.02187 0.32477 0.0
H1167 H 0.54724 0.04568 0.29012 0.0
H1168 H 0.57791 0.01479 0.3698 0.0
H1169 H 0.53964 0.99124 0.40562 0.0
C1170 C 0.43457 0.99266 0.30083 0.0
C1171 C 0.44471 0.01738 0.30099 0.0
C1172 C 0.43486 0.98086 0.33682 0.0
C1173 C 0.44547 0.99369 0.37353 0.0
C1174 C 0.45114 0.01765 0.37564 0.0
C1175 C 0.45099 0.02958 0.33919 0.0
C1176 C 0.45861 0.98512 0.39972 0.0
C1177 C 0.48341 -0.00028 0.39775 0.0
C1178 C 0.44901 0.9605 0.40865 0.0
C1179 C 0.42269 0.94365 0.41053 0.0
C1180 C 0.40705 0.95157 0.42318 0.0
C1181 C 0.38249 0.93654 0.42074 0.0
C1182 C 0.37309 0.91315 0.40745 0.0
C1183 C 0.38821 0.90485 0.39532 0.0
C1184 C 0.41274 0.91997 0.39616 0.0
C1185 C 0.51934 0.94508 0.31664 0.0
C1186 C 0.50981 0.94716 0.27847 0.0
C1187 C 0.51086 0.9488 0.35449 0.0
C1188 C 0.49241 0.95403 0.35411 0.0
C1189 C 0.48156 0.95393 0.31603 0.0
C1190 C 0.49038 0.95085 0.27853 0.0
C1191 C 0.48725 0.96487 0.39007 0.0
C1192 C 0.46471 0.95143 0.40795 0.0
C1193 C 0.49767 0.98978 0.38884 0.0
C1194 C 0.52119 0.00483 0.3684 0.0
C1195 C 0.52367 0.0204 0.33551 0.0
C1196 C 0.54551 0.03383 0.31546 0.0
C1197 C 0.56504 0.03181 0.3278 0.0
C1198 C 0.56278 0.01637 0.36025 0.0
C1199 C 0.541 0.00297 0.38045 0.0
H1200 H 0.58191 0.04218 0.31216 0.0
H1201 H 0.35407 0.90153 0.4061 0.0
H1202 H 0.41632 0.40954 0.61948 0.0
H1203 H 0.44379 0.41572 0.67635 0.0
H1204 H 0.43763 0.47548 0.71842 0.0
H1205 H 0.4102 0.46898 0.66221 0.0
H1206 H 0.47577 0.45726 0.6412 0.0
H1207 H 0.46443 0.49988 0.7874 0.0
H1208 H 0.43473 0.48473 0.84378 0.0
H1209 H 0.43219 0.41748 0.83892 0.0
H1210 H 0.46161 0.43212 0.78286 0.0
H1211 H 0.54692 0.56714 0.62803 0.0
H1212 H 0.51773 0.54224 0.67987 0.0
H1213 H 0.56043 0.51149 0.71322 0.0
H1214 H 0.5908 0.53736 0.66281 0.0
H1215 H 0.50958 0.50562 0.76936 0.0
H1216 H 0.54204 0.47997 0.64127 0.0
H1217 H 0.56015 0.48895 0.57075 0.0
H1218 H 0.51432 0.5156 0.53298 0.0
H1219 H 0.49613 0.5069 0.60324 0.0
C1220 C 0.41947 0.42278 0.64301 0.0
C1221 C 0.41184 0.43928 0.63651 0.0
C1222 C 0.43497 0.42615 0.67587 0.0
C1223 C 0.44376 0.44684 0.70015 0.0
C1224 C 0.43149 0.45958 0.69977 0.0
C1225 C 0.41571 0.45597 0.66738 0.0
C1226 C 0.4697 0.46115 0.70633 0.0
C1227 C 0.48344 0.46689 0.67002 0.0
C1228 C 0.47971 0.4743 0.74314 0.0
C1229 C 0.46556 0.46727 0.78179 0.0
C1230 C 0.45806 0.48213 0.79955 0.0
C1231 C 0.44103 0.47349 0.83127 0.0
C1232 C 0.4319 0.45029 0.84613 0.0
C1233 C 0.43962 0.43561 0.82879 0.0
C1234 C 0.4564 0.44402 0.79687 0.0
C1235 C 0.5509 0.55609 0.64805 0.0
C1236 C 0.57017 0.55265 0.63933 0.0
C1237 C 0.53431 0.54213 0.67829 0.0
C1238 C 0.53677 0.52444 0.69902 0.0
C1239 C 0.55844 0.52489 0.69687 0.0
C1240 C 0.57537 0.53922 0.6673 0.0
C1241 C 0.51524 0.50121 0.70414 0.0
C1242 C 0.50241 0.49461 0.74181 0.0
C1243 C 0.506 0.48655 0.66853 0.0
C1244 C 0.51796 0.49302 0.62735 0.0
C1245 C 0.53604 0.48794 0.61794 0.0
C1246 C 0.54625 0.49293 0.57806 0.0
C1247 C 0.5383 0.50275 0.54743 0.0
C1248 C 0.52041 0.50796 0.55673 0.0
C1249 C 0.51019 0.50305 0.59651 0.0
H1250 H 0.54579 0.50614 0.51636 0.0
H1251 H 0.41868 0.4436 0.87065 0.0
H1252 H -0.0023 0.44593 0.91715 0.0
H1253 H 0.0176 0.46674 0.98041 0.0
H1254 H 0.95267 0.42608 0.05004 0.0
H1255 H 0.93249 0.40537 0.98599 0.0
H1256 H 0.96389 0.47078 0.03928 0.0
H1257 H 0.00493 0.43322 0.07997 0.0
H1258 H 0.02882 0.41389 0.07608 0.0
H1259 H 0.09023 0.48007 0.04387 0.0
H1260 H 0.06659 0.49988 0.04536 0.0
H1261 H 0.02037 0.58623 0.03113 0.0
H1262 H 0.0154 0.55779 0.0865 0.0
H1263 H 0.05163 0.53138 0.00921 0.0
H1264 H 0.05737 0.56009 0.95586 0.0
H1265 H 0.04772 0.51401 0.08429 0.0
H1266 H 0.98671 0.51432 0.97799 0.0
H1267 H 0.96455 0.53392 0.95411 0.0
H1268 H 0.94718 0.53994 0.08144 0.0
H1269 H 0.96942 0.52053 0.10598 0.0
C1270 C 0.98789 0.44083 0.9463 0.0
C1271 C 0.96344 0.42485 0.94673 0.0
C1272 C -0.00059 0.45242 0.98275 0.0
C1273 C 0.98654 0.4483 0.02 0.0
C1274 C 0.96289 0.42967 0.02164 0.0
C1275 C 0.95132 0.41798 0.98497 0.0
C1276 C -0.00481 0.46814 0.05006 0.0
C1277 C 0.98198 0.47981 0.05093 0.0
C1278 C 0.01888 0.47998 0.06487 0.0
C1279 C 0.03374 0.4683 0.06385 0.0
C1280 C 0.02347 0.44381 0.07182 0.0
C1281 C 0.03707 0.43267 0.06994 0.0
C1282 C 0.06113 0.44572 0.06024 0.0
C1283 C 0.07161 0.46998 0.0519 0.0
C1284 C 0.05804 0.48122 0.05338 0.0
C1285 C 0.02846 0.57524 0.02749 0.0
C1286 C 0.03881 0.57473 0.98938 0.0
C1287 C 0.02565 0.55901 0.05904 0.0
C1288 C 0.03191 0.54152 0.05108 0.0
C1289 C 0.04606 0.5442 0.01605 0.0
C1290 C 0.04917 0.56051 0.98512 0.0
C1291 C 0.01743 0.51693 0.06719 0.0
C1292 C 0.02918 0.50413 0.07575 0.0
C1293 C 0.99291 0.50418 0.0577 0.0
C1294 C 0.97964 0.51601 0.04374 0.0
C1295 C 0.97808 0.5198 1.00081 0.0
C1296 C 0.96559 0.53091 0.98719 0.0
C1297 C 0.95446 0.53817 0.01625 0.0
C1298 C 0.95581 0.53429 0.05899 0.0
C1299 C 0.96832 0.52321 0.07278 0.0
H1300 H 0.9448 0.54679 0.00566 0.0
H1301 H 0.07162 0.437 0.05892 0.0
H1302 H 0.01075 0.44872 0.35578 0.0
H1303 H 0.00027 0.45894 0.28981 0.0
H1304 H 0.06779 0.52431 0.28663 0.0
H1305 H 0.07728 0.51423 0.355 0.0
H1306 H 0.03974 0.53721 0.28588 0.0
H1307 H 0.0399 0.48686 0.19186 0.0
H1308 H 0.03988 0.45288 0.15856 0.0
H1309 H 0.96532 0.40962 0.18172 0.0
H1310 H 0.9651 0.4426 0.21849 0.0
H1311 H 0.93685 0.52807 0.33693 0.0
H1312 H 0.95631 0.53102 0.26957 0.0
H1313 H 0.96075 0.46882 0.30209 0.0
H1314 H 0.94213 0.46643 0.36876 0.0
H1315 H 0.9664 0.47811 0.21471 0.0
H1316 H -0.00228 0.52417 0.35476 0.0
H1317 H -0.00048 0.55505 0.40199 0.0
H1318 H 0.01677 0.60286 0.2981 0.0
H1319 H 0.01374 0.57178 0.24983 0.0
C1320 C 0.02377 0.4647 0.33988 0.0
C1321 C 0.04475 0.48076 0.36001 0.0
C1322 C 0.018 0.47055 0.30142 0.0
C1323 C 0.03313 0.49271 0.28247 0.0
C1324 C 0.05571 0.50718 0.30018 0.0
C1325 C 0.06128 0.50141 0.33919 0.0
C1326 C 0.02224 0.50322 0.2547 0.0
C1327 C 0.0242 0.52465 0.26848 0.0
C1328 C 0.00282 0.48829 0.22876 0.0
C1329 C 0.00236 0.4678 0.20682 0.0
C1330 C 0.02341 0.47018 0.18991 0.0
C1331 C 0.0235 0.45092 0.17085 0.0
C1332 C 0.00252 0.42919 0.16749 0.0
C1333 C 0.98154 0.42653 0.18414 0.0
C1334 C 0.98147 0.44553 0.20446 0.0
C1335 C 0.94114 0.51459 0.3287 0.0
C1336 C 0.93922 0.49787 0.35865 0.0
C1337 C 0.952 0.51609 0.29003 0.0
C1338 C 0.96073 0.50065 0.2813 0.0
C1339 C 0.95451 0.48121 0.30809 0.0
C1340 C 0.94412 0.48001 0.3467 0.0
C1341 C 0.98224 0.50834 0.25531 0.0
C1342 C 0.98278 0.49127 0.22908 0.0
C1343 C 0.00404 0.52705 0.27051 0.0
C1344 C 0.00518 0.54561 0.29875 0.0
C1345 C 0.00161 0.54121 0.34198 0.0
C1346 C 0.00268 0.55867 0.36883 0.0
C1347 C 0.00798 0.58083 0.3529 0.0
C1348 C 0.01223 0.58554 0.31013 0.0
C1349 C 0.01062 0.56794 0.28295 0.0
H1350 H 0.00896 0.59441 0.37372 0.0
H1351 H 0.00259 0.41438 0.15226 0.0
H1352 H 0.44477 0.01456 0.70535 0.0
H1353 H 0.46332 0.02294 0.63744 0.0
H1354 H 0.4178 0.94981 0.60198 0.0
H1355 H 0.39794 0.94191 0.6695 0.0
H1356 H 0.45871 0.95658 0.61263 0.0
H1357 H 0.44641 -0.00295 0.50303 0.0
H1358 H 0.4321 0.02108 0.46671 0.0
H1359 H 0.4768 0.08091 0.54409 0.0
H1360 H 0.49061 0.05686 0.58192 0.0
H1361 H 0.56874 0.00832 0.67817 0.0
H1362 H 0.54746 -0.00258 0.61164 0.0
H1363 H 0.52559 0.04934 0.63382 0.0
H1364 H 0.55014 0.06269 0.69599 0.0
H1365 H 0.51457 0.03719 0.56018 0.0
H1366 H 0.49907 0.98383 0.68996 0.0
H1367 H 0.50942 0.95893 0.73389 0.0
H1368 H 0.51516 0.92416 0.62401 0.0
H1369 H 0.50501 0.94901 0.57962 0.0
C1370 C 0.43784 0.00051 0.68225 0.0
C1371 C 0.42095 0.97717 0.69342 0.0
C1372 C 0.44823 0.00543 0.64267 0.0
C1373 C 0.44242 0.98694 0.61394 0.0
C1374 C 0.42261 0.96456 0.6228 0.0
C1375 C 0.4117 0.9598 0.66215 0.0
C1376 C 0.462 0.98877 0.58702 0.0
C1377 C 0.47072 0.97377 0.59902 0.0
C1378 C 0.47779 0.01043 0.56705 0.0
C1379 C 0.46901 0.02491 0.54598 0.0
C1380 C 0.45262 0.0151 0.5131 0.0
C1381 C 0.44478 0.0288 0.49199 0.0
C1382 C 0.45347 0.0525 0.50318 0.0
C1383 C 0.46997 0.0625 0.53561 0.0
C1384 C 0.47777 0.04882 0.55694 0.0
C1385 C 0.56116 0.01876 0.66666 0.0
C1386 C 0.56131 0.03655 0.69163 0.0
C1387 C 0.54831 0.01205 0.62921 0.0
C1388 C 0.53347 0.02131 0.61891 0.0
C1389 C 0.53637 0.04136 0.64101 0.0
C1390 C 0.55034 0.049 0.67697 0.0
C1391 C 0.51102 0.00709 0.59486 0.0
C1392 C 0.50233 0.01935 0.571 0.0
C1393 C 0.49502 0.98296 0.60533 0.0
C1394 C 0.50172 0.96846 0.63156 0.0
C1395 C 0.50267 0.97092 0.6753 0.0
C1396 C 0.50849 0.95685 0.70023 0.0
C1397 C 0.51305 0.94004 0.68174 0.0
C1398 C 0.51175 0.93726 0.63827 0.0
C1399 C 0.506 0.95135 0.61319 0.0
H1400 H 0.51752 0.92913 0.7011 0.0
H1401 H 0.44752 0.06314 0.4866 0.0
H1402 H 0.57031 0.58466 0.02872 0.0
H1403 H 0.56868 0.56717 0.95976 0.0
H1404 H 0.49217 0.52778 0.96839 0.0
H1405 H 0.4942 0.54411 0.03691 0.0
H1406 H 0.55231 0.52121 0.97106 0.0
H1407 H 0.46552 0.51138 0.89132 0.0
H1408 H 0.45553 0.53547 0.84515 0.0
H1409 H 0.52904 0.5802 0.81494 0.0
H1410 H 0.53938 0.55572 0.85965 0.0
H1411 H 0.43588 0.44899 0.02765 0.0
H1412 H 0.45966 0.47625 0.97227 0.0
H1413 H 0.49141 0.43323 0.94674 0.0
H1414 H 0.46736 0.40561 0.00244 0.0
H1415 H 0.47773 0.48276 0.88963 0.0
H1416 H 0.55147 0.47221 0.96089 0.0
H1417 H 0.5593 0.4526 0.0204 0.0
H1418 H 0.50934 0.46101 0.09562 0.0
H1419 H 0.50143 0.48067 0.03656 0.0
C1420 C 0.55324 0.57315 0.01448 0.0
C1421 C 0.5323 0.56562 0.03737 0.0
C1422 C 0.5523 0.56338 0.975 0.0
C1423 C 0.53036 0.54607 0.95854 0.0
C1424 C 0.5094 0.54126 0.97958 0.0
C1425 C 0.51046 0.55036 0.01921 0.0
C1426 C 0.52884 0.52689 0.93144 0.0
C1427 C 0.53663 0.51275 0.95139 0.0
C1428 C 0.50954 0.51594 0.90344 0.0
C1429 C 0.50313 0.53088 0.87722 0.0
C1430 C 0.47951 0.52585 0.87383 0.0
C1431 C 0.47378 0.53978 0.8483 0.0
C1432 C 0.49157 0.55924 0.82682 0.0
C1433 C 0.51519 0.56494 0.83117 0.0
C1434 C 0.52098 0.55094 0.85641 0.0
C1435 C 0.44729 0.44481 0.00928 0.0
C1436 C 0.45053 0.42565 0.02032 0.0
C1437 C 0.46068 0.46026 0.97716 0.0
C1438 C 0.47775 0.45698 0.95609 0.0
C1439 C 0.4786 0.43612 0.9632 0.0
C1440 C 0.46503 0.42051 0.99518 0.0
C1441 C 0.49828 0.47813 0.93757 0.0
C1442 C 0.49421 0.49124 0.90691 0.0
C1443 C 0.52053 0.4887 0.95821 0.0
C1444 C 0.52537 0.47712 0.99394 0.0
C1445 C 0.54211 0.46966 0.99006 0.0
C1446 C 0.5466 0.45864 0.02372 0.0
C1447 C 0.53467 0.45537 0.06166 0.0
C1448 C 0.51841 0.46334 0.06612 0.0
C1449 C 0.5139 0.47437 0.03254 0.0
H1450 H 0.53814 0.44683 0.08768 0.0
H1451 H 0.48707 0.57001 0.80714 0.0
H1452 H 0.29903 0.90321 0.62057 0.0
H1453 H 0.30122 0.92524 0.5568 0.0
H1454 H 0.36863 0.98312 0.59679 0.0
H1455 H 0.3664 0.96169 0.66091 0.0
H1456 H 0.3135 0.97705 0.53626 0.0
H1457 H 0.40411 0.98143 0.51524 0.0
H1458 H 0.42282 0.95659 0.52522 0.0
H1459 H 0.35422 0.89396 0.5281 0.0
H1460 H 0.33534 0.91823 0.51533 0.0
H1461 H 0.38525 0.06883 0.40123 0.0
H1462 H 0.36452 0.03939 0.45451 0.0
H1463 H 0.36791 0.98623 0.3786 0.0
H1464 H 0.39084 0.01662 0.32584 0.0
H1465 H 0.37912 0.98171 0.45016 0.0
H1466 H 0.31291 0.98794 0.40367 0.0
H1467 H 0.29119 0.00829 0.38178 0.0
H1468 H 0.30185 0.04016 0.50321 0.0
H1469 H 0.32389 0.02027 0.52569 0.0
C1470 C 0.31393 0.92097 0.61644 0.0
C1471 C 0.33274 0.93057 0.64543 0.0
C1472 C 0.31509 0.93351 0.58009 0.0
C1473 C 0.3352 0.95556 0.57214 0.0
C1474 C 0.353 0.96604 0.60257 0.0
C1475 C 0.35168 0.95374 0.63918 0.0
C1476 C 0.33958 0.96617 0.53004 0.0
C1477 C 0.32757 0.97789 0.51687 0.0
C1478 C 0.35728 0.96631 0.50446 0.0
C1479 C 0.36841 0.95175 0.51481 0.0
C1480 C 0.39313 0.96239 0.51806 0.0
C1481 C 0.40372 0.94841 0.52382 0.0
C1482 C 0.38972 0.9238 0.52771 0.0
C1483 C 0.36507 0.91306 0.52541 0.0
C1484 C 0.35442 0.92692 0.51865 0.0
C1485 C 0.3812 0.05079 0.39511 0.0
C1486 C 0.38964 0.04509 0.35895 0.0
C1487 C 0.36902 0.03379 0.42575 0.0
C1488 C 0.36394 0.01029 0.42043 0.0
C1489 C 0.37143 0.00421 0.38344 0.0
C1490 C 0.38438 0.02152 0.35311 0.0
C1491 C 0.3532 0.99305 0.45554 0.0
C1492 C 0.36435 0.98028 0.46815 0.0
C1493 C 0.33384 0.99102 0.47941 0.0
C1494 C 0.32011 0.00262 0.46632 0.0
C1495 C 0.31067 -0.00067 0.42568 0.0
C1496 C 0.29831 0.0108 0.41316 0.0
C1497 C 0.29515 0.02552 0.44108 0.0
C1498 C 0.30428 0.02873 0.48163 0.0
C1499 C 0.31666 0.01731 0.49432 0.0
H1500 H 0.28562 0.03442 0.43129 0.0
H1501 H 0.39804 0.91311 0.53228 0.0
H1502 H 0.37513 0.2916 0.9478 0.0
H1503 H 0.35595 0.29674 0.8864 0.0
H1504 H 0.35731 0.3574 0.94364 0.0
H1505 H 0.37781 0.35329 0.00467 0.0
H1506 H 0.31578 0.30513 0.86492 0.0
H1507 H 0.38893 0.3912 0.90343 0.0
H1508 H 0.42841 0.40848 0.93584 0.0
H1509 H 0.44429 0.36311 0.86151 0.0
H1510 H 0.40443 0.34505 0.82961 0.0
H1511 H 0.29737 0.37533 0.72238 0.0
H1512 H 0.3041 0.35421 0.77812 0.0
H1513 H 0.36912 0.36708 0.71902 0.0
H1514 H 0.36315 0.38977 0.66377 0.0
H1515 H 0.37855 0.37732 0.79407 0.0
H1516 H 0.31807 0.30901 0.73085 0.0
H1517 H 0.28012 0.28219 0.69619 0.0
H1518 H 0.24219 0.28159 0.80643 0.0
H1519 H 0.27989 0.3087 0.84161 0.0
C1520 C 0.37084 0.30572 0.94802 0.0
C1521 C 0.37861 0.32248 0.98068 0.0
C1522 C 0.35972 0.30848 0.91287 0.0
C1523 C 0.35579 0.32774 0.91025 0.0
C1524 C 0.36069 0.34268 0.94497 0.0
C1525 C 0.37236 0.3403 0.97981 0.0
C1526 C 0.35113 0.33487 0.86903 0.0
C1527 C 0.3292 0.32107 0.84946 0.0
C1528 C 0.36937 0.35454 0.84774 0.0
C1529 C 0.39384 0.36683 0.86427 0.0
C1530 C 0.40085 0.3849 0.89414 0.0
C1531 C 0.42322 0.39465 0.91275 0.0
C1532 C 0.43888 0.3868 0.90096 0.0
C1533 C 0.43216 0.36916 0.8706 0.0
C1534 C 0.40966 0.35911 0.8524 0.0
C1535 C 0.31291 0.37334 0.72053 0.0
C1536 C 0.32982 0.38447 0.68863 0.0
C1537 C 0.31664 0.36097 0.75249 0.0
C1538 C 0.33701 0.35875 0.75283 0.0
C1539 C 0.35326 0.36857 0.71959 0.0
C1540 C 0.34973 0.38138 0.68778 0.0
C1541 C 0.34229 0.34846 0.7902 0.0
C1542 C 0.36471 0.36145 0.80906 0.0
C1543 C 0.32467 0.32732 0.80977 0.0
C1544 C 0.30185 0.31105 0.78879 0.0
C1545 C 0.30163 0.30332 0.74762 0.0
C1546 C 0.28016 0.28803 0.72789 0.0
C1547 C 0.25876 0.28022 0.74907 0.0
C1548 C 0.25879 0.28766 0.79006 0.0
C1549 C 0.28022 0.30296 0.80995 0.0
H1550 H 0.24215 0.26838 0.73374 0.0
H1551 H 0.45624 0.39433 0.91509 0.0
H1552 H 0.96251 0.38094 1.00106 0.0
H1553 H 0.98733 0.38961 0.06357 0.0
H1554 H 0.94475 0.31712 0.10464 0.0
H1555 H 0.92016 0.30811 0.04244 0.0
H1556 H 0.94703 0.35564 0.15881 0.0
H1557 H 0.99049 0.32747 0.08664 0.0
H1558 H 0.01465 0.3231 0.03221 0.0
H1559 H 0.07292 0.39208 0.06164 0.0
H1560 H 0.04898 0.39716 0.11576 0.0
H1561 H 0.03071 0.36599 0.3349 0.0
H1562 H 0.00593 0.34982 0.27197 0.0
H1563 H 0.0205 0.42017 0.2386 0.0
H1564 H 0.04394 0.43611 0.30185 0.0
H1565 H 0.03103 0.37855 0.18302 0.0
H1566 H 0.97872 0.40304 0.25685 0.0
H1567 H 0.95174 0.39925 0.31353 0.0
H1568 H 0.90778 0.32506 0.28648 0.0
H1569 H 0.93488 0.32832 0.22973 0.0
C1570 C 0.95896 0.36664 0.02256 0.0
C1571 C 0.93904 0.34396 0.01709 0.0
C1572 C 0.97319 0.37164 0.0583 0.0
C1573 C 0.96777 0.35402 0.08871 0.0
C1574 C 0.94916 0.33095 0.08153 0.0
C1575 C 0.93516 0.32588 0.04582 0.0
C1576 C 0.9791 0.36023 0.13044 0.0
C1577 C 0.96542 0.36063 0.16409 0.0
C1578 C 0.00288 0.36603 0.1373 0.0
C1579 C 0.01741 0.36316 0.10427 0.0
C1580 C 0.00817 0.34207 0.0808 0.0
C1581 C 0.02196 0.33934 0.05019 0.0
C1582 C 0.04521 0.35742 0.04308 0.0
C1583 C 0.05482 0.37816 0.06689 0.0
C1584 C 0.04111 0.38096 0.09757 0.0
C1585 C 0.02783 0.37777 0.31476 0.0
C1586 C 0.0388 0.40218 0.3235 0.0
C1587 C 0.01382 0.36857 0.27891 0.0
C1588 C 0.01109 0.38379 0.25113 0.0
C1589 C 0.02186 0.40807 0.26015 0.0
C1590 C 0.03515 0.41713 0.29648 0.0
C1591 C -0.00074 0.37497 0.21047 0.0
C1592 C 0.01276 0.37381 0.17727 0.0
C1593 C 0.97509 0.36762 0.20428 0.0
C1594 C 0.95919 0.36587 0.2392 0.0
C1595 C 0.96363 0.38581 0.26319 0.0
C1596 C 0.94819 0.38378 0.29532 0.0
C1597 C 0.9281 0.3619 0.30377 0.0
C1598 C 0.9234 0.342 0.28 0.0
C1599 C 0.93881 0.34395 0.24782 0.0
H1600 H 0.91613 0.36037 0.32863 0.0
H1601 H 0.05586 0.35526 0.01939 0.0
H1602 H 0.68319 0.05512 0.64994 0.0
H1603 H 0.67567 0.03295 0.58487 0.0
H1604 H 0.60032 0.00094 0.60513 0.0
H1605 H 0.60786 0.02263 0.67089 0.0
H1606 H 0.61069 0.97082 0.56629 0.0
H1607 H 0.62872 0.05142 0.54966 0.0
H1608 H 0.65233 0.09485 0.55866 0.0
H1609 H 0.71049 0.09611 0.49294 0.0
H1610 H 0.6873 0.0526 0.48406 0.0
H1611 H 0.56562 0.95721 0.36136 0.0
H1612 H 0.58148 0.97971 0.42564 0.0
H1613 H 0.64681 0.97911 0.40723 0.0
H1614 H 0.63063 0.95569 0.34319 0.0
H1615 H 0.64419 0.02509 0.44427 0.0
H1616 H 0.6186 0.94054 0.45533 0.0
H1617 H 0.58982 0.89808 0.446 0.0
H1618 H 0.54028 0.90466 0.52548 0.0
H1619 H 0.56831 0.94746 0.53362 0.0
C1620 C 0.66501 0.04283 0.64123 0.0
C1621 C 0.64596 0.04108 0.66486 0.0
C1622 C 0.66077 0.03029 0.6039 0.0
C1623 C 0.63748 0.01596 0.58963 0.0
C1624 C 0.61846 0.01217 0.61538 0.0
C1625 C 0.62272 0.02459 0.65287 0.0
C1626 C 0.63291 0.00698 0.54626 0.0
C1627 C 0.61799 0.98264 0.53959 0.0
C1628 C 0.64243 0.02256 0.51156 0.0
C1629 C 0.65639 0.04873 0.51664 0.0
C1630 C 0.64662 0.06094 0.53742 0.0
C1631 C 0.65991 0.08556 0.54245 0.0
C1632 C 0.68293 0.09822 0.52649 0.0
C1633 C 0.69267 0.08627 0.50536 0.0
C1634 C 0.67947 0.06163 0.5003 0.0
C1635 C 0.58369 0.96268 0.36985 0.0
C1636 C 0.59688 0.95465 0.34738 0.0
C1637 C 0.59263 0.97532 0.40689 0.0
C1638 C 0.61501 0.98047 0.42133 0.0
C1639 C 0.62937 0.97501 0.39648 0.0
C1640 C 0.62019 0.96178 0.35994 0.0
C1641 C 0.62208 0.98893 0.46442 0.0
C1642 C 0.63728 0.01322 0.47099 0.0
C1643 C 0.61224 0.97335 0.49904 0.0
C1644 C 0.59537 0.94749 0.49401 0.0
C1645 C 0.60135 0.93315 0.46988 0.0
C1646 C 0.58518 0.90895 0.46497 0.0
C1647 C 0.56314 0.89871 0.48482 0.0
C1648 C 0.55731 0.91262 0.50993 0.0
C1649 C 0.57332 0.93689 0.51456 0.0
H1650 H 0.55065 0.87997 0.48099 0.0
H1651 H 0.69319 0.11729 0.53041 0.0
H1652 H 0.60404 0.62733 0.02335 0.0
H1653 H 0.62966 0.62463 0.96979 0.0
H1654 H 0.60161 0.65262 0.87758 0.0
H1655 H 0.57619 0.65542 0.93015 0.0
H1656 H 0.59502 0.59821 0.88136 0.0
H1657 H 0.64576 0.68504 0.87261 0.0
H1658 H 0.67342 0.72398 0.90344 0.0
H1659 H 0.72096 0.69873 0.93712 0.0
H1660 H 0.69334 0.65948 0.90699 0.0
H1661 H 0.62989 0.59474 0.67801 0.0
H1662 H 0.6245 0.61319 0.74011 0.0
H1663 H 0.67542 0.60157 0.80705 0.0
H1664 H 0.68087 0.58271 0.74495 0.0
H1665 H 0.67562 0.64857 0.82242 0.0
H1666 H 0.62608 0.5627 0.83361 0.0
H1667 H 0.59633 0.52152 0.8158 0.0
H1668 H 0.54649 0.54408 0.78315 0.0
H1669 H 0.57593 0.58533 0.80105 0.0
C1670 C 0.60375 0.63339 0.99188 0.0
C1671 C 0.58777 0.64112 0.98078 0.0
C1672 C 0.61858 0.63214 0.96155 0.0
C1673 C 0.61776 0.6389 0.92015 0.0
C1674 C 0.60284 0.64788 0.90966 0.0
C1675 C 0.5881 0.64914 0.93972 0.0
C1676 C 0.62769 0.63141 0.88611 0.0
C1677 C 0.61263 0.60926 0.86837 0.0
C1678 C 0.65079 0.64571 0.87009 0.0
C1679 C 0.66731 0.66922 0.88822 0.0
C1680 C 0.66194 0.68767 0.88713 0.0
C1681 C 0.67766 0.70984 0.90431 0.0
C1682 C 0.69889 0.71379 0.92241 0.0
C1683 C 0.70448 0.69562 0.92321 0.0
C1684 C 0.68881 0.67342 0.90607 0.0
C1685 C 0.64049 0.59664 0.70545 0.0
C1686 C 0.65567 0.58703 0.70662 0.0
C1687 C 0.63731 0.60715 0.74095 0.0
C1688 C 0.64944 0.60851 0.77803 0.0
C1689 C 0.66597 0.60065 0.77855 0.0
C1690 C 0.669 0.58986 0.74309 0.0
C1691 C 0.64261 0.61555 0.81706 0.0
C1692 C 0.65813 0.63749 0.83569 0.0
C1693 C 0.61981 0.60111 0.8342 0.0
C1694 C 0.60324 0.57705 0.81828 0.0
C1695 C 0.60892 0.5589 0.82184 0.0
C1696 C 0.59202 0.5355 0.81204 0.0
C1697 C 0.56944 0.53012 0.79851 0.0
C1698 C 0.56393 0.54821 0.79375 0.0
C1699 C 0.5807 0.57159 0.80374 0.0
H1700 H 0.55617 0.51195 0.79173 0.0
H1701 H 0.71104 0.73096 0.93568 0.0
H1702 H 0.07868 0.69804 0.06227 0.0
H1703 H 0.05407 0.68723 0.12484 0.0
H1704 H 0.00067 0.62385 0.06387 0.0
H1705 H 0.02515 0.63435 1.00109 0.0
H1706 H 0.98228 0.64291 0.12493 0.0
H1707 H 0.04024 0.61907 0.10648 0.0
H1708 H 0.07975 0.62446 0.09158 0.0
H1709 H 0.10796 0.66889 0.19991 0.0
H1710 H 0.06871 0.66437 0.21475 0.0
H1711 H 0.94139 0.5582 0.29064 0.0
H1712 H 0.96524 0.57788 0.22881 0.0
H1713 H -0.0023 0.64489 0.29379 0.0
H1714 H 0.97359 0.62508 0.35609 0.0
H1715 H 0.02684 0.62532 0.23218 0.0
H1716 H 0.96509 0.64874 0.24484 0.0
H1717 H 0.92353 0.63811 0.25747 0.0
H1718 H 0.90062 0.58708 0.15795 0.0
H1719 H 0.94206 0.59725 0.14511 0.0
C1720 C 0.0613 0.68229 0.06143 0.0
C1721 C 0.05418 0.66666 0.02719 0.0
C1722 C 0.04728 0.67616 0.09728 0.0
C1723 C 0.02593 0.65449 0.09909 0.0
C1724 C 0.01721 0.64057 0.063 0.0
C1725 C 0.0313 0.64659 0.02719 0.0
C1726 C 0.01524 0.64431 0.14001 0.0
C1727 C 0.99206 0.63921 0.14846 0.0
C1728 C 0.02791 0.63899 0.17024 0.0
C1729 C 0.05159 0.64179 0.16127 0.0
C1730 C 0.05495 0.63042 0.12664 0.0
C1731 C 0.07731 0.63327 0.11824 0.0
C1732 C 0.09639 0.64716 0.14463 0.0
C1733 C 0.09316 0.65821 0.17942 0.0
C1734 C 0.07087 0.65556 0.18779 0.0
C1735 C 0.9545 0.57686 0.29249 0.0
C1736 C 0.95633 0.59004 0.3284 0.0
C1737 C 0.96773 0.58815 0.25695 0.0
C1738 C 0.98303 0.61275 0.25698 0.0
C1739 C 0.98596 0.62583 0.29353 0.0
C1740 C 0.97239 0.61455 0.32899 0.0
C1741 C -0.00569 0.62485 0.21764 0.0
C1742 C 0.01739 0.62972 0.2091 0.0
C1743 C 0.9814 0.62945 0.18702 0.0
C1744 C 0.95659 0.6236 0.19428 0.0
C1745 C 0.95115 0.63513 0.22589 0.0
C1746 C 0.92764 0.62922 0.23303 0.0
C1747 C 0.90944 0.61189 0.20859 0.0
C1748 C 0.91473 0.60049 0.17687 0.0
C1749 C 0.93822 0.60634 0.16962 0.0
H1750 H 0.89124 0.60733 0.21418 0.0
H1751 H 0.11367 0.64926 0.13834 0.0
H1752 H 0.52188 0.10238 0.34339 0.0
H1753 H 0.55085 0.10837 0.39851 0.0
H1754 H 0.50905 0.12142 0.48804 0.0
H1755 H 0.48086 0.11617 0.43371 0.0
H1756 H 0.55108 0.1532 0.49945 0.0
H1757 H 0.51271 0.07057 0.48755 0.0
H1758 H 0.4977 0.02813 0.47433 0.0
H1759 H 0.5678 0.04274 0.44313 0.0
H1760 H 0.58322 0.08542 0.45475 0.0
H1761 H 0.58746 0.11198 0.68496 0.0
H1762 H 0.567 0.11942 0.62763 0.0
H1763 H 0.62918 0.14449 0.55033 0.0
H1764 H 0.64999 0.13755 0.60743 0.0
H1765 H 0.58189 0.09876 0.53014 0.0
H1766 H 0.61738 0.18237 0.56116 0.0
H1767 H 0.62678 0.21634 0.60722 0.0
H1768 H 0.55254 0.191 0.62482 0.0
H1769 H 0.54267 0.15667 0.57938 0.0
C1770 C 0.51894 0.10647 0.37488 0.0
C1771 C 0.49934 0.10929 0.38389 0.0
C1772 C 0.53543 0.10982 0.40642 0.0
C1773 C 0.53235 0.1157 0.44749 0.0
C1774 C 0.51223 0.11748 0.45658 0.0
C1775 C 0.49604 0.11443 0.42529 0.0
C1776 C 0.55017 0.12073 0.48108 0.0
C1777 C 0.55771 0.14116 0.50602 0.0
C1778 C 0.55912 0.1053 0.48996 0.0
C1779 C 0.54909 0.08125 0.47183 0.0
C1780 C 0.52479 0.06491 0.47633 0.0
C1781 C 0.51626 0.04078 0.46959 0.0
C1782 C 0.53187 0.0328 0.45876 0.0
C1783 C 0.55578 0.04898 0.45189 0.0
C1784 C 0.5644 0.07317 0.45817 0.0
C1785 C 0.59706 0.11975 0.65622 0.0
C1786 C 0.62028 0.1239 0.65064 0.0
C1787 C 0.58539 0.12419 0.62366 0.0
C1788 C 0.59672 0.13274 0.58505 0.0
C1789 C 0.62032 0.13824 0.58019 0.0
C1790 C 0.63211 0.13409 0.61283 0.0
C1791 C 0.58249 0.13083 0.54772 0.0
C1792 C 0.57566 0.11101 0.52229 0.0
C1793 C 0.57335 0.14611 0.53987 0.0
C1794 C 0.5793 0.16682 0.56709 0.0
C1795 C 0.60305 0.1839 0.57516 0.0
C1796 C 0.60847 0.20326 0.60109 0.0
C1797 C 0.59027 0.2058 0.61901 0.0
C1798 C 0.56662 0.18901 0.61095 0.0
C1799 C 0.56111 0.16961 0.58505 0.0
H1800 H 0.5945 0.2208 0.63907 0.0
H1801 H 0.52545 0.01404 0.45602 0.0
H1802 H 0.39439 0.47622 0.71999 0.0
H1803 H 0.41526 0.50013 0.78109 0.0
H1804 H 0.38146 0.54219 0.76269 0.0
H1805 H 0.36099 0.51849 0.70068 0.0
H1806 H 0.42815 0.56953 0.78759 0.0
H1807 H 0.35968 0.49758 0.82536 0.0
H1808 H 0.33247 0.45446 0.82918 0.0
H1809 H 0.38383 0.44597 0.90015 0.0
H1810 H 0.41166 0.48897 0.89595 0.0
H1811 H 0.4588 0.61899 0.99231 0.0
H1812 H 0.43336 0.59672 0.9334 0.0
H1813 H 0.46157 0.54909 0.93727 0.0
H1814 H 0.4869 0.57137 0.99593 0.0
H1815 H 0.41382 0.52557 0.92148 0.0
H1816 H 0.48402 0.59681 0.87028 0.0
H1817 H 0.51073 0.64017 0.8666 0.0
H1818 H 0.45289 0.6494 0.8258 0.0
H1819 H 0.4258 0.60609 0.82954 0.0
C1820 C 0.39238 0.4913 0.72762 0.0
C1821 C 0.37677 0.49603 0.70465 0.0
C1822 C 0.40389 0.50465 0.76318 0.0
C1823 C 0.39975 0.52282 0.77677 0.0
C1824 C 0.38495 0.52828 0.75279 0.0
C1825 C 0.37332 0.5148 0.71735 0.0
C1826 C 0.40976 0.53516 0.81719 0.0
C1827 C 0.42478 0.5599 0.8169 0.0
C1828 C 0.40526 0.52259 0.85563 0.0
C1829 C 0.38823 0.4966 0.85894 0.0
C1830 C 0.36546 0.48654 0.84102 0.0
C1831 C 0.34984 0.46207 0.84343 0.0
C1832 C 0.35654 0.44744 0.86442 0.0
C1833 C 0.37878 0.45729 0.88343 0.0
C1834 C 0.3945 0.48173 0.88096 0.0
C1835 C 0.45926 0.6035 0.98113 0.0
C1836 C 0.47493 0.59685 0.99897 0.0
C1837 C 0.44479 0.59086 0.94727 0.0
C1838 C 0.44582 0.57145 0.93039 0.0
C1839 C 0.46045 0.56402 0.94962 0.0
C1840 C 0.47486 0.57664 0.98344 0.0
C1841 C 0.43282 0.55962 0.89138 0.0
C1842 C 0.41706 0.53505 0.89204 0.0
C1843 C 0.43645 0.57226 0.85338 0.0
C1844 C 0.45287 0.59824 0.85046 0.0
C1845 C 0.47699 0.60809 0.86063 0.0
C1846 C 0.4922 0.63266 0.85853 0.0
C1847 C 0.4835 0.64754 0.84605 0.0
C1848 C 0.4596 0.63787 0.83548 0.0
C1849 C 0.44433 0.61331 0.83752 0.0
H1850 H 0.49529 0.66655 0.84451 0.0
H1851 H 0.34441 0.4285 0.86627 0.0
H1852 H 0.89374 0.41634 1.00067 0.0
H1853 H 0.88959 0.44036 0.05555 0.0
H1854 H 0.83402 0.3767 0.11307 0.0
H1855 H 0.83736 0.35292 0.05804 0.0
H1856 H 0.82302 0.40803 0.12425 0.0
H1857 H 0.89206 0.40368 0.14113 0.0
H1858 H 0.93097 0.40717 0.12833 0.0
H1859 H 0.96396 0.48307 0.13088 0.0
H1860 H 0.92507 0.48026 0.13957 0.0
H1861 H 0.869 0.467 0.33643 0.0
H1862 H 0.86213 0.44062 0.27707 0.0
H1863 H 0.85661 0.49029 0.19472 0.0
H1864 H 0.863 0.51664 0.25375 0.0
H1865 H 0.89641 0.46495 0.19894 0.0
H1866 H 0.81546 0.45918 0.17546 0.0
H1867 H 0.77665 0.44806 0.20701 0.0
H1868 H 0.76803 0.38056 0.24393 0.0
H1869 H 0.80695 0.39148 0.21312 0.0
C1870 C 0.88031 0.40754 0.02452 0.0
C1871 C 0.86608 0.38266 0.02507 0.0
C1872 C 0.87805 0.42127 0.05608 0.0
C1873 C 0.86175 0.41034 0.089 0.0
C1874 C 0.84673 0.38565 0.0882 0.0
C1875 C 0.84881 0.37201 0.05665 0.0
C1876 C 0.86121 0.42418 0.12573 0.0
C1877 C 0.8392 0.42063 0.14009 0.0
C1878 C 0.88208 0.43987 0.1481 0.0
C1879 C 0.9054 0.44171 0.13981 0.0
C1880 C 0.90745 0.42115 0.13746 0.0
C1881 C 0.92952 0.42302 0.13075 0.0
C1882 C 0.94977 0.44536 0.12767 0.0
C1883 C 0.94809 0.46584 0.13172 0.0
C1884 C 0.92602 0.46412 0.13714 0.0
C1885 C 0.86569 0.47207 0.30592 0.0
C1886 C 0.86659 0.49399 0.29989 0.0
C1887 C 0.86173 0.45693 0.2721 0.0
C1888 C 0.85855 0.46342 0.23179 0.0
C1889 C 0.85852 0.48479 0.22583 0.0
C1890 C 0.86228 0.49986 0.25964 0.0
C1891 C 0.85867 0.44964 0.19524 0.0
C1892 C 0.88052 0.45287 0.18175 0.0
C1893 C 0.83771 0.43284 0.1751 0.0
C1894 C 0.81413 0.42622 0.19235 0.0
C1895 C 0.80535 0.44206 0.19058 0.0
C1896 C 0.78333 0.43578 0.20827 0.0
C1897 C 0.76991 0.41364 0.22755 0.0
C1898 C 0.77844 0.39771 0.22903 0.0
C1899 C 0.80045 0.40393 0.21144 0.0
H1900 H 0.75289 0.40883 0.24127 0.0
H1901 H 0.96685 0.44681 0.12241 0.0
H1902 H 0.47915 0.89917 0.33045 0.0
H1903 H 0.45394 0.89879 0.38776 0.0
H1904 H 0.4707 0.85279 0.4593 0.0
H1905 H 0.49627 0.85344 0.40314 0.0
H1906 H 0.41746 0.84809 0.45233 0.0
H1907 H 0.5051 0.90158 0.4673 0.0
H1908 H 0.54282 0.93788 0.45369 0.0
H1909 H 0.51331 0.98017 0.49653 0.0
H1910 H 0.4744 0.94443 0.50448 0.0
H1911 H 0.38216 0.84336 0.65986 0.0
H1912 H 0.40399 0.8425 0.59828 0.0
H1913 H 0.43394 0.9183 0.58403 0.0
H1914 H 0.41529 0.91941 0.64901 0.0
H1915 H 0.46293 0.91087 0.55683 0.0
H1916 H 0.37976 0.87034 0.52887 0.0
H1917 H 0.33756 0.84066 0.53854 0.0
H1918 H 0.35298 0.78443 0.51783 0.0
H1919 H 0.39536 0.81383 0.50851 0.0
C1920 C 0.47743 0.88898 0.35838 0.0
C1921 C 0.49062 0.87735 0.36326 0.0
C1922 C 0.46318 0.88894 0.39111 0.0
C1923 C 0.4617 0.8769 0.42841 0.0
C1924 C 0.47228 0.86274 0.43104 0.0
C1925 C 0.48691 0.8632 0.39895 0.0
C1926 C 0.4504 0.87975 0.46598 0.0
C1927 C 0.4272 0.86196 0.47514 0.0
C1928 C 0.46301 0.89846 0.49477 0.0
C1929 C 0.48631 0.91997 0.48547 0.0
C1930 C 0.50609 0.91849 0.47181 0.0
C1931 C 0.5279 0.93912 0.46543 0.0
C1932 C 0.53061 0.96132 0.47473 0.0
C1933 C 0.51125 0.96304 0.48886 0.0
C1934 C 0.48919 0.94259 0.49363 0.0
C1935 C 0.39418 0.85991 0.64431 0.0
C1936 C 0.39665 0.88149 0.65841 0.0
C1937 C 0.40622 0.85936 0.60858 0.0
C1938 C 0.41974 0.88017 0.58506 0.0
C1939 C 0.42355 0.90191 0.60117 0.0
C1940 C 0.41268 0.90259 0.63819 0.0
C1941 C 0.42955 0.87952 0.5434 0.0
C1942 C 0.45267 0.89743 0.53368 0.0
C1943 C 0.41625 0.86207 0.51283 0.0
C1944 C 0.39078 0.84431 0.51839 0.0
C1945 C 0.37418 0.85166 0.52662 0.0
C1946 C 0.35022 0.83488 0.53201 0.0
C1947 C 0.3426 0.81066 0.52892 0.0
C1948 C 0.35892 0.80319 0.52029 0.0
C1949 C 0.38291 0.81991 0.51491 0.0
H1950 H 0.32404 0.79769 0.53311 0.0
H1951 H 0.54772 0.97718 0.47105 0.0
H1952 H 0.58007 0.44767 0.64683 0.0
H1953 H 0.5571 0.42318 0.70692 0.0
H1954 H 0.57275 0.48663 0.77461 0.0
H1955 H 0.59654 0.51088 0.71591 0.0
H1956 H 0.58226 0.46001 0.82084 0.0
H1957 H 0.51771 0.44646 0.72853 0.0
H1958 H 0.49487 0.43263 0.66289 0.0
H1959 H 0.47942 0.36151 0.68816 0.0
H1960 H 0.5035 0.37496 0.75238 0.0
H1961 H 0.50491 0.40802 0.9969 0.0
H1962 H 0.52776 0.4309 0.93593 0.0
H1963 H 0.50668 0.36598 0.86872 0.0
H1964 H 0.48298 0.34313 0.92804 0.0
H1965 H 0.49954 0.39318 0.82149 0.0
H1966 H 0.56443 0.40546 0.91011 0.0
H1967 H 0.58974 0.41812 0.973 0.0
H1968 H 0.60516 0.48991 0.95415 0.0
H1969 H 0.57956 0.47764 0.89166 0.0
C1970 C 0.57784 0.45621 0.67413 0.0
C1971 C 0.58886 0.48107 0.67608 0.0
C1972 C 0.56484 0.44228 0.70847 0.0
C1973 C 0.56287 0.45311 0.74519 0.0
C1974 C 0.57378 0.47792 0.74659 0.0
C1975 C 0.58691 0.49173 0.7127 0.0
C1976 C 0.55106 0.43912 0.78352 0.0
C1977 C 0.56405 0.44553 0.82109 0.0
C1978 C 0.52755 0.41979 0.78362 0.0
C1979 C 0.51271 0.41181 0.7452 0.0
C1980 C 0.5097 0.42792 0.71995 0.0
C1981 C 0.4965 0.42015 0.683 0.0
C1982 C 0.48552 0.39626 0.67165 0.0
C1983 C 0.48791 0.38004 0.697 0.0
C1984 C 0.50149 0.38774 0.73352 0.0
C1985 C 0.50515 0.39863 0.96914 0.0
C1986 C 0.49153 0.37374 0.96713 0.0
C1987 C 0.51848 0.41175 0.93447 0.0
C1988 C 0.51885 0.40026 0.8975 0.0
C1989 C 0.50646 0.37537 0.89654 0.0
C1990 C 0.493 0.36229 0.93082 0.0
C1991 C 0.5308 0.41392 0.85887 0.0
C1992 C 0.51778 0.40758 0.82129 0.0
C1993 C 0.55439 0.43318 0.85864 0.0
C1994 C 0.56974 0.44052 0.89645 0.0
C1995 C 0.57299 0.4239 0.91961 0.0
C1996 C 0.58744 0.43102 0.95516 0.0
C1997 C 0.59901 0.45479 0.96761 0.0
C1998 C 0.59621 0.4715 0.94446 0.0
C1999 C 0.58172 0.46446 0.90897 0.0
H2000 H 0.61016 0.46025 0.99518 0.0
H2001 H 0.47522 0.39033 0.64312 0.0
H2002 H 0.12847 0.48423 0.25763 0.0
H2003 H 0.13232 0.51208 0.20235 0.0
H2004 H 0.12121 0.55471 0.29274 0.0
H2005 H 0.11842 0.52761 0.34858 0.0
H2006 H 0.08876 0.53807 0.22238 0.0
H2007 H 0.17129 0.57891 0.25511 0.0
H2008 H 0.21079 0.58352 0.26721 0.0
H2009 H 0.21215 0.56169 0.14104 0.0
H2010 H 0.17244 0.55659 0.12836 0.0
H2011 H 0.14125 0.64765 0.07879 0.0
H2012 H 0.1434 0.6239 0.1359 0.0
H2013 H 0.09417 0.55978 0.07152 0.0
H2014 H 0.09309 0.5837 0.01267 0.0
H2015 H 0.1571 0.58808 0.13031 0.0
H2016 H 0.05735 0.524 0.15676 0.0
H2017 H 0.01876 0.52271 0.15919 0.0
H2018 H 0.05423 0.59735 0.18494 0.0
H2019 H 0.09306 0.59931 0.18041 0.0
C2020 C 0.12743 0.49984 0.26603 0.0
C2021 C 0.12254 0.50338 0.30747 0.0
C2022 C 0.12958 0.51569 0.23432 0.0
C2023 C 0.12675 0.53523 0.24348 0.0
C2024 C 0.12324 0.53958 0.28507 0.0
C2025 C 0.12154 0.524 0.31688 0.0
C2026 C 0.12543 0.54997 0.20933 0.0
C2027 C 0.10369 0.54899 0.20222 0.0
C2028 C 0.145 0.56433 0.18336 0.0
C2029 C 0.16873 0.56705 0.19096 0.0
C2030 C 0.17986 0.57479 0.23009 0.0
C2031 C 0.20233 0.57758 0.23702 0.0
C2032 C 0.21394 0.57282 0.20496 0.0
C2033 C 0.20311 0.56531 0.16587 0.0
C2034 C 0.18062 0.56249 0.15879 0.0
C2035 C 0.13098 0.62849 0.07633 0.0
C2036 C 0.11635 0.61751 0.04139 0.0
C2037 C 0.13215 0.61496 0.10928 0.0
C2038 C 0.11857 0.59014 0.10834 0.0
C2039 C 0.10437 0.57898 0.07324 0.0
C2040 C 0.10358 0.59259 0.03979 0.0
C2041 C 0.12032 0.57607 0.1433 0.0
C2042 C 0.14212 0.57703 0.15034 0.0
C2043 C 0.10095 0.56212 0.16998 0.0
C2044 C 0.07807 0.56183 0.16713 0.0
C2045 C 0.05688 0.54022 0.16178 0.0
C2046 C 0.03502 0.53941 0.16348 0.0
C2047 C 0.03409 0.56005 0.17147 0.0
C2048 C 0.05505 0.58156 0.17746 0.0
C2049 C 0.07701 0.58257 0.17485 0.0
H2050 H 0.01713 0.55932 0.1734 0.0
H2051 H 0.23135 0.57501 0.21036 0.0
loop_
_geom_bond_atom_site_label_1
_geom_bond_atom_site_label_2
_geom_bond_distance
_geom_bond_site_symmetry_2
_ccdc_geom_bond_type
O0 Mg1 1.990 . S
O0 C14 1.253 . S
Mg1 O0 1.990 . S
Mg1 O4 2.180 . S
Mg1 O5 2.117 . S
Mg1 O19 2.030 . S
O2 Mg3 2.072 . S
O2 C14 1.260 . S
Mg3 O2 2.072 . S
Mg3 O4 2.099 . S
Mg3 O6 2.079 . S
Mg3 O7 2.072 . S
Mg3 O9 2.099 . S
Mg3 O20 2.079 . S
O4 Mg1 2.180 . S
O4 Mg3 2.099 . S
O4 C15 1.279 . S
O5 Mg1 2.117 . S
O5 C15 1.250 . S
O6 Mg3 2.079 . S
O6 C16 1.264 . S
O7 Mg3 2.072 . S
O7 C17 1.260 . S
Mg8 O9 2.180 . S
Mg8 O10 2.030 . S
Mg8 O11 1.990 . S
Mg8 O12 2.117 . S
O9 Mg3 2.099 . S
O9 Mg8 2.180 . S
O9 C18 1.279 . S
O10 Mg8 2.030 . S
O10 C16 1.248 . S
O11 Mg8 1.990 . S
O11 C17 1.253 . S
O12 Mg8 2.117 . S
O12 C18 1.250 . S
C13 O19 1.248 . S
C13 O20 1.264 . S
C14 O0 1.253 . S
C14 O2 1.260 . S
C15 O4 1.279 . S
C15 O5 1.250 . S
C16 O6 1.264 . S
C16 O10 1.248 . S
C17 O7 1.260 . S
C17 O11 1.253 . S
C18 O9 1.279 . S
C18 O12 1.250 . S
O19 Mg1 2.030 . S
O19 C13 1.248 . S
O20 Mg3 2.079 . S
O20 C13 1.264 . S
O21 Mg22 1.990 . S
O21 C35 1.253 . S
Mg22 O21 1.990 . S
Mg22 O25 2.180 . S
Mg22 O26 2.117 . S
Mg22 O40 2.030 . S
O23 Mg24 2.072 . S
O23 C35 1.260 . S
Mg24 O23 2.072 . S
Mg24 O25 2.099 . S
Mg24 O27 2.079 . S
Mg24 O28 2.072 . S
Mg24 O30 2.099 . S
Mg24 O41 2.079 . S
O25 Mg22 2.180 . S
O25 Mg24 2.099 . S
O25 C36 1.279 . S
O26 Mg22 2.117 . S
O26 C36 1.250 . S
O27 Mg24 2.079 . S
O27 C37 1.264 . S
O28 Mg24 2.072 . S
O28 C38 1.260 . S
Mg29 O30 2.180 . S
Mg29 O31 2.030 . S
Mg29 O32 1.990 . S
Mg29 O33 2.117 . S
O30 Mg24 2.099 . S
O30 Mg29 2.180 . S
O30 C39 1.279 . S
O31 Mg29 2.030 . S
O31 C37 1.248 . S
O32 Mg29 1.990 . S
O32 C38 1.253 . S
O33 Mg29 2.117 . S
O33 C39 1.250 . S
C34 O40 1.248 . S
C34 O41 1.264 . S
C35 O21 1.253 . S
C35 O23 1.260 . S
C36 O25 1.279 . S
C36 O26 1.250 . S
C37 O27 1.264 . S
C37 O31 1.248 . S
C38 O28 1.260 . S
C38 O32 1.253 . S
C39 O30 1.279 . S
C39 O33 1.250 . S
O40 Mg22 2.030 . S
O40 C34 1.248 . S
O41 Mg24 2.079 . S
O41 C34 1.264 . S
O42 Mg43 1.990 1_554 S
O42 C56 1.253 1_554 S
Mg43 O42 1.990 1_556 S
Mg43 O46 2.180 . S
Mg43 O47 2.117 . S
Mg43 O61 2.030 1_556 S
O44 Mg45 2.072 . S
O44 C56 1.260 . S
Mg45 O44 2.072 . S
Mg45 O46 2.099 . S
Mg45 O48 2.079 . S
Mg45 O49 2.072 . S
Mg45 O51 2.099 . S
Mg45 O62 2.079 . S
O46 Mg43 2.180 . S
O46 Mg45 2.099 . S
O46 C57 1.279 . S
O47 Mg43 2.117 . S
O47 C57 1.250 . S
O48 Mg45 2.079 . S
O48 C58 1.264 . S
O49 Mg45 2.072 . S
O49 C59 1.260 . S
Mg50 O51 2.180 . S
Mg50 O52 2.030 . S
Mg50 O53 1.990 . S
Mg50 O54 2.117 . S
O51 Mg45 2.099 . S
O51 Mg50 2.180 . S
O51 C60 1.279 . S
O52 Mg50 2.030 . S
O52 C58 1.248 . S
O53 Mg50 1.990 . S
O53 C59 1.253 . S
O54 Mg50 2.117 . S
O54 C60 1.250 . S
C55 O61 1.248 . S
C55 O62 1.264 1_554 S
C56 O42 1.253 1_556 S
C56 O44 1.260 . S
C57 O46 1.279 . S
C57 O47 1.250 . S
C58 O48 1.264 . S
C58 O52 1.248 . S
C59 O49 1.260 . S
C59 O53 1.253 . S
C60 O51 1.279 . S
C60 O54 1.250 . S
O61 Mg43 2.030 1_554 S
O61 C55 1.248 . S
O62 Mg45 2.079 . S
O62 C55 1.264 1_556 S
O63 Mg64 1.990 . S
O63 C77 1.253 . S
Mg64 O63 1.990 . S
Mg64 O67 2.180 . S
Mg64 O68 2.117 . S
Mg64 O82 2.030 . S
O65 Mg66 2.072 . S
O65 C77 1.260 . S
Mg66 O65 2.072 . S
Mg66 O67 2.099 . S
Mg66 O69 2.079 . S
Mg66 O70 2.072 . S
Mg66 O72 2.099 . S
Mg66 O83 2.079 . S
O67 Mg64 2.180 . S
O67 Mg66 2.099 . S
O67 C78 1.279 . S
O68 Mg64 2.117 . S
O68 C78 1.250 . S
O69 Mg66 2.079 . S
O69 C79 1.264 . S
O70 Mg66 2.072 . S
O70 C80 1.260 . S
Mg71 O72 2.180 . S
Mg71 O73 2.030 . S
Mg71 O74 1.990 . S
Mg71 O75 2.117 . S
O72 Mg66 2.099 . S
O72 Mg71 2.180 . S
O72 C81 1.279 . S
O73 Mg71 2.030 . S
O73 C79 1.248 . S
O74 Mg71 1.990 . S
O74 C80 1.253 . S
O75 Mg71 2.117 . S
O75 C81 1.250 . S
C76 O82 1.248 . S
C76 O83 1.264 . S
C77 O63 1.253 . S
C77 O65 1.260 . S
C78 O67 1.279 . S
C78 O68 1.250 . S
C79 O69 1.264 . S
C79 O73 1.248 . S
C80 O70 1.260 . S
C80 O74 1.253 . S
C81 O72 1.279 . S
C81 O75 1.250 . S
O82 Mg64 2.030 . S
O82 C76 1.248 . S
O83 Mg66 2.079 . S
O83 C76 1.264 . S
O84 Mg85 1.990 . S
O84 C98 1.253 . S
Mg85 O84 1.990 . S
Mg85 O88 2.180 . S
Mg85 O89 2.117 . S
Mg85 O103 2.030 . S
O86 Mg87 2.072 . S
O86 C98 1.260 . S
Mg87 O86 2.072 . S
Mg87 O88 2.099 . S
Mg87 O90 2.079 . S
Mg87 O91 2.072 . S
Mg87 O93 2.099 . S
Mg87 O104 2.079 . S
O88 Mg85 2.180 . S
O88 Mg87 2.099 . S
O88 C99 1.279 . S
O89 Mg85 2.117 . S
O89 C99 1.250 . S
O90 Mg87 2.079 . S
O90 C100 1.264 . S
O91 Mg87 2.072 . S
O91 C101 1.260 . S
Mg92 O93 2.180 . S
Mg92 O94 2.030 . S
Mg92 O95 1.990 . S
Mg92 O96 2.117 . S
O93 Mg87 2.099 . S
O93 Mg92 2.180 . S
O93 C102 1.279 . S
O94 Mg92 2.030 . S
O94 C100 1.248 . S
O95 Mg92 1.990 . S
O95 C101 1.253 . S
O96 Mg92 2.117 . S
O96 C102 1.250 . S
C97 O103 1.248 . S
C97 O104 1.264 . S
C98 O84 1.253 . S
C98 O86 1.260 . S
C99 O88 1.279 . S
C99 O89 1.250 . S
C100 O90 1.264 . S
C100 O94 1.248 . S
C101 O91 1.260 . S
C101 O95 1.253 . S
C102 O93 1.279 . S
C102 O96 1.250 . S
O103 Mg85 2.030 . S
O103 C97 1.248 . S
O104 Mg87 2.079 . S
O104 C97 1.264 . S
O105 Mg106 1.990 1_554 S
O105 C119 1.253 1_554 S
Mg106 O105 1.990 1_556 S
Mg106 O109 2.180 . S
Mg106 O110 2.117 . S
Mg106 O124 2.030 1_556 S
O107 Mg108 2.072 . S
O107 C119 1.260 . S
Mg108 O107 2.072 . S
Mg108 O109 2.099 . S
Mg108 O111 2.079 . S
Mg108 O112 2.072 . S
Mg108 O114 2.099 . S
Mg108 O125 2.079 . S
O109 Mg106 2.180 . S
O109 Mg108 2.099 . S
O109 C120 1.279 . S
O110 Mg106 2.117 . S
O110 C120 1.250 . S
O111 Mg108 2.079 . S
O111 C121 1.264 . S
O112 Mg108 2.072 . S
O112 C122 1.260 . S
Mg113 O114 2.180 . S
Mg113 O115 2.030 . S
Mg113 O116 1.990 . S
Mg113 O117 2.117 . S
O114 Mg108 2.099 . S
O114 Mg113 2.180 . S
O114 C123 1.279 . S
O115 Mg113 2.030 . S
O115 C121 1.248 . S
O116 Mg113 1.990 . S
O116 C122 1.253 . S
O117 Mg113 2.117 . S
O117 C123 1.250 . S
C118 O124 1.248 . S
C118 O125 1.264 1_554 S
C119 O105 1.253 1_556 S
C119 O107 1.260 . S
C120 O109 1.279 . S
C120 O110 1.250 . S
C121 O111 1.264 . S
C121 O115 1.248 . S
C122 O112 1.260 . S
C122 O116 1.253 . S
C123 O114 1.279 . S
C123 O117 1.250 . S
O124 Mg106 2.030 1_554 S
O124 C118 1.248 . S
O125 Mg108 2.079 . S
O125 C118 1.264 1_556 S
O126 Mg127 1.990 . S
O126 C140 1.253 . S
Mg127 O126 1.990 . S
Mg127 O130 2.180 . S
Mg127 O131 2.117 . S
Mg127 O145 2.030 . S
O128 Mg129 2.072 . S
O128 C140 1.260 . S
Mg129 O128 2.072 . S
Mg129 O130 2.099 . S
Mg129 O132 2.079 . S
Mg129 O133 2.072 . S
Mg129 O135 2.099 . S
Mg129 O146 2.079 . S
O130 Mg127 2.180 . S
O130 Mg129 2.099 . S
O130 C141 1.279 . S
O131 Mg127 2.117 . S
O131 C141 1.250 . S
O132 Mg129 2.079 . S
O132 C142 1.264 . S
O133 Mg129 2.072 . S
O133 C143 1.260 . S
Mg134 O135 2.180 . S
Mg134 O136 2.030 . S
Mg134 O137 1.990 . S
Mg134 O138 2.117 . S
O135 Mg129 2.099 . S
O135 Mg134 2.180 . S
O135 C144 1.279 . S
O136 Mg134 2.030 . S
O136 C142 1.248 . S
O137 Mg134 1.990 . S
O137 C143 1.253 . S
O138 Mg134 2.117 . S
O138 C144 1.250 . S
C139 O145 1.248 . S
C139 O146 1.264 . S
C140 O126 1.253 . S
C140 O128 1.260 . S
C141 O130 1.279 . S
C141 O131 1.250 . S
C142 O132 1.264 . S
C142 O136 1.248 . S
C143 O133 1.260 . S
C143 O137 1.253 . S
C144 O135 1.279 . S
C144 O138 1.250 . S
O145 Mg127 2.030 . S
O145 C139 1.248 . S
O146 Mg129 2.079 . S
O146 C139 1.264 . S
O147 Mg148 1.990 . S
O147 C161 1.253 . S
Mg148 O147 1.990 . S
Mg148 O151 2.180 . S
Mg148 O152 2.117 . S
Mg148 O166 2.030 . S
O149 Mg150 2.072 . S
O149 C161 1.260 . S
Mg150 O149 2.072 . S
Mg150 O151 2.099 . S
Mg150 O153 2.079 . S
Mg150 O154 2.072 . S
Mg150 O156 2.099 . S
Mg150 O167 2.079 . S
O151 Mg148 2.180 . S
O151 Mg150 2.099 . S
O151 C162 1.279 . S
O152 Mg148 2.117 . S
O152 C162 1.250 . S
O153 Mg150 2.079 . S
O153 C163 1.264 . S
O154 Mg150 2.072 . S
O154 C164 1.260 . S
Mg155 O156 2.180 . S
Mg155 O157 2.030 . S
Mg155 O158 1.990 . S
Mg155 O159 2.117 . S
O156 Mg150 2.099 . S
O156 Mg155 2.180 . S
O156 C165 1.279 . S
O157 Mg155 2.030 . S
O157 C163 1.248 . S
O158 Mg155 1.990 . S
O158 C164 1.253 . S
O159 Mg155 2.117 . S
O159 C165 1.250 . S
C160 O166 1.248 . S
C160 O167 1.264 . S
C161 O147 1.253 . S
C161 O149 1.260 . S
C162 O151 1.279 . S
C162 O152 1.250 . S
C163 O153 1.264 . S
C163 O157 1.248 . S
C164 O154 1.260 . S
C164 O158 1.253 . S
C165 O156 1.279 . S
C165 O159 1.250 . S
O166 Mg148 2.030 . S
O166 C160 1.248 . S
O167 Mg150 2.079 . S
O167 C160 1.264 . S
O168 Mg169 1.990 1_556 S
O168 C182 1.253 1_556 S
Mg169 O168 1.990 1_554 S
Mg169 O172 2.180 . S
Mg169 O173 2.117 . S
Mg169 O187 2.030 1_554 S
O170 Mg171 2.072 . S
O170 C182 1.260 . S
Mg171 O170 2.072 . S
Mg171 O172 2.099 . S
Mg171 O174 2.079 . S
Mg171 O175 2.072 . S
Mg171 O177 2.099 . S
Mg171 O188 2.079 . S
O172 Mg169 2.180 . S
O172 Mg171 2.099 . S
O172 C183 1.279 . S
O173 Mg169 2.117 . S
O173 C183 1.250 . S
O174 Mg171 2.079 . S
O174 C184 1.264 . S
O175 Mg171 2.072 . S
O175 C185 1.260 . S
Mg176 O177 2.180 . S
Mg176 O178 2.030 . S
Mg176 O179 1.990 . S
Mg176 O180 2.117 . S
O177 Mg171 2.099 . S
O177 Mg176 2.180 . S
O177 C186 1.279 . S
O178 Mg176 2.030 . S
O178 C184 1.248 . S
O179 Mg176 1.990 . S
O179 C185 1.253 . S
O180 Mg176 2.117 . S
O180 C186 1.250 . S
C181 O187 1.248 . S
C181 O188 1.264 1_556 S
C182 O168 1.253 1_554 S
C182 O170 1.260 . S
C183 O172 1.279 . S
C183 O173 1.250 . S
C184 O174 1.264 . S
C184 O178 1.248 . S
C185 O175 1.260 . S
C185 O179 1.253 . S
C186 O177 1.279 . S
C186 O180 1.250 . S
O187 Mg169 2.030 1_556 S
O187 C181 1.248 . S
O188 Mg171 2.079 . S
O188 C181 1.264 1_554 S
O189 Mg190 1.990 . S
O189 C203 1.253 . S
Mg190 O189 1.990 . S
Mg190 O193 2.180 . S
Mg190 O194 2.117 . S
Mg190 O208 2.030 . S
O191 Mg192 2.072 . S
O191 C203 1.260 . S
Mg192 O191 2.072 . S
Mg192 O193 2.099 . S
Mg192 O195 2.079 . S
Mg192 O196 2.072 . S
Mg192 O198 2.099 . S
Mg192 O209 2.079 . S
O193 Mg190 2.180 . S
O193 Mg192 2.099 . S
O193 C204 1.279 . S
O194 Mg190 2.117 . S
O194 C204 1.250 . S
O195 Mg192 2.079 . S
O195 C205 1.264 . S
O196 Mg192 2.072 . S
O196 C206 1.260 . S
Mg197 O198 2.180 . S
Mg197 O199 2.030 . S
Mg197 O200 1.990 . S
Mg197 O201 2.117 . S
O198 Mg192 2.099 . S
O198 Mg197 2.180 . S
O198 C207 1.279 . S
O199 Mg197 2.030 . S
O199 C205 1.248 . S
O200 Mg197 1.990 . S
O200 C206 1.253 . S
O201 Mg197 2.117 . S
O201 C207 1.250 . S
C202 O208 1.248 . S
C202 O209 1.264 . S
C203 O189 1.253 . S
C203 O191 1.260 . S
C204 O193 1.279 . S
C204 O194 1.250 . S
C205 O195 1.264 . S
C205 O199 1.248 . S
C206 O196 1.260 . S
C206 O200 1.253 . S
C207 O198 1.279 . S
C207 O201 1.250 . S
O208 Mg190 2.030 . S
O208 C202 1.248 . S
O209 Mg192 2.079 . S
O209 C202 1.264 . S
O210 Mg211 1.990 . S
O210 C224 1.253 . S
Mg211 O210 1.990 . S
Mg211 O214 2.180 . S
Mg211 O215 2.117 . S
Mg211 O229 2.030 . S
O212 Mg213 2.072 . S
O212 C224 1.260 . S
Mg213 O212 2.072 . S
Mg213 O214 2.099 . S
Mg213 O216 2.079 . S
Mg213 O217 2.072 . S
Mg213 O219 2.099 . S
Mg213 O230 2.079 . S
O214 Mg211 2.180 . S
O214 Mg213 2.099 . S
O214 C225 1.279 . S
O215 Mg211 2.117 . S
O215 C225 1.250 . S
O216 Mg213 2.079 . S
O216 C226 1.264 . S
O217 Mg213 2.072 . S
O217 C227 1.260 . S
Mg218 O219 2.180 . S
Mg218 O220 2.030 . S
Mg218 O221 1.990 . S
Mg218 O222 2.117 . S
O219 Mg213 2.099 . S
O219 Mg218 2.180 . S
O219 C228 1.279 . S
O220 Mg218 2.030 . S
O220 C226 1.248 . S
O221 Mg218 1.990 . S
O221 C227 1.253 . S
O222 Mg218 2.117 . S
O222 C228 1.250 . S
C223 O229 1.248 . S
C223 O230 1.264 . S
C224 O210 1.253 . S
C224 O212 1.260 . S
C225 O214 1.279 . S
C225 O215 1.250 . S
C226 O216 1.264 . S
C226 O220 1.248 . S
C227 O217 1.260 . S
C227 O221 1.253 . S
C228 O219 1.279 . S
C228 O222 1.250 . S
O229 Mg211 2.030 . S
O229 C223 1.248 . S
O230 Mg213 2.079 . S
O230 C223 1.264 . S
O231 Mg232 1.990 1_556 S
O231 C245 1.253 1_556 S
Mg232 O231 1.990 1_554 S
Mg232 O235 2.180 . S
Mg232 O236 2.117 . S
Mg232 O250 2.030 1_554 S
O233 Mg234 2.072 . S
O233 C245 1.260 . S
Mg234 O233 2.072 . S
Mg234 O235 2.099 . S
Mg234 O237 2.079 . S
Mg234 O238 2.072 . S
Mg234 O240 2.099 . S
Mg234 O251 2.079 . S
O235 Mg232 2.180 . S
O235 Mg234 2.099 . S
O235 C246 1.279 . S
O236 Mg232 2.117 . S
O236 C246 1.250 . S
O237 Mg234 2.079 . S
O237 C247 1.264 . S
O238 Mg234 2.072 . S
O238 C248 1.260 . S
Mg239 O240 2.180 . S
Mg239 O241 2.030 . S
Mg239 O242 1.990 . S
Mg239 O243 2.117 . S
O240 Mg234 2.099 . S
O240 Mg239 2.180 . S
O240 C249 1.279 . S
O241 Mg239 2.030 . S
O241 C247 1.248 . S
O242 Mg239 1.990 . S
O242 C248 1.253 . S
O243 Mg239 2.117 . S
O243 C249 1.250 . S
C244 O250 1.248 . S
C244 O251 1.264 1_556 S
C245 O231 1.253 1_554 S
C245 O233 1.260 . S
C246 O235 1.279 . S
C246 O236 1.250 . S
C247 O237 1.264 . S
C247 O241 1.248 . S
C248 O238 1.260 . S
C248 O242 1.253 . S
C249 O240 1.279 . S
C249 O243 1.250 . S
O250 Mg232 2.030 1_556 S
O250 C244 1.248 . S
O251 Mg234 2.079 . S
O251 C244 1.264 1_554 S
H252 C270 0.951 . S
H253 C272 0.951 . S
H254 C274 0.950 . S
H255 C275 0.950 . S
H256 C277 0.950 . S
H257 C280 0.950 . S
H258 C281 0.950 . S
H259 C283 0.950 . S
H260 C284 0.950 . S
H261 C285 0.951 . S
H262 C287 0.951 . S
H263 C289 0.950 . S
H264 C290 0.950 . S
H265 C292 0.950 . S
H266 C295 0.950 . S
H267 C296 0.950 . S
H268 C298 0.950 . S
H269 C299 0.950 . S
C270 H252 0.951 . S
C270 C271 1.366 . S
C270 C272 1.388 . S
C271 C270 1.366 . S
C271 C275 1.385 . S
C272 H253 0.951 . S
C272 C270 1.388 . S
C272 C273 1.366 . S
C273 C272 1.366 . S
C273 C274 1.414 . S
C273 C276 1.499 . S
C274 H254 0.950 . S
C274 C273 1.414 . S
C274 C275 1.374 . S
C275 H255 0.950 . S
C275 C271 1.385 . S
C275 C274 1.374 . S
C276 C273 1.499 . S
C276 C277 1.373 . S
C276 C278 1.389 . S
C277 H256 0.950 . S
C277 C276 1.373 . S
C277 C293 1.377 . S
C278 C276 1.389 . S
C278 C279 1.524 . S
C278 C292 1.377 . S
C279 C278 1.524 . S
C279 C280 1.397 . S
C279 C284 1.363 . S
C280 H257 0.950 . S
C280 C279 1.397 . S
C280 C281 1.334 . S
C281 H258 0.950 . S
C281 C280 1.334 . S
C281 C282 1.287 . S
C282 C281 1.287 . S
C282 C283 1.524 . S
C282 H301 0.913 . S
C283 H259 0.950 . S
C283 C282 1.524 . S
C283 C284 1.415 . S
C284 H260 0.950 . S
C284 C279 1.363 . S
C284 C283 1.415 . S
C285 H261 0.951 . S
C285 C286 1.366 . S
C285 C287 1.388 . S
C286 C285 1.366 . S
C286 C290 1.385 . S
C287 H262 0.951 . S
C287 C285 1.388 . S
C287 C288 1.366 . S
C288 C287 1.366 . S
C288 C289 1.414 . S
C288 C291 1.499 . S
C289 H263 0.950 . S
C289 C288 1.414 . S
C289 C290 1.374 . S
C290 H264 0.950 . S
C290 C286 1.385 . S
C290 C289 1.374 . S
C291 C288 1.499 . S
C291 C292 1.373 . S
C291 C293 1.389 . S
C292 H265 0.950 . S
C292 C278 1.377 . S
C292 C291 1.373 . S
C293 C277 1.377 . S
C293 C291 1.389 . S
C293 C294 1.524 . S
C294 C293 1.524 . S
C294 C295 1.397 . S
C294 C299 1.363 . S
C295 H266 0.950 . S
C295 C294 1.397 . S
C295 C296 1.334 . S
C296 H267 0.950 . S
C296 C295 1.334 . S
C296 C297 1.287 . S
C297 C296 1.287 . S
C297 C298 1.524 . S
C297 H300 0.999 . S
C298 H268 0.950 . S
C298 C297 1.524 . S
C298 C299 1.415 . S
C299 H269 0.950 . S
C299 C294 1.363 . S
C299 C298 1.415 . S
H300 C297 0.999 . S
H301 C282 0.913 . S
H302 C320 0.951 . S
H303 C322 0.951 . S
H304 C324 0.950 . S
H305 C325 0.950 . S
H306 C327 0.950 . S
H307 C330 0.950 . S
H308 C331 0.950 . S
H309 C333 0.950 . S
H310 C334 0.950 . S
H311 C335 0.951 . S
H312 C337 0.951 . S
H313 C339 0.950 . S
H314 C340 0.950 . S
H315 C342 0.950 . S
H316 C345 0.950 . S
H317 C346 0.950 . S
H318 C348 0.950 . S
H319 C349 0.950 . S
C320 H302 0.951 . S
C320 C321 1.366 . S
C320 C322 1.388 . S
C321 C320 1.366 . S
C321 C325 1.385 . S
C322 H303 0.951 . S
C322 C320 1.388 . S
C322 C323 1.366 . S
C323 C322 1.366 . S
C323 C324 1.414 . S
C323 C326 1.499 . S
C324 H304 0.950 . S
C324 C323 1.414 . S
C324 C325 1.374 . S
C325 H305 0.950 . S
C325 C321 1.385 . S
C325 C324 1.374 . S
C326 C323 1.499 . S
C326 C327 1.373 . S
C326 C328 1.389 . S
C327 H306 0.950 . S
C327 C326 1.373 . S
C327 C343 1.377 . S
C328 C326 1.389 . S
C328 C329 1.524 . S
C328 C342 1.377 . S
C329 C328 1.524 . S
C329 C330 1.397 . S
C329 C334 1.363 . S
C330 H307 0.950 . S
C330 C329 1.397 . S
C330 C331 1.334 . S
C331 H308 0.950 . S
C331 C330 1.334 . S
C331 C332 1.287 . S
C332 C331 1.287 . S
C332 C333 1.524 . S
C332 H351 0.913 . S
C333 H309 0.950 . S
C333 C332 1.524 . S
C333 C334 1.415 . S
C334 H310 0.950 . S
C334 C329 1.363 . S
C334 C333 1.415 . S
C335 H311 0.951 . S
C335 C336 1.366 . S
C335 C337 1.388 . S
C336 C335 1.366 . S
C336 C340 1.385 . S
C337 H312 0.951 . S
C337 C335 1.388 . S
C337 C338 1.366 . S
C338 C337 1.366 . S
C338 C339 1.414 . S
C338 C341 1.499 . S
C339 H313 0.950 . S
C339 C338 1.414 . S
C339 C340 1.374 . S
C340 H314 0.950 . S
C340 C336 1.385 . S
C340 C339 1.374 . S
C341 C338 1.499 . S
C341 C342 1.373 . S
C341 C343 1.389 . S
C342 H315 0.950 . S
C342 C328 1.377 . S
C342 C341 1.373 . S
C343 C327 1.377 . S
C343 C341 1.389 . S
C343 C344 1.524 . S
C344 C343 1.524 . S
C344 C345 1.397 . S
C344 C349 1.363 . S
C345 H316 0.950 . S
C345 C344 1.397 . S
C345 C346 1.334 . S
C346 H317 0.950 . S
C346 C345 1.334 . S
C346 C347 1.287 . S
C347 C346 1.287 . S
C347 C348 1.524 . S
C347 H350 0.999 . S
C348 H318 0.950 . S
C348 C347 1.524 . S
C348 C349 1.415 . S
C349 H319 0.950 . S
C349 C344 1.363 . S
C349 C348 1.415 . S
H350 C347 0.999 . S
H351 C332 0.913 . S
H352 C370 0.951 . S
H353 C372 0.951 . S
H354 C374 0.950 . S
H355 C375 0.950 . S
H356 C377 0.950 . S
H357 C380 0.950 . S
H358 C381 0.950 . S
H359 C383 0.950 . S
H360 C384 0.950 . S
H361 C385 0.951 . S
H362 C387 0.951 . S
H363 C389 0.950 . S
H364 C390 0.950 . S
H365 C392 0.950 . S
H366 C395 0.950 . S
H367 C396 0.950 . S
H368 C398 0.950 . S
H369 C399 0.950 . S
C370 H352 0.951 . S
C370 C371 1.366 . S
C370 C372 1.388 . S
C371 C370 1.366 . S
C371 C375 1.385 . S
C372 H353 0.951 . S
C372 C370 1.388 . S
C372 C373 1.366 . S
C373 C372 1.366 . S
C373 C374 1.414 . S
C373 C376 1.499 . S
C374 H354 0.950 . S
C374 C373 1.414 . S
C374 C375 1.374 . S
C375 H355 0.950 . S
C375 C371 1.385 . S
C375 C374 1.374 . S
C376 C373 1.499 . S
C376 C377 1.373 . S
C376 C378 1.389 . S
C377 H356 0.950 . S
C377 C376 1.373 . S
C377 C393 1.377 . S
C378 C376 1.389 . S
C378 C379 1.524 . S
C378 C392 1.377 . S
C379 C378 1.524 . S
C379 C380 1.397 . S
C379 C384 1.363 . S
C380 H357 0.950 . S
C380 C379 1.397 . S
C380 C381 1.334 . S
C381 H358 0.950 . S
C381 C380 1.334 . S
C381 C382 1.287 . S
C382 C381 1.287 . S
C382 C383 1.524 . S
C382 H401 0.913 . S
C383 H359 0.950 . S
C383 C382 1.524 . S
C383 C384 1.415 . S
C384 H360 0.950 . S
C384 C379 1.363 . S
C384 C383 1.415 . S
C385 H361 0.951 . S
C385 C386 1.366 . S
C385 C387 1.388 . S
C386 C385 1.366 . S
C386 C390 1.385 . S
C387 H362 0.951 . S
C387 C385 1.388 . S
C387 C388 1.366 . S
C388 C387 1.366 . S
C388 C389 1.414 . S
C388 C391 1.499 . S
C389 H363 0.950 . S
C389 C388 1.414 . S
C389 C390 1.374 . S
C390 H364 0.950 . S
C390 C386 1.385 . S
C390 C389 1.374 . S
C391 C388 1.499 . S
C391 C392 1.373 . S
C391 C393 1.389 . S
C392 H365 0.950 . S
C392 C378 1.377 . S
C392 C391 1.373 . S
C393 C377 1.377 . S
C393 C391 1.389 . S
C393 C394 1.524 . S
C394 C393 1.524 . S
C394 C395 1.397 . S
C394 C399 1.363 . S
C395 H366 0.950 . S
C395 C394 1.397 . S
C395 C396 1.334 . S
C396 H367 0.950 . S
C396 C395 1.334 . S
C396 C397 1.287 . S
C397 C396 1.287 . S
C397 C398 1.524 . S
C397 H400 0.999 . S
C398 H368 0.950 . S
C398 C397 1.524 . S
C398 C399 1.415 . S
C399 H369 0.950 . S
C399 C394 1.363 . S
C399 C398 1.415 . S
H400 C397 0.999 . S
H401 C382 0.913 . S
H402 C420 0.951 . S
H403 C422 0.951 . S
H404 C424 0.950 . S
H405 C425 0.950 . S
H406 C427 0.950 . S
H407 C430 0.950 . S
H408 C431 0.950 . S
H409 C433 0.950 . S
H410 C434 0.950 . S
H411 C435 0.951 . S
H412 C437 0.951 . S
H413 C439 0.950 . S
H414 C440 0.950 . S
H415 C442 0.950 . S
H416 C445 0.950 . S
H417 C446 0.950 . S
H418 C448 0.950 . S
H419 C449 0.950 . S
C420 H402 0.951 . S
C420 C421 1.366 . S
C420 C422 1.388 . S
C421 C420 1.366 . S
C421 C425 1.385 . S
C422 H403 0.951 . S
C422 C420 1.388 . S
C422 C423 1.366 . S
C423 C422 1.366 . S
C423 C424 1.414 . S
C423 C426 1.499 . S
C424 H404 0.950 . S
C424 C423 1.414 . S
C424 C425 1.374 . S
C425 H405 0.950 . S
C425 C421 1.385 . S
C425 C424 1.374 . S
C426 C423 1.499 . S
C426 C427 1.373 . S
C426 C428 1.389 . S
C427 H406 0.950 . S
C427 C426 1.373 . S
C427 C443 1.377 . S
C428 C426 1.389 . S
C428 C429 1.524 . S
C428 C442 1.377 . S
C429 C428 1.524 . S
C429 C430 1.397 . S
C429 C434 1.363 . S
C430 H407 0.950 . S
C430 C429 1.397 . S
C430 C431 1.334 . S
C431 H408 0.950 . S
C431 C430 1.334 . S
C431 C432 1.287 . S
C432 C431 1.287 . S
C432 C433 1.524 . S
C432 H451 0.913 . S
C433 H409 0.950 . S
C433 C432 1.524 . S
C433 C434 1.415 . S
C434 H410 0.950 . S
C434 C429 1.363 . S
C434 C433 1.415 . S
C435 H411 0.951 . S
C435 C436 1.366 . S
C435 C437 1.388 . S
C436 C435 1.366 . S
C436 C440 1.385 . S
C437 H412 0.951 . S
C437 C435 1.388 . S
C437 C438 1.366 . S
C438 C437 1.366 . S
C438 C439 1.414 . S
C438 C441 1.499 . S
C439 H413 0.950 . S
C439 C438 1.414 . S
C439 C440 1.374 . S
C440 H414 0.950 . S
C440 C436 1.385 . S
C440 C439 1.374 . S
C441 C438 1.499 . S
C441 C442 1.373 . S
C441 C443 1.389 . S
C442 H415 0.950 . S
C442 C428 1.377 . S
C442 C441 1.373 . S
C443 C427 1.377 . S
C443 C441 1.389 . S
C443 C444 1.524 . S
C444 C443 1.524 . S
C444 C445 1.397 . S
C444 C449 1.363 . S
C445 H416 0.950 . S
C445 C444 1.397 . S
C445 C446 1.334 . S
C446 H417 0.950 . S
C446 C445 1.334 . S
C446 C447 1.287 . S
C447 C446 1.287 . S
C447 C448 1.524 . S
C447 H450 0.999 . S
C448 H418 0.950 . S
C448 C447 1.524 . S
C448 C449 1.415 . S
C449 H419 0.950 . S
C449 C444 1.363 . S
C449 C448 1.415 . S
H450 C447 0.999 . S
H451 C432 0.913 . S
H452 C470 0.951 . S
H453 C472 0.951 . S
H454 C474 0.950 . S
H455 C475 0.950 . S
H456 C477 0.950 . S
H457 C480 0.950 . S
H458 C481 0.950 . S
H459 C483 0.950 . S
H460 C484 0.950 . S
H461 C485 0.951 . S
H462 C487 0.951 . S
H463 C489 0.950 . S
H464 C490 0.950 . S
H465 C492 0.950 . S
H466 C495 0.950 . S
H467 C496 0.950 . S
H468 C498 0.950 . S
H469 C499 0.950 . S
C470 H452 0.951 . S
C470 C471 1.366 . S
C470 C472 1.388 . S
C471 C470 1.366 . S
C471 C475 1.385 . S
C472 H453 0.951 . S
C472 C470 1.388 . S
C472 C473 1.366 . S
C473 C472 1.366 . S
C473 C474 1.414 . S
C473 C476 1.499 . S
C474 H454 0.950 . S
C474 C473 1.414 . S
C474 C475 1.374 . S
C475 H455 0.950 . S
C475 C471 1.385 . S
C475 C474 1.374 . S
C476 C473 1.499 . S
C476 C477 1.373 . S
C476 C478 1.389 . S
C477 H456 0.950 . S
C477 C476 1.373 . S
C477 C493 1.377 . S
C478 C476 1.389 . S
C478 C479 1.524 . S
C478 C492 1.377 . S
C479 C478 1.524 . S
C479 C480 1.397 . S
C479 C484 1.363 . S
C480 H457 0.950 . S
C480 C479 1.397 . S
C480 C481 1.334 . S
C481 H458 0.950 . S
C481 C480 1.334 . S
C481 C482 1.287 . S
C482 C481 1.287 . S
C482 C483 1.524 . S
C482 H501 0.913 . S
C483 H459 0.950 . S
C483 C482 1.524 . S
C483 C484 1.415 . S
C484 H460 0.950 . S
C484 C479 1.363 . S
C484 C483 1.415 . S
C485 H461 0.951 . S
C485 C486 1.366 . S
C485 C487 1.388 . S
C486 C485 1.366 . S
C486 C490 1.385 . S
C487 H462 0.951 . S
C487 C485 1.388 . S
C487 C488 1.366 . S
C488 C487 1.366 . S
C488 C489 1.414 . S
C488 C491 1.499 . S
C489 H463 0.950 . S
C489 C488 1.414 . S
C489 C490 1.374 . S
C490 H464 0.950 . S
C490 C486 1.385 . S
C490 C489 1.374 . S
C491 C488 1.499 . S
C491 C492 1.373 . S
C491 C493 1.389 . S
C492 H465 0.950 . S
C492 C478 1.377 . S
C492 C491 1.373 . S
C493 C477 1.377 . S
C493 C491 1.389 . S
C493 C494 1.524 . S
C494 C493 1.524 . S
C494 C495 1.397 . S
C494 C499 1.363 . S
C495 H466 0.950 . S
C495 C494 1.397 . S
C495 C496 1.334 . S
C496 H467 0.950 . S
C496 C495 1.334 . S
C496 C497 1.287 . S
C497 C496 1.287 . S
C497 C498 1.524 . S
C497 H500 0.999 . S
C498 H468 0.950 . S
C498 C497 1.524 . S
C498 C499 1.415 . S
C499 H469 0.950 . S
C499 C494 1.363 . S
C499 C498 1.415 . S
H500 C497 0.999 . S
H501 C482 0.913 . S
H502 C520 0.951 . S
H503 C522 0.951 . S
H504 C524 0.950 . S
H505 C525 0.950 . S
H506 C527 0.950 . S
H507 C530 0.950 . S
H508 C531 0.950 . S
H509 C533 0.950 . S
H510 C534 0.950 . S
H511 C535 0.951 . S
H512 C537 0.951 . S
H513 C539 0.950 . S
H514 C540 0.950 . S
H515 C542 0.950 . S
H516 C545 0.950 . S
H517 C546 0.950 . S
H518 C548 0.950 . S
H519 C549 0.950 . S
C520 H502 0.951 . S
C520 C521 1.366 . S
C520 C522 1.388 . S
C521 C520 1.366 . S
C521 C525 1.385 . S
C522 H503 0.951 . S
C522 C520 1.388 . S
C522 C523 1.366 . S
C523 C522 1.366 . S
C523 C524 1.414 . S
C523 C526 1.499 . S
C524 H504 0.950 . S
C524 C523 1.414 . S
C524 C525 1.374 . S
C525 H505 0.950 . S
C525 C521 1.385 . S
C525 C524 1.374 . S
C526 C523 1.499 . S
C526 C527 1.373 . S
C526 C528 1.389 . S
C527 H506 0.950 . S
C527 C526 1.373 . S
C527 C543 1.377 . S
C528 C526 1.389 . S
C528 C529 1.524 . S
C528 C542 1.377 . S
C529 C528 1.524 . S
C529 C530 1.397 . S
C529 C534 1.363 . S
C530 H507 0.950 . S
C530 C529 1.397 . S
C530 C531 1.334 . S
C531 H508 0.950 . S
C531 C530 1.334 . S
C531 C532 1.287 . S
C532 C531 1.287 . S
C532 C533 1.524 . S
C532 H551 0.913 . S
C533 H509 0.950 . S
C533 C532 1.524 . S
C533 C534 1.415 . S
C534 H510 0.950 . S
C534 C529 1.363 . S
C534 C533 1.415 . S
C535 H511 0.951 . S
C535 C536 1.366 . S
C535 C537 1.388 . S
C536 C535 1.366 . S
C536 C540 1.385 . S
C537 H512 0.951 . S
C537 C535 1.388 . S
C537 C538 1.366 . S
C538 C537 1.366 . S
C538 C539 1.414 . S
C538 C541 1.499 . S
C539 H513 0.950 . S
C539 C538 1.414 . S
C539 C540 1.374 . S
C540 H514 0.950 . S
C540 C536 1.385 . S
C540 C539 1.374 . S
C541 C538 1.499 . S
C541 C542 1.373 . S
C541 C543 1.389 . S
C542 H515 0.950 . S
C542 C528 1.377 . S
C542 C541 1.373 . S
C543 C527 1.377 . S
C543 C541 1.389 . S
C543 C544 1.524 . S
C544 C543 1.524 . S
C544 C545 1.397 . S
C544 C549 1.363 . S
C545 H516 0.950 . S
C545 C544 1.397 . S
C545 C546 1.334 . S
C546 H517 0.950 . S
C546 C545 1.334 . S
C546 C547 1.287 . S
C547 C546 1.287 . S
C547 C548 1.524 . S
C547 H550 0.999 . S
C548 H518 0.950 . S
C548 C547 1.524 . S
C548 C549 1.415 . S
C549 H519 0.950 . S
C549 C544 1.363 . S
C549 C548 1.415 . S
H550 C547 0.999 . S
H551 C532 0.913 . S
H552 C570 0.951 . S
H553 C572 0.951 . S
H554 C574 0.950 . S
H555 C575 0.950 . S
H556 C577 0.950 . S
H557 C580 0.950 . S
H558 C581 0.950 . S
H559 C583 0.950 . S
H560 C584 0.950 . S
H561 C585 0.951 . S
H562 C587 0.951 . S
H563 C589 0.950 . S
H564 C590 0.950 . S
H565 C592 0.950 . S
H566 C595 0.950 . S
H567 C596 0.950 . S
H568 C598 0.950 . S
H569 C599 0.950 . S
C570 H552 0.951 . S
C570 C571 1.366 . S
C570 C572 1.388 . S
C571 C570 1.366 . S
C571 C575 1.385 . S
C572 H553 0.951 . S
C572 C570 1.388 . S
C572 C573 1.366 . S
C573 C572 1.366 . S
C573 C574 1.414 . S
C573 C576 1.499 . S
C574 H554 0.950 . S
C574 C573 1.414 . S
C574 C575 1.374 . S
C575 H555 0.950 . S
C575 C571 1.385 . S
C575 C574 1.374 . S
C576 C573 1.499 . S
C576 C577 1.373 . S
C576 C578 1.389 . S
C577 H556 0.950 . S
C577 C576 1.373 . S
C577 C593 1.377 1_556 S
C578 C576 1.389 . S
C578 C579 1.524 . S
C578 C592 1.377 1_556 S
C579 C578 1.524 . S
C579 C580 1.397 . S
C579 C584 1.363 . S
C580 H557 0.950 . S
C580 C579 1.397 . S
C580 C581 1.334 . S
C581 H558 0.950 . S
C581 C580 1.334 . S
C581 C582 1.287 . S
C582 C581 1.287 . S
C582 C583 1.524 . S
C582 H601 0.913 . S
C583 H559 0.950 . S
C583 C582 1.524 . S
C583 C584 1.415 . S
C584 H560 0.950 . S
C584 C579 1.363 . S
C584 C583 1.415 . S
C585 H561 0.951 . S
C585 C586 1.366 . S
C585 C587 1.388 . S
C586 C585 1.366 . S
C586 C590 1.385 . S
C587 H562 0.951 . S
C587 C585 1.388 . S
C587 C588 1.366 . S
C588 C587 1.366 . S
C588 C589 1.414 . S
C588 C591 1.499 . S
C589 H563 0.950 . S
C589 C588 1.414 . S
C589 C590 1.374 . S
C590 H564 0.950 . S
C590 C586 1.385 . S
C590 C589 1.374 . S
C591 C588 1.499 . S
C591 C592 1.373 . S
C591 C593 1.389 . S
C592 H565 0.950 . S
C592 C578 1.377 1_554 S
C592 C591 1.373 . S
C593 C577 1.377 1_554 S
C593 C591 1.389 . S
C593 C594 1.524 . S
C594 C593 1.524 . S
C594 C595 1.397 . S
C594 C599 1.363 . S
C595 H566 0.950 . S
C595 C594 1.397 . S
C595 C596 1.334 . S
C596 H567 0.950 . S
C596 C595 1.334 . S
C596 C597 1.287 . S
C597 C596 1.287 . S
C597 C598 1.524 . S
C597 H600 0.999 . S
C598 H568 0.950 . S
C598 C597 1.524 . S
C598 C599 1.415 . S
C599 H569 0.950 . S
C599 C594 1.363 . S
C599 C598 1.415 . S
H600 C597 0.999 . S
H601 C582 0.913 . S
H602 C620 0.951 . S
H603 C622 0.951 . S
H604 C624 0.950 . S
H605 C625 0.950 . S
H606 C627 0.950 . S
H607 C630 0.950 . S
H608 C631 0.950 . S
H609 C633 0.950 . S
H610 C634 0.950 . S
H611 C635 0.951 . S
H612 C637 0.951 . S
H613 C639 0.950 . S
H614 C640 0.950 . S
H615 C642 0.950 . S
H616 C645 0.950 . S
H617 C646 0.950 . S
H618 C648 0.950 . S
H619 C649 0.950 . S
C620 H602 0.951 . S
C620 C621 1.366 . S
C620 C622 1.388 . S
C621 C620 1.366 . S
C621 C625 1.385 . S
C622 H603 0.951 . S
C622 C620 1.388 . S
C622 C623 1.366 . S
C623 C622 1.366 . S
C623 C624 1.414 . S
C623 C626 1.499 . S
C624 H604 0.950 . S
C624 C623 1.414 . S
C624 C625 1.374 . S
C625 H605 0.950 . S
C625 C621 1.385 . S
C625 C624 1.374 . S
C626 C623 1.499 . S
C626 C627 1.373 . S
C626 C628 1.389 . S
C627 H606 0.950 . S
C627 C626 1.373 . S
C627 C643 1.377 . S
C628 C626 1.389 . S
C628 C629 1.524 . S
C628 C642 1.377 . S
C629 C628 1.524 . S
C629 C630 1.397 . S
C629 C634 1.363 . S
C630 H607 0.950 . S
C630 C629 1.397 . S
C630 C631 1.334 . S
C631 H608 0.950 . S
C631 C630 1.334 . S
C631 C632 1.287 . S
C632 C631 1.287 . S
C632 C633 1.524 . S
C632 H651 0.913 . S
C633 H609 0.950 . S
C633 C632 1.524 . S
C633 C634 1.415 . S
C634 H610 0.950 . S
C634 C629 1.363 . S
C634 C633 1.415 . S
C635 H611 0.951 . S
C635 C636 1.366 . S
C635 C637 1.388 . S
C636 C635 1.366 . S
C636 C640 1.385 . S
C637 H612 0.951 . S
C637 C635 1.388 . S
C637 C638 1.366 . S
C638 C637 1.366 . S
C638 C639 1.414 . S
C638 C641 1.499 . S
C639 H613 0.950 . S
C639 C638 1.414 . S
C639 C640 1.374 . S
C640 H614 0.950 . S
C640 C636 1.385 . S
C640 C639 1.374 . S
C641 C638 1.499 . S
C641 C642 1.373 . S
C641 C643 1.389 . S
C642 H615 0.950 . S
C642 C628 1.377 . S
C642 C641 1.373 . S
C643 C627 1.377 . S
C643 C641 1.389 . S
C643 C644 1.524 . S
C644 C643 1.524 . S
C644 C645 1.397 . S
C644 C649 1.363 . S
C645 H616 0.950 . S
C645 C644 1.397 . S
C645 C646 1.334 . S
C646 H617 0.950 . S
C646 C645 1.334 . S
C646 C647 1.287 . S
C647 C646 1.287 . S
C647 C648 1.524 . S
C647 H650 0.999 . S
C648 H618 0.950 . S
C648 C647 1.524 . S
C648 C649 1.415 . S
C649 H619 0.950 . S
C649 C644 1.363 . S
C649 C648 1.415 . S
H650 C647 0.999 . S
H651 C632 0.913 . S
H652 C670 0.951 . S
H653 C672 0.951 . S
H654 C674 0.950 . S
H655 C675 0.950 . S
H656 C677 0.950 . S
H657 C680 0.950 . S
H658 C681 0.950 . S
H659 C683 0.950 . S
H660 C684 0.950 . S
H661 C685 0.951 . S
H662 C687 0.951 . S
H663 C689 0.950 . S
H664 C690 0.950 . S
H665 C692 0.950 . S
H666 C695 0.950 . S
H667 C696 0.950 . S
H668 C698 0.950 . S
H669 C699 0.950 . S
C670 H652 0.951 . S
C670 C671 1.366 . S
C670 C672 1.388 . S
C671 C670 1.366 . S
C671 C675 1.385 . S
C672 H653 0.951 . S
C672 C670 1.388 . S
C672 C673 1.366 . S
C673 C672 1.366 . S
C673 C674 1.414 . S
C673 C676 1.499 . S
C674 H654 0.950 . S
C674 C673 1.414 . S
C674 C675 1.374 . S
C675 H655 0.950 . S
C675 C671 1.385 . S
C675 C674 1.374 . S
C676 C673 1.499 . S
C676 C677 1.373 . S
C676 C678 1.389 . S
C677 H656 0.950 . S
C677 C676 1.373 . S
C677 C693 1.377 . S
C678 C676 1.389 . S
C678 C679 1.524 . S
C678 C692 1.377 . S
C679 C678 1.524 . S
C679 C680 1.397 . S
C679 C684 1.363 . S
C680 H657 0.950 . S
C680 C679 1.397 . S
C680 C681 1.334 . S
C681 H658 0.950 . S
C681 C680 1.334 . S
C681 C682 1.287 . S
C682 C681 1.287 . S
C682 C683 1.524 . S
C682 H701 0.913 . S
C683 H659 0.950 . S
C683 C682 1.524 . S
C683 C684 1.415 . S
C684 H660 0.950 . S
C684 C679 1.363 . S
C684 C683 1.415 . S
C685 H661 0.951 . S
C685 C686 1.366 . S
C685 C687 1.388 . S
C686 C685 1.366 . S
C686 C690 1.385 . S
C687 H662 0.951 . S
C687 C685 1.388 . S
C687 C688 1.366 . S
C688 C687 1.366 . S
C688 C689 1.414 . S
C688 C691 1.499 . S
C689 H663 0.950 . S
C689 C688 1.414 . S
C689 C690 1.374 . S
C690 H664 0.950 . S
C690 C686 1.385 . S
C690 C689 1.374 . S
C691 C688 1.499 . S
C691 C692 1.373 . S
C691 C693 1.389 . S
C692 H665 0.950 . S
C692 C678 1.377 . S
C692 C691 1.373 . S
C693 C677 1.377 . S
C693 C691 1.389 . S
C693 C694 1.524 . S
C694 C693 1.524 . S
C694 C695 1.397 . S
C694 C699 1.363 . S
C695 H666 0.950 . S
C695 C694 1.397 . S
C695 C696 1.334 . S
C696 H667 0.950 . S
C696 C695 1.334 . S
C696 C697 1.287 . S
C697 C696 1.287 . S
C697 C698 1.524 . S
C697 H700 0.999 . S
C698 H668 0.950 . S
C698 C697 1.524 . S
C698 C699 1.415 . S
C699 H669 0.950 . S
C699 C694 1.363 . S
C699 C698 1.415 . S
H700 C697 0.999 . S
H701 C682 0.913 . S
H702 C720 0.951 . S
H703 C722 0.951 . S
H704 C724 0.950 . S
H705 C725 0.950 . S
H706 C727 0.950 . S
H707 C730 0.950 . S
H708 C731 0.950 . S
H709 C733 0.950 1_554 S
H710 C734 0.961 . S
H711 C735 0.951 . S
H712 C737 0.951 . S
H713 C739 0.950 . S
H714 C740 0.950 . S
H715 C742 0.950 . S
H716 C745 0.950 . S
H717 C746 0.950 . S
H718 C748 0.950 1_556 S
H719 C749 0.960 . S
C720 H702 0.951 . S
C720 C721 1.366 . S
C720 C722 1.388 . S
C721 C720 1.366 . S
C721 C725 1.385 . S
C722 H703 0.951 . S
C722 C720 1.388 . S
C722 C723 1.366 . S
C723 C722 1.366 . S
C723 C724 1.414 . S
C723 C726 1.499 . S
C724 H704 0.950 . S
C724 C723 1.414 . S
C724 C725 1.374 . S
C725 H705 0.950 . S
C725 C721 1.385 . S
C725 C724 1.374 . S
C726 C723 1.499 . S
C726 C727 1.373 . S
C726 C728 1.389 . S
C727 H706 0.950 . S
C727 C726 1.373 . S
C727 C743 1.377 1_556 S
C728 C726 1.389 . S
C728 C729 1.524 . S
C728 C742 1.377 1_556 S
C729 C728 1.524 . S
C729 C730 1.397 . S
C729 C734 1.356 1_556 S
C730 H707 0.950 . S
C730 C729 1.397 . S
C730 C731 1.334 . S
C731 H708 0.950 . S
C731 C730 1.334 . S
C731 C732 1.287 . S
C732 C731 1.287 . S
C732 C733 1.524 . S
C732 H751 0.913 . S
C733 H709 0.950 1_556 S
C733 C732 1.524 . S
C733 C734 1.412 1_556 S
C734 H710 0.961 . S
C734 C729 1.356 1_554 S
C734 C733 1.412 1_554 S
C735 H711 0.951 . S
C735 C736 1.366 . S
C735 C737 1.388 . S
C736 C735 1.366 . S
C736 C740 1.385 . S
C737 H712 0.951 . S
C737 C735 1.388 . S
C737 C738 1.366 . S
C738 C737 1.366 . S
C738 C739 1.414 . S
C738 C741 1.499 . S
C739 H713 0.950 . S
C739 C738 1.414 . S
C739 C740 1.374 . S
C740 H714 0.950 . S
C740 C736 1.385 . S
C740 C739 1.374 . S
C741 C738 1.499 . S
C741 C742 1.373 . S
C741 C743 1.389 . S
C742 H715 0.950 . S
C742 C728 1.377 1_554 S
C742 C741 1.373 . S
C743 C727 1.377 1_554 S
C743 C741 1.389 . S
C743 C744 1.524 . S
C744 C743 1.524 . S
C744 C745 1.397 . S
C744 C749 1.356 1_554 S
C745 H716 0.950 . S
C745 C744 1.397 . S
C745 C746 1.334 . S
C746 H717 0.950 . S
C746 C745 1.334 . S
C746 C747 1.287 . S
C747 C746 1.287 . S
C747 C748 1.524 . S
C747 H750 0.999 . S
C748 H718 0.950 1_554 S
C748 C747 1.524 . S
C748 C749 1.412 1_554 S
C749 H719 0.960 . S
C749 C744 1.356 1_556 S
C749 C748 1.412 1_556 S
H750 C747 0.999 . S
H751 C732 0.913 . S
H752 C770 0.951 . S
H753 C772 0.951 . S
H754 C774 0.950 . S
H755 C775 0.950 . S
H756 C777 0.950 . S
H757 C780 0.950 . S
H758 C781 0.950 . S
H759 C783 0.950 . S
H760 C784 0.950 . S
H761 C785 0.951 . S
H762 C787 0.951 . S
H763 C789 0.950 . S
H764 C790 0.950 . S
H765 C792 0.950 . S
H766 C795 0.950 . S
H767 C796 0.950 . S
H768 C798 0.950 . S
H769 C799 0.950 . S
C770 H752 0.951 . S
C770 C771 1.366 . S
C770 C772 1.388 . S
C771 C770 1.366 . S
C771 C775 1.385 . S
C772 H753 0.951 . S
C772 C770 1.388 . S
C772 C773 1.366 . S
C773 C772 1.366 . S
C773 C774 1.414 . S
C773 C776 1.499 . S
C774 H754 0.950 . S
C774 C773 1.414 . S
C774 C775 1.374 . S
C775 H755 0.950 . S
C775 C771 1.385 . S
C775 C774 1.374 . S
C776 C773 1.499 . S
C776 C777 1.373 . S
C776 C778 1.389 . S
C777 H756 0.950 . S
C777 C776 1.373 . S
C777 C793 1.377 . S
C778 C776 1.389 . S
C778 C779 1.524 . S
C778 C792 1.377 . S
C779 C778 1.524 . S
C779 C780 1.397 . S
C779 C784 1.363 . S
C780 H757 0.950 . S
C780 C779 1.397 . S
C780 C781 1.334 . S
C781 H758 0.950 . S
C781 C780 1.334 . S
C781 C782 1.287 . S
C782 C781 1.287 . S
C782 C783 1.524 . S
C782 H801 0.913 . S
C783 H759 0.950 . S
C783 C782 1.524 . S
C783 C784 1.415 . S
C784 H760 0.950 . S
C784 C779 1.363 . S
C784 C783 1.415 . S
C785 H761 0.951 . S
C785 C786 1.366 . S
C785 C787 1.388 . S
C786 C785 1.366 . S
C786 C790 1.385 . S
C787 H762 0.951 . S
C787 C785 1.388 . S
C787 C788 1.366 . S
C788 C787 1.366 . S
C788 C789 1.414 . S
C788 C791 1.499 . S
C789 H763 0.950 . S
C789 C788 1.414 . S
C789 C790 1.374 . S
C790 H764 0.950 . S
C790 C786 1.385 . S
C790 C789 1.374 . S
C791 C788 1.499 . S
C791 C792 1.373 . S
C791 C793 1.389 . S
C792 H765 0.950 . S
C792 C778 1.377 . S
C792 C791 1.373 . S
C793 C777 1.377 . S
C793 C791 1.389 . S
C793 C794 1.524 . S
C794 C793 1.524 . S
C794 C795 1.397 . S
C794 C799 1.363 . S
C795 H766 0.950 . S
C795 C794 1.397 . S
C795 C796 1.334 . S
C796 H767 0.950 . S
C796 C795 1.334 . S
C796 C797 1.287 . S
C797 C796 1.287 . S
C797 C798 1.524 . S
C797 H800 0.999 . S
C798 H768 0.950 . S
C798 C797 1.524 . S
C798 C799 1.415 . S
C799 H769 0.950 . S
C799 C794 1.363 . S
C799 C798 1.415 . S
H800 C797 0.999 . S
H801 C782 0.913 . S
H802 C820 0.951 . S
H803 C822 0.951 . S
H804 C824 0.950 . S
H805 C825 0.950 . S
H806 C827 0.950 . S
H807 C830 0.950 . S
H808 C831 0.950 . S
H809 C833 0.950 . S
H810 C834 0.950 . S
H811 C835 0.951 . S
H812 C837 0.951 . S
H813 C839 0.950 . S
H814 C840 0.950 . S
H815 C842 0.950 . S
H816 C845 0.950 . S
H817 C846 0.950 . S
H818 C848 0.950 . S
H819 C849 0.950 . S
C820 H802 0.951 . S
C820 C821 1.366 . S
C820 C822 1.388 . S
C821 C820 1.366 . S
C821 C825 1.385 . S
C822 H803 0.951 . S
C822 C820 1.388 . S
C822 C823 1.366 . S
C823 C822 1.366 . S
C823 C824 1.414 . S
C823 C826 1.499 . S
C824 H804 0.950 . S
C824 C823 1.414 . S
C824 C825 1.374 . S
C825 H805 0.950 . S
C825 C821 1.385 . S
C825 C824 1.374 . S
C826 C823 1.499 . S
C826 C827 1.373 . S
C826 C828 1.389 . S
C827 H806 0.950 . S
C827 C826 1.373 . S
C827 C843 1.377 . S
C828 C826 1.389 . S
C828 C829 1.524 . S
C828 C842 1.377 . S
C829 C828 1.524 . S
C829 C830 1.397 . S
C829 C834 1.363 . S
C830 H807 0.950 . S
C830 C829 1.397 . S
C830 C831 1.334 . S
C831 H808 0.950 . S
C831 C830 1.334 . S
C831 C832 1.287 . S
C832 C831 1.287 . S
C832 C833 1.524 . S
C832 H851 0.913 . S
C833 H809 0.950 . S
C833 C832 1.524 . S
C833 C834 1.415 . S
C834 H810 0.950 . S
C834 C829 1.363 . S
C834 C833 1.415 . S
C835 H811 0.951 . S
C835 C836 1.366 . S
C835 C837 1.388 . S
C836 C835 1.366 . S
C836 C840 1.385 . S
C837 H812 0.951 . S
C837 C835 1.388 . S
C837 C838 1.366 . S
C838 C837 1.366 . S
C838 C839 1.414 . S
C838 C841 1.499 . S
C839 H813 0.950 . S
C839 C838 1.414 . S
C839 C840 1.374 . S
C840 H814 0.950 . S
C840 C836 1.385 . S
C840 C839 1.374 . S
C841 C838 1.499 . S
C841 C842 1.373 . S
C841 C843 1.389 . S
C842 H815 0.950 . S
C842 C828 1.377 . S
C842 C841 1.373 . S
C843 C827 1.377 . S
C843 C841 1.389 . S
C843 C844 1.524 . S
C844 C843 1.524 . S
C844 C845 1.397 . S
C844 C849 1.363 . S
C845 H816 0.950 . S
C845 C844 1.397 . S
C845 C846 1.334 . S
C846 H817 0.950 . S
C846 C845 1.334 . S
C846 C847 1.287 . S
C847 C846 1.287 . S
C847 C848 1.524 . S
C847 H850 0.999 . S
C848 H818 0.950 . S
C848 C847 1.524 . S
C848 C849 1.415 . S
C849 H819 0.950 . S
C849 C844 1.363 . S
C849 C848 1.415 . S
H850 C847 0.999 . S
H851 C832 0.913 . S
H852 C870 0.951 . S
H853 C872 0.951 . S
H854 C874 0.950 . S
H855 C875 0.950 . S
H856 C877 0.950 . S
H857 C880 0.950 . S
H858 C881 0.950 . S
H859 C883 0.950 . S
H860 C884 0.950 . S
H861 C885 0.951 . S
H862 C887 0.951 . S
H863 C889 0.950 . S
H864 C890 0.950 . S
H865 C892 0.950 . S
H866 C895 0.950 . S
H867 C896 0.950 . S
H868 C898 0.950 . S
H869 C899 0.950 . S
C870 H852 0.951 . S
C870 C871 1.366 . S
C870 C872 1.388 . S
C871 C870 1.366 . S
C871 C875 1.385 . S
C872 H853 0.951 . S
C872 C870 1.388 . S
C872 C873 1.366 . S
C873 C872 1.366 . S
C873 C874 1.414 . S
C873 C876 1.499 . S
C874 H854 0.950 . S
C874 C873 1.414 . S
C874 C875 1.374 . S
C875 H855 0.950 . S
C875 C871 1.385 . S
C875 C874 1.374 . S
C876 C873 1.499 . S
C876 C877 1.373 . S
C876 C878 1.389 1_565 S
C877 H856 0.950 . S
C877 C876 1.373 . S
C877 C893 1.377 1_556 S
C878 C876 1.389 1_545 S
C878 C879 1.524 . S
C878 C892 1.377 1_556 S
C879 C878 1.524 . S
C879 C880 1.397 1_545 S
C879 C884 1.363 . S
C880 H857 0.950 . S
C880 C879 1.397 1_565 S
C880 C881 1.334 . S
C881 H858 0.950 . S
C881 C880 1.334 . S
C881 C882 1.287 1_565 S
C882 C881 1.287 1_545 S
C882 C883 1.524 . S
C882 H901 0.913 . S
C883 H859 0.950 . S
C883 C882 1.524 . S
C883 C884 1.415 . S
C884 H860 0.950 . S
C884 C879 1.363 . S
C884 C883 1.415 . S
C885 H861 0.951 . S
C885 C886 1.366 . S
C885 C887 1.388 . S
C886 C885 1.366 . S
C886 C890 1.385 . S
C887 H862 0.951 . S
C887 C885 1.388 . S
C887 C888 1.366 . S
C888 C887 1.366 . S
C888 C889 1.414 . S
C888 C891 1.499 . S
C889 H863 0.950 . S
C889 C888 1.414 . S
C889 C890 1.374 . S
C890 H864 0.950 . S
C890 C886 1.385 . S
C890 C889 1.374 . S
C891 C888 1.499 . S
C891 C892 1.373 . S
C891 C893 1.389 1_545 S
C892 H865 0.950 . S
C892 C878 1.377 1_554 S
C892 C891 1.373 . S
C893 C877 1.377 1_554 S
C893 C891 1.389 1_565 S
C893 C894 1.524 . S
C894 C893 1.524 . S
C894 C895 1.397 1_565 S
C894 C899 1.363 . S
C895 H866 0.950 . S
C895 C894 1.397 1_545 S
C895 C896 1.334 . S
C896 H867 0.950 . S
C896 C895 1.334 . S
C896 C897 1.287 1_545 S
C897 C896 1.287 1_565 S
C897 C898 1.524 . S
C897 H900 0.999 . S
C898 H868 0.950 . S
C898 C897 1.524 . S
C898 C899 1.415 . S
C899 H869 0.950 . S
C899 C894 1.363 . S
C899 C898 1.415 . S
H900 C897 0.999 . S
H901 C882 0.913 . S
H902 C920 0.951 . S
H903 C922 0.951 . S
H904 C924 0.950 . S
H905 C925 0.950 . S
H906 C927 0.950 . S
H907 C930 0.950 . S
H908 C931 0.950 . S
H909 C933 0.950 . S
H910 C934 0.950 . S
H911 C935 0.951 . S
H912 C937 0.951 . S
H913 C939 0.950 . S
H914 C940 0.950 . S
H915 C942 0.950 . S
H916 C945 0.950 . S
H917 C946 0.950 . S
H918 C948 0.950 . S
H919 C949 0.950 . S
C920 H902 0.951 . S
C920 C921 1.366 . S
C920 C922 1.388 . S
C921 C920 1.366 . S
C921 C925 1.385 . S
C922 H903 0.951 . S
C922 C920 1.388 . S
C922 C923 1.366 . S
C923 C922 1.366 . S
C923 C924 1.414 . S
C923 C926 1.499 . S
C924 H904 0.950 . S
C924 C923 1.414 . S
C924 C925 1.374 . S
C925 H905 0.950 . S
C925 C921 1.385 . S
C925 C924 1.374 . S
C926 C923 1.499 . S
C926 C927 1.373 . S
C926 C928 1.389 . S
C927 H906 0.950 . S
C927 C926 1.373 . S
C927 C943 1.377 . S
C928 C926 1.389 . S
C928 C929 1.524 . S
C928 C942 1.377 . S
C929 C928 1.524 . S
C929 C930 1.397 . S
C929 C934 1.363 . S
C930 H907 0.950 . S
C930 C929 1.397 . S
C930 C931 1.334 . S
C931 H908 0.950 . S
C931 C930 1.334 . S
C931 C932 1.287 . S
C932 C931 1.287 . S
C932 C933 1.524 . S
C932 H951 0.913 . S
C933 H909 0.950 . S
C933 C932 1.524 . S
C933 C934 1.415 . S
C934 H910 0.950 . S
C934 C929 1.363 . S
C934 C933 1.415 . S
C935 H911 0.951 . S
C935 C936 1.366 . S
C935 C937 1.388 . S
C936 C935 1.366 . S
C936 C940 1.385 . S
C937 H912 0.951 . S
C937 C935 1.388 . S
C937 C938 1.366 . S
C938 C937 1.366 . S
C938 C939 1.414 . S
C938 C941 1.499 . S
C939 H913 0.950 . S
C939 C938 1.414 . S
C939 C940 1.374 . S
C940 H914 0.950 . S
C940 C936 1.385 . S
C940 C939 1.374 . S
C941 C938 1.499 . S
C941 C942 1.373 . S
C941 C943 1.389 . S
C942 H915 0.950 . S
C942 C928 1.377 . S
C942 C941 1.373 . S
C943 C927 1.377 . S
C943 C941 1.389 . S
C943 C944 1.524 . S
C944 C943 1.524 . S
C944 C945 1.397 . S
C944 C949 1.363 . S
C945 H916 0.950 . S
C945 C944 1.397 . S
C945 C946 1.334 . S
C946 H917 0.950 . S
C946 C945 1.334 . S
C946 C947 1.287 . S
C947 C946 1.287 . S
C947 C948 1.524 . S
C947 H950 0.999 . S
C948 H918 0.950 . S
C948 C947 1.524 . S
C948 C949 1.415 . S
C949 H919 0.950 . S
C949 C944 1.363 . S
C949 C948 1.415 . S
H950 C947 0.999 . S
H951 C932 0.913 . S
H952 C970 0.951 . S
H953 C972 0.951 . S
H954 C974 0.950 . S
H955 C975 0.950 . S
H956 C977 0.950 . S
H957 C980 0.950 . S
H958 C981 0.950 . S
H959 C983 0.950 . S
H960 C984 0.950 . S
H961 C985 0.951 . S
H962 C987 0.951 . S
H963 C989 0.950 . S
H964 C990 0.950 . S
H965 C992 0.950 . S
H966 C995 0.950 . S
H967 C996 0.950 . S
H968 C998 0.950 . S
H969 C999 0.950 . S
C970 H952 0.951 . S
C970 C971 1.366 . S
C970 C972 1.388 . S
C971 C970 1.366 . S
C971 C975 1.385 . S
C972 H953 0.951 . S
C972 C970 1.388 . S
C972 C973 1.366 . S
C973 C972 1.366 . S
C973 C974 1.414 . S
C973 C976 1.499 . S
C974 H954 0.950 . S
C974 C973 1.414 . S
C974 C975 1.374 . S
C975 H955 0.950 . S
C975 C971 1.385 . S
C975 C974 1.374 . S
C976 C973 1.499 . S
C976 C977 1.373 1_455 S
C976 C978 1.389 . S
C977 H956 0.950 . S
C977 C976 1.373 1_655 S
C977 C993 1.377 . S
C978 C976 1.389 . S
C978 C979 1.524 . S
C978 C992 1.377 . S
C979 C978 1.524 . S
C979 C980 1.397 . S
C979 C984 1.363 . S
C980 H957 0.950 . S
C980 C979 1.397 . S
C980 C981 1.334 . S
C981 H958 0.950 . S
C981 C980 1.334 . S
C981 C982 1.287 . S
C982 C981 1.287 . S
C982 C983 1.524 . S
C982 H1001 0.913 . S
C983 H959 0.950 . S
C983 C982 1.524 . S
C983 C984 1.415 . S
C984 H960 0.950 . S
C984 C979 1.363 . S
C984 C983 1.415 . S
C985 H961 0.951 . S
C985 C986 1.366 . S
C985 C987 1.388 . S
C986 C985 1.366 . S
C986 C990 1.385 . S
C987 H962 0.951 . S
C987 C985 1.388 . S
C987 C988 1.366 . S
C988 C987 1.366 . S
C988 C989 1.414 . S
C988 C991 1.499 . S
C989 H963 0.950 . S
C989 C988 1.414 . S
C989 C990 1.374 . S
C990 H964 0.950 . S
C990 C986 1.385 . S
C990 C989 1.374 . S
C991 C988 1.499 . S
C991 C992 1.373 1_655 S
C991 C993 1.389 . S
C992 H965 0.950 . S
C992 C978 1.377 . S
C992 C991 1.373 1_455 S
C993 C977 1.377 . S
C993 C991 1.389 . S
C993 C994 1.524 . S
C994 C993 1.524 . S
C994 C995 1.397 . S
C994 C999 1.363 . S
C995 H966 0.950 . S
C995 C994 1.397 . S
C995 C996 1.334 . S
C996 H967 0.950 . S
C996 C995 1.334 . S
C996 C997 1.287 . S
C997 C996 1.287 . S
C997 C998 1.524 . S
C997 H1000 0.999 . S
C998 H968 0.950 . S
C998 C997 1.524 . S
C998 C999 1.415 . S
C999 H969 0.950 . S
C999 C994 1.363 . S
C999 C998 1.415 . S
H1000 C997 0.999 . S
H1001 C982 0.913 . S
H1002 C1020 0.951 . S
H1003 C1022 0.951 . S
H1004 C1024 0.950 . S
H1005 C1025 0.950 . S
H1006 C1027 0.937 . S
H1007 C1030 0.950 . S
H1008 C1031 0.950 . S
H1009 C1033 0.950 . S
H1010 C1034 0.950 . S
H1011 C1035 0.951 . S
H1012 C1037 0.951 . S
H1013 C1039 0.950 . S
H1014 C1040 0.950 . S
H1015 C1042 0.937 . S
H1016 C1045 0.950 . S
H1017 C1046 0.950 . S
H1018 C1048 0.950 . S
H1019 C1049 0.950 . S
C1020 H1002 0.951 . S
C1020 C1021 1.366 . S
C1020 C1022 1.388 . S
C1021 C1020 1.366 . S
C1021 C1025 1.385 . S
C1022 H1003 0.951 . S
C1022 C1020 1.388 . S
C1022 C1023 1.366 . S
C1023 C1022 1.366 . S
C1023 C1024 1.414 . S
C1023 C1026 1.499 . S
C1024 H1004 0.950 . S
C1024 C1023 1.414 . S
C1024 C1025 1.374 . S
C1025 H1005 0.950 . S
C1025 C1021 1.385 . S
C1025 C1024 1.374 . S
C1026 C1023 1.499 . S
C1026 C1027 1.357 1_565 S
C1026 C1028 1.389 . S
C1027 H1006 0.937 . S
C1027 C1026 1.357 1_545 S
C1027 C1043 1.385 1_554 S
C1028 C1026 1.389 . S
C1028 C1029 1.524 . S
C1028 C1042 1.385 1_554 S
C1029 C1028 1.524 . S
C1029 C1030 1.397 . S
C1029 C1034 1.363 1_554 S
C1030 H1007 0.950 . S
C1030 C1029 1.397 . S
C1030 C1031 1.334 . S
C1031 H1008 0.950 . S
C1031 C1030 1.334 . S
C1031 C1032 1.287 . S
C1032 C1031 1.287 . S
C1032 C1033 1.524 1_554 S
C1032 H1051 0.913 . S
C1033 H1009 0.950 . S
C1033 C1032 1.524 1_556 S
C1033 C1034 1.415 . S
C1034 H1010 0.950 . S
C1034 C1029 1.363 1_556 S
C1034 C1033 1.415 . S
C1035 H1011 0.951 . S
C1035 C1036 1.366 . S
C1035 C1037 1.388 . S
C1036 C1035 1.366 . S
C1036 C1040 1.385 . S
C1037 H1012 0.951 . S
C1037 C1035 1.388 . S
C1037 C1038 1.366 . S
C1038 C1037 1.366 . S
C1038 C1039 1.414 . S
C1038 C1041 1.499 . S
C1039 H1013 0.950 . S
C1039 C1038 1.414 . S
C1039 C1040 1.374 . S
C1040 H1014 0.950 . S
C1040 C1036 1.385 . S
C1040 C1039 1.374 . S
C1041 C1038 1.499 . S
C1041 C1042 1.357 1_545 S
C1041 C1043 1.389 . S
C1042 H1015 0.937 . S
C1042 C1028 1.385 1_556 S
C1042 C1041 1.357 1_565 S
C1043 C1027 1.385 1_556 S
C1043 C1041 1.389 . S
C1043 C1044 1.524 . S
C1044 C1043 1.524 . S
C1044 C1045 1.397 . S
C1044 C1049 1.363 1_556 S
C1045 H1016 0.950 . S
C1045 C1044 1.397 . S
C1045 C1046 1.334 . S
C1046 H1017 0.950 . S
C1046 C1045 1.334 . S
C1046 C1047 1.287 . S
C1047 C1046 1.287 . S
C1047 C1048 1.524 1_556 S
C1047 H1050 0.999 . S
C1048 H1018 0.950 . S
C1048 C1047 1.524 1_554 S
C1048 C1049 1.415 . S
C1049 H1019 0.950 . S
C1049 C1044 1.363 1_554 S
C1049 C1048 1.415 . S
H1050 C1047 0.999 . S
H1051 C1032 0.913 . S
H1052 C1070 0.951 . S
H1053 C1072 0.951 . S
H1054 C1074 0.950 . S
H1055 C1075 0.950 . S
H1056 C1077 0.950 . S
H1057 C1080 0.950 . S
H1058 C1081 0.950 . S
H1059 C1083 0.950 . S
H1060 C1084 0.950 . S
H1061 C1085 0.951 . S
H1062 C1087 0.951 . S
H1063 C1089 0.950 . S
H1064 C1090 0.950 . S
H1065 C1092 0.950 . S
H1066 C1095 0.950 . S
H1067 C1096 0.950 . S
H1068 C1098 0.950 . S
H1069 C1099 0.950 . S
C1070 H1052 0.951 . S
C1070 C1071 1.366 . S
C1070 C1072 1.388 . S
C1071 C1070 1.366 . S
C1071 C1075 1.385 . S
C1072 H1053 0.951 . S
C1072 C1070 1.388 . S
C1072 C1073 1.366 . S
C1073 C1072 1.366 . S
C1073 C1074 1.414 . S
C1073 C1076 1.499 . S
C1074 H1054 0.950 . S
C1074 C1073 1.414 . S
C1074 C1075 1.374 . S
C1075 H1055 0.950 . S
C1075 C1071 1.385 . S
C1075 C1074 1.374 . S
C1076 C1073 1.499 . S
C1076 C1077 1.373 . S
C1076 C1078 1.389 . S
C1077 H1056 0.950 . S
C1077 C1076 1.373 . S
C1077 C1093 1.377 . S
C1078 C1076 1.389 . S
C1078 C1079 1.524 . S
C1078 C1092 1.377 . S
C1079 C1078 1.524 . S
C1079 C1080 1.397 . S
C1079 C1084 1.363 . S
C1080 H1057 0.950 . S
C1080 C1079 1.397 . S
C1080 C1081 1.334 . S
C1081 H1058 0.950 . S
C1081 C1080 1.334 . S
C1081 C1082 1.287 . S
C1082 C1081 1.287 . S
C1082 C1083 1.524 . S
C1082 H1101 0.913 . S
C1083 H1059 0.950 . S
C1083 C1082 1.524 . S
C1083 C1084 1.415 . S
C1084 H1060 0.950 . S
C1084 C1079 1.363 . S
C1084 C1083 1.415 . S
C1085 H1061 0.951 . S
C1085 C1086 1.366 . S
C1085 C1087 1.388 . S
C1086 C1085 1.366 . S
C1086 C1090 1.385 . S
C1087 H1062 0.951 . S
C1087 C1085 1.388 . S
C1087 C1088 1.366 . S
C1088 C1087 1.366 . S
C1088 C1089 1.414 . S
C1088 C1091 1.499 . S
C1089 H1063 0.950 . S
C1089 C1088 1.414 . S
C1089 C1090 1.374 . S
C1090 H1064 0.950 . S
C1090 C1086 1.385 . S
C1090 C1089 1.374 . S
C1091 C1088 1.499 . S
C1091 C1092 1.373 . S
C1091 C1093 1.389 . S
C1092 H1065 0.950 . S
C1092 C1078 1.377 . S
C1092 C1091 1.373 . S
C1093 C1077 1.377 . S
C1093 C1091 1.389 . S
C1093 C1094 1.524 . S
C1094 C1093 1.524 . S
C1094 C1095 1.397 . S
C1094 C1099 1.363 . S
C1095 H1066 0.950 . S
C1095 C1094 1.397 . S
C1095 C1096 1.334 . S
C1096 H1067 0.950 . S
C1096 C1095 1.334 . S
C1096 C1097 1.287 . S
C1097 C1096 1.287 . S
C1097 C1098 1.524 . S
C1097 H1100 0.999 . S
C1098 H1068 0.950 . S
C1098 C1097 1.524 . S
C1098 C1099 1.415 . S
C1099 H1069 0.950 . S
C1099 C1094 1.363 . S
C1099 C1098 1.415 . S
H1100 C1097 0.999 . S
H1101 C1082 0.913 . S
H1102 C1120 0.951 . S
H1103 C1122 0.951 . S
H1104 C1124 0.950 . S
H1105 C1125 0.950 . S
H1106 C1127 0.950 . S
H1107 C1130 0.950 . S
H1108 C1131 0.950 . S
H1109 C1133 0.950 . S
H1110 C1134 0.950 . S
H1111 C1135 0.951 . S
H1112 C1137 0.951 . S
H1113 C1139 0.950 . S
H1114 C1140 0.950 . S
H1115 C1142 0.950 . S
H1116 C1145 0.950 . S
H1117 C1146 0.950 . S
H1118 C1148 0.950 . S
H1119 C1149 0.950 . S
C1120 H1102 0.951 . S
C1120 C1121 1.366 . S
C1120 C1122 1.388 . S
C1121 C1120 1.366 . S
C1121 C1125 1.385 . S
C1122 H1103 0.951 . S
C1122 C1120 1.388 . S
C1122 C1123 1.366 . S
C1123 C1122 1.366 . S
C1123 C1124 1.414 . S
C1123 C1126 1.499 . S
C1124 H1104 0.950 . S
C1124 C1123 1.414 . S
C1124 C1125 1.374 . S
C1125 H1105 0.950 . S
C1125 C1121 1.385 . S
C1125 C1124 1.374 . S
C1126 C1123 1.499 . S
C1126 C1127 1.373 . S
C1126 C1128 1.389 1_455 S
C1127 H1106 0.950 . S
C1127 C1126 1.373 . S
C1127 C1143 1.377 . S
C1128 C1126 1.389 1_655 S
C1128 C1129 1.524 . S
C1128 C1142 1.377 . S
C1129 C1128 1.524 . S
C1129 C1130 1.397 1_655 S
C1129 C1134 1.363 . S
C1130 H1107 0.950 . S
C1130 C1129 1.397 1_455 S
C1130 C1131 1.334 . S
C1131 H1108 0.950 . S
C1131 C1130 1.334 . S
C1131 C1132 1.287 1_455 S
C1132 C1131 1.287 1_655 S
C1132 C1133 1.524 . S
C1132 H1151 0.913 . S
C1133 H1109 0.950 . S
C1133 C1132 1.524 . S
C1133 C1134 1.415 . S
C1134 H1110 0.950 . S
C1134 C1129 1.363 . S
C1134 C1133 1.415 . S
C1135 H1111 0.951 . S
C1135 C1136 1.366 . S
C1135 C1137 1.388 . S
C1136 C1135 1.366 . S
C1136 C1140 1.385 . S
C1137 H1112 0.951 . S
C1137 C1135 1.388 . S
C1137 C1138 1.366 . S
C1138 C1137 1.366 . S
C1138 C1139 1.414 . S
C1138 C1141 1.499 . S
C1139 H1113 0.950 . S
C1139 C1138 1.414 . S
C1139 C1140 1.374 . S
C1140 H1114 0.950 . S
C1140 C1136 1.385 . S
C1140 C1139 1.374 . S
C1141 C1138 1.499 . S
C1141 C1142 1.373 . S
C1141 C1143 1.389 1_655 S
C1142 H1115 0.950 . S
C1142 C1128 1.377 . S
C1142 C1141 1.373 . S
C1143 C1127 1.377 . S
C1143 C1141 1.389 1_455 S
C1143 C1144 1.524 . S
C1144 C1143 1.524 . S
C1144 C1145 1.397 1_455 S
C1144 C1149 1.363 . S
C1145 H1116 0.950 . S
C1145 C1144 1.397 1_655 S
C1145 C1146 1.334 . S
C1146 H1117 0.950 . S
C1146 C1145 1.334 . S
C1146 C1147 1.287 1_655 S
C1147 C1146 1.287 1_455 S
C1147 C1148 1.524 . S
C1147 H1150 0.999 . S
C1148 H1118 0.950 . S
C1148 C1147 1.524 . S
C1148 C1149 1.415 . S
C1149 H1119 0.950 . S
C1149 C1144 1.363 . S
C1149 C1148 1.415 . S
H1150 C1147 0.999 . S
H1151 C1132 0.913 . S
H1152 C1170 0.951 . S
H1153 C1172 0.951 . S
H1154 C1174 0.950 . S
H1155 C1175 0.950 . S
H1156 C1177 0.950 . S
H1157 C1180 0.950 . S
H1158 C1181 0.950 . S
H1159 C1183 0.950 . S
H1160 C1184 0.950 . S
H1161 C1185 0.951 . S
H1162 C1187 0.951 . S
H1163 C1189 0.950 . S
H1164 C1190 0.950 . S
H1165 C1192 0.950 . S
H1166 C1195 0.950 . S
H1167 C1196 0.950 . S
H1168 C1198 0.950 . S
H1169 C1199 0.950 . S
C1170 H1152 0.951 . S
C1170 C1171 1.366 . S
C1170 C1172 1.388 . S
C1171 C1170 1.366 . S
C1171 C1175 1.385 . S
C1172 H1153 0.951 . S
C1172 C1170 1.388 . S
C1172 C1173 1.366 . S
C1173 C1172 1.366 . S
C1173 C1174 1.414 . S
C1173 C1176 1.499 . S
C1174 H1154 0.950 . S
C1174 C1173 1.414 . S
C1174 C1175 1.374 . S
C1175 H1155 0.950 . S
C1175 C1171 1.385 . S
C1175 C1174 1.374 . S
C1176 C1173 1.499 . S
C1176 C1177 1.373 . S
C1176 C1178 1.389 1_545 S
C1177 H1156 0.950 . S
C1177 C1176 1.373 . S
C1177 C1193 1.377 . S
C1178 C1176 1.389 1_565 S
C1178 C1179 1.524 . S
C1178 C1192 1.377 . S
C1179 C1178 1.524 . S
C1179 C1180 1.397 . S
C1179 C1184 1.363 . S
C1180 H1157 0.950 . S
C1180 C1179 1.397 . S
C1180 C1181 1.334 . S
C1181 H1158 0.950 . S
C1181 C1180 1.334 . S
C1181 C1182 1.287 . S
C1182 C1181 1.287 . S
C1182 C1183 1.524 . S
C1182 H1201 0.913 . S
C1183 H1159 0.950 . S
C1183 C1182 1.524 . S
C1183 C1184 1.415 . S
C1184 H1160 0.950 . S
C1184 C1179 1.363 . S
C1184 C1183 1.415 . S
C1185 H1161 0.951 . S
C1185 C1186 1.366 . S
C1185 C1187 1.388 . S
C1186 C1185 1.366 . S
C1186 C1190 1.385 . S
C1187 H1162 0.951 . S
C1187 C1185 1.388 . S
C1187 C1188 1.366 . S
C1188 C1187 1.366 . S
C1188 C1189 1.414 . S
C1188 C1191 1.499 . S
C1189 H1163 0.950 . S
C1189 C1188 1.414 . S
C1189 C1190 1.374 . S
C1190 H1164 0.950 . S
C1190 C1186 1.385 . S
C1190 C1189 1.374 . S
C1191 C1188 1.499 . S
C1191 C1192 1.373 . S
C1191 C1193 1.389 1_565 S
C1192 H1165 0.950 . S
C1192 C1178 1.377 . S
C1192 C1191 1.373 . S
C1193 C1177 1.377 . S
C1193 C1191 1.389 1_545 S
C1193 C1194 1.524 . S
C1194 C1193 1.524 . S
C1194 C1195 1.397 . S
C1194 C1199 1.363 . S
C1195 H1166 0.950 . S
C1195 C1194 1.397 . S
C1195 C1196 1.334 . S
C1196 H1167 0.950 . S
C1196 C1195 1.334 . S
C1196 C1197 1.287 . S
C1197 C1196 1.287 . S
C1197 C1198 1.524 . S
C1197 H1200 0.999 . S
C1198 H1168 0.950 . S
C1198 C1197 1.524 . S
C1198 C1199 1.415 . S
C1199 H1169 0.950 . S
C1199 C1194 1.363 . S
C1199 C1198 1.415 . S
H1200 C1197 0.999 . S
H1201 C1182 0.913 . S
H1202 C1220 0.951 . S
H1203 C1222 0.951 . S
H1204 C1224 0.950 . S
H1205 C1225 0.950 . S
H1206 C1227 0.950 . S
H1207 C1230 0.950 . S
H1208 C1231 0.950 . S
H1209 C1233 0.950 . S
H1210 C1234 0.950 . S
H1211 C1235 0.951 . S
H1212 C1237 0.951 . S
H1213 C1239 0.950 . S
H1214 C1240 0.950 . S
H1215 C1242 0.950 . S
H1216 C1245 0.950 . S
H1217 C1246 0.950 . S
H1218 C1248 0.950 . S
H1219 C1249 0.950 . S
C1220 H1202 0.951 . S
C1220 C1221 1.366 . S
C1220 C1222 1.388 . S
C1221 C1220 1.366 . S
C1221 C1225 1.385 . S
C1222 H1203 0.951 . S
C1222 C1220 1.388 . S
C1222 C1223 1.366 . S
C1223 C1222 1.366 . S
C1223 C1224 1.414 . S
C1223 C1226 1.499 . S
C1224 H1204 0.950 . S
C1224 C1223 1.414 . S
C1224 C1225 1.374 . S
C1225 H1205 0.950 . S
C1225 C1221 1.385 . S
C1225 C1224 1.374 . S
C1226 C1223 1.499 . S
C1226 C1227 1.373 . S
C1226 C1228 1.389 . S
C1227 H1206 0.950 . S
C1227 C1226 1.373 . S
C1227 C1243 1.377 . S
C1228 C1226 1.389 . S
C1228 C1229 1.524 . S
C1228 C1242 1.377 . S
C1229 C1228 1.524 . S
C1229 C1230 1.397 . S
C1229 C1234 1.363 . S
C1230 H1207 0.950 . S
C1230 C1229 1.397 . S
C1230 C1231 1.334 . S
C1231 H1208 0.950 . S
C1231 C1230 1.334 . S
C1231 C1232 1.287 . S
C1232 C1231 1.287 . S
C1232 C1233 1.524 . S
C1232 H1251 0.913 . S
C1233 H1209 0.950 . S
C1233 C1232 1.524 . S
C1233 C1234 1.415 . S
C1234 H1210 0.950 . S
C1234 C1229 1.363 . S
C1234 C1233 1.415 . S
C1235 H1211 0.951 . S
C1235 C1236 1.366 . S
C1235 C1237 1.388 . S
C1236 C1235 1.366 . S
C1236 C1240 1.385 . S
C1237 H1212 0.951 . S
C1237 C1235 1.388 . S
C1237 C1238 1.366 . S
C1238 C1237 1.366 . S
C1238 C1239 1.414 . S
C1238 C1241 1.499 . S
C1239 H1213 0.950 . S
C1239 C1238 1.414 . S
C1239 C1240 1.374 . S
C1240 H1214 0.950 . S
C1240 C1236 1.385 . S
C1240 C1239 1.374 . S
C1241 C1238 1.499 . S
C1241 C1242 1.373 . S
C1241 C1243 1.389 . S
C1242 H1215 0.950 . S
C1242 C1228 1.377 . S
C1242 C1241 1.373 . S
C1243 C1227 1.377 . S
C1243 C1241 1.389 . S
C1243 C1244 1.524 . S
C1244 C1243 1.524 . S
C1244 C1245 1.397 . S
C1244 C1249 1.363 . S
C1245 H1216 0.950 . S
C1245 C1244 1.397 . S
C1245 C1246 1.334 . S
C1246 H1217 0.950 . S
C1246 C1245 1.334 . S
C1246 C1247 1.287 . S
C1247 C1246 1.287 . S
C1247 C1248 1.524 . S
C1247 H1250 0.999 . S
C1248 H1218 0.950 . S
C1248 C1247 1.524 . S
C1248 C1249 1.415 . S
C1249 H1219 0.950 . S
C1249 C1244 1.363 . S
C1249 C1248 1.415 . S
H1250 C1247 0.999 . S
H1251 C1232 0.913 . S
H1252 C1270 0.951 . S
H1253 C1272 0.951 . S
H1254 C1274 0.950 . S
H1255 C1275 0.950 . S
H1256 C1277 0.950 . S
H1257 C1280 0.950 1_655 S
H1258 C1281 0.950 . S
H1259 C1283 0.950 . S
H1260 C1284 0.950 . S
H1261 C1285 0.951 . S
H1262 C1287 0.951 . S
H1263 C1289 0.950 . S
H1264 C1290 0.950 . S
H1265 C1292 0.950 . S
H1266 C1295 0.950 1_455 S
H1267 C1296 0.950 . S
H1268 C1298 0.950 . S
H1269 C1299 0.950 . S
C1270 H1252 0.951 . S
C1270 C1271 1.366 . S
C1270 C1272 1.388 . S
C1271 C1270 1.366 . S
C1271 C1275 1.385 . S
C1272 H1253 0.951 . S
C1272 C1270 1.388 . S
C1272 C1273 1.366 . S
C1273 C1272 1.366 . S
C1273 C1274 1.414 . S
C1273 C1276 1.499 . S
C1274 H1254 0.950 . S
C1274 C1273 1.414 . S
C1274 C1275 1.374 . S
C1275 H1255 0.950 . S
C1275 C1271 1.385 . S
C1275 C1274 1.374 . S
C1276 C1273 1.499 . S
C1276 C1277 1.373 . S
C1276 C1278 1.389 1_655 S
C1277 H1256 0.950 . S
C1277 C1276 1.373 . S
C1277 C1293 1.377 . S
C1278 C1276 1.389 1_455 S
C1278 C1279 1.524 . S
C1278 C1292 1.377 . S
C1279 C1278 1.524 . S
C1279 C1280 1.397 1_556 S
C1279 C1284 1.363 . S
C1280 H1257 0.950 1_455 S
C1280 C1279 1.397 1_554 S
C1280 C1281 1.334 . S
C1281 H1258 0.950 . S
C1281 C1280 1.334 . S
C1281 C1282 1.287 . S
C1282 C1281 1.287 . S
C1282 C1283 1.524 1_554 S
C1282 H1301 0.913 . S
C1283 H1259 0.950 . S
C1283 C1282 1.524 1_556 S
C1283 C1284 1.415 . S
C1284 H1260 0.950 . S
C1284 C1279 1.363 . S
C1284 C1283 1.415 . S
C1285 H1261 0.951 . S
C1285 C1286 1.366 . S
C1285 C1287 1.388 . S
C1286 C1285 1.366 . S
C1286 C1290 1.385 . S
C1287 H1262 0.951 . S
C1287 C1285 1.388 . S
C1287 C1288 1.366 . S
C1288 C1287 1.366 . S
C1288 C1289 1.414 . S
C1288 C1291 1.499 . S
C1289 H1263 0.950 . S
C1289 C1288 1.414 . S
C1289 C1290 1.374 . S
C1290 H1264 0.950 . S
C1290 C1286 1.385 . S
C1290 C1289 1.374 . S
C1291 C1288 1.499 . S
C1291 C1292 1.373 . S
C1291 C1293 1.389 1_455 S
C1292 H1265 0.950 . S
C1292 C1278 1.377 . S
C1292 C1291 1.373 . S
C1293 C1277 1.377 . S
C1293 C1291 1.389 1_655 S
C1293 C1294 1.524 . S
C1294 C1293 1.524 . S
C1294 C1295 1.397 . S
C1294 C1299 1.363 . S
C1295 H1266 0.950 1_655 S
C1295 C1294 1.397 . S
C1295 C1296 1.334 . S
C1296 H1267 0.950 . S
C1296 C1295 1.334 . S
C1296 C1297 1.287 . S
C1297 C1296 1.287 . S
C1297 C1298 1.524 . S
C1297 H1300 0.999 . S
C1298 H1268 0.950 . S
C1298 C1297 1.524 . S
C1298 C1299 1.415 . S
C1299 H1269 0.950 . S
C1299 C1294 1.363 . S
C1299 C1298 1.415 . S
H1300 C1297 0.999 . S
H1301 C1282 0.913 . S
H1302 C1320 0.951 . S
H1303 C1322 0.951 . S
H1304 C1324 0.950 . S
H1305 C1325 0.950 . S
H1306 C1327 0.950 . S
H1307 C1330 0.950 . S
H1308 C1331 0.950 . S
H1309 C1333 0.971 . S
H1310 C1334 0.950 1_655 S
H1311 C1335 0.951 . S
H1312 C1337 0.951 . S
H1313 C1339 0.950 . S
H1314 C1340 0.950 . S
H1315 C1342 0.950 . S
H1316 C1345 0.950 . S
H1317 C1346 0.950 . S
H1318 C1348 0.971 . S
H1319 C1349 0.950 1_455 S
C1320 H1302 0.951 . S
C1320 C1321 1.366 . S
C1320 C1322 1.388 . S
C1321 C1320 1.366 . S
C1321 C1325 1.385 . S
C1322 H1303 0.951 . S
C1322 C1320 1.388 . S
C1322 C1323 1.366 . S
C1323 C1322 1.366 . S
C1323 C1324 1.414 . S
C1323 C1326 1.499 . S
C1324 H1304 0.950 . S
C1324 C1323 1.414 . S
C1324 C1325 1.374 . S
C1325 H1305 0.950 . S
C1325 C1321 1.385 . S
C1325 C1324 1.374 . S
C1326 C1323 1.499 . S
C1326 C1327 1.373 . S
C1326 C1328 1.389 . S
C1327 H1306 0.950 . S
C1327 C1326 1.373 . S
C1327 C1343 1.377 1_455 S
C1328 C1326 1.389 . S
C1328 C1329 1.524 . S
C1328 C1342 1.377 1_455 S
C1329 C1328 1.524 . S
C1329 C1330 1.397 . S
C1329 C1334 1.363 . S
C1330 H1307 0.950 . S
C1330 C1329 1.397 . S
C1330 C1331 1.334 . S
C1331 H1308 0.950 . S
C1331 C1330 1.334 . S
C1331 C1332 1.287 . S
C1332 C1331 1.287 . S
C1332 C1333 1.524 . S
C1332 H1351 0.913 . S
C1333 H1309 0.971 . S
C1333 C1332 1.524 . S
C1333 C1334 1.415 . S
C1334 H1310 0.950 1_455 S
C1334 C1329 1.363 . S
C1334 C1333 1.415 . S
C1335 H1311 0.951 . S
C1335 C1336 1.366 . S
C1335 C1337 1.388 . S
C1336 C1335 1.366 . S
C1336 C1340 1.385 . S
C1337 H1312 0.951 . S
C1337 C1335 1.388 . S
C1337 C1338 1.366 . S
C1338 C1337 1.366 . S
C1338 C1339 1.414 . S
C1338 C1341 1.499 . S
C1339 H1313 0.950 . S
C1339 C1338 1.414 . S
C1339 C1340 1.374 . S
C1340 H1314 0.950 . S
C1340 C1336 1.385 . S
C1340 C1339 1.374 . S
C1341 C1338 1.499 . S
C1341 C1342 1.373 . S
C1341 C1343 1.389 . S
C1342 H1315 0.950 . S
C1342 C1328 1.377 1_655 S
C1342 C1341 1.373 . S
C1343 C1327 1.377 1_655 S
C1343 C1341 1.389 . S
C1343 C1344 1.524 . S
C1344 C1343 1.524 . S
C1344 C1345 1.397 . S
C1344 C1349 1.363 . S
C1345 H1316 0.950 . S
C1345 C1344 1.397 . S
C1345 C1346 1.334 . S
C1346 H1317 0.950 . S
C1346 C1345 1.334 . S
C1346 C1347 1.287 . S
C1347 C1346 1.287 . S
C1347 C1348 1.524 . S
C1347 H1350 0.999 . S
C1348 H1318 0.971 . S
C1348 C1347 1.524 . S
C1348 C1349 1.415 . S
C1349 H1319 0.950 1_655 S
C1349 C1344 1.363 . S
C1349 C1348 1.415 . S
H1350 C1347 0.999 . S
H1351 C1332 0.913 . S
H1352 C1370 0.951 . S
H1353 C1372 0.951 . S
H1354 C1374 0.950 . S
H1355 C1375 0.950 . S
H1356 C1377 0.950 . S
H1357 C1380 0.950 . S
H1358 C1381 0.950 . S
H1359 C1383 0.950 . S
H1360 C1384 0.950 . S
H1361 C1385 0.951 . S
H1362 C1387 0.951 . S
H1363 C1389 0.950 . S
H1364 C1390 0.950 . S
H1365 C1392 0.950 . S
H1366 C1395 0.950 . S
H1367 C1396 0.950 . S
H1368 C1398 0.950 . S
H1369 C1399 0.950 . S
C1370 H1352 0.951 . S
C1370 C1371 1.366 . S
C1370 C1372 1.388 . S
C1371 C1370 1.366 . S
C1371 C1375 1.385 . S
C1372 H1353 0.951 . S
C1372 C1370 1.388 . S
C1372 C1373 1.366 . S
C1373 C1372 1.366 . S
C1373 C1374 1.414 . S
C1373 C1376 1.499 . S
C1374 H1354 0.950 . S
C1374 C1373 1.414 . S
C1374 C1375 1.374 . S
C1375 H1355 0.950 . S
C1375 C1371 1.385 . S
C1375 C1374 1.374 . S
C1376 C1373 1.499 . S
C1376 C1377 1.373 . S
C1376 C1378 1.389 1_565 S
C1377 H1356 0.950 . S
C1377 C1376 1.373 . S
C1377 C1393 1.377 . S
C1378 C1376 1.389 1_545 S
C1378 C1379 1.524 . S
C1378 C1392 1.377 . S
C1379 C1378 1.524 . S
C1379 C1380 1.397 1_545 S
C1379 C1384 1.363 . S
C1380 H1357 0.950 . S
C1380 C1379 1.397 1_565 S
C1380 C1381 1.334 . S
C1381 H1358 0.950 . S
C1381 C1380 1.334 . S
C1381 C1382 1.287 1_565 S
C1382 C1381 1.287 1_545 S
C1382 C1383 1.524 . S
C1382 H1401 0.913 . S
C1383 H1359 0.950 . S
C1383 C1382 1.524 . S
C1383 C1384 1.415 . S
C1384 H1360 0.950 . S
C1384 C1379 1.363 . S
C1384 C1383 1.415 . S
C1385 H1361 0.951 . S
C1385 C1386 1.366 . S
C1385 C1387 1.388 . S
C1386 C1385 1.366 . S
C1386 C1390 1.385 . S
C1387 H1362 0.951 . S
C1387 C1385 1.388 . S
C1387 C1388 1.366 . S
C1388 C1387 1.366 . S
C1388 C1389 1.414 . S
C1388 C1391 1.499 . S
C1389 H1363 0.950 . S
C1389 C1388 1.414 . S
C1389 C1390 1.374 . S
C1390 H1364 0.950 . S
C1390 C1386 1.385 . S
C1390 C1389 1.374 . S
C1391 C1388 1.499 . S
C1391 C1392 1.373 . S
C1391 C1393 1.389 1_545 S
C1392 H1365 0.950 . S
C1392 C1378 1.377 . S
C1392 C1391 1.373 . S
C1393 C1377 1.377 . S
C1393 C1391 1.389 1_565 S
C1393 C1394 1.524 . S
C1394 C1393 1.524 . S
C1394 C1395 1.397 1_565 S
C1394 C1399 1.363 . S
C1395 H1366 0.950 . S
C1395 C1394 1.397 1_545 S
C1395 C1396 1.334 . S
C1396 H1367 0.950 . S
C1396 C1395 1.334 . S
C1396 C1397 1.287 1_545 S
C1397 C1396 1.287 1_565 S
C1397 C1398 1.524 . S
C1397 H1400 0.999 . S
C1398 H1368 0.950 . S
C1398 C1397 1.524 . S
C1398 C1399 1.415 . S
C1399 H1369 0.950 . S
C1399 C1394 1.363 . S
C1399 C1398 1.415 . S
H1400 C1397 0.999 . S
H1401 C1382 0.913 . S
H1402 C1420 0.951 . S
H1403 C1422 0.951 . S
H1404 C1424 0.950 . S
H1405 C1425 0.950 . S
H1406 C1427 0.950 . S
H1407 C1430 0.950 . S
H1408 C1431 0.950 . S
H1409 C1433 0.950 . S
H1410 C1434 0.950 . S
H1411 C1435 0.951 . S
H1412 C1437 0.951 . S
H1413 C1439 0.950 . S
H1414 C1440 0.950 . S
H1415 C1442 0.950 1_556 S
H1416 C1445 0.950 . S
H1417 C1446 0.950 . S
H1418 C1448 0.950 . S
H1419 C1449 0.950 . S
C1420 H1402 0.951 . S
C1420 C1421 1.366 . S
C1420 C1422 1.388 . S
C1421 C1420 1.366 . S
C1421 C1425 1.385 . S
C1422 H1403 0.951 . S
C1422 C1420 1.388 . S
C1422 C1423 1.366 . S
C1423 C1422 1.366 . S
C1423 C1424 1.414 . S
C1423 C1426 1.499 . S
C1424 H1404 0.950 . S
C1424 C1423 1.414 . S
C1424 C1425 1.374 . S
C1425 H1405 0.950 . S
C1425 C1421 1.385 . S
C1425 C1424 1.374 . S
C1426 C1423 1.499 . S
C1426 C1427 1.373 . S
C1426 C1428 1.389 . S
C1427 H1406 0.950 . S
C1427 C1426 1.373 . S
C1427 C1443 1.377 . S
C1428 C1426 1.389 . S
C1428 C1429 1.524 1_554 S
C1428 C1442 1.377 . S
C1429 C1428 1.524 1_556 S
C1429 C1430 1.397 . S
C1429 C1434 1.363 . S
C1430 H1407 0.950 . S
C1430 C1429 1.397 . S
C1430 C1431 1.334 . S
C1431 H1408 0.950 . S
C1431 C1430 1.334 . S
C1431 C1432 1.287 . S
C1432 C1431 1.287 . S
C1432 C1433 1.524 . S
C1432 H1451 0.913 . S
C1433 H1409 0.950 . S
C1433 C1432 1.524 . S
C1433 C1434 1.415 . S
C1434 H1410 0.950 . S
C1434 C1429 1.363 . S
C1434 C1433 1.415 . S
C1435 H1411 0.951 . S
C1435 C1436 1.366 . S
C1435 C1437 1.388 . S
C1436 C1435 1.366 . S
C1436 C1440 1.385 . S
C1437 H1412 0.951 . S
C1437 C1435 1.388 . S
C1437 C1438 1.366 . S
C1438 C1437 1.366 . S
C1438 C1439 1.414 . S
C1438 C1441 1.499 . S
C1439 H1413 0.950 . S
C1439 C1438 1.414 . S
C1439 C1440 1.374 . S
C1440 H1414 0.950 . S
C1440 C1436 1.385 . S
C1440 C1439 1.374 . S
C1441 C1438 1.499 . S
C1441 C1442 1.373 . S
C1441 C1443 1.389 . S
C1442 H1415 0.950 1_554 S
C1442 C1428 1.377 . S
C1442 C1441 1.373 . S
C1443 C1427 1.377 . S
C1443 C1441 1.389 . S
C1443 C1444 1.524 . S
C1444 C1443 1.524 . S
C1444 C1445 1.397 . S
C1444 C1449 1.363 . S
C1445 H1416 0.950 . S
C1445 C1444 1.397 . S
C1445 C1446 1.334 . S
C1446 H1417 0.950 . S
C1446 C1445 1.334 . S
C1446 C1447 1.287 . S
C1447 C1446 1.287 . S
C1447 C1448 1.524 . S
C1447 H1450 0.999 . S
C1448 H1418 0.950 . S
C1448 C1447 1.524 . S
C1448 C1449 1.415 . S
C1449 H1419 0.950 . S
C1449 C1444 1.363 . S
C1449 C1448 1.415 . S
H1450 C1447 0.999 . S
H1451 C1432 0.913 . S
H1452 C1470 0.951 . S
H1453 C1472 0.951 . S
H1454 C1474 0.950 . S
H1455 C1475 0.950 . S
H1456 C1477 0.949 . S
H1457 C1480 0.950 . S
H1458 C1481 0.950 . S
H1459 C1483 0.950 . S
H1460 C1484 0.950 . S
H1461 C1485 0.951 . S
H1462 C1487 0.951 . S
H1463 C1489 0.950 . S
H1464 C1490 0.950 . S
H1465 C1492 0.949 . S
H1466 C1495 0.950 . S
H1467 C1496 0.950 . S
H1468 C1498 0.950 . S
H1469 C1499 0.950 . S
C1470 H1452 0.951 . S
C1470 C1471 1.366 . S
C1470 C1472 1.388 . S
C1471 C1470 1.366 . S
C1471 C1475 1.385 . S
C1472 H1453 0.951 . S
C1472 C1470 1.388 . S
C1472 C1473 1.366 . S
C1473 C1472 1.366 . S
C1473 C1474 1.414 . S
C1473 C1476 1.499 . S
C1474 H1454 0.950 . S
C1474 C1473 1.414 . S
C1474 C1475 1.374 . S
C1475 H1455 0.950 . S
C1475 C1471 1.385 . S
C1475 C1474 1.374 . S
C1476 C1473 1.499 . S
C1476 C1477 1.384 . S
C1476 C1478 1.389 . S
C1477 H1456 0.949 . S
C1477 C1476 1.384 . S
C1477 C1493 1.371 1_565 S
C1478 C1476 1.389 . S
C1478 C1479 1.524 . S
C1478 C1492 1.371 1_565 S
C1479 C1478 1.524 . S
C1479 C1480 1.397 . S
C1479 C1484 1.363 . S
C1480 H1457 0.950 . S
C1480 C1479 1.397 . S
C1480 C1481 1.334 . S
C1481 H1458 0.950 . S
C1481 C1480 1.334 . S
C1481 C1482 1.287 . S
C1482 C1481 1.287 . S
C1482 C1483 1.524 . S
C1482 H1501 0.913 . S
C1483 H1459 0.950 . S
C1483 C1482 1.524 . S
C1483 C1484 1.415 . S
C1484 H1460 0.950 . S
C1484 C1479 1.363 . S
C1484 C1483 1.415 . S
C1485 H1461 0.951 . S
C1485 C1486 1.366 . S
C1485 C1487 1.388 . S
C1486 C1485 1.366 . S
C1486 C1490 1.385 . S
C1487 H1462 0.951 . S
C1487 C1485 1.388 . S
C1487 C1488 1.366 . S
C1488 C1487 1.366 . S
C1488 C1489 1.414 . S
C1488 C1491 1.499 . S
C1489 H1463 0.950 . S
C1489 C1488 1.414 . S
C1489 C1490 1.374 . S
C1490 H1464 0.950 . S
C1490 C1486 1.385 . S
C1490 C1489 1.374 . S
C1491 C1488 1.499 . S
C1491 C1492 1.383 . S
C1491 C1493 1.389 . S
C1492 H1465 0.949 . S
C1492 C1478 1.371 1_545 S
C1492 C1491 1.383 . S
C1493 C1477 1.371 1_545 S
C1493 C1491 1.389 . S
C1493 C1494 1.524 . S
C1494 C1493 1.524 . S
C1494 C1495 1.397 . S
C1494 C1499 1.363 . S
C1495 H1466 0.950 . S
C1495 C1494 1.397 . S
C1495 C1496 1.334 . S
C1496 H1467 0.950 . S
C1496 C1495 1.334 . S
C1496 C1497 1.287 . S
C1497 C1496 1.287 . S
C1497 C1498 1.524 . S
C1497 H1500 0.999 . S
C1498 H1468 0.950 . S
C1498 C1497 1.524 . S
C1498 C1499 1.415 . S
C1499 H1469 0.950 . S
C1499 C1494 1.363 . S
C1499 C1498 1.415 . S
H1500 C1497 0.999 . S
H1501 C1482 0.913 . S
H1502 C1520 0.951 . S
H1503 C1522 0.951 . S
H1504 C1524 0.950 . S
H1505 C1525 0.971 . S
H1506 C1527 0.950 . S
H1507 C1530 0.950 . S
H1508 C1531 0.950 . S
H1509 C1533 0.950 . S
H1510 C1534 0.950 . S
H1511 C1535 0.951 . S
H1512 C1537 0.951 . S
H1513 C1539 0.950 . S
H1514 C1540 0.950 . S
H1515 C1542 0.950 . S
H1516 C1545 0.950 . S
H1517 C1546 0.950 . S
H1518 C1548 0.950 . S
H1519 C1549 0.950 . S
C1520 H1502 0.951 . S
C1520 C1521 1.366 . S
C1520 C1522 1.388 . S
C1521 C1520 1.366 . S
C1521 C1525 1.385 . S
C1522 H1503 0.951 . S
C1522 C1520 1.388 . S
C1522 C1523 1.366 . S
C1523 C1522 1.366 . S
C1523 C1524 1.414 . S
C1523 C1526 1.499 . S
C1524 H1504 0.950 . S
C1524 C1523 1.414 . S
C1524 C1525 1.374 . S
C1525 H1505 0.971 . S
C1525 C1521 1.385 . S
C1525 C1524 1.374 . S
C1526 C1523 1.499 . S
C1526 C1527 1.373 . S
C1526 C1528 1.389 . S
C1527 H1506 0.950 . S
C1527 C1526 1.373 . S
C1527 C1543 1.377 . S
C1528 C1526 1.389 . S
C1528 C1529 1.524 . S
C1528 C1542 1.377 . S
C1529 C1528 1.524 . S
C1529 C1530 1.397 . S
C1529 C1534 1.363 . S
C1530 H1507 0.950 . S
C1530 C1529 1.397 . S
C1530 C1531 1.334 . S
C1531 H1508 0.950 . S
C1531 C1530 1.334 . S
C1531 C1532 1.287 . S
C1532 C1531 1.287 . S
C1532 C1533 1.524 . S
C1532 H1551 0.913 . S
C1533 H1509 0.950 . S
C1533 C1532 1.524 . S
C1533 C1534 1.415 . S
C1534 H1510 0.950 . S
C1534 C1529 1.363 . S
C1534 C1533 1.415 . S
C1535 H1511 0.951 . S
C1535 C1536 1.366 . S
C1535 C1537 1.388 . S
C1536 C1535 1.366 . S
C1536 C1540 1.385 . S
C1537 H1512 0.951 . S
C1537 C1535 1.388 . S
C1537 C1538 1.366 . S
C1538 C1537 1.366 . S
C1538 C1539 1.414 . S
C1538 C1541 1.499 . S
C1539 H1513 0.950 . S
C1539 C1538 1.414 . S
C1539 C1540 1.374 . S
C1540 H1514 0.950 . S
C1540 C1536 1.385 . S
C1540 C1539 1.374 . S
C1541 C1538 1.499 . S
C1541 C1542 1.373 . S
C1541 C1543 1.389 . S
C1542 H1515 0.950 . S
C1542 C1528 1.377 . S
C1542 C1541 1.373 . S
C1543 C1527 1.377 . S
C1543 C1541 1.389 . S
C1543 C1544 1.524 . S
C1544 C1543 1.524 . S
C1544 C1545 1.397 . S
C1544 C1549 1.363 . S
C1545 H1516 0.950 . S
C1545 C1544 1.397 . S
C1545 C1546 1.334 . S
C1546 H1517 0.950 . S
C1546 C1545 1.334 . S
C1546 C1547 1.287 . S
C1547 C1546 1.287 . S
C1547 C1548 1.524 . S
C1547 H1550 0.999 . S
C1548 H1518 0.950 . S
C1548 C1547 1.524 . S
C1548 C1549 1.415 . S
C1549 H1519 0.950 . S
C1549 C1544 1.363 . S
C1549 C1548 1.415 . S
H1550 C1547 0.999 . S
H1551 C1532 0.913 . S
H1552 C1570 0.951 . S
H1553 C1572 0.951 . S
H1554 C1574 0.950 . S
H1555 C1575 0.950 . S
H1556 C1577 0.950 . S
H1557 C1580 0.950 . S
H1558 C1581 0.950 . S
H1559 C1583 0.950 . S
H1560 C1584 0.950 . S
H1561 C1585 0.951 . S
H1562 C1587 0.951 . S
H1563 C1589 0.950 . S
H1564 C1590 0.950 . S
H1565 C1592 0.950 . S
H1566 C1595 0.950 . S
H1567 C1596 0.950 . S
H1568 C1598 0.950 . S
H1569 C1599 0.950 . S
C1570 H1552 0.951 . S
C1570 C1571 1.366 . S
C1570 C1572 1.388 . S
C1571 C1570 1.366 . S
C1571 C1575 1.385 . S
C1572 H1553 0.951 . S
C1572 C1570 1.388 . S
C1572 C1573 1.366 . S
C1573 C1572 1.366 . S
C1573 C1574 1.414 . S
C1573 C1576 1.499 . S
C1574 H1554 0.950 . S
C1574 C1573 1.414 . S
C1574 C1575 1.374 . S
C1575 H1555 0.950 . S
C1575 C1571 1.385 . S
C1575 C1574 1.374 . S
C1576 C1573 1.499 . S
C1576 C1577 1.373 . S
C1576 C1578 1.389 1_655 S
C1577 H1556 0.950 . S
C1577 C1576 1.373 . S
C1577 C1593 1.377 . S
C1578 C1576 1.389 1_455 S
C1578 C1579 1.524 . S
C1578 C1592 1.377 . S
C1579 C1578 1.524 . S
C1579 C1580 1.397 . S
C1579 C1584 1.363 . S
C1580 H1557 0.950 . S
C1580 C1579 1.397 . S
C1580 C1581 1.334 . S
C1581 H1558 0.950 . S
C1581 C1580 1.334 . S
C1581 C1582 1.287 . S
C1582 C1581 1.287 . S
C1582 C1583 1.524 . S
C1582 H1601 0.913 1_554 S
C1583 H1559 0.950 . S
C1583 C1582 1.524 . S
C1583 C1584 1.415 . S
C1584 H1560 0.950 . S
C1584 C1579 1.363 . S
C1584 C1583 1.415 . S
C1585 H1561 0.951 . S
C1585 C1586 1.366 . S
C1585 C1587 1.388 . S
C1586 C1585 1.366 . S
C1586 C1590 1.385 . S
C1587 H1562 0.951 . S
C1587 C1585 1.388 . S
C1587 C1588 1.366 . S
C1588 C1587 1.366 . S
C1588 C1589 1.414 . S
C1588 C1591 1.499 . S
C1589 H1563 0.950 . S
C1589 C1588 1.414 . S
C1589 C1590 1.374 . S
C1590 H1564 0.950 . S
C1590 C1586 1.385 . S
C1590 C1589 1.374 . S
C1591 C1588 1.499 . S
C1591 C1592 1.373 . S
C1591 C1593 1.389 1_455 S
C1592 H1565 0.950 . S
C1592 C1578 1.377 . S
C1592 C1591 1.373 . S
C1593 C1577 1.377 . S
C1593 C1591 1.389 1_655 S
C1593 C1594 1.524 . S
C1594 C1593 1.524 . S
C1594 C1595 1.397 . S
C1594 C1599 1.363 . S
C1595 H1566 0.950 . S
C1595 C1594 1.397 . S
C1595 C1596 1.334 . S
C1596 H1567 0.950 . S
C1596 C1595 1.334 . S
C1596 C1597 1.287 . S
C1597 C1596 1.287 . S
C1597 C1598 1.524 . S
C1597 H1600 0.999 . S
C1598 H1568 0.950 . S
C1598 C1597 1.524 . S
C1598 C1599 1.415 . S
C1599 H1569 0.950 . S
C1599 C1594 1.363 . S
C1599 C1598 1.415 . S
H1600 C1597 0.999 . S
H1601 C1582 0.913 1_556 S
H1602 C1620 0.951 . S
H1603 C1622 0.951 . S
H1604 C1624 0.950 . S
H1605 C1625 0.950 . S
H1606 C1627 0.950 . S
H1607 C1630 0.950 . S
H1608 C1631 0.950 . S
H1609 C1633 0.950 . S
H1610 C1634 0.950 . S
H1611 C1635 0.951 . S
H1612 C1637 0.951 . S
H1613 C1639 0.950 . S
H1614 C1640 0.950 . S
H1615 C1642 0.950 . S
H1616 C1645 0.950 . S
H1617 C1646 0.950 . S
H1618 C1648 0.950 . S
H1619 C1649 0.950 . S
C1620 H1602 0.951 . S
C1620 C1621 1.366 . S
C1620 C1622 1.388 . S
C1621 C1620 1.366 . S
C1621 C1625 1.385 . S
C1622 H1603 0.951 . S
C1622 C1620 1.388 . S
C1622 C1623 1.366 . S
C1623 C1622 1.366 . S
C1623 C1624 1.414 . S
C1623 C1626 1.499 . S
C1624 H1604 0.950 . S
C1624 C1623 1.414 . S
C1624 C1625 1.374 . S
C1625 H1605 0.950 . S
C1625 C1621 1.385 . S
C1625 C1624 1.374 . S
C1626 C1623 1.499 . S
C1626 C1627 1.373 1_545 S
C1626 C1628 1.389 . S
C1627 H1606 0.950 . S
C1627 C1626 1.373 1_565 S
C1627 C1643 1.377 . S
C1628 C1626 1.389 . S
C1628 C1629 1.524 . S
C1628 C1642 1.377 . S
C1629 C1628 1.524 . S
C1629 C1630 1.397 . S
C1629 C1634 1.363 . S
C1630 H1607 0.950 . S
C1630 C1629 1.397 . S
C1630 C1631 1.334 . S
C1631 H1608 0.950 . S
C1631 C1630 1.334 . S
C1631 C1632 1.287 . S
C1632 C1631 1.287 . S
C1632 C1633 1.524 . S
C1632 H1651 0.913 . S
C1633 H1609 0.950 . S
C1633 C1632 1.524 . S
C1633 C1634 1.415 . S
C1634 H1610 0.950 . S
C1634 C1629 1.363 . S
C1634 C1633 1.415 . S
C1635 H1611 0.951 . S
C1635 C1636 1.366 . S
C1635 C1637 1.388 . S
C1636 C1635 1.366 . S
C1636 C1640 1.385 . S
C1637 H1612 0.951 . S
C1637 C1635 1.388 . S
C1637 C1638 1.366 . S
C1638 C1637 1.366 . S
C1638 C1639 1.414 . S
C1638 C1641 1.499 . S
C1639 H1613 0.950 . S
C1639 C1638 1.414 . S
C1639 C1640 1.374 . S
C1640 H1614 0.950 . S
C1640 C1636 1.385 . S
C1640 C1639 1.374 . S
C1641 C1638 1.499 . S
C1641 C1642 1.373 1_565 S
C1641 C1643 1.389 . S
C1642 H1615 0.950 . S
C1642 C1628 1.377 . S
C1642 C1641 1.373 1_545 S
C1643 C1627 1.377 . S
C1643 C1641 1.389 . S
C1643 C1644 1.524 . S
C1644 C1643 1.524 . S
C1644 C1645 1.397 . S
C1644 C1649 1.363 . S
C1645 H1616 0.950 . S
C1645 C1644 1.397 . S
C1645 C1646 1.334 . S
C1646 H1617 0.950 . S
C1646 C1645 1.334 . S
C1646 C1647 1.287 . S
C1647 C1646 1.287 . S
C1647 C1648 1.524 . S
C1647 H1650 0.999 . S
C1648 H1618 0.950 . S
C1648 C1647 1.524 . S
C1648 C1649 1.415 . S
C1649 H1619 0.950 . S
C1649 C1644 1.363 . S
C1649 C1648 1.415 . S
H1650 C1647 0.999 . S
H1651 C1632 0.913 . S
H1652 C1670 0.951 1_554 S
H1653 C1672 0.951 . S
H1654 C1674 0.950 . S
H1655 C1675 0.950 . S
H1656 C1677 0.950 . S
H1657 C1680 0.950 . S
H1658 C1681 0.950 . S
H1659 C1683 0.950 . S
H1660 C1684 0.950 . S
H1661 C1685 0.951 . S
H1662 C1687 0.951 . S
H1663 C1689 0.950 . S
H1664 C1690 0.950 . S
H1665 C1692 0.950 . S
H1666 C1695 0.950 . S
H1667 C1696 0.950 . S
H1668 C1698 0.950 . S
H1669 C1699 0.950 . S
C1670 H1652 0.951 1_556 S
C1670 C1671 1.366 . S
C1670 C1672 1.388 . S
C1671 C1670 1.366 . S
C1671 C1675 1.385 . S
C1672 H1653 0.951 . S
C1672 C1670 1.388 . S
C1672 C1673 1.366 . S
C1673 C1672 1.366 . S
C1673 C1674 1.414 . S
C1673 C1676 1.499 . S
C1674 H1654 0.950 . S
C1674 C1673 1.414 . S
C1674 C1675 1.374 . S
C1675 H1655 0.950 . S
C1675 C1671 1.385 . S
C1675 C1674 1.374 . S
C1676 C1673 1.499 . S
C1676 C1677 1.373 . S
C1676 C1678 1.389 . S
C1677 H1656 0.950 . S
C1677 C1676 1.373 . S
C1677 C1693 1.377 . S
C1678 C1676 1.389 . S
C1678 C1679 1.524 . S
C1678 C1692 1.377 . S
C1679 C1678 1.524 . S
C1679 C1680 1.397 . S
C1679 C1684 1.363 . S
C1680 H1657 0.950 . S
C1680 C1679 1.397 . S
C1680 C1681 1.334 . S
C1681 H1658 0.950 . S
C1681 C1680 1.334 . S
C1681 C1682 1.287 . S
C1682 C1681 1.287 . S
C1682 C1683 1.524 . S
C1682 H1701 0.913 . S
C1683 H1659 0.950 . S
C1683 C1682 1.524 . S
C1683 C1684 1.415 . S
C1684 H1660 0.950 . S
C1684 C1679 1.363 . S
C1684 C1683 1.415 . S
C1685 H1661 0.951 . S
C1685 C1686 1.366 . S
C1685 C1687 1.388 . S
C1686 C1685 1.366 . S
C1686 C1690 1.385 . S
C1687 H1662 0.951 . S
C1687 C1685 1.388 . S
C1687 C1688 1.366 . S
C1688 C1687 1.366 . S
C1688 C1689 1.414 . S
C1688 C1691 1.499 . S
C1689 H1663 0.950 . S
C1689 C1688 1.414 . S
C1689 C1690 1.374 . S
C1690 H1664 0.950 . S
C1690 C1686 1.385 . S
C1690 C1689 1.374 . S
C1691 C1688 1.499 . S
C1691 C1692 1.373 . S
C1691 C1693 1.389 . S
C1692 H1665 0.950 . S
C1692 C1678 1.377 . S
C1692 C1691 1.373 . S
C1693 C1677 1.377 . S
C1693 C1691 1.389 . S
C1693 C1694 1.524 . S
C1694 C1693 1.524 . S
C1694 C1695 1.397 . S
C1694 C1699 1.363 . S
C1695 H1666 0.950 . S
C1695 C1694 1.397 . S
C1695 C1696 1.334 . S
C1696 H1667 0.950 . S
C1696 C1695 1.334 . S
C1696 C1697 1.287 . S
C1697 C1696 1.287 . S
C1697 C1698 1.524 . S
C1697 H1700 0.999 . S
C1698 H1668 0.950 . S
C1698 C1697 1.524 . S
C1698 C1699 1.415 . S
C1699 H1669 0.950 . S
C1699 C1694 1.363 . S
C1699 C1698 1.415 . S
H1700 C1697 0.999 . S
H1701 C1682 0.913 . S
H1702 C1720 0.951 . S
H1703 C1722 0.951 . S
H1704 C1724 0.950 . S
H1705 C1725 0.950 1_556 S
H1706 C1727 0.950 . S
H1707 C1730 0.950 . S
H1708 C1731 0.950 . S
H1709 C1733 0.950 . S
H1710 C1734 0.950 . S
H1711 C1735 0.951 . S
H1712 C1737 0.951 . S
H1713 C1739 0.950 . S
H1714 C1740 0.950 . S
H1715 C1742 0.950 . S
H1716 C1745 0.950 . S
H1717 C1746 0.950 . S
H1718 C1748 0.950 . S
H1719 C1749 0.950 . S
C1720 H1702 0.951 . S
C1720 C1721 1.366 . S
C1720 C1722 1.388 . S
C1721 C1720 1.366 . S
C1721 C1725 1.385 . S
C1722 H1703 0.951 . S
C1722 C1720 1.388 . S
C1722 C1723 1.366 . S
C1723 C1722 1.366 . S
C1723 C1724 1.414 . S
C1723 C1726 1.499 . S
C1724 H1704 0.950 . S
C1724 C1723 1.414 . S
C1724 C1725 1.374 . S
C1725 H1705 0.950 1_554 S
C1725 C1721 1.385 . S
C1725 C1724 1.374 . S
C1726 C1723 1.499 . S
C1726 C1727 1.373 1_455 S
C1726 C1728 1.389 . S
C1727 H1706 0.950 . S
C1727 C1726 1.373 1_655 S
C1727 C1743 1.377 . S
C1728 C1726 1.389 . S
C1728 C1729 1.524 . S
C1728 C1742 1.377 . S
C1729 C1728 1.524 . S
C1729 C1730 1.397 . S
C1729 C1734 1.363 . S
C1730 H1707 0.950 . S
C1730 C1729 1.397 . S
C1730 C1731 1.334 . S
C1731 H1708 0.950 . S
C1731 C1730 1.334 . S
C1731 C1732 1.287 . S
C1732 C1731 1.287 . S
C1732 C1733 1.524 . S
C1732 H1751 0.913 . S
C1733 H1709 0.950 . S
C1733 C1732 1.524 . S
C1733 C1734 1.415 . S
C1734 H1710 0.950 . S
C1734 C1729 1.363 . S
C1734 C1733 1.415 . S
C1735 H1711 0.951 . S
C1735 C1736 1.366 . S
C1735 C1737 1.388 . S
C1736 C1735 1.366 . S
C1736 C1740 1.385 . S
C1737 H1712 0.951 . S
C1737 C1735 1.388 . S
C1737 C1738 1.366 . S
C1738 C1737 1.366 . S
C1738 C1739 1.414 . S
C1738 C1741 1.499 . S
C1739 H1713 0.950 . S
C1739 C1738 1.414 . S
C1739 C1740 1.374 . S
C1740 H1714 0.950 . S
C1740 C1736 1.385 . S
C1740 C1739 1.374 . S
C1741 C1738 1.499 . S
C1741 C1742 1.373 1_655 S
C1741 C1743 1.389 . S
C1742 H1715 0.950 . S
C1742 C1728 1.377 . S
C1742 C1741 1.373 1_455 S
C1743 C1727 1.377 . S
C1743 C1741 1.389 . S
C1743 C1744 1.524 . S
C1744 C1743 1.524 . S
C1744 C1745 1.397 . S
C1744 C1749 1.363 . S
C1745 H1716 0.950 . S
C1745 C1744 1.397 . S
C1745 C1746 1.334 . S
C1746 H1717 0.950 . S
C1746 C1745 1.334 . S
C1746 C1747 1.287 . S
C1747 C1746 1.287 . S
C1747 C1748 1.524 . S
C1747 H1750 0.999 . S
C1748 H1718 0.950 . S
C1748 C1747 1.524 . S
C1748 C1749 1.415 . S
C1749 H1719 0.950 . S
C1749 C1744 1.363 . S
C1749 C1748 1.415 . S
H1750 C1747 0.999 . S
H1751 C1732 0.913 . S
H1752 C1770 0.951 . S
H1753 C1772 0.951 . S
H1754 C1774 0.950 . S
H1755 C1775 0.950 . S
H1756 C1777 0.950 . S
H1757 C1780 0.950 . S
H1758 C1781 0.950 . S
H1759 C1783 0.950 . S
H1760 C1784 0.950 . S
H1761 C1785 0.951 . S
H1762 C1787 0.951 . S
H1763 C1789 0.950 . S
H1764 C1790 0.950 . S
H1765 C1792 0.950 . S
H1766 C1795 0.950 . S
H1767 C1796 0.950 . S
H1768 C1798 0.950 . S
H1769 C1799 0.950 . S
C1770 H1752 0.951 . S
C1770 C1771 1.366 . S
C1770 C1772 1.388 . S
C1771 C1770 1.366 . S
C1771 C1775 1.385 . S
C1772 H1753 0.951 . S
C1772 C1770 1.388 . S
C1772 C1773 1.366 . S
C1773 C1772 1.366 . S
C1773 C1774 1.414 . S
C1773 C1776 1.499 . S
C1774 H1754 0.950 . S
C1774 C1773 1.414 . S
C1774 C1775 1.374 . S
C1775 H1755 0.950 . S
C1775 C1771 1.385 . S
C1775 C1774 1.374 . S
C1776 C1773 1.499 . S
C1776 C1777 1.373 . S
C1776 C1778 1.389 . S
C1777 H1756 0.950 . S
C1777 C1776 1.373 . S
C1777 C1793 1.377 . S
C1778 C1776 1.389 . S
C1778 C1779 1.524 . S
C1778 C1792 1.377 . S
C1779 C1778 1.524 . S
C1779 C1780 1.397 . S
C1779 C1784 1.363 . S
C1780 H1757 0.950 . S
C1780 C1779 1.397 . S
C1780 C1781 1.334 . S
C1781 H1758 0.950 . S
C1781 C1780 1.334 . S
C1781 C1782 1.287 . S
C1782 C1781 1.287 . S
C1782 C1783 1.524 . S
C1782 H1801 0.913 . S
C1783 H1759 0.950 . S
C1783 C1782 1.524 . S
C1783 C1784 1.415 . S
C1784 H1760 0.950 . S
C1784 C1779 1.363 . S
C1784 C1783 1.415 . S
C1785 H1761 0.951 . S
C1785 C1786 1.366 . S
C1785 C1787 1.388 . S
C1786 C1785 1.366 . S
C1786 C1790 1.385 . S
C1787 H1762 0.951 . S
C1787 C1785 1.388 . S
C1787 C1788 1.366 . S
C1788 C1787 1.366 . S
C1788 C1789 1.414 . S
C1788 C1791 1.499 . S
C1789 H1763 0.950 . S
C1789 C1788 1.414 . S
C1789 C1790 1.374 . S
C1790 H1764 0.950 . S
C1790 C1786 1.385 . S
C1790 C1789 1.374 . S
C1791 C1788 1.499 . S
C1791 C1792 1.373 . S
C1791 C1793 1.389 . S
C1792 H1765 0.950 . S
C1792 C1778 1.377 . S
C1792 C1791 1.373 . S
C1793 C1777 1.377 . S
C1793 C1791 1.389 . S
C1793 C1794 1.524 . S
C1794 C1793 1.524 . S
C1794 C1795 1.397 . S
C1794 C1799 1.363 . S
C1795 H1766 0.950 . S
C1795 C1794 1.397 . S
C1795 C1796 1.334 . S
C1796 H1767 0.950 . S
C1796 C1795 1.334 . S
C1796 C1797 1.287 . S
C1797 C1796 1.287 . S
C1797 C1798 1.524 . S
C1797 H1800 0.999 . S
C1798 H1768 0.950 . S
C1798 C1797 1.524 . S
C1798 C1799 1.415 . S
C1799 H1769 0.950 . S
C1799 C1794 1.363 . S
C1799 C1798 1.415 . S
H1800 C1797 0.999 . S
H1801 C1782 0.913 . S
H1802 C1820 0.951 . S
H1803 C1822 0.951 . S
H1804 C1824 0.950 . S
H1805 C1825 0.950 . S
H1806 C1827 0.950 . S
H1807 C1830 0.950 . S
H1808 C1831 0.950 . S
H1809 C1833 0.950 . S
H1810 C1834 0.950 . S
H1811 C1835 0.951 . S
H1812 C1837 0.951 . S
H1813 C1839 0.950 . S
H1814 C1840 0.950 . S
H1815 C1842 0.950 . S
H1816 C1845 0.950 . S
H1817 C1846 0.950 . S
H1818 C1848 0.950 . S
H1819 C1849 0.950 . S
C1820 H1802 0.951 . S
C1820 C1821 1.366 . S
C1820 C1822 1.388 . S
C1821 C1820 1.366 . S
C1821 C1825 1.385 . S
C1822 H1803 0.951 . S
C1822 C1820 1.388 . S
C1822 C1823 1.366 . S
C1823 C1822 1.366 . S
C1823 C1824 1.414 . S
C1823 C1826 1.499 . S
C1824 H1804 0.950 . S
C1824 C1823 1.414 . S
C1824 C1825 1.374 . S
C1825 H1805 0.950 . S
C1825 C1821 1.385 . S
C1825 C1824 1.374 . S
C1826 C1823 1.499 . S
C1826 C1827 1.373 . S
C1826 C1828 1.389 . S
C1827 H1806 0.950 . S
C1827 C1826 1.373 . S
C1827 C1843 1.377 . S
C1828 C1826 1.389 . S
C1828 C1829 1.524 . S
C1828 C1842 1.377 . S
C1829 C1828 1.524 . S
C1829 C1830 1.397 . S
C1829 C1834 1.363 . S
C1830 H1807 0.950 . S
C1830 C1829 1.397 . S
C1830 C1831 1.334 . S
C1831 H1808 0.950 . S
C1831 C1830 1.334 . S
C1831 C1832 1.287 . S
C1832 C1831 1.287 . S
C1832 C1833 1.524 . S
C1832 H1851 0.913 . S
C1833 H1809 0.950 . S
C1833 C1832 1.524 . S
C1833 C1834 1.415 . S
C1834 H1810 0.950 . S
C1834 C1829 1.363 . S
C1834 C1833 1.415 . S
C1835 H1811 0.951 . S
C1835 C1836 1.366 . S
C1835 C1837 1.388 . S
C1836 C1835 1.366 . S
C1836 C1840 1.385 . S
C1837 H1812 0.951 . S
C1837 C1835 1.388 . S
C1837 C1838 1.366 . S
C1838 C1837 1.366 . S
C1838 C1839 1.414 . S
C1838 C1841 1.499 . S
C1839 H1813 0.950 . S
C1839 C1838 1.414 . S
C1839 C1840 1.374 . S
C1840 H1814 0.950 . S
C1840 C1836 1.385 . S
C1840 C1839 1.374 . S
C1841 C1838 1.499 . S
C1841 C1842 1.373 . S
C1841 C1843 1.389 . S
C1842 H1815 0.950 . S
C1842 C1828 1.377 . S
C1842 C1841 1.373 . S
C1843 C1827 1.377 . S
C1843 C1841 1.389 . S
C1843 C1844 1.524 . S
C1844 C1843 1.524 . S
C1844 C1845 1.397 . S
C1844 C1849 1.363 . S
C1845 H1816 0.950 . S
C1845 C1844 1.397 . S
C1845 C1846 1.334 . S
C1846 H1817 0.950 . S
C1846 C1845 1.334 . S
C1846 C1847 1.287 . S
C1847 C1846 1.287 . S
C1847 C1848 1.524 . S
C1847 H1850 0.999 . S
C1848 H1818 0.950 . S
C1848 C1847 1.524 . S
C1848 C1849 1.415 . S
C1849 H1819 0.950 . S
C1849 C1844 1.363 . S
C1849 C1848 1.415 . S
H1850 C1847 0.999 . S
H1851 C1832 0.913 . S
H1852 C1870 0.951 1_556 S
H1853 C1872 0.951 . S
H1854 C1874 0.950 . S
H1855 C1875 0.950 . S
H1856 C1877 0.950 . S
H1857 C1880 0.950 . S
H1858 C1881 0.950 . S
H1859 C1883 0.950 . S
H1860 C1884 0.950 . S
H1861 C1885 0.951 . S
H1862 C1887 0.951 . S
H1863 C1889 0.950 . S
H1864 C1890 0.950 . S
H1865 C1892 0.950 . S
H1866 C1895 0.950 . S
H1867 C1896 0.950 . S
H1868 C1898 0.950 . S
H1869 C1899 0.950 . S
C1870 H1852 0.951 1_554 S
C1870 C1871 1.366 . S
C1870 C1872 1.388 . S
C1871 C1870 1.366 . S
C1871 C1875 1.385 . S
C1872 H1853 0.951 . S
C1872 C1870 1.388 . S
C1872 C1873 1.366 . S
C1873 C1872 1.366 . S
C1873 C1874 1.414 . S
C1873 C1876 1.499 . S
C1874 H1854 0.950 . S
C1874 C1873 1.414 . S
C1874 C1875 1.374 . S
C1875 H1855 0.950 . S
C1875 C1871 1.385 . S
C1875 C1874 1.374 . S
C1876 C1873 1.499 . S
C1876 C1877 1.373 . S
C1876 C1878 1.389 . S
C1877 H1856 0.950 . S
C1877 C1876 1.373 . S
C1877 C1893 1.377 . S
C1878 C1876 1.389 . S
C1878 C1879 1.524 . S
C1878 C1892 1.377 . S
C1879 C1878 1.524 . S
C1879 C1880 1.397 . S
C1879 C1884 1.363 . S
C1880 H1857 0.950 . S
C1880 C1879 1.397 . S
C1880 C1881 1.334 . S
C1881 H1858 0.950 . S
C1881 C1880 1.334 . S
C1881 C1882 1.287 . S
C1882 C1881 1.287 . S
C1882 C1883 1.524 . S
C1882 H1901 0.913 . S
C1883 H1859 0.950 . S
C1883 C1882 1.524 . S
C1883 C1884 1.415 . S
C1884 H1860 0.950 . S
C1884 C1879 1.363 . S
C1884 C1883 1.415 . S
C1885 H1861 0.951 . S
C1885 C1886 1.366 . S
C1885 C1887 1.388 . S
C1886 C1885 1.366 . S
C1886 C1890 1.385 . S
C1887 H1862 0.951 . S
C1887 C1885 1.388 . S
C1887 C1888 1.366 . S
C1888 C1887 1.366 . S
C1888 C1889 1.414 . S
C1888 C1891 1.499 . S
C1889 H1863 0.950 . S
C1889 C1888 1.414 . S
C1889 C1890 1.374 . S
C1890 H1864 0.950 . S
C1890 C1886 1.385 . S
C1890 C1889 1.374 . S
C1891 C1888 1.499 . S
C1891 C1892 1.373 . S
C1891 C1893 1.389 . S
C1892 H1865 0.950 . S
C1892 C1878 1.377 . S
C1892 C1891 1.373 . S
C1893 C1877 1.377 . S
C1893 C1891 1.389 . S
C1893 C1894 1.524 . S
C1894 C1893 1.524 . S
C1894 C1895 1.397 . S
C1894 C1899 1.363 . S
C1895 H1866 0.950 . S
C1895 C1894 1.397 . S
C1895 C1896 1.334 . S
C1896 H1867 0.950 . S
C1896 C1895 1.334 . S
C1896 C1897 1.287 . S
C1897 C1896 1.287 . S
C1897 C1898 1.524 . S
C1897 H1900 0.999 . S
C1898 H1868 0.950 . S
C1898 C1897 1.524 . S
C1898 C1899 1.415 . S
C1899 H1869 0.950 . S
C1899 C1894 1.363 . S
C1899 C1898 1.415 . S
H1900 C1897 0.999 . S
H1901 C1882 0.913 . S
H1902 C1920 0.951 . S
H1903 C1922 0.951 . S
H1904 C1924 0.950 . S
H1905 C1925 0.950 . S
H1906 C1927 0.950 . S
H1907 C1930 0.950 . S
H1908 C1931 0.950 . S
H1909 C1933 0.950 . S
H1910 C1934 0.950 . S
H1911 C1935 0.951 . S
H1912 C1937 0.951 . S
H1913 C1939 0.950 . S
H1914 C1940 0.950 . S
H1915 C1942 0.950 . S
H1916 C1945 0.950 . S
H1917 C1946 0.950 . S
H1918 C1948 0.950 . S
H1919 C1949 0.950 . S
C1920 H1902 0.951 . S
C1920 C1921 1.366 . S
C1920 C1922 1.388 . S
C1921 C1920 1.366 . S
C1921 C1925 1.385 . S
C1922 H1903 0.951 . S
C1922 C1920 1.388 . S
C1922 C1923 1.366 . S
C1923 C1922 1.366 . S
C1923 C1924 1.414 . S
C1923 C1926 1.499 . S
C1924 H1904 0.950 . S
C1924 C1923 1.414 . S
C1924 C1925 1.374 . S
C1925 H1905 0.950 . S
C1925 C1921 1.385 . S
C1925 C1924 1.374 . S
C1926 C1923 1.499 . S
C1926 C1927 1.373 . S
C1926 C1928 1.389 . S
C1927 H1906 0.950 . S
C1927 C1926 1.373 . S
C1927 C1943 1.377 . S
C1928 C1926 1.389 . S
C1928 C1929 1.524 . S
C1928 C1942 1.377 . S
C1929 C1928 1.524 . S
C1929 C1930 1.397 . S
C1929 C1934 1.363 . S
C1930 H1907 0.950 . S
C1930 C1929 1.397 . S
C1930 C1931 1.334 . S
C1931 H1908 0.950 . S
C1931 C1930 1.334 . S
C1931 C1932 1.287 . S
C1932 C1931 1.287 . S
C1932 C1933 1.524 . S
C1932 H1951 0.913 . S
C1933 H1909 0.950 . S
C1933 C1932 1.524 . S
C1933 C1934 1.415 . S
C1934 H1910 0.950 . S
C1934 C1929 1.363 . S
C1934 C1933 1.415 . S
C1935 H1911 0.951 . S
C1935 C1936 1.366 . S
C1935 C1937 1.388 . S
C1936 C1935 1.366 . S
C1936 C1940 1.385 . S
C1937 H1912 0.951 . S
C1937 C1935 1.388 . S
C1937 C1938 1.366 . S
C1938 C1937 1.366 . S
C1938 C1939 1.414 . S
C1938 C1941 1.499 . S
C1939 H1913 0.950 . S
C1939 C1938 1.414 . S
C1939 C1940 1.374 . S
C1940 H1914 0.950 . S
C1940 C1936 1.385 . S
C1940 C1939 1.374 . S
C1941 C1938 1.499 . S
C1941 C1942 1.373 . S
C1941 C1943 1.389 . S
C1942 H1915 0.950 . S
C1942 C1928 1.377 . S
C1942 C1941 1.373 . S
C1943 C1927 1.377 . S
C1943 C1941 1.389 . S
C1943 C1944 1.524 . S
C1944 C1943 1.524 . S
C1944 C1945 1.397 . S
C1944 C1949 1.363 . S
C1945 H1916 0.950 . S
C1945 C1944 1.397 . S
C1945 C1946 1.334 . S
C1946 H1917 0.950 . S
C1946 C1945 1.334 . S
C1946 C1947 1.287 . S
C1947 C1946 1.287 . S
C1947 C1948 1.524 . S
C1947 H1950 0.999 . S
C1948 H1918 0.950 . S
C1948 C1947 1.524 . S
C1948 C1949 1.415 . S
C1949 H1919 0.950 . S
C1949 C1944 1.363 . S
C1949 C1948 1.415 . S
H1950 C1947 0.999 . S
H1951 C1932 0.913 . S
H1952 C1970 0.951 . S
H1953 C1972 0.951 . S
H1954 C1974 0.950 . S
H1955 C1975 0.950 . S
H1956 C1977 0.950 . S
H1957 C1980 0.950 . S
H1958 C1981 0.950 . S
H1959 C1983 0.950 . S
H1960 C1984 0.950 . S
H1961 C1985 0.951 1_554 S
H1962 C1987 0.951 . S
H1963 C1989 0.950 . S
H1964 C1990 0.950 . S
H1965 C1992 0.950 . S
H1966 C1995 0.950 . S
H1967 C1996 0.950 . S
H1968 C1998 0.950 . S
H1969 C1999 0.950 . S
C1970 H1952 0.951 . S
C1970 C1971 1.366 . S
C1970 C1972 1.388 . S
C1971 C1970 1.366 . S
C1971 C1975 1.385 . S
C1972 H1953 0.951 . S
C1972 C1970 1.388 . S
C1972 C1973 1.366 . S
C1973 C1972 1.366 . S
C1973 C1974 1.414 . S
C1973 C1976 1.499 . S
C1974 H1954 0.950 . S
C1974 C1973 1.414 . S
C1974 C1975 1.374 . S
C1975 H1955 0.950 . S
C1975 C1971 1.385 . S
C1975 C1974 1.374 . S
C1976 C1973 1.499 . S
C1976 C1977 1.373 . S
C1976 C1978 1.389 . S
C1977 H1956 0.950 . S
C1977 C1976 1.373 . S
C1977 C1993 1.377 . S
C1978 C1976 1.389 . S
C1978 C1979 1.524 . S
C1978 C1992 1.377 . S
C1979 C1978 1.524 . S
C1979 C1980 1.397 . S
C1979 C1984 1.363 . S
C1980 H1957 0.950 . S
C1980 C1979 1.397 . S
C1980 C1981 1.334 . S
C1981 H1958 0.950 . S
C1981 C1980 1.334 . S
C1981 C1982 1.287 . S
C1982 C1981 1.287 . S
C1982 C1983 1.524 . S
C1982 H2001 0.913 . S
C1983 H1959 0.950 . S
C1983 C1982 1.524 . S
C1983 C1984 1.415 . S
C1984 H1960 0.950 . S
C1984 C1979 1.363 . S
C1984 C1983 1.415 . S
C1985 H1961 0.951 1_556 S
C1985 C1986 1.366 . S
C1985 C1987 1.388 . S
C1986 C1985 1.366 . S
C1986 C1990 1.385 . S
C1987 H1962 0.951 . S
C1987 C1985 1.388 . S
C1987 C1988 1.366 . S
C1988 C1987 1.366 . S
C1988 C1989 1.414 . S
C1988 C1991 1.499 . S
C1989 H1963 0.950 . S
C1989 C1988 1.414 . S
C1989 C1990 1.374 . S
C1990 H1964 0.950 . S
C1990 C1986 1.385 . S
C1990 C1989 1.374 . S
C1991 C1988 1.499 . S
C1991 C1992 1.373 . S
C1991 C1993 1.389 . S
C1992 H1965 0.950 . S
C1992 C1978 1.377 . S
C1992 C1991 1.373 . S
C1993 C1977 1.377 . S
C1993 C1991 1.389 . S
C1993 C1994 1.524 . S
C1994 C1993 1.524 . S
C1994 C1995 1.397 . S
C1994 C1999 1.363 . S
C1995 H1966 0.950 . S
C1995 C1994 1.397 . S
C1995 C1996 1.334 . S
C1996 H1967 0.950 . S
C1996 C1995 1.334 . S
C1996 C1997 1.287 . S
C1997 C1996 1.287 . S
C1997 C1998 1.524 . S
C1997 H2000 0.999 . S
C1998 H1968 0.950 . S
C1998 C1997 1.524 . S
C1998 C1999 1.415 . S
C1999 H1969 0.950 . S
C1999 C1994 1.363 . S
C1999 C1998 1.415 . S
H2000 C1997 0.999 . S
H2001 C1982 0.913 . S
H2002 C2020 0.951 . S
H2003 C2022 0.951 . S
H2004 C2024 0.950 . S
H2005 C2025 0.950 . S
H2006 C2027 0.950 . S
H2007 C2030 0.950 . S
H2008 C2031 0.950 . S
H2009 C2033 0.950 . S
H2010 C2034 0.950 . S
H2011 C2035 0.951 . S
H2012 C2037 0.951 . S
H2013 C2039 0.950 . S
H2014 C2040 0.950 . S
H2015 C2042 0.950 . S
H2016 C2045 0.950 . S
H2017 C2046 0.950 . S
H2018 C2048 0.950 . S
H2019 C2049 0.950 . S
C2020 H2002 0.951 . S
C2020 C2021 1.366 . S
C2020 C2022 1.388 . S
C2021 C2020 1.366 . S
C2021 C2025 1.385 . S
C2022 H2003 0.951 . S
C2022 C2020 1.388 . S
C2022 C2023 1.366 . S
C2023 C2022 1.366 . S
C2023 C2024 1.414 . S
C2023 C2026 1.499 . S
C2024 H2004 0.950 . S
C2024 C2023 1.414 . S
C2024 C2025 1.374 . S
C2025 H2005 0.950 . S
C2025 C2021 1.385 . S
C2025 C2024 1.374 . S
C2026 C2023 1.499 . S
C2026 C2027 1.373 . S
C2026 C2028 1.389 . S
C2027 H2006 0.950 . S
C2027 C2026 1.373 . S
C2027 C2043 1.377 . S
C2028 C2026 1.389 . S
C2028 C2029 1.524 . S
C2028 C2042 1.377 . S
C2029 C2028 1.524 . S
C2029 C2030 1.397 . S
C2029 C2034 1.363 . S
C2030 H2007 0.950 . S
C2030 C2029 1.397 . S
C2030 C2031 1.334 . S
C2031 H2008 0.950 . S
C2031 C2030 1.334 . S
C2031 C2032 1.287 . S
C2032 C2031 1.287 . S
C2032 C2033 1.524 . S
C2032 H2051 0.913 . S
C2033 H2009 0.950 . S
C2033 C2032 1.524 . S
C2033 C2034 1.415 . S
C2034 H2010 0.950 . S
C2034 C2029 1.363 . S
C2034 C2033 1.415 . S
C2035 H2011 0.951 . S
C2035 C2036 1.366 . S
C2035 C2037 1.388 . S
C2036 C2035 1.366 . S
C2036 C2040 1.385 . S
C2037 H2012 0.951 . S
C2037 C2035 1.388 . S
C2037 C2038 1.366 . S
C2038 C2037 1.366 . S
C2038 C2039 1.414 . S
C2038 C2041 1.499 . S
C2039 H2013 0.950 . S
C2039 C2038 1.414 . S
C2039 C2040 1.374 . S
C2040 H2014 0.950 . S
C2040 C2036 1.385 . S
C2040 C2039 1.374 . S
C2041 C2038 1.499 . S
C2041 C2042 1.373 . S
C2041 C2043 1.389 . S
C2042 H2015 0.950 . S
C2042 C2028 1.377 . S
C2042 C2041 1.373 . S
C2043 C2027 1.377 . S
C2043 C2041 1.389 . S
C2043 C2044 1.524 . S
C2044 C2043 1.524 . S
C2044 C2045 1.397 . S
C2044 C2049 1.363 . S
C2045 H2016 0.950 . S
C2045 C2044 1.397 . S
C2045 C2046 1.334 . S
C2046 H2017 0.950 . S
C2046 C2045 1.334 . S
C2046 C2047 1.287 . S
C2047 C2046 1.287 . S
C2047 C2048 1.524 . S
C2047 H2050 0.999 . S
C2048 H2018 0.950 . S
C2048 C2047 1.524 . S
C2048 C2049 1.415 . S
C2049 H2019 0.950 . S
C2049 C2044 1.363 . S
C2049 C2048 1.415 . S
H2050 C2047 0.999 . S
H2051 C2032 0.913 . S
C271 C15 0.848 . S
C286 C183 0.848 . S
C321 C36 0.851 . S
C336 C204 0.851 . S
C371 C57 0.850 . S
C386 C225 0.850 . S
C421 C246 0.849 . S
C436 C78 0.849 . S
C471 C99 0.849 . S
C486 C141 0.849 . S
C521 C162 0.848 . S
C536 C120 0.848 . S
C571 C227 1.487 . S
C586 C17 1.488 . S
C621 C248 1.487 . S
C636 C38 1.488 . S
C671 C59 1.488 . S
C686 C143 1.487 . S
C721 C164 1.489 . S
C736 C80 1.487 . S
C771 C185 1.488 . S
C786 C101 1.487 . S
C821 C122 1.487 . S
C836 C206 1.488 . S
C871 C163 1.187 . S
C886 C16 1.185 . S
C921 C184 1.186 . S
C936 C37 1.186 . S
C971 C205 1.187 . S
C986 C58 1.185 . S
C1021 C79 1.185 . S
C1036 C226 1.187 . S
C1071 C100 1.187 . S
C1086 C247 1.185 . S
C1121 C121 1.187 . S
C1136 C142 1.185 . S
C1171 C18 1.455 . S
C1186 C81 1.456 . S
C1221 C39 1.455 . S
C1236 C102 1.457 . S
C1271 C60 1.455 . S
C1286 C123 1.457 . S
C1321 C207 1.455 . S
C1336 C144 1.457 . S
C1371 C165 1.455 . S
C1386 C228 1.457 . S
C1421 C249 1.455 . S
C1436 C186 1.457 . S
C1471 C160 1.097 . S
C1486 C13 1.096 . S
C1521 C181 1.097 . S
C1536 C34 1.096 . S
C1571 C55 1.096 . S
C1586 C202 1.096 . S
C1621 C223 1.097 . S
C1636 C76 1.097 . S
C1671 C244 1.096 . S
C1686 C97 1.097 . S
C1721 C118 1.097 . S
C1736 C139 1.096 . S
C1771 C14 1.360 . S
C1786 C224 1.360 . S
C1821 C35 1.360 . S
C1836 C245 1.360 1_556 S
C1871 C56 1.360 1_554 S
C1886 C140 1.360 . S
C1921 C77 1.360 . S
C1936 C161 1.360 . S
C1971 C98 1.359 . S
C1986 C182 1.359 1_556 S
C2021 C203 1.359 . S
C2036 C119 1.359 1_554 S
