# Generated by pormake.
# Topology bcs, (6)-cn, num edge types: 1
# Building blocks:
#     Node 0, Type 0, BuildingBlock: BETDAH_clean_sbu_0, # of connection points: 6
#     Node 1, Type 0, BuildingBlock: BETDAH_clean_sbu_0, # of connection points: 6
#     Node 2, Type 0, BuildingBlock: BETDAH_clean_sbu_0, # of connection points: 6
#     Node 3, Type 0, BuildingBlock: BETDAH_clean_sbu_0, # of connection points: 6
#     Node 4, Type 0, BuildingBlock: BETDAH_clean_sbu_0, # of connection points: 6
#     Node 5, Type 0, BuildingBlock: BETDAH_clean_sbu_0, # of connection points: 6
#     Node 6, Type 0, BuildingBlock: BETDAH_clean_sbu_0, # of connection points: 6
#     Node 7, Type 0, BuildingBlock: BETDAH_clean_sbu_0, # of connection points: 6
#     Node 8, Type 0, BuildingBlock: BETDAH_clean_sbu_0, # of connection points: 6
#     Node 9, Type 0, BuildingBlock: BETDAH_clean_sbu_0, # of connection points: 6
#     Node 10, Type 0, BuildingBlock: BETDAH_clean_sbu_0, # of connection points: 6
#     Node 11, Type 0, BuildingBlock: BETDAH_clean_sbu_0, # of connection points: 6
#     Node 12, Type 0, BuildingBlock: BETDAH_clean_sbu_0, # of connection points: 6
#     Node 13, Type 0, BuildingBlock: BETDAH_clean_sbu_0, # of connection points: 6
#     Node 14, Type 0, BuildingBlock: BETDAH_clean_sbu_0, # of connection points: 6
#     Node 15, Type 0, BuildingBlock: BETDAH_clean_sbu_0, # of connection points: 6
#     Edge 16, Type (0, 0), BuildingBlock: AJUNOK_clean_linker_0, # of connection points: 2
#     Edge 17, Type (0, 0), BuildingBlock: AJUNOK_clean_linker_0, # of connection points: 2
#     Edge 18, Type (0, 0), BuildingBlock: AJUNOK_clean_linker_0, # of connection points: 2
#     Edge 19, Type (0, 0), BuildingBlock: AJUNOK_clean_linker_0, # of connection points: 2
#     Edge 20, Type (0, 0), BuildingBlock: AJUNOK_clean_linker_0, # of connection points: 2
#     Edge 21, Type (0, 0), BuildingBlock: AJUNOK_clean_linker_0, # of connection points: 2
#     Edge 22, Type (0, 0), BuildingBlock: AJUNOK_clean_linker_0, # of connection points: 2
#     Edge 23, Type (0, 0), BuildingBlock: AJUNOK_clean_linker_0, # of connection points: 2
#     Edge 24, Type (0, 0), BuildingBlock: AJUNOK_clean_linker_0, # of connection points: 2
#     Edge 25, Type (0, 0), BuildingBlock: AJUNOK_clean_linker_0, # of connection points: 2
#     Edge 26, Type (0, 0), BuildingBlock: AJUNOK_clean_linker_0, # of connection points: 2
#     Edge 27, Type (0, 0), BuildingBlock: AJUNOK_clean_linker_0, # of connection points: 2
#     Edge 28, Type (0, 0), BuildingBlock: AJUNOK_clean_linker_0, # of connection points: 2
#     Edge 29, Type (0, 0), BuildingBlock: AJUNOK_clean_linker_0, # of connection points: 2
#     Edge 30, Type (0, 0), BuildingBlock: AJUNOK_clean_linker_0, # of connection points: 2
#     Edge 31, Type (0, 0), BuildingBlock: AJUNOK_clean_linker_0, # of connection points: 2
#     Edge 32, Type (0, 0), BuildingBlock: AJUNOK_clean_linker_0, # of connection points: 2
#     Edge 33, Type (0, 0), BuildingBlock: AJUNOK_clean_linker_0, # of connection points: 2
#     Edge 34, Type (0, 0), BuildingBlock: AJUNOK_clean_linker_0, # of connection points: 2
#     Edge 35, Type (0, 0), BuildingBlock: AJUNOK_clean_linker_0, # of connection points: 2
#     Edge 36, Type (0, 0), BuildingBlock: AJUNOK_clean_linker_0, # of connection points: 2
#     Edge 37, Type (0, 0), BuildingBlock: AJUNOK_clean_linker_0, # of connection points: 2
#     Edge 38, Type (0, 0), BuildingBlock: AJUNOK_clean_linker_0, # of connection points: 2
#     Edge 39, Type (0, 0), BuildingBlock: AJUNOK_clean_linker_0, # of connection points: 2
#     Edge 40, Type (0, 0), BuildingBlock: AJUNOK_clean_linker_0, # of connection points: 2
#     Edge 41, Type (0, 0), BuildingBlock: AJUNOK_clean_linker_0, # of connection points: 2
#     Edge 42, Type (0, 0), BuildingBlock: AJUNOK_clean_linker_0, # of connection points: 2
#     Edge 43, Type (0, 0), BuildingBlock: AJUNOK_clean_linker_0, # of connection points: 2
#     Edge 44, Type (0, 0), BuildingBlock: AJUNOK_clean_linker_0, # of connection points: 2
#     Edge 45, Type (0, 0), BuildingBlock: AJUNOK_clean_linker_0, # of connection points: 2
#     Edge 46, Type (0, 0), BuildingBlock: AJUNOK_clean_linker_0, # of connection points: 2
#     Edge 47, Type (0, 0), BuildingBlock: AJUNOK_clean_linker_0, # of connection points: 2
#     Edge 48, Type (0, 0), BuildingBlock: AJUNOK_clean_linker_0, # of connection points: 2
#     Edge 49, Type (0, 0), BuildingBlock: AJUNOK_clean_linker_0, # of connection points: 2
#     Edge 50, Type (0, 0), BuildingBlock: AJUNOK_clean_linker_0, # of connection points: 2
#     Edge 51, Type (0, 0), BuildingBlock: AJUNOK_clean_linker_0, # of connection points: 2
#     Edge 52, Type (0, 0), BuildingBlock: AJUNOK_clean_linker_0, # of connection points: 2
#     Edge 53, Type (0, 0), BuildingBlock: AJUNOK_clean_linker_0, # of connection points: 2
#     Edge 54, Type (0, 0), BuildingBlock: AJUNOK_clean_linker_0, # of connection points: 2
#     Edge 55, Type (0, 0), BuildingBlock: AJUNOK_clean_linker_0, # of connection points: 2
#     Edge 56, Type (0, 0), BuildingBlock: AJUNOK_clean_linker_0, # of connection points: 2
#     Edge 57, Type (0, 0), BuildingBlock: AJUNOK_clean_linker_0, # of connection points: 2
#     Edge 58, Type (0, 0), BuildingBlock: AJUNOK_clean_linker_0, # of connection points: 2
#     Edge 59, Type (0, 0), BuildingBlock: AJUNOK_clean_linker_0, # of connection points: 2
#     Edge 60, Type (0, 0), BuildingBlock: AJUNOK_clean_linker_0, # of connection points: 2
#     Edge 61, Type (0, 0), BuildingBlock: AJUNOK_clean_linker_0, # of connection points: 2
#     Edge 62, Type (0, 0), BuildingBlock: AJUNOK_clean_linker_0, # of connection points: 2
#     Edge 63, Type (0, 0), BuildingBlock: AJUNOK_clean_linker_0, # of connection points: 2
# Relax obj value: 0.309
# Max RMSD: 0.276
# Mean RMSD: 0.212
data_MOF--net-bcs--node1-BETDAH_clean_sbu_0--edge1-AJUNOK_clean_linker_0
_symmetry_space_group_name_H-M    P1
_symmetry_Int_Tables_number       1
_symmetry_cell_setting            triclinic
loop_
_symmetry_equiv_pos_as_xyz
'x, y, z'
_cell_length_a     33.722045
_cell_length_b     33.35732
_cell_length_c     31.562326
_cell_angle_alpha  73.922144
_cell_angle_beta   112.15176
_cell_angle_gamma 126.61704
loop_
_atom_site_label
_atom_site_type_symbol
_atom_site_fract_x
_atom_site_fract_y
_atom_site_fract_z
_atom_type_partial_charge
Ho0 Ho 1.0463 0.95891 0.98486 0.0
Ho1 Ho 0.08544 0.05029 0.03845 0.0
C2 C 0.16048 0.01765 0.05475 0.0
C3 C 1.0314 0.90016 0.93329 0.0
C4 C 1.06015 0.89343 0.91351 0.0
C5 C 0.11389 0.92063 0.92806 0.0
C6 C 0.14065 0.91083 0.91213 0.0
C7 C 0.11421 0.87231 0.88256 0.0
C8 C 1.06007 0.84466 0.86856 0.0
C9 C 1.03342 0.85553 0.8835 0.0
C10 C 1.00524 0.92233 0.06007 0.0
C11 C 0.97076 0.99029 0.96905 0.0
C12 C 0.09854 0.10649 0.09149 0.0
C13 C 0.06836 0.11009 0.11225 0.0
C14 C 1.01592 0.07322 0.10717 0.0
C15 C 0.98665 0.08013 0.12264 0.0
C16 C 1.00891 0.12479 0.14211 0.0
C17 C 1.06186 0.16102 0.14813 0.0
C18 C 0.09125 0.15364 0.13345 0.0
C19 C 0.12665 0.08767 0.9635 0.0
O20 O 0.12983 0.99161 1.01808 0.0
O21 O 0.14767 0.0367 0.0747 0.0
O22 O 1.04182 0.89388 0.97805 0.0
O23 O 1.02633 0.93807 0.91672 0.0
O24 O 0.99826 0.89613 0.03139 0.0
O25 O 1.03583 0.96763 0.04701 0.0
O26 O 1.00175 0.01689 1.00537 0.0
O27 O 0.98361 0.97173 0.94864 0.0
O28 O 0.08768 0.11358 0.04674 0.0
O29 O 0.10569 0.06982 0.10709 0.0
O30 O 0.1332 0.11366 0.99215 0.0
O31 O 0.09623 0.042 0.97616 0.0
H32 H 0.13513 0.94915 0.9521 0.0
H33 H 0.1822 0.9332 0.92342 0.0
H34 H 1.03802 0.81347 0.84735 0.0
H35 H 0.99177 0.83313 0.87286 0.0
H36 H 0.9974 0.03982 0.09013 0.0
H37 H 0.94641 0.05084 0.11877 0.0
H38 H 0.08029 0.19594 0.16273 0.0
H39 H 0.1316 0.18281 0.13723 0.0
Ho40 Ho 0.36482 0.74539 0.30052 0.0
Ho41 Ho 0.2798 0.76103 0.24341 0.0
C42 C 0.25578 0.68512 0.32809 0.0
C43 C 0.42912 0.73783 0.3729 0.0
C44 C 0.41855 0.70886 0.41633 0.0
C45 C 0.38535 0.70745 0.43456 0.0
C46 C 0.36057 0.66754 0.46495 0.0
C47 C 0.3697 0.62945 0.47803 0.0
C48 C 0.407 0.63407 0.46341 0.0
C49 C 0.43154 0.67364 0.43322 0.0
C50 C 0.29548 0.68343 0.23289 0.0
C51 C 0.38354 0.81378 0.20886 0.0
C52 C 0.2196 0.77999 0.17721 0.0
C53 C 0.23572 0.82983 0.15465 0.0
C54 C 0.20697 0.83642 0.11132 0.0
C55 C 0.22007 0.88464 0.09315 0.0
C56 C 0.26163 0.92633 0.11854 0.0
C57 C 0.29297 0.91977 0.16004 0.0
C58 C 0.28033 0.87171 0.17781 0.0
C59 C 0.35042 0.82355 0.31109 0.0
O60 O 0.30645 0.70715 0.3426 0.0
O61 O 0.23351 0.69313 0.28521 0.0
O62 O 0.40659 0.71056 0.33799 0.0
O63 O 0.42549 0.77649 0.36265 0.0
O64 O 0.34421 0.70123 0.24393 0.0
O65 O 0.28653 0.69741 0.25906 0.0
O66 O 0.33519 0.79964 0.19923 0.0
O67 O 0.40686 0.80114 0.24906 0.0
O68 O 0.2206 0.77586 0.22006 0.0
O69 O 0.24064 0.76018 0.17108 0.0
O70 O 0.30189 0.80552 0.30039 0.0
O71 O 0.35847 0.80934 0.28429 0.0
H72 H 0.37508 0.73465 0.42241 0.0
H73 H 0.33156 0.66439 0.47527 0.0
H74 H 0.41377 0.60449 0.47196 0.0
H75 H 0.45669 0.67381 0.41953 0.0
H76 H 0.17306 0.80443 0.0928 0.0
H77 H 0.1948 0.88892 0.06134 0.0
H78 H 0.32471 0.95136 0.18021 0.0
H79 H 0.30378 0.86708 0.21092 0.0
Ho80 Ho 0.53647 0.97559 0.54504 0.0
Ho81 Ho 0.6006 0.03178 0.49811 0.0
C82 C 0.51057 0.06464 0.46286 0.0
C83 C 0.48247 0.94716 0.5995 0.0
C84 C 0.48498 0.98027 0.62418 0.0
C85 C 0.51707 0.99099 0.66911 0.0
C86 C 0.52397 0.02605 0.6914 0.0
C87 C 0.49728 0.04935 0.67009 0.0
C88 C 0.46666 0.04025 0.62462 0.0
C89 C 0.46053 0.00591 0.60174 0.0
C90 C 0.50521 0.92362 0.47415 0.0
C91 C 0.62597 0.94164 0.58019 0.0
C92 C 0.6583 0.06477 0.44584 0.0
C93 C 0.6643 0.03336 0.42767 0.0
C94 C 0.62546 0.0046 0.39058 0.0
C95 C 0.62262 0.96473 0.38098 0.0
C96 C 0.66012 0.95441 0.40663 0.0
C97 C 0.70067 0.98501 0.44209 0.0
C98 C 0.70251 0.02389 0.45275 0.0
C99 C 0.62815 0.08383 0.56721 0.0
O100 O 0.49997 0.02903 0.49986 0.0
O101 O 0.55165 0.07174 0.45474 0.0
O102 O 0.4641 0.94916 0.55507 0.0
O103 O 0.52399 0.94733 0.61207 0.0
O104 O 0.50517 0.90489 0.5158 0.0
O105 O 0.52179 0.96905 0.47215 0.0
O106 O 0.63675 0.97756 0.54325 0.0
O107 O 0.58492 0.93483 0.58815 0.0
O108 O 0.67643 0.06813 0.49011 0.0
O109 O 0.61251 0.05637 0.4308 0.0
O110 O 0.62609 0.10138 0.52513 0.0
O111 O 0.6147 0.03923 0.57033 0.0
H112 H 0.53731 0.97266 0.68695 0.0
H113 H 0.54901 0.03403 0.7258 0.0
H114 H 0.44545 0.05772 0.6076 0.0
H115 H 0.43613 0.999 0.56686 0.0
H116 H 0.59551 0.01111 0.37034 0.0
H117 H 0.59093 0.94199 0.35338 0.0
H118 H 0.73195 0.9801 0.46085 0.0
H119 H 0.73319 0.0458 0.48126 0.0
Ho120 Ho 0.34834 0.23103 0.79382 0.0
Ho121 Ho 0.31013 0.2902 0.75553 0.0
C122 C 0.39567 0.31841 0.71284 0.0
C123 C 0.3864 0.1777 0.81705 0.0
C124 C 0.41328 0.16964 0.797 0.0
C125 C 0.40066 0.16909 0.74935 0.0
C126 C 0.42422 0.15778 0.73104 0.0
C127 C 0.46097 0.14754 0.7602 0.0
C128 C 0.47619 0.15183 0.80755 0.0
C129 C 0.45204 0.16238 0.82592 0.0
C130 C 0.39056 0.30427 0.84916 0.0
C131 C 0.2581 0.19928 0.83213 0.0
C132 C 0.2723 0.3431 0.73629 0.0
C133 C 0.2436 0.34643 0.75855 0.0
C134 C 0.25864 0.34809 0.80631 0.0
C135 C 0.23345 0.3554 0.82654 0.0
C136 C 0.19304 0.36114 0.79925 0.0
C137 C 0.17458 0.35394 0.7522 0.0
C138 C 0.20022 0.34727 0.73184 0.0
C139 C 0.26734 0.21593 0.70141 0.0
O140 O 0.38515 0.27345 0.73282 0.0
O141 O 0.37493 0.33746 0.72154 0.0
O142 O 0.41165 0.22246 0.83041 0.0
O143 O 0.33826 0.16057 0.79526 0.0
O144 O 0.37088 0.25743 0.86225 0.0
O145 O 0.38459 0.31009 0.80638 0.0
O146 O 0.26981 0.24494 0.81384 0.0
O147 O 0.28063 0.18154 0.82447 0.0
O148 O 0.24811 0.30068 0.71867 0.0
O149 O 0.32028 0.35968 0.75847 0.0
O150 O 0.28507 0.26227 0.68697 0.0
O151 O 0.27401 0.21119 0.74413 0.0
H152 H 0.37149 0.17575 0.72647 0.0
H153 H 0.41188 0.15462 0.6944 0.0
H154 H 0.50529 0.1451 0.83046 0.0
H155 H 0.46275 0.16374 0.86272 0.0
H156 H 0.29107 0.34576 0.8278 0.0
H157 H 0.24794 0.35998 0.86301 0.0
H158 H 0.14234 0.35656 0.73077 0.0
H159 H 0.18722 0.34439 0.6951 0.0
Ho160 Ho 0.10586 0.98515 0.54815 0.0
Ho161 Ho 1.02874 0.01159 0.49846 0.0
C162 C 1.01029 0.94199 0.58948 0.0
C163 C 0.17102 0.96572 0.60679 0.0
C164 C 0.21052 0.95904 0.60842 0.0
C165 C 0.23708 0.94869 0.65121 0.0
C166 C 0.2729 0.93909 0.65437 0.0
C167 C 0.2831 0.93997 0.61469 0.0
C168 C 0.25669 0.95083 0.57157 0.0
C169 C 0.22041 0.96037 0.56844 0.0
C170 C 1.03545 0.93265 0.47447 0.0
C171 C 0.12794 0.05917 0.45973 0.0
C172 C 0.96136 0.02726 0.43784 0.0
C173 C 0.91701 0.02864 0.43182 0.0
C174 C 0.89129 0.03668 0.38728 0.0
C175 C 0.85424 0.04623 0.38004 0.0
C176 C 0.84196 0.04766 0.41732 0.0
C177 C 0.8653 0.03599 0.46197 0.0
C178 C 0.90301 0.02687 0.46923 0.0
C179 C 0.10277 0.06716 0.57024 0.0
O180 O 1.05879 0.95708 0.59836 0.0
O181 O 0.98649 0.95385 0.54922 0.0
O182 O 0.12388 0.93122 0.58712 0.0
O183 O 0.18098 0.01104 0.59595 0.0
O184 O 0.08333 0.94783 0.48607 0.0
O185 O 1.02671 0.94352 0.5037 0.0
O186 O 0.07953 0.04511 0.45004 0.0
O187 O 0.14973 0.04434 0.49936 0.0
O188 O 0.9552 0.98349 0.44712 0.0
O189 O 1.00563 0.06237 0.46118 0.0
O190 O 1.05508 0.05257 0.56009 0.0
O191 O 0.10849 0.0535 0.5409 0.0
H192 H 0.2294 0.94709 0.68225 0.0
H193 H 0.29189 0.92983 0.68801 0.0
H194 H 0.26399 0.95182 0.54058 0.0
H195 H 0.19973 0.96817 0.53506 0.0
H196 H 0.90164 0.03802 0.35806 0.0
H197 H 0.83742 0.0554 0.34522 0.0
H198 H 0.85572 0.03559 0.49126 0.0
H199 H 0.92248 0.02031 0.50391 0.0
Ho200 Ho 0.36503 0.7695 0.77574 0.0
Ho201 Ho 0.43574 0.78224 0.72662 0.0
C202 C 0.38946 0.84816 0.6863 0.0
C203 C 0.33001 0.78624 0.82472 0.0
C204 C 0.29633 0.80173 0.823 0.0
C205 C 0.31869 0.84766 0.83998 0.0
C206 C 0.28808 0.86015 0.84541 0.0
C207 C 0.23434 0.82702 0.83396 0.0
C208 C 0.21173 0.78184 0.81538 0.0
C209 C 0.24242 0.76923 0.81005 0.0
C210 C 0.31064 0.70304 0.71082 0.0
C211 C 0.38964 0.69052 0.79875 0.0
C212 C 0.48514 0.77026 0.68778 0.0
C213 C 0.4922 0.7368 0.67039 0.0
C214 C 0.45605 0.70635 0.63314 0.0
C215 C 0.46635 0.68005 0.6146 0.0
C216 C 0.51324 0.68262 0.63232 0.0
C217 C 0.54958 0.71406 0.66904 0.0
C218 C 0.53925 0.74019 0.68754 0.0
C219 C 0.48042 0.84278 0.79922 0.0
O220 O 0.37302 0.83249 0.7232 0.0
O221 O 0.41183 0.83142 0.67661 0.0
O222 O 0.30864 0.74212 0.8114 0.0
O223 O 0.37246 0.82034 0.81285 0.0
O224 O 0.2986 0.69719 0.74751 0.0
O225 O 0.34984 0.74767 0.70705 0.0
O226 O 0.40013 0.7047 0.759 0.0
O227 O 0.39032 0.72011 0.81956 0.0
O228 O 0.49739 0.77372 0.73182 0.0
O229 O 0.44673 0.77537 0.66545 0.0
O230 O 0.4943 0.85774 0.76145 0.0
O231 O 0.44565 0.79689 0.7963 0.0
H232 H 0.36011 0.87323 0.85071 0.0
H233 H 0.30653 0.8953 0.85963 0.0
H234 H 0.17046 0.75527 0.80686 0.0
H235 H 0.22394 0.73329 0.79735 0.0
H236 H 0.4198 0.70332 0.61766 0.0
H237 H 0.43715 0.65764 0.58606 0.0
H238 H 0.58728 0.72022 0.68293 0.0
H239 H 0.56916 0.76445 0.71487 0.0
Ho240 Ho 0.59893 0.99067 0.0427 0.0
Ho241 Ho 0.53746 0.026 0.99431 0.0
C242 C 0.63655 0.0811 0.96426 0.0
C243 C 0.65874 0.95902 0.06709 0.0
C244 C 0.67634 0.94512 0.04085 0.0
C245 C 0.64527 0.92507 0.99794 0.0
C246 C 0.66188 0.91099 0.97372 0.0
C247 C 0.71043 0.91775 0.9914 0.0
C248 C 0.74117 0.93782 0.03449 0.0
C249 C 0.72437 0.95149 0.05887 0.0
C250 C 0.60722 0.04841 0.09825 0.0
C251 C 0.49876 0.93544 0.07158 0.0
C252 C 0.47751 0.05768 0.96895 0.0
C253 C 0.45815 0.0702 0.99458 0.0
C254 C 0.48671 0.08729 0.03881 0.0
C255 C 0.46802 0.09917 0.06286 0.0
C256 C 0.41971 0.09294 0.04372 0.0
C257 C 0.39194 0.07668 0.99897 0.0
C258 C 0.41085 0.06527 0.97477 0.0
C259 C 0.52986 0.96733 0.9401 0.0
O260 O 0.63575 0.04062 0.98527 0.0
O261 O 0.60499 0.08932 0.96892 0.0
O262 O 0.67583 0.00635 0.06371 0.0
O263 O 0.60981 0.92982 0.06434 0.0
O264 O 0.60695 0.00803 0.11106 0.0
O265 O 0.60564 0.05855 0.05565 0.0
O266 O 0.49993 0.97617 0.05117 0.0
O267 O 0.53052 0.92733 0.06705 0.0
O268 O 0.46049 0.01047 0.97124 0.0
O269 O 0.52684 0.08704 0.97355 0.0
O270 O 0.53038 0.00783 0.92644 0.0
O271 O 0.53053 0.95765 0.98233 0.0
H272 H 0.60788 0.91978 0.98335 0.0
H273 H 0.63617 0.89399 0.94158 0.0
H274 H 0.77836 0.9431 0.04958 0.0
H275 H 0.74889 0.96691 0.09189 0.0
H276 H 0.52366 0.09177 0.05468 0.0
H277 H 0.49194 0.11391 0.09616 0.0
H278 H 0.3554 0.07253 0.98246 0.0
H279 H 0.38845 0.05252 0.94054 0.0
Ho280 Ho 0.30238 0.23342 0.26144 0.0
Ho281 Ho 0.33393 0.26616 0.2815 0.0
C282 C 0.37321 0.17991 0.34398 0.0
C283 C 0.26031 0.16379 0.2068 0.0
C284 C 0.28286 0.15367 0.18216 0.0
C285 C 0.30712 0.18823 0.14852 0.0
C286 C 0.33141 0.17939 0.12815 0.0
C287 C 0.33214 0.13582 0.14093 0.0
C288 C 0.30803 0.10164 0.17487 0.0
C289 C 0.28342 0.11025 0.19488 0.0
C290 C 0.24576 0.18794 0.32399 0.0
C291 C 0.26481 0.32234 0.20058 0.0
C292 C 0.37559 0.33438 0.33692 0.0
C293 C 0.35057 0.33838 0.36351 0.0
C294 C 0.32863 0.30038 0.39664 0.0
C295 C 0.2963 0.29938 0.41498 0.0
C296 C 0.28585 0.33675 0.40098 0.0
C297 C 0.30829 0.37486 0.36815 0.0
C298 C 0.34085 0.37608 0.35013 0.0
C299 C 0.39201 0.31247 0.22073 0.0
O300 O 0.37232 0.21611 0.30843 0.0
O301 O 0.37378 0.21611 0.30857 0.0
O302 O 0.27456 0.15804 0.25098 0.0
O303 O 0.25982 0.20393 0.19387 0.0
O304 O 0.22759 0.19687 0.28102 0.0
O305 O 0.29256 0.20689 0.33115 0.0
O306 O 0.26399 0.28372 0.23383 0.0
O307 O 0.26211 0.28351 0.23372 0.0
O308 O 0.35873 0.33998 0.29297 0.0
O309 O 0.38049 0.29683 0.34821 0.0
O310 O 0.40983 0.30447 0.26392 0.0
O311 O 0.34485 0.29253 0.21237 0.0
H312 H 0.30792 0.2224 0.13825 0.0
H313 H 0.35021 0.20714 0.10277 0.0
H314 H 0.30703 0.06747 0.18568 0.0
H315 H 0.26524 0.08305 0.22085 0.0
H316 H 0.3347 0.27028 0.40712 0.0
H317 H 0.27818 0.26836 0.43882 0.0
H318 H 0.30068 0.40393 0.35619 0.0
H319 H 0.35672 0.40541 0.32422 0.0
Ho320 Ho 0.61314 0.51577 0.05222 0.0
Ho321 Ho 0.5169 0.51512 0.99354 0.0
C322 C 0.51169 0.45117 0.09066 0.0
C323 C 0.68357 0.51851 0.12242 0.0
C324 C 0.67103 0.48529 0.16324 0.0
C325 C 0.69925 0.50094 0.20796 0.0
C326 C 0.68929 0.46454 0.24493 0.0
C327 C 0.65566 0.41378 0.23475 0.0
C328 C 0.61471 0.40363 0.19532 0.0
C329 C 0.6267 0.43648 0.15743 0.0
C330 C 0.5498 0.45086 0.9855 0.0
C331 C 0.61862 0.58234 0.95748 0.0
C332 C 0.42015 0.46803 0.95415 0.0
C333 C 0.37653 0.45951 0.91532 0.0
C334 C 0.38125 0.47253 0.87067 0.0
C335 C 0.34788 0.48394 0.83704 0.0
C336 C 0.31345 0.48601 0.84992 0.0
C337 C 0.29957 0.45891 0.89023 0.0
C338 C 0.33232 0.44667 0.92383 0.0
C339 C 0.58801 0.59192 0.04821 0.0
O340 O 0.5564 0.45966 0.09422 0.0
O341 O 0.49197 0.47342 0.05729 0.0
O342 O 0.66833 0.49563 0.08627 0.0
O343 O 0.6726 0.55206 0.11338 0.0
O344 O 0.59959 0.47552 0.99499 0.0
O345 O 0.53847 0.46169 1.01223 0.0
O346 O 0.56721 0.55514 0.94397 0.0
O347 O 0.64377 0.58053 1.00112 0.0
O348 O 0.44491 0.50856 0.97583 0.0
O349 O 0.45027 0.45762 0.95023 0.0
O350 O 0.55964 0.59702 1.0079 0.0
O351 O 0.57429 0.54702 0.05669 0.0
H352 H 0.73063 0.53931 0.21412 0.0
H353 H 0.71659 0.4749 0.27841 0.0
H354 H 0.58072 0.36634 0.189 0.0
H355 H 0.6029 0.42238 0.12395 0.0
H356 H 0.41411 0.48018 0.86322 0.0
H357 H 0.35719 0.50153 0.80473 0.0
H358 H 0.27154 0.45785 0.90006 0.0
H359 H 0.32722 0.43423 0.95806 0.0
Ho360 Ho 0.71632 0.23314 0.31758 0.0
Ho361 Ho 0.78023 0.24514 0.25994 0.0
C362 C 0.74971 0.31936 0.24127 0.0
C363 C 0.67281 0.24933 0.36031 0.0
C364 C 0.66719 0.2831 0.37949 0.0
C365 C 0.66243 0.27322 0.42452 0.0
C366 C 0.65093 0.2996 0.44149 0.0
C367 C 0.64339 0.33753 0.41438 0.0
C368 C 0.64829 0.34742 0.36927 0.0
C369 C 0.65997 0.32103 0.35246 0.0
C370 C 0.66502 0.17346 0.24296 0.0
C371 C 0.75395 0.16052 0.3464 0.0
C372 C 0.81013 0.22928 0.20513 0.0
C373 C 0.83983 0.2103 0.20376 0.0
C374 C 0.81408 0.16065 0.19311 0.0
C375 C 0.84043 0.14404 0.18586 0.0
C376 C 0.89308 0.17678 0.18863 0.0
C377 C 0.91922 0.22593 0.20067 0.0
C378 C 0.89286 0.24261 0.20789 0.0
C379 C 0.83945 0.30877 0.32808 0.0
O380 O 0.75547 0.31078 0.28559 0.0
O381 O 0.74727 0.2899 0.2187 0.0
O382 O 0.65964 0.24668 0.31604 0.0
O383 O 0.70968 0.24161 0.3813 0.0
O384 O 0.65394 0.15822 0.28215 0.0
O385 O 0.70061 0.21899 0.24582 0.0
O386 O 0.76852 0.17754 0.30817 0.0
O387 O 0.73704 0.17951 0.36142 0.0
O388 O 0.83519 0.27234 0.22244 0.0
O389 O 0.76672 0.19658 0.21577 0.0
O390 O 0.84853 0.3171 0.28904 0.0
O391 O 0.80033 0.26419 0.33129 0.0
H392 H 0.66622 0.24374 0.44661 0.0
H393 H 0.64636 0.28878 0.4758 0.0
H394 H 0.64327 0.37599 0.3466 0.0
H395 H 0.66279 0.33006 0.31785 0.0
H396 H 0.77314 0.13488 0.18912 0.0
H397 H 0.81941 0.10572 0.17739 0.0
H398 H 0.95976 0.25208 0.20287 0.0
H399 H 0.91379 0.28126 0.21536 0.0
Ho400 Ho 0.08262 0.46669 0.52774 0.0
Ho401 Ho 1.0609 0.54338 0.5132 0.0
C402 C 0.12707 0.55987 0.45283 0.0
C403 C 0.08818 0.39487 0.52097 0.0
C404 C 0.1163 0.38494 0.50388 0.0
C405 C 0.08945 0.35398 0.46739 0.0
C406 C 0.1144 0.34186 0.4518 0.0
C407 C 0.16648 0.35998 0.47289 0.0
C408 C 0.19334 0.39091 0.50946 0.0
C409 C 0.16853 0.40344 0.52478 0.0
C410 C 0.15468 0.54433 0.5831 0.0
C411 C 1.01624 0.4487 0.5877 0.0
C412 C 1.05351 0.61348 0.52174 0.0
C413 C 1.02513 0.62014 0.54222 0.0
C414 C 1.05035 0.64391 0.58342 0.0
C415 C 1.02455 0.65148 0.60288 0.0
C416 C 0.97299 0.63549 0.5815 0.0
C417 C 0.94828 0.61313 0.53957 0.0
C418 C 0.97393 0.60524 0.52023 0.0
C419 C 0.99028 0.46712 0.45656 0.0
O420 O 0.11172 0.51246 0.46513 0.0
O421 O 0.11816 0.58304 0.47225 0.0
O422 O 0.11301 0.42051 0.55729 0.0
O423 O 1.05753 0.40701 0.48989 0.0
O424 O 0.13735 0.49768 0.59668 0.0
O425 O 0.1334 0.54751 0.54109 0.0
O426 O 1.03124 0.49609 0.57557 0.0
O427 O 1.02526 0.42598 0.56813 0.0
O428 O 1.02762 0.5873 0.48569 0.0
O429 O 0.08728 0.60405 0.55051 0.0
O430 O 1.00765 0.51393 0.44364 0.0
O431 O 1.01038 0.46312 0.49887 0.0
H432 H 1.04897 0.33884 0.45109 0.0
H433 H 0.09287 0.3179 0.42358 0.0
H434 H 0.23372 0.40596 0.52587 0.0
H435 H 0.19022 0.42734 0.55306 0.0
H436 H 0.09022 0.65693 0.60054 0.0
H437 H 1.04525 0.67048 0.63433 0.0
H438 H 0.90877 0.60104 0.52196 0.0
H439 H 0.95358 0.58751 0.48809 0.0
Ho440 Ho 0.82153 0.72558 0.26857 0.0
Ho441 Ho 0.80851 0.80591 0.25098 0.0
C442 C 0.87948 0.82084 0.19644 0.0
C443 C 0.83084 0.65572 0.26574 0.0
C444 C 0.84584 0.6445 0.23513 0.0
C445 C 0.81248 0.62651 0.19193 0.0
C446 C 0.82199 0.60509 0.16813 0.0
C447 C 0.86544 0.6028 0.18691 0.0
C448 C 0.90264 0.62796 0.22628 0.0
C449 C 0.89231 0.64767 0.25092 0.0
C450 C 0.88456 0.79283 0.33305 0.0
C451 C 0.74806 0.7069 0.32177 0.0
C452 C 0.80338 0.87511 0.26316 0.0
C453 C 0.77408 0.8711 0.29003 0.0
C454 C 0.79958 0.90309 0.32531 0.0
C455 C 0.77247 0.89809 0.35252 0.0
C456 C 0.71961 0.86139 0.34425 0.0
C457 C 0.69461 0.82779 0.31059 0.0
C458 C 0.72185 0.83225 0.28387 0.0
C459 C 0.74311 0.73896 0.18586 0.0
O460 O 0.85881 0.77212 0.20891 0.0
O461 O 0.86997 0.84559 0.2132 0.0
O462 O 0.86722 0.69453 0.28979 0.0
O463 O 0.78716 0.65225 0.24933 0.0
O464 O 0.85904 0.74491 0.34246 0.0
O465 O 0.87524 0.80256 0.29032 0.0
O466 O 0.76486 0.75485 0.30728 0.0
O467 O 0.76139 0.68438 0.30706 0.0
O468 O 0.77663 0.85085 0.22586 0.0
O469 O 0.8408 0.86923 0.28761 0.0
O470 O 0.76634 0.78706 0.17712 0.0
O471 O 0.75436 0.72885 0.22869 0.0
H472 H 0.77719 0.62542 0.17812 0.0
H473 H 0.7936 0.58711 0.13703 0.0
H474 H 0.93785 0.62889 0.23991 0.0
H475 H 0.91931 0.66284 0.28349 0.0
H476 H 0.84016 0.93237 0.33128 0.0
H477 H 0.7919 0.92505 0.37781 0.0
H478 H 0.65361 0.79996 0.30344 0.0
H479 H 0.70172 0.80595 0.25785 0.0
Ho480 Ho 0.85675 0.24756 0.79633 0.0
Ho481 Ho 0.78462 0.27912 0.7426 0.0
C482 C 0.75296 0.20316 0.82739 0.0
C483 C 0.90923 0.21888 0.86208 0.0
C484 C 0.88933 0.1682 0.8835 0.0
C485 C 0.91556 0.15948 0.92737 0.0
C486 C 0.90084 0.11059 0.94403 0.0
C487 C 0.86033 0.07038 0.91645 0.0
C488 C 0.83037 0.07894 0.87493 0.0
C489 C 0.84471 0.12774 0.85859 0.0
C490 C 0.78304 0.19197 0.7255 0.0
C491 C 0.88946 0.32393 0.71442 0.0
C492 C 0.74223 0.31318 0.67197 0.0
C493 C 0.77197 0.35115 0.63944 0.0
C494 C 0.76037 0.33779 0.59592 0.0
C495 C 0.79171 0.37059 0.56706 0.0
C496 C 0.83662 0.41641 0.58217 0.0
C497 C 0.85319 0.43109 0.628 0.0
C498 C 0.81734 0.39744 0.65485 0.0
C499 C 0.8581 0.33322 0.81391 0.0
O500 O 0.79975 0.21282 0.83797 0.0
O501 O 0.73391 0.22102 0.78789 0.0
O502 O 0.90844 0.22325 0.81927 0.0
O503 O 0.89199 0.24208 0.86896 0.0
O504 O 0.82968 0.20359 0.73731 0.0
O505 O 0.77723 0.20784 0.75281 0.0
O506 O 0.84022 0.3078 0.7002 0.0
O507 O 0.9092 0.31255 0.75692 0.0
O508 O 0.75667 0.32758 0.71279 0.0
O509 O 0.7334 0.26887 0.67373 0.0
O510 O 0.81111 0.32055 0.80341 0.0
O511 O 0.86369 0.31824 0.78575 0.0
H512 H 0.94932 0.19041 0.94729 0.0
H513 H 0.92495 0.10497 0.97604 0.0
H514 H 0.79925 0.04853 0.85319 0.0
H515 H 0.82305 0.13408 0.82507 0.0
H516 H 0.72639 0.30196 0.58394 0.0
H517 H 0.78044 0.36085 0.53255 0.0
H518 H 0.93454 0.51716 0.64069 0.0
H519 H 0.82532 0.40724 0.68838 0.0
Ho520 Ho 0.80148 0.7352 0.76449 0.0
Ho521 Ho 0.832 0.76858 0.78368 0.0
C522 C 0.87263 0.68107 0.84635 0.0
C523 C 0.76076 0.66201 0.71493 0.0
C524 C 0.78617 0.65568 0.69059 0.0
C525 C 0.8133 0.69429 0.66038 0.0
C526 C 0.84491 0.69212 0.64388 0.0
C527 C 0.85013 0.6513 0.65716 0.0
C528 C 0.82175 0.61203 0.68634 0.0
C529 C 0.79002 0.61416 0.70278 0.0
C530 C 0.74208 0.69572 0.82422 0.0
C531 C 0.7638 0.82874 0.71628 0.0
C532 C 0.86862 0.83868 0.83553 0.0
C533 C 0.84388 0.84833 0.85798 0.0
C534 C 0.82083 0.81509 0.89269 0.0
C535 C 0.79522 0.82374 0.91149 0.0
C536 C 0.79223 0.86601 0.89626 0.0
C537 C 0.81499 0.89875 0.86112 0.0
C538 C 0.8407 0.89021 0.84251 0.0
C539 C 0.89386 0.8152 0.72606 0.0
O540 O 0.87275 0.7196 0.81321 0.0
O541 O 0.8746 0.71995 0.81327 0.0
O542 O 0.77791 0.65982 0.75906 0.0
O543 O 0.75502 0.69899 0.70021 0.0
O544 O 0.72635 0.70471 0.78087 0.0
O545 O 0.78836 0.71158 0.83303 0.0
O546 O 0.7635 0.78465 0.72624 0.0
O547 O 0.75938 0.78295 0.7235 0.0
O548 O 0.85516 0.84304 0.79126 0.0
O549 O 0.87102 0.79966 0.85053 0.0
O550 O 0.91053 0.80971 0.77009 0.0
O551 O 0.84602 0.79269 0.7156 0.0
H552 H 0.81161 0.72711 0.65066 0.0
H553 H 0.86644 0.72318 0.62174 0.0
H554 H 0.82379 0.57942 0.69642 0.0
H555 H 0.76973 0.58409 0.72624 0.0
H556 H 0.82228 0.78225 0.9052 0.0
H557 H 0.77749 0.79699 0.93783 0.0
H558 H 0.81443 0.93199 0.84844 0.0
H559 H 0.85799 0.91643 0.8157 0.0
Ho560 Ho 0.61568 0.52806 0.54601 0.0
Ho561 Ho 0.52749 0.48954 0.48817 0.0
C562 C 0.58884 0.44742 0.48325 0.0
C563 C 0.69889 0.5426 0.60624 0.0
C564 C 0.73907 0.54131 0.60019 0.0
C565 C 0.75226 0.5084 0.629 0.0
C566 C 0.7835 0.49992 0.61923 0.0
C567 C 0.80267 0.52472 0.58072 0.0
C568 C 0.78958 0.55784 0.55196 0.0
C569 C 0.75807 0.56618 0.5616 0.0
C570 C 0.63005 0.58624 0.46402 0.0
C571 C 0.55704 0.57146 0.55243 0.0
C572 C 0.44067 0.46844 0.43007 0.0
C573 C 0.39665 0.46079 0.43871 0.0
C574 C 0.37294 0.48499 0.40914 0.0
C575 C 0.33937 0.48767 0.42201 0.0
C576 C 0.32972 0.46705 0.46529 0.0
C577 C 0.35046 0.4394 0.49319 0.0
C578 C 0.38361 0.43623 0.48005 0.0
C579 C 0.51441 0.43342 0.57129 0.0
O580 O 0.61406 0.46645 0.52381 0.0
O581 O 0.55352 0.45664 0.45759 0.0
O582 O 0.69383 0.57931 0.58401 0.0
O583 O 0.65493 0.49941 0.60289 0.0
O584 O 0.64699 0.60273 0.50383 0.0
O585 O 0.60213 0.53854 0.46887 0.0
O586 O 0.53002 0.5519 0.51183 0.0
O587 O 0.59242 0.56223 0.57689 0.0
O588 O 0.45139 0.43485 0.44965 0.0
O589 O 0.4816 0.51401 0.43461 0.0
O590 O 0.49826 0.4157 0.53235 0.0
O591 O 0.54107 0.4808 0.56475 0.0
H592 H 0.73649 0.48754 0.65795 0.0
H593 H 0.78971 0.47157 0.64038 0.0
H594 H 0.80339 0.57699 0.52179 0.0
H595 H 0.74734 0.59083 0.53803 0.0
H596 H 0.38286 0.50451 0.37734 0.0
H597 H 0.32556 0.51059 0.39996 0.0
H598 H 0.34424 0.42355 0.52678 0.0
H599 H 0.40174 0.41756 0.50378 0.0
Ho600 Ho 1.03883 0.47419 0.04826 0.0
Ho601 Ho 0.10507 0.53312 1.001 0.0
C602 C 1.01307 0.56501 0.96619 0.0
C603 C 0.97735 0.43433 0.09881 0.0
C604 C 0.94905 0.45089 0.10525 0.0
C605 C 0.96537 0.5012 0.09405 0.0
C606 C 0.93995 0.51838 0.10101 0.0
C607 C 0.89831 0.48555 0.11981 0.0
C608 C 0.88064 0.43468 0.12955 0.0
C609 C 0.906 0.41728 0.12208 0.0
C610 C 1.01371 0.42677 0.97689 0.0
C611 C 0.12892 0.44109 0.08238 0.0
C612 C 0.16382 0.56557 0.94956 0.0
C613 C 0.17071 0.53475 0.9321 0.0
C614 C 0.13594 0.4826 0.93511 0.0
C615 C 0.13753 0.4522 0.91431 0.0
C616 C 0.17463 0.47354 0.89096 0.0
C617 C 0.21194 0.52553 0.89102 0.0
C618 C 0.2096 0.55617 0.91108 0.0
C619 C 0.13463 0.5812 0.07355 0.0
O620 O 1.00142 0.52741 1.00196 0.0
O621 O 1.05576 0.57386 0.95916 0.0
O622 O 0.9628 0.42111 0.05776 0.0
O623 O 1.02717 0.46384 0.11403 0.0
O624 O 1.01618 0.40731 1.01856 0.0
O625 O 1.02671 0.47092 0.97569 0.0
O626 O 0.13995 0.47762 0.0458 0.0
O627 O 0.08781 0.43388 0.09069 0.0
O628 O 0.18104 0.56829 0.9938 0.0
O629 O 0.11744 0.55578 0.93378 0.0
O630 O 0.13283 0.60113 0.03202 0.0
O631 O 0.11845 0.53597 0.07411 0.0
H632 H 0.99895 0.52766 0.08147 0.0
H633 H 0.95469 0.55793 0.09417 0.0
H634 H 0.84857 0.40908 0.14433 0.0
H635 H 0.89296 0.37822 0.13043 0.0
H636 H 0.10627 0.46557 0.95216 0.0
H637 H 0.10858 0.41232 0.91503 0.0
H638 H 0.24205 0.54265 0.87454 0.0
H639 H 0.23724 0.59632 0.90934 0.0
C640 C 0.21479 0.19265 0.88786 0.0
C641 C 0.22176 0.16882 0.86328 0.0
C642 C 0.18352 0.16555 0.9187 0.0
C643 C 0.15608 0.11254 0.92672 0.0
H644 H 0.23474 0.23306 0.88417 0.0
H645 H 0.18129 0.18696 0.93696 0.0
S646 S 0.15657 0.03078 0.86779 0.0
N647 N 0.19559 0.08774 0.84762 0.0
N648 N 0.13651 0.03742 0.90422 0.0
C649 C 0.16128 0.08793 0.90124 0.0
C650 C 0.19398 0.11574 0.87018 0.0
C651 C 0.21838 1.00308 0.1223 0.0
C652 C 0.20791 0.01911 0.07593 0.0
C653 C 0.24559 0.98023 0.13861 0.0
C654 C 0.2614 0.9718 0.10845 0.0
H655 H 0.20025 1.00245 0.14468 0.0
H656 H 0.24754 0.96278 0.1732 0.0
S657 S 0.25417 0.01882 0.98698 0.0
N658 N 0.22558 0.0363 1.00291 0.0
N659 N 0.27403 0.99016 0.03295 0.0
C660 C 0.25812 0.9947 0.06397 0.0
C661 C 0.23177 0.01922 0.04779 0.0
C662 C 0.47892 0.90458 0.39372 0.0
C663 C 0.46618 0.89376 0.43474 0.0
C664 C 0.44104 0.88141 0.3538 0.0
C665 C 0.38901 0.84802 0.35335 0.0
H666 H 0.51832 0.93143 0.39243 0.0
H667 H 0.45243 0.89033 0.32287 0.0
S668 S 0.33573 0.80789 0.45191 0.0
N669 N 0.39819 0.84719 0.47286 0.0
N670 N 0.32668 0.80508 0.39732 0.0
C671 C 0.37573 0.83706 0.39412 0.0
C672 C 0.41447 0.85955 0.43505 0.0
C673 C 0.49396 0.14839 0.70119 0.0
C674 C 0.4782 0.12636 0.7416 0.0
C675 C 0.50257 0.12437 0.6791 0.0
C676 C 0.49594 0.07787 0.69701 0.0
H677 H 0.49798 0.18355 0.68581 0.0
H678 H 0.51302 0.1415 0.64719 0.0
S679 S 0.45483 0.00457 0.80183 0.0
N680 N 0.45605 0.05551 0.79852 0.0
N681 N 0.47359 0.01105 0.75773 0.0
C682 C 0.48212 0.05644 0.73835 0.0
C683 C 0.47289 0.08056 0.76052 0.0
C684 C 0.36579 0.94787 0.65556 0.0
C685 C 0.31999 0.92728 0.62 0.0
C686 C 0.39313 0.92528 0.67305 0.0
C687 C 0.37701 0.88265 0.65456 0.0
H688 H 0.37788 0.97879 0.67295 0.0
H689 H 0.42432 0.93823 0.70412 0.0
S690 S 0.26381 0.8179 0.55719 0.0
N691 N 0.26224 0.86438 0.56375 0.0
N692 N 0.31581 0.82331 0.5959 0.0
C693 C 0.33484 0.86502 0.61559 0.0
C694 C 0.30586 0.88725 0.59827 0.0
C695 C 0.47677 0.85288 0.87575 0.0
C696 C 0.4965 0.87485 0.83685 0.0
C697 C 0.48855 0.88189 0.90983 0.0
C698 C 0.52086 0.93476 0.90708 0.0
H699 H 0.45098 0.81258 0.87958 0.0
H700 H 0.47091 0.8627 0.93781 0.0
S701 S 0.5905 0.01123 0.81786 0.0
N702 N 0.5555 0.95354 0.80182 0.0
N703 N 0.57701 0.00707 0.86463 0.0
C704 C 0.54272 0.95693 0.8697 0.0
C705 C 0.53096 0.92751 0.83522 0.0
C706 C 0.37182 0.12744 0.04692 0.0
C707 C 0.39841 0.10382 0.06974 0.0
C708 C 0.35077 0.13748 0.07015 0.0
C709 C 0.35619 0.12542 0.11761 0.0
H710 H 0.36714 0.13845 1.01062 0.0
H711 H 0.32939 0.15427 0.05037 0.0
S712 S 0.42332 0.06392 0.194 0.0
N713 N 0.42741 0.067 0.14261 0.0
N714 N 0.39247 0.09034 0.18705 0.0
C715 C 0.38354 0.10258 0.14114 0.0
C716 C 0.40362 0.09091 0.11713 0.0
C717 C 0.1344 0.10182 0.37993 0.0
C718 C 0.15852 0.09258 0.42553 0.0
C719 C 0.16256 0.13289 0.34739 0.0
C720 C 0.21616 0.15627 0.35895 0.0
H721 H 0.09324 0.08456 0.36902 0.0
H722 H 0.14206 0.13833 0.3128 0.0
S723 S 0.29865 0.14637 0.47384 0.0
N724 N 0.24017 0.11125 0.48041 0.0
N725 N 0.29232 0.16856 0.41975 0.0
C726 C 0.2408 0.14779 0.40447 0.0
C727 C 0.21228 0.1163 0.43752 0.0
C728 C 0.96805 0.1697 0.2067 0.0
C729 C 0.92044 0.16054 0.1773 0.0
C730 C 0.99569 0.15695 0.19563 0.0
C731 C 0.97707 0.13481 0.1545 0.0
H732 H 0.98414 0.18696 0.23856 0.0
H733 H 1.03212 0.16472 0.21946 0.0
S734 S 0.85539 0.10537 0.06453 0.0
N735 N 0.85632 0.12897 0.10475 0.0
N736 N 0.90847 0.10584 0.08352 0.0
C737 C 0.92935 0.12534 0.12482 0.0
C738 C 0.90105 0.13801 0.13628 0.0
C739 C 0.20595 0.63638 0.43307 0.0
C740 C 0.16004 0.58954 0.42103 0.0
C741 C 0.23781 0.66601 0.40362 0.0
C742 C 0.22374 0.65104 0.36005 0.0
H743 H 0.21744 0.65028 0.46559 0.0
H744 H 0.2729 0.70159 0.41449 0.0
S745 S 0.10748 0.53173 0.3119 0.0
N746 N 0.10299 0.52881 0.36318 0.0
N747 N 0.16106 0.586 0.30641 0.0
C748 C 0.17785 0.60438 0.34742 0.0
C749 C 0.14644 0.57326 0.37825 0.0
C750 C 0.70393 0.92557 0.65425 0.0
C751 C 0.65902 0.90995 0.61289 0.0
C752 C 0.73212 0.89951 0.68299 0.0
C753 C 0.72294 0.85081 0.67884 0.0
H754 H 0.71931 0.96105 0.66593 0.0
H755 H 0.76437 0.92012 0.71134 0.0
S756 S 0.6106 0.78503 0.57587 0.0
N757 N 0.60935 0.83483 0.57146 0.0
N758 N 0.65815 0.79008 0.62128 0.0
C759 C 0.67776 0.83396 0.63724 0.0
C760 C 0.64871 0.86089 0.60736 0.0
C761 C 0.51628 0.41932 0.90711 0.0
C762 C 0.51038 0.41317 0.95079 0.0
C763 C 0.47653 0.38534 0.87325 0.0
C764 C 0.43005 0.34361 0.88233 0.0
H765 H 0.55133 0.451 0.8988 0.0
H766 H 0.48273 0.39108 0.84022 0.0
S767 S 0.39566 0.31081 0.99119 0.0
N768 N 0.45407 0.36234 1.00084 0.0
N769 N 0.38065 0.29855 0.93808 0.0
C770 C 0.42401 0.3372 0.92587 0.0
C771 C 0.46383 0.37189 0.95987 0.0
C772 C 0.91597 0.81928 0.41215 0.0
C773 C 0.92193 0.83037 0.3677 0.0
C774 C 0.95183 0.85352 0.44622 0.0
C775 C 0.99564 0.8992 0.4373 0.0
H776 H 0.88333 0.78389 0.42066 0.0
H777 H 0.94616 0.84347 0.48014 0.0
S778 S 1.0282 0.947 0.32638 0.0
N779 N 0.97369 0.89156 0.31613 0.0
N780 N 1.04231 0.95465 0.38087 0.0
C781 C 1.0018 0.91099 0.39302 0.0
C782 C 0.96455 0.87689 0.35796 0.0
C783 C 0.51583 0.61943 0.54575 0.0
C784 C 0.54593 0.5999 0.57267 0.0
C785 C 0.50589 0.6458 0.56492 0.0
C786 C 0.52449 0.65381 0.61234 0.0
H787 H 0.50032 0.61498 0.50923 0.0
H788 H 0.48411 0.66109 0.54201 0.0
S789 S 0.60272 0.60762 0.69924 0.0
N790 N 0.59329 0.59006 0.65047 0.0
N791 N 0.57305 0.63659 0.68586 0.0
C792 C 0.55399 0.63367 0.63966 0.0
C793 C 0.56484 0.60763 0.62015 0.0
C794 C 0.6577 0.14714 0.89809 0.0
C795 C 0.66747 0.11298 0.93038 0.0
C796 C 0.68434 0.1753 0.86419 0.0
C797 C 0.72237 0.17099 0.86144 0.0
H798 H 0.62875 0.15185 0.89855 0.0
H799 H 0.67563 0.20122 0.84046 0.0
S800 S 0.76139 0.08551 0.93653 0.0
N801 N 0.7172 0.07574 0.95622 0.0
N802 N 0.76704 0.12832 0.8934 0.0
C803 C 0.73221 0.13669 0.89336 0.0
C804 C 0.7049 0.10785 0.9275 0.0
C805 C 0.20903 0.41721 0.11103 0.0
C806 C 0.16129 0.40845 0.11377 0.0
C807 C 0.23702 0.39045 0.13757 0.0
C808 C 0.22509 0.34782 0.17359 0.0
H809 H 0.22706 0.44736 0.08658 0.0
H810 H 0.27155 0.4051 0.12852 0.0
S811 S 0.10239 0.30037 0.20068 0.0
N812 N 0.10468 0.346 0.16166 0.0
N813 N 0.153 0.29986 0.20693 0.0
C814 C 0.17678 0.33775 0.17696 0.0
C815 C 0.14794 0.36544 0.14981 0.0
C816 C 0.62749 0.61912 0.87638 0.0
C817 C 0.65029 0.61374 0.92359 0.0
C818 C 0.65714 0.64622 0.84441 0.0
C819 C 0.71079 0.66863 0.85815 0.0
H820 H 0.58635 0.60191 0.86384 0.0
H821 H 0.63772 0.64897 0.80856 0.0
S822 S 0.79018 0.66667 0.97728 0.0
N823 N 0.73123 0.63497 0.98194 0.0
N824 N 0.78533 0.68369 0.92225 0.0
C825 C 0.73403 0.66382 0.90508 0.0
C826 C 0.7043 0.63705 0.9376 0.0
C827 C 0.75328 0.39545 0.22719 0.0
C828 C 0.72388 0.34485 0.21959 0.0
C829 C 0.73214 0.41662 0.2357 0.0
C830 C 0.68012 0.38781 0.23654 0.0
H831 H 0.79408 0.41767 0.23069 0.0
H832 H 0.75743 0.45611 0.24138 0.0
S833 S 0.58675 0.25239 0.21576 0.0
N834 N 0.64021 0.26667 0.2092 0.0
N835 N 0.60024 0.30467 0.22867 0.0
C836 C 0.65 0.33687 0.22729 0.0
C837 C 0.67149 0.31621 0.21682 0.0
C838 C 0.94677 0.4342 0.37893 0.0
C839 C 0.95052 0.42493 0.42597 0.0
C840 C 0.91057 0.39607 0.34856 0.0
C841 C 0.87507 0.34692 0.3632 0.0
H842 H 0.97284 0.4712 0.36542 0.0
H843 H 0.91073 0.40536 0.31292 0.0
S844 S 0.86745 0.30286 0.48308 0.0
N845 N 0.91539 0.36253 0.48626 0.0
N846 N 0.84575 0.29126 0.42849 0.0
C847 C 0.87762 0.33702 0.41015 0.0
C848 C 0.91572 0.37586 0.44162 0.0
C849 C 0.65611 0.59526 0.39276 0.0
C850 C 0.65732 0.61761 0.42578 0.0
C851 C 0.6845 0.62412 0.35948 0.0
C852 C 0.71532 0.67737 0.35623 0.0
H853 H 0.63393 0.55483 0.39322 0.0
H854 H 0.68235 0.60416 0.33601 0.0
S855 S 0.73225 0.75538 0.43387 0.0
N856 N 0.69302 0.6975 0.45238 0.0
N857 N 0.74437 0.75066 0.39007 0.0
C858 C 0.71604 0.70017 0.38843 0.0
C859 C 0.68784 0.6708 0.42285 0.0
C860 C 0.94791 0.39323 0.85456 0.0
C861 C 0.8976 0.35445 0.85632 0.0
C862 C 0.98643 0.415 0.89453 0.0
C863 C 0.97615 0.39697 0.93744 0.0
H864 H 0.95703 0.408 0.82192 0.0
H865 H 1.02405 0.44697 0.89172 0.0
S866 S 0.85148 0.29208 0.96014 0.0
N867 N 0.83975 0.29669 0.90385 0.0
N868 N 0.91287 0.33595 0.97965 0.0
C869 C 0.92655 0.35621 0.93978 0.0
C870 C 0.88695 0.33529 0.89891 0.0
C871 C 0.94206 0.90051 0.15373 0.0
C872 C 0.91291 0.8475 0.16264 0.0
C873 C 0.97298 0.92523 0.12217 0.0
C874 C 0.97609 0.89844 0.09708 0.0
H875 H 0.94115 0.9234 0.17141 0.0
H876 H 0.99408 0.96556 0.11705 0.0
S877 S 0.90831 0.75926 0.10726 0.0
N878 N 0.89088 0.76988 0.14307 0.0
N879 N 0.9469 0.81486 0.08483 0.0
C880 C 0.94737 0.84554 0.10606 0.0
C881 C 0.91655 0.82064 0.13824 0.0
C882 C 0.87836 0.02135 0.89098 0.0
C883 C 0.86232 0.02621 0.92346 0.0
C884 C 0.90849 1.00181 0.90446 0.0
C885 C 0.92152 0.98533 0.95023 0.0
H886 H 0.8744 0.03944 0.85676 0.0
H887 H 0.9266 0.00539 0.88043 0.0
S888 S 0.87637 0.97636 0.04454 0.0
N889 N 0.85277 0.00381 1.00056 0.0
N890 N 0.90639 0.96346 0.02511 0.0
C891 C 0.89755 0.9812 0.9806 0.0
C892 C 0.86833 1.0025 0.96734 0.0
C893 C 0.69324 0.12773 0.68691 0.0
C894 C 0.74319 0.16696 0.68425 0.0
C895 C 0.65532 0.1018 0.64819 0.0
C896 C 0.66578 0.11585 0.6055 0.0
H897 H 0.68401 0.11588 0.71941 0.0
H898 H 0.61788 0.07012 0.65176 0.0
S899 S 0.7896 0.21926 0.58029 0.0
N900 N 0.80079 0.22015 0.63578 0.0
N901 N 0.72887 0.17322 0.56234 0.0
C902 C 0.71498 0.15668 0.60207 0.0
C903 C 0.75395 0.18183 0.64175 0.0
C904 C 0.65062 0.91469 0.34481 0.0
C905 C 0.66119 0.9169 0.39199 0.0
C906 C 0.66404 0.89023 0.32957 0.0
C907 C 0.68954 0.86837 0.36096 0.0
H908 H 0.63639 0.93581 0.31932 0.0
H909 H 0.65943 0.89316 0.29315 0.0
S910 S 0.71494 0.85322 0.48709 0.0
N911 N 0.68817 0.88547 0.46951 0.0
N912 N 0.7179 0.84313 0.44031 0.0
C913 C 0.69581 0.86577 0.40781 0.0
C914 C 0.68043 0.8892 0.42347 0.0
C915 C 0.74404 0.08007 0.35263 0.0
C916 C 0.76284 0.12206 0.37417 0.0
C917 C 0.76664 0.05271 0.36975 0.0
C918 C 0.80941 0.0669 0.40864 0.0
H919 H 0.71425 0.07067 0.32034 0.0
H920 H 0.7527 0.02223 0.35064 0.0
S921 S 0.86892 0.17118 0.48002 0.0
N922 N 0.82231 0.1736 0.43867 0.0
N923 N 0.86623 0.12316 0.47069 0.0
C924 C 0.82547 0.10621 0.43281 0.0
C925 C 0.8018 0.13364 0.41553 0.0
C926 C 0.6275 0.08998 0.21247 0.0
C927 C 0.64741 0.14169 0.20458 0.0
C928 C 0.6145 0.061 0.17793 0.0
C929 C 0.61976 0.08149 0.13297 0.0
H930 H 0.62304 0.07178 0.24611 0.0
H931 H 0.60028 0.02173 0.18683 0.0
S932 S 0.66761 0.21454 0.09294 0.0
N933 N 0.67016 0.21166 0.14695 0.0
N934 N 0.64507 0.15747 0.08281 0.0
C935 C 0.63832 0.13284 0.12423 0.0
C936 C 0.65224 0.16261 0.15961 0.0
C937 C 0.77455 0.86709 0.96649 0.0
C938 C 0.76813 0.8772 0.91878 0.0
C939 C 0.75483 0.87924 0.98923 0.0
C940 C 0.72893 0.90337 0.96566 0.0
H941 H 0.79611 0.85065 0.98695 0.0
H942 H 0.76054 0.87006 0.02584 0.0
S943 S 0.69997 0.93705 0.84032 0.0
N944 N 0.73012 0.90966 0.84819 0.0
N945 N 0.69795 0.93715 0.8917 0.0
C946 C 0.72197 0.91365 0.91794 0.0
C947 C 0.74053 0.8997 0.89443 0.0
C948 C 0.92808 0.87738 0.61239 0.0
C949 C 0.98197 0.91054 0.62538 0.0
C950 C 0.90047 0.84647 0.64513 0.0
C951 C 0.92528 0.84728 0.69254 0.0
H952 H 0.90689 0.8748 0.57647 0.0
H953 H 0.85909 0.82179 0.63301 0.0
S954 S 1.06527 0.93079 0.74535 0.0
N955 N 1.05882 0.94415 0.68966 0.0
N956 N 1.00697 0.88643 0.75087 0.0
C957 C 0.97907 0.88072 0.70618 0.0
C958 C 1.00731 0.91215 0.67277 0.0
C959 C 0.21597 0.8513 0.88909 0.0
C960 C 0.20264 0.83811 0.84485 0.0
C961 C 0.18691 0.86165 0.90082 0.0
C962 C 0.14342 0.85985 0.8687 0.0
H963 H 0.24884 0.85296 0.91519 0.0
H964 H 0.19848 0.87058 0.93572 0.0
S965 S 0.09343 0.82877 0.74733 0.0
N966 N 0.14365 0.82434 0.76842 0.0
N967 N 0.0893 0.84452 0.78997 0.0
C968 C 0.12967 0.8466 0.82416 0.0
C969 C 0.1592 0.83565 0.81237 0.0
C970 C 0.93165 0.38298 0.60436 0.0
C971 C 0.98466 0.4186 0.62043 0.0
C972 C 0.901 0.35292 0.63488 0.0
C973 C 0.92254 0.3561 0.68269 0.0
H974 H 0.91356 0.37906 0.5679 0.0
H975 H 0.86019 0.32688 0.62087 0.0
S976 S 1.05954 0.44276 0.74178 0.0
N977 N 1.0574 0.45539 0.68681 0.0
N978 N 1.00039 0.39779 0.74431 0.0
C979 C 0.97572 0.39101 0.69903 0.0
C980 C 1.00663 0.42245 0.66789 0.0
C981 C 0.43201 0.08932 0.43621 0.0
C982 C 0.47768 0.09621 0.43096 0.0
C983 C 0.40348 0.11532 0.40939 0.0
C984 C 0.41286 0.15478 0.37065 0.0
H985 H 0.41636 0.06163 0.46304 0.0
H986 H 0.37086 0.10285 0.42053 0.0
S987 S 0.52845 0.19492 0.33547 0.0
N988 N 0.52907 0.15246 0.3774 0.0
N989 N 0.47951 0.19725 0.33131 0.0
C990 C 0.45892 0.16274 0.36456 0.0
C991 C 0.4884 0.13595 0.39211 0.0
C992 C 0.65329 0.68138 0.07072 0.0
C993 C 0.62534 0.62974 0.08324 0.0
C994 C 0.69125 0.71651 0.10406 0.0
C995 C 0.70238 0.70134 0.15116 0.0
H996 H 0.64668 0.69465 0.03492 0.0
H997 H 0.71233 0.75584 0.09274 0.0
S998 S 0.6371 0.57059 0.20213 0.0
N999 N 0.60956 0.56553 0.14649 0.0
N1000 N 0.68022 0.63101 0.20839 0.0
C1001 C 0.67373 0.64988 0.16405 0.0
C1002 C 0.6354 0.61429 0.13032 0.0
C1003 C 0.17881 0.13912 0.67795 0.0
C1004 C 0.22749 0.17514 0.67031 0.0
C1005 C 0.13846 0.1042 0.64538 0.0
C1006 C 0.14593 0.10332 0.60478 0.0
H1007 H 0.17131 0.13913 0.70844 0.0
H1008 H 0.1012 0.07777 0.652 0.0
S1009 S 0.26739 0.18799 0.5703 0.0
N1010 N 0.28132 0.20713 0.61999 0.0
N1011 N 0.2066 0.14042 0.55982 0.0
C1012 C 0.19507 0.13806 0.59769 0.0
C1013 C 0.23557 0.17431 0.63019 0.0
C1014 C 0.59423 0.3787 0.40434 0.0
C1015 C 0.6299 0.36577 0.43253 0.0
C1016 C 0.58079 0.40401 0.42064 0.0
C1017 C 0.60241 0.41876 0.46623 0.0
H1018 H 0.57568 0.36853 0.36914 0.0
H1019 H 0.55316 0.41232 0.39692 0.0
S1020 S 0.69912 0.39667 0.55446 0.0
N1021 N 0.68756 0.37224 0.50899 0.0
N1022 N 0.66256 0.41858 0.53889 0.0
C1023 C 0.63838 0.40655 0.49458 0.0
C1024 C 0.65187 0.38059 0.47812 0.0
C1025 C 0.47894 0.87102 0.13853 0.0
C1026 C 0.46696 0.90279 0.10456 0.0
C1027 C 0.45227 0.84289 0.17227 0.0
C1028 C 0.41183 0.84457 0.17313 0.0
H1029 H 0.50998 0.86857 0.13978 0.0
H1030 H 0.46324 0.81931 0.1977 0.0
S1031 S 0.36465 0.92138 0.09177 0.0
N1032 N 0.41153 0.93404 0.07412 0.0
N1033 N 0.36104 0.88072 0.1366 0.0
C1034 C 0.39892 0.87561 0.13895 0.0
C1035 C 0.42655 0.90481 0.10502 0.0
C1036 C 0.98953 0.6378 0.8964 0.0
C1037 C 0.97931 0.59675 0.93452 0.0
C1038 C 0.96052 0.66431 0.86958 0.0
C1039 C 0.91343 0.65627 0.8741 0.0
H1040 H 1.02275 0.65115 0.88578 0.0
H1041 H 0.97674 0.69287 0.84344 0.0
S1042 S 0.8616 0.5543 0.96725 0.0
N1043 N 0.91121 0.55306 0.9717 0.0
N1044 N 0.86163 0.59754 0.92619 0.0
C1045 C 0.90308 0.61539 0.91202 0.0
C1046 C 0.93265 0.58865 0.93931 0.0
C1047 C 0.50557 0.40867 0.16998 0.0
C1048 C 0.4814 0.41439 0.12347 0.0
C1049 C 0.47667 0.37477 0.20122 0.0
C1050 C 0.42251 0.34553 0.18707 0.0
H1051 H 0.547 0.43165 0.18263 0.0
H1052 H 0.49689 0.37232 0.23684 0.0
S1053 S 0.34077 0.34426 0.06832 0.0
N1054 N 0.40011 0.386 0.06451 0.0
N1055 N 0.34614 0.32343 0.12278 0.0
C1056 C 0.39806 0.35036 0.14045 0.0
C1057 C 0.42736 0.38456 0.10882 0.0
C1058 C 0.31392 0.55196 0.79034 0.0
C1059 C 0.31608 0.5333 0.83618 0.0
C1060 C 0.33709 0.60298 0.77861 0.0
C1061 C 0.36305 0.63713 0.81236 0.0
H1062 H 0.29803 0.52738 0.76388 0.0
H1063 H 0.33599 0.61571 0.7429 0.0
S1064 S 0.37263 0.60763 0.93627 0.0
N1065 N 0.3412 0.55307 0.91511 0.0
N1066 N 0.38387 0.64927 0.89205 0.0
C1067 C 0.36124 0.61903 0.85754 0.0
C1068 C 0.33778 0.56693 0.86973 0.0
C1069 C 0.19287 0.58205 0.65746 0.0
C1070 C 0.19508 0.58722 0.61279 0.0
C1071 C 0.23084 0.61965 0.68804 0.0
C1072 C 0.27309 0.66506 0.67547 0.0
H1073 H 0.16071 0.54867 0.66863 0.0
H1074 H 0.22659 0.61277 0.72216 0.0
S1075 S 0.29632 0.69834 0.56112 0.0
N1076 N 0.24259 0.6418 0.55651 0.0
N1077 N 0.31395 0.71317 0.61393 0.0
C1078 C 0.27557 0.67135 0.63037 0.0
C1079 C 0.23648 0.63249 0.599 0.0
C1080 C 0.45367 0.39978 0.6699 0.0
C1081 C 0.4282 0.347 0.67835 0.0
C1082 C 0.48246 0.42731 0.63689 0.0
C1083 C 0.48667 0.40379 0.60921 0.0
H1084 H 0.45142 0.42036 0.68913 0.0
H1085 H 0.50058 0.4675 0.6323 0.0
S1086 S 0.42691 0.26644 0.61593 0.0
N1087 N 0.4101 0.2728 0.65528 0.0
N1088 N 0.46173 0.32343 0.593 0.0
C1089 C 0.46123 0.35104 0.61711 0.0
C1090 C 0.4329 0.32315 0.65148 0.0
C1091 C 0.20703 0.61689 0.19559 0.0
C1092 C 0.25626 0.65727 0.19191 0.0
C1093 C 0.16726 0.59322 0.15672 0.0
C1094 C 0.17499 0.61058 0.11286 0.0
H1095 H 0.19942 0.60316 0.22885 0.0
H1096 H 0.13027 0.56107 0.16099 0.0
S1097 S 0.29633 0.71752 0.08503 0.0
N1098 N 0.31053 0.7147 0.14146 0.0
N1099 N 0.23532 0.67167 0.06783 0.0
C1100 C 0.2238 0.65198 0.10865 0.0
C1101 C 0.26466 0.675 0.14843 0.0
C1102 C 0.83665 0.47386 0.51518 0.0
C1103 C 0.86548 0.45707 0.55043 0.0
C1104 C 0.81909 0.49924 0.52441 0.0
C1105 C 0.83309 0.51345 0.56867 0.0
H1106 H 0.8204 0.45987 0.48162 0.0
H1107 H 0.79026 0.50349 0.49711 0.0
S1108 S 0.92548 0.46671 0.69305 0.0
N1109 N 0.93423 0.46642 0.62842 0.0
N1110 N 0.87982 0.49909 0.65868 0.0
C1111 C 0.87267 0.51039 0.60127 0.0
C1112 C 0.90452 0.4899 0.58271 0.0
C1113 C 0.86012 0.56962 0.12207 0.0
C1114 C 0.86863 0.56885 0.16928 0.0
C1115 C 0.86578 0.53915 0.10548 0.0
C1116 C 0.87984 0.50714 0.13569 0.0
H1117 H 0.85107 0.59524 0.09814 0.0
H1118 H 0.86159 0.54231 0.06918 0.0
S1119 S 0.90352 0.48962 0.26187 0.0
N1120 N 0.88754 0.53073 0.24555 0.0
N1121 N 0.90086 0.47535 0.21439 0.0
C1122 C 0.88612 0.50438 0.18263 0.0
C1123 C 0.87993 0.53494 0.19946 0.0
C1124 C 0.91395 0.66022 0.57518 0.0
C1125 C 0.94466 0.64196 0.60254 0.0
C1126 C 0.88449 0.66406 0.59339 0.0
C1127 C 0.88421 0.64946 0.63966 0.0
H1128 H 0.91224 0.67123 0.53919 0.0
H1129 H 0.86034 0.67697 0.57048 0.0
S1130 S 0.96148 0.60315 0.72689 0.0
N1131 N 0.97495 0.61124 0.67885 0.0
N1132 N 0.92074 0.6199 0.71343 0.0
C1133 C 0.91619 0.63278 0.66785 0.0
C1134 C 0.94618 0.62879 0.64925 0.0
C1135 C 0.34533 0.51112 0.52685 0.0
C1136 C 0.31239 0.48736 0.48559 0.0
C1137 C 0.35512 0.55671 0.5324 0.0
C1138 C 0.33325 0.5794 0.49618 0.0
H1139 H 0.37079 0.50021 0.55084 0.0
H1140 H 0.388 0.5787 0.55969 0.0
S1141 S 0.22136 0.51617 0.39756 0.0
N1142 N 0.24014 0.47718 0.42035 0.0
N1143 N 0.25964 0.56376 0.4306 0.0
C1144 C 0.28887 0.54827 0.46322 0.0
C1145 C 0.2786 0.50179 0.45747 0.0
C1146 C 0.16921 0.36729 0.86203 0.0
C1147 C 0.1778 0.38402 0.81838 0.0
C1148 C 0.1664 0.39559 0.8849 0.0
C1149 C 0.17287 0.44176 0.865 0.0
H1150 H 0.16703 0.33337 0.87939 0.0
H1151 H 0.16195 0.38259 0.9193 0.0
S1152 S 0.18976 0.49857 0.74938 0.0
N1153 N 0.18835 0.44726 0.75469 0.0
N1154 N 0.1824 0.50001 0.79753 0.0
C1155 C 0.17826 0.45719 0.82035 0.0
C1156 C 0.18074 0.42833 0.79701 0.0
C1157 C 0.2172 0.35001 0.39072 0.0
C1158 C 0.25167 0.33664 0.41995 0.0
C1159 C 0.18875 0.35607 0.40805 0.0
C1160 C 0.19335 0.34863 0.45523 0.0
H1161 H 0.21279 0.3568 0.35413 0.0
H1162 H 0.16425 0.36831 0.38444 0.0
S1163 S 0.27394 0.30846 0.54608 0.0
N1164 N 0.28639 0.31329 0.49842 0.0
N1165 N 0.23118 0.32299 0.53059 0.0
C1166 C 0.22544 0.33267 0.48465 0.0
C1167 C 0.25476 0.32675 0.46708 0.0
loop_
_geom_bond_atom_site_label_1
_geom_bond_atom_site_label_2
_geom_bond_distance
_geom_bond_site_symmetry_2
_ccdc_geom_bond_type
Ho0 C3 2.811 . S
Ho0 O20 2.322 1_656 S
Ho0 O22 2.378 . S
Ho0 O23 2.524 1_655 S
Ho0 O24 2.379 1_556 S
Ho0 O25 2.669 1_556 S
Ho0 O27 2.346 . S
Ho0 O31 2.305 1_665 S
Ho1 C12 2.811 . S
Ho1 O21 2.346 . S
Ho1 O25 2.305 1_445 S
Ho1 O26 2.322 1_454 S
Ho1 O28 2.378 . S
Ho1 O29 2.524 1_455 S
Ho1 O30 2.381 . S
Ho1 O31 2.669 1_554 S
C2 O20 1.259 . S
C2 O21 1.268 1_565 S
C3 Ho0 2.811 . S
C3 C4 1.488 . S
C3 O22 1.215 . S
C3 O23 1.289 1_655 S
C4 C3 1.488 . S
C4 C5 1.348 1_655 S
C4 C9 1.413 . S
C5 C4 1.348 1_455 S
C5 C6 1.442 . S
C5 H32 0.930 . S
C6 C5 1.442 . S
C6 C7 1.381 . S
C6 H33 0.931 . S
C7 C6 1.381 . S
C7 C8 1.321 1_455 S
C8 C7 1.321 1_655 S
C8 C9 1.403 . S
C8 H34 0.934 . S
C9 C4 1.413 . S
C9 C8 1.403 . S
C9 H35 0.930 . S
C10 O24 1.276 . S
C10 O25 1.256 . S
C11 O26 1.259 . S
C11 O27 1.268 1_545 S
C12 Ho1 2.811 . S
C12 C13 1.488 . S
C12 O28 1.215 . S
C12 O29 1.289 1_455 S
C13 C12 1.488 . S
C13 C14 1.348 1_455 S
C13 C18 1.413 . S
C14 C13 1.348 1_655 S
C14 C15 1.442 . S
C14 H36 0.930 . S
C15 C14 1.442 . S
C15 C16 1.381 . S
C15 H37 0.931 . S
C16 C15 1.381 . S
C16 C17 1.321 1_655 S
C17 C16 1.321 1_455 S
C17 C18 1.403 . S
C17 H38 0.934 . S
C18 C13 1.413 . S
C18 C17 1.403 . S
C18 H39 0.930 . S
C19 O30 1.274 1_556 S
C19 O31 1.256 . S
O20 Ho0 2.322 1_454 S
O20 C2 1.259 . S
O21 Ho1 2.346 . S
O21 C2 1.268 1_545 S
O22 Ho0 2.378 . S
O22 C3 1.215 . S
O23 Ho0 2.524 1_455 S
O23 C3 1.289 1_455 S
O24 Ho0 2.379 1_554 S
O24 C10 1.276 . S
O25 Ho0 2.669 1_554 S
O25 Ho1 2.305 1_665 S
O25 C10 1.256 . S
O26 Ho1 2.322 1_656 S
O26 C11 1.259 . S
O27 Ho0 2.346 . S
O27 C11 1.268 1_565 S
O28 Ho1 2.378 . S
O28 C12 1.215 . S
O29 Ho1 2.524 1_655 S
O29 C12 1.289 1_655 S
O30 Ho1 2.381 . S
O30 C19 1.274 1_554 S
O31 Ho0 2.305 1_445 S
O31 Ho1 2.669 1_556 S
O31 C19 1.256 . S
H32 C5 0.930 . S
H33 C6 0.931 . S
H34 C8 0.934 . S
H35 C9 0.930 . S
H36 C14 0.930 . S
H37 C15 0.931 . S
H38 C17 0.934 . S
H39 C18 0.930 . S
Ho40 C43 2.811 . S
Ho40 O60 2.322 . S
Ho40 O62 2.378 . S
Ho40 O63 2.524 . S
Ho40 O64 2.381 . S
Ho40 O65 2.669 . S
Ho40 O67 2.346 . S
Ho40 O71 2.305 . S
Ho41 C52 2.811 . S
Ho41 O61 2.346 . S
Ho41 O65 2.305 . S
Ho41 O66 2.322 . S
Ho41 O68 2.378 . S
Ho41 O69 2.524 . S
Ho41 O70 2.381 . S
Ho41 O71 2.669 . S
C42 O60 1.259 . S
C42 O61 1.268 . S
C43 Ho40 2.811 . S
C43 C44 1.488 . S
C43 O62 1.215 . S
C43 O63 1.289 . S
C44 C43 1.488 . S
C44 C45 1.348 . S
C44 C49 1.413 . S
C45 C44 1.348 . S
C45 C46 1.442 . S
C45 H72 0.930 . S
C46 C45 1.442 . S
C46 C47 1.381 . S
C46 H73 0.931 . S
C47 C46 1.381 . S
C47 C48 1.321 . S
C48 C47 1.321 . S
C48 C49 1.403 . S
C48 H74 0.934 . S
C49 C44 1.413 . S
C49 C48 1.403 . S
C49 H75 0.930 . S
C50 O64 1.275 . S
C50 O65 1.256 . S
C51 O66 1.259 . S
C51 O67 1.268 . S
C52 Ho41 2.811 . S
C52 C53 1.488 . S
C52 O68 1.215 . S
C52 O69 1.289 . S
C53 C52 1.488 . S
C53 C54 1.348 . S
C53 C58 1.413 . S
C54 C53 1.348 . S
C54 C55 1.442 . S
C54 H76 0.930 . S
C55 C54 1.442 . S
C55 C56 1.381 . S
C55 H77 0.931 1_554 S
C56 C55 1.381 . S
C56 C57 1.321 . S
C57 C56 1.321 . S
C57 C58 1.403 . S
C57 H78 0.934 . S
C58 C53 1.413 . S
C58 C57 1.403 . S
C58 H79 0.930 . S
C59 O70 1.275 . S
C59 O71 1.256 . S
O60 Ho40 2.322 . S
O60 C42 1.259 . S
O61 Ho41 2.346 . S
O61 C42 1.268 . S
O62 Ho40 2.378 . S
O62 C43 1.215 . S
O63 Ho40 2.524 . S
O63 C43 1.289 . S
O64 Ho40 2.381 . S
O64 C50 1.275 . S
O65 Ho40 2.669 . S
O65 Ho41 2.305 . S
O65 C50 1.256 . S
O66 Ho41 2.322 . S
O66 C51 1.259 . S
O67 Ho40 2.346 . S
O67 C51 1.268 . S
O68 Ho41 2.378 . S
O68 C52 1.215 . S
O69 Ho41 2.524 . S
O69 C52 1.289 . S
O70 Ho41 2.381 . S
O70 C59 1.275 . S
O71 Ho40 2.305 . S
O71 Ho41 2.669 . S
O71 C59 1.256 . S
H72 C45 0.930 . S
H73 C46 0.931 . S
H74 C48 0.934 . S
H75 C49 0.930 . S
H76 C54 0.930 . S
H77 C55 0.931 1_556 S
H78 C57 0.934 . S
H79 C58 0.930 . S
Ho80 C83 2.811 . S
Ho80 O100 2.322 1_565 S
Ho80 O102 2.378 . S
Ho80 O103 2.524 1_565 S
Ho80 O104 2.381 . S
Ho80 O105 2.669 . S
Ho80 O107 2.346 . S
Ho80 O111 2.305 1_565 S
Ho81 C92 2.811 . S
Ho81 O101 2.346 . S
Ho81 O105 2.305 1_545 S
Ho81 O106 2.322 1_545 S
Ho81 O108 2.378 . S
Ho81 O109 2.524 1_545 S
Ho81 O110 2.381 . S
Ho81 O111 2.669 . S
C82 O100 1.259 . S
C82 O101 1.268 . S
C83 Ho80 2.811 . S
C83 C84 1.488 1_565 S
C83 O102 1.215 . S
C83 O103 1.289 1_565 S
C84 C83 1.488 1_545 S
C84 C85 1.348 . S
C84 C89 1.413 1_545 S
C85 C84 1.348 . S
C85 C86 1.442 . S
C85 H112 0.930 . S
C86 C85 1.442 . S
C86 C87 1.381 . S
C86 H113 0.931 . S
C87 C86 1.381 . S
C87 C88 1.321 1_545 S
C88 C87 1.321 1_565 S
C88 C89 1.403 . S
C88 H114 0.934 . S
C89 C84 1.413 1_565 S
C89 C88 1.403 . S
C89 H115 0.930 . S
C90 O104 1.275 . S
C90 O105 1.256 . S
C91 O106 1.259 . S
C91 O107 1.268 . S
C92 Ho81 2.811 . S
C92 C93 1.488 1_545 S
C92 O108 1.215 . S
C92 O109 1.289 1_545 S
C93 C92 1.488 1_565 S
C93 C94 1.348 . S
C93 C98 1.413 1_565 S
C94 C93 1.348 . S
C94 C95 1.442 . S
C94 H116 0.930 . S
C95 C94 1.442 . S
C95 C96 1.381 . S
C95 H117 0.931 . S
C96 C95 1.381 . S
C96 C97 1.321 1_565 S
C97 C96 1.321 1_545 S
C97 C98 1.403 . S
C97 H118 0.934 . S
C98 C93 1.413 1_545 S
C98 C97 1.403 . S
C98 H119 0.930 . S
C99 O110 1.275 . S
C99 O111 1.256 . S
O100 Ho80 2.322 1_545 S
O100 C82 1.259 . S
O101 Ho81 2.346 . S
O101 C82 1.268 . S
O102 Ho80 2.378 . S
O102 C83 1.215 . S
O103 Ho80 2.524 1_545 S
O103 C83 1.289 1_545 S
O104 Ho80 2.381 . S
O104 C90 1.275 . S
O105 Ho80 2.669 . S
O105 Ho81 2.305 1_565 S
O105 C90 1.256 . S
O106 Ho81 2.322 1_565 S
O106 C91 1.259 . S
O107 Ho80 2.346 . S
O107 C91 1.268 . S
O108 Ho81 2.378 . S
O108 C92 1.215 . S
O109 Ho81 2.524 1_565 S
O109 C92 1.289 1_565 S
O110 Ho81 2.381 . S
O110 C99 1.275 . S
O111 Ho80 2.305 1_545 S
O111 Ho81 2.669 . S
O111 C99 1.256 . S
H112 C85 0.930 . S
H113 C86 0.931 . S
H114 C88 0.934 . S
H115 C89 0.930 . S
H116 C94 0.930 . S
H117 C95 0.931 . S
H118 C97 0.934 . S
H119 C98 0.930 . S
Ho120 C123 2.811 . S
Ho120 O140 2.322 . S
Ho120 O142 2.378 . S
Ho120 O143 2.524 . S
Ho120 O144 2.381 . S
Ho120 O145 2.669 . S
Ho120 O147 2.346 . S
Ho120 O151 2.305 . S
Ho121 C132 2.811 . S
Ho121 O141 2.346 . S
Ho121 O145 2.305 . S
Ho121 O146 2.322 . S
Ho121 O148 2.378 . S
Ho121 O149 2.524 . S
Ho121 O150 2.381 . S
Ho121 O151 2.669 . S
C122 O140 1.259 . S
C122 O141 1.268 . S
C123 Ho120 2.811 . S
C123 C124 1.488 . S
C123 O142 1.215 . S
C123 O143 1.289 . S
C124 C123 1.488 . S
C124 C125 1.348 . S
C124 C129 1.413 . S
C125 C124 1.348 . S
C125 C126 1.442 . S
C125 H152 0.930 . S
C126 C125 1.442 . S
C126 C127 1.381 . S
C126 H153 0.931 . S
C127 C126 1.381 . S
C127 C128 1.321 . S
C128 C127 1.321 . S
C128 C129 1.403 . S
C128 H154 0.934 . S
C129 C124 1.413 . S
C129 C128 1.403 . S
C129 H155 0.930 . S
C130 O144 1.275 . S
C130 O145 1.256 . S
C131 O146 1.259 . S
C131 O147 1.268 . S
C132 Ho121 2.811 . S
C132 C133 1.488 . S
C132 O148 1.215 . S
C132 O149 1.289 . S
C133 C132 1.488 . S
C133 C134 1.348 . S
C133 C138 1.413 . S
C134 C133 1.348 . S
C134 C135 1.442 . S
C134 H156 0.930 . S
C135 C134 1.442 . S
C135 C136 1.381 . S
C135 H157 0.931 . S
C136 C135 1.381 . S
C136 C137 1.321 . S
C137 C136 1.321 . S
C137 C138 1.403 . S
C137 H158 0.934 . S
C138 C133 1.413 . S
C138 C137 1.403 . S
C138 H159 0.930 . S
C139 O150 1.275 . S
C139 O151 1.256 . S
O140 Ho120 2.322 . S
O140 C122 1.259 . S
O141 Ho121 2.346 . S
O141 C122 1.268 . S
O142 Ho120 2.378 . S
O142 C123 1.215 . S
O143 Ho120 2.524 . S
O143 C123 1.289 . S
O144 Ho120 2.381 . S
O144 C130 1.275 . S
O145 Ho120 2.669 . S
O145 Ho121 2.305 . S
O145 C130 1.256 . S
O146 Ho121 2.322 . S
O146 C131 1.259 . S
O147 Ho120 2.346 . S
O147 C131 1.268 . S
O148 Ho121 2.378 . S
O148 C132 1.215 . S
O149 Ho121 2.524 . S
O149 C132 1.289 . S
O150 Ho121 2.381 . S
O150 C139 1.275 . S
O151 Ho120 2.305 . S
O151 Ho121 2.669 . S
O151 C139 1.256 . S
H152 C125 0.930 . S
H153 C126 0.931 . S
H154 C128 0.934 . S
H155 C129 0.930 . S
H156 C134 0.930 . S
H157 C135 0.931 . S
H158 C137 0.934 . S
H159 C138 0.930 . S
Ho160 C163 2.811 . S
Ho160 O180 2.322 1_455 S
Ho160 O182 2.378 . S
Ho160 O183 2.524 . S
Ho160 O184 2.381 1_455 S
Ho160 O185 2.669 1_455 S
Ho160 O187 2.346 1_565 S
Ho160 O191 2.305 1_565 S
Ho161 C172 2.811 . S
Ho161 O181 2.346 1_545 S
Ho161 O185 2.305 1_545 S
Ho161 O186 2.322 1_655 S
Ho161 O188 2.378 . S
Ho161 O189 2.524 . S
Ho161 O190 2.381 1_655 S
Ho161 O191 2.669 1_655 S
C162 O180 1.259 . S
C162 O181 1.268 . S
C163 Ho160 2.811 . S
C163 C164 1.488 . S
C163 O182 1.215 . S
C163 O183 1.289 . S
C164 C163 1.488 . S
C164 C165 1.348 . S
C164 C169 1.413 . S
C165 C164 1.348 . S
C165 C166 1.442 . S
C165 H192 0.930 . S
C166 C165 1.442 . S
C166 C167 1.381 . S
C166 H193 0.931 . S
C167 C166 1.381 . S
C167 C168 1.321 . S
C168 C167 1.321 . S
C168 C169 1.403 . S
C168 H194 0.934 . S
C169 C164 1.413 . S
C169 C168 1.403 . S
C169 H195 0.930 . S
C170 O184 1.275 . S
C170 O185 1.256 . S
C171 O186 1.259 . S
C171 O187 1.268 . S
C172 Ho161 2.811 . S
C172 C173 1.488 . S
C172 O188 1.215 . S
C172 O189 1.289 . S
C173 C172 1.488 . S
C173 C174 1.348 . S
C173 C178 1.413 . S
C174 C173 1.348 . S
C174 C175 1.442 . S
C174 H196 0.930 . S
C175 C174 1.442 . S
C175 C176 1.381 . S
C175 H197 0.931 . S
C176 C175 1.381 . S
C176 C177 1.321 . S
C177 C176 1.321 . S
C177 C178 1.403 . S
C177 H198 0.934 . S
C178 C173 1.413 . S
C178 C177 1.403 . S
C178 H199 0.930 . S
C179 O190 1.275 . S
C179 O191 1.256 . S
O180 Ho160 2.322 1_655 S
O180 C162 1.259 . S
O181 Ho161 2.346 1_565 S
O181 C162 1.268 . S
O182 Ho160 2.378 . S
O182 C163 1.215 . S
O183 Ho160 2.524 . S
O183 C163 1.289 . S
O184 Ho160 2.381 1_655 S
O184 C170 1.275 . S
O185 Ho160 2.669 1_655 S
O185 Ho161 2.305 1_565 S
O185 C170 1.256 . S
O186 Ho161 2.322 1_455 S
O186 C171 1.259 . S
O187 Ho160 2.346 1_545 S
O187 C171 1.268 . S
O188 Ho161 2.378 . S
O188 C172 1.215 . S
O189 Ho161 2.524 . S
O189 C172 1.289 . S
O190 Ho161 2.381 1_455 S
O190 C179 1.275 . S
O191 Ho160 2.305 1_545 S
O191 Ho161 2.669 1_455 S
O191 C179 1.256 . S
H192 C165 0.930 . S
H193 C166 0.931 . S
H194 C168 0.934 . S
H195 C169 0.930 . S
H196 C174 0.930 . S
H197 C175 0.931 . S
H198 C177 0.934 . S
H199 C178 0.930 . S
Ho200 C203 2.811 . S
Ho200 O220 2.322 . S
Ho200 O222 2.378 . S
Ho200 O223 2.524 . S
Ho200 O224 2.381 . S
Ho200 O225 2.669 . S
Ho200 O227 2.346 . S
Ho200 O231 2.305 . S
Ho201 C212 2.811 . S
Ho201 O221 2.346 . S
Ho201 O225 2.305 . S
Ho201 O226 2.322 . S
Ho201 O228 2.378 . S
Ho201 O229 2.524 . S
Ho201 O230 2.381 . S
Ho201 O231 2.669 . S
C202 O220 1.259 . S
C202 O221 1.268 . S
C203 Ho200 2.811 . S
C203 C204 1.488 . S
C203 O222 1.215 . S
C203 O223 1.289 . S
C204 C203 1.488 . S
C204 C205 1.348 . S
C204 C209 1.413 . S
C205 C204 1.348 . S
C205 C206 1.442 . S
C205 H232 0.930 . S
C206 C205 1.442 . S
C206 C207 1.381 . S
C206 H233 0.931 . S
C207 C206 1.381 . S
C207 C208 1.321 . S
C208 C207 1.321 . S
C208 C209 1.403 . S
C208 H234 0.934 . S
C209 C204 1.413 . S
C209 C208 1.403 . S
C209 H235 0.930 . S
C210 O224 1.275 . S
C210 O225 1.256 . S
C211 O226 1.259 . S
C211 O227 1.268 . S
C212 Ho201 2.811 . S
C212 C213 1.488 . S
C212 O228 1.215 . S
C212 O229 1.289 . S
C213 C212 1.488 . S
C213 C214 1.348 . S
C213 C218 1.413 . S
C214 C213 1.348 . S
C214 C215 1.442 . S
C214 H236 0.930 . S
C215 C214 1.442 . S
C215 C216 1.381 . S
C215 H237 0.931 . S
C216 C215 1.381 . S
C216 C217 1.321 . S
C217 C216 1.321 . S
C217 C218 1.403 . S
C217 H238 0.934 . S
C218 C213 1.413 . S
C218 C217 1.403 . S
C218 H239 0.930 . S
C219 O230 1.275 . S
C219 O231 1.256 . S
O220 Ho200 2.322 . S
O220 C202 1.259 . S
O221 Ho201 2.346 . S
O221 C202 1.268 . S
O222 Ho200 2.378 . S
O222 C203 1.215 . S
O223 Ho200 2.524 . S
O223 C203 1.289 . S
O224 Ho200 2.381 . S
O224 C210 1.275 . S
O225 Ho200 2.669 . S
O225 Ho201 2.305 . S
O225 C210 1.256 . S
O226 Ho201 2.322 . S
O226 C211 1.259 . S
O227 Ho200 2.346 . S
O227 C211 1.268 . S
O228 Ho201 2.378 . S
O228 C212 1.215 . S
O229 Ho201 2.524 . S
O229 C212 1.289 . S
O230 Ho201 2.381 . S
O230 C219 1.275 . S
O231 Ho200 2.305 . S
O231 Ho201 2.669 . S
O231 C219 1.256 . S
H232 C205 0.930 . S
H233 C206 0.931 . S
H234 C208 0.934 . S
H235 C209 0.930 . S
H236 C214 0.930 . S
H237 C215 0.931 . S
H238 C217 0.934 . S
H239 C218 0.930 . S
Ho240 C243 2.811 1_554 S
Ho240 O260 2.322 1_564 S
Ho240 O262 2.378 . S
Ho240 O263 2.524 1_554 S
Ho240 O264 2.381 1_565 S
Ho240 O265 2.669 1_565 S
Ho240 O267 2.346 . S
Ho240 O271 2.305 1_554 S
Ho241 C252 2.811 1_556 S
Ho241 O261 2.346 . S
Ho241 O265 2.305 1_556 S
Ho241 O266 2.322 1_546 S
Ho241 O268 2.378 . S
Ho241 O269 2.524 1_556 S
Ho241 O270 2.381 1_545 S
Ho241 O271 2.669 1_545 S
C242 O260 1.259 . S
C242 O261 1.268 . S
C243 Ho240 2.811 1_556 S
C243 C244 1.488 . S
C243 O262 1.215 1_556 S
C243 O263 1.289 . S
C244 C243 1.488 . S
C244 C245 1.348 . S
C244 C249 1.413 1_556 S
C245 C244 1.348 . S
C245 C246 1.442 . S
C245 H272 0.930 . S
C246 C245 1.442 . S
C246 C247 1.381 . S
C246 H273 0.931 . S
C247 C246 1.381 . S
C247 C248 1.306 1_556 S
C248 C247 1.306 1_554 S
C248 C249 1.411 . S
C248 H274 0.941 . S
C249 C244 1.413 1_554 S
C249 C248 1.411 . S
C249 H275 0.930 . S
C250 O264 1.275 . S
C250 O265 1.256 . S
C251 O266 1.259 . S
C251 O267 1.268 . S
C252 Ho241 2.811 1_554 S
C252 C253 1.488 . S
C252 O268 1.215 1_554 S
C252 O269 1.289 . S
C253 C252 1.488 . S
C253 C254 1.348 . S
C253 C258 1.413 1_554 S
C254 C253 1.348 . S
C254 C255 1.442 . S
C254 H276 0.930 . S
C255 C254 1.442 . S
C255 C256 1.381 . S
C255 H277 0.931 . S
C256 C255 1.381 . S
C256 C257 1.314 1_554 S
C257 C256 1.314 1_556 S
C257 C258 1.407 . S
C257 H278 0.937 . S
C258 C253 1.413 1_556 S
C258 C257 1.407 . S
C258 H279 0.930 . S
C259 O270 1.275 . S
C259 O271 1.256 . S
O260 Ho240 2.322 1_546 S
O260 C242 1.259 . S
O261 Ho241 2.346 . S
O261 C242 1.268 . S
O262 Ho240 2.378 . S
O262 C243 1.215 1_554 S
O263 Ho240 2.524 1_556 S
O263 C243 1.289 . S
O264 Ho240 2.381 1_545 S
O264 C250 1.275 . S
O265 Ho240 2.669 1_545 S
O265 Ho241 2.305 1_554 S
O265 C250 1.256 . S
O266 Ho241 2.322 1_564 S
O266 C251 1.259 . S
O267 Ho240 2.346 . S
O267 C251 1.268 . S
O268 Ho241 2.378 . S
O268 C252 1.215 1_556 S
O269 Ho241 2.524 1_554 S
O269 C252 1.289 . S
O270 Ho241 2.381 1_565 S
O270 C259 1.275 . S
O271 Ho240 2.305 1_556 S
O271 Ho241 2.669 1_565 S
O271 C259 1.256 . S
H272 C245 0.930 . S
H273 C246 0.931 . S
H274 C248 0.941 . S
H275 C249 0.930 . S
H276 C254 0.930 . S
H277 C255 0.931 . S
H278 C257 0.937 . S
H279 C258 0.930 . S
Ho280 C283 2.811 . S
Ho280 O300 2.322 . S
Ho280 O302 2.378 . S
Ho280 O303 2.524 . S
Ho280 O304 2.381 . S
Ho280 O305 2.669 . S
Ho280 O307 2.346 . S
Ho280 O311 2.305 . S
Ho281 C292 2.811 . S
Ho281 O301 2.346 . S
Ho281 O305 2.305 . S
Ho281 O306 2.322 . S
Ho281 O308 2.378 . S
Ho281 O309 2.524 . S
Ho281 O310 2.381 . S
Ho281 O311 2.669 . S
C282 O300 1.259 . S
C282 O301 1.268 . S
C283 Ho280 2.811 . S
C283 C284 1.488 . S
C283 O302 1.215 . S
C283 O303 1.289 . S
C284 C283 1.488 . S
C284 C285 1.348 . S
C284 C289 1.413 . S
C285 C284 1.348 . S
C285 C286 1.442 . S
C285 H312 0.930 . S
C286 C285 1.442 . S
C286 C287 1.381 . S
C286 H313 0.931 . S
C287 C286 1.381 . S
C287 C288 1.321 . S
C288 C287 1.321 . S
C288 C289 1.403 . S
C288 H314 0.934 . S
C289 C284 1.413 . S
C289 C288 1.403 . S
C289 H315 0.930 . S
C290 O304 1.275 . S
C290 O305 1.256 . S
C291 O306 1.259 . S
C291 O307 1.268 . S
C292 Ho281 2.811 . S
C292 C293 1.488 . S
C292 O308 1.215 . S
C292 O309 1.289 . S
C293 C292 1.488 . S
C293 C294 1.348 . S
C293 C298 1.413 . S
C294 C293 1.348 . S
C294 C295 1.442 . S
C294 H316 0.930 . S
C295 C294 1.442 . S
C295 C296 1.381 . S
C295 H317 0.931 . S
C296 C295 1.381 . S
C296 C297 1.321 . S
C297 C296 1.321 . S
C297 C298 1.403 . S
C297 H318 0.934 . S
C298 C293 1.413 . S
C298 C297 1.403 . S
C298 H319 0.930 . S
C299 O310 1.275 . S
C299 O311 1.256 . S
O300 Ho280 2.322 . S
O300 C282 1.259 . S
O301 Ho281 2.346 . S
O301 C282 1.268 . S
O302 Ho280 2.378 . S
O302 C283 1.215 . S
O303 Ho280 2.524 . S
O303 C283 1.289 . S
O304 Ho280 2.381 . S
O304 C290 1.275 . S
O305 Ho280 2.669 . S
O305 Ho281 2.305 . S
O305 C290 1.256 . S
O306 Ho281 2.322 . S
O306 C291 1.259 . S
O307 Ho280 2.346 . S
O307 C291 1.268 . S
O308 Ho281 2.378 . S
O308 C292 1.215 . S
O309 Ho281 2.524 . S
O309 C292 1.289 . S
O310 Ho281 2.381 . S
O310 C299 1.275 . S
O311 Ho280 2.305 . S
O311 Ho281 2.669 . S
O311 C299 1.256 . S
H312 C285 0.930 . S
H313 C286 0.931 . S
H314 C288 0.934 . S
H315 C289 0.930 . S
H316 C294 0.930 . S
H317 C295 0.931 . S
H318 C297 0.934 . S
H319 C298 0.930 . S
Ho320 C323 2.811 . S
Ho320 O340 2.322 . S
Ho320 O342 2.378 . S
Ho320 O343 2.524 . S
Ho320 O344 2.381 1_554 S
Ho320 O345 2.669 1_554 S
Ho320 O347 2.346 1_554 S
Ho320 O351 2.305 . S
Ho321 C332 2.811 . S
Ho321 O341 2.346 1_556 S
Ho321 O345 2.305 . S
Ho321 O346 2.322 . S
Ho321 O348 2.378 . S
Ho321 O349 2.524 . S
Ho321 O350 2.381 1_556 S
Ho321 O351 2.669 1_556 S
C322 O340 1.259 . S
C322 O341 1.268 . S
C323 Ho320 2.811 . S
C323 C324 1.488 . S
C323 O342 1.215 . S
C323 O343 1.289 . S
C324 C323 1.488 . S
C324 C325 1.348 . S
C324 C329 1.413 . S
C325 C324 1.348 . S
C325 C326 1.442 . S
C325 H352 0.930 . S
C326 C325 1.442 . S
C326 C327 1.381 . S
C326 H353 0.931 . S
C327 C326 1.381 . S
C327 C328 1.321 . S
C328 C327 1.321 . S
C328 C329 1.403 . S
C328 H354 0.934 . S
C329 C324 1.413 . S
C329 C328 1.403 . S
C329 H355 0.930 . S
C330 O344 1.275 . S
C330 O345 1.256 . S
C331 O346 1.259 . S
C331 O347 1.268 . S
C332 Ho321 2.811 . S
C332 C333 1.488 . S
C332 O348 1.215 . S
C332 O349 1.289 . S
C333 C332 1.488 . S
C333 C334 1.348 . S
C333 C338 1.413 . S
C334 C333 1.348 . S
C334 C335 1.442 . S
C334 H356 0.930 . S
C335 C334 1.442 . S
C335 C336 1.381 . S
C335 H357 0.931 . S
C336 C335 1.381 . S
C336 C337 1.321 . S
C337 C336 1.321 . S
C337 C338 1.403 . S
C337 H358 0.934 . S
C338 C333 1.413 . S
C338 C337 1.403 . S
C338 H359 0.930 . S
C339 O350 1.275 . S
C339 O351 1.256 . S
O340 Ho320 2.322 . S
O340 C322 1.259 . S
O341 Ho321 2.346 1_554 S
O341 C322 1.268 . S
O342 Ho320 2.378 . S
O342 C323 1.215 . S
O343 Ho320 2.524 . S
O343 C323 1.289 . S
O344 Ho320 2.381 1_556 S
O344 C330 1.275 . S
O345 Ho320 2.669 1_556 S
O345 Ho321 2.305 . S
O345 C330 1.256 . S
O346 Ho321 2.322 . S
O346 C331 1.259 . S
O347 Ho320 2.346 1_556 S
O347 C331 1.268 . S
O348 Ho321 2.378 . S
O348 C332 1.215 . S
O349 Ho321 2.524 . S
O349 C332 1.289 . S
O350 Ho321 2.381 1_554 S
O350 C339 1.275 . S
O351 Ho320 2.305 . S
O351 Ho321 2.669 1_554 S
O351 C339 1.256 . S
H352 C325 0.930 . S
H353 C326 0.931 . S
H354 C328 0.934 . S
H355 C329 0.930 . S
H356 C334 0.930 . S
H357 C335 0.931 . S
H358 C337 0.934 . S
H359 C338 0.930 . S
Ho360 C363 2.811 . S
Ho360 O380 2.322 . S
Ho360 O382 2.378 . S
Ho360 O383 2.524 . S
Ho360 O384 2.381 . S
Ho360 O385 2.669 . S
Ho360 O387 2.346 . S
Ho360 O391 2.305 . S
Ho361 C372 2.811 . S
Ho361 O381 2.346 . S
Ho361 O385 2.305 . S
Ho361 O386 2.322 . S
Ho361 O388 2.378 . S
Ho361 O389 2.524 . S
Ho361 O390 2.381 . S
Ho361 O391 2.669 . S
C362 O380 1.259 . S
C362 O381 1.268 . S
C363 Ho360 2.811 . S
C363 C364 1.488 . S
C363 O382 1.215 . S
C363 O383 1.289 . S
C364 C363 1.488 . S
C364 C365 1.348 . S
C364 C369 1.413 . S
C365 C364 1.348 . S
C365 C366 1.442 . S
C365 H392 0.930 . S
C366 C365 1.442 . S
C366 C367 1.381 . S
C366 H393 0.931 . S
C367 C366 1.381 . S
C367 C368 1.321 . S
C368 C367 1.321 . S
C368 C369 1.403 . S
C368 H394 0.934 . S
C369 C364 1.413 . S
C369 C368 1.403 . S
C369 H395 0.930 . S
C370 O384 1.275 . S
C370 O385 1.256 . S
C371 O386 1.259 . S
C371 O387 1.268 . S
C372 Ho361 2.811 . S
C372 C373 1.488 . S
C372 O388 1.215 . S
C372 O389 1.289 . S
C373 C372 1.488 . S
C373 C374 1.348 . S
C373 C378 1.413 . S
C374 C373 1.348 . S
C374 C375 1.442 . S
C374 H396 0.930 . S
C375 C374 1.442 . S
C375 C376 1.381 . S
C375 H397 0.931 . S
C376 C375 1.381 . S
C376 C377 1.321 . S
C377 C376 1.321 . S
C377 C378 1.403 . S
C377 H398 0.934 . S
C378 C373 1.413 . S
C378 C377 1.403 . S
C378 H399 0.930 . S
C379 O390 1.275 . S
C379 O391 1.256 . S
O380 Ho360 2.322 . S
O380 C362 1.259 . S
O381 Ho361 2.346 . S
O381 C362 1.268 . S
O382 Ho360 2.378 . S
O382 C363 1.215 . S
O383 Ho360 2.524 . S
O383 C363 1.289 . S
O384 Ho360 2.381 . S
O384 C370 1.275 . S
O385 Ho360 2.669 . S
O385 Ho361 2.305 . S
O385 C370 1.256 . S
O386 Ho361 2.322 . S
O386 C371 1.259 . S
O387 Ho360 2.346 . S
O387 C371 1.268 . S
O388 Ho361 2.378 . S
O388 C372 1.215 . S
O389 Ho361 2.524 . S
O389 C372 1.289 . S
O390 Ho361 2.381 . S
O390 C379 1.275 . S
O391 Ho360 2.305 . S
O391 Ho361 2.669 . S
O391 C379 1.256 . S
H392 C365 0.930 . S
H393 C366 0.931 . S
H394 C368 0.934 . S
H395 C369 0.930 . S
H396 C374 0.930 . S
H397 C375 0.931 . S
H398 C377 0.934 . S
H399 C378 0.930 . S
Ho400 C403 2.811 . S
Ho400 O420 2.322 . S
Ho400 O422 2.378 . S
Ho400 O423 2.524 . S
Ho400 O424 2.381 . S
Ho400 O425 2.669 . S
Ho400 O427 2.346 1_455 S
Ho400 O431 2.305 1_455 S
Ho401 C412 2.811 . S
Ho401 O421 2.346 1_655 S
Ho401 O425 2.305 1_655 S
Ho401 O426 2.322 . S
Ho401 O428 2.378 . S
Ho401 O429 2.524 . S
Ho401 O430 2.381 . S
Ho401 O431 2.669 . S
C402 O420 1.259 . S
C402 O421 1.268 . S
C403 Ho400 2.811 . S
C403 C404 1.488 . S
C403 O422 1.215 . S
C403 O423 1.289 . S
C404 C403 1.488 . S
C404 C405 1.348 . S
C404 C409 1.413 . S
C405 C404 1.348 . S
C405 C406 1.442 . S
C405 H432 0.930 . S
C406 C405 1.442 . S
C406 C407 1.381 . S
C406 H433 0.931 . S
C407 C406 1.381 . S
C407 C408 1.321 . S
C408 C407 1.321 . S
C408 C409 1.403 . S
C408 H434 0.934 . S
C409 C404 1.413 . S
C409 C408 1.403 . S
C409 H435 0.930 . S
C410 O424 1.275 . S
C410 O425 1.256 . S
C411 O426 1.259 . S
C411 O427 1.268 . S
C412 Ho401 2.811 . S
C412 C413 1.488 . S
C412 O428 1.215 . S
C412 O429 1.289 . S
C413 C412 1.488 . S
C413 C414 1.348 . S
C413 C418 1.413 . S
C414 C413 1.348 . S
C414 C415 1.442 . S
C414 H436 0.930 . S
C415 C414 1.442 . S
C415 C416 1.381 . S
C415 H437 0.931 . S
C416 C415 1.381 . S
C416 C417 1.321 . S
C417 C416 1.321 . S
C417 C418 1.403 . S
C417 H438 0.934 . S
C418 C413 1.413 . S
C418 C417 1.403 . S
C418 H439 0.930 . S
C419 O430 1.275 . S
C419 O431 1.256 . S
O420 Ho400 2.322 . S
O420 C402 1.259 . S
O421 Ho401 2.346 1_455 S
O421 C402 1.268 . S
O422 Ho400 2.378 . S
O422 C403 1.215 . S
O423 Ho400 2.524 . S
O423 C403 1.289 . S
O424 Ho400 2.381 . S
O424 C410 1.275 . S
O425 Ho400 2.669 . S
O425 Ho401 2.305 1_455 S
O425 C410 1.256 . S
O426 Ho401 2.322 . S
O426 C411 1.259 . S
O427 Ho400 2.346 1_655 S
O427 C411 1.268 . S
O428 Ho401 2.378 . S
O428 C412 1.215 . S
O429 Ho401 2.524 . S
O429 C412 1.289 . S
O430 Ho401 2.381 . S
O430 C419 1.275 . S
O431 Ho400 2.305 1_655 S
O431 Ho401 2.669 . S
O431 C419 1.256 . S
H432 C405 0.930 . S
H433 C406 0.931 . S
H434 C408 0.934 . S
H435 C409 0.930 . S
H436 C414 0.930 . S
H437 C415 0.931 . S
H438 C417 0.934 . S
H439 C418 0.930 . S
Ho440 C443 2.811 . S
Ho440 O460 2.322 . S
Ho440 O462 2.378 . S
Ho440 O463 2.524 . S
Ho440 O464 2.381 . S
Ho440 O465 2.669 . S
Ho440 O467 2.346 . S
Ho440 O471 2.305 . S
Ho441 C452 2.811 . S
Ho441 O461 2.346 . S
Ho441 O465 2.305 . S
Ho441 O466 2.322 . S
Ho441 O468 2.378 . S
Ho441 O469 2.524 . S
Ho441 O470 2.381 . S
Ho441 O471 2.669 . S
C442 O460 1.259 . S
C442 O461 1.268 . S
C443 Ho440 2.811 . S
C443 C444 1.488 . S
C443 O462 1.215 . S
C443 O463 1.289 . S
C444 C443 1.488 . S
C444 C445 1.348 . S
C444 C449 1.413 . S
C445 C444 1.348 . S
C445 C446 1.442 . S
C445 H472 0.930 . S
C446 C445 1.442 . S
C446 C447 1.381 . S
C446 H473 0.931 . S
C447 C446 1.381 . S
C447 C448 1.321 . S
C448 C447 1.321 . S
C448 C449 1.403 . S
C448 H474 0.934 . S
C449 C444 1.413 . S
C449 C448 1.403 . S
C449 H475 0.930 . S
C450 O464 1.275 . S
C450 O465 1.256 . S
C451 O466 1.259 . S
C451 O467 1.268 . S
C452 Ho441 2.811 . S
C452 C453 1.488 . S
C452 O468 1.215 . S
C452 O469 1.289 . S
C453 C452 1.488 . S
C453 C454 1.348 . S
C453 C458 1.413 . S
C454 C453 1.348 . S
C454 C455 1.442 . S
C454 H476 0.930 . S
C455 C454 1.442 . S
C455 C456 1.381 . S
C455 H477 0.931 . S
C456 C455 1.381 . S
C456 C457 1.321 . S
C457 C456 1.321 . S
C457 C458 1.403 . S
C457 H478 0.934 . S
C458 C453 1.413 . S
C458 C457 1.403 . S
C458 H479 0.930 . S
C459 O470 1.275 . S
C459 O471 1.256 . S
O460 Ho440 2.322 . S
O460 C442 1.259 . S
O461 Ho441 2.346 . S
O461 C442 1.268 . S
O462 Ho440 2.378 . S
O462 C443 1.215 . S
O463 Ho440 2.524 . S
O463 C443 1.289 . S
O464 Ho440 2.381 . S
O464 C450 1.275 . S
O465 Ho440 2.669 . S
O465 Ho441 2.305 . S
O465 C450 1.256 . S
O466 Ho441 2.322 . S
O466 C451 1.259 . S
O467 Ho440 2.346 . S
O467 C451 1.268 . S
O468 Ho441 2.378 . S
O468 C452 1.215 . S
O469 Ho441 2.524 . S
O469 C452 1.289 . S
O470 Ho441 2.381 . S
O470 C459 1.275 . S
O471 Ho440 2.305 . S
O471 Ho441 2.669 . S
O471 C459 1.256 . S
H472 C445 0.930 . S
H473 C446 0.931 . S
H474 C448 0.934 . S
H475 C449 0.930 . S
H476 C454 0.930 . S
H477 C455 0.931 . S
H478 C457 0.934 . S
H479 C458 0.930 . S
Ho480 C483 2.811 . S
Ho480 O500 2.322 . S
Ho480 O502 2.378 . S
Ho480 O503 2.524 . S
Ho480 O504 2.381 . S
Ho480 O505 2.669 . S
Ho480 O507 2.346 . S
Ho480 O511 2.305 . S
Ho481 C492 2.811 . S
Ho481 O501 2.346 . S
Ho481 O505 2.305 . S
Ho481 O506 2.322 . S
Ho481 O508 2.378 . S
Ho481 O509 2.524 . S
Ho481 O510 2.381 . S
Ho481 O511 2.669 . S
C482 O500 1.259 . S
C482 O501 1.268 . S
C483 Ho480 2.811 . S
C483 C484 1.488 . S
C483 O502 1.215 . S
C483 O503 1.289 . S
C484 C483 1.488 . S
C484 C485 1.348 . S
C484 C489 1.413 . S
C485 C484 1.348 . S
C485 C486 1.442 . S
C485 H512 0.930 . S
C486 C485 1.442 . S
C486 C487 1.381 . S
C486 H513 0.931 1_556 S
C487 C486 1.381 . S
C487 C488 1.321 . S
C488 C487 1.321 . S
C488 C489 1.403 . S
C488 H514 0.934 . S
C489 C484 1.413 . S
C489 C488 1.403 . S
C489 H515 0.930 . S
C490 O504 1.275 . S
C490 O505 1.256 . S
C491 O506 1.259 . S
C491 O507 1.268 . S
C492 Ho481 2.811 . S
C492 C493 1.488 . S
C492 O508 1.215 . S
C492 O509 1.289 . S
C493 C492 1.488 . S
C493 C494 1.348 . S
C493 C498 1.413 . S
C494 C493 1.348 . S
C494 C495 1.442 . S
C494 H516 0.930 . S
C495 C494 1.442 . S
C495 C496 1.381 . S
C495 H517 0.931 . S
C496 C495 1.381 . S
C496 C497 1.321 . S
C497 C496 1.321 . S
C497 C498 1.403 . S
C497 H518 0.934 . S
C498 C493 1.413 . S
C498 C497 1.403 . S
C498 H519 0.930 . S
C499 O510 1.275 . S
C499 O511 1.256 . S
O500 Ho480 2.322 . S
O500 C482 1.259 . S
O501 Ho481 2.346 . S
O501 C482 1.268 . S
O502 Ho480 2.378 . S
O502 C483 1.215 . S
O503 Ho480 2.524 . S
O503 C483 1.289 . S
O504 Ho480 2.381 . S
O504 C490 1.275 . S
O505 Ho480 2.669 . S
O505 Ho481 2.305 . S
O505 C490 1.256 . S
O506 Ho481 2.322 . S
O506 C491 1.259 . S
O507 Ho480 2.346 . S
O507 C491 1.268 . S
O508 Ho481 2.378 . S
O508 C492 1.215 . S
O509 Ho481 2.524 . S
O509 C492 1.289 . S
O510 Ho481 2.381 . S
O510 C499 1.275 . S
O511 Ho480 2.305 . S
O511 Ho481 2.669 . S
O511 C499 1.256 . S
H512 C485 0.930 . S
H513 C486 0.931 1_554 S
H514 C488 0.934 . S
H515 C489 0.930 . S
H516 C494 0.930 . S
H517 C495 0.931 . S
H518 C497 0.934 . S
H519 C498 0.930 . S
Ho520 C523 2.811 . S
Ho520 O540 2.322 . S
Ho520 O542 2.378 . S
Ho520 O543 2.524 . S
Ho520 O544 2.381 . S
Ho520 O545 2.669 . S
Ho520 O547 2.346 . S
Ho520 O551 2.305 . S
Ho521 C532 2.811 . S
Ho521 O541 2.346 . S
Ho521 O545 2.305 . S
Ho521 O546 2.322 . S
Ho521 O548 2.378 . S
Ho521 O549 2.524 . S
Ho521 O550 2.381 . S
Ho521 O551 2.669 . S
C522 O540 1.259 . S
C522 O541 1.268 . S
C523 Ho520 2.811 . S
C523 C524 1.488 . S
C523 O542 1.215 . S
C523 O543 1.289 . S
C524 C523 1.488 . S
C524 C525 1.348 . S
C524 C529 1.413 . S
C525 C524 1.348 . S
C525 C526 1.442 . S
C525 H552 0.930 . S
C526 C525 1.442 . S
C526 C527 1.381 . S
C526 H553 0.931 . S
C527 C526 1.381 . S
C527 C528 1.321 . S
C528 C527 1.321 . S
C528 C529 1.403 . S
C528 H554 0.934 . S
C529 C524 1.413 . S
C529 C528 1.403 . S
C529 H555 0.930 . S
C530 O544 1.275 . S
C530 O545 1.256 . S
C531 O546 1.259 . S
C531 O547 1.268 . S
C532 Ho521 2.811 . S
C532 C533 1.488 . S
C532 O548 1.215 . S
C532 O549 1.289 . S
C533 C532 1.488 . S
C533 C534 1.348 . S
C533 C538 1.413 . S
C534 C533 1.348 . S
C534 C535 1.442 . S
C534 H556 0.930 . S
C535 C534 1.442 . S
C535 C536 1.381 . S
C535 H557 0.931 . S
C536 C535 1.381 . S
C536 C537 1.321 . S
C537 C536 1.321 . S
C537 C538 1.403 . S
C537 H558 0.934 . S
C538 C533 1.413 . S
C538 C537 1.403 . S
C538 H559 0.930 . S
C539 O550 1.275 . S
C539 O551 1.256 . S
O540 Ho520 2.322 . S
O540 C522 1.259 . S
O541 Ho521 2.346 . S
O541 C522 1.268 . S
O542 Ho520 2.378 . S
O542 C523 1.215 . S
O543 Ho520 2.524 . S
O543 C523 1.289 . S
O544 Ho520 2.381 . S
O544 C530 1.275 . S
O545 Ho520 2.669 . S
O545 Ho521 2.305 . S
O545 C530 1.256 . S
O546 Ho521 2.322 . S
O546 C531 1.259 . S
O547 Ho520 2.346 . S
O547 C531 1.268 . S
O548 Ho521 2.378 . S
O548 C532 1.215 . S
O549 Ho521 2.524 . S
O549 C532 1.289 . S
O550 Ho521 2.381 . S
O550 C539 1.275 . S
O551 Ho520 2.305 . S
O551 Ho521 2.669 . S
O551 C539 1.256 . S
H552 C525 0.930 . S
H553 C526 0.931 . S
H554 C528 0.934 . S
H555 C529 0.930 . S
H556 C534 0.930 . S
H557 C535 0.931 . S
H558 C537 0.934 . S
H559 C538 0.930 . S
Ho560 C563 2.811 . S
Ho560 O580 2.322 . S
Ho560 O582 2.378 . S
Ho560 O583 2.524 . S
Ho560 O584 2.381 . S
Ho560 O585 2.669 . S
Ho560 O587 2.346 . S
Ho560 O591 2.305 . S
Ho561 C572 2.811 . S
Ho561 O581 2.346 . S
Ho561 O585 2.305 . S
Ho561 O586 2.322 . S
Ho561 O588 2.378 . S
Ho561 O589 2.524 . S
Ho561 O590 2.381 . S
Ho561 O591 2.669 . S
C562 O580 1.259 . S
C562 O581 1.268 . S
C563 Ho560 2.811 . S
C563 C564 1.488 . S
C563 O582 1.215 . S
C563 O583 1.289 . S
C564 C563 1.488 . S
C564 C565 1.348 . S
C564 C569 1.413 . S
C565 C564 1.348 . S
C565 C566 1.442 . S
C565 H592 0.930 . S
C566 C565 1.442 . S
C566 C567 1.381 . S
C566 H593 0.931 . S
C567 C566 1.381 . S
C567 C568 1.321 . S
C568 C567 1.321 . S
C568 C569 1.403 . S
C568 H594 0.934 . S
C569 C564 1.413 . S
C569 C568 1.403 . S
C569 H595 0.930 . S
C570 O584 1.275 . S
C570 O585 1.256 . S
C571 O586 1.259 . S
C571 O587 1.268 . S
C572 Ho561 2.811 . S
C572 C573 1.488 . S
C572 O588 1.215 . S
C572 O589 1.289 . S
C573 C572 1.488 . S
C573 C574 1.348 . S
C573 C578 1.413 . S
C574 C573 1.348 . S
C574 C575 1.442 . S
C574 H596 0.930 . S
C575 C574 1.442 . S
C575 C576 1.381 . S
C575 H597 0.931 . S
C576 C575 1.381 . S
C576 C577 1.321 . S
C577 C576 1.321 . S
C577 C578 1.403 . S
C577 H598 0.934 . S
C578 C573 1.413 . S
C578 C577 1.403 . S
C578 H599 0.930 . S
C579 O590 1.275 . S
C579 O591 1.256 . S
O580 Ho560 2.322 . S
O580 C562 1.259 . S
O581 Ho561 2.346 . S
O581 C562 1.268 . S
O582 Ho560 2.378 . S
O582 C563 1.215 . S
O583 Ho560 2.524 . S
O583 C563 1.289 . S
O584 Ho560 2.381 . S
O584 C570 1.275 . S
O585 Ho560 2.669 . S
O585 Ho561 2.305 . S
O585 C570 1.256 . S
O586 Ho561 2.322 . S
O586 C571 1.259 . S
O587 Ho560 2.346 . S
O587 C571 1.268 . S
O588 Ho561 2.378 . S
O588 C572 1.215 . S
O589 Ho561 2.524 . S
O589 C572 1.289 . S
O590 Ho561 2.381 . S
O590 C579 1.275 . S
O591 Ho560 2.305 . S
O591 Ho561 2.669 . S
O591 C579 1.256 . S
H592 C565 0.930 . S
H593 C566 0.931 . S
H594 C568 0.934 . S
H595 C569 0.930 . S
H596 C574 0.930 . S
H597 C575 0.931 . S
H598 C577 0.934 . S
H599 C578 0.930 . S
Ho600 C603 2.811 . S
Ho600 O620 2.322 1_554 S
Ho600 O622 2.378 . S
Ho600 O623 2.524 . S
Ho600 O624 2.381 1_554 S
Ho600 O625 2.669 1_554 S
Ho600 O627 2.346 1_655 S
Ho600 O631 2.305 1_655 S
Ho601 C612 2.811 . S
Ho601 O621 2.355 . S
Ho601 O625 2.305 1_455 S
Ho601 O626 2.322 1_556 S
Ho601 O628 2.378 . S
Ho601 O629 2.524 . S
Ho601 O630 2.381 1_556 S
Ho601 O631 2.669 1_556 S
C602 O620 1.259 . S
C602 O621 1.258 1_655 S
C603 Ho600 2.811 . S
C603 C604 1.488 . S
C603 O622 1.215 . S
C603 O623 1.289 . S
C604 C603 1.488 . S
C604 C605 1.348 . S
C604 C609 1.413 . S
C605 C604 1.348 . S
C605 C606 1.442 . S
C605 H632 0.930 . S
C606 C605 1.442 . S
C606 C607 1.381 . S
C606 H633 0.931 . S
C607 C606 1.381 . S
C607 C608 1.321 . S
C608 C607 1.321 . S
C608 C609 1.403 . S
C608 H634 0.934 . S
C609 C604 1.413 . S
C609 C608 1.403 . S
C609 H635 0.930 . S
C610 O624 1.275 . S
C610 O625 1.256 . S
C611 O626 1.259 . S
C611 O627 1.268 . S
C612 Ho601 2.811 . S
C612 C613 1.488 . S
C612 O628 1.215 . S
C612 O629 1.289 . S
C613 C612 1.488 . S
C613 C614 1.348 . S
C613 C618 1.413 . S
C614 C613 1.348 . S
C614 C615 1.442 . S
C614 H636 0.930 . S
C615 C614 1.442 . S
C615 C616 1.381 . S
C615 H637 0.931 . S
C616 C615 1.381 . S
C616 C617 1.321 . S
C617 C616 1.321 . S
C617 C618 1.403 . S
C617 H638 0.934 . S
C618 C613 1.413 . S
C618 C617 1.403 . S
C618 H639 0.930 . S
C619 O630 1.275 . S
C619 O631 1.256 . S
O620 Ho600 2.322 1_556 S
O620 C602 1.259 . S
O621 Ho601 2.355 . S
O621 C602 1.258 1_455 S
O622 Ho600 2.378 . S
O622 C603 1.215 . S
O623 Ho600 2.524 . S
O623 C603 1.289 . S
O624 Ho600 2.381 1_556 S
O624 C610 1.275 . S
O625 Ho600 2.669 1_556 S
O625 Ho601 2.305 1_655 S
O625 C610 1.256 . S
O626 Ho601 2.322 1_554 S
O626 C611 1.259 . S
O627 Ho600 2.346 1_455 S
O627 C611 1.268 . S
O628 Ho601 2.378 . S
O628 C612 1.215 . S
O629 Ho601 2.524 . S
O629 C612 1.289 . S
O630 Ho601 2.381 1_554 S
O630 C619 1.275 . S
O631 Ho600 2.305 1_455 S
O631 Ho601 2.669 1_554 S
O631 C619 1.256 . S
H632 C605 0.930 . S
H633 C606 0.931 . S
H634 C608 0.934 . S
H635 C609 0.930 . S
H636 C614 0.930 . S
H637 C615 0.931 . S
H638 C617 0.934 . S
H639 C618 0.930 . S
C640 C641 1.369 . S
C640 C642 1.419 . S
C640 H644 0.930 . S
C641 C640 1.369 . S
C641 C650 1.429 . S
C642 C640 1.419 . S
C642 C643 1.363 . S
C642 H645 0.929 . S
C643 C642 1.363 . S
C643 C649 1.428 . S
H644 C640 0.930 . S
H645 C642 0.929 . S
S646 N647 1.613 . S
S646 N648 1.610 . S
N647 S646 1.613 . S
N647 C650 1.350 . S
N648 S646 1.610 . S
N648 C649 1.351 . S
C649 C643 1.428 . S
C649 N648 1.351 . S
C649 C650 1.434 . S
C650 C641 1.429 . S
C650 N647 1.350 . S
C650 C649 1.434 . S
C651 C652 1.369 . S
C651 C653 1.419 . S
C651 H655 0.930 . S
C652 C651 1.369 . S
C652 C661 1.428 1_554 S
C653 C651 1.419 . S
C653 C654 1.363 . S
C653 H656 0.929 . S
C654 C653 1.363 . S
C654 C660 1.428 1_554 S
H655 C651 0.930 . S
H656 C653 0.929 . S
S657 N658 1.613 . S
S657 N659 1.610 . S
N658 S657 1.613 . S
N658 C661 1.350 . S
N659 S657 1.610 . S
N659 C660 1.351 . S
C660 C654 1.428 1_556 S
C660 N659 1.351 . S
C660 C661 1.434 . S
C661 C652 1.428 1_556 S
C661 N658 1.350 . S
C661 C660 1.434 . S
C662 C663 1.369 . S
C662 C664 1.419 . S
C662 H666 0.930 . S
C663 C662 1.369 . S
C663 C672 1.429 . S
C664 C662 1.419 . S
C664 C665 1.363 . S
C664 H667 0.929 . S
C665 C664 1.363 . S
C665 C671 1.428 . S
H666 C662 0.930 . S
H667 C664 0.929 . S
S668 N669 1.613 . S
S668 N670 1.610 . S
N669 S668 1.613 . S
N669 C672 1.350 . S
N670 S668 1.610 . S
N670 C671 1.351 . S
C671 C665 1.428 . S
C671 N670 1.351 . S
C671 C672 1.434 . S
C672 C663 1.429 . S
C672 N669 1.350 . S
C672 C671 1.434 . S
C673 C674 1.369 . S
C673 C675 1.419 . S
C673 H677 0.930 . S
C674 C673 1.369 . S
C674 C683 1.429 . S
C675 C673 1.419 . S
C675 C676 1.363 . S
C675 H678 0.929 . S
C676 C675 1.363 . S
C676 C682 1.428 . S
H677 C673 0.930 . S
H678 C675 0.929 . S
S679 N680 1.613 . S
S679 N681 1.610 . S
N680 S679 1.613 . S
N680 C683 1.350 . S
N681 S679 1.610 . S
N681 C682 1.351 . S
C682 C676 1.428 . S
C682 N681 1.351 . S
C682 C683 1.434 . S
C683 C674 1.429 . S
C683 N680 1.350 . S
C683 C682 1.434 . S
C684 C685 1.369 . S
C684 C686 1.419 . S
C684 H688 0.930 . S
C685 C684 1.369 . S
C685 C694 1.429 . S
C686 C684 1.419 . S
C686 C687 1.363 . S
C686 H689 0.929 . S
C687 C686 1.363 . S
C687 C693 1.428 . S
H688 C684 0.930 . S
H689 C686 0.929 . S
S690 N691 1.613 . S
S690 N692 1.610 . S
N691 S690 1.613 . S
N691 C694 1.350 . S
N692 S690 1.610 . S
N692 C693 1.351 . S
C693 C687 1.428 . S
C693 N692 1.351 . S
C693 C694 1.434 . S
C694 C685 1.429 . S
C694 N691 1.350 . S
C694 C693 1.434 . S
C695 C696 1.369 . S
C695 C697 1.419 . S
C695 H699 0.930 . S
C696 C695 1.369 . S
C696 C705 1.429 . S
C697 C695 1.419 . S
C697 C698 1.363 . S
C697 H700 0.929 . S
C698 C697 1.363 . S
C698 C704 1.428 . S
H699 C695 0.930 . S
H700 C697 0.929 . S
S701 N702 1.591 1_545 S
S701 N703 1.610 1_545 S
N702 S701 1.591 1_565 S
N702 C705 1.350 . S
N703 S701 1.610 1_565 S
N703 C704 1.351 . S
C704 C698 1.428 . S
C704 N703 1.351 . S
C704 C705 1.434 . S
C705 C696 1.429 . S
C705 N702 1.350 . S
C705 C704 1.434 . S
C706 C707 1.369 . S
C706 C708 1.419 . S
C706 H710 0.930 . S
C707 C706 1.369 . S
C707 C716 1.429 . S
C708 C706 1.419 . S
C708 C709 1.363 . S
C708 H711 0.929 . S
C709 C708 1.363 . S
C709 C715 1.428 . S
H710 C706 0.930 . S
H711 C708 0.929 . S
S712 N713 1.613 . S
S712 N714 1.610 . S
N713 S712 1.613 . S
N713 C716 1.350 . S
N714 S712 1.610 . S
N714 C715 1.351 . S
C715 C709 1.428 . S
C715 N714 1.351 . S
C715 C716 1.434 . S
C716 C707 1.429 . S
C716 N713 1.350 . S
C716 C715 1.434 . S
C717 C718 1.369 . S
C717 C719 1.419 . S
C717 H721 0.930 . S
C718 C717 1.369 . S
C718 C727 1.429 . S
C719 C717 1.419 . S
C719 C720 1.363 . S
C719 H722 0.929 . S
C720 C719 1.363 . S
C720 C726 1.428 . S
H721 C717 0.930 . S
H722 C719 0.929 . S
S723 N724 1.613 . S
S723 N725 1.610 . S
N724 S723 1.613 . S
N724 C727 1.350 . S
N725 S723 1.610 . S
N725 C726 1.351 . S
C726 C720 1.428 . S
C726 N725 1.351 . S
C726 C727 1.434 . S
C727 C718 1.429 . S
C727 N724 1.350 . S
C727 C726 1.434 . S
C728 C729 1.369 . S
C728 C730 1.419 . S
C728 H732 0.930 . S
C729 C728 1.369 . S
C729 C738 1.429 . S
C730 C728 1.419 . S
C730 C731 1.363 . S
C730 H733 0.929 1_655 S
C731 C730 1.363 . S
C731 C737 1.428 . S
H732 C728 0.930 . S
H733 C730 0.929 1_455 S
S734 N735 1.613 . S
S734 N736 1.610 . S
N735 S734 1.613 . S
N735 C738 1.350 . S
N736 S734 1.610 . S
N736 C737 1.351 . S
C737 C731 1.428 . S
C737 N736 1.351 . S
C737 C738 1.434 . S
C738 C729 1.429 . S
C738 N735 1.350 . S
C738 C737 1.434 . S
C739 C740 1.369 . S
C739 C741 1.419 . S
C739 H743 0.930 . S
C740 C739 1.369 . S
C740 C749 1.429 . S
C741 C739 1.419 . S
C741 C742 1.363 . S
C741 H744 0.929 . S
C742 C741 1.363 . S
C742 C748 1.428 . S
H743 C739 0.930 . S
H744 C741 0.929 . S
S745 N746 1.613 . S
S745 N747 1.610 . S
N746 S745 1.613 . S
N746 C749 1.350 . S
N747 S745 1.610 . S
N747 C748 1.351 . S
C748 C742 1.428 . S
C748 N747 1.351 . S
C748 C749 1.434 . S
C749 C740 1.429 . S
C749 N746 1.350 . S
C749 C748 1.434 . S
C750 C751 1.369 . S
C750 C752 1.419 . S
C750 H754 0.930 . S
C751 C750 1.369 . S
C751 C760 1.429 . S
C752 C750 1.419 . S
C752 C753 1.363 . S
C752 H755 0.929 . S
C753 C752 1.363 . S
C753 C759 1.428 . S
H754 C750 0.930 . S
H755 C752 0.929 . S
S756 N757 1.613 . S
S756 N758 1.610 . S
N757 S756 1.613 . S
N757 C760 1.350 . S
N758 S756 1.610 . S
N758 C759 1.351 . S
C759 C753 1.428 . S
C759 N758 1.351 . S
C759 C760 1.434 . S
C760 C751 1.429 . S
C760 N757 1.350 . S
C760 C759 1.434 . S
C761 C762 1.369 . S
C761 C763 1.419 . S
C761 H765 0.930 . S
C762 C761 1.369 . S
C762 C771 1.429 . S
C763 C761 1.419 . S
C763 C764 1.363 . S
C763 H766 0.929 . S
C764 C763 1.363 . S
C764 C770 1.428 . S
H765 C761 0.930 . S
H766 C763 0.929 . S
S767 N768 1.613 . S
S767 N769 1.610 . S
N768 S767 1.613 . S
N768 C771 1.350 . S
N769 S767 1.610 . S
N769 C770 1.351 . S
C770 C764 1.428 . S
C770 N769 1.351 . S
C770 C771 1.434 . S
C771 C762 1.429 . S
C771 N768 1.350 . S
C771 C770 1.434 . S
C772 C773 1.369 . S
C772 C774 1.419 . S
C772 H776 0.930 . S
C773 C772 1.369 . S
C773 C782 1.429 . S
C774 C772 1.419 . S
C774 C775 1.363 . S
C774 H777 0.929 . S
C775 C774 1.363 . S
C775 C781 1.428 . S
H776 C772 0.930 . S
H777 C774 0.929 . S
S778 N779 1.613 . S
S778 N780 1.610 . S
N779 S778 1.613 . S
N779 C782 1.350 . S
N780 S778 1.610 . S
N780 C781 1.351 . S
C781 C775 1.428 . S
C781 N780 1.351 . S
C781 C782 1.434 . S
C782 C773 1.429 . S
C782 N779 1.350 . S
C782 C781 1.434 . S
C783 C784 1.369 . S
C783 C785 1.419 . S
C783 H787 0.930 . S
C784 C783 1.369 . S
C784 C793 1.429 . S
C785 C783 1.419 . S
C785 C786 1.363 . S
C785 H788 0.929 . S
C786 C785 1.363 . S
C786 C792 1.428 . S
H787 C783 0.930 . S
H788 C785 0.929 . S
S789 N790 1.613 . S
S789 N791 1.610 . S
N790 S789 1.613 . S
N790 C793 1.350 . S
N791 S789 1.610 . S
N791 C792 1.351 . S
C792 C786 1.428 . S
C792 N791 1.351 . S
C792 C793 1.434 . S
C793 C784 1.429 . S
C793 N790 1.350 . S
C793 C792 1.434 . S
C794 C795 1.369 . S
C794 C796 1.419 . S
C794 H798 0.930 . S
C795 C794 1.369 . S
C795 C804 1.429 . S
C796 C794 1.419 . S
C796 C797 1.363 . S
C796 H799 0.929 . S
C797 C796 1.363 . S
C797 C803 1.428 . S
H798 C794 0.930 . S
H799 C796 0.929 . S
S800 N801 1.613 1_565 S
S800 N802 1.610 1_565 S
N801 S800 1.613 1_545 S
N801 C804 1.350 . S
N802 S800 1.610 1_545 S
N802 C803 1.351 . S
C803 C797 1.428 . S
C803 N802 1.351 . S
C803 C804 1.434 . S
C804 C795 1.429 . S
C804 N801 1.350 . S
C804 C803 1.434 . S
C805 C806 1.369 . S
C805 C807 1.419 . S
C805 H809 0.930 . S
C806 C805 1.369 . S
C806 C815 1.429 . S
C807 C805 1.419 . S
C807 C808 1.363 . S
C807 H810 0.929 . S
C808 C807 1.363 . S
C808 C814 1.428 . S
H809 C805 0.930 . S
H810 C807 0.929 . S
S811 N812 1.613 . S
S811 N813 1.610 . S
N812 S811 1.613 . S
N812 C815 1.350 . S
N813 S811 1.610 . S
N813 C814 1.351 . S
C814 C808 1.428 . S
C814 N813 1.351 . S
C814 C815 1.434 . S
C815 C806 1.429 . S
C815 N812 1.350 . S
C815 C814 1.434 . S
C816 C817 1.369 . S
C816 C818 1.419 . S
C816 H820 0.930 . S
C817 C816 1.369 . S
C817 C826 1.429 . S
C818 C816 1.419 . S
C818 C819 1.363 . S
C818 H821 0.929 . S
C819 C818 1.363 . S
C819 C825 1.428 . S
H820 C816 0.930 . S
H821 C818 0.929 . S
S822 N823 1.613 . S
S822 N824 1.610 . S
N823 S822 1.613 . S
N823 C826 1.350 . S
N824 S822 1.610 . S
N824 C825 1.351 . S
C825 C819 1.428 . S
C825 N824 1.351 . S
C825 C826 1.434 . S
C826 C817 1.429 . S
C826 N823 1.350 . S
C826 C825 1.434 . S
C827 C828 1.369 . S
C827 C829 1.419 . S
C827 H831 0.930 . S
C828 C827 1.369 . S
C828 C837 1.429 . S
C829 C827 1.419 . S
C829 C830 1.363 . S
C829 H832 0.929 . S
C830 C829 1.363 . S
C830 C836 1.428 . S
H831 C827 0.930 . S
H832 C829 0.929 . S
S833 N834 1.613 . S
S833 N835 1.610 . S
N834 S833 1.613 . S
N834 C837 1.350 . S
N835 S833 1.610 . S
N835 C836 1.351 . S
C836 C830 1.428 . S
C836 N835 1.351 . S
C836 C837 1.434 . S
C837 C828 1.429 . S
C837 N834 1.350 . S
C837 C836 1.434 . S
C838 C839 1.369 . S
C838 C840 1.419 . S
C838 H842 0.930 . S
C839 C838 1.369 . S
C839 C848 1.429 . S
C840 C838 1.419 . S
C840 C841 1.363 . S
C840 H843 0.929 . S
C841 C840 1.363 . S
C841 C847 1.428 . S
H842 C838 0.930 . S
H843 C840 0.929 . S
S844 N845 1.613 . S
S844 N846 1.610 . S
N845 S844 1.613 . S
N845 C848 1.350 . S
N846 S844 1.610 . S
N846 C847 1.351 . S
C847 C841 1.428 . S
C847 N846 1.351 . S
C847 C848 1.434 . S
C848 C839 1.429 . S
C848 N845 1.350 . S
C848 C847 1.434 . S
C849 C850 1.369 . S
C849 C851 1.419 . S
C849 H853 0.930 . S
C850 C849 1.369 . S
C850 C859 1.429 . S
C851 C849 1.419 . S
C851 C852 1.363 . S
C851 H854 0.929 . S
C852 C851 1.363 . S
C852 C858 1.428 . S
H853 C849 0.930 . S
H854 C851 0.929 . S
S855 N856 1.613 . S
S855 N857 1.610 . S
N856 S855 1.613 . S
N856 C859 1.350 . S
N857 S855 1.610 . S
N857 C858 1.351 . S
C858 C852 1.428 . S
C858 N857 1.351 . S
C858 C859 1.434 . S
C859 C850 1.429 . S
C859 N856 1.350 . S
C859 C858 1.434 . S
C860 C861 1.369 . S
C860 C862 1.419 . S
C860 H864 0.930 . S
C861 C860 1.369 . S
C861 C870 1.429 . S
C862 C860 1.419 . S
C862 C863 1.363 . S
C862 H865 0.929 . S
C863 C862 1.363 . S
C863 C869 1.428 . S
H864 C860 0.930 . S
H865 C862 0.929 . S
S866 N867 1.613 . S
S866 N868 1.610 . S
N867 S866 1.613 . S
N867 C870 1.350 . S
N868 S866 1.610 . S
N868 C869 1.351 . S
C869 C863 1.428 . S
C869 N868 1.351 . S
C869 C870 1.434 . S
C870 C861 1.429 . S
C870 N867 1.350 . S
C870 C869 1.434 . S
C871 C872 1.369 . S
C871 C873 1.419 . S
C871 H875 0.930 . S
C872 C871 1.369 . S
C872 C881 1.429 . S
C873 C871 1.419 . S
C873 C874 1.363 . S
C873 H876 0.929 . S
C874 C873 1.363 . S
C874 C880 1.428 . S
H875 C871 0.930 . S
H876 C873 0.929 . S
S877 N878 1.613 . S
S877 N879 1.610 . S
N878 S877 1.613 . S
N878 C881 1.350 . S
N879 S877 1.610 . S
N879 C880 1.351 . S
C880 C874 1.428 . S
C880 N879 1.351 . S
C880 C881 1.434 . S
C881 C872 1.429 . S
C881 N878 1.350 . S
C881 C880 1.434 . S
C882 C883 1.369 . S
C882 C884 1.419 . S
C882 H886 0.930 . S
C883 C882 1.369 . S
C883 C892 1.429 1_556 S
C884 C882 1.419 . S
C884 C885 1.363 . S
C884 H887 0.929 . S
C885 C884 1.363 . S
C885 C891 1.428 . S
H886 C882 0.930 . S
H887 C884 0.929 . S
S888 N889 1.613 1_565 S
S888 N890 1.610 . S
N889 S888 1.613 1_545 S
N889 C892 1.350 . S
N890 S888 1.610 . S
N890 C891 1.351 1_564 S
C891 C885 1.428 . S
C891 N890 1.351 1_546 S
C891 C892 1.434 1_556 S
C892 C883 1.429 1_554 S
C892 N889 1.350 . S
C892 C891 1.434 1_554 S
C893 C894 1.369 . S
C893 C895 1.419 . S
C893 H897 0.930 . S
C894 C893 1.369 . S
C894 C903 1.429 . S
C895 C893 1.419 . S
C895 C896 1.363 . S
C895 H898 0.929 . S
C896 C895 1.363 . S
C896 C902 1.428 . S
H897 C893 0.930 . S
H898 C895 0.929 . S
S899 N900 1.613 . S
S899 N901 1.610 . S
N900 S899 1.613 . S
N900 C903 1.350 . S
N901 S899 1.610 . S
N901 C902 1.351 . S
C902 C896 1.428 . S
C902 N901 1.351 . S
C902 C903 1.434 . S
C903 C894 1.429 . S
C903 N900 1.350 . S
C903 C902 1.434 . S
C904 C905 1.369 . S
C904 C906 1.419 . S
C904 H908 0.930 . S
C905 C904 1.369 . S
C905 C914 1.429 . S
C906 C904 1.419 . S
C906 C907 1.363 . S
C906 H909 0.929 . S
C907 C906 1.363 . S
C907 C913 1.428 . S
H908 C904 0.930 . S
H909 C906 0.929 . S
S910 N911 1.613 . S
S910 N912 1.610 . S
N911 S910 1.613 . S
N911 C914 1.350 . S
N912 S910 1.610 . S
N912 C913 1.351 . S
C913 C907 1.428 . S
C913 N912 1.351 . S
C913 C914 1.434 . S
C914 C905 1.429 . S
C914 N911 1.350 . S
C914 C913 1.434 . S
C915 C916 1.369 . S
C915 C917 1.419 . S
C915 H919 0.930 . S
C916 C915 1.369 . S
C916 C925 1.429 . S
C917 C915 1.419 . S
C917 C918 1.363 . S
C917 H920 0.929 . S
C918 C917 1.363 . S
C918 C924 1.428 . S
H919 C915 0.930 . S
H920 C917 0.929 . S
S921 N922 1.613 . S
S921 N923 1.610 . S
N922 S921 1.613 . S
N922 C925 1.350 . S
N923 S921 1.610 . S
N923 C924 1.351 . S
C924 C918 1.428 . S
C924 N923 1.351 . S
C924 C925 1.434 . S
C925 C916 1.429 . S
C925 N922 1.350 . S
C925 C924 1.434 . S
C926 C927 1.369 . S
C926 C928 1.419 . S
C926 H930 0.930 . S
C927 C926 1.369 . S
C927 C936 1.429 . S
C928 C926 1.419 . S
C928 C929 1.363 . S
C928 H931 0.929 . S
C929 C928 1.363 . S
C929 C935 1.428 . S
H930 C926 0.930 . S
H931 C928 0.929 . S
S932 N933 1.613 . S
S932 N934 1.610 . S
N933 S932 1.613 . S
N933 C936 1.350 . S
N934 S932 1.610 . S
N934 C935 1.351 . S
C935 C929 1.428 . S
C935 N934 1.351 . S
C935 C936 1.434 . S
C936 C927 1.429 . S
C936 N933 1.350 . S
C936 C935 1.434 . S
C937 C938 1.369 . S
C937 C939 1.419 . S
C937 H941 0.930 . S
C938 C937 1.369 . S
C938 C947 1.429 . S
C939 C937 1.419 . S
C939 C940 1.363 . S
C939 H942 0.929 . S
C940 C939 1.363 . S
C940 C946 1.428 . S
H941 C937 0.930 . S
H942 C939 0.929 . S
S943 N944 1.613 . S
S943 N945 1.610 . S
N944 S943 1.613 . S
N944 C947 1.350 . S
N945 S943 1.610 . S
N945 C946 1.351 . S
C946 C940 1.428 . S
C946 N945 1.351 . S
C946 C947 1.434 . S
C947 C938 1.429 . S
C947 N944 1.350 . S
C947 C946 1.434 . S
C948 C949 1.369 . S
C948 C950 1.419 . S
C948 H952 0.930 . S
C949 C948 1.369 . S
C949 C958 1.429 . S
C950 C948 1.419 . S
C950 C951 1.363 . S
C950 H953 0.929 . S
C951 C950 1.363 . S
C951 C957 1.428 . S
H952 C948 0.930 . S
H953 C950 0.929 . S
S954 N955 1.613 . S
S954 N956 1.610 . S
N955 S954 1.613 . S
N955 C958 1.350 . S
N956 S954 1.610 . S
N956 C957 1.351 . S
C957 C951 1.428 . S
C957 N956 1.351 . S
C957 C958 1.434 . S
C958 C949 1.429 . S
C958 N955 1.350 . S
C958 C957 1.434 . S
C959 C960 1.369 . S
C959 C961 1.419 . S
C959 H963 0.930 . S
C960 C959 1.369 . S
C960 C969 1.429 . S
C961 C959 1.419 . S
C961 C962 1.363 . S
C961 H964 0.929 . S
C962 C961 1.363 . S
C962 C968 1.428 . S
H963 C959 0.930 . S
H964 C961 0.929 . S
S965 N966 1.613 1_655 S
S965 N967 1.610 . S
N966 S965 1.613 1_455 S
N966 C969 1.350 . S
N967 S965 1.610 . S
N967 C968 1.351 1_655 S
C968 C962 1.428 . S
C968 N967 1.351 1_455 S
C968 C969 1.434 . S
C969 C960 1.429 . S
C969 N966 1.350 . S
C969 C968 1.434 . S
C970 C971 1.369 . S
C970 C972 1.419 . S
C970 H974 0.930 . S
C971 C970 1.369 . S
C971 C980 1.429 . S
C972 C970 1.419 . S
C972 C973 1.363 . S
C972 H975 0.929 . S
C973 C972 1.363 . S
C973 C979 1.428 . S
H974 C970 0.930 . S
H975 C972 0.929 . S
S976 N977 1.613 . S
S976 N978 1.610 . S
N977 S976 1.613 . S
N977 C980 1.350 . S
N978 S976 1.610 . S
N978 C979 1.351 . S
C979 C973 1.428 . S
C979 N978 1.351 . S
C979 C980 1.434 . S
C980 C971 1.429 . S
C980 N977 1.350 . S
C980 C979 1.434 . S
C981 C982 1.369 . S
C981 C983 1.419 . S
C981 H985 0.930 . S
C982 C981 1.369 . S
C982 C991 1.429 . S
C983 C981 1.419 . S
C983 C984 1.363 . S
C983 H986 0.929 . S
C984 C983 1.363 . S
C984 C990 1.428 . S
H985 C981 0.930 . S
H986 C983 0.929 . S
S987 N988 1.613 . S
S987 N989 1.610 . S
N988 S987 1.613 . S
N988 C991 1.350 . S
N989 S987 1.610 . S
N989 C990 1.351 . S
C990 C984 1.428 . S
C990 N989 1.351 . S
C990 C991 1.434 . S
C991 C982 1.429 . S
C991 N988 1.350 . S
C991 C990 1.434 . S
C992 C993 1.369 . S
C992 C994 1.419 . S
C992 H996 0.930 . S
C993 C992 1.369 . S
C993 C1002 1.429 . S
C994 C992 1.419 . S
C994 C995 1.363 . S
C994 H997 0.929 . S
C995 C994 1.363 . S
C995 C1001 1.428 . S
H996 C992 0.930 . S
H997 C994 0.929 . S
S998 N999 1.613 . S
S998 N1000 1.610 . S
N999 S998 1.613 . S
N999 C1002 1.350 . S
N1000 S998 1.610 . S
N1000 C1001 1.351 . S
C1001 C995 1.428 . S
C1001 N1000 1.351 . S
C1001 C1002 1.434 . S
C1002 C993 1.429 . S
C1002 N999 1.350 . S
C1002 C1001 1.434 . S
C1003 C1004 1.369 . S
C1003 C1005 1.419 . S
C1003 H1007 0.930 . S
C1004 C1003 1.369 . S
C1004 C1013 1.429 . S
C1005 C1003 1.419 . S
C1005 C1006 1.363 . S
C1005 H1008 0.929 . S
C1006 C1005 1.363 . S
C1006 C1012 1.428 . S
H1007 C1003 0.930 . S
H1008 C1005 0.929 . S
S1009 N1010 1.613 . S
S1009 N1011 1.610 . S
N1010 S1009 1.613 . S
N1010 C1013 1.350 . S
N1011 S1009 1.610 . S
N1011 C1012 1.351 . S
C1012 C1006 1.428 . S
C1012 N1011 1.351 . S
C1012 C1013 1.434 . S
C1013 C1004 1.429 . S
C1013 N1010 1.350 . S
C1013 C1012 1.434 . S
C1014 C1015 1.369 . S
C1014 C1016 1.419 . S
C1014 H1018 0.930 . S
C1015 C1014 1.369 . S
C1015 C1024 1.429 . S
C1016 C1014 1.419 . S
C1016 C1017 1.363 . S
C1016 H1019 0.929 . S
C1017 C1016 1.363 . S
C1017 C1023 1.428 . S
H1018 C1014 0.930 . S
H1019 C1016 0.929 . S
S1020 N1021 1.613 . S
S1020 N1022 1.610 . S
N1021 S1020 1.613 . S
N1021 C1024 1.350 . S
N1022 S1020 1.610 . S
N1022 C1023 1.351 . S
C1023 C1017 1.428 . S
C1023 N1022 1.351 . S
C1023 C1024 1.434 . S
C1024 C1015 1.429 . S
C1024 N1021 1.350 . S
C1024 C1023 1.434 . S
C1025 C1026 1.369 . S
C1025 C1027 1.419 . S
C1025 H1029 0.930 . S
C1026 C1025 1.369 . S
C1026 C1035 1.429 . S
C1027 C1025 1.419 . S
C1027 C1028 1.363 . S
C1027 H1030 0.929 . S
C1028 C1027 1.363 . S
C1028 C1034 1.428 . S
H1029 C1025 0.930 . S
H1030 C1027 0.929 . S
S1031 N1032 1.613 1_545 S
S1031 N1033 1.610 1_545 S
N1032 S1031 1.613 1_565 S
N1032 C1035 1.350 . S
N1033 S1031 1.610 1_565 S
N1033 C1034 1.351 . S
C1034 C1028 1.428 . S
C1034 N1033 1.351 . S
C1034 C1035 1.434 . S
C1035 C1026 1.429 . S
C1035 N1032 1.350 . S
C1035 C1034 1.434 . S
C1036 C1037 1.369 . S
C1036 C1038 1.419 . S
C1036 H1040 0.930 . S
C1037 C1036 1.369 . S
C1037 C1046 1.429 . S
C1038 C1036 1.419 . S
C1038 C1039 1.363 . S
C1038 H1041 0.929 . S
C1039 C1038 1.363 . S
C1039 C1045 1.428 . S
H1040 C1036 0.930 . S
H1041 C1038 0.929 . S
S1042 N1043 1.613 . S
S1042 N1044 1.610 . S
N1043 S1042 1.613 . S
N1043 C1046 1.350 . S
N1044 S1042 1.610 . S
N1044 C1045 1.351 . S
C1045 C1039 1.428 . S
C1045 N1044 1.351 . S
C1045 C1046 1.434 . S
C1046 C1037 1.429 . S
C1046 N1043 1.350 . S
C1046 C1045 1.434 . S
C1047 C1048 1.369 . S
C1047 C1049 1.419 . S
C1047 H1051 0.930 . S
C1048 C1047 1.369 . S
C1048 C1057 1.429 . S
C1049 C1047 1.419 . S
C1049 C1050 1.363 . S
C1049 H1052 0.929 . S
C1050 C1049 1.363 . S
C1050 C1056 1.428 . S
H1051 C1047 0.930 . S
H1052 C1049 0.929 . S
S1053 N1054 1.613 . S
S1053 N1055 1.610 . S
N1054 S1053 1.613 . S
N1054 C1057 1.350 . S
N1055 S1053 1.610 . S
N1055 C1056 1.351 . S
C1056 C1050 1.428 . S
C1056 N1055 1.351 . S
C1056 C1057 1.434 . S
C1057 C1048 1.429 . S
C1057 N1054 1.350 . S
C1057 C1056 1.434 . S
C1058 C1059 1.369 . S
C1058 C1060 1.419 . S
C1058 H1062 0.930 . S
C1059 C1058 1.369 . S
C1059 C1068 1.429 . S
C1060 C1058 1.419 . S
C1060 C1061 1.363 . S
C1060 H1063 0.929 . S
C1061 C1060 1.363 . S
C1061 C1067 1.428 . S
H1062 C1058 0.930 . S
H1063 C1060 0.929 . S
S1064 N1065 1.613 . S
S1064 N1066 1.610 . S
N1065 S1064 1.613 . S
N1065 C1068 1.350 . S
N1066 S1064 1.610 . S
N1066 C1067 1.351 . S
C1067 C1061 1.428 . S
C1067 N1066 1.351 . S
C1067 C1068 1.434 . S
C1068 C1059 1.429 . S
C1068 N1065 1.350 . S
C1068 C1067 1.434 . S
C1069 C1070 1.369 . S
C1069 C1071 1.419 . S
C1069 H1073 0.930 . S
C1070 C1069 1.369 . S
C1070 C1079 1.429 . S
C1071 C1069 1.419 . S
C1071 C1072 1.363 . S
C1071 H1074 0.929 . S
C1072 C1071 1.363 . S
C1072 C1078 1.428 . S
H1073 C1069 0.930 . S
H1074 C1071 0.929 . S
S1075 N1076 1.613 . S
S1075 N1077 1.610 . S
N1076 S1075 1.613 . S
N1076 C1079 1.350 . S
N1077 S1075 1.610 . S
N1077 C1078 1.351 . S
C1078 C1072 1.428 . S
C1078 N1077 1.351 . S
C1078 C1079 1.434 . S
C1079 C1070 1.429 . S
C1079 N1076 1.350 . S
C1079 C1078 1.434 . S
C1080 C1081 1.369 . S
C1080 C1082 1.419 . S
C1080 H1084 0.930 . S
C1081 C1080 1.369 . S
C1081 C1090 1.429 . S
C1082 C1080 1.419 . S
C1082 C1083 1.363 . S
C1082 H1085 0.929 . S
C1083 C1082 1.363 . S
C1083 C1089 1.428 . S
H1084 C1080 0.930 . S
H1085 C1082 0.929 . S
S1086 N1087 1.613 . S
S1086 N1088 1.610 . S
N1087 S1086 1.613 . S
N1087 C1090 1.350 . S
N1088 S1086 1.610 . S
N1088 C1089 1.351 . S
C1089 C1083 1.428 . S
C1089 N1088 1.351 . S
C1089 C1090 1.434 . S
C1090 C1081 1.429 . S
C1090 N1087 1.350 . S
C1090 C1089 1.434 . S
C1091 C1092 1.369 . S
C1091 C1093 1.419 . S
C1091 H1095 0.930 . S
C1092 C1091 1.369 . S
C1092 C1101 1.429 . S
C1093 C1091 1.419 . S
C1093 C1094 1.363 . S
C1093 H1096 0.929 . S
C1094 C1093 1.363 . S
C1094 C1100 1.428 . S
H1095 C1091 0.930 . S
H1096 C1093 0.929 . S
S1097 N1098 1.613 . S
S1097 N1099 1.610 . S
N1098 S1097 1.613 . S
N1098 C1101 1.350 . S
N1099 S1097 1.610 . S
N1099 C1100 1.351 . S
C1100 C1094 1.428 . S
C1100 N1099 1.351 . S
C1100 C1101 1.434 . S
C1101 C1092 1.429 . S
C1101 N1098 1.350 . S
C1101 C1100 1.434 . S
C1102 C1103 1.369 . S
C1102 C1104 1.419 . S
C1102 H1106 0.930 . S
C1103 C1102 1.369 . S
C1103 C1112 1.429 . S
C1104 C1102 1.419 . S
C1104 C1105 1.363 . S
C1104 H1107 0.929 . S
C1105 C1104 1.363 . S
C1105 C1111 1.428 . S
H1106 C1102 0.930 . S
H1107 C1104 0.929 . S
S1108 N1109 1.613 . S
S1108 N1110 1.610 . S
N1109 S1108 1.613 . S
N1109 C1112 1.350 . S
N1110 S1108 1.610 . S
N1110 C1111 1.351 . S
C1111 C1105 1.428 . S
C1111 N1110 1.351 . S
C1111 C1112 1.434 . S
C1112 C1103 1.429 . S
C1112 N1109 1.350 . S
C1112 C1111 1.434 . S
C1113 C1114 1.369 . S
C1113 C1115 1.419 . S
C1113 H1117 0.930 . S
C1114 C1113 1.369 . S
C1114 C1123 1.429 . S
C1115 C1113 1.419 . S
C1115 C1116 1.363 . S
C1115 H1118 0.929 . S
C1116 C1115 1.363 . S
C1116 C1122 1.428 . S
H1117 C1113 0.930 . S
H1118 C1115 0.929 . S
S1119 N1120 1.613 . S
S1119 N1121 1.610 . S
N1120 S1119 1.613 . S
N1120 C1123 1.350 . S
N1121 S1119 1.610 . S
N1121 C1122 1.351 . S
C1122 C1116 1.428 . S
C1122 N1121 1.351 . S
C1122 C1123 1.434 . S
C1123 C1114 1.429 . S
C1123 N1120 1.350 . S
C1123 C1122 1.434 . S
C1124 C1125 1.369 . S
C1124 C1126 1.419 . S
C1124 H1128 0.930 . S
C1125 C1124 1.369 . S
C1125 C1134 1.429 . S
C1126 C1124 1.419 . S
C1126 C1127 1.363 . S
C1126 H1129 0.929 . S
C1127 C1126 1.363 . S
C1127 C1133 1.428 . S
H1128 C1124 0.930 . S
H1129 C1126 0.929 . S
S1130 N1131 1.613 . S
S1130 N1132 1.610 . S
N1131 S1130 1.613 . S
N1131 C1134 1.350 . S
N1132 S1130 1.610 . S
N1132 C1133 1.351 . S
C1133 C1127 1.428 . S
C1133 N1132 1.351 . S
C1133 C1134 1.434 . S
C1134 C1125 1.429 . S
C1134 N1131 1.350 . S
C1134 C1133 1.434 . S
C1135 C1136 1.369 . S
C1135 C1137 1.419 . S
C1135 H1139 0.930 . S
C1136 C1135 1.369 . S
C1136 C1145 1.429 . S
C1137 C1135 1.419 . S
C1137 C1138 1.363 . S
C1137 H1140 0.929 . S
C1138 C1137 1.363 . S
C1138 C1144 1.428 . S
H1139 C1135 0.930 . S
H1140 C1137 0.929 . S
S1141 N1142 1.613 . S
S1141 N1143 1.610 . S
N1142 S1141 1.613 . S
N1142 C1145 1.350 . S
N1143 S1141 1.610 . S
N1143 C1144 1.351 . S
C1144 C1138 1.428 . S
C1144 N1143 1.351 . S
C1144 C1145 1.434 . S
C1145 C1136 1.429 . S
C1145 N1142 1.350 . S
C1145 C1144 1.434 . S
C1146 C1147 1.369 . S
C1146 C1148 1.419 . S
C1146 H1150 0.930 . S
C1147 C1146 1.369 . S
C1147 C1156 1.429 . S
C1148 C1146 1.419 . S
C1148 C1149 1.363 . S
C1148 H1151 0.929 . S
C1149 C1148 1.363 . S
C1149 C1155 1.428 . S
H1150 C1146 0.930 . S
H1151 C1148 0.929 . S
S1152 N1153 1.613 . S
S1152 N1154 1.610 . S
N1153 S1152 1.613 . S
N1153 C1156 1.350 . S
N1154 S1152 1.610 . S
N1154 C1155 1.351 . S
C1155 C1149 1.428 . S
C1155 N1154 1.351 . S
C1155 C1156 1.434 . S
C1156 C1147 1.429 . S
C1156 N1153 1.350 . S
C1156 C1155 1.434 . S
C1157 C1158 1.369 . S
C1157 C1159 1.419 . S
C1157 H1161 0.930 . S
C1158 C1157 1.369 . S
C1158 C1167 1.429 . S
C1159 C1157 1.419 . S
C1159 C1160 1.363 . S
C1159 H1162 0.929 . S
C1160 C1159 1.363 . S
C1160 C1166 1.428 . S
H1161 C1157 0.930 . S
H1162 C1159 0.929 . S
S1163 N1164 1.613 . S
S1163 N1165 1.610 . S
N1164 S1163 1.613 . S
N1164 C1167 1.350 . S
N1165 S1163 1.610 . S
N1165 C1166 1.351 . S
C1166 C1160 1.428 . S
C1166 N1165 1.351 . S
C1166 C1167 1.434 . S
C1167 C1158 1.429 . S
C1167 N1164 1.350 . S
C1167 C1166 1.434 . S
C641 C131 1.910 . S
C643 C19 1.915 . S
C652 C2 0.884 . S
C654 C56 0.848 . S
C663 C90 1.735 . S
C665 C59 1.735 . S
C674 C127 1.533 . S
C676 C87 1.541 . S
C685 C167 2.151 . S
C687 C202 2.183 . S
C696 C219 1.679 . S
C698 C259 1.653 . S
C707 C256 1.138 . S
C709 C287 1.124 . S
C718 C171 2.078 . S
C720 C290 2.142 . S
C729 C376 1.742 . S
C731 C16 1.693 . S
C740 C402 2.314 . S
C742 C42 2.332 . S
C751 C91 4.390 . S
C753 C531 4.396 . S
C762 C330 1.019 . S
C764 C130 1.053 . S
C773 C450 1.169 . S
C775 C170 1.120 . S
C784 C571 3.054 . S
C786 C216 3.026 . S
C795 C242 1.668 . S
C797 C482 1.554 . S
C806 C611 4.247 . S
C808 C291 4.199 . S
C817 C331 1.891 . S
C819 C530 1.927 . S
C828 C362 1.312 . S
C830 C327 1.314 . S
C839 C419 0.934 . S
C841 C379 0.928 . S
C850 C570 1.972 . S
C852 C451 2.004 . S
C861 C499 0.871 . S
C863 C610 0.919 . S
C872 C442 1.912 . S
C874 C10 1.914 . S
C883 C487 0.853 . S
C885 C11 0.886 . S
C894 C490 1.733 . S
C896 C99 1.733 . S
C905 C96 1.540 . S
C907 C456 1.535 . S
C916 C371 2.184 . S
C918 C176 2.150 . S
C927 C370 1.677 . S
C929 C250 1.658 . S
C938 C536 1.126 . S
C940 C247 1.139 . S
C949 C162 2.081 . S
C951 C539 2.141 . S
C960 C207 1.743 . S
C962 C7 1.694 . S
C971 C411 2.310 . S
C973 C491 2.332 . S
C982 C82 4.389 . S
C984 C282 4.397 . S
C993 C339 1.010 . S
C995 C459 1.053 . S
C1004 C139 1.168 . S
C1006 C179 1.126 . S
C1015 C367 3.029 . S
C1017 C562 3.057 . S
C1026 C251 1.670 . S
C1028 C51 1.550 . S
C1037 C602 4.247 . S
C1039 C522 4.198 . S
C1048 C322 1.891 . S
C1050 C299 1.926 . S
C1059 C336 1.313 . S
C1061 C211 1.313 . S
C1070 C410 0.935 . S
C1072 C210 0.925 . S
C1081 C122 2.003 . S
C1083 C579 1.974 . S
C1092 C50 0.862 . S
C1094 C619 0.921 . S
C1103 C496 0.870 . S
C1105 C567 0.813 . S
C1114 C447 1.640 . S
C1116 C607 1.623 . S
C1125 C416 0.915 . S
C1127 C527 0.891 . S
C1136 C576 0.816 . S
C1138 C47 0.878 . S
C1147 C136 1.641 . S
C1149 C616 1.622 . S
C1158 C296 0.880 . S
C1160 C407 0.917 . S
