# Generated by pormake.
# Topology bnn, (5)-cn, num edge types: 1
# Building blocks:
#     Node 0, Type 0, BuildingBlock: BEQFEK_clean_sbu_0, # of connection points: 5
#     Node 1, Type 0, BuildingBlock: BEQFEK_clean_sbu_0, # of connection points: 5
#     Edge 2, Type (0, 0), BuildingBlock: MIFKUJ_clean_linker_0, # of connection points: 2
#     Edge 3, Type (0, 0), BuildingBlock: MIFKUJ_clean_linker_0, # of connection points: 2
#     Edge 4, Type (0, 0), BuildingBlock: MIFKUJ_clean_linker_0, # of connection points: 2
#     Edge 5, Type (0, 0), BuildingBlock: MIFKUJ_clean_linker_0, # of connection points: 2
#     Edge 6, Type (0, 0), BuildingBlock: MIFKUJ_clean_linker_0, # of connection points: 2
# Relax obj value: 0.110
# Max RMSD: 0.191
# Mean RMSD: 0.179
data_MOF--net-bnn--node1-BEQFEK_clean_sbu_0--edge1-MIFKUJ_clean_linker_0
_symmetry_space_group_name_H-M    P1
_symmetry_Int_Tables_number       1
_symmetry_cell_setting            triclinic
loop_
_symmetry_equiv_pos_as_xyz
'x, y, z'
_cell_length_a     32.544129
_cell_length_b     34.43745
_cell_length_c     23.98026
_cell_angle_alpha  90.647595
_cell_angle_beta   86.044012
_cell_angle_gamma 111.25998
loop_
_atom_site_label
_atom_site_type_symbol
_atom_site_fract_x
_atom_site_fract_y
_atom_site_fract_z
_atom_type_partial_charge
Co0 Co 0.34387 0.68693 0.07645 0.0
Co1 Co 0.34664 0.6823 0.94522 0.0
C2 C 0.38746 0.76303 0.00317 0.0
O3 O 0.37533 0.74523 0.05093 0.0
O4 O 0.37908 0.74253 0.95811 0.0
C5 C 0.32257 0.71379 0.18573 0.0
O6 O 0.31437 0.74264 0.15819 0.0
C7 C 0.33957 0.69443 0.82324 0.0
C8 C 0.33017 0.63087 0.79396 0.0
C9 C 0.3336 0.66997 0.77567 0.0
N10 N 0.33916 0.6705 0.86755 0.0
N11 N 0.33355 0.63264 0.84951 0.0
C12 C 0.34804 0.7401 0.82617 0.0
H13 H 0.37073 0.75467 0.85906 0.0
H14 H 0.3163 0.74451 0.83682 0.0
H15 H 0.36271 0.75605 0.78568 0.0
C16 C 0.24792 0.64487 0.06306 0.0
N17 N 0.2899 0.66367 0.04188 0.0
N18 N 0.29085 0.6627 0.98689 0.0
C19 C 0.24934 0.64349 0.9714 0.0
C20 C 0.22085 0.63149 0.01908 0.0
C21 C 0.23475 0.63651 0.12407 0.0
H22 H 0.25925 0.6268 0.14415 0.0
H23 H 0.23434 0.6656 0.14401 0.0
H24 H 0.20149 0.6119 0.13118 0.0
O25 O 0.38114 0.65323 0.05994 0.0
O26 O 0.38238 0.65009 0.96752 0.0
H27 H 0.24701 0.611 0.89462 0.0
H28 H 0.201 0.62786 0.90918 0.0
C29 C 0.2371 0.6365 0.91212 0.0
H30 H 0.25485 0.66519 0.88685 0.0
H31 H 0.33229 0.60795 0.87527 0.0
O32 O 0.33425 0.68707 0.15879 0.0
C33 C 0.39348 0.64076 0.01388 0.0
Co34 Co 0.67769 0.319 0.08835 0.0
Co35 Co 0.68898 0.32243 0.95679 0.0
C36 C 0.63684 0.36631 0.01873 0.0
O37 O 0.64498 0.35431 0.06541 0.0
O38 O 0.65133 0.35586 0.97248 0.0
C39 C 0.63814 0.31789 0.20063 0.0
O40 O 0.61399 0.33571 0.17733 0.0
C41 C 0.67139 0.31602 0.83679 0.0
C42 C 0.73071 0.30564 0.80027 0.0
C43 C 0.69179 0.30966 0.78634 0.0
N44 N 0.69724 0.31577 0.87814 0.0
N45 N 0.73268 0.30973 0.85592 0.0
C46 C 0.62674 0.31907 0.84665 0.0
H47 H 0.61292 0.30876 0.88987 0.0
H48 H 0.60373 0.29975 0.81642 0.0
H49 H 0.62992 0.35202 0.84134 0.0
C50 C 0.64134 0.22842 0.06617 0.0
N51 N 0.66014 0.26838 0.04862 0.0
N52 N 0.66374 0.26969 0.99362 0.0
C53 C 0.64672 0.23056 0.97433 0.0
C54 C 0.63205 0.203 0.01969 0.0
C55 C 0.63358 0.21513 0.12641 0.0
H56 H 0.66314 0.23277 0.14905 0.0
H57 H 0.60525 0.2225 0.14544 0.0
H58 H 0.62654 0.18129 0.13138 0.0
O59 O 0.74168 0.35037 0.07436 0.0
O60 O 0.74884 0.35375 0.98173 0.0
H61 H 0.67399 0.22621 0.89185 0.0
H62 H 0.61942 0.18757 0.90763 0.0
C63 C 0.64112 0.22035 0.9138 0.0
H64 H 0.62628 0.24085 0.89481 0.0
H65 H 0.75811 0.30809 0.87891 0.0
O66 O 0.66629 0.30789 0.17029 0.0
C67 C 0.76542 0.36246 0.02891 0.0
H68 H 0.43192 0.62127 0.10223 0.0
H69 H 0.47406 0.57515 0.10234 0.0
H70 H 0.45713 0.55304 0.92652 0.0
H71 H 0.41494 0.59896 0.92589 0.0
H72 H 0.43918 0.48071 0.98665 0.0
H73 H 0.5542 0.61526 0.96622 0.0
H74 H 0.59491 0.68837 0.99021 0.0
H75 H 0.61864 0.64915 0.15028 0.0
H76 H 0.57747 0.57578 0.12756 0.0
H77 H 0.60048 0.38767 0.92985 0.0
H78 H 0.55885 0.43425 0.92971 0.0
H79 H 0.57319 0.45392 0.10636 0.0
H80 H 0.61474 0.40741 0.10706 0.0
H81 H 0.59258 0.52749 0.04586 0.0
H82 H 0.4774 0.39286 0.06603 0.0
H83 H 0.43696 0.31979 0.04163 0.0
H84 H 0.41381 0.35933 0.88144 0.0
H85 H 0.45472 0.43266 0.90459 0.0
C86 C 0.43727 0.60672 0.06352 0.0
C87 C 0.42013 0.61389 0.01403 0.0
C88 C 0.46146 0.58048 0.06364 0.0
C89 C 0.46887 0.56091 0.01435 0.0
C90 C 0.45174 0.56788 0.96497 0.0
C91 C 0.42781 0.5943 0.9647 0.0
C92 C 0.49393 0.53262 0.01444 0.0
C93 C 0.47293 0.49105 0.99886 0.0
C94 C 0.53759 0.54598 0.03158 0.0
C95 C 0.56233 0.59006 0.04542 0.0
C96 C 0.56774 0.62225 0.00675 0.0
C97 C 0.59097 0.66373 0.02007 0.0
C98 C 0.60924 0.67341 0.0718 0.0
C99 C 0.6044 0.64161 0.11026 0.0
C100 C 0.58115 0.60006 0.09717 0.0
C101 C 0.59472 0.40183 0.9687 0.0
C102 C 0.61085 0.39375 0.01849 0.0
C103 C 0.57083 0.42833 0.96856 0.0
C104 C 0.56283 0.44732 0.0181 0.0
C105 C 0.57906 0.43953 0.06774 0.0
C106 C 0.6026 0.41278 0.06805 0.0
C107 C 0.53782 0.47563 0.01804 0.0
C108 C 0.55883 0.51718 0.03364 0.0
C109 C 0.4942 0.46227 0.00087 0.0
C110 C 0.46955 0.41822 0.98681 0.0
C111 C 0.46405 0.38595 0.02539 0.0
C112 C 0.44097 0.34449 0.01183 0.0
C113 C 0.42294 0.33491 0.95995 0.0
C114 C 0.42786 0.3668 0.92158 0.0
C115 C 0.45097 0.40832 0.93491 0.0
H116 H 0.40505 0.30279 0.94954 0.0
H117 H 0.62723 0.70554 0.08202 0.0
H118 H 0.81253 0.38867 0.12146 0.0
H119 H 0.88948 0.43568 0.12431 0.0
H120 H 0.90255 0.44257 0.94414 0.0
H121 H 0.82565 0.39594 0.94073 0.0
H122 H 0.96717 0.43037 0.08299 0.0
H123 H 0.96714 0.54172 0.9042 0.0
H124 H 0.91465 0.56662 0.8604 0.0
H125 H 0.83306 0.54396 0.01399 0.0
H126 H 0.88536 0.51949 0.05891 0.0
H127 H 0.18292 0.55522 0.97429 0.0
H128 H 0.10445 0.51047 0.98169 0.0
H129 H 0.07414 0.60415 0.07872 0.0
H130 H 0.15292 0.64885 0.07182 0.0
H131 H 0.0168 0.56971 0.99077 0.0
H132 H 0.07456 0.52667 0.14688 0.0
H133 H 0.12669 0.50346 0.19423 0.0
H134 H 0.09125 0.39296 0.09524 0.0
H135 H 0.03941 0.41587 0.04657 0.0
C136 C 0.83179 0.4 0.08239 0.0
C137 C 0.81278 0.38873 0.03086 0.0
C138 C 0.87579 0.4268 0.08414 0.0
C139 C 0.90147 0.44301 0.03448 0.0
C140 C 0.88304 0.43091 0.98298 0.0
C141 C 0.8391 0.40411 0.98114 0.0
C142 C 0.94739 0.47305 0.03645 0.0
C143 C 0.97801 0.46084 0.06289 0.0
C144 C 0.9613 0.51308 0.01103 0.0
C145 C 0.93 0.52843 0.98473 0.0
C146 C 0.93811 0.54225 0.92869 0.0
C147 C 0.90837 0.55625 0.90366 0.0
C148 C 0.87048 0.55676 0.93434 0.0
C149 C 0.86234 0.54341 0.99021 0.0
C150 C 0.89199 0.52943 0.01545 0.0
C151 C 0.15936 0.56623 0.99689 0.0
C152 C 0.17352 0.6053 0.0224 0.0
C153 C 0.11476 0.54069 0.0013 0.0
C154 C 0.0837 0.55404 0.03092 0.0
C155 C 0.09772 0.59341 0.05569 0.0
C156 C 0.14249 0.61875 0.0519 0.0
C157 C 0.03661 0.52659 0.03614 0.0
C158 C 0.00585 0.53928 0.01099 0.0
C159 C 0.02247 0.48723 0.0633 0.0
C160 C 0.05339 0.47318 0.09271 0.0
C161 C 0.07816 0.4976 0.13484 0.0
C162 C 0.10761 0.48447 0.16199 0.0
C163 C 0.11235 0.4468 0.14767 0.0
C164 C 0.08757 0.42215 0.10625 0.0
C165 C 0.05812 0.43518 0.07889 0.0
H166 H 0.13516 0.43668 0.16875 0.0
H167 H 0.84747 0.56756 0.91487 0.0
H168 H 0.38598 0.82001 0.0821 0.0
H169 H 0.42836 0.89501 0.0794 0.0
H170 H 0.48821 0.88369 0.917 0.0
H171 H 0.4449 0.80853 0.91855 0.0
H172 H 0.54732 0.92982 0.01211 0.0
H173 H 0.42425 0.92452 0.90605 0.0
H174 H 0.34506 0.90319 0.8903 0.0
H175 H 0.32442 0.96582 0.03945 0.0
H176 H 0.40342 0.98696 0.05657 0.0
H177 H 0.65634 0.14678 0.95834 0.0
H178 H 0.61536 0.07185 0.95161 0.0
H179 H 0.5156 0.08126 0.0737 0.0
H180 H 0.55521 0.1566 0.07768 0.0
H181 H 0.47699 0.03466 0.9941 0.0
H182 H 0.59533 0.03897 0.10454 0.0
H183 H 0.67267 0.05856 0.12849 0.0
H184 H 0.70089 0.9966 0.98265 0.0
H185 H 0.62382 0.97711 0.95739 0.0
C186 C 0.40802 0.83347 0.04568 0.0
C187 C 0.41218 0.80845 1.00052 0.0
C188 C 0.4321 0.87625 0.04423 0.0
C189 C 0.46128 0.89462 0.99806 0.0
C190 C 0.46576 0.86986 0.95294 0.0
C191 C 0.44092 0.8271 0.95381 0.0
C192 C 0.48735 0.93974 0.99768 0.0
C193 C 0.53233 0.95294 0.00718 0.0
C194 C 0.4671 0.96943 0.99324 0.0
C195 C 0.41965 0.95693 0.9829 0.0
C196 C 0.40274 0.93338 0.9358 0.0
C197 C 0.35791 0.92141 0.92655 0.0
C198 C 0.3297 0.93304 0.96394 0.0
C199 C 0.3463 0.95677 0.01057 0.0
C200 C 0.3911 0.96879 0.02004 0.0
C201 C 0.62555 0.13275 0.9835 0.0
C202 C 0.60884 0.15732 0.01848 0.0
C203 C 0.60238 0.08991 0.9801 0.0
C204 C 0.5626 0.07072 0.01267 0.0
C205 C 0.54621 0.09529 0.04818 0.0
C206 C 0.56905 0.13822 0.05091 0.0
C207 C 0.53743 0.02527 0.00874 0.0
C208 C 0.49241 0.01183 0.99864 0.0
C209 C 0.55754 0.99531 0.0137 0.0
C210 C 0.60391 0.00697 0.02876 0.0
C211 C 0.61811 0.02982 0.07732 0.0
C212 C 0.66189 0.04085 0.09118 0.0
C213 C 0.69171 0.02894 0.05703 0.0
C214 C 0.67778 0.00586 0.00902 0.0
C215 C 0.63404 0.99479 0.99493 0.0
H216 H 0.72558 0.0375 0.06784 0.0
H217 H 0.295 0.92376 0.9567 0.0
H218 H 0.29709 0.72317 0.73291 0.0
H219 H 0.29529 0.73977 0.63422 0.0
H220 H 0.36318 0.65636 0.58649 0.0
H221 H 0.3667 0.64111 0.68469 0.0
H222 H 0.39696 0.72623 0.52658 0.0
H223 H 0.25025 0.62835 0.58139 0.0
H224 H 0.17909 0.60358 0.63785 0.0
H225 H 0.15316 0.71128 0.58743 0.0
H226 H 0.22448 0.73695 0.53121 0.0
H227 H 0.34698 0.6641 0.25351 0.0
H228 H 0.34772 0.66558 0.35507 0.0
H229 H 0.29451 0.76354 0.36029 0.0
H230 H 0.29376 0.76246 0.25797 0.0
H231 H 0.25416 0.69889 0.44245 0.0
H232 H 0.39823 0.7914 0.37747 0.0
H233 H 0.46847 0.81322 0.31923 0.0
H234 H 0.49889 0.71301 0.38796 0.0
H235 H 0.42849 0.69019 0.44602 0.0
C236 C 0.3126 0.70923 0.70142 0.0
C237 C 0.33288 0.6815 0.71657 0.0
C238 C 0.31096 0.71825 0.64501 0.0
C239 C 0.32897 0.69919 0.60293 0.0
C240 C 0.34927 0.67162 0.61818 0.0
C241 C 0.35105 0.66275 0.67433 0.0
C242 C 0.32641 0.70708 0.54279 0.0
C243 C 0.3657 0.72008 0.50821 0.0
C244 C 0.28576 0.70024 0.51899 0.0
C245 C 0.24291 0.68481 0.5527 0.0
C246 C 0.22953 0.64691 0.58273 0.0
C247 C 0.18915 0.63268 0.61461 0.0
C248 C 0.16169 0.65591 0.61638 0.0
C249 C 0.17451 0.69337 0.58613 0.0
C250 C 0.21489 0.70776 0.55424 0.0
C251 C 0.33521 0.68589 0.27608 0.0
C252 C 0.32056 0.71337 0.24757 0.0
C253 C 0.3358 0.68676 0.33415 0.0
C254 C 0.32169 0.71501 0.36501 0.0
C255 C 0.30571 0.74164 0.33706 0.0
C256 C 0.30541 0.74103 0.27868 0.0
C257 C 0.32454 0.71677 0.42638 0.0
C258 C 0.28543 0.7057 0.46108 0.0
C259 C 0.36532 0.72511 0.45037 0.0
C260 C 0.40791 0.73893 0.41584 0.0
C261 C 0.41974 0.77383 0.37988 0.0
C262 C 0.45961 0.78641 0.34694 0.0
C263 C 0.48809 0.76447 0.34982 0.0
C264 C 0.47679 0.72997 0.38576 0.0
C265 C 0.43693 0.71723 0.41875 0.0
H266 H 0.51895 0.77425 0.32428 0.0
H267 H 0.13043 0.64484 0.64107 0.0
H268 H 0.59138 0.34661 0.27906 0.0
H269 H 0.59058 0.34136 0.38081 0.0
H270 H 0.67662 0.27112 0.36302 0.0
H271 H 0.67753 0.27606 0.26127 0.0
H272 H 0.60914 0.23913 0.44653 0.0
H273 H 0.71931 0.37266 0.38769 0.0
H274 H 0.74538 0.44149 0.34058 0.0
H275 H 0.65212 0.47671 0.4444 0.0
H276 H 0.62508 0.40783 0.49162 0.0
H277 H 0.70969 0.26428 0.70144 0.0
H278 H 0.69066 0.26228 0.60472 0.0
H279 H 0.62162 0.34617 0.64347 0.0
H280 H 0.64279 0.35021 0.73969 0.0
H281 H 0.67099 0.37033 0.55129 0.0
H282 H 0.56557 0.24021 0.61745 0.0
H283 H 0.53848 0.17157 0.66503 0.0
H284 H 0.61929 0.12933 0.54908 0.0
H285 H 0.64737 0.19793 0.50126 0.0
C286 C 0.60982 0.32971 0.29675 0.0
C287 C 0.63484 0.31206 0.26206 0.0
C288 C 0.60939 0.32684 0.3549 0.0
C289 C 0.63391 0.30623 0.37939 0.0
C290 C 0.65752 0.28721 0.34492 0.0
C291 C 0.65816 0.29023 0.28679 0.0
C292 C 0.63674 0.30608 0.44081 0.0
C293 C 0.6229 0.26774 0.46952 0.0
C294 C 0.65344 0.3435 0.47089 0.0
C295 C 0.66984 0.38496 0.44272 0.0
C296 C 0.70412 0.39497 0.40015 0.0
C297 C 0.71912 0.434 0.37349 0.0
C298 C 0.70033 0.46341 0.38937 0.0
C299 C 0.66659 0.45388 0.43207 0.0
C300 C 0.65143 0.41486 0.45881 0.0
C301 C 0.69017 0.28211 0.68956 0.0
C302 C 0.67691 0.30663 0.72882 0.0
C303 C 0.67893 0.28061 0.63426 0.0
C304 C 0.6538 0.30331 0.61696 0.0
C305 C 0.64051 0.32792 0.656 0.0
C306 C 0.6521 0.3297 0.71137 0.0
C307 C 0.64394 0.30324 0.55735 0.0
C308 C 0.65656 0.3416 0.52877 0.0
C309 C 0.62579 0.26579 0.52753 0.0
C310 C 0.60882 0.22436 0.55599 0.0
C311 C 0.57781 0.21639 0.60232 0.0
C312 C 0.56224 0.17746 0.6293 0.0
C313 C 0.57721 0.14613 0.61015 0.0
C314 C 0.60773 0.15364 0.56388 0.0
C315 C 0.62344 0.19252 0.53677 0.0
H316 H 0.56513 0.11602 0.63111 0.0
H317 H 0.71199 0.49361 0.36869 0.0
loop_
_geom_bond_atom_site_label_1
_geom_bond_atom_site_label_2
_geom_bond_distance
_geom_bond_site_symmetry_2
_ccdc_geom_bond_type
Co0 O3 1.970 . S
Co0 N17 1.989 . S
Co0 O25 1.967 . S
Co0 O32 1.920 . S
Co1 O4 1.966 . S
Co1 N10 2.022 . S
Co1 N18 1.993 . S
Co1 O26 1.941 . S
C2 O3 1.258 . S
C2 O4 1.263 1_554 S
O3 Co0 1.970 . S
O3 C2 1.258 . S
O4 Co1 1.966 . S
O4 C2 1.263 1_556 S
C5 O6 1.235 . S
C5 O32 1.289 . S
O6 C5 1.235 . S
C7 C9 1.400 . S
C7 N10 1.351 . S
C7 C12 1.501 . S
C8 C9 1.387 . S
C8 N11 1.341 . S
C9 C7 1.400 . S
C9 C8 1.387 . S
N10 Co1 2.022 . S
N10 C7 1.351 . S
N10 N11 1.365 . S
N11 C8 1.341 . S
N11 N10 1.365 . S
N11 H31 0.862 . S
C12 C7 1.501 . S
C12 H13 0.961 . S
C12 H14 0.961 . S
C12 H15 0.960 . S
H13 C12 0.961 . S
H14 C12 0.961 . S
H15 C12 0.960 . S
C16 N17 1.342 . S
C16 C20 1.401 . S
C16 C21 1.499 . S
N17 Co0 1.989 . S
N17 C16 1.342 . S
N17 N18 1.388 1_554 S
N18 Co1 1.993 . S
N18 N17 1.388 1_556 S
N18 C19 1.346 . S
C19 N18 1.346 . S
C19 C20 1.396 1_556 S
C19 C29 1.510 . S
C20 C16 1.401 . S
C20 C19 1.396 1_554 S
C21 C16 1.499 . S
C21 H22 0.959 . S
C21 H23 0.960 . S
C21 H24 0.961 . S
H22 C21 0.959 . S
H23 C21 0.960 . S
H24 C21 0.961 . S
O25 Co0 1.967 . S
O25 C33 1.258 . S
O26 Co1 1.941 . S
O26 C33 1.266 1_556 S
H27 C29 0.959 . S
H28 C29 0.961 . S
C29 C19 1.510 . S
C29 H27 0.959 . S
C29 H28 0.961 . S
C29 H30 0.960 . S
H30 C29 0.960 . S
H31 N11 0.862 . S
O32 Co0 1.920 . S
O32 C5 1.289 . S
C33 O25 1.258 . S
C33 O26 1.266 1_554 S
Co34 O37 1.970 . S
Co34 N51 1.989 . S
Co34 O59 1.967 . S
Co34 O66 1.920 . S
Co35 O38 1.966 . S
Co35 N44 2.022 . S
Co35 N52 1.993 . S
Co35 O60 1.941 . S
C36 O37 1.258 . S
C36 O38 1.263 1_554 S
O37 Co34 1.970 . S
O37 C36 1.258 . S
O38 Co35 1.966 . S
O38 C36 1.263 1_556 S
C39 O40 1.235 . S
C39 O66 1.289 . S
O40 C39 1.235 . S
C41 C43 1.400 . S
C41 N44 1.351 . S
C41 C46 1.501 . S
C42 C43 1.387 . S
C42 N45 1.341 . S
C43 C41 1.400 . S
C43 C42 1.387 . S
N44 Co35 2.022 . S
N44 C41 1.351 . S
N44 N45 1.365 . S
N45 C42 1.341 . S
N45 N44 1.365 . S
N45 H65 0.862 . S
C46 C41 1.501 . S
C46 H47 0.961 . S
C46 H48 0.961 . S
C46 H49 0.960 . S
H47 C46 0.961 . S
H48 C46 0.961 . S
H49 C46 0.960 . S
C50 N51 1.342 . S
C50 C54 1.401 . S
C50 C55 1.499 . S
N51 Co34 1.989 . S
N51 C50 1.342 . S
N51 N52 1.388 1_554 S
N52 Co35 1.993 . S
N52 N51 1.388 1_556 S
N52 C53 1.346 . S
C53 N52 1.346 . S
C53 C54 1.396 1_556 S
C53 C63 1.510 . S
C54 C50 1.401 . S
C54 C53 1.396 1_554 S
C55 C50 1.499 . S
C55 H56 0.959 . S
C55 H57 0.960 . S
C55 H58 0.961 . S
H56 C55 0.959 . S
H57 C55 0.960 . S
H58 C55 0.961 . S
O59 Co34 1.967 . S
O59 C67 1.258 . S
O60 Co35 1.941 . S
O60 C67 1.266 1_556 S
H61 C63 0.959 . S
H62 C63 0.961 . S
C63 C53 1.510 . S
C63 H61 0.959 . S
C63 H62 0.961 . S
C63 H64 0.960 . S
H64 C63 0.960 . S
H65 N45 0.862 . S
O66 Co34 1.920 . S
O66 C39 1.289 . S
C67 O59 1.258 . S
C67 O60 1.266 1_554 S
H68 C86 0.951 . S
H69 C88 0.951 . S
H70 C90 0.950 . S
H71 C91 0.950 1_556 S
H72 C93 0.950 . S
H73 C96 0.950 . S
H74 C97 0.950 . S
H75 C99 0.950 . S
H76 C100 0.962 . S
H77 C101 0.951 1_556 S
H78 C103 0.951 1_556 S
H79 C105 0.950 . S
H80 C106 0.950 . S
H81 C108 0.950 . S
H82 C111 0.950 . S
H83 C112 0.950 . S
H84 C114 0.950 . S
H85 C115 0.950 . S
C86 H68 0.951 . S
C86 C87 1.366 . S
C86 C88 1.388 . S
C87 C86 1.366 . S
C87 C91 1.385 . S
C88 H69 0.951 . S
C88 C86 1.388 . S
C88 C89 1.366 . S
C89 C88 1.366 . S
C89 C90 1.415 1_554 S
C89 C92 1.499 . S
C90 H70 0.950 . S
C90 C89 1.415 1_556 S
C90 C91 1.374 1_556 S
C91 H71 0.950 1_554 S
C91 C87 1.385 . S
C91 C90 1.374 1_554 S
C92 C89 1.499 . S
C92 C93 1.373 . S
C92 C94 1.389 1_554 S
C93 H72 0.950 . S
C93 C92 1.373 . S
C93 C109 1.377 . S
C94 C92 1.389 1_556 S
C94 C95 1.524 . S
C94 C108 1.377 . S
C95 C94 1.524 . S
C95 C96 1.397 . S
C95 C100 1.363 . S
C96 H73 0.950 . S
C96 C95 1.397 . S
C96 C97 1.334 . S
C97 H74 0.950 . S
C97 C96 1.334 . S
C97 C98 1.287 . S
C98 C97 1.287 . S
C98 C99 1.524 . S
C98 H117 0.913 . S
C99 H75 0.950 . S
C99 C98 1.524 . S
C99 C100 1.415 . S
C100 H76 0.962 . S
C100 C95 1.363 . S
C100 C99 1.415 . S
C101 H77 0.951 1_554 S
C101 C102 1.366 . S
C101 C103 1.388 . S
C102 C101 1.366 . S
C102 C106 1.385 . S
C103 H78 0.951 1_554 S
C103 C101 1.388 . S
C103 C104 1.366 . S
C104 C103 1.366 . S
C104 C105 1.414 . S
C104 C107 1.499 . S
C105 H79 0.950 . S
C105 C104 1.414 . S
C105 C106 1.374 . S
C106 H80 0.950 . S
C106 C102 1.385 . S
C106 C105 1.374 . S
C107 C104 1.499 . S
C107 C108 1.373 1_554 S
C107 C109 1.389 . S
C108 H81 0.950 . S
C108 C94 1.377 . S
C108 C107 1.373 1_556 S
C109 C93 1.377 . S
C109 C107 1.389 . S
C109 C110 1.524 . S
C110 C109 1.524 . S
C110 C111 1.397 . S
C110 C115 1.363 . S
C111 H82 0.950 . S
C111 C110 1.397 . S
C111 C112 1.334 . S
C112 H83 0.950 . S
C112 C111 1.334 . S
C112 C113 1.287 . S
C113 C112 1.287 . S
C113 C114 1.524 . S
C113 H116 0.999 . S
C114 H84 0.950 . S
C114 C113 1.524 . S
C114 C115 1.415 . S
C115 H85 0.950 . S
C115 C110 1.363 . S
C115 C114 1.415 . S
H116 C113 0.999 . S
H117 C98 0.913 . S
H118 C136 0.951 . S
H119 C138 0.951 . S
H120 C140 0.950 . S
H121 C141 0.950 . S
H122 C143 0.950 . S
H123 C146 0.950 . S
H124 C147 0.950 . S
H125 C149 0.950 . S
H126 C150 0.950 . S
H127 C151 0.951 . S
H128 C153 0.951 . S
H129 C155 0.950 . S
H130 C156 0.950 . S
H131 C158 0.950 . S
H132 C161 0.950 . S
H133 C162 0.950 . S
H134 C164 0.950 . S
H135 C165 0.950 . S
C136 H118 0.951 . S
C136 C137 1.366 . S
C136 C138 1.388 . S
C137 C136 1.366 . S
C137 C141 1.385 . S
C138 H119 0.951 . S
C138 C136 1.388 . S
C138 C139 1.366 . S
C139 C138 1.366 . S
C139 C140 1.414 . S
C139 C142 1.499 . S
C140 H120 0.950 . S
C140 C139 1.414 . S
C140 C141 1.374 . S
C141 H121 0.950 . S
C141 C137 1.385 . S
C141 C140 1.374 . S
C142 C139 1.499 . S
C142 C143 1.373 . S
C142 C144 1.389 1_554 S
C143 H122 0.950 . S
C143 C142 1.373 . S
C143 C159 1.377 1_655 S
C144 C142 1.389 1_556 S
C144 C145 1.524 . S
C144 C158 1.377 1_655 S
C145 C144 1.524 . S
C145 C146 1.397 . S
C145 C150 1.363 . S
C146 H123 0.950 . S
C146 C145 1.397 . S
C146 C147 1.334 . S
C147 H124 0.950 . S
C147 C146 1.334 . S
C147 C148 1.287 . S
C148 C147 1.287 . S
C148 C149 1.524 . S
C148 H167 0.913 . S
C149 H125 0.950 . S
C149 C148 1.524 . S
C149 C150 1.415 . S
C150 H126 0.950 . S
C150 C145 1.363 . S
C150 C149 1.415 . S
C151 H127 0.951 . S
C151 C152 1.366 . S
C151 C153 1.388 . S
C152 C151 1.366 . S
C152 C156 1.385 . S
C153 H128 0.951 . S
C153 C151 1.388 . S
C153 C154 1.366 . S
C154 C153 1.366 . S
C154 C155 1.414 . S
C154 C157 1.499 . S
C155 H129 0.950 . S
C155 C154 1.414 . S
C155 C156 1.374 . S
C156 H130 0.950 . S
C156 C152 1.385 . S
C156 C155 1.374 . S
C157 C154 1.499 . S
C157 C158 1.373 1_554 S
C157 C159 1.389 . S
C158 H131 0.950 . S
C158 C144 1.377 1_455 S
C158 C157 1.373 1_556 S
C159 C143 1.377 1_455 S
C159 C157 1.389 . S
C159 C160 1.524 . S
C160 C159 1.524 . S
C160 C161 1.397 . S
C160 C165 1.363 . S
C161 H132 0.950 . S
C161 C160 1.397 . S
C161 C162 1.334 . S
C162 H133 0.950 . S
C162 C161 1.334 . S
C162 C163 1.287 . S
C163 C162 1.287 . S
C163 C164 1.524 . S
C163 H166 0.999 . S
C164 H134 0.950 . S
C164 C163 1.524 . S
C164 C165 1.415 . S
C165 H135 0.950 . S
C165 C160 1.363 . S
C165 C164 1.415 . S
H166 C163 0.999 . S
H167 C148 0.913 . S
H168 C186 0.951 . S
H169 C188 0.951 . S
H170 C190 0.950 . S
H171 C191 0.950 . S
H172 C193 0.950 . S
H173 C196 0.950 . S
H174 C197 0.950 . S
H175 C199 0.950 . S
H176 C200 0.950 1_554 S
H177 C201 0.951 . S
H178 C203 0.951 . S
H179 C205 0.950 . S
H180 C206 0.950 . S
H181 C208 0.950 . S
H182 C211 0.950 . S
H183 C212 0.950 . S
H184 C214 0.952 . S
H185 C215 0.950 . S
C186 H168 0.951 . S
C186 C187 1.366 . S
C186 C188 1.388 . S
C187 C186 1.366 . S
C187 C191 1.385 1_554 S
C188 H169 0.951 . S
C188 C186 1.388 . S
C188 C189 1.366 . S
C189 C188 1.366 . S
C189 C190 1.414 1_554 S
C189 C192 1.499 . S
C190 H170 0.950 . S
C190 C189 1.414 1_556 S
C190 C191 1.374 . S
C191 H171 0.950 . S
C191 C187 1.385 1_556 S
C191 C190 1.374 . S
C192 C189 1.499 . S
C192 C193 1.373 . S
C192 C194 1.389 1_554 S
C193 H172 0.950 . S
C193 C192 1.373 . S
C193 C209 1.377 . S
C194 C192 1.389 1_556 S
C194 C195 1.524 . S
C194 C208 1.377 1_565 S
C195 C194 1.524 . S
C195 C196 1.397 . S
C195 C200 1.363 . S
C196 H173 0.950 . S
C196 C195 1.397 . S
C196 C197 1.334 . S
C197 H174 0.950 . S
C197 C196 1.334 . S
C197 C198 1.287 . S
C198 C197 1.287 . S
C198 C199 1.524 . S
C198 H217 0.913 . S
C199 H175 0.950 . S
C199 C198 1.524 . S
C199 C200 1.415 . S
C200 H176 0.950 1_556 S
C200 C195 1.363 . S
C200 C199 1.415 . S
C201 H177 0.951 . S
C201 C202 1.366 1_556 S
C201 C203 1.388 . S
C202 C201 1.366 1_554 S
C202 C206 1.385 . S
C203 H178 0.951 . S
C203 C201 1.388 . S
C203 C204 1.366 1_556 S
C204 C203 1.366 1_554 S
C204 C205 1.414 . S
C204 C207 1.499 . S
C205 H179 0.950 . S
C205 C204 1.414 . S
C205 C206 1.374 . S
C206 H180 0.950 . S
C206 C202 1.385 . S
C206 C205 1.374 . S
C207 C204 1.499 . S
C207 C208 1.373 1_554 S
C207 C209 1.389 1_545 S
C208 H181 0.950 . S
C208 C194 1.377 1_545 S
C208 C207 1.373 1_556 S
C209 C193 1.377 . S
C209 C207 1.389 1_565 S
C209 C210 1.524 1_565 S
C210 C209 1.524 1_545 S
C210 C211 1.397 . S
C210 C215 1.363 1_545 S
C211 H182 0.950 . S
C211 C210 1.397 . S
C211 C212 1.334 . S
C212 H183 0.950 . S
C212 C211 1.334 . S
C212 C213 1.287 . S
C213 C212 1.287 . S
C213 C214 1.522 1_545 S
C213 H216 0.999 . S
C214 H184 0.952 . S
C214 C213 1.522 1_565 S
C214 C215 1.415 . S
C215 H185 0.950 . S
C215 C210 1.363 1_565 S
C215 C214 1.415 . S
H216 C213 0.999 . S
H217 C198 0.913 . S
H218 C236 0.951 . S
H219 C238 0.951 . S
H220 C240 0.950 . S
H221 C241 0.950 . S
H222 C243 0.950 . S
H223 C246 0.950 . S
H224 C247 0.950 . S
H225 C249 0.950 . S
H226 C250 0.950 . S
H227 C251 0.951 . S
H228 C253 0.951 . S
H229 C255 0.950 . S
H230 C256 0.950 . S
H231 C258 0.950 . S
H232 C261 0.950 . S
H233 C262 0.950 . S
H234 C264 0.950 . S
H235 C265 0.950 . S
C236 H218 0.951 . S
C236 C237 1.366 . S
C236 C238 1.388 . S
C237 C236 1.366 . S
C237 C241 1.385 . S
C238 H219 0.951 . S
C238 C236 1.388 . S
C238 C239 1.366 . S
C239 C238 1.366 . S
C239 C240 1.414 . S
C239 C242 1.499 . S
C240 H220 0.950 . S
C240 C239 1.414 . S
C240 C241 1.374 . S
C241 H221 0.950 . S
C241 C237 1.385 . S
C241 C240 1.374 . S
C242 C239 1.499 . S
C242 C243 1.373 . S
C242 C244 1.389 . S
C243 H222 0.950 . S
C243 C242 1.373 . S
C243 C259 1.377 . S
C244 C242 1.389 . S
C244 C245 1.524 . S
C244 C258 1.377 . S
C245 C244 1.524 . S
C245 C246 1.397 . S
C245 C250 1.363 . S
C246 H223 0.950 . S
C246 C245 1.397 . S
C246 C247 1.334 . S
C247 H224 0.950 . S
C247 C246 1.334 . S
C247 C248 1.287 . S
C248 C247 1.287 . S
C248 C249 1.524 . S
C248 H267 0.913 . S
C249 H225 0.950 . S
C249 C248 1.524 . S
C249 C250 1.415 . S
C250 H226 0.950 . S
C250 C245 1.363 . S
C250 C249 1.415 . S
C251 H227 0.951 . S
C251 C252 1.366 . S
C251 C253 1.388 . S
C252 C251 1.366 . S
C252 C256 1.385 . S
C253 H228 0.951 . S
C253 C251 1.388 . S
C253 C254 1.366 . S
C254 C253 1.366 . S
C254 C255 1.414 . S
C254 C257 1.499 . S
C255 H229 0.950 . S
C255 C254 1.414 . S
C255 C256 1.374 . S
C256 H230 0.950 . S
C256 C252 1.385 . S
C256 C255 1.374 . S
C257 C254 1.499 . S
C257 C258 1.373 . S
C257 C259 1.389 . S
C258 H231 0.950 . S
C258 C244 1.377 . S
C258 C257 1.373 . S
C259 C243 1.377 . S
C259 C257 1.389 . S
C259 C260 1.524 . S
C260 C259 1.524 . S
C260 C261 1.397 . S
C260 C265 1.363 . S
C261 H232 0.950 . S
C261 C260 1.397 . S
C261 C262 1.334 . S
C262 H233 0.950 . S
C262 C261 1.334 . S
C262 C263 1.287 . S
C263 C262 1.287 . S
C263 C264 1.524 . S
C263 H266 0.999 . S
C264 H234 0.950 . S
C264 C263 1.524 . S
C264 C265 1.415 . S
C265 H235 0.950 . S
C265 C260 1.363 . S
C265 C264 1.415 . S
H266 C263 0.999 . S
H267 C248 0.913 . S
H268 C286 0.951 . S
H269 C288 0.951 . S
H270 C290 0.950 . S
H271 C291 0.950 . S
H272 C293 0.950 . S
H273 C296 0.950 . S
H274 C297 0.950 . S
H275 C299 0.950 . S
H276 C300 0.950 . S
H277 C301 0.951 . S
H278 C303 0.951 . S
H279 C305 0.950 . S
H280 C306 0.950 . S
H281 C308 0.950 . S
H282 C311 0.950 . S
H283 C312 0.950 . S
H284 C314 0.950 . S
H285 C315 0.950 . S
C286 H268 0.951 . S
C286 C287 1.366 . S
C286 C288 1.388 . S
C287 C286 1.366 . S
C287 C291 1.385 . S
C288 H269 0.951 . S
C288 C286 1.388 . S
C288 C289 1.366 . S
C289 C288 1.366 . S
C289 C290 1.414 . S
C289 C292 1.499 . S
C290 H270 0.950 . S
C290 C289 1.414 . S
C290 C291 1.374 . S
C291 H271 0.950 . S
C291 C287 1.385 . S
C291 C290 1.374 . S
C292 C289 1.499 . S
C292 C293 1.373 . S
C292 C294 1.389 . S
C293 H272 0.950 . S
C293 C292 1.373 . S
C293 C309 1.377 . S
C294 C292 1.389 . S
C294 C295 1.524 . S
C294 C308 1.377 . S
C295 C294 1.524 . S
C295 C296 1.397 . S
C295 C300 1.363 . S
C296 H273 0.950 . S
C296 C295 1.397 . S
C296 C297 1.334 . S
C297 H274 0.950 . S
C297 C296 1.334 . S
C297 C298 1.287 . S
C298 C297 1.287 . S
C298 C299 1.524 . S
C298 H317 0.913 . S
C299 H275 0.950 . S
C299 C298 1.524 . S
C299 C300 1.415 . S
C300 H276 0.950 . S
C300 C295 1.363 . S
C300 C299 1.415 . S
C301 H277 0.951 . S
C301 C302 1.366 . S
C301 C303 1.388 . S
C302 C301 1.366 . S
C302 C306 1.385 . S
C303 H278 0.951 . S
C303 C301 1.388 . S
C303 C304 1.366 . S
C304 C303 1.366 . S
C304 C305 1.414 . S
C304 C307 1.499 . S
C305 H279 0.950 . S
C305 C304 1.414 . S
C305 C306 1.374 . S
C306 H280 0.950 . S
C306 C302 1.385 . S
C306 C305 1.374 . S
C307 C304 1.499 . S
C307 C308 1.373 . S
C307 C309 1.389 . S
C308 H281 0.950 . S
C308 C294 1.377 . S
C308 C307 1.373 . S
C309 C293 1.377 . S
C309 C307 1.389 . S
C309 C310 1.524 . S
C310 C309 1.524 . S
C310 C311 1.397 . S
C310 C315 1.363 . S
C311 H282 0.950 . S
C311 C310 1.397 . S
C311 C312 1.334 . S
C312 H283 0.950 . S
C312 C311 1.334 . S
C312 C313 1.287 . S
C313 C312 1.287 . S
C313 C314 1.524 . S
C313 H316 0.999 . S
C314 H284 0.950 . S
C314 C313 1.524 . S
C314 C315 1.415 . S
C315 H285 0.950 . S
C315 C310 1.363 . S
C315 C314 1.415 . S
H316 C313 0.999 . S
H317 C298 0.913 . S
C87 C33 1.550 . S
C102 C36 1.549 . S
C137 C67 1.437 . S
C152 C20 1.439 . S
C187 C2 1.531 . S
C202 C54 1.513 . S
C237 C9 1.389 . S
C252 C5 1.478 . S
C287 C39 1.478 . S
C302 C43 1.397 . S
