# Generated by pormake.
# Topology vbm, (6)-cn, num edge types: 1
# Building blocks:
#     Node 0, Type 0, BuildingBlock: LEVNOQ01_clean_sbu_1, # of connection points: 6
#     Node 1, Type 0, BuildingBlock: LEVNOQ01_clean_sbu_1, # of connection points: 6
#     Node 2, Type 0, BuildingBlock: LEVNOQ01_clean_sbu_1, # of connection points: 6
#     Node 3, Type 0, BuildingBlock: LEVNOQ01_clean_sbu_1, # of connection points: 6
#     Node 4, Type 0, BuildingBlock: LEVNOQ01_clean_sbu_1, # of connection points: 6
#     Node 5, Type 0, BuildingBlock: LEVNOQ01_clean_sbu_1, # of connection points: 6
#     Node 6, Type 0, BuildingBlock: LEVNOQ01_clean_sbu_1, # of connection points: 6
#     Node 7, Type 0, BuildingBlock: LEVNOQ01_clean_sbu_1, # of connection points: 6
#     Node 8, Type 0, BuildingBlock: LEVNOQ01_clean_sbu_1, # of connection points: 6
#     Node 9, Type 0, BuildingBlock: LEVNOQ01_clean_sbu_1, # of connection points: 6
#     Node 10, Type 0, BuildingBlock: LEVNOQ01_clean_sbu_1, # of connection points: 6
#     Node 11, Type 0, BuildingBlock: LEVNOQ01_clean_sbu_1, # of connection points: 6
#     Node 12, Type 0, BuildingBlock: LEVNOQ01_clean_sbu_1, # of connection points: 6
#     Node 13, Type 0, BuildingBlock: LEVNOQ01_clean_sbu_1, # of connection points: 6
#     Node 14, Type 0, BuildingBlock: LEVNOQ01_clean_sbu_1, # of connection points: 6
#     Node 15, Type 0, BuildingBlock: LEVNOQ01_clean_sbu_1, # of connection points: 6
#     Edge 16, Type (0, 0), BuildingBlock: OJICUG_clean_linker_0, # of connection points: 2
#     Edge 17, Type (0, 0), BuildingBlock: OJICUG_clean_linker_0, # of connection points: 2
#     Edge 18, Type (0, 0), BuildingBlock: OJICUG_clean_linker_0, # of connection points: 2
#     Edge 19, Type (0, 0), BuildingBlock: OJICUG_clean_linker_0, # of connection points: 2
#     Edge 20, Type (0, 0), BuildingBlock: OJICUG_clean_linker_0, # of connection points: 2
#     Edge 21, Type (0, 0), BuildingBlock: OJICUG_clean_linker_0, # of connection points: 2
#     Edge 22, Type (0, 0), BuildingBlock: OJICUG_clean_linker_0, # of connection points: 2
#     Edge 23, Type (0, 0), BuildingBlock: OJICUG_clean_linker_0, # of connection points: 2
#     Edge 24, Type (0, 0), BuildingBlock: OJICUG_clean_linker_0, # of connection points: 2
#     Edge 25, Type (0, 0), BuildingBlock: OJICUG_clean_linker_0, # of connection points: 2
#     Edge 26, Type (0, 0), BuildingBlock: OJICUG_clean_linker_0, # of connection points: 2
#     Edge 27, Type (0, 0), BuildingBlock: OJICUG_clean_linker_0, # of connection points: 2
#     Edge 28, Type (0, 0), BuildingBlock: OJICUG_clean_linker_0, # of connection points: 2
#     Edge 29, Type (0, 0), BuildingBlock: OJICUG_clean_linker_0, # of connection points: 2
#     Edge 30, Type (0, 0), BuildingBlock: OJICUG_clean_linker_0, # of connection points: 2
#     Edge 31, Type (0, 0), BuildingBlock: OJICUG_clean_linker_0, # of connection points: 2
#     Edge 32, Type (0, 0), BuildingBlock: OJICUG_clean_linker_0, # of connection points: 2
#     Edge 33, Type (0, 0), BuildingBlock: OJICUG_clean_linker_0, # of connection points: 2
#     Edge 34, Type (0, 0), BuildingBlock: OJICUG_clean_linker_0, # of connection points: 2
#     Edge 35, Type (0, 0), BuildingBlock: OJICUG_clean_linker_0, # of connection points: 2
#     Edge 36, Type (0, 0), BuildingBlock: OJICUG_clean_linker_0, # of connection points: 2
#     Edge 37, Type (0, 0), BuildingBlock: OJICUG_clean_linker_0, # of connection points: 2
#     Edge 38, Type (0, 0), BuildingBlock: OJICUG_clean_linker_0, # of connection points: 2
#     Edge 39, Type (0, 0), BuildingBlock: OJICUG_clean_linker_0, # of connection points: 2
#     Edge 40, Type (0, 0), BuildingBlock: OJICUG_clean_linker_0, # of connection points: 2
#     Edge 41, Type (0, 0), BuildingBlock: OJICUG_clean_linker_0, # of connection points: 2
#     Edge 42, Type (0, 0), BuildingBlock: OJICUG_clean_linker_0, # of connection points: 2
#     Edge 43, Type (0, 0), BuildingBlock: OJICUG_clean_linker_0, # of connection points: 2
#     Edge 44, Type (0, 0), BuildingBlock: OJICUG_clean_linker_0, # of connection points: 2
#     Edge 45, Type (0, 0), BuildingBlock: OJICUG_clean_linker_0, # of connection points: 2
#     Edge 46, Type (0, 0), BuildingBlock: OJICUG_clean_linker_0, # of connection points: 2
#     Edge 47, Type (0, 0), BuildingBlock: OJICUG_clean_linker_0, # of connection points: 2
#     Edge 48, Type (0, 0), BuildingBlock: OJICUG_clean_linker_0, # of connection points: 2
#     Edge 49, Type (0, 0), BuildingBlock: OJICUG_clean_linker_0, # of connection points: 2
#     Edge 50, Type (0, 0), BuildingBlock: OJICUG_clean_linker_0, # of connection points: 2
#     Edge 51, Type (0, 0), BuildingBlock: OJICUG_clean_linker_0, # of connection points: 2
#     Edge 52, Type (0, 0), BuildingBlock: OJICUG_clean_linker_0, # of connection points: 2
#     Edge 53, Type (0, 0), BuildingBlock: OJICUG_clean_linker_0, # of connection points: 2
#     Edge 54, Type (0, 0), BuildingBlock: OJICUG_clean_linker_0, # of connection points: 2
#     Edge 55, Type (0, 0), BuildingBlock: OJICUG_clean_linker_0, # of connection points: 2
#     Edge 56, Type (0, 0), BuildingBlock: OJICUG_clean_linker_0, # of connection points: 2
#     Edge 57, Type (0, 0), BuildingBlock: OJICUG_clean_linker_0, # of connection points: 2
#     Edge 58, Type (0, 0), BuildingBlock: OJICUG_clean_linker_0, # of connection points: 2
#     Edge 59, Type (0, 0), BuildingBlock: OJICUG_clean_linker_0, # of connection points: 2
#     Edge 60, Type (0, 0), BuildingBlock: OJICUG_clean_linker_0, # of connection points: 2
#     Edge 61, Type (0, 0), BuildingBlock: OJICUG_clean_linker_0, # of connection points: 2
#     Edge 62, Type (0, 0), BuildingBlock: OJICUG_clean_linker_0, # of connection points: 2
#     Edge 63, Type (0, 0), BuildingBlock: OJICUG_clean_linker_0, # of connection points: 2
# Relax obj value: 0.035
# Max RMSD: 0.076
# Mean RMSD: 0.076
data_MOF--net-vbm--node1-LEVNOQ01_clean_sbu_1--edge1-OJICUG_clean_linker_0
_symmetry_space_group_name_H-M    P1
_symmetry_Int_Tables_number       1
_symmetry_cell_setting            triclinic
loop_
_symmetry_equiv_pos_as_xyz
'x, y, z'
_cell_length_a     45.967307
_cell_length_b     12.029936
_cell_length_c     45.838626
_cell_angle_alpha  90.037631
_cell_angle_beta   90.024596
_cell_angle_gamma 90.036401
loop_
_atom_site_label
_atom_site_type_symbol
_atom_site_fract_x
_atom_site_fract_y
_atom_site_fract_z
_atom_type_partial_charge
O0 O 0.15921 0.33143 0.15524 0.0
Mg1 Mg 0.11473 0.30319 0.16553 0.0
O2 O 0.16049 0.19262 0.12384 0.0
Mg3 Mg 0.11016 0.17312 0.11928 0.0
O4 O 0.10409 0.14061 0.17083 0.0
O5 O 0.10977 0.26318 0.20761 0.0
O6 O 0.05904 0.15327 0.11618 0.0
O7 O 0.11455 0.97701 0.12246 0.0
Mg8 Mg 0.10339 0.04919 0.07499 0.0
O9 O 0.1175 0.20803 0.06778 0.0
O10 O 0.06163 0.00255 0.0894 0.0
O11 O 0.1345 0.92507 0.08144 0.0
O12 O 0.09989 0.09314 0.03311 0.0
C13 C 0.09417 0.4455 0.12948 0.0
C14 C 0.17357 0.26822 0.1384 0.0
C15 C 0.10409 0.16378 0.19874 0.0
C16 C 0.04707 0.0663 0.10559 0.0
C17 C 0.12575 0.90062 0.10673 0.0
C18 C 0.11194 0.18574 0.04044 0.0
O19 O 0.08381 0.42324 0.1542 0.0
O20 O 0.10671 0.36808 0.11535 0.0
O21 O 0.83431 0.05101 0.09433 0.0
Mg22 Mg 0.86756 0.94037 0.08176 0.0
O23 O 0.86301 0.00354 0.12984 0.0
Mg24 Mg 0.8675 0.80878 0.12378 0.0
O25 O 0.86322 0.77609 0.07184 0.0
O26 O 0.86363 0.91522 0.03893 0.0
O27 O 0.87153 0.61236 0.11966 0.0
O28 O 0.81709 0.7881 0.12619 0.0
Mg29 Mg 0.85852 0.67627 0.17145 0.0
O30 O 0.87335 0.8344 0.17528 0.0
O31 O 0.88909 0.55528 0.16111 0.0
O32 O 0.81431 0.65497 0.15904 0.0
O33 O 0.86315 0.72172 0.21318 0.0
C34 C 0.9274 0.92868 0.10847 0.0
C35 C 0.84798 0.07798 0.11711 0.0
C36 C 0.86216 0.81074 0.04489 0.0
C37 C 0.88189 0.53399 0.13525 0.0
C38 C 0.80209 0.71699 0.14034 0.0
C39 C 0.87267 0.8154 0.20337 0.0
O40 O 0.91075 -0.01025 0.0933 0.0
O41 O 0.91759 0.83897 0.11986 0.0
O42 O 0.15383 0.06151 0.39333 0.0
Mg43 Mg 0.12136 0.95043 0.40767 0.0
O44 O 0.1238 0.0129 0.35907 0.0
Mg45 Mg 0.12013 0.81791 0.3653 0.0
O46 O 0.12692 0.7861 0.41717 0.0
O47 O 0.12778 0.92468 0.45026 0.0
O48 O 0.11672 0.62189 0.37025 0.0
O49 O 0.17039 0.79599 0.35928 0.0
Mg50 Mg 0.12356 0.68391 0.31903 0.0
O51 O 0.11197 0.84531 0.31392 0.0
O52 O 0.09251 0.56716 0.33215 0.0
O53 O 0.16837 0.65651 0.32813 0.0
O54 O 0.11703 0.72291 0.27705 0.0
C55 C 0.0604 0.93486 0.38358 0.0
C56 C 0.13919 0.08795 0.37115 0.0
C57 C 0.12923 0.8203 0.44413 0.0
C58 C 0.1037 0.5444 0.35645 0.0
C59 C 0.18314 0.72011 0.34454 0.0
C60 C 0.11082 0.82164 0.28608 0.0
O61 O 0.07735 -0.00276 0.3981 0.0
O62 O 0.07024 0.84616 0.3717 0.0
O63 O 0.84835 0.931 0.39653 0.0
Mg64 Mg 0.88028 0.04971 0.4065 0.0
O65 O 0.87405 0.98167 0.35898 0.0
Mg66 Mg 0.87816 0.17801 0.36486 0.0
O67 O 0.86869 0.20909 0.41666 0.0
O68 O 0.87993 0.07527 0.44927 0.0
O69 O 0.88149 0.37296 0.3692 0.0
O70 O 0.82833 0.20195 0.35668 0.0
Mg71 Mg 0.87736 0.31492 0.31652 0.0
O72 O 0.88636 0.15077 0.31415 0.0
O73 O 0.90825 0.42685 0.33278 0.0
O74 O 0.83218 0.33975 0.3249 0.0
O75 O 0.88663 0.26599 0.27551 0.0
C76 C 0.9396 0.06663 0.38207 0.0
C77 C 0.86043 0.90572 0.37276 0.0
C78 C 0.87118 0.17451 0.44357 0.0
C79 C 0.89554 0.4499 0.35633 0.0
C80 C 0.81655 0.27734 0.3409 0.0
C81 C 0.88937 0.16728 0.28616 0.0
O82 O 0.92327 0.0008 0.39589 0.0
O83 O 0.92886 0.15563 0.37133 0.0
O84 O 0.8697 0.03013 0.89208 0.0
Mg85 Mg 0.90238 0.91462 0.90163 0.0
O86 O 0.89319 0.97658 0.85322 0.0
Mg87 Mg 0.89929 0.78043 0.8586 0.0
O88 O 0.8908 0.75432 0.91024 0.0
O89 O 0.90406 0.88104 0.94409 0.0
O90 O 0.90429 0.58601 0.86327 0.0
O91 O 0.84979 0.74703 0.85199 0.0
Mg92 Mg 0.89786 0.63189 0.80821 0.0
O93 O 0.9055 0.79727 0.80787 0.0
O94 O 0.92969 0.52816 0.82625 0.0
O95 O 0.85296 0.60964 0.81969 0.0
O96 O 0.90744 0.69059 0.76781 0.0
C97 C 0.9601 0.90533 0.87308 0.0
C98 C 0.88048 0.05371 0.86754 0.0
C99 C 0.89409 0.78414 0.93745 0.0
C100 C 0.91784 0.50764 0.8504 0.0
C101 C 0.83784 0.67023 0.83675 0.0
C102 C 0.90875 0.78774 0.77971 0.0
O103 O 0.94397 0.96694 0.88833 0.0
O104 O 0.95004 0.81381 0.86298 0.0
O105 O 0.17204 0.96635 0.87887 0.0
Mg106 Mg 0.13826 0.07268 0.89218 0.0
O107 O 0.14039 0.00491 0.84511 0.0
Mg108 Mg 0.13549 0.20009 0.85239 0.0
O109 O 0.14139 0.23326 0.90501 0.0
O110 O 0.14288 0.08548 0.93519 0.0
O111 O 0.13173 0.39622 0.85287 0.0
O112 O 0.18683 0.21462 0.84932 0.0
Mg113 Mg 0.15843 0.2945 0.79327 0.0
O114 O 0.12563 0.18882 0.80247 0.0
O115 O 0.14927 0.45068 0.80986 0.0
O116 O 0.19923 0.22574 0.80276 0.0
O117 O 0.13627 0.24585 0.75724 0.0
C118 C 0.0772 0.07521 0.86872 0.0
C119 C 0.1575 0.93526 0.85702 0.0
C120 C 0.14328 0.19138 0.93125 0.0
C121 C 0.13867 0.47281 0.83466 0.0
C122 C 0.20615 0.21324 0.82928 0.0
C123 C 0.12076 0.1851 0.77449 0.0
O124 O 0.09532 0.01566 0.88249 0.0
O125 O 0.08541 0.16834 0.85789 0.0
O126 O 0.8244 0.90976 0.59857 0.0
Mg127 Mg 0.85794 0.02435 0.59155 0.0
O128 O 0.84796 0.95362 0.63819 0.0
Mg129 Mg 0.85306 0.14961 0.6335 0.0
O130 O 0.85083 0.1866 0.58121 0.0
O131 O 0.86032 0.05025 0.54876 0.0
O132 O 0.85622 0.34474 0.63445 0.0
O133 O 0.80154 0.16146 0.63202 0.0
Mg134 Mg 0.82455 0.23939 0.69056 0.0
O135 O 0.85823 0.13473 0.68386 0.0
O136 O 0.83486 0.39804 0.67574 0.0
O137 O 0.7849 0.17082 0.67726 0.0
O138 O 0.84301 0.18693 0.72818 0.0
C139 C 0.91477 0.03385 0.62307 0.0
C140 C 0.83419 0.88165 0.62316 0.0
C141 C 0.85426 0.15253 0.55437 0.0
C142 C 0.84758 0.42091 0.652 0.0
C143 C 0.78047 0.15912 0.65021 0.0
C144 C 0.86041 0.12895 0.71213 0.0
O145 O 0.89941 0.9725 0.60678 0.0
O146 O 0.904 0.12432 0.63312 0.0
O147 O 0.11514 0.04123 0.58557 0.0
Mg148 Mg 0.08629 0.90902 0.58544 0.0
O149 O 0.10412 -0.00877 0.63027 0.0
Mg150 Mg 0.09892 0.79498 0.63036 0.0
O151 O 0.1045 0.7561 0.57866 0.0
O152 O 0.07849 0.85143 0.54532 0.0
O153 O 0.0957 0.59911 0.63078 0.0
O154 O 0.15051 0.7858 0.63137 0.0
Mg155 Mg 0.11909 0.69243 0.68476 0.0
O156 O 0.09318 0.82779 0.68155 0.0
O157 O 0.10368 0.53735 0.67517 0.0
O158 O 0.16268 0.72749 0.67553 0.0
O159 O 0.10458 0.74109 0.72362 0.0
C160 C 0.03364 0.89508 0.62079 0.0
C161 C 0.11217 0.06601 0.61214 0.0
C162 C 0.09539 0.76978 0.55186 0.0
C163 C 0.09775 0.5187 0.64884 0.0
C164 C 0.16984 0.76218 0.65049 0.0
C165 C 0.09244 0.82301 0.71012 0.0
O166 O 0.04626 0.9575 0.60286 0.0
O167 O 0.04705 0.80997 0.63066 0.0
O168 O 0.66816 0.75115 0.16004 0.0
Mg169 Mg 0.62424 0.78927 0.16459 0.0
O170 O 0.65959 0.69673 0.11473 0.0
Mg171 Mg 0.60806 0.68836 0.10971 0.0
O172 O 0.59754 0.65647 0.16034 0.0
O173 O 0.60692 0.74622 0.20256 0.0
O174 O 0.55642 0.673 0.10636 0.0
O175 O 0.61336 0.49234 0.11044 0.0
Mg176 Mg 0.59905 0.57317 0.06471 0.0
O177 O 0.61766 0.72544 0.05825 0.0
O178 O 0.55834 0.52188 0.08005 0.0
O179 O 0.62825 0.44246 0.06685 0.0
O180 O 0.59266 0.62934 0.02424 0.0
C181 C 0.60597 0.96455 0.12774 0.0
C182 C 0.6773 0.71771 0.13557 0.0
C183 C 0.59488 0.66478 0.18874 0.0
C184 C 0.54421 0.58519 0.09656 0.0
C185 C 0.62302 0.41766 0.09308 0.0
C186 C 0.60943 0.71103 0.03116 0.0
O187 O 0.61082 0.94586 0.15426 0.0
O188 O 0.60463 0.8842 0.10956 0.0
O189 O 0.3318 0.5329 0.0962 0.0
Mg190 Mg 0.36526 0.42552 0.08277 0.0
O191 O 0.36335 0.49361 0.13003 0.0
Mg192 Mg 0.36875 0.29866 0.12359 0.0
O193 O 0.36242 0.2631 0.07123 0.0
O194 O 0.35967 0.40729 0.03998 0.0
O195 O 0.37352 0.10221 0.12247 0.0
O196 O 0.31727 0.28215 0.1271 0.0
Mg197 Mg 0.34774 0.2044 0.17964 0.0
O198 O 0.37958 0.31789 0.17405 0.0
O199 O 0.3565 0.04637 0.16526 0.0
O200 O 0.30588 0.26659 0.1737 0.0
O201 O 0.3677 0.24055 0.21719 0.0
C202 C 0.42666 0.42495 0.10556 0.0
C203 C 0.34639 0.56364 0.11805 0.0
C204 C 0.35993 0.30184 0.0447 0.0
C205 C 0.36694 0.02468 0.14048 0.0
C206 C 0.29829 0.28063 0.14748 0.0
C207 C 0.38268 0.31173 0.20239 0.0
O208 O 0.40836 0.48314 0.09161 0.0
O209 O 0.41862 0.3329 0.11715 0.0
O210 O 0.65454 0.53929 0.37178 0.0
Mg211 Mg 0.62059 0.42971 0.38226 0.0
O212 O 0.62636 0.49855 0.33513 0.0
Mg213 Mg 0.62069 0.30326 0.3409 0.0
O214 O 0.62503 0.2671 0.3933 0.0
O215 O 0.6223 0.40929 0.42528 0.0
O216 O 0.61615 0.10733 0.34129 0.0
O217 O 0.67237 0.28799 0.34057 0.0
Mg218 Mg 0.64597 0.21313 0.28614 0.0
O219 O 0.61239 0.32073 0.2901 0.0
O220 O 0.63743 0.05359 0.30021 0.0
O221 O 0.68693 0.28051 0.29479 0.0
O222 O 0.6279 0.24866 0.2475 0.0
C223 C 0.56115 0.42771 0.35527 0.0
C224 C 0.64205 0.56919 0.3486 0.0
C225 C 0.6249 0.30462 0.42006 0.0
C226 C 0.62477 0.03072 0.32388 0.0
C227 C 0.69273 0.29069 0.3216 0.0
C228 C 0.61094 0.31513 0.26164 0.0
O229 O 0.57835 0.4863 0.37043 0.0
O230 O 0.57014 0.33572 0.34434 0.0
O231 O 0.36083 0.44662 0.3951 0.0
Mg232 Mg 0.39053 0.57602 0.39702 0.0
O233 O 0.37411 0.49706 0.35111 0.0
Mg234 Mg 0.37942 0.69302 0.35209 0.0
O235 O 0.37316 0.73004 0.40374 0.0
O236 O 0.39729 0.63038 0.43765 0.0
O237 O 0.38306 0.88795 0.35139 0.0
O238 O 0.3276 0.70264 0.35132 0.0
Mg239 Mg 0.35585 0.78642 0.29687 0.0
O240 O 0.38673 0.6672 0.30127 0.0
O241 O 0.36624 0.94618 0.30894 0.0
O242 O 0.31378 0.73081 0.30572 0.0
O243 O 0.37312 0.74351 0.25852 0.0
C244 C 0.44393 0.58807 0.36231 0.0
C245 C 0.36506 0.42213 0.36868 0.0
C246 C 0.38128 0.71425 0.43077 0.0
C247 C 0.37674 0.96663 0.33377 0.0
C248 C 0.30758 0.71 0.33201 0.0
C249 C 0.38807 0.67067 0.27277 0.0
O250 O 0.43072 0.52667 0.38008 0.0
O251 O 0.43121 0.67473 0.35239 0.0
O252 O 0.37496 0.55981 0.89827 0.0
Mg253 Mg 0.40527 0.43197 0.90257 0.0
O254 O 0.39059 0.50663 0.8555 0.0
Mg255 Mg 0.39465 0.31038 0.85779 0.0
O256 O 0.38923 0.27538 0.90946 0.0
O257 O 0.40985 0.38308 0.94403 0.0
O258 O 0.39794 0.11569 0.86111 0.0
O259 O 0.34411 0.29127 0.85473 0.0
Mg260 Mg 0.38888 0.18041 0.81106 0.0
O261 O 0.39787 0.34441 0.80632 0.0
O262 O 0.42036 0.06153 0.82186 0.0
O263 O 0.34476 0.15268 0.82311 0.0
O264 O 0.3927 0.22408 0.76898 0.0
C265 C 0.45963 0.41098 0.86907 0.0
C266 C 0.38118 0.58355 0.87221 0.0
C267 C 0.39587 0.29447 0.93673 0.0
C268 C 0.41037 0.03876 0.8467 0.0
C269 C 0.33074 0.21589 0.84029 0.0
C270 C 0.39707 0.32388 0.7783 0.0
O271 O 0.4467 0.47484 0.88655 0.0
O272 O 0.4461 0.32741 0.85844 0.0
O273 O 0.67269 0.4012 0.87855 0.0
Mg274 Mg 0.6401 0.51688 0.88859 0.0
O275 O 0.6456 0.44335 0.84121 0.0
Mg276 Mg 0.64165 0.63949 0.84559 0.0
O277 O 0.64645 0.68101 0.89759 0.0
O278 O 0.64335 0.54571 0.9314 0.0
O279 O 0.63848 0.83482 0.845 0.0
O280 O 0.69362 0.64847 0.84441 0.0
Mg281 Mg 0.66606 0.72191 0.79099 0.0
O282 O 0.63215 0.61477 0.79482 0.0
O283 O 0.65858 0.8854 0.8032 0.0
O284 O 0.70706 0.65459 0.79832 0.0
O285 O 0.64864 0.68461 0.7523 0.0
C286 C 0.58051 0.53035 0.862 0.0
C287 C 0.66074 0.37211 0.85502 0.0
C288 C 0.64647 0.64908 0.92484 0.0
C289 C 0.64678 0.91028 0.82718 0.0
C290 C 0.7135 0.64413 0.82493 0.0
C291 C 0.63115 0.61979 0.76631 0.0
O292 O 0.59671 0.46864 0.87744 0.0
O293 O 0.59115 0.61743 0.85 0.0
O294 O 0.32163 0.42906 0.59024 0.0
Mg295 Mg 0.35355 0.53862 0.57396 0.0
O296 O 0.35387 0.47688 0.62256 0.0
Mg297 Mg 0.35779 0.67142 0.6162 0.0
O298 O 0.34899 0.70335 0.56469 0.0
O299 O 0.34506 0.56502 0.53176 0.0
O300 O 0.36135 0.86789 0.6115 0.0
O301 O 0.30778 0.69258 0.62392 0.0
Mg302 Mg 0.35432 0.80347 0.66398 0.0
O303 O 0.36907 0.64515 0.66703 0.0
O304 O 0.38354 0.92531 0.65062 0.0
O305 O 0.30901 0.82484 0.65717 0.0
O306 O 0.36328 0.76123 0.70519 0.0
C307 C 0.41571 0.55066 0.59535 0.0
C308 C 0.33761 0.40228 0.61147 0.0
C309 C 0.34513 0.6696 0.53787 0.0
C310 C 0.37342 0.94646 0.62578 0.0
C311 C 0.29461 0.76308 0.64002 0.0
C312 C 0.37137 0.66629 0.69495 0.0
O313 O 0.39774 0.4897 0.58165 0.0
O314 O 0.40706 0.64068 0.6075 0.0
O315 O 0.62577 0.53637 0.57682 0.0
Mg316 Mg 0.59371 0.41787 0.56715 0.0
O317 O 0.60099 0.48504 0.61497 0.0
Mg318 Mg 0.59627 0.28856 0.60939 0.0
O319 O 0.60494 0.25779 0.55752 0.0
O320 O 0.5932 0.38925 0.52443 0.0
O321 O 0.59238 0.09363 0.60466 0.0
O322 O 0.64595 0.26157 0.6164 0.0
Mg323 Mg 0.5967 0.1502 0.65649 0.0
O324 O 0.58958 0.31549 0.6606 0.0
O325 O 0.56499 0.04016 0.64063 0.0
O326 O 0.64149 0.12007 0.64693 0.0
O327 O 0.58895 0.19524 0.69815 0.0
C328 C 0.53505 0.40362 0.59332 0.0
C329 C 0.6142 0.56135 0.60089 0.0
C330 C 0.60211 0.29046 0.53047 0.0
C331 C 0.57807 0.01677 0.61729 0.0
C332 C 0.65735 0.18252 0.63116 0.0
C333 C 0.58726 0.29584 0.68855 0.0
O334 O 0.55124 0.46754 0.57876 0.0
O335 O 0.5456 0.31426 0.60406 0.0
C336 C 0.21943 0.34898 0.15827 0.0
C337 C 0.2057 0.28006 0.13762 0.0
H338 H 0.25948 0.40302 0.17728 0.0
C339 C 0.22306 0.22065 0.11768 0.0
H340 H 0.20689 0.39667 0.17386 0.0
C341 C 0.25355 0.22665 0.11932 0.0
C342 C 0.26696 0.2905 0.14122 0.0
H343 H 0.21314 0.1675 0.10139 0.0
H344 H 0.26657 0.17671 0.10461 0.0
C345 C 0.24963 0.35316 0.16022 0.0
C346 C 0.75555 0.76695 0.11399 0.0
C347 C 0.77016 0.70792 0.13612 0.0
H348 H 0.71409 0.81371 0.0958 0.0
C349 C 0.75376 0.64154 0.15528 0.0
H350 H 0.76757 0.81814 0.09875 0.0
C351 C 0.72351 0.63963 0.15361 0.0
C352 C 0.70887 0.70205 0.1324 0.0
H353 H 0.76417 0.59424 0.17246 0.0
H354 H 0.71141 0.5924 0.16968 0.0
C355 C 0.72505 0.76347 0.11204 0.0
C356 C 0.26367 0.76314 0.36151 0.0
C357 C 0.27655 0.6981 0.33955 0.0
H358 H 0.22369 0.82312 0.38017 0.0
C359 C 0.25874 0.63412 0.32128 0.0
H360 H 0.27704 0.81439 0.3756 0.0
C361 C 0.22858 0.6381 0.32398 0.0
C362 C 0.21533 0.70826 0.34465 0.0
H363 H 0.26818 0.58371 0.30411 0.0
H364 H 0.21566 0.58942 0.30889 0.0
C365 C 0.2332 0.76893 0.3639 0.0
C366 C 0.76539 0.23081 0.35755 0.0
C367 C 0.78442 0.28944 0.33904 0.0
H368 H 0.72091 0.18759 0.36705 0.0
C369 C 0.77246 0.3574 0.31711 0.0
H370 H 0.77388 0.17829 0.37474 0.0
C371 C 0.74252 0.36147 0.31259 0.0
C372 C 0.72359 0.29972 0.33021 0.0
H373 H 0.78628 0.40447 0.3025 0.0
H374 H 0.73418 0.4108 0.29467 0.0
C375 C 0.73513 0.23678 0.35333 0.0
C376 C 0.76284 0.5718 0.81464 0.0
C377 C 0.74462 0.63561 0.83254 0.0
H378 H 0.80619 0.53125 0.80226 0.0
C379 C 0.75712 0.70382 0.85407 0.0
H380 H 0.75373 0.51868 0.79785 0.0
C381 C 0.78753 0.71332 0.85628 0.0
C382 C 0.80578 0.65345 0.83723 0.0
H383 H 0.74346 0.75488 0.8679 0.0
H384 H 0.79668 0.77012 0.87217 0.0
C385 C 0.79298 0.57971 0.81712 0.0
C386 C 0.28123 0.2696 0.86005 0.0
C387 C 0.29854 0.2055 0.84109 0.0
H388 H 0.23781 0.32014 0.8717 0.0
C389 C 0.28467 0.13458 0.82098 0.0
H390 H 0.29122 0.32455 0.87588 0.0
C391 C 0.25449 0.13331 0.81842 0.0
C392 C 0.23728 0.20088 0.83631 0.0
H393 H 0.29713 0.08318 0.80614 0.0
H394 H 0.2446 0.08187 0.80171 0.0
C395 C 0.25073 0.26652 0.85783 0.0
C396 C 0.7085 0.23042 0.61507 0.0
C397 C 0.68935 0.16599 0.63206 0.0
H398 H 0.75305 0.27635 0.60695 0.0
C399 C 0.70112 0.08851 0.65181 0.0
H400 H 0.70016 0.29024 0.59954 0.0
C401 C 0.73104 0.08153 0.65612 0.0
C402 C 0.75005 0.14992 0.6404 0.0
H403 H 0.68717 0.03651 0.66509 0.0
H404 H 0.7393 0.02563 0.67271 0.0
C405 C 0.73873 0.2218 0.61908 0.0
C406 C 0.21455 0.72333 0.62067 0.0
C407 C 0.20111 0.77594 0.64448 0.0
H408 H 0.25504 0.67576 0.60071 0.0
C409 C 0.21838 0.82967 0.66536 0.0
H410 H 0.20157 0.6801 0.60451 0.0
C411 C 0.24859 0.82836 0.66312 0.0
C412 C 0.26238 0.77098 0.64025 0.0
H413 H 0.20847 0.87034 0.68398 0.0
H414 H 0.26113 0.86905 0.68006 0.0
C415 C 0.24506 0.71995 0.6187 0.0
C416 C 0.10342 0.88034 0.23421 0.0
C417 C 0.10459 0.90837 0.26405 0.0
H418 H 0.10221 0.93912 0.19015 0.0
C419 C 0.10205 0.02029 0.27214 0.0
H420 H 0.10506 0.79462 0.22715 0.0
C421 C 0.10017 0.10294 0.25082 0.0
C422 C 0.10083 0.07532 0.22093 0.0
H423 H 0.10273 0.0444 0.29487 0.0
H424 H 0.09939 0.18889 0.25783 0.0
C425 C 0.10159 0.96298 0.21289 0.0
C426 C 0.88335 0.96557 0.27506 0.0
C427 C 0.8909 0.07261 0.26568 0.0
H428 H 0.87165 0.80054 0.26276 0.0
C429 C 0.89563 0.09134 0.23572 0.0
H430 H 0.87931 0.94871 0.29788 0.0
C431 C 0.89099 0.00642 0.21541 0.0
C432 C 0.88138 0.90162 0.22466 0.0
H433 H 0.90167 0.17297 0.22779 0.0
H434 H 0.89393 0.0238 0.19246 0.0
C435 C 0.87865 0.88095 0.25478 0.0
C436 C 0.89103 0.95729 0.71331 0.0
C437 C 0.88136 0.05516 0.72674 0.0
H438 H 0.90829 0.79428 0.71986 0.0
C439 C 0.88798 0.07394 0.75628 0.0
H440 H 0.8866 0.94165 0.69045 0.0
C441 C 0.90044 -0.00975 0.77309 0.0
C442 C 0.90635 0.88633 0.76068 0.0
H443 H 0.88145 0.15019 0.76704 0.0
H444 H 0.90278 0.00355 0.79627 0.0
C445 C 0.90348 0.87309 0.73023 0.0
C446 C 0.09245 0.1184 0.73177 0.0
C447 C 0.10025 0.10551 0.76129 0.0
H448 H 0.08186 0.03546 0.69181 0.0
C449 C 0.09413 0.00484 0.77527 0.0
H450 H 0.09576 0.19698 0.72077 0.0
C451 C 0.08619 0.91245 0.75862 0.0
C452 C 0.08453 0.92063 0.72794 0.0
H453 H 0.09895 -0.00627 0.79822 0.0
H454 H 0.08523 0.83225 0.76933 0.0
C455 C 0.08438 0.02617 0.71515 0.0
C456 C 0.5895 0.37457 0.21434 0.0
C457 C 0.59319 0.39336 0.24448 0.0
H458 H 0.58533 0.44951 0.17218 0.0
C459 C 0.58623 0.4978 0.25598 0.0
H460 H 0.59366 0.2934 0.20498 0.0
C461 C 0.58153 0.58694 0.23709 0.0
C462 C 0.58394 0.5719 0.20666 0.0
H463 H 0.58806 0.5139 0.27917 0.0
H464 H 0.57989 0.66955 0.24638 0.0
C465 C 0.58466 0.46372 0.19548 0.0
C466 C 0.4042 0.47476 0.26762 0.0
C467 C 0.4019 0.58142 0.25567 0.0
H468 H 0.40053 0.30086 0.25915 0.0
C469 C 0.40463 0.59458 0.22524 0.0
H470 H 0.4032 0.46242 0.291 0.0
C471 C 0.40322 0.50209 0.20689 0.0
C472 C 0.39892 0.39655 0.21897 0.0
H473 H 0.40403 0.67654 0.21545 0.0
H474 H 0.40159 0.51489 0.18357 0.0
C475 C 0.40262 0.3823 0.24928 0.0
C476 C 0.39665 0.39224 0.72671 0.0
C477 C 0.39626 0.41559 0.75685 0.0
H478 H 0.3893 0.45359 0.68343 0.0
C479 C 0.39065 0.52458 0.76606 0.0
H480 H 0.40105 0.30898 0.71886 0.0
C481 C 0.38372 0.60676 0.74574 0.0
C482 C 0.3822 0.58173 0.71573 0.0
H483 H 0.3899 0.54503 0.78903 0.0
H484 H 0.37841 0.68895 0.75378 0.0
C485 C 0.38974 0.47466 0.70636 0.0
C486 C 0.60636 0.57517 0.71951 0.0
C487 C 0.61175 0.54775 0.74888 0.0
H488 H 0.59374 0.51709 0.67733 0.0
C489 C 0.60254 0.44422 0.75941 0.0
H490 H 0.61269 0.65544 0.71087 0.0
C491 C 0.59142 0.36475 0.74003 0.0
C492 C 0.58939 0.38794 0.70991 0.0
H493 H 0.60617 0.42127 0.78197 0.0
H494 H 0.58672 0.2824 0.74833 0.0
C495 C 0.59527 0.49609 0.70023 0.0
C496 C 0.16133 0.2442 0.97988 0.0
C497 C 0.14058 0.25968 0.95773 0.0
H498 H 0.16819 0.21427 0.02543 0.0
C499 C 0.11243 0.29359 0.96553 0.0
H500 H 0.1831 0.21665 0.9744 0.0
C501 C 0.10368 0.28925 -0.00524 0.0
C502 C 0.12326 0.25433 0.01643 0.0
H503 H 0.09593 0.30451 0.94888 0.0
H504 H 0.08074 0.29756 -0.00022 0.0
C505 C 0.15275 0.24262 0.00919 0.0
C506 C 0.85284 0.73435 0.96838 0.0
C507 C 0.88233 0.71853 0.96172 0.0
H508 H 0.82245 0.77501 0.00213 0.0
C509 C 0.90152 0.68844 0.98421 0.0
H510 H 0.8377 0.75884 0.95143 0.0
C511 C 0.89256 0.69491 0.01335 0.0
C512 C 0.86462 0.73425 0.02004 0.0
H513 H 0.92445 0.67703 0.97961 0.0
H514 H 0.90888 0.68812 0.03032 0.0
C515 C 0.84407 0.74373 -0.00249 0.0
C516 C 0.10095 0.69235 0.47482 0.0
C517 C 0.1278 0.74328 0.46906 0.0
H518 H 0.06909 0.65733 0.50765 0.0
C519 C 0.14744 0.75893 0.49221 0.0
H520 H 0.08531 0.68045 0.4574 0.0
C521 C 0.13842 0.7425 0.52107 0.0
C522 C 0.1094 0.71398 0.52694 0.0
H523 H 0.16821 0.79892 0.48831 0.0
H524 H 0.15251 0.77085 0.53853 0.0
C525 C 0.09164 0.67891 0.5037 0.0
C526 C 0.82962 0.21597 0.50985 0.0
C527 C 0.85308 0.22803 0.52922 0.0
H528 H 0.81695 0.19656 0.46519 0.0
C529 C 0.87967 0.26795 0.51843 0.0
H530 H 0.80901 0.18372 0.51762 0.0
C531 C 0.8843 0.27444 0.48829 0.0
C532 C 0.86231 0.24166 0.46882 0.0
H533 H 0.89821 0.27631 0.53289 0.0
H534 H 0.90629 0.28733 0.48045 0.0
C535 C 0.83418 0.22356 0.47972 0.0
C536 C 0.65363 0.73251 0.00167 0.0
C537 C 0.62463 0.76411 0.00649 0.0
H538 H 0.68408 0.67087 0.9702 0.0
C539 C 0.60786 0.79863 0.98248 0.0
H540 H 0.66696 0.70434 0.01972 0.0
C541 C 0.61798 0.78186 0.95397 0.0
C542 C 0.6447 0.7284 0.94931 0.0
H543 H 0.58534 0.82242 0.98558 0.0
H544 H 0.60295 0.79353 0.93601 0.0
C545 C 0.66346 0.71298 0.97319 0.0
C546 C 0.40176 0.19544 0.98354 0.0
C547 C 0.38327 0.22934 0.9608 0.0
H548 H 0.40749 0.1842 0.02979 0.0
C549 C 0.35354 0.2433 0.96668 0.0
H550 H 0.42484 0.18517 0.97957 0.0
C551 C 0.34373 0.24541 -0.00439 0.0
C552 C 0.36346 0.23105 0.01875 0.0
H553 H 0.33891 0.27068 0.94959 0.0
H554 H 0.32187 0.27475 -6e-05 0.0
C555 C 0.39175 0.19451 0.01239 0.0
C556 C 0.64665 0.24218 0.46622 0.0
C557 C 0.6242 0.23097 0.44563 0.0
H558 H 0.65709 0.26302 0.51142 0.0
C559 C 0.59678 0.19467 0.45514 0.0
H560 H 0.66788 0.27163 0.45944 0.0
C561 C 0.59045 0.19155 0.48502 0.0
C562 C 0.61164 0.22285 0.50553 0.0
H563 H 0.579 0.18709 0.43973 0.0
H564 H 0.56799 0.18167 0.49171 0.0
C565 C 0.64044 0.23716 0.49609 0.0
C566 C 0.32811 0.73126 0.48937 0.0
C567 C 0.34738 0.74602 0.51287 0.0
H568 H 0.32392 0.718 0.44299 0.0
C569 C 0.37461 0.79475 0.50754 0.0
H570 H 0.30705 0.69311 0.49293 0.0
C571 C 0.3846 0.80608 0.47882 0.0
C572 C 0.3671 0.77165 0.45533 0.0
H573 H 0.38997 0.80607 0.52524 0.0
H574 H 0.40734 0.82564 0.47528 0.0
C575 C 0.33781 0.74581 0.46066 0.0
C576 C 0.96509 0.07864 0.11092 0.0
C577 C 0.95797 0.96459 0.11233 0.0
H578 H -0.00092 0.20132 0.10854 0.0
C579 C 0.98041 0.88673 0.11525 0.0
H580 H 0.94814 0.14076 0.10905 0.0
C581 C 0.00944 0.92157 0.11454 0.0
C582 C 0.01657 0.03503 0.11161 0.0
H583 H 0.97559 0.7987 0.11647 0.0
H584 H 0.02642 0.85918 0.11533 0.0
C585 C 0.99417 0.1137 0.11088 0.0
C586 C 0.99275 0.1158 0.38057 0.0
C587 C 0.97062 0.03599 0.37882 0.0
H588 H 0.03862 0.14562 0.38392 0.0
C589 C 0.97829 0.92285 0.37653 0.0
H590 H 0.98747 0.20325 0.38244 0.0
C591 C 0.00747 0.88974 0.37688 0.0
C592 C 0.02958 0.96892 0.3803 0.0
H593 H 0.96159 0.85948 0.37495 0.0
H594 H 0.01265 0.80203 0.37564 0.0
C595 C 0.02196 0.08244 0.38166 0.0
C596 C 0.04214 0.9162 0.86622 0.0
C597 C 0.04716 0.03207 0.86548 0.0
H598 H 0.0106 0.78425 0.86849 0.0
C599 C 0.02328 0.10384 0.86374 0.0
H600 H 0.06022 0.85857 0.86714 0.0
C601 C 0.99498 0.06101 0.86488 0.0
C602 C 0.98997 0.94551 0.86717 0.0
H603 H 0.02643 0.19304 0.863 0.0
H604 H 0.9769 0.1188 0.86484 0.0
C605 C 0.0138 0.87322 0.86677 0.0
C606 C 0.95198 0.88315 0.62789 0.0
C607 C 0.94502 -0.00251 0.62911 0.0
H608 H 0.98574 0.75974 0.62515 0.0
C609 C 0.96754 0.07455 0.63281 0.0
H610 H 0.93496 0.82149 0.62543 0.0
C611 C -0.00347 0.03881 0.63243 0.0
C612 C 0.00353 0.92533 0.62896 0.0
H613 H 0.9629 0.16272 0.6339 0.0
H614 H 0.01363 0.10083 0.63326 0.0
C615 C 0.98099 0.84726 0.62803 0.0
C616 C 0.46236 0.58268 0.10474 0.0
C617 C 0.45687 0.46764 0.10788 0.0
H618 H 0.49446 0.71154 0.09949 0.0
C619 C 0.48049 0.39539 0.11123 0.0
H620 H 0.44451 0.64088 0.10254 0.0
C621 C 0.50894 0.43611 0.10923 0.0
C622 C 0.5144 0.55012 0.10446 0.0
H623 H 0.47702 0.30687 0.11383 0.0
H624 H 0.52681 0.37752 0.11033 0.0
C625 C 0.49089 0.62372 0.1033 0.0
C626 C 0.47899 0.43842 0.34943 0.0
C627 C 0.47353 0.55282 0.35363 0.0
H628 H 0.51094 0.30863 0.34608 0.0
C629 C 0.49706 0.6265 0.35436 0.0
H630 H 0.4611 0.37973 0.34872 0.0
C631 C 0.52558 0.58528 0.35336 0.0
C632 C 0.53107 0.46991 0.35117 0.0
H633 H 0.49351 0.71456 0.35777 0.0
H634 H 0.54342 0.64363 0.35549 0.0
C635 C 0.50747 0.39741 0.34791 0.0
C636 C 0.51177 0.35567 0.8617 0.0
C637 C 0.49017 0.43767 0.86172 0.0
H638 H 0.55753 0.32163 0.86207 0.0
C639 C 0.4984 0.54991 0.85847 0.0
H640 H 0.50603 0.2689 0.86433 0.0
C641 C 0.52776 0.58025 0.85667 0.0
C642 C 0.54947 0.49905 0.85887 0.0
H643 H 0.48207 0.61484 0.85832 0.0
H644 H 0.53345 0.66748 0.85527 0.0
C645 C 0.54118 0.38624 0.86063 0.0
C646 C 0.45276 0.39814 0.59618 0.0
C647 C 0.44625 0.51265 0.59771 0.0
H648 H 0.4861 0.27285 0.59443 0.0
C649 C 0.4691 0.58888 0.6006 0.0
H650 H 0.43549 0.33719 0.5944 0.0
C651 C 0.49793 0.55191 0.60021 0.0
C652 C 0.50449 0.43784 0.59765 0.0
H653 H 0.46475 0.67722 0.602 0.0
H654 H 0.51523 0.61304 0.60136 0.0
C655 C 0.48165 0.36092 0.59648 0.0
C656 C 0.12935 0.69764 0.09531 0.0
C657 C 0.11951 0.78319 0.1137 0.0
H658 H 0.12828 0.52413 0.08521 0.0
C659 C 0.0998 0.75721 0.13614 0.0
H660 H 0.14412 0.71519 0.07749 0.0
C661 C 0.09032 0.6483 0.14026 0.0
C662 C 0.10033 0.56256 0.12206 0.0
H663 H 0.09101 0.8214 0.15012 0.0
H664 H 0.07545 0.63116 0.15804 0.0
C665 C 0.11983 0.58848 0.09941 0.0
C666 C 0.87644 0.22356 0.14329 0.0
C667 C 0.8552 0.19617 0.12243 0.0
H668 H 0.90255 0.3503 0.1627 0.0
C669 C 0.84462 0.28034 0.10396 0.0
H670 H 0.88566 0.16077 0.15738 0.0
C671 C 0.8548 0.38958 0.10665 0.0
C672 C 0.87571 0.41675 0.12791 0.0
H673 H 0.82868 0.26173 0.08724 0.0
H674 H 0.84557 0.45322 0.09274 0.0
C675 C 0.88661 0.33213 0.14594 0.0
C676 C 0.10823 0.23321 0.34773 0.0
C677 C 0.13152 0.20603 0.3663 0.0
H678 H 0.08038 0.36015 0.33098 0.0
C679 C 0.14411 0.29055 0.38336 0.0
H680 H 0.09738 0.17 0.33491 0.0
C681 C 0.13382 0.39979 0.38161 0.0
C682 C 0.1108 0.4269 0.36267 0.0
H683 H 0.16171 0.27219 0.39832 0.0
H684 H 0.1445 0.46344 0.39447 0.0
C685 C 0.09801 0.34208 0.34595 0.0
C686 C 0.90013 0.65224 0.345 0.0
C687 C 0.8882 0.56736 0.36233 0.0
H688 H 0.9002 0.82452 0.33408 0.0
C689 C 0.86595 0.59417 0.38217 0.0
H690 H 0.91712 0.63444 0.32931 0.0
C691 C 0.85572 0.7032 0.38443 0.0
C692 C 0.86758 0.78793 0.36698 0.0
H693 H 0.85596 0.53056 0.39556 0.0
H694 H 0.83884 0.72139 0.4002 0.0
C695 C 0.88993 0.76106 0.34727 0.0
C696 C 0.91156 0.19573 0.84275 0.0
C697 C 0.88823 0.17109 0.86153 0.0
H698 H 0.93999 0.31988 0.82545 0.0
C699 C 0.87604 0.25762 0.87814 0.0
H700 H 0.9223 0.13092 0.83043 0.0
C701 C 0.88677 0.36616 0.87585 0.0
C702 C 0.90993 0.39074 0.85683 0.0
H703 H 0.85845 0.2412 0.89326 0.0
H704 H 0.87642 0.43117 0.88848 0.0
C705 C 0.92225 0.30397 0.84044 0.0
C706 C 0.15119 0.62512 0.86916 0.0
C707 C 0.13872 0.59078 0.84275 0.0
H708 H 0.16814 0.76148 0.89397 0.0
C709 C 0.13277 0.67014 0.82106 0.0
H710 H 0.15666 0.56495 0.88586 0.0
C711 C 0.13976 0.78157 0.82538 0.0
C712 C 0.15312 0.81588 0.85136 0.0
H713 H 0.12362 0.64514 0.80027 0.0
H714 H 0.13499 0.8407 0.80823 0.0
C715 C 0.15851 0.73688 0.87339 0.0
C716 C 0.83566 0.68162 0.60853 0.0
C717 C 0.837 0.76309 0.63056 0.0
H718 H 0.83935 0.50852 0.59787 0.0
C719 C 0.84461 0.73154 0.65899 0.0
H720 H 0.83051 0.70396 0.58623 0.0
C721 C 0.84988 0.62026 0.6655 0.0
C722 C 0.84812 0.53863 0.64361 0.0
H723 H 0.84626 0.79274 0.67627 0.0
H724 H 0.85471 0.59755 0.68786 0.0
C725 C 0.84142 0.57027 0.61497 0.0
C726 C 0.11102 0.21062 0.65049 0.0
C727 C 0.11077 0.18332 0.62085 0.0
H728 H 0.10577 0.33639 0.68256 0.0
C729 C 0.1051 0.26679 0.6001 0.0
H730 H 0.1157 0.14831 0.66683 0.0
C731 C 0.09944 0.37577 0.60904 0.0
C732 C 0.09933 0.40249 0.63885 0.0
H733 H 0.10437 0.24752 0.57703 0.0
H734 H 0.09561 0.43901 0.59268 0.0
C735 C 0.1051 0.31849 0.65942 0.0
C736 C 0.61187 0.10726 0.08847 0.0
C737 C 0.60782 0.08078 0.118 0.0
H738 H 0.62074 0.23538 0.05735 0.0
C739 C 0.61015 0.16533 0.13911 0.0
H740 H 0.61071 0.04355 0.0718 0.0
C741 C 0.61685 0.27343 0.131 0.0
C742 C 0.62075 0.30038 0.10159 0.0
H743 H 0.60753 0.14773 0.16213 0.0
H744 H 0.61885 0.33612 0.14781 0.0
C745 C 0.61828 0.21645 0.08031 0.0
C746 C 0.3643 0.71653 0.14974 0.0
C747 C 0.35119 0.68286 0.12359 0.0
H748 H 0.3809 0.85166 0.17495 0.0
C749 C 0.34664 0.76189 0.10138 0.0
H750 H 0.36831 0.65744 0.16706 0.0
C751 C 0.3545 0.87318 0.10562 0.0
C752 C 0.36676 0.90687 0.13221 0.0
H753 H 0.33722 0.73766 0.08067 0.0
H754 H 0.34955 0.93359 0.08882 0.0
C755 C 0.37196 0.82724 0.15402 0.0
C756 C 0.63426 0.87945 0.35957 0.0
C757 C 0.62436 0.91286 0.33203 0.0
H758 H 0.64889 0.74415 0.38611 0.0
C759 C 0.62061 0.83287 0.30998 0.0
H760 H 0.63802 0.94014 0.37664 0.0
C761 C 0.62718 0.72161 0.31514 0.0
C762 C 0.63804 0.68828 0.34235 0.0
H763 H 0.61347 0.85718 0.28837 0.0
H764 H 0.62405 0.66185 0.29773 0.0
C765 C 0.64124 0.76798 0.36465 0.0
C766 C 0.37449 0.16768 0.32211 0.0
C767 C 0.37684 0.08333 0.34321 0.0
H768 H 0.36759 0.34005 0.31363 0.0
C769 C 0.3745 0.11086 0.37285 0.0
H770 H 0.37596 0.14878 0.29904 0.0
C771 C 0.36935 0.22078 0.38116 0.0
C772 C 0.36671 0.30476 0.35995 0.0
H773 H 0.37569 0.04721 0.38952 0.0
H774 H 0.36788 0.24008 0.4042 0.0
C775 C 0.36942 0.27711 0.33039 0.0
C776 C 0.37824 0.78643 0.88362 0.0
C777 C 0.38656 0.70085 0.8645 0.0
H778 H 0.38006 0.9599 0.89356 0.0
C779 C 0.40411 0.72689 0.84033 0.0
H780 H 0.36513 0.76884 0.9027 0.0
C781 C 0.41309 0.83596 0.83536 0.0
C782 C 0.40468 0.92163 0.8544 0.0
H783 H 0.41166 0.66266 0.82564 0.0
H784 H 0.4263 0.85321 0.81633 0.0
C785 C 0.38723 0.89563 0.87865 0.0
C786 C 0.65978 0.17251 0.86993 0.0
C787 C 0.65773 0.25341 0.84785 0.0
H788 H 0.65654 -0.00042 0.8809 0.0
C789 C 0.64948 0.22105 0.81965 0.0
H790 H 0.66544 0.1956 0.89206 0.0
C791 C 0.64433 0.10939 0.81338 0.0
C792 C 0.6467 0.02835 0.83533 0.0
H793 H 0.64729 0.28192 0.80237 0.0
H794 H 0.63898 0.08599 0.79117 0.0
C795 C 0.65403 0.06086 0.86376 0.0
C796 C 0.37942 0.14859 0.63567 0.0
C797 C 0.36644 0.06364 0.61913 0.0
H798 H 0.37989 0.32024 0.64695 0.0
C799 C 0.34318 0.09048 0.60048 0.0
H800 H 0.39723 0.13069 0.65043 0.0
C801 C 0.33276 0.19967 0.59893 0.0
C802 C 0.34546 0.28417 0.61594 0.0
H803 H 0.33236 0.0266 0.58782 0.0
H804 H 0.31496 0.21797 0.58422 0.0
C805 C 0.36903 0.25715 0.63414 0.0
C806 C 0.61828 0.76413 0.58908 0.0
C807 C 0.60686 0.67912 0.60673 0.0
H808 H 0.61745 0.93658 0.57777 0.0
C809 C 0.58468 0.70556 0.6267 0.0
H810 H 0.63501 0.74637 0.57312 0.0
C811 C 0.5742 0.81412 0.62898 0.0
C812 C 0.58568 0.89925 0.61142 0.0
H813 H 0.57474 0.64189 0.64007 0.0
H814 H 0.55736 0.83154 0.64487 0.0
C815 C 0.60779 0.87284 0.59136 0.0
loop_
_geom_bond_atom_site_label_1
_geom_bond_atom_site_label_2
_geom_bond_distance
_geom_bond_site_symmetry_2
_ccdc_geom_bond_type
O0 Mg1 1.990 . S
O0 C14 1.253 . S
Mg1 O0 1.990 . S
Mg1 O4 2.180 . S
Mg1 O5 2.117 . S
Mg1 O19 2.030 . S
O2 Mg3 2.072 . S
O2 C14 1.260 . S
Mg3 O2 2.072 . S
Mg3 O4 2.099 . S
Mg3 O6 2.079 . S
Mg3 O7 2.072 1_545 S
Mg3 O9 2.099 . S
Mg3 O20 2.079 . S
O4 Mg1 2.180 . S
O4 Mg3 2.099 . S
O4 C15 1.279 . S
O5 Mg1 2.117 . S
O5 C15 1.250 . S
O6 Mg3 2.079 . S
O6 C16 1.264 . S
O7 Mg3 2.072 1_565 S
O7 C17 1.260 . S
Mg8 O9 2.180 1_565 S
Mg8 O10 2.030 . S
Mg8 O11 1.990 . S
Mg8 O12 2.117 1_565 S
O9 Mg3 2.099 . S
O9 Mg8 2.180 1_545 S
O9 C18 1.279 . S
O10 Mg8 2.030 . S
O10 C16 1.248 1_565 S
O11 Mg8 1.990 . S
O11 C17 1.253 . S
O12 Mg8 2.117 1_545 S
O12 C18 1.250 . S
C13 O19 1.248 . S
C13 O20 1.264 . S
C14 O0 1.253 . S
C14 O2 1.260 . S
C15 O4 1.279 . S
C15 O5 1.250 . S
C16 O6 1.264 . S
C16 O10 1.248 1_545 S
C17 O7 1.260 . S
C17 O11 1.253 . S
C18 O9 1.279 . S
C18 O12 1.250 . S
O19 Mg1 2.030 . S
O19 C13 1.248 . S
O20 Mg3 2.079 . S
O20 C13 1.264 . S
O21 Mg22 1.990 . S
O21 C35 1.253 . S
Mg22 O21 1.990 . S
Mg22 O25 2.180 1_545 S
Mg22 O26 2.117 1_545 S
Mg22 O40 2.030 . S
O23 Mg24 2.072 1_545 S
O23 C35 1.260 . S
Mg24 O23 2.072 1_565 S
Mg24 O25 2.099 . S
Mg24 O27 2.079 . S
Mg24 O28 2.072 . S
Mg24 O30 2.099 . S
Mg24 O41 2.079 . S
O25 Mg22 2.180 1_565 S
O25 Mg24 2.099 . S
O25 C36 1.279 . S
O26 Mg22 2.117 1_565 S
O26 C36 1.250 . S
O27 Mg24 2.079 . S
O27 C37 1.264 . S
O28 Mg24 2.072 . S
O28 C38 1.260 . S
Mg29 O30 2.180 . S
Mg29 O31 2.030 . S
Mg29 O32 1.990 . S
Mg29 O33 2.117 . S
O30 Mg24 2.099 . S
O30 Mg29 2.180 . S
O30 C39 1.279 . S
O31 Mg29 2.030 . S
O31 C37 1.248 . S
O32 Mg29 1.990 . S
O32 C38 1.253 . S
O33 Mg29 2.117 . S
O33 C39 1.250 . S
C34 O40 1.248 1_565 S
C34 O41 1.264 . S
C35 O21 1.253 . S
C35 O23 1.260 . S
C36 O25 1.279 . S
C36 O26 1.250 . S
C37 O27 1.264 . S
C37 O31 1.248 . S
C38 O28 1.260 . S
C38 O32 1.253 . S
C39 O30 1.279 . S
C39 O33 1.250 . S
O40 Mg22 2.030 . S
O40 C34 1.248 1_545 S
O41 Mg24 2.079 . S
O41 C34 1.264 . S
O42 Mg43 1.990 . S
O42 C56 1.253 . S
Mg43 O42 1.990 . S
Mg43 O46 2.180 1_545 S
Mg43 O47 2.117 1_545 S
Mg43 O61 2.030 . S
O44 Mg45 2.072 1_545 S
O44 C56 1.260 . S
Mg45 O44 2.072 1_565 S
Mg45 O46 2.099 . S
Mg45 O48 2.079 . S
Mg45 O49 2.072 . S
Mg45 O51 2.099 . S
Mg45 O62 2.079 . S
O46 Mg43 2.180 1_565 S
O46 Mg45 2.099 . S
O46 C57 1.279 . S
O47 Mg43 2.117 1_565 S
O47 C57 1.250 . S
O48 Mg45 2.079 . S
O48 C58 1.264 . S
O49 Mg45 2.072 . S
O49 C59 1.260 . S
Mg50 O51 2.180 . S
Mg50 O52 2.030 . S
Mg50 O53 1.990 . S
Mg50 O54 2.117 . S
O51 Mg45 2.099 . S
O51 Mg50 2.180 . S
O51 C60 1.279 . S
O52 Mg50 2.030 . S
O52 C58 1.248 . S
O53 Mg50 1.990 . S
O53 C59 1.253 . S
O54 Mg50 2.117 . S
O54 C60 1.250 . S
C55 O61 1.248 1_565 S
C55 O62 1.264 . S
C56 O42 1.253 . S
C56 O44 1.260 . S
C57 O46 1.279 . S
C57 O47 1.250 . S
C58 O48 1.264 . S
C58 O52 1.248 . S
C59 O49 1.260 . S
C59 O53 1.253 . S
C60 O51 1.279 . S
C60 O54 1.250 . S
O61 Mg43 2.030 . S
O61 C55 1.248 1_545 S
O62 Mg45 2.079 . S
O62 C55 1.264 . S
O63 Mg64 1.990 . S
O63 C77 1.253 . S
Mg64 O63 1.990 . S
Mg64 O67 2.180 1_565 S
Mg64 O68 2.117 1_565 S
Mg64 O82 2.030 . S
O65 Mg66 2.072 1_565 S
O65 C77 1.260 . S
Mg66 O65 2.072 1_545 S
Mg66 O67 2.099 . S
Mg66 O69 2.079 . S
Mg66 O70 2.072 . S
Mg66 O72 2.099 . S
Mg66 O83 2.079 . S
O67 Mg64 2.180 1_545 S
O67 Mg66 2.099 . S
O67 C78 1.279 . S
O68 Mg64 2.117 1_545 S
O68 C78 1.250 . S
O69 Mg66 2.079 . S
O69 C79 1.264 . S
O70 Mg66 2.072 . S
O70 C80 1.260 . S
Mg71 O72 2.180 . S
Mg71 O73 2.030 . S
Mg71 O74 1.990 . S
Mg71 O75 2.117 . S
O72 Mg66 2.099 . S
O72 Mg71 2.180 . S
O72 C81 1.279 . S
O73 Mg71 2.030 . S
O73 C79 1.248 . S
O74 Mg71 1.990 . S
O74 C80 1.253 . S
O75 Mg71 2.117 . S
O75 C81 1.250 . S
C76 O82 1.248 1_545 S
C76 O83 1.264 . S
C77 O63 1.253 . S
C77 O65 1.260 . S
C78 O67 1.279 . S
C78 O68 1.250 . S
C79 O69 1.264 . S
C79 O73 1.248 . S
C80 O70 1.260 . S
C80 O74 1.253 . S
C81 O72 1.279 . S
C81 O75 1.250 . S
O82 Mg64 2.030 . S
O82 C76 1.248 1_565 S
O83 Mg66 2.079 . S
O83 C76 1.264 . S
O84 Mg85 1.990 . S
O84 C98 1.253 . S
Mg85 O84 1.990 . S
Mg85 O88 2.180 1_545 S
Mg85 O89 2.117 1_545 S
Mg85 O103 2.030 . S
O86 Mg87 2.072 1_545 S
O86 C98 1.260 . S
Mg87 O86 2.072 1_565 S
Mg87 O88 2.099 . S
Mg87 O90 2.079 . S
Mg87 O91 2.072 . S
Mg87 O93 2.099 . S
Mg87 O104 2.079 . S
O88 Mg85 2.180 1_565 S
O88 Mg87 2.099 . S
O88 C99 1.279 . S
O89 Mg85 2.117 1_565 S
O89 C99 1.250 . S
O90 Mg87 2.079 . S
O90 C100 1.264 . S
O91 Mg87 2.072 . S
O91 C101 1.260 . S
Mg92 O93 2.180 . S
Mg92 O94 2.030 . S
Mg92 O95 1.990 . S
Mg92 O96 2.117 . S
O93 Mg87 2.099 . S
O93 Mg92 2.180 . S
O93 C102 1.279 . S
O94 Mg92 2.030 . S
O94 C100 1.248 . S
O95 Mg92 1.990 . S
O95 C101 1.253 . S
O96 Mg92 2.117 . S
O96 C102 1.250 . S
C97 O103 1.248 1_565 S
C97 O104 1.264 . S
C98 O84 1.253 . S
C98 O86 1.260 . S
C99 O88 1.279 . S
C99 O89 1.250 . S
C100 O90 1.264 . S
C100 O94 1.248 . S
C101 O91 1.260 . S
C101 O95 1.253 . S
C102 O93 1.279 . S
C102 O96 1.250 . S
O103 Mg85 2.030 . S
O103 C97 1.248 1_545 S
O104 Mg87 2.079 . S
O104 C97 1.264 . S
O105 Mg106 1.990 . S
O105 C119 1.253 . S
Mg106 O105 1.990 . S
Mg106 O109 2.180 1_565 S
Mg106 O110 2.117 1_565 S
Mg106 O124 2.030 . S
O107 Mg108 2.072 1_565 S
O107 C119 1.260 . S
Mg108 O107 2.072 1_545 S
Mg108 O109 2.099 . S
Mg108 O111 2.079 . S
Mg108 O112 2.072 . S
Mg108 O114 2.099 . S
Mg108 O125 2.079 . S
O109 Mg106 2.180 1_545 S
O109 Mg108 2.099 . S
O109 C120 1.279 . S
O110 Mg106 2.117 1_545 S
O110 C120 1.250 . S
O111 Mg108 2.079 . S
O111 C121 1.264 . S
O112 Mg108 2.072 . S
O112 C122 1.260 . S
Mg113 O114 2.180 . S
Mg113 O115 2.030 . S
Mg113 O116 1.990 . S
Mg113 O117 2.117 . S
O114 Mg108 2.099 . S
O114 Mg113 2.180 . S
O114 C123 1.279 . S
O115 Mg113 2.030 . S
O115 C121 1.248 . S
O116 Mg113 1.990 . S
O116 C122 1.253 . S
O117 Mg113 2.117 . S
O117 C123 1.250 . S
C118 O124 1.248 1_545 S
C118 O125 1.264 . S
C119 O105 1.253 . S
C119 O107 1.260 . S
C120 O109 1.279 . S
C120 O110 1.250 . S
C121 O111 1.264 . S
C121 O115 1.248 . S
C122 O112 1.260 . S
C122 O116 1.253 . S
C123 O114 1.279 . S
C123 O117 1.250 . S
O124 Mg106 2.030 . S
O124 C118 1.248 1_565 S
O125 Mg108 2.079 . S
O125 C118 1.264 . S
O126 Mg127 1.990 . S
O126 C140 1.253 . S
Mg127 O126 1.990 . S
Mg127 O130 2.180 1_565 S
Mg127 O131 2.117 1_565 S
Mg127 O145 2.030 . S
O128 Mg129 2.072 1_565 S
O128 C140 1.260 . S
Mg129 O128 2.072 1_545 S
Mg129 O130 2.099 . S
Mg129 O132 2.079 . S
Mg129 O133 2.072 . S
Mg129 O135 2.099 . S
Mg129 O146 2.079 . S
O130 Mg127 2.180 1_545 S
O130 Mg129 2.099 . S
O130 C141 1.279 . S
O131 Mg127 2.117 1_545 S
O131 C141 1.250 . S
O132 Mg129 2.079 . S
O132 C142 1.264 . S
O133 Mg129 2.072 . S
O133 C143 1.260 . S
Mg134 O135 2.180 . S
Mg134 O136 2.030 . S
Mg134 O137 1.990 . S
Mg134 O138 2.117 . S
O135 Mg129 2.099 . S
O135 Mg134 2.180 . S
O135 C144 1.279 . S
O136 Mg134 2.030 . S
O136 C142 1.248 . S
O137 Mg134 1.990 . S
O137 C143 1.253 . S
O138 Mg134 2.117 . S
O138 C144 1.250 . S
C139 O145 1.248 1_545 S
C139 O146 1.264 . S
C140 O126 1.253 . S
C140 O128 1.260 . S
C141 O130 1.279 . S
C141 O131 1.250 . S
C142 O132 1.264 . S
C142 O136 1.248 . S
C143 O133 1.260 . S
C143 O137 1.253 . S
C144 O135 1.279 . S
C144 O138 1.250 . S
O145 Mg127 2.030 . S
O145 C139 1.248 1_565 S
O146 Mg129 2.079 . S
O146 C139 1.264 . S
O147 Mg148 1.990 . S
O147 C161 1.253 . S
Mg148 O147 1.990 . S
Mg148 O151 2.180 1_545 S
Mg148 O152 2.117 1_545 S
Mg148 O166 2.030 . S
O149 Mg150 2.072 1_545 S
O149 C161 1.260 . S
Mg150 O149 2.072 1_565 S
Mg150 O151 2.099 . S
Mg150 O153 2.079 . S
Mg150 O154 2.072 . S
Mg150 O156 2.099 . S
Mg150 O167 2.079 . S
O151 Mg148 2.180 1_565 S
O151 Mg150 2.099 . S
O151 C162 1.279 . S
O152 Mg148 2.117 1_565 S
O152 C162 1.250 . S
O153 Mg150 2.079 . S
O153 C163 1.264 . S
O154 Mg150 2.072 . S
O154 C164 1.260 . S
Mg155 O156 2.180 . S
Mg155 O157 2.030 . S
Mg155 O158 1.990 . S
Mg155 O159 2.117 . S
O156 Mg150 2.099 . S
O156 Mg155 2.180 . S
O156 C165 1.279 . S
O157 Mg155 2.030 . S
O157 C163 1.248 . S
O158 Mg155 1.990 . S
O158 C164 1.253 . S
O159 Mg155 2.117 . S
O159 C165 1.250 . S
C160 O166 1.248 1_565 S
C160 O167 1.264 . S
C161 O147 1.253 . S
C161 O149 1.260 . S
C162 O151 1.279 . S
C162 O152 1.250 . S
C163 O153 1.264 . S
C163 O157 1.248 . S
C164 O154 1.260 . S
C164 O158 1.253 . S
C165 O156 1.279 . S
C165 O159 1.250 . S
O166 Mg148 2.030 . S
O166 C160 1.248 1_545 S
O167 Mg150 2.079 . S
O167 C160 1.264 . S
O168 Mg169 1.990 . S
O168 C182 1.253 . S
Mg169 O168 1.990 . S
Mg169 O172 2.180 . S
Mg169 O173 2.117 . S
Mg169 O187 2.030 . S
O170 Mg171 2.072 . S
O170 C182 1.260 . S
Mg171 O170 2.072 . S
Mg171 O172 2.099 . S
Mg171 O174 2.079 . S
Mg171 O175 2.072 . S
Mg171 O177 2.099 . S
Mg171 O188 2.079 . S
O172 Mg169 2.180 . S
O172 Mg171 2.099 . S
O172 C183 1.279 . S
O173 Mg169 2.117 . S
O173 C183 1.250 . S
O174 Mg171 2.079 . S
O174 C184 1.264 . S
O175 Mg171 2.072 . S
O175 C185 1.260 . S
Mg176 O177 2.180 . S
Mg176 O178 2.030 . S
Mg176 O179 1.990 . S
Mg176 O180 2.117 . S
O177 Mg171 2.099 . S
O177 Mg176 2.180 . S
O177 C186 1.279 . S
O178 Mg176 2.030 . S
O178 C184 1.248 . S
O179 Mg176 1.990 . S
O179 C185 1.253 . S
O180 Mg176 2.117 . S
O180 C186 1.250 . S
C181 O187 1.248 . S
C181 O188 1.264 . S
C182 O168 1.253 . S
C182 O170 1.260 . S
C183 O172 1.279 . S
C183 O173 1.250 . S
C184 O174 1.264 . S
C184 O178 1.248 . S
C185 O175 1.260 . S
C185 O179 1.253 . S
C186 O177 1.279 . S
C186 O180 1.250 . S
O187 Mg169 2.030 . S
O187 C181 1.248 . S
O188 Mg171 2.079 . S
O188 C181 1.264 . S
O189 Mg190 1.990 . S
O189 C203 1.253 . S
Mg190 O189 1.990 . S
Mg190 O193 2.180 . S
Mg190 O194 2.117 . S
Mg190 O208 2.030 . S
O191 Mg192 2.072 . S
O191 C203 1.260 . S
Mg192 O191 2.072 . S
Mg192 O193 2.099 . S
Mg192 O195 2.079 . S
Mg192 O196 2.072 . S
Mg192 O198 2.099 . S
Mg192 O209 2.079 . S
O193 Mg190 2.180 . S
O193 Mg192 2.099 . S
O193 C204 1.279 . S
O194 Mg190 2.117 . S
O194 C204 1.250 . S
O195 Mg192 2.079 . S
O195 C205 1.264 . S
O196 Mg192 2.072 . S
O196 C206 1.260 . S
Mg197 O198 2.180 . S
Mg197 O199 2.030 . S
Mg197 O200 1.990 . S
Mg197 O201 2.117 . S
O198 Mg192 2.099 . S
O198 Mg197 2.180 . S
O198 C207 1.279 . S
O199 Mg197 2.030 . S
O199 C205 1.248 . S
O200 Mg197 1.990 . S
O200 C206 1.253 . S
O201 Mg197 2.117 . S
O201 C207 1.250 . S
C202 O208 1.248 . S
C202 O209 1.264 . S
C203 O189 1.253 . S
C203 O191 1.260 . S
C204 O193 1.279 . S
C204 O194 1.250 . S
C205 O195 1.264 . S
C205 O199 1.248 . S
C206 O196 1.260 . S
C206 O200 1.253 . S
C207 O198 1.279 . S
C207 O201 1.250 . S
O208 Mg190 2.030 . S
O208 C202 1.248 . S
O209 Mg192 2.079 . S
O209 C202 1.264 . S
O210 Mg211 1.990 . S
O210 C224 1.253 . S
Mg211 O210 1.990 . S
Mg211 O214 2.180 . S
Mg211 O215 2.117 . S
Mg211 O229 2.030 . S
O212 Mg213 2.072 . S
O212 C224 1.260 . S
Mg213 O212 2.072 . S
Mg213 O214 2.099 . S
Mg213 O216 2.079 . S
Mg213 O217 2.072 . S
Mg213 O219 2.099 . S
Mg213 O230 2.079 . S
O214 Mg211 2.180 . S
O214 Mg213 2.099 . S
O214 C225 1.279 . S
O215 Mg211 2.117 . S
O215 C225 1.250 . S
O216 Mg213 2.079 . S
O216 C226 1.264 . S
O217 Mg213 2.072 . S
O217 C227 1.260 . S
Mg218 O219 2.180 . S
Mg218 O220 2.030 . S
Mg218 O221 1.990 . S
Mg218 O222 2.117 . S
O219 Mg213 2.099 . S
O219 Mg218 2.180 . S
O219 C228 1.279 . S
O220 Mg218 2.030 . S
O220 C226 1.248 . S
O221 Mg218 1.990 . S
O221 C227 1.253 . S
O222 Mg218 2.117 . S
O222 C228 1.250 . S
C223 O229 1.248 . S
C223 O230 1.264 . S
C224 O210 1.253 . S
C224 O212 1.260 . S
C225 O214 1.279 . S
C225 O215 1.250 . S
C226 O216 1.264 . S
C226 O220 1.248 . S
C227 O217 1.260 . S
C227 O221 1.253 . S
C228 O219 1.279 . S
C228 O222 1.250 . S
O229 Mg211 2.030 . S
O229 C223 1.248 . S
O230 Mg213 2.079 . S
O230 C223 1.264 . S
O231 Mg232 1.990 . S
O231 C245 1.253 . S
Mg232 O231 1.990 . S
Mg232 O235 2.180 . S
Mg232 O236 2.117 . S
Mg232 O250 2.030 . S
O233 Mg234 2.072 . S
O233 C245 1.260 . S
Mg234 O233 2.072 . S
Mg234 O235 2.099 . S
Mg234 O237 2.079 . S
Mg234 O238 2.072 . S
Mg234 O240 2.099 . S
Mg234 O251 2.079 . S
O235 Mg232 2.180 . S
O235 Mg234 2.099 . S
O235 C246 1.279 . S
O236 Mg232 2.117 . S
O236 C246 1.250 . S
O237 Mg234 2.079 . S
O237 C247 1.264 . S
O238 Mg234 2.072 . S
O238 C248 1.260 . S
Mg239 O240 2.180 . S
Mg239 O241 2.030 . S
Mg239 O242 1.990 . S
Mg239 O243 2.117 . S
O240 Mg234 2.099 . S
O240 Mg239 2.180 . S
O240 C249 1.279 . S
O241 Mg239 2.030 . S
O241 C247 1.248 . S
O242 Mg239 1.990 . S
O242 C248 1.253 . S
O243 Mg239 2.117 . S
O243 C249 1.250 . S
C244 O250 1.248 . S
C244 O251 1.264 . S
C245 O231 1.253 . S
C245 O233 1.260 . S
C246 O235 1.279 . S
C246 O236 1.250 . S
C247 O237 1.264 . S
C247 O241 1.248 . S
C248 O238 1.260 . S
C248 O242 1.253 . S
C249 O240 1.279 . S
C249 O243 1.250 . S
O250 Mg232 2.030 . S
O250 C244 1.248 . S
O251 Mg234 2.079 . S
O251 C244 1.264 . S
O252 Mg253 1.990 . S
O252 C266 1.253 . S
Mg253 O252 1.990 . S
Mg253 O256 2.180 . S
Mg253 O257 2.117 . S
Mg253 O271 2.030 . S
O254 Mg255 2.072 . S
O254 C266 1.260 . S
Mg255 O254 2.072 . S
Mg255 O256 2.099 . S
Mg255 O258 2.079 . S
Mg255 O259 2.072 . S
Mg255 O261 2.099 . S
Mg255 O272 2.079 . S
O256 Mg253 2.180 . S
O256 Mg255 2.099 . S
O256 C267 1.279 . S
O257 Mg253 2.117 . S
O257 C267 1.250 . S
O258 Mg255 2.079 . S
O258 C268 1.264 . S
O259 Mg255 2.072 . S
O259 C269 1.260 . S
Mg260 O261 2.180 . S
Mg260 O262 2.030 . S
Mg260 O263 1.990 . S
Mg260 O264 2.117 . S
O261 Mg255 2.099 . S
O261 Mg260 2.180 . S
O261 C270 1.279 . S
O262 Mg260 2.030 . S
O262 C268 1.248 . S
O263 Mg260 1.990 . S
O263 C269 1.253 . S
O264 Mg260 2.117 . S
O264 C270 1.250 . S
C265 O271 1.248 . S
C265 O272 1.264 . S
C266 O252 1.253 . S
C266 O254 1.260 . S
C267 O256 1.279 . S
C267 O257 1.250 . S
C268 O258 1.264 . S
C268 O262 1.248 . S
C269 O259 1.260 . S
C269 O263 1.253 . S
C270 O261 1.279 . S
C270 O264 1.250 . S
O271 Mg253 2.030 . S
O271 C265 1.248 . S
O272 Mg255 2.079 . S
O272 C265 1.264 . S
O273 Mg274 1.990 . S
O273 C287 1.253 . S
Mg274 O273 1.990 . S
Mg274 O277 2.180 . S
Mg274 O278 2.117 . S
Mg274 O292 2.030 . S
O275 Mg276 2.072 . S
O275 C287 1.260 . S
Mg276 O275 2.072 . S
Mg276 O277 2.099 . S
Mg276 O279 2.079 . S
Mg276 O280 2.072 . S
Mg276 O282 2.099 . S
Mg276 O293 2.079 . S
O277 Mg274 2.180 . S
O277 Mg276 2.099 . S
O277 C288 1.279 . S
O278 Mg274 2.117 . S
O278 C288 1.250 . S
O279 Mg276 2.079 . S
O279 C289 1.264 . S
O280 Mg276 2.072 . S
O280 C290 1.260 . S
Mg281 O282 2.180 . S
Mg281 O283 2.030 . S
Mg281 O284 1.990 . S
Mg281 O285 2.117 . S
O282 Mg276 2.099 . S
O282 Mg281 2.180 . S
O282 C291 1.279 . S
O283 Mg281 2.030 . S
O283 C289 1.248 . S
O284 Mg281 1.990 . S
O284 C290 1.253 . S
O285 Mg281 2.117 . S
O285 C291 1.250 . S
C286 O292 1.248 . S
C286 O293 1.264 . S
C287 O273 1.253 . S
C287 O275 1.260 . S
C288 O277 1.279 . S
C288 O278 1.250 . S
C289 O279 1.264 . S
C289 O283 1.248 . S
C290 O280 1.260 . S
C290 O284 1.253 . S
C291 O282 1.279 . S
C291 O285 1.250 . S
O292 Mg274 2.030 . S
O292 C286 1.248 . S
O293 Mg276 2.079 . S
O293 C286 1.264 . S
O294 Mg295 1.990 . S
O294 C308 1.253 . S
Mg295 O294 1.990 . S
Mg295 O298 2.180 . S
Mg295 O299 2.117 . S
Mg295 O313 2.030 . S
O296 Mg297 2.072 . S
O296 C308 1.260 . S
Mg297 O296 2.072 . S
Mg297 O298 2.099 . S
Mg297 O300 2.079 . S
Mg297 O301 2.072 . S
Mg297 O303 2.099 . S
Mg297 O314 2.079 . S
O298 Mg295 2.180 . S
O298 Mg297 2.099 . S
O298 C309 1.279 . S
O299 Mg295 2.117 . S
O299 C309 1.250 . S
O300 Mg297 2.079 . S
O300 C310 1.264 . S
O301 Mg297 2.072 . S
O301 C311 1.260 . S
Mg302 O303 2.180 . S
Mg302 O304 2.030 . S
Mg302 O305 1.990 . S
Mg302 O306 2.117 . S
O303 Mg297 2.099 . S
O303 Mg302 2.180 . S
O303 C312 1.279 . S
O304 Mg302 2.030 . S
O304 C310 1.248 . S
O305 Mg302 1.990 . S
O305 C311 1.253 . S
O306 Mg302 2.117 . S
O306 C312 1.250 . S
C307 O313 1.248 . S
C307 O314 1.264 . S
C308 O294 1.253 . S
C308 O296 1.260 . S
C309 O298 1.279 . S
C309 O299 1.250 . S
C310 O300 1.264 . S
C310 O304 1.248 . S
C311 O301 1.260 . S
C311 O305 1.253 . S
C312 O303 1.279 . S
C312 O306 1.250 . S
O313 Mg295 2.030 . S
O313 C307 1.248 . S
O314 Mg297 2.079 . S
O314 C307 1.264 . S
O315 Mg316 1.990 . S
O315 C329 1.253 . S
Mg316 O315 1.990 . S
Mg316 O319 2.180 . S
Mg316 O320 2.117 . S
Mg316 O334 2.030 . S
O317 Mg318 2.072 . S
O317 C329 1.260 . S
Mg318 O317 2.072 . S
Mg318 O319 2.099 . S
Mg318 O321 2.079 . S
Mg318 O322 2.072 . S
Mg318 O324 2.099 . S
Mg318 O335 2.079 . S
O319 Mg316 2.180 . S
O319 Mg318 2.099 . S
O319 C330 1.279 . S
O320 Mg316 2.117 . S
O320 C330 1.250 . S
O321 Mg318 2.079 . S
O321 C331 1.264 . S
O322 Mg318 2.072 . S
O322 C332 1.260 . S
Mg323 O324 2.180 . S
Mg323 O325 2.030 . S
Mg323 O326 1.990 . S
Mg323 O327 2.117 . S
O324 Mg318 2.099 . S
O324 Mg323 2.180 . S
O324 C333 1.279 . S
O325 Mg323 2.030 . S
O325 C331 1.248 . S
O326 Mg323 1.990 . S
O326 C332 1.253 . S
O327 Mg323 2.117 . S
O327 C333 1.250 . S
C328 O334 1.248 . S
C328 O335 1.264 . S
C329 O315 1.253 . S
C329 O317 1.260 . S
C330 O319 1.279 . S
C330 O320 1.250 . S
C331 O321 1.264 . S
C331 O325 1.248 . S
C332 O322 1.260 . S
C332 O326 1.253 . S
C333 O324 1.279 . S
C333 O327 1.250 . S
O334 Mg316 2.030 . S
O334 C328 1.248 . S
O335 Mg318 2.079 . S
O335 C328 1.264 . S
C336 C337 1.387 . S
C336 H340 0.950 . S
C336 C345 1.390 . S
C337 C336 1.387 . S
C337 C339 1.387 . S
H338 C345 0.950 . S
C339 C337 1.387 . S
C339 C341 1.390 . S
C339 H343 0.950 . S
H340 C336 0.950 . S
C341 C339 1.390 . S
C341 C342 1.387 . S
C341 H344 0.950 . S
C342 C341 1.387 . S
C342 C345 1.387 . S
H343 C339 0.950 . S
H344 C341 0.950 . S
C345 C336 1.390 . S
C345 H338 0.950 . S
C345 C342 1.387 . S
C346 C347 1.387 . S
C346 H350 0.950 . S
C346 C355 1.390 . S
C347 C346 1.387 . S
C347 C349 1.387 . S
H348 C355 0.950 . S
C349 C347 1.387 . S
C349 C351 1.390 . S
C349 H353 0.950 . S
H350 C346 0.950 . S
C351 C349 1.390 . S
C351 C352 1.387 . S
C351 H354 0.950 . S
C352 C351 1.387 . S
C352 C355 1.387 . S
H353 C349 0.950 . S
H354 C351 0.950 . S
C355 C346 1.390 . S
C355 H348 0.950 . S
C355 C352 1.387 . S
C356 C357 1.387 . S
C356 H360 0.950 . S
C356 C365 1.390 . S
C357 C356 1.387 . S
C357 C359 1.387 . S
H358 C365 0.950 . S
C359 C357 1.387 . S
C359 C361 1.390 . S
C359 H363 0.950 . S
H360 C356 0.950 . S
C361 C359 1.390 . S
C361 C362 1.387 . S
C361 H364 0.950 . S
C362 C361 1.387 . S
C362 C365 1.387 . S
H363 C359 0.950 . S
H364 C361 0.950 . S
C365 C356 1.390 . S
C365 H358 0.950 . S
C365 C362 1.387 . S
C366 C367 1.387 . S
C366 H370 0.950 . S
C366 C375 1.390 . S
C367 C366 1.387 . S
C367 C369 1.387 . S
H368 C375 0.950 . S
C369 C367 1.387 . S
C369 C371 1.390 . S
C369 H373 0.950 . S
H370 C366 0.950 . S
C371 C369 1.390 . S
C371 C372 1.387 . S
C371 H374 0.950 . S
C372 C371 1.387 . S
C372 C375 1.387 . S
H373 C369 0.950 . S
H374 C371 0.950 . S
C375 C366 1.390 . S
C375 H368 0.950 . S
C375 C372 1.387 . S
C376 C377 1.387 . S
C376 H380 0.950 . S
C376 C385 1.390 . S
C377 C376 1.387 . S
C377 C379 1.387 . S
H378 C385 0.950 . S
C379 C377 1.387 . S
C379 C381 1.390 . S
C379 H383 0.950 . S
H380 C376 0.950 . S
C381 C379 1.390 . S
C381 C382 1.387 . S
C381 H384 0.950 . S
C382 C381 1.387 . S
C382 C385 1.387 . S
H383 C379 0.950 . S
H384 C381 0.950 . S
C385 C376 1.390 . S
C385 H378 0.950 . S
C385 C382 1.387 . S
C386 C387 1.387 . S
C386 H390 0.950 . S
C386 C395 1.390 . S
C387 C386 1.387 . S
C387 C389 1.387 . S
H388 C395 0.950 . S
C389 C387 1.387 . S
C389 C391 1.390 . S
C389 H393 0.950 . S
H390 C386 0.950 . S
C391 C389 1.390 . S
C391 C392 1.387 . S
C391 H394 0.950 . S
C392 C391 1.387 . S
C392 C395 1.387 . S
H393 C389 0.950 . S
H394 C391 0.950 . S
C395 C386 1.390 . S
C395 H388 0.950 . S
C395 C392 1.387 . S
C396 C397 1.387 . S
C396 H400 0.950 . S
C396 C405 1.390 . S
C397 C396 1.387 . S
C397 C399 1.387 . S
H398 C405 0.950 . S
C399 C397 1.387 . S
C399 C401 1.390 . S
C399 H403 0.950 . S
H400 C396 0.950 . S
C401 C399 1.390 . S
C401 C402 1.387 . S
C401 H404 0.950 . S
C402 C401 1.387 . S
C402 C405 1.387 . S
H403 C399 0.950 . S
H404 C401 0.950 . S
C405 C396 1.390 . S
C405 H398 0.950 . S
C405 C402 1.387 . S
C406 C407 1.387 . S
C406 H410 0.950 . S
C406 C415 1.390 . S
C407 C406 1.387 . S
C407 C409 1.387 . S
H408 C415 0.950 . S
C409 C407 1.387 . S
C409 C411 1.390 . S
C409 H413 0.950 . S
H410 C406 0.950 . S
C411 C409 1.390 . S
C411 C412 1.387 . S
C411 H414 0.950 . S
C412 C411 1.387 . S
C412 C415 1.387 . S
H413 C409 0.950 . S
H414 C411 0.950 . S
C415 C406 1.390 . S
C415 H408 0.950 . S
C415 C412 1.387 . S
C416 C417 1.387 . S
C416 H420 0.950 . S
C416 C425 1.390 1_565 S
C417 C416 1.387 . S
C417 C419 1.387 . S
H418 C425 0.950 . S
C419 C417 1.387 . S
C419 C421 1.390 1_565 S
C419 H423 0.950 . S
H420 C416 0.950 . S
C421 C419 1.390 1_545 S
C421 C422 1.387 . S
C421 H424 0.950 . S
C422 C421 1.387 . S
C422 C425 1.387 . S
H423 C419 0.950 . S
H424 C421 0.950 . S
C425 C416 1.390 1_545 S
C425 H418 0.950 . S
C425 C422 1.387 . S
C426 C427 1.387 . S
C426 H430 0.950 . S
C426 C435 1.390 1_545 S
C427 C426 1.387 . S
C427 C429 1.387 . S
H428 C435 0.950 . S
C429 C427 1.387 . S
C429 C431 1.390 1_545 S
C429 H433 0.950 . S
H430 C426 0.950 . S
C431 C429 1.390 1_565 S
C431 C432 1.387 . S
C431 H434 0.950 . S
C432 C431 1.387 . S
C432 C435 1.387 . S
H433 C429 0.950 . S
H434 C431 0.950 . S
C435 C426 1.390 1_565 S
C435 H428 0.950 . S
C435 C432 1.387 . S
C436 C437 1.387 . S
C436 H440 0.950 . S
C436 C445 1.390 1_545 S
C437 C436 1.387 . S
C437 C439 1.387 . S
H438 C445 0.950 . S
C439 C437 1.387 . S
C439 C441 1.390 1_545 S
C439 H443 0.950 . S
H440 C436 0.950 . S
C441 C439 1.390 1_565 S
C441 C442 1.387 . S
C441 H444 0.950 . S
C442 C441 1.387 . S
C442 C445 1.387 . S
H443 C439 0.950 . S
H444 C441 0.950 . S
C445 C436 1.390 1_565 S
C445 H438 0.950 . S
C445 C442 1.387 . S
C446 C447 1.387 . S
C446 H450 0.950 . S
C446 C455 1.390 1_545 S
C447 C446 1.387 . S
C447 C449 1.387 . S
H448 C455 0.950 . S
C449 C447 1.387 . S
C449 C451 1.390 1_545 S
C449 H453 0.950 . S
H450 C446 0.950 . S
C451 C449 1.390 1_565 S
C451 C452 1.387 . S
C451 H454 0.950 . S
C452 C451 1.387 . S
C452 C455 1.387 . S
H453 C449 0.950 . S
H454 C451 0.950 . S
C455 C446 1.390 1_565 S
C455 H448 0.950 . S
C455 C452 1.387 . S
C456 C457 1.387 . S
C456 H460 0.950 . S
C456 C465 1.390 . S
C457 C456 1.387 . S
C457 C459 1.387 . S
H458 C465 0.950 . S
C459 C457 1.387 . S
C459 C461 1.390 . S
C459 H463 0.950 . S
H460 C456 0.950 . S
C461 C459 1.390 . S
C461 C462 1.387 . S
C461 H464 0.950 . S
C462 C461 1.387 . S
C462 C465 1.387 . S
H463 C459 0.950 . S
H464 C461 0.950 . S
C465 C456 1.390 . S
C465 H458 0.950 . S
C465 C462 1.387 . S
C466 C467 1.387 . S
C466 H470 0.950 . S
C466 C475 1.390 . S
C467 C466 1.387 . S
C467 C469 1.387 . S
H468 C475 0.950 . S
C469 C467 1.387 . S
C469 C471 1.390 . S
C469 H473 0.950 . S
H470 C466 0.950 . S
C471 C469 1.390 . S
C471 C472 1.387 . S
C471 H474 0.950 . S
C472 C471 1.387 . S
C472 C475 1.387 . S
H473 C469 0.950 . S
H474 C471 0.950 . S
C475 C466 1.390 . S
C475 H468 0.950 . S
C475 C472 1.387 . S
C476 C477 1.387 . S
C476 H480 0.950 . S
C476 C485 1.390 . S
C477 C476 1.387 . S
C477 C479 1.387 . S
H478 C485 0.950 . S
C479 C477 1.387 . S
C479 C481 1.390 . S
C479 H483 0.950 . S
H480 C476 0.950 . S
C481 C479 1.390 . S
C481 C482 1.387 . S
C481 H484 0.950 . S
C482 C481 1.387 . S
C482 C485 1.387 . S
H483 C479 0.950 . S
H484 C481 0.950 . S
C485 C476 1.390 . S
C485 H478 0.950 . S
C485 C482 1.387 . S
C486 C487 1.387 . S
C486 H490 0.950 . S
C486 C495 1.390 . S
C487 C486 1.387 . S
C487 C489 1.387 . S
H488 C495 0.950 . S
C489 C487 1.387 . S
C489 C491 1.390 . S
C489 H493 0.950 . S
H490 C486 0.950 . S
C491 C489 1.390 . S
C491 C492 1.387 . S
C491 H494 0.950 . S
C492 C491 1.387 . S
C492 C495 1.387 . S
H493 C489 0.950 . S
H494 C491 0.950 . S
C495 C486 1.390 . S
C495 H488 0.950 . S
C495 C492 1.387 . S
C496 C497 1.387 . S
C496 H500 0.950 1_545 S
C496 C505 1.390 1_556 S
C497 C496 1.387 . S
C497 C499 1.387 . S
H498 C505 0.950 1_565 S
C499 C497 1.387 . S
C499 C501 1.390 1_556 S
C499 H503 0.950 . S
H500 C496 0.950 1_565 S
C501 C499 1.390 1_554 S
C501 C502 1.387 . S
C501 H504 0.950 . S
C502 C501 1.387 . S
C502 C505 1.387 . S
H503 C499 0.950 . S
H504 C501 0.950 . S
C505 C496 1.390 1_554 S
C505 H498 0.950 1_545 S
C505 C502 1.387 . S
C506 C507 1.387 . S
C506 H510 0.950 1_565 S
C506 C515 1.390 1_556 S
C507 C506 1.387 . S
C507 C509 1.387 . S
H508 C515 0.950 1_545 S
C509 C507 1.387 . S
C509 C511 1.390 1_556 S
C509 H513 0.950 . S
H510 C506 0.950 1_545 S
C511 C509 1.390 1_554 S
C511 C512 1.387 . S
C511 H514 0.950 . S
C512 C511 1.387 . S
C512 C515 1.387 . S
H513 C509 0.950 . S
H514 C511 0.950 . S
C515 C506 1.390 1_554 S
C515 H508 0.950 1_565 S
C515 C512 1.387 . S
C516 C517 1.387 . S
C516 H520 0.950 . S
C516 C525 1.390 . S
C517 C516 1.387 . S
C517 C519 1.387 . S
H518 C525 0.950 . S
C519 C517 1.387 . S
C519 C521 1.390 . S
C519 H523 0.950 1_565 S
H520 C516 0.950 . S
C521 C519 1.390 . S
C521 C522 1.387 . S
C521 H524 0.950 1_565 S
C522 C521 1.387 . S
C522 C525 1.387 . S
H523 C519 0.950 1_545 S
H524 C521 0.950 1_545 S
C525 C516 1.390 . S
C525 H518 0.950 . S
C525 C522 1.387 . S
C526 C527 1.387 . S
C526 H530 0.950 1_545 S
C526 C535 1.390 . S
C527 C526 1.387 . S
C527 C529 1.387 . S
H528 C535 0.950 1_565 S
C529 C527 1.387 . S
C529 C531 1.390 . S
C529 H533 0.950 . S
H530 C526 0.950 1_565 S
C531 C529 1.390 . S
C531 C532 1.387 . S
C531 H534 0.950 . S
C532 C531 1.387 . S
C532 C535 1.387 . S
H533 C529 0.950 . S
H534 C531 0.950 . S
C535 C526 1.390 . S
C535 H528 0.950 1_545 S
C535 C532 1.387 . S
C536 C537 1.387 . S
C536 H540 0.950 . S
C536 C545 1.390 1_554 S
C537 C536 1.387 . S
C537 C539 1.387 . S
H538 C545 0.950 . S
C539 C537 1.387 . S
C539 C541 1.390 1_554 S
C539 H543 0.950 . S
H540 C536 0.950 . S
C541 C539 1.390 1_556 S
C541 C542 1.387 . S
C541 H544 0.950 . S
C542 C541 1.387 . S
C542 C545 1.387 . S
H543 C539 0.950 . S
H544 C541 0.950 . S
C545 C536 1.390 1_556 S
C545 H538 0.950 . S
C545 C542 1.387 . S
C546 C547 1.387 . S
C546 H550 0.950 . S
C546 C555 1.390 1_556 S
C547 C546 1.387 . S
C547 C549 1.387 . S
H548 C555 0.950 . S
C549 C547 1.387 . S
C549 C551 1.390 1_556 S
C549 H553 0.950 . S
H550 C546 0.950 . S
C551 C549 1.390 1_554 S
C551 C552 1.387 . S
C551 H554 0.950 . S
C552 C551 1.387 . S
C552 C555 1.387 . S
H553 C549 0.950 . S
H554 C551 0.950 . S
C555 C546 1.390 1_554 S
C555 H548 0.950 . S
C555 C552 1.387 . S
C556 C557 1.387 . S
C556 H560 0.950 . S
C556 C565 1.390 . S
C557 C556 1.387 . S
C557 C559 1.387 . S
H558 C565 0.950 . S
C559 C557 1.387 . S
C559 C561 1.390 . S
C559 H563 0.950 . S
H560 C556 0.950 . S
C561 C559 1.390 . S
C561 C562 1.387 . S
C561 H564 0.950 . S
C562 C561 1.387 . S
C562 C565 1.387 . S
H563 C559 0.950 . S
H564 C561 0.950 . S
C565 C556 1.390 . S
C565 H558 0.950 . S
C565 C562 1.387 . S
C566 C567 1.387 . S
C566 H570 0.950 . S
C566 C575 1.390 . S
C567 C566 1.387 . S
C567 C569 1.387 . S
H568 C575 0.950 . S
C569 C567 1.387 . S
C569 C571 1.390 . S
C569 H573 0.950 . S
H570 C566 0.950 . S
C571 C569 1.390 . S
C571 C572 1.387 . S
C571 H574 0.950 . S
C572 C571 1.387 . S
C572 C575 1.387 . S
H573 C569 0.950 . S
H574 C571 0.950 . S
C575 C566 1.390 . S
C575 H568 0.950 . S
C575 C572 1.387 . S
C576 C577 1.387 . S
C576 H580 0.950 . S
C576 C585 1.390 1_665 S
C577 C576 1.387 . S
C577 C579 1.387 . S
H578 C585 0.950 . S
C579 C577 1.387 . S
C579 C581 1.390 1_665 S
C579 H583 0.950 . S
H580 C576 0.950 . S
C581 C579 1.390 1_445 S
C581 C582 1.387 . S
C581 H584 0.950 . S
C582 C581 1.387 . S
C582 C585 1.387 . S
H583 C579 0.950 . S
H584 C581 0.950 . S
C585 C576 1.390 1_445 S
C585 H578 0.950 . S
C585 C582 1.387 . S
C586 C587 1.387 . S
C586 H590 0.950 . S
C586 C595 1.390 1_645 S
C587 C586 1.387 . S
C587 C589 1.387 . S
H588 C595 0.950 . S
C589 C587 1.387 . S
C589 C591 1.390 1_645 S
C589 H593 0.950 . S
H590 C586 0.950 . S
C591 C589 1.390 1_465 S
C591 C592 1.387 . S
C591 H594 0.950 . S
C592 C591 1.387 . S
C592 C595 1.387 . S
H593 C589 0.950 . S
H594 C591 0.950 . S
C595 C586 1.390 1_465 S
C595 H588 0.950 . S
C595 C592 1.387 . S
C596 C597 1.387 . S
C596 H600 0.950 . S
C596 C605 1.390 1_445 S
C597 C596 1.387 . S
C597 C599 1.387 . S
H598 C605 0.950 . S
C599 C597 1.387 . S
C599 C601 1.390 1_445 S
C599 H603 0.950 . S
H600 C596 0.950 . S
C601 C599 1.390 1_665 S
C601 C602 1.387 . S
C601 H604 0.950 . S
C602 C601 1.387 . S
C602 C605 1.387 . S
H603 C599 0.950 . S
H604 C601 0.950 . S
C605 C596 1.390 1_665 S
C605 H598 0.950 . S
C605 C602 1.387 . S
C606 C607 1.387 . S
C606 H610 0.950 . S
C606 C615 1.390 1_645 S
C607 C606 1.387 . S
C607 C609 1.387 . S
H608 C615 0.950 . S
C609 C607 1.387 . S
C609 C611 1.390 1_645 S
C609 H613 0.950 . S
H610 C606 0.950 . S
C611 C609 1.390 1_465 S
C611 C612 1.387 . S
C611 H614 0.950 . S
C612 C611 1.387 . S
C612 C615 1.387 . S
H613 C609 0.950 . S
H614 C611 0.950 . S
C615 C606 1.390 1_465 S
C615 H608 0.950 . S
C615 C612 1.387 . S
C616 C617 1.387 . S
C616 H620 0.950 . S
C616 C625 1.390 . S
C617 C616 1.387 . S
C617 C619 1.387 . S
H618 C625 0.950 . S
C619 C617 1.387 . S
C619 C621 1.390 . S
C619 H623 0.950 . S
H620 C616 0.950 . S
C621 C619 1.390 . S
C621 C622 1.387 . S
C621 H624 0.950 . S
C622 C621 1.387 . S
C622 C625 1.387 . S
H623 C619 0.950 . S
H624 C621 0.950 . S
C625 C616 1.390 . S
C625 H618 0.950 . S
C625 C622 1.387 . S
C626 C627 1.387 . S
C626 H630 0.950 . S
C626 C635 1.390 . S
C627 C626 1.387 . S
C627 C629 1.387 . S
H628 C635 0.950 . S
C629 C627 1.387 . S
C629 C631 1.390 . S
C629 H633 0.950 . S
H630 C626 0.950 . S
C631 C629 1.390 . S
C631 C632 1.387 . S
C631 H634 0.950 . S
C632 C631 1.387 . S
C632 C635 1.387 . S
H633 C629 0.950 . S
H634 C631 0.950 . S
C635 C626 1.390 . S
C635 H628 0.950 . S
C635 C632 1.387 . S
C636 C637 1.387 . S
C636 H640 0.950 . S
C636 C645 1.390 . S
C637 C636 1.387 . S
C637 C639 1.387 . S
H638 C645 0.950 . S
C639 C637 1.387 . S
C639 C641 1.390 . S
C639 H643 0.950 . S
H640 C636 0.950 . S
C641 C639 1.390 . S
C641 C642 1.387 . S
C641 H644 0.950 . S
C642 C641 1.387 . S
C642 C645 1.387 . S
H643 C639 0.950 . S
H644 C641 0.950 . S
C645 C636 1.390 . S
C645 H638 0.950 . S
C645 C642 1.387 . S
C646 C647 1.387 . S
C646 H650 0.950 . S
C646 C655 1.390 . S
C647 C646 1.387 . S
C647 C649 1.387 . S
H648 C655 0.950 . S
C649 C647 1.387 . S
C649 C651 1.390 . S
C649 H653 0.950 . S
H650 C646 0.950 . S
C651 C649 1.390 . S
C651 C652 1.387 . S
C651 H654 0.950 . S
C652 C651 1.387 . S
C652 C655 1.387 . S
H653 C649 0.950 . S
H654 C651 0.950 . S
C655 C646 1.390 . S
C655 H648 0.950 . S
C655 C652 1.387 . S
C656 C657 1.387 . S
C656 H660 0.950 . S
C656 C665 1.390 . S
C657 C656 1.387 . S
C657 C659 1.387 . S
H658 C665 0.950 . S
C659 C657 1.387 . S
C659 C661 1.390 . S
C659 H663 0.950 . S
H660 C656 0.950 . S
C661 C659 1.390 . S
C661 C662 1.387 . S
C661 H664 0.950 . S
C662 C661 1.387 . S
C662 C665 1.387 . S
H663 C659 0.950 . S
H664 C661 0.950 . S
C665 C656 1.390 . S
C665 H658 0.950 . S
C665 C662 1.387 . S
C666 C667 1.387 . S
C666 H670 0.950 . S
C666 C675 1.390 . S
C667 C666 1.387 . S
C667 C669 1.387 . S
H668 C675 0.950 . S
C669 C667 1.387 . S
C669 C671 1.390 . S
C669 H673 0.950 . S
H670 C666 0.950 . S
C671 C669 1.390 . S
C671 C672 1.387 . S
C671 H674 0.950 . S
C672 C671 1.387 . S
C672 C675 1.387 . S
H673 C669 0.950 . S
H674 C671 0.950 . S
C675 C666 1.390 . S
C675 H668 0.950 . S
C675 C672 1.387 . S
C676 C677 1.387 . S
C676 H680 0.950 . S
C676 C685 1.390 . S
C677 C676 1.387 . S
C677 C679 1.387 . S
H678 C685 0.950 . S
C679 C677 1.387 . S
C679 C681 1.390 . S
C679 H683 0.950 . S
H680 C676 0.950 . S
C681 C679 1.390 . S
C681 C682 1.387 . S
C681 H684 0.950 . S
C682 C681 1.387 . S
C682 C685 1.387 . S
H683 C679 0.950 . S
H684 C681 0.950 . S
C685 C676 1.390 . S
C685 H678 0.950 . S
C685 C682 1.387 . S
C686 C687 1.387 . S
C686 H690 0.950 . S
C686 C695 1.390 . S
C687 C686 1.387 . S
C687 C689 1.387 . S
H688 C695 0.950 . S
C689 C687 1.387 . S
C689 C691 1.390 . S
C689 H693 0.950 . S
H690 C686 0.950 . S
C691 C689 1.390 . S
C691 C692 1.387 . S
C691 H694 0.950 . S
C692 C691 1.387 . S
C692 C695 1.387 . S
H693 C689 0.950 . S
H694 C691 0.950 . S
C695 C686 1.390 . S
C695 H688 0.950 . S
C695 C692 1.387 . S
C696 C697 1.387 . S
C696 H700 0.950 . S
C696 C705 1.390 . S
C697 C696 1.387 . S
C697 C699 1.387 . S
H698 C705 0.950 . S
C699 C697 1.387 . S
C699 C701 1.390 . S
C699 H703 0.950 . S
H700 C696 0.950 . S
C701 C699 1.390 . S
C701 C702 1.387 . S
C701 H704 0.950 . S
C702 C701 1.387 . S
C702 C705 1.387 . S
H703 C699 0.950 . S
H704 C701 0.950 . S
C705 C696 1.390 . S
C705 H698 0.950 . S
C705 C702 1.387 . S
C706 C707 1.387 . S
C706 H710 0.950 . S
C706 C715 1.390 . S
C707 C706 1.387 . S
C707 C709 1.387 . S
H708 C715 0.950 . S
C709 C707 1.387 . S
C709 C711 1.390 . S
C709 H713 0.950 . S
H710 C706 0.950 . S
C711 C709 1.390 . S
C711 C712 1.387 . S
C711 H714 0.950 . S
C712 C711 1.387 . S
C712 C715 1.387 . S
H713 C709 0.950 . S
H714 C711 0.950 . S
C715 C706 1.390 . S
C715 H708 0.950 . S
C715 C712 1.387 . S
C716 C717 1.387 . S
C716 H720 0.950 . S
C716 C725 1.390 . S
C717 C716 1.387 . S
C717 C719 1.387 . S
H718 C725 0.950 . S
C719 C717 1.387 . S
C719 C721 1.390 . S
C719 H723 0.950 . S
H720 C716 0.950 . S
C721 C719 1.390 . S
C721 C722 1.387 . S
C721 H724 0.950 . S
C722 C721 1.387 . S
C722 C725 1.387 . S
H723 C719 0.950 . S
H724 C721 0.950 . S
C725 C716 1.390 . S
C725 H718 0.950 . S
C725 C722 1.387 . S
C726 C727 1.387 . S
C726 H730 0.950 . S
C726 C735 1.390 . S
C727 C726 1.387 . S
C727 C729 1.387 . S
H728 C735 0.950 . S
C729 C727 1.387 . S
C729 C731 1.390 . S
C729 H733 0.950 . S
H730 C726 0.950 . S
C731 C729 1.390 . S
C731 C732 1.387 . S
C731 H734 0.950 . S
C732 C731 1.387 . S
C732 C735 1.387 . S
H733 C729 0.950 . S
H734 C731 0.950 . S
C735 C726 1.390 . S
C735 H728 0.950 . S
C735 C732 1.387 . S
C736 C737 1.387 . S
C736 H740 0.950 . S
C736 C745 1.390 . S
C737 C736 1.387 . S
C737 C739 1.387 . S
H738 C745 0.950 . S
C739 C737 1.387 . S
C739 C741 1.390 . S
C739 H743 0.950 . S
H740 C736 0.950 . S
C741 C739 1.390 . S
C741 C742 1.387 . S
C741 H744 0.950 . S
C742 C741 1.387 . S
C742 C745 1.387 . S
H743 C739 0.950 . S
H744 C741 0.950 . S
C745 C736 1.390 . S
C745 H738 0.950 . S
C745 C742 1.387 . S
C746 C747 1.387 . S
C746 H750 0.950 . S
C746 C755 1.390 . S
C747 C746 1.387 . S
C747 C749 1.387 . S
H748 C755 0.950 . S
C749 C747 1.387 . S
C749 C751 1.390 . S
C749 H753 0.950 . S
H750 C746 0.950 . S
C751 C749 1.390 . S
C751 C752 1.387 . S
C751 H754 0.950 . S
C752 C751 1.387 . S
C752 C755 1.387 . S
H753 C749 0.950 . S
H754 C751 0.950 . S
C755 C746 1.390 . S
C755 H748 0.950 . S
C755 C752 1.387 . S
C756 C757 1.387 . S
C756 H760 0.950 . S
C756 C765 1.390 . S
C757 C756 1.387 . S
C757 C759 1.387 . S
H758 C765 0.950 . S
C759 C757 1.387 . S
C759 C761 1.390 . S
C759 H763 0.950 . S
H760 C756 0.950 . S
C761 C759 1.390 . S
C761 C762 1.387 . S
C761 H764 0.950 . S
C762 C761 1.387 . S
C762 C765 1.387 . S
H763 C759 0.950 . S
H764 C761 0.950 . S
C765 C756 1.390 . S
C765 H758 0.950 . S
C765 C762 1.387 . S
C766 C767 1.387 . S
C766 H770 0.950 . S
C766 C775 1.390 . S
C767 C766 1.387 . S
C767 C769 1.387 . S
H768 C775 0.950 . S
C769 C767 1.387 . S
C769 C771 1.390 . S
C769 H773 0.950 . S
H770 C766 0.950 . S
C771 C769 1.390 . S
C771 C772 1.387 . S
C771 H774 0.950 . S
C772 C771 1.387 . S
C772 C775 1.387 . S
H773 C769 0.950 . S
H774 C771 0.950 . S
C775 C766 1.390 . S
C775 H768 0.950 . S
C775 C772 1.387 . S
C776 C777 1.387 . S
C776 H780 0.950 . S
C776 C785 1.390 . S
C777 C776 1.387 . S
C777 C779 1.387 . S
H778 C785 0.950 . S
C779 C777 1.387 . S
C779 C781 1.390 . S
C779 H783 0.950 . S
H780 C776 0.950 . S
C781 C779 1.390 . S
C781 C782 1.387 . S
C781 H784 0.950 . S
C782 C781 1.387 . S
C782 C785 1.387 . S
H783 C779 0.950 . S
H784 C781 0.950 . S
C785 C776 1.390 . S
C785 H778 0.950 . S
C785 C782 1.387 . S
C786 C787 1.387 . S
C786 H790 0.950 . S
C786 C795 1.390 . S
C787 C786 1.387 . S
C787 C789 1.387 . S
H788 C795 0.950 . S
C789 C787 1.387 . S
C789 C791 1.390 . S
C789 H793 0.950 . S
H790 C786 0.950 . S
C791 C789 1.390 . S
C791 C792 1.387 . S
C791 H794 0.950 . S
C792 C791 1.387 . S
C792 C795 1.387 . S
H793 C789 0.950 . S
H794 C791 0.950 . S
C795 C786 1.390 . S
C795 H788 0.950 . S
C795 C792 1.387 . S
C796 C797 1.387 . S
C796 H800 0.950 . S
C796 C805 1.390 . S
C797 C796 1.387 . S
C797 C799 1.387 . S
H798 C805 0.950 . S
C799 C797 1.387 . S
C799 C801 1.390 . S
C799 H803 0.950 . S
H800 C796 0.950 . S
C801 C799 1.390 . S
C801 C802 1.387 . S
C801 H804 0.950 . S
C802 C801 1.387 . S
C802 C805 1.387 . S
H803 C799 0.950 . S
H804 C801 0.950 . S
C805 C796 1.390 . S
C805 H798 0.950 . S
C805 C802 1.387 . S
C806 C807 1.387 . S
C806 H810 0.950 . S
C806 C815 1.390 . S
C807 C806 1.387 . S
C807 C809 1.387 . S
H808 C815 0.950 . S
C809 C807 1.387 . S
C809 C811 1.390 . S
C809 H813 0.950 . S
H810 C806 0.950 . S
C811 C809 1.390 . S
C811 C812 1.387 . S
C811 H814 0.950 . S
C812 C811 1.387 . S
C812 C815 1.387 . S
H813 C809 0.950 . S
H814 C811 0.950 . S
C815 C806 1.390 . S
C815 H808 0.950 . S
C815 C812 1.387 . S
C337 C14 1.442 . S
C342 C206 1.442 . S
C347 C38 1.443 . S
C352 C182 1.443 . S
C357 C248 1.443 . S
C362 C59 1.443 . S
C367 C80 1.443 . S
C372 C227 1.443 . S
C377 C290 1.443 . S
C382 C101 1.443 . S
C387 C269 1.442 . S
C392 C122 1.442 . S
C397 C332 1.442 . S
C402 C143 1.442 . S
C407 C164 1.442 . S
C412 C311 1.442 . S
C417 C60 1.351 . S
C422 C15 1.351 . S
C427 C81 1.355 . S
C432 C39 1.355 . S
C437 C144 1.351 . S
C442 C102 1.351 . S
C447 C123 1.351 . S
C452 C165 1.351 . S
C457 C228 1.351 . S
C462 C183 1.351 . S
C467 C249 1.355 . S
C472 C207 1.355 . S
C477 C270 1.355 . S
C482 C312 1.355 . S
C487 C291 1.351 . S
C492 C333 1.351 . S
C497 C120 1.292 . S
C502 C18 1.296 . S
C507 C99 1.292 . S
C512 C36 1.296 . S
C517 C57 1.292 . S
C522 C162 1.296 . S
C527 C141 1.292 . S
C532 C78 1.296 . S
C537 C186 1.296 . S
C542 C288 1.292 . S
C547 C267 1.296 . S
C552 C204 1.292 . S
C557 C225 1.296 . S
C562 C330 1.292 . S
C567 C309 1.292 . S
C572 C246 1.296 . S
C577 C34 1.444 . S
C582 C16 1.444 . S
C587 C76 1.446 . S
C592 C55 1.446 . S
C597 C118 1.444 . S
C602 C97 1.444 . S
C607 C139 1.446 . S
C612 C160 1.446 . S
C617 C202 1.446 . S
C622 C184 1.446 . S
C627 C244 1.444 . S
C632 C223 1.444 . S
C637 C265 1.444 . S
C642 C286 1.444 . S
C647 C307 1.444 . S
C652 C328 1.444 . S
C657 C17 1.396 . S
C662 C13 1.398 . S
C667 C35 1.396 . S
C672 C37 1.400 . S
C677 C56 1.397 . S
C682 C58 1.400 . S
C687 C79 1.398 . S
C692 C77 1.395 . S
C697 C98 1.396 . S
C702 C100 1.398 . S
C707 C121 1.400 . S
C712 C119 1.396 . S
C717 C140 1.397 . S
C722 C142 1.400 . S
C727 C161 1.395 . S
C732 C163 1.397 . S
C737 C181 1.397 1_545 S
C742 C185 1.395 . S
C747 C203 1.396 . S
C752 C205 1.400 1_565 S
C757 C226 1.398 1_565 S
C762 C224 1.395 . S
C767 C247 1.398 1_545 S
C772 C245 1.395 . S
C777 C266 1.397 . S
C782 C268 1.400 1_565 S
C787 C287 1.397 . S
C792 C289 1.400 1_545 S
C797 C310 1.398 1_545 S
C802 C308 1.395 . S
C807 C329 1.395 . S
C812 C331 1.398 1_565 S
