# Generated by pormake.
# Topology acs-f, (3)-cn, num edge types: 1
# Building blocks:
#     Node 0, Type 0, BuildingBlock: OLANEW_clean_sbu_2, # of connection points: 3
#     Node 1, Type 0, BuildingBlock: OLANEW_clean_sbu_2, # of connection points: 3
#     Node 2, Type 0, BuildingBlock: OLANEW_clean_sbu_2, # of connection points: 3
#     Node 3, Type 0, BuildingBlock: OLANEW_clean_sbu_2, # of connection points: 3
#     Node 4, Type 0, BuildingBlock: OLANEW_clean_sbu_2, # of connection points: 3
#     Node 5, Type 0, BuildingBlock: OLANEW_clean_sbu_2, # of connection points: 3
#     Node 6, Type 0, BuildingBlock: OLANEW_clean_sbu_2, # of connection points: 3
#     Node 7, Type 0, BuildingBlock: OLANEW_clean_sbu_2, # of connection points: 3
#     Node 8, Type 0, BuildingBlock: OLANEW_clean_sbu_2, # of connection points: 3
#     Node 9, Type 0, BuildingBlock: OLANEW_clean_sbu_2, # of connection points: 3
#     Node 10, Type 0, BuildingBlock: OLANEW_clean_sbu_2, # of connection points: 3
#     Node 11, Type 0, BuildingBlock: OLANEW_clean_sbu_2, # of connection points: 3
#     Edge 12, Type (0, 0), BuildingBlock: MIFKUJ_clean_linker_0, # of connection points: 2
#     Edge 13, Type (0, 0), BuildingBlock: MIFKUJ_clean_linker_0, # of connection points: 2
#     Edge 14, Type (0, 0), BuildingBlock: MIFKUJ_clean_linker_0, # of connection points: 2
#     Edge 15, Type (0, 0), BuildingBlock: MIFKUJ_clean_linker_0, # of connection points: 2
#     Edge 16, Type (0, 0), BuildingBlock: MIFKUJ_clean_linker_0, # of connection points: 2
#     Edge 17, Type (0, 0), BuildingBlock: MIFKUJ_clean_linker_0, # of connection points: 2
#     Edge 18, Type (0, 0), BuildingBlock: MIFKUJ_clean_linker_0, # of connection points: 2
#     Edge 19, Type (0, 0), BuildingBlock: MIFKUJ_clean_linker_0, # of connection points: 2
#     Edge 20, Type (0, 0), BuildingBlock: MIFKUJ_clean_linker_0, # of connection points: 2
#     Edge 21, Type (0, 0), BuildingBlock: MIFKUJ_clean_linker_0, # of connection points: 2
#     Edge 22, Type (0, 0), BuildingBlock: MIFKUJ_clean_linker_0, # of connection points: 2
#     Edge 23, Type (0, 0), BuildingBlock: MIFKUJ_clean_linker_0, # of connection points: 2
#     Edge 24, Type (0, 0), BuildingBlock: MIFKUJ_clean_linker_0, # of connection points: 2
#     Edge 25, Type (0, 0), BuildingBlock: MIFKUJ_clean_linker_0, # of connection points: 2
#     Edge 26, Type (0, 0), BuildingBlock: MIFKUJ_clean_linker_0, # of connection points: 2
#     Edge 27, Type (0, 0), BuildingBlock: MIFKUJ_clean_linker_0, # of connection points: 2
#     Edge 28, Type (0, 0), BuildingBlock: MIFKUJ_clean_linker_0, # of connection points: 2
#     Edge 29, Type (0, 0), BuildingBlock: MIFKUJ_clean_linker_0, # of connection points: 2
# Relax obj value: 0.074
# Max RMSD: 0.031
# Mean RMSD: 0.031
data_MOF--net-acs-f--node1-OLANEW_clean_sbu_2--edge1-MIFKUJ_clean_linker_0
_symmetry_space_group_name_H-M    P1
_symmetry_Int_Tables_number       1
_symmetry_cell_setting            triclinic
loop_
_symmetry_equiv_pos_as_xyz
'x, y, z'
_cell_length_a     46.439517
_cell_length_b     46.437116
_cell_length_c     64.900347
_cell_angle_alpha  90.003127
_cell_angle_beta   90.003294
_cell_angle_gamma 120.00483
loop_
_atom_site_label
_atom_site_type_symbol
_atom_site_fract_x
_atom_site_fract_y
_atom_site_fract_z
_atom_type_partial_charge
O0 O 0.89924 0.35956 0.15057 0.0
Cd1 Cd 0.8962 0.32973 0.11895 0.0
O2 O 0.95084 0.37118 0.15406 0.0
Cd3 Cd 0.00053 0.39435 0.16778 0.0
O4 O 0.04836 0.40675 0.18138 0.0
C5 C 0.05469 0.41487 0.20023 0.0
O6 O 0.03232 0.41691 0.21156 0.0
C7 C 0.92623 0.37334 0.16074 0.0
C8 C 0.92266 0.37363 0.08589 0.0
O9 O 0.8916 0.35949 0.09021 0.0
O10 O 0.94114 0.3668 0.09714 0.0
O11 O 0.60283 0.53995 0.13813 0.0
Cd12 Cd 0.62888 0.56366 0.10499 0.0
O13 O 0.59763 0.58384 0.14277 0.0
Cd14 Cd 0.58694 0.61735 0.1606 0.0
O15 O 0.58086 0.65409 0.17807 0.0
C16 C 0.60185 0.67073 0.19202 0.0
O17 O 0.62635 0.66498 0.19569 0.0
C18 C 0.59323 0.55607 0.14926 0.0
C19 C 0.5864 0.53208 0.07184 0.0
O20 O 0.60677 0.52288 0.07804 0.0
O21 O 0.58607 0.5561 0.08137 0.0
O22 O 0.46032 0.05536 0.1443 0.0
Cd23 Cd 0.43393 0.05557 0.11178 0.0
O24 O 0.41422 0.0099 0.1522 0.0
Cd25 Cd 0.37889 0.96922 0.17181 0.0
O26 O 0.33873 0.92716 0.18801 0.0
C27 C 0.34373 0.91579 0.2046 0.0
O28 O 0.37396 0.92972 0.21225 0.0
C29 C 0.44373 0.03194 0.15697 0.0
C30 C 0.4665 0.04826 0.07784 0.0
O31 O 0.47381 0.07718 0.08438 0.0
O32 O 0.44384 0.02284 0.08739 0.0
O33 O 0.6054 0.06845 0.3623 0.0
Cd34 Cd 0.6326 0.07332 0.39537 0.0
O35 O 0.60844 0.02364 0.35629 0.0
Cd36 Cd 0.60467 0.98298 0.33727 0.0
O37 O 0.60541 0.94323 0.31973 0.0
C38 C 0.58551 0.92904 0.30482 0.0
O39 O 0.56411 0.93859 0.2999 0.0
C40 C 0.59964 0.04429 0.35053 0.0
C41 C 0.58938 0.05928 0.42853 0.0
O42 O 0.60766 0.08918 0.42212 0.0
O43 O 0.59151 0.03607 0.41923 0.0
O44 O 0.90811 0.54959 0.34861 0.0
Cd45 Cd 0.90521 0.57599 0.38044 0.0
O46 O 0.96234 0.58135 0.34923 0.0
Cd47 Cd 0.01179 0.60298 0.33545 0.0
O48 O 0.0589 0.6369 0.32046 0.0
C49 C 0.05818 0.64653 0.30223 0.0
O50 O 0.02934 0.63475 0.2929 0.0
C51 C 0.93632 0.55849 0.34064 0.0
C52 C 0.92971 0.55606 0.41334 0.0
O53 O 0.89878 0.53996 0.4086 0.0
O54 O 0.94898 0.58178 0.40262 0.0
O55 O 0.45652 0.40031 0.35486 0.0
Cd56 Cd 0.43064 0.37181 0.38704 0.0
O57 O 0.40861 0.39506 0.34606 0.0
Cd58 Cd 0.37474 0.40373 0.32708 0.0
O59 O 0.33637 0.41049 0.3122 0.0
C60 C 0.33335 0.40992 0.29272 0.0
O61 O 0.35407 0.40545 0.28121 0.0
C62 C 0.43892 0.40512 0.34183 0.0
C63 C 0.46132 0.41174 0.42132 0.0
O64 O 0.47043 0.3916 0.41454 0.0
O65 O 0.4377 0.41295 0.41188 0.0
O66 O 0.08307 0.61997 0.853 0.0
Cd67 Cd 0.08726 0.64968 0.88491 0.0
O68 O 0.04327 0.62909 0.843 0.0
Cd69 Cd 0.00888 0.62958 0.82018 0.0
O70 O 0.97788 0.63986 0.79968 0.0
C71 C 0.97188 0.62982 0.78112 0.0
O72 O 0.98437 0.61201 0.77379 0.0
C73 C 0.06163 0.61652 0.8396 0.0
C74 C 0.06092 0.60581 0.918 0.0
O75 O 0.04249 0.61302 0.90697 0.0
O76 O 0.09187 0.61953 0.91343 0.0
O77 O 0.36762 0.42104 0.83382 0.0
Cd78 Cd 0.34362 0.37239 0.85635 0.0
O79 O 0.33852 0.39546 0.8062 0.0
Cd80 Cd 0.31531 0.34535 0.81896 0.0
O81 O 0.30298 0.29432 0.81242 0.0
C82 C 0.29368 0.28456 0.79405 0.0
O83 O 0.29053 0.30471 0.78121 0.0
C84 C 0.35988 0.42198 0.81515 0.0
C85 C 0.37818 0.39013 0.89367 0.0
O86 O 0.38678 0.37747 0.87902 0.0
O87 O 0.35281 0.39367 0.89081 0.0
O88 O 0.59898 0.95881 0.8377 0.0
Cd89 Cd 0.64428 0.98787 0.86238 0.0
O90 O 0.62973 0.95255 0.81437 0.0
Cd91 Cd 0.67611 0.98658 0.82994 0.0
O92 O 0.72041 0.03573 0.828 0.0
C93 C 0.71545 0.059 0.8221 0.0
O94 O 0.68471 0.05226 0.81908 0.0
C95 C 0.60147 0.94721 0.82047 0.0
C96 C 0.61992 0.00026 0.89857 0.0
O97 O 0.63192 0.02201 0.88415 0.0
O98 O 0.61986 0.97287 0.89596 0.0
O99 O 0.36922 0.93981 0.66608 0.0
Cd100 Cd 0.34363 0.9629 0.64358 0.0
O101 O 0.33983 0.93539 0.69374 0.0
Cd102 Cd 0.31566 0.96161 0.68135 0.0
O103 O 0.30316 0.99939 0.69031 0.0
C104 C 0.30606 0.00545 0.70954 0.0
O105 O 0.3151 0.98852 0.72151 0.0
C106 C 0.36164 0.93099 0.68475 0.0
C107 C 0.37808 0.98081 0.60624 0.0
O108 O 0.38567 0.00211 0.62077 0.0
O109 O 0.35377 0.95131 0.60922 0.0
O110 O 0.08084 0.45767 0.64343 0.0
Cd111 Cd 0.08403 0.42966 0.61242 0.0
O112 O 0.04579 0.40933 0.65699 0.0
Cd113 Cd 0.016 0.37774 0.68254 0.0
O114 O 0.98629 0.34399 0.70721 0.0
C115 C 0.95952 0.34263 0.71306 0.0
O116 O 0.95036 0.36232 0.70434 0.0
C117 C 0.06205 0.44087 0.65825 0.0
C118 C 0.05953 0.44783 0.57867 0.0
O119 O 0.04028 0.42257 0.58974 0.0
O120 O 0.09044 0.46425 0.58344 0.0
O121 O 0.5931 0.63733 0.66094 0.0
Cd122 Cd 0.63732 0.65485 0.63535 0.0
O123 O 0.62614 0.66982 0.6854 0.0
Cd124 Cd 0.67193 0.68352 0.66861 0.0
O125 O 0.71947 0.68468 0.67018 0.0
C126 C 0.7368 0.6986 0.68612 0.0
O127 O 0.7261 0.71276 0.6992 0.0
C128 C 0.59711 0.64901 0.6791 0.0
C129 C 0.6126 0.61712 0.59953 0.0
O130 O 0.62615 0.60859 0.61365 0.0
O131 O 0.61109 0.64367 0.60226 0.0
H132 H 0.31847 0.40787 0.25172 0.0
H133 H 0.27283 0.4123 0.23626 0.0
H134 H 0.24161 0.42475 0.2966 0.0
H135 H 0.28683 0.41986 0.31221 0.0
H136 H 0.18974 0.38079 0.27443 0.0
H137 H 0.28191 0.49067 0.26363 0.0
H138 H 0.33801 0.53241 0.25184 0.0
H139 H 0.31134 0.49811 0.18955 0.0
H140 H 0.25519 0.45583 0.20102 0.0
H141 H 0.07398 0.42777 0.24062 0.0
H142 H 0.12311 0.43052 0.25647 0.0
H143 H 0.15446 0.41443 0.19712 0.0
H144 H 0.10559 0.41184 0.18112 0.0
H145 H 0.20664 0.46171 0.21923 0.0
H146 H 0.11564 0.35085 0.23003 0.0
H147 H 0.05967 0.3084 0.24159 0.0
H148 H 0.08446 0.34414 0.30374 0.0
H149 H 0.14047 0.38713 0.29249 0.0
C150 C 0.30198 0.41169 0.26171 0.0
C151 C 0.30632 0.41353 0.28321 0.0
C152 C 0.27598 0.41436 0.25283 0.0
C153 C 0.25399 0.41919 0.26526 0.0
C154 C 0.25829 0.42106 0.28671 0.0
C155 C 0.28422 0.41833 0.2956 0.0
C156 C 0.22592 0.42135 0.25597 0.0
C157 C 0.1935 0.39886 0.2626 0.0
C158 C 0.23074 0.44438 0.24017 0.0
C159 C 0.26444 0.46988 0.23322 0.0
C160 C 0.28809 0.49186 0.24744 0.0
C161 C 0.31988 0.51564 0.24081 0.0
C162 C 0.32826 0.51785 0.21996 0.0
C163 C 0.30482 0.49634 0.2057 0.0
C164 C 0.273 0.47248 0.21225 0.0
C165 C 0.09144 0.42505 0.23091 0.0
C166 C 0.08569 0.41926 0.20964 0.0
C167 C 0.11945 0.42654 0.24 0.0
C168 C 0.14218 0.42223 0.228 0.0
C169 C 0.13719 0.41774 0.20666 0.0
C170 C 0.10917 0.41617 0.19756 0.0
C171 C 0.17056 0.42122 0.23776 0.0
C172 C 0.20297 0.44383 0.23117 0.0
C173 C 0.16577 0.39826 0.25358 0.0
C174 C 0.13211 0.37245 0.26038 0.0
C175 C 0.10906 0.34985 0.24613 0.0
C176 C 0.07735 0.32565 0.25263 0.0
C177 C 0.06848 0.32364 0.27337 0.0
C178 C 0.09134 0.34577 0.28767 0.0
C179 C 0.12308 0.37004 0.28125 0.0
H180 H 0.04392 0.30488 0.27838 0.0
H181 H 0.35289 0.53628 0.21486 0.0
H182 H 0.64218 0.71004 0.22303 0.0
H183 H 0.63777 0.75292 0.24225 0.0
H184 H 0.55109 0.73297 0.20689 0.0
H185 H 0.55531 0.69002 0.18752 0.0
H186 H 0.59602 0.80003 0.21036 0.0
H187 H 0.54118 0.70536 0.2553 0.0
H188 H 0.53599 0.65796 0.27543 0.0
H189 H 0.62165 0.72411 0.3112 0.0
H190 H 0.62743 0.77196 0.29124 0.0
H191 H 0.54534 0.89219 0.27295 0.0
H192 H 0.54706 0.84766 0.25389 0.0
H193 H 0.62969 0.8606 0.2911 0.0
H194 H 0.62779 0.90473 0.31046 0.0
H195 H 0.58556 0.79622 0.28654 0.0
H196 H 0.64131 0.89064 0.24187 0.0
H197 H 0.648 0.93857 0.22165 0.0
H198 H 0.56295 0.87369 0.18497 0.0
H199 H 0.55547 0.8254 0.20517 0.0
C200 C 0.62215 0.71473 0.21933 0.0
C201 C 0.59906 0.69657 0.20376 0.0
C202 C 0.61959 0.73915 0.23039 0.0
C203 C 0.59395 0.74592 0.22609 0.0
C204 C 0.57104 0.72808 0.21044 0.0
C205 C 0.57346 0.70351 0.19944 0.0
C206 C 0.59129 0.77191 0.23779 0.0
C207 C 0.59322 0.79898 0.22698 0.0
C208 C 0.58849 0.77089 0.25951 0.0
C209 C 0.58491 0.74221 0.27166 0.0
C210 C 0.55904 0.70978 0.26737 0.0
C211 C 0.55597 0.68284 0.27876 0.0
C212 C 0.57858 0.68799 0.2945 0.0
C213 C 0.60419 0.72015 0.29897 0.0
C214 C 0.60732 0.74721 0.28767 0.0
C215 C 0.5639 0.88559 0.27708 0.0
C216 C 0.58649 0.9021 0.29319 0.0
C217 C 0.56492 0.8602 0.26612 0.0
C218 C 0.58874 0.85103 0.27092 0.0
C219 C 0.61111 0.86725 0.28712 0.0
C220 C 0.61005 0.89257 0.29813 0.0
C221 C 0.59033 0.82447 0.25912 0.0
C222 C 0.58824 0.79727 0.2699 0.0
C223 C 0.59317 0.82547 0.23737 0.0
C224 C 0.59762 0.85445 0.22518 0.0
C225 C 0.62386 0.88663 0.2296 0.0
C226 C 0.62783 0.91385 0.21812 0.0
C227 C 0.60586 0.90919 0.20207 0.0
C228 C 0.57992 0.87727 0.19743 0.0
C229 C 0.57582 0.84996 0.20888 0.0
H230 H 0.60897 0.9303 0.1932 0.0
H231 H 0.57619 0.66708 0.30326 0.0
H232 H 0.12139 0.67858 0.31798 0.0
H233 H 0.17165 0.7229 0.30181 0.0
H234 H 0.11506 0.71716 0.2477 0.0
H235 H 0.0648 0.67259 0.26362 0.0
H236 H 0.17366 0.72286 0.23733 0.0
H237 H 0.1358 0.77828 0.28304 0.0
H238 H 0.1181 0.79024 0.31623 0.0
H239 H 0.21293 0.81682 0.34274 0.0
H240 H 0.23104 0.80457 0.30976 0.0
H241 H 0.27929 0.87952 0.19157 0.0
H242 H 0.23306 0.83224 0.20876 0.0
H243 H 0.29813 0.83978 0.25846 0.0
H244 H 0.34474 0.88701 0.24123 0.0
H245 H 0.23766 0.83237 0.27196 0.0
H246 H 0.27612 0.77954 0.22485 0.0
H247 H 0.29315 0.76873 0.19108 0.0
H248 H 0.19618 0.73832 0.1666 0.0
H249 H 0.1787 0.74941 0.20016 0.0
C250 C 0.11965 0.68661 0.3026 0.0
C251 C 0.08903 0.67215 0.29213 0.0
C252 C 0.14839 0.71205 0.29342 0.0
C253 C 0.14701 0.72363 0.27366 0.0
C254 C 0.11667 0.70865 0.26298 0.0
C255 C 0.08794 0.68323 0.27213 0.0
C256 C 0.17705 0.75166 0.26418 0.0
C257 C 0.18745 0.74689 0.24481 0.0
C258 C 0.19547 0.78281 0.27415 0.0
C259 C 0.18463 0.79013 0.29401 0.0
C260 C 0.15277 0.78639 0.296 0.0
C261 C 0.14269 0.79327 0.31477 0.0
C262 C 0.16434 0.80418 0.3316 0.0
C263 C 0.19616 0.80831 0.3297 0.0
C264 C 0.20636 0.80141 0.31097 0.0
C265 C 0.28386 0.87115 0.20614 0.0
C266 C 0.31574 0.88711 0.21506 0.0
C267 C 0.2574 0.84405 0.21591 0.0
C268 C 0.26225 0.83238 0.2348 0.0
C269 C 0.29391 0.84842 0.24388 0.0
C270 C 0.3205 0.8754 0.23402 0.0
C271 C 0.23406 0.8036 0.24508 0.0
C272 C 0.22399 0.80824 0.26457 0.0
C273 C 0.21581 0.7724 0.23517 0.0
C274 C 0.2262 0.7656 0.21498 0.0
C275 C 0.25851 0.77081 0.21222 0.0
C276 C 0.26823 0.76458 0.19312 0.0
C277 C 0.24579 0.75292 0.17669 0.0
C278 C 0.21355 0.74738 0.17934 0.0
C279 C 0.20371 0.75361 0.1984 0.0
H280 H 0.25336 0.74811 0.16192 0.0
H281 H 0.15649 0.80952 0.34611 0.0
H282 H 0.77789 0.72502 0.71923 0.0
H283 H 0.82288 0.71571 0.72979 0.0
H284 H 0.80803 0.65658 0.67533 0.0
H285 H 0.76231 0.66534 0.66476 0.0
H286 H 0.81138 0.62523 0.70878 0.0
H287 H 0.87805 0.73316 0.68062 0.0
H288 H 0.897 0.79239 0.6745 0.0
H289 H 0.92109 0.81351 0.73862 0.0
H290 H 0.90184 0.75431 0.7452 0.0
H291 H 0.9508 0.60968 0.74149 0.0
H292 H 0.91563 0.6234 0.72029 0.0
H293 H 0.91077 0.68264 0.76989 0.0
H294 H 0.9459 0.6693 0.79107 0.0
H295 H 0.92184 0.71416 0.73282 0.0
H296 H 0.84726 0.60483 0.76113 0.0
H297 H 0.82758 0.54542 0.76726 0.0
H298 H 0.81868 0.52735 0.70205 0.0
H299 H 0.83873 0.58679 0.69553 0.0
C300 C 0.7844 0.71037 0.70931 0.0
C301 C 0.76643 0.69585 0.69117 0.0
C302 C 0.81032 0.70523 0.71533 0.0
C303 C 0.81909 0.68572 0.70325 0.0
C304 C 0.80174 0.6718 0.68485 0.0
C305 C 0.7757 0.67692 0.67881 0.0
C306 C 0.84478 0.67813 0.71075 0.0
C307 C 0.83584 0.6447 0.71358 0.0
C308 C 0.87653 0.7035 0.71729 0.0
C309 C 0.8883 0.73921 0.71342 0.0
C310 C 0.88717 0.75038 0.69345 0.0
C311 C 0.89801 0.78397 0.68989 0.0
C312 C 0.9102 0.80669 0.70616 0.0
C313 C 0.91164 0.79588 0.72603 0.0
C314 C 0.90082 0.76231 0.72967 0.0
C315 C 0.94229 0.62568 0.74786 0.0
C316 C 0.95103 0.63826 0.76802 0.0
C317 C 0.92217 0.63345 0.73573 0.0
C318 C 0.91046 0.65389 0.74357 0.0
C319 C 0.91961 0.66689 0.76353 0.0
C320 C 0.93958 0.65908 0.77566 0.0
C321 C 0.88803 0.66137 0.73131 0.0
C322 C 0.89762 0.69476 0.72762 0.0
C323 C 0.85693 0.63599 0.72392 0.0
C324 C 0.84489 0.6003 0.72784 0.0
C325 C 0.84139 0.58824 0.7481 0.0
C326 C 0.83011 0.55455 0.75164 0.0
C327 C 0.822 0.53265 0.73505 0.0
C328 C 0.82505 0.54436 0.71488 0.0
C329 C 0.83636 0.57804 0.71125 0.0
H330 H 0.81326 0.50658 0.73783 0.0
H331 H 0.91857 0.83269 0.70338 0.0
H332 H 0.2751 0.25784 0.75558 0.0
H333 H 0.27294 0.20771 0.74223 0.0
H334 H 0.30048 0.18854 0.802 0.0
H335 H 0.30319 0.23908 0.81546 0.0
H336 H 0.33792 0.18411 0.77218 0.0
H337 H 0.22148 0.14054 0.78329 0.0
H338 H 0.16775 0.13895 0.78057 0.0
H339 H 0.17092 0.13275 0.71467 0.0
H340 H 0.22493 0.13476 0.71698 0.0
H341 H 0.31198 0.02437 0.74978 0.0
H342 H 0.30613 0.06951 0.76443 0.0
H343 H 0.28296 0.09197 0.70429 0.0
H344 H 0.28852 0.04644 0.68942 0.0
H345 H 0.2423 0.09386 0.73458 0.0
H346 H 0.35921 0.13908 0.72342 0.0
H347 H 0.41313 0.14102 0.72596 0.0
H348 H 0.40908 0.14455 0.79196 0.0
H349 H 0.35487 0.14216 0.78981 0.0
C350 C 0.28037 0.24281 0.76598 0.0
C351 C 0.28941 0.25252 0.78659 0.0
C352 C 0.27896 0.21403 0.75833 0.0
C353 C 0.28631 0.19423 0.77115 0.0
C354 C 0.29469 0.20347 0.79184 0.0
C355 C 0.29612 0.2323 0.79952 0.0
C356 C 0.28715 0.165 0.76261 0.0
C357 C 0.3168 0.16408 0.76429 0.0
C358 C 0.25992 0.13939 0.75175 0.0
C359 C 0.22741 0.13811 0.75031 0.0
C360 C 0.21086 0.13911 0.76821 0.0
C361 C 0.18033 0.13808 0.76674 0.0
C362 C 0.16597 0.13583 0.74745 0.0
C363 C 0.18209 0.13453 0.7296 0.0
C364 C 0.21264 0.13557 0.73098 0.0
C365 C 0.3055 0.03877 0.73962 0.0
C366 C 0.30093 0.03193 0.71839 0.0
C367 C 0.30226 0.06464 0.74804 0.0
C368 C 0.29454 0.08436 0.73541 0.0
C369 C 0.28902 0.07708 0.71429 0.0
C370 C 0.2923 0.05114 0.70582 0.0
C371 C 0.29299 0.11298 0.74427 0.0
C372 C 0.26331 0.11383 0.74258 0.0
C373 C 0.32019 0.1386 0.75511 0.0
C374 C 0.35282 0.1401 0.75645 0.0
C375 C 0.36968 0.13999 0.73848 0.0
C376 C 0.40032 0.14122 0.73985 0.0
C377 C 0.41448 0.14282 0.75911 0.0
C378 C 0.39806 0.14327 0.77705 0.0
C379 C 0.36739 0.142 0.77576 0.0
H380 H 0.43821 0.14378 0.76014 0.0
H381 H 0.14233 0.13503 0.74635 0.0
H382 H 0.97368 0.30243 0.7366 0.0
H383 H 0.93645 0.25834 0.76009 0.0
H384 H 0.85898 0.28139 0.74742 0.0
H385 H 0.89645 0.32627 0.72443 0.0
H386 H 0.8578 0.26652 0.78682 0.0
H387 H 0.86276 0.21689 0.72259 0.0
H388 H 0.89047 0.20527 0.694 0.0
H389 H 0.93048 0.16358 0.73659 0.0
H390 H 0.90332 0.17534 0.76547 0.0
H391 H 0.71246 0.1121 0.80666 0.0
H392 H 0.75812 0.16389 0.79325 0.0
H393 H 0.82793 0.13272 0.81093 0.0
H394 H 0.78214 0.08036 0.82409 0.0
H395 H 0.83694 0.15285 0.77198 0.0
H396 H 0.82536 0.19718 0.83596 0.0
H397 H 0.7954 0.20767 0.86364 0.0
H398 H 0.76541 0.25818 0.82081 0.0
H399 H 0.79481 0.2476 0.7928 0.0
C400 C 0.94879 0.29829 0.73893 0.0
C401 C 0.93787 0.31758 0.72844 0.0
C402 C 0.92751 0.27301 0.75233 0.0
C403 C 0.89467 0.26607 0.7552 0.0
C404 C 0.88416 0.28618 0.7454 0.0
C405 C 0.90558 0.31176 0.73218 0.0
C406 C 0.87077 0.23692 0.76758 0.0
C407 C 0.85306 0.24162 0.7835 0.0
C408 C 0.86507 0.2045 0.76355 0.0
C409 C 0.88133 0.19733 0.7462 0.0
C410 C 0.87767 0.20547 0.72586 0.0
C411 C 0.89324 0.19882 0.70961 0.0
C412 C 0.91231 0.18379 0.71348 0.0
C413 C 0.91576 0.17528 0.73362 0.0
C414 C 0.90027 0.18191 0.74993 0.0
C415 C 0.73755 0.11639 0.80799 0.0
C416 C 0.74362 0.09199 0.81635 0.0
C417 C 0.7637 0.14617 0.80041 0.0
C418 C 0.79652 0.15234 0.80122 0.0
C419 C 0.8028 0.12849 0.81017 0.0
C420 C 0.77661 0.09861 0.81772 0.0
C421 C 0.82373 0.18235 0.79115 0.0
C422 C 0.842 0.17779 0.77556 0.0
C423 C 0.82966 0.21479 0.79539 0.0
C424 C 0.81213 0.22139 0.81224 0.0
C425 C 0.81219 0.21032 0.83241 0.0
C426 C 0.79533 0.21632 0.84817 0.0
C427 C 0.77846 0.23352 0.84398 0.0
C428 C 0.77848 0.24484 0.82403 0.0
C429 C 0.79528 0.2389 0.80821 0.0
H430 H 0.76542 0.23813 0.8562 0.0
H431 H 0.92434 0.17866 0.70088 0.0
H432 H 0.9878 0.40965 0.07408 0.0
H433 H 0.01111 0.44925 0.04561 0.0
H434 H 0.91309 0.43109 0.03007 0.0
H435 H 0.8895 0.39121 0.05841 0.0
H436 H 0.94736 0.43151 0.99611 0.0
H437 H 0.96685 0.50115 0.05508 0.0
H438 H 0.98713 0.52278 0.08998 0.0
H439 H 0.08705 0.55315 0.07137 0.0
H440 H 0.06729 0.53126 0.03641 0.0
H441 H 0.99588 0.57013 0.93004 0.0
H442 H 0.97264 0.53063 0.95856 0.0
H443 H 0.0706 0.54833 0.97377 0.0
H444 H 0.09412 0.58807 0.94536 0.0
H445 H 0.0364 0.54818 0.0079 0.0
H446 H 0.01682 0.47848 0.94892 0.0
H447 H 0.99647 0.45684 0.91403 0.0
H448 H 0.8966 0.42661 0.9327 0.0
H449 H 0.91643 0.44851 0.96765 0.0
C450 C 0.97117 0.41405 0.0646 0.0
C451 C 0.93679 0.39735 0.06854 0.0
C452 C 0.98457 0.43679 0.04839 0.0
C453 C 0.96387 0.44336 0.03587 0.0
C454 C 0.9295 0.42641 0.03958 0.0
C455 C 0.91608 0.4037 0.05581 0.0
C456 C 0.97806 0.46779 0.01882 0.0
C457 C 0.96651 0.45714 0.99872 0.0
C458 C 0.00357 0.50101 0.02218 0.0
C459 C 0.01553 0.51425 0.04318 0.0
C460 C 0.99311 0.51218 0.05847 0.0
C461 C 0.00452 0.52454 0.07825 0.0
C462 C 0.03835 0.53925 0.0829 0.0
C463 C 0.06085 0.5417 0.06775 0.0
C464 C 0.04956 0.52935 0.04795 0.0
C465 C 0.0125 0.56566 0.93945 0.0
C466 C 0.04684 0.58217 0.9354 0.0
C467 C 0.99915 0.54298 0.9557 0.0
C468 C 0.01986 0.53631 0.96814 0.0
C469 C 0.05419 0.55309 0.96432 0.0
C470 C 0.06756 0.57572 0.94804 0.0
C471 C 0.00569 0.51189 0.9852 0.0
C472 C 0.01725 0.52254 0.0053 0.0
C473 C 0.98018 0.47867 0.98183 0.0
C474 C 0.96817 0.46545 0.96084 0.0
C475 C 0.99056 0.46748 0.94554 0.0
C476 C 0.97911 0.45511 0.92576 0.0
C477 C 0.94527 0.44044 0.92114 0.0
C478 C 0.92281 0.43803 0.9363 0.0
C479 C 0.93413 0.45039 0.9561 0.0
H480 H 0.93645 0.43087 0.90582 0.0
H481 H 0.04713 0.5488 0.09823 0.0
H482 H 0.43031 0.38209 0.90552 0.0
H483 H 0.46448 0.4039 0.93655 0.0
H484 H 0.40477 0.44606 0.95633 0.0
H485 H 0.3705 0.42439 0.92538 0.0
H486 H 0.47203 0.49082 0.95815 0.0
H487 H 0.39662 0.37831 0.9798 0.0
H488 H 0.36789 0.3172 0.97699 0.0
H489 H 0.46182 0.32021 0.97798 0.0
H490 H 0.49114 0.38142 0.98051 0.0
H491 H 0.53442 0.53928 0.05883 0.0
H492 H 0.49829 0.51306 0.02917 0.0
H493 H 0.55234 0.46242 0.01463 0.0
H494 H 0.58796 0.4878 0.04471 0.0
H495 H 0.48857 0.42151 0.0097 0.0
H496 H 0.56463 0.5323 0.98756 0.0
H497 H 0.59529 0.59355 0.98937 0.0
H498 H 0.50324 0.59431 0.98772 0.0
H499 H 0.47199 0.53301 0.98618 0.0
C500 C 0.42428 0.39578 0.91655 0.0
C501 C 0.39769 0.40152 0.91298 0.0
C502 C 0.44377 0.40813 0.9343 0.0
C503 C 0.43705 0.42647 0.94878 0.0
C504 C 0.41036 0.43197 0.94534 0.0
C505 C 0.39074 0.41946 0.92768 0.0
C506 C 0.45858 0.44101 0.96712 0.0
C507 C 0.4753 0.47566 0.9696 0.0
C508 C 0.46369 0.42127 0.98163 0.0
C509 C 0.44608 0.38447 0.98013 0.0
C510 C 0.41116 0.36597 0.97923 0.0
C511 C 0.39477 0.3313 0.97773 0.0
C512 C 0.41302 0.31484 0.97725 0.0
C513 C 0.44771 0.333 0.97833 0.0
C514 C 0.46423 0.36767 0.97981 0.0
C515 C 0.53861 0.52253 0.04934 0.0
C516 C 0.56417 0.51575 0.05405 0.0
C517 C 0.51802 0.50766 0.03232 0.0
C518 C 0.52295 0.4862 0.01943 0.0
C519 C 0.54811 0.47895 0.02431 0.0
C520 C 0.5685 0.49354 0.04148 0.0
C521 C 0.50189 0.4714 0.00086 0.0
C522 C 0.48533 0.43673 0.99829 0.0
C523 C 0.49724 0.49116 0.98608 0.0
C524 C 0.51596 0.52804 0.98696 0.0
C525 C 0.55091 0.54552 0.98774 0.0
C526 C 0.5684 0.58024 0.98869 0.0
C527 C 0.55122 0.59781 0.98872 0.0
C528 C 0.51651 0.58067 0.98773 0.0
C529 C 0.4989 0.54594 0.9868 0.0
H530 H 0.56481 0.62469 0.98945 0.0
H531 H 0.40028 0.288 0.97609 0.0
H532 H 0.46217 0.99099 0.06331 0.0
H533 H 0.49018 0.98447 0.03326 0.0
H534 H 0.5372 0.08975 0.02128 0.0
H535 H 0.50934 0.09656 0.05136 0.0
H536 H 0.50935 0.05084 0.98624 0.0
H537 H 0.58204 0.06014 0.04177 0.0
H538 H 0.59591 0.0457 0.07547 0.0
H539 H 0.56112 0.94589 0.05459 0.0
H540 H 0.5466 0.95962 0.02084 0.0
H541 H 0.62284 0.05809 0.91067 0.0
H542 H 0.59845 0.06747 0.94152 0.0
H543 H 0.56016 0.96534 0.95974 0.0
H544 H 0.58528 0.95604 0.92924 0.0
H545 H 0.58452 0.00408 0.99197 0.0
H546 H 0.51004 0.99273 0.93735 0.0
H547 H 0.49385 0.00507 0.90375 0.0
H548 H 0.52902 0.10583 0.92277 0.0
H549 H 0.54583 0.0942 0.9564 0.0
C550 C 0.47851 0.01278 0.05431 0.0
C551 C 0.4836 0.04431 0.05974 0.0
C552 C 0.49457 0.00902 0.03719 0.0
C553 C 0.51593 0.03667 0.02516 0.0
C554 C 0.52084 0.06812 0.03041 0.0
C555 C 0.50499 0.07196 0.04763 0.0
C556 C 0.53285 0.03266 0.00695 0.0
C557 C 0.52619 0.04109 0.98748 0.0
C558 C 0.55407 0.01909 0.0086 0.0
C559 C 0.56295 0.01083 0.02884 0.0
C560 C 0.5771 0.03504 0.04441 0.0
C561 C 0.58512 0.027 0.06352 0.0
C562 C 0.57932 0.99488 0.06718 0.0
C563 C 0.56557 0.97075 0.05173 0.0
C564 C 0.55747 0.97866 0.03261 0.0
C565 C 0.60929 0.03764 0.92127 0.0
C566 C 0.60588 0.00628 0.91747 0.0
C567 C 0.59522 0.043 0.93885 0.0
C568 C 0.577 0.01697 0.9528 0.0
C569 C 0.57405 0.98579 0.9492 0.0
C570 C 0.58838 0.9805 0.93172 0.0
C571 C 0.56098 0.02215 0.97114 0.0
C572 C 0.56777 0.01393 0.99067 0.0
C573 C 0.5396 0.03561 0.96952 0.0
C574 C 0.52952 0.04268 0.94931 0.0
C575 C 0.51457 0.01759 0.93431 0.0
C576 C 0.50523 0.02445 0.91527 0.0
C577 C 0.51049 0.05624 0.9111 0.0
C578 C 0.52501 0.08123 0.926 0.0
C579 C 0.53443 0.07451 0.94506 0.0
H580 H 0.50323 0.0615 0.89636 0.0
H581 H 0.58555 0.9887 0.08198 0.0
H582 H 0.42595 0.04256 0.59332 0.0
H583 H 0.46027 0.05644 0.56225 0.0
H584 H 0.40924 0.95303 0.54465 0.0
H585 H 0.37472 0.93893 0.57559 0.0
H586 H 0.47828 0.9828 0.54311 0.0
H587 H 0.39292 0.00484 0.51941 0.0
H588 H 0.35773 0.03069 0.52078 0.0
H589 H 0.44464 0.12771 0.51786 0.0
H590 H 0.48039 0.10244 0.51676 0.0
H591 H 0.5423 0.9982 0.44264 0.0
H592 H 0.50539 0.98578 0.4722 0.0
H593 H 0.54863 0.09072 0.48442 0.0
H594 H 0.58502 0.10336 0.45449 0.0
H595 H 0.48375 0.06092 0.48903 0.0
H596 H 0.56948 0.04106 0.51322 0.0
H597 H 0.60637 0.0171 0.51279 0.0
H598 H 0.52158 0.91871 0.51625 0.0
H599 H 0.48414 0.94208 0.51643 0.0
C600 C 0.42185 0.0228 0.58276 0.0
C601 C 0.39761 0.98964 0.58692 0.0
C602 C 0.44142 0.0308 0.56499 0.0
C603 C 0.43719 0.00577 0.55114 0.0
C604 C 0.41287 0.9727 0.55517 0.0
C605 C 0.39309 0.96472 0.57281 0.0
C606 C 0.45892 0.01387 0.5328 0.0
C607 C 0.47917 0.99951 0.53112 0.0
C608 C 0.4608 0.03651 0.51756 0.0
C609 C 0.43934 0.05175 0.51822 0.0
C610 C 0.40455 0.03169 0.51925 0.0
C611 C 0.3845 0.04624 0.51994 0.0
C612 C 0.39895 0.08082 0.51947 0.0
C613 C 0.43348 0.10093 0.51825 0.0
C614 C 0.45365 0.08651 0.51758 0.0
C615 C 0.54395 0.01865 0.4516 0.0
C616 C 0.56671 0.05177 0.44628 0.0
C617 C 0.52292 0.01151 0.46856 0.0
C618 C 0.52459 0.0373 0.48076 0.0
C619 C 0.54693 0.07041 0.47528 0.0
C620 C 0.56778 0.07759 0.45819 0.0
C621 C 0.50307 0.02969 0.49922 0.0
C622 C 0.48291 0.04419 0.50099 0.0
C623 C 0.50155 0.00747 0.5147 0.0
C624 C 0.52399 0.99332 0.51464 0.0
C625 C 0.55869 0.01431 0.51373 0.0
C626 C 0.5797 0.00083 0.51356 0.0
C627 C 0.56632 0.9664 0.51443 0.0
C628 C 0.5319 0.94537 0.51554 0.0
C629 C 0.51078 0.95872 0.5157 0.0
H630 H 0.58263 0.95602 0.5143 0.0
H631 H 0.38338 0.09204 0.51999 0.0
H632 H 0.99514 0.41895 0.5653 0.0
H633 H 0.97327 0.43703 0.53696 0.0
H634 H 0.07203 0.5178 0.52395 0.0
H635 H 0.09406 0.50017 0.55246 0.0
H636 H 0.02764 0.53875 0.52418 0.0
H637 H 0.0355 0.44905 0.4932 0.0
H638 H 0.02577 0.39191 0.49039 0.0
H639 H 0.92032 0.35354 0.48897 0.0
H640 H 0.92941 0.41046 0.49206 0.0
H641 H 0.99413 0.58411 0.42647 0.0
H642 H 0.01585 0.56536 0.45453 0.0
H643 H 0.91694 0.48465 0.46726 0.0
H644 H 0.89505 0.50296 0.43901 0.0
H645 H 0.96122 0.46352 0.46719 0.0
H646 H 0.9532 0.553 0.49822 0.0
H647 H 0.96273 0.61006 0.50112 0.0
H648 H 0.06823 0.64874 0.50257 0.0
H649 H 0.05934 0.59191 0.4994 0.0
C650 C 0.01225 0.44048 0.55636 0.0
C651 C 0.04636 0.4581 0.56111 0.0
C652 C 0.99972 0.45071 0.54011 0.0
C653 C 0.02108 0.47858 0.52821 0.0
C654 C 0.05512 0.49621 0.53293 0.0
C655 C 0.06768 0.48604 0.54919 0.0
C656 C 0.00781 0.48979 0.51113 0.0
C657 C 0.01352 0.52245 0.51156 0.0
C658 C 0.98867 0.46824 0.49496 0.0
C659 C 0.98314 0.434 0.49307 0.0
C660 C 0.01023 0.42841 0.49246 0.0
C661 C 0.00483 0.39606 0.49078 0.0
C662 C 0.97245 0.3691 0.48956 0.0
C663 C 0.94539 0.37444 0.48995 0.0
C664 C 0.95065 0.40674 0.49164 0.0
C665 C 0.97696 0.56242 0.43527 0.0
C666 C 0.94284 0.54508 0.43055 0.0
C667 C 0.98941 0.5518 0.45135 0.0
C668 C 0.96796 0.52381 0.46313 0.0
C669 C 0.93392 0.50634 0.45838 0.0
C670 C 0.92145 0.5169 0.44227 0.0
C671 C 0.9811 0.5125 0.48023 0.0
C672 C 0.97535 0.47982 0.47981 0.0
C673 C 0.00019 0.53401 0.49642 0.0
C674 C 0.0056 0.56821 0.49837 0.0
C675 C 0.97844 0.57369 0.49899 0.0
C676 C 0.98372 0.60599 0.50071 0.0
C677 C 0.01607 0.63302 0.50197 0.0
C678 C 0.04319 0.62778 0.50157 0.0
C679 C 0.03804 0.59553 0.49982 0.0
H680 H 0.02011 0.658 0.50331 0.0
H681 H 0.96832 0.34408 0.48826 0.0
H682 H 0.50653 0.40958 0.44734 0.0
H683 H 0.53307 0.4446 0.47749 0.0
H684 H 0.47958 0.49689 0.46656 0.0
H685 H 0.45289 0.46198 0.4364 0.0
H686 H 0.54665 0.53913 0.47472 0.0
H687 H 0.45431 0.44092 0.50382 0.0
H688 H 0.4194 0.38069 0.51004 0.0
H689 H 0.50281 0.37833 0.53672 0.0
H690 H 0.53835 0.43851 0.53039 0.0
H691 H 0.57456 0.62352 0.56978 0.0
H692 H 0.55016 0.58879 0.53934 0.0
H693 H 0.59496 0.53007 0.55613 0.0
H694 H 0.61865 0.56416 0.58698 0.0
H695 H 0.53345 0.4908 0.54461 0.0
H696 H 0.62599 0.58822 0.51627 0.0
H697 H 0.66213 0.6482 0.50971 0.0
H698 H 0.58071 0.65202 0.48114 0.0
H699 H 0.54394 0.59213 0.48778 0.0
C700 C 0.50041 0.42853 0.45134 0.0
C701 C 0.47754 0.43295 0.43951 0.0
C702 C 0.51551 0.44843 0.46861 0.0
C703 C 0.5081 0.47315 0.47432 0.0
C704 C 0.48561 0.47791 0.4624 0.0
C705 C 0.4703 0.45787 0.44523 0.0
C706 C 0.52386 0.49416 0.49269 0.0
C707 C 0.54348 0.52867 0.49005 0.0
C708 C 0.52043 0.48031 0.51257 0.0
C709 C 0.49907 0.44415 0.51643 0.0
C710 C 0.46528 0.42751 0.51085 0.0
C711 C 0.44536 0.39338 0.51443 0.0
C712 C 0.4589 0.37567 0.52372 0.0
C713 C 0.49237 0.39207 0.5295 0.0
C714 C 0.5124 0.42619 0.52593 0.0
C715 C 0.57935 0.60331 0.56695 0.0
C716 C 0.59863 0.59666 0.58076 0.0
C717 C 0.5655 0.58354 0.54948 0.0
C718 C 0.57111 0.55708 0.54525 0.0
C719 C 0.59032 0.55037 0.55904 0.0
C720 C 0.60392 0.56993 0.57664 0.0
C721 C 0.55629 0.53595 0.52672 0.0
C722 C 0.5368 0.50137 0.5293 0.0
C723 C 0.56008 0.54973 0.50675 0.0
C724 C 0.58214 0.58575 0.5027 0.0
C725 C 0.61572 0.6019 0.50873 0.0
C726 C 0.63633 0.63587 0.50497 0.0
C727 C 0.6237 0.65393 0.49506 0.0
C728 C 0.59045 0.63802 0.48884 0.0
C729 C 0.56972 0.60405 0.49258 0.0
H730 H 0.6397 0.68022 0.49216 0.0
H731 H 0.44344 0.34926 0.52648 0.0
H732 H 0.89516 0.54006 0.30752 0.0
H733 H 0.89627 0.50984 0.27696 0.0
H734 H 0.98196 0.50801 0.30118 0.0
H735 H 0.98187 0.53985 0.33124 0.0
H736 H 0.98958 0.51548 0.26252 0.0
H737 H 0.89963 0.43911 0.30421 0.0
H738 H 0.84847 0.41738 0.32497 0.0
H739 H 0.79462 0.41984 0.27185 0.0
H740 H 0.84559 0.44202 0.25083 0.0
H741 H 0.96312 0.38104 0.19549 0.0
H742 H 0.9676 0.41339 0.22631 0.0
H743 H 0.89731 0.43821 0.20027 0.0
H744 H 0.89342 0.40664 0.16918 0.0
H745 H 0.88364 0.41672 0.24097 0.0
H746 H 0.97957 0.49542 0.20025 0.0
H747 H 0.0313 0.51095 0.1812 0.0
H748 H 0.07453 0.49602 0.23576 0.0
H749 H 0.02293 0.48017 0.25509 0.0
C750 C 0.91441 0.53347 0.30616 0.0
C751 C 0.93848 0.5423 0.32163 0.0
C752 C 0.91491 0.51598 0.28879 0.0
C753 C 0.93869 0.50581 0.28696 0.0
C754 C 0.96332 0.51545 0.30221 0.0
C755 C 0.96331 0.53371 0.31935 0.0
C756 C 0.93734 0.48458 0.26937 0.0
C757 C 0.96645 0.49367 0.25802 0.0
C758 C 0.90728 0.4559 0.26342 0.0
C759 C 0.87652 0.44252 0.27599 0.0
C760 C 0.87694 0.43524 0.29699 0.0
C761 C 0.84796 0.42281 0.3088 0.0
C762 C 0.81833 0.41731 0.29975 0.0
C763 C 0.8176 0.42415 0.27885 0.0
C764 C 0.84651 0.43662 0.26697 0.0
C765 C 0.9494 0.39419 0.19606 0.0
C766 C 0.92877 0.39223 0.17964 0.0
C767 C 0.95166 0.41231 0.21379 0.0
C768 C 0.93316 0.42859 0.21542 0.0
C769 C 0.91191 0.42596 0.19926 0.0
C770 C 0.90974 0.40794 0.18153 0.0
C771 C 0.93554 0.44815 0.23402 0.0
C772 C 0.90666 0.43857 0.24558 0.0
C773 C 0.96595 0.4757 0.24049 0.0
C774 C 0.99736 0.48645 0.22907 0.0
C775 C 0.0001 0.49542 0.20816 0.0
C776 C 0.02939 0.50428 0.19732 0.0
C777 C 0.05617 0.50444 0.20726 0.0
C778 C 0.05379 0.49594 0.22809 0.0
C779 C 0.02455 0.48708 0.23901 0.0
H780 H 0.07878 0.51117 0.19882 0.0
H781 H 0.79593 0.40768 0.30891 0.0
H782 H 0.40971 0.39371 0.30384 0.0
H783 H 0.43559 0.42165 0.27141 0.0
H784 H 0.5283 0.48251 0.30317 0.0
H785 H 0.50241 0.45493 0.33571 0.0
H786 H 0.51215 0.51851 0.27522 0.0
H787 H 0.51996 0.41876 0.27748 0.0
H788 H 0.49777 0.35837 0.28079 0.0
H789 H 0.43527 0.34079 0.22804 0.0
H790 H 0.45678 0.4011 0.2246 0.0
H791 H 0.60725 0.51914 0.17549 0.0
H792 H 0.58155 0.49611 0.20888 0.0
H793 H 0.51812 0.5387 0.2018 0.0
H794 H 0.54377 0.56173 0.16842 0.0
H795 H 0.51997 0.45186 0.21801 0.0
H796 H 0.49782 0.55524 0.24874 0.0
H797 H 0.52229 0.61612 0.24719 0.0
H798 H 0.61857 0.62777 0.23561 0.0
H799 H 0.59464 0.56688 0.23704 0.0
C800 C 0.43536 0.41357 0.30399 0.0
C801 C 0.45392 0.42256 0.32233 0.0
C802 C 0.45021 0.42924 0.28543 0.0
C803 C 0.48385 0.45412 0.28492 0.0
C804 C 0.50228 0.46348 0.30327 0.0
C805 C 0.48753 0.44761 0.32179 0.0
C806 C 0.50023 0.4696 0.26517 0.0
C807 C 0.51381 0.50398 0.26265 0.0
C808 C 0.50261 0.45063 0.24891 0.0
C809 C 0.48972 0.41439 0.25092 0.0
C810 C 0.50128 0.40199 0.2667 0.0
C811 C 0.48886 0.36778 0.26858 0.0
C812 C 0.46505 0.34575 0.25467 0.0
C813 C 0.45367 0.35789 0.23882 0.0
C814 C 0.46598 0.39207 0.23689 0.0
C815 C 0.58798 0.52377 0.18115 0.0
C816 C 0.57805 0.54289 0.1696 0.0
C817 C 0.5733 0.5106 0.2002 0.0
C818 C 0.54825 0.51609 0.20801 0.0
C819 C 0.53801 0.53487 0.19637 0.0
C820 C 0.55284 0.54821 0.17734 0.0
C821 C 0.53202 0.50095 0.22794 0.0
C822 C 0.51827 0.4665 0.23048 0.0
C823 C 0.52974 0.51995 0.24427 0.0
C824 C 0.54439 0.55652 0.24289 0.0
C825 C 0.52422 0.5708 0.24586 0.0
C826 C 0.53799 0.6053 0.24501 0.0
C827 C 0.57198 0.6258 0.2414 0.0
C828 C 0.59223 0.61183 0.2384 0.0
C829 C 0.57855 0.57732 0.23914 0.0
H830 H 0.58261 0.65249 0.24103 0.0
H831 H 0.45548 0.31928 0.25614 0.0
H832 H 0.43214 0.97759 0.18001 0.0
H833 H 0.45708 0.97728 0.21314 0.0
H834 H 0.51559 0.08439 0.21161 0.0
H835 H 0.49024 0.08484 0.17868 0.0
H836 H 0.55286 0.05732 0.22169 0.0
H837 H 0.44702 0.04326 0.24159 0.0
H838 H 0.38595 0.01673 0.24269 0.0
H839 H 0.37909 0.928 0.26783 0.0
H840 H 0.44003 0.95347 0.26612 0.0
H841 H 0.6066 0.09415 0.32539 0.0
H842 H 0.57967 0.08913 0.29209 0.0
H843 H 0.52912 0.98221 0.29704 0.0
H844 H 0.55557 0.98713 0.33053 0.0
H845 H 0.48745 0.00578 0.28507 0.0
H846 H 0.59221 0.01876 0.26493 0.0
H847 H 0.65328 0.04485 0.26446 0.0
H848 H 0.66175 0.13513 0.24081 0.0
H849 H 0.6007 0.10973 0.24142 0.0
C850 C 0.44956 0.0011 0.18701 0.0
C851 C 0.45851 0.0313 0.17703 0.0
C852 C 0.46409 0.00087 0.20584 0.0
C853 C 0.48788 0.03085 0.21499 0.0
C854 C 0.49721 0.06097 0.20487 0.0
C855 C 0.48269 0.0612 0.18607 0.0
C856 C 0.50372 0.03096 0.23486 0.0
C857 C 0.53854 0.04635 0.23559 0.0
C858 C 0.48496 0.01576 0.25287 0.0
C859 C 0.44816 0.00015 0.25343 0.0
C860 C 0.43249 0.01788 0.24702 0.0
C861 C 0.39786 0.00302 0.24776 0.0
C862 C 0.37861 0.9706 0.25519 0.0
C863 C 0.39398 0.953 0.26191 0.0
C864 C 0.42856 0.9676 0.261 0.0
C865 C 0.58984 0.06959 0.31932 0.0
C866 C 0.58374 0.04102 0.3303 0.0
C867 C 0.5746 0.06675 0.30029 0.0
C868 C 0.55276 0.03529 0.29199 0.0
C869 C 0.54614 0.0067 0.3031 0.0
C870 C 0.5616 0.00954 0.32208 0.0
C871 C 0.53646 0.03242 0.27187 0.0
C872 C 0.50165 0.01653 0.2711 0.0
C873 C 0.55514 0.04705 0.2538 0.0
C874 C 0.59188 0.06243 0.2534 0.0
C875 C 0.6071 0.04427 0.2598 0.0
C876 C 0.64171 0.05892 0.25947 0.0
C877 C 0.66139 0.09165 0.25266 0.0
C878 C 0.64648 0.10979 0.24611 0.0
C879 C 0.61186 0.09526 0.24642 0.0
H880 H 0.68819 0.10295 0.25242 0.0
H881 H 0.35181 0.95916 0.2558 0.0
H882 H 0.11178 0.61799 0.81727 0.0
H883 H 0.10719 0.5875 0.78545 0.0
H884 H 0.0005 0.54318 0.78706 0.0
H885 H 0.00498 0.57399 0.81879 0.0
H886 H 0.02817 0.49769 0.78066 0.0
H887 H 0.03152 0.5953 0.75368 0.0
H888 H 0.05333 0.6556 0.75036 0.0
H889 H 0.14717 0.66921 0.72966 0.0
H890 H 0.12604 0.60899 0.73316 0.0
H891 H 0.00672 0.42509 0.68102 0.0
H892 H 0.00276 0.45409 0.71139 0.0
H893 H 0.10777 0.52497 0.70703 0.0
H894 H 0.11159 0.49625 0.67642 0.0
H895 H 0.07549 0.55623 0.71459 0.0
H896 H 0.0743 0.46004 0.74364 0.0
H897 H 0.05412 0.40018 0.74811 0.0
H898 H 0.95785 0.3838 0.76545 0.0
H899 H 0.97739 0.44359 0.76091 0.0
C900 C 0.08739 0.60188 0.81076 0.0
C901 C 0.05877 0.59869 0.82024 0.0
C902 C 0.0848 0.58455 0.79263 0.0
C903 C 0.05353 0.56328 0.78395 0.0
C904 C 0.02484 0.55962 0.79354 0.0
C905 C 0.02746 0.57746 0.81149 0.0
C906 C 0.05111 0.54477 0.7649 0.0
C907 C 0.03794 0.51028 0.76608 0.0
C908 C 0.06451 0.56148 0.74611 0.0
C909 C 0.0773 0.59768 0.74389 0.0
C910 C 0.05691 0.6112 0.74861 0.0
C911 C 0.06913 0.64535 0.74666 0.0
C912 C 0.10165 0.66624 0.73985 0.0
C913 C 0.122 0.653 0.73495 0.0
C914 C 0.1099 0.61885 0.7369 0.0
C915 C 0.02905 0.44647 0.6868 0.0
C916 C 0.05964 0.458 0.67673 0.0
C917 C 0.02674 0.46314 0.70409 0.0
C918 C 0.0551 0.49139 0.71174 0.0
C919 C 0.08557 0.50318 0.70146 0.0
C920 C 0.08778 0.48674 0.68403 0.0
C921 C 0.05308 0.50899 0.73031 0.0
C922 C 0.06543 0.54341 0.72907 0.0
C923 C 0.03908 0.49218 0.74908 0.0
C924 C 0.02724 0.45624 0.75179 0.0
C925 C 0.04877 0.44364 0.74828 0.0
C926 C 0.03747 0.40975 0.75087 0.0
C927 C 0.00476 0.38824 0.7571 0.0
C928 C 0.98322 0.40054 0.76068 0.0
C929 C 0.9944 0.43443 0.75813 0.0
H930 H 0.99614 0.36207 0.7592 0.0
H931 H 0.11108 0.69268 0.73834 0.0
H932 H 0.53247 0.60118 0.67184 0.0
H933 H 0.48823 0.5734 0.69725 0.0
H934 H 0.55294 0.63912 0.74458 0.0
H935 H 0.5975 0.66684 0.71933 0.0
H936 H 0.52836 0.57582 0.755 0.0
H937 H 0.48317 0.64125 0.73015 0.0
H938 H 0.46363 0.66651 0.70431 0.0
H939 H 0.38792 0.5695 0.68469 0.0
H940 H 0.4073 0.5436 0.71021 0.0
H941 H 0.40646 0.4837 0.82912 0.0
H942 H 0.44244 0.53258 0.8083 0.0
H943 H 0.39127 0.47951 0.75329 0.0
H944 H 0.35474 0.43089 0.77396 0.0
H945 H 0.40956 0.54435 0.75016 0.0
H946 H 0.46127 0.47998 0.76971 0.0
H947 H 0.48112 0.45333 0.79437 0.0
H948 H 0.54519 0.54795 0.82261 0.0
H949 H 0.52536 0.5751 0.79825 0.0
C950 C 0.53711 0.61022 0.68756 0.0
C951 C 0.56867 0.63599 0.69358 0.0
C952 C 0.51169 0.59442 0.70206 0.0
C953 C 0.51724 0.60424 0.72282 0.0
C954 C 0.54813 0.63115 0.72865 0.0
C955 C 0.57357 0.64695 0.71417 0.0
C956 C 0.49246 0.58376 0.73873 0.0
C957 C 0.50256 0.56967 0.75424 0.0
C958 C 0.45863 0.57503 0.73743 0.0
C959 C 0.44686 0.59048 0.72203 0.0
C960 C 0.46252 0.62528 0.72022 0.0
C961 C 0.45144 0.63972 0.70565 0.0
C962 C 0.42459 0.61962 0.69285 0.0
C963 C 0.40873 0.58504 0.69462 0.0
C964 C 0.41972 0.57046 0.70916 0.0
C965 C 0.40242 0.48263 0.81264 0.0
C966 C 0.37807 0.45319 0.80317 0.0
C967 C 0.42304 0.51058 0.80076 0.0
C968 C 0.41995 0.50944 0.77921 0.0
C969 C 0.39416 0.48092 0.76989 0.0
C970 C 0.37339 0.45306 0.78175 0.0
C971 C 0.44552 0.53626 0.76616 0.0
C972 C 0.43555 0.55127 0.75115 0.0
C973 C 0.47953 0.54574 0.76776 0.0
C974 C 0.49154 0.52948 0.78235 0.0
C975 C 0.4794 0.49505 0.78128 0.0
C976 C 0.49067 0.47986 0.79518 0.0
C977 C 0.51432 0.49892 0.81009 0.0
C978 C 0.52682 0.53322 0.81108 0.0
C979 C 0.51558 0.54851 0.79724 0.0
H980 H 0.52302 0.48712 0.82084 0.0
H981 H 0.41604 0.63085 0.68157 0.0
H982 H 0.59912 0.92376 0.78143 0.0
H983 H 0.55395 0.90611 0.7565 0.0
H984 H 0.49307 0.91649 0.80274 0.0
H985 H 0.53793 0.93388 0.82785 0.0
H986 H 0.45614 0.86312 0.77605 0.0
H987 H 0.53937 0.98044 0.77249 0.0
H988 H 0.59654 0.0275 0.76867 0.0
H989 H 0.60397 0.99116 0.70921 0.0
H990 H 0.54696 0.94359 0.71283 0.0
H991 H 0.35629 0.91617 0.72582 0.0
H992 H 0.39286 0.90422 0.74642 0.0
H993 H 0.44598 0.90539 0.69159 0.0
H994 H 0.40987 0.91821 0.67083 0.0
H995 H 0.48745 0.94496 0.71926 0.0
H996 H 0.39946 0.83294 0.72024 0.0
H997 H 0.34199 0.78658 0.72419 0.0
H998 H 0.34241 0.81213 0.78781 0.0
H999 H 0.39972 0.85896 0.78419 0.0
C1000 C 0.57588 0.9216 0.78646 0.0
C1001 C 0.57234 0.93078 0.80656 0.0
C1002 C 0.5501 0.9115 0.77217 0.0
C1003 C 0.52041 0.91052 0.77771 0.0
C1004 C 0.51583 0.91714 0.79816 0.0
C1005 C 0.54159 0.92726 0.81247 0.0
C1006 C 0.49592 0.90672 0.76178 0.0
C1007 C 0.46283 0.88094 0.76361 0.0
C1008 C 0.50495 0.92957 0.74529 0.0
C1009 C 0.5391 0.95827 0.74304 0.0
C1010 C 0.5533 0.98236 0.75868 0.0
C1011 C 0.58565 0.00914 0.75653 0.0
C1012 C 0.60392 0.01226 0.73873 0.0
C1013 C 0.58982 0.98866 0.72301 0.0
C1014 C 0.5575 0.96179 0.72509 0.0
C1015 C 0.37533 0.91326 0.71803 0.0
C1016 C 0.38035 0.91848 0.69667 0.0
C1017 C 0.3961 0.90615 0.72986 0.0
C1018 C 0.42207 0.90366 0.72056 0.0
C1019 C 0.42609 0.90718 0.6991 0.0
C1020 C 0.40541 0.9145 0.68724 0.0
C1021 C 0.44725 0.9015 0.73355 0.0
C1022 C 0.48062 0.92645 0.73129 0.0
C1023 C 0.43836 0.87785 0.74959 0.0
C1024 C 0.40388 0.84962 0.7519 0.0
C1025 C 0.38723 0.82884 0.73504 0.0
C1026 C 0.35468 0.80244 0.73723 0.0
C1027 C 0.33854 0.79645 0.75623 0.0
C1028 C 0.35494 0.8168 0.7731 0.0
C1029 C 0.38749 0.84325 0.771 0.0
H1030 H 0.31334 0.776 0.75789 0.0
H1031 H 0.62896 0.03301 0.7371 0.0
loop_
_geom_bond_atom_site_label_1
_geom_bond_atom_site_label_2
_geom_bond_distance
_geom_bond_site_symmetry_2
_ccdc_geom_bond_type
O0 Cd1 2.300 1_655 S
O0 C7 1.275 . S
Cd1 O0 2.300 1_455 S
Cd1 O9 2.381 1_455 S
Cd1 O10 2.378 . S
O2 Cd3 2.385 . S
O2 C7 1.255 1_455 S
Cd3 O2 2.385 . S
Cd3 O4 2.317 . S
O4 Cd3 2.317 . S
O4 C5 1.232 . S
C5 O4 1.232 . S
C5 O6 1.218 . S
O6 C5 1.218 . S
C7 O0 1.275 . S
C7 O2 1.255 1_655 S
C8 O9 1.258 . S
C8 O10 1.256 1_655 S
O9 Cd1 2.381 1_655 S
O9 C8 1.258 . S
O10 Cd1 2.378 . S
O10 C8 1.256 1_455 S
O11 Cd12 2.300 . S
O11 C18 1.275 . S
Cd12 O11 2.300 . S
Cd12 O20 2.381 . S
Cd12 O21 2.378 . S
O13 Cd14 2.385 . S
O13 C18 1.255 . S
Cd14 O13 2.385 . S
Cd14 O15 2.317 . S
O15 Cd14 2.317 . S
O15 C16 1.232 . S
C16 O15 1.232 . S
C16 O17 1.218 . S
O17 C16 1.218 . S
C18 O11 1.275 . S
C18 O13 1.255 . S
C19 O20 1.258 . S
C19 O21 1.256 . S
O20 Cd12 2.381 . S
O20 C19 1.258 . S
O21 Cd12 2.378 . S
O21 C19 1.256 . S
O22 Cd23 2.300 1_545 S
O22 C29 1.275 . S
Cd23 O22 2.300 1_565 S
Cd23 O31 2.381 1_565 S
Cd23 O32 2.378 . S
O24 Cd25 2.385 . S
O24 C29 1.255 1_565 S
Cd25 O24 2.385 . S
Cd25 O26 2.317 . S
O26 Cd25 2.317 . S
O26 C27 1.232 . S
C27 O26 1.232 . S
C27 O28 1.218 . S
O28 C27 1.218 . S
C29 O22 1.275 . S
C29 O24 1.255 1_545 S
C30 O31 1.258 . S
C30 O32 1.256 1_545 S
O31 Cd23 2.381 1_545 S
O31 C30 1.258 . S
O32 Cd23 2.378 . S
O32 C30 1.256 1_565 S
O33 Cd34 2.300 1_545 S
O33 C40 1.275 . S
Cd34 O33 2.300 1_565 S
Cd34 O42 2.381 1_565 S
Cd34 O43 2.378 . S
O35 Cd36 2.385 . S
O35 C40 1.255 1_565 S
Cd36 O35 2.385 . S
Cd36 O37 2.317 . S
O37 Cd36 2.317 . S
O37 C38 1.232 . S
C38 O37 1.232 . S
C38 O39 1.218 . S
O39 C38 1.218 . S
C40 O33 1.275 . S
C40 O35 1.255 1_545 S
C41 O42 1.258 . S
C41 O43 1.256 1_545 S
O42 Cd34 2.381 1_545 S
O42 C41 1.258 . S
O43 Cd34 2.378 . S
O43 C41 1.256 1_565 S
O44 Cd45 2.300 1_655 S
O44 C51 1.275 . S
Cd45 O44 2.300 1_455 S
Cd45 O53 2.381 1_455 S
Cd45 O54 2.378 . S
O46 Cd47 2.385 . S
O46 C51 1.255 1_455 S
Cd47 O46 2.385 . S
Cd47 O48 2.317 . S
O48 Cd47 2.317 . S
O48 C49 1.232 . S
C49 O48 1.232 . S
C49 O50 1.218 . S
O50 C49 1.218 . S
C51 O44 1.275 . S
C51 O46 1.255 1_655 S
C52 O53 1.258 . S
C52 O54 1.256 1_655 S
O53 Cd45 2.381 1_655 S
O53 C52 1.258 . S
O54 Cd45 2.378 . S
O54 C52 1.256 1_455 S
O55 Cd56 2.300 . S
O55 C62 1.275 . S
Cd56 O55 2.300 . S
Cd56 O64 2.381 . S
Cd56 O65 2.378 . S
O57 Cd58 2.385 . S
O57 C62 1.255 . S
Cd58 O57 2.385 . S
Cd58 O59 2.317 . S
O59 Cd58 2.317 . S
O59 C60 1.232 . S
C60 O59 1.232 . S
C60 O61 1.218 . S
O61 C60 1.218 . S
C62 O55 1.275 . S
C62 O57 1.255 . S
C63 O64 1.258 . S
C63 O65 1.256 . S
O64 Cd56 2.381 . S
O64 C63 1.258 . S
O65 Cd56 2.378 . S
O65 C63 1.256 . S
O66 Cd67 2.300 . S
O66 C73 1.275 . S
Cd67 O66 2.300 . S
Cd67 O75 2.381 . S
Cd67 O76 2.378 . S
O68 Cd69 2.385 . S
O68 C73 1.255 . S
Cd69 O68 2.385 . S
Cd69 O70 2.317 1_455 S
O70 Cd69 2.317 1_655 S
O70 C71 1.232 . S
C71 O70 1.232 . S
C71 O72 1.218 . S
O72 C71 1.218 . S
C73 O66 1.275 . S
C73 O68 1.255 . S
C74 O75 1.258 . S
C74 O76 1.256 . S
O75 Cd67 2.381 . S
O75 C74 1.258 . S
O76 Cd67 2.378 . S
O76 C74 1.256 . S
O77 Cd78 2.300 . S
O77 C84 1.275 . S
Cd78 O77 2.300 . S
Cd78 O86 2.381 . S
Cd78 O87 2.378 . S
O79 Cd80 2.385 . S
O79 C84 1.255 . S
Cd80 O79 2.385 . S
Cd80 O81 2.317 . S
O81 Cd80 2.317 . S
O81 C82 1.232 . S
C82 O81 1.232 . S
C82 O83 1.218 . S
O83 C82 1.218 . S
C84 O77 1.275 . S
C84 O79 1.255 . S
C85 O86 1.258 . S
C85 O87 1.256 . S
O86 Cd78 2.381 . S
O86 C85 1.258 . S
O87 Cd78 2.378 . S
O87 C85 1.256 . S
O88 Cd89 2.300 . S
O88 C95 1.275 . S
Cd89 O88 2.300 . S
Cd89 O97 2.381 . S
Cd89 O98 2.378 . S
O90 Cd91 2.385 . S
O90 C95 1.255 . S
Cd91 O90 2.385 . S
Cd91 O92 2.317 1_565 S
O92 Cd91 2.317 1_545 S
O92 C93 1.232 . S
C93 O92 1.232 . S
C93 O94 1.218 . S
O94 C93 1.218 . S
C95 O88 1.275 . S
C95 O90 1.255 . S
C96 O97 1.258 . S
C96 O98 1.256 . S
O97 Cd89 2.381 . S
O97 C96 1.258 . S
O98 Cd89 2.378 . S
O98 C96 1.256 . S
O99 Cd100 2.300 . S
O99 C106 1.275 . S
Cd100 O99 2.300 . S
Cd100 O108 2.381 . S
Cd100 O109 2.378 . S
O101 Cd102 2.385 . S
O101 C106 1.255 . S
Cd102 O101 2.385 . S
Cd102 O103 2.317 1_565 S
O103 Cd102 2.317 1_545 S
O103 C104 1.232 . S
C104 O103 1.232 . S
C104 O105 1.218 . S
O105 C104 1.218 . S
C106 O99 1.275 . S
C106 O101 1.255 . S
C107 O108 1.258 . S
C107 O109 1.256 . S
O108 Cd100 2.381 . S
O108 C107 1.258 . S
O109 Cd100 2.378 . S
O109 C107 1.256 . S
O110 Cd111 2.300 . S
O110 C117 1.275 . S
Cd111 O110 2.300 . S
Cd111 O119 2.381 . S
Cd111 O120 2.378 . S
O112 Cd113 2.385 . S
O112 C117 1.255 . S
Cd113 O112 2.385 . S
Cd113 O114 2.317 1_455 S
O114 Cd113 2.317 1_655 S
O114 C115 1.232 . S
C115 O114 1.232 . S
C115 O116 1.218 . S
O116 C115 1.218 . S
C117 O110 1.275 . S
C117 O112 1.255 . S
C118 O119 1.258 . S
C118 O120 1.256 . S
O119 Cd111 2.381 . S
O119 C118 1.258 . S
O120 Cd111 2.378 . S
O120 C118 1.256 . S
O121 Cd122 2.300 . S
O121 C128 1.275 . S
Cd122 O121 2.300 . S
Cd122 O130 2.381 . S
Cd122 O131 2.378 . S
O123 Cd124 2.385 . S
O123 C128 1.255 . S
Cd124 O123 2.385 . S
Cd124 O125 2.317 . S
O125 Cd124 2.317 . S
O125 C126 1.232 . S
C126 O125 1.232 . S
C126 O127 1.218 . S
O127 C126 1.218 . S
C128 O121 1.275 . S
C128 O123 1.255 . S
C129 O130 1.258 . S
C129 O131 1.256 . S
O130 Cd122 2.381 . S
O130 C129 1.258 . S
O131 Cd122 2.378 . S
O131 C129 1.256 . S
H132 C150 0.951 . S
H133 C152 0.951 . S
H134 C154 0.950 . S
H135 C155 0.950 . S
H136 C157 0.950 . S
H137 C160 0.950 . S
H138 C161 0.950 . S
H139 C163 0.950 . S
H140 C164 0.950 . S
H141 C165 0.951 . S
H142 C167 0.951 . S
H143 C169 0.950 . S
H144 C170 0.950 . S
H145 C172 0.950 . S
H146 C175 0.950 . S
H147 C176 0.950 . S
H148 C178 0.950 . S
H149 C179 0.950 . S
C150 H132 0.951 . S
C150 C151 1.366 . S
C150 C152 1.388 . S
C151 C150 1.366 . S
C151 C155 1.385 . S
C152 H133 0.951 . S
C152 C150 1.388 . S
C152 C153 1.366 . S
C153 C152 1.366 . S
C153 C154 1.414 . S
C153 C156 1.499 . S
C154 H134 0.950 . S
C154 C153 1.414 . S
C154 C155 1.374 . S
C155 H135 0.950 . S
C155 C151 1.385 . S
C155 C154 1.374 . S
C156 C153 1.499 . S
C156 C157 1.373 . S
C156 C158 1.389 . S
C157 H136 0.950 . S
C157 C156 1.373 . S
C157 C173 1.377 . S
C158 C156 1.389 . S
C158 C159 1.524 . S
C158 C172 1.377 . S
C159 C158 1.524 . S
C159 C160 1.397 . S
C159 C164 1.363 . S
C160 H137 0.950 . S
C160 C159 1.397 . S
C160 C161 1.334 . S
C161 H138 0.950 . S
C161 C160 1.334 . S
C161 C162 1.287 . S
C162 C161 1.287 . S
C162 C163 1.524 . S
C162 H181 0.913 . S
C163 H139 0.950 . S
C163 C162 1.524 . S
C163 C164 1.415 . S
C164 H140 0.950 . S
C164 C159 1.363 . S
C164 C163 1.415 . S
C165 H141 0.951 . S
C165 C166 1.366 . S
C165 C167 1.388 . S
C166 C165 1.366 . S
C166 C170 1.385 . S
C167 H142 0.951 . S
C167 C165 1.388 . S
C167 C168 1.366 . S
C168 C167 1.366 . S
C168 C169 1.414 . S
C168 C171 1.499 . S
C169 H143 0.950 . S
C169 C168 1.414 . S
C169 C170 1.374 . S
C170 H144 0.950 . S
C170 C166 1.385 . S
C170 C169 1.374 . S
C171 C168 1.499 . S
C171 C172 1.373 . S
C171 C173 1.389 . S
C172 H145 0.950 . S
C172 C158 1.377 . S
C172 C171 1.373 . S
C173 C157 1.377 . S
C173 C171 1.389 . S
C173 C174 1.524 . S
C174 C173 1.524 . S
C174 C175 1.397 . S
C174 C179 1.363 . S
C175 H146 0.950 . S
C175 C174 1.397 . S
C175 C176 1.334 . S
C176 H147 0.950 . S
C176 C175 1.334 . S
C176 C177 1.287 . S
C177 C176 1.287 . S
C177 C178 1.524 . S
C177 H180 0.999 . S
C178 H148 0.950 . S
C178 C177 1.524 . S
C178 C179 1.415 . S
C179 H149 0.950 . S
C179 C174 1.363 . S
C179 C178 1.415 . S
H180 C177 0.999 . S
H181 C162 0.913 . S
H182 C200 0.951 . S
H183 C202 0.951 . S
H184 C204 0.950 . S
H185 C205 0.950 . S
H186 C207 0.950 . S
H187 C210 0.950 . S
H188 C211 0.950 . S
H189 C213 0.950 . S
H190 C214 0.950 . S
H191 C215 0.951 . S
H192 C217 0.951 . S
H193 C219 0.950 . S
H194 C220 0.950 . S
H195 C222 0.950 . S
H196 C225 0.950 . S
H197 C226 0.950 . S
H198 C228 0.950 . S
H199 C229 0.950 . S
C200 H182 0.951 . S
C200 C201 1.366 . S
C200 C202 1.388 . S
C201 C200 1.366 . S
C201 C205 1.385 . S
C202 H183 0.951 . S
C202 C200 1.388 . S
C202 C203 1.366 . S
C203 C202 1.366 . S
C203 C204 1.414 . S
C203 C206 1.499 . S
C204 H184 0.950 . S
C204 C203 1.414 . S
C204 C205 1.374 . S
C205 H185 0.950 . S
C205 C201 1.385 . S
C205 C204 1.374 . S
C206 C203 1.499 . S
C206 C207 1.373 . S
C206 C208 1.389 . S
C207 H186 0.950 . S
C207 C206 1.373 . S
C207 C223 1.377 . S
C208 C206 1.389 . S
C208 C209 1.524 . S
C208 C222 1.377 . S
C209 C208 1.524 . S
C209 C210 1.397 . S
C209 C214 1.363 . S
C210 H187 0.950 . S
C210 C209 1.397 . S
C210 C211 1.334 . S
C211 H188 0.950 . S
C211 C210 1.334 . S
C211 C212 1.287 . S
C212 C211 1.287 . S
C212 C213 1.524 . S
C212 H231 0.913 . S
C213 H189 0.950 . S
C213 C212 1.524 . S
C213 C214 1.415 . S
C214 H190 0.950 . S
C214 C209 1.363 . S
C214 C213 1.415 . S
C215 H191 0.951 . S
C215 C216 1.366 . S
C215 C217 1.388 . S
C216 C215 1.366 . S
C216 C220 1.385 . S
C217 H192 0.951 . S
C217 C215 1.388 . S
C217 C218 1.366 . S
C218 C217 1.366 . S
C218 C219 1.414 . S
C218 C221 1.499 . S
C219 H193 0.950 . S
C219 C218 1.414 . S
C219 C220 1.374 . S
C220 H194 0.950 . S
C220 C216 1.385 . S
C220 C219 1.374 . S
C221 C218 1.499 . S
C221 C222 1.373 . S
C221 C223 1.389 . S
C222 H195 0.950 . S
C222 C208 1.377 . S
C222 C221 1.373 . S
C223 C207 1.377 . S
C223 C221 1.389 . S
C223 C224 1.524 . S
C224 C223 1.524 . S
C224 C225 1.397 . S
C224 C229 1.363 . S
C225 H196 0.950 . S
C225 C224 1.397 . S
C225 C226 1.334 . S
C226 H197 0.950 . S
C226 C225 1.334 . S
C226 C227 1.287 . S
C227 C226 1.287 . S
C227 C228 1.524 . S
C227 H230 0.999 . S
C228 H198 0.950 . S
C228 C227 1.524 . S
C228 C229 1.415 . S
C229 H199 0.950 . S
C229 C224 1.363 . S
C229 C228 1.415 . S
H230 C227 0.999 . S
H231 C212 0.913 . S
H232 C250 0.951 . S
H233 C252 0.951 . S
H234 C254 0.950 . S
H235 C255 0.950 . S
H236 C257 0.950 . S
H237 C260 0.950 . S
H238 C261 0.950 . S
H239 C263 0.950 . S
H240 C264 0.950 . S
H241 C265 0.951 . S
H242 C267 0.951 . S
H243 C269 0.950 . S
H244 C270 0.950 . S
H245 C272 0.950 . S
H246 C275 0.950 . S
H247 C276 0.950 . S
H248 C278 0.950 . S
H249 C279 0.950 . S
C250 H232 0.951 . S
C250 C251 1.366 . S
C250 C252 1.388 . S
C251 C250 1.366 . S
C251 C255 1.385 . S
C252 H233 0.951 . S
C252 C250 1.388 . S
C252 C253 1.366 . S
C253 C252 1.366 . S
C253 C254 1.414 . S
C253 C256 1.499 . S
C254 H234 0.950 . S
C254 C253 1.414 . S
C254 C255 1.374 . S
C255 H235 0.950 . S
C255 C251 1.385 . S
C255 C254 1.374 . S
C256 C253 1.499 . S
C256 C257 1.373 . S
C256 C258 1.389 . S
C257 H236 0.950 . S
C257 C256 1.373 . S
C257 C273 1.377 . S
C258 C256 1.389 . S
C258 C259 1.524 . S
C258 C272 1.377 . S
C259 C258 1.524 . S
C259 C260 1.397 . S
C259 C264 1.363 . S
C260 H237 0.950 . S
C260 C259 1.397 . S
C260 C261 1.334 . S
C261 H238 0.950 . S
C261 C260 1.334 . S
C261 C262 1.287 . S
C262 C261 1.287 . S
C262 C263 1.524 . S
C262 H281 0.913 . S
C263 H239 0.950 . S
C263 C262 1.524 . S
C263 C264 1.415 . S
C264 H240 0.950 . S
C264 C259 1.363 . S
C264 C263 1.415 . S
C265 H241 0.951 . S
C265 C266 1.366 . S
C265 C267 1.388 . S
C266 C265 1.366 . S
C266 C270 1.385 . S
C267 H242 0.951 . S
C267 C265 1.388 . S
C267 C268 1.366 . S
C268 C267 1.366 . S
C268 C269 1.414 . S
C268 C271 1.499 . S
C269 H243 0.950 . S
C269 C268 1.414 . S
C269 C270 1.374 . S
C270 H244 0.950 . S
C270 C266 1.385 . S
C270 C269 1.374 . S
C271 C268 1.499 . S
C271 C272 1.373 . S
C271 C273 1.389 . S
C272 H245 0.950 . S
C272 C258 1.377 . S
C272 C271 1.373 . S
C273 C257 1.377 . S
C273 C271 1.389 . S
C273 C274 1.524 . S
C274 C273 1.524 . S
C274 C275 1.397 . S
C274 C279 1.363 . S
C275 H246 0.950 . S
C275 C274 1.397 . S
C275 C276 1.334 . S
C276 H247 0.950 . S
C276 C275 1.334 . S
C276 C277 1.287 . S
C277 C276 1.287 . S
C277 C278 1.524 . S
C277 H280 0.999 . S
C278 H248 0.950 . S
C278 C277 1.524 . S
C278 C279 1.415 . S
C279 H249 0.950 . S
C279 C274 1.363 . S
C279 C278 1.415 . S
H280 C277 0.999 . S
H281 C262 0.913 . S
H282 C300 0.951 . S
H283 C302 0.951 . S
H284 C304 0.950 . S
H285 C305 0.950 . S
H286 C307 0.950 . S
H287 C310 0.950 . S
H288 C311 0.950 . S
H289 C313 0.950 . S
H290 C314 0.950 . S
H291 C315 0.951 . S
H292 C317 0.951 . S
H293 C319 0.950 . S
H294 C320 0.950 . S
H295 C322 0.950 . S
H296 C325 0.950 . S
H297 C326 0.950 . S
H298 C328 0.950 . S
H299 C329 0.950 . S
C300 H282 0.951 . S
C300 C301 1.366 . S
C300 C302 1.388 . S
C301 C300 1.366 . S
C301 C305 1.385 . S
C302 H283 0.951 . S
C302 C300 1.388 . S
C302 C303 1.366 . S
C303 C302 1.366 . S
C303 C304 1.414 . S
C303 C306 1.499 . S
C304 H284 0.950 . S
C304 C303 1.414 . S
C304 C305 1.374 . S
C305 H285 0.950 . S
C305 C301 1.385 . S
C305 C304 1.374 . S
C306 C303 1.499 . S
C306 C307 1.373 . S
C306 C308 1.389 . S
C307 H286 0.950 . S
C307 C306 1.373 . S
C307 C323 1.377 . S
C308 C306 1.389 . S
C308 C309 1.524 . S
C308 C322 1.377 . S
C309 C308 1.524 . S
C309 C310 1.397 . S
C309 C314 1.363 . S
C310 H287 0.950 . S
C310 C309 1.397 . S
C310 C311 1.334 . S
C311 H288 0.950 . S
C311 C310 1.334 . S
C311 C312 1.287 . S
C312 C311 1.287 . S
C312 C313 1.524 . S
C312 H331 0.913 . S
C313 H289 0.950 . S
C313 C312 1.524 . S
C313 C314 1.415 . S
C314 H290 0.950 . S
C314 C309 1.363 . S
C314 C313 1.415 . S
C315 H291 0.951 . S
C315 C316 1.366 . S
C315 C317 1.388 . S
C316 C315 1.366 . S
C316 C320 1.385 . S
C317 H292 0.951 . S
C317 C315 1.388 . S
C317 C318 1.366 . S
C318 C317 1.366 . S
C318 C319 1.414 . S
C318 C321 1.499 . S
C319 H293 0.950 . S
C319 C318 1.414 . S
C319 C320 1.374 . S
C320 H294 0.950 . S
C320 C316 1.385 . S
C320 C319 1.374 . S
C321 C318 1.499 . S
C321 C322 1.373 . S
C321 C323 1.389 . S
C322 H295 0.950 . S
C322 C308 1.377 . S
C322 C321 1.373 . S
C323 C307 1.377 . S
C323 C321 1.389 . S
C323 C324 1.524 . S
C324 C323 1.524 . S
C324 C325 1.397 . S
C324 C329 1.363 . S
C325 H296 0.950 . S
C325 C324 1.397 . S
C325 C326 1.334 . S
C326 H297 0.950 . S
C326 C325 1.334 . S
C326 C327 1.287 . S
C327 C326 1.287 . S
C327 C328 1.524 . S
C327 H330 0.999 . S
C328 H298 0.950 . S
C328 C327 1.524 . S
C328 C329 1.415 . S
C329 H299 0.950 . S
C329 C324 1.363 . S
C329 C328 1.415 . S
H330 C327 0.999 . S
H331 C312 0.913 . S
H332 C350 0.951 . S
H333 C352 0.951 . S
H334 C354 0.950 . S
H335 C355 0.950 . S
H336 C357 0.950 . S
H337 C360 0.950 . S
H338 C361 0.950 . S
H339 C363 0.950 . S
H340 C364 0.950 . S
H341 C365 0.951 . S
H342 C367 0.951 . S
H343 C369 0.950 . S
H344 C370 0.950 . S
H345 C372 0.950 . S
H346 C375 0.950 . S
H347 C376 0.950 . S
H348 C378 0.950 . S
H349 C379 0.950 . S
C350 H332 0.951 . S
C350 C351 1.366 . S
C350 C352 1.388 . S
C351 C350 1.366 . S
C351 C355 1.385 . S
C352 H333 0.951 . S
C352 C350 1.388 . S
C352 C353 1.366 . S
C353 C352 1.366 . S
C353 C354 1.414 . S
C353 C356 1.499 . S
C354 H334 0.950 . S
C354 C353 1.414 . S
C354 C355 1.374 . S
C355 H335 0.950 . S
C355 C351 1.385 . S
C355 C354 1.374 . S
C356 C353 1.499 . S
C356 C357 1.373 . S
C356 C358 1.389 . S
C357 H336 0.950 . S
C357 C356 1.373 . S
C357 C373 1.377 . S
C358 C356 1.389 . S
C358 C359 1.524 . S
C358 C372 1.377 . S
C359 C358 1.524 . S
C359 C360 1.397 . S
C359 C364 1.363 . S
C360 H337 0.950 . S
C360 C359 1.397 . S
C360 C361 1.334 . S
C361 H338 0.950 . S
C361 C360 1.334 . S
C361 C362 1.287 . S
C362 C361 1.287 . S
C362 C363 1.524 . S
C362 H381 0.913 . S
C363 H339 0.950 . S
C363 C362 1.524 . S
C363 C364 1.415 . S
C364 H340 0.950 . S
C364 C359 1.363 . S
C364 C363 1.415 . S
C365 H341 0.951 . S
C365 C366 1.366 . S
C365 C367 1.388 . S
C366 C365 1.366 . S
C366 C370 1.385 . S
C367 H342 0.951 . S
C367 C365 1.388 . S
C367 C368 1.366 . S
C368 C367 1.366 . S
C368 C369 1.414 . S
C368 C371 1.499 . S
C369 H343 0.950 . S
C369 C368 1.414 . S
C369 C370 1.374 . S
C370 H344 0.950 . S
C370 C366 1.385 . S
C370 C369 1.374 . S
C371 C368 1.499 . S
C371 C372 1.373 . S
C371 C373 1.389 . S
C372 H345 0.950 . S
C372 C358 1.377 . S
C372 C371 1.373 . S
C373 C357 1.377 . S
C373 C371 1.389 . S
C373 C374 1.524 . S
C374 C373 1.524 . S
C374 C375 1.397 . S
C374 C379 1.363 . S
C375 H346 0.950 . S
C375 C374 1.397 . S
C375 C376 1.334 . S
C376 H347 0.950 . S
C376 C375 1.334 . S
C376 C377 1.287 . S
C377 C376 1.287 . S
C377 C378 1.524 . S
C377 H380 0.999 . S
C378 H348 0.950 . S
C378 C377 1.524 . S
C378 C379 1.415 . S
C379 H349 0.950 . S
C379 C374 1.363 . S
C379 C378 1.415 . S
H380 C377 0.999 . S
H381 C362 0.913 . S
H382 C400 0.951 . S
H383 C402 0.951 . S
H384 C404 0.950 . S
H385 C405 0.950 . S
H386 C407 0.950 . S
H387 C410 0.950 . S
H388 C411 0.950 . S
H389 C413 0.950 . S
H390 C414 0.950 . S
H391 C415 0.951 . S
H392 C417 0.951 . S
H393 C419 0.950 . S
H394 C420 0.950 . S
H395 C422 0.950 . S
H396 C425 0.950 . S
H397 C426 0.950 . S
H398 C428 0.950 . S
H399 C429 0.950 . S
C400 H382 0.951 . S
C400 C401 1.366 . S
C400 C402 1.388 . S
C401 C400 1.366 . S
C401 C405 1.385 . S
C402 H383 0.951 . S
C402 C400 1.388 . S
C402 C403 1.366 . S
C403 C402 1.366 . S
C403 C404 1.414 . S
C403 C406 1.499 . S
C404 H384 0.950 . S
C404 C403 1.414 . S
C404 C405 1.374 . S
C405 H385 0.950 . S
C405 C401 1.385 . S
C405 C404 1.374 . S
C406 C403 1.499 . S
C406 C407 1.373 . S
C406 C408 1.389 . S
C407 H386 0.950 . S
C407 C406 1.373 . S
C407 C423 1.377 . S
C408 C406 1.389 . S
C408 C409 1.524 . S
C408 C422 1.377 . S
C409 C408 1.524 . S
C409 C410 1.397 . S
C409 C414 1.363 . S
C410 H387 0.950 . S
C410 C409 1.397 . S
C410 C411 1.334 . S
C411 H388 0.950 . S
C411 C410 1.334 . S
C411 C412 1.287 . S
C412 C411 1.287 . S
C412 C413 1.524 . S
C412 H431 0.913 . S
C413 H389 0.950 . S
C413 C412 1.524 . S
C413 C414 1.415 . S
C414 H390 0.950 . S
C414 C409 1.363 . S
C414 C413 1.415 . S
C415 H391 0.951 . S
C415 C416 1.366 . S
C415 C417 1.388 . S
C416 C415 1.366 . S
C416 C420 1.385 . S
C417 H392 0.951 . S
C417 C415 1.388 . S
C417 C418 1.366 . S
C418 C417 1.366 . S
C418 C419 1.414 . S
C418 C421 1.499 . S
C419 H393 0.950 . S
C419 C418 1.414 . S
C419 C420 1.374 . S
C420 H394 0.950 . S
C420 C416 1.385 . S
C420 C419 1.374 . S
C421 C418 1.499 . S
C421 C422 1.373 . S
C421 C423 1.389 . S
C422 H395 0.950 . S
C422 C408 1.377 . S
C422 C421 1.373 . S
C423 C407 1.377 . S
C423 C421 1.389 . S
C423 C424 1.524 . S
C424 C423 1.524 . S
C424 C425 1.397 . S
C424 C429 1.363 . S
C425 H396 0.950 . S
C425 C424 1.397 . S
C425 C426 1.334 . S
C426 H397 0.950 . S
C426 C425 1.334 . S
C426 C427 1.287 . S
C427 C426 1.287 . S
C427 C428 1.524 . S
C427 H430 0.999 . S
C428 H398 0.950 . S
C428 C427 1.524 . S
C428 C429 1.415 . S
C429 H399 0.950 . S
C429 C424 1.363 . S
C429 C428 1.415 . S
H430 C427 0.999 . S
H431 C412 0.913 . S
H432 C450 0.951 1_455 S
H433 C452 0.951 1_455 S
H434 C454 0.950 . S
H435 C455 0.950 . S
H436 C457 0.950 . S
H437 C460 0.950 . S
H438 C461 0.950 . S
H439 C463 0.950 . S
H440 C464 0.950 . S
H441 C465 0.951 1_655 S
H442 C467 0.951 1_655 S
H443 C469 0.950 . S
H444 C470 0.950 . S
H445 C472 0.950 . S
H446 C475 0.950 . S
H447 C476 0.950 . S
H448 C478 0.950 . S
H449 C479 0.950 . S
C450 H432 0.951 1_655 S
C450 C451 1.366 . S
C450 C452 1.388 . S
C451 C450 1.366 . S
C451 C455 1.385 . S
C452 H433 0.951 1_655 S
C452 C450 1.388 . S
C452 C453 1.366 . S
C453 C452 1.366 . S
C453 C454 1.414 . S
C453 C456 1.499 . S
C454 H434 0.950 . S
C454 C453 1.414 . S
C454 C455 1.374 . S
C455 H435 0.950 . S
C455 C451 1.385 . S
C455 C454 1.374 . S
C456 C453 1.499 . S
C456 C457 1.383 1_655 S
C456 C458 1.389 . S
C457 H436 0.950 . S
C457 C456 1.383 1_455 S
C457 C473 1.367 1_554 S
C458 C456 1.389 . S
C458 C459 1.524 . S
C458 C472 1.367 1_554 S
C459 C458 1.524 . S
C459 C460 1.397 . S
C459 C464 1.363 . S
C460 H437 0.950 . S
C460 C459 1.397 . S
C460 C461 1.334 . S
C461 H438 0.950 . S
C461 C460 1.334 . S
C461 C462 1.287 . S
C462 C461 1.287 . S
C462 C463 1.524 . S
C462 H481 0.913 . S
C463 H439 0.950 . S
C463 C462 1.524 . S
C463 C464 1.415 . S
C464 H440 0.950 . S
C464 C459 1.363 . S
C464 C463 1.415 . S
C465 H441 0.951 1_455 S
C465 C466 1.366 . S
C465 C467 1.388 . S
C466 C465 1.366 . S
C466 C470 1.385 . S
C467 H442 0.951 1_455 S
C467 C465 1.388 . S
C467 C468 1.366 . S
C468 C467 1.366 . S
C468 C469 1.414 . S
C468 C471 1.499 . S
C469 H443 0.950 . S
C469 C468 1.414 . S
C469 C470 1.374 . S
C470 H444 0.950 . S
C470 C466 1.385 . S
C470 C469 1.374 . S
C471 C468 1.499 . S
C471 C472 1.383 1_455 S
C471 C473 1.389 . S
C472 H445 0.950 . S
C472 C458 1.367 1_556 S
C472 C471 1.383 1_655 S
C473 C457 1.367 1_556 S
C473 C471 1.389 . S
C473 C474 1.524 . S
C474 C473 1.524 . S
C474 C475 1.397 . S
C474 C479 1.363 . S
C475 H446 0.950 . S
C475 C474 1.397 . S
C475 C476 1.334 . S
C476 H447 0.950 . S
C476 C475 1.334 . S
C476 C477 1.287 . S
C477 C476 1.287 . S
C477 C478 1.524 . S
C477 H480 0.999 . S
C478 H448 0.950 . S
C478 C477 1.524 . S
C478 C479 1.415 . S
C479 H449 0.950 . S
C479 C474 1.363 . S
C479 C478 1.415 . S
H480 C477 0.999 . S
H481 C462 0.913 . S
H482 C500 0.951 . S
H483 C502 0.951 . S
H484 C504 0.950 . S
H485 C505 0.950 . S
H486 C507 0.950 . S
H487 C510 0.950 . S
H488 C511 0.950 . S
H489 C513 0.950 . S
H490 C514 0.950 . S
H491 C515 0.951 . S
H492 C517 0.951 . S
H493 C519 0.950 . S
H494 C520 0.950 . S
H495 C522 0.950 . S
H496 C525 0.950 . S
H497 C526 0.950 . S
H498 C528 0.950 . S
H499 C529 0.950 . S
C500 H482 0.951 . S
C500 C501 1.366 . S
C500 C502 1.388 . S
C501 C500 1.366 . S
C501 C505 1.385 . S
C502 H483 0.951 . S
C502 C500 1.388 . S
C502 C503 1.366 . S
C503 C502 1.366 . S
C503 C504 1.414 . S
C503 C506 1.499 . S
C504 H484 0.950 . S
C504 C503 1.414 . S
C504 C505 1.374 . S
C505 H485 0.950 . S
C505 C501 1.385 . S
C505 C504 1.374 . S
C506 C503 1.499 . S
C506 C507 1.373 . S
C506 C508 1.389 . S
C507 H486 0.950 . S
C507 C506 1.373 . S
C507 C523 1.377 1_556 S
C508 C506 1.389 . S
C508 C509 1.524 . S
C508 C522 1.377 1_556 S
C509 C508 1.524 . S
C509 C510 1.397 . S
C509 C514 1.363 . S
C510 H487 0.950 . S
C510 C509 1.397 . S
C510 C511 1.334 . S
C511 H488 0.950 . S
C511 C510 1.334 . S
C511 C512 1.287 . S
C512 C511 1.287 . S
C512 C513 1.524 . S
C512 H531 0.913 . S
C513 H489 0.950 . S
C513 C512 1.524 . S
C513 C514 1.415 . S
C514 H490 0.950 . S
C514 C509 1.363 . S
C514 C513 1.415 . S
C515 H491 0.951 . S
C515 C516 1.366 . S
C515 C517 1.388 . S
C516 C515 1.366 . S
C516 C520 1.385 . S
C517 H492 0.951 . S
C517 C515 1.388 . S
C517 C518 1.366 . S
C518 C517 1.366 . S
C518 C519 1.414 . S
C518 C521 1.499 . S
C519 H493 0.950 . S
C519 C518 1.414 . S
C519 C520 1.374 . S
C520 H494 0.950 . S
C520 C516 1.385 . S
C520 C519 1.374 . S
C521 C518 1.499 . S
C521 C522 1.373 . S
C521 C523 1.389 . S
C522 H495 0.950 . S
C522 C508 1.377 1_554 S
C522 C521 1.373 . S
C523 C507 1.377 1_554 S
C523 C521 1.389 . S
C523 C524 1.524 . S
C524 C523 1.524 . S
C524 C525 1.397 . S
C524 C529 1.363 . S
C525 H496 0.950 . S
C525 C524 1.397 . S
C525 C526 1.334 . S
C526 H497 0.950 . S
C526 C525 1.334 . S
C526 C527 1.287 . S
C527 C526 1.287 . S
C527 C528 1.524 . S
C527 H530 0.999 . S
C528 H498 0.950 . S
C528 C527 1.524 . S
C528 C529 1.415 . S
C529 H499 0.950 . S
C529 C524 1.363 . S
C529 C528 1.415 . S
H530 C527 0.999 . S
H531 C512 0.913 . S
H532 C550 0.951 . S
H533 C552 0.951 . S
H534 C554 0.950 . S
H535 C555 0.950 . S
H536 C557 0.950 . S
H537 C560 0.950 . S
H538 C561 0.950 . S
H539 C563 0.950 . S
H540 C564 0.950 . S
H541 C565 0.951 . S
H542 C567 0.951 . S
H543 C569 0.950 . S
H544 C570 0.950 . S
H545 C572 0.950 . S
H546 C575 0.950 . S
H547 C576 0.950 . S
H548 C578 0.950 . S
H549 C579 0.950 . S
C550 H532 0.951 . S
C550 C551 1.366 1_565 S
C550 C552 1.388 . S
C551 C550 1.366 1_545 S
C551 C555 1.385 . S
C552 H533 0.951 . S
C552 C550 1.388 . S
C552 C553 1.366 1_565 S
C553 C552 1.366 1_545 S
C553 C554 1.414 . S
C553 C556 1.499 . S
C554 H534 0.950 . S
C554 C553 1.414 . S
C554 C555 1.374 . S
C555 H535 0.950 . S
C555 C551 1.385 . S
C555 C554 1.374 . S
C556 C553 1.499 . S
C556 C557 1.373 1_554 S
C556 C558 1.389 . S
C557 H536 0.950 . S
C557 C556 1.373 1_556 S
C557 C573 1.377 1_545 S
C558 C556 1.389 . S
C558 C559 1.524 . S
C558 C572 1.377 1_545 S
C559 C558 1.524 . S
C559 C560 1.397 . S
C559 C564 1.363 1_545 S
C560 H537 0.950 . S
C560 C559 1.397 . S
C560 C561 1.334 . S
C561 H538 0.950 . S
C561 C560 1.334 . S
C561 C562 1.287 . S
C562 C561 1.287 . S
C562 C563 1.524 1_545 S
C562 H581 0.913 . S
C563 H539 0.950 . S
C563 C562 1.524 1_565 S
C563 C564 1.415 . S
C564 H540 0.950 . S
C564 C559 1.363 1_565 S
C564 C563 1.415 . S
C565 H541 0.951 . S
C565 C566 1.366 1_545 S
C565 C567 1.388 . S
C566 C565 1.366 1_565 S
C566 C570 1.385 . S
C567 H542 0.951 . S
C567 C565 1.388 . S
C567 C568 1.366 1_545 S
C568 C567 1.366 1_565 S
C568 C569 1.414 . S
C568 C571 1.499 . S
C569 H543 0.950 . S
C569 C568 1.414 . S
C569 C570 1.374 . S
C570 H544 0.950 . S
C570 C566 1.385 . S
C570 C569 1.374 . S
C571 C568 1.499 . S
C571 C572 1.373 1_556 S
C571 C573 1.389 . S
C572 H545 0.950 . S
C572 C558 1.377 1_565 S
C572 C571 1.373 1_554 S
C573 C557 1.377 1_565 S
C573 C571 1.389 . S
C573 C574 1.524 . S
C574 C573 1.524 . S
C574 C575 1.397 . S
C574 C579 1.363 1_565 S
C575 H546 0.950 . S
C575 C574 1.397 . S
C575 C576 1.334 . S
C576 H547 0.950 . S
C576 C575 1.334 . S
C576 C577 1.287 . S
C577 C576 1.287 . S
C577 C578 1.524 1_565 S
C577 H580 0.999 . S
C578 H548 0.950 . S
C578 C577 1.524 1_545 S
C578 C579 1.415 . S
C579 H549 0.950 . S
C579 C574 1.363 1_545 S
C579 C578 1.415 . S
H580 C577 0.999 . S
H581 C562 0.913 . S
H582 C600 0.951 . S
H583 C602 0.951 . S
H584 C604 0.950 . S
H585 C605 0.950 . S
H586 C607 0.950 . S
H587 C610 0.950 . S
H588 C611 0.950 . S
H589 C613 0.950 . S
H590 C614 0.950 . S
H591 C615 0.951 . S
H592 C617 0.951 . S
H593 C619 0.950 . S
H594 C620 0.950 . S
H595 C622 0.950 . S
H596 C625 0.950 . S
H597 C626 0.950 . S
H598 C628 0.950 . S
H599 C629 0.950 . S
C600 H582 0.951 . S
C600 C601 1.366 1_545 S
C600 C602 1.388 . S
C601 C600 1.366 1_565 S
C601 C605 1.385 . S
C602 H583 0.951 . S
C602 C600 1.388 . S
C602 C603 1.366 1_545 S
C603 C602 1.366 1_565 S
C603 C604 1.414 . S
C603 C606 1.499 . S
C604 H584 0.950 . S
C604 C603 1.414 . S
C604 C605 1.374 . S
C605 H585 0.950 . S
C605 C601 1.385 . S
C605 C604 1.374 . S
C606 C603 1.499 . S
C606 C607 1.373 . S
C606 C608 1.389 1_565 S
C607 H586 0.950 . S
C607 C606 1.373 . S
C607 C623 1.377 . S
C608 C606 1.389 1_545 S
C608 C609 1.524 . S
C608 C622 1.377 . S
C609 C608 1.524 . S
C609 C610 1.397 1_545 S
C609 C614 1.363 . S
C610 H587 0.950 . S
C610 C609 1.397 1_565 S
C610 C611 1.334 . S
C611 H588 0.950 . S
C611 C610 1.334 . S
C611 C612 1.287 1_565 S
C612 C611 1.287 1_545 S
C612 C613 1.524 . S
C612 H631 0.913 . S
C613 H589 0.950 . S
C613 C612 1.524 . S
C613 C614 1.415 . S
C614 H590 0.950 . S
C614 C609 1.363 . S
C614 C613 1.415 . S
C615 H591 0.951 . S
C615 C616 1.366 1_565 S
C615 C617 1.388 . S
C616 C615 1.366 1_545 S
C616 C620 1.385 . S
C617 H592 0.951 . S
C617 C615 1.388 . S
C617 C618 1.366 1_565 S
C618 C617 1.366 1_545 S
C618 C619 1.414 . S
C618 C621 1.499 . S
C619 H593 0.950 . S
C619 C618 1.414 . S
C619 C620 1.374 . S
C620 H594 0.950 . S
C620 C616 1.385 . S
C620 C619 1.374 . S
C621 C618 1.499 . S
C621 C622 1.373 . S
C621 C623 1.389 1_545 S
C622 H595 0.950 . S
C622 C608 1.377 . S
C622 C621 1.373 . S
C623 C607 1.377 . S
C623 C621 1.389 1_565 S
C623 C624 1.524 . S
C624 C623 1.524 . S
C624 C625 1.397 1_565 S
C624 C629 1.363 . S
C625 H596 0.950 . S
C625 C624 1.397 1_545 S
C625 C626 1.334 . S
C626 H597 0.950 . S
C626 C625 1.334 . S
C626 C627 1.287 1_545 S
C627 C626 1.287 1_565 S
C627 C628 1.524 . S
C627 H630 0.999 . S
C628 H598 0.950 . S
C628 C627 1.524 . S
C628 C629 1.415 . S
C629 H599 0.950 . S
C629 C624 1.363 . S
C629 C628 1.415 . S
H630 C627 0.999 . S
H631 C612 0.913 . S
H632 C650 0.951 . S
H633 C652 0.951 . S
H634 C654 0.950 . S
H635 C655 0.950 . S
H636 C657 0.950 . S
H637 C660 0.950 1_455 S
H638 C661 0.950 . S
H639 C663 0.950 . S
H640 C664 0.950 . S
H641 C665 0.951 . S
H642 C667 0.951 . S
H643 C669 0.950 . S
H644 C670 0.950 . S
H645 C672 0.950 . S
H646 C675 0.950 1_655 S
H647 C676 0.950 . S
H648 C678 0.950 . S
H649 C679 0.950 . S
C650 H632 0.951 . S
C650 C651 1.366 1_655 S
C650 C652 1.388 . S
C651 C650 1.366 1_455 S
C651 C655 1.385 . S
C652 H633 0.951 . S
C652 C650 1.388 . S
C652 C653 1.366 1_655 S
C653 C652 1.366 1_455 S
C653 C654 1.414 . S
C653 C656 1.499 . S
C654 H634 0.950 . S
C654 C653 1.414 . S
C654 C655 1.374 . S
C655 H635 0.950 . S
C655 C651 1.385 . S
C655 C654 1.374 . S
C656 C653 1.499 . S
C656 C657 1.373 . S
C656 C658 1.389 1_455 S
C657 H636 0.950 . S
C657 C656 1.373 . S
C657 C673 1.377 . S
C658 C656 1.389 1_655 S
C658 C659 1.524 . S
C658 C672 1.377 . S
C659 C658 1.524 . S
C659 C660 1.397 . S
C659 C664 1.363 . S
C660 H637 0.950 1_655 S
C660 C659 1.397 . S
C660 C661 1.334 . S
C661 H638 0.950 . S
C661 C660 1.334 . S
C661 C662 1.287 . S
C662 C661 1.287 . S
C662 C663 1.524 . S
C662 H681 0.913 . S
C663 H639 0.950 . S
C663 C662 1.524 . S
C663 C664 1.415 . S
C664 H640 0.950 . S
C664 C659 1.363 . S
C664 C663 1.415 . S
C665 H641 0.951 . S
C665 C666 1.366 1_455 S
C665 C667 1.388 . S
C666 C665 1.366 1_655 S
C666 C670 1.385 . S
C667 H642 0.951 . S
C667 C665 1.388 . S
C667 C668 1.366 1_455 S
C668 C667 1.366 1_655 S
C668 C669 1.414 . S
C668 C671 1.499 . S
C669 H643 0.950 . S
C669 C668 1.414 . S
C669 C670 1.374 . S
C670 H644 0.950 . S
C670 C666 1.385 . S
C670 C669 1.374 . S
C671 C668 1.499 . S
C671 C672 1.373 . S
C671 C673 1.389 1_655 S
C672 H645 0.950 . S
C672 C658 1.377 . S
C672 C671 1.373 . S
C673 C657 1.377 . S
C673 C671 1.389 1_455 S
C673 C674 1.524 . S
C674 C673 1.524 . S
C674 C675 1.397 . S
C674 C679 1.363 . S
C675 H646 0.950 1_455 S
C675 C674 1.397 . S
C675 C676 1.334 . S
C676 H647 0.950 . S
C676 C675 1.334 . S
C676 C677 1.287 . S
C677 C676 1.287 . S
C677 C678 1.524 . S
C677 H680 0.999 . S
C678 H648 0.950 . S
C678 C677 1.524 . S
C678 C679 1.415 . S
C679 H649 0.950 . S
C679 C674 1.363 . S
C679 C678 1.415 . S
H680 C677 0.999 . S
H681 C662 0.913 . S
H682 C700 0.951 . S
H683 C702 0.951 . S
H684 C704 0.950 . S
H685 C705 0.950 . S
H686 C707 0.950 . S
H687 C710 0.950 . S
H688 C711 0.950 . S
H689 C713 0.950 . S
H690 C714 0.950 . S
H691 C715 0.951 . S
H692 C717 0.951 . S
H693 C719 0.950 . S
H694 C720 0.950 . S
H695 C722 0.950 . S
H696 C725 0.950 . S
H697 C726 0.950 . S
H698 C728 0.950 . S
H699 C729 0.950 . S
C700 H682 0.951 . S
C700 C701 1.366 . S
C700 C702 1.388 . S
C701 C700 1.366 . S
C701 C705 1.385 . S
C702 H683 0.951 . S
C702 C700 1.388 . S
C702 C703 1.366 . S
C703 C702 1.366 . S
C703 C704 1.414 . S
C703 C706 1.499 . S
C704 H684 0.950 . S
C704 C703 1.414 . S
C704 C705 1.374 . S
C705 H685 0.950 . S
C705 C701 1.385 . S
C705 C704 1.374 . S
C706 C703 1.499 . S
C706 C707 1.373 . S
C706 C708 1.389 . S
C707 H686 0.950 . S
C707 C706 1.373 . S
C707 C723 1.377 . S
C708 C706 1.389 . S
C708 C709 1.524 . S
C708 C722 1.377 . S
C709 C708 1.524 . S
C709 C710 1.397 . S
C709 C714 1.363 . S
C710 H687 0.950 . S
C710 C709 1.397 . S
C710 C711 1.334 . S
C711 H688 0.950 . S
C711 C710 1.334 . S
C711 C712 1.287 . S
C712 C711 1.287 . S
C712 C713 1.524 . S
C712 H731 0.913 . S
C713 H689 0.950 . S
C713 C712 1.524 . S
C713 C714 1.415 . S
C714 H690 0.950 . S
C714 C709 1.363 . S
C714 C713 1.415 . S
C715 H691 0.951 . S
C715 C716 1.366 . S
C715 C717 1.388 . S
C716 C715 1.366 . S
C716 C720 1.385 . S
C717 H692 0.951 . S
C717 C715 1.388 . S
C717 C718 1.366 . S
C718 C717 1.366 . S
C718 C719 1.414 . S
C718 C721 1.499 . S
C719 H693 0.950 . S
C719 C718 1.414 . S
C719 C720 1.374 . S
C720 H694 0.950 . S
C720 C716 1.385 . S
C720 C719 1.374 . S
C721 C718 1.499 . S
C721 C722 1.373 . S
C721 C723 1.389 . S
C722 H695 0.950 . S
C722 C708 1.377 . S
C722 C721 1.373 . S
C723 C707 1.377 . S
C723 C721 1.389 . S
C723 C724 1.524 . S
C724 C723 1.524 . S
C724 C725 1.397 . S
C724 C729 1.363 . S
C725 H696 0.950 . S
C725 C724 1.397 . S
C725 C726 1.334 . S
C726 H697 0.950 . S
C726 C725 1.334 . S
C726 C727 1.287 . S
C727 C726 1.287 . S
C727 C728 1.524 . S
C727 H730 0.999 . S
C728 H698 0.950 . S
C728 C727 1.524 . S
C728 C729 1.415 . S
C729 H699 0.950 . S
C729 C724 1.363 . S
C729 C728 1.415 . S
H730 C727 0.999 . S
H731 C712 0.913 . S
H732 C750 0.951 . S
H733 C752 0.951 . S
H734 C754 0.950 1_455 S
H735 C755 0.950 1_455 S
H736 C757 0.950 . S
H737 C760 0.950 . S
H738 C761 0.950 . S
H739 C763 0.950 . S
H740 C764 0.950 . S
H741 C765 0.951 1_455 S
H742 C767 0.938 1_455 S
H743 C769 0.950 . S
H744 C770 0.950 . S
H745 C772 0.950 . S
H746 C775 0.950 . S
H747 C776 0.950 . S
H748 C778 0.950 . S
H749 C779 0.950 . S
C750 H732 0.951 . S
C750 C751 1.366 . S
C750 C752 1.388 . S
C751 C750 1.366 . S
C751 C755 1.385 . S
C752 H733 0.951 . S
C752 C750 1.388 . S
C752 C753 1.366 . S
C753 C752 1.366 . S
C753 C754 1.414 . S
C753 C756 1.499 . S
C754 H734 0.950 1_655 S
C754 C753 1.414 . S
C754 C755 1.374 . S
C755 H735 0.950 1_655 S
C755 C751 1.385 . S
C755 C754 1.374 . S
C756 C753 1.499 . S
C756 C757 1.373 1_655 S
C756 C758 1.389 . S
C757 H736 0.950 . S
C757 C756 1.373 1_455 S
C757 C773 1.377 . S
C758 C756 1.389 . S
C758 C759 1.524 . S
C758 C772 1.377 . S
C759 C758 1.524 . S
C759 C760 1.397 . S
C759 C764 1.363 . S
C760 H737 0.950 . S
C760 C759 1.397 . S
C760 C761 1.334 . S
C761 H738 0.950 . S
C761 C760 1.334 . S
C761 C762 1.287 . S
C762 C761 1.287 . S
C762 C763 1.524 . S
C762 H781 0.913 . S
C763 H739 0.950 . S
C763 C762 1.524 . S
C763 C764 1.415 . S
C764 H740 0.950 . S
C764 C759 1.363 . S
C764 C763 1.415 . S
C765 H741 0.951 1_655 S
C765 C766 1.366 . S
C765 C767 1.379 . S
C766 C765 1.366 . S
C766 C770 1.385 . S
C767 H742 0.938 1_655 S
C767 C765 1.379 . S
C767 C768 1.388 . S
C768 C767 1.388 . S
C768 C769 1.414 . S
C768 C771 1.499 . S
C769 H743 0.950 . S
C769 C768 1.414 . S
C769 C770 1.374 . S
C770 H744 0.950 . S
C770 C766 1.385 . S
C770 C769 1.374 . S
C771 C768 1.499 . S
C771 C772 1.373 . S
C771 C773 1.389 1_655 S
C772 H745 0.950 . S
C772 C758 1.377 . S
C772 C771 1.373 . S
C773 C757 1.377 . S
C773 C771 1.389 1_455 S
C773 C774 1.524 . S
C774 C773 1.524 . S
C774 C775 1.397 . S
C774 C779 1.363 . S
C775 H746 0.950 . S
C775 C774 1.397 . S
C775 C776 1.334 . S
C776 H747 0.950 . S
C776 C775 1.334 . S
C776 C777 1.287 . S
C777 C776 1.287 . S
C777 C778 1.524 . S
C777 H780 0.999 . S
C778 H748 0.950 . S
C778 C777 1.524 . S
C778 C779 1.415 . S
C779 H749 0.950 . S
C779 C774 1.363 . S
C779 C778 1.415 . S
H780 C777 0.999 . S
H781 C762 0.913 . S
H782 C800 0.951 . S
H783 C802 0.951 . S
H784 C804 0.950 . S
H785 C805 0.950 . S
H786 C807 0.950 . S
H787 C810 0.950 . S
H788 C811 0.950 . S
H789 C813 0.950 . S
H790 C814 0.950 . S
H791 C815 0.951 . S
H792 C817 0.951 . S
H793 C819 0.950 . S
H794 C820 0.950 . S
H795 C822 0.950 . S
H796 C825 0.950 . S
H797 C826 0.950 . S
H798 C828 0.950 . S
H799 C829 0.950 . S
C800 H782 0.951 . S
C800 C801 1.366 . S
C800 C802 1.388 . S
C801 C800 1.366 . S
C801 C805 1.385 . S
C802 H783 0.951 . S
C802 C800 1.388 . S
C802 C803 1.366 . S
C803 C802 1.366 . S
C803 C804 1.414 . S
C803 C806 1.499 . S
C804 H784 0.950 . S
C804 C803 1.414 . S
C804 C805 1.374 . S
C805 H785 0.950 . S
C805 C801 1.385 . S
C805 C804 1.374 . S
C806 C803 1.499 . S
C806 C807 1.373 . S
C806 C808 1.389 . S
C807 H786 0.950 . S
C807 C806 1.373 . S
C807 C823 1.377 . S
C808 C806 1.389 . S
C808 C809 1.524 . S
C808 C822 1.377 . S
C809 C808 1.524 . S
C809 C810 1.397 . S
C809 C814 1.363 . S
C810 H787 0.950 . S
C810 C809 1.397 . S
C810 C811 1.334 . S
C811 H788 0.950 . S
C811 C810 1.334 . S
C811 C812 1.287 . S
C812 C811 1.287 . S
C812 C813 1.524 . S
C812 H831 0.913 . S
C813 H789 0.950 . S
C813 C812 1.524 . S
C813 C814 1.415 . S
C814 H790 0.950 . S
C814 C809 1.363 . S
C814 C813 1.415 . S
C815 H791 0.951 . S
C815 C816 1.366 . S
C815 C817 1.388 . S
C816 C815 1.366 . S
C816 C820 1.385 . S
C817 H792 0.951 . S
C817 C815 1.388 . S
C817 C818 1.366 . S
C818 C817 1.366 . S
C818 C819 1.414 . S
C818 C821 1.499 . S
C819 H793 0.950 . S
C819 C818 1.414 . S
C819 C820 1.374 . S
C820 H794 0.950 . S
C820 C816 1.385 . S
C820 C819 1.374 . S
C821 C818 1.499 . S
C821 C822 1.373 . S
C821 C823 1.389 . S
C822 H795 0.950 . S
C822 C808 1.377 . S
C822 C821 1.373 . S
C823 C807 1.377 . S
C823 C821 1.389 . S
C823 C824 1.524 . S
C824 C823 1.524 . S
C824 C825 1.397 . S
C824 C829 1.363 . S
C825 H796 0.950 . S
C825 C824 1.397 . S
C825 C826 1.334 . S
C826 H797 0.950 . S
C826 C825 1.334 . S
C826 C827 1.287 . S
C827 C826 1.287 . S
C827 C828 1.524 . S
C827 H830 0.999 . S
C828 H798 0.950 . S
C828 C827 1.524 . S
C828 C829 1.415 . S
C829 H799 0.950 . S
C829 C824 1.363 . S
C829 C828 1.415 . S
H830 C827 0.999 . S
H831 C812 0.913 . S
H832 C850 0.951 . S
H833 C852 0.951 . S
H834 C854 0.950 . S
H835 C855 0.950 . S
H836 C857 0.950 . S
H837 C860 0.975 . S
H838 C861 0.949 1_545 S
H839 C863 0.950 . S
H840 C864 0.950 . S
H841 C865 0.951 . S
H842 C867 0.951 . S
H843 C869 0.950 . S
H844 C870 0.950 . S
H845 C872 0.950 . S
H846 C875 0.950 . S
H847 C876 0.950 . S
H848 C878 0.950 . S
H849 C879 0.950 . S
C850 H832 0.951 . S
C850 C851 1.366 1_565 S
C850 C852 1.388 . S
C851 C850 1.366 1_545 S
C851 C855 1.385 . S
C852 H833 0.951 . S
C852 C850 1.388 . S
C852 C853 1.366 1_565 S
C853 C852 1.366 1_545 S
C853 C854 1.414 . S
C853 C856 1.499 . S
C854 H834 0.950 . S
C854 C853 1.414 . S
C854 C855 1.374 . S
C855 H835 0.950 . S
C855 C851 1.385 . S
C855 C854 1.374 . S
C856 C853 1.499 . S
C856 C857 1.373 . S
C856 C858 1.383 1_545 S
C857 H836 0.950 . S
C857 C856 1.373 . S
C857 C873 1.377 . S
C858 C856 1.383 1_565 S
C858 C859 1.524 . S
C858 C872 1.383 . S
C859 C858 1.524 . S
C859 C860 1.369 1_565 S
C859 C864 1.363 . S
C860 H837 0.975 . S
C860 C859 1.369 1_545 S
C860 C861 1.337 1_545 S
C861 H838 0.949 1_565 S
C861 C860 1.337 1_565 S
C861 C862 1.287 . S
C862 C861 1.287 . S
C862 C863 1.524 . S
C862 H881 0.913 . S
C863 H839 0.950 . S
C863 C862 1.524 . S
C863 C864 1.415 . S
C864 H840 0.950 . S
C864 C859 1.363 . S
C864 C863 1.415 . S
C865 H841 0.951 . S
C865 C866 1.366 . S
C865 C867 1.388 . S
C866 C865 1.366 . S
C866 C870 1.385 1_545 S
C867 H842 0.951 . S
C867 C865 1.388 . S
C867 C868 1.366 . S
C868 C867 1.366 . S
C868 C869 1.414 1_545 S
C868 C871 1.499 . S
C869 H843 0.950 . S
C869 C868 1.414 1_565 S
C869 C870 1.374 . S
C870 H844 0.950 . S
C870 C866 1.385 1_565 S
C870 C869 1.374 . S
C871 C868 1.499 . S
C871 C872 1.373 1_545 S
C871 C873 1.389 . S
C872 H845 0.950 . S
C872 C858 1.383 . S
C872 C871 1.373 1_565 S
C873 C857 1.377 . S
C873 C871 1.389 . S
C873 C874 1.524 . S
C874 C873 1.524 . S
C874 C875 1.397 . S
C874 C879 1.363 . S
C875 H846 0.950 . S
C875 C874 1.397 . S
C875 C876 1.334 . S
C876 H847 0.950 . S
C876 C875 1.334 . S
C876 C877 1.287 . S
C877 C876 1.287 . S
C877 C878 1.524 . S
C877 H880 0.999 . S
C878 H848 0.950 . S
C878 C877 1.524 . S
C878 C879 1.415 . S
C879 H849 0.950 . S
C879 C874 1.363 . S
C879 C878 1.415 . S
H880 C877 0.999 . S
H881 C862 0.913 . S
H882 C900 0.951 . S
H883 C902 0.951 . S
H884 C904 0.950 . S
H885 C905 0.950 . S
H886 C907 0.950 1_655 S
H887 C910 0.950 1_655 S
H888 C911 0.950 . S
H889 C913 0.950 . S
H890 C914 0.950 . S
H891 C915 0.951 . S
H892 C917 0.951 . S
H893 C919 0.950 . S
H894 C920 0.950 . S
H895 C922 0.950 . S
H896 C925 0.950 . S
H897 C926 0.950 . S
H898 C928 0.950 . S
H899 C929 0.950 . S
C900 H882 0.951 . S
C900 C901 1.366 . S
C900 C902 1.388 . S
C901 C900 1.366 . S
C901 C905 1.385 1_455 S
C902 H883 0.951 . S
C902 C900 1.388 . S
C902 C903 1.366 . S
C903 C902 1.366 . S
C903 C904 1.414 1_455 S
C903 C906 1.499 . S
C904 H884 0.950 . S
C904 C903 1.414 1_655 S
C904 C905 1.374 . S
C905 H885 0.950 . S
C905 C901 1.385 1_655 S
C905 C904 1.374 . S
C906 C903 1.499 . S
C906 C907 1.373 . S
C906 C908 1.389 . S
C907 H886 0.950 1_455 S
C907 C906 1.373 . S
C907 C923 1.377 . S
C908 C906 1.389 . S
C908 C909 1.524 . S
C908 C922 1.377 . S
C909 C908 1.524 . S
C909 C910 1.397 . S
C909 C914 1.363 . S
C910 H887 0.950 1_455 S
C910 C909 1.397 . S
C910 C911 1.334 . S
C911 H888 0.950 . S
C911 C910 1.334 . S
C911 C912 1.287 . S
C912 C911 1.287 . S
C912 C913 1.524 . S
C912 H931 0.913 . S
C913 H889 0.950 . S
C913 C912 1.524 . S
C913 C914 1.415 . S
C914 H890 0.950 . S
C914 C909 1.363 . S
C914 C913 1.415 . S
C915 H891 0.951 . S
C915 C916 1.366 1_655 S
C915 C917 1.388 . S
C916 C915 1.366 1_455 S
C916 C920 1.385 . S
C917 H892 0.951 . S
C917 C915 1.388 . S
C917 C918 1.366 1_655 S
C918 C917 1.366 1_455 S
C918 C919 1.414 . S
C918 C921 1.499 . S
C919 H893 0.950 . S
C919 C918 1.414 . S
C919 C920 1.374 . S
C920 H894 0.950 . S
C920 C916 1.385 . S
C920 C919 1.374 . S
C921 C918 1.499 . S
C921 C922 1.373 . S
C921 C923 1.389 . S
C922 H895 0.950 . S
C922 C908 1.377 . S
C922 C921 1.373 . S
C923 C907 1.377 . S
C923 C921 1.389 . S
C923 C924 1.524 1_455 S
C924 C923 1.524 1_655 S
C924 C925 1.397 1_655 S
C924 C929 1.363 . S
C925 H896 0.950 . S
C925 C924 1.397 1_455 S
C925 C926 1.334 . S
C926 H897 0.950 . S
C926 C925 1.334 . S
C926 C927 1.287 1_455 S
C927 C926 1.287 1_655 S
C927 C928 1.524 . S
C927 H930 0.999 . S
C928 H898 0.950 . S
C928 C927 1.524 . S
C928 C929 1.415 . S
C929 H899 0.950 . S
C929 C924 1.363 . S
C929 C928 1.415 . S
H930 C927 0.999 . S
H931 C912 0.913 . S
H932 C950 0.951 . S
H933 C952 0.951 . S
H934 C954 0.950 . S
H935 C955 0.950 . S
H936 C957 0.950 . S
H937 C960 0.950 . S
H938 C961 0.950 . S
H939 C963 0.950 . S
H940 C964 0.950 . S
H941 C965 0.951 . S
H942 C967 0.951 . S
H943 C969 0.950 . S
H944 C970 0.950 . S
H945 C972 0.950 . S
H946 C975 0.950 . S
H947 C976 0.950 . S
H948 C978 0.950 . S
H949 C979 0.950 . S
C950 H932 0.951 . S
C950 C951 1.366 . S
C950 C952 1.388 . S
C951 C950 1.366 . S
C951 C955 1.385 . S
C952 H933 0.951 . S
C952 C950 1.388 . S
C952 C953 1.366 . S
C953 C952 1.366 . S
C953 C954 1.414 . S
C953 C956 1.499 . S
C954 H934 0.950 . S
C954 C953 1.414 . S
C954 C955 1.374 . S
C955 H935 0.950 . S
C955 C951 1.385 . S
C955 C954 1.374 . S
C956 C953 1.499 . S
C956 C957 1.373 . S
C956 C958 1.389 . S
C957 H936 0.950 . S
C957 C956 1.373 . S
C957 C973 1.377 . S
C958 C956 1.389 . S
C958 C959 1.524 . S
C958 C972 1.377 . S
C959 C958 1.524 . S
C959 C960 1.397 . S
C959 C964 1.363 . S
C960 H937 0.950 . S
C960 C959 1.397 . S
C960 C961 1.334 . S
C961 H938 0.950 . S
C961 C960 1.334 . S
C961 C962 1.287 . S
C962 C961 1.287 . S
C962 C963 1.524 . S
C962 H981 0.913 . S
C963 H939 0.950 . S
C963 C962 1.524 . S
C963 C964 1.415 . S
C964 H940 0.950 . S
C964 C959 1.363 . S
C964 C963 1.415 . S
C965 H941 0.951 . S
C965 C966 1.366 . S
C965 C967 1.388 . S
C966 C965 1.366 . S
C966 C970 1.385 . S
C967 H942 0.951 . S
C967 C965 1.388 . S
C967 C968 1.366 . S
C968 C967 1.366 . S
C968 C969 1.414 . S
C968 C971 1.499 . S
C969 H943 0.950 . S
C969 C968 1.414 . S
C969 C970 1.374 . S
C970 H944 0.950 . S
C970 C966 1.385 . S
C970 C969 1.374 . S
C971 C968 1.499 . S
C971 C972 1.373 . S
C971 C973 1.389 . S
C972 H945 0.950 . S
C972 C958 1.377 . S
C972 C971 1.373 . S
C973 C957 1.377 . S
C973 C971 1.389 . S
C973 C974 1.524 . S
C974 C973 1.524 . S
C974 C975 1.397 . S
C974 C979 1.363 . S
C975 H946 0.950 . S
C975 C974 1.397 . S
C975 C976 1.334 . S
C976 H947 0.950 . S
C976 C975 1.334 . S
C976 C977 1.287 . S
C977 C976 1.287 . S
C977 C978 1.524 . S
C977 H980 0.999 . S
C978 H948 0.950 . S
C978 C977 1.524 . S
C978 C979 1.415 . S
C979 H949 0.950 . S
C979 C974 1.363 . S
C979 C978 1.415 . S
H980 C977 0.999 . S
H981 C962 0.913 . S
H982 C1000 0.951 . S
H983 C1002 0.951 . S
H984 C1004 0.950 . S
H985 C1005 0.950 . S
H986 C1007 0.950 . S
H987 C1010 0.950 . S
H988 C1011 0.950 . S
H989 C1013 0.950 . S
H990 C1014 0.950 . S
H991 C1015 0.951 . S
H992 C1017 0.951 . S
H993 C1019 0.950 . S
H994 C1020 0.950 . S
H995 C1022 0.950 . S
H996 C1025 0.950 . S
H997 C1026 0.950 . S
H998 C1028 0.950 . S
H999 C1029 0.950 . S
C1000 H982 0.951 . S
C1000 C1001 1.366 . S
C1000 C1002 1.388 . S
C1001 C1000 1.366 . S
C1001 C1005 1.385 . S
C1002 H983 0.951 . S
C1002 C1000 1.388 . S
C1002 C1003 1.366 . S
C1003 C1002 1.366 . S
C1003 C1004 1.414 . S
C1003 C1006 1.499 . S
C1004 H984 0.950 . S
C1004 C1003 1.414 . S
C1004 C1005 1.374 . S
C1005 H985 0.950 . S
C1005 C1001 1.385 . S
C1005 C1004 1.374 . S
C1006 C1003 1.499 . S
C1006 C1007 1.373 . S
C1006 C1008 1.389 1_565 S
C1007 H986 0.950 . S
C1007 C1006 1.373 . S
C1007 C1023 1.377 . S
C1008 C1006 1.389 1_545 S
C1008 C1009 1.524 . S
C1008 C1022 1.377 . S
C1009 C1008 1.524 . S
C1009 C1010 1.397 . S
C1009 C1014 1.363 . S
C1010 H987 0.950 . S
C1010 C1009 1.397 . S
C1010 C1011 1.334 . S
C1011 H988 0.950 . S
C1011 C1010 1.334 . S
C1011 C1012 1.287 . S
C1012 C1011 1.287 . S
C1012 C1013 1.524 . S
C1012 H1031 0.913 . S
C1013 H989 0.950 . S
C1013 C1012 1.524 . S
C1013 C1014 1.415 . S
C1014 H990 0.950 . S
C1014 C1009 1.363 . S
C1014 C1013 1.415 . S
C1015 H991 0.951 . S
C1015 C1016 1.366 . S
C1015 C1017 1.388 . S
C1016 C1015 1.366 . S
C1016 C1020 1.385 . S
C1017 H992 0.951 . S
C1017 C1015 1.388 . S
C1017 C1018 1.366 . S
C1018 C1017 1.366 . S
C1018 C1019 1.414 . S
C1018 C1021 1.499 . S
C1019 H993 0.950 . S
C1019 C1018 1.414 . S
C1019 C1020 1.374 . S
C1020 H994 0.950 . S
C1020 C1016 1.385 . S
C1020 C1019 1.374 . S
C1021 C1018 1.499 . S
C1021 C1022 1.373 1_565 S
C1021 C1023 1.389 . S
C1022 H995 0.950 . S
C1022 C1008 1.377 . S
C1022 C1021 1.373 1_545 S
C1023 C1007 1.377 . S
C1023 C1021 1.389 . S
C1023 C1024 1.524 . S
C1024 C1023 1.524 . S
C1024 C1025 1.397 . S
C1024 C1029 1.363 . S
C1025 H996 0.950 . S
C1025 C1024 1.397 . S
C1025 C1026 1.334 . S
C1026 H997 0.950 . S
C1026 C1025 1.334 . S
C1026 C1027 1.287 . S
C1027 C1026 1.287 . S
C1027 C1028 1.524 . S
C1027 H1030 0.999 . S
C1028 H998 0.950 . S
C1028 C1027 1.524 . S
C1028 C1029 1.415 . S
C1029 H999 0.950 . S
C1029 C1024 1.363 . S
C1029 C1028 1.415 . S
H1030 C1027 0.999 . S
H1031 C1012 0.913 . S
C151 C60 1.530 . S
C166 C5 1.528 . S
C201 C16 1.530 . S
C216 C38 1.528 . S
C251 C49 1.528 . S
C266 C27 1.530 . S
C301 C126 1.789 . S
C316 C71 1.788 . S
C351 C82 1.789 . S
C366 C104 1.788 . S
C401 C115 1.789 . S
C416 C93 1.788 . S
C451 C8 2.019 . S
C466 C74 2.115 . S
C501 C85 2.115 . S
C516 C19 2.019 . S
C551 C30 2.019 . S
C566 C96 2.115 . S
C601 C107 2.115 . S
C616 C41 2.018 . S
C651 C118 2.115 . S
C666 C52 2.018 . S
C701 C63 2.018 . S
C716 C129 2.115 . S
C751 C51 0.786 . S
C766 C7 0.787 . S
C801 C62 0.785 . S
C816 C18 0.786 . S
C851 C29 0.785 . S
C866 C40 0.785 . S
C901 C73 0.799 . S
C916 C117 0.799 . S
C951 C128 0.800 . S
C966 C84 0.799 . S
C1001 C95 0.799 . S
C1016 C106 0.799 . S
