# Generated by pormake.
# Topology wlu, (5)-cn, num edge types: 1
# Building blocks:
#     Node 0, Type 0, BuildingBlock: XOMCOT_clean_sbu_0, # of connection points: 5
#     Node 1, Type 0, BuildingBlock: XOMCOT_clean_sbu_0, # of connection points: 5
#     Node 2, Type 0, BuildingBlock: XOMCOT_clean_sbu_0, # of connection points: 5
#     Node 3, Type 0, BuildingBlock: XOMCOT_clean_sbu_0, # of connection points: 5
#     Node 4, Type 0, BuildingBlock: XOMCOT_clean_sbu_0, # of connection points: 5
#     Node 5, Type 0, BuildingBlock: XOMCOT_clean_sbu_0, # of connection points: 5
#     Node 6, Type 0, BuildingBlock: XOMCOT_clean_sbu_0, # of connection points: 5
#     Node 7, Type 0, BuildingBlock: XOMCOT_clean_sbu_0, # of connection points: 5
#     Node 8, Type 0, BuildingBlock: XOMCOT_clean_sbu_0, # of connection points: 5
#     Node 9, Type 0, BuildingBlock: XOMCOT_clean_sbu_0, # of connection points: 5
#     Node 10, Type 0, BuildingBlock: XOMCOT_clean_sbu_0, # of connection points: 5
#     Node 11, Type 0, BuildingBlock: XOMCOT_clean_sbu_0, # of connection points: 5
#     Node 12, Type 0, BuildingBlock: XOMCOT_clean_sbu_0, # of connection points: 5
#     Node 13, Type 0, BuildingBlock: XOMCOT_clean_sbu_0, # of connection points: 5
#     Node 14, Type 0, BuildingBlock: XOMCOT_clean_sbu_0, # of connection points: 5
#     Node 15, Type 0, BuildingBlock: XOMCOT_clean_sbu_0, # of connection points: 5
#     Node 16, Type 0, BuildingBlock: XOMCOT_clean_sbu_0, # of connection points: 5
#     Node 17, Type 0, BuildingBlock: XOMCOT_clean_sbu_0, # of connection points: 5
#     Node 18, Type 0, BuildingBlock: XOMCOT_clean_sbu_0, # of connection points: 5
#     Node 19, Type 0, BuildingBlock: XOMCOT_clean_sbu_0, # of connection points: 5
#     Node 20, Type 0, BuildingBlock: XOMCOT_clean_sbu_0, # of connection points: 5
#     Node 21, Type 0, BuildingBlock: XOMCOT_clean_sbu_0, # of connection points: 5
#     Node 22, Type 0, BuildingBlock: XOMCOT_clean_sbu_0, # of connection points: 5
#     Node 23, Type 0, BuildingBlock: XOMCOT_clean_sbu_0, # of connection points: 5
#     Node 24, Type 0, BuildingBlock: XOMCOT_clean_sbu_0, # of connection points: 5
#     Node 25, Type 0, BuildingBlock: XOMCOT_clean_sbu_0, # of connection points: 5
#     Node 26, Type 0, BuildingBlock: XOMCOT_clean_sbu_0, # of connection points: 5
#     Node 27, Type 0, BuildingBlock: XOMCOT_clean_sbu_0, # of connection points: 5
#     Node 28, Type 0, BuildingBlock: XOMCOT_clean_sbu_0, # of connection points: 5
#     Node 29, Type 0, BuildingBlock: XOMCOT_clean_sbu_0, # of connection points: 5
#     Node 30, Type 0, BuildingBlock: XOMCOT_clean_sbu_0, # of connection points: 5
#     Node 31, Type 0, BuildingBlock: XOMCOT_clean_sbu_0, # of connection points: 5
#     Node 32, Type 0, BuildingBlock: XOMCOT_clean_sbu_0, # of connection points: 5
#     Node 33, Type 0, BuildingBlock: XOMCOT_clean_sbu_0, # of connection points: 5
#     Node 34, Type 0, BuildingBlock: XOMCOT_clean_sbu_0, # of connection points: 5
#     Node 35, Type 0, BuildingBlock: XOMCOT_clean_sbu_0, # of connection points: 5
#     Edge 36, Type (0, 0), BuildingBlock: OJICUG_clean_linker_0, # of connection points: 2
#     Edge 37, Type (0, 0), BuildingBlock: OJICUG_clean_linker_0, # of connection points: 2
#     Edge 38, Type (0, 0), BuildingBlock: OJICUG_clean_linker_0, # of connection points: 2
#     Edge 39, Type (0, 0), BuildingBlock: OJICUG_clean_linker_0, # of connection points: 2
#     Edge 40, Type (0, 0), BuildingBlock: OJICUG_clean_linker_0, # of connection points: 2
#     Edge 41, Type (0, 0), BuildingBlock: OJICUG_clean_linker_0, # of connection points: 2
#     Edge 42, Type (0, 0), BuildingBlock: OJICUG_clean_linker_0, # of connection points: 2
#     Edge 43, Type (0, 0), BuildingBlock: OJICUG_clean_linker_0, # of connection points: 2
#     Edge 44, Type (0, 0), BuildingBlock: OJICUG_clean_linker_0, # of connection points: 2
#     Edge 45, Type (0, 0), BuildingBlock: OJICUG_clean_linker_0, # of connection points: 2
#     Edge 46, Type (0, 0), BuildingBlock: OJICUG_clean_linker_0, # of connection points: 2
#     Edge 47, Type (0, 0), BuildingBlock: OJICUG_clean_linker_0, # of connection points: 2
#     Edge 48, Type (0, 0), BuildingBlock: OJICUG_clean_linker_0, # of connection points: 2
#     Edge 49, Type (0, 0), BuildingBlock: OJICUG_clean_linker_0, # of connection points: 2
#     Edge 50, Type (0, 0), BuildingBlock: OJICUG_clean_linker_0, # of connection points: 2
#     Edge 51, Type (0, 0), BuildingBlock: OJICUG_clean_linker_0, # of connection points: 2
#     Edge 52, Type (0, 0), BuildingBlock: OJICUG_clean_linker_0, # of connection points: 2
#     Edge 53, Type (0, 0), BuildingBlock: OJICUG_clean_linker_0, # of connection points: 2
#     Edge 54, Type (0, 0), BuildingBlock: OJICUG_clean_linker_0, # of connection points: 2
#     Edge 55, Type (0, 0), BuildingBlock: OJICUG_clean_linker_0, # of connection points: 2
#     Edge 56, Type (0, 0), BuildingBlock: OJICUG_clean_linker_0, # of connection points: 2
#     Edge 57, Type (0, 0), BuildingBlock: OJICUG_clean_linker_0, # of connection points: 2
#     Edge 58, Type (0, 0), BuildingBlock: OJICUG_clean_linker_0, # of connection points: 2
#     Edge 59, Type (0, 0), BuildingBlock: OJICUG_clean_linker_0, # of connection points: 2
#     Edge 60, Type (0, 0), BuildingBlock: OJICUG_clean_linker_0, # of connection points: 2
#     Edge 61, Type (0, 0), BuildingBlock: OJICUG_clean_linker_0, # of connection points: 2
#     Edge 62, Type (0, 0), BuildingBlock: OJICUG_clean_linker_0, # of connection points: 2
#     Edge 63, Type (0, 0), BuildingBlock: OJICUG_clean_linker_0, # of connection points: 2
#     Edge 64, Type (0, 0), BuildingBlock: OJICUG_clean_linker_0, # of connection points: 2
#     Edge 65, Type (0, 0), BuildingBlock: OJICUG_clean_linker_0, # of connection points: 2
#     Edge 66, Type (0, 0), BuildingBlock: OJICUG_clean_linker_0, # of connection points: 2
#     Edge 67, Type (0, 0), BuildingBlock: OJICUG_clean_linker_0, # of connection points: 2
#     Edge 68, Type (0, 0), BuildingBlock: OJICUG_clean_linker_0, # of connection points: 2
#     Edge 69, Type (0, 0), BuildingBlock: OJICUG_clean_linker_0, # of connection points: 2
#     Edge 70, Type (0, 0), BuildingBlock: OJICUG_clean_linker_0, # of connection points: 2
#     Edge 71, Type (0, 0), BuildingBlock: OJICUG_clean_linker_0, # of connection points: 2
#     Edge 72, Type (0, 0), BuildingBlock: OJICUG_clean_linker_0, # of connection points: 2
#     Edge 73, Type (0, 0), BuildingBlock: OJICUG_clean_linker_0, # of connection points: 2
#     Edge 74, Type (0, 0), BuildingBlock: OJICUG_clean_linker_0, # of connection points: 2
#     Edge 75, Type (0, 0), BuildingBlock: OJICUG_clean_linker_0, # of connection points: 2
#     Edge 76, Type (0, 0), BuildingBlock: OJICUG_clean_linker_0, # of connection points: 2
#     Edge 77, Type (0, 0), BuildingBlock: OJICUG_clean_linker_0, # of connection points: 2
#     Edge 78, Type (0, 0), BuildingBlock: OJICUG_clean_linker_0, # of connection points: 2
#     Edge 79, Type (0, 0), BuildingBlock: OJICUG_clean_linker_0, # of connection points: 2
#     Edge 80, Type (0, 0), BuildingBlock: OJICUG_clean_linker_0, # of connection points: 2
#     Edge 81, Type (0, 0), BuildingBlock: OJICUG_clean_linker_0, # of connection points: 2
#     Edge 82, Type (0, 0), BuildingBlock: OJICUG_clean_linker_0, # of connection points: 2
#     Edge 83, Type (0, 0), BuildingBlock: OJICUG_clean_linker_0, # of connection points: 2
#     Edge 84, Type (0, 0), BuildingBlock: OJICUG_clean_linker_0, # of connection points: 2
#     Edge 85, Type (0, 0), BuildingBlock: OJICUG_clean_linker_0, # of connection points: 2
#     Edge 86, Type (0, 0), BuildingBlock: OJICUG_clean_linker_0, # of connection points: 2
#     Edge 87, Type (0, 0), BuildingBlock: OJICUG_clean_linker_0, # of connection points: 2
#     Edge 88, Type (0, 0), BuildingBlock: OJICUG_clean_linker_0, # of connection points: 2
#     Edge 89, Type (0, 0), BuildingBlock: OJICUG_clean_linker_0, # of connection points: 2
#     Edge 90, Type (0, 0), BuildingBlock: OJICUG_clean_linker_0, # of connection points: 2
#     Edge 91, Type (0, 0), BuildingBlock: OJICUG_clean_linker_0, # of connection points: 2
#     Edge 92, Type (0, 0), BuildingBlock: OJICUG_clean_linker_0, # of connection points: 2
#     Edge 93, Type (0, 0), BuildingBlock: OJICUG_clean_linker_0, # of connection points: 2
#     Edge 94, Type (0, 0), BuildingBlock: OJICUG_clean_linker_0, # of connection points: 2
#     Edge 95, Type (0, 0), BuildingBlock: OJICUG_clean_linker_0, # of connection points: 2
#     Edge 96, Type (0, 0), BuildingBlock: OJICUG_clean_linker_0, # of connection points: 2
#     Edge 97, Type (0, 0), BuildingBlock: OJICUG_clean_linker_0, # of connection points: 2
#     Edge 98, Type (0, 0), BuildingBlock: OJICUG_clean_linker_0, # of connection points: 2
#     Edge 99, Type (0, 0), BuildingBlock: OJICUG_clean_linker_0, # of connection points: 2
#     Edge 100, Type (0, 0), BuildingBlock: OJICUG_clean_linker_0, # of connection points: 2
#     Edge 101, Type (0, 0), BuildingBlock: OJICUG_clean_linker_0, # of connection points: 2
#     Edge 102, Type (0, 0), BuildingBlock: OJICUG_clean_linker_0, # of connection points: 2
#     Edge 103, Type (0, 0), BuildingBlock: OJICUG_clean_linker_0, # of connection points: 2
#     Edge 104, Type (0, 0), BuildingBlock: OJICUG_clean_linker_0, # of connection points: 2
#     Edge 105, Type (0, 0), BuildingBlock: OJICUG_clean_linker_0, # of connection points: 2
#     Edge 106, Type (0, 0), BuildingBlock: OJICUG_clean_linker_0, # of connection points: 2
#     Edge 107, Type (0, 0), BuildingBlock: OJICUG_clean_linker_0, # of connection points: 2
#     Edge 108, Type (0, 0), BuildingBlock: OJICUG_clean_linker_0, # of connection points: 2
#     Edge 109, Type (0, 0), BuildingBlock: OJICUG_clean_linker_0, # of connection points: 2
#     Edge 110, Type (0, 0), BuildingBlock: OJICUG_clean_linker_0, # of connection points: 2
#     Edge 111, Type (0, 0), BuildingBlock: OJICUG_clean_linker_0, # of connection points: 2
#     Edge 112, Type (0, 0), BuildingBlock: OJICUG_clean_linker_0, # of connection points: 2
#     Edge 113, Type (0, 0), BuildingBlock: OJICUG_clean_linker_0, # of connection points: 2
#     Edge 114, Type (0, 0), BuildingBlock: OJICUG_clean_linker_0, # of connection points: 2
#     Edge 115, Type (0, 0), BuildingBlock: OJICUG_clean_linker_0, # of connection points: 2
#     Edge 116, Type (0, 0), BuildingBlock: OJICUG_clean_linker_0, # of connection points: 2
#     Edge 117, Type (0, 0), BuildingBlock: OJICUG_clean_linker_0, # of connection points: 2
#     Edge 118, Type (0, 0), BuildingBlock: OJICUG_clean_linker_0, # of connection points: 2
#     Edge 119, Type (0, 0), BuildingBlock: OJICUG_clean_linker_0, # of connection points: 2
#     Edge 120, Type (0, 0), BuildingBlock: OJICUG_clean_linker_0, # of connection points: 2
#     Edge 121, Type (0, 0), BuildingBlock: OJICUG_clean_linker_0, # of connection points: 2
#     Edge 122, Type (0, 0), BuildingBlock: OJICUG_clean_linker_0, # of connection points: 2
#     Edge 123, Type (0, 0), BuildingBlock: OJICUG_clean_linker_0, # of connection points: 2
#     Edge 124, Type (0, 0), BuildingBlock: OJICUG_clean_linker_0, # of connection points: 2
#     Edge 125, Type (0, 0), BuildingBlock: OJICUG_clean_linker_0, # of connection points: 2
# Relax obj value: 0.117
# Max RMSD: 0.161
# Mean RMSD: 0.159
data_MOF--net-wlu--node1-XOMCOT_clean_sbu_0--edge1-OJICUG_clean_linker_0
_symmetry_space_group_name_H-M    P1
_symmetry_Int_Tables_number       1
_symmetry_cell_setting            triclinic
loop_
_symmetry_equiv_pos_as_xyz
'x, y, z'
_cell_length_a     49.950458
_cell_length_b     50.028861
_cell_length_c     42.660434
_cell_angle_alpha  89.814597
_cell_angle_beta   90.048351
_cell_angle_gamma 120.05817
loop_
_atom_site_label
_atom_site_type_symbol
_atom_site_fract_x
_atom_site_fract_y
_atom_site_fract_z
_atom_type_partial_charge
Co0 Co 0.29468 0.20144 0.01783 0.0
C1 C 0.26091 0.13275 1.00602 0.0
C2 C 0.23775 0.15543 0.98708 0.0
C3 C 0.22184 0.12495 0.97816 0.0
N4 N 0.26204 0.16042 1.00504 0.0
N5 N 0.2364 0.11059 0.98995 0.0
H6 H 0.27794 0.12889 0.0174 0.0
H7 H 0.23262 0.17313 0.97988 0.0
C8 C 0.23582 0.19574 0.0437 0.0
O9 O 0.2271 0.16753 0.0532 0.0
N10 N 0.32723 0.24273 0.02989 0.0
C11 C 0.35792 0.25557 0.02482 0.0
C12 C 0.37305 0.28435 0.03851 0.0
C13 C 0.3243 0.26395 0.04692 0.0
N14 N 0.35191 0.28954 0.05253 0.0
C15 C 0.31534 0.17171 0.06072 0.0
C16 C 0.30496 0.19496 0.11502 0.0
C17 C 0.32281 0.18045 0.11667 0.0
C18 C 0.32707 0.16796 0.08908 0.0
C19 C 0.29337 0.19803 0.08608 0.0
N20 N 0.29898 0.18688 0.05914 0.0
H21 H 0.32161 0.16427 0.03971 0.0
H22 H 0.28188 0.21138 0.08534 0.0
H23 H 0.3689 0.2447 0.01266 0.0
H24 H 0.30253 0.26076 0.05548 0.0
O25 O 0.32411 0.19451 0.99483 0.0
O26 O 0.29763 0.2152 0.97493 0.0
O27 O 0.26257 0.21237 0.03157 0.0
C28 C 0.31761 0.20611 0.97066 0.0
H29 H 0.20186 0.11459 0.96291 0.0
H30 H 0.39783 0.29978 0.03907 0.0
H31 H 0.30091 0.20491 0.13572 0.0
H32 H 0.3412 0.15715 0.08889 0.0
Co33 Co 0.84437 0.10273 0.01747 0.0
C34 C 0.91334 0.13931 0.01064 0.0
C35 C 0.89317 0.09458 0.98948 0.0
C36 C 0.92414 0.11057 0.98225 0.0
N37 N 0.88633 0.11234 1.00766 0.0
N38 N 0.93695 0.13882 0.99543 0.0
H39 H 0.91555 0.15922 0.0227 0.0
H40 H 0.8764 0.07199 0.98081 0.0
C41 C 0.84951 0.04904 0.0433 0.0
O42 O 0.87753 0.06802 0.05367 0.0
N43 N 0.8022 0.09293 0.02671 0.0
C44 C 0.78797 0.1086 0.01771 0.0
C45 C 0.75932 0.09556 0.03183 0.0
C46 C 0.78192 0.07066 0.04629 0.0
N47 N 0.75567 0.07185 0.04997 0.0
C48 C 0.86828 0.15237 0.06111 0.0
C49 C 0.84555 0.11721 0.11483 0.0
C50 C 0.85632 0.14906 0.11659 0.0
C51 C 0.86866 0.16669 0.08928 0.0
C52 C 0.84549 0.1037 0.08602 0.0
N53 N 0.85605 0.12112 0.05928 0.0
H54 H 0.87601 0.16654 0.04032 0.0
H55 H 0.83487 0.07896 0.08524 0.0
H56 H 0.79786 0.12879 1.00276 0.0
H57 H 0.78639 0.05421 0.05822 0.0
O58 O 0.85198 0.13904 0.99368 0.0
O59 O 0.83347 0.09217 0.97403 0.0
O60 O 0.83325 0.05969 0.0314 0.0
C61 C 0.84228 0.1211 0.96932 0.0
H62 H 0.93586 0.10243 0.96707 0.0
H63 H 0.74306 0.1038 0.02999 0.0
H64 H 0.83622 0.10254 0.1353 0.0
H65 H 0.87687 0.19124 0.08899 0.0
Co66 Co 0.94441 0.75369 0.02447 0.0
C67 C 0.90965 0.78752 0.01075 0.0
C68 C 0.9564 0.81114 0.99415 0.0
C69 C 0.94217 0.82705 0.9841 0.0
N70 N 0.93639 0.7866 0.01145 0.0
N71 N 0.91266 0.81225 0.99441 0.0
H72 H 0.88817 0.77007 0.02091 0.0
H73 H 0.9795 0.81633 0.98788 0.0
C74 C 0.99868 0.8123 0.04984 0.0
O75 O 0.97989 0.82163 0.06001 0.0
N76 N 0.95276 0.72086 0.03649 0.0
C77 C 0.93279 0.69018 0.03513 0.0
C78 C 0.94714 0.67469 0.04639 0.0
C79 C 0.97895 0.72349 0.04897 0.0
N80 N 0.97613 0.69563 0.05519 0.0
C81 C 0.8945 0.73431 0.06805 0.0
C82 C 0.92889 0.74437 0.12191 0.0
C83 C 0.89645 0.72758 0.12428 0.0
C84 C 0.87936 0.72332 0.09678 0.0
C85 C 0.94318 0.75493 0.09261 0.0
N86 N 0.92604 0.74975 0.06595 0.0
H87 H 0.88051 0.72821 0.04719 0.0
H88 H 0.96798 0.76535 0.09136 0.0
H89 H 0.90912 0.67959 0.02713 0.0
H90 H 0.99963 0.74524 0.05375 0.0
O91 O 0.90778 0.72437 1.00157 0.0
O92 O 0.95505 0.75068 0.98174 0.0
O93 O 0.98771 0.78545 0.0379 0.0
C94 C 0.92598 0.73067 0.9775 0.0
H95 H 0.95243 0.84712 0.96894 0.0
H96 H 0.93663 0.64991 0.04901 0.0
H97 H 0.94327 0.74847 0.14237 0.0
H98 H 0.85434 0.70989 0.09694 0.0
Co99 Co 0.23007 0.2857 0.4948 0.0
C100 C 0.29 0.31951 0.46147 0.0
C101 C 0.29637 0.3188 0.51123 0.0
C102 C 0.32504 0.33349 0.49696 0.0
N103 N 0.27447 0.31015 0.48895 0.0
N104 N 0.3209 0.33399 0.46576 0.0
H105 H 0.27894 0.3155 0.43878 0.0
H106 H 0.29178 0.3144 0.53604 0.0
C107 C 0.22122 0.33094 0.53541 0.0
O108 O 0.19948 0.33027 0.51749 0.0
N109 N 0.1849 0.25961 0.50013 0.0
C110 C 0.16723 0.23399 0.48292 0.0
C111 C 0.13711 0.22023 0.49272 0.0
C112 C 0.16461 0.26046 0.52087 0.0
N113 N 0.13533 0.23686 0.51641 0.0
C114 C 0.20542 0.29704 0.43769 0.0
C115 C 0.23996 0.36083 0.44088 0.0
C116 C 0.21969 0.34729 0.41567 0.0
C117 C 0.20215 0.31495 0.41428 0.0
C118 C 0.24202 0.34216 0.46408 0.0
N119 N 0.22467 0.31063 0.4626 0.0
H120 H 0.19294 0.2723 0.43529 0.0
H121 H 0.25824 0.3532 0.48301 0.0
H122 H 0.17534 0.22558 0.46401 0.0
H123 H 0.17078 0.27696 0.53955 0.0
O124 O 0.23087 0.2534 0.46988 0.0
O125 O 0.23594 0.25798 0.52143 0.0
O126 O 0.23366 0.31471 0.52914 0.0
C127 C 0.23543 0.24312 0.49641 0.0
H128 H 0.34724 0.34348 0.50861 0.0
H129 H 0.11773 0.19985 0.48269 0.0
H130 H 0.25415 0.3857 0.44269 0.0
H131 H 0.18679 0.30359 0.39472 0.0
Co132 Co 0.77242 0.95559 0.4719 0.0
C133 C 0.73854 0.98298 0.43932 0.0
C134 C 0.74835 0.99651 0.4876 0.0
C135 C 0.73323 1.01053 0.47473 0.0
N136 N 0.75185 0.97935 0.46544 0.0
N137 N 0.727 1.00191 0.44451 0.0
H138 H 0.73723 0.97213 0.41704 0.0
H139 H 0.75601 0.99845 0.51163 0.0
C140 C 0.72447 0.90147 0.51067 0.0
O141 O 0.72856 0.88132 0.49483 0.0
N142 N 0.79387 0.93236 0.47907 0.0
C143 C 0.8149 0.93172 0.45972 0.0
C144 C 0.82621 0.91441 0.47311 0.0
C145 C 0.79399 0.91644 0.50488 0.0
N146 N 0.81295 0.90457 0.50145 0.0
C147 C 0.76381 0.92865 0.41051 0.0
C148 C 0.70054 0.8897 0.414 0.0
C149 C 0.71634 0.88792 0.38764 0.0
C150 C 0.74833 0.90841 0.38582 0.0
C151 C 0.71703 0.91027 0.43831 0.0
N152 N 0.7486 0.92821 0.43722 0.0
H153 H 0.78805 0.94506 0.40777 0.0
H154 H 0.70415 0.91198 0.45772 0.0
H155 H 0.82258 0.94376 0.43766 0.0
H156 H 0.78114 0.91408 0.52607 0.0
O157 O 0.80856 0.9874 0.44945 0.0
O158 O 0.80085 0.9867 0.50052 0.0
O159 O 0.73955 0.93019 0.50381 0.0
C160 C 0.8184 1.00077 0.47657 0.0
H161 H 0.72636 0.0251 0.4869 0.0
H162 H 0.84271 0.90916 0.4625 0.0
H163 H 0.67571 0.87505 0.41611 0.0
H164 H 0.76135 0.90914 0.36522 0.0
Co165 Co 0.09434 0.82154 0.47258 0.0
C166 C 0.06919 0.7633 0.43598 0.0
C167 C 0.05968 0.75505 0.4853 0.0
C168 C 0.04569 0.72707 0.47007 0.0
N169 N 0.07439 0.77772 0.46396 0.0
N170 N 0.05179 0.73234 0.43919 0.0
H171 H 0.07754 0.77514 0.41378 0.0
H172 H 0.0588 0.75869 0.51017 0.0
C173 C 0.14649 0.82721 0.51434 0.0
O174 O 0.16802 0.85019 0.49792 0.0
N175 N 0.11338 0.86599 0.48146 0.0
C176 C 0.1069 0.88548 0.46545 0.0
C177 C 0.12219 0.91423 0.47866 0.0
C178 C 0.1323 0.88365 0.50502 0.0
N179 N 0.13826 0.91317 0.50339 0.0
C180 C 0.13218 0.85022 0.41788 0.0
C181 C 0.16199 0.81618 0.41834 0.0
C182 C 0.1693 0.83836 0.3948 0.0
C183 C 0.15419 0.85556 0.39479 0.0
C184 C 0.14036 0.81206 0.44142 0.0
N185 N 0.126 0.82926 0.4413 0.0
H186 H 0.11959 0.86241 0.4163 0.0
H187 H 0.13464 0.79446 0.45906 0.0
H188 H 0.09185 0.87951 0.44533 0.0
H189 H 0.14063 0.87529 0.5238 0.0
O190 O 0.06319 0.82346 0.44661 0.0
O191 O 0.05947 0.81397 0.49779 0.0
O192 O 0.118 0.8151 0.50709 0.0
C193 C 0.04696 0.81699 0.47236 0.0
H194 H 0.03243 0.70451 0.48085 0.0
H195 H 0.12191 0.9346 0.47045 0.0
H196 H 0.17284 0.80209 0.41886 0.0
H197 H 0.15852 0.87225 0.3764 0.0
Co198 Co 0.7564 0.83486 0.98183 0.0
C199 C 0.78851 0.9009 1.00402 0.0
C200 C 0.80185 0.87262 0.02977 0.0
C201 C 0.81681 0.90185 0.04241 0.0
N202 N 0.78419 0.87194 1.00551 0.0
N203 N 0.80832 0.91964 0.0263 0.0
H204 H 0.77776 0.9085 0.98709 0.0
H205 H 0.80349 0.853 0.03795 0.0
C206 C 0.82083 0.84774 0.96802 0.0
O207 O 0.82975 0.87714 0.96449 0.0
N208 N 0.72858 0.79806 0.95884 0.0
C209 C 0.70329 0.79353 0.94301 0.0
C210 C 0.69101 0.7659 0.9274 0.0
C211 C 0.73117 0.77297 0.95303 0.0
N212 N 0.70855 0.75303 0.93366 0.0
C213 C 0.74252 0.8722 0.94204 0.0
C214 C 0.75971 0.85579 0.88714 0.0
C215 C 0.73962 0.86778 0.88542 0.0
C216 C 0.73244 0.8775 0.91333 0.0
C217 C 0.76973 0.85128 0.91641 0.0
N218 N 0.75999 0.85817 0.94361 0.0
H219 H 0.73321 0.87631 0.9631 0.0
H220 H 0.78223 0.83888 0.91706 0.0
H221 H 0.69447 0.80934 0.94266 0.0
H222 H 0.74927 0.76947 0.96256 0.0
O223 O 0.72117 0.83497 1.00106 0.0
O224 O 0.74494 0.81105 0.0201 0.0
O225 O 0.79211 0.82805 0.97136 0.0
C226 C 0.72298 0.8176 0.02274 0.0
H227 H 0.83215 0.90917 0.06244 0.0
H228 H 0.67022 0.75562 0.91327 0.0
H229 H 0.76612 0.84816 0.86618 0.0
H230 H 0.71671 0.88649 0.91337 0.0
Co231 Co 0.21398 0.93149 0.98821 0.0
C232 C 0.14763 0.89795 0.01026 0.0
C233 C 0.17595 0.94006 0.03508 0.0
C234 C 0.14657 0.9261 0.0476 0.0
N235 N 0.1767 0.92259 0.01148 0.0
N236 N 0.12873 0.89952 0.03206 0.0
H237 H 0.1401 0.87928 0.99382 0.0
H238 H 0.1956 0.96146 0.0429 0.0
C239 C 0.20128 0.98251 0.97202 0.0
O240 O 0.17192 0.96175 0.96848 0.0
N241 N 0.25109 0.94013 0.96565 0.0
C242 C 0.25503 0.91929 0.94937 0.0
C243 C 0.28331 0.9342 0.93474 0.0
C244 C 0.27736 0.9674 0.96129 0.0
N245 N 0.2973 0.96437 0.94221 0.0
C246 C 0.17695 0.88003 0.94903 0.0
C247 C 0.19375 0.9133 0.89376 0.0
C248 C 0.18269 0.88136 0.89253 0.0
C249 C 0.17264 0.86457 0.92061 0.0
C250 C 0.19782 0.92794 0.92276 0.0
N251 N 0.19086 0.91151 0.95016 0.0
H252 H 0.17249 0.86675 0.97031 0.0
H253 H 0.21002 0.95283 0.923 0.0
H254 H 0.2385 0.89487 0.9482 0.0
H255 H 0.28177 0.98894 0.97169 0.0
O256 O 0.21337 0.89623 1.00811 0.0
O257 O 0.23744 0.94405 0.02659 0.0
O258 O 0.22107 0.97386 0.9767 0.0
C259 C 0.23065 0.9155 0.02967 0.0
H260 H 0.13919 0.93457 0.06715 0.0
H261 H 0.2933 0.92353 0.9205 0.0
H262 H 0.20123 0.92729 0.87269 0.0
H263 H 0.16423 0.83999 0.92122 0.0
Co264 Co 0.11375 0.29633 0.01168 0.0
C265 C 0.14901 0.26225 0.02137 0.0
C266 C 0.10542 0.2418 0.04528 0.0
C267 C 0.11976 0.22529 0.05266 0.0
N268 N 0.12349 0.26489 0.02544 0.0
N269 N 0.14723 0.23803 0.03767 0.0
H270 H 0.1685 0.2776 1.00704 0.0
H271 H 0.08337 0.23755 0.05424 0.0
C272 C 0.06432 0.2363 0.98503 0.0
O273 O 0.08576 0.22976 0.97687 0.0
N274 N 0.10367 0.32771 0.99886 0.0
C275 C 0.12057 0.35838 1.00421 0.0
C276 C 0.106 0.37269 0.99071 0.0
C277 C 0.07916 0.32395 0.98182 0.0
N278 N 0.08005 0.35106 0.97655 0.0
C279 C 0.16595 0.32004 0.97046 0.0
C280 C 0.13323 0.30773 0.91507 0.0
C281 C 0.16549 0.32705 0.91413 0.0
C282 C 0.18186 0.33238 0.94232 0.0
C283 C 0.11817 0.29578 0.94375 0.0
N284 N 0.13443 0.30217 0.9712 0.0
H285 H 0.17908 0.32639 0.99196 0.0
H286 H 0.09326 0.28335 0.94383 0.0
H287 H 0.14243 0.36995 0.01644 0.0
H288 H 0.06122 0.302 0.97295 0.0
O289 O 0.14832 0.32655 0.03642 0.0
O290 O 0.10023 0.29788 0.05361 0.0
O291 O 0.07206 0.26285 0.99624 0.0
C292 C 0.12855 0.31917 0.05925 0.0
H293 H 0.11085 0.20587 0.06866 0.0
H294 H 0.11456 0.39731 0.99018 0.0
H295 H 0.11942 0.30336 0.89411 0.0
H296 H 0.20679 0.34684 0.94289 0.0
Co297 Co 0.84589 0.76353 0.53993 0.0
C298 C 0.90288 0.78414 0.50168 0.0
C299 C 0.90246 0.82231 0.52364 0.0
C300 C 0.93051 0.83303 0.50883 0.0
N301 N 0.88484 0.7916 0.51896 0.0
N302 N 0.93081 0.80893 0.49531 0.0
H303 H 0.8969 0.76078 0.49596 0.0
H304 H 0.89684 0.83568 0.53925 0.0
C305 C 0.82178 0.80697 0.56203 0.0
O306 O 0.80018 0.78689 0.58071 0.0
N307 N 0.8076 0.73441 0.56093 0.0
C308 C 0.80552 0.71184 0.58 0.0
C309 C 0.77543 0.69336 0.58905 0.0
C310 C 0.77807 0.72828 0.5574 0.0
N311 N 0.75831 0.7038 0.57511 0.0
C312 C 0.88927 0.75775 0.57808 0.0
C313 C 0.86576 0.76318 0.6348 0.0
C314 C 0.88404 0.74907 0.63419 0.0
C315 C 0.89762 0.7486 0.60556 0.0
C316 C 0.85854 0.7728 0.60668 0.0
N317 N 0.86844 0.7678 0.57862 0.0
H318 H 0.89721 0.75373 0.55604 0.0
H319 H 0.84206 0.78066 0.60733 0.0
H320 H 0.82461 0.70856 0.58643 0.0
H321 H 0.77117 0.74107 0.54211 0.0
O322 O 0.84669 0.72823 0.52232 0.0
O323 O 0.82469 0.75268 0.5002 0.0
O324 O 0.84094 0.8008 0.54851 0.0
C325 C 0.83123 0.7306 0.49893 0.0
H326 H 0.95028 0.85611 0.51064 0.0
H327 H 0.76662 0.67356 0.60457 0.0
H328 H 0.85484 0.76433 0.65626 0.0
H329 H 0.91287 0.73912 0.60394 0.0
Co330 Co 0.29022 0.0847 0.5312 0.0
C331 C 0.26802 0.13025 0.52628 0.0
C332 C 0.24016 0.08839 0.50082 0.0
C333 C 0.2308 0.10901 0.49293 0.0
N334 N 0.26314 0.10128 0.52215 0.0
N335 N 0.24842 0.13546 0.50864 0.0
H336 H 0.28688 0.14774 0.53998 0.0
H337 H 0.23185 0.06593 0.49036 0.0
C338 C 0.22549 0.03232 0.54892 0.0
O339 O 0.21541 0.05164 0.55386 0.0
N340 N 0.31704 0.06708 0.53855 0.0
C341 C 0.3323 0.06037 0.51661 0.0
C342 C 0.34751 0.04714 0.53082 0.0
C343 C 0.32286 0.05701 0.5659 0.0
N344 N 0.34174 0.04515 0.56178 0.0
C345 C 0.32886 0.11987 0.58053 0.0
C346 C 0.28533 0.11216 0.6248 0.0
C347 C 0.31687 0.13073 0.63198 0.0
C348 C 0.33861 0.13445 0.60928 0.0
C349 C 0.27644 0.09737 0.5955 0.0
N350 N 0.29822 0.10107 0.57385 0.0
H351 H 0.34633 0.12347 0.56347 0.0
H352 H 0.25229 0.08367 0.59044 0.0
H353 H 0.33259 0.0645 0.49174 0.0
H354 H 0.31338 0.05807 0.58834 0.0
O355 O 0.32375 0.12079 0.51213 0.0
O356 O 0.29116 0.07825 0.48637 0.0
O357 O 0.25406 0.04238 0.54266 0.0
C358 C 0.31497 0.10619 0.48576 0.0
H359 H 0.21299 0.10512 0.4761 0.0
H360 H 0.36231 0.04014 0.51928 0.0
H361 H 0.26778 0.10903 0.64166 0.0
H362 H 0.36318 0.14914 0.61343 0.0
Co363 Co 0.95845 0.21122 0.52471 0.0
C364 C 0.92527 0.14356 0.51162 0.0
C365 C 0.96756 0.16752 0.48576 0.0
C366 C 0.95164 0.13713 0.47586 0.0
N367 N 0.95101 0.1716 0.50831 0.0
N368 N 0.92503 0.12214 0.49225 0.0
H369 H 0.90598 0.13892 0.52633 0.0
H370 H 0.98907 0.18572 0.47614 0.0
C371 C 1.01142 0.20426 0.54744 0.0
O372 O 0.99131 0.1754 0.55438 0.0
N373 N 0.96448 0.2502 0.54083 0.0
C374 C 0.94141 0.25672 0.5433 0.0
C375 C 0.95115 0.28257 0.56123 0.0
C376 C 0.98822 0.27254 0.55762 0.0
N377 N 0.98039 0.29242 0.57049 0.0
C378 C 0.90791 0.17765 0.56683 0.0
C379 C 0.94188 0.19599 0.62156 0.0
C380 C 0.90954 0.17981 0.62334 0.0
C381 C 0.89255 0.17 0.59557 0.0
C382 C 0.95643 0.20239 0.59221 0.0
N383 N 0.93949 0.19313 0.56512 0.0
H384 H 0.89409 0.17251 0.54591 0.0
H385 H 0.98122 0.21688 0.59155 0.0
H386 H 0.91825 0.24271 0.53427 0.0
H387 H 1.00991 0.27326 0.56194 0.0
O388 O 0.92205 0.20483 0.50182 0.0
O389 O 0.96982 0.22903 0.48314 0.0
O390 O 1.00181 0.22233 0.53817 0.0
C391 C 0.9407 0.21962 0.47876 0.0
H392 H 0.95875 0.12709 0.45753 0.0
H393 H 0.93745 0.29297 0.56768 0.0
H394 H 0.95576 0.20463 0.64258 0.0
H395 H 0.86751 0.15837 0.59596 0.0
Co396 Co 0.96281 0.53478 0.34652 0.0
C397 C 0.93619 0.46885 0.32975 0.0
C398 C 0.90085 0.48116 0.3324 0.0
C399 C 0.88734 0.45048 0.32405 0.0
N400 N 0.93149 0.49265 0.33625 0.0
N401 N 0.90964 0.44285 0.32221 0.0
H402 H 0.95859 0.47047 0.33043 0.0
H403 H 0.88903 0.49413 0.33475 0.0
C404 C 0.92625 0.56223 0.37879 0.0
O405 O 0.94879 0.57968 0.39805 0.0
N406 N 0.99532 0.57672 0.35638 0.0
C407 C 1.02363 0.58401 0.36688 0.0
C408 C 0.04026 0.61505 0.37315 0.0
C409 C 0.99578 0.60401 0.35497 0.0
N410 N 1.02261 0.62761 0.36623 0.0
C411 C 0.98911 0.50975 0.38858 0.0
C412 C 0.96933 0.52229 0.44403 0.0
C413 C 0.99278 0.51463 0.44497 0.0
C414 C 1.00147 0.50684 0.41684 0.0
C415 C 0.95708 0.52436 0.41508 0.0
N416 N 0.96884 0.52062 0.38758 0.0
H417 H 0.99767 0.50506 0.3674 0.0
H418 H 0.93853 0.52924 0.41527 0.0
H419 H 0.03151 0.56772 0.37073 0.0
H420 H 0.9765 0.60649 0.34727 0.0
O421 O 0.99297 0.52965 0.32282 0.0
O422 O 0.96354 0.54694 0.30311 0.0
O423 O 0.92833 0.54286 0.36078 0.0
C424 C 0.98482 0.53959 0.29862 0.0
H425 H 0.86311 0.4352 0.31888 0.0
H426 H 0.06277 0.62703 0.38424 0.0
H427 H 0.96083 0.52703 0.46542 0.0
H428 H 1.0191 0.50028 0.41636 0.0
Co429 Co 0.51428 0.43943 0.35815 0.0
C430 C 0.58104 0.47807 0.34179 0.0
C431 C 0.56398 0.42996 0.33349 0.0
C432 C 0.59449 0.44635 0.32429 0.0
N433 N 0.55557 0.44977 0.34476 0.0
N434 N 0.60536 0.47674 0.32933 0.0
H435 H 0.58139 0.49921 0.34775 0.0
H436 H 0.54884 0.4053 0.33138 0.0
C437 C 0.48965 0.37512 0.39039 0.0
O438 O 0.47356 0.37918 0.41223 0.0
N439 N 0.47297 0.43016 0.37116 0.0
C440 C 0.46625 0.45176 0.38092 0.0
C441 C 0.43599 0.43761 0.39066 0.0
C442 C 0.44594 0.40307 0.37383 0.0
N443 N 0.42334 0.40696 0.38673 0.0
C444 C 0.54038 0.49107 0.3998 0.0
C445 C 0.53289 0.45924 0.45499 0.0
C446 C 0.53961 0.49003 0.45653 0.0
C447 C 0.54475 0.50628 0.42836 0.0
C448 C 0.5293 0.44499 0.42571 0.0
N449 N 0.53079 0.46023 0.39852 0.0
H450 H 0.54287 0.50403 0.37873 0.0
H451 H 0.5249 0.42172 0.42537 0.0
H452 H 0.4825 0.47625 0.38189 0.0
H453 H 0.44282 0.38084 0.3673 0.0
O454 O 0.51822 0.47429 0.33408 0.0
O455 O 0.49934 0.42693 0.31581 0.0
O456 O 0.50726 0.39715 0.37179 0.0
C457 C 0.50657 0.45538 0.31066 0.0
H458 H 0.60748 0.43637 0.31459 0.0
H459 H 0.42478 0.4488 0.40188 0.0
H460 H 0.53002 0.44613 0.47622 0.0
H461 H 0.55033 0.53018 0.42823 0.0
Co462 Co 0.60739 0.08649 0.3659 0.0
C463 C 0.56961 0.11502 0.34714 0.0
C464 C 0.6183 0.14709 0.34449 0.0
C465 C 0.60276 0.16143 0.33357 0.0
N466 N 0.59761 0.11806 0.35333 0.0
N467 N 0.57205 0.14129 0.33498 0.0
H468 H 0.54802 0.09366 0.35024 0.0
H469 H 0.64311 0.15699 0.34473 0.0
C470 C 0.67172 0.12296 0.39739 0.0
O471 O 0.66768 0.10027 0.41599 0.0
N472 N 0.61666 0.05429 0.37754 0.0
C473 C 0.59666 0.02701 0.39093 0.0
C474 C 0.61148 1.0105 0.39618 0.0
C475 C 0.643 0.05326 0.37344 0.0
N476 N 0.64077 0.02719 0.38565 0.0
C477 C 0.55519 0.06179 0.40733 0.0
C478 C 0.58743 0.08131 0.46294 0.0
C479 C 0.55593 0.05883 0.46405 0.0
C480 C 0.53955 0.05019 0.43573 0.0
C481 C 0.60214 0.09263 0.43396 0.0
N482 N 0.58652 0.08133 0.40642 0.0
H483 H 0.54214 0.05317 0.38597 0.0
H484 H 0.62616 0.10984 0.43418 0.0
H485 H 0.57303 0.0197 0.39717 0.0
H486 H 0.66388 0.07181 0.36311 0.0
O487 O 0.57258 0.05612 0.34162 0.0
O488 O 0.62019 0.08528 0.32349 0.0
O489 O 0.64949 0.12094 0.38063 0.0
C490 C 0.59174 0.06401 0.31822 0.0
H491 H 0.61352 0.18494 0.32501 0.0
H492 H 0.60202 0.98875 0.40868 0.0
H493 H 0.6008 0.0897 0.4843 0.0
H494 H 0.51514 0.03315 0.43526 0.0
Co495 Co 0.89233 0.61588 0.82351 0.0
C496 C 0.95162 0.64941 0.78917 0.0
C497 C 0.9589 0.64853 0.83872 0.0
C498 C 0.98731 0.66357 0.82395 0.0
N499 N 0.9366 0.63976 0.81686 0.0
N500 N 0.98257 0.6642 0.79289 0.0
H501 H 0.94019 0.64554 0.7667 0.0
H502 H 0.95476 0.64416 0.86359 0.0
C503 C 0.88294 0.66087 0.8634 0.0
O504 O 0.85962 0.65775 0.84636 0.0
N505 N 0.84735 0.59062 0.82983 0.0
C506 C 0.82802 0.56726 0.81092 0.0
C507 C 0.79832 0.55444 0.82192 0.0
C508 C 0.82875 0.59042 0.85321 0.0
N509 N 0.79853 0.56904 0.84848 0.0
C510 C 0.87072 0.62643 0.76417 0.0
C511 C 0.9023 0.69019 0.76797 0.0
C512 C 0.8851 0.67629 0.74085 0.0
C513 C 0.869 0.64386 0.73933 0.0
C514 C 0.90318 0.67191 0.79234 0.0
N515 N 0.88708 0.64034 0.79065 0.0
H516 H 0.85985 0.60183 0.76141 0.0
H517 H 0.91821 0.68338 0.81198 0.0
H518 H 0.83478 0.55952 0.79038 0.0
H519 H 0.83695 0.60493 0.87368 0.0
O520 O 0.89193 0.58285 0.79908 0.0
O521 O 0.89816 0.58831 0.85052 0.0
O522 O 0.89674 0.64592 0.85704 0.0
C523 C 0.89701 0.57299 0.82559 0.0
H524 H 1.00973 0.67385 0.83519 0.0
H525 H 0.77804 0.5362 0.81056 0.0
H526 H 0.91605 0.71507 0.76993 0.0
H527 H 0.85546 0.6319 0.7189 0.0
Co528 Co 0.43477 0.28309 0.81693 0.0
C529 C 0.40265 0.31085 0.78318 0.0
C530 C 0.40488 0.31895 0.83282 0.0
C531 C 0.39123 0.33393 0.81872 0.0
N532 N 0.41198 0.30449 0.81054 0.0
N533 N 0.38983 0.3287 0.78763 0.0
H534 H 0.40544 0.3029 0.7605 0.0
H535 H 0.40963 0.31885 0.85755 0.0
C536 C 0.38672 0.22926 0.85627 0.0
O537 O 0.38747 0.20809 0.83875 0.0
N538 N 0.45906 0.26249 0.82347 0.0
C539 C 0.48442 0.26866 0.80662 0.0
C540 C 0.49604 0.25063 0.81703 0.0
C541 C 0.45662 0.24132 0.84507 0.0
N542 N 0.47836 0.23297 0.84092 0.0
C543 C 0.42492 0.24917 0.75956 0.0
C544 C 0.36094 0.21755 0.76175 0.0
C545 C 0.37568 0.21112 0.73743 0.0
C546 C 0.40812 0.22768 0.73626 0.0
C547 C 0.37868 0.2391 0.78474 0.0
N548 N 0.41031 0.25376 0.78416 0.0
H549 H 0.44971 0.26237 0.7575 0.0
H550 H 0.36688 0.24405 0.80307 0.0
H551 H 0.49419 0.28517 0.78769 0.0
H552 H 0.4397 0.23223 0.86358 0.0
O553 O 0.46838 0.31529 0.7923 0.0
O554 O 0.4628 0.31585 0.84379 0.0
O555 O 0.40408 0.25796 0.85046 0.0
C556 C 0.47858 0.32981 0.81886 0.0
H557 H 0.38242 0.34713 0.83041 0.0
H558 H 0.51612 0.25063 0.80756 0.0
H559 H 0.33595 0.20573 0.7633 0.0
H560 H 0.42048 0.22442 0.71718 0.0
Co561 Co 0.76542 0.15458 0.81347 0.0
C562 C 0.73902 0.09381 0.78144 0.0
C563 C 0.73704 0.08936 0.83161 0.0
C564 C 0.72403 0.06032 0.81872 0.0
N565 N 0.74655 0.11032 0.80826 0.0
N566 N 0.72537 0.06313 0.7872 0.0
H567 H 0.74335 0.10405 0.75828 0.0
H568 H 0.7394 0.09486 0.85632 0.0
C569 C 0.82084 0.16449 0.85258 0.0
O570 O 0.84131 0.18662 0.83453 0.0
N571 N 0.78355 0.19944 0.81914 0.0
C572 C 0.77504 0.21716 0.80269 0.0
C573 C 0.79071 0.24689 0.81357 0.0
C574 C 0.80411 0.21916 0.84057 0.0
N575 N 0.80909 0.24823 0.83723 0.0
C576 C 0.7998 0.18026 0.7562 0.0
C577 C 0.83044 0.14701 0.75714 0.0
C578 C 0.83597 0.16753 0.73236 0.0
C579 C 0.82047 0.18437 0.73208 0.0
C580 C 0.81016 0.14413 0.78116 0.0
N581 N 0.79537 0.16092 0.78077 0.0
H582 H 0.78685 0.19209 0.7546 0.0
H583 H 0.80587 0.12783 0.79985 0.0
H584 H 0.75841 0.20928 0.78381 0.0
H585 H 0.81436 0.21261 0.85911 0.0
O586 O 0.73208 0.1532 0.78851 0.0
O587 O 0.73164 0.1476 0.84018 0.0
O588 O 0.79194 0.15181 0.84716 0.0
C589 C 0.71719 0.14798 0.81501 0.0
H590 H 0.71485 0.03881 0.83158 0.0
H591 H 0.78908 0.26625 0.80445 0.0
H592 H 0.84171 0.13331 0.75794 0.0
H593 H 0.82354 0.19983 0.71282 0.0
Co594 Co 0.41589 0.16209 0.33023 0.0
C595 C 0.44302 0.22966 0.34617 0.0
C596 C 0.47346 0.21243 0.35708 0.0
C597 C 0.48729 0.24276 0.36646 0.0
N598 N 0.44608 0.20425 0.34329 0.0
N599 N 0.46812 0.25357 0.35976 0.0
H600 H 0.42267 0.23063 0.33963 0.0
H601 H 0.48234 0.19702 0.36145 0.0
C602 C 0.4765 0.17013 0.30492 0.0
O603 O 0.48386 0.1969 0.29215 0.0
N604 N 0.38587 0.11976 0.3181 0.0
C605 C 0.35501 0.1048 0.32313 0.0
C606 C 0.34201 0.07538 0.31133 0.0
C607 C 0.39098 0.09912 0.30257 0.0
N608 N 0.36461 0.0719 0.29838 0.0
C609 C 0.39485 0.19058 0.28636 0.0
C610 C 0.40614 0.16721 0.23265 0.0
C611 C 0.38826 0.18167 0.23039 0.0
C612 C 0.38347 0.19414 0.25771 0.0
C613 C 0.4174 0.16437 0.26191 0.0
N614 N 0.41136 0.17563 0.28851 0.0
H615 H 0.38805 0.19783 0.30711 0.0
H616 H 0.42917 0.15129 0.2632 0.0
H617 H 0.34232 0.11456 0.3339 0.0
H618 H 0.41329 0.1038 0.29399 0.0
O619 O 0.38354 0.16544 0.35168 0.0
O620 O 0.41317 0.14893 0.3731 0.0
O621 O 0.45029 0.154 0.3182 0.0
C622 C 0.3905 0.15445 0.37606 0.0
H623 H 0.50911 0.25545 0.37871 0.0
H624 H 0.31762 0.05828 0.31096 0.0
H625 H 0.41053 0.15724 0.21218 0.0
H626 H 0.36921 0.2048 0.25747 0.0
Co627 Co 0.87833 0.26194 0.32359 0.0
C628 C 0.81531 0.22236 0.35164 0.0
C629 C 0.83268 0.27072 0.35865 0.0
C630 C 0.80362 0.25456 0.37171 0.0
N631 N 0.83989 0.25065 0.34552 0.0
N632 N 0.79272 0.22418 0.36732 0.0
H633 H 0.81368 0.20087 0.34468 0.0
H634 H 0.84762 0.2955 0.35907 0.0
C635 C 0.89786 0.32503 0.29332 0.0
O636 O 0.9164 0.32292 0.27298 0.0
N637 N 0.91706 0.27315 0.3021 0.0
C638 C 0.92087 0.25767 0.27823 0.0
C639 C 0.95067 0.27419 0.26742 0.0
C640 C 0.94546 0.29814 0.30668 0.0
N641 N 0.96598 0.29968 0.28506 0.0
C642 C 0.84407 0.20788 0.28618 0.0
C643 C 0.85125 0.23836 0.23007 0.0
C644 C 0.8438 0.20733 0.22946 0.0
C645 C 0.83818 0.1916 0.25805 0.0
C646 C 0.8563 0.25367 0.25881 0.0
N647 N 0.85517 0.23906 0.28634 0.0
H648 H 0.84296 0.1958 0.30751 0.0
H649 H 0.86348 0.27777 0.25827 0.0
H650 H 0.90336 0.23596 0.26874 0.0
H651 H 0.95048 0.31576 0.32406 0.0
O652 O 0.88099 0.22916 0.34513 0.0
O653 O 0.90076 0.27708 0.3625 0.0
O654 O 0.88006 0.30207 0.31083 0.0
C655 C 0.89622 0.24937 0.36678 0.0
H656 H 0.79156 0.26438 0.38386 0.0
H657 H 0.96044 0.26802 0.248 0.0
H658 H 0.85486 0.25117 0.20846 0.0
H659 H 0.83223 0.1676 0.25879 0.0
Co660 Co 0.78246 0.63481 0.33932 0.0
C661 C 0.82303 0.60715 0.34986 0.0
C662 C 0.7764 0.57726 0.36504 0.0
C663 C 0.7935 0.56328 0.37183 0.0
N664 N 0.79463 0.60445 0.35046 0.0
N665 N 0.82285 0.58217 0.36243 0.0
H666 H 0.84366 0.6271 0.34121 0.0
H667 H 0.75241 0.56849 0.37115 0.0
C668 C 0.73178 0.57487 0.31138 0.0
O669 O 0.75231 0.56833 0.30014 0.0
N670 N 0.77026 0.6652 0.32874 0.0
C671 C 0.78459 0.69528 0.33702 0.0
C672 C 0.76962 0.70906 0.32321 0.0
C673 C 0.74685 0.66133 0.30979 0.0
N674 N 0.74602 0.68774 0.30595 0.0
C675 C 0.83391 0.66143 0.29695 0.0
C676 C 0.80056 0.64708 0.24187 0.0
C677 C 0.83276 0.66675 0.24049 0.0
C678 C 0.84942 0.67332 0.26856 0.0
C679 C 0.78592 0.6353 0.27082 0.0
N680 N 0.80251 0.64255 0.29811 0.0
H681 H 0.84729 0.66903 0.31821 0.0
H682 H 0.76105 0.62182 0.2711 0.0
H683 H 0.80512 0.70696 0.35134 0.0
H684 H 0.73102 0.63983 0.29842 0.0
O685 O 0.81698 0.66531 0.36396 0.0
O686 O 0.76966 0.6344 0.38206 0.0
O687 O 0.74062 0.60086 0.32454 0.0
C688 C 0.7977 0.65649 0.38739 0.0
H689 H 0.7853 0.54149 0.38393 0.0
H690 H 0.77653 0.73328 0.32453 0.0
H691 H 0.78664 0.64137 0.22082 0.0
H692 H 0.87419 0.68895 0.26891 0.0
Co693 Co 0.5115 0.08825 0.87799 0.0
C694 C 0.57055 0.10648 0.84472 0.0
C695 C 0.56185 0.14419 0.8465 0.0
C696 C 0.59023 0.15435 0.83258 0.0
N697 N 0.54943 0.11409 0.85435 0.0
N698 N 0.59574 0.13066 0.83179 0.0
H699 H 0.56815 0.08393 0.84778 0.0
H700 H 0.55212 0.1586 0.85184 0.0
C701 C 0.48801 0.13277 0.89651 0.0
O702 O 0.46824 0.11482 0.91788 0.0
N703 N 0.47396 0.06173 0.90158 0.0
C704 C 0.47229 0.04466 0.92689 0.0
C705 C 0.44246 0.02917 0.93767 0.0
C706 C 0.44442 0.05467 0.89612 0.0
N707 N 0.42505 0.03559 0.9185 0.0
C708 C 0.55328 0.08149 0.91831 0.0
C709 C 0.53885 0.10222 0.9721 0.0
C710 C 0.55411 0.08521 0.97472 0.0
C711 C 0.56294 0.07646 0.9473 0.0
C712 C 0.53049 0.10773 0.94242 0.0
N713 N 0.53586 0.0955 0.91615 0.0
H714 H 0.55712 0.07108 0.89808 0.0
H715 H 0.51686 0.11884 0.9412 0.0
H716 H 0.49131 0.04307 0.93686 0.0
H717 H 0.4374 0.06391 0.87684 0.0
O718 O 0.51102 0.05144 0.86278 0.0
O719 O 0.48861 0.07487 0.8394 0.0
O720 O 0.50699 0.12598 0.88364 0.0
C721 C 0.49501 0.05271 0.83932 0.0
H722 H 0.60647 0.17786 0.82562 0.0
H723 H 0.43395 1.01373 0.95768 0.0
H724 H 0.53174 0.10945 0.99287 0.0
H725 H 0.57452 0.06306 0.94835 0.0
Co726 Co 0.96245 0.42173 0.85704 0.0
C727 C 0.93788 0.46553 0.85187 0.0
C728 C 0.91212 0.4239 0.82537 0.0
C729 C 0.90109 0.44331 0.81816 0.0
N730 N 0.93485 0.43741 0.84687 0.0
N731 N 0.91734 0.4696 0.83456 0.0
H732 H 0.95582 0.48322 0.86628 0.0
H733 H 0.90472 0.40165 0.81479 0.0
C734 C 0.89802 0.3701 0.87634 0.0
O735 O 0.88813 0.38972 0.88018 0.0
N736 N 0.98968 0.40492 0.86565 0.0
C737 C 1.00412 0.39665 0.84422 0.0
C738 C 1.01887 0.38335 0.85921 0.0
C739 C 0.99568 0.39591 0.89355 0.0
N740 N 1.01365 0.38293 0.89018 0.0
C741 C 1.00165 0.46086 0.90428 0.0
C742 C 0.95872 0.45393 0.94896 0.0
C743 C 0.99005 0.47587 0.95398 0.0
C744 C 1.01153 0.47855 0.93139 0.0
C745 C 0.94967 0.43644 0.92111 0.0
N746 N 0.9711 0.44032 0.89891 0.0
H747 H 1.01894 0.46382 0.88728 0.0
H748 H 0.92557 0.42058 0.91749 0.0
H749 H 1.00391 0.39946 0.81916 0.0
H750 H 0.98668 0.39821 0.91581 0.0
O751 O 0.99542 0.45692 0.83591 0.0
O752 O 0.9627 0.41303 0.81252 0.0
O753 O 0.92661 0.37983 0.87041 0.0
C754 C 0.98637 0.44094 0.81033 0.0
H755 H 0.88286 0.43863 0.80157 0.0
H756 H 0.03278 0.37499 0.84818 0.0
H757 H 0.9413 0.451 0.96588 0.0
H758 H 0.03604 0.49446 0.93449 0.0
Co759 Co 0.62188 0.53913 0.87239 0.0
C760 C 0.58141 0.47526 0.84882 0.0
C761 C 0.6271 0.49581 0.8296 0.0
C762 C 0.60986 0.46622 0.81789 0.0
N763 N 0.60925 0.50134 0.8492 0.0
N764 N 0.58124 0.45337 0.8303 0.0
H765 H 0.56138 0.47207 0.86145 0.0
H766 H 0.6511 0.51207 0.82442 0.0
C767 C 0.68634 0.55813 0.89759 0.0
O768 O 0.68688 0.57952 0.91569 0.0
N769 N 0.63414 0.57721 0.89548 0.0
C770 C 0.62237 0.57963 0.9232 0.0
C771 C 0.63734 0.60977 0.93252 0.0
C772 C 0.65539 0.60668 0.88768 0.0
N773 N 0.65812 0.62667 0.91041 0.0
C774 C 0.56835 0.50532 0.91037 0.0
C775 C 0.59717 0.50156 0.96404 0.0
C776 C 0.5658 0.49326 0.96551 0.0
C777 C 0.55132 0.4942 0.93783 0.0
C778 C 0.61345 0.512 0.93554 0.0
N779 N 0.59925 0.51498 0.90937 0.0
H780 H 0.55667 0.50779 0.89031 0.0
H781 H 0.6378 0.51964 0.93538 0.0
H782 H 0.60388 0.56118 0.93623 0.0
H783 H 0.66919 0.61324 0.86652 0.0
O784 O 0.58928 0.54357 0.85279 0.0
O785 O 0.63632 0.56183 0.83327 0.0
O786 O 0.66153 0.53904 0.88317 0.0
C787 C 0.60867 0.55787 0.83019 0.0
H788 H 0.61796 0.45476 0.80228 0.0
H789 H 0.63294 0.6188 0.95372 0.0
H790 H 0.60927 0.50105 0.98491 0.0
H791 H 0.52736 0.48857 0.93772 0.0
Co792 Co 0.63437 0.87269 0.6735 0.0
C793 C 0.6019 0.8034 0.66685 0.0
C794 C 0.57643 0.82348 0.64748 0.0
C795 C 0.56102 0.79249 0.64061 0.0
N796 N 0.60193 0.83047 0.66429 0.0
N797 N 0.57696 0.77963 0.6527 0.0
H798 H 0.62009 0.80121 0.67792 0.0
H799 H 0.57014 0.84015 0.63951 0.0
C800 C 0.57649 0.86744 0.70221 0.0
O801 O 0.56936 0.84042 0.71414 0.0
N802 N 0.6667 0.91506 0.68204 0.0
C803 C 0.69687 0.9288 0.67395 0.0
C804 C 0.7123 0.95795 0.68679 0.0
C805 C 0.6644 0.93616 0.69985 0.0
N806 N 0.69189 0.96245 0.70325 0.0
C807 C 0.65986 0.84793 0.71701 0.0
C808 C 0.65061 0.87291 0.77067 0.0
C809 C 0.67001 0.86009 0.77233 0.0
C810 C 0.67378 0.84679 0.74504 0.0
C811 C 0.63699 0.87352 0.74204 0.0
N812 N 0.64199 0.86151 0.71536 0.0
H813 H 0.66542 0.83962 0.69615 0.0
H814 H 0.62421 0.88558 0.74128 0.0
H815 H 0.70745 0.91825 0.66054 0.0
H816 H 0.64323 0.93226 0.7108 0.0
O817 O 0.66314 0.8654 0.64957 0.0
O818 O 0.6342 0.88335 0.62989 0.0
O819 O 0.60214 0.88341 0.68776 0.0
C820 C 0.65481 0.87517 0.62523 0.0
H821 H 0.54032 0.7808 0.62649 0.0
H822 H 0.73693 0.97398 0.68538 0.0
H823 H 0.6467 0.8833 0.79108 0.0
H824 H 0.68894 0.83715 0.74469 0.0
Co825 Co 0.1731 0.77112 0.68229 0.0
C826 C 0.24109 0.80849 0.67048 0.0
C827 C 0.22174 0.76123 0.65655 0.0
C828 C 0.2527 0.77678 0.64919 0.0
N829 N 0.21448 0.78095 0.67021 0.0
N830 N 0.26507 0.80665 0.6578 0.0
H831 H 0.24255 0.82949 0.67897 0.0
H832 H 0.20543 0.73733 0.65142 0.0
C833 C 0.14999 0.70778 0.71714 0.0
O834 O 0.13392 0.71156 0.73922 0.0
N835 N 0.13151 0.76179 0.69399 0.0
C836 C 0.12386 0.78325 0.70172 0.0
C837 C 0.09383 0.76875 0.71229 0.0
C838 C 0.1053 0.73439 0.69872 0.0
N839 N 0.08231 0.73802 0.71092 0.0
C840 C 0.19664 0.82318 0.72306 0.0
C841 C 0.18934 0.79238 0.7789 0.0
C842 C 0.19403 0.82249 0.77963 0.0
C843 C 0.19928 0.83836 0.75124 0.0
C844 C 0.18755 0.77821 0.74998 0.0
N845 N 0.18862 0.79272 0.72241 0.0
H846 H 0.19913 0.83576 0.70172 0.0
H847 H 0.1849 0.7556 0.75018 0.0
H848 H 0.13942 0.80791 0.701 0.0
H849 H 0.10301 0.71214 0.69406 0.0
O850 O 0.17774 0.80554 0.65708 0.0
O851 O 0.15911 0.75791 0.63975 0.0
O852 O 0.16599 0.72935 0.69741 0.0
C853 C 0.16679 0.78637 0.63384 0.0
H854 H 0.26491 0.76656 0.63818 0.0
H855 H 0.08212 0.77996 0.72239 0.0
H856 H 0.18662 0.77975 0.80045 0.0
H857 H 0.20353 0.86182 0.75058 0.0
Co858 Co 0.27912 0.41857 0.70012 0.0
C859 C 0.24188 0.44449 0.67295 0.0
C860 C 0.28084 0.47858 0.69881 0.0
C861 C 0.26382 0.49157 0.68835 0.0
N862 N 0.26723 0.44902 0.68904 0.0
N863 N 0.23927 0.47011 0.67213 0.0
H864 H 0.22472 0.42254 0.66334 0.0
H865 H 0.30106 0.48982 0.71357 0.0
C866 C 0.34505 0.45717 0.72847 0.0
O867 O 0.34273 0.4349 0.74663 0.0
N868 N 0.28932 0.38695 0.71111 0.0
C869 C 0.26894 0.35963 0.72417 0.0
C870 C 0.28328 0.34277 0.7295 0.0
C871 C 0.31556 0.38566 0.70733 0.0
N872 N 0.31273 0.35929 0.71942 0.0
C873 C 0.22783 0.39673 0.74198 0.0
C874 C 0.26029 0.40986 0.79754 0.0
C875 C 0.22808 0.39009 0.79837 0.0
C876 C 0.21179 0.38471 0.77012 0.0
C877 C 0.27544 0.42144 0.76882 0.0
N878 N 0.25943 0.41332 0.74123 0.0
H879 H 0.21473 0.39116 0.72049 0.0
H880 H 0.29998 0.43608 0.76917 0.0
H881 H 0.24535 0.35269 0.73029 0.0
H882 H 0.33671 0.40409 0.69733 0.0
O883 O 0.2439 0.38704 0.67706 0.0
O884 O 0.29053 0.41732 0.65715 0.0
O885 O 0.32163 0.45416 0.71307 0.0
C886 C 0.26222 0.39528 0.65288 0.0
H887 H 0.26881 0.51488 0.69299 0.0
H888 H 0.27349 0.32101 0.74201 0.0
H889 H 0.27399 0.41528 0.81871 0.0
H890 H 0.18682 0.37062 0.76955 0.0
Co891 Co 0.56468 0.95371 0.16133 0.0
C892 C 0.62598 0.98801 0.13087 0.0
C893 C 0.62994 0.98977 0.18105 0.0
C894 C 0.65919 1.00623 0.16826 0.0
N895 N 0.60921 0.97859 0.15756 0.0
N896 N 0.65661 1.00523 0.13671 0.0
H897 H 0.61587 0.98245 0.10767 0.0
H898 H 0.62418 0.98635 0.20572 0.0
C899 C 0.55412 0.9976 0.20175 0.0
O900 O 0.53329 0.9972 0.18262 0.0
N901 N 0.51941 0.92732 0.16499 0.0
C902 C 0.50214 0.90211 0.1471 0.0
C903 C 0.47183 0.88799 0.15644 0.0
C904 C 0.49875 0.92751 0.18566 0.0
N905 N 0.46962 0.90398 0.18052 0.0
C906 C 0.54189 0.96694 0.1043 0.0
C907 C 0.5777 0.03058 0.10846 0.0
C908 C 0.55816 1.01768 0.08263 0.0
C909 C 0.53993 0.98546 0.08076 0.0
C910 C 0.57838 1.01131 0.13183 0.0
N911 N 0.56046 0.97984 0.12979 0.0
H912 H 0.52906 0.94226 0.10146 0.0
H913 H 0.594 0.02178 0.15133 0.0
H914 H 0.51068 0.89421 0.1281 0.0
H915 H 0.50454 0.94346 0.2048 0.0
O916 O 0.56636 0.92304 0.13482 0.0
O917 O 0.56976 0.92462 0.18666 0.0
O918 O 0.56668 0.98128 0.19649 0.0
C919 C 0.56998 0.91121 0.16072 0.0
H920 H 0.68061 1.01862 0.18121 0.0
H921 H 0.45266 0.86783 0.14586 0.0
H922 H 0.59236 0.05538 0.11055 0.0
H923 H 0.52509 0.97464 0.06072 0.0
Co924 Co 0.10343 0.6201 0.14739 0.0
C925 C 0.06859 0.64817 0.11764 0.0
C926 C 0.07408 0.65512 0.16741 0.0
C927 C 0.05812 0.66896 0.15628 0.0
N928 N 0.08073 0.64212 0.14328 0.0
N929 N 0.05456 0.66455 0.12505 0.0
H930 H 0.06998 0.64085 0.09415 0.0
H931 H 0.08023 0.65434 0.19157 0.0
C932 C 0.05637 0.5648 0.18581 0.0
O933 O 0.05947 0.54454 0.16903 0.0
N934 N 0.12711 0.59848 0.15233 0.0
C935 C 0.15085 0.60289 0.13366 0.0
C936 C 0.16443 0.587 0.14545 0.0
C937 C 0.12743 0.5803 0.17606 0.0
N938 N 0.1497 0.57263 0.17198 0.0
C939 C 0.09431 0.59292 0.08618 0.0
C940 C 0.03066 0.55614 0.08908 0.0
C941 C 0.04602 0.55521 0.06194 0.0
C942 C 0.07829 0.57418 0.06072 0.0
C943 C 0.04764 0.57549 0.11403 0.0
N944 N 0.07927 0.59274 0.11292 0.0
H945 H 0.11884 0.60815 0.08395 0.0
H946 H 0.03514 0.57711 0.13386 0.0
H947 H 0.15905 0.61782 0.11338 0.0
H948 H 0.11297 0.57402 0.19667 0.0
O949 O 0.1377 0.65315 0.12417 0.0
O950 O 0.13185 0.6517 0.17566 0.0
O951 O 0.07219 0.5936 0.17984 0.0
C952 C 0.14803 0.66652 0.1512 0.0
H953 H 0.04906 0.68067 0.17027 0.0
H954 H 0.18398 0.58629 0.13542 0.0
H955 H 1.00569 0.54271 0.0907 0.0
H956 H 0.09122 0.57459 0.04019 0.0
Co957 Co 0.42599 0.48596 0.15219 0.0
C958 C 0.39608 0.42342 0.12421 0.0
C959 C 0.39058 0.4214 0.17422 0.0
C960 C 0.37697 0.39164 0.1628 0.0
N961 N 0.40266 0.44126 0.15001 0.0
N962 N 0.38065 0.39296 0.13137 0.0
H963 H 0.40283 0.43256 0.10071 0.0
H964 H 0.39214 0.4281 0.19853 0.0
C965 C 0.47987 0.49514 0.19364 0.0
O966 O 0.50081 0.51693 0.17562 0.0
N967 N 0.44892 0.53133 0.15399 0.0
C968 C 0.44596 0.54979 0.13272 0.0
C969 C 0.46313 0.58 0.14189 0.0
C970 C 0.46748 0.55111 0.17657 0.0
N971 N 0.47682 0.58089 0.16926 0.0
C972 C 0.45567 0.49965 0.09138 0.0
C973 C 0.48898 0.46978 0.10131 0.0
C974 C 0.49217 0.48482 0.07277 0.0
C975 C 0.47495 0.49951 0.06766 0.0
C976 C 0.46922 0.47019 0.12427 0.0
N977 N 0.45378 0.48609 0.11975 0.0
H978 H 0.44163 0.50988 0.0865 0.0
H979 H 0.46574 0.4569 0.14539 0.0
H980 H 0.43139 0.54205 0.11221 0.0
H981 H 0.47307 0.54416 0.19846 0.0
O982 O 0.39378 0.4872 0.12704 0.0
O983 O 0.39481 0.48562 0.1788 0.0
O984 O 0.45116 0.48213 0.18697 0.0
C985 C 0.38065 0.48659 0.15371 0.0
H986 H 0.36621 0.37069 0.1767 0.0
H987 H 0.46536 0.59992 0.12946 0.0
H988 H 0.50111 0.45724 0.10555 0.0
H989 H 0.47615 0.51051 0.04538 0.0
Co990 Co 0.08896 0.49892 0.65431 0.0
C991 C 0.11102 0.56215 0.68151 0.0
C992 C 0.14849 0.55504 0.66894 0.0
C993 C 0.16057 0.5846 0.67977 0.0
N994 N 0.11732 0.54057 0.66999 0.0
N995 N 0.13717 0.58941 0.6874 0.0
H996 H 0.0879 0.55847 0.68432 0.0
H997 H 0.16214 0.54573 0.65973 0.0
C998 C 0.1331 0.47657 0.6291 0.0
O999 O 0.11347 0.45566 0.60963 0.0
N1000 N 0.05995 0.45793 0.63855 0.0
C1001 C 0.03417 0.4517 0.62251 0.0
C1002 C 1.01805 0.42093 0.61533 0.0
C1003 C 0.05848 0.43026 0.64194 0.0
N1004 N 0.03341 0.40755 0.62722 0.0
C1005 C 0.07038 0.53138 0.61318 0.0
C1006 C 0.08338 0.51168 0.5579 0.0
C1007 C 0.06322 0.52363 0.5571 0.0
C1008 C 0.05814 0.53503 0.5851 0.0
C1009 C 0.09506 0.50835 0.58659 0.0
N1010 N 0.08692 0.51638 0.61401 0.0
H1011 H 0.06396 0.53803 0.63466 0.0
H1012 H 0.10882 0.49744 0.58662 0.0
H1013 H 1.02742 0.46845 0.61637 0.0
H1014 H 0.07533 0.4268 0.65453 0.0
O1015 O 0.05405 0.49841 0.67489 0.0
O1016 O 0.08429 0.48257 0.69613 0.0
O1017 O 0.12649 0.49502 0.64337 0.0
C1018 C 0.0605 0.48636 0.69874 0.0
H1019 H 0.18496 0.60148 0.6812 0.0
H1020 H 0.99697 0.40928 0.60169 0.0
H1021 H 0.089 0.50363 0.53673 0.0
H1022 H 0.0429 0.54455 0.5859 0.0
Co1023 Co 0.55617 0.60156 0.66948 0.0
C1024 C 0.48921 0.56134 0.6861 0.0
C1025 C 0.50669 0.60837 0.69975 0.0
C1026 C 0.47628 0.59125 0.70931 0.0
N1027 N 0.51467 0.58985 0.68435 0.0
N1028 N 0.4654 0.56166 0.70088 0.0
H1029 H 0.4881 0.54053 0.67764 0.0
H1030 H 0.5222 0.63257 0.70454 0.0
C1031 C 0.5447 0.65131 0.64309 0.0
O1032 O 0.51668 0.63024 0.63452 0.0
N1033 N 0.59719 0.61228 0.65486 0.0
C1034 C 0.60665 0.59149 0.65142 0.0
C1035 C 0.63351 0.60454 0.63442 0.0
C1036 C 0.61872 0.63796 0.63966 0.0
N1037 N 0.64099 0.6336 0.62677 0.0
C1038 C 0.52859 0.54951 0.62838 0.0
C1039 C 0.54696 0.58246 0.57295 0.0
C1040 C 0.53585 0.55051 0.572 0.0
C1041 C 0.52581 0.534 0.60027 0.0
C1042 C 0.54954 0.59716 0.60166 0.0
N1043 N 0.5407 0.58081 0.62916 0.0
H1044 H 0.5234 0.5364 0.64982 0.0
H1045 H 0.56101 0.622 0.6017 0.0
H1046 H 0.594 0.56769 0.65906 0.0
H1047 H 0.61729 0.65867 0.63643 0.0
O1048 O 0.55448 0.56775 0.69362 0.0
O1049 O 0.57185 0.61516 0.71139 0.0
O1050 O 0.56315 0.64312 0.65453 0.0
C1051 C 0.56672 0.58738 0.71645 0.0
H1052 H 0.46357 0.59963 0.72265 0.0
H1053 H 0.64625 0.59324 0.62755 0.0
H1054 H 0.55483 0.59637 0.55185 0.0
H1055 H 0.51776 0.5095 0.60118 0.0
Co1056 Co 0.44527 0.95959 0.6784 0.0
C1057 C 0.48381 0.92886 0.6858 0.0
C1058 C 0.4381 0.90229 0.70472 0.0
C1059 C 0.45397 0.88699 0.71078 0.0
N1060 N 0.45648 0.92834 0.68858 0.0
N1061 N 0.48292 0.90367 0.6991 0.0
H1062 H 0.50422 0.94768 0.67534 0.0
H1063 H 0.41473 0.8951 0.7121 0.0
C1064 C 0.39421 0.90063 0.64964 0.0
O1065 O 0.41448 0.89351 0.63887 0.0
N1066 N 0.43371 0.99065 0.6688 0.0
C1067 C 0.4485 0.02064 0.67737 0.0
C1068 C 0.43344 0.03479 0.6645 0.0
C1069 C 0.40997 0.98719 0.6506 0.0
N1070 N 0.40931 1.01376 0.64755 0.0
C1071 C 0.49657 0.98692 0.63596 0.0
C1072 C 0.46287 0.97382 0.58119 0.0
C1073 C 0.49495 0.99423 0.57978 0.0
C1074 C 0.51181 1.00009 0.60772 0.0
C1075 C 0.44847 0.96119 0.61 0.0
N1076 N 0.46521 0.96787 0.63715 0.0
H1077 H 0.51007 0.99365 0.6572 0.0
H1078 H 0.42362 0.94761 0.61033 0.0
H1079 H 0.46929 0.03196 0.69136 0.0
H1080 H 0.39369 0.96584 0.63928 0.0
O1081 O 0.48 0.98916 0.70352 0.0
O1082 O 0.43252 0.9585 0.72127 0.0
O1083 O 0.40333 0.92651 0.66314 0.0
C1084 C 0.4607 0.98008 0.72695 0.0
H1085 H 0.4446 0.86521 0.72309 0.0
H1086 H 0.44053 0.05903 0.66634 0.0
H1087 H 0.44871 0.96825 0.56035 0.0
H1088 H 0.53648 1.01611 0.60824 0.0
Co1089 Co 0.17562 0.42578 0.21198 0.0
C1090 C 0.24235 0.46043 0.19275 0.0
C1091 C 0.21375 0.4682 0.16111 0.0
C1092 C 0.24311 0.48103 0.14839 0.0
N1093 N 0.21307 0.45485 0.1889 0.0
N1094 N 0.26102 0.476 0.1684 0.0
H1095 H 0.25004 0.4522 0.21202 0.0
H1096 H 0.19385 0.46726 0.14995 0.0
C1097 C 0.18494 0.48884 0.22411 0.0
O1098 O 0.21447 0.49859 0.22834 0.0
N1099 N 0.13883 0.39611 0.23442 0.0
C1100 C 0.13698 0.3724 0.25131 0.0
C1101 C 0.10887 0.35735 0.2661 0.0
C1102 C 0.1113 0.3947 0.23854 0.0
N1103 N 0.09277 0.37131 0.25816 0.0
C1104 C 0.21463 0.41553 0.25308 0.0
C1105 C 0.19671 0.43214 0.30736 0.0
C1106 C 0.21245 0.41555 0.30956 0.0
C1107 C 0.22258 0.40848 0.28199 0.0
C1108 C 0.19027 0.43996 0.27774 0.0
N1109 N 0.19845 0.43088 0.25089 0.0
H1110 H 0.21927 0.40608 0.23245 0.0
H1111 H 0.17579 0.45026 0.27659 0.0
H1112 H 0.15492 0.36639 0.25284 0.0
H1113 H 0.10502 0.41036 0.22765 0.0
O1114 O 0.17887 0.39203 0.1936 0.0
O1115 O 0.15298 0.41316 0.17312 0.0
O1116 O 0.16597 0.45989 0.22132 0.0
C1117 C 0.16176 0.39281 0.17103 0.0
H1118 H 0.2504 0.49229 0.12578 0.0
H1119 H 0.10044 0.33702 0.28081 0.0
H1120 H 0.18805 0.43754 0.32824 0.0
H1121 H 0.23409 0.395 0.28267 0.0
Co1122 Co 0.62839 0.755 0.18265 0.0
C1123 C 0.60407 0.79854 0.17976 0.0
C1124 C 0.57756 0.75791 0.15202 0.0
C1125 C 0.5671 0.7781 0.14608 0.0
N1126 N 0.60045 0.77042 0.17347 0.0
N1127 N 0.58384 0.80372 0.16334 0.0
H1128 H 0.62234 0.81558 0.19437 0.0
H1129 H 0.56972 0.73594 0.14062 0.0
C1130 C 0.56487 0.70393 0.20446 0.0
O1131 O 0.55491 0.7236 0.20734 0.0
N1132 N 0.65642 0.73915 0.19089 0.0
C1133 C 0.67237 0.73254 0.16973 0.0
C1134 C 0.68788 0.72015 0.18496 0.0
C1135 C 0.66235 0.7302 0.21883 0.0
N1136 N 0.68165 0.71874 0.21581 0.0
C1137 C 0.66917 0.79645 0.22773 0.0
C1138 C 0.62821 0.78596 0.27594 0.0
C1139 C 0.65968 0.80774 0.28028 0.0
C1140 C 0.68008 0.81284 0.25554 0.0
C1141 C 0.61816 0.76963 0.2475 0.0
N1142 N 0.63866 0.77498 0.22377 0.0
H1143 H 0.68565 0.80069 0.20931 0.0
H1144 H 0.5941 0.75296 0.24493 0.0
H1145 H 0.67285 0.73605 0.14475 0.0
H1146 H 0.65243 0.73161 0.24087 0.0
O1147 O 0.65972 0.78948 0.15887 0.0
O1148 O 0.62653 0.74397 0.13867 0.0
O1149 O 0.59342 0.71358 0.19838 0.0
C1150 C 0.64929 0.77205 0.13426 0.0
H1151 H 0.549 0.77447 0.12974 0.0
H1152 H 0.70303 0.71317 0.17419 0.0
H1153 H 0.61161 0.78124 0.29448 0.0
H1154 H 0.70447 0.82971 0.25746 0.0
Co1155 Co 0.29423 0.88041 0.1868 0.0
C1156 C 0.25628 0.81181 0.17982 0.0
C1157 C 0.30004 0.83076 0.15654 0.0
C1158 C 0.28264 0.79988 0.14903 0.0
N1159 N 0.28365 0.83832 0.17609 0.0
N1160 N 0.2551 0.78802 0.16368 0.0
H1161 H 0.23671 0.8101 0.1922 0.0
H1162 H 0.32262 0.84698 0.14722 0.0
C1163 C 0.34625 0.87277 0.21227 0.0
O1164 O 0.32591 0.84464 0.22133 0.0
N1165 N 0.30461 0.92271 0.19661 0.0
C1166 C 0.2934 0.93934 0.18247 0.0
C1167 C 0.30668 0.96817 0.19564 0.0
C1168 C 0.3244 0.94193 0.21867 0.0
N1169 N 0.32605 0.96973 0.21833 0.0
C1170 C 0.24381 0.85429 0.23008 0.0
C1171 C 0.27755 0.86926 0.28494 0.0
C1172 C 0.24528 0.85513 0.2866 0.0
C1173 C 0.22841 0.84729 0.25875 0.0
C1174 C 0.29212 0.87504 0.25557 0.0
N1175 N 0.27527 0.8675 0.22841 0.0
H1176 H 0.23008 0.84946 0.20917 0.0
H1177 H 0.31698 0.88672 0.25509 0.0
H1178 H 0.2762 0.93131 0.16418 0.0
H1179 H 0.33737 0.93594 0.23466 0.0
O1180 O 0.25825 0.87386 0.16323 0.0
O1181 O 0.30521 0.8923 0.14338 0.0
O1182 O 0.33707 0.89052 0.20101 0.0
C1183 C 0.27632 0.88396 0.1389 0.0
H1184 H 0.28942 0.78735 0.13335 0.0
H1185 H 0.30159 0.98626 0.1899 0.0
H1186 H 0.29138 0.8761 0.3061 0.0
H1187 H 0.20347 0.837 0.2591 0.0
C1188 C 0.36265 0.19694 0.90418 0.0
C1189 C 0.36632 0.22064 0.88384 0.0
H1190 H 0.34467 0.17411 0.94828 0.0
C1191 C 0.35246 0.23825 0.89142 0.0
H1192 H 0.37338 0.18327 0.89891 0.0
C1193 C 0.33568 0.2327 0.91914 0.0
C1194 C 0.33313 0.20998 0.94023 0.0
H1195 H 0.35498 0.25666 0.87603 0.0
H1196 H 0.32565 0.24697 0.92458 0.0
C1197 C 0.34648 0.19191 0.93243 0.0
C1198 C 0.85578 0.16427 0.93106 0.0
C1199 C 0.83974 0.13251 0.93817 0.0
H1200 H 0.86305 0.19948 0.89747 0.0
C1201 C 0.82001 0.11153 0.91561 0.0
H1202 H 0.87128 0.1809 0.94803 0.0
C1203 C 0.81506 0.12215 0.88718 0.0
C1204 C 0.8303 0.15388 0.8804 0.0
H1205 H 0.80737 0.08695 0.92041 0.0
H1206 H 0.79869 0.10555 0.8707 0.0
C1207 C 0.85134 0.17489 0.90214 0.0
C1208 C 0.87262 0.68321 0.91133 0.0
C1209 C 0.89362 0.6813 0.89091 0.0
H1210 H 0.86641 0.70004 0.95543 0.0
C1211 C 0.92525 0.69707 0.89835 0.0
H1212 H 0.84809 0.67099 0.90616 0.0
C1213 C 0.93572 0.71395 0.92601 0.0
C1214 C 0.9147 0.71481 0.94719 0.0
H1215 H 0.9419 0.69598 0.88291 0.0
H1216 H 0.96021 0.72544 0.93128 0.0
C1217 C 0.88306 0.69958 0.93952 0.0
C1218 C 0.26291 0.36457 0.57242 0.0
C1219 C 0.23152 0.3499 0.56402 0.0
H1220 H 0.2972 0.39086 0.60691 0.0
C1221 C 0.21026 0.35126 0.58449 0.0
H1222 H 0.27974 0.3638 0.55699 0.0
C1223 C 0.22016 0.36606 0.61355 0.0
C1224 C 0.25155 0.38036 0.62206 0.0
H1225 H 0.1859 0.33984 0.57861 0.0
H1226 H 0.2033 0.36624 0.62937 0.0
C1227 C 0.27289 0.38002 0.60095 0.0
C1228 C 0.68517 0.86293 0.58688 0.0
C1229 C 0.66988 0.87923 0.59443 0.0
H1230 H 0.71388 0.85661 0.55371 0.0
C1231 C 0.67068 0.90098 0.57302 0.0
H1232 H 0.68483 0.84597 0.60298 0.0
C1233 C 0.68773 0.90746 0.54531 0.0
C1234 C 0.70363 0.89174 0.53806 0.0
H1235 H 0.65921 0.91395 0.57827 0.0
H1236 H 0.68894 0.92521 0.52976 0.0
C1237 C 0.70159 0.86885 0.55867 0.0
C1238 C 0.1772 0.83748 0.56376 0.0
C1239 C 0.15423 0.81651 0.54341 0.0
H1240 H 0.19871 0.84438 0.60886 0.0
C1241 C 0.13648 0.78534 0.55239 0.0
H1242 H 0.19096 0.86167 0.55749 0.0
C1243 C 0.14124 0.77535 0.5814 0.0
C1244 C 0.16326 0.79653 0.60234 0.0
H1245 H 0.11859 0.76872 0.53708 0.0
H1246 H 0.12697 0.75127 0.58786 0.0
C1247 C 0.1814 0.82763 0.59319 0.0
C1248 C 0.68641 0.77397 0.05662 0.0
C1249 C 0.70121 0.80554 0.04917 0.0
H1250 H 0.65703 0.73829 0.0889 0.0
C1251 C 0.69672 0.82562 0.0684 0.0
H1252 H 0.68959 0.75813 0.04196 0.0
C1253 C 0.67903 0.81451 0.09578 0.0
C1254 C 0.66472 0.783 0.10364 0.0
H1255 H 0.70809 0.85008 0.06307 0.0
H1256 H 0.67696 0.83062 0.11109 0.0
C1257 C 0.66776 0.76265 0.08333 0.0
C1258 C 0.22387 0.87814 0.07215 0.0
C1259 C 0.24279 0.90586 0.05609 0.0
H1260 H 0.21967 0.84968 0.11179 0.0
C1261 C 0.27334 0.92511 0.06611 0.0
H1262 H 0.20019 0.86304 0.06479 0.0
C1263 C 0.28476 0.91697 0.0921 0.0
C1264 C 0.26546 0.88999 0.10908 0.0
H1265 H 0.28834 0.94655 0.05391 0.0
H1266 H 0.30824 0.9325 0.09975 0.0
C1267 C 0.23496 0.87054 0.0989 0.0
C1268 C 0.16679 0.34879 0.10158 0.0
C1269 C 0.1369 0.33624 0.08904 0.0
H1270 H 0.19789 0.37596 0.13842 0.0
C1271 C 0.11501 0.34131 0.10444 0.0
H1272 H 0.18403 0.34517 0.09004 0.0
C1273 C 0.12316 0.35954 0.13132 0.0
C1274 C 0.153 0.37212 0.14386 0.0
H1275 H 0.09188 0.33209 0.09506 0.0
H1276 H 0.10615 0.36388 0.14229 0.0
C1277 C 0.17464 0.36619 0.1292 0.0
C1278 C 0.84287 0.70178 0.45846 0.0
C1279 C 0.82217 0.70986 0.47172 0.0
H1280 H 0.85161 0.67903 0.42043 0.0
C1281 C 0.79308 0.69911 0.45792 0.0
H1282 H 0.8655 0.70993 0.4687 0.0
C1283 C 0.78477 0.68059 0.4312 0.0
C1284 C 0.80586 0.67349 0.41719 0.0
H1285 H 0.77676 0.70505 0.46781 0.0
H1286 H 0.76226 0.67279 0.42079 0.0
C1287 C 0.83501 0.68423 0.43094 0.0
C1288 C 0.36608 0.13297 0.45995 0.0
C1289 C 0.33386 0.11958 0.45765 0.0
H1290 H 0.40934 0.15425 0.43549 0.0
C1291 C 0.32043 0.11954 0.42883 0.0
H1292 H 0.37682 0.13322 0.48212 0.0
C1293 C 0.33917 0.13274 0.40244 0.0
C1294 C 0.37133 0.14493 0.40446 0.0
H1295 H 0.29561 0.10957 0.42681 0.0
H1296 H 0.32839 0.13235 0.38029 0.0
C1297 C 0.38463 0.14505 0.43342 0.0
C1298 C 0.94775 0.25511 0.43438 0.0
C1299 C 0.92959 0.22667 0.44961 0.0
H1300 H 0.95089 0.2849 0.39649 0.0
C1301 C 0.90054 0.2055 0.43717 0.0
H1302 H 0.97016 0.27187 0.44366 0.0
C1303 C 0.88997 0.21255 0.40968 0.0
C1304 C 0.90782 0.24133 0.39494 0.0
H1305 H 0.88617 0.18341 0.44854 0.0
H1306 H 0.86755 0.19586 0.40038 0.0
C1307 C 0.93671 0.26261 0.40757 0.0
C1308 C 1.01451 0.52616 0.26085 0.0
C1309 C 1.00001 0.54334 0.26801 0.0
H1310 H 0.0432 0.51891 0.22847 0.0
C1311 C 1.00186 0.56545 0.24651 0.0
H1312 H 1.01324 0.50882 0.27703 0.0
C1313 C 1.01939 0.57154 0.21919 0.0
C1314 C 0.03472 0.55509 0.21248 0.0
H1315 H 0.99095 0.57901 0.25147 0.0
H1316 H 1.02153 0.58965 0.20357 0.0
C1317 C 0.03144 0.53173 0.23306 0.0
C1318 C 0.51273 0.50623 0.24168 0.0
C1319 C 0.48886 0.48499 0.22229 0.0
H1320 H 0.53664 0.51354 0.28548 0.0
C1321 C 0.4718 0.45387 0.23159 0.0
H1322 H 0.52603 0.53038 0.2351 0.0
C1323 C 0.47821 0.44416 0.25991 0.0
C1324 C 0.50125 0.46553 0.27991 0.0
H1325 H 0.45328 0.43702 0.217 0.0
H1326 H 0.46448 0.42007 0.26657 0.0
C1327 C 0.5186 0.49664 0.27051 0.0
C1328 C 0.59472 0.03174 0.2394 0.0
C1329 C 0.56358 1.01684 0.23012 0.0
H1330 H 0.62806 0.05886 0.27431 0.0
C1331 C 0.54177 1.01875 0.24927 0.0
H1332 H 0.61196 0.03067 0.22491 0.0
C1333 C 0.55088 0.03428 0.27801 0.0
C1334 C 0.58202 0.04879 0.28745 0.0
H1335 H 0.5176 1.00723 0.24263 0.0
H1336 H 0.53359 0.03482 0.29289 0.0
C1337 C 0.60393 0.04791 0.26759 0.0
C1338 C 0.49936 1.00914 0.76922 0.0
C1339 C 0.46913 0.99603 0.75742 0.0
H1340 H 0.53101 0.03664 0.80555 0.0
C1341 C 0.44706 0.99993 0.77405 0.0
H1342 H 0.51675 1.00647 0.75674 0.0
C1343 C 0.45541 1.01783 0.8012 0.0
C1344 C 0.48564 0.03117 0.81283 0.0
H1345 H 0.42366 0.99029 0.76528 0.0
H1346 H 0.43834 0.0216 0.81292 0.0
C1347 C 0.50743 0.02617 0.79711 0.0
C1348 C 0.05514 0.48133 0.75657 0.0
C1349 C 0.04113 0.47611 0.72705 0.0
H1350 H 0.04845 0.47474 0.80614 0.0
C1351 C 1.0087 0.45943 0.72483 0.0
H1352 H 0.08011 0.49402 0.75877 0.0
C1353 C 0.99054 0.44742 0.75188 0.0
C1354 C 1.00467 0.45297 0.78143 0.0
H1355 H 0.9975 0.45488 0.70215 0.0
H1356 H 0.96559 0.43413 0.74977 0.0
C1357 C 0.03705 0.47034 0.78357 0.0
C1358 C 0.60424 0.55713 0.7721 0.0
C1359 C 0.59873 0.56641 0.80124 0.0
H1360 H 0.59722 0.55557 0.72234 0.0
C1361 C 0.58211 0.58217 0.80248 0.0
H1362 H 0.61668 0.54458 0.77071 0.0
C1363 C 0.5718 0.58925 0.77481 0.0
C1364 C 0.57678 0.5794 0.74572 0.0
H1365 H 0.57747 0.58933 0.8248 0.0
H1366 H 0.55954 0.60196 0.77615 0.0
C1367 C 0.59286 0.56309 0.74458 0.0
C1368 C 0.34651 0.33808 0.11679 0.0
C1369 C 0.3723 0.36728 0.11043 0.0
H1370 H 0.31968 0.29052 0.10329 0.0
C1371 C 0.39051 0.37065 0.08396 0.0
H1372 H 0.3319 0.33476 0.13685 0.0
C1373 C 0.38358 0.34528 0.06481 0.0
C1374 C 0.35804 0.31598 0.07139 0.0
H1375 H 0.41069 0.3927 0.07853 0.0
H1376 H 0.39829 0.34858 0.04484 0.0
C1377 C 0.33934 0.31278 0.09739 0.0
C1378 C 0.70032 0.04775 0.06432 0.0
C1379 C 0.73036 0.05372 0.07116 0.0
H1380 H 0.65331 0.02762 0.07975 0.0
C1381 C 0.73549 0.04265 0.09956 0.0
H1382 H 0.69559 0.05581 0.04258 0.0
C1383 C 0.71128 0.02651 0.12087 0.0
C1384 C 0.68129 0.02079 0.11417 0.0
H1385 H 0.7584 0.04715 0.10574 0.0
H1386 H 0.71604 1.0185 0.14262 0.0
C1387 C 0.67603 0.03134 0.0855 0.0
C1388 C 0.99891 0.66204 0.06403 0.0
C1389 C 0.99815 0.68924 0.07063 0.0
H1390 H 1.01791 0.63309 0.07585 0.0
C1391 C 1.01808 0.7092 0.0938 0.0
H1392 H 0.98405 0.64633 0.04612 0.0
C1393 C 0.03724 0.7015 0.1109 0.0
C1394 C 0.03734 0.67389 0.10496 0.0
H1395 H 1.01797 0.73019 0.09962 0.0
H1396 H 0.05169 0.71696 0.1292 0.0
C1397 C 1.01848 0.65458 0.08083 0.0
C1398 C 0.34318 0.36866 0.42003 0.0
C1399 C 0.34474 0.34881 0.44239 0.0
H1400 H 0.36754 0.40313 0.38461 0.0
C1401 C 0.37105 0.34552 0.44313 0.0
H1402 H 0.32318 0.37168 0.41915 0.0
C1403 C 0.39588 0.36269 0.42277 0.0
C1404 C 0.39527 0.38415 0.40187 0.0
H1405 H 0.37267 0.33024 0.46009 0.0
H1406 H 0.41636 0.36068 0.42485 0.0
C1407 C 0.36842 0.38652 0.40028 0.0
C1408 C 0.68225 0.98523 0.40926 0.0
C1409 C 0.70855 1.009 0.42393 0.0
H1410 H 0.63963 0.97254 0.3854 0.0
C1411 C 0.71426 0.03941 0.42172 0.0
H1412 H 0.6773 0.96158 0.41092 0.0
C1413 C 0.69322 0.04578 0.40657 0.0
C1414 C 0.66559 0.02173 0.39411 0.0
H1415 H 0.7344 0.05806 0.43292 0.0
H1416 H 0.69747 0.06917 0.40667 0.0
C1417 C 0.66075 0.99149 0.3948 0.0
C1418 C 1.00513 0.65865 0.39528 0.0
C1419 C 1.02821 0.65693 0.37813 0.0
H1420 H 0.99488 0.68419 0.42882 0.0
C1421 C 0.05834 0.68266 0.37796 0.0
H1422 H 0.98184 0.63925 0.3961 0.0
C1423 C 0.06564 0.70869 0.39621 0.0
C1424 C 0.04309 0.70905 0.4155 0.0
H1425 H 0.07657 0.68187 0.36502 0.0
H1426 H 0.08933 0.72752 0.39706 0.0
C1427 C 1.0126 0.68426 0.41416 0.0
C1428 C 0.67478 0.67847 0.88959 0.0
C1429 C 0.67773 0.6595 0.91189 0.0
H1430 H 0.6826 0.72379 0.87919 0.0
C1431 C 0.69499 0.67275 0.93919 0.0
H1432 H 0.66121 0.66852 0.8686 0.0
C1433 C 0.7072 0.70412 0.9453 0.0
C1434 C 0.70185 0.72265 0.92441 0.0
H1435 H 0.69723 0.65828 0.95672 0.0
H1436 H 0.71871 0.71326 0.96746 0.0
C1437 C 0.68663 0.70985 0.89589 0.0
C1438 C 0.34855 1.00725 0.95703 0.0
C1439 C 0.32852 0.98715 0.9341 0.0
H1440 H 0.3957 0.03861 0.96973 0.0
C1441 C 0.3404 0.98689 0.90427 0.0
H1442 H 0.34 1.00767 0.98023 0.0
C1443 C 0.3721 1.00503 0.89809 0.0
C1444 C 0.39236 0.02315 0.92188 0.0
H1445 H 0.32529 0.97163 0.8862 0.0
H1446 H 0.38107 1.00323 0.87559 0.0
C1447 C 0.38028 0.02482 0.95107 0.0
C1448 C 0.05463 0.38125 0.96319 0.0
C1449 C 0.05989 0.35667 0.95681 0.0
H1450 H 0.03514 0.40858 0.94706 0.0
C1451 C 0.04703 0.33912 0.9296 0.0
H1452 H 0.06403 0.39499 0.98414 0.0
C1453 C 0.03075 0.34702 0.90839 0.0
C1454 C 1.02657 0.37236 0.91412 0.0
H1455 H 0.05084 0.32021 0.92392 0.0
H1456 H 1.02204 0.33377 0.88705 0.0
C1457 C 0.03789 0.38887 0.94217 0.0
C1458 C 0.68558 0.68562 0.6159 0.0
C1459 C 0.66709 0.65437 0.60776 0.0
H1460 H 0.73014 0.72665 0.61088 0.0
C1461 C 0.67688 0.64247 0.58332 0.0
H1462 H 0.67858 0.69528 0.63471 0.0
C1463 C 0.70597 0.66035 0.56969 0.0
C1464 C 0.72573 0.69055 0.57998 0.0
H1465 H 0.66284 0.61861 0.57619 0.0
H1466 H 0.71418 0.6498 0.553 0.0
C1467 C 0.71487 0.70359 0.60216 0.0
C1468 C 0.3821 0.04249 0.63503 0.0
C1469 C 0.38943 1.01952 0.62748 0.0
H1470 H 0.36059 0.06835 0.62011 0.0
C1471 C 0.37847 1.00346 0.59912 0.0
H1472 H 0.38998 0.05506 0.65684 0.0
C1473 C 0.3618 1.01112 0.57818 0.0
C1474 C 0.35537 0.03478 0.5852 0.0
H1475 H 0.38388 0.98584 0.59246 0.0
H1476 H 0.35445 0.99894 0.5561 0.0
C1477 C 0.36503 0.04989 0.61419 0.0
C1478 C 0.04205 0.36979 0.59882 0.0
C1479 C 1.02523 0.3762 0.62101 0.0
H1480 H 0.04065 0.33722 0.56498 0.0
C1481 C 0.996 0.35248 0.63031 0.0
H1482 H 0.06441 0.38804 0.59089 0.0
C1483 C 0.98251 0.32377 0.61564 0.0
C1484 C 0.99784 0.31825 0.59106 0.0
H1485 H 0.98256 0.35712 0.64706 0.0
H1486 H 0.95907 0.30655 0.62189 0.0
C1487 C 1.02844 0.34087 0.58393 0.0
C1488 C 1.00331 0.69921 0.74725 0.0
C1489 C 1.00587 0.67958 0.76916 0.0
H1490 H 1.02613 0.73357 0.71138 0.0
C1491 C 0.03247 0.67683 0.76891 0.0
H1492 H 0.98303 0.70177 0.74712 0.0
C1493 C 0.0566 0.69423 0.74791 0.0
C1494 C 0.05502 0.71543 0.72738 0.0
H1495 H 0.03481 0.66168 0.78547 0.0
H1496 H 0.07721 0.69241 0.74911 0.0
C1497 C 1.02786 0.71731 0.72686 0.0
C1498 C 0.38082 0.36847 0.76416 0.0
C1499 C 0.37481 0.33792 0.76486 0.0
H1500 H 0.3664 0.39965 0.74754 0.0
C1501 C 0.35132 0.31576 0.74581 0.0
H1502 H 0.39894 0.38588 0.77866 0.0
C1503 C 0.33225 0.32345 0.72856 0.0
C1504 C 0.33694 0.35359 0.72947 0.0
H1505 H 0.34626 0.29203 0.74619 0.0
H1506 H 0.31268 0.30549 0.716 0.0
C1507 C 0.36235 0.37636 0.7462 0.0
C1508 C 0.69063 1.00879 0.77177 0.0
C1509 C 0.71551 0.03837 0.76481 0.0
H1510 H 0.66355 0.96154 0.75769 0.0
C1511 C 0.73148 0.04288 0.73639 0.0
H1512 H 0.67769 1.00464 0.79333 0.0
C1513 C 0.72338 1.01812 0.71593 0.0
C1514 C 0.69889 0.9884 0.72324 0.0
H1515 H 0.75088 0.06532 0.73047 0.0
H1516 H 0.73644 0.02217 0.69448 0.0
C1517 C 0.68231 0.98415 0.75118 0.0
C1518 C 0.34116 1.01571 0.2914 0.0
C1519 C 0.35999 0.0459 0.28 0.0
H1520 H 0.31639 0.96726 0.28046 0.0
C1521 C 0.37081 0.0502 0.24901 0.0
H1522 H 0.33247 1.01197 0.3152 0.0
C1523 C 0.36106 0.0248 0.22909 0.0
C1524 C 0.34118 0.99472 0.24014 0.0
H1525 H 0.38498 0.07329 0.23966 0.0
H1526 H 0.36786 0.02863 0.20465 0.0
C1527 C 0.33216 0.99026 0.27172 0.0
C1528 C 0.03898 0.35372 0.24294 0.0
C1529 C 0.06097 0.35998 0.26641 0.0
H1530 H 0.99084 0.32897 0.23076 0.0
C1531 C 0.05085 0.34993 0.29725 0.0
H1532 H 0.04627 0.36091 0.21899 0.0
C1533 C 1.01925 0.33216 0.30409 0.0
C1534 C 0.99742 0.32361 0.28002 0.0
H1535 H 0.06752 0.35447 0.31567 0.0
H1536 H 1.01197 0.32314 0.32758 0.0
C1537 C 1.00744 0.33536 0.24963 0.0
C1538 C 0.71906 0.71615 0.29123 0.0
C1539 C 0.72682 0.69329 0.2847 0.0
H1540 H 0.69813 0.74193 0.27444 0.0
C1541 C 0.71722 0.67734 0.25614 0.0
H1542 H 0.72593 0.72863 0.31316 0.0
C1543 C 0.70148 0.68503 0.23404 0.0
C1544 C 0.69466 0.70859 0.24009 0.0
H1545 H 0.72302 0.65982 0.25027 0.0
H1546 H 0.69512 0.6729 0.21189 0.0
C1547 C 0.70293 0.72358 0.26923 0.0
C1548 C 0.35313 0.20679 0.16536 0.0
C1549 C 0.33904 0.18046 0.14614 0.0
H1550 H 0.38035 0.22821 0.20622 0.0
C1551 C 0.34208 0.15484 0.15445 0.0
H1552 H 0.35194 0.22722 0.15936 0.0
C1553 C 0.3586 0.15549 0.18129 0.0
C1554 C 0.37255 0.18177 0.20058 0.0
H1555 H 0.33135 0.13407 0.14039 0.0
H1556 H 0.35977 0.13505 0.18732 0.0
C1557 C 0.36965 0.20744 0.19216 0.0
C1558 C 0.82731 0.14772 0.1658 0.0
C1559 C 0.85314 0.16369 0.14591 0.0
H1560 H 0.80379 0.14897 0.20743 0.0
C1561 C 0.87525 0.19435 0.15356 0.0
H1562 H 0.80943 0.12434 0.16049 0.0
C1563 C 0.87156 0.20864 0.18002 0.0
C1564 C 0.84585 0.19264 0.19989 0.0
H1565 H 0.89576 0.20732 0.13932 0.0
H1566 H 0.88939 0.23204 0.18545 0.0
C1567 C 0.82383 0.16194 0.19255 0.0
C1568 C 0.83592 0.69424 0.18968 0.0
C1569 C 0.84881 0.68187 0.21049 0.0
H1570 H 0.84103 0.71911 0.14708 0.0
C1571 C 0.87774 0.68517 0.20298 0.0
H1572 H 0.81398 0.69269 0.19497 0.0
C1573 C 0.89327 0.70022 0.17537 0.0
C1574 C 0.88045 0.71268 0.1545 0.0
H1575 H 0.88825 0.6757 0.21829 0.0
H1576 H 0.91506 0.70148 0.17012 0.0
C1577 C 0.85155 0.70951 0.16218 0.0
C1578 C 0.18925 0.36238 0.38003 0.0
C1579 C 0.21795 0.3668 0.39026 0.0
H1580 H 0.1652 0.37528 0.34697 0.0
C1581 C 0.24506 0.38948 0.37545 0.0
H1582 H 0.16802 0.34517 0.39113 0.0
C1583 C 0.24343 0.40643 0.35006 0.0
C1584 C 0.2147 0.4016 0.33948 0.0
H1585 H 0.26748 0.39326 0.38274 0.0
H1586 H 0.26454 0.42277 0.33815 0.0
C1587 C 0.18766 0.37983 0.35507 0.0
C1588 C 0.67094 0.85918 0.35071 0.0
C1589 C 0.69998 0.86523 0.36195 0.0
H1590 H 0.63533 0.83628 0.31605 0.0
C1591 C 0.71401 0.84999 0.3478 0.0
H1592 H 0.65949 0.87057 0.361 0.0
C1593 C 0.70018 0.83039 0.32227 0.0
C1594 C 0.67191 0.82544 0.31001 0.0
H1595 H 0.73594 0.85341 0.3563 0.0
H1596 H 0.71196 0.81942 0.31176 0.0
C1597 C 0.65704 0.83948 0.325 0.0
C1598 C 0.21547 0.87181 0.36115 0.0
C1599 C 0.1911 0.8423 0.36922 0.0
H1600 H 0.25245 0.89882 0.32896 0.0
C1601 C 0.18651 0.81673 0.35151 0.0
H1602 H 0.2195 0.89187 0.37452 0.0
C1603 C 0.205 0.82076 0.3253 0.0
C1604 C 0.22887 0.85034 0.31679 0.0
H1605 H 0.16776 0.79378 0.35711 0.0
H1606 H 0.20019 0.80089 0.31117 0.0
C1607 C 0.23442 0.87575 0.33533 0.0
C1608 C 0.70011 0.88848 0.82075 0.0
C1609 C 0.6877 0.86209 0.80152 0.0
H1610 H 0.72668 0.91135 0.86168 0.0
C1611 C 0.69345 0.83813 0.80978 0.0
H1612 H 0.69681 0.90771 0.81493 0.0
C1613 C 0.71098 0.84045 0.83636 0.0
C1614 C 0.72323 0.86673 0.85565 0.0
H1615 H 0.68397 0.81724 0.79595 0.0
H1616 H 0.71418 0.82116 0.8423 0.0
C1617 C 0.71753 0.89071 0.84747 0.0
C1618 C 0.21025 0.88234 0.8426 0.0
C1619 C 0.18501 0.86629 0.86315 0.0
H1620 H 0.23316 0.88107 0.80064 0.0
C1621 C 0.16338 0.83522 0.85638 0.0
H1622 H 0.22795 0.90594 0.84733 0.0
C1623 C 0.16689 0.82072 0.82989 0.0
C1624 C 0.19192 0.83698 0.80929 0.0
H1625 H 0.14349 0.82209 0.87137 0.0
H1626 H 0.14953 0.79699 0.82506 0.0
C1627 C 0.21353 0.86796 0.81597 0.0
C1628 C 0.22089 0.38928 0.85716 0.0
C1629 C 0.21178 0.37419 0.82805 0.0
H1630 H 0.21337 0.38661 0.90675 0.0
C1631 C 0.18738 0.34331 0.82759 0.0
H1632 H 0.23925 0.41313 0.8585 0.0
C1633 C 0.17253 0.328 0.85536 0.0
C1634 C 0.18169 0.34307 0.88446 0.0
H1635 H 0.18006 0.33065 0.80577 0.0
H1636 H 0.15415 0.30416 0.85403 0.0
C1637 C 0.20605 0.37396 0.88493 0.0
C1638 C 0.8858 0.72358 0.7184 0.0
C1639 C 0.88531 0.69545 0.71376 0.0
H1640 H 0.88642 0.76287 0.69728 0.0
C1641 C 0.88541 0.68587 0.68285 0.0
H1642 H 0.8855 0.73166 0.74184 0.0
C1643 C 0.88547 0.7035 0.65738 0.0
C1644 C 0.88583 0.73157 0.66188 0.0
H1645 H 0.88561 0.66471 0.67818 0.0
H1646 H 0.88453 0.6946 0.63406 0.0
C1647 C 0.88606 0.74141 0.6928 0.0
C1648 C 0.36774 0.16755 0.70262 0.0
C1649 C 0.35768 0.18766 0.71306 0.0
H1650 H 0.36206 0.13315 0.66944 0.0
C1651 C 0.33137 0.18603 0.69904 0.0
H1652 H 0.38744 0.16767 0.71341 0.0
C1653 C 0.31666 0.16604 0.67379 0.0
C1654 C 0.32803 0.14736 0.66221 0.0
H1655 H 0.32307 0.20126 0.70654 0.0
H1656 H 0.29754 0.16645 0.66227 0.0
C1657 C 0.35309 0.14764 0.67756 0.0
C1658 C 0.86944 0.14697 0.66305 0.0
C1659 C 0.89323 0.17616 0.65338 0.0
H1660 H 0.83296 0.12138 0.69612 0.0
C1661 C 0.89914 0.20233 0.67081 0.0
H1662 H 0.86435 0.12652 0.64981 0.0
C1663 C 0.88079 0.1995 0.69678 0.0
C1664 C 0.85667 0.17037 0.70614 0.0
H1665 H 0.91708 0.22512 0.66353 0.0
H1666 H 0.8852 0.22009 0.70936 0.0
C1667 C 0.85155 0.14406 0.68944 0.0
C1668 C 0.03442 0.49587 0.5083 0.0
C1669 C 0.04553 0.52174 0.5281 0.0
H1670 H 1.00864 0.47302 0.4671 0.0
C1671 C 0.03802 0.54469 0.52082 0.0
H1672 H 0.03892 0.47728 0.51351 0.0
C1673 C 1.02007 0.54189 0.49443 0.0
C1674 C 1.00938 0.5162 0.47452 0.0
H1675 H 0.04632 0.56507 0.53527 0.0
H1676 H 1.01529 0.56027 0.48911 0.0
C1677 C 1.01673 0.49321 0.48183 0.0
C1678 C 0.56104 0.55034 0.52059 0.0
C1679 C 0.53682 0.53486 0.54239 0.0
H1680 H 0.58122 0.54835 0.47693 0.0
C1681 C 0.51426 0.50396 0.5361 0.0
H1682 H 0.57936 0.57379 0.5248 0.0
C1683 C 0.51576 0.48916 0.50883 0.0
C1684 C 0.53967 0.50488 0.4869 0.0
H1685 H 0.49504 0.49126 0.55198 0.0
H1686 H 0.49762 0.46564 0.50446 0.0
C1687 C 0.56233 0.53563 0.49319 0.0
C1688 C 0.51021 0.03619 0.50105 0.0
C1689 C 0.5406 0.04324 0.49413 0.0
H1690 H 0.47232 1.01595 0.53334 0.0
C1691 C 0.55577 0.03385 0.51552 0.0
H1692 H 0.4979 0.04329 0.48528 0.0
C1693 C 0.54093 1.01771 0.54294 0.0
C1694 C 0.5105 1.01063 0.54994 0.0
H1695 H 0.57895 0.03833 0.5107 0.0
H1696 H 0.55323 1.01038 0.55842 0.0
C1697 C 0.49543 0.02025 0.52859 0.0
C1698 C 0.58517 0.05826 0.04131 0.0
C1699 C 0.55772 0.03759 0.05705 0.0
H1700 H 0.60555 0.08966 1.00258 0.0
C1701 C 0.5297 0.03507 0.0473 0.0
H1702 H 0.60704 0.06047 0.04833 0.0
C1703 C 0.529 0.05233 0.02176 0.0
C1704 C 0.5562 0.07193 1.0051 0.0
H1705 H 0.50828 1.01935 0.05913 0.0
H1706 H 0.50692 0.04914 0.01402 0.0
C1707 C 0.58436 0.07498 0.01528 0.0
C1708 C 1.02366 0.52792 0.97804 0.0
C1709 C 1.00107 0.49662 0.98189 0.0
H1710 H 0.055 0.57079 0.99993 0.0
C1711 C 0.99123 0.48533 0.01247 0.0
H1712 H 0.03126 0.53762 0.95483 0.0
C1713 C 1.00498 0.50454 0.03857 0.0
C1714 C 1.02884 0.53539 0.03459 0.0
H1715 H 0.97393 0.46135 0.01625 0.0
H1716 H 0.99786 0.49489 0.06187 0.0
C1717 C 0.03735 0.54697 1.00395 0.0
C1718 C 0.49885 0.46321 0.02277 0.0
C1719 C 0.51209 0.48397 0.04766 0.0
H1720 H 0.50585 0.44889 0.97777 0.0
C1721 C 0.54399 0.50512 0.04738 0.0
H1722 H 0.47431 0.44656 0.02271 0.0
C1723 C 0.56213 0.50669 0.02157 0.0
C1724 C 0.54858 0.48707 0.99568 0.0
H1725 H 0.55459 0.52133 0.06645 0.0
H1726 H 0.58628 0.52449 0.02109 0.0
C1727 C 0.51694 0.46459 0.99713 0.0
C1728 C 0.19731 0.05634 0.97728 0.0
C1729 C 0.228 0.07866 0.98477 0.0
H1730 H 0.16495 1.00898 0.9671 0.0
C1731 C 0.25015 0.06916 0.98667 0.0
H1732 H 0.17948 0.06255 0.97593 0.0
C1733 C 0.24173 0.0382 0.98157 0.0
C1734 C 0.21093 1.01588 0.9745 0.0
H1735 H 0.27405 0.08563 0.99192 0.0
H1736 H 0.25935 0.03171 0.98364 0.0
C1737 C 0.18892 0.02546 0.97221 0.0
C1738 C 0.99207 0.15709 0.98318 0.0
C1739 C 0.96872 0.16357 0.99195 0.0
H1740 H 0.04011 0.17468 0.97367 0.0
C1741 C 0.97707 0.19461 0.99691 0.0
H1742 H 0.98685 0.13358 0.97953 0.0
C1743 C 1.00791 0.21832 0.99369 0.0
C1744 C 0.03121 0.21167 0.98532 0.0
H1745 H 0.95986 0.20073 1.00318 0.0
H1746 H 1.01353 0.24188 0.99816 0.0
C1747 C 1.0228 0.18077 0.9798 0.0
C1748 C 0.83539 0.8071 0.98025 0.0
C1749 C 0.84432 0.83793 0.97269 0.0
H1750 H 0.84983 0.7747 0.99302 0.0
C1751 C 0.87607 0.85988 0.97225 0.0
H1752 H 0.81115 0.78953 0.98101 0.0
C1753 C 0.89819 0.85141 0.97948 0.0
C1754 C 0.88937 0.82069 0.98734 0.0
H1755 H 0.88392 0.88387 0.96691 0.0
H1756 H 0.9223 0.86924 0.97946 0.0
C1757 C 0.8576 0.79861 0.98751 0.0
C1758 C 0.06738 0.2453 0.53876 0.0
C1759 C 0.04502 0.21442 0.54566 0.0
H1760 H 0.11437 0.2769 0.52472 0.0
C1761 C 0.05462 0.19238 0.54737 0.0
H1762 H 0.06085 0.26291 0.53732 0.0
C1763 C 0.08502 0.20042 0.53992 0.0
C1764 C 0.10683 0.23077 0.53115 0.0
H1765 H 0.03821 0.16843 0.55264 0.0
H1766 H 0.09121 0.18254 0.53949 0.0
C1767 C 0.09807 0.25343 0.53178 0.0
C1768 C 0.84665 0.85893 0.53588 0.0
C1769 C 0.82129 0.83532 0.55209 0.0
H1770 H 0.86421 0.89984 0.50796 0.0
C1771 C 0.7943 0.83743 0.55498 0.0
H1772 H 0.86794 0.85852 0.53347 0.0
C1773 C 0.79206 0.86131 0.53996 0.0
C1774 C 0.81678 0.88354 0.52181 0.0
H1775 H 0.77425 0.81966 0.56724 0.0
H1776 H 0.77038 0.86126 0.54096 0.0
C1777 C 0.84447 0.88269 0.52107 0.0
C1778 C 0.21186 0.97762 0.53601 0.0
C1779 C 0.2025 0.99903 0.5441 0.0
H1780 H 0.19814 0.93267 0.51716 0.0
C1781 C 0.17074 0.98925 0.54344 0.0
H1782 H 0.2361 0.98429 0.53635 0.0
C1783 C 0.14931 0.95999 0.53222 0.0
C1784 C 0.15892 0.93951 0.52197 0.0
H1785 H 0.16251 1.00488 0.54963 0.0
H1786 H 0.12531 0.95387 0.52992 0.0
C1787 C 0.19018 0.94801 0.52521 0.0
C1788 C 0.85648 1.0029 0.05103 0.0
C1789 C 0.83787 1.01523 0.04161 0.0
H1790 H 0.86194 0.96311 0.05322 0.0
C1791 C 0.80885 0.99521 0.0281 0.0
H1792 H 0.87901 1.01759 0.06134 0.0
C1793 C 0.7991 0.96396 0.02334 0.0
C1794 C 0.81801 0.95176 0.03206 0.0
H1795 H 0.7938 1.00378 0.02058 0.0
H1796 H 0.77668 0.94936 0.01283 0.0
C1797 C 0.84666 0.97158 0.04637 0.0
C1798 C 0.05245 0.82488 0.03469 0.0
C1799 C 0.03264 0.83425 0.0479 0.0
H1800 H 0.09827 0.83799 0.01948 0.0
C1801 C 0.04531 0.86532 0.05677 0.0
H1802 H 0.04362 0.80116 0.02757 0.0
C1803 C 0.07677 0.88657 0.05189 0.0
C1804 C 0.09642 0.87736 0.03792 0.0
H1805 H 0.0308 0.87346 0.06682 0.0
H1806 H 0.08548 0.91042 0.05832 0.0
C1807 C 0.08386 0.84613 0.02973 0.0
C1808 C 0.22269 0.23769 0.03425 0.0
C1809 C 0.21353 0.20732 0.04386 0.0
H1810 H 0.20913 0.27138 0.02496 0.0
C1811 C 0.18233 0.18749 0.05163 0.0
H1812 H 0.24654 0.25365 0.02803 0.0
C1813 C 0.1608 0.19754 0.04945 0.0
C1814 C 0.16978 0.22784 0.03964 0.0
H1815 H 0.17431 0.16388 0.05879 0.0
H1816 H 0.13692 0.18119 0.05495 0.0
C1817 C 0.20112 0.24782 0.03219 0.0
C1818 C 0.98032 0.83233 0.46619 0.0
C1819 C 0.9581 0.80853 0.48522 0.0
H1820 H 1.02601 0.85319 0.44618 0.0
C1821 C 0.9644 0.78608 0.49713 0.0
H1822 H 0.97593 0.84994 0.4569 0.0
C1823 C 0.99299 0.78832 0.49166 0.0
C1824 C 1.01556 0.81259 0.47351 0.0
H1825 H 0.94791 0.76779 0.51223 0.0
H1826 H 0.99783 0.77154 0.50241 0.0
C1827 C 1.00876 0.8341 0.45997 0.0
C1828 C 0.25374 0.18374 0.53028 0.0
C1829 C 0.24733 0.16364 0.50496 0.0
H1830 H 0.25468 0.22434 0.54749 0.0
C1831 C 0.23821 0.17065 0.4762 0.0
H1832 H 0.26066 0.17893 0.55268 0.0
C1833 C 0.23483 0.19669 0.47309 0.0
C1834 C 0.24023 0.2162 0.49874 0.0
H1835 H 0.2336 0.15591 0.45603 0.0
H1836 H 0.22747 0.20122 0.45079 0.0
C1837 C 0.25005 0.20961 0.52727 0.0
C1838 C 0.8668 0.04671 0.4549 0.0
C1839 C 0.8472 0.03114 0.48039 0.0
H1840 H 0.90714 0.08793 0.43867 0.0
C1841 C 0.85473 0.0454 0.50996 0.0
H1842 H 0.86168 0.03637 0.43182 0.0
C1843 C 0.88057 0.07478 0.51385 0.0
C1844 C 0.89982 0.09077 0.48833 0.0
H1845 H 0.8403 0.0341 0.53019 0.0
H1846 H 0.8854 0.0851 0.53692 0.0
C1847 C 0.89293 0.07618 0.45887 0.0
C1848 C 0.92614 0.38288 0.28931 0.0
C1849 C 0.8995 0.35523 0.29817 0.0
H1850 H 0.95034 0.4324 0.29025 0.0
C1851 C 0.87576 0.35699 0.31402 0.0
H1852 H 0.94497 0.3824 0.27724 0.0
C1853 C 0.87884 0.38569 0.32137 0.0
C1854 C 0.90593 0.4133 0.31346 0.0
H1855 H 0.8549 0.33619 0.32108 0.0
H1856 H 0.86038 0.38627 0.33405 0.0
C1857 C 0.92941 0.41155 0.29708 0.0
C1858 C 0.65711 0.49767 0.30401 0.0
C1859 C 0.63639 0.50209 0.32281 0.0
H1860 H 0.70304 0.51688 0.28547 0.0
C1861 C 0.64702 0.53159 0.33573 0.0
H1862 H 0.64998 0.47571 0.29297 0.0
C1863 C 0.67751 0.55547 0.33087 0.0
C1864 C 0.69845 0.55059 0.31313 0.0
H1865 H 0.63216 0.53619 0.35041 0.0
H1866 H 0.68492 0.57754 0.34195 0.0
C1867 C 0.68768 0.5215 0.29939 0.0
C1868 C 0.53054 0.17916 0.29792 0.0
C1869 C 0.50031 0.1608 0.30936 0.0
H1870 H 0.57669 0.18715 0.29631 0.0
C1871 C 0.49366 0.13468 0.32769 0.0
H1872 H 0.53653 0.19933 0.28364 0.0
C1873 C 0.51689 0.12791 0.33552 0.0
C1874 C 0.54746 0.14693 0.3251 0.0
H1875 H 0.47064 0.11992 0.33699 0.0
H1876 H 0.51095 0.1083 0.3506 0.0
C1877 C 0.55374 0.17226 0.30556 0.0
C1878 C 0.71542 0.53428 0.87375 0.0
C1879 C 0.71581 0.55884 0.88999 0.0
H1880 H 0.74131 0.51767 0.84905 0.0
C1881 C 0.74461 0.58552 0.89564 0.0
H1882 H 0.69378 0.51326 0.86924 0.0
C1883 C 0.77204 0.58837 0.88345 0.0
C1884 C 0.77139 0.56449 0.8655 0.0
H1885 H 0.74582 0.60498 0.908 0.0
H1886 H 0.79345 0.60991 0.88673 0.0
C1887 C 0.74281 0.53696 0.86191 0.0
C1888 C 0.49495 0.19412 0.83982 0.0
C1889 C 0.48091 0.20835 0.85596 0.0
H1890 H 0.50748 0.15935 0.83946 0.0
C1891 C 0.46908 0.1975 0.88623 0.0
H1892 H 0.50334 0.20083 0.81611 0.0
C1893 C 0.47164 0.17323 0.89997 0.0
C1894 C 0.48618 0.15949 0.8837 0.0
H1895 H 0.45803 0.20782 0.89933 0.0
H1896 H 0.46228 0.16523 0.92321 0.0
C1897 C 0.4975 0.17019 0.8534 0.0
C1898 C 0.82133 0.29727 0.86231 0.0
C1899 C 0.83054 0.27606 0.85354 0.0
H1900 H 0.83508 0.34305 0.87723 0.0
C1901 C 0.86184 0.2846 0.8566 0.0
H1902 H 0.79731 0.29116 0.86026 0.0
C1903 C 0.88385 0.31471 0.86589 0.0
C1904 C 0.87482 0.33665 0.87269 0.0
H1905 H 0.86952 0.2687 0.84974 0.0
H1906 H 0.90805 0.32123 0.86621 0.0
C1907 C 0.84308 0.32704 0.87203 0.0
C1908 C 0.50276 0.31012 0.36355 0.0
C1909 C 0.47328 0.28393 0.36752 0.0
H1910 H 0.53104 0.35937 0.36752 0.0
C1911 C 0.44953 0.28786 0.38021 0.0
H1912 H 0.52148 0.30777 0.35383 0.0
C1913 C 0.45521 0.31734 0.38889 0.0
C1914 C 0.48457 0.34362 0.38432 0.0
H1915 H 0.42671 0.26807 0.38383 0.0
H1916 H 0.43637 0.31968 0.39836 0.0
C1917 C 0.50823 0.33964 0.37143 0.0
C1918 C 0.75886 0.17088 0.38704 0.0
C1919 C 0.76267 0.19923 0.37653 0.0
H1920 H 0.72726 0.1249 0.40293 0.0
C1921 C 0.73656 0.20289 0.37498 0.0
H1922 H 0.77861 0.16753 0.38877 0.0
C1923 C 0.70715 0.17845 0.38271 0.0
C1924 C 0.70321 0.14994 0.3928 0.0
H1925 H 0.73877 0.22444 0.36688 0.0
H1926 H 0.68743 0.1818 0.38051 0.0
C1927 C 0.72949 0.14661 0.39545 0.0
C1928 C 0.84497 0.54755 0.36283 0.0
C1929 C 0.84871 0.57715 0.36675 0.0
H1930 H 0.86643 0.51959 0.3634 0.0
C1931 C 0.8779 0.60151 0.37556 0.0
H1932 H 0.82274 0.52837 0.35602 0.0
C1933 C 0.90273 0.59635 0.38047 0.0
C1934 C 0.89917 0.56688 0.37593 0.0
H1935 H 0.88138 0.62446 0.37907 0.0
H1936 H 0.92495 0.61567 0.3871 0.0
C1937 C 0.86999 0.54255 0.36697 0.0
C1938 C 0.63622 0.11828 0.84535 0.0
C1939 C 0.62503 0.13277 0.82531 0.0
H1940 H 0.67426 0.11215 0.85786 0.0
C1941 C 0.64388 0.15118 0.80051 0.0
H1942 H 0.62239 0.10433 0.86487 0.0
C1943 C 0.67357 0.15532 0.79615 0.0
C1944 C 0.68509 0.14179 0.81709 0.0
H1945 H 0.63571 0.16259 0.78479 0.0
H1946 H 0.6879 0.16996 0.77721 0.0
C1947 C 0.66601 0.12301 0.84148 0.0
C1948 C 0.91303 0.54019 0.85589 0.0
C1949 C 0.90277 0.54667 0.82759 0.0
H1950 H 0.92606 0.51073 0.8802 0.0
C1951 C 0.89873 0.52819 0.80138 0.0
H1952 H 0.91664 0.55418 0.87651 0.0
C1953 C 0.90414 0.50337 0.8036 0.0
C1954 C 0.91393 0.49654 0.83201 0.0
H1955 H 0.89116 0.53273 0.77921 0.0
H1956 H 0.9007 0.48951 0.78294 0.0
C1957 C 0.91872 0.5155 0.85802 0.0
C1958 C 0.51179 0.37718 0.84974 0.0
C1959 C 0.50582 0.36122 0.82121 0.0
H1960 H 0.54042 0.41874 0.87491 0.0
C1961 C 0.52558 0.37585 0.79559 0.0
H1962 H 0.49709 0.36664 0.86998 0.0
C1963 C 0.55076 0.40601 0.79856 0.0
C1964 C 0.55619 0.42207 0.82702 0.0
H1965 H 0.52155 0.36409 0.77334 0.0
H1966 H 0.56556 0.41701 0.77851 0.0
C1967 C 0.53653 0.4072 0.85255 0.0
C1968 C 0.53199 0.69377 0.63664 0.0
C1969 C 0.55379 0.68465 0.64338 0.0
H1970 H 0.52169 0.73026 0.63505 0.0
C1971 C 0.58366 0.70749 0.65273 0.0
H1972 H 0.50868 0.6769 0.62968 0.0
C1973 C 0.59136 0.7385 0.65565 0.0
C1974 C 0.56937 0.74762 0.64943 0.0
H1975 H 0.60111 0.70138 0.6582 0.0
H1976 H 0.61462 0.7552 0.66278 0.0
C1977 C 0.53959 0.72467 0.63974 0.0
C1978 C 0.33955 0.88264 0.66662 0.0
C1979 C 0.36056 0.87749 0.64935 0.0
H1980 H 0.29336 0.86449 0.68336 0.0
C1981 C 0.34929 0.84924 0.63368 0.0
H1982 H 0.34737 0.90411 0.67911 0.0
C1983 C 0.31802 0.82646 0.63583 0.0
C1984 C 0.29707 0.83106 0.65404 0.0
H1985 H 0.36472 0.84451 0.62005 0.0
H1986 H 0.31056 0.80516 0.62329 0.0
C1987 C 0.30834 0.85976 0.66904 0.0
C1988 C 0.17991 0.49468 0.66336 0.0
C1989 C 0.16202 0.47665 0.63798 0.0
H1990 H 0.21805 0.50668 0.69404 0.0
C1991 C 0.17066 0.4569 0.62336 0.0
H1992 H 0.1736 0.50935 0.67607 0.0
C1993 C 0.19622 0.45499 0.63421 0.0
C1994 C 0.21382 0.47292 0.65978 0.0
H1995 H 0.15733 0.44246 0.60393 0.0
H1996 H 0.20214 0.4394 0.62266 0.0
C1997 C 0.2055 0.49301 0.67392 0.0
C1998 C 0.40239 0.91308 0.20418 0.0
C1999 C 0.3796 0.88218 0.21022 0.0
H2000 H 0.44959 0.94443 0.19073 0.0
C2001 C 0.38848 0.85958 0.21061 0.0
H2002 H 0.39636 0.93108 0.20376 0.0
C2003 C 0.4187 0.86723 0.20277 0.0
C2004 C 0.44098 0.89773 0.19502 0.0
H2005 H 0.37164 0.83557 0.21508 0.0
H2006 H 0.4244 0.84904 0.20137 0.0
C2007 C 0.43289 0.92082 0.19694 0.0
C2008 C 0.18838 0.5631 0.19772 0.0
C2009 C 0.15728 0.55334 0.19099 0.0
H2010 H 0.22135 0.55093 0.21415 0.0
C2011 C 0.13468 0.52298 0.19895 0.0
H2012 H 0.20626 0.58637 0.19181 0.0
C2013 C 0.14333 0.50223 0.21133 0.0
C2014 C 0.17475 0.51162 0.21648 0.0
H2015 H 0.11058 0.51477 0.1937 0.0
H2016 H 0.12553 0.47852 0.21559 0.0
C2017 C 0.19698 0.54269 0.21056 0.0
C2018 C 0.50997 0.66055 0.20108 0.0
C2019 C 0.54173 0.67029 0.20236 0.0
H2020 H 0.46435 0.6241 0.18947 0.0
C2021 C 0.55086 0.64812 0.19751 0.0
H2022 H 0.5019 0.67677 0.2047 0.0
C2023 C 0.52894 0.61758 0.1894 0.0
C2024 C 0.49767 0.60882 0.18566 0.0
H2025 H 0.57508 0.65473 0.19832 0.0
H2026 H 0.5367 0.60145 0.18378 0.0
C2027 C 0.48832 0.63033 0.19248 0.0
C2028 C 0.1704 0.67517 0.69536 0.0
C2029 C 0.14745 0.67714 0.71242 0.0
H2030 H 0.18491 0.6464 0.67351 0.0
C2031 C 0.1211 0.64953 0.72209 0.0
H2032 H 0.19105 0.69586 0.68771 0.0
C2033 C 0.11753 0.62064 0.71401 0.0
C2034 C 0.14039 0.61882 0.69639 0.0
H2035 H 0.10282 0.65023 0.73504 0.0
H2036 H 0.09693 0.5998 0.7215 0.0
C2037 C 0.16693 0.64657 0.68745 0.0
C2038 C 0.37924 0.51292 0.71254 0.0
C2039 C 0.37609 0.48478 0.72298 0.0
H2040 H 0.41032 0.55962 0.69777 0.0
C2041 C 0.40297 0.48253 0.72614 0.0
H2042 H 0.35906 0.51541 0.70967 0.0
C2043 C 0.43215 0.50754 0.71848 0.0
C2044 C 0.43528 0.53568 0.70822 0.0
H2045 H 0.4014 0.46111 0.73376 0.0
H2046 H 0.45235 0.50503 0.72093 0.0
C2047 C 0.40855 0.53821 0.7057 0.0
C2048 C 0.52702 0.86324 0.72186 0.0
C2049 C 0.55367 0.87841 0.70316 0.0
H2050 H 0.48448 0.8596 0.73607 0.0
C2051 C 0.55735 0.90304 0.68401 0.0
H2052 H 0.52344 0.84433 0.73705 0.0
C2053 C 0.53452 0.9116 0.68291 0.0
C2054 C 0.50741 0.89596 0.70114 0.0
H2055 H 0.57754 0.91523 0.66915 0.0
H2056 H 0.53795 0.93004 0.66718 0.0
C2057 C 0.5044 0.87198 0.72104 0.0
C2058 C 0.31125 0.48633 0.18977 0.0
C2059 C 0.29225 0.48195 0.16376 0.0
H2060 H 0.35366 0.49135 0.20693 0.0
C2061 C 0.30352 0.48116 0.13368 0.0
H2062 H 0.30363 0.48762 0.21318 0.0
C2063 C 0.33258 0.48341 0.12998 0.0
C2064 C 0.35091 0.48652 0.1563 0.0
H2065 H 0.28939 0.47761 0.11314 0.0
H2066 H 0.3403 0.48186 0.10669 0.0
C2067 C 0.34007 0.48855 0.18612 0.0
C2068 C 0.57251 0.84006 0.1347 0.0
C2069 C 0.58162 0.8314 0.16239 0.0
H2070 H 0.56192 0.87212 0.11232 0.0
C2071 C 0.58759 0.84967 0.18924 0.0
H2072 H 0.56817 0.82673 0.11347 0.0
C2073 C 0.58379 0.87557 0.18863 0.0
C2074 C 0.57435 0.88401 0.16101 0.0
H2075 H 0.59447 0.84349 0.21091 0.0
H2076 H 0.58821 0.88897 0.20985 0.0
C2077 C 0.56908 0.86617 0.13397 0.0
C2078 C 0.18219 0.71382 0.18263 0.0
C2079 C 0.17612 0.69747 0.15429 0.0
H2080 H 0.21197 0.75539 0.20775 0.0
C2081 C 0.19681 0.71123 0.12917 0.0
H2082 H 0.1667 0.70394 0.20245 0.0
C2083 C 0.22299 0.74069 0.13237 0.0
C2084 C 0.22877 0.75722 0.1606 0.0
H2085 H 0.19279 0.69925 0.10704 0.0
H2086 H 0.23833 0.75082 0.11251 0.0
C2087 C 0.20804 0.74339 0.18566 0.0
loop_
_geom_bond_atom_site_label_1
_geom_bond_atom_site_label_2
_geom_bond_distance
_geom_bond_site_symmetry_2
_ccdc_geom_bond_type
Co0 N4 2.148 . S
Co0 N10 2.128 . S
Co0 N20 2.194 . S
Co0 O25 2.345 1_554 S
Co0 O26 2.155 1_554 S
Co0 O27 2.096 . S
C1 N4 1.301 . S
C1 N5 1.328 1_554 S
C1 H6 0.930 . S
C2 C3 1.333 1_554 S
C2 N4 1.317 . S
C2 H7 0.930 . S
C3 C2 1.333 1_556 S
C3 N5 1.350 . S
C3 H29 0.931 . S
N4 Co0 2.148 . S
N4 C1 1.301 . S
N4 C2 1.317 . S
N5 C1 1.328 1_556 S
N5 C3 1.350 . S
H6 C1 0.930 . S
H7 C2 0.930 . S
C8 O9 1.224 . S
C8 O27 1.247 . S
O9 C8 1.224 . S
N10 Co0 2.128 . S
N10 C11 1.355 . S
N10 C13 1.311 . S
C11 N10 1.355 . S
C11 C12 1.363 . S
C11 H23 0.929 . S
C12 C11 1.363 . S
C12 N14 1.375 . S
C12 H30 0.931 . S
C13 N10 1.311 . S
C13 N14 1.347 . S
C13 H24 0.929 . S
N14 C12 1.375 . S
N14 C13 1.347 . S
C15 C18 1.365 . S
C15 N20 1.328 . S
C15 H21 0.929 . S
C16 C17 1.362 . S
C16 C19 1.378 . S
C16 H31 0.929 . S
C17 C16 1.362 . S
C17 C18 1.366 . S
C18 C15 1.365 . S
C18 C17 1.366 . S
C18 H32 0.930 . S
C19 C16 1.378 . S
C19 N20 1.315 . S
C19 H22 0.930 . S
N20 Co0 2.194 . S
N20 C15 1.328 . S
N20 C19 1.315 . S
H21 C15 0.929 . S
H22 C19 0.930 . S
H23 C11 0.929 . S
H24 C13 0.929 . S
O25 Co0 2.345 1_556 S
O25 C28 1.259 . S
O26 Co0 2.155 1_556 S
O26 C28 1.240 . S
O27 Co0 2.096 . S
O27 C8 1.247 . S
C28 O25 1.259 . S
C28 O26 1.240 . S
H29 C3 0.931 . S
H30 C12 0.931 . S
H31 C16 0.929 . S
H32 C18 0.930 . S
Co33 N37 2.148 . S
Co33 N43 2.128 . S
Co33 N53 2.194 . S
Co33 O58 2.345 1_554 S
Co33 O59 2.155 1_554 S
Co33 O60 2.096 . S
C34 N37 1.301 . S
C34 N38 1.328 1_554 S
C34 H39 0.930 . S
C35 C36 1.333 1_554 S
C35 N37 1.317 . S
C35 H40 0.930 . S
C36 C35 1.333 1_556 S
C36 N38 1.350 . S
C36 H62 0.931 . S
N37 Co33 2.148 . S
N37 C34 1.301 . S
N37 C35 1.317 . S
N38 C34 1.328 1_556 S
N38 C36 1.350 . S
H39 C34 0.930 . S
H40 C35 0.930 . S
C41 O42 1.224 . S
C41 O60 1.247 . S
O42 C41 1.224 . S
N43 Co33 2.128 . S
N43 C44 1.355 . S
N43 C46 1.311 . S
C44 N43 1.355 . S
C44 C45 1.363 . S
C44 H56 0.929 . S
C45 C44 1.363 . S
C45 N47 1.375 . S
C45 H63 0.931 . S
C46 N43 1.311 . S
C46 N47 1.347 . S
C46 H57 0.929 . S
N47 C45 1.375 . S
N47 C46 1.347 . S
C48 C51 1.365 . S
C48 N53 1.328 . S
C48 H54 0.929 . S
C49 C50 1.362 . S
C49 C52 1.378 . S
C49 H64 0.929 . S
C50 C49 1.362 . S
C50 C51 1.366 . S
C51 C48 1.365 . S
C51 C50 1.366 . S
C51 H65 0.930 . S
C52 C49 1.378 . S
C52 N53 1.315 . S
C52 H55 0.930 . S
N53 Co33 2.194 . S
N53 C48 1.328 . S
N53 C52 1.315 . S
H54 C48 0.929 . S
H55 C52 0.930 . S
H56 C44 0.929 . S
H57 C46 0.929 . S
O58 Co33 2.345 1_556 S
O58 C61 1.259 . S
O59 Co33 2.155 1_556 S
O59 C61 1.240 . S
O60 Co33 2.096 . S
O60 C41 1.247 . S
C61 O58 1.259 . S
C61 O59 1.240 . S
H62 C36 0.931 . S
H63 C45 0.931 . S
H64 C49 0.929 . S
H65 C51 0.930 . S
Co66 N70 2.148 . S
Co66 N76 2.128 . S
Co66 N86 2.194 . S
Co66 O91 2.345 1_554 S
Co66 O92 2.155 1_554 S
Co66 O93 2.096 . S
C67 N70 1.301 . S
C67 N71 1.328 1_554 S
C67 H72 0.930 . S
C68 C69 1.333 1_554 S
C68 N70 1.317 . S
C68 H73 0.930 . S
C69 C68 1.333 1_556 S
C69 N71 1.350 . S
C69 H95 0.931 . S
N70 Co66 2.148 . S
N70 C67 1.301 . S
N70 C68 1.317 . S
N71 C67 1.328 1_556 S
N71 C69 1.350 . S
H72 C67 0.930 . S
H73 C68 0.930 . S
C74 O75 1.224 . S
C74 O93 1.247 . S
O75 C74 1.224 . S
N76 Co66 2.128 . S
N76 C77 1.355 . S
N76 C79 1.311 . S
C77 N76 1.355 . S
C77 C78 1.363 . S
C77 H89 0.929 . S
C78 C77 1.363 . S
C78 N80 1.375 . S
C78 H96 0.931 . S
C79 N76 1.311 . S
C79 N80 1.347 . S
C79 H90 0.929 . S
N80 C78 1.375 . S
N80 C79 1.347 . S
C81 C84 1.365 . S
C81 N86 1.328 . S
C81 H87 0.929 . S
C82 C83 1.362 . S
C82 C85 1.378 . S
C82 H97 0.929 . S
C83 C82 1.362 . S
C83 C84 1.366 . S
C84 C81 1.365 . S
C84 C83 1.366 . S
C84 H98 0.930 . S
C85 C82 1.378 . S
C85 N86 1.315 . S
C85 H88 0.930 . S
N86 Co66 2.194 . S
N86 C81 1.328 . S
N86 C85 1.315 . S
H87 C81 0.929 . S
H88 C85 0.930 . S
H89 C77 0.929 . S
H90 C79 0.929 . S
O91 Co66 2.345 1_556 S
O91 C94 1.259 . S
O92 Co66 2.155 1_556 S
O92 C94 1.240 . S
O93 Co66 2.096 . S
O93 C74 1.247 . S
C94 O91 1.259 . S
C94 O92 1.240 . S
H95 C69 0.931 . S
H96 C78 0.931 . S
H97 C82 0.929 . S
H98 C84 0.930 . S
Co99 N103 2.148 . S
Co99 N109 2.128 . S
Co99 N119 2.194 . S
Co99 O124 2.351 . S
Co99 O125 2.155 . S
Co99 O126 2.096 . S
C100 N103 1.301 . S
C100 N104 1.328 . S
C100 H105 0.930 . S
C101 C102 1.333 . S
C101 N103 1.317 . S
C101 H106 0.930 . S
C102 C101 1.333 . S
C102 N104 1.350 . S
C102 H128 0.931 . S
N103 Co99 2.148 . S
N103 C100 1.301 . S
N103 C101 1.317 . S
N104 C100 1.328 . S
N104 C102 1.350 . S
H105 C100 0.930 . S
H106 C101 0.930 . S
C107 O108 1.224 . S
C107 O126 1.247 . S
O108 C107 1.224 . S
N109 Co99 2.128 . S
N109 C110 1.355 . S
N109 C112 1.311 . S
C110 N109 1.355 . S
C110 C111 1.363 . S
C110 H122 0.929 . S
C111 C110 1.363 . S
C111 N113 1.375 . S
C111 H129 0.931 . S
C112 N109 1.311 . S
C112 N113 1.347 . S
C112 H123 0.929 . S
N113 C111 1.375 . S
N113 C112 1.347 . S
C114 C117 1.365 . S
C114 N119 1.328 . S
C114 H120 0.929 . S
C115 C116 1.362 . S
C115 C118 1.378 . S
C115 H130 0.929 . S
C116 C115 1.362 . S
C116 C117 1.366 . S
C117 C114 1.365 . S
C117 C116 1.366 . S
C117 H131 0.930 . S
C118 C115 1.378 . S
C118 N119 1.315 . S
C118 H121 0.930 . S
N119 Co99 2.194 . S
N119 C114 1.328 . S
N119 C118 1.315 . S
H120 C114 0.929 . S
H121 C118 0.930 . S
H122 C110 0.929 . S
H123 C112 0.929 . S
O124 Co99 2.351 . S
O124 C127 1.244 . S
O125 Co99 2.155 . S
O125 C127 1.240 . S
O126 Co99 2.096 . S
O126 C107 1.247 . S
C127 O124 1.244 . S
C127 O125 1.240 . S
H128 C102 0.931 . S
H129 C111 0.931 . S
H130 C115 0.929 . S
H131 C117 0.930 . S
Co132 N136 2.148 . S
Co132 N142 2.128 . S
Co132 N152 2.194 . S
Co132 O157 2.351 . S
Co132 O158 2.155 . S
Co132 O159 2.096 . S
C133 N136 1.301 . S
C133 N137 1.328 . S
C133 H138 0.930 . S
C134 C135 1.333 . S
C134 N136 1.317 . S
C134 H139 0.930 . S
C135 C134 1.333 . S
C135 N137 1.350 . S
C135 H161 0.931 . S
N136 Co132 2.148 . S
N136 C133 1.301 . S
N136 C134 1.317 . S
N137 C133 1.328 . S
N137 C135 1.350 . S
H138 C133 0.930 . S
H139 C134 0.930 . S
C140 O141 1.224 . S
C140 O159 1.247 . S
O141 C140 1.224 . S
N142 Co132 2.128 . S
N142 C143 1.355 . S
N142 C145 1.311 . S
C143 N142 1.355 . S
C143 C144 1.363 . S
C143 H155 0.929 . S
C144 C143 1.363 . S
C144 N146 1.375 . S
C144 H162 0.931 . S
C145 N142 1.311 . S
C145 N146 1.347 . S
C145 H156 0.929 . S
N146 C144 1.375 . S
N146 C145 1.347 . S
C147 C150 1.365 . S
C147 N152 1.328 . S
C147 H153 0.929 . S
C148 C149 1.362 . S
C148 C151 1.378 . S
C148 H163 0.929 . S
C149 C148 1.362 . S
C149 C150 1.366 . S
C150 C147 1.365 . S
C150 C149 1.366 . S
C150 H164 0.930 . S
C151 C148 1.378 . S
C151 N152 1.315 . S
C151 H154 0.930 . S
N152 Co132 2.194 . S
N152 C147 1.328 . S
N152 C151 1.315 . S
H153 C147 0.929 . S
H154 C151 0.930 . S
H155 C143 0.929 . S
H156 C145 0.929 . S
O157 Co132 2.351 . S
O157 C160 1.244 . S
O158 Co132 2.155 . S
O158 C160 1.240 . S
O159 Co132 2.096 . S
O159 C140 1.247 . S
C160 O157 1.244 . S
C160 O158 1.240 . S
H161 C135 0.931 . S
H162 C144 0.931 . S
H163 C148 0.929 . S
H164 C150 0.930 . S
Co165 N169 2.148 . S
Co165 N175 2.128 . S
Co165 N185 2.194 . S
Co165 O190 2.351 . S
Co165 O191 2.155 . S
Co165 O192 2.096 . S
C166 N169 1.301 . S
C166 N170 1.328 . S
C166 H171 0.930 . S
C167 C168 1.333 . S
C167 N169 1.317 . S
C167 H172 0.930 . S
C168 C167 1.333 . S
C168 N170 1.350 . S
C168 H194 0.931 . S
N169 Co165 2.148 . S
N169 C166 1.301 . S
N169 C167 1.317 . S
N170 C166 1.328 . S
N170 C168 1.350 . S
H171 C166 0.930 . S
H172 C167 0.930 . S
C173 O174 1.224 . S
C173 O192 1.247 . S
O174 C173 1.224 . S
N175 Co165 2.128 . S
N175 C176 1.355 . S
N175 C178 1.311 . S
C176 N175 1.355 . S
C176 C177 1.363 . S
C176 H188 0.929 . S
C177 C176 1.363 . S
C177 N179 1.375 . S
C177 H195 0.931 . S
C178 N175 1.311 . S
C178 N179 1.347 . S
C178 H189 0.929 . S
N179 C177 1.375 . S
N179 C178 1.347 . S
C180 C183 1.365 . S
C180 N185 1.328 . S
C180 H186 0.929 . S
C181 C182 1.362 . S
C181 C184 1.378 . S
C181 H196 0.929 . S
C182 C181 1.362 . S
C182 C183 1.366 . S
C183 C180 1.365 . S
C183 C182 1.366 . S
C183 H197 0.930 . S
C184 C181 1.378 . S
C184 N185 1.315 . S
C184 H187 0.930 . S
N185 Co165 2.194 . S
N185 C180 1.328 . S
N185 C184 1.315 . S
H186 C180 0.929 . S
H187 C184 0.930 . S
H188 C176 0.929 . S
H189 C178 0.929 . S
O190 Co165 2.351 . S
O190 C193 1.244 . S
O191 Co165 2.155 . S
O191 C193 1.240 . S
O192 Co165 2.096 . S
O192 C173 1.247 . S
C193 O190 1.244 . S
C193 O191 1.240 . S
H194 C168 0.931 . S
H195 C177 0.931 . S
H196 C181 0.929 . S
H197 C183 0.930 . S
Co198 N202 2.148 . S
Co198 N208 2.128 . S
Co198 N218 2.194 . S
Co198 O223 2.351 . S
Co198 O224 2.155 1_556 S
Co198 O225 2.096 . S
C199 N202 1.301 . S
C199 N203 1.321 1_556 S
C199 H204 0.930 . S
C200 C201 1.324 1_556 S
C200 N202 1.317 . S
C200 H205 0.930 . S
C201 C200 1.324 1_554 S
C201 N203 1.350 . S
C201 H227 0.940 . S
N202 Co198 2.148 . S
N202 C199 1.301 . S
N202 C200 1.317 . S
N203 C199 1.321 1_554 S
N203 C201 1.350 . S
H204 C199 0.930 . S
H205 C200 0.930 . S
C206 O207 1.224 . S
C206 O225 1.247 . S
O207 C206 1.224 . S
N208 Co198 2.128 . S
N208 C209 1.355 . S
N208 C211 1.311 . S
C209 N208 1.355 . S
C209 C210 1.363 . S
C209 H221 0.929 . S
C210 C209 1.363 . S
C210 N212 1.375 . S
C210 H228 0.931 . S
C211 N208 1.311 . S
C211 N212 1.347 . S
C211 H222 0.929 . S
N212 C210 1.375 . S
N212 C211 1.347 . S
C213 C216 1.365 . S
C213 N218 1.328 . S
C213 H219 0.929 . S
C214 C215 1.362 . S
C214 C217 1.378 . S
C214 H229 0.929 . S
C215 C214 1.362 . S
C215 C216 1.366 . S
C216 C213 1.365 . S
C216 C215 1.366 . S
C216 H230 0.930 . S
C217 C214 1.378 . S
C217 N218 1.315 . S
C217 H220 0.930 . S
N218 Co198 2.194 . S
N218 C213 1.328 . S
N218 C217 1.315 . S
H219 C213 0.929 . S
H220 C217 0.930 . S
H221 C209 0.929 . S
H222 C211 0.929 . S
O223 Co198 2.351 . S
O223 C226 1.244 1_556 S
O224 Co198 2.155 1_554 S
O224 C226 1.240 . S
O225 Co198 2.096 . S
O225 C206 1.247 . S
C226 O223 1.244 1_554 S
C226 O224 1.240 . S
H227 C201 0.940 . S
H228 C210 0.931 . S
H229 C214 0.929 . S
H230 C216 0.930 . S
Co231 N235 2.148 . S
Co231 N241 2.128 . S
Co231 N251 2.194 . S
Co231 O256 2.351 . S
Co231 O257 2.155 1_556 S
Co231 O258 2.096 . S
C232 N235 1.301 . S
C232 N236 1.321 1_556 S
C232 H237 0.930 . S
C233 C234 1.324 1_556 S
C233 N235 1.317 . S
C233 H238 0.930 . S
C234 C233 1.324 1_554 S
C234 N236 1.350 . S
C234 H260 0.940 . S
N235 Co231 2.148 . S
N235 C232 1.301 . S
N235 C233 1.317 . S
N236 C232 1.321 1_554 S
N236 C234 1.350 . S
H237 C232 0.930 . S
H238 C233 0.930 . S
C239 O240 1.224 . S
C239 O258 1.247 . S
O240 C239 1.224 . S
N241 Co231 2.128 . S
N241 C242 1.355 . S
N241 C244 1.311 . S
C242 N241 1.355 . S
C242 C243 1.363 . S
C242 H254 0.929 . S
C243 C242 1.363 . S
C243 N245 1.375 . S
C243 H261 0.931 . S
C244 N241 1.311 . S
C244 N245 1.347 . S
C244 H255 0.929 . S
N245 C243 1.375 . S
N245 C244 1.347 . S
C246 C249 1.365 . S
C246 N251 1.328 . S
C246 H252 0.929 . S
C247 C248 1.362 . S
C247 C250 1.378 . S
C247 H262 0.929 . S
C248 C247 1.362 . S
C248 C249 1.366 . S
C249 C246 1.365 . S
C249 C248 1.366 . S
C249 H263 0.930 . S
C250 C247 1.378 . S
C250 N251 1.315 . S
C250 H253 0.930 . S
N251 Co231 2.194 . S
N251 C246 1.328 . S
N251 C250 1.315 . S
H252 C246 0.929 . S
H253 C250 0.930 . S
H254 C242 0.929 . S
H255 C244 0.929 . S
O256 Co231 2.351 . S
O256 C259 1.244 1_556 S
O257 Co231 2.155 1_554 S
O257 C259 1.240 . S
O258 Co231 2.096 . S
O258 C239 1.247 . S
C259 O256 1.244 1_554 S
C259 O257 1.240 . S
H260 C234 0.940 . S
H261 C243 0.931 . S
H262 C247 0.929 . S
H263 C249 0.930 . S
Co264 N268 2.148 . S
Co264 N274 2.128 . S
Co264 N284 2.194 . S
Co264 O289 2.351 . S
Co264 O290 2.155 1_556 S
Co264 O291 2.096 . S
C265 N268 1.301 . S
C265 N269 1.321 1_556 S
C265 H270 0.930 . S
C266 C267 1.324 1_556 S
C266 N268 1.317 . S
C266 H271 0.930 . S
C267 C266 1.324 1_554 S
C267 N269 1.350 . S
C267 H293 0.940 . S
N268 Co264 2.148 . S
N268 C265 1.301 . S
N268 C266 1.317 . S
N269 C265 1.321 1_554 S
N269 C267 1.350 . S
H270 C265 0.930 . S
H271 C266 0.930 . S
C272 O273 1.224 . S
C272 O291 1.247 . S
O273 C272 1.224 . S
N274 Co264 2.128 . S
N274 C275 1.355 . S
N274 C277 1.311 . S
C275 N274 1.355 . S
C275 C276 1.363 . S
C275 H287 0.929 . S
C276 C275 1.363 . S
C276 N278 1.375 . S
C276 H294 0.931 . S
C277 N274 1.311 . S
C277 N278 1.347 . S
C277 H288 0.929 . S
N278 C276 1.375 . S
N278 C277 1.347 . S
C279 C282 1.365 . S
C279 N284 1.328 . S
C279 H285 0.929 . S
C280 C281 1.362 . S
C280 C283 1.378 . S
C280 H295 0.929 . S
C281 C280 1.362 . S
C281 C282 1.366 . S
C282 C279 1.365 . S
C282 C281 1.366 . S
C282 H296 0.930 . S
C283 C280 1.378 . S
C283 N284 1.315 . S
C283 H286 0.930 . S
N284 Co264 2.194 . S
N284 C279 1.328 . S
N284 C283 1.315 . S
H285 C279 0.929 . S
H286 C283 0.930 . S
H287 C275 0.929 . S
H288 C277 0.929 . S
O289 Co264 2.351 . S
O289 C292 1.244 1_556 S
O290 Co264 2.155 1_554 S
O290 C292 1.240 . S
O291 Co264 2.096 . S
O291 C272 1.247 . S
C292 O289 1.244 1_554 S
C292 O290 1.240 . S
H293 C267 0.940 . S
H294 C276 0.931 . S
H295 C280 0.929 . S
H296 C282 0.930 . S
Co297 N301 2.148 . S
Co297 N307 2.128 . S
Co297 N317 2.194 . S
Co297 O322 2.351 . S
Co297 O323 2.155 . S
Co297 O324 2.096 . S
C298 N301 1.301 . S
C298 N302 1.328 . S
C298 H303 0.930 . S
C299 C300 1.333 . S
C299 N301 1.317 . S
C299 H304 0.930 . S
C300 C299 1.333 . S
C300 N302 1.350 . S
C300 H326 0.931 . S
N301 Co297 2.148 . S
N301 C298 1.301 . S
N301 C299 1.317 . S
N302 C298 1.328 . S
N302 C300 1.350 . S
H303 C298 0.930 . S
H304 C299 0.930 . S
C305 O306 1.224 . S
C305 O324 1.247 . S
O306 C305 1.224 . S
N307 Co297 2.128 . S
N307 C308 1.355 . S
N307 C310 1.311 . S
C308 N307 1.355 . S
C308 C309 1.363 . S
C308 H320 0.929 . S
C309 C308 1.363 . S
C309 N311 1.375 . S
C309 H327 0.931 . S
C310 N307 1.311 . S
C310 N311 1.347 . S
C310 H321 0.929 . S
N311 C309 1.375 . S
N311 C310 1.347 . S
C312 C315 1.365 . S
C312 N317 1.328 . S
C312 H318 0.929 . S
C313 C314 1.362 . S
C313 C316 1.378 . S
C313 H328 0.929 . S
C314 C313 1.362 . S
C314 C315 1.366 . S
C315 C312 1.365 . S
C315 C314 1.366 . S
C315 H329 0.930 . S
C316 C313 1.378 . S
C316 N317 1.315 . S
C316 H319 0.930 . S
N317 Co297 2.194 . S
N317 C312 1.328 . S
N317 C316 1.315 . S
H318 C312 0.929 . S
H319 C316 0.930 . S
H320 C308 0.929 . S
H321 C310 0.929 . S
O322 Co297 2.351 . S
O322 C325 1.244 . S
O323 Co297 2.155 . S
O323 C325 1.240 . S
O324 Co297 2.096 . S
O324 C305 1.247 . S
C325 O322 1.244 . S
C325 O323 1.240 . S
H326 C300 0.931 . S
H327 C309 0.931 . S
H328 C313 0.929 . S
H329 C315 0.930 . S
Co330 N334 2.148 . S
Co330 N340 2.128 . S
Co330 N350 2.194 . S
Co330 O355 2.351 . S
Co330 O356 2.155 . S
Co330 O357 2.096 . S
C331 N334 1.301 . S
C331 N335 1.328 . S
C331 H336 0.930 . S
C332 C333 1.333 . S
C332 N334 1.317 . S
C332 H337 0.930 . S
C333 C332 1.333 . S
C333 N335 1.350 . S
C333 H359 0.931 . S
N334 Co330 2.148 . S
N334 C331 1.301 . S
N334 C332 1.317 . S
N335 C331 1.328 . S
N335 C333 1.350 . S
H336 C331 0.930 . S
H337 C332 0.930 . S
C338 O339 1.224 . S
C338 O357 1.247 . S
O339 C338 1.224 . S
N340 Co330 2.128 . S
N340 C341 1.355 . S
N340 C343 1.311 . S
C341 N340 1.355 . S
C341 C342 1.363 . S
C341 H353 0.929 . S
C342 C341 1.363 . S
C342 N344 1.375 . S
C342 H360 0.931 . S
C343 N340 1.311 . S
C343 N344 1.347 . S
C343 H354 0.929 . S
N344 C342 1.375 . S
N344 C343 1.347 . S
C345 C348 1.365 . S
C345 N350 1.328 . S
C345 H351 0.929 . S
C346 C347 1.362 . S
C346 C349 1.378 . S
C346 H361 0.929 . S
C347 C346 1.362 . S
C347 C348 1.366 . S
C348 C345 1.365 . S
C348 C347 1.366 . S
C348 H362 0.930 . S
C349 C346 1.378 . S
C349 N350 1.315 . S
C349 H352 0.930 . S
N350 Co330 2.194 . S
N350 C345 1.328 . S
N350 C349 1.315 . S
H351 C345 0.929 . S
H352 C349 0.930 . S
H353 C341 0.929 . S
H354 C343 0.929 . S
O355 Co330 2.351 . S
O355 C358 1.244 . S
O356 Co330 2.155 . S
O356 C358 1.240 . S
O357 Co330 2.096 . S
O357 C338 1.247 . S
C358 O355 1.244 . S
C358 O356 1.240 . S
H359 C333 0.931 . S
H360 C342 0.931 . S
H361 C346 0.929 . S
H362 C348 0.930 . S
Co363 N367 2.148 . S
Co363 N373 2.128 . S
Co363 N383 2.194 . S
Co363 O388 2.351 . S
Co363 O389 2.155 . S
Co363 O390 2.096 . S
C364 N367 1.301 . S
C364 N368 1.328 . S
C364 H369 0.930 . S
C365 C366 1.333 . S
C365 N367 1.317 . S
C365 H370 0.930 . S
C366 C365 1.333 . S
C366 N368 1.350 . S
C366 H392 0.931 . S
N367 Co363 2.148 . S
N367 C364 1.301 . S
N367 C365 1.317 . S
N368 C364 1.328 . S
N368 C366 1.350 . S
H369 C364 0.930 . S
H370 C365 0.930 . S
C371 O372 1.224 . S
C371 O390 1.247 . S
O372 C371 1.224 . S
N373 Co363 2.128 . S
N373 C374 1.355 . S
N373 C376 1.311 . S
C374 N373 1.355 . S
C374 C375 1.363 . S
C374 H386 0.929 . S
C375 C374 1.363 . S
C375 N377 1.375 . S
C375 H393 0.931 . S
C376 N373 1.311 . S
C376 N377 1.347 . S
C376 H387 0.929 . S
N377 C375 1.375 . S
N377 C376 1.347 . S
C378 C381 1.365 . S
C378 N383 1.328 . S
C378 H384 0.929 . S
C379 C380 1.362 . S
C379 C382 1.378 . S
C379 H394 0.929 . S
C380 C379 1.362 . S
C380 C381 1.366 . S
C381 C378 1.365 . S
C381 C380 1.366 . S
C381 H395 0.930 . S
C382 C379 1.378 . S
C382 N383 1.315 . S
C382 H385 0.930 . S
N383 Co363 2.194 . S
N383 C378 1.328 . S
N383 C382 1.315 . S
H384 C378 0.929 . S
H385 C382 0.930 . S
H386 C374 0.929 . S
H387 C376 0.929 . S
O388 Co363 2.351 . S
O388 C391 1.244 . S
O389 Co363 2.155 . S
O389 C391 1.240 . S
O390 Co363 2.096 . S
O390 C371 1.247 . S
C391 O388 1.244 . S
C391 O389 1.240 . S
H392 C366 0.931 . S
H393 C375 0.931 . S
H394 C379 0.929 . S
H395 C381 0.930 . S
Co396 N400 2.148 . S
Co396 N406 2.128 . S
Co396 N416 2.194 . S
Co396 O421 2.351 . S
Co396 O422 2.155 . S
Co396 O423 2.096 . S
C397 N400 1.301 . S
C397 N401 1.328 . S
C397 H402 0.930 . S
C398 C399 1.333 . S
C398 N400 1.317 . S
C398 H403 0.930 . S
C399 C398 1.333 . S
C399 N401 1.350 . S
C399 H425 0.931 . S
N400 Co396 2.148 . S
N400 C397 1.301 . S
N400 C398 1.317 . S
N401 C397 1.328 . S
N401 C399 1.350 . S
H402 C397 0.930 . S
H403 C398 0.930 . S
C404 O405 1.224 . S
C404 O423 1.247 . S
O405 C404 1.224 . S
N406 Co396 2.128 . S
N406 C407 1.355 . S
N406 C409 1.311 . S
C407 N406 1.355 . S
C407 C408 1.363 . S
C407 H419 0.929 . S
C408 C407 1.363 . S
C408 N410 1.375 . S
C408 H426 0.931 1_655 S
C409 N406 1.311 . S
C409 N410 1.347 . S
C409 H420 0.929 . S
N410 C408 1.375 . S
N410 C409 1.347 . S
C411 C414 1.365 . S
C411 N416 1.328 . S
C411 H417 0.929 . S
C412 C413 1.362 . S
C412 C415 1.378 . S
C412 H427 0.929 . S
C413 C412 1.362 . S
C413 C414 1.366 . S
C414 C411 1.365 . S
C414 C413 1.366 . S
C414 H428 0.930 . S
C415 C412 1.378 . S
C415 N416 1.315 . S
C415 H418 0.930 . S
N416 Co396 2.194 . S
N416 C411 1.328 . S
N416 C415 1.315 . S
H417 C411 0.929 . S
H418 C415 0.930 . S
H419 C407 0.929 . S
H420 C409 0.929 . S
O421 Co396 2.351 . S
O421 C424 1.244 . S
O422 Co396 2.155 . S
O422 C424 1.240 . S
O423 Co396 2.096 . S
O423 C404 1.247 . S
C424 O421 1.244 . S
C424 O422 1.240 . S
H425 C399 0.931 . S
H426 C408 0.931 1_455 S
H427 C412 0.929 . S
H428 C414 0.930 . S
Co429 N433 2.148 . S
Co429 N439 2.128 . S
Co429 N449 2.194 . S
Co429 O454 2.351 . S
Co429 O455 2.155 . S
Co429 O456 2.096 . S
C430 N433 1.301 . S
C430 N434 1.328 . S
C430 H435 0.930 . S
C431 C432 1.333 . S
C431 N433 1.317 . S
C431 H436 0.930 . S
C432 C431 1.333 . S
C432 N434 1.350 . S
C432 H458 0.931 . S
N433 Co429 2.148 . S
N433 C430 1.301 . S
N433 C431 1.317 . S
N434 C430 1.328 . S
N434 C432 1.350 . S
H435 C430 0.930 . S
H436 C431 0.930 . S
C437 O438 1.224 . S
C437 O456 1.247 . S
O438 C437 1.224 . S
N439 Co429 2.128 . S
N439 C440 1.355 . S
N439 C442 1.311 . S
C440 N439 1.355 . S
C440 C441 1.363 . S
C440 H452 0.929 . S
C441 C440 1.363 . S
C441 N443 1.375 . S
C441 H459 0.931 . S
C442 N439 1.311 . S
C442 N443 1.347 . S
C442 H453 0.929 . S
N443 C441 1.375 . S
N443 C442 1.347 . S
C444 C447 1.365 . S
C444 N449 1.328 . S
C444 H450 0.929 . S
C445 C446 1.362 . S
C445 C448 1.378 . S
C445 H460 0.929 . S
C446 C445 1.362 . S
C446 C447 1.366 . S
C447 C444 1.365 . S
C447 C446 1.366 . S
C447 H461 0.930 . S
C448 C445 1.378 . S
C448 N449 1.315 . S
C448 H451 0.930 . S
N449 Co429 2.194 . S
N449 C444 1.328 . S
N449 C448 1.315 . S
H450 C444 0.929 . S
H451 C448 0.930 . S
H452 C440 0.929 . S
H453 C442 0.929 . S
O454 Co429 2.351 . S
O454 C457 1.244 . S
O455 Co429 2.155 . S
O455 C457 1.240 . S
O456 Co429 2.096 . S
O456 C437 1.247 . S
C457 O454 1.244 . S
C457 O455 1.240 . S
H458 C432 0.931 . S
H459 C441 0.931 . S
H460 C445 0.929 . S
H461 C447 0.930 . S
Co462 N466 2.148 . S
Co462 N472 2.128 . S
Co462 N482 2.194 . S
Co462 O487 2.351 . S
Co462 O488 2.155 . S
Co462 O489 2.096 . S
C463 N466 1.301 . S
C463 N467 1.328 . S
C463 H468 0.930 . S
C464 C465 1.333 . S
C464 N466 1.317 . S
C464 H469 0.930 . S
C465 C464 1.333 . S
C465 N467 1.350 . S
C465 H491 0.931 . S
N466 Co462 2.148 . S
N466 C463 1.301 . S
N466 C464 1.317 . S
N467 C463 1.328 . S
N467 C465 1.350 . S
H468 C463 0.930 . S
H469 C464 0.930 . S
C470 O471 1.224 . S
C470 O489 1.247 . S
O471 C470 1.224 . S
N472 Co462 2.128 . S
N472 C473 1.355 . S
N472 C475 1.311 . S
C473 N472 1.355 . S
C473 C474 1.363 . S
C473 H485 0.929 . S
C474 C473 1.363 . S
C474 N476 1.375 . S
C474 H492 0.931 1_545 S
C475 N472 1.311 . S
C475 N476 1.347 . S
C475 H486 0.929 . S
N476 C474 1.375 . S
N476 C475 1.347 . S
C477 C480 1.365 . S
C477 N482 1.328 . S
C477 H483 0.929 . S
C478 C479 1.362 . S
C478 C481 1.378 . S
C478 H493 0.929 . S
C479 C478 1.362 . S
C479 C480 1.366 . S
C480 C477 1.365 . S
C480 C479 1.366 . S
C480 H494 0.930 . S
C481 C478 1.378 . S
C481 N482 1.315 . S
C481 H484 0.930 . S
N482 Co462 2.194 . S
N482 C477 1.328 . S
N482 C481 1.315 . S
H483 C477 0.929 . S
H484 C481 0.930 . S
H485 C473 0.929 . S
H486 C475 0.929 . S
O487 Co462 2.351 . S
O487 C490 1.244 . S
O488 Co462 2.155 . S
O488 C490 1.240 . S
O489 Co462 2.096 . S
O489 C470 1.247 . S
C490 O487 1.244 . S
C490 O488 1.240 . S
H491 C465 0.931 . S
H492 C474 0.931 1_565 S
H493 C478 0.929 . S
H494 C480 0.930 . S
Co495 N499 2.148 . S
Co495 N505 2.128 . S
Co495 N515 2.194 . S
Co495 O520 2.351 . S
Co495 O521 2.155 . S
Co495 O522 2.096 . S
C496 N499 1.301 . S
C496 N500 1.328 . S
C496 H501 0.930 . S
C497 C498 1.333 . S
C497 N499 1.317 . S
C497 H502 0.930 . S
C498 C497 1.333 . S
C498 N500 1.350 . S
C498 H524 0.931 . S
N499 Co495 2.148 . S
N499 C496 1.301 . S
N499 C497 1.317 . S
N500 C496 1.328 . S
N500 C498 1.350 . S
H501 C496 0.930 . S
H502 C497 0.930 . S
C503 O504 1.224 . S
C503 O522 1.247 . S
O504 C503 1.224 . S
N505 Co495 2.128 . S
N505 C506 1.355 . S
N505 C508 1.311 . S
C506 N505 1.355 . S
C506 C507 1.363 . S
C506 H518 0.929 . S
C507 C506 1.363 . S
C507 N509 1.375 . S
C507 H525 0.931 . S
C508 N505 1.311 . S
C508 N509 1.347 . S
C508 H519 0.929 . S
N509 C507 1.375 . S
N509 C508 1.347 . S
C510 C513 1.365 . S
C510 N515 1.328 . S
C510 H516 0.929 . S
C511 C512 1.362 . S
C511 C514 1.378 . S
C511 H526 0.929 . S
C512 C511 1.362 . S
C512 C513 1.366 . S
C513 C510 1.365 . S
C513 C512 1.366 . S
C513 H527 0.930 . S
C514 C511 1.378 . S
C514 N515 1.315 . S
C514 H517 0.930 . S
N515 Co495 2.194 . S
N515 C510 1.328 . S
N515 C514 1.315 . S
H516 C510 0.929 . S
H517 C514 0.930 . S
H518 C506 0.929 . S
H519 C508 0.929 . S
O520 Co495 2.351 . S
O520 C523 1.244 . S
O521 Co495 2.155 . S
O521 C523 1.240 . S
O522 Co495 2.096 . S
O522 C503 1.247 . S
C523 O520 1.244 . S
C523 O521 1.240 . S
H524 C498 0.931 . S
H525 C507 0.931 . S
H526 C511 0.929 . S
H527 C513 0.930 . S
Co528 N532 2.148 . S
Co528 N538 2.128 . S
Co528 N548 2.194 . S
Co528 O553 2.351 . S
Co528 O554 2.155 . S
Co528 O555 2.096 . S
C529 N532 1.301 . S
C529 N533 1.328 . S
C529 H534 0.930 . S
C530 C531 1.333 . S
C530 N532 1.317 . S
C530 H535 0.930 . S
C531 C530 1.333 . S
C531 N533 1.350 . S
C531 H557 0.931 . S
N532 Co528 2.148 . S
N532 C529 1.301 . S
N532 C530 1.317 . S
N533 C529 1.328 . S
N533 C531 1.350 . S
H534 C529 0.930 . S
H535 C530 0.930 . S
C536 O537 1.224 . S
C536 O555 1.247 . S
O537 C536 1.224 . S
N538 Co528 2.128 . S
N538 C539 1.355 . S
N538 C541 1.311 . S
C539 N538 1.355 . S
C539 C540 1.363 . S
C539 H551 0.929 . S
C540 C539 1.363 . S
C540 N542 1.375 . S
C540 H558 0.931 . S
C541 N538 1.311 . S
C541 N542 1.347 . S
C541 H552 0.929 . S
N542 C540 1.375 . S
N542 C541 1.347 . S
C543 C546 1.365 . S
C543 N548 1.328 . S
C543 H549 0.929 . S
C544 C545 1.362 . S
C544 C547 1.378 . S
C544 H559 0.929 . S
C545 C544 1.362 . S
C545 C546 1.366 . S
C546 C543 1.365 . S
C546 C545 1.366 . S
C546 H560 0.930 . S
C547 C544 1.378 . S
C547 N548 1.315 . S
C547 H550 0.930 . S
N548 Co528 2.194 . S
N548 C543 1.328 . S
N548 C547 1.315 . S
H549 C543 0.929 . S
H550 C547 0.930 . S
H551 C539 0.929 . S
H552 C541 0.929 . S
O553 Co528 2.351 . S
O553 C556 1.244 . S
O554 Co528 2.155 . S
O554 C556 1.240 . S
O555 Co528 2.096 . S
O555 C536 1.247 . S
C556 O553 1.244 . S
C556 O554 1.240 . S
H557 C531 0.931 . S
H558 C540 0.931 . S
H559 C544 0.929 . S
H560 C546 0.930 . S
Co561 N565 2.148 . S
Co561 N571 2.128 . S
Co561 N581 2.194 . S
Co561 O586 2.351 . S
Co561 O587 2.155 . S
Co561 O588 2.096 . S
C562 N565 1.301 . S
C562 N566 1.328 . S
C562 H567 0.930 . S
C563 C564 1.333 . S
C563 N565 1.317 . S
C563 H568 0.930 . S
C564 C563 1.333 . S
C564 N566 1.350 . S
C564 H590 0.931 . S
N565 Co561 2.148 . S
N565 C562 1.301 . S
N565 C563 1.317 . S
N566 C562 1.328 . S
N566 C564 1.350 . S
H567 C562 0.930 . S
H568 C563 0.930 . S
C569 O570 1.224 . S
C569 O588 1.247 . S
O570 C569 1.224 . S
N571 Co561 2.128 . S
N571 C572 1.355 . S
N571 C574 1.311 . S
C572 N571 1.355 . S
C572 C573 1.363 . S
C572 H584 0.929 . S
C573 C572 1.363 . S
C573 N575 1.375 . S
C573 H591 0.931 . S
C574 N571 1.311 . S
C574 N575 1.347 . S
C574 H585 0.929 . S
N575 C573 1.375 . S
N575 C574 1.347 . S
C576 C579 1.365 . S
C576 N581 1.328 . S
C576 H582 0.929 . S
C577 C578 1.362 . S
C577 C580 1.378 . S
C577 H592 0.929 . S
C578 C577 1.362 . S
C578 C579 1.366 . S
C579 C576 1.365 . S
C579 C578 1.366 . S
C579 H593 0.930 . S
C580 C577 1.378 . S
C580 N581 1.315 . S
C580 H583 0.930 . S
N581 Co561 2.194 . S
N581 C576 1.328 . S
N581 C580 1.315 . S
H582 C576 0.929 . S
H583 C580 0.930 . S
H584 C572 0.929 . S
H585 C574 0.929 . S
O586 Co561 2.351 . S
O586 C589 1.244 . S
O587 Co561 2.155 . S
O587 C589 1.240 . S
O588 Co561 2.096 . S
O588 C569 1.247 . S
C589 O586 1.244 . S
C589 O587 1.240 . S
H590 C564 0.931 . S
H591 C573 0.931 . S
H592 C577 0.929 . S
H593 C579 0.930 . S
Co594 N598 2.148 . S
Co594 N604 2.128 . S
Co594 N614 2.194 . S
Co594 O619 2.351 . S
Co594 O620 2.155 . S
Co594 O621 2.096 . S
C595 N598 1.301 . S
C595 N599 1.328 . S
C595 H600 0.930 . S
C596 C597 1.333 . S
C596 N598 1.317 . S
C596 H601 0.930 . S
C597 C596 1.333 . S
C597 N599 1.350 . S
C597 H623 0.931 . S
N598 Co594 2.148 . S
N598 C595 1.301 . S
N598 C596 1.317 . S
N599 C595 1.328 . S
N599 C597 1.350 . S
H600 C595 0.930 . S
H601 C596 0.930 . S
C602 O603 1.224 . S
C602 O621 1.247 . S
O603 C602 1.224 . S
N604 Co594 2.128 . S
N604 C605 1.355 . S
N604 C607 1.311 . S
C605 N604 1.355 . S
C605 C606 1.363 . S
C605 H617 0.929 . S
C606 C605 1.363 . S
C606 N608 1.375 . S
C606 H624 0.931 . S
C607 N604 1.311 . S
C607 N608 1.347 . S
C607 H618 0.929 . S
N608 C606 1.375 . S
N608 C607 1.347 . S
C609 C612 1.365 . S
C609 N614 1.328 . S
C609 H615 0.929 . S
C610 C611 1.362 . S
C610 C613 1.378 . S
C610 H625 0.929 . S
C611 C610 1.362 . S
C611 C612 1.366 . S
C612 C609 1.365 . S
C612 C611 1.366 . S
C612 H626 0.930 . S
C613 C610 1.378 . S
C613 N614 1.315 . S
C613 H616 0.930 . S
N614 Co594 2.194 . S
N614 C609 1.328 . S
N614 C613 1.315 . S
H615 C609 0.929 . S
H616 C613 0.930 . S
H617 C605 0.929 . S
H618 C607 0.929 . S
O619 Co594 2.351 . S
O619 C622 1.244 . S
O620 Co594 2.155 . S
O620 C622 1.240 . S
O621 Co594 2.096 . S
O621 C602 1.247 . S
C622 O619 1.244 . S
C622 O620 1.240 . S
H623 C597 0.931 . S
H624 C606 0.931 . S
H625 C610 0.929 . S
H626 C612 0.930 . S
Co627 N631 2.148 . S
Co627 N637 2.128 . S
Co627 N647 2.194 . S
Co627 O652 2.351 . S
Co627 O653 2.155 . S
Co627 O654 2.096 . S
C628 N631 1.301 . S
C628 N632 1.328 . S
C628 H633 0.930 . S
C629 C630 1.333 . S
C629 N631 1.317 . S
C629 H634 0.930 . S
C630 C629 1.333 . S
C630 N632 1.350 . S
C630 H656 0.931 . S
N631 Co627 2.148 . S
N631 C628 1.301 . S
N631 C629 1.317 . S
N632 C628 1.328 . S
N632 C630 1.350 . S
H633 C628 0.930 . S
H634 C629 0.930 . S
C635 O636 1.224 . S
C635 O654 1.247 . S
O636 C635 1.224 . S
N637 Co627 2.128 . S
N637 C638 1.355 . S
N637 C640 1.311 . S
C638 N637 1.355 . S
C638 C639 1.363 . S
C638 H650 0.929 . S
C639 C638 1.363 . S
C639 N641 1.375 . S
C639 H657 0.931 . S
C640 N637 1.311 . S
C640 N641 1.347 . S
C640 H651 0.929 . S
N641 C639 1.375 . S
N641 C640 1.347 . S
C642 C645 1.365 . S
C642 N647 1.328 . S
C642 H648 0.929 . S
C643 C644 1.362 . S
C643 C646 1.378 . S
C643 H658 0.929 . S
C644 C643 1.362 . S
C644 C645 1.366 . S
C645 C642 1.365 . S
C645 C644 1.366 . S
C645 H659 0.930 . S
C646 C643 1.378 . S
C646 N647 1.315 . S
C646 H649 0.930 . S
N647 Co627 2.194 . S
N647 C642 1.328 . S
N647 C646 1.315 . S
H648 C642 0.929 . S
H649 C646 0.930 . S
H650 C638 0.929 . S
H651 C640 0.929 . S
O652 Co627 2.351 . S
O652 C655 1.244 . S
O653 Co627 2.155 . S
O653 C655 1.240 . S
O654 Co627 2.096 . S
O654 C635 1.247 . S
C655 O652 1.244 . S
C655 O653 1.240 . S
H656 C630 0.931 . S
H657 C639 0.931 . S
H658 C643 0.929 . S
H659 C645 0.930 . S
Co660 N664 2.148 . S
Co660 N670 2.128 . S
Co660 N680 2.194 . S
Co660 O685 2.351 . S
Co660 O686 2.155 . S
Co660 O687 2.096 . S
C661 N664 1.301 . S
C661 N665 1.328 . S
C661 H666 0.930 . S
C662 C663 1.333 . S
C662 N664 1.317 . S
C662 H667 0.930 . S
C663 C662 1.333 . S
C663 N665 1.350 . S
C663 H689 0.931 . S
N664 Co660 2.148 . S
N664 C661 1.301 . S
N664 C662 1.317 . S
N665 C661 1.328 . S
N665 C663 1.350 . S
H666 C661 0.930 . S
H667 C662 0.930 . S
C668 O669 1.224 . S
C668 O687 1.247 . S
O669 C668 1.224 . S
N670 Co660 2.128 . S
N670 C671 1.355 . S
N670 C673 1.311 . S
C671 N670 1.355 . S
C671 C672 1.363 . S
C671 H683 0.929 . S
C672 C671 1.363 . S
C672 N674 1.375 . S
C672 H690 0.931 . S
C673 N670 1.311 . S
C673 N674 1.347 . S
C673 H684 0.929 . S
N674 C672 1.375 . S
N674 C673 1.347 . S
C675 C678 1.365 . S
C675 N680 1.328 . S
C675 H681 0.929 . S
C676 C677 1.362 . S
C676 C679 1.378 . S
C676 H691 0.929 . S
C677 C676 1.362 . S
C677 C678 1.366 . S
C678 C675 1.365 . S
C678 C677 1.366 . S
C678 H692 0.930 . S
C679 C676 1.378 . S
C679 N680 1.315 . S
C679 H682 0.930 . S
N680 Co660 2.194 . S
N680 C675 1.328 . S
N680 C679 1.315 . S
H681 C675 0.929 . S
H682 C679 0.930 . S
H683 C671 0.929 . S
H684 C673 0.929 . S
O685 Co660 2.351 . S
O685 C688 1.244 . S
O686 Co660 2.155 . S
O686 C688 1.240 . S
O687 Co660 2.096 . S
O687 C668 1.247 . S
C688 O685 1.244 . S
C688 O686 1.240 . S
H689 C663 0.931 . S
H690 C672 0.931 . S
H691 C676 0.929 . S
H692 C678 0.930 . S
Co693 N697 2.148 . S
Co693 N703 2.128 . S
Co693 N713 2.194 . S
Co693 O718 2.351 . S
Co693 O719 2.155 . S
Co693 O720 2.096 . S
C694 N697 1.301 . S
C694 N698 1.328 . S
C694 H699 0.930 . S
C695 C696 1.333 . S
C695 N697 1.317 . S
C695 H700 0.930 . S
C696 C695 1.333 . S
C696 N698 1.350 . S
C696 H722 0.931 . S
N697 Co693 2.148 . S
N697 C694 1.301 . S
N697 C695 1.317 . S
N698 C694 1.328 . S
N698 C696 1.350 . S
H699 C694 0.930 . S
H700 C695 0.930 . S
C701 O702 1.224 . S
C701 O720 1.247 . S
O702 C701 1.224 . S
N703 Co693 2.128 . S
N703 C704 1.355 . S
N703 C706 1.311 . S
C704 N703 1.355 . S
C704 C705 1.363 . S
C704 H716 0.929 . S
C705 C704 1.363 . S
C705 N707 1.375 . S
C705 H723 0.931 1_545 S
C706 N703 1.311 . S
C706 N707 1.347 . S
C706 H717 0.929 . S
N707 C705 1.375 . S
N707 C706 1.347 . S
C708 C711 1.365 . S
C708 N713 1.328 . S
C708 H714 0.929 . S
C709 C710 1.362 . S
C709 C712 1.378 . S
C709 H724 0.929 . S
C710 C709 1.362 . S
C710 C711 1.366 . S
C711 C708 1.365 . S
C711 C710 1.366 . S
C711 H725 0.930 . S
C712 C709 1.378 . S
C712 N713 1.315 . S
C712 H715 0.930 . S
N713 Co693 2.194 . S
N713 C708 1.328 . S
N713 C712 1.315 . S
H714 C708 0.929 . S
H715 C712 0.930 . S
H716 C704 0.929 . S
H717 C706 0.929 . S
O718 Co693 2.351 . S
O718 C721 1.244 . S
O719 Co693 2.155 . S
O719 C721 1.240 . S
O720 Co693 2.096 . S
O720 C701 1.247 . S
C721 O718 1.244 . S
C721 O719 1.240 . S
H722 C696 0.931 . S
H723 C705 0.931 1_565 S
H724 C709 0.929 . S
H725 C711 0.930 . S
Co726 N730 2.148 . S
Co726 N736 2.128 . S
Co726 N746 2.194 . S
Co726 O751 2.351 . S
Co726 O752 2.155 . S
Co726 O753 2.096 . S
C727 N730 1.301 . S
C727 N731 1.328 . S
C727 H732 0.930 . S
C728 C729 1.333 . S
C728 N730 1.317 . S
C728 H733 0.930 . S
C729 C728 1.333 . S
C729 N731 1.350 . S
C729 H755 0.931 . S
N730 Co726 2.148 . S
N730 C727 1.301 . S
N730 C728 1.317 . S
N731 C727 1.328 . S
N731 C729 1.350 . S
H732 C727 0.930 . S
H733 C728 0.930 . S
C734 O735 1.224 . S
C734 O753 1.247 . S
O735 C734 1.224 . S
N736 Co726 2.128 . S
N736 C737 1.355 . S
N736 C739 1.311 . S
C737 N736 1.355 . S
C737 C738 1.363 . S
C737 H749 0.929 . S
C738 C737 1.363 . S
C738 N740 1.375 . S
C738 H756 0.931 1_655 S
C739 N736 1.311 . S
C739 N740 1.347 . S
C739 H750 0.929 . S
N740 C738 1.375 . S
N740 C739 1.347 . S
C741 C744 1.365 . S
C741 N746 1.328 . S
C741 H747 0.929 . S
C742 C743 1.362 . S
C742 C745 1.378 . S
C742 H757 0.929 . S
C743 C742 1.362 . S
C743 C744 1.366 . S
C744 C741 1.365 . S
C744 C743 1.366 . S
C744 H758 0.930 . S
C745 C742 1.378 . S
C745 N746 1.315 . S
C745 H748 0.930 . S
N746 Co726 2.194 . S
N746 C741 1.328 . S
N746 C745 1.315 . S
H747 C741 0.929 . S
H748 C745 0.930 . S
H749 C737 0.929 . S
H750 C739 0.929 . S
O751 Co726 2.351 . S
O751 C754 1.244 . S
O752 Co726 2.155 . S
O752 C754 1.240 . S
O753 Co726 2.096 . S
O753 C734 1.247 . S
C754 O751 1.244 . S
C754 O752 1.240 . S
H755 C729 0.931 . S
H756 C738 0.931 1_455 S
H757 C742 0.929 . S
H758 C744 0.930 . S
Co759 N763 2.148 . S
Co759 N769 2.128 . S
Co759 N779 2.194 . S
Co759 O784 2.351 . S
Co759 O785 2.155 . S
Co759 O786 2.096 . S
C760 N763 1.301 . S
C760 N764 1.328 . S
C760 H765 0.930 . S
C761 C762 1.333 . S
C761 N763 1.317 . S
C761 H766 0.930 . S
C762 C761 1.333 . S
C762 N764 1.350 . S
C762 H788 0.931 . S
N763 Co759 2.148 . S
N763 C760 1.301 . S
N763 C761 1.317 . S
N764 C760 1.328 . S
N764 C762 1.350 . S
H765 C760 0.930 . S
H766 C761 0.930 . S
C767 O768 1.224 . S
C767 O786 1.247 . S
O768 C767 1.224 . S
N769 Co759 2.128 . S
N769 C770 1.355 . S
N769 C772 1.311 . S
C770 N769 1.355 . S
C770 C771 1.363 . S
C770 H782 0.929 . S
C771 C770 1.363 . S
C771 N773 1.375 . S
C771 H789 0.931 . S
C772 N769 1.311 . S
C772 N773 1.347 . S
C772 H783 0.929 . S
N773 C771 1.375 . S
N773 C772 1.347 . S
C774 C777 1.365 . S
C774 N779 1.328 . S
C774 H780 0.929 . S
C775 C776 1.362 . S
C775 C778 1.378 . S
C775 H790 0.929 . S
C776 C775 1.362 . S
C776 C777 1.366 . S
C777 C774 1.365 . S
C777 C776 1.366 . S
C777 H791 0.930 . S
C778 C775 1.378 . S
C778 N779 1.315 . S
C778 H781 0.930 . S
N779 Co759 2.194 . S
N779 C774 1.328 . S
N779 C778 1.315 . S
H780 C774 0.929 . S
H781 C778 0.930 . S
H782 C770 0.929 . S
H783 C772 0.929 . S
O784 Co759 2.351 . S
O784 C787 1.244 . S
O785 Co759 2.155 . S
O785 C787 1.240 . S
O786 Co759 2.096 . S
O786 C767 1.247 . S
C787 O784 1.244 . S
C787 O785 1.240 . S
H788 C762 0.931 . S
H789 C771 0.931 . S
H790 C775 0.929 . S
H791 C777 0.930 . S
Co792 N796 2.148 . S
Co792 N802 2.128 . S
Co792 N812 2.194 . S
Co792 O817 2.351 . S
Co792 O818 2.155 . S
Co792 O819 2.096 . S
C793 N796 1.301 . S
C793 N797 1.328 . S
C793 H798 0.930 . S
C794 C795 1.333 . S
C794 N796 1.317 . S
C794 H799 0.930 . S
C795 C794 1.333 . S
C795 N797 1.350 . S
C795 H821 0.931 . S
N796 Co792 2.148 . S
N796 C793 1.301 . S
N796 C794 1.317 . S
N797 C793 1.328 . S
N797 C795 1.350 . S
H798 C793 0.930 . S
H799 C794 0.930 . S
C800 O801 1.224 . S
C800 O819 1.247 . S
O801 C800 1.224 . S
N802 Co792 2.128 . S
N802 C803 1.355 . S
N802 C805 1.311 . S
C803 N802 1.355 . S
C803 C804 1.363 . S
C803 H815 0.929 . S
C804 C803 1.363 . S
C804 N806 1.375 . S
C804 H822 0.931 . S
C805 N802 1.311 . S
C805 N806 1.347 . S
C805 H816 0.929 . S
N806 C804 1.375 . S
N806 C805 1.347 . S
C807 C810 1.365 . S
C807 N812 1.328 . S
C807 H813 0.929 . S
C808 C809 1.362 . S
C808 C811 1.378 . S
C808 H823 0.929 . S
C809 C808 1.362 . S
C809 C810 1.366 . S
C810 C807 1.365 . S
C810 C809 1.366 . S
C810 H824 0.930 . S
C811 C808 1.378 . S
C811 N812 1.315 . S
C811 H814 0.930 . S
N812 Co792 2.194 . S
N812 C807 1.328 . S
N812 C811 1.315 . S
H813 C807 0.929 . S
H814 C811 0.930 . S
H815 C803 0.929 . S
H816 C805 0.929 . S
O817 Co792 2.351 . S
O817 C820 1.244 . S
O818 Co792 2.155 . S
O818 C820 1.240 . S
O819 Co792 2.096 . S
O819 C800 1.247 . S
C820 O817 1.244 . S
C820 O818 1.240 . S
H821 C795 0.931 . S
H822 C804 0.931 . S
H823 C808 0.929 . S
H824 C810 0.930 . S
Co825 N829 2.148 . S
Co825 N835 2.128 . S
Co825 N845 2.194 . S
Co825 O850 2.351 . S
Co825 O851 2.155 . S
Co825 O852 2.096 . S
C826 N829 1.301 . S
C826 N830 1.328 . S
C826 H831 0.930 . S
C827 C828 1.333 . S
C827 N829 1.317 . S
C827 H832 0.930 . S
C828 C827 1.333 . S
C828 N830 1.350 . S
C828 H854 0.931 . S
N829 Co825 2.148 . S
N829 C826 1.301 . S
N829 C827 1.317 . S
N830 C826 1.328 . S
N830 C828 1.350 . S
H831 C826 0.930 . S
H832 C827 0.930 . S
C833 O834 1.224 . S
C833 O852 1.247 . S
O834 C833 1.224 . S
N835 Co825 2.128 . S
N835 C836 1.355 . S
N835 C838 1.311 . S
C836 N835 1.355 . S
C836 C837 1.363 . S
C836 H848 0.929 . S
C837 C836 1.363 . S
C837 N839 1.375 . S
C837 H855 0.931 . S
C838 N835 1.311 . S
C838 N839 1.347 . S
C838 H849 0.929 . S
N839 C837 1.375 . S
N839 C838 1.347 . S
C840 C843 1.365 . S
C840 N845 1.328 . S
C840 H846 0.929 . S
C841 C842 1.362 . S
C841 C844 1.378 . S
C841 H856 0.929 . S
C842 C841 1.362 . S
C842 C843 1.366 . S
C843 C840 1.365 . S
C843 C842 1.366 . S
C843 H857 0.930 . S
C844 C841 1.378 . S
C844 N845 1.315 . S
C844 H847 0.930 . S
N845 Co825 2.194 . S
N845 C840 1.328 . S
N845 C844 1.315 . S
H846 C840 0.929 . S
H847 C844 0.930 . S
H848 C836 0.929 . S
H849 C838 0.929 . S
O850 Co825 2.351 . S
O850 C853 1.244 . S
O851 Co825 2.155 . S
O851 C853 1.240 . S
O852 Co825 2.096 . S
O852 C833 1.247 . S
C853 O850 1.244 . S
C853 O851 1.240 . S
H854 C828 0.931 . S
H855 C837 0.931 . S
H856 C841 0.929 . S
H857 C843 0.930 . S
Co858 N862 2.148 . S
Co858 N868 2.128 . S
Co858 N878 2.194 . S
Co858 O883 2.351 . S
Co858 O884 2.155 . S
Co858 O885 2.096 . S
C859 N862 1.301 . S
C859 N863 1.328 . S
C859 H864 0.930 . S
C860 C861 1.333 . S
C860 N862 1.317 . S
C860 H865 0.930 . S
C861 C860 1.333 . S
C861 N863 1.350 . S
C861 H887 0.931 . S
N862 Co858 2.148 . S
N862 C859 1.301 . S
N862 C860 1.317 . S
N863 C859 1.328 . S
N863 C861 1.350 . S
H864 C859 0.930 . S
H865 C860 0.930 . S
C866 O867 1.224 . S
C866 O885 1.247 . S
O867 C866 1.224 . S
N868 Co858 2.128 . S
N868 C869 1.355 . S
N868 C871 1.311 . S
C869 N868 1.355 . S
C869 C870 1.363 . S
C869 H881 0.929 . S
C870 C869 1.363 . S
C870 N872 1.375 . S
C870 H888 0.931 . S
C871 N868 1.311 . S
C871 N872 1.347 . S
C871 H882 0.929 . S
N872 C870 1.375 . S
N872 C871 1.347 . S
C873 C876 1.365 . S
C873 N878 1.328 . S
C873 H879 0.929 . S
C874 C875 1.362 . S
C874 C877 1.378 . S
C874 H889 0.929 . S
C875 C874 1.362 . S
C875 C876 1.366 . S
C876 C873 1.365 . S
C876 C875 1.366 . S
C876 H890 0.930 . S
C877 C874 1.378 . S
C877 N878 1.315 . S
C877 H880 0.930 . S
N878 Co858 2.194 . S
N878 C873 1.328 . S
N878 C877 1.315 . S
H879 C873 0.929 . S
H880 C877 0.930 . S
H881 C869 0.929 . S
H882 C871 0.929 . S
O883 Co858 2.351 . S
O883 C886 1.244 . S
O884 Co858 2.155 . S
O884 C886 1.240 . S
O885 Co858 2.096 . S
O885 C866 1.247 . S
C886 O883 1.244 . S
C886 O884 1.240 . S
H887 C861 0.931 . S
H888 C870 0.931 . S
H889 C874 0.929 . S
H890 C876 0.930 . S
Co891 N895 2.148 . S
Co891 N901 2.128 . S
Co891 N911 2.194 . S
Co891 O916 2.351 . S
Co891 O917 2.155 . S
Co891 O918 2.096 . S
C892 N895 1.301 . S
C892 N896 1.328 . S
C892 H897 0.930 . S
C893 C894 1.333 . S
C893 N895 1.317 . S
C893 H898 0.930 . S
C894 C893 1.333 . S
C894 N896 1.350 . S
C894 H920 0.931 1_565 S
N895 Co891 2.148 . S
N895 C892 1.301 . S
N895 C893 1.317 . S
N896 C892 1.328 . S
N896 C894 1.350 . S
H897 C892 0.930 . S
H898 C893 0.930 . S
C899 O900 1.224 . S
C899 O918 1.247 . S
O900 C899 1.224 . S
N901 Co891 2.128 . S
N901 C902 1.355 . S
N901 C904 1.311 . S
C902 N901 1.355 . S
C902 C903 1.363 . S
C902 H914 0.929 . S
C903 C902 1.363 . S
C903 N905 1.375 . S
C903 H921 0.931 . S
C904 N901 1.311 . S
C904 N905 1.347 . S
C904 H915 0.929 . S
N905 C903 1.375 . S
N905 C904 1.347 . S
C906 C909 1.365 . S
C906 N911 1.328 . S
C906 H912 0.929 . S
C907 C908 1.362 . S
C907 C910 1.378 . S
C907 H922 0.929 . S
C908 C907 1.362 . S
C908 C909 1.366 . S
C909 C906 1.365 . S
C909 C908 1.366 . S
C909 H923 0.930 . S
C910 C907 1.378 . S
C910 N911 1.315 . S
C910 H913 0.930 . S
N911 Co891 2.194 . S
N911 C906 1.328 . S
N911 C910 1.315 . S
H912 C906 0.929 . S
H913 C910 0.930 . S
H914 C902 0.929 . S
H915 C904 0.929 . S
O916 Co891 2.351 . S
O916 C919 1.244 . S
O917 Co891 2.155 . S
O917 C919 1.240 . S
O918 Co891 2.096 . S
O918 C899 1.247 . S
C919 O916 1.244 . S
C919 O917 1.240 . S
H920 C894 0.931 1_545 S
H921 C903 0.931 . S
H922 C907 0.929 . S
H923 C909 0.930 . S
Co924 N928 2.148 . S
Co924 N934 2.128 . S
Co924 N944 2.194 . S
Co924 O949 2.351 . S
Co924 O950 2.155 . S
Co924 O951 2.096 . S
C925 N928 1.301 . S
C925 N929 1.328 . S
C925 H930 0.930 . S
C926 C927 1.333 . S
C926 N928 1.317 . S
C926 H931 0.930 . S
C927 C926 1.333 . S
C927 N929 1.350 . S
C927 H953 0.931 1_455 S
N928 Co924 2.148 . S
N928 C925 1.301 . S
N928 C926 1.317 . S
N929 C925 1.328 . S
N929 C927 1.350 . S
H930 C925 0.930 . S
H931 C926 0.930 . S
C932 O933 1.224 . S
C932 O951 1.247 . S
O933 C932 1.224 . S
N934 Co924 2.128 . S
N934 C935 1.355 . S
N934 C937 1.311 . S
C935 N934 1.355 . S
C935 C936 1.363 . S
C935 H947 0.929 . S
C936 C935 1.363 . S
C936 N938 1.375 . S
C936 H954 0.931 . S
C937 N934 1.311 . S
C937 N938 1.347 . S
C937 H948 0.929 . S
N938 C936 1.375 . S
N938 C937 1.347 . S
C939 C942 1.365 . S
C939 N944 1.328 . S
C939 H945 0.929 . S
C940 C941 1.362 . S
C940 C943 1.378 . S
C940 H955 0.929 . S
C941 C940 1.362 . S
C941 C942 1.366 . S
C942 C939 1.365 . S
C942 C941 1.366 . S
C942 H956 0.930 . S
C943 C940 1.378 . S
C943 N944 1.315 . S
C943 H946 0.930 . S
N944 Co924 2.194 . S
N944 C939 1.328 . S
N944 C943 1.315 . S
H945 C939 0.929 . S
H946 C943 0.930 . S
H947 C935 0.929 . S
H948 C937 0.929 . S
O949 Co924 2.351 . S
O949 C952 1.244 . S
O950 Co924 2.155 . S
O950 C952 1.240 . S
O951 Co924 2.096 . S
O951 C932 1.247 . S
C952 O949 1.244 . S
C952 O950 1.240 . S
H953 C927 0.931 1_655 S
H954 C936 0.931 . S
H955 C940 0.929 . S
H956 C942 0.930 . S
Co957 N961 2.148 . S
Co957 N967 2.128 . S
Co957 N977 2.194 . S
Co957 O982 2.351 . S
Co957 O983 2.155 . S
Co957 O984 2.096 . S
C958 N961 1.301 . S
C958 N962 1.328 . S
C958 H963 0.930 . S
C959 C960 1.333 . S
C959 N961 1.317 . S
C959 H964 0.930 . S
C960 C959 1.333 . S
C960 N962 1.350 . S
C960 H986 0.931 . S
N961 Co957 2.148 . S
N961 C958 1.301 . S
N961 C959 1.317 . S
N962 C958 1.328 . S
N962 C960 1.350 . S
H963 C958 0.930 . S
H964 C959 0.930 . S
C965 O966 1.224 . S
C965 O984 1.247 . S
O966 C965 1.224 . S
N967 Co957 2.128 . S
N967 C968 1.355 . S
N967 C970 1.311 . S
C968 N967 1.355 . S
C968 C969 1.363 . S
C968 H980 0.929 . S
C969 C968 1.363 . S
C969 N971 1.375 . S
C969 H987 0.931 . S
C970 N967 1.311 . S
C970 N971 1.347 . S
C970 H981 0.929 . S
N971 C969 1.375 . S
N971 C970 1.347 . S
C972 C975 1.365 . S
C972 N977 1.328 . S
C972 H978 0.929 . S
C973 C974 1.362 . S
C973 C976 1.378 . S
C973 H988 0.929 . S
C974 C973 1.362 . S
C974 C975 1.366 . S
C975 C972 1.365 . S
C975 C974 1.366 . S
C975 H989 0.930 . S
C976 C973 1.378 . S
C976 N977 1.315 . S
C976 H979 0.930 . S
N977 Co957 2.194 . S
N977 C972 1.328 . S
N977 C976 1.315 . S
H978 C972 0.929 . S
H979 C976 0.930 . S
H980 C968 0.929 . S
H981 C970 0.929 . S
O982 Co957 2.351 . S
O982 C985 1.244 . S
O983 Co957 2.155 . S
O983 C985 1.240 . S
O984 Co957 2.096 . S
O984 C965 1.247 . S
C985 O982 1.244 . S
C985 O983 1.240 . S
H986 C960 0.931 . S
H987 C969 0.931 . S
H988 C973 0.929 . S
H989 C975 0.930 . S
Co990 N994 2.148 . S
Co990 N1000 2.128 . S
Co990 N1010 2.194 . S
Co990 O1015 2.351 . S
Co990 O1016 2.155 . S
Co990 O1017 2.096 . S
C991 N994 1.301 . S
C991 N995 1.328 . S
C991 H996 0.930 . S
C992 C993 1.333 . S
C992 N994 1.317 . S
C992 H997 0.930 . S
C993 C992 1.333 . S
C993 N995 1.350 . S
C993 H1019 0.931 . S
N994 Co990 2.148 . S
N994 C991 1.301 . S
N994 C992 1.317 . S
N995 C991 1.328 . S
N995 C993 1.350 . S
H996 C991 0.930 . S
H997 C992 0.930 . S
C998 O999 1.224 . S
C998 O1017 1.247 . S
O999 C998 1.224 . S
N1000 Co990 2.128 . S
N1000 C1001 1.355 . S
N1000 C1003 1.311 . S
C1001 N1000 1.355 . S
C1001 C1002 1.363 . S
C1001 H1013 0.929 . S
C1002 C1001 1.363 . S
C1002 N1004 1.375 . S
C1002 H1020 0.931 1_455 S
C1003 N1000 1.311 . S
C1003 N1004 1.347 . S
C1003 H1014 0.929 . S
N1004 C1002 1.375 . S
N1004 C1003 1.347 . S
C1005 C1008 1.365 . S
C1005 N1010 1.328 . S
C1005 H1011 0.929 . S
C1006 C1007 1.362 . S
C1006 C1009 1.378 . S
C1006 H1021 0.929 . S
C1007 C1006 1.362 . S
C1007 C1008 1.366 . S
C1008 C1005 1.365 . S
C1008 C1007 1.366 . S
C1008 H1022 0.930 . S
C1009 C1006 1.378 . S
C1009 N1010 1.315 . S
C1009 H1012 0.930 . S
N1010 Co990 2.194 . S
N1010 C1005 1.328 . S
N1010 C1009 1.315 . S
H1011 C1005 0.929 . S
H1012 C1009 0.930 . S
H1013 C1001 0.929 . S
H1014 C1003 0.929 . S
O1015 Co990 2.351 . S
O1015 C1018 1.244 . S
O1016 Co990 2.155 . S
O1016 C1018 1.240 . S
O1017 Co990 2.096 . S
O1017 C998 1.247 . S
C1018 O1015 1.244 . S
C1018 O1016 1.240 . S
H1019 C993 0.931 . S
H1020 C1002 0.931 1_655 S
H1021 C1006 0.929 . S
H1022 C1008 0.930 . S
Co1023 N1027 2.148 . S
Co1023 N1033 2.128 . S
Co1023 N1043 2.194 . S
Co1023 O1048 2.351 . S
Co1023 O1049 2.155 . S
Co1023 O1050 2.096 . S
C1024 N1027 1.301 . S
C1024 N1028 1.328 . S
C1024 H1029 0.930 . S
C1025 C1026 1.333 . S
C1025 N1027 1.317 . S
C1025 H1030 0.930 . S
C1026 C1025 1.333 . S
C1026 N1028 1.350 . S
C1026 H1052 0.931 . S
N1027 Co1023 2.148 . S
N1027 C1024 1.301 . S
N1027 C1025 1.317 . S
N1028 C1024 1.328 . S
N1028 C1026 1.350 . S
H1029 C1024 0.930 . S
H1030 C1025 0.930 . S
C1031 O1032 1.224 . S
C1031 O1050 1.247 . S
O1032 C1031 1.224 . S
N1033 Co1023 2.128 . S
N1033 C1034 1.355 . S
N1033 C1036 1.311 . S
C1034 N1033 1.355 . S
C1034 C1035 1.363 . S
C1034 H1046 0.929 . S
C1035 C1034 1.363 . S
C1035 N1037 1.375 . S
C1035 H1053 0.931 . S
C1036 N1033 1.311 . S
C1036 N1037 1.347 . S
C1036 H1047 0.929 . S
N1037 C1035 1.375 . S
N1037 C1036 1.347 . S
C1038 C1041 1.365 . S
C1038 N1043 1.328 . S
C1038 H1044 0.929 . S
C1039 C1040 1.362 . S
C1039 C1042 1.378 . S
C1039 H1054 0.929 . S
C1040 C1039 1.362 . S
C1040 C1041 1.366 . S
C1041 C1038 1.365 . S
C1041 C1040 1.366 . S
C1041 H1055 0.930 . S
C1042 C1039 1.378 . S
C1042 N1043 1.315 . S
C1042 H1045 0.930 . S
N1043 Co1023 2.194 . S
N1043 C1038 1.328 . S
N1043 C1042 1.315 . S
H1044 C1038 0.929 . S
H1045 C1042 0.930 . S
H1046 C1034 0.929 . S
H1047 C1036 0.929 . S
O1048 Co1023 2.351 . S
O1048 C1051 1.244 . S
O1049 Co1023 2.155 . S
O1049 C1051 1.240 . S
O1050 Co1023 2.096 . S
O1050 C1031 1.247 . S
C1051 O1048 1.244 . S
C1051 O1049 1.240 . S
H1052 C1026 0.931 . S
H1053 C1035 0.931 . S
H1054 C1039 0.929 . S
H1055 C1041 0.930 . S
Co1056 N1060 2.148 . S
Co1056 N1066 2.128 . S
Co1056 N1076 2.194 . S
Co1056 O1081 2.351 . S
Co1056 O1082 2.155 . S
Co1056 O1083 2.096 . S
C1057 N1060 1.301 . S
C1057 N1061 1.328 . S
C1057 H1062 0.930 . S
C1058 C1059 1.333 . S
C1058 N1060 1.317 . S
C1058 H1063 0.930 . S
C1059 C1058 1.333 . S
C1059 N1061 1.350 . S
C1059 H1085 0.931 . S
N1060 Co1056 2.148 . S
N1060 C1057 1.301 . S
N1060 C1058 1.317 . S
N1061 C1057 1.328 . S
N1061 C1059 1.350 . S
H1062 C1057 0.930 . S
H1063 C1058 0.930 . S
C1064 O1065 1.224 . S
C1064 O1083 1.247 . S
O1065 C1064 1.224 . S
N1066 Co1056 2.128 . S
N1066 C1067 1.355 . S
N1066 C1069 1.311 . S
C1067 N1066 1.355 . S
C1067 C1068 1.363 . S
C1067 H1079 0.929 . S
C1068 C1067 1.363 . S
C1068 N1070 1.375 . S
C1068 H1086 0.931 1_565 S
C1069 N1066 1.311 . S
C1069 N1070 1.347 . S
C1069 H1080 0.929 . S
N1070 C1068 1.375 . S
N1070 C1069 1.347 . S
C1071 C1074 1.365 . S
C1071 N1076 1.328 . S
C1071 H1077 0.929 . S
C1072 C1073 1.362 . S
C1072 C1075 1.378 . S
C1072 H1087 0.929 . S
C1073 C1072 1.362 . S
C1073 C1074 1.366 . S
C1074 C1071 1.365 . S
C1074 C1073 1.366 . S
C1074 H1088 0.930 . S
C1075 C1072 1.378 . S
C1075 N1076 1.315 . S
C1075 H1078 0.930 . S
N1076 Co1056 2.194 . S
N1076 C1071 1.328 . S
N1076 C1075 1.315 . S
H1077 C1071 0.929 . S
H1078 C1075 0.930 . S
H1079 C1067 0.929 . S
H1080 C1069 0.929 . S
O1081 Co1056 2.351 . S
O1081 C1084 1.244 . S
O1082 Co1056 2.155 . S
O1082 C1084 1.240 . S
O1083 Co1056 2.096 . S
O1083 C1064 1.247 . S
C1084 O1081 1.244 . S
C1084 O1082 1.240 . S
H1085 C1059 0.931 . S
H1086 C1068 0.931 1_545 S
H1087 C1072 0.929 . S
H1088 C1074 0.930 . S
Co1089 N1093 2.148 . S
Co1089 N1099 2.128 . S
Co1089 N1109 2.194 . S
Co1089 O1114 2.351 . S
Co1089 O1115 2.155 . S
Co1089 O1116 2.096 . S
C1090 N1093 1.301 . S
C1090 N1094 1.328 . S
C1090 H1095 0.930 . S
C1091 C1092 1.333 . S
C1091 N1093 1.317 . S
C1091 H1096 0.930 . S
C1092 C1091 1.333 . S
C1092 N1094 1.350 . S
C1092 H1118 0.931 . S
N1093 Co1089 2.148 . S
N1093 C1090 1.301 . S
N1093 C1091 1.317 . S
N1094 C1090 1.328 . S
N1094 C1092 1.350 . S
H1095 C1090 0.930 . S
H1096 C1091 0.930 . S
C1097 O1098 1.224 . S
C1097 O1116 1.247 . S
O1098 C1097 1.224 . S
N1099 Co1089 2.128 . S
N1099 C1100 1.355 . S
N1099 C1102 1.311 . S
C1100 N1099 1.355 . S
C1100 C1101 1.363 . S
C1100 H1112 0.929 . S
C1101 C1100 1.363 . S
C1101 N1103 1.375 . S
C1101 H1119 0.931 . S
C1102 N1099 1.311 . S
C1102 N1103 1.347 . S
C1102 H1113 0.929 . S
N1103 C1101 1.375 . S
N1103 C1102 1.347 . S
C1104 C1107 1.365 . S
C1104 N1109 1.328 . S
C1104 H1110 0.929 . S
C1105 C1106 1.362 . S
C1105 C1108 1.378 . S
C1105 H1120 0.929 . S
C1106 C1105 1.362 . S
C1106 C1107 1.366 . S
C1107 C1104 1.365 . S
C1107 C1106 1.366 . S
C1107 H1121 0.930 . S
C1108 C1105 1.378 . S
C1108 N1109 1.315 . S
C1108 H1111 0.930 . S
N1109 Co1089 2.194 . S
N1109 C1104 1.328 . S
N1109 C1108 1.315 . S
H1110 C1104 0.929 . S
H1111 C1108 0.930 . S
H1112 C1100 0.929 . S
H1113 C1102 0.929 . S
O1114 Co1089 2.351 . S
O1114 C1117 1.244 . S
O1115 Co1089 2.155 . S
O1115 C1117 1.240 . S
O1116 Co1089 2.096 . S
O1116 C1097 1.247 . S
C1117 O1114 1.244 . S
C1117 O1115 1.240 . S
H1118 C1092 0.931 . S
H1119 C1101 0.931 . S
H1120 C1105 0.929 . S
H1121 C1107 0.930 . S
Co1122 N1126 2.148 . S
Co1122 N1132 2.128 . S
Co1122 N1142 2.194 . S
Co1122 O1147 2.351 . S
Co1122 O1148 2.155 . S
Co1122 O1149 2.096 . S
C1123 N1126 1.301 . S
C1123 N1127 1.328 . S
C1123 H1128 0.930 . S
C1124 C1125 1.333 . S
C1124 N1126 1.317 . S
C1124 H1129 0.930 . S
C1125 C1124 1.333 . S
C1125 N1127 1.350 . S
C1125 H1151 0.931 . S
N1126 Co1122 2.148 . S
N1126 C1123 1.301 . S
N1126 C1124 1.317 . S
N1127 C1123 1.328 . S
N1127 C1125 1.350 . S
H1128 C1123 0.930 . S
H1129 C1124 0.930 . S
C1130 O1131 1.224 . S
C1130 O1149 1.247 . S
O1131 C1130 1.224 . S
N1132 Co1122 2.128 . S
N1132 C1133 1.355 . S
N1132 C1135 1.311 . S
C1133 N1132 1.355 . S
C1133 C1134 1.363 . S
C1133 H1145 0.929 . S
C1134 C1133 1.363 . S
C1134 N1136 1.375 . S
C1134 H1152 0.931 . S
C1135 N1132 1.311 . S
C1135 N1136 1.347 . S
C1135 H1146 0.929 . S
N1136 C1134 1.375 . S
N1136 C1135 1.347 . S
C1137 C1140 1.365 . S
C1137 N1142 1.328 . S
C1137 H1143 0.929 . S
C1138 C1139 1.362 . S
C1138 C1141 1.378 . S
C1138 H1153 0.929 . S
C1139 C1138 1.362 . S
C1139 C1140 1.366 . S
C1140 C1137 1.365 . S
C1140 C1139 1.366 . S
C1140 H1154 0.930 . S
C1141 C1138 1.378 . S
C1141 N1142 1.315 . S
C1141 H1144 0.930 . S
N1142 Co1122 2.194 . S
N1142 C1137 1.328 . S
N1142 C1141 1.315 . S
H1143 C1137 0.929 . S
H1144 C1141 0.930 . S
H1145 C1133 0.929 . S
H1146 C1135 0.929 . S
O1147 Co1122 2.351 . S
O1147 C1150 1.244 . S
O1148 Co1122 2.155 . S
O1148 C1150 1.240 . S
O1149 Co1122 2.096 . S
O1149 C1130 1.247 . S
C1150 O1147 1.244 . S
C1150 O1148 1.240 . S
H1151 C1125 0.931 . S
H1152 C1134 0.931 . S
H1153 C1138 0.929 . S
H1154 C1140 0.930 . S
Co1155 N1159 2.148 . S
Co1155 N1165 2.128 . S
Co1155 N1175 2.194 . S
Co1155 O1180 2.351 . S
Co1155 O1181 2.155 . S
Co1155 O1182 2.096 . S
C1156 N1159 1.301 . S
C1156 N1160 1.328 . S
C1156 H1161 0.930 . S
C1157 C1158 1.333 . S
C1157 N1159 1.317 . S
C1157 H1162 0.930 . S
C1158 C1157 1.333 . S
C1158 N1160 1.350 . S
C1158 H1184 0.931 . S
N1159 Co1155 2.148 . S
N1159 C1156 1.301 . S
N1159 C1157 1.317 . S
N1160 C1156 1.328 . S
N1160 C1158 1.350 . S
H1161 C1156 0.930 . S
H1162 C1157 0.930 . S
C1163 O1164 1.224 . S
C1163 O1182 1.247 . S
O1164 C1163 1.224 . S
N1165 Co1155 2.128 . S
N1165 C1166 1.355 . S
N1165 C1168 1.311 . S
C1166 N1165 1.355 . S
C1166 C1167 1.363 . S
C1166 H1178 0.929 . S
C1167 C1166 1.363 . S
C1167 N1169 1.375 . S
C1167 H1185 0.931 . S
C1168 N1165 1.311 . S
C1168 N1169 1.347 . S
C1168 H1179 0.929 . S
N1169 C1167 1.375 . S
N1169 C1168 1.347 . S
C1170 C1173 1.365 . S
C1170 N1175 1.328 . S
C1170 H1176 0.929 . S
C1171 C1172 1.362 . S
C1171 C1174 1.378 . S
C1171 H1186 0.929 . S
C1172 C1171 1.362 . S
C1172 C1173 1.366 . S
C1173 C1170 1.365 . S
C1173 C1172 1.366 . S
C1173 H1187 0.930 . S
C1174 C1171 1.378 . S
C1174 N1175 1.315 . S
C1174 H1177 0.930 . S
N1175 Co1155 2.194 . S
N1175 C1170 1.328 . S
N1175 C1174 1.315 . S
H1176 C1170 0.929 . S
H1177 C1174 0.930 . S
H1178 C1166 0.929 . S
H1179 C1168 0.929 . S
O1180 Co1155 2.351 . S
O1180 C1183 1.244 . S
O1181 Co1155 2.155 . S
O1181 C1183 1.240 . S
O1182 Co1155 2.096 . S
O1182 C1163 1.247 . S
C1183 O1180 1.244 . S
C1183 O1181 1.240 . S
H1184 C1158 0.931 . S
H1185 C1167 0.931 . S
H1186 C1171 0.929 . S
H1187 C1173 0.930 . S
C1188 C1189 1.387 . S
C1188 H1192 0.950 . S
C1188 C1197 1.390 . S
C1189 C1188 1.387 . S
C1189 C1191 1.387 . S
H1190 C1197 0.950 . S
C1191 C1189 1.387 . S
C1191 C1193 1.390 . S
C1191 H1195 0.950 . S
H1192 C1188 0.950 . S
C1193 C1191 1.390 . S
C1193 C1194 1.387 . S
C1193 H1196 0.950 . S
C1194 C1193 1.387 . S
C1194 C1197 1.387 . S
H1195 C1191 0.950 . S
H1196 C1193 0.950 . S
C1197 C1188 1.390 . S
C1197 H1190 0.950 . S
C1197 C1194 1.387 . S
C1198 C1199 1.387 . S
C1198 H1202 0.950 . S
C1198 C1207 1.390 . S
C1199 C1198 1.387 . S
C1199 C1201 1.387 . S
H1200 C1207 0.950 . S
C1201 C1199 1.387 . S
C1201 C1203 1.390 . S
C1201 H1205 0.950 . S
H1202 C1198 0.950 . S
C1203 C1201 1.390 . S
C1203 C1204 1.387 . S
C1203 H1206 0.950 . S
C1204 C1203 1.387 . S
C1204 C1207 1.387 . S
H1205 C1201 0.950 . S
H1206 C1203 0.950 . S
C1207 C1198 1.390 . S
C1207 H1200 0.950 . S
C1207 C1204 1.387 . S
C1208 C1209 1.387 . S
C1208 H1212 0.950 . S
C1208 C1217 1.390 . S
C1209 C1208 1.387 . S
C1209 C1211 1.387 . S
H1210 C1217 0.950 . S
C1211 C1209 1.387 . S
C1211 C1213 1.390 . S
C1211 H1215 0.950 . S
H1212 C1208 0.950 . S
C1213 C1211 1.390 . S
C1213 C1214 1.387 . S
C1213 H1216 0.950 . S
C1214 C1213 1.387 . S
C1214 C1217 1.387 . S
H1215 C1211 0.950 . S
H1216 C1213 0.950 . S
C1217 C1208 1.390 . S
C1217 H1210 0.950 . S
C1217 C1214 1.387 . S
C1218 C1219 1.387 . S
C1218 H1222 0.950 . S
C1218 C1227 1.390 . S
C1219 C1218 1.387 . S
C1219 C1221 1.387 . S
H1220 C1227 0.950 . S
C1221 C1219 1.387 . S
C1221 C1223 1.390 . S
C1221 H1225 0.950 . S
H1222 C1218 0.950 . S
C1223 C1221 1.390 . S
C1223 C1224 1.387 . S
C1223 H1226 0.950 . S
C1224 C1223 1.387 . S
C1224 C1227 1.387 . S
H1225 C1221 0.950 . S
H1226 C1223 0.950 . S
C1227 C1218 1.390 . S
C1227 H1220 0.950 . S
C1227 C1224 1.387 . S
C1228 C1229 1.387 . S
C1228 H1232 0.950 . S
C1228 C1237 1.390 . S
C1229 C1228 1.387 . S
C1229 C1231 1.387 . S
H1230 C1237 0.950 . S
C1231 C1229 1.387 . S
C1231 C1233 1.390 . S
C1231 H1235 0.950 . S
H1232 C1228 0.950 . S
C1233 C1231 1.390 . S
C1233 C1234 1.387 . S
C1233 H1236 0.950 . S
C1234 C1233 1.387 . S
C1234 C1237 1.387 . S
H1235 C1231 0.950 . S
H1236 C1233 0.950 . S
C1237 C1228 1.390 . S
C1237 H1230 0.950 . S
C1237 C1234 1.387 . S
C1238 C1239 1.387 . S
C1238 H1242 0.950 . S
C1238 C1247 1.390 . S
C1239 C1238 1.387 . S
C1239 C1241 1.387 . S
H1240 C1247 0.950 . S
C1241 C1239 1.387 . S
C1241 C1243 1.390 . S
C1241 H1245 0.950 . S
H1242 C1238 0.950 . S
C1243 C1241 1.390 . S
C1243 C1244 1.387 . S
C1243 H1246 0.950 . S
C1244 C1243 1.387 . S
C1244 C1247 1.387 . S
H1245 C1241 0.950 . S
H1246 C1243 0.950 . S
C1247 C1238 1.390 . S
C1247 H1240 0.950 . S
C1247 C1244 1.387 . S
C1248 C1249 1.387 . S
C1248 H1252 0.950 . S
C1248 C1257 1.390 . S
C1249 C1248 1.387 . S
C1249 C1251 1.387 . S
H1250 C1257 0.950 . S
C1251 C1249 1.387 . S
C1251 C1253 1.390 . S
C1251 H1255 0.950 . S
H1252 C1248 0.950 . S
C1253 C1251 1.390 . S
C1253 C1254 1.387 . S
C1253 H1256 0.950 . S
C1254 C1253 1.387 . S
C1254 C1257 1.387 . S
H1255 C1251 0.950 . S
H1256 C1253 0.950 . S
C1257 C1248 1.390 . S
C1257 H1250 0.950 . S
C1257 C1254 1.387 . S
C1258 C1259 1.387 . S
C1258 H1262 0.950 . S
C1258 C1267 1.390 . S
C1259 C1258 1.387 . S
C1259 C1261 1.387 . S
H1260 C1267 0.950 . S
C1261 C1259 1.387 . S
C1261 C1263 1.390 . S
C1261 H1265 0.950 . S
H1262 C1258 0.950 . S
C1263 C1261 1.390 . S
C1263 C1264 1.387 . S
C1263 H1266 0.950 . S
C1264 C1263 1.387 . S
C1264 C1267 1.387 . S
H1265 C1261 0.950 . S
H1266 C1263 0.950 . S
C1267 C1258 1.390 . S
C1267 H1260 0.950 . S
C1267 C1264 1.387 . S
C1268 C1269 1.387 . S
C1268 H1272 0.950 . S
C1268 C1277 1.390 . S
C1269 C1268 1.387 . S
C1269 C1271 1.387 . S
H1270 C1277 0.950 . S
C1271 C1269 1.387 . S
C1271 C1273 1.390 . S
C1271 H1275 0.950 . S
H1272 C1268 0.950 . S
C1273 C1271 1.390 . S
C1273 C1274 1.387 . S
C1273 H1276 0.950 . S
C1274 C1273 1.387 . S
C1274 C1277 1.387 . S
H1275 C1271 0.950 . S
H1276 C1273 0.950 . S
C1277 C1268 1.390 . S
C1277 H1270 0.950 . S
C1277 C1274 1.387 . S
C1278 C1279 1.387 . S
C1278 H1282 0.950 . S
C1278 C1287 1.390 . S
C1279 C1278 1.387 . S
C1279 C1281 1.387 . S
H1280 C1287 0.950 . S
C1281 C1279 1.387 . S
C1281 C1283 1.390 . S
C1281 H1285 0.950 . S
H1282 C1278 0.950 . S
C1283 C1281 1.390 . S
C1283 C1284 1.387 . S
C1283 H1286 0.950 . S
C1284 C1283 1.387 . S
C1284 C1287 1.387 . S
H1285 C1281 0.950 . S
H1286 C1283 0.950 . S
C1287 C1278 1.390 . S
C1287 H1280 0.950 . S
C1287 C1284 1.387 . S
C1288 C1289 1.387 . S
C1288 H1292 0.950 . S
C1288 C1297 1.390 . S
C1289 C1288 1.387 . S
C1289 C1291 1.387 . S
H1290 C1297 0.950 . S
C1291 C1289 1.387 . S
C1291 C1293 1.390 . S
C1291 H1295 0.950 . S
H1292 C1288 0.950 . S
C1293 C1291 1.390 . S
C1293 C1294 1.387 . S
C1293 H1296 0.950 . S
C1294 C1293 1.387 . S
C1294 C1297 1.387 . S
H1295 C1291 0.950 . S
H1296 C1293 0.950 . S
C1297 C1288 1.390 . S
C1297 H1290 0.950 . S
C1297 C1294 1.387 . S
C1298 C1299 1.387 . S
C1298 H1302 0.950 . S
C1298 C1307 1.390 . S
C1299 C1298 1.387 . S
C1299 C1301 1.387 . S
H1300 C1307 0.950 . S
C1301 C1299 1.387 . S
C1301 C1303 1.390 . S
C1301 H1305 0.950 . S
H1302 C1298 0.950 . S
C1303 C1301 1.390 . S
C1303 C1304 1.387 . S
C1303 H1306 0.950 . S
C1304 C1303 1.387 . S
C1304 C1307 1.387 . S
H1305 C1301 0.950 . S
H1306 C1303 0.950 . S
C1307 C1298 1.390 . S
C1307 H1300 0.950 . S
C1307 C1304 1.387 . S
C1308 C1309 1.387 1_455 S
C1308 H1312 0.950 . S
C1308 C1317 1.390 . S
C1309 C1308 1.387 1_655 S
C1309 C1311 1.387 . S
H1310 C1317 0.950 . S
C1311 C1309 1.387 . S
C1311 C1313 1.390 . S
C1311 H1315 0.950 . S
H1312 C1308 0.950 . S
C1313 C1311 1.390 . S
C1313 C1314 1.387 1_655 S
C1313 H1316 0.950 . S
C1314 C1313 1.387 1_455 S
C1314 C1317 1.387 . S
H1315 C1311 0.950 . S
H1316 C1313 0.950 . S
C1317 C1308 1.390 . S
C1317 H1310 0.950 . S
C1317 C1314 1.387 . S
C1318 C1319 1.387 . S
C1318 H1322 0.950 . S
C1318 C1327 1.390 . S
C1319 C1318 1.387 . S
C1319 C1321 1.387 . S
H1320 C1327 0.950 . S
C1321 C1319 1.387 . S
C1321 C1323 1.390 . S
C1321 H1325 0.950 . S
H1322 C1318 0.950 . S
C1323 C1321 1.390 . S
C1323 C1324 1.387 . S
C1323 H1326 0.950 . S
C1324 C1323 1.387 . S
C1324 C1327 1.387 . S
H1325 C1321 0.950 . S
H1326 C1323 0.950 . S
C1327 C1318 1.390 . S
C1327 H1320 0.950 . S
C1327 C1324 1.387 . S
C1328 C1329 1.387 . S
C1328 H1332 0.950 . S
C1328 C1337 1.390 1_565 S
C1329 C1328 1.387 . S
C1329 C1331 1.387 . S
H1330 C1337 0.950 . S
C1331 C1329 1.387 . S
C1331 C1333 1.390 1_565 S
C1331 H1335 0.950 . S
H1332 C1328 0.950 . S
C1333 C1331 1.390 1_545 S
C1333 C1334 1.387 . S
C1333 H1336 0.950 . S
C1334 C1333 1.387 . S
C1334 C1337 1.387 . S
H1335 C1331 0.950 . S
H1336 C1333 0.950 . S
C1337 C1328 1.390 1_545 S
C1337 H1330 0.950 . S
C1337 C1334 1.387 . S
C1338 C1339 1.387 . S
C1338 H1342 0.950 . S
C1338 C1347 1.390 1_565 S
C1339 C1338 1.387 . S
C1339 C1341 1.387 . S
H1340 C1347 0.950 . S
C1341 C1339 1.387 . S
C1341 C1343 1.390 1_565 S
C1341 H1345 0.950 . S
H1342 C1338 0.950 . S
C1343 C1341 1.390 1_545 S
C1343 C1344 1.387 . S
C1343 H1346 0.950 . S
C1344 C1343 1.387 . S
C1344 C1347 1.387 . S
H1345 C1341 0.950 . S
H1346 C1343 0.950 . S
C1347 C1338 1.390 1_545 S
C1347 H1340 0.950 . S
C1347 C1344 1.387 . S
C1348 C1349 1.387 . S
C1348 H1352 0.950 . S
C1348 C1357 1.390 1_455 S
C1349 C1348 1.387 . S
C1349 C1351 1.387 1_455 S
H1350 C1357 0.950 . S
C1351 C1349 1.387 1_655 S
C1351 C1353 1.390 . S
C1351 H1355 0.948 . S
H1352 C1348 0.950 . S
C1353 C1351 1.390 . S
C1353 C1354 1.387 . S
C1353 H1356 0.950 . S
C1354 C1353 1.387 . S
C1354 C1357 1.387 . S
H1355 C1351 0.948 . S
H1356 C1353 0.950 . S
C1357 C1348 1.390 1_655 S
C1357 H1350 0.950 . S
C1357 C1354 1.387 . S
C1358 C1359 1.387 . S
C1358 H1362 0.950 . S
C1358 C1367 1.390 . S
C1359 C1358 1.387 . S
C1359 C1361 1.387 . S
H1360 C1367 0.950 . S
C1361 C1359 1.387 . S
C1361 C1363 1.390 . S
C1361 H1365 0.950 . S
H1362 C1358 0.950 . S
C1363 C1361 1.390 . S
C1363 C1364 1.387 . S
C1363 H1366 0.950 . S
C1364 C1363 1.387 . S
C1364 C1367 1.387 . S
H1365 C1361 0.950 . S
H1366 C1363 0.950 . S
C1367 C1358 1.390 . S
C1367 H1360 0.950 . S
C1367 C1364 1.387 . S
C1368 C1369 1.387 . S
C1368 H1372 0.950 . S
C1368 C1377 1.390 . S
C1369 C1368 1.387 . S
C1369 C1371 1.387 . S
H1370 C1377 0.950 . S
C1371 C1369 1.387 . S
C1371 C1373 1.390 . S
C1371 H1375 0.950 . S
H1372 C1368 0.950 . S
C1373 C1371 1.390 . S
C1373 C1374 1.387 . S
C1373 H1376 0.950 . S
C1374 C1373 1.387 . S
C1374 C1377 1.387 . S
H1375 C1371 0.950 . S
H1376 C1373 0.950 . S
C1377 C1368 1.390 . S
C1377 H1370 0.950 . S
C1377 C1374 1.387 . S
C1378 C1379 1.387 . S
C1378 H1382 0.950 . S
C1378 C1387 1.390 . S
C1379 C1378 1.387 . S
C1379 C1381 1.387 1_545 S
H1380 C1387 0.950 . S
C1381 C1379 1.387 1_565 S
C1381 C1383 1.390 . S
C1381 H1385 0.950 . S
H1382 C1378 0.950 . S
C1383 C1381 1.390 . S
C1383 C1384 1.387 . S
C1383 H1386 0.950 . S
C1384 C1383 1.387 . S
C1384 C1387 1.387 1_565 S
H1385 C1381 0.950 . S
H1386 C1383 0.950 . S
C1387 C1378 1.390 . S
C1387 H1380 0.950 . S
C1387 C1384 1.387 1_545 S
C1388 C1389 1.387 . S
C1388 H1392 0.950 . S
C1388 C1397 1.390 1_655 S
C1389 C1388 1.387 . S
C1389 C1391 1.387 . S
H1390 C1397 0.950 . S
C1391 C1389 1.387 . S
C1391 C1393 1.390 1_655 S
C1391 H1395 0.950 . S
H1392 C1388 0.950 . S
C1393 C1391 1.390 1_455 S
C1393 C1394 1.387 . S
C1393 H1396 0.950 . S
C1394 C1393 1.387 . S
C1394 C1397 1.387 . S
H1395 C1391 0.950 . S
H1396 C1393 0.950 . S
C1397 C1388 1.390 1_455 S
C1397 H1390 0.950 . S
C1397 C1394 1.387 . S
C1398 C1399 1.387 . S
C1398 H1402 0.950 . S
C1398 C1407 1.390 . S
C1399 C1398 1.387 . S
C1399 C1401 1.387 . S
H1400 C1407 0.950 . S
C1401 C1399 1.387 . S
C1401 C1403 1.390 . S
C1401 H1405 0.950 . S
H1402 C1398 0.950 . S
C1403 C1401 1.390 . S
C1403 C1404 1.387 . S
C1403 H1406 0.950 . S
C1404 C1403 1.387 . S
C1404 C1407 1.387 . S
H1405 C1401 0.950 . S
H1406 C1403 0.950 . S
C1407 C1398 1.390 . S
C1407 H1400 0.950 . S
C1407 C1404 1.387 . S
C1408 C1409 1.387 . S
C1408 H1412 0.950 . S
C1408 C1417 1.390 . S
C1409 C1408 1.387 . S
C1409 C1411 1.387 1_565 S
H1410 C1417 0.950 . S
C1411 C1409 1.387 1_545 S
C1411 C1413 1.390 . S
C1411 H1415 0.950 . S
H1412 C1408 0.950 . S
C1413 C1411 1.390 . S
C1413 C1414 1.387 . S
C1413 H1416 0.950 . S
C1414 C1413 1.387 . S
C1414 C1417 1.387 1_545 S
H1415 C1411 0.950 . S
H1416 C1413 0.950 . S
C1417 C1408 1.390 . S
C1417 H1410 0.950 . S
C1417 C1414 1.387 1_565 S
C1418 C1419 1.387 . S
C1418 H1422 0.950 . S
C1418 C1427 1.390 . S
C1419 C1418 1.387 . S
C1419 C1421 1.387 1_655 S
H1420 C1427 0.950 . S
C1421 C1419 1.387 1_455 S
C1421 C1423 1.390 . S
C1421 H1425 0.950 . S
H1422 C1418 0.950 . S
C1423 C1421 1.390 . S
C1423 C1424 1.387 . S
C1423 H1426 0.950 . S
C1424 C1423 1.387 . S
C1424 C1427 1.387 1_455 S
H1425 C1421 0.950 . S
H1426 C1423 0.950 . S
C1427 C1418 1.390 . S
C1427 H1420 0.950 . S
C1427 C1424 1.387 1_655 S
C1428 C1429 1.387 . S
C1428 H1432 0.950 . S
C1428 C1437 1.390 . S
C1429 C1428 1.387 . S
C1429 C1431 1.387 . S
H1430 C1437 0.950 . S
C1431 C1429 1.387 . S
C1431 C1433 1.390 . S
C1431 H1435 0.950 . S
H1432 C1428 0.950 . S
C1433 C1431 1.390 . S
C1433 C1434 1.387 . S
C1433 H1436 0.950 . S
C1434 C1433 1.387 . S
C1434 C1437 1.387 . S
H1435 C1431 0.950 . S
H1436 C1433 0.950 . S
C1437 C1428 1.390 . S
C1437 H1430 0.950 . S
C1437 C1434 1.387 . S
C1438 C1439 1.387 1_545 S
C1438 H1442 0.950 . S
C1438 C1447 1.390 . S
C1439 C1438 1.387 1_565 S
C1439 C1441 1.387 . S
H1440 C1447 0.950 . S
C1441 C1439 1.387 . S
C1441 C1443 1.390 1_565 S
C1441 H1445 0.950 . S
H1442 C1438 0.950 . S
C1443 C1441 1.390 1_545 S
C1443 C1444 1.387 . S
C1443 H1446 0.950 . S
C1444 C1443 1.387 . S
C1444 C1447 1.387 . S
H1445 C1441 0.950 . S
H1446 C1443 0.950 . S
C1447 C1438 1.390 . S
C1447 H1440 0.950 . S
C1447 C1444 1.387 . S
C1448 C1449 1.387 . S
C1448 H1452 0.950 . S
C1448 C1457 1.390 . S
C1449 C1448 1.387 . S
C1449 C1451 1.387 1_455 S
H1450 C1457 0.950 . S
C1451 C1449 1.387 1_655 S
C1451 C1453 1.390 . S
C1451 H1455 0.950 . S
H1452 C1448 0.950 . S
C1453 C1451 1.390 . S
C1453 C1454 1.387 . S
C1453 H1456 0.950 . S
C1454 C1453 1.387 . S
C1454 C1457 1.387 1_655 S
H1455 C1451 0.950 . S
H1456 C1453 0.950 . S
C1457 C1448 1.390 . S
C1457 H1450 0.950 . S
C1457 C1454 1.387 1_455 S
C1458 C1459 1.387 . S
C1458 H1462 0.950 . S
C1458 C1467 1.390 . S
C1459 C1458 1.387 . S
C1459 C1461 1.387 . S
H1460 C1467 0.950 . S
C1461 C1459 1.387 . S
C1461 C1463 1.390 . S
C1461 H1465 0.950 . S
H1462 C1458 0.950 . S
C1463 C1461 1.390 . S
C1463 C1464 1.387 . S
C1463 H1466 0.950 . S
C1464 C1463 1.387 . S
C1464 C1467 1.387 . S
H1465 C1461 0.950 . S
H1466 C1463 0.950 . S
C1467 C1458 1.390 . S
C1467 H1460 0.950 . S
C1467 C1464 1.387 . S
C1468 C1469 1.387 1_545 S
C1468 H1472 0.950 . S
C1468 C1477 1.390 . S
C1469 C1468 1.387 1_565 S
C1469 C1471 1.387 . S
H1470 C1477 0.950 . S
C1471 C1469 1.387 . S
C1471 C1473 1.390 . S
C1471 H1475 0.950 . S
H1472 C1468 0.950 . S
C1473 C1471 1.390 . S
C1473 C1474 1.387 1_565 S
C1473 H1476 0.950 . S
C1474 C1473 1.387 1_545 S
C1474 C1477 1.387 . S
H1475 C1471 0.950 . S
H1476 C1473 0.950 . S
C1477 C1468 1.390 . S
C1477 H1470 0.950 . S
C1477 C1474 1.387 . S
C1478 C1479 1.387 . S
C1478 H1482 0.950 . S
C1478 C1487 1.390 . S
C1479 C1478 1.387 . S
C1479 C1481 1.387 1_455 S
H1480 C1487 0.950 . S
C1481 C1479 1.387 1_655 S
C1481 C1483 1.390 . S
C1481 H1485 0.950 . S
H1482 C1478 0.950 . S
C1483 C1481 1.390 . S
C1483 C1484 1.387 . S
C1483 H1486 0.950 . S
C1484 C1483 1.387 . S
C1484 C1487 1.387 1_655 S
H1485 C1481 0.950 . S
H1486 C1483 0.950 . S
C1487 C1478 1.390 . S
C1487 H1480 0.950 . S
C1487 C1484 1.387 1_455 S
C1488 C1489 1.387 . S
C1488 H1492 0.950 . S
C1488 C1497 1.377 1_655 S
C1489 C1488 1.387 . S
C1489 C1491 1.387 1_655 S
H1490 C1497 0.951 . S
C1491 C1489 1.387 1_455 S
C1491 C1493 1.390 . S
C1491 H1495 0.950 . S
H1492 C1488 0.950 . S
C1493 C1491 1.390 . S
C1493 C1494 1.387 . S
C1493 H1496 0.950 . S
C1494 C1493 1.387 . S
C1494 C1497 1.399 . S
H1495 C1491 0.950 . S
H1496 C1493 0.950 . S
C1497 C1488 1.377 1_455 S
C1497 H1490 0.951 . S
C1497 C1494 1.399 . S
C1498 C1499 1.387 . S
C1498 H1502 0.950 . S
C1498 C1507 1.390 . S
C1499 C1498 1.387 . S
C1499 C1501 1.387 . S
H1500 C1507 0.950 . S
C1501 C1499 1.387 . S
C1501 C1503 1.390 . S
C1501 H1505 0.950 . S
H1502 C1498 0.950 . S
C1503 C1501 1.390 . S
C1503 C1504 1.387 . S
C1503 H1506 0.950 . S
C1504 C1503 1.387 . S
C1504 C1507 1.387 . S
H1505 C1501 0.950 . S
H1506 C1503 0.950 . S
C1507 C1498 1.390 . S
C1507 H1500 0.950 . S
C1507 C1504 1.387 . S
C1508 C1509 1.387 . S
C1508 H1512 0.950 . S
C1508 C1517 1.390 1_545 S
C1509 C1508 1.387 . S
C1509 C1511 1.387 . S
H1510 C1517 0.950 . S
C1511 C1509 1.387 . S
C1511 C1513 1.390 1_545 S
C1511 H1515 0.950 . S
H1512 C1508 0.950 . S
C1513 C1511 1.390 1_565 S
C1513 C1514 1.387 . S
C1513 H1516 0.950 . S
C1514 C1513 1.387 . S
C1514 C1517 1.387 . S
H1515 C1511 0.950 . S
H1516 C1513 0.950 . S
C1517 C1508 1.390 1_565 S
C1517 H1510 0.950 . S
C1517 C1514 1.387 . S
C1518 C1519 1.387 . S
C1518 H1522 0.950 . S
C1518 C1527 1.390 1_545 S
C1519 C1518 1.387 . S
C1519 C1521 1.387 . S
H1520 C1527 0.950 . S
C1521 C1519 1.387 . S
C1521 C1523 1.390 1_545 S
C1521 H1525 0.950 . S
H1522 C1518 0.950 . S
C1523 C1521 1.390 1_565 S
C1523 C1524 1.387 . S
C1523 H1526 0.950 . S
C1524 C1523 1.387 . S
C1524 C1527 1.387 . S
H1525 C1521 0.950 . S
H1526 C1523 0.950 . S
C1527 C1518 1.390 1_565 S
C1527 H1520 0.950 . S
C1527 C1524 1.387 . S
C1528 C1529 1.387 . S
C1528 H1532 0.950 . S
C1528 C1537 1.390 1_455 S
C1529 C1528 1.387 . S
C1529 C1531 1.387 . S
H1530 C1537 0.950 . S
C1531 C1529 1.387 . S
C1531 C1533 1.390 1_455 S
C1531 H1535 0.950 . S
H1532 C1528 0.950 . S
C1533 C1531 1.390 1_655 S
C1533 C1534 1.387 . S
C1533 H1536 0.950 . S
C1534 C1533 1.387 . S
C1534 C1537 1.387 . S
H1535 C1531 0.950 . S
H1536 C1533 0.950 . S
C1537 C1528 1.390 1_655 S
C1537 H1530 0.950 . S
C1537 C1534 1.387 . S
C1538 C1539 1.387 . S
C1538 H1542 0.950 . S
C1538 C1547 1.390 . S
C1539 C1538 1.387 . S
C1539 C1541 1.387 . S
H1540 C1547 0.950 . S
C1541 C1539 1.387 . S
C1541 C1543 1.390 . S
C1541 H1545 0.950 . S
H1542 C1538 0.950 . S
C1543 C1541 1.390 . S
C1543 C1544 1.387 . S
C1543 H1546 0.950 . S
C1544 C1543 1.387 . S
C1544 C1547 1.387 . S
H1545 C1541 0.950 . S
H1546 C1543 0.950 . S
C1547 C1538 1.390 . S
C1547 H1540 0.950 . S
C1547 C1544 1.387 . S
C1548 C1549 1.387 . S
C1548 H1552 0.950 . S
C1548 C1557 1.390 . S
C1549 C1548 1.387 . S
C1549 C1551 1.387 . S
H1550 C1557 0.950 . S
C1551 C1549 1.387 . S
C1551 C1553 1.390 . S
C1551 H1555 0.950 . S
H1552 C1548 0.950 . S
C1553 C1551 1.390 . S
C1553 C1554 1.387 . S
C1553 H1556 0.950 . S
C1554 C1553 1.387 . S
C1554 C1557 1.387 . S
H1555 C1551 0.950 . S
H1556 C1553 0.950 . S
C1557 C1548 1.390 . S
C1557 H1550 0.950 . S
C1557 C1554 1.387 . S
C1558 C1559 1.387 . S
C1558 H1562 0.950 . S
C1558 C1567 1.390 . S
C1559 C1558 1.387 . S
C1559 C1561 1.387 . S
H1560 C1567 0.950 . S
C1561 C1559 1.387 . S
C1561 C1563 1.390 . S
C1561 H1565 0.950 . S
H1562 C1558 0.950 . S
C1563 C1561 1.390 . S
C1563 C1564 1.387 . S
C1563 H1566 0.950 . S
C1564 C1563 1.387 . S
C1564 C1567 1.387 . S
H1565 C1561 0.950 . S
H1566 C1563 0.950 . S
C1567 C1558 1.390 . S
C1567 H1560 0.950 . S
C1567 C1564 1.387 . S
C1568 C1569 1.387 . S
C1568 H1572 0.950 . S
C1568 C1577 1.390 . S
C1569 C1568 1.387 . S
C1569 C1571 1.387 . S
H1570 C1577 0.950 . S
C1571 C1569 1.387 . S
C1571 C1573 1.390 . S
C1571 H1575 0.950 . S
H1572 C1568 0.950 . S
C1573 C1571 1.390 . S
C1573 C1574 1.387 . S
C1573 H1576 0.950 . S
C1574 C1573 1.387 . S
C1574 C1577 1.387 . S
H1575 C1571 0.950 . S
H1576 C1573 0.950 . S
C1577 C1568 1.390 . S
C1577 H1570 0.950 . S
C1577 C1574 1.387 . S
C1578 C1579 1.387 . S
C1578 H1582 0.950 . S
C1578 C1587 1.390 . S
C1579 C1578 1.387 . S
C1579 C1581 1.387 . S
H1580 C1587 0.950 . S
C1581 C1579 1.387 . S
C1581 C1583 1.390 . S
C1581 H1585 0.950 . S
H1582 C1578 0.950 . S
C1583 C1581 1.390 . S
C1583 C1584 1.387 . S
C1583 H1586 0.950 . S
C1584 C1583 1.387 . S
C1584 C1587 1.387 . S
H1585 C1581 0.950 . S
H1586 C1583 0.950 . S
C1587 C1578 1.390 . S
C1587 H1580 0.950 . S
C1587 C1584 1.387 . S
C1588 C1589 1.387 . S
C1588 H1592 0.950 . S
C1588 C1597 1.390 . S
C1589 C1588 1.387 . S
C1589 C1591 1.387 . S
H1590 C1597 0.950 . S
C1591 C1589 1.387 . S
C1591 C1593 1.390 . S
C1591 H1595 0.950 . S
H1592 C1588 0.950 . S
C1593 C1591 1.390 . S
C1593 C1594 1.387 . S
C1593 H1596 0.950 . S
C1594 C1593 1.387 . S
C1594 C1597 1.387 . S
H1595 C1591 0.950 . S
H1596 C1593 0.950 . S
C1597 C1588 1.390 . S
C1597 H1590 0.950 . S
C1597 C1594 1.387 . S
C1598 C1599 1.387 . S
C1598 H1602 0.950 . S
C1598 C1607 1.390 . S
C1599 C1598 1.387 . S
C1599 C1601 1.387 . S
H1600 C1607 0.950 . S
C1601 C1599 1.387 . S
C1601 C1603 1.390 . S
C1601 H1605 0.950 . S
H1602 C1598 0.950 . S
C1603 C1601 1.390 . S
C1603 C1604 1.387 . S
C1603 H1606 0.950 . S
C1604 C1603 1.387 . S
C1604 C1607 1.387 . S
H1605 C1601 0.950 . S
H1606 C1603 0.950 . S
C1607 C1598 1.390 . S
C1607 H1600 0.950 . S
C1607 C1604 1.387 . S
C1608 C1609 1.387 . S
C1608 H1612 0.950 . S
C1608 C1617 1.390 . S
C1609 C1608 1.387 . S
C1609 C1611 1.387 . S
H1610 C1617 0.950 . S
C1611 C1609 1.387 . S
C1611 C1613 1.390 . S
C1611 H1615 0.950 . S
H1612 C1608 0.950 . S
C1613 C1611 1.390 . S
C1613 C1614 1.387 . S
C1613 H1616 0.950 . S
C1614 C1613 1.387 . S
C1614 C1617 1.387 . S
H1615 C1611 0.950 . S
H1616 C1613 0.950 . S
C1617 C1608 1.390 . S
C1617 H1610 0.950 . S
C1617 C1614 1.387 . S
C1618 C1619 1.387 . S
C1618 H1622 0.950 . S
C1618 C1627 1.390 . S
C1619 C1618 1.387 . S
C1619 C1621 1.387 . S
H1620 C1627 0.950 . S
C1621 C1619 1.387 . S
C1621 C1623 1.390 . S
C1621 H1625 0.950 . S
H1622 C1618 0.950 . S
C1623 C1621 1.390 . S
C1623 C1624 1.387 . S
C1623 H1626 0.950 . S
C1624 C1623 1.387 . S
C1624 C1627 1.387 . S
H1625 C1621 0.950 . S
H1626 C1623 0.950 . S
C1627 C1618 1.390 . S
C1627 H1620 0.950 . S
C1627 C1624 1.387 . S
C1628 C1629 1.387 . S
C1628 H1632 0.950 . S
C1628 C1637 1.390 . S
C1629 C1628 1.387 . S
C1629 C1631 1.387 . S
H1630 C1637 0.950 . S
C1631 C1629 1.387 . S
C1631 C1633 1.390 . S
C1631 H1635 0.950 . S
H1632 C1628 0.950 . S
C1633 C1631 1.390 . S
C1633 C1634 1.387 . S
C1633 H1636 0.950 . S
C1634 C1633 1.387 . S
C1634 C1637 1.387 . S
H1635 C1631 0.950 . S
H1636 C1633 0.950 . S
C1637 C1628 1.390 . S
C1637 H1630 0.950 . S
C1637 C1634 1.387 . S
C1638 C1639 1.387 . S
C1638 H1642 0.950 . S
C1638 C1647 1.390 . S
C1639 C1638 1.387 . S
C1639 C1641 1.387 . S
H1640 C1647 0.950 . S
C1641 C1639 1.387 . S
C1641 C1643 1.390 . S
C1641 H1645 0.950 . S
H1642 C1638 0.950 . S
C1643 C1641 1.390 . S
C1643 C1644 1.387 . S
C1643 H1646 0.950 . S
C1644 C1643 1.387 . S
C1644 C1647 1.387 . S
H1645 C1641 0.950 . S
H1646 C1643 0.950 . S
C1647 C1638 1.390 . S
C1647 H1640 0.950 . S
C1647 C1644 1.387 . S
C1648 C1649 1.387 . S
C1648 H1652 0.950 . S
C1648 C1657 1.390 . S
C1649 C1648 1.387 . S
C1649 C1651 1.387 . S
H1650 C1657 0.950 . S
C1651 C1649 1.387 . S
C1651 C1653 1.390 . S
C1651 H1655 0.950 . S
H1652 C1648 0.950 . S
C1653 C1651 1.390 . S
C1653 C1654 1.387 . S
C1653 H1656 0.950 . S
C1654 C1653 1.387 . S
C1654 C1657 1.387 . S
H1655 C1651 0.950 . S
H1656 C1653 0.950 . S
C1657 C1648 1.390 . S
C1657 H1650 0.950 . S
C1657 C1654 1.387 . S
C1658 C1659 1.387 . S
C1658 H1662 0.950 . S
C1658 C1667 1.390 . S
C1659 C1658 1.387 . S
C1659 C1661 1.387 . S
H1660 C1667 0.950 . S
C1661 C1659 1.387 . S
C1661 C1663 1.390 . S
C1661 H1665 0.950 . S
H1662 C1658 0.950 . S
C1663 C1661 1.390 . S
C1663 C1664 1.387 . S
C1663 H1666 0.950 . S
C1664 C1663 1.387 . S
C1664 C1667 1.387 . S
H1665 C1661 0.950 . S
H1666 C1663 0.950 . S
C1667 C1658 1.390 . S
C1667 H1660 0.950 . S
C1667 C1664 1.387 . S
C1668 C1669 1.375 1_655 S
C1668 H1672 0.934 . S
C1668 C1677 1.419 . S
C1669 C1668 1.375 1_455 S
C1669 C1671 1.387 . S
H1670 C1677 0.950 . S
C1671 C1669 1.387 . S
C1671 C1673 1.412 . S
C1671 H1675 0.950 . S
H1672 C1668 0.934 . S
C1673 C1671 1.412 . S
C1673 C1674 1.378 1_455 S
C1673 H1676 0.938 . S
C1674 C1673 1.378 1_655 S
C1674 C1677 1.387 . S
H1675 C1671 0.950 . S
H1676 C1673 0.938 . S
C1677 C1668 1.419 . S
C1677 H1670 0.950 . S
C1677 C1674 1.387 . S
C1678 C1679 1.387 . S
C1678 H1682 0.950 . S
C1678 C1687 1.390 . S
C1679 C1678 1.387 . S
C1679 C1681 1.387 . S
H1680 C1687 0.950 . S
C1681 C1679 1.387 . S
C1681 C1683 1.390 . S
C1681 H1685 0.950 . S
H1682 C1678 0.950 . S
C1683 C1681 1.390 . S
C1683 C1684 1.387 . S
C1683 H1686 0.950 . S
C1684 C1683 1.387 . S
C1684 C1687 1.387 . S
H1685 C1681 0.950 . S
H1686 C1683 0.950 . S
C1687 C1678 1.390 . S
C1687 H1680 0.950 . S
C1687 C1684 1.387 . S
C1688 C1689 1.387 . S
C1688 H1692 0.950 . S
C1688 C1697 1.390 1_545 S
C1689 C1688 1.387 . S
C1689 C1691 1.387 . S
H1690 C1697 0.950 . S
C1691 C1689 1.387 . S
C1691 C1693 1.390 1_545 S
C1691 H1695 0.950 . S
H1692 C1688 0.950 . S
C1693 C1691 1.390 1_565 S
C1693 C1694 1.387 . S
C1693 H1696 0.950 . S
C1694 C1693 1.387 . S
C1694 C1697 1.387 . S
H1695 C1691 0.950 . S
H1696 C1693 0.950 . S
C1697 C1688 1.390 1_565 S
C1697 H1690 0.950 . S
C1697 C1694 1.387 . S
C1698 C1699 1.387 . S
C1698 H1702 0.950 . S
C1698 C1707 1.390 1_564 S
C1699 C1698 1.387 . S
C1699 C1701 1.387 . S
H1700 C1707 0.950 . S
C1701 C1699 1.387 . S
C1701 C1703 1.390 1_564 S
C1701 H1705 0.950 . S
H1702 C1698 0.950 . S
C1703 C1701 1.390 1_546 S
C1703 C1704 1.387 . S
C1703 H1706 0.950 . S
C1704 C1703 1.387 . S
C1704 C1707 1.387 . S
H1705 C1701 0.950 . S
H1706 C1703 0.950 . S
C1707 C1698 1.390 1_546 S
C1707 H1700 0.950 . S
C1707 C1704 1.387 . S
C1708 C1709 1.387 . S
C1708 H1712 0.950 . S
C1708 C1717 1.390 1_655 S
C1709 C1708 1.387 . S
C1709 C1711 1.387 1_556 S
H1710 C1717 0.950 . S
C1711 C1709 1.387 1_554 S
C1711 C1713 1.390 . S
C1711 H1715 0.950 . S
H1712 C1708 0.950 . S
C1713 C1711 1.390 . S
C1713 C1714 1.387 1_655 S
C1713 H1716 0.950 . S
C1714 C1713 1.387 1_455 S
C1714 C1717 1.387 1_554 S
H1715 C1711 0.950 . S
H1716 C1713 0.950 . S
C1717 C1708 1.390 1_455 S
C1717 H1710 0.950 . S
C1717 C1714 1.387 1_556 S
C1718 C1719 1.387 . S
C1718 H1722 0.950 . S
C1718 C1727 1.390 1_554 S
C1719 C1718 1.387 . S
C1719 C1721 1.387 . S
H1720 C1727 0.950 . S
C1721 C1719 1.387 . S
C1721 C1723 1.390 1_554 S
C1721 H1725 0.950 . S
H1722 C1718 0.950 . S
C1723 C1721 1.390 1_556 S
C1723 C1724 1.387 . S
C1723 H1726 0.950 . S
C1724 C1723 1.387 . S
C1724 C1727 1.387 . S
H1725 C1721 0.950 . S
H1726 C1723 0.950 . S
C1727 C1718 1.390 1_556 S
C1727 H1720 0.950 . S
C1727 C1724 1.387 . S
C1728 C1729 1.387 . S
C1728 H1732 0.950 . S
C1728 C1737 1.390 . S
C1729 C1728 1.387 . S
C1729 C1731 1.387 1_556 S
H1730 C1737 0.950 . S
C1731 C1729 1.387 1_554 S
C1731 C1733 1.390 . S
C1731 H1735 0.950 . S
H1732 C1728 0.950 . S
C1733 C1731 1.390 . S
C1733 C1734 1.387 1_554 S
C1733 H1736 0.950 1_545 S
C1734 C1733 1.387 1_556 S
C1734 C1737 1.387 . S
H1735 C1731 0.950 . S
H1736 C1733 0.950 1_565 S
C1737 C1728 1.390 . S
C1737 H1730 0.950 . S
C1737 C1734 1.387 . S
C1738 C1739 1.387 . S
C1738 H1742 0.950 . S
C1738 C1747 1.390 . S
C1739 C1738 1.387 . S
C1739 C1741 1.387 1_556 S
H1740 C1747 0.950 . S
C1741 C1739 1.387 1_554 S
C1741 C1743 1.390 . S
C1741 H1745 0.950 . S
H1742 C1738 0.950 . S
C1743 C1741 1.390 . S
C1743 C1744 1.387 1_554 S
C1743 H1746 0.950 . S
C1744 C1743 1.387 1_556 S
C1744 C1747 1.387 . S
H1745 C1741 0.950 . S
H1746 C1743 0.950 . S
C1747 C1738 1.390 . S
C1747 H1740 0.950 . S
C1747 C1744 1.387 . S
C1748 C1749 1.387 . S
C1748 H1752 0.950 . S
C1748 C1757 1.390 . S
C1749 C1748 1.387 . S
C1749 C1751 1.387 . S
H1750 C1757 0.950 . S
C1751 C1749 1.387 . S
C1751 C1753 1.390 . S
C1751 H1755 0.950 . S
H1752 C1748 0.950 . S
C1753 C1751 1.390 . S
C1753 C1754 1.387 . S
C1753 H1756 0.950 . S
C1754 C1753 1.387 . S
C1754 C1757 1.387 . S
H1755 C1751 0.950 . S
H1756 C1753 0.950 . S
C1757 C1748 1.390 . S
C1757 H1750 0.950 . S
C1757 C1754 1.387 . S
C1758 C1759 1.387 . S
C1758 H1762 0.950 . S
C1758 C1767 1.390 . S
C1759 C1758 1.387 . S
C1759 C1761 1.387 . S
H1760 C1767 0.950 . S
C1761 C1759 1.387 . S
C1761 C1763 1.390 . S
C1761 H1765 0.950 . S
H1762 C1758 0.950 . S
C1763 C1761 1.390 . S
C1763 C1764 1.387 . S
C1763 H1766 0.950 . S
C1764 C1763 1.387 . S
C1764 C1767 1.387 . S
H1765 C1761 0.950 . S
H1766 C1763 0.950 . S
C1767 C1758 1.390 . S
C1767 H1760 0.950 . S
C1767 C1764 1.387 . S
C1768 C1769 1.387 . S
C1768 H1772 0.950 . S
C1768 C1777 1.390 . S
C1769 C1768 1.387 . S
C1769 C1771 1.387 . S
H1770 C1777 0.950 . S
C1771 C1769 1.387 . S
C1771 C1773 1.390 . S
C1771 H1775 0.950 . S
H1772 C1768 0.950 . S
C1773 C1771 1.390 . S
C1773 C1774 1.387 . S
C1773 H1776 0.950 . S
C1774 C1773 1.387 . S
C1774 C1777 1.387 . S
H1775 C1771 0.950 . S
H1776 C1773 0.950 . S
C1777 C1768 1.390 . S
C1777 H1770 0.950 . S
C1777 C1774 1.387 . S
C1778 C1779 1.387 . S
C1778 H1782 0.969 . S
C1778 C1787 1.390 . S
C1779 C1778 1.387 . S
C1779 C1781 1.387 . S
H1780 C1787 0.950 . S
C1781 C1779 1.387 . S
C1781 C1783 1.390 . S
C1781 H1785 0.950 . S
H1782 C1778 0.969 . S
C1783 C1781 1.390 . S
C1783 C1784 1.387 . S
C1783 H1786 0.950 . S
C1784 C1783 1.387 . S
C1784 C1787 1.387 . S
H1785 C1781 0.950 . S
H1786 C1783 0.950 . S
C1787 C1778 1.390 . S
C1787 H1780 0.950 . S
C1787 C1784 1.387 . S
C1788 C1789 1.387 . S
C1788 H1792 0.950 . S
C1788 C1797 1.390 . S
C1789 C1788 1.387 . S
C1789 C1791 1.387 1_554 S
H1790 C1797 0.950 . S
C1791 C1789 1.387 1_556 S
C1791 C1793 1.390 . S
C1791 H1795 0.950 . S
H1792 C1788 0.950 . S
C1793 C1791 1.390 . S
C1793 C1794 1.387 1_556 S
C1793 H1796 0.950 . S
C1794 C1793 1.387 1_554 S
C1794 C1797 1.387 . S
H1795 C1791 0.950 . S
H1796 C1793 0.950 . S
C1797 C1788 1.390 . S
C1797 H1790 0.950 . S
C1797 C1794 1.387 . S
C1798 C1799 1.359 1_556 S
C1798 H1802 0.970 . S
C1798 C1807 1.399 . S
C1799 C1798 1.359 1_554 S
C1799 C1801 1.387 . S
H1800 C1807 0.950 . S
C1801 C1799 1.387 . S
C1801 C1803 1.390 . S
C1801 H1805 0.950 . S
H1802 C1798 0.970 . S
C1803 C1801 1.390 . S
C1803 C1804 1.387 . S
C1803 H1806 0.950 . S
C1804 C1803 1.387 . S
C1804 C1807 1.387 1_554 S
H1805 C1801 0.950 . S
H1806 C1803 0.950 . S
C1807 C1798 1.399 . S
C1807 H1800 0.950 . S
C1807 C1804 1.387 1_556 S
C1808 C1809 1.387 . S
C1808 H1812 0.950 . S
C1808 C1817 1.390 . S
C1809 C1808 1.387 . S
C1809 C1811 1.387 . S
H1810 C1817 0.950 . S
C1811 C1809 1.387 . S
C1811 C1813 1.390 . S
C1811 H1815 0.950 . S
H1812 C1808 0.950 . S
C1813 C1811 1.390 . S
C1813 C1814 1.387 . S
C1813 H1816 0.950 . S
C1814 C1813 1.387 . S
C1814 C1817 1.387 . S
H1815 C1811 0.950 . S
H1816 C1813 0.950 . S
C1817 C1808 1.390 . S
C1817 H1810 0.950 . S
C1817 C1814 1.387 . S
C1818 C1819 1.387 . S
C1818 H1822 0.950 . S
C1818 C1827 1.390 . S
C1819 C1818 1.387 . S
C1819 C1821 1.387 . S
H1820 C1827 0.950 . S
C1821 C1819 1.387 . S
C1821 C1823 1.390 . S
C1821 H1825 0.950 . S
H1822 C1818 0.950 . S
C1823 C1821 1.390 . S
C1823 C1824 1.387 . S
C1823 H1826 0.950 1_655 S
C1824 C1823 1.387 . S
C1824 C1827 1.387 . S
H1825 C1821 0.950 . S
H1826 C1823 0.950 1_455 S
C1827 C1818 1.390 . S
C1827 H1820 0.950 . S
C1827 C1824 1.387 . S
C1828 C1829 1.387 . S
C1828 H1832 0.950 . S
C1828 C1837 1.390 . S
C1829 C1828 1.387 . S
C1829 C1831 1.387 . S
H1830 C1837 0.950 . S
C1831 C1829 1.387 . S
C1831 C1833 1.390 . S
C1831 H1835 0.950 . S
H1832 C1828 0.950 . S
C1833 C1831 1.390 . S
C1833 C1834 1.387 . S
C1833 H1836 0.950 . S
C1834 C1833 1.387 . S
C1834 C1837 1.387 . S
H1835 C1831 0.950 . S
H1836 C1833 0.950 . S
C1837 C1828 1.390 . S
C1837 H1830 0.950 . S
C1837 C1834 1.387 . S
C1838 C1839 1.387 . S
C1838 H1842 0.950 . S
C1838 C1847 1.390 . S
C1839 C1838 1.387 . S
C1839 C1841 1.387 . S
H1840 C1847 0.950 . S
C1841 C1839 1.387 . S
C1841 C1843 1.390 . S
C1841 H1845 0.950 . S
H1842 C1838 0.950 . S
C1843 C1841 1.390 . S
C1843 C1844 1.387 . S
C1843 H1846 0.950 . S
C1844 C1843 1.387 . S
C1844 C1847 1.387 . S
H1845 C1841 0.950 . S
H1846 C1843 0.950 . S
C1847 C1838 1.390 . S
C1847 H1840 0.950 . S
C1847 C1844 1.387 . S
C1848 C1849 1.387 . S
C1848 H1852 0.950 . S
C1848 C1857 1.390 . S
C1849 C1848 1.387 . S
C1849 C1851 1.387 . S
H1850 C1857 0.950 . S
C1851 C1849 1.387 . S
C1851 C1853 1.390 . S
C1851 H1855 0.950 . S
H1852 C1848 0.950 . S
C1853 C1851 1.390 . S
C1853 C1854 1.387 . S
C1853 H1856 0.950 . S
C1854 C1853 1.387 . S
C1854 C1857 1.387 . S
H1855 C1851 0.950 . S
H1856 C1853 0.950 . S
C1857 C1848 1.390 . S
C1857 H1850 0.950 . S
C1857 C1854 1.387 . S
C1858 C1859 1.387 . S
C1858 H1862 0.950 . S
C1858 C1867 1.390 . S
C1859 C1858 1.387 . S
C1859 C1861 1.387 . S
H1860 C1867 0.950 . S
C1861 C1859 1.387 . S
C1861 C1863 1.390 . S
C1861 H1865 0.950 . S
H1862 C1858 0.950 . S
C1863 C1861 1.390 . S
C1863 C1864 1.387 . S
C1863 H1866 0.950 . S
C1864 C1863 1.387 . S
C1864 C1867 1.387 . S
H1865 C1861 0.950 . S
H1866 C1863 0.950 . S
C1867 C1858 1.390 . S
C1867 H1860 0.950 . S
C1867 C1864 1.387 . S
C1868 C1869 1.387 . S
C1868 H1872 0.950 . S
C1868 C1877 1.390 . S
C1869 C1868 1.387 . S
C1869 C1871 1.387 . S
H1870 C1877 0.950 . S
C1871 C1869 1.387 . S
C1871 C1873 1.390 . S
C1871 H1875 0.950 . S
H1872 C1868 0.950 . S
C1873 C1871 1.390 . S
C1873 C1874 1.387 . S
C1873 H1876 0.950 . S
C1874 C1873 1.387 . S
C1874 C1877 1.387 . S
H1875 C1871 0.950 . S
H1876 C1873 0.950 . S
C1877 C1868 1.390 . S
C1877 H1870 0.950 . S
C1877 C1874 1.387 . S
C1878 C1879 1.387 . S
C1878 H1882 0.950 . S
C1878 C1887 1.390 . S
C1879 C1878 1.387 . S
C1879 C1881 1.387 . S
H1880 C1887 0.950 . S
C1881 C1879 1.387 . S
C1881 C1883 1.390 . S
C1881 H1885 0.950 . S
H1882 C1878 0.950 . S
C1883 C1881 1.390 . S
C1883 C1884 1.387 . S
C1883 H1886 0.950 . S
C1884 C1883 1.387 . S
C1884 C1887 1.387 . S
H1885 C1881 0.950 . S
H1886 C1883 0.950 . S
C1887 C1878 1.390 . S
C1887 H1880 0.950 . S
C1887 C1884 1.387 . S
C1888 C1889 1.387 . S
C1888 H1892 0.950 . S
C1888 C1897 1.390 . S
C1889 C1888 1.387 . S
C1889 C1891 1.387 . S
H1890 C1897 0.950 . S
C1891 C1889 1.387 . S
C1891 C1893 1.390 . S
C1891 H1895 0.950 . S
H1892 C1888 0.950 . S
C1893 C1891 1.390 . S
C1893 C1894 1.387 . S
C1893 H1896 0.950 . S
C1894 C1893 1.387 . S
C1894 C1897 1.387 . S
H1895 C1891 0.950 . S
H1896 C1893 0.950 . S
C1897 C1888 1.390 . S
C1897 H1890 0.950 . S
C1897 C1894 1.387 . S
C1898 C1899 1.387 . S
C1898 H1902 0.950 . S
C1898 C1907 1.390 . S
C1899 C1898 1.387 . S
C1899 C1901 1.387 . S
H1900 C1907 0.950 . S
C1901 C1899 1.387 . S
C1901 C1903 1.390 . S
C1901 H1905 0.950 . S
H1902 C1898 0.950 . S
C1903 C1901 1.390 . S
C1903 C1904 1.387 . S
C1903 H1906 0.950 . S
C1904 C1903 1.387 . S
C1904 C1907 1.387 . S
H1905 C1901 0.950 . S
H1906 C1903 0.950 . S
C1907 C1898 1.390 . S
C1907 H1900 0.950 . S
C1907 C1904 1.387 . S
C1908 C1909 1.387 . S
C1908 H1912 0.950 . S
C1908 C1917 1.390 . S
C1909 C1908 1.387 . S
C1909 C1911 1.387 . S
H1910 C1917 0.950 . S
C1911 C1909 1.387 . S
C1911 C1913 1.390 . S
C1911 H1915 0.950 . S
H1912 C1908 0.950 . S
C1913 C1911 1.390 . S
C1913 C1914 1.387 . S
C1913 H1916 0.950 . S
C1914 C1913 1.387 . S
C1914 C1917 1.387 . S
H1915 C1911 0.950 . S
H1916 C1913 0.950 . S
C1917 C1908 1.390 . S
C1917 H1910 0.950 . S
C1917 C1914 1.387 . S
C1918 C1919 1.387 . S
C1918 H1922 0.950 . S
C1918 C1927 1.390 . S
C1919 C1918 1.387 . S
C1919 C1921 1.387 . S
H1920 C1927 0.950 . S
C1921 C1919 1.387 . S
C1921 C1923 1.390 . S
C1921 H1925 0.950 . S
H1922 C1918 0.950 . S
C1923 C1921 1.390 . S
C1923 C1924 1.387 . S
C1923 H1926 0.950 . S
C1924 C1923 1.387 . S
C1924 C1927 1.387 . S
H1925 C1921 0.950 . S
H1926 C1923 0.950 . S
C1927 C1918 1.390 . S
C1927 H1920 0.950 . S
C1927 C1924 1.387 . S
C1928 C1929 1.387 . S
C1928 H1932 0.950 . S
C1928 C1937 1.390 . S
C1929 C1928 1.387 . S
C1929 C1931 1.387 . S
H1930 C1937 0.950 . S
C1931 C1929 1.387 . S
C1931 C1933 1.390 . S
C1931 H1935 0.950 . S
H1932 C1928 0.950 . S
C1933 C1931 1.390 . S
C1933 C1934 1.387 . S
C1933 H1936 0.950 . S
C1934 C1933 1.387 . S
C1934 C1937 1.387 . S
H1935 C1931 0.950 . S
H1936 C1933 0.950 . S
C1937 C1928 1.390 . S
C1937 H1930 0.950 . S
C1937 C1934 1.387 . S
C1938 C1939 1.387 . S
C1938 H1942 0.950 . S
C1938 C1947 1.390 . S
C1939 C1938 1.387 . S
C1939 C1941 1.387 . S
H1940 C1947 0.950 . S
C1941 C1939 1.387 . S
C1941 C1943 1.390 . S
C1941 H1945 0.950 . S
H1942 C1938 0.950 . S
C1943 C1941 1.390 . S
C1943 C1944 1.387 . S
C1943 H1946 0.950 . S
C1944 C1943 1.387 . S
C1944 C1947 1.387 . S
H1945 C1941 0.950 . S
H1946 C1943 0.950 . S
C1947 C1938 1.390 . S
C1947 H1940 0.950 . S
C1947 C1944 1.387 . S
C1948 C1949 1.387 . S
C1948 H1952 0.950 . S
C1948 C1957 1.390 . S
C1949 C1948 1.387 . S
C1949 C1951 1.387 . S
H1950 C1957 0.950 . S
C1951 C1949 1.387 . S
C1951 C1953 1.390 . S
C1951 H1955 0.950 . S
H1952 C1948 0.950 . S
C1953 C1951 1.390 . S
C1953 C1954 1.387 . S
C1953 H1956 0.950 . S
C1954 C1953 1.387 . S
C1954 C1957 1.387 . S
H1955 C1951 0.950 . S
H1956 C1953 0.950 . S
C1957 C1948 1.390 . S
C1957 H1950 0.950 . S
C1957 C1954 1.387 . S
C1958 C1959 1.387 . S
C1958 H1962 0.950 . S
C1958 C1967 1.390 . S
C1959 C1958 1.387 . S
C1959 C1961 1.387 . S
H1960 C1967 0.950 . S
C1961 C1959 1.387 . S
C1961 C1963 1.390 . S
C1961 H1965 0.950 . S
H1962 C1958 0.950 . S
C1963 C1961 1.390 . S
C1963 C1964 1.387 . S
C1963 H1966 0.950 . S
C1964 C1963 1.387 . S
C1964 C1967 1.387 . S
H1965 C1961 0.950 . S
H1966 C1963 0.950 . S
C1967 C1958 1.390 . S
C1967 H1960 0.950 . S
C1967 C1964 1.387 . S
C1968 C1969 1.387 . S
C1968 H1972 0.950 . S
C1968 C1977 1.390 . S
C1969 C1968 1.387 . S
C1969 C1971 1.387 . S
H1970 C1977 0.950 . S
C1971 C1969 1.387 . S
C1971 C1973 1.390 . S
C1971 H1975 0.950 . S
H1972 C1968 0.950 . S
C1973 C1971 1.390 . S
C1973 C1974 1.387 . S
C1973 H1976 0.950 . S
C1974 C1973 1.387 . S
C1974 C1977 1.387 . S
H1975 C1971 0.950 . S
H1976 C1973 0.950 . S
C1977 C1968 1.390 . S
C1977 H1970 0.950 . S
C1977 C1974 1.387 . S
C1978 C1979 1.387 . S
C1978 H1982 0.950 . S
C1978 C1987 1.390 . S
C1979 C1978 1.387 . S
C1979 C1981 1.387 . S
H1980 C1987 0.950 . S
C1981 C1979 1.387 . S
C1981 C1983 1.390 . S
C1981 H1985 0.950 . S
H1982 C1978 0.950 . S
C1983 C1981 1.390 . S
C1983 C1984 1.387 . S
C1983 H1986 0.950 . S
C1984 C1983 1.387 . S
C1984 C1987 1.387 . S
H1985 C1981 0.950 . S
H1986 C1983 0.950 . S
C1987 C1978 1.390 . S
C1987 H1980 0.950 . S
C1987 C1984 1.387 . S
C1988 C1989 1.387 . S
C1988 H1992 0.950 . S
C1988 C1997 1.390 . S
C1989 C1988 1.387 . S
C1989 C1991 1.387 . S
H1990 C1997 0.950 . S
C1991 C1989 1.387 . S
C1991 C1993 1.390 . S
C1991 H1995 0.950 . S
H1992 C1988 0.950 . S
C1993 C1991 1.390 . S
C1993 C1994 1.387 . S
C1993 H1996 0.950 . S
C1994 C1993 1.387 . S
C1994 C1997 1.387 . S
H1995 C1991 0.950 . S
H1996 C1993 0.950 . S
C1997 C1988 1.390 . S
C1997 H1990 0.950 . S
C1997 C1994 1.387 . S
C1998 C1999 1.387 . S
C1998 H2002 0.950 . S
C1998 C2007 1.390 . S
C1999 C1998 1.387 . S
C1999 C2001 1.387 . S
H2000 C2007 0.950 . S
C2001 C1999 1.387 . S
C2001 C2003 1.390 . S
C2001 H2005 0.950 . S
H2002 C1998 0.950 . S
C2003 C2001 1.390 . S
C2003 C2004 1.387 . S
C2003 H2006 0.950 . S
C2004 C2003 1.387 . S
C2004 C2007 1.387 . S
H2005 C2001 0.950 . S
H2006 C2003 0.950 . S
C2007 C1998 1.390 . S
C2007 H2000 0.950 . S
C2007 C2004 1.387 . S
C2008 C2009 1.387 . S
C2008 H2012 0.950 . S
C2008 C2017 1.390 . S
C2009 C2008 1.387 . S
C2009 C2011 1.387 . S
H2010 C2017 0.950 . S
C2011 C2009 1.387 . S
C2011 C2013 1.390 . S
C2011 H2015 0.950 . S
H2012 C2008 0.950 . S
C2013 C2011 1.390 . S
C2013 C2014 1.387 . S
C2013 H2016 0.950 . S
C2014 C2013 1.387 . S
C2014 C2017 1.387 . S
H2015 C2011 0.950 . S
H2016 C2013 0.950 . S
C2017 C2008 1.390 . S
C2017 H2010 0.950 . S
C2017 C2014 1.387 . S
C2018 C2019 1.387 . S
C2018 H2022 0.950 . S
C2018 C2027 1.390 . S
C2019 C2018 1.387 . S
C2019 C2021 1.387 . S
H2020 C2027 0.950 . S
C2021 C2019 1.387 . S
C2021 C2023 1.390 . S
C2021 H2025 0.950 . S
H2022 C2018 0.950 . S
C2023 C2021 1.390 . S
C2023 C2024 1.387 . S
C2023 H2026 0.950 . S
C2024 C2023 1.387 . S
C2024 C2027 1.387 . S
H2025 C2021 0.950 . S
H2026 C2023 0.950 . S
C2027 C2018 1.390 . S
C2027 H2020 0.950 . S
C2027 C2024 1.387 . S
C2028 C2029 1.387 . S
C2028 H2032 0.950 . S
C2028 C2037 1.390 . S
C2029 C2028 1.387 . S
C2029 C2031 1.387 . S
H2030 C2037 0.950 . S
C2031 C2029 1.387 . S
C2031 C2033 1.390 . S
C2031 H2035 0.950 . S
H2032 C2028 0.950 . S
C2033 C2031 1.390 . S
C2033 C2034 1.387 . S
C2033 H2036 0.950 . S
C2034 C2033 1.387 . S
C2034 C2037 1.387 . S
H2035 C2031 0.950 . S
H2036 C2033 0.950 . S
C2037 C2028 1.390 . S
C2037 H2030 0.950 . S
C2037 C2034 1.387 . S
C2038 C2039 1.387 . S
C2038 H2042 0.950 . S
C2038 C2047 1.390 . S
C2039 C2038 1.387 . S
C2039 C2041 1.387 . S
H2040 C2047 0.950 . S
C2041 C2039 1.387 . S
C2041 C2043 1.390 . S
C2041 H2045 0.950 . S
H2042 C2038 0.950 . S
C2043 C2041 1.390 . S
C2043 C2044 1.387 . S
C2043 H2046 0.950 . S
C2044 C2043 1.387 . S
C2044 C2047 1.387 . S
H2045 C2041 0.950 . S
H2046 C2043 0.950 . S
C2047 C2038 1.390 . S
C2047 H2040 0.950 . S
C2047 C2044 1.387 . S
C2048 C2049 1.387 . S
C2048 H2052 0.950 . S
C2048 C2057 1.390 . S
C2049 C2048 1.387 . S
C2049 C2051 1.387 . S
H2050 C2057 0.950 . S
C2051 C2049 1.387 . S
C2051 C2053 1.390 . S
C2051 H2055 0.950 . S
H2052 C2048 0.950 . S
C2053 C2051 1.390 . S
C2053 C2054 1.387 . S
C2053 H2056 0.950 . S
C2054 C2053 1.387 . S
C2054 C2057 1.387 . S
H2055 C2051 0.950 . S
H2056 C2053 0.950 . S
C2057 C2048 1.390 . S
C2057 H2050 0.950 . S
C2057 C2054 1.387 . S
C2058 C2059 1.387 . S
C2058 H2062 0.950 . S
C2058 C2067 1.390 . S
C2059 C2058 1.387 . S
C2059 C2061 1.387 . S
H2060 C2067 0.950 . S
C2061 C2059 1.387 . S
C2061 C2063 1.390 . S
C2061 H2065 0.950 . S
H2062 C2058 0.950 . S
C2063 C2061 1.390 . S
C2063 C2064 1.387 . S
C2063 H2066 0.950 . S
C2064 C2063 1.387 . S
C2064 C2067 1.387 . S
H2065 C2061 0.950 . S
H2066 C2063 0.950 . S
C2067 C2058 1.390 . S
C2067 H2060 0.950 . S
C2067 C2064 1.387 . S
C2068 C2069 1.387 . S
C2068 H2072 0.950 . S
C2068 C2077 1.390 . S
C2069 C2068 1.387 . S
C2069 C2071 1.387 . S
H2070 C2077 0.950 . S
C2071 C2069 1.387 . S
C2071 C2073 1.390 . S
C2071 H2075 0.950 . S
H2072 C2068 0.950 . S
C2073 C2071 1.390 . S
C2073 C2074 1.387 . S
C2073 H2076 0.950 . S
C2074 C2073 1.387 . S
C2074 C2077 1.387 . S
H2075 C2071 0.950 . S
H2076 C2073 0.950 . S
C2077 C2068 1.390 . S
C2077 H2070 0.950 . S
C2077 C2074 1.387 . S
C2078 C2079 1.387 . S
C2078 H2082 0.950 . S
C2078 C2087 1.390 . S
C2079 C2078 1.387 . S
C2079 C2081 1.387 . S
H2080 C2087 0.950 . S
C2081 C2079 1.387 . S
C2081 C2083 1.390 . S
C2081 H2085 0.950 . S
H2082 C2078 0.950 . S
C2083 C2081 1.390 . S
C2083 C2084 1.387 . S
C2083 H2086 0.950 . S
C2084 C2083 1.387 . S
C2084 C2087 1.387 . S
H2085 C2081 0.950 . S
H2086 C2083 0.950 . S
C2087 C2078 1.390 . S
C2087 H2080 0.950 . S
C2087 C2084 1.387 . S
C1189 C536 1.610 . S
C1194 C28 1.603 . S
C1199 C61 1.602 . S
C1204 C569 1.611 . S
C1209 C503 1.611 . S
C1214 C94 1.603 . S
C1219 C107 1.610 . S
C1224 C886 1.603 . S
C1229 C820 1.602 . S
C1234 C140 1.611 . S
C1239 C173 1.611 . S
C1244 C853 1.602 . S
C1249 C226 1.670 . S
C1254 C1150 1.669 . S
C1259 C259 1.669 . S
C1264 C1183 1.669 . S
C1269 C292 1.669 . S
C1274 C1117 1.669 . S
C1279 C325 1.669 . S
C1284 C688 1.669 . S
C1289 C358 1.670 . S
C1294 C622 1.669 . S
C1299 C391 1.670 . S
C1304 C655 1.669 . S
C1309 C424 1.602 . S
C1314 C932 1.611 . S
C1319 C965 1.611 . S
C1324 C457 1.602 . S
C1329 C899 1.611 . S
C1334 C490 1.602 . S
C1339 C1084 1.669 . S
C1344 C721 1.669 . S
C1349 C1018 1.669 . S
C1354 C754 1.669 . S
C1359 C787 1.669 . S
C1364 C1051 1.669 . S
C1369 N962 1.534 . S
C1374 N14 1.483 . S
C1379 N47 1.481 . S
C1384 N896 1.535 . S
C1389 N80 1.480 . S
C1394 N929 1.535 . S
C1399 N104 1.535 . S
C1404 N443 1.481 . S
C1409 N137 1.535 . S
C1414 N476 1.481 . S
C1419 N410 1.483 . S
C1424 N170 1.534 . S
C1429 N773 1.517 . S
C1434 N212 1.528 . S
C1439 N245 1.531 . S
C1444 N707 1.514 . S
C1449 N278 1.531 . S
C1454 N740 1.516 . S
C1459 N1037 1.530 . S
C1464 N311 1.514 . S
C1469 N1070 1.531 . S
C1474 N344 1.515 . S
C1479 N1004 1.529 . S
C1484 N377 1.515 . S
C1489 N500 1.535 . S
C1494 N839 1.481 . S
C1499 N533 1.534 . S
C1504 N872 1.483 . S
C1509 N566 1.534 . S
C1514 N806 1.483 . S
C1519 N608 1.529 . S
C1524 N1169 1.515 . S
C1529 N1103 1.516 . S
C1534 N641 1.528 . S
C1539 N674 1.531 . S
C1544 N1136 1.515 . S
C1549 C17 1.370 . S
C1554 C611 1.370 . S
C1559 C50 1.370 . S
C1564 C644 1.370 . S
C1569 C677 1.373 . S
C1574 C83 1.373 . S
C1579 C116 1.336 . S
C1584 C1106 1.350 . S
C1589 C149 1.335 . S
C1594 C1139 1.348 . S
C1599 C182 1.335 . S
C1604 C1172 1.350 . S
C1609 C809 1.370 . S
C1614 C215 1.370 . S
C1619 C248 1.373 . S
C1624 C842 1.373 . S
C1629 C875 1.372 . S
C1634 C281 1.372 . S
C1639 C512 1.336 . S
C1644 C314 1.349 . S
C1649 C545 1.334 . S
C1654 C347 1.348 . S
C1659 C380 1.347 . S
C1664 C578 1.333 . S
C1669 C1007 1.372 . S
C1674 C413 1.372 . S
C1679 C1040 1.373 . S
C1684 C446 1.373 . S
C1689 C479 1.373 . S
C1694 C1073 1.373 . S
C1699 C908 1.333 . S
C1704 C710 1.347 . S
C1709 C743 1.347 . S
C1714 C941 1.333 . S
C1719 C974 1.334 . S
C1724 C776 1.347 . S
C1729 N5 1.467 . S
C1734 C239 1.466 1_545 S
C1739 N38 1.467 . S
C1744 C272 1.466 1_655 S
C1749 C206 1.466 . S
C1754 N71 1.468 . S
C1759 C371 1.485 1_455 S
C1764 N113 1.474 . S
C1769 C305 1.487 . S
C1774 N146 1.473 . S
C1779 C338 1.486 1_565 S
C1784 N179 1.474 . S
C1789 C41 1.512 1_565 S
C1794 N203 1.524 . S
C1799 C74 1.512 1_455 S
C1804 N236 1.522 . S
C1809 C8 1.513 . S
C1814 N269 1.523 . S
C1819 N302 1.461 . S
C1824 C193 1.446 1_655 S
C1829 N335 1.460 . S
C1834 C127 1.445 . S
C1839 C160 1.445 1_545 S
C1844 N368 1.461 . S
C1849 C635 1.466 . S
C1854 N401 1.468 . S
C1859 N434 1.467 . S
C1864 C668 1.466 . S
C1869 C602 1.466 . S
C1874 N467 1.467 . S
C1879 C767 1.486 . S
C1884 N509 1.474 . S
C1889 N542 1.474 . S
C1894 C701 1.486 . S
C1899 N575 1.473 . S
C1904 C734 1.485 . S
C1909 N599 1.513 . S
C1914 C437 1.511 . S
C1919 N632 1.514 . S
C1924 C470 1.513 . S
C1929 N665 1.513 . S
C1934 C404 1.511 . S
C1939 N698 1.460 . S
C1944 C589 1.445 . S
C1949 C523 1.446 . S
C1954 N731 1.460 . S
C1959 C556 1.444 . S
C1964 N764 1.460 . S
C1969 C1031 1.467 . S
C1974 N797 1.468 . S
C1979 C1064 1.467 . S
C1984 N830 1.469 . S
C1989 C998 1.467 . S
C1994 N863 1.469 . S
C1999 C1163 1.485 . S
C2004 N905 1.474 . S
C2009 N938 1.473 . S
C2014 C1097 1.485 . S
C2019 C1130 1.485 . S
C2024 N971 1.473 . S
C2029 C833 1.511 . S
C2034 N995 1.513 . S
C2039 C866 1.511 . S
C2044 N1028 1.513 . S
C2049 C800 1.512 . S
C2054 N1061 1.514 . S
C2059 N1094 1.460 . S
C2064 C985 1.444 . S
C2069 N1127 1.461 . S
C2074 C919 1.445 . S
C2079 C952 1.446 . S
C2084 N1160 1.460 . S
