# Generated by pormake.
# Topology sxb, (6)-cn, num edge types: 1
# Building blocks:
#     Node 0, Type 0, BuildingBlock: KUMJIN_clean_sbu_1, # of connection points: 6
#     Node 1, Type 0, BuildingBlock: KUMJIN_clean_sbu_1, # of connection points: 6
#     Node 2, Type 0, BuildingBlock: KUMJIN_clean_sbu_1, # of connection points: 6
#     Node 3, Type 0, BuildingBlock: KUMJIN_clean_sbu_1, # of connection points: 6
#     Edge 4, Type (0, 0), BuildingBlock: AJUNOK_clean_linker_0, # of connection points: 2
#     Edge 5, Type (0, 0), BuildingBlock: AJUNOK_clean_linker_0, # of connection points: 2
#     Edge 6, Type (0, 0), BuildingBlock: AJUNOK_clean_linker_0, # of connection points: 2
#     Edge 7, Type (0, 0), BuildingBlock: AJUNOK_clean_linker_0, # of connection points: 2
#     Edge 8, Type (0, 0), BuildingBlock: AJUNOK_clean_linker_0, # of connection points: 2
#     Edge 9, Type (0, 0), BuildingBlock: AJUNOK_clean_linker_0, # of connection points: 2
#     Edge 10, Type (0, 0), BuildingBlock: AJUNOK_clean_linker_0, # of connection points: 2
#     Edge 11, Type (0, 0), BuildingBlock: AJUNOK_clean_linker_0, # of connection points: 2
#     Edge 12, Type (0, 0), BuildingBlock: AJUNOK_clean_linker_0, # of connection points: 2
#     Edge 13, Type (0, 0), BuildingBlock: AJUNOK_clean_linker_0, # of connection points: 2
#     Edge 14, Type (0, 0), BuildingBlock: AJUNOK_clean_linker_0, # of connection points: 2
#     Edge 15, Type (0, 0), BuildingBlock: AJUNOK_clean_linker_0, # of connection points: 2
# Relax obj value: 0.021
# Max RMSD: 0.072
# Mean RMSD: 0.072
data_MOF--net-sxb--node1-KUMJIN_clean_sbu_1--edge1-AJUNOK_clean_linker_0
_symmetry_space_group_name_H-M    P1
_symmetry_Int_Tables_number       1
_symmetry_cell_setting            triclinic
loop_
_symmetry_equiv_pos_as_xyz
'x, y, z'
_cell_length_a     11.137257
_cell_length_b     40.415287
_cell_length_c     21.737089
_cell_angle_alpha  114.30302
_cell_angle_beta   90.155805
_cell_angle_gamma 89.781764
loop_
_atom_site_label
_atom_site_type_symbol
_atom_site_fract_x
_atom_site_fract_y
_atom_site_fract_z
_atom_type_partial_charge
Eu0 Eu 0.05385 0.95426 0.97199 0.0
C1 C 0.24897 0.11089 0.13863 0.0
N2 N 0.15132 0.09213 0.14452 0.0
C3 C 0.18614 0.11364 0.26384 0.0
C4 C 0.32155 0.13059 0.19535 0.0
C5 C 0.11464 0.09571 0.20696 0.0
C6 C 0.29129 0.13063 0.25782 0.0
C7 C 0.36269 0.13601 0.07236 0.0
C8 C 0.27034 0.11347 0.07745 0.0
C9 C 0.43771 0.15426 0.12797 0.0
C10 C 0.41764 0.1514 0.18912 0.0
Eu11 Eu 1.03341 0.06576 0.04526 0.0
N12 N 0.19662 0.09573 0.02406 0.0
C13 C 0.37398 0.14074 0.01228 0.0
C14 C 0.20585 0.10051 0.96569 0.0
C15 C 0.2947 0.12309 0.95888 0.0
H16 H 1.02757 0.08641 0.2143 0.0
H17 H 0.30205 0.12686 0.91255 0.0
H18 H 0.9881 0.934 0.80787 0.0
H19 H 0.81172 0.91889 0.15485 0.0
H20 H 0.1433 0.08723 0.92494 0.0
H21 H 0.44283 0.15822 0.00685 0.0
H22 H 0.97542 0.94582 0.11448 0.0
H23 H 0.15759 0.11553 0.31276 0.0
H24 H 0.50952 0.1715 0.12476 0.0
H25 H 0.47409 0.1666 0.23215 0.0
H26 H 0.83667 0.89991 0.7236 0.0
H27 H 0.34463 0.14546 0.30245 0.0
H28 H 0.6541 0.88288 0.0757 0.0
N29 N 0.91067 0.92342 0.88695 0.0
C30 C 0.82348 0.90531 0.90445 0.0
C31 C 0.83132 0.90145 0.77444 0.0
C32 C 0.73475 0.88528 0.85752 0.0
C33 C 0.91677 0.92119 0.82272 0.0
C34 C 0.7397 0.88351 0.79191 0.0
N35 N 0.90481 0.92829 0.01535 0.0
C36 C 0.90435 0.93158 0.08031 0.0
C37 C 0.7275 0.89093 0.99075 0.0
C38 C 0.82035 0.90785 0.97038 0.0
C39 C 0.72442 0.89524 0.058 0.0
C40 C 0.81314 0.91566 0.10291 0.0
H41 H 0.67352 0.86829 0.75437 0.0
H42 H 0.57474 0.85241 0.84212 0.0
H43 H 0.56784 0.85759 0.95871 0.0
O44 O 0.12964 0.91012 0.99314 0.0
O45 O 0.86148 0.97763 0.98882 0.0
O46 O 0.8499 0.04063 0.02737 0.0
O47 O 0.16993 0.91307 0.89789 0.0
O48 O 0.10354 0.98806 0.08005 0.0
O49 O 0.97579 0.03706 0.11153 0.0
O50 O 0.95225 0.10519 0.01004 0.0
O51 O 0.21393 0.03884 -0.00051 0.0
O52 O 0.21266 0.98993 0.02645 0.0
O53 O 0.95157 0.11534 0.11693 0.0
O54 O 0.98597 0.03164 0.93589 0.0
O55 O 0.10218 0.97961 0.8992 0.0
C56 C 0.80075 1.00836 0.00701 0.0
C57 C 0.21664 0.85647 0.90713 0.0
C58 C 0.27016 0.80155 0.92364 0.0
C59 C 0.30875 0.78523 0.85619 0.0
C60 C 0.25535 0.83924 0.83986 0.0
C61 C 0.30086 0.8039 0.81473 0.0
C62 C 0.22425 0.83735 0.94884 0.0
C63 C 1.03806 0.01324 0.12528 0.0
C64 C 0.18833 0.89588 0.93654 0.0
C65 C 0.64351 0.86791 0.87751 0.0
C66 C 0.63968 0.87082 0.94393 0.0
C67 C 0.27142 0.01229 0.00757 0.0
C68 C 0.85948 0.16208 0.09008 0.0
C69 C 0.8011 0.21479 0.06815 0.0
C70 C 0.74909 0.23047 0.13277 0.0
C71 C 0.80606 0.17847 0.15412 0.0
C72 C 0.85567 0.18017 0.04671 0.0
C73 C 0.75113 0.21233 0.17509 0.0
C74 C 0.05205 1.00676 0.88958 0.0
C75 C 0.92356 0.12719 0.07145 0.0
H76 H 0.34449 0.75784 0.83528 0.0
H77 H 0.25388 0.85343 0.80708 0.0
H78 H 0.33172 0.79106 0.76302 0.0
H79 H 0.19918 0.85078 0.00157 0.0
H80 H 0.70814 0.25715 0.15115 0.0
H81 H 0.80736 0.16521 0.18847 0.0
H82 H 0.89563 0.16751 0.99698 0.0
H83 H 0.71094 0.22475 0.22473 0.0
Eu84 Eu 0.06628 0.07286 0.55168 0.0
C85 C 0.21329 0.90953 0.33011 0.0
N86 N 0.11476 0.93145 0.34278 0.0
C87 C 0.07129 0.90767 0.22414 0.0
C88 C 0.24038 0.88444 0.26381 0.0
C89 C 1.04179 0.92999 0.29103 0.0
C90 C 0.17069 0.88468 0.21042 0.0
C91 C 0.36589 0.88201 0.3742 0.0
C92 C 0.27955 0.90932 0.38443 0.0
C93 C 0.38944 0.85619 0.30842 0.0
C94 C 0.33005 0.85819 0.25326 0.0
Eu95 Eu 0.06555 0.96225 0.45893 0.0
N96 N 0.2515 0.93349 0.44791 0.0
C97 C 0.41997 0.88012 0.43092 0.0
C98 C 0.30991 0.93315 0.50268 0.0
C99 C 0.39541 0.90656 0.4952 0.0
H100 H 0.95827 0.94488 0.30087 0.0
H101 H 0.43836 0.90556 0.53914 0.0
H102 H 0.04984 0.10677 0.72209 0.0
H103 H 0.81233 0.11373 0.37899 0.0
H104 H 0.28767 0.9528 0.55221 0.0
H105 H 0.47745 0.85776 0.42618 0.0
H106 H 0.97818 0.085 0.41417 0.0
H107 H 1.01434 0.9069 0.18331 0.0
H108 H 0.45135 0.83401 0.29943 0.0
H109 H 0.34954 0.83804 0.20289 0.0
H110 H 0.91209 0.1443 0.81259 0.0
H111 H 0.18954 0.86609 0.15875 0.0
H112 H 0.65547 0.14786 0.46128 0.0
N113 N 0.94076 0.10853 0.64286 0.0
C114 C 0.84458 0.1243 0.62677 0.0
C115 C 0.89089 0.1384 0.76048 0.0
C116 C 0.76491 0.14672 0.67727 0.0
C117 C 0.9676 0.11658 0.70886 0.0
C118 C 0.7881 0.15312 0.74456 0.0
N119 N 0.90932 0.09877 0.51259 0.0
C120 C 0.90679 0.09777 0.44914 0.0
C121 C 0.73396 0.13735 0.54276 0.0
C122 C 0.82903 0.11962 0.56007 0.0
C123 C 0.72667 0.13444 0.47643 0.0
C124 C 0.81462 0.11504 0.42973 0.0
H125 H 0.72948 0.17035 0.78479 0.0
H126 H 0.60456 0.18008 0.69753 0.0
H127 H 0.57747 0.17191 0.57991 0.0
O128 O 0.14757 0.11461 0.52303 0.0
O129 O 0.87776 0.04856 0.53342 0.0
O130 O 0.87527 0.98513 0.47766 0.0
O131 O 0.16142 0.11849 0.62605 0.0
O132 O 0.11899 0.04201 0.44165 0.0
O133 O 0.98412 0.99553 0.4081 0.0
O134 O 0.99311 0.93049 0.51211 0.0
O135 O 0.24517 0.99034 0.46366 0.0
O136 O 0.23658 0.04354 0.56081 0.0
O137 O 1.01219 0.90647 0.40348 0.0
O138 O 0.0912 0.98442 0.57199 0.0
O139 O 0.05848 0.04689 0.62636 0.0
C140 C 0.82189 0.01703 0.50796 0.0
C141 C 0.2457 0.16879 0.60814 0.0
C142 C 0.30455 0.22313 0.59255 0.0
C143 C 0.33853 0.23959 0.66083 0.0
C144 C 0.28286 0.18574 0.67586 0.0
C145 C 0.32875 0.22085 0.70185 0.0
C146 C 0.2574 0.18759 0.56635 0.0
C147 C 0.04954 0.01869 0.39528 0.0
C148 C 0.1807 0.13394 0.58514 0.0
C149 C 0.66709 0.16302 0.65948 0.0
C150 C 0.65168 0.15837 0.59246 0.0
C151 C 0.2972 0.01784 0.5127 0.0
C152 C 0.87504 0.87842 0.44726 0.0
C153 C 0.78784 0.82432 0.45271 0.0
C154 C 0.69781 0.82484 0.40767 0.0
C155 C 0.78387 0.87856 0.403 0.0
C156 C 0.87662 0.85148 0.47246 0.0
C157 C 0.69818 0.85133 0.38205 0.0
C158 C 0.07355 0.0145 0.62636 0.0
C159 C 0.98053 0.90135 0.4563 0.0
H160 H 0.37083 0.26729 0.68295 0.0
H161 H 0.27322 0.17229 0.70959 0.0
H162 H 0.35467 0.23388 0.75445 0.0
H163 H 0.22769 0.17501 0.51426 0.0
H164 H 0.62706 0.80475 0.39198 0.0
H165 H 0.78262 0.89859 0.3818 0.0
H166 H 0.95031 0.85057 0.50446 0.0
H167 H 0.63258 0.85074 0.3452 0.0
Eu168 Eu 0.55275 0.45487 0.9593 0.0
C169 C 0.76938 0.60595 0.11808 0.0
N170 N 0.67629 0.58688 0.12815 0.0
C171 C 0.7408 0.6033 0.24241 0.0
C172 C 0.8544 0.62323 0.16964 0.0
C173 C 0.65624 0.58799 0.19094 0.0
C174 C 0.8419 0.62026 0.23118 0.0
C175 C 0.86585 0.63231 0.04832 0.0
C176 C 0.77626 0.61021 0.05756 0.0
C177 C 0.95111 0.64903 0.09934 0.0
C178 C 0.94601 0.64425 0.15951 0.0
Eu179 Eu 0.53734 0.56433 0.0378 0.0
N180 N 0.6943 0.59324 0.00809 0.0
C181 C 0.86619 0.63734 0.98826 0.0
C182 C 0.69479 0.59759 0.94911 0.0
C183 C 0.78059 0.61979 0.93836 0.0
H184 H 0.5729 0.57881 0.20316 0.0
H185 H 0.78034 0.6235 0.89181 0.0
H186 H 0.54144 0.43455 0.79087 0.0
H187 H 0.2701 0.40743 0.11057 0.0
H188 H 0.62663 0.58478 0.91137 0.0
H189 H 0.9327 0.65448 0.97971 0.0
H190 H 0.44209 0.43939 0.08805 0.0
H191 H 0.7256 0.60322 0.29154 0.0
H192 H 1.02084 0.66599 0.09299 0.0
H193 H 1.01148 0.6578 0.19876 0.0
H194 H 0.40963 0.40192 0.69481 0.0
H195 H 0.90589 0.63286 0.27174 0.0
H196 H 0.1251 0.37483 0.01932 0.0
N197 N 0.42711 0.42791 0.86356 0.0
C198 C 0.33137 0.40937 0.87253 0.0
C199 C 0.38495 0.40453 0.74476 0.0
C200 C 0.25589 0.38891 0.81777 0.0
C201 C 0.45786 0.42413 0.80015 0.0
C202 C 0.28274 0.38721 0.75369 0.0
N203 N 0.38847 0.42748 0.98739 0.0
C204 C 0.37657 0.42632 0.04895 0.0
C205 C 0.21476 0.38945 0.94576 0.0
C206 C 0.31191 0.40897 0.93573 0.0
C207 C 0.19888 0.38944 0.00969 0.0
C208 C 0.2804 0.40785 0.0614 0.0
H209 H 0.22767 0.37149 0.71035 0.0
H210 H 0.10002 0.35388 0.78638 0.0
H211 H 0.06292 0.35486 0.89844 0.0
O212 O 0.61058 0.40759 0.97824 0.0
O213 O 0.3679 0.48072 -0.00059 0.0
O214 O 0.36417 0.5356 0.99021 0.0
O215 O 0.66021 0.41176 0.88455 0.0
O216 O 0.60356 0.48562 0.06852 0.0
O217 O 0.47871 0.5356 0.10368 0.0
O218 O 0.46955 0.61044 0.01879 0.0
O219 O 0.71829 0.53719 0.99259 0.0
O220 O 0.72219 0.48506 0.01078 0.0
O221 O 0.44715 0.61003 0.11819 0.0
O222 O 0.48157 0.5346 0.92944 0.0
O223 O 0.60202 0.4837 0.89137 0.0
C224 C 0.30886 0.50781 0.99412 0.0
C225 C 0.725 0.35678 0.89569 0.0
C226 C 0.78437 0.30186 0.91001 0.0
C227 C 0.82679 0.28686 0.84323 0.0
C228 C 0.77018 0.34125 0.82955 0.0
C229 C 0.82033 0.30654 0.80361 0.0
C230 C 0.73234 0.3369 0.93593 0.0
C231 C 0.5348 0.50959 0.11405 0.0
C232 C 0.66236 0.39227 0.91966 0.0
C233 C 0.15866 0.36968 0.82791 0.0
C234 C 0.13778 0.37011 0.89171 0.0
C235 C 0.77817 0.51067 -0.00028 0.0
C236 C 0.37445 0.66396 0.10491 0.0
C237 C 0.31407 0.71829 0.08857 0.0
C238 C 0.28032 0.73482 0.15689 0.0
C239 C 0.33767 0.68101 0.17252 0.0
C240 C 0.36241 0.68278 0.06292 0.0
C241 C 0.29127 0.71619 0.19821 0.0
C242 C 0.54314 0.50952 0.88143 0.0
C243 C 0.4334 0.62791 0.08057 0.0
H244 H 0.86341 0.25959 0.82118 0.0
H245 H 0.76443 0.35559 0.79712 0.0
H246 H 0.85297 0.29462 0.75219 0.0
H247 H 0.69735 0.34848 0.98696 0.0
H248 H 0.24671 0.76244 0.17874 0.0
H249 H 0.34698 0.66744 0.20612 0.0
H250 H 0.39075 0.66997 0.01066 0.0
H251 H 0.26498 0.72926 0.25071 0.0
Eu252 Eu 0.54826 0.56782 0.53949 0.0
C253 C 0.72935 0.41257 0.33887 0.0
N254 N 0.62283 0.42982 0.34212 0.0
C255 C 0.61771 0.40749 0.22129 0.0
C256 C 0.78541 0.39263 0.27622 0.0
C257 C 0.56479 0.42652 0.28437 0.0
C258 C 0.72885 0.39064 0.21717 0.0
C259 C 0.89124 0.39619 0.39645 0.0
C260 C 0.78151 0.41408 0.3983 0.0
C261 C 0.9477 0.37665 0.33418 0.0
C262 C 0.89488 0.37484 0.27428 0.0
Eu263 Eu 0.53862 0.45855 0.45142 0.0
N264 N 0.72612 0.43365 0.45811 0.0
C265 C 0.941 0.39855 0.4574 0.0
C266 C 0.77146 0.43499 0.51722 0.0
C267 C 0.88052 0.41792 0.51803 0.0
H268 H 0.47562 0.4375 0.28651 0.0
H269 H 0.91724 0.4194 0.56524 0.0
H270 H 0.57465 0.59757 0.70988 0.0
H271 H 0.22068 0.60072 0.38706 0.0
H272 H 0.72246 0.44901 0.56326 0.0
H273 H 1.02535 0.38526 0.45811 0.0
H274 H 0.3839 0.56559 0.40737 0.0
H275 H 0.57164 0.40525 0.17582 0.0
H276 H 1.03205 0.36272 0.33177 0.0
H277 H 0.93906 0.35938 0.2266 0.0
H278 H 0.48127 0.64444 0.81088 0.0
H279 H 0.76894 0.37551 0.1681 0.0
H280 H 0.12884 0.65159 0.48347 0.0
N281 N 0.45467 0.60601 0.64107 0.0
C282 C 0.36321 0.62633 0.63304 0.0
C283 C 0.44689 0.63948 0.76123 0.0
C284 C 0.31367 0.65522 0.68939 0.0
C285 C 0.49788 0.61235 0.70384 0.0
C286 C 0.35495 0.66117 0.75399 0.0
N287 N 0.3721 0.59163 0.51392 0.0
C288 C 0.3382 0.58534 0.44977 0.0
C289 C 0.23536 0.64215 0.55829 0.0
C290 C 0.32268 0.61943 0.5679 0.0
C291 C 0.19647 0.6348 0.49266 0.0
C292 C 0.24754 0.60603 0.43816 0.0
H293 H 0.31851 0.683 0.79846 0.0
H294 H 0.19425 0.7017 0.72179 0.0
H295 H 0.1363 0.692 0.60637 0.0
O296 O 0.63947 0.59877 0.48922 0.0
O297 O 0.3617 0.54458 0.53799 0.0
O298 O 0.35438 0.48411 0.46109 0.0
O299 O 0.61524 0.62166 0.59782 0.0
O300 O 0.59234 0.53709 0.42834 0.0
O301 O 0.4606 0.48998 0.39621 0.0
O302 O 0.48453 0.41622 0.48706 0.0
O303 O 0.71951 0.48733 0.4561 0.0
O304 O 0.71621 0.54033 0.55288 0.0
O305 O 0.4508 0.40982 0.38366 0.0
O306 O 0.51438 0.48388 0.5657 0.0
O307 O 0.60165 0.54151 0.60996 0.0
C308 C 0.30273 0.51449 0.50252 0.0
C309 C 0.7469 0.65375 0.558 0.0
C310 C 0.81565 0.7096 0.55094 0.0
C311 C 0.89993 0.7138 0.60202 0.0
C312 C 0.83222 0.65855 0.6083 0.0
C313 C 0.90575 0.68891 0.6313 0.0
C314 C 0.73814 0.67935 0.52969 0.0
C315 C 0.52639 0.51259 0.38216 0.0
C316 C 0.65022 0.62735 0.54616 0.0
C317 C 0.2294 0.6784 0.67938 0.0
C318 C 0.19365 0.67245 0.61391 0.0
C319 C 0.77526 0.51455 0.5045 0.0
C320 C 0.3878 0.35942 0.40713 0.0
C321 C 0.33298 0.30673 0.42925 0.0
C322 C 0.29345 0.28899 0.36209 0.0
C323 C 0.347 0.34091 0.34031 0.0
C324 C 0.37984 0.34226 0.45181 0.0
C325 C 0.30012 0.30606 0.31818 0.0
C326 C 0.55716 0.51279 0.61613 0.0
C327 C 0.4432 0.3956 0.42717 0.0
H328 H 0.96101 0.73661 0.62013 0.0
H329 H 0.83709 0.63999 0.63265 0.0
H330 H 0.96651 0.69342 0.67284 0.0
H331 H 0.66602 0.67682 0.49448 0.0
H332 H 0.25894 0.26155 0.34308 0.0
H333 H 0.35235 0.35317 0.30449 0.0
H334 H 0.41015 0.35638 0.50351 0.0
H335 H 0.27002 0.29204 0.26648 0.0
C336 C 0.39646 0.74125 0.00548 0.0
C337 C 0.3004 0.73877 0.0453 0.0
C338 C 0.38659 0.76201 0.96725 0.0
C339 C 0.28023 0.78109 0.96718 0.0
H340 H 0.48065 0.72758 0.00476 0.0
H341 H 0.46337 0.76337 0.9379 0.0
S342 S 0.99999 0.78138 0.05928 0.0
N343 N 0.09356 0.75569 0.07957 0.0
N344 N 0.07555 0.79483 0.00847 0.0
C345 C 0.18341 0.77858 0.00641 0.0
C346 C 0.19327 0.75735 0.04505 0.0
C347 C 0.68925 0.2756 0.98462 0.0
C348 C 0.79145 0.2801 0.95105 0.0
C349 C 0.69265 0.25364 0.02055 0.0
C350 C 0.79858 0.23546 0.0249 0.0
H351 H 0.60535 0.28866 0.98217 0.0
H352 H 0.61124 0.25082 0.04512 0.0
S353 S 0.09286 0.24016 0.94916 0.0
N354 N 1.00282 0.26568 0.92635 0.0
N355 N 1.00951 0.22464 0.99418 0.0
C356 C 0.90163 0.2399 0.99178 0.0
C357 C 0.89805 0.26222 0.95505 0.0
C358 C 0.21579 0.2466 0.51193 0.0
C359 C 0.31437 0.24402 0.55026 0.0
C360 C 0.22165 0.26781 0.47467 0.0
C361 C 0.32643 0.28714 0.47402 0.0
H362 H 0.13283 0.2326 0.51156 0.0
H363 H 0.14331 0.26909 0.44607 0.0
S364 S 0.6115 0.28763 0.56308 0.0
N365 N 0.52122 0.26142 0.58341 0.0
N366 N 0.53224 0.30126 0.51344 0.0
C367 C 0.42569 0.28468 0.51201 0.0
C368 C 0.41974 0.26305 0.54988 0.0
C369 C 0.8151 0.80262 0.5447 0.0
C370 C 0.79245 0.79461 0.47643 0.0
C371 C 0.82007 0.77511 0.56812 0.0
C372 C 0.80455 0.73821 0.52417 0.0
H373 H 0.82751 0.83049 0.58066 0.0
H374 H 0.83524 0.78305 0.62153 0.0
S375 S 0.74508 0.70297 0.33986 0.0
N376 N 0.75544 0.74726 0.36471 0.0
N377 N 0.76629 0.69544 0.4082 0.0
C378 C 0.78142 0.72987 0.45558 0.0
C379 C 0.77544 0.75803 0.43188 0.0
C380 C 0.47096 0.98742 0.02767 0.0
C381 C 0.40683 1.01017 0.00386 0.0
C382 C 0.59795 0.9859 0.02696 0.0
C383 C 0.66655 1.00737 0.00313 0.0
H384 H 0.42291 0.97094 0.04803 0.0
H385 H 0.64258 0.96871 0.04721 0.0
S386 S 0.54648 0.06719 0.92616 0.0
N387 N 0.42556 0.05111 0.94804 0.0
N388 N 0.66167 0.04964 0.95015 0.0
C389 C 0.60423 0.02929 0.97752 0.0
C390 C 0.47548 0.03032 0.97694 0.0
C391 C 0.4982 1.0053 0.55238 0.0
C392 C 0.43067 0.01928 0.51355 0.0
C393 C 0.62479 1.00411 0.54954 0.0
C394 C 0.68837 0.01769 0.50906 0.0
H395 H 0.45312 0.99497 0.58485 0.0
H396 H 0.67333 0.99286 0.57979 0.0
S397 S 0.55378 0.05697 0.39784 0.0
N398 N 0.43701 0.04676 0.43333 0.0
N399 N 0.67392 0.04504 0.42873 0.0
C400 C 0.62185 0.03202 0.47061 0.0
C401 C 0.49328 0.03273 0.47275 0.0
C402 C 0.98018 0.48813 0.02179 0.0
C403 C 0.91349 0.50966 0.99642 0.0
C404 C 0.10712 0.48717 0.02026 0.0
C405 C 0.17372 0.50776 0.99343 0.0
H406 H 0.93413 0.4721 0.04387 0.0
H407 H 0.15321 0.47071 0.04157 0.0
S408 S 1.04438 0.56472 0.91231 0.0
N409 N 0.92609 0.54895 0.93703 0.0
N410 N 0.16207 0.54833 0.93661 0.0
C411 C 0.10819 0.52868 0.96656 0.0
C412 C 0.97928 0.5293 0.96735 0.0
C413 C 0.10191 0.4895 0.45166 0.0
C414 C 0.16857 0.51551 0.5046 0.0
C415 C 0.97582 0.48989 0.45158 0.0
C416 C 0.90978 0.5157 0.50516 0.0
H417 H 0.1473 0.46884 0.40904 0.0
H418 H 0.9302 0.46989 0.40848 0.0
S419 S 1.04098 0.59046 0.6559 0.0
N420 N 0.15842 0.56834 0.61186 0.0
N421 N 0.92242 0.56897 0.61218 0.0
C422 C 0.9754 0.5422 0.55824 0.0
C423 C 0.10411 0.54204 0.55793 0.0
C424 C 0.93885 0.01944 0.29606 0.0
C425 C 0.04845 0.0175 0.32671 0.0
C426 C 0.93603 0.01932 0.23145 0.0
C427 C 1.04241 0.01583 0.19478 0.0
H428 H 0.85508 0.02165 0.32268 0.0
H429 H 0.85016 0.021 0.20935 0.0
S430 S 0.35117 1.00743 0.25103 0.0
N431 N 0.2649 1.01106 0.31522 0.0
N432 N 0.2597 1.0094 0.19271 0.0
C433 C 0.15219 0.01305 0.22435 0.0
C434 C 0.15521 0.01423 0.2907 0.0
C435 C 1.00528 0.03624 0.81077 0.0
C436 C 0.06242 1.00812 0.8222 0.0
C437 C 1.00999 0.038 0.74778 0.0
C438 C 0.07177 1.01178 0.69289 0.0
H439 H 0.95498 0.05712 0.85062 0.0
H440 H 0.9608 0.0595 0.74176 0.0
S441 S 0.23307 0.9314 0.69462 0.0
N442 N 0.1845 0.95332 0.77263 0.0
N443 N 0.1859 0.95542 0.65364 0.0
C444 C 0.12736 0.98304 0.70315 0.0
C445 C 0.12524 0.98166 0.76788 0.0
C446 C 0.63503 0.51282 0.28254 0.0
C447 C 0.52597 0.51093 0.31323 0.0
C448 C 0.63721 0.51122 0.21695 0.0
C449 C 0.53006 0.50946 0.18148 0.0
H450 H 0.71922 0.51497 0.30901 0.0
H451 H 0.72297 0.51245 0.19455 0.0
S452 S 0.22177 0.50316 0.23893 0.0
N453 N 0.30888 0.50504 0.30193 0.0
N454 N 0.31265 0.5054 0.18081 0.0
C455 C 0.42054 0.50778 0.21166 0.0
C456 C 0.4186 0.50762 0.27708 0.0
C457 C 0.64588 0.49578 0.7054 0.0
C458 C 0.55502 0.51302 0.68422 0.0
C459 C 0.64114 0.49446 0.76895 0.0
C460 C 0.54668 0.51106 0.81421 0.0
H461 H 0.72174 0.48346 0.67318 0.0
H462 H 0.71275 0.48068 0.78295 0.0
S463 S 0.29105 0.56193 0.78373 0.0
N464 N 0.36999 0.54769 0.71333 0.0
N465 N 0.3631 0.54703 0.83386 0.0
C466 C 0.45747 0.52951 0.79416 0.0
C467 C 0.46122 0.53007 0.72895 0.0
loop_
_geom_bond_atom_site_label_1
_geom_bond_atom_site_label_2
_geom_bond_distance
_geom_bond_site_symmetry_2
_ccdc_geom_bond_type
Eu0 N29 2.600 . S
Eu0 N35 2.562 . S
Eu0 O44 2.462 1_655 S
Eu0 O45 2.373 . S
Eu0 O47 2.432 1_655 S
Eu0 O48 2.291 1_556 S
Eu0 O52 2.335 1_655 S
Eu0 O55 2.372 1_655 S
Eu0 C64 2.787 1_655 S
C1 N2 1.365 . S
C1 C4 1.405 . S
C1 C8 1.448 . S
N2 C1 1.365 . S
N2 C5 1.319 . S
N2 Eu11 2.600 . S
C3 C5 1.397 . S
C3 C6 1.367 . S
C3 H23 0.931 . S
C4 C1 1.405 . S
C4 C6 1.403 . S
C4 C10 1.439 . S
C5 N2 1.319 . S
C5 C3 1.397 . S
C5 H16 0.930 . S
C6 C3 1.367 . S
C6 C4 1.403 . S
C6 H27 0.929 . S
C7 C8 1.430 . S
C7 C9 1.387 . S
C7 C13 1.416 . S
C8 C1 1.448 . S
C8 C7 1.430 . S
C8 N12 1.351 . S
C9 C7 1.387 . S
C9 C10 1.374 . S
C9 H24 0.931 . S
C10 C4 1.439 . S
C10 C9 1.374 . S
C10 H25 0.931 . S
Eu11 N2 2.600 . S
Eu11 N12 2.562 . S
Eu11 O46 2.335 1_455 S
Eu11 O49 2.372 1_455 S
Eu11 O50 2.462 1_455 S
Eu11 O51 2.373 . S
Eu11 O53 2.432 1_455 S
Eu11 O54 2.291 1_554 S
Eu11 C75 2.787 1_455 S
N12 C8 1.351 . S
N12 Eu11 2.562 . S
N12 C14 1.325 1_554 S
C13 C7 1.416 . S
C13 C15 1.359 1_554 S
C13 H21 0.926 1_554 S
C14 N12 1.325 1_556 S
C14 C15 1.416 . S
C14 H20 0.929 . S
C15 C13 1.359 1_556 S
C15 C14 1.416 . S
C15 H17 0.930 . S
H16 C5 0.930 . S
H17 C15 0.930 . S
H18 C33 0.930 . S
H19 C40 0.930 . S
H20 C14 0.929 . S
H21 C13 0.926 1_556 S
H22 C36 0.929 . S
H23 C3 0.931 . S
H24 C9 0.931 . S
H25 C10 0.931 . S
H26 C31 0.931 . S
H27 C6 0.929 . S
H28 C39 0.931 1_554 S
N29 Eu0 2.600 . S
N29 C30 1.365 . S
N29 C33 1.319 . S
C30 N29 1.365 . S
C30 C32 1.405 . S
C30 C38 1.448 . S
C31 H26 0.931 . S
C31 C33 1.397 . S
C31 C34 1.367 . S
C32 C30 1.405 . S
C32 C34 1.403 . S
C32 C65 1.439 . S
C33 H18 0.930 . S
C33 N29 1.319 . S
C33 C31 1.397 . S
C34 C31 1.367 . S
C34 C32 1.403 . S
C34 H41 0.929 . S
N35 Eu0 2.562 . S
N35 C36 1.325 1_556 S
N35 C38 1.351 . S
C36 H22 0.929 . S
C36 N35 1.325 1_554 S
C36 C40 1.416 . S
C37 C38 1.430 . S
C37 C39 1.404 . S
C37 C66 1.387 . S
C38 C30 1.448 . S
C38 N35 1.351 . S
C38 C37 1.430 . S
C39 H28 0.931 1_556 S
C39 C37 1.404 . S
C39 C40 1.366 1_556 S
C40 H19 0.930 . S
C40 C36 1.416 . S
C40 C39 1.366 1_554 S
H41 C34 0.929 . S
H42 C65 0.931 . S
H43 C66 0.931 . S
O44 Eu0 2.462 1_455 S
O44 C64 1.252 . S
O45 Eu0 2.373 . S
O45 C56 1.249 1_565 S
O46 Eu11 2.335 1_655 S
O46 C56 1.264 1_554 S
O47 Eu0 2.432 1_455 S
O47 C64 1.268 . S
O48 Eu0 2.291 1_554 S
O48 C63 1.255 1_565 S
O49 Eu11 2.372 1_655 S
O49 C63 1.257 . S
O50 Eu11 2.462 1_655 S
O50 C75 1.252 . S
O51 Eu11 2.373 . S
O51 C67 1.249 1_545 S
O52 Eu0 2.335 1_455 S
O52 C67 1.264 1_556 S
O53 Eu11 2.432 1_655 S
O53 C75 1.268 . S
O54 Eu11 2.291 1_556 S
O54 C74 1.255 1_545 S
O55 Eu0 2.372 1_455 S
O55 C74 1.257 . S
C56 O45 1.249 1_545 S
C56 O46 1.264 1_556 S
C57 C60 1.382 . S
C57 C62 1.390 . S
C57 C64 1.506 . S
C58 C59 1.398 . S
C58 C62 1.392 . S
C59 C58 1.398 . S
C59 C61 1.372 . S
C59 H76 0.931 . S
C60 C57 1.382 . S
C60 C61 1.390 . S
C60 H77 0.931 . S
C61 C59 1.372 . S
C61 C60 1.390 . S
C61 H78 0.929 . S
C62 C57 1.390 . S
C62 C58 1.392 . S
C62 H79 0.930 1_556 S
C63 O48 1.255 1_545 S
C63 O49 1.257 . S
C64 Eu0 2.787 1_455 S
C64 O44 1.252 . S
C64 O47 1.268 . S
C64 C57 1.506 . S
C65 C32 1.439 . S
C65 H42 0.931 . S
C65 C66 1.374 . S
C66 C37 1.387 . S
C66 H43 0.931 . S
C66 C65 1.374 . S
C67 O51 1.249 1_565 S
C67 O52 1.264 1_554 S
C68 C71 1.382 . S
C68 C72 1.390 . S
C68 C75 1.506 . S
C69 C70 1.398 . S
C69 C72 1.392 . S
C70 C69 1.398 . S
C70 C73 1.372 . S
C70 H80 0.931 . S
C71 C68 1.382 . S
C71 C73 1.390 . S
C71 H81 0.931 . S
C72 C68 1.390 . S
C72 C69 1.392 . S
C72 H82 0.930 1_554 S
C73 C70 1.372 . S
C73 C71 1.390 . S
C73 H83 0.929 . S
C74 O54 1.255 1_565 S
C74 O55 1.257 . S
C75 Eu11 2.787 1_655 S
C75 O50 1.252 . S
C75 O53 1.268 . S
C75 C68 1.506 . S
H76 C59 0.931 . S
H77 C60 0.931 . S
H78 C61 0.929 . S
H79 C62 0.930 1_554 S
H80 C70 0.931 . S
H81 C71 0.931 . S
H82 C72 0.930 1_556 S
H83 C73 0.929 . S
Eu84 N113 2.600 . S
Eu84 N119 2.562 . S
Eu84 O128 2.462 1_655 S
Eu84 O129 2.373 . S
Eu84 O131 2.432 1_655 S
Eu84 O132 2.291 . S
Eu84 O136 2.335 1_655 S
Eu84 O139 2.372 1_655 S
Eu84 C148 2.787 1_655 S
C85 N86 1.365 . S
C85 C88 1.405 . S
C85 C92 1.448 . S
N86 C85 1.365 . S
N86 C89 1.319 . S
N86 Eu95 2.600 . S
C87 C89 1.397 . S
C87 C90 1.367 . S
C87 H107 0.931 . S
C88 C85 1.405 . S
C88 C90 1.403 . S
C88 C94 1.439 . S
C89 N86 1.319 . S
C89 C87 1.397 . S
C89 H100 0.930 . S
C90 C87 1.367 . S
C90 C88 1.403 . S
C90 H111 0.929 . S
C91 C92 1.430 . S
C91 C93 1.387 . S
C91 C97 1.404 . S
C92 C85 1.448 . S
C92 C91 1.430 . S
C92 N96 1.351 . S
C93 C91 1.387 . S
C93 C94 1.374 . S
C93 H108 0.931 . S
C94 C88 1.439 . S
C94 C93 1.374 . S
C94 H109 0.931 . S
Eu95 N86 2.600 . S
Eu95 N96 2.562 . S
Eu95 O130 2.335 1_455 S
Eu95 O133 2.372 1_455 S
Eu95 O134 2.462 1_455 S
Eu95 O135 2.373 . S
Eu95 O137 2.432 1_455 S
Eu95 O138 2.291 . S
Eu95 C159 2.787 1_455 S
N96 C92 1.351 . S
N96 Eu95 2.562 . S
N96 C98 1.325 . S
C97 C91 1.404 . S
C97 C99 1.366 . S
C97 H105 0.930 . S
C98 N96 1.325 . S
C98 C99 1.416 . S
C98 H104 0.929 . S
C99 C97 1.366 . S
C99 C98 1.416 . S
C99 H101 0.930 . S
H100 C89 0.930 . S
H101 C99 0.930 . S
H102 C117 0.930 . S
H103 C124 0.930 . S
H104 C98 0.929 . S
H105 C97 0.930 . S
H106 C120 0.929 . S
H107 C87 0.931 . S
H108 C93 0.931 . S
H109 C94 0.931 . S
H110 C115 0.931 . S
H111 C90 0.929 . S
H112 C123 0.930 . S
N113 Eu84 2.600 . S
N113 C114 1.365 . S
N113 C117 1.319 . S
C114 N113 1.365 . S
C114 C116 1.405 . S
C114 C122 1.448 . S
C115 H110 0.931 . S
C115 C117 1.397 . S
C115 C118 1.367 . S
C116 C114 1.405 . S
C116 C118 1.403 . S
C116 C149 1.439 . S
C117 H102 0.930 . S
C117 N113 1.319 . S
C117 C115 1.397 . S
C118 C115 1.367 . S
C118 C116 1.403 . S
C118 H125 0.929 . S
N119 Eu84 2.562 . S
N119 C120 1.325 . S
N119 C122 1.351 . S
C120 H106 0.929 . S
C120 N119 1.325 . S
C120 C124 1.416 . S
C121 C122 1.430 . S
C121 C123 1.404 . S
C121 C150 1.387 . S
C122 C114 1.448 . S
C122 N119 1.351 . S
C122 C121 1.430 . S
C123 H112 0.930 . S
C123 C121 1.404 . S
C123 C124 1.366 . S
C124 H103 0.930 . S
C124 C120 1.416 . S
C124 C123 1.366 . S
H125 C118 0.929 . S
H126 C149 0.931 . S
H127 C150 0.931 . S
O128 Eu84 2.462 1_455 S
O128 C148 1.252 . S
O129 Eu84 2.373 . S
O129 C140 1.249 1_545 S
O130 Eu95 2.335 1_655 S
O130 C140 1.264 . S
O131 Eu84 2.432 1_455 S
O131 C148 1.268 . S
O132 Eu84 2.291 . S
O132 C147 1.255 1_545 S
O133 Eu95 2.372 1_655 S
O133 C147 1.257 . S
O134 Eu95 2.462 1_655 S
O134 C159 1.252 . S
O135 Eu95 2.373 . S
O135 C151 1.249 1_565 S
O136 Eu84 2.335 1_455 S
O136 C151 1.264 . S
O137 Eu95 2.432 1_655 S
O137 C159 1.268 . S
O138 Eu95 2.291 . S
O138 C158 1.255 1_565 S
O139 Eu84 2.372 1_455 S
O139 C158 1.257 . S
C140 O129 1.249 1_565 S
C140 O130 1.264 . S
C141 C144 1.382 . S
C141 C146 1.390 . S
C141 C148 1.506 . S
C142 C143 1.398 . S
C142 C146 1.392 . S
C143 C142 1.398 . S
C143 C145 1.372 . S
C143 H160 0.931 . S
C144 C141 1.382 . S
C144 C145 1.390 . S
C144 H161 0.931 . S
C145 C143 1.372 . S
C145 C144 1.390 . S
C145 H162 0.929 . S
C146 C141 1.390 . S
C146 C142 1.392 . S
C146 H163 0.930 . S
C147 O132 1.255 1_565 S
C147 O133 1.257 . S
C148 Eu84 2.787 1_455 S
C148 O128 1.252 . S
C148 O131 1.268 . S
C148 C141 1.506 . S
C149 C116 1.439 . S
C149 H126 0.931 . S
C149 C150 1.374 . S
C150 C121 1.387 . S
C150 H127 0.931 . S
C150 C149 1.374 . S
C151 O135 1.249 1_545 S
C151 O136 1.264 . S
C152 C155 1.382 . S
C152 C156 1.390 . S
C152 C159 1.506 . S
C153 C154 1.398 . S
C153 C156 1.392 . S
C154 C153 1.398 . S
C154 C157 1.372 . S
C154 H164 0.931 . S
C155 C152 1.382 . S
C155 C157 1.390 . S
C155 H165 0.931 . S
C156 C152 1.390 . S
C156 C153 1.392 . S
C156 H166 0.930 . S
C157 C154 1.372 . S
C157 C155 1.390 . S
C157 H167 0.929 . S
C158 O138 1.255 1_545 S
C158 O139 1.257 . S
C159 Eu95 2.787 1_655 S
C159 O134 1.252 . S
C159 O137 1.268 . S
C159 C152 1.506 . S
H160 C143 0.931 . S
H161 C144 0.931 . S
H162 C145 0.929 . S
H163 C146 0.930 . S
H164 C154 0.931 . S
H165 C155 0.931 . S
H166 C156 0.930 . S
H167 C157 0.929 . S
Eu168 N197 2.600 . S
Eu168 N203 2.562 . S
Eu168 O212 2.462 . S
Eu168 O213 2.373 . S
Eu168 O215 2.432 . S
Eu168 O216 2.291 1_556 S
Eu168 O220 2.335 . S
Eu168 O223 2.372 . S
Eu168 C232 2.787 . S
C169 N170 1.365 . S
C169 C172 1.405 . S
C169 C176 1.448 . S
N170 C169 1.365 . S
N170 C173 1.319 . S
N170 Eu179 2.600 . S
C171 C173 1.397 . S
C171 C174 1.367 . S
C171 H191 0.931 . S
C172 C169 1.405 . S
C172 C174 1.403 . S
C172 C178 1.439 . S
C173 N170 1.319 . S
C173 C171 1.397 . S
C173 H184 0.930 . S
C174 C171 1.367 . S
C174 C172 1.403 . S
C174 H195 0.929 . S
C175 C176 1.430 . S
C175 C177 1.387 . S
C175 C181 1.414 . S
C176 C169 1.448 . S
C176 C175 1.430 . S
C176 N180 1.351 . S
C177 C175 1.387 . S
C177 C178 1.374 . S
C177 H192 0.931 . S
C178 C172 1.439 . S
C178 C177 1.374 . S
C178 H193 0.931 . S
Eu179 N170 2.600 . S
Eu179 N180 2.562 . S
Eu179 O214 2.335 . S
Eu179 O217 2.372 . S
Eu179 O218 2.462 . S
Eu179 O219 2.373 . S
Eu179 O221 2.432 . S
Eu179 O222 2.291 1_554 S
Eu179 C243 2.787 . S
N180 C176 1.351 . S
N180 Eu179 2.562 . S
N180 C182 1.325 1_554 S
C181 C175 1.414 . S
C181 C183 1.360 1_554 S
C181 H189 0.926 1_554 S
C182 N180 1.325 1_556 S
C182 C183 1.416 . S
C182 H188 0.929 . S
C183 C181 1.360 1_556 S
C183 C182 1.416 . S
C183 H185 0.930 . S
H184 C173 0.930 . S
H185 C183 0.930 . S
H186 C201 0.930 . S
H187 C208 0.930 . S
H188 C182 0.929 . S
H189 C181 0.926 1_556 S
H190 C204 0.929 . S
H191 C171 0.931 . S
H192 C177 0.931 . S
H193 C178 0.931 . S
H194 C199 0.931 . S
H195 C174 0.929 . S
H196 C207 0.930 1_554 S
N197 Eu168 2.600 . S
N197 C198 1.365 . S
N197 C201 1.319 . S
C198 N197 1.365 . S
C198 C200 1.405 . S
C198 C206 1.448 . S
C199 H194 0.931 . S
C199 C201 1.397 . S
C199 C202 1.367 . S
C200 C198 1.405 . S
C200 C202 1.403 . S
C200 C233 1.439 . S
C201 H186 0.930 . S
C201 N197 1.319 . S
C201 C199 1.397 . S
C202 C199 1.367 . S
C202 C200 1.403 . S
C202 H209 0.929 . S
N203 Eu168 2.562 . S
N203 C204 1.325 1_556 S
N203 C206 1.351 . S
C204 H190 0.929 . S
C204 N203 1.325 1_554 S
C204 C208 1.416 . S
C205 C206 1.430 . S
C205 C207 1.405 . S
C205 C234 1.387 . S
C206 C198 1.448 . S
C206 N203 1.351 . S
C206 C205 1.430 . S
C207 H196 0.930 1_556 S
C207 C205 1.405 . S
C207 C208 1.365 1_556 S
C208 H187 0.930 . S
C208 C204 1.416 . S
C208 C207 1.365 1_554 S
H209 C202 0.929 . S
H210 C233 0.931 . S
H211 C234 0.931 . S
O212 Eu168 2.462 . S
O212 C232 1.252 . S
O213 Eu168 2.373 . S
O213 C224 1.249 . S
O214 Eu179 2.335 . S
O214 C224 1.264 1_554 S
O215 Eu168 2.432 . S
O215 C232 1.268 . S
O216 Eu168 2.291 1_554 S
O216 C231 1.255 . S
O217 Eu179 2.372 . S
O217 C231 1.257 . S
O218 Eu179 2.462 . S
O218 C243 1.252 . S
O219 Eu179 2.373 . S
O219 C235 1.249 . S
O220 Eu168 2.335 . S
O220 C235 1.264 1_556 S
O221 Eu179 2.432 . S
O221 C243 1.268 . S
O222 Eu179 2.291 1_556 S
O222 C242 1.255 . S
O223 Eu168 2.372 . S
O223 C242 1.257 . S
C224 O213 1.249 . S
C224 O214 1.264 1_556 S
C225 C228 1.382 . S
C225 C230 1.390 . S
C225 C232 1.506 . S
C226 C227 1.398 . S
C226 C230 1.392 . S
C227 C226 1.398 . S
C227 C229 1.372 . S
C227 H244 0.931 . S
C228 C225 1.382 . S
C228 C229 1.390 . S
C228 H245 0.931 . S
C229 C227 1.372 . S
C229 C228 1.390 . S
C229 H246 0.929 . S
C230 C225 1.390 . S
C230 C226 1.392 . S
C230 H247 0.930 1_556 S
C231 O216 1.255 . S
C231 O217 1.257 . S
C232 Eu168 2.787 . S
C232 O212 1.252 . S
C232 O215 1.268 . S
C232 C225 1.506 . S
C233 C200 1.439 . S
C233 H210 0.931 . S
C233 C234 1.374 . S
C234 C205 1.387 . S
C234 H211 0.931 . S
C234 C233 1.374 . S
C235 O219 1.249 . S
C235 O220 1.264 1_554 S
C236 C239 1.382 . S
C236 C240 1.390 . S
C236 C243 1.506 . S
C237 C238 1.398 . S
C237 C240 1.392 . S
C238 C237 1.398 . S
C238 C241 1.372 . S
C238 H248 0.931 . S
C239 C236 1.382 . S
C239 C241 1.390 . S
C239 H249 0.931 . S
C240 C236 1.390 . S
C240 C237 1.392 . S
C240 H250 0.930 1_554 S
C241 C238 1.372 . S
C241 C239 1.390 . S
C241 H251 0.929 . S
C242 O222 1.255 . S
C242 O223 1.257 . S
C243 Eu179 2.787 . S
C243 O218 1.252 . S
C243 O221 1.268 . S
C243 C236 1.506 . S
H244 C227 0.931 . S
H245 C228 0.931 . S
H246 C229 0.929 . S
H247 C230 0.930 1_554 S
H248 C238 0.931 . S
H249 C239 0.931 . S
H250 C240 0.930 1_556 S
H251 C241 0.929 . S
Eu252 N281 2.600 . S
Eu252 N287 2.562 . S
Eu252 O296 2.462 . S
Eu252 O297 2.373 . S
Eu252 O299 2.432 . S
Eu252 O300 2.291 . S
Eu252 O304 2.335 . S
Eu252 O307 2.372 . S
Eu252 C316 2.787 . S
C253 N254 1.365 . S
C253 C256 1.405 . S
C253 C260 1.448 . S
N254 C253 1.365 . S
N254 C257 1.319 . S
N254 Eu263 2.600 . S
C255 C257 1.397 . S
C255 C258 1.367 . S
C255 H275 0.931 . S
C256 C253 1.405 . S
C256 C258 1.403 . S
C256 C262 1.439 . S
C257 N254 1.319 . S
C257 C255 1.397 . S
C257 H268 0.930 . S
C258 C255 1.367 . S
C258 C256 1.403 . S
C258 H279 0.929 . S
C259 C260 1.430 . S
C259 C261 1.387 . S
C259 C265 1.404 . S
C260 C253 1.448 . S
C260 C259 1.430 . S
C260 N264 1.351 . S
C261 C259 1.387 . S
C261 C262 1.374 . S
C261 H276 0.931 . S
C262 C256 1.439 . S
C262 C261 1.374 . S
C262 H277 0.931 . S
Eu263 N254 2.600 . S
Eu263 N264 2.562 . S
Eu263 O298 2.335 . S
Eu263 O301 2.372 . S
Eu263 O302 2.462 . S
Eu263 O303 2.373 . S
Eu263 O305 2.432 . S
Eu263 O306 2.291 . S
Eu263 C327 2.787 . S
N264 C260 1.351 . S
N264 Eu263 2.562 . S
N264 C266 1.325 . S
C265 C259 1.404 . S
C265 C267 1.366 . S
C265 H273 0.930 . S
C266 N264 1.325 . S
C266 C267 1.416 . S
C266 H272 0.929 . S
C267 C265 1.366 . S
C267 C266 1.416 . S
C267 H269 0.930 . S
H268 C257 0.930 . S
H269 C267 0.930 . S
H270 C285 0.930 . S
H271 C292 0.930 . S
H272 C266 0.929 . S
H273 C265 0.930 . S
H274 C288 0.929 . S
H275 C255 0.931 . S
H276 C261 0.931 . S
H277 C262 0.931 . S
H278 C283 0.931 . S
H279 C258 0.929 . S
H280 C291 0.930 . S
N281 Eu252 2.600 . S
N281 C282 1.365 . S
N281 C285 1.319 . S
C282 N281 1.365 . S
C282 C284 1.405 . S
C282 C290 1.448 . S
C283 H278 0.931 . S
C283 C285 1.397 . S
C283 C286 1.367 . S
C284 C282 1.405 . S
C284 C286 1.403 . S
C284 C317 1.439 . S
C285 H270 0.930 . S
C285 N281 1.319 . S
C285 C283 1.397 . S
C286 C283 1.367 . S
C286 C284 1.403 . S
C286 H293 0.929 . S
N287 Eu252 2.562 . S
N287 C288 1.325 . S
N287 C290 1.351 . S
C288 H274 0.929 . S
C288 N287 1.325 . S
C288 C292 1.416 . S
C289 C290 1.430 . S
C289 C291 1.404 . S
C289 C318 1.387 . S
C290 C282 1.448 . S
C290 N287 1.351 . S
C290 C289 1.430 . S
C291 H280 0.930 . S
C291 C289 1.404 . S
C291 C292 1.366 . S
C292 H271 0.930 . S
C292 C288 1.416 . S
C292 C291 1.366 . S
H293 C286 0.929 . S
H294 C317 0.931 . S
H295 C318 0.931 . S
O296 Eu252 2.462 . S
O296 C316 1.252 . S
O297 Eu252 2.373 . S
O297 C308 1.249 . S
O298 Eu263 2.335 . S
O298 C308 1.264 . S
O299 Eu252 2.432 . S
O299 C316 1.268 . S
O300 Eu252 2.291 . S
O300 C315 1.255 . S
O301 Eu263 2.372 . S
O301 C315 1.257 . S
O302 Eu263 2.462 . S
O302 C327 1.252 . S
O303 Eu263 2.373 . S
O303 C319 1.249 . S
O304 Eu252 2.335 . S
O304 C319 1.264 . S
O305 Eu263 2.432 . S
O305 C327 1.268 . S
O306 Eu263 2.291 . S
O306 C326 1.255 . S
O307 Eu252 2.372 . S
O307 C326 1.257 . S
C308 O297 1.249 . S
C308 O298 1.264 . S
C309 C312 1.382 . S
C309 C314 1.390 . S
C309 C316 1.506 . S
C310 C311 1.398 . S
C310 C314 1.392 . S
C311 C310 1.398 . S
C311 C313 1.372 . S
C311 H328 0.931 . S
C312 C309 1.382 . S
C312 C313 1.390 . S
C312 H329 0.931 . S
C313 C311 1.372 . S
C313 C312 1.390 . S
C313 H330 0.929 . S
C314 C309 1.390 . S
C314 C310 1.392 . S
C314 H331 0.930 . S
C315 O300 1.255 . S
C315 O301 1.257 . S
C316 Eu252 2.787 . S
C316 O296 1.252 . S
C316 O299 1.268 . S
C316 C309 1.506 . S
C317 C284 1.439 . S
C317 H294 0.931 . S
C317 C318 1.374 . S
C318 C289 1.387 . S
C318 H295 0.931 . S
C318 C317 1.374 . S
C319 O303 1.249 . S
C319 O304 1.264 . S
C320 C323 1.382 . S
C320 C324 1.390 . S
C320 C327 1.506 . S
C321 C322 1.398 . S
C321 C324 1.392 . S
C322 C321 1.398 . S
C322 C325 1.372 . S
C322 H332 0.931 . S
C323 C320 1.382 . S
C323 C325 1.390 . S
C323 H333 0.931 . S
C324 C320 1.390 . S
C324 C321 1.392 . S
C324 H334 0.930 . S
C325 C322 1.372 . S
C325 C323 1.390 . S
C325 H335 0.929 . S
C326 O306 1.255 . S
C326 O307 1.257 . S
C327 Eu263 2.787 . S
C327 O302 1.252 . S
C327 O305 1.268 . S
C327 C320 1.506 . S
H328 C311 0.931 . S
H329 C312 0.931 . S
H330 C313 0.929 . S
H331 C314 0.930 . S
H332 C322 0.931 . S
H333 C323 0.931 . S
H334 C324 0.930 . S
H335 C325 0.929 . S
C336 C337 1.369 . S
C336 C338 1.419 . S
C336 H340 0.930 . S
C337 C336 1.369 . S
C337 C346 1.429 1_556 S
C338 C336 1.419 . S
C338 C339 1.363 1_556 S
C338 H341 0.929 . S
C339 C338 1.363 1_554 S
C339 C345 1.428 . S
H340 C336 0.930 . S
H341 C338 0.929 . S
S342 N343 1.613 . S
S342 N344 1.610 . S
N343 S342 1.613 . S
N343 C346 1.350 . S
N344 S342 1.610 . S
N344 C345 1.351 . S
C345 C339 1.428 . S
C345 N344 1.351 . S
C345 C346 1.434 . S
C346 C337 1.429 1_554 S
C346 N343 1.350 . S
C346 C345 1.434 . S
C347 C348 1.369 . S
C347 C349 1.419 . S
C347 H351 0.930 . S
C348 C347 1.369 . S
C348 C357 1.429 1_554 S
C349 C347 1.419 . S
C349 C350 1.363 1_554 S
C349 H352 0.929 . S
C350 C349 1.363 1_556 S
C350 C356 1.428 . S
H351 C347 0.930 . S
H352 C349 0.929 . S
S353 N354 1.613 . S
S353 N355 1.610 . S
N354 S353 1.613 . S
N354 C357 1.350 . S
N355 S353 1.610 . S
N355 C356 1.351 . S
C356 C350 1.428 . S
C356 N355 1.351 . S
C356 C357 1.434 . S
C357 C348 1.429 1_556 S
C357 N354 1.350 . S
C357 C356 1.434 . S
C358 C359 1.369 . S
C358 C360 1.419 . S
C358 H362 0.930 . S
C359 C358 1.369 . S
C359 C368 1.429 . S
C360 C358 1.419 . S
C360 C361 1.363 . S
C360 H363 0.929 . S
C361 C360 1.363 . S
C361 C367 1.428 . S
H362 C358 0.930 . S
H363 C360 0.929 . S
S364 N365 1.613 . S
S364 N366 1.610 . S
N365 S364 1.613 . S
N365 C368 1.350 . S
N366 S364 1.610 . S
N366 C367 1.351 . S
C367 C361 1.428 . S
C367 N366 1.351 . S
C367 C368 1.434 . S
C368 C359 1.429 . S
C368 N365 1.350 . S
C368 C367 1.434 . S
C369 C370 1.369 . S
C369 C371 1.419 . S
C369 H373 0.930 . S
C370 C369 1.369 . S
C370 C379 1.429 . S
C371 C369 1.419 . S
C371 C372 1.363 . S
C371 H374 0.929 . S
C372 C371 1.363 . S
C372 C378 1.428 . S
H373 C369 0.930 . S
H374 C371 0.929 . S
S375 N376 1.613 . S
S375 N377 1.610 . S
N376 S375 1.613 . S
N376 C379 1.350 . S
N377 S375 1.610 . S
N377 C378 1.351 . S
C378 C372 1.428 . S
C378 N377 1.351 . S
C378 C379 1.434 . S
C379 C370 1.429 . S
C379 N376 1.350 . S
C379 C378 1.434 . S
C380 C381 1.369 1_554 S
C380 C382 1.419 . S
C380 H384 0.930 . S
C381 C380 1.369 1_556 S
C381 C390 1.429 1_565 S
C382 C380 1.419 . S
C382 C383 1.372 1_565 S
C382 H385 0.929 . S
C383 C382 1.372 1_545 S
C383 C389 1.420 1_554 S
H384 C380 0.930 . S
H385 C382 0.929 . S
S386 N387 1.613 . S
S386 N388 1.610 . S
N387 S386 1.613 . S
N387 C390 1.350 . S
N388 S386 1.610 . S
N388 C389 1.351 . S
C389 C383 1.420 1_556 S
C389 N388 1.351 . S
C389 C390 1.434 . S
C390 C381 1.429 1_545 S
C390 N387 1.350 . S
C390 C389 1.434 . S
C391 C392 1.369 1_565 S
C391 C393 1.419 . S
C391 H395 0.930 . S
C392 C391 1.369 1_545 S
C392 C401 1.429 . S
C393 C391 1.419 . S
C393 C394 1.363 . S
C393 H396 0.929 . S
C394 C393 1.363 . S
C394 C400 1.428 1_565 S
H395 C391 0.930 . S
H396 C393 0.929 . S
S397 N398 1.613 . S
S397 N399 1.610 . S
N398 S397 1.613 . S
N398 C401 1.350 . S
N399 S397 1.610 . S
N399 C400 1.351 . S
C400 C394 1.428 1_545 S
C400 N399 1.351 . S
C400 C401 1.434 . S
C401 C392 1.429 . S
C401 N398 1.350 . S
C401 C400 1.434 . S
C402 C403 1.365 . S
C402 C404 1.419 1_655 S
C402 H406 0.930 . S
C403 C402 1.365 . S
C403 C412 1.434 1_556 S
C404 C402 1.419 1_455 S
C404 C405 1.363 1_556 S
C404 H407 0.929 . S
C405 C404 1.363 1_554 S
C405 C411 1.428 . S
H406 C402 0.930 . S
H407 C404 0.929 . S
S408 N409 1.613 . S
S408 N410 1.610 1_655 S
N409 S408 1.613 . S
N409 C412 1.350 . S
N410 S408 1.610 1_455 S
N410 C411 1.351 . S
C411 C405 1.428 . S
C411 N410 1.351 . S
C411 C412 1.434 1_455 S
C412 C403 1.434 1_554 S
C412 N409 1.350 . S
C412 C411 1.434 1_655 S
C413 C414 1.369 . S
C413 C415 1.419 1_455 S
C413 H417 0.930 . S
C414 C413 1.369 . S
C414 C423 1.429 . S
C415 C413 1.419 1_655 S
C415 C416 1.363 . S
C415 H418 0.929 . S
C416 C415 1.363 . S
C416 C422 1.428 . S
H417 C413 0.930 . S
H418 C415 0.929 . S
S419 N420 1.613 . S
S419 N421 1.610 1_455 S
N420 S419 1.613 . S
N420 C423 1.350 . S
N421 S419 1.610 1_655 S
N421 C422 1.351 . S
C422 C416 1.428 . S
C422 N421 1.351 . S
C422 C423 1.434 1_655 S
C423 C414 1.429 . S
C423 N420 1.350 . S
C423 C422 1.434 1_455 S
C424 C425 1.374 . S
C424 C426 1.419 . S
C424 H428 0.930 . S
C425 C424 1.374 . S
C425 C434 1.423 1_645 S
C426 C424 1.419 . S
C426 C427 1.367 . S
C426 H429 0.929 . S
C427 C426 1.367 . S
C427 C433 1.418 1_645 S
H428 C424 0.930 . S
H429 C426 0.929 . S
S430 N431 1.613 . S
S430 N432 1.610 . S
N431 S430 1.613 . S
N431 C434 1.350 . S
N432 S430 1.610 . S
N432 C433 1.351 . S
C433 C427 1.418 1_465 S
C433 N432 1.351 . S
C433 C434 1.434 . S
C434 C425 1.423 1_465 S
C434 N431 1.350 . S
C434 C433 1.434 . S
C435 C436 1.369 . S
C435 C437 1.419 . S
C435 H439 0.930 . S
C436 C435 1.369 . S
C436 C445 1.429 1_445 S
C437 C435 1.419 . S
C437 C438 1.366 . S
C437 H440 0.929 . S
C438 C437 1.366 . S
C438 C444 1.423 1_445 S
H439 C435 0.930 . S
H440 C437 0.929 . S
S441 N442 1.613 . S
S441 N443 1.610 . S
N442 S441 1.613 . S
N442 C445 1.350 . S
N443 S441 1.610 . S
N443 C444 1.351 . S
C444 C438 1.423 1_665 S
C444 N443 1.351 . S
C444 C445 1.434 . S
C445 C436 1.429 1_665 S
C445 N442 1.350 . S
C445 C444 1.434 . S
C446 C447 1.369 . S
C446 C448 1.419 . S
C446 H450 0.930 . S
C447 C446 1.369 . S
C447 C456 1.429 . S
C448 C446 1.419 . S
C448 C449 1.363 . S
C448 H451 0.929 . S
C449 C448 1.363 . S
C449 C455 1.428 . S
H450 C446 0.930 . S
H451 C448 0.929 . S
S452 N453 1.613 . S
S452 N454 1.610 . S
N453 S452 1.613 . S
N453 C456 1.350 . S
N454 S452 1.610 . S
N454 C455 1.351 . S
C455 C449 1.428 . S
C455 N454 1.351 . S
C455 C456 1.434 . S
C456 C447 1.429 . S
C456 N453 1.350 . S
C456 C455 1.434 . S
C457 C458 1.369 . S
C457 C459 1.419 . S
C457 H461 0.930 . S
C458 C457 1.369 . S
C458 C467 1.429 . S
C459 C457 1.419 . S
C459 C460 1.363 . S
C459 H462 0.929 . S
C460 C459 1.363 . S
C460 C466 1.428 . S
H461 C457 0.930 . S
H462 C459 0.929 . S
S463 N464 1.613 . S
S463 N465 1.610 . S
N464 S463 1.613 . S
N464 C467 1.350 . S
N465 S463 1.610 . S
N465 C466 1.351 . S
C466 C460 1.428 . S
C466 N465 1.351 . S
C466 C467 1.434 . S
C467 C458 1.429 . S
C467 N464 1.350 . S
C467 C466 1.434 . S
C337 C237 1.469 1_556 S
C339 C58 1.472 1_554 S
C348 C226 1.465 1_554 S
C350 C69 1.475 1_556 S
C359 C142 1.464 . S
C361 C321 1.475 . S
C370 C153 1.465 . S
C372 C310 1.475 . S
C381 C67 1.994 1_556 S
C383 C56 1.993 1_554 S
C392 C151 1.993 . S
C394 C140 1.995 . S
C403 C235 1.992 1_556 S
C405 C224 1.995 1_554 S
C414 C308 1.993 . S
C416 C319 1.995 . S
C425 C147 1.482 1_545 S
C427 C63 1.490 . S
C436 C74 1.477 1_545 S
C438 C158 1.484 . S
C447 C315 1.477 . S
C449 C231 1.481 . S
C458 C326 1.477 . S
C460 C242 1.481 . S
