# Generated by pormake.
# Topology wkj, (6)-cn, num edge types: 1
# Building blocks:
#     Node 0, Type 0, BuildingBlock: LEVNOQ01_clean_sbu_1, # of connection points: 6
#     Node 1, Type 0, BuildingBlock: LEVNOQ01_clean_sbu_1, # of connection points: 6
#     Node 2, Type 0, BuildingBlock: LEVNOQ01_clean_sbu_1, # of connection points: 6
#     Node 3, Type 0, BuildingBlock: LEVNOQ01_clean_sbu_1, # of connection points: 6
#     Node 4, Type 0, BuildingBlock: LEVNOQ01_clean_sbu_1, # of connection points: 6
#     Node 5, Type 0, BuildingBlock: LEVNOQ01_clean_sbu_1, # of connection points: 6
#     Node 6, Type 0, BuildingBlock: LEVNOQ01_clean_sbu_1, # of connection points: 6
#     Node 7, Type 0, BuildingBlock: LEVNOQ01_clean_sbu_1, # of connection points: 6
#     Node 8, Type 0, BuildingBlock: LEVNOQ01_clean_sbu_1, # of connection points: 6
#     Node 9, Type 0, BuildingBlock: LEVNOQ01_clean_sbu_1, # of connection points: 6
#     Node 10, Type 0, BuildingBlock: LEVNOQ01_clean_sbu_1, # of connection points: 6
#     Node 11, Type 0, BuildingBlock: LEVNOQ01_clean_sbu_1, # of connection points: 6
#     Edge 12, Type (0, 0), BuildingBlock: AJUNOK_clean_linker_0, # of connection points: 2
#     Edge 13, Type (0, 0), BuildingBlock: AJUNOK_clean_linker_0, # of connection points: 2
#     Edge 14, Type (0, 0), BuildingBlock: AJUNOK_clean_linker_0, # of connection points: 2
#     Edge 15, Type (0, 0), BuildingBlock: AJUNOK_clean_linker_0, # of connection points: 2
#     Edge 16, Type (0, 0), BuildingBlock: AJUNOK_clean_linker_0, # of connection points: 2
#     Edge 17, Type (0, 0), BuildingBlock: AJUNOK_clean_linker_0, # of connection points: 2
#     Edge 18, Type (0, 0), BuildingBlock: AJUNOK_clean_linker_0, # of connection points: 2
#     Edge 19, Type (0, 0), BuildingBlock: AJUNOK_clean_linker_0, # of connection points: 2
#     Edge 20, Type (0, 0), BuildingBlock: AJUNOK_clean_linker_0, # of connection points: 2
#     Edge 21, Type (0, 0), BuildingBlock: AJUNOK_clean_linker_0, # of connection points: 2
#     Edge 22, Type (0, 0), BuildingBlock: AJUNOK_clean_linker_0, # of connection points: 2
#     Edge 23, Type (0, 0), BuildingBlock: AJUNOK_clean_linker_0, # of connection points: 2
#     Edge 24, Type (0, 0), BuildingBlock: AJUNOK_clean_linker_0, # of connection points: 2
#     Edge 25, Type (0, 0), BuildingBlock: AJUNOK_clean_linker_0, # of connection points: 2
#     Edge 26, Type (0, 0), BuildingBlock: AJUNOK_clean_linker_0, # of connection points: 2
#     Edge 27, Type (0, 0), BuildingBlock: AJUNOK_clean_linker_0, # of connection points: 2
#     Edge 28, Type (0, 0), BuildingBlock: AJUNOK_clean_linker_0, # of connection points: 2
#     Edge 29, Type (0, 0), BuildingBlock: AJUNOK_clean_linker_0, # of connection points: 2
#     Edge 30, Type (0, 0), BuildingBlock: AJUNOK_clean_linker_0, # of connection points: 2
#     Edge 31, Type (0, 0), BuildingBlock: AJUNOK_clean_linker_0, # of connection points: 2
#     Edge 32, Type (0, 0), BuildingBlock: AJUNOK_clean_linker_0, # of connection points: 2
#     Edge 33, Type (0, 0), BuildingBlock: AJUNOK_clean_linker_0, # of connection points: 2
#     Edge 34, Type (0, 0), BuildingBlock: AJUNOK_clean_linker_0, # of connection points: 2
#     Edge 35, Type (0, 0), BuildingBlock: AJUNOK_clean_linker_0, # of connection points: 2
#     Edge 36, Type (0, 0), BuildingBlock: AJUNOK_clean_linker_0, # of connection points: 2
#     Edge 37, Type (0, 0), BuildingBlock: AJUNOK_clean_linker_0, # of connection points: 2
#     Edge 38, Type (0, 0), BuildingBlock: AJUNOK_clean_linker_0, # of connection points: 2
#     Edge 39, Type (0, 0), BuildingBlock: AJUNOK_clean_linker_0, # of connection points: 2
#     Edge 40, Type (0, 0), BuildingBlock: AJUNOK_clean_linker_0, # of connection points: 2
#     Edge 41, Type (0, 0), BuildingBlock: AJUNOK_clean_linker_0, # of connection points: 2
#     Edge 42, Type (0, 0), BuildingBlock: AJUNOK_clean_linker_0, # of connection points: 2
#     Edge 43, Type (0, 0), BuildingBlock: AJUNOK_clean_linker_0, # of connection points: 2
#     Edge 44, Type (0, 0), BuildingBlock: AJUNOK_clean_linker_0, # of connection points: 2
#     Edge 45, Type (0, 0), BuildingBlock: AJUNOK_clean_linker_0, # of connection points: 2
#     Edge 46, Type (0, 0), BuildingBlock: AJUNOK_clean_linker_0, # of connection points: 2
#     Edge 47, Type (0, 0), BuildingBlock: AJUNOK_clean_linker_0, # of connection points: 2
# Relax obj value: 0.508
# Max RMSD: 0.240
# Mean RMSD: 0.240
data_MOF--net-wkj--node1-LEVNOQ01_clean_sbu_1--edge1-AJUNOK_clean_linker_0
_symmetry_space_group_name_H-M    P1
_symmetry_Int_Tables_number       1
_symmetry_cell_setting            triclinic
loop_
_symmetry_equiv_pos_as_xyz
'x, y, z'
_cell_length_a     39.291779
_cell_length_b     39.545391
_cell_length_c     17.863172
_cell_angle_alpha  89.37586
_cell_angle_beta   90.095346
_cell_angle_gamma 120.18222
loop_
_atom_site_label
_atom_site_type_symbol
_atom_site_fract_x
_atom_site_fract_y
_atom_site_fract_z
_atom_type_partial_charge
O0 O 0.45215 0.12489 0.46793 0.0
Mg1 Mg 0.40261 0.1221 0.41778 0.0
O2 O 0.47273 0.10299 0.3735 0.0
Mg3 Mg 0.42332 0.0778 0.28392 0.0
O4 O 0.41501 0.1288 0.30819 0.0
O5 O 0.40422 0.17048 0.3742 0.0
O6 O 0.37135 0.04926 0.19335 0.0
O7 O 0.47062 0.11239 0.18003 0.0
Mg8 Mg 0.44396 0.02454 0.17007 0.0
O9 O 0.43203 0.02774 0.27557 0.0
O10 O 0.39147 0.01704 0.11973 0.0
O11 O 0.49894 0.0767 0.16937 0.0
O12 O 0.44243 -0.01885 0.23837 0.0
C13 C 0.35076 0.04052 0.41756 0.0
C14 C 0.47724 0.11763 0.43896 0.0
C15 C 0.41085 0.15893 0.31147 0.0
C16 C 0.36644 0.02715 0.13706 0.0
C17 C 0.49826 0.10735 0.15254 0.0
C18 C 0.43725 -0.00069 0.2926 0.0
O19 O 0.34861 0.07102 0.42583 0.0
O20 O 0.37764 0.04065 0.3772 0.0
O21 O 0.30907 0.46348 0.79455 0.0
Mg22 Mg 0.26005 0.41466 0.74856 0.0
O23 O 0.34452 0.48231 0.68906 0.0
Mg24 Mg 0.3128 0.43204 0.60401 0.0
O25 O 0.25407 0.42774 0.64239 0.0
O26 O 0.21089 0.4171 0.73656 0.0
O27 O 0.2852 0.37676 0.517 0.0
O28 O 0.32555 0.48421 0.5078 0.0
Mg29 Mg 0.37718 0.4438 0.46542 0.0
O30 O 0.36701 0.43571 0.57436 0.0
O31 O 0.32706 0.3965 0.41959 0.0
O32 O 0.38202 0.49837 0.45049 0.0
O33 O 0.41869 0.43659 0.52966 0.0
C34 C 0.28469 0.36101 0.7435 0.0
C35 C 0.33903 0.48786 0.75728 0.0
C36 C 0.22162 0.42505 0.66729 0.0
C37 C 0.29611 0.37059 0.45245 0.0
C38 C 0.35563 0.50682 0.4652 0.0
C39 C 0.39826 0.43483 0.58749 0.0
O40 O 0.25215 0.3589 0.75554 0.0
O41 O 0.30939 0.38718 0.69817 0.0
O42 O 0.76654 0.30614 0.07323 0.0
Mg43 Mg 0.80426 0.28362 0.06235 0.0
O44 O 0.82338 0.35221 0.03081 0.0
Mg45 Mg 0.85078 0.32877 0.94437 0.0
O46 O 0.8026 0.26268 0.95783 0.0
O47 O 0.77349 0.22648 0.06396 0.0
O48 O 0.88281 0.31199 0.84773 0.0
O49 O 0.81246 0.34303 0.85163 0.0
Mg50 Mg 0.90767 0.40758 0.83854 0.0
O51 O 0.89797 0.38974 0.94461 0.0
O52 O 0.92347 0.36892 0.78994 0.0
O53 O 0.85453 0.40303 0.80727 0.0
O54 O 0.94237 0.44978 0.91648 0.0
C55 C 0.88585 0.30987 0.10121 0.0
C56 C 0.79114 0.34187 0.06541 0.0
C57 C 0.77997 0.22955 0.99285 0.0
C58 C 0.91004 0.33244 0.79924 0.0
C59 C 0.81982 0.37424 0.8138 0.0
C60 C 0.92466 0.42327 0.96724 0.0
O61 O 0.85306 0.29923 0.13224 0.0
O62 O 0.89052 0.31929 0.0318 0.0
O63 O 0.46693 0.81017 0.48297 0.0
Mg64 Mg 0.51903 0.82206 0.42861 0.0
O65 O 0.45363 0.84013 0.39214 0.0
Mg66 Mg 0.49819 0.86367 0.29329 0.0
O67 O 0.50979 0.81303 0.31625 0.0
O68 O 0.52492 0.77725 0.39499 0.0
O69 O 0.54242 0.89398 0.18461 0.0
O70 O 0.44275 0.82548 0.21105 0.0
Mg71 Mg 0.47973 0.91819 0.18172 0.0
O72 O 0.48657 0.91068 0.29107 0.0
O73 O 0.54186 0.94991 0.17968 0.0
O74 O 0.46164 0.86743 0.11646 0.0
O75 O 0.43437 0.91106 0.25931 0.0
C76 C 0.57383 0.90581 0.42162 0.0
C77 C 0.4451 0.82197 0.45489 0.0
C78 C 0.51633 0.78443 0.32908 0.0
C79 C 0.55689 0.92957 0.15935 0.0
C80 C 0.43852 0.83376 0.143 0.0
C81 C 0.45528 0.90942 0.31265 0.0
O82 O 0.56992 0.87469 0.45032 0.0
O83 O 0.55035 0.90485 0.37107 0.0
O84 O 0.61843 0.47651 0.79656 0.0
Mg85 Mg 0.66415 0.53019 0.75823 0.0
O86 O 0.57944 0.46854 0.69929 0.0
Mg87 Mg 0.60893 0.5148 0.60345 0.0
O88 O 0.66843 0.5264 0.64715 0.0
O89 O 0.71633 0.53615 0.72874 0.0
O90 O 0.63445 0.56338 0.50286 0.0
O91 O 0.59835 0.46075 0.51533 0.0
Mg92 Mg 0.54189 0.48924 0.47111 0.0
O93 O 0.55281 0.5088 0.57371 0.0
O94 O 0.59193 0.5307 0.41118 0.0
O95 O 0.53462 0.43383 0.49135 0.0
O96 O 0.49979 0.50076 0.51821 0.0
C97 C 0.63384 0.58448 0.74109 0.0
C98 C 0.58591 0.45765 0.76288 0.0
C99 C 0.70362 0.53344 0.66116 0.0
C100 C 0.62255 0.56097 0.43446 0.0
C101 C 0.56565 0.43179 0.48986 0.0
C102 C 0.51916 0.50591 0.57937 0.0
O103 O 0.66011 0.58016 0.77338 0.0
O104 O 0.61361 0.56275 0.68665 0.0
O105 O 0.09559 0.62307 0.1294 0.0
Mg106 Mg 0.09564 0.66621 0.0597 0.0
O107 O 0.09863 0.59294 0.02922 0.0
Mg108 Mg 0.06641 0.60973 0.94195 0.0
O109 O 0.1153 0.67427 0.95024 0.0
O110 O 0.15188 0.70654 0.05081 0.0
O111 O 0.02833 0.62184 0.84714 0.0
O112 O 0.10541 0.59741 0.84945 0.0
Mg113 Mg 0.01228 0.53122 0.83866 0.0
O114 O 0.02013 0.54877 0.947 0.0
O115 O -0.01823 0.56141 0.81353 0.0
O116 O 0.06266 0.55179 0.77287 0.0
O117 O 0.01794 0.49488 0.92069 0.0
C118 C 0.02175 0.64159 0.07191 0.0
C119 C 0.10343 0.59919 0.09896 0.0
C120 C 0.14937 0.69716 0.9812 0.0
C121 C -0.00454 0.59825 0.81413 0.0
C122 C 0.09772 0.57548 0.79146 0.0
C123 C 0.02141 0.51907 0.97131 0.0
O124 O 0.04979 0.67644 0.07759 0.0
O125 O 0.02585 0.61694 0.03225 0.0
O126 O 0.77965 0.46588 0.26813 0.0
Mg127 Mg 0.80281 0.52577 0.2882 0.0
O128 O 0.82122 0.45923 0.34383 0.0
Mg129 Mg 0.84985 0.50793 0.4352 0.0
O130 O 0.80955 0.52966 0.39854 0.0
O131 O 0.77203 0.54883 0.3407 0.0
O132 O 0.88243 0.55724 0.52994 0.0
O133 O 0.80472 0.46195 0.5338 0.0
Mg134 Mg 0.88352 0.47169 0.56289 0.0
O135 O 0.89248 0.48916 0.45767 0.0
O136 O 0.89415 0.5235 0.61792 0.0
O137 O 0.82815 0.42224 0.54611 0.0
O138 O 0.92894 0.46845 0.51271 0.0
C139 C 0.89254 0.56669 0.28032 0.0
C140 C 0.79605 0.44694 0.29042 0.0
C141 C 0.78613 0.54323 0.40173 0.0
C142 C 0.89522 0.55466 0.59526 0.0
C143 C 0.80096 0.42937 0.55894 0.0
C144 C 0.91826 0.47879 0.45241 0.0
O145 O 0.86048 0.561 0.25197 0.0
O146 O 0.89414 0.55083 0.34248 0.0
O147 O 0.29676 0.83049 0.59435 0.0
Mg148 Mg 0.25055 0.83741 0.64189 0.0
O149 O 0.33853 0.8507 0.69053 0.0
Mg150 Mg 0.31989 0.87974 0.77944 0.0
O151 O 0.25849 0.83405 0.75153 0.0
O152 O 0.20475 0.78923 0.69572 0.0
O153 O 0.30256 0.91384 0.87212 0.0
O154 O 0.32925 0.8416 0.87713 0.0
Mg155 Mg 0.39693 0.94096 0.89009 0.0
O156 O 0.38133 0.92191 0.78774 0.0
O157 O 0.36031 0.96504 0.90649 0.0
O158 O 0.37933 0.88693 0.94538 0.0
O159 O 0.44335 0.96022 0.8103 0.0
C160 C 0.28939 0.92165 0.64536 0.0
C161 C 0.32811 0.83551 0.62579 0.0
C162 C 0.22706 0.80059 0.75395 0.0
C163 C 0.3229 0.9473 0.90462 0.0
C164 C 0.35364 0.85146 0.93252 0.0
C165 C 0.41653 0.9384 0.7634 0.0
O166 O 0.25562 0.89218 0.6351 0.0
O167 O 0.31505 0.91999 0.68726 0.0
O168 O 0.43207 0.31522 0.91853 0.0
Mg169 Mg 0.38155 0.26937 0.97265 0.0
O170 O 0.46207 0.35258 1.018 0.0
Mg171 Mg 0.41663 0.33033 0.11419 0.0
O172 O 0.40023 0.26915 0.07688 0.0
O173 O 0.37848 0.218 0.99945 0.0
O174 O 0.36614 0.30924 0.21329 0.0
O175 O 0.46778 0.33575 0.20482 0.0
Mg176 Mg 0.43993 0.40218 0.24415 0.0
O177 O 0.43638 0.3909 0.13616 0.0
O178 O 0.38149 0.36336 0.27846 0.0
O179 O 0.48106 0.38709 0.27733 0.0
O180 O 0.46039 0.45094 0.17212 0.0
C181 C 0.34002 0.30765 0.992 0.0
C182 C 0.4614 0.34417 0.94884 0.0
C183 C 0.39247 0.23405 0.06317 0.0
C184 C 0.3582 0.32746 0.26421 0.0
C185 C 0.48801 0.36053 0.25713 0.0
C186 C 0.45151 0.42682 0.11796 0.0
O187 O 0.33055 0.27228 0.98646 0.0
O188 O 0.37129 0.33152 0.02739 0.0
O189 O 0.13027 0.46594 0.25167 0.0
Mg190 Mg 0.11313 0.40776 0.28925 0.0
O191 O 0.09472 0.47472 0.33811 0.0
Mg192 Mg 0.06417 0.42872 0.42984 0.0
O193 O 0.10533 0.40866 0.40075 0.0
O194 O 0.1521 0.39926 0.35743 0.0
O195 O 0.02709 0.37993 0.52575 0.0
O196 O 0.10772 0.47695 0.5247 0.0
Mg197 Mg 0.01439 0.45888 0.54514 0.0
O198 O 0.02344 0.45001 0.44017 0.0
O199 O -0.01482 0.39821 0.5706 0.0
O200 O 0.06835 0.4895 0.59537 0.0
O201 O 0.00921 0.49472 0.46197 0.0
C202 C 0.02331 0.36196 0.28332 0.0
C203 C 0.11708 0.48635 0.28056 0.0
C204 C 0.13522 0.40525 0.41328 0.0
C205 C -0.00364 0.37313 0.56447 0.0
C206 C 0.10204 0.49487 0.57959 0.0
C207 C 0.01729 0.47633 0.41268 0.0
O208 O 0.05519 0.3651 0.25884 0.0
O209 O 0.02288 0.38271 0.33826 0.0
O210 O 0.6401 0.15355 0.60573 0.0
Mg211 Mg 0.6775 0.13064 0.62826 0.0
O212 O 0.59066 0.10698 0.67212 0.0
Mg213 Mg 0.6058 0.07149 0.75355 0.0
O214 O 0.669 0.11558 0.73875 0.0
O215 O 0.72759 0.1592 0.69335 0.0
O216 O 0.61276 0.03221 0.84312 0.0
O217 O 0.59633 0.10292 0.8658 0.0
Mg218 Mg 0.52836 0.04269 0.82083 0.0
O219 O 0.54474 0.0213 0.73491 0.0
O220 O 0.55457 0.0165 0.89582 0.0
O221 O 0.54889 0.1038 0.81111 0.0
O222 O 0.49166 0.02485 0.7276 0.0
C223 C 0.63642 0.04507 0.59541 0.0
C224 C 0.60416 0.1354 0.62553 0.0
C225 C 0.70529 0.14024 0.7495 0.0
C226 C 0.58609 0.01413 0.89374 0.0
C227 C 0.57072 0.11382 0.86695 0.0
C228 C 0.51582 0.01698 0.69491 0.0
O229 O 0.66299 0.07858 0.57277 0.0
O230 O 0.6164 0.04048 0.65493 0.0
O231 O 0.47829 0.64184 0.9107 0.0
Mg232 Mg 0.53164 0.68729 0.95531 0.0
O233 O 0.45896 0.59865 1.00602 0.0
Mg234 Mg 0.50503 0.61916 0.10018 0.0
O235 O 0.5216 0.67968 0.06525 0.0
O236 O 0.53469 0.73511 1.0086 0.0
O237 O 0.55578 0.63513 0.19505 0.0
O238 O 0.45487 0.61406 0.19394 0.0
Mg239 Mg 0.47402 0.54206 0.22463 0.0
O240 O 0.48835 0.55851 0.11677 0.0
O241 O 0.53336 0.57834 0.259 0.0
O242 O 0.43864 0.56138 0.2657 0.0
O243 O 0.43912 0.50157 0.14169 0.0
C244 C 0.57624 0.64646 0.96222 0.0
C245 C 0.45389 0.60929 0.94108 0.0
C246 C 0.5264 0.71397 0.06853 0.0
C247 C 0.56024 0.6135 0.24483 0.0
C248 C 0.43407 0.58966 0.24717 0.0
C249 C 0.45994 0.52696 0.09147 0.0
O250 O 0.58027 0.67958 0.94628 0.0
O251 O 0.55006 0.62266 1.00897 0.0
C252 C 0.37226 0.16 0.2085 0.0
C253 C 0.40869 0.17668 0.24425 0.0
C254 C 0.36784 0.17795 0.14556 0.0
C255 C 0.39975 0.21283 0.11909 0.0
H256 H 0.34697 0.13377 0.23069 0.0
H257 H 0.33905 0.16574 0.11994 0.0
S258 S 0.50189 0.26482 0.18977 0.0
N259 N 0.47767 0.22723 0.24769 0.0
N260 N 0.46937 0.26166 0.12722 0.0
C261 C 0.43681 0.22875 0.15238 0.0
C262 C 0.44131 0.21037 0.21634 0.0
C263 C 0.15665 0.39838 0.61239 0.0
C264 C 0.19597 0.4287 0.61526 0.0
C265 C 0.13558 0.39201 0.54653 0.0
C266 C 0.15398 0.41594 0.48418 0.0
H267 H 0.14366 0.37725 0.65782 0.0
H268 H 0.10624 0.36676 0.54248 0.0
S269 S 0.25139 0.50614 0.47414 0.0
N270 N 0.24883 0.48818 0.5592 0.0
N271 N 0.20929 0.47561 0.43336 0.0
C272 C 0.19115 0.4493 0.49002 0.0
C273 C 0.21223 0.45604 0.55703 0.0
C274 C 0.76909 0.17478 0.91572 0.0
C275 C 0.75461 0.19702 0.94841 0.0
C276 C 0.75078 0.15296 0.85257 0.0
C277 C 0.71808 0.15349 0.8231 0.0
H278 H 0.79625 0.17691 0.93509 0.0
H279 H 0.76361 0.13796 0.82395 0.0
S280 S 0.67091 0.20845 0.88875 0.0
N281 N 0.70622 0.21804 0.94959 0.0
N282 N 0.6723 0.17773 0.82878 0.0
C283 C 0.70221 0.17388 0.85802 0.0
C284 C 0.72046 0.19557 0.92214 0.0
C285 C 0.54967 0.73822 0.19216 0.0
C286 C 0.52086 0.72776 0.13737 0.0
C287 C 0.54669 0.75471 0.25786 0.0
C288 C 0.51488 0.76075 0.26846 0.0
H289 H 0.57519 0.73506 0.18282 0.0
H290 H 0.57028 0.76472 0.29839 0.0
S291 S 0.42822 0.73021 0.14699 0.0
N292 N 0.45738 0.71899 0.10011 0.0
N293 N 0.45125 0.74972 0.22614 0.0
C294 C 0.48437 0.74747 0.21646 0.0
C295 C 0.48755 0.73097 0.14947 0.0
C296 C 0.73858 0.51089 0.58584 0.0
C297 C 0.72936 0.53976 0.60102 0.0
C298 C 0.75883 0.51358 0.52116 0.0
C299 C 0.77074 0.54548 0.47227 0.0
H300 H 0.72813 0.48519 0.62159 0.0
H301 H 0.76266 0.48927 0.50664 0.0
S302 S 0.7555 0.62987 0.49324 0.0
N303 N 0.73438 0.60185 0.56766 0.0
N304 N 0.77371 0.60733 0.44414 0.0
C305 C 0.76293 0.57538 0.48861 0.0
C306 C 0.74192 0.57246 0.55435 0.0
C307 C 0.19864 0.73357 0.80117 0.0
C308 C 0.21909 0.7738 0.81532 0.0
C309 C 0.18092 0.70711 0.85958 0.0
C310 C 0.18255 0.72076 0.93226 0.0
H311 H 0.19355 0.72267 0.74442 0.0
H312 H 0.16197 0.67649 0.84645 0.0
S313 S 0.2433 0.82262 0.99847 0.0
N314 N 0.24827 0.82564 0.9066 0.0
N315 N 0.21503 0.77559 1.01818 0.0
C316 C 0.20894 0.76024 0.94841 0.0
C317 C 0.22703 0.78717 0.8887 0.0
C318 C 0.57549 0.14091 0.99977 0.0
C319 C 0.55289 0.1181 0.93901 0.0
C320 C 0.55741 0.14259 0.06753 0.0
C321 C 0.51598 0.12228 0.07699 0.0
H322 H 0.60728 0.15634 0.99619 0.0
H323 H 0.57608 0.15771 0.11469 0.0
S324 S 0.44333 0.05545 0.9393 0.0
N325 N 0.48616 0.07262 0.89669 0.0
N326 N 0.45348 0.07766 1.02062 0.0
C327 C 0.4933 0.10075 1.01579 0.0
C328 C 0.51134 0.09802 0.9482 0.0
C329 C 0.36537 0.56112 0.28929 0.0
C330 C 0.40477 0.59208 0.29668 0.0
C331 C 0.34417 0.53641 0.3508 0.0
C332 C 0.36108 0.54222 0.42259 0.0
H333 H 0.35367 0.55132 0.23374 0.0
H334 H 0.31719 0.50935 0.33935 0.0
S335 S 0.45681 0.628 0.47625 0.0
N336 N 0.45393 0.63407 0.38535 0.0
N337 N 0.41543 0.5879 0.4999 0.0
C338 C 0.39658 0.57797 0.43298 0.0
C339 C 0.41765 0.60327 0.3705 0.0
C340 C 0.79462 0.41611 0.76193 0.0
C341 C 0.79047 0.3784 0.76688 0.0
C342 C 0.78862 0.43098 0.69409 0.0
C343 C 0.7785 0.40879 0.62836 0.0
H344 H 0.80835 0.43639 0.80749 0.0
H345 H 0.79852 0.46195 0.69054 0.0
S346 S 0.74871 0.30356 0.61959 0.0
N347 N 0.76399 0.31574 0.70656 0.0
N348 N 0.75269 0.34324 0.57922 0.0
C349 C 0.76608 0.36853 0.6373 0.0
C350 C 0.77226 0.35346 0.70648 0.0
C351 C 0.38044 0.80843 0.96897 0.0
C352 C 0.35509 0.82292 0.98576 0.0
C353 C 0.4028 0.80331 0.0255 0.0
C354 C 0.40079 0.8126 0.10091 0.0
H355 H 0.38739 0.80648 0.91106 0.0
H356 H 0.42591 0.79766 1.00842 0.0
S357 S 0.33336 0.84422 0.17538 0.0
N358 N 0.32482 0.84021 0.0845 0.0
N359 N 0.36613 0.83039 0.18993 0.0
C360 C 0.37096 0.82093 0.11937 0.0
C361 C 0.34842 0.82628 0.06194 0.0
C362 C 0.55729 0.3945 0.29822 0.0
C363 C 0.51972 0.36026 0.30309 0.0
C364 C 0.57826 0.41487 0.36292 0.0
C365 C 0.56266 0.40171 0.43531 0.0
H366 H 0.5673 0.40941 0.24464 0.0
H367 H 0.60329 0.44408 0.35553 0.0
S368 S 0.47288 0.30629 0.47824 0.0
N369 N 0.47421 0.30862 0.38587 0.0
N370 N 0.51249 0.34643 0.50688 0.0
C371 C 0.52945 0.36349 0.44031 0.0
C372 C 0.5085 0.34275 0.37436 0.0
C373 C 0.13735 0.58518 0.67624 0.0
C374 C 0.12741 0.56982 0.7496 0.0
C375 C 0.14093 0.56337 0.61745 0.0
C376 C 0.133 0.52459 0.62904 0.0
H377 H 0.13658 0.61147 0.66184 0.0
H378 H 0.14226 0.57395 0.56071 0.0
S379 S 0.118 0.47586 0.81377 0.0
N380 N 0.11978 0.51752 0.83289 0.0
N381 N 0.12595 0.47697 0.7228 0.0
C382 C 0.13148 0.5128 0.70412 0.0
C383 C 0.12807 0.53496 0.76412 0.0
C384 C 0.29468 0.94572 0.02824 0.0
C385 C 0.30562 0.96368 0.95708 0.0
C386 C 0.30708 0.96837 0.09376 0.0
C387 C 0.33059 0.00954 0.08987 0.0
H388 H 0.28309 0.9145 0.03379 0.0
H389 H 0.30432 0.95337 0.1465 0.0
S390 S 0.35016 0.07005 0.91884 0.0
N391 N 0.32852 0.02465 0.888 0.0
N392 N 0.35146 0.06678 1.01098 0.0
C393 C 0.3328 0.02733 1.02039 0.0
C394 C 0.3203 0.00439 0.95373 0.0
C395 C 0.33038 0.30798 0.39156 0.0
C396 C 0.32286 0.3085 0.31438 0.0
C397 C 0.31083 0.31795 0.44578 0.0
C398 C 0.28448 0.33082 0.42446 0.0
H399 H 0.35581 0.30613 0.40921 0.0
H400 H 0.32274 0.32364 0.50201 0.0
S401 S 0.23996 0.31697 0.23646 0.0
N402 N 0.27596 0.30735 0.22447 0.0
N403 N 0.24037 0.32714 0.32609 0.0
C404 C 0.27004 0.32186 0.35092 0.0
C405 C 0.28943 0.3111 0.29566 0.0
C406 C 0.93335 0.31797 0.60987 0.0
C407 C -0.02516 0.3386 0.61486 0.0
C408 C 0.9095 0.30643 0.67465 0.0
C409 C 0.92639 0.31544 0.74642 0.0
H410 H 0.91955 0.31654 0.55649 0.0
H411 H 0.87849 0.29669 0.66811 0.0
S412 S 0.03213 0.35559 0.78873 0.0
N413 N 0.03056 0.35693 0.69637 0.0
N414 N -0.01398 0.33573 0.81785 0.0
C415 C -0.0331 0.32833 0.75134 0.0
C416 C -0.00887 0.33982 0.6854 0.0
C417 C 0.55505 0.9262 1.02141 0.0
C418 C 0.57774 0.94302 0.08598 0.0
C419 C 0.56048 0.94869 0.95599 0.0
C420 C 0.58983 -0.01151 0.95127 0.0
H421 H 0.52947 0.8971 1.02465 0.0
H422 H 0.53946 0.93566 0.91095 0.0
S423 S 0.66326 0.04397 0.09756 0.0
N424 N 0.63474 0.00045 0.13633 0.0
N425 N 0.6463 0.04172 1.01192 0.0
C426 C 0.61621 0.00408 1.01126 0.0
C427 C 0.60999 -0.01849 0.07875 0.0
C428 C 0.63347 0.58779 0.306 0.0
C429 C 0.63504 0.59545 0.38334 0.0
C430 C 0.61556 0.60151 0.25518 0.0
C431 C 0.59902 0.62402 0.27905 0.0
H432 H 0.63952 0.56542 0.28684 0.0
H433 H 0.60902 0.58912 0.19958 0.0
S434 S 0.61365 0.66822 0.46685 0.0
N435 N 0.63174 0.63856 0.47503 0.0
N436 N 0.59814 0.66441 0.37953 0.0
C437 C 0.60832 0.63881 0.35224 0.0
C438 C 0.62674 0.62483 0.40417 0.0
C439 C 0.93224 0.59402 0.78006 0.0
C440 C -0.02692 0.6116 0.76648 0.0
C441 C 0.90512 0.58316 0.72076 0.0
C442 C 0.9177 0.58867 0.6455 0.0
H443 H 0.92079 0.58333 0.83583 0.0
H444 H 0.87412 0.5645 0.73372 0.0
S445 S 0.02155 0.64621 0.58176 0.0
N446 N 0.02477 0.64409 0.67376 0.0
N447 N -0.026 0.62298 0.56232 0.0
C448 C 0.95838 0.61314 0.63234 0.0
C449 C -0.01395 0.6246 0.69294 0.0
C450 C 0.41292 0.95509 0.3972 0.0
C451 C 0.44371 -0.0094 0.369 0.0
C452 C 0.41895 0.92319 0.40537 0.0
C453 C 0.45554 0.92789 0.38418 0.0
H454 H 0.38291 0.94937 0.39496 0.0
H455 H 0.39321 0.8943 0.40771 0.0
S456 S 0.5491 0.02078 0.36535 0.0
N457 N 0.51454 0.0329 0.3626 0.0
N458 N 0.52602 -0.0266 0.38408 0.0
C459 C 0.48831 0.96572 0.39088 0.0
C460 C 0.48221 -0.00201 0.38018 0.0
C461 C 0.43277 0.48268 0.67813 0.0
C462 C 0.41619 0.44277 0.66168 0.0
C463 C 0.47333 0.50753 0.66789 0.0
C464 C 0.49666 0.4914 0.64815 0.0
H465 H 0.41466 0.49607 0.67583 0.0
H466 H 0.48446 0.53858 0.6602 0.0
S467 S 0.4672 0.38659 0.65816 0.0
N468 N 0.42602 0.38736 0.67188 0.0
N469 N 0.5022 0.43282 0.64922 0.0
C470 C 0.48125 0.45111 0.66055 0.0
C471 C 0.4402 0.42655 0.6724 0.0
C472 C 0.93624 0.46642 0.06849 0.0
C473 C 0.93683 0.43269 0.04586 0.0
C474 C -0.0282 0.50251 0.06748 0.0
C475 C 0.00673 0.50304 0.04713 0.0
H476 H 0.90888 0.46682 0.06633 0.0
H477 H -0.02977 0.52905 0.0641 0.0
S478 S 0.02321 0.4198 0.06385 0.0
N479 N -0.02519 0.39997 0.06 0.0
N480 N 0.04157 0.4676 0.06419 0.0
C481 C 0.00775 0.46897 0.06437 0.0
C482 C -0.02825 0.43257 0.06216 0.0
C483 C -0.00624 0.50223 0.31669 0.0
C484 C -0.00307 0.46974 0.34028 0.0
C485 C -0.03885 0.50456 0.3421 0.0
C486 C 0.93113 0.47233 0.38106 0.0
H487 H 0.02008 0.52933 0.30165 0.0
H488 H -0.03683 0.53289 0.34404 0.0
S489 S 0.91592 0.37258 0.39231 0.0
N490 N -0.04051 0.39926 0.35207 0.0
N491 N 0.89887 0.40254 0.40547 0.0
C492 C 0.9287 0.43598 0.37473 0.0
C493 C -0.03873 0.43429 0.34546 0.0
C494 C 0.45843 0.92391 0.68815 0.0
C495 C 0.42758 0.93241 0.68811 0.0
C496 C 0.49516 0.95157 0.65767 0.0
C497 C 0.5 -0.01222 0.63413 0.0
H498 H 0.45732 0.90183 0.72609 0.0
H499 H 0.52063 0.94931 0.67309 0.0
S500 S 0.42203 0.004 0.5618 0.0
N501 N 0.39912 0.96476 0.61647 0.0
N502 N 0.4686 0.01527 0.55837 0.0
C503 C 0.46672 -0.01443 0.60041 0.0
C504 C 0.42931 0.95846 0.63209 0.0
C505 C 0.49599 0.51001 1.00866 0.0
C506 C 0.46175 0.51258 1.01667 0.0
C507 C 0.49327 0.47387 0.0248 0.0
C508 C 0.45607 0.44109 0.04082 0.0
H509 H 0.52469 0.53613 1.01262 0.0
H510 H 0.51984 0.47358 0.0399 0.0
S511 S 0.36023 0.43175 0.99412 0.0
N512 N 0.39235 0.47902 0.98654 0.0
N513 N 0.3862 0.41057 1.01469 0.0
C514 C 0.42317 0.44198 1.01274 0.0
C515 C 0.42652 0.47892 0.99725 0.0
C516 C 0.29216 0.9433 0.51464 0.0
C517 C 0.30231 0.95332 0.59026 0.0
C518 C 0.30759 -0.02834 0.45794 0.0
C519 C 0.33253 0.01085 0.47587 0.0
H520 H 0.27348 0.91304 0.49876 0.0
H521 H 0.30031 0.96293 0.40014 0.0
S522 S 0.36818 0.05239 0.66398 0.0
N523 N 0.33919 0.00497 0.67952 0.0
N524 N 0.36714 0.05885 0.57271 0.0
C525 C 0.3422 0.02148 0.55106 0.0
C526 C 0.32733 -0.00749 0.60857 0.0
C527 C 0.35151 0.35056 0.88187 0.0
C528 C 0.32478 0.32231 0.9326 0.0
C529 C 0.33849 0.36088 0.8173 0.0
C530 C 0.29813 0.34312 0.80089 0.0
H531 H 0.38285 0.36429 0.89142 0.0
H532 H 0.36022 0.38391 0.78158 0.0
S533 S 0.21642 0.26408 0.91232 0.0
N534 N 0.25656 0.27441 0.95978 0.0
N535 N 0.23157 0.29351 0.83832 0.0
C536 C 0.27112 0.31346 0.84979 0.0
C537 C 0.28454 0.30312 0.91562 0.0
C538 C 0.91695 0.3161 0.22638 0.0
C539 C 0.91909 0.31407 0.14794 0.0
C540 C 0.95005 0.3271 0.27137 0.0
C541 C -0.01325 0.33795 0.23968 0.0
H542 H 0.89006 0.31103 0.2532 0.0
H543 H 0.94742 0.32877 0.3312 0.0
S544 S 0.00374 0.32119 0.04218 0.0
N545 N 0.95762 0.31144 0.04395 0.0
N546 N 0.0203 0.33375 0.12837 0.0
C547 C -0.01225 0.3298 0.16321 0.0
C548 C 0.9538 0.31783 0.11727 0.0
C549 C 0.60657 -0.02657 0.58408 0.0
C550 C 0.6267 0.01059 0.55008 0.0
C551 C 0.59237 0.93975 0.54165 0.0
C552 C 0.59704 0.94192 0.46346 0.0
H553 H 0.60061 0.97022 0.64374 0.0
H554 H 0.57536 0.91174 0.57001 0.0
S555 S 0.65146 0.03197 0.34805 0.0
N556 N 0.65421 0.0478 0.43431 0.0
N557 N 0.62586 -0.0163 0.35391 0.0
C558 C 0.61872 -0.02129 0.42879 0.0
C559 C 0.63409 0.01329 0.47239 0.0
C560 C 0.56779 0.5952 0.87474 0.0
C561 C 0.59301 0.63141 0.90782 0.0
C562 C 0.58018 0.58229 0.81385 0.0
C563 C 0.61846 0.60484 0.78487 0.0
H564 H 0.53787 0.57705 0.89485 0.0
H565 H 0.56037 0.55342 0.79212 0.0
S566 S 0.69478 0.70324 0.84734 0.0
N567 N 0.65686 0.69121 0.90345 0.0
N568 N 0.68096 0.66582 0.79063 0.0
C569 C 0.6437 0.64161 0.81588 0.0
C570 C 0.63077 0.65518 0.87705 0.0
C571 C 0.95256 0.59401 0.10393 0.0
C572 C -0.01163 0.62662 0.12437 0.0
C573 C 0.92236 0.57467 0.15615 0.0
C574 C 0.92695 0.58683 0.23102 0.0
H575 H 0.94809 0.58289 0.04742 0.0
H576 H 0.89512 0.54956 0.13783 0.0
S577 S 0.0147 0.67116 0.31309 0.0
N578 N 0.02669 0.67112 0.22446 0.0
N579 N -0.0306 0.63384 0.32324 0.0
C580 C -0.03765 0.61958 0.25257 0.0
C581 C -0.00687 0.63988 0.19884 0.0
C582 C 0.51105 0.13141 0.56233 0.0
C583 C 0.51179 0.12577 0.48452 0.0
C584 C 0.54229 0.13705 0.6082 0.0
C585 C 0.57566 0.13828 0.57738 0.0
H586 H 0.48559 0.13009 0.58868 0.0
H587 H 0.53987 0.13931 0.66815 0.0
S588 S 0.59295 0.12607 0.37823 0.0
N589 N 0.54926 0.12254 0.37926 0.0
N590 N 0.60808 0.13351 0.46578 0.0
C591 C 0.57737 0.13391 0.49988 0.0
C592 C 0.54538 0.1275 0.4533 0.0
C593 C 0.40217 0.51965 0.82376 0.0
C594 C 0.36953 0.52132 0.7971 0.0
C595 C 0.42957 0.54887 0.86992 0.0
C596 C 0.42421 0.57965 0.89302 0.0
H597 H 0.40584 0.49496 0.81118 0.0
H598 H 0.45506 0.54732 0.888 0.0
S599 S 0.34401 0.59762 0.83702 0.0
N600 N 0.33364 0.55656 0.79468 0.0
N601 N 0.38518 0.61141 0.88388 0.0
C602 C 0.39213 0.58214 0.86586 0.0
C603 C 0.36444 0.55262 0.81777 0.0
C604 C 0.75868 0.37292 0.13452 0.0
C605 C 0.79107 0.36793 0.1223 0.0
C606 C 0.75935 0.39672 0.19287 0.0
C607 C 0.79199 0.41529 0.24141 0.0
H608 H 0.7333 0.35914 0.0981 0.0
H609 H 0.73465 0.40151 0.19871 0.0
S610 S 0.88238 0.40815 0.23097 0.0
N611 N 0.8549 0.38071 0.16284 0.0
N612 N 0.85676 0.4253 0.27271 0.0
C613 C 0.8236 0.40867 0.2307 0.0
C614 C 0.82299 0.38513 0.17086 0.0
C615 C 0.38171 0.82193 0.46354 0.0
C616 C 0.41199 0.8189 0.49921 0.0
C617 C 0.35343 0.8253 0.50514 0.0
C618 C 0.35474 0.82626 0.58386 0.0
H619 H 0.38061 0.82305 0.40299 0.0
H620 H 0.33158 0.8291 0.47513 0.0
S621 S 0.42487 0.8137 0.70415 0.0
N622 N 0.43918 0.81284 0.61778 0.0
N623 N 0.38623 0.81946 0.69598 0.0
C624 C 0.38344 0.82081 0.62024 0.0
C625 C 0.41196 0.81695 0.57788 0.0
C626 C 0.55435 0.39441 0.83301 0.0
C627 C 0.55309 0.42719 0.80551 0.0
C628 C 0.52426 0.36702 0.87982 0.0
C629 C 0.49266 0.37215 0.89988 0.0
H630 H 0.57879 0.39025 0.81887 0.0
H631 H 0.52583 0.34203 0.90082 0.0
S632 S 0.47753 0.45415 0.84577 0.0
N633 N 0.52003 0.46503 0.80719 0.0
N634 N 0.46143 0.41146 0.88824 0.0
C635 C 0.49115 0.40458 0.87226 0.0
C636 C 0.5221 0.43283 0.82688 0.0
C637 C 0.08033 0.51447 0.22378 0.0
C638 C 0.117 0.51747 0.23576 0.0
C639 C 0.0768 0.54209 0.18131 0.0
C640 C 0.10965 0.57267 0.14609 0.0
H641 H 0.05387 0.48963 0.2454 0.0
H642 H 0.04798 0.53896 0.17439 0.0
S643 S 0.21271 0.59436 0.15876 0.0
N644 N 0.18741 0.55423 0.21028 0.0
N645 N 0.18034 0.60568 0.12543 0.0
C646 C 0.14674 0.57627 0.15622 0.0
C647 C 0.15053 0.54848 0.20183 0.0
loop_
_geom_bond_atom_site_label_1
_geom_bond_atom_site_label_2
_geom_bond_distance
_geom_bond_site_symmetry_2
_ccdc_geom_bond_type
O0 Mg1 1.990 . S
O0 C14 1.253 . S
Mg1 O0 1.990 . S
Mg1 O4 2.180 . S
Mg1 O5 2.117 . S
Mg1 O19 2.030 . S
O2 Mg3 2.072 . S
O2 C14 1.260 . S
Mg3 O2 2.072 . S
Mg3 O4 2.099 . S
Mg3 O6 2.079 . S
Mg3 O7 2.072 . S
Mg3 O9 2.099 . S
Mg3 O20 2.079 . S
O4 Mg1 2.180 . S
O4 Mg3 2.099 . S
O4 C15 1.279 . S
O5 Mg1 2.117 . S
O5 C15 1.250 . S
O6 Mg3 2.079 . S
O6 C16 1.264 . S
O7 Mg3 2.072 . S
O7 C17 1.260 . S
Mg8 O9 2.180 . S
Mg8 O10 2.030 . S
Mg8 O11 1.990 . S
Mg8 O12 2.117 . S
O9 Mg3 2.099 . S
O9 Mg8 2.180 . S
O9 C18 1.279 . S
O10 Mg8 2.030 . S
O10 C16 1.248 . S
O11 Mg8 1.990 . S
O11 C17 1.253 . S
O12 Mg8 2.117 . S
O12 C18 1.250 . S
C13 O19 1.248 . S
C13 O20 1.264 . S
C14 O0 1.253 . S
C14 O2 1.260 . S
C15 O4 1.279 . S
C15 O5 1.250 . S
C16 O6 1.264 . S
C16 O10 1.248 . S
C17 O7 1.260 . S
C17 O11 1.253 . S
C18 O9 1.279 . S
C18 O12 1.250 . S
O19 Mg1 2.030 . S
O19 C13 1.248 . S
O20 Mg3 2.079 . S
O20 C13 1.264 . S
O21 Mg22 1.990 . S
O21 C35 1.253 . S
Mg22 O21 1.990 . S
Mg22 O25 2.180 . S
Mg22 O26 2.117 . S
Mg22 O40 2.030 . S
O23 Mg24 2.072 . S
O23 C35 1.260 . S
Mg24 O23 2.072 . S
Mg24 O25 2.099 . S
Mg24 O27 2.079 . S
Mg24 O28 2.072 . S
Mg24 O30 2.099 . S
Mg24 O41 2.079 . S
O25 Mg22 2.180 . S
O25 Mg24 2.099 . S
O25 C36 1.279 . S
O26 Mg22 2.117 . S
O26 C36 1.250 . S
O27 Mg24 2.079 . S
O27 C37 1.264 . S
O28 Mg24 2.072 . S
O28 C38 1.260 . S
Mg29 O30 2.180 . S
Mg29 O31 2.030 . S
Mg29 O32 1.990 . S
Mg29 O33 2.117 . S
O30 Mg24 2.099 . S
O30 Mg29 2.180 . S
O30 C39 1.279 . S
O31 Mg29 2.030 . S
O31 C37 1.248 . S
O32 Mg29 1.990 . S
O32 C38 1.253 . S
O33 Mg29 2.117 . S
O33 C39 1.250 . S
C34 O40 1.248 . S
C34 O41 1.264 . S
C35 O21 1.253 . S
C35 O23 1.260 . S
C36 O25 1.279 . S
C36 O26 1.250 . S
C37 O27 1.264 . S
C37 O31 1.248 . S
C38 O28 1.260 . S
C38 O32 1.253 . S
C39 O30 1.279 . S
C39 O33 1.250 . S
O40 Mg22 2.030 . S
O40 C34 1.248 . S
O41 Mg24 2.079 . S
O41 C34 1.264 . S
O42 Mg43 1.990 . S
O42 C56 1.253 . S
Mg43 O42 1.990 . S
Mg43 O46 2.180 1_554 S
Mg43 O47 2.117 1_554 S
Mg43 O61 2.030 . S
O44 Mg45 2.072 . S
O44 C56 1.260 1_556 S
Mg45 O44 2.072 . S
Mg45 O46 2.099 . S
Mg45 O48 2.079 . S
Mg45 O49 2.072 . S
Mg45 O51 2.099 . S
Mg45 O62 2.079 . S
O46 Mg43 2.180 1_556 S
O46 Mg45 2.099 . S
O46 C57 1.279 . S
O47 Mg43 2.117 1_556 S
O47 C57 1.250 . S
O48 Mg45 2.079 . S
O48 C58 1.264 . S
O49 Mg45 2.072 . S
O49 C59 1.260 . S
Mg50 O51 2.180 . S
Mg50 O52 2.030 . S
Mg50 O53 1.990 . S
Mg50 O54 2.117 . S
O51 Mg45 2.099 . S
O51 Mg50 2.180 . S
O51 C60 1.279 . S
O52 Mg50 2.030 . S
O52 C58 1.248 . S
O53 Mg50 1.990 . S
O53 C59 1.253 . S
O54 Mg50 2.117 . S
O54 C60 1.250 . S
C55 O61 1.248 . S
C55 O62 1.264 1_554 S
C56 O42 1.253 . S
C56 O44 1.260 1_554 S
C57 O46 1.279 . S
C57 O47 1.250 . S
C58 O48 1.264 . S
C58 O52 1.248 . S
C59 O49 1.260 . S
C59 O53 1.253 . S
C60 O51 1.279 . S
C60 O54 1.250 . S
O61 Mg43 2.030 . S
O61 C55 1.248 . S
O62 Mg45 2.079 . S
O62 C55 1.264 1_556 S
O63 Mg64 1.990 . S
O63 C77 1.253 . S
Mg64 O63 1.990 . S
Mg64 O67 2.180 . S
Mg64 O68 2.117 . S
Mg64 O82 2.030 . S
O65 Mg66 2.072 . S
O65 C77 1.260 . S
Mg66 O65 2.072 . S
Mg66 O67 2.099 . S
Mg66 O69 2.079 . S
Mg66 O70 2.072 . S
Mg66 O72 2.099 . S
Mg66 O83 2.079 . S
O67 Mg64 2.180 . S
O67 Mg66 2.099 . S
O67 C78 1.279 . S
O68 Mg64 2.117 . S
O68 C78 1.250 . S
O69 Mg66 2.079 . S
O69 C79 1.264 . S
O70 Mg66 2.072 . S
O70 C80 1.260 . S
Mg71 O72 2.180 . S
Mg71 O73 2.030 . S
Mg71 O74 1.990 . S
Mg71 O75 2.117 . S
O72 Mg66 2.099 . S
O72 Mg71 2.180 . S
O72 C81 1.279 . S
O73 Mg71 2.030 . S
O73 C79 1.248 . S
O74 Mg71 1.990 . S
O74 C80 1.253 . S
O75 Mg71 2.117 . S
O75 C81 1.250 . S
C76 O82 1.248 . S
C76 O83 1.264 . S
C77 O63 1.253 . S
C77 O65 1.260 . S
C78 O67 1.279 . S
C78 O68 1.250 . S
C79 O69 1.264 . S
C79 O73 1.248 . S
C80 O70 1.260 . S
C80 O74 1.253 . S
C81 O72 1.279 . S
C81 O75 1.250 . S
O82 Mg64 2.030 . S
O82 C76 1.248 . S
O83 Mg66 2.079 . S
O83 C76 1.264 . S
O84 Mg85 1.990 . S
O84 C98 1.253 . S
Mg85 O84 1.990 . S
Mg85 O88 2.180 . S
Mg85 O89 2.117 . S
Mg85 O103 2.030 . S
O86 Mg87 2.072 . S
O86 C98 1.260 . S
Mg87 O86 2.072 . S
Mg87 O88 2.099 . S
Mg87 O90 2.079 . S
Mg87 O91 2.072 . S
Mg87 O93 2.099 . S
Mg87 O104 2.079 . S
O88 Mg85 2.180 . S
O88 Mg87 2.099 . S
O88 C99 1.279 . S
O89 Mg85 2.117 . S
O89 C99 1.250 . S
O90 Mg87 2.079 . S
O90 C100 1.264 . S
O91 Mg87 2.072 . S
O91 C101 1.260 . S
Mg92 O93 2.180 . S
Mg92 O94 2.030 . S
Mg92 O95 1.990 . S
Mg92 O96 2.117 . S
O93 Mg87 2.099 . S
O93 Mg92 2.180 . S
O93 C102 1.279 . S
O94 Mg92 2.030 . S
O94 C100 1.248 . S
O95 Mg92 1.990 . S
O95 C101 1.253 . S
O96 Mg92 2.117 . S
O96 C102 1.250 . S
C97 O103 1.248 . S
C97 O104 1.264 . S
C98 O84 1.253 . S
C98 O86 1.260 . S
C99 O88 1.279 . S
C99 O89 1.250 . S
C100 O90 1.264 . S
C100 O94 1.248 . S
C101 O91 1.260 . S
C101 O95 1.253 . S
C102 O93 1.279 . S
C102 O96 1.250 . S
O103 Mg85 2.030 . S
O103 C97 1.248 . S
O104 Mg87 2.079 . S
O104 C97 1.264 . S
O105 Mg106 1.990 . S
O105 C119 1.253 . S
Mg106 O105 1.990 . S
Mg106 O109 2.180 1_554 S
Mg106 O110 2.117 1_554 S
Mg106 O124 2.030 . S
O107 Mg108 2.072 . S
O107 C119 1.260 1_556 S
Mg108 O107 2.072 . S
Mg108 O109 2.099 . S
Mg108 O111 2.079 . S
Mg108 O112 2.072 . S
Mg108 O114 2.099 . S
Mg108 O125 2.079 . S
O109 Mg106 2.180 1_556 S
O109 Mg108 2.099 . S
O109 C120 1.279 . S
O110 Mg106 2.117 1_556 S
O110 C120 1.250 . S
O111 Mg108 2.079 . S
O111 C121 1.264 . S
O112 Mg108 2.072 . S
O112 C122 1.260 . S
Mg113 O114 2.180 . S
Mg113 O115 2.030 . S
Mg113 O116 1.990 . S
Mg113 O117 2.117 . S
O114 Mg108 2.099 . S
O114 Mg113 2.180 . S
O114 C123 1.279 . S
O115 Mg113 2.030 . S
O115 C121 1.248 . S
O116 Mg113 1.990 . S
O116 C122 1.253 . S
O117 Mg113 2.117 . S
O117 C123 1.250 . S
C118 O124 1.248 . S
C118 O125 1.264 1_554 S
C119 O105 1.253 . S
C119 O107 1.260 1_554 S
C120 O109 1.279 . S
C120 O110 1.250 . S
C121 O111 1.264 . S
C121 O115 1.248 . S
C122 O112 1.260 . S
C122 O116 1.253 . S
C123 O114 1.279 . S
C123 O117 1.250 . S
O124 Mg106 2.030 . S
O124 C118 1.248 . S
O125 Mg108 2.079 . S
O125 C118 1.264 1_556 S
O126 Mg127 1.990 . S
O126 C140 1.253 . S
Mg127 O126 1.990 . S
Mg127 O130 2.180 . S
Mg127 O131 2.117 . S
Mg127 O145 2.030 . S
O128 Mg129 2.072 . S
O128 C140 1.260 . S
Mg129 O128 2.072 . S
Mg129 O130 2.099 . S
Mg129 O132 2.079 . S
Mg129 O133 2.072 . S
Mg129 O135 2.099 . S
Mg129 O146 2.079 . S
O130 Mg127 2.180 . S
O130 Mg129 2.099 . S
O130 C141 1.279 . S
O131 Mg127 2.117 . S
O131 C141 1.250 . S
O132 Mg129 2.079 . S
O132 C142 1.264 . S
O133 Mg129 2.072 . S
O133 C143 1.260 . S
Mg134 O135 2.180 . S
Mg134 O136 2.030 . S
Mg134 O137 1.990 . S
Mg134 O138 2.117 . S
O135 Mg129 2.099 . S
O135 Mg134 2.180 . S
O135 C144 1.279 . S
O136 Mg134 2.030 . S
O136 C142 1.248 . S
O137 Mg134 1.990 . S
O137 C143 1.253 . S
O138 Mg134 2.117 . S
O138 C144 1.250 . S
C139 O145 1.248 . S
C139 O146 1.264 . S
C140 O126 1.253 . S
C140 O128 1.260 . S
C141 O130 1.279 . S
C141 O131 1.250 . S
C142 O132 1.264 . S
C142 O136 1.248 . S
C143 O133 1.260 . S
C143 O137 1.253 . S
C144 O135 1.279 . S
C144 O138 1.250 . S
O145 Mg127 2.030 . S
O145 C139 1.248 . S
O146 Mg129 2.079 . S
O146 C139 1.264 . S
O147 Mg148 1.990 . S
O147 C161 1.253 . S
Mg148 O147 1.990 . S
Mg148 O151 2.180 . S
Mg148 O152 2.117 . S
Mg148 O166 2.030 . S
O149 Mg150 2.072 . S
O149 C161 1.260 . S
Mg150 O149 2.072 . S
Mg150 O151 2.099 . S
Mg150 O153 2.079 . S
Mg150 O154 2.072 . S
Mg150 O156 2.099 . S
Mg150 O167 2.079 . S
O151 Mg148 2.180 . S
O151 Mg150 2.099 . S
O151 C162 1.279 . S
O152 Mg148 2.117 . S
O152 C162 1.250 . S
O153 Mg150 2.079 . S
O153 C163 1.264 . S
O154 Mg150 2.072 . S
O154 C164 1.260 . S
Mg155 O156 2.180 . S
Mg155 O157 2.030 . S
Mg155 O158 1.990 . S
Mg155 O159 2.117 . S
O156 Mg150 2.099 . S
O156 Mg155 2.180 . S
O156 C165 1.279 . S
O157 Mg155 2.030 . S
O157 C163 1.248 . S
O158 Mg155 1.990 . S
O158 C164 1.253 . S
O159 Mg155 2.117 . S
O159 C165 1.250 . S
C160 O166 1.248 . S
C160 O167 1.264 . S
C161 O147 1.253 . S
C161 O149 1.260 . S
C162 O151 1.279 . S
C162 O152 1.250 . S
C163 O153 1.264 . S
C163 O157 1.248 . S
C164 O154 1.260 . S
C164 O158 1.253 . S
C165 O156 1.279 . S
C165 O159 1.250 . S
O166 Mg148 2.030 . S
O166 C160 1.248 . S
O167 Mg150 2.079 . S
O167 C160 1.264 . S
O168 Mg169 1.990 . S
O168 C182 1.253 . S
Mg169 O168 1.990 . S
Mg169 O172 2.180 1_556 S
Mg169 O173 2.117 1_556 S
Mg169 O187 2.030 . S
O170 Mg171 2.072 . S
O170 C182 1.260 1_554 S
Mg171 O170 2.072 . S
Mg171 O172 2.099 . S
Mg171 O174 2.079 . S
Mg171 O175 2.072 . S
Mg171 O177 2.099 . S
Mg171 O188 2.079 . S
O172 Mg169 2.180 1_554 S
O172 Mg171 2.099 . S
O172 C183 1.279 . S
O173 Mg169 2.117 1_554 S
O173 C183 1.250 . S
O174 Mg171 2.079 . S
O174 C184 1.264 . S
O175 Mg171 2.072 . S
O175 C185 1.260 . S
Mg176 O177 2.180 . S
Mg176 O178 2.030 . S
Mg176 O179 1.990 . S
Mg176 O180 2.117 . S
O177 Mg171 2.099 . S
O177 Mg176 2.180 . S
O177 C186 1.279 . S
O178 Mg176 2.030 . S
O178 C184 1.248 . S
O179 Mg176 1.990 . S
O179 C185 1.253 . S
O180 Mg176 2.117 . S
O180 C186 1.250 . S
C181 O187 1.248 . S
C181 O188 1.264 1_556 S
C182 O168 1.253 . S
C182 O170 1.260 1_556 S
C183 O172 1.279 . S
C183 O173 1.250 . S
C184 O174 1.264 . S
C184 O178 1.248 . S
C185 O175 1.260 . S
C185 O179 1.253 . S
C186 O177 1.279 . S
C186 O180 1.250 . S
O187 Mg169 2.030 . S
O187 C181 1.248 . S
O188 Mg171 2.079 . S
O188 C181 1.264 1_554 S
O189 Mg190 1.990 . S
O189 C203 1.253 . S
Mg190 O189 1.990 . S
Mg190 O193 2.180 . S
Mg190 O194 2.117 . S
Mg190 O208 2.030 . S
O191 Mg192 2.072 . S
O191 C203 1.260 . S
Mg192 O191 2.072 . S
Mg192 O193 2.099 . S
Mg192 O195 2.079 . S
Mg192 O196 2.072 . S
Mg192 O198 2.099 . S
Mg192 O209 2.079 . S
O193 Mg190 2.180 . S
O193 Mg192 2.099 . S
O193 C204 1.279 . S
O194 Mg190 2.117 . S
O194 C204 1.250 . S
O195 Mg192 2.079 . S
O195 C205 1.264 . S
O196 Mg192 2.072 . S
O196 C206 1.260 . S
Mg197 O198 2.180 . S
Mg197 O199 2.030 . S
Mg197 O200 1.990 . S
Mg197 O201 2.117 . S
O198 Mg192 2.099 . S
O198 Mg197 2.180 . S
O198 C207 1.279 . S
O199 Mg197 2.030 . S
O199 C205 1.248 . S
O200 Mg197 1.990 . S
O200 C206 1.253 . S
O201 Mg197 2.117 . S
O201 C207 1.250 . S
C202 O208 1.248 . S
C202 O209 1.264 . S
C203 O189 1.253 . S
C203 O191 1.260 . S
C204 O193 1.279 . S
C204 O194 1.250 . S
C205 O195 1.264 . S
C205 O199 1.248 . S
C206 O196 1.260 . S
C206 O200 1.253 . S
C207 O198 1.279 . S
C207 O201 1.250 . S
O208 Mg190 2.030 . S
O208 C202 1.248 . S
O209 Mg192 2.079 . S
O209 C202 1.264 . S
O210 Mg211 1.990 . S
O210 C224 1.253 . S
Mg211 O210 1.990 . S
Mg211 O214 2.180 . S
Mg211 O215 2.117 . S
Mg211 O229 2.030 . S
O212 Mg213 2.072 . S
O212 C224 1.260 . S
Mg213 O212 2.072 . S
Mg213 O214 2.099 . S
Mg213 O216 2.079 . S
Mg213 O217 2.072 . S
Mg213 O219 2.099 . S
Mg213 O230 2.079 . S
O214 Mg211 2.180 . S
O214 Mg213 2.099 . S
O214 C225 1.279 . S
O215 Mg211 2.117 . S
O215 C225 1.250 . S
O216 Mg213 2.079 . S
O216 C226 1.264 . S
O217 Mg213 2.072 . S
O217 C227 1.260 . S
Mg218 O219 2.180 . S
Mg218 O220 2.030 . S
Mg218 O221 1.990 . S
Mg218 O222 2.117 . S
O219 Mg213 2.099 . S
O219 Mg218 2.180 . S
O219 C228 1.279 . S
O220 Mg218 2.030 . S
O220 C226 1.248 . S
O221 Mg218 1.990 . S
O221 C227 1.253 . S
O222 Mg218 2.117 . S
O222 C228 1.250 . S
C223 O229 1.248 . S
C223 O230 1.264 . S
C224 O210 1.253 . S
C224 O212 1.260 . S
C225 O214 1.279 . S
C225 O215 1.250 . S
C226 O216 1.264 . S
C226 O220 1.248 . S
C227 O217 1.260 . S
C227 O221 1.253 . S
C228 O219 1.279 . S
C228 O222 1.250 . S
O229 Mg211 2.030 . S
O229 C223 1.248 . S
O230 Mg213 2.079 . S
O230 C223 1.264 . S
O231 Mg232 1.990 . S
O231 C245 1.253 . S
Mg232 O231 1.990 . S
Mg232 O235 2.180 1_556 S
Mg232 O236 2.117 1_556 S
Mg232 O250 2.030 . S
O233 Mg234 2.072 . S
O233 C245 1.260 1_554 S
Mg234 O233 2.072 . S
Mg234 O235 2.099 . S
Mg234 O237 2.079 . S
Mg234 O238 2.072 . S
Mg234 O240 2.099 . S
Mg234 O251 2.079 . S
O235 Mg232 2.180 1_554 S
O235 Mg234 2.099 . S
O235 C246 1.279 . S
O236 Mg232 2.117 1_554 S
O236 C246 1.250 . S
O237 Mg234 2.079 . S
O237 C247 1.264 . S
O238 Mg234 2.072 . S
O238 C248 1.260 . S
Mg239 O240 2.180 . S
Mg239 O241 2.030 . S
Mg239 O242 1.990 . S
Mg239 O243 2.117 . S
O240 Mg234 2.099 . S
O240 Mg239 2.180 . S
O240 C249 1.279 . S
O241 Mg239 2.030 . S
O241 C247 1.248 . S
O242 Mg239 1.990 . S
O242 C248 1.253 . S
O243 Mg239 2.117 . S
O243 C249 1.250 . S
C244 O250 1.248 . S
C244 O251 1.264 1_556 S
C245 O231 1.253 . S
C245 O233 1.260 1_556 S
C246 O235 1.279 . S
C246 O236 1.250 . S
C247 O237 1.264 . S
C247 O241 1.248 . S
C248 O238 1.260 . S
C248 O242 1.253 . S
C249 O240 1.279 . S
C249 O243 1.250 . S
O250 Mg232 2.030 . S
O250 C244 1.248 . S
O251 Mg234 2.079 . S
O251 C244 1.264 1_554 S
C252 C253 1.369 . S
C252 C254 1.419 . S
C252 H256 0.930 . S
C253 C252 1.369 . S
C253 C262 1.429 . S
C254 C252 1.419 . S
C254 C255 1.363 . S
C254 H257 0.929 . S
C255 C254 1.363 . S
C255 C261 1.428 . S
H256 C252 0.930 . S
H257 C254 0.929 . S
S258 N259 1.613 . S
S258 N260 1.610 . S
N259 S258 1.613 . S
N259 C262 1.350 . S
N260 S258 1.610 . S
N260 C261 1.351 . S
C261 C255 1.428 . S
C261 N260 1.351 . S
C261 C262 1.434 . S
C262 C253 1.429 . S
C262 N259 1.350 . S
C262 C261 1.434 . S
C263 C264 1.369 . S
C263 C265 1.419 . S
C263 H267 0.930 . S
C264 C263 1.369 . S
C264 C273 1.429 . S
C265 C263 1.419 . S
C265 C266 1.363 . S
C265 H268 0.929 . S
C266 C265 1.363 . S
C266 C272 1.428 . S
H267 C263 0.930 . S
H268 C265 0.929 . S
S269 N270 1.613 . S
S269 N271 1.610 . S
N270 S269 1.613 . S
N270 C273 1.350 . S
N271 S269 1.610 . S
N271 C272 1.351 . S
C272 C266 1.428 . S
C272 N271 1.351 . S
C272 C273 1.434 . S
C273 C264 1.429 . S
C273 N270 1.350 . S
C273 C272 1.434 . S
C274 C275 1.369 . S
C274 C276 1.419 . S
C274 H278 0.930 . S
C275 C274 1.369 . S
C275 C284 1.429 . S
C276 C274 1.419 . S
C276 C277 1.363 . S
C276 H279 0.929 . S
C277 C276 1.363 . S
C277 C283 1.428 . S
H278 C274 0.930 . S
H279 C276 0.929 . S
S280 N281 1.613 . S
S280 N282 1.610 . S
N281 S280 1.613 . S
N281 C284 1.350 . S
N282 S280 1.610 . S
N282 C283 1.351 . S
C283 C277 1.428 . S
C283 N282 1.351 . S
C283 C284 1.434 . S
C284 C275 1.429 . S
C284 N281 1.350 . S
C284 C283 1.434 . S
C285 C286 1.369 . S
C285 C287 1.419 . S
C285 H289 0.930 . S
C286 C285 1.369 . S
C286 C295 1.429 . S
C287 C285 1.419 . S
C287 C288 1.363 . S
C287 H290 0.929 . S
C288 C287 1.363 . S
C288 C294 1.428 . S
H289 C285 0.930 . S
H290 C287 0.929 . S
S291 N292 1.613 . S
S291 N293 1.610 . S
N292 S291 1.613 . S
N292 C295 1.350 . S
N293 S291 1.610 . S
N293 C294 1.351 . S
C294 C288 1.428 . S
C294 N293 1.351 . S
C294 C295 1.434 . S
C295 C286 1.429 . S
C295 N292 1.350 . S
C295 C294 1.434 . S
C296 C297 1.369 . S
C296 C298 1.419 . S
C296 H300 0.930 . S
C297 C296 1.369 . S
C297 C306 1.429 . S
C298 C296 1.419 . S
C298 C299 1.363 . S
C298 H301 0.929 . S
C299 C298 1.363 . S
C299 C305 1.428 . S
H300 C296 0.930 . S
H301 C298 0.929 . S
S302 N303 1.613 . S
S302 N304 1.610 . S
N303 S302 1.613 . S
N303 C306 1.350 . S
N304 S302 1.610 . S
N304 C305 1.351 . S
C305 C299 1.428 . S
C305 N304 1.351 . S
C305 C306 1.434 . S
C306 C297 1.429 . S
C306 N303 1.350 . S
C306 C305 1.434 . S
C307 C308 1.369 . S
C307 C309 1.419 . S
C307 H311 0.930 . S
C308 C307 1.369 . S
C308 C317 1.429 . S
C309 C307 1.419 . S
C309 C310 1.363 . S
C309 H312 0.929 . S
C310 C309 1.363 . S
C310 C316 1.428 . S
H311 C307 0.930 . S
H312 C309 0.929 . S
S313 N314 1.613 . S
S313 N315 1.610 . S
N314 S313 1.613 . S
N314 C317 1.350 . S
N315 S313 1.610 . S
N315 C316 1.351 . S
C316 C310 1.428 . S
C316 N315 1.351 . S
C316 C317 1.434 . S
C317 C308 1.429 . S
C317 N314 1.350 . S
C317 C316 1.434 . S
C318 C319 1.369 . S
C318 C320 1.419 1_556 S
C318 H322 0.930 . S
C319 C318 1.369 . S
C319 C328 1.429 . S
C320 C318 1.419 1_554 S
C320 C321 1.363 . S
C320 H323 0.929 . S
C321 C320 1.363 . S
C321 C327 1.428 . S
H322 C318 0.930 . S
H323 C320 0.929 . S
S324 N325 1.613 . S
S324 N326 1.610 1_556 S
N325 S324 1.613 . S
N325 C328 1.350 . S
N326 S324 1.610 1_554 S
N326 C327 1.351 . S
C327 C321 1.428 . S
C327 N326 1.351 . S
C327 C328 1.434 1_554 S
C328 C319 1.429 . S
C328 N325 1.350 . S
C328 C327 1.434 1_556 S
C329 C330 1.369 . S
C329 C331 1.419 . S
C329 H333 0.930 . S
C330 C329 1.369 . S
C330 C339 1.429 . S
C331 C329 1.419 . S
C331 C332 1.363 . S
C331 H334 0.929 . S
C332 C331 1.363 . S
C332 C338 1.428 . S
H333 C329 0.930 . S
H334 C331 0.929 . S
S335 N336 1.613 . S
S335 N337 1.610 . S
N336 S335 1.613 . S
N336 C339 1.350 . S
N337 S335 1.610 . S
N337 C338 1.351 . S
C338 C332 1.428 . S
C338 N337 1.351 . S
C338 C339 1.434 . S
C339 C330 1.429 . S
C339 N336 1.350 . S
C339 C338 1.434 . S
C340 C341 1.369 . S
C340 C342 1.419 . S
C340 H344 0.930 . S
C341 C340 1.369 . S
C341 C350 1.429 . S
C342 C340 1.419 . S
C342 C343 1.363 . S
C342 H345 0.929 . S
C343 C342 1.363 . S
C343 C349 1.428 . S
H344 C340 0.930 . S
H345 C342 0.929 . S
S346 N347 1.613 . S
S346 N348 1.610 . S
N347 S346 1.613 . S
N347 C350 1.350 . S
N348 S346 1.610 . S
N348 C349 1.351 . S
C349 C343 1.428 . S
C349 N348 1.351 . S
C349 C350 1.434 . S
C350 C341 1.429 . S
C350 N347 1.350 . S
C350 C349 1.434 . S
C351 C352 1.369 . S
C351 C353 1.419 1_556 S
C351 H355 0.930 . S
C352 C351 1.369 . S
C352 C361 1.429 . S
C353 C351 1.419 1_554 S
C353 C354 1.363 . S
C353 H356 0.929 . S
C354 C353 1.363 . S
C354 C360 1.428 . S
H355 C351 0.930 . S
H356 C353 0.929 . S
S357 N358 1.613 1_554 S
S357 N359 1.610 . S
N358 S357 1.613 1_556 S
N358 C361 1.350 . S
N359 S357 1.610 . S
N359 C360 1.351 . S
C360 C354 1.428 . S
C360 N359 1.351 . S
C360 C361 1.434 1_554 S
C361 C352 1.429 . S
C361 N358 1.350 . S
C361 C360 1.434 1_556 S
C362 C363 1.369 . S
C362 C364 1.419 . S
C362 H366 0.930 . S
C363 C362 1.369 . S
C363 C372 1.429 . S
C364 C362 1.419 . S
C364 C365 1.363 . S
C364 H367 0.929 . S
C365 C364 1.363 . S
C365 C371 1.428 . S
H366 C362 0.930 . S
H367 C364 0.929 . S
S368 N369 1.613 . S
S368 N370 1.610 . S
N369 S368 1.613 . S
N369 C372 1.350 . S
N370 S368 1.610 . S
N370 C371 1.351 . S
C371 C365 1.428 . S
C371 N370 1.351 . S
C371 C372 1.434 . S
C372 C363 1.429 . S
C372 N369 1.350 . S
C372 C371 1.434 . S
C373 C374 1.369 . S
C373 C375 1.419 . S
C373 H377 0.930 . S
C374 C373 1.369 . S
C374 C383 1.429 . S
C375 C373 1.419 . S
C375 C376 1.363 . S
C375 H378 0.929 . S
C376 C375 1.363 . S
C376 C382 1.428 . S
H377 C373 0.930 . S
H378 C375 0.929 . S
S379 N380 1.613 . S
S379 N381 1.610 . S
N380 S379 1.613 . S
N380 C383 1.350 . S
N381 S379 1.610 . S
N381 C382 1.351 . S
C382 C376 1.428 . S
C382 N381 1.351 . S
C382 C383 1.434 . S
C383 C374 1.429 . S
C383 N380 1.350 . S
C383 C382 1.434 . S
C384 C385 1.369 1_554 S
C384 C386 1.419 . S
C384 H388 0.930 . S
C385 C384 1.369 1_556 S
C385 C394 1.429 1_565 S
C386 C384 1.419 . S
C386 C387 1.363 1_565 S
C386 H389 0.929 . S
C387 C386 1.363 1_545 S
C387 C393 1.428 1_554 S
H388 C384 0.930 . S
H389 C386 0.929 . S
S390 N391 1.613 . S
S390 N392 1.610 . S
N391 S390 1.613 . S
N391 C394 1.350 . S
N392 S390 1.610 . S
N392 C393 1.351 . S
C393 C387 1.428 1_556 S
C393 N392 1.351 . S
C393 C394 1.434 . S
C394 C385 1.429 1_545 S
C394 N391 1.350 . S
C394 C393 1.434 . S
C395 C396 1.369 . S
C395 C397 1.419 . S
C395 H399 0.930 . S
C396 C395 1.369 . S
C396 C405 1.429 . S
C397 C395 1.419 . S
C397 C398 1.363 . S
C397 H400 0.929 . S
C398 C397 1.363 . S
C398 C404 1.428 . S
H399 C395 0.930 . S
H400 C397 0.929 . S
S401 N402 1.613 . S
S401 N403 1.610 . S
N402 S401 1.613 . S
N402 C405 1.350 . S
N403 S401 1.610 . S
N403 C404 1.351 . S
C404 C398 1.428 . S
C404 N403 1.351 . S
C404 C405 1.434 . S
C405 C396 1.429 . S
C405 N402 1.350 . S
C405 C404 1.434 . S
C406 C407 1.369 1_655 S
C406 C408 1.419 . S
C406 H410 0.930 . S
C407 C406 1.369 1_455 S
C407 C416 1.429 . S
C408 C406 1.419 . S
C408 C409 1.363 . S
C408 H411 0.929 . S
C409 C408 1.363 . S
C409 C415 1.428 1_655 S
H410 C406 0.930 . S
H411 C408 0.929 . S
S412 N413 1.613 . S
S412 N414 1.610 . S
N413 S412 1.613 . S
N413 C416 1.350 . S
N414 S412 1.610 . S
N414 C415 1.351 . S
C415 C409 1.428 1_455 S
C415 N414 1.351 . S
C415 C416 1.434 . S
C416 C407 1.429 . S
C416 N413 1.350 . S
C416 C415 1.434 . S
C417 C418 1.369 . S
C417 C419 1.419 1_554 S
C417 H421 0.930 . S
C418 C417 1.369 . S
C418 C427 1.429 1_565 S
C419 C417 1.419 1_556 S
C419 C420 1.363 1_565 S
C419 H422 0.929 . S
C420 C419 1.363 1_545 S
C420 C426 1.428 . S
H421 C417 0.930 . S
H422 C419 0.929 . S
S423 N424 1.613 . S
S423 N425 1.610 . S
N424 S423 1.613 . S
N424 C427 1.350 . S
N425 S423 1.610 . S
N425 C426 1.351 1_554 S
C426 C420 1.428 . S
C426 N425 1.351 1_556 S
C426 C427 1.434 1_556 S
C427 C418 1.429 1_545 S
C427 N424 1.350 . S
C427 C426 1.434 1_554 S
C428 C429 1.369 . S
C428 C430 1.419 . S
C428 H432 0.930 . S
C429 C428 1.369 . S
C429 C438 1.429 . S
C430 C428 1.419 . S
C430 C431 1.363 . S
C430 H433 0.929 . S
C431 C430 1.363 . S
C431 C437 1.428 . S
H432 C428 0.930 . S
H433 C430 0.929 . S
S434 N435 1.613 . S
S434 N436 1.610 . S
N435 S434 1.613 . S
N435 C438 1.350 . S
N436 S434 1.610 . S
N436 C437 1.351 . S
C437 C431 1.428 . S
C437 N436 1.351 . S
C437 C438 1.434 . S
C438 C429 1.429 . S
C438 N435 1.350 . S
C438 C437 1.434 . S
C439 C440 1.369 1_655 S
C439 C441 1.419 . S
C439 H443 0.930 . S
C440 C439 1.369 1_455 S
C440 C449 1.429 . S
C441 C439 1.419 . S
C441 C442 1.363 . S
C441 H444 0.929 . S
C442 C441 1.363 . S
C442 C448 1.428 1_655 S
H443 C439 0.930 . S
H444 C441 0.929 . S
S445 N446 1.613 . S
S445 N447 1.610 . S
N446 S445 1.613 . S
N446 C449 1.350 . S
N447 S445 1.610 . S
N447 C448 1.351 . S
C448 C442 1.428 1_455 S
C448 N447 1.351 . S
C448 C449 1.434 . S
C449 C440 1.429 . S
C449 N446 1.350 . S
C449 C448 1.434 . S
C450 C451 1.369 1_565 S
C450 C452 1.419 . S
C450 H454 0.930 . S
C451 C450 1.369 1_545 S
C451 C460 1.429 . S
C452 C450 1.419 . S
C452 C453 1.363 . S
C452 H455 0.929 . S
C453 C452 1.363 . S
C453 C459 1.428 1_565 S
H454 C450 0.930 . S
H455 C452 0.929 . S
S456 N457 1.613 . S
S456 N458 1.610 . S
N457 S456 1.613 . S
N457 C460 1.350 . S
N458 S456 1.610 . S
N458 C459 1.351 . S
C459 C453 1.428 1_545 S
C459 N458 1.351 . S
C459 C460 1.434 . S
C460 C451 1.429 . S
C460 N457 1.350 . S
C460 C459 1.434 . S
C461 C462 1.369 . S
C461 C463 1.419 . S
C461 H465 0.930 . S
C462 C461 1.369 . S
C462 C471 1.429 . S
C463 C461 1.419 . S
C463 C464 1.363 . S
C463 H466 0.929 . S
C464 C463 1.363 . S
C464 C470 1.428 . S
H465 C461 0.930 . S
H466 C463 0.929 . S
S467 N468 1.613 . S
S467 N469 1.610 . S
N468 S467 1.613 . S
N468 C471 1.350 . S
N469 S467 1.610 . S
N469 C470 1.351 . S
C470 C464 1.428 . S
C470 N469 1.351 . S
C470 C471 1.434 . S
C471 C462 1.429 . S
C471 N468 1.350 . S
C471 C470 1.434 . S
C472 C473 1.369 . S
C472 C474 1.423 . S
C472 H476 0.930 . S
C473 C472 1.369 . S
C473 C482 1.429 1_656 S
C474 C472 1.423 . S
C474 C475 1.349 1_655 S
C474 H477 0.940 . S
C475 C474 1.349 1_455 S
C475 C481 1.428 1_556 S
H476 C472 0.930 . S
H477 C474 0.940 . S
S478 N479 1.613 . S
S478 N480 1.610 . S
N479 S478 1.613 . S
N479 C482 1.350 . S
N480 S478 1.610 . S
N480 C481 1.351 . S
C481 C475 1.428 1_554 S
C481 N480 1.351 . S
C481 C482 1.434 . S
C482 C473 1.429 1_454 S
C482 N479 1.350 . S
C482 C481 1.434 . S
C483 C484 1.369 . S
C483 C485 1.419 . S
C483 H487 0.930 . S
C484 C483 1.369 . S
C484 C493 1.429 1_455 S
C485 C483 1.419 . S
C485 C486 1.363 1_455 S
C485 H488 0.929 . S
C486 C485 1.363 1_655 S
C486 C492 1.428 . S
H487 C483 0.930 . S
H488 C485 0.929 . S
S489 N490 1.613 . S
S489 N491 1.610 . S
N490 S489 1.613 . S
N490 C493 1.350 . S
N491 S489 1.610 . S
N491 C492 1.351 . S
C492 C486 1.428 . S
C492 N491 1.351 . S
C492 C493 1.434 . S
C493 C484 1.429 1_655 S
C493 N490 1.350 . S
C493 C492 1.434 . S
C494 C495 1.369 . S
C494 C496 1.419 . S
C494 H498 0.930 . S
C495 C494 1.369 . S
C495 C504 1.429 1_565 S
C496 C494 1.419 . S
C496 C497 1.363 1_565 S
C496 H499 0.929 . S
C497 C496 1.363 1_545 S
C497 C503 1.428 . S
H498 C494 0.930 . S
H499 C496 0.929 . S
S500 N501 1.613 . S
S500 N502 1.610 . S
N501 S500 1.613 . S
N501 C504 1.350 . S
N502 S500 1.610 . S
N502 C503 1.351 . S
C503 C497 1.428 . S
C503 N502 1.351 . S
C503 C504 1.434 . S
C504 C495 1.429 1_545 S
C504 N501 1.350 . S
C504 C503 1.434 . S
C505 C506 1.369 . S
C505 C507 1.419 . S
C505 H509 0.930 . S
C506 C505 1.369 . S
C506 C515 1.429 1_554 S
C507 C505 1.419 . S
C507 C508 1.363 . S
C507 H510 0.929 . S
C508 C507 1.363 . S
C508 C514 1.428 1_554 S
H509 C505 0.930 . S
H510 C507 0.929 . S
S511 N512 1.613 . S
S511 N513 1.610 . S
N512 S511 1.613 . S
N512 C515 1.350 . S
N513 S511 1.610 . S
N513 C514 1.351 . S
C514 C508 1.428 1_556 S
C514 N513 1.351 . S
C514 C515 1.434 . S
C515 C506 1.429 1_556 S
C515 N512 1.350 . S
C515 C514 1.434 . S
C516 C517 1.369 . S
C516 C518 1.419 . S
C516 H520 0.930 . S
C517 C516 1.369 . S
C517 C526 1.429 1_565 S
C518 C516 1.419 . S
C518 C519 1.363 1_565 S
C518 H521 0.929 . S
C519 C518 1.363 1_545 S
C519 C525 1.428 . S
H520 C516 0.930 . S
H521 C518 0.929 . S
S522 N523 1.613 . S
S522 N524 1.610 . S
N523 S522 1.613 . S
N523 C526 1.350 . S
N524 S522 1.610 . S
N524 C525 1.351 . S
C525 C519 1.428 . S
C525 N524 1.351 . S
C525 C526 1.434 . S
C526 C517 1.429 1_545 S
C526 N523 1.350 . S
C526 C525 1.434 . S
C527 C528 1.369 . S
C527 C529 1.419 . S
C527 H531 0.930 . S
C528 C527 1.369 . S
C528 C537 1.429 . S
C529 C527 1.419 . S
C529 C530 1.363 . S
C529 H532 0.929 . S
C530 C529 1.363 . S
C530 C536 1.428 . S
H531 C527 0.930 . S
H532 C529 0.929 . S
S533 N534 1.613 . S
S533 N535 1.610 . S
N534 S533 1.613 . S
N534 C537 1.350 . S
N535 S533 1.610 . S
N535 C536 1.351 . S
C536 C530 1.428 . S
C536 N535 1.351 . S
C536 C537 1.434 . S
C537 C528 1.429 . S
C537 N534 1.350 . S
C537 C536 1.434 . S
C538 C539 1.369 . S
C538 C540 1.419 . S
C538 H542 0.930 . S
C539 C538 1.369 . S
C539 C548 1.429 1_655 S
C540 C538 1.419 . S
C540 C541 1.363 1_655 S
C540 H543 0.929 . S
C541 C540 1.363 1_455 S
C541 C547 1.428 . S
H542 C538 0.930 . S
H543 C540 0.929 . S
S544 N545 1.613 . S
S544 N546 1.610 . S
N545 S544 1.613 . S
N545 C548 1.350 . S
N546 S544 1.610 . S
N546 C547 1.351 . S
C547 C541 1.428 . S
C547 N546 1.351 . S
C547 C548 1.434 . S
C548 C539 1.429 1_455 S
C548 N545 1.350 . S
C548 C547 1.434 . S
C549 C550 1.369 1_565 S
C549 C551 1.419 . S
C549 H553 0.930 . S
C550 C549 1.369 1_545 S
C550 C559 1.429 . S
C551 C549 1.419 . S
C551 C552 1.363 . S
C551 H554 0.929 . S
C552 C551 1.363 . S
C552 C558 1.428 1_565 S
H553 C549 0.930 . S
H554 C551 0.929 . S
S555 N556 1.613 . S
S555 N557 1.610 . S
N556 S555 1.613 . S
N556 C559 1.350 . S
N557 S555 1.610 . S
N557 C558 1.351 . S
C558 C552 1.428 1_545 S
C558 N557 1.351 . S
C558 C559 1.434 . S
C559 C550 1.429 . S
C559 N556 1.350 . S
C559 C558 1.434 . S
C560 C561 1.369 . S
C560 C562 1.419 . S
C560 H564 0.930 . S
C561 C560 1.369 . S
C561 C570 1.429 . S
C562 C560 1.419 . S
C562 C563 1.363 . S
C562 H565 0.929 . S
C563 C562 1.363 . S
C563 C569 1.428 . S
H564 C560 0.930 . S
H565 C562 0.929 . S
S566 N567 1.613 . S
S566 N568 1.610 . S
N567 S566 1.613 . S
N567 C570 1.350 . S
N568 S566 1.610 . S
N568 C569 1.351 . S
C569 C563 1.428 . S
C569 N568 1.351 . S
C569 C570 1.434 . S
C570 C561 1.429 . S
C570 N567 1.350 . S
C570 C569 1.434 . S
C571 C572 1.369 1_655 S
C571 C573 1.419 . S
C571 H575 0.930 . S
C572 C571 1.369 1_455 S
C572 C581 1.429 . S
C573 C571 1.419 . S
C573 C574 1.363 . S
C573 H576 0.929 . S
C574 C573 1.363 . S
C574 C580 1.428 1_655 S
H575 C571 0.930 . S
H576 C573 0.929 . S
S577 N578 1.613 . S
S577 N579 1.610 . S
N578 S577 1.613 . S
N578 C581 1.350 . S
N579 S577 1.610 . S
N579 C580 1.351 . S
C580 C574 1.428 1_455 S
C580 N579 1.351 . S
C580 C581 1.434 . S
C581 C572 1.429 . S
C581 N578 1.350 . S
C581 C580 1.434 . S
C582 C583 1.369 . S
C582 C584 1.419 . S
C582 H586 0.930 . S
C583 C582 1.369 . S
C583 C592 1.429 . S
C584 C582 1.419 . S
C584 C585 1.363 . S
C584 H587 0.929 . S
C585 C584 1.363 . S
C585 C591 1.428 . S
H586 C582 0.930 . S
H587 C584 0.929 . S
S588 N589 1.613 . S
S588 N590 1.610 . S
N589 S588 1.613 . S
N589 C592 1.350 . S
N590 S588 1.610 . S
N590 C591 1.351 . S
C591 C585 1.428 . S
C591 N590 1.351 . S
C591 C592 1.434 . S
C592 C583 1.429 . S
C592 N589 1.350 . S
C592 C591 1.434 . S
C593 C594 1.369 . S
C593 C595 1.419 . S
C593 H597 0.930 . S
C594 C593 1.369 . S
C594 C603 1.429 . S
C595 C593 1.419 . S
C595 C596 1.363 . S
C595 H598 0.929 . S
C596 C595 1.363 . S
C596 C602 1.428 . S
H597 C593 0.930 . S
H598 C595 0.929 . S
S599 N600 1.613 . S
S599 N601 1.610 . S
N600 S599 1.613 . S
N600 C603 1.350 . S
N601 S599 1.610 . S
N601 C602 1.351 . S
C602 C596 1.428 . S
C602 N601 1.351 . S
C602 C603 1.434 . S
C603 C594 1.429 . S
C603 N600 1.350 . S
C603 C602 1.434 . S
C604 C605 1.369 . S
C604 C606 1.419 . S
C604 H608 0.930 . S
C605 C604 1.369 . S
C605 C614 1.429 . S
C606 C604 1.419 . S
C606 C607 1.363 . S
C606 H609 0.929 . S
C607 C606 1.363 . S
C607 C613 1.428 . S
H608 C604 0.930 . S
H609 C606 0.929 . S
S610 N611 1.613 . S
S610 N612 1.610 . S
N611 S610 1.613 . S
N611 C614 1.350 . S
N612 S610 1.610 . S
N612 C613 1.351 . S
C613 C607 1.428 . S
C613 N612 1.351 . S
C613 C614 1.434 . S
C614 C605 1.429 . S
C614 N611 1.350 . S
C614 C613 1.434 . S
C615 C616 1.369 . S
C615 C617 1.419 . S
C615 H619 0.930 . S
C616 C615 1.369 . S
C616 C625 1.429 . S
C617 C615 1.419 . S
C617 C618 1.363 . S
C617 H620 0.929 . S
C618 C617 1.363 . S
C618 C624 1.428 . S
H619 C615 0.930 . S
H620 C617 0.929 . S
S621 N622 1.613 . S
S621 N623 1.610 . S
N622 S621 1.613 . S
N622 C625 1.350 . S
N623 S621 1.610 . S
N623 C624 1.351 . S
C624 C618 1.428 . S
C624 N623 1.351 . S
C624 C625 1.434 . S
C625 C616 1.429 . S
C625 N622 1.350 . S
C625 C624 1.434 . S
C626 C627 1.369 . S
C626 C628 1.419 . S
C626 H630 0.930 . S
C627 C626 1.369 . S
C627 C636 1.429 . S
C628 C626 1.419 . S
C628 C629 1.363 . S
C628 H631 0.929 . S
C629 C628 1.363 . S
C629 C635 1.428 . S
H630 C626 0.930 . S
H631 C628 0.929 . S
S632 N633 1.613 . S
S632 N634 1.610 . S
N633 S632 1.613 . S
N633 C636 1.350 . S
N634 S632 1.610 . S
N634 C635 1.351 . S
C635 C629 1.428 . S
C635 N634 1.351 . S
C635 C636 1.434 . S
C636 C627 1.429 . S
C636 N633 1.350 . S
C636 C635 1.434 . S
C637 C638 1.369 . S
C637 C639 1.419 . S
C637 H641 0.930 . S
C638 C637 1.369 . S
C638 C647 1.429 . S
C639 C637 1.419 . S
C639 C640 1.363 . S
C639 H642 0.929 . S
C640 C639 1.363 . S
C640 C646 1.428 . S
H641 C637 0.930 . S
H642 C639 0.929 . S
S643 N644 1.613 . S
S643 N645 1.610 . S
N644 S643 1.613 . S
N644 C647 1.350 . S
N645 S643 1.610 . S
N645 C646 1.351 . S
C646 C640 1.428 . S
C646 N645 1.351 . S
C646 C647 1.434 . S
C647 C638 1.429 . S
C647 N644 1.350 . S
C647 C646 1.434 . S
C253 C15 1.118 . S
C255 C183 1.123 . S
C264 C36 1.123 . S
C266 C204 1.119 . S
C275 C57 1.117 . S
C277 C225 1.124 . S
C286 C246 1.116 . S
C288 C78 1.125 . S
C297 C99 1.127 . S
C299 C141 1.119 . S
C308 C162 1.128 . S
C310 C120 1.116 . S
C319 C227 1.561 . S
C321 C17 1.564 . S
C330 C248 1.563 . S
C332 C38 1.563 . S
C341 C59 1.575 . S
C343 C143 1.572 . S
C352 C164 1.562 . S
C354 C80 1.563 . S
C363 C185 1.564 . S
C365 C101 1.563 . S
C374 C122 1.565 . S
C376 C206 1.569 . S
C385 C163 1.373 . S
C387 C16 1.377 . S
C396 C184 1.381 . S
C398 C37 1.382 . S
C407 C205 1.384 . S
C409 C58 1.380 . S
C418 C79 1.379 . S
C420 C226 1.381 . S
C429 C100 1.383 . S
C431 C247 1.383 . S
C440 C121 1.384 . S
C442 C142 1.381 . S
C451 C18 0.735 . S
C453 C81 0.739 . S
C462 C39 0.735 . S
C464 C102 0.736 . S
C473 C60 0.761 . S
C475 C123 0.757 . S
C484 C207 0.744 . S
C486 C144 0.742 . S
C495 C165 0.760 . S
C497 C228 0.755 . S
C506 C249 0.750 . S
C508 C186 0.751 . S
C517 C160 1.437 . S
C519 C13 1.433 . S
C528 C181 1.438 . S
C530 C34 1.436 . S
C539 C55 1.439 . S
C541 C202 1.435 . S
C550 C223 1.432 . S
C552 C76 1.437 . S
C561 C244 1.436 . S
C563 C97 1.438 . S
C572 C118 1.432 . S
C574 C139 1.437 . S
C583 C14 1.561 . S
C585 C224 1.559 . S
C594 C35 1.561 . S
C596 C245 1.559 . S
C605 C56 1.558 . S
C607 C140 1.561 . S
C616 C77 1.558 . S
C618 C161 1.561 . S
C627 C98 1.558 . S
C629 C182 1.560 . S
C638 C203 1.560 . S
C640 C119 1.560 . S
