# Generated by pormake.
# Topology wna, (6)-cn, num edge types: 1
# Building blocks:
#     Node 0, Type 0, BuildingBlock: MIFKUJ_clean_sbu_0, # of connection points: 6
#     Node 1, Type 0, BuildingBlock: MIFKUJ_clean_sbu_0, # of connection points: 6
#     Node 2, Type 0, BuildingBlock: MIFKUJ_clean_sbu_0, # of connection points: 6
#     Node 3, Type 0, BuildingBlock: MIFKUJ_clean_sbu_0, # of connection points: 6
#     Node 4, Type 0, BuildingBlock: MIFKUJ_clean_sbu_0, # of connection points: 6
#     Node 5, Type 0, BuildingBlock: MIFKUJ_clean_sbu_0, # of connection points: 6
#     Node 6, Type 0, BuildingBlock: MIFKUJ_clean_sbu_0, # of connection points: 6
#     Node 7, Type 0, BuildingBlock: MIFKUJ_clean_sbu_0, # of connection points: 6
#     Node 8, Type 0, BuildingBlock: MIFKUJ_clean_sbu_0, # of connection points: 6
#     Node 9, Type 0, BuildingBlock: MIFKUJ_clean_sbu_0, # of connection points: 6
#     Node 10, Type 0, BuildingBlock: MIFKUJ_clean_sbu_0, # of connection points: 6
#     Node 11, Type 0, BuildingBlock: MIFKUJ_clean_sbu_0, # of connection points: 6
#     Node 12, Type 0, BuildingBlock: MIFKUJ_clean_sbu_0, # of connection points: 6
#     Node 13, Type 0, BuildingBlock: MIFKUJ_clean_sbu_0, # of connection points: 6
#     Node 14, Type 0, BuildingBlock: MIFKUJ_clean_sbu_0, # of connection points: 6
#     Node 15, Type 0, BuildingBlock: MIFKUJ_clean_sbu_0, # of connection points: 6
#     Node 16, Type 0, BuildingBlock: MIFKUJ_clean_sbu_0, # of connection points: 6
#     Node 17, Type 0, BuildingBlock: MIFKUJ_clean_sbu_0, # of connection points: 6
#     Node 18, Type 0, BuildingBlock: MIFKUJ_clean_sbu_0, # of connection points: 6
#     Node 19, Type 0, BuildingBlock: MIFKUJ_clean_sbu_0, # of connection points: 6
#     Node 20, Type 0, BuildingBlock: MIFKUJ_clean_sbu_0, # of connection points: 6
#     Node 21, Type 0, BuildingBlock: MIFKUJ_clean_sbu_0, # of connection points: 6
#     Node 22, Type 0, BuildingBlock: MIFKUJ_clean_sbu_0, # of connection points: 6
#     Node 23, Type 0, BuildingBlock: MIFKUJ_clean_sbu_0, # of connection points: 6
#     Node 24, Type 0, BuildingBlock: MIFKUJ_clean_sbu_0, # of connection points: 6
#     Node 25, Type 0, BuildingBlock: MIFKUJ_clean_sbu_0, # of connection points: 6
#     Node 26, Type 0, BuildingBlock: MIFKUJ_clean_sbu_0, # of connection points: 6
#     Node 27, Type 0, BuildingBlock: MIFKUJ_clean_sbu_0, # of connection points: 6
#     Node 28, Type 0, BuildingBlock: MIFKUJ_clean_sbu_0, # of connection points: 6
#     Node 29, Type 0, BuildingBlock: MIFKUJ_clean_sbu_0, # of connection points: 6
#     Node 30, Type 0, BuildingBlock: MIFKUJ_clean_sbu_0, # of connection points: 6
#     Node 31, Type 0, BuildingBlock: MIFKUJ_clean_sbu_0, # of connection points: 6
#     Node 32, Type 0, BuildingBlock: MIFKUJ_clean_sbu_0, # of connection points: 6
#     Node 33, Type 0, BuildingBlock: MIFKUJ_clean_sbu_0, # of connection points: 6
#     Node 34, Type 0, BuildingBlock: MIFKUJ_clean_sbu_0, # of connection points: 6
#     Node 35, Type 0, BuildingBlock: MIFKUJ_clean_sbu_0, # of connection points: 6
#     Edge 36, Type (0, 0), BuildingBlock: AJUNOK_clean_linker_0, # of connection points: 2
#     Edge 37, Type (0, 0), BuildingBlock: AJUNOK_clean_linker_0, # of connection points: 2
#     Edge 38, Type (0, 0), BuildingBlock: AJUNOK_clean_linker_0, # of connection points: 2
#     Edge 39, Type (0, 0), BuildingBlock: AJUNOK_clean_linker_0, # of connection points: 2
#     Edge 40, Type (0, 0), BuildingBlock: AJUNOK_clean_linker_0, # of connection points: 2
#     Edge 41, Type (0, 0), BuildingBlock: AJUNOK_clean_linker_0, # of connection points: 2
#     Edge 42, Type (0, 0), BuildingBlock: AJUNOK_clean_linker_0, # of connection points: 2
#     Edge 43, Type (0, 0), BuildingBlock: AJUNOK_clean_linker_0, # of connection points: 2
#     Edge 44, Type (0, 0), BuildingBlock: AJUNOK_clean_linker_0, # of connection points: 2
#     Edge 45, Type (0, 0), BuildingBlock: AJUNOK_clean_linker_0, # of connection points: 2
#     Edge 46, Type (0, 0), BuildingBlock: AJUNOK_clean_linker_0, # of connection points: 2
#     Edge 47, Type (0, 0), BuildingBlock: AJUNOK_clean_linker_0, # of connection points: 2
#     Edge 48, Type (0, 0), BuildingBlock: AJUNOK_clean_linker_0, # of connection points: 2
#     Edge 49, Type (0, 0), BuildingBlock: AJUNOK_clean_linker_0, # of connection points: 2
#     Edge 50, Type (0, 0), BuildingBlock: AJUNOK_clean_linker_0, # of connection points: 2
#     Edge 51, Type (0, 0), BuildingBlock: AJUNOK_clean_linker_0, # of connection points: 2
#     Edge 52, Type (0, 0), BuildingBlock: AJUNOK_clean_linker_0, # of connection points: 2
#     Edge 53, Type (0, 0), BuildingBlock: AJUNOK_clean_linker_0, # of connection points: 2
#     Edge 54, Type (0, 0), BuildingBlock: AJUNOK_clean_linker_0, # of connection points: 2
#     Edge 55, Type (0, 0), BuildingBlock: AJUNOK_clean_linker_0, # of connection points: 2
#     Edge 56, Type (0, 0), BuildingBlock: AJUNOK_clean_linker_0, # of connection points: 2
#     Edge 57, Type (0, 0), BuildingBlock: AJUNOK_clean_linker_0, # of connection points: 2
#     Edge 58, Type (0, 0), BuildingBlock: AJUNOK_clean_linker_0, # of connection points: 2
#     Edge 59, Type (0, 0), BuildingBlock: AJUNOK_clean_linker_0, # of connection points: 2
#     Edge 60, Type (0, 0), BuildingBlock: AJUNOK_clean_linker_0, # of connection points: 2
#     Edge 61, Type (0, 0), BuildingBlock: AJUNOK_clean_linker_0, # of connection points: 2
#     Edge 62, Type (0, 0), BuildingBlock: AJUNOK_clean_linker_0, # of connection points: 2
#     Edge 63, Type (0, 0), BuildingBlock: AJUNOK_clean_linker_0, # of connection points: 2
#     Edge 64, Type (0, 0), BuildingBlock: AJUNOK_clean_linker_0, # of connection points: 2
#     Edge 65, Type (0, 0), BuildingBlock: AJUNOK_clean_linker_0, # of connection points: 2
#     Edge 66, Type (0, 0), BuildingBlock: AJUNOK_clean_linker_0, # of connection points: 2
#     Edge 67, Type (0, 0), BuildingBlock: AJUNOK_clean_linker_0, # of connection points: 2
#     Edge 68, Type (0, 0), BuildingBlock: AJUNOK_clean_linker_0, # of connection points: 2
#     Edge 69, Type (0, 0), BuildingBlock: AJUNOK_clean_linker_0, # of connection points: 2
#     Edge 70, Type (0, 0), BuildingBlock: AJUNOK_clean_linker_0, # of connection points: 2
#     Edge 71, Type (0, 0), BuildingBlock: AJUNOK_clean_linker_0, # of connection points: 2
#     Edge 72, Type (0, 0), BuildingBlock: AJUNOK_clean_linker_0, # of connection points: 2
#     Edge 73, Type (0, 0), BuildingBlock: AJUNOK_clean_linker_0, # of connection points: 2
#     Edge 74, Type (0, 0), BuildingBlock: AJUNOK_clean_linker_0, # of connection points: 2
#     Edge 75, Type (0, 0), BuildingBlock: AJUNOK_clean_linker_0, # of connection points: 2
#     Edge 76, Type (0, 0), BuildingBlock: AJUNOK_clean_linker_0, # of connection points: 2
#     Edge 77, Type (0, 0), BuildingBlock: AJUNOK_clean_linker_0, # of connection points: 2
#     Edge 78, Type (0, 0), BuildingBlock: AJUNOK_clean_linker_0, # of connection points: 2
#     Edge 79, Type (0, 0), BuildingBlock: AJUNOK_clean_linker_0, # of connection points: 2
#     Edge 80, Type (0, 0), BuildingBlock: AJUNOK_clean_linker_0, # of connection points: 2
#     Edge 81, Type (0, 0), BuildingBlock: AJUNOK_clean_linker_0, # of connection points: 2
#     Edge 82, Type (0, 0), BuildingBlock: AJUNOK_clean_linker_0, # of connection points: 2
#     Edge 83, Type (0, 0), BuildingBlock: AJUNOK_clean_linker_0, # of connection points: 2
#     Edge 84, Type (0, 0), BuildingBlock: AJUNOK_clean_linker_0, # of connection points: 2
#     Edge 85, Type (0, 0), BuildingBlock: AJUNOK_clean_linker_0, # of connection points: 2
#     Edge 86, Type (0, 0), BuildingBlock: AJUNOK_clean_linker_0, # of connection points: 2
#     Edge 87, Type (0, 0), BuildingBlock: AJUNOK_clean_linker_0, # of connection points: 2
#     Edge 88, Type (0, 0), BuildingBlock: AJUNOK_clean_linker_0, # of connection points: 2
#     Edge 89, Type (0, 0), BuildingBlock: AJUNOK_clean_linker_0, # of connection points: 2
#     Edge 90, Type (0, 0), BuildingBlock: AJUNOK_clean_linker_0, # of connection points: 2
#     Edge 91, Type (0, 0), BuildingBlock: AJUNOK_clean_linker_0, # of connection points: 2
#     Edge 92, Type (0, 0), BuildingBlock: AJUNOK_clean_linker_0, # of connection points: 2
#     Edge 93, Type (0, 0), BuildingBlock: AJUNOK_clean_linker_0, # of connection points: 2
#     Edge 94, Type (0, 0), BuildingBlock: AJUNOK_clean_linker_0, # of connection points: 2
#     Edge 95, Type (0, 0), BuildingBlock: AJUNOK_clean_linker_0, # of connection points: 2
#     Edge 96, Type (0, 0), BuildingBlock: AJUNOK_clean_linker_0, # of connection points: 2
#     Edge 97, Type (0, 0), BuildingBlock: AJUNOK_clean_linker_0, # of connection points: 2
#     Edge 98, Type (0, 0), BuildingBlock: AJUNOK_clean_linker_0, # of connection points: 2
#     Edge 99, Type (0, 0), BuildingBlock: AJUNOK_clean_linker_0, # of connection points: 2
#     Edge 100, Type (0, 0), BuildingBlock: AJUNOK_clean_linker_0, # of connection points: 2
#     Edge 101, Type (0, 0), BuildingBlock: AJUNOK_clean_linker_0, # of connection points: 2
#     Edge 102, Type (0, 0), BuildingBlock: AJUNOK_clean_linker_0, # of connection points: 2
#     Edge 103, Type (0, 0), BuildingBlock: AJUNOK_clean_linker_0, # of connection points: 2
#     Edge 104, Type (0, 0), BuildingBlock: AJUNOK_clean_linker_0, # of connection points: 2
#     Edge 105, Type (0, 0), BuildingBlock: AJUNOK_clean_linker_0, # of connection points: 2
#     Edge 106, Type (0, 0), BuildingBlock: AJUNOK_clean_linker_0, # of connection points: 2
#     Edge 107, Type (0, 0), BuildingBlock: AJUNOK_clean_linker_0, # of connection points: 2
#     Edge 108, Type (0, 0), BuildingBlock: AJUNOK_clean_linker_0, # of connection points: 2
#     Edge 109, Type (0, 0), BuildingBlock: AJUNOK_clean_linker_0, # of connection points: 2
#     Edge 110, Type (0, 0), BuildingBlock: AJUNOK_clean_linker_0, # of connection points: 2
#     Edge 111, Type (0, 0), BuildingBlock: AJUNOK_clean_linker_0, # of connection points: 2
#     Edge 112, Type (0, 0), BuildingBlock: AJUNOK_clean_linker_0, # of connection points: 2
#     Edge 113, Type (0, 0), BuildingBlock: AJUNOK_clean_linker_0, # of connection points: 2
#     Edge 114, Type (0, 0), BuildingBlock: AJUNOK_clean_linker_0, # of connection points: 2
#     Edge 115, Type (0, 0), BuildingBlock: AJUNOK_clean_linker_0, # of connection points: 2
#     Edge 116, Type (0, 0), BuildingBlock: AJUNOK_clean_linker_0, # of connection points: 2
#     Edge 117, Type (0, 0), BuildingBlock: AJUNOK_clean_linker_0, # of connection points: 2
#     Edge 118, Type (0, 0), BuildingBlock: AJUNOK_clean_linker_0, # of connection points: 2
#     Edge 119, Type (0, 0), BuildingBlock: AJUNOK_clean_linker_0, # of connection points: 2
#     Edge 120, Type (0, 0), BuildingBlock: AJUNOK_clean_linker_0, # of connection points: 2
#     Edge 121, Type (0, 0), BuildingBlock: AJUNOK_clean_linker_0, # of connection points: 2
#     Edge 122, Type (0, 0), BuildingBlock: AJUNOK_clean_linker_0, # of connection points: 2
#     Edge 123, Type (0, 0), BuildingBlock: AJUNOK_clean_linker_0, # of connection points: 2
#     Edge 124, Type (0, 0), BuildingBlock: AJUNOK_clean_linker_0, # of connection points: 2
#     Edge 125, Type (0, 0), BuildingBlock: AJUNOK_clean_linker_0, # of connection points: 2
#     Edge 126, Type (0, 0), BuildingBlock: AJUNOK_clean_linker_0, # of connection points: 2
#     Edge 127, Type (0, 0), BuildingBlock: AJUNOK_clean_linker_0, # of connection points: 2
#     Edge 128, Type (0, 0), BuildingBlock: AJUNOK_clean_linker_0, # of connection points: 2
#     Edge 129, Type (0, 0), BuildingBlock: AJUNOK_clean_linker_0, # of connection points: 2
#     Edge 130, Type (0, 0), BuildingBlock: AJUNOK_clean_linker_0, # of connection points: 2
#     Edge 131, Type (0, 0), BuildingBlock: AJUNOK_clean_linker_0, # of connection points: 2
#     Edge 132, Type (0, 0), BuildingBlock: AJUNOK_clean_linker_0, # of connection points: 2
#     Edge 133, Type (0, 0), BuildingBlock: AJUNOK_clean_linker_0, # of connection points: 2
#     Edge 134, Type (0, 0), BuildingBlock: AJUNOK_clean_linker_0, # of connection points: 2
#     Edge 135, Type (0, 0), BuildingBlock: AJUNOK_clean_linker_0, # of connection points: 2
#     Edge 136, Type (0, 0), BuildingBlock: AJUNOK_clean_linker_0, # of connection points: 2
#     Edge 137, Type (0, 0), BuildingBlock: AJUNOK_clean_linker_0, # of connection points: 2
#     Edge 138, Type (0, 0), BuildingBlock: AJUNOK_clean_linker_0, # of connection points: 2
#     Edge 139, Type (0, 0), BuildingBlock: AJUNOK_clean_linker_0, # of connection points: 2
#     Edge 140, Type (0, 0), BuildingBlock: AJUNOK_clean_linker_0, # of connection points: 2
#     Edge 141, Type (0, 0), BuildingBlock: AJUNOK_clean_linker_0, # of connection points: 2
#     Edge 142, Type (0, 0), BuildingBlock: AJUNOK_clean_linker_0, # of connection points: 2
#     Edge 143, Type (0, 0), BuildingBlock: AJUNOK_clean_linker_0, # of connection points: 2
# Relax obj value: 0.158
# Max RMSD: 0.212
# Mean RMSD: 0.204
data_MOF--net-wna--node1-MIFKUJ_clean_sbu_0--edge1-AJUNOK_clean_linker_0
_symmetry_space_group_name_H-M    P1
_symmetry_Int_Tables_number       1
_symmetry_cell_setting            triclinic
loop_
_symmetry_equiv_pos_as_xyz
'x, y, z'
_cell_length_a     31.158828
_cell_length_b     31.138215
_cell_length_c     82.026524
_cell_angle_alpha  90.00881
_cell_angle_beta   89.994141
_cell_angle_gamma 119.99665
loop_
_atom_site_label
_atom_site_type_symbol
_atom_site_fract_x
_atom_site_fract_y
_atom_site_fract_z
_atom_type_partial_charge
Zn0 Zn 0.08357 0.22064 0.18781 0.0
Zn1 Zn 0.12092 0.26104 0.15199 0.0
C2 C 0.98018 0.15646 0.17782 0.0
O3 O 0.97241 0.18535 0.18759 0.0
C4 C 0.22375 0.30897 0.15189 0.0
O5 O 0.21029 0.27666 0.13995 0.0
O6 O 0.07051 0.20139 0.21182 0.0
O7 O 0.14385 0.21781 0.18106 0.0
O8 O 0.11277 0.19298 0.15654 0.0
C9 C 0.03899 0.15794 0.21664 0.0
O10 O 0.01474 0.12256 0.20595 0.0
O11 O 0.02462 0.16679 0.17528 0.0
C12 C 0.141 0.3168 0.12268 0.0
O13 O 0.15392 0.35176 0.1337 0.0
O14 O 0.12409 0.2723 0.1275 0.0
O15 O 0.06925 0.27816 0.15984 0.0
O16 O 0.08784 0.2871 0.18597 0.0
O17 O 0.19018 0.31054 0.16028 0.0
C18 C 0.13802 0.19151 0.16852 0.0
C19 C 0.07051 0.29753 0.17358 0.0
Zn20 Zn 0.79665 0.86839 0.1858 0.0
Zn21 Zn 0.75564 0.87468 0.14727 0.0
C22 C 0.86764 0.83765 0.17981 0.0
O23 O 0.84012 0.80381 0.19061 0.0
C24 C 0.69014 0.90707 0.16271 0.0
O25 O 0.68035 0.8742 0.17425 0.0
O26 O 0.80905 0.86921 0.20995 0.0
O27 O 0.79836 0.9314 0.17915 0.0
O28 O 0.82529 0.92581 0.15491 0.0
C29 C 0.8514 0.8936 0.21664 0.0
O30 O 0.88957 0.92462 0.20778 0.0
O31 O 0.85451 0.86819 0.17511 0.0
C32 C 0.70997 0.84081 0.11709 0.0
O33 O 0.67237 0.82374 0.12726 0.0
O34 O 0.75364 0.86575 0.12286 0.0
O35 O 0.71661 0.80453 0.15623 0.0
O36 O 0.73487 0.8036 0.18216 0.0
O37 O 0.71777 0.9102 0.15087 0.0
C38 C 0.82587 0.9523 0.16686 0.0
C39 C 0.70905 0.78175 0.16971 0.0
Zn40 Zn 0.15129 0.93591 0.1886 0.0
Zn41 Zn 0.14715 0.88176 0.15088 0.0
C42 C 0.18554 0.03677 0.17997 0.0
O43 O 0.21968 0.04346 0.19068 0.0
C44 C 0.07739 0.78086 0.14939 0.0
O45 O 0.06143 0.79996 0.13829 0.0
O46 O 0.14856 0.95165 0.21251 0.0
O47 O 0.08944 0.87373 0.18223 0.0
O48 O 0.09544 0.90061 0.15707 0.0
C49 C 0.12421 0.97168 0.21776 0.0
O50 O 0.09628 0.97933 0.20753 0.0
O51 O 0.15319 0.99269 0.17619 0.0
C52 C 0.18203 0.86627 0.12068 0.0
O53 O 0.20171 0.849 0.1311 0.0
O54 O 0.15556 0.88361 0.12624 0.0
O55 O 0.2168 0.91796 0.15984 0.0
O56 O 0.21452 0.93547 0.18594 0.0
O57 O 0.1163 0.80975 0.15734 0.0
C58 C 0.06918 0.87946 0.16962 0.0
C59 C 0.23759 0.9325 0.17364 0.0
Zn60 Zn 0.21464 0.07344 0.31535 0.0
Zn61 Zn 0.24881 0.10991 0.35184 0.0
C62 C 0.14338 0.97019 0.32151 0.0
O63 O 0.16853 0.96368 0.30987 0.0
C64 C 0.29083 0.21094 0.35175 0.0
O65 O 0.25586 0.19427 0.3629 0.0
O66 O 0.20066 0.05924 0.2912 0.0
O67 O 0.20839 0.13223 0.32161 0.0
O68 O 0.18149 0.10144 0.34614 0.0
C69 C 0.15944 0.04781 0.28451 0.0
O70 O 0.12447 0.04827 0.29332 0.0
O71 O 0.15847 0.01395 0.32667 0.0
C72 C 0.30424 0.13094 0.38091 0.0
O73 O 0.33818 0.14181 0.36967 0.0
O74 O 0.25953 0.11428 0.37638 0.0
O75 O 0.26503 0.05714 0.34481 0.0
O76 O 0.28056 0.07808 0.31899 0.0
O77 O 0.29777 0.17966 0.34386 0.0
C78 C 0.18121 0.12663 0.33392 0.0
C79 C 0.28622 0.05778 0.33153 0.0
Zn80 Zn 0.93364 0.14903 0.31273 0.0
Zn81 Zn 0.87869 0.15118 0.35009 0.0
C82 C 0.03239 0.18308 0.32379 0.0
O83 O 0.04049 0.22116 0.3147 0.0
C84 C 0.78053 0.11301 0.3339 0.0
O85 O 0.80413 0.1361 0.32057 0.0
O86 O 0.94775 0.14249 0.28889 0.0
O87 O 0.86867 0.09101 0.31911 0.0
O88 O 0.89579 0.09778 0.34418 0.0
C89 C 0.97823 0.12878 0.28442 0.0
O90 O 0.99869 0.11397 0.29539 0.0
O91 O 0.98801 0.14828 0.32575 0.0
C92 C 0.86199 0.18245 0.38057 0.0
O93 O 0.83805 0.19658 0.37075 0.0
O94 O 0.88532 0.16251 0.37441 0.0
O95 O 0.91195 0.21939 0.33933 0.0
O96 O 0.93877 0.21473 0.31476 0.0
O97 O 0.80509 0.11685 0.3467 0.0
C98 C 0.87164 0.0707 0.33212 0.0
C99 C 0.93152 0.23912 0.32572 0.0
Zn100 Zn 0.85725 0.79867 0.31425 0.0
Zn101 Zn 0.85812 0.74924 0.35196 0.0
C102 C 0.828 0.86901 0.32176 0.0
O103 O 0.79146 0.83881 0.3122 0.0
C104 C 0.92496 0.7152 0.35438 0.0
O105 O 0.94222 0.75228 0.36476 0.0
O106 O 0.85866 0.81234 0.29017 0.0
O107 O 0.91666 0.7933 0.32044 0.0
O108 O 0.91302 0.81847 0.34512 0.0
C109 C 0.88452 0.85491 0.28374 0.0
O110 O 0.91637 0.89202 0.2928 0.0
O111 O 0.86124 0.85829 0.32529 0.0
C112 C 0.82866 0.70455 0.38327 0.0
O113 O 0.8083 0.66511 0.37385 0.0
O114 O 0.85247 0.74706 0.3766 0.0
O115 O 0.78702 0.71765 0.34359 0.0
O116 O 0.79033 0.74042 0.31791 0.0
O117 O 0.88602 0.70475 0.34636 0.0
C118 C 0.93863 0.81907 0.33292 0.0
C119 C 0.76587 0.71436 0.33001 0.0
Zn120 Zn 0.88194 0.73933 0.85588 0.0
Zn121 Zn 0.94463 0.78853 0.8184 0.0
C122 C 0.784 0.67702 0.84009 0.0
O123 O 0.80809 0.67493 0.82725 0.0
C124 C 0.04298 0.86631 0.82397 0.0
O125 O 0.05069 0.84073 0.81279 0.0
O126 O 0.88996 0.73785 0.88018 0.0
O127 O 0.91236 0.70016 0.84668 0.0
O128 O 0.94879 0.72797 0.82283 0.0
C129 C 0.87202 0.69406 0.88576 0.0
O130 O 0.85179 0.65678 0.87547 0.0
O131 O 0.80816 0.70067 0.85263 0.0
C132 C 0.96108 0.83978 0.78781 0.0
O133 O 0.95144 0.86934 0.79653 0.0
O134 O 0.9587 0.80187 0.7945 0.0
O135 O 0.8797 0.78472 0.82303 0.0
O136 O 0.90167 0.8091 0.84827 0.0
O137 O 0.99934 0.84905 0.82954 0.0
C138 C 0.93547 0.69697 0.8344 0.0
C139 C 0.88192 0.81158 0.83499 0.0
Zn140 Zn 0.25586 0.14744 0.85546 0.0
Zn141 Zn 0.20251 0.16031 0.81754 0.0
C142 C 0.3147 0.1092 0.83846 0.0
O143 O 0.31483 0.1336 0.82538 0.0
C144 C 0.12651 0.18237 0.82381 0.0
O145 O 0.15429 0.21842 0.8137 0.0
O146 O 0.25844 0.15548 0.87997 0.0
O147 O 0.29267 0.21746 0.84663 0.0
O148 O 0.26099 0.22515 0.82338 0.0
C149 C 0.30213 0.17936 0.8858 0.0
O150 O 0.33978 0.19646 0.87566 0.0
O151 O 0.29441 0.11272 0.85142 0.0
C152 C 0.15825 0.1268 0.78544 0.0
O153 O 0.13224 0.08405 0.79292 0.0
O154 O 0.19114 0.16368 0.79339 0.0
O155 O 0.20668 0.09932 0.8221 0.0
O156 O 0.18601 0.09761 0.84783 0.0
O157 O 0.14134 0.15292 0.8283 0.0
C158 C 0.2926 0.24366 0.83477 0.0
C159 C 0.18429 0.0748 0.83474 0.0
Zn160 Zn 0.84515 0.11754 0.85245 0.0
Zn161 Zn 0.8363 0.0535 0.81492 0.0
C162 C 0.91688 0.21723 0.8541 0.0
O163 O 0.93215 0.19671 0.86492 0.0
C164 C 0.82119 0.95636 0.82064 0.0
O165 O 0.78881 0.946 0.80888 0.0
O166 O 0.83779 0.11589 0.87702 0.0
O167 O 0.77573 0.08262 0.84367 0.0
O168 O 0.77054 0.04686 0.81986 0.0
C169 C 0.81221 0.13424 0.88255 0.0
O170 O 0.79271 0.15164 0.87211 0.0
O171 O 0.8775 0.18965 0.84617 0.0
C172 C 0.871 0.04018 0.78316 0.0
O173 O 0.91238 0.0528 0.79102 0.0
O174 O 0.83519 0.03973 0.79076 0.0
O175 O 0.89624 0.11903 0.82017 0.0
O176 O 0.89457 0.09653 0.84568 0.0
O177 O 0.84456 1.00041 0.8261 0.0
C178 C 0.75087 0.05842 0.83132 0.0
C179 C 0.91904 0.1191 0.83302 0.0
Zn180 Zn 0.71161 0.8675 0.64918 0.0
Zn181 Zn 0.77793 0.93287 0.68637 0.0
C182 C 0.66118 0.76923 0.66641 0.0
O183 O 0.66074 0.79165 0.67992 0.0
C184 C 0.84639 0.03316 0.6779 0.0
O185 O 0.81801 0.04103 0.68786 0.0
O186 O 0.70229 0.87219 0.62504 0.0
O187 O 0.67719 0.90077 0.66035 0.0
O188 O 0.71706 0.93699 0.68316 0.0
C189 C 0.65814 0.84857 0.61962 0.0
O190 O 0.62179 0.82434 0.63002 0.0
O191 O 0.67764 0.79411 0.65336 0.0
C192 C 0.83887 0.97009 0.71577 0.0
O193 O 0.8756 0.98312 0.70547 0.0
O194 O 0.79454 0.94588 0.71048 0.0
O195 O 0.77482 0.87018 0.67914 0.0
O196 O 0.7843 0.89018 0.65315 0.0
O197 O 0.83436 0.98875 0.67452 0.0
C198 C 0.68157 0.92523 0.67329 0.0
C199 C 0.79734 0.87558 0.66573 0.0
Zn200 Zn 0.12096 0.86226 0.6523 0.0
Zn201 Zn 0.05245 0.85717 0.68938 0.0
C202 C 0.22493 0.88686 0.6538 0.0
O203 O 0.2127 0.85472 0.64187 0.0
C204 C 0.97216 0.85367 0.66808 0.0
O205 O 0.98002 0.8267 0.65749 0.0
O206 O 0.12439 0.8563 0.62754 0.0
O207 O 0.07968 0.79156 0.66138 0.0
O208 O 0.03871 0.78951 0.68372 0.0
C209 C 0.12184 0.81749 0.62138 0.0
O210 O 0.11389 0.7808 0.63111 0.0
O211 O 0.19152 0.89293 0.66045 0.0
C212 C 0.02819 0.88273 0.72042 0.0
O213 O 0.02272 0.91459 0.71145 0.0
O214 O 0.04387 0.85628 0.71375 0.0
O215 O 0.1198 0.91271 0.68349 0.0
O216 O 0.10445 0.91688 0.65767 0.0
O217 O 0.99887 0.8693 0.6808 0.0
C218 C 0.0504 0.76766 0.67305 0.0
C219 C 0.12022 0.93823 0.6714 0.0
Zn220 Zn 0.13981 0.2437 0.65263 0.0
Zn221 Zn 0.13934 0.21378 0.68827 0.0
C222 C 0.08502 0.29076 0.65257 0.0
O223 O 0.0659 0.25707 0.64103 0.0
C224 C 0.17307 0.14392 0.68289 0.0
O225 O 0.20528 0.1715 0.69409 0.0
O226 O 0.14665 0.25409 0.62824 0.0
O227 O 0.2076 0.25754 0.65989 0.0
O228 O 0.20027 0.28011 0.68455 0.0
C229 C 0.17581 0.29846 0.62365 0.0
O230 O 0.20005 0.33235 0.63481 0.0
O231 O 0.1217 0.2946 0.66065 0.0
C232 C 0.11673 0.15672 0.71828 0.0
O233 O 0.08927 0.11957 0.70849 0.0
O234 O 0.13897 0.20055 0.71252 0.0
O235 O 0.07397 0.20628 0.68182 0.0
O236 O 0.07947 0.17749 0.65784 0.0
O237 O 0.14369 0.15748 0.67729 0.0
C238 C 0.22733 0.28294 0.67261 0.0
C239 C 0.05316 0.1786 0.66954 0.0
Zn240 Zn 0.7313 0.5515 0.52027 0.0
Zn241 Zn 0.79355 0.6196 0.48377 0.0
C242 C 0.63509 0.46964 0.51697 0.0
O243 O 0.62847 0.49675 0.52785 0.0
C244 C 0.892 0.64472 0.48538 0.0
O245 O 0.8729 0.6105 0.474 0.0
O246 O 0.72505 0.54225 0.54468 0.0
O247 O 0.79789 0.564 0.51304 0.0
O248 O 0.77442 0.54716 0.48755 0.0
C249 C 0.71557 0.50201 0.55168 0.0
O250 O 0.71426 0.46609 0.54289 0.0
O251 O 0.67777 0.48667 0.51063 0.0
C252 C 0.81565 0.67482 0.45386 0.0
O253 O 0.83347 0.71189 0.46425 0.0
O254 O 0.79602 0.63082 0.4594 0.0
O255 O 0.75096 0.64653 0.49307 0.0
O256 O 0.71554 0.60492 0.51565 0.0
O257 O 0.86445 0.65926 0.49192 0.0
C258 C 0.79356 0.53968 0.50016 0.0
C259 C 0.72323 0.6386 0.50541 0.0
Zn260 Zn 0.45126 0.18463 0.51879 0.0
Zn261 Zn 0.40232 0.19739 0.48025 0.0
C262 C 0.52676 0.16187 0.51211 0.0
O263 O 0.50114 0.1276 0.52304 0.0
C264 C 0.33581 0.22366 0.49762 0.0
O265 O 0.33457 0.19446 0.50939 0.0
O266 O 0.46298 0.18266 0.54297 0.0
O267 O 0.4451 0.24347 0.51316 0.0
O268 O 0.47164 0.25016 0.48804 0.0
C269 C 0.50443 0.20957 0.54997 0.0
O270 O 0.54127 0.24431 0.54152 0.0
O271 O 0.51105 0.19046 0.50751 0.0
C272 C 0.35409 0.1646 0.45022 0.0
O273 O 0.3173 0.14698 0.46072 0.0
O274 O 0.39825 0.18928 0.45567 0.0
O275 O 0.3661 0.12717 0.48928 0.0
O276 O 0.3921 0.12022 0.51374 0.0
O277 O 0.36084 0.22845 0.48485 0.0
C278 C 0.47537 0.26939 0.50207 0.0
C279 C 0.36271 0.10158 0.50179 0.0
Zn280 Zn 0.81653 0.28365 0.51668 0.0
Zn281 Zn 0.8001 0.20636 0.48081 0.0
C282 C 0.84 0.38249 0.50944 0.0
O283 O 0.87728 0.3913 0.51905 0.0
C284 C 0.77855 0.10557 0.49095 0.0
O285 O 0.82622 0.12171 0.48967 0.0
O286 O 0.82208 0.29831 0.54082 0.0
O287 O 0.75546 0.21825 0.51261 0.0
O288 O 0.75391 0.23263 0.48646 0.0
C289 C 0.79635 0.31319 0.54841 0.0
O290 O 0.76147 0.31661 0.54053 0.0
O291 O 0.8092 0.3378 0.50574 0.0
C292 C 0.8363 0.19124 0.45077 0.0
O293 O 0.85863 0.17714 0.46123 0.0
O294 O 0.80723 0.20556 0.45622 0.0
O295 O 0.8705 0.24039 0.48947 0.0
O296 O 0.88036 0.28769 0.51089 0.0
O297 O 0.76204 0.13482 0.4882 0.0
C298 C 0.73138 0.21723 0.5 0.0
C299 C 0.89771 0.27011 0.50054 0.0
Zn300 Zn 0.88687 0.39667 0.64778 0.0
Zn301 Zn 0.94597 0.45683 0.68501 0.0
C302 C 0.81108 0.29743 0.65435 0.0
O303 O 0.83972 0.28899 0.6447 0.0
C304 C 0.96901 0.55592 0.68485 0.0
O305 O 0.93217 0.53482 0.69529 0.0
O306 O 0.87593 0.38675 0.62349 0.0
O307 O 0.89384 0.46189 0.65418 0.0
O308 O 0.87416 0.43517 0.67932 0.0
C309 C 0.83466 0.37433 0.61669 0.0
O310 O 0.7982 0.37135 0.62558 0.0
O311 O 0.82478 0.34199 0.65818 0.0
C312 C 0.99265 0.47065 0.71632 0.0
O313 O 0.03223 0.48692 0.70708 0.0
O314 O 0.95079 0.45538 0.70952 0.0
O315 O 0.97871 0.41886 0.67629 0.0
O316 O 0.94377 0.38651 0.65255 0.0
O317 O 0.98479 0.52933 0.67833 0.0
C318 C 0.86987 0.45797 0.66712 0.0
C319 C 0.97569 0.39444 0.66349 0.0
Zn320 Zn 0.61495 0.47808 0.65049 0.0
Zn321 Zn 0.54007 0.46125 0.68686 0.0
C322 C 0.71373 0.50548 0.65855 0.0
O323 O 0.72101 0.54369 0.64969 0.0
C324 C 0.43955 0.38442 0.6823 0.0
O325 O 0.45758 0.35706 0.68779 0.0
O326 O 0.63164 0.48493 0.62653 0.0
O327 O 0.54994 0.41553 0.65395 0.0
O328 O 0.56171 0.41141 0.68022 0.0
C329 C 0.64884 0.46063 0.61931 0.0
O330 O 0.65276 0.42632 0.62739 0.0
O331 O 0.66941 0.47204 0.66159 0.0
C332 C 0.52118 0.4925 0.71668 0.0
O333 O 0.50339 0.51135 0.70612 0.0
O334 O 0.54016 0.4673 0.71132 0.0
O335 O 0.57625 0.53244 0.67894 0.0
O336 O 0.61881 0.54189 0.65639 0.0
O337 O 0.46809 0.43085 0.68053 0.0
C338 C 0.54827 0.39038 0.66636 0.0
C339 C 0.60397 0.55966 0.6675 0.0
Zn340 Zn 0.51921 0.11174 0.64677 0.0
Zn341 Zn 0.52064 0.07844 0.68309 0.0
C342 C 0.4889 0.18446 0.65312 0.0
O343 O 0.45936 0.16252 0.64067 0.0
C344 C 0.57547 0.03097 0.68449 0.0
O345 O 0.59495 0.06537 0.6958 0.0
O346 O 0.5175 0.12611 0.62276 0.0
O347 O 0.58506 0.11964 0.65259 0.0
O348 O 0.58009 0.14579 0.67714 0.0
C349 C 0.5428 0.16877 0.61631 0.0
O350 O 0.5757 0.20561 0.62524 0.0
O351 O 0.51446 0.16627 0.65869 0.0
C352 C 0.48352 0.02568 0.71238 0.0
O353 O 0.46005 0.99134 0.70128 0.0
O354 O 0.51337 0.06981 0.70766 0.0
O355 O 0.45084 0.05785 0.67571 0.0
O356 O 0.46058 0.04417 0.65015 0.0
O357 O 0.54019 0.02814 0.67588 0.0
C358 C 0.60604 0.14673 0.66496 0.0
C359 C 0.43298 0.03423 0.66255 0.0
Zn360 Zn 0.54631 0.06992 0.18694 0.0
Zn361 Zn 0.61056 0.12985 0.15062 0.0
C362 C 0.4431 0.9913 0.18521 0.0
O363 O 0.45471 0.97313 0.19779 0.0
C364 C 0.70724 0.19877 0.16141 0.0
O365 O 0.7165 0.16891 0.1527 0.0
O366 O 0.54169 0.06048 0.21151 0.0
O367 O 0.58724 0.04083 0.17849 0.0
O368 O 0.62021 0.07205 0.15443 0.0
C369 C 0.54494 0.02483 0.21781 0.0
O370 O 0.55427 0.99658 0.20829 0.0
O371 O 0.47663 0.03009 0.17827 0.0
C372 C 0.65356 0.19154 0.12162 0.0
O373 O 0.66882 0.22833 0.13204 0.0
O374 O 0.62604 0.14721 0.1266 0.0
O375 O 0.54429 0.12197 0.15614 0.0
O376 O 0.56488 0.1409 0.18181 0.0
O377 O 0.66253 0.1881 0.1632 0.0
C378 C 0.61214 0.04212 0.16606 0.0
C379 C 0.54601 0.1464 0.16877 0.0
Zn380 Zn 0.94262 0.48329 0.18727 0.0
Zn381 Zn 0.87431 0.47358 0.14889 0.0
C382 C 0.97 0.40845 0.18532 0.0
O383 O 0.92691 0.38307 0.1926 0.0
C384 C 0.79513 0.47451 0.16974 0.0
O385 O 0.82779 0.49563 0.18147 0.0
O386 O 0.94891 0.4952 0.21163 0.0
O387 O 0.9696 0.55119 0.17626 0.0
O388 O 0.92749 0.542 0.15349 0.0
C389 C 0.99126 0.51766 0.21844 0.0
O390 O 0.03102 0.53376 0.2093 0.0
O391 O 0.98626 0.4538 0.18173 0.0
C392 C 0.82608 0.43978 0.11776 0.0
O393 O 0.78907 0.40814 0.12689 0.0
O394 O 0.86738 0.46912 0.12448 0.0
O395 O 0.88791 0.42159 0.15724 0.0
O396 O 0.8715 0.42834 0.18281 0.0
O397 O 0.80803 0.46301 0.15649 0.0
C398 C 0.96159 0.56915 0.1634 0.0
C399 C 0.86303 0.40215 0.17003 0.0
Zn400 Zn 0.52341 0.47039 0.18895 0.0
Zn401 Zn 0.52189 0.39946 0.15204 0.0
C402 C 0.56949 0.56837 0.17209 0.0
O403 O 0.55475 0.54337 0.15837 0.0
C404 C 0.49412 0.29939 0.15856 0.0
O405 O 0.46059 0.29253 0.14756 0.0
O406 O 0.51031 0.46175 0.21306 0.0
O407 O 0.45489 0.43592 0.17816 0.0
O408 O 0.45755 0.39634 0.15605 0.0
C409 C 0.48944 0.48316 0.21989 0.0
O410 O 0.47597 0.50925 0.21084 0.0
O411 O 0.55867 0.54479 0.18551 0.0
C412 C 0.54497 0.36631 0.1216 0.0
O413 O 0.57597 0.35956 0.13061 0.0
O414 O 0.52146 0.38571 0.12798 0.0
O415 O 0.58267 0.46267 0.15817 0.0
O416 O 0.57507 0.44971 0.18459 0.0
O417 O 0.52379 0.34322 0.16339 0.0
C418 C 0.43427 0.40956 0.1656 0.0
C419 C 0.60074 0.45924 0.17164 0.0
Zn420 Zn 0.40162 0.22696 0.98464 0.0
Zn421 Zn 0.4617 0.27999 0.023 0.0
C422 C 0.37141 0.12808 0.98292 0.0
O423 O 0.40584 0.14905 0.97168 0.0
C424 C 0.54625 0.36107 0.00372 0.0
O425 O 0.51753 0.35181 0.99094 0.0
O426 O 0.39051 0.22671 0.9603 0.0
O427 O 0.374 0.26773 0.99435 0.0
O428 O 0.41029 0.29794 0.01807 0.0
C429 C 0.34567 0.20692 0.95555 0.0
O430 O 0.31046 0.18983 0.96661 0.0
O431 O 0.3605 0.1554 0.99143 0.0
C432 C 0.5058 0.29176 0.05484 0.0
O433 O 0.54278 0.29425 0.04638 0.0
O434 O 0.46581 0.28141 0.0475 0.0
O435 O 0.45136 0.21536 0.01428 0.0
O436 O 0.47261 0.24352 0.98928 0.0
O437 O 0.529 0.33533 0.01656 0.0
C438 C 0.37914 0.29264 0.00719 0.0
C439 C 0.47585 0.21983 1.00141 0.0
Zn440 Zn 0.78174 0.18449 0.98362 0.0
Zn441 Zn 0.71923 0.18453 0.02085 0.0
C442 C 0.87939 0.22572 1.00005 0.0
O443 O 0.85635 0.1989 0.01291 0.0
C444 C 0.62189 0.16004 0.01153 0.0
O445 O 0.61186 0.12306 0.02146 0.0
O446 O 0.77424 0.173 0.95928 0.0
O447 O 0.75076 0.11677 0.99454 0.0
O448 O 0.71417 0.1195 0.01736 0.0
C449 C 0.79626 0.15194 0.95293 0.0
O450 O 0.82029 0.13744 0.96257 0.0
O451 O 0.85516 0.22167 0.98715 0.0
C452 C 0.72415 0.22149 0.05446 0.0
O453 O 0.7611 0.26365 0.04918 0.0
O454 O 0.7028 0.18513 0.04468 0.0
O455 O 0.78536 0.24244 0.01577 0.0
O456 O 0.76277 0.23599 0.99014 0.0
O457 O 0.66699 0.19093 0.00844 0.0
C458 C 0.72655 0.09634 0.00747 0.0
C459 C 0.78822 0.26266 0.00209 0.0
Zn460 Zn 0.82953 0.60631 0.98594 0.0
Zn461 Zn 0.82718 0.5395 0.02129 0.0
C462 C 0.75601 0.63192 0.9849 0.0
O463 O 0.74156 0.59717 0.97371 0.0
C464 C 0.85519 0.46994 0.01113 0.0
O465 O 0.89226 0.49746 0.02094 0.0
O466 O 0.84044 0.61594 0.96178 0.0
O467 O 0.89812 0.63838 0.99629 0.0
O468 O 0.89324 0.5985 0.01912 0.0
C469 C 0.86119 0.65949 0.95586 0.0
O470 O 0.87608 0.69734 0.96584 0.0
O471 O 0.79619 0.64471 0.99247 0.0
C472 C 0.79786 0.47578 0.05003 0.0
O473 O 0.77005 0.44001 0.03984 0.0
O474 O 0.82292 0.52006 0.04483 0.0
O475 O 0.77033 0.54872 0.01551 0.0
O476 O 0.77649 0.53423 0.98979 0.0
O477 O 0.82308 0.4828 0.0084 0.0
C478 C 0.9178 0.63358 0.00924 0.0
C479 C 0.7503 0.52456 0.00262 0.0
Zn480 Zn 0.38729 0.88125 0.85097 0.0
Zn481 Zn 0.44349 0.93249 0.81224 0.0
C482 C 0.28937 0.80323 0.84517 0.0
O483 O 0.28037 0.82959 0.8557 0.0
C484 C 0.54073 0.99421 0.82865 0.0
O485 O 0.51685 0.99409 0.84186 0.0
O486 O 0.37602 0.86981 0.87527 0.0
O487 O 0.45233 0.8877 0.84487 0.0
O488 O 0.42692 0.8633 0.81978 0.0
C489 C 0.38087 0.83712 0.88302 0.0
O490 O 0.39625 0.81053 0.87518 0.0
O491 O 0.33363 0.81957 0.84045 0.0
C492 C 0.45956 0.97986 0.78203 0.0
O493 O 0.47993 0.01717 0.79232 0.0
O494 O 0.43839 0.9359 0.78773 0.0
O495 O 0.40967 0.96818 0.82168 0.0
O496 O 0.37857 0.93875 0.84605 0.0
O497 O 0.51654 0.97256 0.81591 0.0
C498 C 0.45085 0.86303 0.83234 0.0
C499 C 0.38716 0.96903 0.8345 0.0
Zn500 Zn 0.12713 0.52243 0.85535 0.0
Zn501 Zn 0.06419 0.51596 0.81753 0.0
C502 C 0.20215 0.49945 0.84724 0.0
O503 O 0.1738 0.46141 0.85659 0.0
C504 C 0.00229 0.55256 0.83366 0.0
O505 O 0.00586 0.53267 0.84735 0.0
O506 O 0.13919 0.52477 0.87963 0.0
O507 O 0.11526 0.57719 0.84867 0.0
O508 O 0.13404 0.57108 0.82332 0.0
C509 C 0.181 0.55191 0.88638 0.0
O510 O 0.21865 0.58311 0.87737 0.0
O511 O 0.18867 0.531 0.84426 0.0
C512 C 0.01698 0.48215 0.78711 0.0
O513 O 0.97894 0.46637 0.79702 0.0
O514 O 0.06038 0.5044 0.79318 0.0
O515 O 0.0322 0.44774 0.82832 0.0
O516 O 0.0713 0.45508 0.85154 0.0
O517 O 0.02227 0.54772 0.82083 0.0
C518 C 0.13819 0.59777 0.83564 0.0
C519 C 0.03749 0.42901 0.84143 0.0
Zn520 Zn 0.48943 0.61902 0.8512 0.0
Zn521 Zn 0.47756 0.55159 0.81481 0.0
C522 C 0.51142 0.71762 0.84461 0.0
O523 O 0.54581 0.72625 0.85546 0.0
C524 C 0.44094 0.45342 0.83178 0.0
O525 O 0.47746 0.47376 0.84234 0.0
O526 O 0.49184 0.63355 0.87517 0.0
O527 O 0.42899 0.55389 0.84652 0.0
O528 O 0.43005 0.57608 0.82106 0.0
C529 C 0.45912 0.6382 0.88293 0.0
O530 O 0.4184 0.6297 0.8754 0.0
O531 O 0.48333 0.67325 0.8399 0.0
C532 C 0.50638 0.52652 0.78592 0.0
O533 O 0.52164 0.50732 0.79721 0.0
O534 O 0.48522 0.55055 0.79041 0.0
O535 O 0.54739 0.58242 0.82392 0.0
O536 O 0.55392 0.62337 0.84665 0.0
O537 O 0.43808 0.47945 0.82041 0.0
C538 C 0.40586 0.55465 0.83391 0.0
C539 C 0.57269 0.60826 0.83599 0.0
Zn540 Zn 0.54361 0.72465 0.9821 0.0
Zn541 Zn 0.60892 0.7864 0.01866 0.0
C542 C 0.46366 0.62842 0.98792 0.0
O543 O 0.49081 0.61926 0.97781 0.0
C544 C 0.64342 0.88657 0.02034 0.0
O545 O 0.61024 0.86763 0.03203 0.0
O546 O 0.53212 0.71652 0.95781 0.0
O547 O 0.55779 0.79233 0.98877 0.0
O548 O 0.53823 0.77074 0.0143 0.0
C549 C 0.49015 0.70053 0.95102 0.0
O550 O 0.45181 0.69211 0.96002 0.0
O551 O 0.48012 0.67275 0.99269 0.0
C552 C 0.66566 0.80787 0.04756 0.0
O553 O 0.70062 0.82485 0.03642 0.0
O554 O 0.62068 0.78739 0.04293 0.0
O555 O 0.63592 0.74511 0.009 0.0
O556 O 0.59748 0.70934 0.98604 0.0
O557 O 0.65101 0.85748 0.01152 0.0
C558 C 0.53323 0.79032 1.00135 0.0
C559 C 0.63038 0.71811 0.99668 0.0
Zn560 Zn 0.28707 0.82503 0.98176 0.0
Zn561 Zn 0.2277 0.82971 0.01918 0.0
C562 C 0.38434 0.84698 0.99018 0.0
O563 O 0.39471 0.88424 0.98034 0.0
C564 C 0.12823 0.761 0.02179 0.0
O565 O 0.1492 0.74644 0.03268 0.0
O566 O 0.29891 0.82281 0.95745 0.0
O567 O 0.22023 0.76975 0.98795 0.0
O568 O 0.24284 0.77457 0.01355 0.0
C569 C 0.32055 0.80096 0.95141 0.0
O570 O 0.33219 0.77465 0.96104 0.0
O571 O 0.33925 0.81667 0.99347 0.0
C572 C 0.20753 0.85907 0.0502 0.0
O573 O 0.18518 0.87541 0.04054 0.0
O574 O 0.23039 0.8389 0.04381 0.0
O575 O 0.26561 0.89843 0.00898 0.0
O576 O 0.29729 0.89197 0.98559 0.0
O577 O 0.15555 0.79936 0.01335 0.0
C578 C 0.22045 0.74844 1.0011 0.0
C579 C 0.28942 0.91759 0.99587 0.0
Zn580 Zn 0.17334 0.46222 0.98538 0.0
Zn581 Zn 0.18638 0.40988 0.02237 0.0
C582 C 0.15389 0.53972 0.9925 0.0
O583 O 0.11777 0.51357 0.98219 0.0
C584 C 0.25918 0.3837 0.02116 0.0
O585 O 0.27698 0.42059 0.03163 0.0
O586 O 0.17273 0.4751 0.96122 0.0
O587 O 0.23166 0.45417 0.99018 0.0
O588 O 0.2375 0.48023 0.01533 0.0
C589 C 0.20452 0.51609 0.95484 0.0
O590 O 0.23973 0.54964 0.9641 0.0
O591 O 0.18247 0.52354 0.99664 0.0
C592 C 0.16068 0.36027 0.05283 0.0
O593 O 0.14128 0.32272 0.04262 0.0
O594 O 0.18306 0.40408 0.04703 0.0
O595 O 0.11488 0.37624 0.01471 0.0
O596 O 0.10749 0.40502 0.99083 0.0
O597 O 0.21679 0.36943 0.01495 0.0
C598 C 0.25799 0.48191 1.00172 0.0
C599 C 0.08855 0.3755 0.00275 0.0
Zn600 Zn 0.20193 0.39636 0.52481 0.0
Zn601 Zn 0.25772 0.44456 0.48636 0.0
C602 C 0.10782 0.33501 0.50709 0.0
O603 O 0.13453 0.3312 0.49541 0.0
C604 C 0.35759 0.52109 0.49079 0.0
O605 O 0.36435 0.49465 0.47967 0.0
O606 O 0.20632 0.39144 0.54917 0.0
O607 O 0.23462 0.35969 0.51572 0.0
O608 O 0.26449 0.38568 0.49099 0.0
C609 C 0.18616 0.34723 0.55455 0.0
O610 O 0.16502 0.31045 0.54409 0.0
O611 O 0.12909 0.35879 0.51998 0.0
C612 C 0.27893 0.49575 0.45503 0.0
O613 O 0.27999 0.53201 0.46355 0.0
O614 O 0.26727 0.45498 0.46209 0.0
O615 O 0.19471 0.4415 0.49328 0.0
O616 O 0.22358 0.46704 0.51795 0.0
O617 O 0.31426 0.50534 0.49638 0.0
C618 C 0.25588 0.35663 0.50293 0.0
C619 C 0.2012 0.46965 0.50534 0.0
Zn620 Zn 0.57895 0.80972 0.51829 0.0
Zn621 Zn 0.54833 0.81509 0.48211 0.0
C622 C 0.61739 0.74606 0.51795 0.0
O623 O 0.5807 0.72578 0.52847 0.0
C624 C 0.47434 0.84449 0.48718 0.0
O625 O 0.49409 0.86947 0.47371 0.0
O626 O 0.58255 0.81201 0.54286 0.0
O627 O 0.60448 0.8814 0.51158 0.0
O628 O 0.6171 0.87175 0.48583 0.0
C629 C 0.62494 0.83874 0.54931 0.0
O630 O 0.66342 0.86339 0.5397 0.0
O631 O 0.62645 0.78645 0.51113 0.0
C632 C 0.50286 0.78127 0.44983 0.0
O633 O 0.47575 0.73815 0.45697 0.0
O634 O 0.53566 0.81739 0.45806 0.0
O635 O 0.53747 0.74792 0.48748 0.0
O636 O 0.51071 0.75387 0.51169 0.0
O637 O 0.49411 0.82171 0.49383 0.0
C638 C 0.62848 0.89873 0.49844 0.0
C639 C 0.50874 0.72746 0.49953 0.0
Zn640 Zn 0.19305 0.79434 0.52165 0.0
Zn641 Zn 0.19197 0.72996 0.48444 0.0
C642 C 0.22485 0.8895 0.50398 0.0
O643 O 0.20543 0.86401 0.49057 0.0
C644 C 0.16783 0.63311 0.49146 0.0
O645 O 0.1334 0.6274 0.48103 0.0
O646 O 0.18199 0.78949 0.54614 0.0
O647 O 0.12344 0.75543 0.51181 0.0
O648 O 0.1246 0.71826 0.4889 0.0
C649 C 0.16126 0.81258 0.55196 0.0
O650 O 0.14848 0.83712 0.5419 0.0
O651 O 0.22187 0.86681 0.51715 0.0
C652 C 0.22108 0.70341 0.45403 0.0
O653 O 0.25528 0.70243 0.46313 0.0
O654 O 0.19219 0.71653 0.46039 0.0
O655 O 0.24817 0.79742 0.48986 0.0
O656 O 0.25005 0.78134 0.5158 0.0
O657 O 0.19964 0.67687 0.4958 0.0
C658 C 0.10143 0.7282 0.49956 0.0
C659 C 0.27255 0.79762 0.50225 0.0
Zn660 Zn 0.06324 0.55316 0.31992 0.0
Zn661 Zn 0.12171 0.60208 0.3577 0.0
C662 C 0.02418 0.45172 0.31602 0.0
O663 O 0.05879 0.47091 0.30478 0.0
C664 C 0.20042 0.69923 0.35133 0.0
O665 O 0.1754 0.7088 0.36223 0.0
O666 O 0.05853 0.55807 0.29535 0.0
O667 O 0.03553 0.59422 0.33 0.0
O668 O 0.06754 0.61693 0.35467 0.0
C669 C 0.01537 0.53964 0.28919 0.0
O670 O 0.97708 0.52114 0.29908 0.0
O671 O 0.0175 0.48075 0.32521 0.0
C672 C 0.18012 0.62626 0.38757 0.0
O673 O 0.21544 0.63098 0.37771 0.0
O674 O 0.13701 0.61136 0.38181 0.0
O675 O 0.10811 0.53522 0.35031 0.0
O676 O 0.13205 0.56445 0.32563 0.0
O677 O 0.18319 0.65476 0.3466 0.0
C678 C 0.03805 0.61479 0.34365 0.0
C679 C 0.13282 0.53877 0.33759 0.0
Zn680 Zn 0.45202 0.51792 0.32104 0.0
Zn681 Zn 0.38372 0.51304 0.35711 0.0
C682 C 0.55236 0.59115 0.32009 0.0
O683 O 0.53261 0.60574 0.30877 0.0
C684 C 0.28533 0.4873 0.3487 0.0
O685 O 0.27686 0.44936 0.35792 0.0
O686 O 0.45169 0.51189 0.2966 0.0
O687 O 0.41467 0.44701 0.32946 0.0
O688 O 0.37662 0.44714 0.3522 0.0
C689 C 0.4688 0.48598 0.2905 0.0
O690 O 0.48502 0.46404 0.30039 0.0
O691 O 0.52432 0.55142 0.32786 0.0
C692 C 0.34986 0.53403 0.3878 0.0
O693 O 0.34314 0.56543 0.379 0.0
O694 O 0.3687 0.51038 0.38114 0.0
O695 O 0.4494 0.57337 0.35245 0.0
O696 O 0.42957 0.56737 0.32656 0.0
O697 O 0.33002 0.51979 0.34568 0.0
C698 C 0.38784 0.42443 0.34171 0.0
C699 C 0.45168 0.594 0.3389 0.0
Zn700 Zn 0.46936 0.92939 0.3166 0.0
Zn701 Zn 0.49117 0.87579 0.35304 0.0
C702 C 0.38932 0.94846 0.32165 0.0
O703 O 0.3636 0.90289 0.31613 0.0
C704 C 0.51711 0.80292 0.34491 0.0
O705 O 0.55456 0.83185 0.35438 0.0
O706 O 0.47647 0.93488 0.29221 0.0
O707 O 0.53994 0.96525 0.32459 0.0
O708 O 0.55483 0.93675 0.34734 0.0
C709 C 0.49716 0.97881 0.28657 0.0
O710 O 0.50976 0.01584 0.29674 0.0
O711 O 0.43612 0.96856 0.32299 0.0
C712 C 0.46923 0.81834 0.38264 0.0
O713 O 0.43828 0.78272 0.37292 0.0
O714 O 0.49455 0.86215 0.377 0.0
O715 O 0.42866 0.87786 0.34922 0.0
O716 O 0.423 0.85789 0.32331 0.0
O717 O 0.48582 0.81629 0.34134 0.0
C718 C 0.56951 0.96769 0.33568 0.0
C719 C 0.40358 0.85051 0.33741 0.0
C720 C 0.1257 0.10732 0.16254 0.0
C721 C 0.15505 0.155 0.16911 0.0
C722 C 0.13731 0.06984 0.16538 0.0
C723 C 0.17895 0.07886 0.17478 0.0
H724 H 0.09207 0.09812 0.15593 0.0
H725 H 0.1122 0.03303 0.16075 0.0
S726 S 0.27207 0.20039 0.19225 0.0
N727 N 0.23037 0.2111 0.18371 0.0
N728 N 0.25282 0.14121 0.1889 0.0
C729 C 0.21052 0.12755 0.18036 0.0
C730 C 0.19837 0.16546 0.17759 0.0
C731 C 0.94813 0.07359 0.16418 0.0
C732 C 0.93842 0.10696 0.17288 0.0
C733 C 0.91097 0.02413 0.16156 0.0
C734 C 0.86284 0.00592 0.16772 0.0
H735 H 0.98518 0.08515 0.15985 0.0
H736 H 0.92064 0.99945 0.15535 0.0
S737 S 0.81565 0.07895 0.18909 0.0
N738 N 0.87491 0.11892 0.18595 0.0
N739 N 0.80579 0.02592 0.18128 0.0
C740 C 0.8518 0.0393 0.1756 0.0
C741 C 0.88935 0.08981 0.17809 0.0
C742 C 0.98465 0.82914 0.18136 0.0
C743 C 0.01665 0.86644 0.17051 0.0
C744 C 0.93581 0.81852 0.18365 0.0
C745 C 0.9171 0.8452 0.17534 0.0
H746 H 0.99768 0.8084 0.18836 0.0
H747 H 0.91321 0.79026 0.19246 0.0
S748 S 0.98533 0.94518 0.14493 0.0
N749 N 0.02576 0.92873 0.15079 0.0
N750 N 0.93398 0.9092 0.15516 0.0
C751 C 0.94823 0.88153 0.164 0.0
C752 C 0.99797 0.89202 0.16156 0.0
C753 C 0.10025 0.12041 0.34095 0.0
C754 C 0.14663 0.14605 0.33323 0.0
C755 C 0.06433 0.13434 0.33853 0.0
C756 C 0.07372 0.17481 0.32846 0.0
H757 H 0.09068 0.08785 0.34826 0.0
H758 H 0.02829 0.11203 0.34412 0.0
S759 S 0.19241 0.25822 0.30735 0.0
N760 N 0.2021 0.21661 0.31649 0.0
N761 N 0.13504 0.24326 0.31201 0.0
C762 C 0.1213 0.20275 0.32156 0.0
C763 C 0.1576 0.18818 0.3239 0.0
C764 C 0.8761 0.95173 0.33553 0.0
C765 C 0.83447 0.91807 0.32633 0.0
C766 C 0.88671 1.00061 0.33817 0.0
C767 C 0.85634 0.01763 0.33156 0.0
H768 H 0.90174 0.94087 0.34026 0.0
H769 H 0.92018 0.02584 0.34473 0.0
S770 S 0.73961 0.94343 0.30854 0.0
N771 N 0.75996 0.9045 0.31212 0.0
N772 N 0.78067 0.99649 0.3169 0.0
C773 C 0.81333 0.98392 0.32314 0.0
C774 C 0.80215 0.93408 0.32059 0.0
C775 C 0.01235 0.90253 0.33875 0.0
C776 C 0.99244 0.85494 0.33192 0.0
C777 C 0.06197 0.93897 0.33599 0.0
C778 C 0.09365 0.92902 0.32641 0.0
H779 H 0.98886 0.91246 0.34561 0.0
H780 H 0.07491 0.97576 0.34087 0.0
S781 S 0.06104 0.80713 0.3082 0.0
N782 N 0.00921 0.79787 0.31682 0.0
N783 N 0.10244 0.86572 0.3118 0.0
C784 C 0.07483 0.88039 0.32048 0.0
C785 C 0.02425 0.84356 0.32317 0.0
C786 C 0.82759 0.8379 0.82125 0.0
C787 C 0.86491 0.84786 0.83274 0.0
C788 C 0.81252 0.87246 0.81794 0.0
C789 C 0.83454 0.9188 0.82584 0.0
H790 H 0.81006 0.80314 0.81462 0.0
H791 H 0.78416 0.86307 0.80878 0.0
S792 S 0.93383 0.96283 0.85718 0.0
N793 N 0.92307 0.90684 0.85231 0.0
N794 N 0.89523 0.9723 0.84602 0.0
C795 C 0.87131 0.92887 0.83765 0.0
C796 C 0.88635 0.8933 0.84112 0.0
C797 C 0.1071 0.99602 0.84228 0.0
C798 C 0.15144 0.02051 0.83333 0.0
C799 C 0.073 0.9456 0.83964 0.0
C800 C 0.08229 0.91767 0.82809 0.0
H801 H 0.09767 0.01637 0.8509 0.0
H802 H 0.03848 0.92886 0.84638 0.0
S803 S 0.19632 0.96368 0.80298 0.0
N804 N 0.20496 0.01251 0.81352 0.0
N805 N 0.14158 0.91794 0.80863 0.0
C806 C 0.12791 0.94133 0.81971 0.0
C807 C 0.16225 0.99269 0.8223 0.0
C808 C 0.99485 0.11505 0.84016 0.0
C809 C 0.97306 0.13945 0.83228 0.0
C810 C 0.04512 0.13049 0.8379 0.0
C811 C 0.07553 0.1713 0.82785 0.0
H812 H 0.97246 0.08249 0.84754 0.0
H813 H 0.05975 0.10921 0.84368 0.0
S814 S 0.03713 0.25214 0.80659 0.0
N815 N 0.9861 0.20912 0.81547 0.0
N816 N 0.08072 0.23896 0.8114 0.0
C817 C 0.05463 0.1979 0.82077 0.0
C818 C 0.00334 0.18172 0.82292 0.0
C819 C 0.87125 0.88217 0.67982 0.0
C820 C 0.84292 0.87197 0.66554 0.0
C821 C 0.91357 0.87747 0.68028 0.0
C822 C 0.929 0.86145 0.66655 0.0
H823 H 0.86064 0.89386 0.6908 0.0
H824 H 0.93363 0.88542 0.69169 0.0
S825 S 0.86743 0.83009 0.62607 0.0
N826 N 0.83329 0.84584 0.63721 0.0
N827 N 0.91258 0.83601 0.63811 0.0
C828 C 0.90119 0.85149 0.6521 0.0
C829 C 0.8583 0.85705 0.65158 0.0
C830 C 0.137 0.06734 0.66537 0.0
C831 C 0.1642 0.09329 0.67927 0.0
C832 C 0.12403 0.01767 0.6626 0.0
C833 C 0.13698 0.99176 0.67379 0.0
H834 H 0.125 0.08531 0.65665 0.0
H835 H 0.1025 0.9991 0.65186 0.0
S836 S 0.20871 0.04292 0.71208 0.0
N837 N 0.20433 0.08932 0.70421 0.0
N838 N 0.1798 0.99652 0.69916 0.0
C839 C 0.16491 0.01763 0.68761 0.0
C840 C 0.17857 0.0682 0.69031 0.0
C841 C 0.92822 0.06313 0.66425 0.0
C842 C 0.89662 0.07381 0.67354 0.0
C843 C 0.97847 0.09819 0.6623 0.0
C844 C 0.99906 0.14504 0.66968 0.0
H845 H 0.91463 0.02668 0.65898 0.0
H846 H 0.0018 0.08758 0.65565 0.0
S847 S 0.93133 0.19482 0.69289 0.0
N848 N 0.88877 0.13725 0.68846 0.0
N849 N 0.98341 0.20281 0.68488 0.0
C850 C 0.96747 0.15751 0.67806 0.0
C851 C 0.91617 0.122 0.67994 0.0
C852 C 0.85874 0.46997 0.51259 0.0
C853 C 0.83036 0.42329 0.50514 0.0
C854 C 0.84715 0.50762 0.5105 0.0
C855 C 0.80724 0.50058 0.50066 0.0
H856 H 0.88928 0.47717 0.52059 0.0
H857 H 0.86933 0.54243 0.51685 0.0
S858 S 0.72318 0.387 0.47746 0.0
N859 N 0.76166 0.37313 0.4868 0.0
N860 N 0.74063 0.44463 0.48272 0.0
C861 C 0.77986 0.45513 0.4925 0.0
C862 C 0.79121 0.41631 0.49479 0.0
C863 C 0.55493 0.34724 0.49483 0.0
C864 C 0.51624 0.32029 0.50601 0.0
C865 C 0.59356 0.39539 0.49845 0.0
C866 C 0.59454 0.41867 0.51327 0.0
H867 H 0.55556 0.33102 0.48321 0.0
H868 H 0.62253 0.41471 0.48949 0.0
S869 S 0.50407 0.36339 0.54717 0.0
N870 N 0.48292 0.32027 0.53291 0.0
N871 N 0.55493 0.41022 0.53954 0.0
C872 C 0.55654 0.39196 0.52463 0.0
C873 C 0.51759 0.34296 0.52105 0.0
C874 C 0.60157 0.15455 0.51734 0.0
C875 C 0.57698 0.17235 0.50745 0.0
C876 C 0.65112 0.16856 0.51454 0.0
C877 C 0.67799 0.20038 0.50161 0.0
H878 H 0.58305 0.13099 0.52772 0.0
H879 H 0.66871 0.15477 0.52276 0.0
S880 S 0.62954 0.25389 0.47127 0.0
N881 N 0.58231 0.22129 0.48361 0.0
N882 N 0.67555 0.24704 0.4782 0.0
C883 C 0.65333 0.21673 0.49115 0.0
C884 C 0.60284 0.20293 0.49413 0.0
C885 C 0.78454 0.4424 0.67305 0.0
C886 C 0.8323 0.47352 0.66683 0.0
C887 C 0.74678 0.45402 0.67091 0.0
C888 C 0.75571 0.49752 0.66268 0.0
H889 H 0.77568 0.40776 0.67892 0.0
H890 H 0.70998 0.42786 0.67529 0.0
S891 S 0.87729 0.59467 0.64639 0.0
N892 N 0.88815 0.55154 0.6536 0.0
N893 N 0.81799 0.57434 0.64988 0.0
C894 C 0.80441 0.53041 0.65736 0.0
C895 C 0.84249 0.51812 0.65934 0.0
C896 C 0.48193 0.26026 0.64881 0.0
C897 C 0.49981 0.23478 0.65826 0.0
C898 C 0.49714 0.31017 0.65177 0.0
C899 C 0.53032 0.33665 0.66445 0.0
H900 H 0.45732 0.24218 0.63861 0.0
H901 H 0.48316 0.32834 0.64389 0.0
S902 S 0.5857 0.28674 0.69351 0.0
N903 N 0.55094 0.23951 0.68141 0.0
N904 N 0.5789 0.33322 0.68706 0.0
C905 C 0.54686 0.31124 0.67448 0.0
C906 C 0.53179 0.26039 0.67136 0.0
C907 C 0.72841 0.26726 0.66777 0.0
C908 C 0.76079 0.25672 0.65885 0.0
C909 C 0.67882 0.23078 0.67047 0.0
C910 C 0.65971 0.18264 0.66419 0.0
H911 H 0.7409 0.30438 0.67226 0.0
H912 H 0.65477 0.241 0.67683 0.0
S913 S 0.72991 0.13366 0.64205 0.0
N914 N 0.77082 0.19262 0.64529 0.0
N915 N 0.6776 0.1247 0.65018 0.0
C916 C 0.69208 0.17083 0.65603 0.0
C917 C 0.74263 0.20768 0.65342 0.0
C918 C 0.49933 0.18105 0.15454 0.0
C919 C 0.53007 0.18389 0.16756 0.0
C920 C 0.48603 0.21738 0.15223 0.0
C921 C 0.50339 0.25845 0.16272 0.0
H922 H 0.48585 0.15079 0.14587 0.0
H923 H 0.46342 0.21404 0.14174 0.0
S924 S 0.58132 0.28145 0.19949 0.0
N925 N 0.57474 0.22947 0.19179 0.0
N926 N 0.55028 0.29831 0.18726 0.0
C927 C 0.5327 0.26097 0.17614 0.0
C928 C 0.54584 0.22354 0.17862 0.0
C929 C 0.8313 0.31673 0.15968 0.0
C930 C 0.8244 0.34942 0.16968 0.0
C931 C 0.7941 0.2673 0.15787 0.0
C932 C 0.74807 0.24882 0.16573 0.0
H933 H 0.86556 0.32964 0.15298 0.0
H934 H 0.80091 0.24411 0.14965 0.0
S935 S 0.71248 0.31916 0.19391 0.0
N936 N 0.76947 0.35977 0.1882 0.0
N937 N 0.69858 0.26677 0.18456 0.0
C938 C 0.74123 0.28081 0.1762 0.0
C939 C 0.77966 0.33114 0.17825 0.0
C940 C 0.71642 0.45987 0.15671 0.0
C941 C 0.74469 0.46822 0.17098 0.0
C942 C 0.67005 0.45677 0.15711 0.0
C943 C 0.6494 0.46119 0.17183 0.0
H944 H 0.73059 0.45672 0.14498 0.0
H945 H 0.65035 0.45102 0.14571 0.0
S946 S 0.70682 0.4805 0.21284 0.0
N947 N 0.74775 0.47904 0.2004 0.0
N948 N 0.66018 0.47266 0.20121 0.0
C949 C 0.67657 0.4682 0.18629 0.0
C950 C 0.72424 0.47189 0.18586 0.0
C951 C 0.59491 0.21571 0.99853 0.0
C952 C 0.58235 0.17066 0.00645 0.0
C953 C 0.55952 0.23038 0.996 0.0
C954 C 0.51057 0.20072 1.00143 0.0
H955 H 0.63281 0.24093 0.99488 0.0
H956 H 0.57118 0.26632 0.99059 0.0
S957 S 0.45628 0.07615 0.02025 0.0
N958 N 0.5154 0.09378 0.01771 0.0
N959 N 0.44962 0.12218 0.01326 0.0
C960 C 0.49671 0.1544 0.00837 0.0
C961 C 0.5324 0.1391 0.01078 0.0
C962 C 0.78675 0.33927 0.99412 0.0
C963 C 0.81108 0.317 1.00171 0.0
C964 C 0.80317 0.38979 0.9964 0.0
C965 C 0.84486 0.41982 0.00618 0.0
H966 H 0.75306 0.31697 0.98723 0.0
H967 H 0.78159 0.40476 0.99108 0.0
S968 S 0.92631 0.38007 0.0262 0.0
N969 N 0.88178 0.32915 0.01772 0.0
N970 N 0.91387 0.42434 0.02162 0.0
C971 C 0.8719 0.39859 0.01263 0.0
C972 C 0.85461 0.34706 0.01053 0.0
C973 C 0.62264 0.42353 0.98882 0.0
C974 C 0.59838 0.40238 0.00361 0.0
C975 C 0.67199 0.46258 0.98857 0.0
C976 C 0.69869 0.48238 0.00312 0.0
H977 H 0.60352 0.40968 0.97732 0.0
H978 H 0.6891 0.47776 0.97689 0.0
S979 S 0.65211 0.44023 0.04517 0.0
N980 N 0.60509 0.40423 0.03324 0.0
N981 N 0.69705 0.47756 0.03276 0.0
C982 C 0.67478 0.46158 0.018 0.0
C983 C 0.62488 0.4216 0.01825 0.0
C984 C 0.44519 0.78135 0.82656 0.0
C985 C 0.47045 0.82869 0.83368 0.0
C986 C 0.45989 0.7462 0.82962 0.0
C987 C 0.50073 0.75736 0.83978 0.0
H988 H 0.41253 0.77061 0.81918 0.0
H989 H 0.438 0.70952 0.82441 0.0
S990 S 0.58336 0.87916 0.85934 0.0
N991 N 0.54084 0.88681 0.84994 0.0
N992 N 0.5691 0.82145 0.85555 0.0
C993 C 0.52802 0.80579 0.84613 0.0
C994 C 0.5127 0.84124 0.84313 0.0
C995 C 0.16715 0.68247 0.84633 0.0
C996 C 0.17556 0.65106 0.83618 0.0
C997 C 0.20338 0.73217 0.84851 0.0
C998 C 0.24984 0.75239 0.84081 0.0
H999 H 0.13246 0.66828 0.85288 0.0
H1000 H 0.19529 0.75436 0.85677 0.0
S1001 S 0.28959 0.68585 0.81241 0.0
N1002 N 0.23273 0.64381 0.81777 0.0
N1003 N 0.30142 0.73727 0.82199 0.0
C1004 C 0.25816 0.72171 0.83016 0.0
C1005 C 0.22086 0.67105 0.8278 0.0
C1006 C 0.33186 0.5643 0.82903 0.0
C1007 C 0.35231 0.5365 0.83529 0.0
C1008 C 0.28257 0.55099 0.83244 0.0
C1009 C 0.25188 0.50903 0.84203 0.0
H1010 H 0.35473 0.59787 0.82214 0.0
H1011 H 0.269 0.57469 0.82793 0.0
S1012 S 0.28682 0.42029 0.85924 0.0
N1013 N 0.33765 0.46309 0.85021 0.0
N1014 N 0.24482 0.43703 0.85626 0.0
C1015 C 0.27133 0.47926 0.84745 0.0
C1016 C 0.32163 0.49332 0.84419 0.0
C1017 C 0.50377 0.84323 0.98851 0.0
C1018 C 0.49644 0.80696 1.00012 0.0
C1019 C 0.46827 0.85749 0.98597 0.0
C1020 C 0.42355 0.83553 0.99478 0.0
H1021 H 0.53705 0.8604 0.98112 0.0
H1022 H 0.47533 0.88469 0.97658 0.0
S1023 S 0.38763 0.74078 0.02734 0.0
N1024 N 0.44244 0.75117 0.02116 0.0
N1025 N 0.37502 0.77738 0.01625 0.0
C1026 C 0.41635 0.80026 0.00682 0.0
C1027 C 0.45298 0.78619 0.00955 0.0
C1028 C 0.1645 0.66568 0.98894 0.0
C1029 C 0.20002 0.69409 1.00083 0.0
C1030 C 0.1479 0.61518 0.98696 0.0
C1031 C 0.16657 0.59102 0.99667 0.0
H1032 H 0.15008 0.68285 0.9808 0.0
H1033 H 0.12178 0.59557 0.97725 0.0
S1034 S 0.25587 0.64708 0.03081 0.0
N1035 N 0.25006 0.69332 0.02347 0.0
N1036 N 0.21932 0.5982 0.01959 0.0
C1037 C 0.20026 0.61829 0.00917 0.0
C1038 C 0.2168 0.66983 0.01132 0.0
C1039 C 0.33695 0.56055 0.00834 0.0
C1040 C 0.31125 0.51743 0.9988 0.0
C1041 C 0.3865 0.59596 0.00493 0.0
C1042 C 0.41241 0.58918 0.99203 0.0
H1043 H 0.31831 0.56768 0.01823 0.0
H1044 H 0.40446 0.62911 0.01237 0.0
S1045 S 0.36232 0.48139 0.96383 0.0
N1046 N 0.31591 0.46921 0.97623 0.0
N1047 N 0.40858 0.53526 0.96989 0.0
C1048 C 0.38739 0.54557 0.98267 0.0
C1049 C 0.33696 0.50987 0.98603 0.0
C1050 C 0.22117 0.55734 0.50961 0.0
C1051 C 0.18939 0.50967 0.50339 0.0
C1052 C 0.21315 0.59692 0.50613 0.0
C1053 C 0.17268 0.58995 0.49649 0.0
H1054 H 0.25352 0.56456 0.51664 0.0
H1055 H 0.23965 0.63342 0.51066 0.0
S1056 S 0.07487 0.46999 0.47936 0.0
N1057 N 0.11371 0.45636 0.48852 0.0
N1058 N 0.09776 0.53003 0.4822 0.0
C1059 C 0.13911 0.5416 0.49102 0.0
C1060 C 0.14771 0.50165 0.49441 0.0
C1061 C 0.47625 0.64434 0.48665 0.0
C1062 C 0.4717 0.67384 0.49876 0.0
C1063 C 0.44025 0.59444 0.48468 0.0
C1064 C 0.39789 0.57195 0.49466 0.0
H1065 H 0.50755 0.66005 0.47838 0.0
H1066 H 0.44502 0.57392 0.47487 0.0
S1067 S 0.36997 0.63164 0.52906 0.0
N1068 N 0.4229 0.67599 0.52159 0.0
N1069 N 0.35494 0.58213 0.51782 0.0
C1070 C 0.39369 0.60041 0.50724 0.0
C1071 C 0.43065 0.65132 0.50932 0.0
C1072 C 0.40049 0.85491 0.48327 0.0
C1073 C 0.42531 0.83646 0.49279 0.0
C1074 C 0.35182 0.84306 0.48678 0.0
C1075 C 0.32564 0.81258 0.50008 0.0
H1076 H 0.41811 0.87755 0.47263 0.0
H1077 H 0.33427 0.85742 0.47878 0.0
S1078 S 0.3745 0.75754 0.52968 0.0
N1079 N 0.42062 0.78808 0.51675 0.0
N1080 N 0.32908 0.76628 0.5234 0.0
C1081 C 0.35053 0.79558 0.51018 0.0
C1082 C 0.40027 0.80735 0.50652 0.0
C1083 C 0.2173 0.55099 0.33208 0.0
C1084 C 0.16934 0.5218 0.33843 0.0
C1085 C 0.25421 0.53853 0.3349 0.0
C1086 C 0.24422 0.49605 0.34399 0.0
H1087 H 0.22702 0.58485 0.32553 0.0
H1088 H 0.29119 0.5633 0.33035 0.0
S1089 S 0.1218 0.40368 0.36111 0.0
N1090 N 0.11219 0.44634 0.35275 0.0
N1091 N 0.1808 0.42213 0.35784 0.0
C1092 C 0.19532 0.46494 0.34949 0.0
C1093 C 0.1581 0.47805 0.34677 0.0
C1094 C 0.44719 0.66889 0.33064 0.0
C1095 C 0.4727 0.64818 0.33847 0.0
C1096 C 0.46324 0.71961 0.33211 0.0
C1097 C 0.50576 0.75151 0.34127 0.0
H1098 H 0.41325 0.64536 0.32403 0.0
H1099 H 0.44104 0.73346 0.32651 0.0
S1100 S 0.58957 0.71574 0.3619 0.0
N1101 N 0.54486 0.66341 0.35421 0.0
N1102 N 0.57601 0.75885 0.35673 0.0
C1103 C 0.5334 0.73149 0.34819 0.0
C1104 C 0.51655 0.67977 0.34688 0.0
C1105 C 0.27424 0.78336 0.35522 0.0
C1106 C 0.25092 0.73837 0.34652 0.0
C1107 C 0.3235 0.81936 0.3521 0.0
C1108 C 0.35121 0.81226 0.33997 0.0
H1109 H 0.25482 0.79052 0.36483 0.0
H1110 H 0.33999 0.85311 0.35927 0.0
S1111 S 0.30752 0.70194 0.31334 0.0
N1112 N 0.25931 0.68927 0.32495 0.0
N1113 N 0.35184 0.75752 0.31898 0.0
C1114 C 0.32817 0.76818 0.33086 0.0
C1115 C 0.27807 0.7311 0.33416 0.0
C1116 C 0.29504 0.35434 0.17139 0.0
C1117 C 0.27722 0.34153 0.15533 0.0
C1118 C 0.34631 0.37891 0.17471 0.0
C1119 C 0.38117 0.39136 0.16205 0.0
H1120 H 0.26927 0.34314 0.1815 0.0
H1121 H 0.35851 0.38592 0.18729 0.0
S1122 S 0.35336 0.374 0.11774 0.0
N1123 N 0.29851 0.34888 0.12658 0.0
N1124 N 0.39415 0.39474 0.13273 0.0
C1125 C 0.36363 0.38167 0.1459 0.0
C1126 C 0.31184 0.35682 0.14256 0.0
C1127 C 0.61126 0.96408 0.17427 0.0
C1128 C 0.63283 0.00844 0.16521 0.0
C1129 C 0.6301 0.93153 0.17351 0.0
C1130 C 0.67118 0.94216 0.16365 0.0
H1131 H 0.57913 0.95401 0.18185 0.0
H1132 H 0.61192 0.89754 0.18053 0.0
S1133 S 0.74449 0.05609 0.13893 0.0
N1134 N 0.69967 0.06283 0.14696 0.0
N1135 N 0.73514 0.00208 0.14558 0.0
C1136 C 0.69386 0.98702 0.15486 0.0
C1137 C 0.67465 0.02001 0.15561 0.0
C1138 C 0.05303 0.70776 0.16783 0.0
C1139 C 0.0498 0.72681 0.1526 0.0
C1140 C 0.02488 0.65675 0.17125 0.0
C1141 C 0.99266 0.6229 0.15952 0.0
H1142 H 0.07663 0.73255 0.17731 0.0
H1143 H 0.02788 0.64394 0.18324 0.0
S1144 S 0.97519 0.65383 0.11707 0.0
N1145 N 0.0147 0.70765 0.12533 0.0
N1146 N 0.96234 0.61234 0.13154 0.0
C1147 C 0.99051 0.64159 0.14403 0.0
C1148 C 0.0189 0.69334 0.14063 0.0
C1149 C 0.32152 0.29711 0.36122 0.0
C1150 C 0.32021 0.26516 0.34887 0.0
C1151 C 0.34462 0.34827 0.35883 0.0
C1152 C 0.36751 0.37017 0.34392 0.0
H1153 H 0.30391 0.28248 0.37288 0.0
H1154 H 0.34374 0.3707 0.36878 0.0
S1155 S 0.37585 0.303 0.3077 0.0
N1156 N 0.34499 0.2589 0.32128 0.0
N1157 N 0.38866 0.35562 0.31666 0.0
C1158 C 0.36784 0.33884 0.33155 0.0
C1159 C 0.34419 0.28627 0.33405 0.0
C1160 C 0.65289 0.0161 0.34864 0.0
C1161 C 0.62253 0.00687 0.3349 0.0
C1162 C 0.7034 0.05126 0.34822 0.0
C1163 C 0.72608 0.07869 0.334 0.0
H1164 H 0.63768 0.99581 0.35987 0.0
H1165 H 0.72489 0.05628 0.35915 0.0
S1166 S 0.66298 0.06942 0.29466 0.0
N1167 N 0.61869 0.02878 0.30664 0.0
N1168 N 0.71386 0.09484 0.30584 0.0
C1169 C 0.69611 0.07048 0.32019 0.0
C1170 C 0.64436 0.03466 0.32064 0.0
C1171 C 0.94889 0.66383 0.33714 0.0
C1172 C 0.95135 0.68718 0.35207 0.0
C1173 C 0.97648 0.63996 0.33453 0.0
C1174 C 0.00724 0.63821 0.34681 0.0
H1175 H 0.92651 0.6651 0.32725 0.0
H1176 H 0.97415 0.62338 0.32272 0.0
S1177 S 0.02271 0.69013 0.38869 0.0
N1178 N 0.9844 0.70459 0.37962 0.0
N1179 N 0.03578 0.65979 0.37492 0.0
C1180 C 0.00862 0.66024 0.362 0.0
C1181 C 0.98085 0.6847 0.36457 0.0
C1182 C 0.65225 0.62087 0.8239 0.0
C1183 C 0.62561 0.62229 0.83755 0.0
C1184 C 0.70317 0.63741 0.8249 0.0
C1185 C 0.72938 0.65577 0.83961 0.0
H1186 H 0.63401 0.60817 0.81221 0.0
H1187 H 0.72226 0.63683 0.81394 0.0
S1188 S 0.67554 0.66206 0.8794 0.0
N1189 N 0.62852 0.63999 0.86657 0.0
N1190 N 0.72369 0.67066 0.86849 0.0
C1191 C 0.70265 0.65542 0.85353 0.0
C1192 C 0.65097 0.63883 0.85249 0.0
C1193 C 0.35972 0.0722 0.82403 0.0
C1194 C 0.33454 0.07461 0.83793 0.0
C1195 C 0.37706 0.03843 0.82307 0.0
C1196 C 0.36972 0.0055 0.83596 0.0
H1197 H 0.36594 0.09639 0.81373 0.0
H1198 H 0.396 0.03796 0.81206 0.0
S1199 S 0.3057 0.99668 0.87515 0.0
N1200 N 0.3032 0.04099 0.86495 0.0
N1201 N 0.33546 0.9778 0.86316 0.0
C1202 C 0.34478 0.00776 0.84999 0.0
C1203 C 0.3273 0.04219 0.85098 0.0
C1204 C 0.94345 0.29158 0.83615 0.0
C1205 C 0.94557 0.27136 0.85127 0.0
C1206 C 0.97261 0.34269 0.83308 0.0
C1207 C 0.0047 0.37541 0.84507 0.0
H1208 H 0.92003 0.26764 0.82648 0.0
H1209 H 0.97058 0.35641 0.82114 0.0
S1210 S 0.01972 0.34109 0.8873 0.0
N1211 N 0.97965 0.28811 0.87868 0.0
N1212 N 0.0339 0.38367 0.87312 0.0
C1213 C 0.00575 0.35555 0.86044 0.0
C1214 C 0.97637 0.30368 0.86348 0.0
C1215 C 0.60227 0.63373 0.67905 0.0
C1216 C 0.61911 0.61326 0.66701 0.0
C1217 C 0.61596 0.68411 0.67881 0.0
C1218 C 0.64664 0.71596 0.66645 0.0
H1219 H 0.57828 0.61075 0.68878 0.0
H1220 H 0.60204 0.69807 0.68832 0.0
S1221 S 0.70306 0.68199 0.63249 0.0
N1222 N 0.66984 0.62986 0.64265 0.0
N1223 N 0.69517 0.72392 0.6422 0.0
C1224 C 0.6641 0.69617 0.65441 0.0
C1225 C 0.65047 0.64506 0.6547 0.0
C1226 C 0.36431 0.96093 0.64851 0.0
C1227 C 0.38006 0.99515 0.66145 0.0
C1228 C 0.31445 0.92472 0.64661 0.0
C1229 C 0.27798 0.9215 0.65746 0.0
H1230 H 0.39067 0.96226 0.63962 0.0
H1231 H 0.30438 0.90009 0.63622 0.0
S1232 S 0.29993 1.00057 0.69395 0.0
N1233 N 0.35541 0.02204 0.6858 0.0
N1234 N 0.26143 0.95433 0.68213 0.0
C1235 C 0.29329 0.95459 0.67075 0.0
C1236 C 0.34434 0.99127 0.67278 0.0
C1237 C 0.00975 0.35364 0.64572 0.0
C1238 C 0.00843 0.37283 0.66114 0.0
C1239 C 0.03611 0.32888 0.64311 0.0
C1240 C 0.06271 0.32225 0.65574 0.0
H1241 H 0.98943 0.35685 0.63552 0.0
H1242 H 0.03491 0.31408 0.63105 0.0
S1243 S 0.0734 0.36675 0.69829 0.0
N1244 N 0.03776 0.38483 0.68921 0.0
N1245 N 0.08771 0.33814 0.68417 0.0
C1246 C 0.06349 0.34267 0.6711 0.0
C1247 C 0.03627 0.36795 0.67383 0.0
C1248 C 0.97195 0.7119 0.49749 0.0
C1249 C 0.94418 0.66438 0.4905 0.0
C1250 C 0.02268 0.73207 0.50105 0.0
C1251 C 0.04709 0.70534 0.49767 0.0
H1252 H 0.95484 0.73425 0.49973 0.0
H1253 H 0.04326 0.7694 0.50587 0.0
S1254 S 0.9891 0.57623 0.4822 0.0
N1255 N 0.94367 0.58896 0.48235 0.0
N1256 N 0.03837 0.62684 0.48889 0.0
C1257 C 0.01901 0.65685 0.49157 0.0
C1258 C 0.96771 0.63636 0.48802 0.0
C1259 C 0.31058 0.28143 0.48585 0.0
C1260 C 0.31138 0.25385 0.49931 0.0
C1261 C 0.2916 0.3135 0.48711 0.0
C1262 C 0.27243 0.31952 0.50193 0.0
H1263 H 0.32548 0.27895 0.47417 0.0
H1264 H 0.29269 0.33424 0.47637 0.0
S1265 S 0.26344 0.25401 0.54075 0.0
N1266 N 0.28948 0.23313 0.52786 0.0
N1267 N 0.25361 0.29355 0.53029 0.0
C1268 C 0.27152 0.29105 0.51542 0.0
C1269 C 0.29099 0.25821 0.51412 0.0
C1270 C 0.66324 0.98859 0.50487 0.0
C1271 C 0.6688 0.95087 0.49753 0.0
C1272 C 0.69944 0.03867 0.50292 0.0
C1273 C 0.7431 0.05256 0.49402 0.0
H1274 H 0.6299 0.97946 0.51165 0.0
H1275 H 0.69304 0.06676 0.50831 0.0
S1276 S 0.77661 0.96747 0.47333 0.0
N1277 N 0.72175 0.93047 0.48149 0.0
N1278 N 0.79056 0.0244 0.47833 0.0
C1279 C 0.74992 0.01503 0.48718 0.0
C1280 C 0.71251 0.9642 0.4888 0.0
C1281 C 0.9881 0.68615 0.68492 0.0
C1282 C 0.02953 0.71315 0.67476 0.0
C1283 C 0.9689 0.63557 0.68785 0.0
C1284 C 0.99016 0.60933 0.68082 0.0
H1285 H 0.97028 0.70426 0.69082 0.0
H1286 H 0.93714 0.61709 0.69587 0.0
S1287 S 0.09828 0.66188 0.65281 0.0
N1288 N 0.09078 0.70939 0.65735 0.0
N1289 N 0.05422 0.61389 0.66273 0.0
C1290 C 0.03094 0.63539 0.67031 0.0
C1291 C 0.05066 0.68728 0.66731 0.0
C1292 C 0.30999 0.29028 0.66875 0.0
C1293 C 0.28166 0.31108 0.67428 0.0
C1294 C 0.36134 0.31462 0.67126 0.0
C1295 C 0.38615 0.36123 0.6789 0.0
H1296 H 0.29214 0.2542 0.66293 0.0
H1297 H 0.38176 0.29681 0.66722 0.0
S1298 S 0.3291 0.43239 0.69492 0.0
N1299 N 0.28204 0.38111 0.68749 0.0
N1300 N 0.379 0.42787 0.69161 0.0
C1301 C 0.3585 0.38315 0.68401 0.0
C1302 C 0.30605 0.35774 0.68187 0.0
C1303 C 0.62376 0.95445 0.66361 0.0
C1304 C 0.64748 0.94463 0.67652 0.0
C1305 C 0.59818 0.98041 0.66629 0.0
C1306 C 0.59569 0.99745 0.68196 0.0
H1307 H 0.62703 0.94423 0.65124 0.0
H1308 H 0.58245 0.98932 0.65595 0.0
S1309 S 0.64383 0.97374 0.72025 0.0
N1310 N 0.66102 0.94848 0.70584 0.0
N1311 N 0.61351 0.99727 0.71079 0.0
C1312 C 0.61635 0.98496 0.69508 0.0
C1313 C 0.64206 0.95852 0.69239 0.0
C1314 C 0.30472 0.9343 0.19052 0.0
C1315 C 0.28958 0.94498 0.17567 0.0
C1316 C 0.3541 0.9473 0.19315 0.0
C1317 C 0.39046 0.97249 0.18115 0.0
H1318 H 0.2782 0.91589 0.20025 0.0
H1319 H 0.36404 0.9391 0.20492 0.0
S1320 S 0.36955 0.00787 0.13995 0.0
N1321 N 0.31421 0.98046 0.14856 0.0
N1322 N 0.40762 0.0063 0.15364 0.0
C1323 C 0.37565 0.98262 0.1661 0.0
C1324 C 0.32505 0.96846 0.16332 0.0
C1325 C 0.97388 0.33722 0.17322 0.0
C1326 C 0.99807 0.38341 0.18118 0.0
C1327 C 0.99834 0.31051 0.17022 0.0
C1328 C 0.04718 0.32834 0.1756 0.0
H1329 H 0.93565 0.3215 0.16939 0.0
H1330 H 0.97832 0.27484 0.16419 0.0
S1331 S 0.12664 0.44721 0.19696 0.0
N1332 N 0.07381 0.44646 0.19397 0.0
N1333 N 0.11912 0.39506 0.18904 0.0
C1334 C 0.07182 0.37452 0.1835 0.0
C1335 C 0.04742 0.40244 0.1861 0.0
C1336 C 0.61649 0.64917 0.15701 0.0
C1337 C 0.60206 0.62337 0.17193 0.0
C1338 C 0.64998 0.70042 0.15644 0.0
C1339 C 0.67078 0.72816 0.17076 0.0
H1340 H 0.60255 0.62954 0.1456 0.0
H1341 H 0.6605 0.71813 0.1446 0.0
S1342 S 0.64249 0.6793 0.21311 0.0
N1343 N 0.60922 0.63036 0.20151 0.0
N1344 N 0.67209 0.72622 0.20042 0.0
C1345 C 0.65553 0.70312 0.18581 0.0
C1346 C 0.62125 0.65097 0.1864 0.0
C1347 C 0.30743 0.00285 0.0042 0.0
C1348 C 0.3085 0.97088 0.99225 0.0
C1349 C 0.32666 0.05355 1.00102 0.0
C1350 C 0.34787 0.07411 0.98582 0.0
H1351 H 0.29231 0.98885 0.01619 0.0
H1352 H 0.32605 0.07698 0.01068 0.0
S1353 S 0.35593 0.00608 0.94985 0.0
N1354 N 0.32989 0.96351 0.96416 0.0
N1355 N 0.36595 0.05828 0.95836 0.0
C1356 C 0.34799 0.04245 0.97364 0.0
C1357 C 0.32836 0.99101 0.97681 0.0
C1358 C 0.015 0.29651 0.01259 0.0
C1359 C 0.03475 0.33869 0.00245 0.0
C1360 C 0.96461 0.26014 0.01187 0.0
C1361 C 0.9323 0.26448 1.00091 0.0
H1362 H 0.03873 0.29105 0.02096 0.0
H1363 H 0.9511 0.22803 0.01975 0.0
S1364 S 0.96379 0.37084 0.97334 0.0
N1365 N 0.01665 0.38473 0.98224 0.0
N1366 N 0.92257 0.31639 0.98078 0.0
C1367 C 0.95121 0.30719 0.99109 0.0
C1368 C 0.00224 0.34428 0.9919 0.0
C1369 C 0.68362 0.64251 0.97867 0.0
C1370 C 0.72524 0.65483 0.98846 0.0
C1371 C 0.65333 0.66295 0.98152 0.0
C1372 C 0.66315 0.69664 0.99437 0.0
H1373 H 0.67416 0.61684 0.96857 0.0
H1374 H 0.62192 0.65209 0.97353 0.0
S1375 S 0.76732 0.74076 0.02385 0.0
N1376 N 0.7746 0.70258 0.01171 0.0
N1377 N 0.71756 0.74114 0.01714 0.0
C1378 C 0.70452 0.70914 0.00438 0.0
C1379 C 0.73561 0.68831 1.00142 0.0
C1380 C 0.6714 0.04172 0.84445 0.0
C1381 C 0.69786 0.0439 0.83025 0.0
C1382 C 0.6209 0.02692 0.8438 0.0
C1383 C 0.59501 0.01405 0.82891 0.0
H1384 H 0.68954 0.05055 0.85623 0.0
H1385 H 0.60189 0.02455 0.85511 0.0
S1386 S 0.64844 0.01817 0.78801 0.0
N1387 N 0.69511 0.0349 0.80075 0.0
N1388 N 0.60062 0.00767 0.79946 0.0
C1389 C 0.62149 0.01766 0.81455 0.0
C1390 C 0.67274 0.03236 0.81524 0.0
C1391 C 0.9512 0.63426 0.84825 0.0
C1392 C 0.94843 0.65714 0.83379 0.0
C1393 C 0.96709 0.59928 0.84806 0.0
C1394 C 0.98049 0.58552 0.8334 0.0
H1395 H 0.94251 0.64454 0.85989 0.0
H1396 H 0.97012 0.58398 0.85958 0.0
S1397 S 0.97367 0.62997 0.79192 0.0
N1398 N 0.95634 0.66038 0.80425 0.0
N1399 N 0.98558 0.59451 0.80383 0.0
C1400 C 0.97555 0.60641 0.81876 0.0
C1401 C 0.95974 0.64224 0.81897 0.0
C1402 C 0.37471 0.31633 0.84279 0.0
C1403 C 0.32943 0.29739 0.83436 0.0
C1404 C 0.41048 0.36696 0.84212 0.0
C1405 C 0.40218 0.40043 0.83302 0.0
H1406 H 0.383 0.29175 0.84972 0.0
H1407 H 0.44515 0.37973 0.84854 0.0
S1408 S 0.28696 0.37059 0.8105 0.0
N1409 N 0.27658 0.31691 0.81783 0.0
N1410 N 0.3434 0.41154 0.81652 0.0
C1411 C 0.3563 0.38214 0.82499 0.0
C1412 C 0.32006 0.33079 0.82568 0.0
C1413 C 0.68578 0.95997 1.0017 0.0
C1414 C 0.66976 0.94057 0.01744 0.0
C1415 C 0.7059 0.01084 0.99858 0.0
C1416 C 0.71072 0.04387 0.01112 0.0
H1417 H 0.68096 0.93547 0.99161 0.0
H1418 H 0.71601 0.024 0.98617 0.0
S1419 S 0.68166 0.01232 0.05494 0.0
N1420 N 0.66518 0.95885 0.04598 0.0
N1421 N 0.70311 0.05406 0.04024 0.0
C1422 C 0.69746 0.0251 0.02708 0.0
C1423 C 0.67692 0.97355 0.0302 0.0
C1424 C 0.00266 0.70121 1.00088 0.0
C1425 C 0.97076 0.6687 0.01294 0.0
C1426 C 0.05347 0.73222 0.00394 0.0
C1427 C 0.07414 0.73163 0.01913 0.0
H1428 H 0.98861 0.70193 0.98887 0.0
H1429 H 0.07691 0.75566 0.99418 0.0
S1430 S 0.00605 0.65797 0.05545 0.0
N1431 N 0.96332 0.64133 0.04119 0.0
N1432 N 0.05839 0.69915 0.04677 0.0
C1433 C 0.04245 0.70083 0.03147 0.0
C1434 C 0.99089 0.6695 0.02842 0.0
C1435 C 0.33012 0.37021 0.0265 0.0
C1436 C 0.28858 0.3598 0.01695 0.0
C1437 C 0.35905 0.3486 0.0231 0.0
C1438 C 0.34801 0.31576 0.00991 0.0
H1439 H 0.34038 0.39502 0.03686 0.0
H1440 H 0.39041 0.35788 0.03098 0.0
S1441 S 0.24395 0.27738 0.98071 0.0
N1442 N 0.23823 0.31528 0.99345 0.0
N1443 N 0.29283 0.27456 0.98698 0.0
C1444 C 0.30686 0.30542 1.00007 0.0
C1445 C 0.27708 0.32737 0.00362 0.0
C1446 C 0.02788 0.32453 0.51744 0.0
C1447 C 0.05387 0.31575 0.50507 0.0
C1448 C 0.97768 0.30941 0.51581 0.0
C1449 C 0.95086 0.28458 0.50174 0.0
H1450 H 0.04647 0.34381 0.52852 0.0
H1451 H 0.95986 0.31744 0.52574 0.0
S1452 S 0.00115 0.25187 0.46574 0.0
N1453 N 0.04882 0.28003 0.47825 0.0
N1454 N 0.9542 0.25163 0.47515 0.0
C1455 C 0.97614 0.27499 0.4893 0.0
C1456 C 0.02761 0.29055 0.49096 0.0
C1457 C 0.63805 0.68002 0.52383 0.0
C1458 C 0.64638 0.72108 0.51433 0.0
C1459 C 0.66325 0.65425 0.52082 0.0
C1460 C 0.69803 0.66803 0.50809 0.0
H1461 H 0.61166 0.66732 0.53378 0.0
H1462 H 0.65488 0.62287 0.52858 0.0
S1463 S 0.73396 0.77332 0.47956 0.0
N1464 N 0.6923 0.77482 0.49163 0.0
N1465 N 0.73982 0.72615 0.48588 0.0
C1466 C 0.70704 0.70924 0.49845 0.0
C1467 C 0.68128 0.7358 0.5016 0.0
C1468 C 0.27074 0.96982 0.48866 0.0
C1469 C 0.25534 0.9444 0.50362 0.0
C1470 C 0.3043 0.02104 0.48813 0.0
C1471 C 0.32393 0.04858 0.50253 0.0
H1472 H 0.2581 0.94985 0.47725 0.0
H1473 H 0.31625 0.03879 0.47634 0.0
S1474 S 0.29039 0.00109 0.54487 0.0
N1475 N 0.25853 0.95191 0.53323 0.0
N1476 N 0.32174 0.04763 0.53219 0.0
C1477 C 0.30698 0.02408 0.51757 0.0
C1478 C 0.27265 0.97217 0.51812 0.0
C1479 C 0.97865 0.37614 0.33359 0.0
C1480 C 0.99535 0.39733 0.3181 0.0
C1481 C 0.95625 0.32465 0.33592 0.0
C1482 C 0.94958 0.2926 0.3228 0.0
H1483 H 0.98477 0.39962 0.3441 0.0
H1484 H 0.94577 0.31015 0.34817 0.0
S1485 S 0.98037 0.32966 0.27938 0.0
N1486 N 0.99922 0.38231 0.28922 0.0
N1487 N 0.95687 0.28593 0.29344 0.0
C1488 C 0.96367 0.3134 0.3071 0.0
C1489 C 0.98665 0.36564 0.30479 0.0
C1490 C 0.68848 0.68329 0.31351 0.0
C1491 C 0.71134 0.68117 0.32808 0.0
C1492 C 0.63736 0.65392 0.31117 0.0
C1493 C 0.6065 0.6206 0.32318 0.0
H1494 H 0.71009 0.70826 0.30377 0.0
H1495 H 0.62201 0.65737 0.29972 0.0
S1496 S 0.64681 0.60066 0.36367 0.0
N1497 N 0.69853 0.64294 0.35488 0.0
N1498 N 0.60215 0.5873 0.35033 0.0
C1499 C 0.62851 0.61763 0.33781 0.0
C1500 C 0.68088 0.64802 0.34029 0.0
C1501 C 0.36054 0.05311 0.32293 0.0
C1502 C 0.31332 0.03048 0.33014 0.0
C1503 C 0.38592 0.02686 0.32082 0.0
C1504 C 0.36408 0.9767 0.32534 0.0
H1505 H 0.37791 0.09132 0.3189 0.0
H1506 H 0.4221 0.04543 0.31509 0.0
S1507 S 0.24093 0.90061 0.34464 0.0
N1508 N 0.24605 0.95561 0.34208 0.0
N1509 N 0.2928 0.90561 0.33749 0.0
C1510 C 0.3169 0.95376 0.33259 0.0
C1511 C 0.29174 0.98086 0.33516 0.0
C1512 C 0.13229 0.30166 0.07654 0.0
C1513 C 0.15647 0.35084 0.07072 0.0
C1514 C 0.12759 0.2911 0.09328 0.0
C1515 C 0.14669 0.32922 0.10499 0.0
H1516 H 0.11674 0.27075 0.06811 0.0
H1517 H 0.10859 0.25259 0.09704 0.0
S1518 S 0.21417 0.46454 0.09626 0.0
N1519 N 0.20034 0.4382 0.0781 0.0
N1520 N 0.19152 0.41851 0.10952 0.0
C1521 C 0.17113 0.37867 0.09937 0.0
C1522 C 0.17602 0.38943 0.08228 0.0
C1523 C 0.64057 0.7976 0.07693 0.0
C1524 C 0.67851 0.81518 0.06519 0.0
C1525 C 0.65134 0.80569 0.0936 0.0
C1526 C 0.70055 0.83182 0.09931 0.0
H1527 H 0.60202 0.77773 0.07325 0.0
H1528 H 0.62053 0.79159 0.10204 0.0
S1529 S 0.81386 0.88457 0.07368 0.0
N1530 N 0.76769 0.85914 0.06051 0.0
N1531 N 0.78778 0.87439 0.09185 0.0
C1532 C 0.73899 0.84909 0.08774 0.0
C1533 C 0.72802 0.84076 0.07071 0.0
C1534 C 0.16948 0.88401 0.09172 0.0
C1535 C 0.19015 0.86489 0.10281 0.0
C1536 C 0.17592 0.8825 0.07483 0.0
C1537 C 0.20328 0.86174 0.06823 0.0
H1538 H 0.14786 0.90016 0.09608 0.0
H1539 H 0.15884 0.89748 0.0669 0.0
S1540 S 0.26576 0.80701 0.09194 0.0
N1541 N 0.2398 0.82487 0.10589 0.0
N1542 N 0.2517 0.82201 0.07424 0.0
C1543 C 0.22453 0.84281 0.07918 0.0
C1544 C 0.21802 0.84438 0.0964 0.0
C1545 C 0.29349 0.13232 0.4271 0.0
C1546 C 0.34313 0.15624 0.43246 0.0
C1547 C 0.28135 0.12422 0.4105 0.0
C1548 C 0.31828 0.13944 0.39847 0.0
H1549 H 0.26342 0.11985 0.43579 0.0
H1550 H 0.24257 0.10584 0.40711 0.0
S1551 S 0.45418 0.20353 0.40594 0.0
N1552 N 0.42959 0.19495 0.42431 0.0
N1553 N 0.40701 0.17969 0.39314 0.0
C1554 C 0.36818 0.16322 0.40363 0.0
C1555 C 0.38054 0.17163 0.42059 0.0
C1556 C 0.8258 0.20147 0.4049 0.0
C1557 C 0.85821 0.18643 0.39852 0.0
C1558 C 0.81922 0.20323 0.42175 0.0
C1559 C 0.84484 0.19013 0.43297 0.0
H1560 H 0.8046 0.21137 0.39683 0.0
H1561 H 0.79344 0.21458 0.42596 0.0
S1562 S 0.93618 0.15056 0.42267 0.0
N1563 N 0.91764 0.15984 0.40484 0.0
N1564 N 0.9055 0.16319 0.43645 0.0
C1565 C 0.87816 0.17589 0.42678 0.0
C1566 C 0.88479 0.17404 0.40959 0.0
C1567 C 0.80151 0.65082 0.40816 0.0
C1568 C 0.82518 0.69872 0.40131 0.0
C1569 C 0.7985 0.64361 0.42508 0.0
C1570 C 0.81889 0.68397 0.43596 0.0
H1571 H 0.78534 0.6183 0.40041 0.0
H1572 H 0.78008 0.6059 0.42963 0.0
S1573 S 0.88413 0.81724 0.42438 0.0
N1574 N 0.86893 0.78737 0.40682 0.0
N1575 N 0.86318 0.77393 0.4386 0.0
C1576 C 0.84232 0.73218 0.42931 0.0
C1577 C 0.84549 0.73952 0.41203 0.0
C1578 C 0.88614 0.72385 0.91472 0.0
C1579 C 0.87153 0.68472 0.90353 0.0
C1580 C 0.88347 0.71543 0.93158 0.0
C1581 C 0.86608 0.66753 0.93795 0.0
H1582 H 0.899 0.76127 0.91046 0.0
H1583 H 0.89443 0.74676 0.93964 0.0
S1584 S 0.82638 0.55266 0.91387 0.0
N1585 N 0.84128 0.59643 0.90007 0.0
N1586 N 0.8362 0.5807 0.93168 0.0
C1587 C 0.85251 0.62822 0.9269 0.0
C1588 C 0.85525 0.63678 0.90973 0.0
C1589 C 0.3606 0.21035 0.90948 0.0
C1590 C 0.31149 0.18695 0.90365 0.0
C1591 C 0.3712 0.21713 0.92619 0.0
C1592 C 0.33318 0.2009 0.93787 0.0
H1593 H 0.39144 0.22328 0.90108 0.0
H1594 H 0.40964 0.23489 0.92995 0.0
S1595 S 0.19813 0.13891 0.92909 0.0
N1596 N 0.22435 0.14852 0.91096 0.0
N1597 N 0.24409 0.16132 0.94236 0.0
C1598 C 0.28381 0.17805 0.93223 0.0
C1599 C 0.27302 0.17105 0.91516 0.0
C1600 C 0.82888 0.12103 0.91151 0.0
C1601 C 0.8058 0.13753 0.90041 0.0
C1602 C 0.82485 0.12519 0.92839 0.0
C1603 C 0.79759 0.14607 0.93496 0.0
H1604 H 0.85075 0.10515 0.90715 0.0
H1605 H 0.84386 0.11234 0.93633 0.0
S1606 S 0.72843 0.19348 0.91123 0.0
N1607 N 0.75338 0.17449 0.89728 0.0
N1608 N 0.74598 0.18232 0.92895 0.0
C1609 C 0.77362 0.16204 0.92402 0.0
C1610 C 0.77769 0.15778 0.9068 0.0
C1611 C 0.67962 0.86907 0.57394 0.0
C1612 C 0.63167 0.84142 0.5673 0.0
C1613 C 0.68766 0.87158 0.59081 0.0
C1614 C 0.6481 0.8466 0.60182 0.0
H1615 H 0.71153 0.88878 0.56606 0.0
H1616 H 0.72538 0.89305 0.59522 0.0
S1617 S 0.51495 0.77003 0.59079 0.0
N1618 N 0.54377 0.78921 0.57314 0.0
N1619 N 0.55875 0.79393 0.60481 0.0
C1620 C 0.59979 0.81926 0.59537 0.0
C1621 C 0.59162 0.81665 0.57815 0.0
C1622 C 0.13957 0.84748 0.57605 0.0
C1623 C 0.15171 0.81279 0.56972 0.0
C1624 C 0.13003 0.84878 0.59271 0.0
C1625 C 0.13157 0.81502 0.60374 0.0
H1626 H 0.13774 0.87429 0.5681 0.0
H1627 H 0.12107 0.87633 0.59694 0.0
S1628 S 0.16179 0.71678 0.59348 0.0
N1629 N 0.16509 0.74401 0.57589 0.0
N1630 N 0.14674 0.74598 0.60712 0.0
C1631 C 0.14359 0.78 0.59758 0.0
C1632 C 0.15381 0.77904 0.58062 0.0
C1633 C 0.15987 0.28689 0.57765 0.0
C1634 C 0.18537 0.33645 0.57223 0.0
C1635 C 0.15737 0.27504 0.59423 0.0
C1636 C 0.18048 0.31221 0.60613 0.0
H1637 H 0.14122 0.25669 0.56905 0.0
H1638 H 0.13695 0.23631 0.59771 0.0
S1639 S 0.25283 0.44798 0.5984 0.0
N1640 N 0.2348 0.4231 0.58014 0.0
N1641 N 0.23033 0.40098 0.61128 0.0
C1642 C 0.20663 0.36201 0.60089 0.0
C1643 C 0.209 0.37409 0.58397 0.0
C1644 C 0.04438 0.49048 0.74162 0.0
C1645 C 0.99731 0.47143 0.73439 0.0
C1646 C 0.0503 0.49315 0.75861 0.0
C1647 C 0.00938 0.47675 0.76914 0.0
H1648 H 0.07723 0.50398 0.73411 0.0
H1649 H 0.08741 0.50862 0.7635 0.0
S1650 S 0.87774 0.42244 0.75647 0.0
N1651 N 0.90876 0.43494 0.73917 0.0
N1652 N 0.91974 0.4398 0.77102 0.0
C1653 C 0.96193 0.4569 0.76208 0.0
C1654 C 0.95593 0.45429 0.74476 0.0
C1655 C 0.49617 0.5279 0.73976 0.0
C1656 C 0.51878 0.50092 0.73441 0.0
C1657 C 0.4928 0.53641 0.75636 0.0
C1658 C 0.5119 0.51831 0.76837 0.0
H1659 H 0.48059 0.54254 0.73106 0.0
H1660 H 0.47472 0.55708 0.75978 0.0
S1661 S 0.57574 0.44623 0.76086 0.0
N1662 N 0.56128 0.45671 0.74251 0.0
N1663 N 0.55512 0.47263 0.77369 0.0
C1664 C 0.53505 0.49159 0.7632 0.0
C1665 C 0.53842 0.4829 0.74626 0.0
C1666 C 0.49689 0.05037 0.74186 0.0
C1667 C 0.476 0.01274 0.73002 0.0
C1668 C 0.4908 0.03921 0.75855 0.0
C1669 C 0.46372 0.98989 0.76418 0.0
H1670 H 0.51822 0.08892 0.73824 0.0
H1671 H 0.50791 0.06976 0.76709 0.0
S1672 S 0.40154 0.87731 0.73823 0.0
N1673 N 0.42693 0.92374 0.72515 0.0
N1674 N 0.41572 0.90297 0.75649 0.0
C1675 C 0.44249 0.9518 0.7525 0.0
C1676 C 0.44855 0.96317 0.73546 0.0
C1677 C 0.53357 0.04734 0.24614 0.0
C1678 C 0.53343 0.01227 0.2353 0.0
C1679 C 0.52173 0.03604 0.26265 0.0
C1680 C 0.50859 0.98898 0.26897 0.0
H1681 H 0.54315 0.08399 0.24187 0.0
H1682 H 0.52263 0.06448 0.27048 0.0
S1683 S 0.50189 0.88355 0.24569 0.0
N1684 N 0.51879 0.92821 0.23209 0.0
N1685 N 0.49614 0.90697 0.26306 0.0
C1686 C 0.50802 0.95342 0.25826 0.0
C1687 C 0.5206 0.96508 0.24147 0.0
C1688 C 0.04925 0.55282 0.26071 0.0
C1689 C 0.00811 0.53568 0.27118 0.0
C1690 C 0.04337 0.54733 0.24374 0.0
C1691 C 0.99609 0.52441 0.23646 0.0
H1692 H 0.08646 0.57018 0.26564 0.0
H1693 H 0.07636 0.56079 0.23631 0.0
S1694 S 0.87607 0.47435 0.25833 0.0
N1695 N 0.91818 0.49577 0.27292 0.0
N1696 N 0.90725 0.48545 0.24111 0.0
C1697 C 0.95459 0.50774 0.24676 0.0
C1698 C 0.96057 0.51338 0.26406 0.0
C1699 C 0.46416 0.50945 0.24524 0.0
C1700 C 0.48258 0.48111 0.23785 0.0
C1701 C 0.45923 0.51018 0.2622 0.0
C1702 C 0.47246 0.48258 0.27253 0.0
H1703 H 0.454 0.53193 0.23792 0.0
H1704 H 0.44547 0.53318 0.26723 0.0
S1705 S 0.52023 0.40007 0.25932 0.0
N1706 N 0.51246 0.42318 0.2422 0.0
N1707 N 0.50311 0.42446 0.27404 0.0
C1708 C 0.49 0.45322 0.2653 0.0
C1709 C 0.49507 0.4525 0.248 0.0
C1710 C 0.9598 0.12436 0.25462 0.0
C1711 C 0.99407 0.13399 0.2672 0.0
C1712 C 0.97458 0.13093 0.23822 0.0
C1713 C 0.02437 0.14894 0.23392 0.0
H1714 H 0.92129 0.1115 0.25746 0.0
H1715 H 0.9471 0.12312 0.22885 0.0
S1716 S 0.12843 0.17931 0.26217 0.0
N1717 N 0.07982 0.16109 0.2742 0.0
N1718 N 0.10775 0.17551 0.24337 0.0
C1719 C 0.059 0.15871 0.24633 0.0
C1720 C 0.04376 0.15062 0.26299 0.0
C1721 C 0.91051 0.90667 0.25831 0.0
C1722 C 0.87565 0.86355 0.26656 0.0
C1723 C 0.90228 0.91626 0.24223 0.0
C1724 C 0.8585 0.88352 0.23384 0.0
H1725 H 0.94464 0.93317 0.26427 0.0
H1726 H 0.93041 0.94975 0.23636 0.0
S1727 S 0.75497 0.76554 0.25004 0.0
N1728 N 0.79538 0.78787 0.26511 0.0
N1729 N 0.77978 0.80603 0.23506 0.0
C1730 C 0.82315 0.8404 0.242 0.0
C1731 C 0.83178 0.83036 0.25829 0.0
C1732 C 0.17935 0.01238 0.26017 0.0
C1733 C 0.14964 0.02944 0.2674 0.0
C1734 C 0.17017 0.99303 0.24431 0.0
C1735 C 0.13119 0.99034 0.23484 0.0
H1736 H 0.20976 0.01336 0.26689 0.0
H1737 H 0.19435 0.98058 0.23939 0.0
S1738 S 0.04278 0.03095 0.24794 0.0
N1739 N 0.0796 0.04267 0.26381 0.0
N1740 N 0.06261 0.00686 0.23394 0.0
C1741 C 0.10122 0.00752 0.24188 0.0
C1742 C 0.11034 0.02686 0.25814 0.0
C1743 C 0.00616 0.83289 0.76369 0.0
C1744 C 0.97796 0.85202 0.77069 0.0
C1745 C 0.02303 0.84392 0.74758 0.0
C1746 C 0.01211 0.87424 0.73774 0.0
H1747 H 0.01568 0.80943 0.77075 0.0
H1748 H 0.04461 0.82822 0.7428 0.0
S1749 S 0.93738 0.9317 0.7501 0.0
N1750 N 0.93903 0.90203 0.76654 0.0
N1751 N 0.96969 0.922 0.73611 0.0
C1752 C 0.98366 0.89346 0.74458 0.0
C1753 C 0.9669 0.88258 0.76108 0.0
C1754 C 0.14927 0.18758 0.74638 0.0
C1755 C 0.12554 0.14758 0.73544 0.0
C1756 C 0.16001 0.18051 0.76243 0.0
C1757 C 0.14727 0.13309 0.76827 0.0
H1758 H 0.15979 0.22485 0.74254 0.0
H1759 H 0.17803 0.21253 0.77038 0.0
S1760 S 0.08763 0.01632 0.74436 0.0
N1761 N 0.09166 0.05888 0.73147 0.0
N1762 N 0.11127 0.04568 0.76168 0.0
C1763 C 0.12374 0.09273 0.75748 0.0
C1764 C 0.11305 0.09994 0.74108 0.0
C1765 C 0.81637 0.99268 0.75973 0.0
C1766 C 0.86442 0.02301 0.76596 0.0
C1767 C 0.80867 0.97505 0.74366 0.0
C1768 C 0.84867 0.98733 0.73302 0.0
H1769 H 0.78423 0.98198 0.76738 0.0
H1770 H 0.77086 0.95188 0.73953 0.0
S1771 S 0.98212 0.06739 0.74319 0.0
N1772 N 0.95276 0.06527 0.76019 0.0
N1773 N 0.93851 0.03301 0.7299 0.0
C1774 C 0.89706 0.01797 0.73908 0.0
C1775 C 0.90487 0.03552 0.75554 0.0
C1776 C 0.67589 0.43959 0.59317 0.0
C1777 C 0.66647 0.47247 0.60218 0.0
C1778 C 0.69251 0.44985 0.57697 0.0
C1779 C 0.70089 0.49366 0.56916 0.0
H1780 H 0.66987 0.40527 0.59858 0.0
H1781 H 0.69852 0.42294 0.57053 0.0
S1782 S 0.68409 0.59329 0.58767 0.0
N1783 N 0.66829 0.55154 0.60224 0.0
N1784 N 0.69966 0.57094 0.57193 0.0
C1785 C 0.69249 0.52735 0.57815 0.0
C1786 C 0.67521 0.51671 0.5946 0.0
C1787 C 0.56548 0.22227 0.5913 0.0
C1788 C 0.53234 0.1779 0.59935 0.0
C1789 C 0.55594 0.23237 0.57545 0.0
C1790 C 0.51255 0.19883 0.56702 0.0
H1791 H 0.59932 0.24943 0.59725 0.0
H1792 H 0.58288 0.26687 0.56978 0.0
S1793 S 0.41306 0.0776 0.58273 0.0
N1794 N 0.45389 0.10028 0.59768 0.0
N1795 N 0.43585 0.11935 0.56805 0.0
C1796 C 0.47883 0.15448 0.57499 0.0
C1797 C 0.48877 0.14398 0.59107 0.0
C1798 C 0.78352 0.35301 0.59119 0.0
C1799 C 0.82657 0.36003 0.59917 0.0
C1800 C 0.7741 0.33793 0.57482 0.0
C1801 C 0.80708 0.32871 0.56578 0.0
H1802 H 0.75672 0.35924 0.5976 0.0
H1803 H 0.74044 0.33316 0.56927 0.0
S1804 S 0.92548 0.34175 0.58092 0.0
N1805 N 0.90277 0.35679 0.59668 0.0
N1806 N 0.88502 0.32828 0.56606 0.0
C1807 C 0.85037 0.33565 0.57361 0.0
C1808 C 0.86014 0.35138 0.59023 0.0
C1809 C 0.66033 0.17528 0.07598 0.0
C1810 C 0.70675 0.21582 0.07163 0.0
C1811 C 0.64318 0.16803 0.09211 0.0
C1812 C 0.67156 0.20119 0.10455 0.0
H1813 H 0.63691 0.14871 0.06686 0.0
H1814 H 0.60733 0.13619 0.09486 0.0
S1815 S 0.79747 0.31079 0.09999 0.0
N1816 N 0.78188 0.28821 0.08136 0.0
N1817 N 0.74957 0.27464 0.11163 0.0
C1818 C 0.71812 0.2418 0.10043 0.0
C1819 C 0.73571 0.2491 0.08399 0.0
C1820 C 0.8548 0.48756 0.09174 0.0
C1821 C 0.81832 0.44602 0.10025 0.0
C1822 C 0.8475 0.49686 0.0756 0.0
C1823 C 0.80378 0.4646 0.06714 0.0
H1824 H 0.88909 0.51387 0.09767 0.0
H1825 H 0.87668 0.52955 0.06966 0.0
S1826 S 0.69686 0.35002 0.08358 0.0
N1827 N 0.73641 0.37227 0.09891 0.0
N1828 N 0.72369 0.38893 0.06829 0.0
C1829 C 0.76729 0.42237 0.07532 0.0
C1830 C 0.77427 0.41334 0.09193 0.0
C1831 C 0.56671 0.33595 0.09635 0.0
C1832 C 0.53396 0.34711 0.10464 0.0
C1833 C 0.55676 0.31704 0.08041 0.0
C1834 C 0.51331 0.30789 0.07218 0.0
H1835 H 0.60067 0.34237 0.10214 0.0
H1836 H 0.5836 0.3099 0.07446 0.0
S1837 S 0.41404 0.32837 0.08882 0.0
N1838 N 0.45534 0.34603 0.10361 0.0
N1839 N 0.43646 0.3102 0.0738 0.0
C1840 C 0.47969 0.31791 0.08048 0.0
C1841 C 0.49008 0.33766 0.09664 0.0
C1842 C 0.3336 0.84162 0.90704 0.0
C1843 C 0.3663 0.82729 0.90047 0.0
C1844 C 0.31851 0.83225 0.9234 0.0
C1845 C 0.33563 0.80833 0.93393 0.0
H1846 H 0.31909 0.85992 0.89946 0.0
H1847 H 0.29326 0.84405 0.92779 0.0
S1848 S 0.42479 0.76661 0.92303 0.0
N1849 N 0.41691 0.7897 0.90593 0.0
N1850 N 0.38912 0.77248 0.93667 0.0
C1851 C 0.36878 0.79419 0.92755 0.0
C1852 C 0.38394 0.80355 0.91084 0.0
C1853 C 0.15836 0.49265 0.92834 0.0
C1854 C 0.20004 0.52656 0.9374 0.0
C1855 C 0.15229 0.50166 0.912 0.0
C1856 C 0.18781 0.5448 0.90392 0.0
H1857 H 0.12985 0.45876 0.93389 0.0
H1858 H 0.11965 0.47406 0.9056 0.0
S1859 S 0.30321 0.64626 0.92212 0.0
N1860 N 0.2772 0.60576 0.93705 0.0
N1861 N 0.26584 0.6224 0.90632 0.0
C1862 C 0.22964 0.5792 0.9128 0.0
C1863 C 0.23572 0.57018 0.92952 0.0
C1864 C 0.42807 0.64662 0.91026 0.0
C1865 C 0.468 0.65509 0.90015 0.0
C1866 C 0.43566 0.66182 0.92663 0.0
C1867 C 0.48355 0.68687 0.93346 0.0
H1868 H 0.39051 0.6274 0.9056 0.0
H1869 H 0.40356 0.65349 0.93399 0.0
S1870 S 0.60103 0.72052 0.9118 0.0
N1871 N 0.55743 0.69144 0.89798 0.0
N1872 N 0.57177 0.72072 0.92855 0.0
C1873 C 0.52392 0.69635 0.92336 0.0
C1874 C 0.51613 0.68034 0.90676 0.0
C1875 C 0.29817 0.54359 0.42887 0.0
C1876 C 0.29594 0.50395 0.43781 0.0
C1877 C 0.31565 0.553 0.41275 0.0
C1878 C 0.33245 0.52375 0.405 0.0
H1879 H 0.28605 0.56744 0.43431 0.0
H1880 H 0.31608 0.5836 0.40634 0.0
S1881 S 0.33516 0.41582 0.42321 0.0
N1882 N 0.31235 0.43528 0.43773 0.0
N1883 N 0.34568 0.45331 0.40763 0.0
C1884 C 0.33064 0.4841 0.41386 0.0
C1885 C 0.31227 0.47413 0.43019 0.0
C1886 C 0.50118 0.84646 0.4109 0.0
C1887 C 0.47641 0.80737 0.39972 0.0
C1888 C 0.50964 0.83754 0.427 0.0
C1889 C 0.49363 0.78913 0.43263 0.0
H1890 H 0.51411 0.88441 0.40724 0.0
H1891 H 0.52856 0.86898 0.43513 0.0
S1892 S 0.43041 0.67396 0.40794 0.0
N1893 N 0.43807 0.71836 0.39523 0.0
N1894 N 0.45373 0.70169 0.42552 0.0
C1895 C 0.46914 0.74964 0.42157 0.0
C1896 C 0.4606 0.75872 0.40512 0.0
C1897 C 0.16606 0.66854 0.42968 0.0
C1898 C 0.21233 0.68423 0.43707 0.0
C1899 C 0.15577 0.64875 0.4139 0.0
C1900 C 0.19145 0.64417 0.40471 0.0
H1901 H 0.13715 0.67109 0.43619 0.0
H1902 H 0.1196 0.63761 0.40882 0.0
S1903 S 0.31891 0.68063 0.41837 0.0
N1904 N 0.29437 0.69406 0.434 0.0
N1905 N 0.27535 0.6573 0.40424 0.0
C1906 C 0.23799 0.6597 0.41195 0.0
C1907 C 0.24832 0.67957 0.42813 0.0
loop_
_geom_bond_atom_site_label_1
_geom_bond_atom_site_label_2
_geom_bond_distance
_geom_bond_site_symmetry_2
_ccdc_geom_bond_type
Zn0 O6 1.969 . S
Zn0 O7 1.965 . S
Zn0 O11 2.024 . S
Zn0 O16 1.969 . S
Zn1 O8 1.969 . S
Zn1 O14 1.969 . S
Zn1 O15 1.965 . S
Zn1 O17 2.024 . S
C2 O3 1.229 . S
C2 O11 1.058 1_655 S
O3 C2 1.229 . S
C4 O5 1.229 . S
C4 O17 1.058 . S
O5 C4 1.229 . S
O6 Zn0 1.969 . S
O6 C9 1.267 . S
O7 Zn0 1.965 . S
O7 C18 1.260 . S
O8 Zn1 1.969 . S
O8 C18 1.258 . S
C9 O6 1.267 . S
C9 O10 1.228 . S
O10 C9 1.228 . S
O11 Zn0 2.024 . S
O11 C2 1.058 1_455 S
C12 O13 1.228 . S
C12 O14 1.267 . S
O13 C12 1.228 . S
O14 Zn1 1.969 . S
O14 C12 1.267 . S
O15 Zn1 1.965 . S
O15 C19 1.260 . S
O16 Zn0 1.969 . S
O16 C19 1.258 . S
O17 Zn1 2.024 . S
O17 C4 1.058 . S
C18 O7 1.260 . S
C18 O8 1.258 . S
C19 O15 1.260 . S
C19 O16 1.258 . S
Zn20 O26 1.969 . S
Zn20 O27 1.965 . S
Zn20 O31 2.024 . S
Zn20 O36 1.969 . S
Zn21 O28 1.969 . S
Zn21 O34 1.969 . S
Zn21 O35 1.965 . S
Zn21 O37 2.024 . S
C22 O23 1.229 . S
C22 O31 1.058 . S
O23 C22 1.229 . S
C24 O25 1.229 . S
C24 O37 1.058 . S
O25 C24 1.229 . S
O26 Zn20 1.969 . S
O26 C29 1.267 . S
O27 Zn20 1.965 . S
O27 C38 1.260 . S
O28 Zn21 1.969 . S
O28 C38 1.258 . S
C29 O26 1.267 . S
C29 O30 1.228 . S
O30 C29 1.228 . S
O31 Zn20 2.024 . S
O31 C22 1.058 . S
C32 O33 1.228 . S
C32 O34 1.267 . S
O33 C32 1.228 . S
O34 Zn21 1.969 . S
O34 C32 1.267 . S
O35 Zn21 1.965 . S
O35 C39 1.260 . S
O36 Zn20 1.969 . S
O36 C39 1.258 . S
O37 Zn21 2.024 . S
O37 C24 1.058 . S
C38 O27 1.260 . S
C38 O28 1.258 . S
C39 O35 1.260 . S
C39 O36 1.258 . S
Zn40 O46 1.969 . S
Zn40 O47 1.965 . S
Zn40 O51 2.024 . S
Zn40 O56 1.969 . S
Zn41 O48 1.969 . S
Zn41 O54 1.969 . S
Zn41 O55 1.965 . S
Zn41 O57 2.024 . S
C42 O43 1.229 . S
C42 O51 1.058 1_545 S
O43 C42 1.229 . S
C44 O45 1.229 . S
C44 O57 1.058 . S
O45 C44 1.229 . S
O46 Zn40 1.969 . S
O46 C49 1.267 . S
O47 Zn40 1.965 . S
O47 C58 1.260 . S
O48 Zn41 1.969 . S
O48 C58 1.258 . S
C49 O46 1.267 . S
C49 O50 1.228 . S
O50 C49 1.228 . S
O51 Zn40 2.024 . S
O51 C42 1.058 1_565 S
C52 O53 1.228 . S
C52 O54 1.267 . S
O53 C52 1.228 . S
O54 Zn41 1.969 . S
O54 C52 1.267 . S
O55 Zn41 1.965 . S
O55 C59 1.260 . S
O56 Zn40 1.969 . S
O56 C59 1.258 . S
O57 Zn41 2.024 . S
O57 C44 1.058 . S
C58 O47 1.260 . S
C58 O48 1.258 . S
C59 O55 1.260 . S
C59 O56 1.258 . S
Zn60 O66 1.969 . S
Zn60 O67 1.965 . S
Zn60 O71 2.024 . S
Zn60 O76 1.969 . S
Zn61 O68 1.969 . S
Zn61 O74 1.969 . S
Zn61 O75 1.965 . S
Zn61 O77 2.024 . S
C62 O63 1.229 . S
C62 O71 1.058 1_565 S
O63 C62 1.229 . S
C64 O65 1.229 . S
C64 O77 1.058 . S
O65 C64 1.229 . S
O66 Zn60 1.969 . S
O66 C69 1.267 . S
O67 Zn60 1.965 . S
O67 C78 1.260 . S
O68 Zn61 1.969 . S
O68 C78 1.258 . S
C69 O66 1.267 . S
C69 O70 1.228 . S
O70 C69 1.228 . S
O71 Zn60 2.024 . S
O71 C62 1.058 1_545 S
C72 O73 1.228 . S
C72 O74 1.267 . S
O73 C72 1.228 . S
O74 Zn61 1.969 . S
O74 C72 1.267 . S
O75 Zn61 1.965 . S
O75 C79 1.260 . S
O76 Zn60 1.969 . S
O76 C79 1.258 . S
O77 Zn61 2.024 . S
O77 C64 1.058 . S
C78 O67 1.260 . S
C78 O68 1.258 . S
C79 O75 1.260 . S
C79 O76 1.258 . S
Zn80 O86 1.969 . S
Zn80 O87 1.965 . S
Zn80 O91 2.024 . S
Zn80 O96 1.969 . S
Zn81 O88 1.969 . S
Zn81 O94 1.969 . S
Zn81 O95 1.965 . S
Zn81 O97 2.024 . S
C82 O83 1.229 . S
C82 O91 1.058 1_455 S
O83 C82 1.229 . S
C84 O85 1.229 . S
C84 O97 1.058 . S
O85 C84 1.229 . S
O86 Zn80 1.969 . S
O86 C89 1.267 . S
O87 Zn80 1.965 . S
O87 C98 1.260 . S
O88 Zn81 1.969 . S
O88 C98 1.258 . S
C89 O86 1.267 . S
C89 O90 1.228 . S
O90 C89 1.228 . S
O91 Zn80 2.024 . S
O91 C82 1.058 1_655 S
C92 O93 1.228 . S
C92 O94 1.267 . S
O93 C92 1.228 . S
O94 Zn81 1.969 . S
O94 C92 1.267 . S
O95 Zn81 1.965 . S
O95 C99 1.260 . S
O96 Zn80 1.969 . S
O96 C99 1.258 . S
O97 Zn81 2.024 . S
O97 C84 1.058 . S
C98 O87 1.260 . S
C98 O88 1.258 . S
C99 O95 1.260 . S
C99 O96 1.258 . S
Zn100 O106 1.969 . S
Zn100 O107 1.965 . S
Zn100 O111 2.024 . S
Zn100 O116 1.969 . S
Zn101 O108 1.969 . S
Zn101 O114 1.969 . S
Zn101 O115 1.965 . S
Zn101 O117 2.024 . S
C102 O103 1.229 . S
C102 O111 1.058 . S
O103 C102 1.229 . S
C104 O105 1.229 . S
C104 O117 1.058 . S
O105 C104 1.229 . S
O106 Zn100 1.969 . S
O106 C109 1.267 . S
O107 Zn100 1.965 . S
O107 C118 1.260 . S
O108 Zn101 1.969 . S
O108 C118 1.258 . S
C109 O106 1.267 . S
C109 O110 1.228 . S
O110 C109 1.228 . S
O111 Zn100 2.024 . S
O111 C102 1.058 . S
C112 O113 1.228 . S
C112 O114 1.267 . S
O113 C112 1.228 . S
O114 Zn101 1.969 . S
O114 C112 1.267 . S
O115 Zn101 1.965 . S
O115 C119 1.260 . S
O116 Zn100 1.969 . S
O116 C119 1.258 . S
O117 Zn101 2.024 . S
O117 C104 1.058 . S
C118 O107 1.260 . S
C118 O108 1.258 . S
C119 O115 1.260 . S
C119 O116 1.258 . S
Zn120 O126 1.969 . S
Zn120 O127 1.965 . S
Zn120 O131 2.024 . S
Zn120 O136 1.969 . S
Zn121 O128 1.969 . S
Zn121 O134 1.969 . S
Zn121 O135 1.965 . S
Zn121 O137 2.024 . S
C122 O123 1.229 . S
C122 O131 1.058 . S
O123 C122 1.229 . S
C124 O125 1.229 . S
C124 O137 1.058 1_455 S
O125 C124 1.229 . S
O126 Zn120 1.969 . S
O126 C129 1.267 . S
O127 Zn120 1.965 . S
O127 C138 1.260 . S
O128 Zn121 1.969 . S
O128 C138 1.258 . S
C129 O126 1.267 . S
C129 O130 1.228 . S
O130 C129 1.228 . S
O131 Zn120 2.024 . S
O131 C122 1.058 . S
C132 O133 1.228 . S
C132 O134 1.267 . S
O133 C132 1.228 . S
O134 Zn121 1.969 . S
O134 C132 1.267 . S
O135 Zn121 1.965 . S
O135 C139 1.260 . S
O136 Zn120 1.969 . S
O136 C139 1.258 . S
O137 Zn121 2.024 . S
O137 C124 1.058 1_655 S
C138 O127 1.260 . S
C138 O128 1.258 . S
C139 O135 1.260 . S
C139 O136 1.258 . S
Zn140 O146 1.969 . S
Zn140 O147 1.965 . S
Zn140 O151 2.024 . S
Zn140 O156 1.969 . S
Zn141 O148 1.969 . S
Zn141 O154 1.969 . S
Zn141 O155 1.965 . S
Zn141 O157 2.024 . S
C142 O143 1.229 . S
C142 O151 1.058 . S
O143 C142 1.229 . S
C144 O145 1.229 . S
C144 O157 1.058 . S
O145 C144 1.229 . S
O146 Zn140 1.969 . S
O146 C149 1.267 . S
O147 Zn140 1.965 . S
O147 C158 1.260 . S
O148 Zn141 1.969 . S
O148 C158 1.258 . S
C149 O146 1.267 . S
C149 O150 1.228 . S
O150 C149 1.228 . S
O151 Zn140 2.024 . S
O151 C142 1.058 . S
C152 O153 1.228 . S
C152 O154 1.267 . S
O153 C152 1.228 . S
O154 Zn141 1.969 . S
O154 C152 1.267 . S
O155 Zn141 1.965 . S
O155 C159 1.260 . S
O156 Zn140 1.969 . S
O156 C159 1.258 . S
O157 Zn141 2.024 . S
O157 C144 1.058 . S
C158 O147 1.260 . S
C158 O148 1.258 . S
C159 O155 1.260 . S
C159 O156 1.258 . S
Zn160 O166 1.969 . S
Zn160 O167 1.965 . S
Zn160 O171 2.024 . S
Zn160 O176 1.969 . S
Zn161 O168 1.969 . S
Zn161 O174 1.969 . S
Zn161 O175 1.965 . S
Zn161 O177 2.024 . S
C162 O163 1.229 . S
C162 O171 1.058 . S
O163 C162 1.229 . S
C164 O165 1.229 . S
C164 O177 1.058 1_565 S
O165 C164 1.229 . S
O166 Zn160 1.969 . S
O166 C169 1.267 . S
O167 Zn160 1.965 . S
O167 C178 1.260 . S
O168 Zn161 1.969 . S
O168 C178 1.258 . S
C169 O166 1.267 . S
C169 O170 1.228 . S
O170 C169 1.228 . S
O171 Zn160 2.024 . S
O171 C162 1.058 . S
C172 O173 1.228 . S
C172 O174 1.267 . S
O173 C172 1.228 . S
O174 Zn161 1.969 . S
O174 C172 1.267 . S
O175 Zn161 1.965 . S
O175 C179 1.260 . S
O176 Zn160 1.969 . S
O176 C179 1.258 . S
O177 Zn161 2.024 . S
O177 C164 1.058 1_545 S
C178 O167 1.260 . S
C178 O168 1.258 . S
C179 O175 1.260 . S
C179 O176 1.258 . S
Zn180 O186 1.969 . S
Zn180 O187 1.965 . S
Zn180 O191 2.024 . S
Zn180 O196 1.969 . S
Zn181 O188 1.969 . S
Zn181 O194 1.969 . S
Zn181 O195 1.965 . S
Zn181 O197 2.024 . S
C182 O183 1.229 . S
C182 O191 1.058 . S
O183 C182 1.229 . S
C184 O185 1.229 . S
C184 O197 1.058 1_545 S
O185 C184 1.229 . S
O186 Zn180 1.969 . S
O186 C189 1.267 . S
O187 Zn180 1.965 . S
O187 C198 1.260 . S
O188 Zn181 1.969 . S
O188 C198 1.258 . S
C189 O186 1.267 . S
C189 O190 1.228 . S
O190 C189 1.228 . S
O191 Zn180 2.024 . S
O191 C182 1.058 . S
C192 O193 1.228 . S
C192 O194 1.267 . S
O193 C192 1.228 . S
O194 Zn181 1.969 . S
O194 C192 1.267 . S
O195 Zn181 1.965 . S
O195 C199 1.260 . S
O196 Zn180 1.969 . S
O196 C199 1.258 . S
O197 Zn181 2.024 . S
O197 C184 1.058 1_565 S
C198 O187 1.260 . S
C198 O188 1.258 . S
C199 O195 1.260 . S
C199 O196 1.258 . S
Zn200 O206 1.969 . S
Zn200 O207 1.965 . S
Zn200 O211 2.024 . S
Zn200 O216 1.969 . S
Zn201 O208 1.969 . S
Zn201 O214 1.969 . S
Zn201 O215 1.965 . S
Zn201 O217 2.024 . S
C202 O203 1.229 . S
C202 O211 1.058 . S
O203 C202 1.229 . S
C204 O205 1.229 . S
C204 O217 1.058 1_655 S
O205 C204 1.229 . S
O206 Zn200 1.969 . S
O206 C209 1.267 . S
O207 Zn200 1.965 . S
O207 C218 1.260 . S
O208 Zn201 1.969 . S
O208 C218 1.258 . S
C209 O206 1.267 . S
C209 O210 1.228 . S
O210 C209 1.228 . S
O211 Zn200 2.024 . S
O211 C202 1.058 . S
C212 O213 1.228 . S
C212 O214 1.267 . S
O213 C212 1.228 . S
O214 Zn201 1.969 . S
O214 C212 1.267 . S
O215 Zn201 1.965 . S
O215 C219 1.260 . S
O216 Zn200 1.969 . S
O216 C219 1.258 . S
O217 Zn201 2.024 . S
O217 C204 1.058 1_455 S
C218 O207 1.260 . S
C218 O208 1.258 . S
C219 O215 1.260 . S
C219 O216 1.258 . S
Zn220 O226 1.969 . S
Zn220 O227 1.965 . S
Zn220 O231 2.024 . S
Zn220 O236 1.969 . S
Zn221 O228 1.969 . S
Zn221 O234 1.969 . S
Zn221 O235 1.965 . S
Zn221 O237 2.024 . S
C222 O223 1.229 . S
C222 O231 1.058 . S
O223 C222 1.229 . S
C224 O225 1.229 . S
C224 O237 1.058 . S
O225 C224 1.229 . S
O226 Zn220 1.969 . S
O226 C229 1.267 . S
O227 Zn220 1.965 . S
O227 C238 1.260 . S
O228 Zn221 1.969 . S
O228 C238 1.258 . S
C229 O226 1.267 . S
C229 O230 1.228 . S
O230 C229 1.228 . S
O231 Zn220 2.024 . S
O231 C222 1.058 . S
C232 O233 1.228 . S
C232 O234 1.267 . S
O233 C232 1.228 . S
O234 Zn221 1.969 . S
O234 C232 1.267 . S
O235 Zn221 1.965 . S
O235 C239 1.260 . S
O236 Zn220 1.969 . S
O236 C239 1.258 . S
O237 Zn221 2.024 . S
O237 C224 1.058 . S
C238 O227 1.260 . S
C238 O228 1.258 . S
C239 O235 1.260 . S
C239 O236 1.258 . S
Zn240 O246 1.969 . S
Zn240 O247 1.965 . S
Zn240 O251 2.024 . S
Zn240 O256 1.969 . S
Zn241 O248 1.969 . S
Zn241 O254 1.969 . S
Zn241 O255 1.965 . S
Zn241 O257 2.024 . S
C242 O243 1.229 . S
C242 O251 1.058 . S
O243 C242 1.229 . S
C244 O245 1.229 . S
C244 O257 1.058 . S
O245 C244 1.229 . S
O246 Zn240 1.969 . S
O246 C249 1.267 . S
O247 Zn240 1.965 . S
O247 C258 1.260 . S
O248 Zn241 1.969 . S
O248 C258 1.258 . S
C249 O246 1.267 . S
C249 O250 1.228 . S
O250 C249 1.228 . S
O251 Zn240 2.024 . S
O251 C242 1.058 . S
C252 O253 1.228 . S
C252 O254 1.267 . S
O253 C252 1.228 . S
O254 Zn241 1.969 . S
O254 C252 1.267 . S
O255 Zn241 1.965 . S
O255 C259 1.260 . S
O256 Zn240 1.969 . S
O256 C259 1.258 . S
O257 Zn241 2.024 . S
O257 C244 1.058 . S
C258 O247 1.260 . S
C258 O248 1.258 . S
C259 O255 1.260 . S
C259 O256 1.258 . S
Zn260 O266 1.969 . S
Zn260 O267 1.965 . S
Zn260 O271 2.024 . S
Zn260 O276 1.969 . S
Zn261 O268 1.969 . S
Zn261 O274 1.969 . S
Zn261 O275 1.965 . S
Zn261 O277 2.024 . S
C262 O263 1.229 . S
C262 O271 1.058 . S
O263 C262 1.229 . S
C264 O265 1.229 . S
C264 O277 1.058 . S
O265 C264 1.229 . S
O266 Zn260 1.969 . S
O266 C269 1.267 . S
O267 Zn260 1.965 . S
O267 C278 1.260 . S
O268 Zn261 1.969 . S
O268 C278 1.258 . S
C269 O266 1.267 . S
C269 O270 1.228 . S
O270 C269 1.228 . S
O271 Zn260 2.024 . S
O271 C262 1.058 . S
C272 O273 1.228 . S
C272 O274 1.267 . S
O273 C272 1.228 . S
O274 Zn261 1.969 . S
O274 C272 1.267 . S
O275 Zn261 1.965 . S
O275 C279 1.260 . S
O276 Zn260 1.969 . S
O276 C279 1.258 . S
O277 Zn261 2.024 . S
O277 C264 1.058 . S
C278 O267 1.260 . S
C278 O268 1.258 . S
C279 O275 1.260 . S
C279 O276 1.258 . S
Zn280 O286 1.969 . S
Zn280 O287 1.965 . S
Zn280 O291 2.024 . S
Zn280 O296 1.969 . S
Zn281 O288 1.969 . S
Zn281 O294 1.969 . S
Zn281 O295 1.965 . S
Zn281 O297 2.024 . S
C282 O283 1.229 . S
C282 O291 1.058 . S
O283 C282 1.229 . S
C284 O285 1.229 . S
C284 O297 1.058 . S
O285 C284 1.229 . S
O286 Zn280 1.969 . S
O286 C289 1.267 . S
O287 Zn280 1.965 . S
O287 C298 1.260 . S
O288 Zn281 1.969 . S
O288 C298 1.258 . S
C289 O286 1.267 . S
C289 O290 1.228 . S
O290 C289 1.228 . S
O291 Zn280 2.024 . S
O291 C282 1.058 . S
C292 O293 1.228 . S
C292 O294 1.267 . S
O293 C292 1.228 . S
O294 Zn281 1.969 . S
O294 C292 1.267 . S
O295 Zn281 1.965 . S
O295 C299 1.260 . S
O296 Zn280 1.969 . S
O296 C299 1.258 . S
O297 Zn281 2.024 . S
O297 C284 1.058 . S
C298 O287 1.260 . S
C298 O288 1.258 . S
C299 O295 1.260 . S
C299 O296 1.258 . S
Zn300 O306 1.969 . S
Zn300 O307 1.965 . S
Zn300 O311 2.024 . S
Zn300 O316 1.969 . S
Zn301 O308 1.969 . S
Zn301 O314 1.969 . S
Zn301 O315 1.965 . S
Zn301 O317 2.024 1_655 S
C302 O303 1.229 . S
C302 O311 1.058 . S
O303 C302 1.229 . S
C304 O305 1.229 1_455 S
C304 O317 1.058 . S
O305 C304 1.229 1_655 S
O306 Zn300 1.969 . S
O306 C309 1.267 . S
O307 Zn300 1.965 . S
O307 C318 1.260 . S
O308 Zn301 1.969 . S
O308 C318 1.258 . S
C309 O306 1.267 . S
C309 O310 1.228 . S
O310 C309 1.228 . S
O311 Zn300 2.024 . S
O311 C302 1.058 . S
C312 O313 1.228 1_655 S
C312 O314 1.267 . S
O313 C312 1.228 1_455 S
O314 Zn301 1.969 . S
O314 C312 1.267 . S
O315 Zn301 1.965 . S
O315 C319 1.260 . S
O316 Zn300 1.969 . S
O316 C319 1.258 . S
O317 Zn301 2.024 1_455 S
O317 C304 1.058 . S
C318 O307 1.260 . S
C318 O308 1.258 . S
C319 O315 1.260 . S
C319 O316 1.258 . S
Zn320 O326 1.969 . S
Zn320 O327 1.965 . S
Zn320 O331 2.024 . S
Zn320 O336 1.969 . S
Zn321 O328 1.969 . S
Zn321 O334 1.969 . S
Zn321 O335 1.965 . S
Zn321 O337 2.024 . S
C322 O323 1.229 . S
C322 O331 1.058 . S
O323 C322 1.229 . S
C324 O325 1.229 . S
C324 O337 1.058 . S
O325 C324 1.229 . S
O326 Zn320 1.969 . S
O326 C329 1.267 . S
O327 Zn320 1.965 . S
O327 C338 1.260 . S
O328 Zn321 1.969 . S
O328 C338 1.258 . S
C329 O326 1.267 . S
C329 O330 1.228 . S
O330 C329 1.228 . S
O331 Zn320 2.024 . S
O331 C322 1.058 . S
C332 O333 1.228 . S
C332 O334 1.267 . S
O333 C332 1.228 . S
O334 Zn321 1.969 . S
O334 C332 1.267 . S
O335 Zn321 1.965 . S
O335 C339 1.260 . S
O336 Zn320 1.969 . S
O336 C339 1.258 . S
O337 Zn321 2.024 . S
O337 C324 1.058 . S
C338 O327 1.260 . S
C338 O328 1.258 . S
C339 O335 1.260 . S
C339 O336 1.258 . S
Zn340 O346 1.969 . S
Zn340 O347 1.965 . S
Zn340 O351 2.024 . S
Zn340 O356 1.969 . S
Zn341 O348 1.969 . S
Zn341 O354 1.969 . S
Zn341 O355 1.965 . S
Zn341 O357 2.024 1_545 S
C342 O343 1.229 . S
C342 O351 1.058 . S
O343 C342 1.229 . S
C344 O345 1.229 1_565 S
C344 O357 1.058 . S
O345 C344 1.229 1_545 S
O346 Zn340 1.969 . S
O346 C349 1.267 . S
O347 Zn340 1.965 . S
O347 C358 1.260 . S
O348 Zn341 1.969 . S
O348 C358 1.258 . S
C349 O346 1.267 . S
C349 O350 1.228 . S
O350 C349 1.228 . S
O351 Zn340 2.024 . S
O351 C342 1.058 . S
C352 O353 1.228 1_545 S
C352 O354 1.267 . S
O353 C352 1.228 1_565 S
O354 Zn341 1.969 . S
O354 C352 1.267 . S
O355 Zn341 1.965 . S
O355 C359 1.260 . S
O356 Zn340 1.969 . S
O356 C359 1.258 . S
O357 Zn341 2.024 1_565 S
O357 C344 1.058 . S
C358 O347 1.260 . S
C358 O348 1.258 . S
C359 O355 1.260 . S
C359 O356 1.258 . S
Zn360 O366 1.969 . S
Zn360 O367 1.965 . S
Zn360 O371 2.024 1_545 S
Zn360 O376 1.969 . S
Zn361 O368 1.969 . S
Zn361 O374 1.969 . S
Zn361 O375 1.965 . S
Zn361 O377 2.024 . S
C362 O363 1.229 1_565 S
C362 O371 1.058 . S
O363 C362 1.229 1_545 S
C364 O365 1.229 . S
C364 O377 1.058 . S
O365 C364 1.229 . S
O366 Zn360 1.969 . S
O366 C369 1.267 . S
O367 Zn360 1.965 . S
O367 C378 1.260 . S
O368 Zn361 1.969 . S
O368 C378 1.258 . S
C369 O366 1.267 . S
C369 O370 1.228 1_545 S
O370 C369 1.228 1_565 S
O371 Zn360 2.024 1_565 S
O371 C362 1.058 . S
C372 O373 1.228 . S
C372 O374 1.267 . S
O373 C372 1.228 . S
O374 Zn361 1.969 . S
O374 C372 1.267 . S
O375 Zn361 1.965 . S
O375 C379 1.260 . S
O376 Zn360 1.969 . S
O376 C379 1.258 . S
O377 Zn361 2.024 . S
O377 C364 1.058 . S
C378 O367 1.260 . S
C378 O368 1.258 . S
C379 O375 1.260 . S
C379 O376 1.258 . S
Zn380 O386 1.969 . S
Zn380 O387 1.965 . S
Zn380 O391 2.024 1_655 S
Zn380 O396 1.969 . S
Zn381 O388 1.969 . S
Zn381 O394 1.969 . S
Zn381 O395 1.965 . S
Zn381 O397 2.024 . S
C382 O383 1.229 1_455 S
C382 O391 1.058 . S
O383 C382 1.229 1_655 S
C384 O385 1.229 . S
C384 O397 1.058 . S
O385 C384 1.229 . S
O386 Zn380 1.969 . S
O386 C389 1.267 . S
O387 Zn380 1.965 . S
O387 C398 1.260 . S
O388 Zn381 1.969 . S
O388 C398 1.258 . S
C389 O386 1.267 . S
C389 O390 1.228 1_655 S
O390 C389 1.228 1_455 S
O391 Zn380 2.024 1_455 S
O391 C382 1.058 . S
C392 O393 1.228 . S
C392 O394 1.267 . S
O393 C392 1.228 . S
O394 Zn381 1.969 . S
O394 C392 1.267 . S
O395 Zn381 1.965 . S
O395 C399 1.260 . S
O396 Zn380 1.969 . S
O396 C399 1.258 . S
O397 Zn381 2.024 . S
O397 C384 1.058 . S
C398 O387 1.260 . S
C398 O388 1.258 . S
C399 O395 1.260 . S
C399 O396 1.258 . S
Zn400 O406 1.969 . S
Zn400 O407 1.965 . S
Zn400 O411 2.024 . S
Zn400 O416 1.969 . S
Zn401 O408 1.969 . S
Zn401 O414 1.969 . S
Zn401 O415 1.965 . S
Zn401 O417 2.024 . S
C402 O403 1.229 . S
C402 O411 1.058 . S
O403 C402 1.229 . S
C404 O405 1.229 . S
C404 O417 1.058 . S
O405 C404 1.229 . S
O406 Zn400 1.969 . S
O406 C409 1.267 . S
O407 Zn400 1.965 . S
O407 C418 1.260 . S
O408 Zn401 1.969 . S
O408 C418 1.258 . S
C409 O406 1.267 . S
C409 O410 1.228 . S
O410 C409 1.228 . S
O411 Zn400 2.024 . S
O411 C402 1.058 . S
C412 O413 1.228 . S
C412 O414 1.267 . S
O413 C412 1.228 . S
O414 Zn401 1.969 . S
O414 C412 1.267 . S
O415 Zn401 1.965 . S
O415 C419 1.260 . S
O416 Zn400 1.969 . S
O416 C419 1.258 . S
O417 Zn401 2.024 . S
O417 C404 1.058 . S
C418 O407 1.260 . S
C418 O408 1.258 . S
C419 O415 1.260 . S
C419 O416 1.258 . S
Zn420 O426 1.969 . S
Zn420 O427 1.965 . S
Zn420 O431 2.024 . S
Zn420 O436 1.969 . S
Zn421 O428 1.969 . S
Zn421 O434 1.969 . S
Zn421 O435 1.965 . S
Zn421 O437 2.024 . S
C422 O423 1.229 . S
C422 O431 1.058 . S
O423 C422 1.229 . S
C424 O425 1.229 . S
C424 O437 1.058 . S
O425 C424 1.229 . S
O426 Zn420 1.969 . S
O426 C429 1.267 . S
O427 Zn420 1.965 . S
O427 C438 1.260 . S
O428 Zn421 1.969 . S
O428 C438 1.258 1_554 S
C429 O426 1.267 . S
C429 O430 1.228 . S
O430 C429 1.228 . S
O431 Zn420 2.024 . S
O431 C422 1.058 . S
C432 O433 1.228 . S
C432 O434 1.267 . S
O433 C432 1.228 . S
O434 Zn421 1.969 . S
O434 C432 1.267 . S
O435 Zn421 1.965 . S
O435 C439 1.260 . S
O436 Zn420 1.969 . S
O436 C439 1.258 1_556 S
O437 Zn421 2.024 . S
O437 C424 1.058 . S
C438 O427 1.260 . S
C438 O428 1.258 1_556 S
C439 O435 1.260 . S
C439 O436 1.258 1_554 S
Zn440 O446 1.969 . S
Zn440 O447 1.965 . S
Zn440 O451 2.024 . S
Zn440 O456 1.969 . S
Zn441 O448 1.969 . S
Zn441 O454 1.969 . S
Zn441 O455 1.965 . S
Zn441 O457 2.024 . S
C442 O443 1.229 . S
C442 O451 1.058 . S
O443 C442 1.229 . S
C444 O445 1.229 . S
C444 O457 1.058 . S
O445 C444 1.229 . S
O446 Zn440 1.969 . S
O446 C449 1.267 . S
O447 Zn440 1.965 . S
O447 C458 1.260 . S
O448 Zn441 1.969 . S
O448 C458 1.258 1_554 S
C449 O446 1.267 . S
C449 O450 1.228 . S
O450 C449 1.228 . S
O451 Zn440 2.024 . S
O451 C442 1.058 . S
C452 O453 1.228 . S
C452 O454 1.267 . S
O453 C452 1.228 . S
O454 Zn441 1.969 . S
O454 C452 1.267 . S
O455 Zn441 1.965 . S
O455 C459 1.260 . S
O456 Zn440 1.969 . S
O456 C459 1.258 1_556 S
O457 Zn441 2.024 . S
O457 C444 1.058 . S
C458 O447 1.260 . S
C458 O448 1.258 1_556 S
C459 O455 1.260 . S
C459 O456 1.258 1_554 S
Zn460 O466 1.969 . S
Zn460 O467 1.965 . S
Zn460 O471 2.024 . S
Zn460 O476 1.969 . S
Zn461 O468 1.969 . S
Zn461 O474 1.969 . S
Zn461 O475 1.965 . S
Zn461 O477 2.024 . S
C462 O463 1.229 . S
C462 O471 1.058 . S
O463 C462 1.229 . S
C464 O465 1.229 . S
C464 O477 1.058 . S
O465 C464 1.229 . S
O466 Zn460 1.969 . S
O466 C469 1.267 . S
O467 Zn460 1.965 . S
O467 C478 1.260 . S
O468 Zn461 1.969 . S
O468 C478 1.258 1_554 S
C469 O466 1.267 . S
C469 O470 1.228 . S
O470 C469 1.228 . S
O471 Zn460 2.024 . S
O471 C462 1.058 . S
C472 O473 1.228 . S
C472 O474 1.267 . S
O473 C472 1.228 . S
O474 Zn461 1.969 . S
O474 C472 1.267 . S
O475 Zn461 1.965 . S
O475 C479 1.260 . S
O476 Zn460 1.969 . S
O476 C479 1.258 1_556 S
O477 Zn461 2.024 . S
O477 C464 1.058 . S
C478 O467 1.260 . S
C478 O468 1.258 1_556 S
C479 O475 1.260 . S
C479 O476 1.258 1_554 S
Zn480 O486 1.969 . S
Zn480 O487 1.965 . S
Zn480 O491 2.024 . S
Zn480 O496 1.969 . S
Zn481 O488 1.969 . S
Zn481 O494 1.969 . S
Zn481 O495 1.965 . S
Zn481 O497 2.024 1_565 S
C482 O483 1.229 . S
C482 O491 1.058 . S
O483 C482 1.229 . S
C484 O485 1.229 1_545 S
C484 O497 1.058 . S
O485 C484 1.229 1_565 S
O486 Zn480 1.969 . S
O486 C489 1.267 . S
O487 Zn480 1.965 . S
O487 C498 1.260 . S
O488 Zn481 1.969 . S
O488 C498 1.258 . S
C489 O486 1.267 . S
C489 O490 1.228 . S
O490 C489 1.228 . S
O491 Zn480 2.024 . S
O491 C482 1.058 . S
C492 O493 1.228 1_565 S
C492 O494 1.267 . S
O493 C492 1.228 1_545 S
O494 Zn481 1.969 . S
O494 C492 1.267 . S
O495 Zn481 1.965 . S
O495 C499 1.260 . S
O496 Zn480 1.969 . S
O496 C499 1.258 . S
O497 Zn481 2.024 1_545 S
O497 C484 1.058 . S
C498 O487 1.260 . S
C498 O488 1.258 . S
C499 O495 1.260 . S
C499 O496 1.258 . S
Zn500 O506 1.969 . S
Zn500 O507 1.965 . S
Zn500 O511 2.024 . S
Zn500 O516 1.969 . S
Zn501 O508 1.969 . S
Zn501 O514 1.969 . S
Zn501 O515 1.965 . S
Zn501 O517 2.024 1_455 S
C502 O503 1.229 . S
C502 O511 1.058 . S
O503 C502 1.229 . S
C504 O505 1.229 1_655 S
C504 O517 1.058 . S
O505 C504 1.229 1_455 S
O506 Zn500 1.969 . S
O506 C509 1.267 . S
O507 Zn500 1.965 . S
O507 C518 1.260 . S
O508 Zn501 1.969 . S
O508 C518 1.258 . S
C509 O506 1.267 . S
C509 O510 1.228 . S
O510 C509 1.228 . S
O511 Zn500 2.024 . S
O511 C502 1.058 . S
C512 O513 1.228 1_455 S
C512 O514 1.267 . S
O513 C512 1.228 1_655 S
O514 Zn501 1.969 . S
O514 C512 1.267 . S
O515 Zn501 1.965 . S
O515 C519 1.260 . S
O516 Zn500 1.969 . S
O516 C519 1.258 . S
O517 Zn501 2.024 1_655 S
O517 C504 1.058 . S
C518 O507 1.260 . S
C518 O508 1.258 . S
C519 O515 1.260 . S
C519 O516 1.258 . S
Zn520 O526 1.969 . S
Zn520 O527 1.965 . S
Zn520 O531 2.024 . S
Zn520 O536 1.969 . S
Zn521 O528 1.969 . S
Zn521 O534 1.969 . S
Zn521 O535 1.965 . S
Zn521 O537 2.024 . S
C522 O523 1.229 . S
C522 O531 1.058 . S
O523 C522 1.229 . S
C524 O525 1.229 . S
C524 O537 1.058 . S
O525 C524 1.229 . S
O526 Zn520 1.969 . S
O526 C529 1.267 . S
O527 Zn520 1.965 . S
O527 C538 1.260 . S
O528 Zn521 1.969 . S
O528 C538 1.258 . S
C529 O526 1.267 . S
C529 O530 1.228 . S
O530 C529 1.228 . S
O531 Zn520 2.024 . S
O531 C522 1.058 . S
C532 O533 1.228 . S
C532 O534 1.267 . S
O533 C532 1.228 . S
O534 Zn521 1.969 . S
O534 C532 1.267 . S
O535 Zn521 1.965 . S
O535 C539 1.260 . S
O536 Zn520 1.969 . S
O536 C539 1.258 . S
O537 Zn521 2.024 . S
O537 C524 1.058 . S
C538 O527 1.260 . S
C538 O528 1.258 . S
C539 O535 1.260 . S
C539 O536 1.258 . S
Zn540 O546 1.969 . S
Zn540 O547 1.965 . S
Zn540 O551 2.024 . S
Zn540 O556 1.969 . S
Zn541 O548 1.969 . S
Zn541 O554 1.969 . S
Zn541 O555 1.965 . S
Zn541 O557 2.024 . S
C542 O543 1.229 . S
C542 O551 1.058 . S
O543 C542 1.229 . S
C544 O545 1.229 . S
C544 O557 1.058 . S
O545 C544 1.229 . S
O546 Zn540 1.969 . S
O546 C549 1.267 . S
O547 Zn540 1.965 . S
O547 C558 1.260 . S
O548 Zn541 1.969 . S
O548 C558 1.258 1_554 S
C549 O546 1.267 . S
C549 O550 1.228 . S
O550 C549 1.228 . S
O551 Zn540 2.024 . S
O551 C542 1.058 . S
C552 O553 1.228 . S
C552 O554 1.267 . S
O553 C552 1.228 . S
O554 Zn541 1.969 . S
O554 C552 1.267 . S
O555 Zn541 1.965 . S
O555 C559 1.260 . S
O556 Zn540 1.969 . S
O556 C559 1.258 1_556 S
O557 Zn541 2.024 . S
O557 C544 1.058 . S
C558 O547 1.260 . S
C558 O548 1.258 1_556 S
C559 O555 1.260 . S
C559 O556 1.258 1_554 S
Zn560 O566 1.969 . S
Zn560 O567 1.965 . S
Zn560 O571 2.024 . S
Zn560 O576 1.969 . S
Zn561 O568 1.969 . S
Zn561 O574 1.969 . S
Zn561 O575 1.965 . S
Zn561 O577 2.024 . S
C562 O563 1.229 . S
C562 O571 1.058 . S
O563 C562 1.229 . S
C564 O565 1.229 . S
C564 O577 1.058 . S
O565 C564 1.229 . S
O566 Zn560 1.969 . S
O566 C569 1.267 . S
O567 Zn560 1.965 . S
O567 C578 1.260 . S
O568 Zn561 1.969 . S
O568 C578 1.258 1_554 S
C569 O566 1.267 . S
C569 O570 1.228 . S
O570 C569 1.228 . S
O571 Zn560 2.024 . S
O571 C562 1.058 . S
C572 O573 1.228 . S
C572 O574 1.267 . S
O573 C572 1.228 . S
O574 Zn561 1.969 . S
O574 C572 1.267 . S
O575 Zn561 1.965 . S
O575 C579 1.260 . S
O576 Zn560 1.969 . S
O576 C579 1.258 1_556 S
O577 Zn561 2.024 . S
O577 C564 1.058 . S
C578 O567 1.260 . S
C578 O568 1.258 1_556 S
C579 O575 1.260 . S
C579 O576 1.258 1_554 S
Zn580 O586 1.969 . S
Zn580 O587 1.965 . S
Zn580 O591 2.024 . S
Zn580 O596 1.969 . S
Zn581 O588 1.969 . S
Zn581 O594 1.969 . S
Zn581 O595 1.965 . S
Zn581 O597 2.024 . S
C582 O583 1.229 . S
C582 O591 1.058 . S
O583 C582 1.229 . S
C584 O585 1.229 . S
C584 O597 1.058 . S
O585 C584 1.229 . S
O586 Zn580 1.969 . S
O586 C589 1.267 . S
O587 Zn580 1.965 . S
O587 C598 1.260 . S
O588 Zn581 1.969 . S
O588 C598 1.258 1_554 S
C589 O586 1.267 . S
C589 O590 1.228 . S
O590 C589 1.228 . S
O591 Zn580 2.024 . S
O591 C582 1.058 . S
C592 O593 1.228 . S
C592 O594 1.267 . S
O593 C592 1.228 . S
O594 Zn581 1.969 . S
O594 C592 1.267 . S
O595 Zn581 1.965 . S
O595 C599 1.260 . S
O596 Zn580 1.969 . S
O596 C599 1.258 1_556 S
O597 Zn581 2.024 . S
O597 C584 1.058 . S
C598 O587 1.260 . S
C598 O588 1.258 1_556 S
C599 O595 1.260 . S
C599 O596 1.258 1_554 S
Zn600 O606 1.969 . S
Zn600 O607 1.965 . S
Zn600 O611 2.024 . S
Zn600 O616 1.969 . S
Zn601 O608 1.969 . S
Zn601 O614 1.969 . S
Zn601 O615 1.965 . S
Zn601 O617 2.024 . S
C602 O603 1.229 . S
C602 O611 1.058 . S
O603 C602 1.229 . S
C604 O605 1.229 . S
C604 O617 1.058 . S
O605 C604 1.229 . S
O606 Zn600 1.969 . S
O606 C609 1.267 . S
O607 Zn600 1.965 . S
O607 C618 1.260 . S
O608 Zn601 1.969 . S
O608 C618 1.258 . S
C609 O606 1.267 . S
C609 O610 1.228 . S
O610 C609 1.228 . S
O611 Zn600 2.024 . S
O611 C602 1.058 . S
C612 O613 1.228 . S
C612 O614 1.267 . S
O613 C612 1.228 . S
O614 Zn601 1.969 . S
O614 C612 1.267 . S
O615 Zn601 1.965 . S
O615 C619 1.260 . S
O616 Zn600 1.969 . S
O616 C619 1.258 . S
O617 Zn601 2.024 . S
O617 C604 1.058 . S
C618 O607 1.260 . S
C618 O608 1.258 . S
C619 O615 1.260 . S
C619 O616 1.258 . S
Zn620 O626 1.969 . S
Zn620 O627 1.965 . S
Zn620 O631 2.024 . S
Zn620 O636 1.969 . S
Zn621 O628 1.969 . S
Zn621 O634 1.969 . S
Zn621 O635 1.965 . S
Zn621 O637 2.024 . S
C622 O623 1.229 . S
C622 O631 1.058 . S
O623 C622 1.229 . S
C624 O625 1.229 . S
C624 O637 1.058 . S
O625 C624 1.229 . S
O626 Zn620 1.969 . S
O626 C629 1.267 . S
O627 Zn620 1.965 . S
O627 C638 1.260 . S
O628 Zn621 1.969 . S
O628 C638 1.258 . S
C629 O626 1.267 . S
C629 O630 1.228 . S
O630 C629 1.228 . S
O631 Zn620 2.024 . S
O631 C622 1.058 . S
C632 O633 1.228 . S
C632 O634 1.267 . S
O633 C632 1.228 . S
O634 Zn621 1.969 . S
O634 C632 1.267 . S
O635 Zn621 1.965 . S
O635 C639 1.260 . S
O636 Zn620 1.969 . S
O636 C639 1.258 . S
O637 Zn621 2.024 . S
O637 C624 1.058 . S
C638 O627 1.260 . S
C638 O628 1.258 . S
C639 O635 1.260 . S
C639 O636 1.258 . S
Zn640 O646 1.969 . S
Zn640 O647 1.965 . S
Zn640 O651 2.024 . S
Zn640 O656 1.969 . S
Zn641 O648 1.969 . S
Zn641 O654 1.969 . S
Zn641 O655 1.965 . S
Zn641 O657 2.024 . S
C642 O643 1.229 . S
C642 O651 1.058 . S
O643 C642 1.229 . S
C644 O645 1.229 . S
C644 O657 1.058 . S
O645 C644 1.229 . S
O646 Zn640 1.969 . S
O646 C649 1.267 . S
O647 Zn640 1.965 . S
O647 C658 1.260 . S
O648 Zn641 1.969 . S
O648 C658 1.258 . S
C649 O646 1.267 . S
C649 O650 1.228 . S
O650 C649 1.228 . S
O651 Zn640 2.024 . S
O651 C642 1.058 . S
C652 O653 1.228 . S
C652 O654 1.267 . S
O653 C652 1.228 . S
O654 Zn641 1.969 . S
O654 C652 1.267 . S
O655 Zn641 1.965 . S
O655 C659 1.260 . S
O656 Zn640 1.969 . S
O656 C659 1.258 . S
O657 Zn641 2.024 . S
O657 C644 1.058 . S
C658 O647 1.260 . S
C658 O648 1.258 . S
C659 O655 1.260 . S
C659 O656 1.258 . S
Zn660 O666 1.969 . S
Zn660 O667 1.965 . S
Zn660 O671 2.024 1_455 S
Zn660 O676 1.969 . S
Zn661 O668 1.969 . S
Zn661 O674 1.969 . S
Zn661 O675 1.965 . S
Zn661 O677 2.024 . S
C662 O663 1.229 1_655 S
C662 O671 1.058 . S
O663 C662 1.229 1_455 S
C664 O665 1.229 . S
C664 O677 1.058 . S
O665 C664 1.229 . S
O666 Zn660 1.969 . S
O666 C669 1.267 . S
O667 Zn660 1.965 . S
O667 C678 1.260 . S
O668 Zn661 1.969 . S
O668 C678 1.258 . S
C669 O666 1.267 . S
C669 O670 1.228 1_455 S
O670 C669 1.228 1_655 S
O671 Zn660 2.024 1_655 S
O671 C662 1.058 . S
C672 O673 1.228 . S
C672 O674 1.267 . S
O673 C672 1.228 . S
O674 Zn661 1.969 . S
O674 C672 1.267 . S
O675 Zn661 1.965 . S
O675 C679 1.260 . S
O676 Zn660 1.969 . S
O676 C679 1.258 . S
O677 Zn661 2.024 . S
O677 C664 1.058 . S
C678 O667 1.260 . S
C678 O668 1.258 . S
C679 O675 1.260 . S
C679 O676 1.258 . S
Zn680 O686 1.969 . S
Zn680 O687 1.965 . S
Zn680 O691 2.024 . S
Zn680 O696 1.969 . S
Zn681 O688 1.969 . S
Zn681 O694 1.969 . S
Zn681 O695 1.965 . S
Zn681 O697 2.024 . S
C682 O683 1.229 . S
C682 O691 1.058 . S
O683 C682 1.229 . S
C684 O685 1.229 . S
C684 O697 1.058 . S
O685 C684 1.229 . S
O686 Zn680 1.969 . S
O686 C689 1.267 . S
O687 Zn680 1.965 . S
O687 C698 1.260 . S
O688 Zn681 1.969 . S
O688 C698 1.258 . S
C689 O686 1.267 . S
C689 O690 1.228 . S
O690 C689 1.228 . S
O691 Zn680 2.024 . S
O691 C682 1.058 . S
C692 O693 1.228 . S
C692 O694 1.267 . S
O693 C692 1.228 . S
O694 Zn681 1.969 . S
O694 C692 1.267 . S
O695 Zn681 1.965 . S
O695 C699 1.260 . S
O696 Zn680 1.969 . S
O696 C699 1.258 . S
O697 Zn681 2.024 . S
O697 C684 1.058 . S
C698 O687 1.260 . S
C698 O688 1.258 . S
C699 O695 1.260 . S
C699 O696 1.258 . S
Zn700 O706 1.969 . S
Zn700 O707 1.965 . S
Zn700 O711 2.024 1_565 S
Zn700 O716 1.969 . S
Zn701 O708 1.969 . S
Zn701 O714 1.969 . S
Zn701 O715 1.965 . S
Zn701 O717 2.024 . S
C702 O703 1.229 1_545 S
C702 O711 1.058 . S
O703 C702 1.229 1_565 S
C704 O705 1.229 . S
C704 O717 1.058 . S
O705 C704 1.229 . S
O706 Zn700 1.969 . S
O706 C709 1.267 . S
O707 Zn700 1.965 . S
O707 C718 1.260 . S
O708 Zn701 1.969 . S
O708 C718 1.258 . S
C709 O706 1.267 . S
C709 O710 1.228 1_565 S
O710 C709 1.228 1_545 S
O711 Zn700 2.024 1_545 S
O711 C702 1.058 . S
C712 O713 1.228 . S
C712 O714 1.267 . S
O713 C712 1.228 . S
O714 Zn701 1.969 . S
O714 C712 1.267 . S
O715 Zn701 1.965 . S
O715 C719 1.260 . S
O716 Zn700 1.969 . S
O716 C719 1.258 . S
O717 Zn701 2.024 . S
O717 C704 1.058 . S
C718 O707 1.260 . S
C718 O708 1.258 . S
C719 O715 1.260 . S
C719 O716 1.258 . S
C720 C721 1.369 . S
C720 C722 1.419 . S
C720 H724 0.930 . S
C721 C720 1.369 . S
C721 C730 1.429 . S
C722 C720 1.419 . S
C722 C723 1.363 . S
C722 H725 0.929 . S
C723 C722 1.363 . S
C723 C729 1.428 . S
H724 C720 0.930 . S
H725 C722 0.929 . S
S726 N727 1.613 . S
S726 N728 1.610 . S
N727 S726 1.613 . S
N727 C730 1.350 . S
N728 S726 1.610 . S
N728 C729 1.351 . S
C729 C723 1.428 . S
C729 N728 1.351 . S
C729 C730 1.434 . S
C730 C721 1.429 . S
C730 N727 1.350 . S
C730 C729 1.434 . S
C731 C732 1.369 . S
C731 C733 1.419 . S
C731 H735 0.930 . S
C732 C731 1.369 . S
C732 C741 1.429 . S
C733 C731 1.419 . S
C733 C734 1.366 1_545 S
C733 H736 0.929 1_545 S
C734 C733 1.366 1_565 S
C734 C740 1.410 1_565 S
H735 C731 0.930 . S
H736 C733 0.929 1_565 S
S737 N738 1.613 . S
S737 N739 1.610 . S
N738 S737 1.613 . S
N738 C741 1.350 . S
N739 S737 1.610 . S
N739 C740 1.351 . S
C740 C734 1.410 1_545 S
C740 N739 1.351 . S
C740 C741 1.434 . S
C741 C732 1.429 . S
C741 N738 1.350 . S
C741 C740 1.434 . S
C742 C743 1.369 1_655 S
C742 C744 1.419 . S
C742 H746 0.930 . S
C743 C742 1.369 1_455 S
C743 C752 1.429 1_455 S
C744 C742 1.419 . S
C744 C745 1.363 . S
C744 H747 0.929 . S
C745 C744 1.363 . S
C745 C751 1.428 . S
H746 C742 0.930 . S
H747 C744 0.929 . S
S748 N749 1.613 1_655 S
S748 N750 1.610 . S
N749 S748 1.613 1_455 S
N749 C752 1.350 1_455 S
N750 S748 1.610 . S
N750 C751 1.351 . S
C751 C745 1.428 . S
C751 N750 1.351 . S
C751 C752 1.434 . S
C752 C743 1.429 1_655 S
C752 N749 1.350 1_655 S
C752 C751 1.434 . S
C753 C754 1.369 . S
C753 C755 1.419 . S
C753 H757 0.930 . S
C754 C753 1.369 . S
C754 C763 1.429 . S
C755 C753 1.419 . S
C755 C756 1.363 . S
C755 H758 0.929 . S
C756 C755 1.363 . S
C756 C762 1.428 . S
H757 C753 0.930 . S
H758 C755 0.929 . S
S759 N760 1.613 . S
S759 N761 1.610 . S
N760 S759 1.613 . S
N760 C763 1.350 . S
N761 S759 1.610 . S
N761 C762 1.351 . S
C762 C756 1.428 . S
C762 N761 1.351 . S
C762 C763 1.434 . S
C763 C754 1.429 . S
C763 N760 1.350 . S
C763 C762 1.434 . S
C764 C765 1.369 . S
C764 C766 1.419 . S
C764 H768 0.930 . S
C765 C764 1.369 . S
C765 C774 1.429 . S
C766 C764 1.419 . S
C766 C767 1.354 1_565 S
C766 H769 0.929 . S
C767 C766 1.354 1_545 S
C767 C773 1.419 1_545 S
H768 C764 0.930 . S
H769 C766 0.929 . S
S770 N771 1.613 . S
S770 N772 1.610 1_565 S
N771 S770 1.613 . S
N771 C774 1.350 . S
N772 S770 1.610 1_545 S
N772 C773 1.351 1_545 S
C773 C767 1.419 1_565 S
C773 N772 1.351 1_565 S
C773 C774 1.434 . S
C774 C765 1.429 . S
C774 N771 1.350 . S
C774 C773 1.434 . S
C775 C776 1.372 1_455 S
C775 C777 1.419 . S
C775 H779 0.930 1_455 S
C776 C775 1.372 1_655 S
C776 C785 1.419 1_655 S
C777 C775 1.419 . S
C777 C778 1.363 . S
C777 H780 0.929 . S
C778 C777 1.363 . S
C778 C784 1.428 . S
H779 C775 0.930 1_655 S
H780 C777 0.929 . S
S781 N782 1.613 . S
S781 N783 1.610 . S
N782 S781 1.613 . S
N782 C785 1.350 . S
N783 S781 1.610 . S
N783 C784 1.351 . S
C784 C778 1.428 . S
C784 N783 1.351 . S
C784 C785 1.434 . S
C785 C776 1.419 1_455 S
C785 N782 1.350 . S
C785 C784 1.434 . S
C786 C787 1.369 . S
C786 C788 1.419 . S
C786 H790 0.930 . S
C787 C786 1.369 . S
C787 C796 1.429 . S
C788 C786 1.419 . S
C788 C789 1.363 . S
C788 H791 0.929 . S
C789 C788 1.363 . S
C789 C795 1.428 . S
H790 C786 0.930 . S
H791 C788 0.929 . S
S792 N793 1.613 . S
S792 N794 1.610 . S
N793 S792 1.613 . S
N793 C796 1.350 . S
N794 S792 1.610 . S
N794 C795 1.351 . S
C795 C789 1.428 . S
C795 N794 1.351 . S
C795 C796 1.434 . S
C796 C787 1.429 . S
C796 N793 1.350 . S
C796 C795 1.434 . S
C797 C798 1.369 1_565 S
C797 C799 1.419 . S
C797 H801 0.930 . S
C798 C797 1.369 1_545 S
C798 C807 1.429 1_545 S
C799 C797 1.419 . S
C799 C800 1.363 . S
C799 H802 0.929 . S
C800 C799 1.363 . S
C800 C806 1.428 . S
H801 C797 0.930 . S
H802 C799 0.929 . S
S803 N804 1.613 1_565 S
S803 N805 1.610 . S
N804 S803 1.613 1_545 S
N804 C807 1.350 1_545 S
N805 S803 1.610 . S
N805 C806 1.351 . S
C806 C800 1.428 . S
C806 N805 1.351 . S
C806 C807 1.434 . S
C807 C798 1.429 1_565 S
C807 N804 1.350 1_565 S
C807 C806 1.434 . S
C808 C809 1.356 1_455 S
C808 C810 1.419 . S
C808 H812 0.930 1_455 S
C809 C808 1.356 1_655 S
C809 C818 1.420 1_655 S
C810 C808 1.419 . S
C810 C811 1.363 . S
C810 H813 0.929 . S
C811 C810 1.363 . S
C811 C817 1.428 . S
H812 C808 0.930 1_655 S
H813 C810 0.929 . S
S814 N815 1.613 . S
S814 N816 1.610 . S
N815 S814 1.613 . S
N815 C818 1.350 . S
N816 S814 1.610 . S
N816 C817 1.351 . S
C817 C811 1.428 . S
C817 N816 1.351 . S
C817 C818 1.434 . S
C818 C809 1.420 1_455 S
C818 N815 1.350 . S
C818 C817 1.434 . S
C819 C820 1.369 . S
C819 C821 1.419 . S
C819 H823 0.930 . S
C820 C819 1.369 . S
C820 C829 1.429 . S
C821 C819 1.419 . S
C821 C822 1.363 . S
C821 H824 0.929 . S
C822 C821 1.363 . S
C822 C828 1.428 . S
H823 C819 0.930 . S
H824 C821 0.929 . S
S825 N826 1.613 . S
S825 N827 1.610 . S
N826 S825 1.613 . S
N826 C829 1.350 . S
N827 S825 1.610 . S
N827 C828 1.351 . S
C828 C822 1.428 . S
C828 N827 1.351 . S
C828 C829 1.434 . S
C829 C820 1.429 . S
C829 N826 1.350 . S
C829 C828 1.434 . S
C830 C831 1.369 . S
C830 C832 1.419 . S
C830 H834 0.930 . S
C831 C830 1.369 . S
C831 C840 1.429 . S
C832 C830 1.419 . S
C832 C833 1.357 1_545 S
C832 H835 0.929 1_545 S
C833 C832 1.357 1_565 S
C833 C839 1.425 1_565 S
H834 C830 0.930 . S
H835 C832 0.929 1_565 S
S836 N837 1.613 . S
S836 N838 1.610 . S
N837 S836 1.613 . S
N837 C840 1.350 . S
N838 S836 1.610 . S
N838 C839 1.351 . S
C839 C833 1.425 1_545 S
C839 N838 1.351 . S
C839 C840 1.434 . S
C840 C831 1.429 . S
C840 N837 1.350 . S
C840 C839 1.434 . S
C841 C842 1.369 . S
C841 C843 1.419 . S
C841 H845 0.930 . S
C842 C841 1.369 . S
C842 C851 1.429 . S
C843 C841 1.419 . S
C843 C844 1.366 1_655 S
C843 H846 0.929 1_655 S
C844 C843 1.366 1_455 S
C844 C850 1.419 1_455 S
H845 C841 0.930 . S
H846 C843 0.929 1_455 S
S847 N848 1.613 . S
S847 N849 1.610 . S
N848 S847 1.613 . S
N848 C851 1.350 . S
N849 S847 1.610 . S
N849 C850 1.351 . S
C850 C844 1.419 1_655 S
C850 N849 1.351 . S
C850 C851 1.434 . S
C851 C842 1.429 . S
C851 N848 1.350 . S
C851 C850 1.434 . S
C852 C853 1.369 . S
C852 C854 1.419 . S
C852 H856 0.930 . S
C853 C852 1.369 . S
C853 C862 1.429 . S
C854 C852 1.419 . S
C854 C855 1.363 . S
C854 H857 0.929 . S
C855 C854 1.363 . S
C855 C861 1.428 . S
H856 C852 0.930 . S
H857 C854 0.929 . S
S858 N859 1.613 . S
S858 N860 1.610 . S
N859 S858 1.613 . S
N859 C862 1.350 . S
N860 S858 1.610 . S
N860 C861 1.351 . S
C861 C855 1.428 . S
C861 N860 1.351 . S
C861 C862 1.434 . S
C862 C853 1.429 . S
C862 N859 1.350 . S
C862 C861 1.434 . S
C863 C864 1.369 . S
C863 C865 1.419 . S
C863 H867 0.930 . S
C864 C863 1.369 . S
C864 C873 1.429 . S
C865 C863 1.419 . S
C865 C866 1.363 . S
C865 H868 0.929 . S
C866 C865 1.363 . S
C866 C872 1.428 . S
H867 C863 0.930 . S
H868 C865 0.929 . S
S869 N870 1.613 . S
S869 N871 1.610 . S
N870 S869 1.613 . S
N870 C873 1.350 . S
N871 S869 1.610 . S
N871 C872 1.351 . S
C872 C866 1.428 . S
C872 N871 1.351 . S
C872 C873 1.434 . S
C873 C864 1.429 . S
C873 N870 1.350 . S
C873 C872 1.434 . S
C874 C875 1.369 . S
C874 C876 1.419 . S
C874 H878 0.930 . S
C875 C874 1.369 . S
C875 C884 1.429 . S
C876 C874 1.419 . S
C876 C877 1.363 . S
C876 H879 0.929 . S
C877 C876 1.363 . S
C877 C883 1.428 . S
H878 C874 0.930 . S
H879 C876 0.929 . S
S880 N881 1.613 . S
S880 N882 1.610 . S
N881 S880 1.613 . S
N881 C884 1.350 . S
N882 S880 1.610 . S
N882 C883 1.351 . S
C883 C877 1.428 . S
C883 N882 1.351 . S
C883 C884 1.434 . S
C884 C875 1.429 . S
C884 N881 1.350 . S
C884 C883 1.434 . S
C885 C886 1.369 . S
C885 C887 1.419 . S
C885 H889 0.930 . S
C886 C885 1.369 . S
C886 C895 1.429 . S
C887 C885 1.419 . S
C887 C888 1.363 . S
C887 H890 0.929 . S
C888 C887 1.363 . S
C888 C894 1.428 . S
H889 C885 0.930 . S
H890 C887 0.929 . S
S891 N892 1.613 . S
S891 N893 1.610 . S
N892 S891 1.613 . S
N892 C895 1.350 . S
N893 S891 1.610 . S
N893 C894 1.351 . S
C894 C888 1.428 . S
C894 N893 1.351 . S
C894 C895 1.434 . S
C895 C886 1.429 . S
C895 N892 1.350 . S
C895 C894 1.434 . S
C896 C897 1.369 . S
C896 C898 1.419 . S
C896 H900 0.930 . S
C897 C896 1.369 . S
C897 C906 1.429 . S
C898 C896 1.419 . S
C898 C899 1.363 . S
C898 H901 0.929 . S
C899 C898 1.363 . S
C899 C905 1.428 . S
H900 C896 0.930 . S
H901 C898 0.929 . S
S902 N903 1.613 . S
S902 N904 1.610 . S
N903 S902 1.613 . S
N903 C906 1.350 . S
N904 S902 1.610 . S
N904 C905 1.351 . S
C905 C899 1.428 . S
C905 N904 1.351 . S
C905 C906 1.434 . S
C906 C897 1.429 . S
C906 N903 1.350 . S
C906 C905 1.434 . S
C907 C908 1.369 . S
C907 C909 1.419 . S
C907 H911 0.930 . S
C908 C907 1.369 . S
C908 C917 1.429 . S
C909 C907 1.419 . S
C909 C910 1.363 . S
C909 H912 0.929 . S
C910 C909 1.363 . S
C910 C916 1.428 . S
H911 C907 0.930 . S
H912 C909 0.929 . S
S913 N914 1.613 . S
S913 N915 1.610 . S
N914 S913 1.613 . S
N914 C917 1.350 . S
N915 S913 1.610 . S
N915 C916 1.351 . S
C916 C910 1.428 . S
C916 N915 1.351 . S
C916 C917 1.434 . S
C917 C908 1.429 . S
C917 N914 1.350 . S
C917 C916 1.434 . S
C918 C919 1.369 . S
C918 C920 1.419 . S
C918 H922 0.930 . S
C919 C918 1.369 . S
C919 C928 1.429 . S
C920 C918 1.419 . S
C920 C921 1.363 . S
C920 H923 0.929 . S
C921 C920 1.363 . S
C921 C927 1.428 . S
H922 C918 0.930 . S
H923 C920 0.929 . S
S924 N925 1.613 . S
S924 N926 1.610 . S
N925 S924 1.613 . S
N925 C928 1.350 . S
N926 S924 1.610 . S
N926 C927 1.351 . S
C927 C921 1.428 . S
C927 N926 1.351 . S
C927 C928 1.434 . S
C928 C919 1.429 . S
C928 N925 1.350 . S
C928 C927 1.434 . S
C929 C930 1.369 . S
C929 C931 1.419 . S
C929 H933 0.930 . S
C930 C929 1.369 . S
C930 C939 1.429 . S
C931 C929 1.419 . S
C931 C932 1.363 . S
C931 H934 0.929 . S
C932 C931 1.363 . S
C932 C938 1.428 . S
H933 C929 0.930 . S
H934 C931 0.929 . S
S935 N936 1.613 . S
S935 N937 1.610 . S
N936 S935 1.613 . S
N936 C939 1.350 . S
N937 S935 1.610 . S
N937 C938 1.351 . S
C938 C932 1.428 . S
C938 N937 1.351 . S
C938 C939 1.434 . S
C939 C930 1.429 . S
C939 N936 1.350 . S
C939 C938 1.434 . S
C940 C941 1.369 . S
C940 C942 1.419 . S
C940 H944 0.930 . S
C941 C940 1.369 . S
C941 C950 1.429 . S
C942 C940 1.419 . S
C942 C943 1.363 . S
C942 H945 0.929 . S
C943 C942 1.363 . S
C943 C949 1.428 . S
H944 C940 0.930 . S
H945 C942 0.929 . S
S946 N947 1.613 . S
S946 N948 1.610 . S
N947 S946 1.613 . S
N947 C950 1.350 . S
N948 S946 1.610 . S
N948 C949 1.351 . S
C949 C943 1.428 . S
C949 N948 1.351 . S
C949 C950 1.434 . S
C950 C941 1.429 . S
C950 N947 1.350 . S
C950 C949 1.434 . S
C951 C952 1.369 . S
C951 C953 1.419 . S
C951 H955 0.930 . S
C952 C951 1.369 . S
C952 C961 1.430 1_554 S
C953 C951 1.419 . S
C953 C954 1.363 . S
C953 H956 0.929 . S
C954 C953 1.363 . S
C954 C960 1.427 1_554 S
H955 C951 0.930 . S
H956 C953 0.929 . S
S957 N958 1.613 . S
S957 N959 1.610 . S
N958 S957 1.613 . S
N958 C961 1.349 . S
N959 S957 1.610 . S
N959 C960 1.352 . S
C960 C954 1.427 1_556 S
C960 N959 1.352 . S
C960 C961 1.434 . S
C961 C952 1.430 1_556 S
C961 N958 1.349 . S
C961 C960 1.434 . S
C962 C963 1.369 1_556 S
C962 C964 1.419 . S
C962 H966 0.930 . S
C963 C962 1.369 1_554 S
C963 C972 1.429 . S
C964 C962 1.419 . S
C964 C965 1.363 1_556 S
C964 H967 0.929 . S
C965 C964 1.363 1_554 S
C965 C971 1.428 . S
H966 C962 0.930 . S
H967 C964 0.929 . S
S968 N969 1.613 . S
S968 N970 1.610 . S
N969 S968 1.613 . S
N969 C972 1.350 . S
N970 S968 1.610 . S
N970 C971 1.351 . S
C971 C965 1.428 . S
C971 N970 1.351 . S
C971 C972 1.434 . S
C972 C963 1.429 . S
C972 N969 1.350 . S
C972 C971 1.434 . S
C973 C974 1.369 1_556 S
C973 C975 1.419 . S
C973 H977 0.930 . S
C974 C973 1.369 1_554 S
C974 C983 1.429 . S
C975 C973 1.419 . S
C975 C976 1.363 1_556 S
C975 H978 0.929 . S
C976 C975 1.363 1_554 S
C976 C982 1.428 . S
H977 C973 0.930 . S
H978 C975 0.929 . S
S979 N980 1.613 . S
S979 N981 1.610 . S
N980 S979 1.613 . S
N980 C983 1.350 . S
N981 S979 1.610 . S
N981 C982 1.351 . S
C982 C976 1.428 . S
C982 N981 1.351 . S
C982 C983 1.434 . S
C983 C974 1.429 . S
C983 N980 1.350 . S
C983 C982 1.434 . S
C984 C985 1.369 . S
C984 C986 1.419 . S
C984 H988 0.930 . S
C985 C984 1.369 . S
C985 C994 1.429 . S
C986 C984 1.419 . S
C986 C987 1.363 . S
C986 H989 0.929 . S
C987 C986 1.363 . S
C987 C993 1.428 . S
H988 C984 0.930 . S
H989 C986 0.929 . S
S990 N991 1.613 . S
S990 N992 1.610 . S
N991 S990 1.613 . S
N991 C994 1.350 . S
N992 S990 1.610 . S
N992 C993 1.351 . S
C993 C987 1.428 . S
C993 N992 1.351 . S
C993 C994 1.434 . S
C994 C985 1.429 . S
C994 N991 1.350 . S
C994 C993 1.434 . S
C995 C996 1.369 . S
C995 C997 1.419 . S
C995 H999 0.930 . S
C996 C995 1.369 . S
C996 C1005 1.429 . S
C997 C995 1.419 . S
C997 C998 1.363 . S
C997 H1000 0.929 . S
C998 C997 1.363 . S
C998 C1004 1.428 . S
H999 C995 0.930 . S
H1000 C997 0.929 . S
S1001 N1002 1.613 . S
S1001 N1003 1.610 . S
N1002 S1001 1.613 . S
N1002 C1005 1.350 . S
N1003 S1001 1.610 . S
N1003 C1004 1.351 . S
C1004 C998 1.428 . S
C1004 N1003 1.351 . S
C1004 C1005 1.434 . S
C1005 C996 1.429 . S
C1005 N1002 1.350 . S
C1005 C1004 1.434 . S
C1006 C1007 1.369 . S
C1006 C1008 1.419 . S
C1006 H1010 0.930 . S
C1007 C1006 1.369 . S
C1007 C1016 1.429 . S
C1008 C1006 1.419 . S
C1008 C1009 1.363 . S
C1008 H1011 0.929 . S
C1009 C1008 1.363 . S
C1009 C1015 1.428 . S
H1010 C1006 0.930 . S
H1011 C1008 0.929 . S
S1012 N1013 1.613 . S
S1012 N1014 1.610 . S
N1013 S1012 1.613 . S
N1013 C1016 1.350 . S
N1014 S1012 1.610 . S
N1014 C1015 1.351 . S
C1015 C1009 1.428 . S
C1015 N1014 1.351 . S
C1015 C1016 1.434 . S
C1016 C1007 1.429 . S
C1016 N1013 1.350 . S
C1016 C1015 1.434 . S
C1017 C1018 1.369 . S
C1017 C1019 1.419 . S
C1017 H1021 0.930 . S
C1018 C1017 1.369 . S
C1018 C1027 1.429 . S
C1019 C1017 1.419 . S
C1019 C1020 1.363 . S
C1019 H1022 0.929 . S
C1020 C1019 1.363 . S
C1020 C1026 1.430 . S
H1021 C1017 0.930 . S
H1022 C1019 0.929 . S
S1023 N1024 1.613 . S
S1023 N1025 1.610 . S
N1024 S1023 1.613 . S
N1024 C1027 1.350 1_554 S
N1025 S1023 1.610 . S
N1025 C1026 1.350 1_554 S
C1026 C1020 1.430 . S
C1026 N1025 1.350 1_556 S
C1026 C1027 1.434 . S
C1027 C1018 1.429 . S
C1027 N1024 1.350 1_556 S
C1027 C1026 1.434 . S
C1028 C1029 1.369 . S
C1028 C1030 1.419 . S
C1028 H1032 0.930 . S
C1029 C1028 1.369 . S
C1029 C1038 1.429 1_556 S
C1030 C1028 1.419 . S
C1030 C1031 1.363 . S
C1030 H1033 0.929 . S
C1031 C1030 1.363 . S
C1031 C1037 1.428 1_556 S
H1032 C1028 0.930 . S
H1033 C1030 0.929 . S
S1034 N1035 1.613 . S
S1034 N1036 1.610 . S
N1035 S1034 1.613 . S
N1035 C1038 1.350 . S
N1036 S1034 1.610 . S
N1036 C1037 1.351 . S
C1037 C1031 1.428 1_554 S
C1037 N1036 1.351 . S
C1037 C1038 1.434 . S
C1038 C1029 1.429 1_554 S
C1038 N1035 1.350 . S
C1038 C1037 1.434 . S
C1039 C1040 1.369 1_554 S
C1039 C1041 1.419 . S
C1039 H1043 0.930 . S
C1040 C1039 1.369 1_556 S
C1040 C1049 1.429 . S
C1041 C1039 1.419 . S
C1041 C1042 1.363 1_554 S
C1041 H1044 0.929 . S
C1042 C1041 1.363 1_556 S
C1042 C1048 1.428 . S
H1043 C1039 0.930 . S
H1044 C1041 0.929 . S
S1045 N1046 1.613 . S
S1045 N1047 1.610 . S
N1046 S1045 1.613 . S
N1046 C1049 1.350 . S
N1047 S1045 1.610 . S
N1047 C1048 1.351 . S
C1048 C1042 1.428 . S
C1048 N1047 1.351 . S
C1048 C1049 1.434 . S
C1049 C1040 1.429 . S
C1049 N1046 1.350 . S
C1049 C1048 1.434 . S
C1050 C1051 1.369 . S
C1050 C1052 1.419 . S
C1050 H1054 0.930 . S
C1051 C1050 1.369 . S
C1051 C1060 1.429 . S
C1052 C1050 1.419 . S
C1052 C1053 1.363 . S
C1052 H1055 0.929 . S
C1053 C1052 1.363 . S
C1053 C1059 1.428 . S
H1054 C1050 0.930 . S
H1055 C1052 0.929 . S
S1056 N1057 1.613 . S
S1056 N1058 1.610 . S
N1057 S1056 1.613 . S
N1057 C1060 1.350 . S
N1058 S1056 1.610 . S
N1058 C1059 1.351 . S
C1059 C1053 1.428 . S
C1059 N1058 1.351 . S
C1059 C1060 1.434 . S
C1060 C1051 1.429 . S
C1060 N1057 1.350 . S
C1060 C1059 1.434 . S
C1061 C1062 1.369 . S
C1061 C1063 1.419 . S
C1061 H1065 0.930 . S
C1062 C1061 1.369 . S
C1062 C1071 1.429 . S
C1063 C1061 1.419 . S
C1063 C1064 1.363 . S
C1063 H1066 0.929 . S
C1064 C1063 1.363 . S
C1064 C1070 1.428 . S
H1065 C1061 0.930 . S
H1066 C1063 0.929 . S
S1067 N1068 1.613 . S
S1067 N1069 1.610 . S
N1068 S1067 1.613 . S
N1068 C1071 1.350 . S
N1069 S1067 1.610 . S
N1069 C1070 1.351 . S
C1070 C1064 1.428 . S
C1070 N1069 1.351 . S
C1070 C1071 1.434 . S
C1071 C1062 1.429 . S
C1071 N1068 1.350 . S
C1071 C1070 1.434 . S
C1072 C1073 1.369 . S
C1072 C1074 1.419 . S
C1072 H1076 0.930 . S
C1073 C1072 1.369 . S
C1073 C1082 1.429 . S
C1074 C1072 1.419 . S
C1074 C1075 1.363 . S
C1074 H1077 0.929 . S
C1075 C1074 1.363 . S
C1075 C1081 1.428 . S
H1076 C1072 0.930 . S
H1077 C1074 0.929 . S
S1078 N1079 1.613 . S
S1078 N1080 1.610 . S
N1079 S1078 1.613 . S
N1079 C1082 1.350 . S
N1080 S1078 1.610 . S
N1080 C1081 1.351 . S
C1081 C1075 1.428 . S
C1081 N1080 1.351 . S
C1081 C1082 1.434 . S
C1082 C1073 1.429 . S
C1082 N1079 1.350 . S
C1082 C1081 1.434 . S
C1083 C1084 1.369 . S
C1083 C1085 1.419 . S
C1083 H1087 0.930 . S
C1084 C1083 1.369 . S
C1084 C1093 1.429 . S
C1085 C1083 1.419 . S
C1085 C1086 1.363 . S
C1085 H1088 0.929 . S
C1086 C1085 1.363 . S
C1086 C1092 1.428 . S
H1087 C1083 0.930 . S
H1088 C1085 0.929 . S
S1089 N1090 1.613 . S
S1089 N1091 1.610 . S
N1090 S1089 1.613 . S
N1090 C1093 1.350 . S
N1091 S1089 1.610 . S
N1091 C1092 1.351 . S
C1092 C1086 1.428 . S
C1092 N1091 1.351 . S
C1092 C1093 1.434 . S
C1093 C1084 1.429 . S
C1093 N1090 1.350 . S
C1093 C1092 1.434 . S
C1094 C1095 1.369 . S
C1094 C1096 1.419 . S
C1094 H1098 0.930 . S
C1095 C1094 1.369 . S
C1095 C1104 1.429 . S
C1096 C1094 1.419 . S
C1096 C1097 1.363 . S
C1096 H1099 0.929 . S
C1097 C1096 1.363 . S
C1097 C1103 1.428 . S
H1098 C1094 0.930 . S
H1099 C1096 0.929 . S
S1100 N1101 1.613 . S
S1100 N1102 1.610 . S
N1101 S1100 1.613 . S
N1101 C1104 1.350 . S
N1102 S1100 1.610 . S
N1102 C1103 1.351 . S
C1103 C1097 1.428 . S
C1103 N1102 1.351 . S
C1103 C1104 1.434 . S
C1104 C1095 1.429 . S
C1104 N1101 1.350 . S
C1104 C1103 1.434 . S
C1105 C1106 1.369 . S
C1105 C1107 1.419 . S
C1105 H1109 0.930 . S
C1106 C1105 1.369 . S
C1106 C1115 1.429 . S
C1107 C1105 1.419 . S
C1107 C1108 1.363 . S
C1107 H1110 0.929 . S
C1108 C1107 1.363 . S
C1108 C1114 1.428 . S
H1109 C1105 0.930 . S
H1110 C1107 0.929 . S
S1111 N1112 1.613 . S
S1111 N1113 1.610 . S
N1112 S1111 1.613 . S
N1112 C1115 1.350 . S
N1113 S1111 1.610 . S
N1113 C1114 1.351 . S
C1114 C1108 1.428 . S
C1114 N1113 1.351 . S
C1114 C1115 1.434 . S
C1115 C1106 1.429 . S
C1115 N1112 1.350 . S
C1115 C1114 1.434 . S
C1116 C1117 1.369 . S
C1116 C1118 1.419 . S
C1116 H1120 0.930 . S
C1117 C1116 1.369 . S
C1117 C1126 1.429 . S
C1118 C1116 1.419 . S
C1118 C1119 1.363 . S
C1118 H1121 0.929 . S
C1119 C1118 1.363 . S
C1119 C1125 1.428 . S
H1120 C1116 0.930 . S
H1121 C1118 0.929 . S
S1122 N1123 1.613 . S
S1122 N1124 1.610 . S
N1123 S1122 1.613 . S
N1123 C1126 1.350 . S
N1124 S1122 1.610 . S
N1124 C1125 1.351 . S
C1125 C1119 1.428 . S
C1125 N1124 1.351 . S
C1125 C1126 1.434 . S
C1126 C1117 1.429 . S
C1126 N1123 1.350 . S
C1126 C1125 1.434 . S
C1127 C1128 1.369 1_565 S
C1127 C1129 1.419 . S
C1127 H1131 0.930 . S
C1128 C1127 1.369 1_545 S
C1128 C1137 1.429 . S
C1129 C1127 1.419 . S
C1129 C1130 1.363 . S
C1129 H1132 0.929 . S
C1130 C1129 1.363 . S
C1130 C1136 1.428 . S
H1131 C1127 0.930 . S
H1132 C1129 0.929 . S
S1133 N1134 1.613 . S
S1133 N1135 1.610 . S
N1134 S1133 1.613 . S
N1134 C1137 1.350 . S
N1135 S1133 1.610 . S
N1135 C1136 1.351 1_545 S
C1136 C1130 1.428 . S
C1136 N1135 1.351 1_565 S
C1136 C1137 1.434 1_565 S
C1137 C1128 1.429 . S
C1137 N1134 1.350 . S
C1137 C1136 1.434 1_545 S
C1138 C1139 1.369 . S
C1138 C1140 1.419 1_455 S
C1138 H1142 0.930 . S
C1139 C1138 1.369 . S
C1139 C1148 1.429 . S
C1140 C1138 1.419 1_655 S
C1140 C1141 1.367 . S
C1140 H1143 0.929 . S
C1141 C1140 1.367 . S
C1141 C1147 1.423 1_655 S
H1142 C1138 0.930 . S
H1143 C1140 0.929 . S
S1144 N1145 1.613 . S
S1144 N1146 1.610 . S
N1145 S1144 1.613 . S
N1145 C1148 1.350 . S
N1146 S1144 1.610 . S
N1146 C1147 1.351 . S
C1147 C1141 1.423 1_455 S
C1147 N1146 1.351 . S
C1147 C1148 1.434 . S
C1148 C1139 1.429 . S
C1148 N1145 1.350 . S
C1148 C1147 1.434 . S
C1149 C1150 1.369 . S
C1149 C1151 1.419 . S
C1149 H1153 0.930 . S
C1150 C1149 1.369 . S
C1150 C1159 1.429 . S
C1151 C1149 1.419 . S
C1151 C1152 1.363 . S
C1151 H1154 0.929 . S
C1152 C1151 1.363 . S
C1152 C1158 1.428 . S
H1153 C1149 0.930 . S
H1154 C1151 0.929 . S
S1155 N1156 1.613 . S
S1155 N1157 1.610 . S
N1156 S1155 1.613 . S
N1156 C1159 1.350 . S
N1157 S1155 1.610 . S
N1157 C1158 1.351 . S
C1158 C1152 1.428 . S
C1158 N1157 1.351 . S
C1158 C1159 1.434 . S
C1159 C1150 1.429 . S
C1159 N1156 1.350 . S
C1159 C1158 1.434 . S
C1160 C1161 1.366 1_565 S
C1160 C1162 1.419 1_565 S
C1160 H1164 0.930 . S
C1161 C1160 1.366 1_545 S
C1161 C1170 1.432 . S
C1162 C1160 1.419 1_545 S
C1162 C1163 1.363 . S
C1162 H1165 0.929 . S
C1163 C1162 1.363 . S
C1163 C1169 1.428 . S
H1164 C1160 0.930 . S
H1165 C1162 0.929 . S
S1166 N1167 1.613 . S
S1166 N1168 1.610 . S
N1167 S1166 1.613 . S
N1167 C1170 1.350 . S
N1168 S1166 1.610 . S
N1168 C1169 1.351 . S
C1169 C1163 1.428 . S
C1169 N1168 1.351 . S
C1169 C1170 1.434 . S
C1170 C1161 1.432 . S
C1170 N1167 1.350 . S
C1170 C1169 1.434 . S
C1171 C1172 1.369 . S
C1171 C1173 1.419 1_655 S
C1171 H1175 0.930 . S
C1172 C1171 1.369 . S
C1172 C1181 1.429 . S
C1173 C1171 1.419 1_455 S
C1173 C1174 1.363 1_455 S
C1173 H1176 0.929 . S
C1174 C1173 1.363 1_655 S
C1174 C1180 1.428 . S
H1175 C1171 0.930 . S
H1176 C1173 0.929 . S
S1177 N1178 1.613 . S
S1177 N1179 1.610 . S
N1178 S1177 1.613 . S
N1178 C1181 1.350 . S
N1179 S1177 1.610 . S
N1179 C1180 1.351 . S
C1180 C1174 1.428 . S
C1180 N1179 1.351 . S
C1180 C1181 1.434 . S
C1181 C1172 1.429 . S
C1181 N1178 1.350 . S
C1181 C1180 1.434 . S
C1182 C1183 1.369 . S
C1182 C1184 1.419 . S
C1182 H1186 0.930 . S
C1183 C1182 1.369 . S
C1183 C1192 1.429 . S
C1184 C1182 1.419 . S
C1184 C1185 1.363 . S
C1184 H1187 0.929 . S
C1185 C1184 1.363 . S
C1185 C1191 1.428 . S
H1186 C1182 0.930 . S
H1187 C1184 0.929 . S
S1188 N1189 1.613 . S
S1188 N1190 1.610 . S
N1189 S1188 1.613 . S
N1189 C1192 1.350 . S
N1190 S1188 1.610 . S
N1190 C1191 1.351 . S
C1191 C1185 1.428 . S
C1191 N1190 1.351 . S
C1191 C1192 1.434 . S
C1192 C1183 1.429 . S
C1192 N1189 1.350 . S
C1192 C1191 1.434 . S
C1193 C1194 1.369 . S
C1193 C1195 1.419 . S
C1193 H1197 0.930 . S
C1194 C1193 1.369 . S
C1194 C1203 1.429 . S
C1195 C1193 1.419 . S
C1195 C1196 1.347 1_545 S
C1195 H1198 0.929 . S
C1196 C1195 1.347 1_565 S
C1196 C1202 1.423 . S
H1197 C1193 0.930 . S
H1198 C1195 0.929 . S
S1199 N1200 1.603 1_565 S
S1199 N1201 1.610 . S
N1200 S1199 1.603 1_545 S
N1200 C1203 1.348 . S
N1201 S1199 1.610 . S
N1201 C1202 1.351 . S
C1202 C1196 1.423 . S
C1202 N1201 1.351 . S
C1202 C1203 1.434 1_565 S
C1203 C1194 1.429 . S
C1203 N1200 1.348 . S
C1203 C1202 1.434 1_545 S
C1204 C1205 1.369 . S
C1204 C1206 1.419 . S
C1204 H1208 0.930 . S
C1205 C1204 1.369 . S
C1205 C1214 1.429 . S
C1206 C1204 1.419 . S
C1206 C1207 1.361 1_655 S
C1206 H1209 0.929 . S
C1207 C1206 1.361 1_455 S
C1207 C1213 1.429 1_455 S
H1208 C1204 0.930 . S
H1209 C1206 0.929 . S
S1210 N1211 1.613 . S
S1210 N1212 1.610 . S
N1211 S1210 1.613 . S
N1211 C1214 1.350 . S
N1212 S1210 1.610 . S
N1212 C1213 1.351 . S
C1213 C1207 1.429 1_655 S
C1213 N1212 1.351 . S
C1213 C1214 1.434 . S
C1214 C1205 1.429 . S
C1214 N1211 1.350 . S
C1214 C1213 1.434 . S
C1215 C1216 1.369 . S
C1215 C1217 1.419 . S
C1215 H1219 0.930 . S
C1216 C1215 1.369 . S
C1216 C1225 1.429 . S
C1217 C1215 1.419 . S
C1217 C1218 1.363 . S
C1217 H1220 0.929 . S
C1218 C1217 1.363 . S
C1218 C1224 1.428 . S
H1219 C1215 0.930 . S
H1220 C1217 0.929 . S
S1221 N1222 1.613 . S
S1221 N1223 1.610 . S
N1222 S1221 1.613 . S
N1222 C1225 1.350 . S
N1223 S1221 1.610 . S
N1223 C1224 1.351 . S
C1224 C1218 1.428 . S
C1224 N1223 1.351 . S
C1224 C1225 1.434 . S
C1225 C1216 1.429 . S
C1225 N1222 1.350 . S
C1225 C1224 1.434 . S
C1226 C1227 1.354 1_565 S
C1226 C1228 1.419 . S
C1226 H1230 0.930 . S
C1227 C1226 1.354 1_545 S
C1227 C1236 1.441 . S
C1228 C1226 1.419 . S
C1228 C1229 1.363 . S
C1228 H1231 0.929 . S
C1229 C1228 1.363 . S
C1229 C1235 1.428 . S
H1230 C1226 0.930 . S
H1231 C1228 0.929 . S
S1232 N1233 1.613 . S
S1232 N1234 1.610 . S
N1233 S1232 1.613 . S
N1233 C1236 1.350 . S
N1234 S1232 1.610 . S
N1234 C1235 1.351 1_545 S
C1235 C1229 1.428 . S
C1235 N1234 1.351 1_565 S
C1235 C1236 1.434 1_565 S
C1236 C1227 1.441 . S
C1236 N1233 1.350 . S
C1236 C1235 1.434 1_545 S
C1237 C1238 1.366 1_455 S
C1237 C1239 1.419 . S
C1237 H1241 0.930 . S
C1238 C1237 1.366 1_655 S
C1238 C1247 1.427 . S
C1239 C1237 1.419 . S
C1239 C1240 1.363 . S
C1239 H1242 0.929 . S
C1240 C1239 1.363 . S
C1240 C1246 1.428 . S
H1241 C1237 0.930 . S
H1242 C1239 0.929 . S
S1243 N1244 1.613 . S
S1243 N1245 1.610 1_655 S
N1244 S1243 1.613 . S
N1244 C1247 1.350 . S
N1245 S1243 1.610 1_455 S
N1245 C1246 1.351 . S
C1246 C1240 1.428 . S
C1246 N1245 1.351 . S
C1246 C1247 1.434 1_455 S
C1247 C1238 1.427 . S
C1247 N1244 1.350 . S
C1247 C1246 1.434 1_655 S
C1248 C1249 1.369 1_455 S
C1248 C1250 1.419 . S
C1248 H1252 0.930 1_455 S
C1249 C1248 1.369 1_655 S
C1249 C1258 1.429 . S
C1250 C1248 1.419 . S
C1250 C1251 1.363 . S
C1250 H1253 0.929 . S
C1251 C1250 1.363 . S
C1251 C1257 1.428 . S
H1252 C1248 0.930 1_655 S
H1253 C1250 0.929 . S
S1254 N1255 1.613 1_455 S
S1254 N1256 1.610 . S
N1255 S1254 1.613 1_655 S
N1255 C1258 1.350 . S
N1256 S1254 1.610 . S
N1256 C1257 1.351 . S
C1257 C1251 1.428 . S
C1257 N1256 1.351 . S
C1257 C1258 1.434 1_455 S
C1258 C1249 1.429 . S
C1258 N1255 1.350 . S
C1258 C1257 1.434 1_655 S
C1259 C1260 1.369 . S
C1259 C1261 1.419 . S
C1259 H1263 0.930 . S
C1260 C1259 1.369 . S
C1260 C1269 1.429 . S
C1261 C1259 1.419 . S
C1261 C1262 1.363 . S
C1261 H1264 0.929 . S
C1262 C1261 1.363 . S
C1262 C1268 1.428 . S
H1263 C1259 0.930 . S
H1264 C1261 0.929 . S
S1265 N1266 1.613 . S
S1265 N1267 1.610 . S
N1266 S1265 1.613 . S
N1266 C1269 1.350 . S
N1267 S1265 1.610 . S
N1267 C1268 1.351 . S
C1268 C1262 1.428 . S
C1268 N1267 1.351 . S
C1268 C1269 1.434 . S
C1269 C1260 1.429 . S
C1269 N1266 1.350 . S
C1269 C1268 1.434 . S
C1270 C1271 1.369 . S
C1270 C1272 1.419 1_565 S
C1270 H1274 0.930 . S
C1271 C1270 1.369 . S
C1271 C1280 1.429 . S
C1272 C1270 1.419 1_545 S
C1272 C1273 1.363 . S
C1272 H1275 0.929 . S
C1273 C1272 1.363 . S
C1273 C1279 1.428 1_545 S
H1274 C1270 0.930 . S
H1275 C1272 0.929 . S
S1276 N1277 1.613 . S
S1276 N1278 1.596 1_565 S
N1277 S1276 1.613 . S
N1277 C1280 1.350 . S
N1278 S1276 1.596 1_545 S
N1278 C1279 1.355 1_545 S
C1279 C1273 1.428 1_565 S
C1279 N1278 1.355 1_565 S
C1279 C1280 1.434 . S
C1280 C1271 1.429 . S
C1280 N1277 1.350 . S
C1280 C1279 1.434 . S
C1281 C1282 1.369 . S
C1281 C1283 1.419 . S
C1281 H1285 0.930 . S
C1282 C1281 1.369 . S
C1282 C1291 1.429 . S
C1283 C1281 1.419 . S
C1283 C1284 1.363 . S
C1283 H1286 0.929 . S
C1284 C1283 1.363 . S
C1284 C1290 1.428 . S
H1285 C1281 0.930 . S
H1286 C1283 0.929 . S
S1287 N1288 1.613 . S
S1287 N1289 1.610 . S
N1288 S1287 1.613 . S
N1288 C1291 1.350 . S
N1289 S1287 1.610 . S
N1289 C1290 1.351 . S
C1290 C1284 1.428 . S
C1290 N1289 1.351 . S
C1290 C1291 1.434 . S
C1291 C1282 1.429 . S
C1291 N1288 1.350 . S
C1291 C1290 1.434 . S
C1292 C1293 1.369 . S
C1292 C1294 1.419 . S
C1292 H1296 0.930 . S
C1293 C1292 1.369 . S
C1293 C1302 1.429 . S
C1294 C1292 1.419 . S
C1294 C1295 1.363 . S
C1294 H1297 0.929 . S
C1295 C1294 1.363 . S
C1295 C1301 1.428 . S
H1296 C1292 0.930 . S
H1297 C1294 0.929 . S
S1298 N1299 1.613 . S
S1298 N1300 1.610 . S
N1299 S1298 1.613 . S
N1299 C1302 1.350 . S
N1300 S1298 1.610 . S
N1300 C1301 1.351 . S
C1301 C1295 1.428 . S
C1301 N1300 1.351 . S
C1301 C1302 1.434 . S
C1302 C1293 1.429 . S
C1302 N1299 1.350 . S
C1302 C1301 1.434 . S
C1303 C1304 1.369 . S
C1303 C1305 1.419 . S
C1303 H1307 0.930 . S
C1304 C1303 1.369 . S
C1304 C1313 1.429 . S
C1305 C1303 1.419 . S
C1305 C1306 1.363 . S
C1305 H1308 0.929 . S
C1306 C1305 1.363 . S
C1306 C1312 1.428 . S
H1307 C1303 0.930 . S
H1308 C1305 0.929 . S
S1309 N1310 1.613 . S
S1309 N1311 1.610 . S
N1310 S1309 1.613 . S
N1310 C1313 1.350 . S
N1311 S1309 1.610 . S
N1311 C1312 1.351 . S
C1312 C1306 1.428 . S
C1312 N1311 1.351 . S
C1312 C1313 1.434 . S
C1313 C1304 1.429 . S
C1313 N1310 1.350 . S
C1313 C1312 1.434 . S
C1314 C1315 1.369 . S
C1314 C1316 1.419 . S
C1314 H1318 0.930 . S
C1315 C1314 1.369 . S
C1315 C1324 1.429 . S
C1316 C1314 1.419 . S
C1316 C1317 1.363 . S
C1316 H1319 0.929 . S
C1317 C1316 1.363 . S
C1317 C1323 1.428 . S
H1318 C1314 0.930 . S
H1319 C1316 0.929 . S
S1320 N1321 1.613 . S
S1320 N1322 1.610 . S
N1321 S1320 1.613 . S
N1321 C1324 1.350 1_545 S
N1322 S1320 1.610 . S
N1322 C1323 1.351 1_545 S
C1323 C1317 1.428 . S
C1323 N1322 1.351 1_565 S
C1323 C1324 1.434 . S
C1324 C1315 1.429 . S
C1324 N1321 1.350 1_565 S
C1324 C1323 1.434 . S
C1325 C1326 1.369 . S
C1325 C1327 1.419 . S
C1325 H1329 0.930 1_455 S
C1326 C1325 1.369 . S
C1326 C1335 1.429 . S
C1327 C1325 1.419 . S
C1327 C1328 1.363 . S
C1327 H1330 0.929 . S
C1328 C1327 1.363 . S
C1328 C1334 1.428 . S
H1329 C1325 0.930 1_655 S
H1330 C1327 0.929 . S
S1331 N1332 1.613 . S
S1331 N1333 1.610 . S
N1332 S1331 1.613 . S
N1332 C1335 1.350 . S
N1333 S1331 1.610 . S
N1333 C1334 1.351 . S
C1334 C1328 1.428 . S
C1334 N1333 1.351 . S
C1334 C1335 1.434 . S
C1335 C1326 1.429 . S
C1335 N1332 1.350 . S
C1335 C1334 1.434 . S
C1336 C1337 1.369 . S
C1336 C1338 1.419 . S
C1336 H1340 0.930 . S
C1337 C1336 1.369 . S
C1337 C1346 1.429 . S
C1338 C1336 1.419 . S
C1338 C1339 1.363 . S
C1338 H1341 0.929 . S
C1339 C1338 1.363 . S
C1339 C1345 1.428 . S
H1340 C1336 0.930 . S
H1341 C1338 0.929 . S
S1342 N1343 1.613 . S
S1342 N1344 1.610 . S
N1343 S1342 1.613 . S
N1343 C1346 1.350 . S
N1344 S1342 1.610 . S
N1344 C1345 1.351 . S
C1345 C1339 1.428 . S
C1345 N1344 1.351 . S
C1345 C1346 1.434 . S
C1346 C1337 1.429 . S
C1346 N1343 1.350 . S
C1346 C1345 1.434 . S
C1347 C1348 1.369 . S
C1347 C1349 1.419 1_565 S
C1347 H1351 0.930 . S
C1348 C1347 1.369 . S
C1348 C1357 1.429 1_554 S
C1349 C1347 1.419 1_545 S
C1349 C1350 1.363 1_554 S
C1349 H1352 0.929 . S
C1350 C1349 1.363 1_556 S
C1350 C1356 1.428 1_545 S
H1351 C1347 0.930 . S
H1352 C1349 0.929 . S
S1353 N1354 1.613 . S
S1353 N1355 1.610 1_565 S
N1354 S1353 1.613 . S
N1354 C1357 1.350 . S
N1355 S1353 1.610 1_545 S
N1355 C1356 1.351 1_545 S
C1356 C1350 1.428 1_565 S
C1356 N1355 1.351 1_565 S
C1356 C1357 1.434 . S
C1357 C1348 1.429 1_556 S
C1357 N1354 1.350 . S
C1357 C1356 1.434 . S
C1358 C1359 1.369 . S
C1358 C1360 1.418 . S
C1358 H1362 0.930 . S
C1359 C1358 1.369 . S
C1359 C1368 1.428 1_554 S
C1360 C1358 1.418 . S
C1360 C1361 1.364 1_454 S
C1360 H1363 0.929 1_455 S
C1361 C1360 1.364 1_656 S
C1361 C1367 1.428 . S
H1362 C1358 0.930 . S
H1363 C1360 0.929 1_655 S
S1364 N1365 1.612 1_556 S
S1364 N1366 1.610 1_455 S
N1365 S1364 1.612 1_554 S
N1365 C1368 1.349 1_554 S
N1366 S1364 1.610 1_655 S
N1366 C1367 1.351 . S
C1367 C1361 1.428 . S
C1367 N1366 1.351 . S
C1367 C1368 1.435 1_655 S
C1368 C1359 1.428 1_556 S
C1368 N1365 1.349 1_556 S
C1368 C1367 1.435 1_455 S
C1369 C1370 1.369 . S
C1369 C1371 1.419 . S
C1369 H1373 0.930 . S
C1370 C1369 1.369 . S
C1370 C1379 1.429 1_556 S
C1371 C1369 1.419 . S
C1371 C1372 1.363 1_556 S
C1371 H1374 0.929 . S
C1372 C1371 1.363 1_554 S
C1372 C1378 1.428 . S
H1373 C1369 0.930 . S
H1374 C1371 0.929 . S
S1375 N1376 1.613 . S
S1375 N1377 1.610 . S
N1376 S1375 1.613 . S
N1376 C1379 1.350 . S
N1377 S1375 1.610 . S
N1377 C1378 1.351 . S
C1378 C1372 1.428 . S
C1378 N1377 1.351 . S
C1378 C1379 1.434 . S
C1379 C1370 1.429 1_554 S
C1379 N1376 1.350 . S
C1379 C1378 1.434 . S
C1380 C1381 1.369 . S
C1380 C1382 1.419 . S
C1380 H1384 0.930 . S
C1381 C1380 1.369 . S
C1381 C1390 1.429 . S
C1382 C1380 1.419 . S
C1382 C1383 1.363 . S
C1382 H1385 0.929 . S
C1383 C1382 1.363 . S
C1383 C1389 1.428 . S
H1384 C1380 0.930 . S
H1385 C1382 0.929 . S
S1386 N1387 1.613 1_565 S
S1386 N1388 1.610 . S
N1387 S1386 1.613 1_545 S
N1387 C1390 1.350 . S
N1388 S1386 1.610 . S
N1388 C1389 1.351 1_565 S
C1389 C1383 1.428 . S
C1389 N1388 1.351 1_545 S
C1389 C1390 1.434 . S
C1390 C1381 1.429 . S
C1390 N1387 1.350 . S
C1390 C1389 1.434 . S
C1391 C1392 1.369 . S
C1391 C1393 1.419 . S
C1391 H1395 0.930 . S
C1392 C1391 1.369 . S
C1392 C1401 1.429 . S
C1393 C1391 1.419 . S
C1393 C1394 1.363 . S
C1393 H1396 0.929 . S
C1394 C1393 1.363 . S
C1394 C1400 1.428 . S
H1395 C1391 0.930 . S
H1396 C1393 0.929 . S
S1397 N1398 1.613 . S
S1397 N1399 1.610 . S
N1398 S1397 1.613 . S
N1398 C1401 1.350 . S
N1399 S1397 1.610 . S
N1399 C1400 1.351 . S
C1400 C1394 1.428 . S
C1400 N1399 1.351 . S
C1400 C1401 1.434 . S
C1401 C1392 1.429 . S
C1401 N1398 1.350 . S
C1401 C1400 1.434 . S
C1402 C1403 1.369 . S
C1402 C1404 1.419 . S
C1402 H1406 0.930 . S
C1403 C1402 1.369 . S
C1403 C1412 1.429 . S
C1404 C1402 1.419 . S
C1404 C1405 1.363 . S
C1404 H1407 0.929 . S
C1405 C1404 1.363 . S
C1405 C1411 1.428 . S
H1406 C1402 0.930 . S
H1407 C1404 0.929 . S
S1408 N1409 1.613 . S
S1408 N1410 1.610 . S
N1409 S1408 1.613 . S
N1409 C1412 1.350 . S
N1410 S1408 1.610 . S
N1410 C1411 1.351 . S
C1411 C1405 1.428 . S
C1411 N1410 1.351 . S
C1411 C1412 1.434 . S
C1412 C1403 1.429 . S
C1412 N1409 1.350 . S
C1412 C1411 1.434 . S
C1413 C1414 1.369 1_556 S
C1413 C1415 1.419 1_565 S
C1413 H1417 0.930 . S
C1414 C1413 1.369 1_554 S
C1414 C1423 1.429 1_565 S
C1415 C1413 1.419 1_545 S
C1415 C1416 1.363 . S
C1415 H1418 0.929 . S
C1416 C1415 1.363 . S
C1416 C1422 1.428 1_556 S
H1417 C1413 0.930 . S
H1418 C1415 0.929 . S
S1419 N1420 1.613 1_545 S
S1419 N1421 1.610 . S
N1420 S1419 1.613 1_565 S
N1420 C1423 1.350 1_565 S
N1421 S1419 1.610 . S
N1421 C1422 1.351 . S
C1422 C1416 1.428 1_554 S
C1422 N1421 1.351 . S
C1422 C1423 1.434 . S
C1423 C1414 1.429 1_545 S
C1423 N1420 1.350 1_545 S
C1423 C1422 1.434 . S
C1424 C1425 1.369 . S
C1424 C1426 1.419 1_655 S
C1424 H1428 0.930 . S
C1425 C1424 1.369 . S
C1425 C1434 1.429 1_556 S
C1426 C1424 1.419 1_455 S
C1426 C1427 1.363 1_556 S
C1426 H1429 0.929 . S
C1427 C1426 1.363 1_554 S
C1427 C1433 1.428 1_455 S
H1428 C1424 0.930 . S
H1429 C1426 0.929 . S
S1430 N1431 1.613 . S
S1430 N1432 1.610 1_655 S
N1431 S1430 1.613 . S
N1431 C1434 1.350 . S
N1432 S1430 1.610 1_455 S
N1432 C1433 1.351 1_455 S
C1433 C1427 1.428 1_655 S
C1433 N1432 1.351 1_655 S
C1433 C1434 1.434 . S
C1434 C1425 1.429 1_554 S
C1434 N1431 1.350 . S
C1434 C1433 1.434 . S
C1435 C1436 1.369 . S
C1435 C1437 1.419 . S
C1435 H1439 0.930 . S
C1436 C1435 1.369 . S
C1436 C1445 1.430 . S
C1437 C1435 1.419 . S
C1437 C1438 1.363 1_554 S
C1437 H1440 0.929 . S
C1438 C1437 1.363 1_556 S
C1438 C1444 1.428 . S
H1439 C1435 0.930 . S
H1440 C1437 0.929 . S
S1441 N1442 1.611 1_556 S
S1441 N1443 1.610 . S
N1442 S1441 1.611 1_554 S
N1442 C1445 1.350 . S
N1443 S1441 1.610 . S
N1443 C1444 1.351 . S
C1444 C1438 1.428 . S
C1444 N1443 1.351 . S
C1444 C1445 1.433 1_556 S
C1445 C1436 1.430 . S
C1445 N1442 1.350 . S
C1445 C1444 1.433 1_554 S
C1446 C1447 1.369 . S
C1446 C1448 1.419 1_455 S
C1446 H1450 0.930 . S
C1447 C1446 1.369 . S
C1447 C1456 1.429 1_455 S
C1448 C1446 1.419 1_655 S
C1448 C1449 1.363 . S
C1448 H1451 0.929 . S
C1449 C1448 1.363 . S
C1449 C1455 1.428 . S
H1450 C1446 0.930 . S
H1451 C1448 0.929 . S
S1452 N1453 1.616 . S
S1452 N1454 1.610 . S
N1453 S1452 1.616 . S
N1453 C1456 1.352 . S
N1454 S1452 1.610 . S
N1454 C1455 1.351 . S
C1455 C1449 1.428 . S
C1455 N1454 1.351 . S
C1455 C1456 1.434 . S
C1456 C1447 1.429 1_655 S
C1456 N1453 1.352 . S
C1456 C1455 1.434 . S
C1457 C1458 1.369 . S
C1457 C1459 1.419 . S
C1457 H1461 0.930 . S
C1458 C1457 1.369 . S
C1458 C1467 1.429 . S
C1459 C1457 1.419 . S
C1459 C1460 1.363 . S
C1459 H1462 0.929 . S
C1460 C1459 1.363 . S
C1460 C1466 1.428 . S
H1461 C1457 0.930 . S
H1462 C1459 0.929 . S
S1463 N1464 1.613 . S
S1463 N1465 1.610 . S
N1464 S1463 1.613 . S
N1464 C1467 1.350 . S
N1465 S1463 1.610 . S
N1465 C1466 1.351 . S
C1466 C1460 1.428 . S
C1466 N1465 1.351 . S
C1466 C1467 1.434 . S
C1467 C1458 1.429 . S
C1467 N1464 1.350 . S
C1467 C1466 1.434 . S
C1468 C1469 1.369 1_545 S
C1468 C1470 1.419 . S
C1468 H1472 0.930 1_545 S
C1469 C1468 1.369 1_565 S
C1469 C1478 1.429 . S
C1470 C1468 1.419 . S
C1470 C1471 1.363 . S
C1470 H1473 0.929 . S
C1471 C1470 1.363 . S
C1471 C1477 1.428 . S
H1472 C1468 0.930 1_565 S
H1473 C1470 0.929 . S
S1474 N1475 1.613 1_545 S
S1474 N1476 1.610 . S
N1475 S1474 1.613 1_565 S
N1475 C1478 1.350 . S
N1476 S1474 1.610 . S
N1476 C1477 1.351 . S
C1477 C1471 1.428 . S
C1477 N1476 1.351 . S
C1477 C1478 1.434 1_545 S
C1478 C1469 1.429 . S
C1478 N1475 1.350 . S
C1478 C1477 1.434 1_565 S
C1479 C1480 1.369 . S
C1479 C1481 1.419 . S
C1479 H1483 0.930 . S
C1480 C1479 1.369 . S
C1480 C1489 1.429 . S
C1481 C1479 1.419 . S
C1481 C1482 1.363 . S
C1481 H1484 0.929 . S
C1482 C1481 1.363 . S
C1482 C1488 1.428 . S
H1483 C1479 0.930 . S
H1484 C1481 0.929 . S
S1485 N1486 1.613 . S
S1485 N1487 1.610 . S
N1486 S1485 1.613 . S
N1486 C1489 1.350 . S
N1487 S1485 1.610 . S
N1487 C1488 1.351 . S
C1488 C1482 1.428 . S
C1488 N1487 1.351 . S
C1488 C1489 1.434 . S
C1489 C1480 1.429 . S
C1489 N1486 1.350 . S
C1489 C1488 1.434 . S
C1490 C1491 1.369 . S
C1490 C1492 1.419 . S
C1490 H1494 0.930 . S
C1491 C1490 1.369 . S
C1491 C1500 1.429 . S
C1492 C1490 1.419 . S
C1492 C1493 1.363 . S
C1492 H1495 0.929 . S
C1493 C1492 1.363 . S
C1493 C1499 1.428 . S
H1494 C1490 0.930 . S
H1495 C1492 0.929 . S
S1496 N1497 1.613 . S
S1496 N1498 1.610 . S
N1497 S1496 1.613 . S
N1497 C1500 1.350 . S
N1498 S1496 1.610 . S
N1498 C1499 1.351 . S
C1499 C1493 1.428 . S
C1499 N1498 1.351 . S
C1499 C1500 1.434 . S
C1500 C1491 1.429 . S
C1500 N1497 1.350 . S
C1500 C1499 1.434 . S
C1501 C1502 1.369 . S
C1501 C1503 1.419 . S
C1501 H1505 0.930 . S
C1502 C1501 1.369 . S
C1502 C1511 1.429 . S
C1503 C1501 1.419 . S
C1503 C1504 1.363 . S
C1503 H1506 0.929 . S
C1504 C1503 1.363 . S
C1504 C1510 1.428 . S
H1505 C1501 0.930 . S
H1506 C1503 0.929 . S
S1507 N1508 1.613 1_565 S
S1507 N1509 1.610 . S
N1508 S1507 1.613 1_545 S
N1508 C1511 1.350 . S
N1509 S1507 1.610 . S
N1509 C1510 1.351 1_565 S
C1510 C1504 1.428 . S
C1510 N1509 1.351 1_545 S
C1510 C1511 1.434 . S
C1511 C1502 1.429 . S
C1511 N1508 1.350 . S
C1511 C1510 1.434 . S
C1512 C1513 1.369 . S
C1512 C1514 1.419 . S
C1512 H1516 0.930 . S
C1513 C1512 1.369 . S
C1513 C1522 1.429 . S
C1514 C1512 1.419 . S
C1514 C1515 1.363 . S
C1514 H1517 0.929 . S
C1515 C1514 1.363 . S
C1515 C1521 1.428 . S
H1516 C1512 0.930 . S
H1517 C1514 0.929 . S
S1518 N1519 1.613 . S
S1518 N1520 1.610 . S
N1519 S1518 1.613 . S
N1519 C1522 1.350 . S
N1520 S1518 1.610 . S
N1520 C1521 1.351 . S
C1521 C1515 1.428 . S
C1521 N1520 1.351 . S
C1521 C1522 1.434 . S
C1522 C1513 1.429 . S
C1522 N1519 1.350 . S
C1522 C1521 1.434 . S
C1523 C1524 1.369 . S
C1523 C1525 1.419 . S
C1523 H1527 0.930 . S
C1524 C1523 1.369 . S
C1524 C1533 1.429 . S
C1525 C1523 1.419 . S
C1525 C1526 1.363 . S
C1525 H1528 0.929 . S
C1526 C1525 1.363 . S
C1526 C1532 1.428 . S
H1527 C1523 0.930 . S
H1528 C1525 0.929 . S
S1529 N1530 1.613 . S
S1529 N1531 1.610 . S
N1530 S1529 1.613 . S
N1530 C1533 1.350 . S
N1531 S1529 1.610 . S
N1531 C1532 1.351 . S
C1532 C1526 1.428 . S
C1532 N1531 1.351 . S
C1532 C1533 1.434 . S
C1533 C1524 1.429 . S
C1533 N1530 1.350 . S
C1533 C1532 1.434 . S
C1534 C1535 1.369 . S
C1534 C1536 1.419 . S
C1534 H1538 0.930 . S
C1535 C1534 1.369 . S
C1535 C1544 1.429 . S
C1536 C1534 1.419 . S
C1536 C1537 1.363 . S
C1536 H1539 0.929 . S
C1537 C1536 1.363 . S
C1537 C1543 1.428 . S
H1538 C1534 0.930 . S
H1539 C1536 0.929 . S
S1540 N1541 1.613 . S
S1540 N1542 1.610 . S
N1541 S1540 1.613 . S
N1541 C1544 1.350 . S
N1542 S1540 1.610 . S
N1542 C1543 1.351 . S
C1543 C1537 1.428 . S
C1543 N1542 1.351 . S
C1543 C1544 1.434 . S
C1544 C1535 1.429 . S
C1544 N1541 1.350 . S
C1544 C1543 1.434 . S
C1545 C1546 1.369 . S
C1545 C1547 1.419 . S
C1545 H1549 0.930 . S
C1546 C1545 1.369 . S
C1546 C1555 1.429 . S
C1547 C1545 1.419 . S
C1547 C1548 1.363 . S
C1547 H1550 0.929 . S
C1548 C1547 1.363 . S
C1548 C1554 1.428 . S
H1549 C1545 0.930 . S
H1550 C1547 0.929 . S
S1551 N1552 1.613 . S
S1551 N1553 1.610 . S
N1552 S1551 1.613 . S
N1552 C1555 1.350 . S
N1553 S1551 1.610 . S
N1553 C1554 1.351 . S
C1554 C1548 1.428 . S
C1554 N1553 1.351 . S
C1554 C1555 1.434 . S
C1555 C1546 1.429 . S
C1555 N1552 1.350 . S
C1555 C1554 1.434 . S
C1556 C1557 1.369 . S
C1556 C1558 1.419 . S
C1556 H1560 0.930 . S
C1557 C1556 1.369 . S
C1557 C1566 1.429 . S
C1558 C1556 1.419 . S
C1558 C1559 1.363 . S
C1558 H1561 0.929 . S
C1559 C1558 1.363 . S
C1559 C1565 1.428 . S
H1560 C1556 0.930 . S
H1561 C1558 0.929 . S
S1562 N1563 1.613 . S
S1562 N1564 1.610 . S
N1563 S1562 1.613 . S
N1563 C1566 1.350 . S
N1564 S1562 1.610 . S
N1564 C1565 1.351 . S
C1565 C1559 1.428 . S
C1565 N1564 1.351 . S
C1565 C1566 1.434 . S
C1566 C1557 1.429 . S
C1566 N1563 1.350 . S
C1566 C1565 1.434 . S
C1567 C1568 1.369 . S
C1567 C1569 1.419 . S
C1567 H1571 0.930 . S
C1568 C1567 1.369 . S
C1568 C1577 1.429 . S
C1569 C1567 1.419 . S
C1569 C1570 1.363 . S
C1569 H1572 0.929 . S
C1570 C1569 1.363 . S
C1570 C1576 1.428 . S
H1571 C1567 0.930 . S
H1572 C1569 0.929 . S
S1573 N1574 1.613 . S
S1573 N1575 1.610 . S
N1574 S1573 1.613 . S
N1574 C1577 1.350 . S
N1575 S1573 1.610 . S
N1575 C1576 1.351 . S
C1576 C1570 1.428 . S
C1576 N1575 1.351 . S
C1576 C1577 1.434 . S
C1577 C1568 1.429 . S
C1577 N1574 1.350 . S
C1577 C1576 1.434 . S
C1578 C1579 1.369 . S
C1578 C1580 1.419 . S
C1578 H1582 0.930 . S
C1579 C1578 1.369 . S
C1579 C1588 1.429 . S
C1580 C1578 1.419 . S
C1580 C1581 1.363 . S
C1580 H1583 0.929 . S
C1581 C1580 1.363 . S
C1581 C1587 1.428 . S
H1582 C1578 0.930 . S
H1583 C1580 0.929 . S
S1584 N1585 1.613 . S
S1584 N1586 1.610 . S
N1585 S1584 1.613 . S
N1585 C1588 1.350 . S
N1586 S1584 1.610 . S
N1586 C1587 1.351 . S
C1587 C1581 1.428 . S
C1587 N1586 1.351 . S
C1587 C1588 1.434 . S
C1588 C1579 1.429 . S
C1588 N1585 1.350 . S
C1588 C1587 1.434 . S
C1589 C1590 1.369 . S
C1589 C1591 1.419 . S
C1589 H1593 0.930 . S
C1590 C1589 1.369 . S
C1590 C1599 1.429 . S
C1591 C1589 1.419 . S
C1591 C1592 1.363 . S
C1591 H1594 0.929 . S
C1592 C1591 1.363 . S
C1592 C1598 1.428 . S
H1593 C1589 0.930 . S
H1594 C1591 0.929 . S
S1595 N1596 1.613 . S
S1595 N1597 1.610 . S
N1596 S1595 1.613 . S
N1596 C1599 1.350 . S
N1597 S1595 1.610 . S
N1597 C1598 1.351 . S
C1598 C1592 1.428 . S
C1598 N1597 1.351 . S
C1598 C1599 1.434 . S
C1599 C1590 1.429 . S
C1599 N1596 1.350 . S
C1599 C1598 1.434 . S
C1600 C1601 1.369 . S
C1600 C1602 1.419 . S
C1600 H1604 0.930 . S
C1601 C1600 1.369 . S
C1601 C1610 1.429 . S
C1602 C1600 1.419 . S
C1602 C1603 1.363 . S
C1602 H1605 0.929 . S
C1603 C1602 1.363 . S
C1603 C1609 1.428 . S
H1604 C1600 0.930 . S
H1605 C1602 0.929 . S
S1606 N1607 1.613 . S
S1606 N1608 1.610 . S
N1607 S1606 1.613 . S
N1607 C1610 1.350 . S
N1608 S1606 1.610 . S
N1608 C1609 1.351 . S
C1609 C1603 1.428 . S
C1609 N1608 1.351 . S
C1609 C1610 1.434 . S
C1610 C1601 1.429 . S
C1610 N1607 1.350 . S
C1610 C1609 1.434 . S
C1611 C1612 1.369 . S
C1611 C1613 1.419 . S
C1611 H1615 0.930 . S
C1612 C1611 1.369 . S
C1612 C1621 1.429 . S
C1613 C1611 1.419 . S
C1613 C1614 1.363 . S
C1613 H1616 0.929 . S
C1614 C1613 1.363 . S
C1614 C1620 1.428 . S
H1615 C1611 0.930 . S
H1616 C1613 0.929 . S
S1617 N1618 1.613 . S
S1617 N1619 1.610 . S
N1618 S1617 1.613 . S
N1618 C1621 1.350 . S
N1619 S1617 1.610 . S
N1619 C1620 1.351 . S
C1620 C1614 1.428 . S
C1620 N1619 1.351 . S
C1620 C1621 1.434 . S
C1621 C1612 1.429 . S
C1621 N1618 1.350 . S
C1621 C1620 1.434 . S
C1622 C1623 1.369 . S
C1622 C1624 1.419 . S
C1622 H1626 0.930 . S
C1623 C1622 1.369 . S
C1623 C1632 1.429 . S
C1624 C1622 1.419 . S
C1624 C1625 1.363 . S
C1624 H1627 0.929 . S
C1625 C1624 1.363 . S
C1625 C1631 1.428 . S
H1626 C1622 0.930 . S
H1627 C1624 0.929 . S
S1628 N1629 1.613 . S
S1628 N1630 1.610 . S
N1629 S1628 1.613 . S
N1629 C1632 1.350 . S
N1630 S1628 1.610 . S
N1630 C1631 1.351 . S
C1631 C1625 1.428 . S
C1631 N1630 1.351 . S
C1631 C1632 1.434 . S
C1632 C1623 1.429 . S
C1632 N1629 1.350 . S
C1632 C1631 1.434 . S
C1633 C1634 1.369 . S
C1633 C1635 1.419 . S
C1633 H1637 0.930 . S
C1634 C1633 1.369 . S
C1634 C1643 1.429 . S
C1635 C1633 1.419 . S
C1635 C1636 1.363 . S
C1635 H1638 0.929 . S
C1636 C1635 1.363 . S
C1636 C1642 1.428 . S
H1637 C1633 0.930 . S
H1638 C1635 0.929 . S
S1639 N1640 1.613 . S
S1639 N1641 1.610 . S
N1640 S1639 1.613 . S
N1640 C1643 1.350 . S
N1641 S1639 1.610 . S
N1641 C1642 1.351 . S
C1642 C1636 1.428 . S
C1642 N1641 1.351 . S
C1642 C1643 1.434 . S
C1643 C1634 1.429 . S
C1643 N1640 1.350 . S
C1643 C1642 1.434 . S
C1644 C1645 1.369 1_455 S
C1644 C1646 1.419 . S
C1644 H1648 0.930 . S
C1645 C1644 1.369 1_655 S
C1645 C1654 1.429 . S
C1646 C1644 1.419 . S
C1646 C1647 1.363 . S
C1646 H1649 0.929 . S
C1647 C1646 1.363 . S
C1647 C1653 1.428 1_455 S
H1648 C1644 0.930 . S
H1649 C1646 0.929 . S
S1650 N1651 1.613 . S
S1650 N1652 1.610 . S
N1651 S1650 1.613 . S
N1651 C1654 1.350 . S
N1652 S1650 1.610 . S
N1652 C1653 1.351 . S
C1653 C1647 1.428 1_655 S
C1653 N1652 1.351 . S
C1653 C1654 1.434 . S
C1654 C1645 1.429 . S
C1654 N1651 1.350 . S
C1654 C1653 1.434 . S
C1655 C1656 1.369 . S
C1655 C1657 1.419 . S
C1655 H1659 0.930 . S
C1656 C1655 1.369 . S
C1656 C1665 1.429 . S
C1657 C1655 1.419 . S
C1657 C1658 1.363 . S
C1657 H1660 0.929 . S
C1658 C1657 1.363 . S
C1658 C1664 1.428 . S
H1659 C1655 0.930 . S
H1660 C1657 0.929 . S
S1661 N1662 1.613 . S
S1661 N1663 1.610 . S
N1662 S1661 1.613 . S
N1662 C1665 1.350 . S
N1663 S1661 1.610 . S
N1663 C1664 1.351 . S
C1664 C1658 1.428 . S
C1664 N1663 1.351 . S
C1664 C1665 1.434 . S
C1665 C1656 1.429 . S
C1665 N1662 1.350 . S
C1665 C1664 1.434 . S
C1666 C1667 1.369 . S
C1666 C1668 1.419 . S
C1666 H1670 0.930 . S
C1667 C1666 1.369 . S
C1667 C1676 1.429 1_545 S
C1668 C1666 1.419 . S
C1668 C1669 1.363 1_545 S
C1668 H1671 0.929 . S
C1669 C1668 1.363 1_565 S
C1669 C1675 1.428 . S
H1670 C1666 0.930 . S
H1671 C1668 0.929 . S
S1672 N1673 1.613 . S
S1672 N1674 1.610 . S
N1673 S1672 1.613 . S
N1673 C1676 1.350 . S
N1674 S1672 1.610 . S
N1674 C1675 1.351 . S
C1675 C1669 1.428 . S
C1675 N1674 1.351 . S
C1675 C1676 1.434 . S
C1676 C1667 1.429 1_565 S
C1676 N1673 1.350 . S
C1676 C1675 1.434 . S
C1677 C1678 1.369 . S
C1677 C1679 1.419 . S
C1677 H1681 0.930 . S
C1678 C1677 1.369 . S
C1678 C1687 1.429 1_545 S
C1679 C1677 1.419 . S
C1679 C1680 1.363 1_545 S
C1679 H1682 0.929 . S
C1680 C1679 1.363 1_565 S
C1680 C1686 1.428 . S
H1681 C1677 0.930 . S
H1682 C1679 0.929 . S
S1683 N1684 1.613 . S
S1683 N1685 1.610 . S
N1684 S1683 1.613 . S
N1684 C1687 1.350 . S
N1685 S1683 1.610 . S
N1685 C1686 1.351 . S
C1686 C1680 1.428 . S
C1686 N1685 1.351 . S
C1686 C1687 1.434 . S
C1687 C1678 1.429 1_565 S
C1687 N1684 1.350 . S
C1687 C1686 1.434 . S
C1688 C1689 1.369 . S
C1688 C1690 1.419 . S
C1688 H1692 0.930 . S
C1689 C1688 1.369 . S
C1689 C1698 1.429 1_455 S
C1690 C1688 1.419 . S
C1690 C1691 1.363 1_455 S
C1690 H1693 0.929 . S
C1691 C1690 1.363 1_655 S
C1691 C1697 1.428 . S
H1692 C1688 0.930 . S
H1693 C1690 0.929 . S
S1694 N1695 1.613 . S
S1694 N1696 1.610 . S
N1695 S1694 1.613 . S
N1695 C1698 1.350 . S
N1696 S1694 1.610 . S
N1696 C1697 1.351 . S
C1697 C1691 1.428 . S
C1697 N1696 1.351 . S
C1697 C1698 1.434 . S
C1698 C1689 1.429 1_655 S
C1698 N1695 1.350 . S
C1698 C1697 1.434 . S
C1699 C1700 1.369 . S
C1699 C1701 1.419 . S
C1699 H1703 0.930 . S
C1700 C1699 1.369 . S
C1700 C1709 1.429 . S
C1701 C1699 1.419 . S
C1701 C1702 1.363 . S
C1701 H1704 0.929 . S
C1702 C1701 1.363 . S
C1702 C1708 1.428 . S
H1703 C1699 0.930 . S
H1704 C1701 0.929 . S
S1705 N1706 1.613 . S
S1705 N1707 1.610 . S
N1706 S1705 1.613 . S
N1706 C1709 1.350 . S
N1707 S1705 1.610 . S
N1707 C1708 1.351 . S
C1708 C1702 1.428 . S
C1708 N1707 1.351 . S
C1708 C1709 1.434 . S
C1709 C1700 1.429 . S
C1709 N1706 1.350 . S
C1709 C1708 1.434 . S
C1710 C1711 1.369 . S
C1710 C1712 1.419 . S
C1710 H1714 0.930 . S
C1711 C1710 1.369 . S
C1711 C1720 1.429 1_655 S
C1712 C1710 1.419 . S
C1712 C1713 1.363 1_655 S
C1712 H1715 0.929 . S
C1713 C1712 1.363 1_455 S
C1713 C1719 1.428 . S
H1714 C1710 0.930 . S
H1715 C1712 0.929 . S
S1716 N1717 1.613 . S
S1716 N1718 1.610 . S
N1717 S1716 1.613 . S
N1717 C1720 1.350 . S
N1718 S1716 1.610 . S
N1718 C1719 1.351 . S
C1719 C1713 1.428 . S
C1719 N1718 1.351 . S
C1719 C1720 1.434 . S
C1720 C1711 1.429 1_455 S
C1720 N1717 1.350 . S
C1720 C1719 1.434 . S
C1721 C1722 1.369 . S
C1721 C1723 1.419 . S
C1721 H1725 0.930 . S
C1722 C1721 1.369 . S
C1722 C1731 1.429 . S
C1723 C1721 1.419 . S
C1723 C1724 1.363 . S
C1723 H1726 0.929 . S
C1724 C1723 1.363 . S
C1724 C1730 1.428 . S
H1725 C1721 0.930 . S
H1726 C1723 0.929 . S
S1727 N1728 1.613 . S
S1727 N1729 1.610 . S
N1728 S1727 1.613 . S
N1728 C1731 1.350 . S
N1729 S1727 1.610 . S
N1729 C1730 1.351 . S
C1730 C1724 1.428 . S
C1730 N1729 1.351 . S
C1730 C1731 1.434 . S
C1731 C1722 1.429 . S
C1731 N1728 1.350 . S
C1731 C1730 1.434 . S
C1732 C1733 1.368 . S
C1732 C1734 1.419 1_545 S
C1732 H1736 0.931 1_545 S
C1733 C1732 1.368 . S
C1733 C1742 1.429 . S
C1734 C1732 1.419 1_565 S
C1734 C1735 1.363 . S
C1734 H1737 0.929 . S
C1735 C1734 1.363 . S
C1735 C1741 1.408 1_565 S
H1736 C1732 0.931 1_565 S
H1737 C1734 0.929 . S
S1738 N1739 1.613 . S
S1738 N1740 1.610 . S
N1739 S1738 1.613 . S
N1739 C1742 1.350 . S
N1740 S1738 1.610 . S
N1740 C1741 1.360 . S
C1741 C1735 1.408 1_545 S
C1741 N1740 1.360 . S
C1741 C1742 1.447 . S
C1742 C1733 1.429 . S
C1742 N1739 1.350 . S
C1742 C1741 1.447 . S
C1743 C1744 1.369 1_455 S
C1743 C1745 1.419 . S
C1743 H1747 0.930 . S
C1744 C1743 1.369 1_655 S
C1744 C1753 1.429 . S
C1745 C1743 1.419 . S
C1745 C1746 1.363 . S
C1745 H1748 0.929 . S
C1746 C1745 1.363 . S
C1746 C1752 1.428 1_455 S
H1747 C1743 0.930 . S
H1748 C1745 0.929 . S
S1749 N1750 1.613 . S
S1749 N1751 1.610 . S
N1750 S1749 1.613 . S
N1750 C1753 1.350 . S
N1751 S1749 1.610 . S
N1751 C1752 1.351 . S
C1752 C1746 1.428 1_655 S
C1752 N1751 1.351 . S
C1752 C1753 1.434 . S
C1753 C1744 1.429 . S
C1753 N1750 1.350 . S
C1753 C1752 1.434 . S
C1754 C1755 1.369 . S
C1754 C1756 1.419 . S
C1754 H1758 0.930 . S
C1755 C1754 1.369 . S
C1755 C1764 1.429 . S
C1756 C1754 1.419 . S
C1756 C1757 1.363 . S
C1756 H1759 0.929 . S
C1757 C1756 1.363 . S
C1757 C1763 1.428 . S
H1758 C1754 0.930 . S
H1759 C1756 0.929 . S
S1760 N1761 1.613 . S
S1760 N1762 1.610 . S
N1761 S1760 1.613 . S
N1761 C1764 1.350 . S
N1762 S1760 1.610 . S
N1762 C1763 1.351 . S
C1763 C1757 1.428 . S
C1763 N1762 1.351 . S
C1763 C1764 1.434 . S
C1764 C1755 1.429 . S
C1764 N1761 1.350 . S
C1764 C1763 1.434 . S
C1765 C1766 1.369 1_565 S
C1765 C1767 1.419 . S
C1765 H1769 0.930 . S
C1766 C1765 1.369 1_545 S
C1766 C1775 1.429 . S
C1767 C1765 1.419 . S
C1767 C1768 1.363 . S
C1767 H1770 0.929 . S
C1768 C1767 1.363 . S
C1768 C1774 1.428 1_565 S
H1769 C1765 0.930 . S
H1770 C1767 0.929 . S
S1771 N1772 1.613 . S
S1771 N1773 1.610 . S
N1772 S1771 1.613 . S
N1772 C1775 1.350 . S
N1773 S1771 1.610 . S
N1773 C1774 1.351 . S
C1774 C1768 1.428 1_545 S
C1774 N1773 1.351 . S
C1774 C1775 1.434 . S
C1775 C1766 1.429 . S
C1775 N1772 1.350 . S
C1775 C1774 1.434 . S
C1776 C1777 1.369 . S
C1776 C1778 1.419 . S
C1776 H1780 0.930 . S
C1777 C1776 1.369 . S
C1777 C1786 1.429 . S
C1778 C1776 1.419 . S
C1778 C1779 1.363 . S
C1778 H1781 0.929 . S
C1779 C1778 1.363 . S
C1779 C1785 1.428 . S
H1780 C1776 0.930 . S
H1781 C1778 0.929 . S
S1782 N1783 1.613 . S
S1782 N1784 1.610 . S
N1783 S1782 1.613 . S
N1783 C1786 1.350 . S
N1784 S1782 1.610 . S
N1784 C1785 1.351 . S
C1785 C1779 1.428 . S
C1785 N1784 1.351 . S
C1785 C1786 1.434 . S
C1786 C1777 1.429 . S
C1786 N1783 1.350 . S
C1786 C1785 1.434 . S
C1787 C1788 1.369 . S
C1787 C1789 1.419 . S
C1787 H1791 0.930 . S
C1788 C1787 1.369 . S
C1788 C1797 1.429 . S
C1789 C1787 1.419 . S
C1789 C1790 1.363 . S
C1789 H1792 0.929 . S
C1790 C1789 1.363 . S
C1790 C1796 1.428 . S
H1791 C1787 0.930 . S
H1792 C1789 0.929 . S
S1793 N1794 1.613 . S
S1793 N1795 1.610 . S
N1794 S1793 1.613 . S
N1794 C1797 1.350 . S
N1795 S1793 1.610 . S
N1795 C1796 1.351 . S
C1796 C1790 1.428 . S
C1796 N1795 1.351 . S
C1796 C1797 1.434 . S
C1797 C1788 1.429 . S
C1797 N1794 1.350 . S
C1797 C1796 1.434 . S
C1798 C1799 1.369 . S
C1798 C1800 1.419 . S
C1798 H1802 0.930 . S
C1799 C1798 1.369 . S
C1799 C1808 1.429 . S
C1800 C1798 1.419 . S
C1800 C1801 1.363 . S
C1800 H1803 0.929 . S
C1801 C1800 1.363 . S
C1801 C1807 1.428 . S
H1802 C1798 0.930 . S
H1803 C1800 0.929 . S
S1804 N1805 1.613 . S
S1804 N1806 1.610 . S
N1805 S1804 1.613 . S
N1805 C1808 1.350 . S
N1806 S1804 1.610 . S
N1806 C1807 1.351 . S
C1807 C1801 1.428 . S
C1807 N1806 1.351 . S
C1807 C1808 1.434 . S
C1808 C1799 1.429 . S
C1808 N1805 1.350 . S
C1808 C1807 1.434 . S
C1809 C1810 1.369 . S
C1809 C1811 1.419 . S
C1809 H1813 0.930 . S
C1810 C1809 1.369 . S
C1810 C1819 1.429 . S
C1811 C1809 1.419 . S
C1811 C1812 1.363 . S
C1811 H1814 0.929 . S
C1812 C1811 1.363 . S
C1812 C1818 1.428 . S
H1813 C1809 0.930 . S
H1814 C1811 0.929 . S
S1815 N1816 1.613 . S
S1815 N1817 1.610 . S
N1816 S1815 1.613 . S
N1816 C1819 1.350 . S
N1817 S1815 1.610 . S
N1817 C1818 1.351 . S
C1818 C1812 1.428 . S
C1818 N1817 1.351 . S
C1818 C1819 1.434 . S
C1819 C1810 1.429 . S
C1819 N1816 1.350 . S
C1819 C1818 1.434 . S
C1820 C1821 1.369 . S
C1820 C1822 1.419 . S
C1820 H1824 0.930 . S
C1821 C1820 1.369 . S
C1821 C1830 1.429 . S
C1822 C1820 1.419 . S
C1822 C1823 1.363 . S
C1822 H1825 0.929 . S
C1823 C1822 1.363 . S
C1823 C1829 1.428 . S
H1824 C1820 0.930 . S
H1825 C1822 0.929 . S
S1826 N1827 1.613 . S
S1826 N1828 1.610 . S
N1827 S1826 1.613 . S
N1827 C1830 1.350 . S
N1828 S1826 1.610 . S
N1828 C1829 1.351 . S
C1829 C1823 1.428 . S
C1829 N1828 1.351 . S
C1829 C1830 1.434 . S
C1830 C1821 1.429 . S
C1830 N1827 1.350 . S
C1830 C1829 1.434 . S
C1831 C1832 1.369 . S
C1831 C1833 1.419 . S
C1831 H1835 0.930 . S
C1832 C1831 1.369 . S
C1832 C1841 1.429 . S
C1833 C1831 1.419 . S
C1833 C1834 1.363 . S
C1833 H1836 0.929 . S
C1834 C1833 1.363 . S
C1834 C1840 1.428 . S
H1835 C1831 0.930 . S
H1836 C1833 0.929 . S
S1837 N1838 1.613 . S
S1837 N1839 1.610 . S
N1838 S1837 1.613 . S
N1838 C1841 1.350 . S
N1839 S1837 1.610 . S
N1839 C1840 1.351 . S
C1840 C1834 1.428 . S
C1840 N1839 1.351 . S
C1840 C1841 1.434 . S
C1841 C1832 1.429 . S
C1841 N1838 1.350 . S
C1841 C1840 1.434 . S
C1842 C1843 1.369 . S
C1842 C1844 1.419 . S
C1842 H1846 0.930 . S
C1843 C1842 1.369 . S
C1843 C1852 1.429 . S
C1844 C1842 1.419 . S
C1844 C1845 1.363 . S
C1844 H1847 0.929 . S
C1845 C1844 1.363 . S
C1845 C1851 1.428 . S
H1846 C1842 0.930 . S
H1847 C1844 0.929 . S
S1848 N1849 1.613 . S
S1848 N1850 1.610 . S
N1849 S1848 1.613 . S
N1849 C1852 1.350 . S
N1850 S1848 1.610 . S
N1850 C1851 1.351 . S
C1851 C1845 1.428 . S
C1851 N1850 1.351 . S
C1851 C1852 1.434 . S
C1852 C1843 1.429 . S
C1852 N1849 1.350 . S
C1852 C1851 1.434 . S
C1853 C1854 1.369 . S
C1853 C1855 1.419 . S
C1853 H1857 0.930 . S
C1854 C1853 1.369 . S
C1854 C1863 1.429 . S
C1855 C1853 1.419 . S
C1855 C1856 1.363 . S
C1855 H1858 0.929 . S
C1856 C1855 1.363 . S
C1856 C1862 1.428 . S
H1857 C1853 0.930 . S
H1858 C1855 0.929 . S
S1859 N1860 1.613 . S
S1859 N1861 1.610 . S
N1860 S1859 1.613 . S
N1860 C1863 1.350 . S
N1861 S1859 1.610 . S
N1861 C1862 1.351 . S
C1862 C1856 1.428 . S
C1862 N1861 1.351 . S
C1862 C1863 1.434 . S
C1863 C1854 1.429 . S
C1863 N1860 1.350 . S
C1863 C1862 1.434 . S
C1864 C1865 1.369 . S
C1864 C1866 1.419 . S
C1864 H1868 0.930 . S
C1865 C1864 1.369 . S
C1865 C1874 1.429 . S
C1866 C1864 1.419 . S
C1866 C1867 1.363 . S
C1866 H1869 0.929 . S
C1867 C1866 1.363 . S
C1867 C1873 1.428 . S
H1868 C1864 0.930 . S
H1869 C1866 0.929 . S
S1870 N1871 1.613 . S
S1870 N1872 1.610 . S
N1871 S1870 1.613 . S
N1871 C1874 1.350 . S
N1872 S1870 1.610 . S
N1872 C1873 1.351 . S
C1873 C1867 1.428 . S
C1873 N1872 1.351 . S
C1873 C1874 1.434 . S
C1874 C1865 1.429 . S
C1874 N1871 1.350 . S
C1874 C1873 1.434 . S
C1875 C1876 1.369 . S
C1875 C1877 1.419 . S
C1875 H1879 0.930 . S
C1876 C1875 1.369 . S
C1876 C1885 1.429 . S
C1877 C1875 1.419 . S
C1877 C1878 1.363 . S
C1877 H1880 0.929 . S
C1878 C1877 1.363 . S
C1878 C1884 1.428 . S
H1879 C1875 0.930 . S
H1880 C1877 0.929 . S
S1881 N1882 1.613 . S
S1881 N1883 1.610 . S
N1882 S1881 1.613 . S
N1882 C1885 1.350 . S
N1883 S1881 1.610 . S
N1883 C1884 1.351 . S
C1884 C1878 1.428 . S
C1884 N1883 1.351 . S
C1884 C1885 1.434 . S
C1885 C1876 1.429 . S
C1885 N1882 1.350 . S
C1885 C1884 1.434 . S
C1886 C1887 1.369 . S
C1886 C1888 1.419 . S
C1886 H1890 0.930 . S
C1887 C1886 1.369 . S
C1887 C1896 1.429 . S
C1888 C1886 1.419 . S
C1888 C1889 1.363 . S
C1888 H1891 0.929 . S
C1889 C1888 1.363 . S
C1889 C1895 1.428 . S
H1890 C1886 0.930 . S
H1891 C1888 0.929 . S
S1892 N1893 1.613 . S
S1892 N1894 1.610 . S
N1893 S1892 1.613 . S
N1893 C1896 1.350 . S
N1894 S1892 1.610 . S
N1894 C1895 1.351 . S
C1895 C1889 1.428 . S
C1895 N1894 1.351 . S
C1895 C1896 1.434 . S
C1896 C1887 1.429 . S
C1896 N1893 1.350 . S
C1896 C1895 1.434 . S
C1897 C1898 1.369 . S
C1897 C1899 1.419 . S
C1897 H1901 0.930 . S
C1898 C1897 1.369 . S
C1898 C1907 1.429 . S
C1899 C1897 1.419 . S
C1899 C1900 1.363 . S
C1899 H1902 0.929 . S
C1900 C1899 1.363 . S
C1900 C1906 1.428 . S
H1901 C1897 0.930 . S
H1902 C1899 0.929 . S
S1903 N1904 1.613 . S
S1903 N1905 1.610 . S
N1904 S1903 1.613 . S
N1904 C1907 1.350 . S
N1905 S1903 1.610 . S
N1905 C1906 1.351 . S
C1906 C1900 1.428 . S
C1906 N1905 1.351 . S
C1906 C1907 1.434 . S
C1907 C1898 1.429 . S
C1907 N1904 1.350 . S
C1907 C1906 1.434 . S
C721 C18 1.478 . S
C723 C42 1.416 . S
C732 C2 1.413 . S
C734 C38 1.492 . S
C743 C58 1.480 . S
C745 C22 1.419 . S
C754 C78 1.508 . S
C756 C82 1.448 . S
C765 C102 1.440 . S
C767 C98 1.529 . S
C776 C118 1.514 . S
C778 C62 1.448 . S
C787 C139 1.480 . S
C789 C164 1.417 . S
C798 C159 1.480 . S
C800 C124 1.413 . S
C809 C179 1.498 . S
C811 C144 1.417 . S
C820 C199 1.509 . S
C822 C204 1.449 . S
C831 C224 1.448 . S
C833 C219 1.517 . S
C842 C184 1.448 . S
C844 C239 1.514 . S
C853 C282 1.447 . S
C855 C258 1.508 . S
C864 C278 1.507 . S
C866 C242 1.440 . S
C875 C262 1.446 . S
C877 C298 1.508 . S
C886 C318 1.520 . S
C888 C322 1.451 . S
C897 C342 1.459 . S
C899 C338 1.520 . S
C908 C302 1.451 . S
C910 C358 1.520 . S
C919 C379 1.497 . S
C921 C404 1.443 . S
C930 C399 1.500 . S
C932 C364 1.437 . S
C941 C384 1.444 . S
C943 C419 1.497 . S
C952 C444 1.395 . S
C954 C439 1.460 . S
C963 C459 1.460 . S
C965 C464 1.389 . S
C974 C424 1.385 . S
C976 C479 1.461 . S
C985 C498 1.497 . S
C987 C522 1.438 . S
C996 C518 1.500 . S
C998 C482 1.435 . S
C1007 C538 1.497 . S
C1009 C502 1.441 . S
C1018 C558 1.463 . S
C1020 C562 1.388 . S
C1029 C578 1.461 . S
C1031 C582 1.394 . S
C1040 C598 1.461 . S
C1042 C542 1.387 . S
C1051 C619 1.506 . S
C1053 C644 1.444 . S
C1062 C639 1.507 . S
C1064 C604 1.446 . S
C1073 C624 1.447 . S
C1075 C659 1.507 . S
C1084 C679 1.521 . S
C1086 C684 1.451 . S
C1095 C699 1.518 . S
C1097 C704 1.456 . S
C1106 C664 1.450 . S
C1108 C719 1.521 . S
C1117 C4 1.341 . S
C1119 C418 1.463 . S
C1128 C378 1.460 . S
C1130 C24 1.344 . S
C1139 C44 1.342 . S
C1141 C398 1.467 . S
C1150 C64 1.329 . S
C1152 C698 1.417 . S
C1161 C718 1.420 1_545 S
C1163 C84 1.332 . S
C1172 C104 1.325 . S
C1174 C678 1.421 1_655 S
C1183 C539 1.461 . S
C1185 C122 1.342 . S
C1194 C142 1.341 . S
C1196 C499 1.483 . S
C1205 C162 1.343 . S
C1207 C519 1.467 . S
C1216 C339 1.415 . S
C1218 C182 1.325 . S
C1227 C359 1.421 . S
C1229 C202 1.325 . S
C1238 C319 1.423 . S
C1240 C222 1.331 . S
C1249 C244 1.337 . S
C1251 C658 1.438 . S
C1260 C264 1.343 . S
C1262 C618 1.444 . S
C1271 C638 1.443 . S
C1273 C284 1.342 . S
C1282 C218 1.435 . S
C1284 C304 1.346 . S
C1293 C238 1.439 . S
C1295 C324 1.345 . S
C1304 C198 1.439 . S
C1306 C344 1.342 . S
C1315 C59 1.459 . S
C1317 C362 1.346 . S
C1326 C382 1.356 . S
C1328 C19 1.466 . S
C1337 C402 1.345 . S
C1339 C39 1.464 . S
C1348 C579 1.462 . S
C1350 C422 1.405 . S
C1359 C599 1.458 . S
C1361 C442 1.405 . S
C1370 C462 1.406 . S
C1372 C559 1.463 . S
C1381 C178 1.462 . S
C1383 C484 1.343 . S
C1392 C138 1.465 . S
C1394 C504 1.346 . S
C1403 C158 1.461 . S
C1405 C524 1.343 . S
C1414 C544 1.397 . S
C1416 C458 1.462 . S
C1425 C478 1.465 . S
C1427 C564 1.410 . S
C1436 C584 1.404 . S
C1438 C438 1.465 . S
C1447 C602 1.344 . S
C1449 C299 1.442 . S
C1458 C622 1.343 . S
C1460 C259 1.441 . S
C1469 C642 1.331 . S
C1471 C279 1.440 . S
C1480 C662 1.338 . S
C1482 C99 1.436 . S
C1491 C119 1.433 . S
C1493 C682 1.344 . S
C1502 C79 1.433 . S
C1504 C702 1.343 . S
C1513 C592 1.802 . S
C1515 C12 1.783 . S
C1524 C552 1.797 . S
C1526 C32 1.787 . S
C1535 C52 1.791 . S
C1537 C572 1.793 . S
C1546 C272 1.927 . S
C1548 C72 1.926 . S
C1557 C92 1.928 . S
C1559 C292 1.925 . S
C1568 C112 1.929 . S
C1570 C252 1.924 . S
C1579 C129 1.791 . S
C1581 C469 1.793 . S
C1590 C149 1.795 . S
C1592 C429 1.790 . S
C1601 C169 1.793 . S
C1603 C449 1.792 . S
C1612 C629 1.925 . S
C1614 C189 1.927 . S
C1623 C649 1.927 . S
C1625 C209 1.926 . S
C1634 C609 1.928 . S
C1636 C229 1.925 . S
C1645 C312 1.964 . S
C1647 C512 1.959 . S
C1656 C332 1.965 . S
C1658 C532 1.958 . S
C1667 C352 1.960 . S
C1669 C492 1.962 . S
C1678 C369 1.958 . S
C1680 C709 1.964 . S
C1689 C669 1.960 . S
C1691 C389 1.962 . S
C1700 C409 1.962 . S
C1702 C689 1.961 . S
C1711 C89 1.397 . S
C1713 C9 1.407 . S
C1722 C109 1.400 . S
C1724 C29 1.405 . S
C1733 C69 1.404 . S
C1735 C49 1.399 . S
C1744 C132 1.408 . S
C1746 C212 1.398 . S
C1755 C232 1.407 . S
C1757 C152 1.398 . S
C1766 C172 1.408 . S
C1768 C192 1.398 . S
C1777 C329 1.451 . S
C1779 C249 1.441 . S
C1788 C349 1.441 . S
C1790 C269 1.448 . S
C1799 C309 1.452 . S
C1801 C289 1.439 . S
C1810 C452 1.568 . S
C1812 C372 1.555 . S
C1821 C392 1.552 . S
C1823 C472 1.569 . S
C1832 C412 1.546 . S
C1834 C432 1.574 . S
C1843 C489 1.555 . S
C1845 C569 1.567 . S
C1854 C589 1.557 . S
C1856 C509 1.564 . S
C1865 C529 1.558 . S
C1867 C549 1.566 . S
C1876 C612 1.442 . S
C1878 C692 1.447 . S
C1887 C712 1.442 . S
C1889 C632 1.446 . S
C1898 C652 1.451 . S
C1900 C672 1.440 . S
