# Generated by pormake.
# Topology wjg, (4)-cn, num edge types: 1
# Building blocks:
#     Node 0, Type 0, BuildingBlock: KUFVIS_clean_sbu_0, # of connection points: 4
#     Node 1, Type 0, BuildingBlock: KUFVIS_clean_sbu_0, # of connection points: 4
#     Node 2, Type 0, BuildingBlock: KUFVIS_clean_sbu_0, # of connection points: 4
#     Node 3, Type 0, BuildingBlock: KUFVIS_clean_sbu_0, # of connection points: 4
#     Node 4, Type 0, BuildingBlock: KUFVIS_clean_sbu_0, # of connection points: 4
#     Node 5, Type 0, BuildingBlock: KUFVIS_clean_sbu_0, # of connection points: 4
#     Node 6, Type 0, BuildingBlock: KUFVIS_clean_sbu_0, # of connection points: 4
#     Node 7, Type 0, BuildingBlock: KUFVIS_clean_sbu_0, # of connection points: 4
#     Node 8, Type 0, BuildingBlock: KUFVIS_clean_sbu_0, # of connection points: 4
#     Node 9, Type 0, BuildingBlock: KUFVIS_clean_sbu_0, # of connection points: 4
#     Node 10, Type 0, BuildingBlock: KUFVIS_clean_sbu_0, # of connection points: 4
#     Node 11, Type 0, BuildingBlock: KUFVIS_clean_sbu_0, # of connection points: 4
#     Edge 12, Type (0, 0), BuildingBlock: UVAHIK_clean_linker_0, # of connection points: 2
#     Edge 13, Type (0, 0), BuildingBlock: UVAHIK_clean_linker_0, # of connection points: 2
#     Edge 14, Type (0, 0), BuildingBlock: UVAHIK_clean_linker_0, # of connection points: 2
#     Edge 15, Type (0, 0), BuildingBlock: UVAHIK_clean_linker_0, # of connection points: 2
#     Edge 16, Type (0, 0), BuildingBlock: UVAHIK_clean_linker_0, # of connection points: 2
#     Edge 17, Type (0, 0), BuildingBlock: UVAHIK_clean_linker_0, # of connection points: 2
#     Edge 18, Type (0, 0), BuildingBlock: UVAHIK_clean_linker_0, # of connection points: 2
#     Edge 19, Type (0, 0), BuildingBlock: UVAHIK_clean_linker_0, # of connection points: 2
#     Edge 20, Type (0, 0), BuildingBlock: UVAHIK_clean_linker_0, # of connection points: 2
#     Edge 21, Type (0, 0), BuildingBlock: UVAHIK_clean_linker_0, # of connection points: 2
#     Edge 22, Type (0, 0), BuildingBlock: UVAHIK_clean_linker_0, # of connection points: 2
#     Edge 23, Type (0, 0), BuildingBlock: UVAHIK_clean_linker_0, # of connection points: 2
#     Edge 24, Type (0, 0), BuildingBlock: UVAHIK_clean_linker_0, # of connection points: 2
#     Edge 25, Type (0, 0), BuildingBlock: UVAHIK_clean_linker_0, # of connection points: 2
#     Edge 26, Type (0, 0), BuildingBlock: UVAHIK_clean_linker_0, # of connection points: 2
#     Edge 27, Type (0, 0), BuildingBlock: UVAHIK_clean_linker_0, # of connection points: 2
#     Edge 28, Type (0, 0), BuildingBlock: UVAHIK_clean_linker_0, # of connection points: 2
#     Edge 29, Type (0, 0), BuildingBlock: UVAHIK_clean_linker_0, # of connection points: 2
#     Edge 30, Type (0, 0), BuildingBlock: UVAHIK_clean_linker_0, # of connection points: 2
#     Edge 31, Type (0, 0), BuildingBlock: UVAHIK_clean_linker_0, # of connection points: 2
#     Edge 32, Type (0, 0), BuildingBlock: UVAHIK_clean_linker_0, # of connection points: 2
#     Edge 33, Type (0, 0), BuildingBlock: UVAHIK_clean_linker_0, # of connection points: 2
#     Edge 34, Type (0, 0), BuildingBlock: UVAHIK_clean_linker_0, # of connection points: 2
#     Edge 35, Type (0, 0), BuildingBlock: UVAHIK_clean_linker_0, # of connection points: 2
# Relax obj value: 0.323
# Max RMSD: 0.127
# Mean RMSD: 0.118
data_MOF--net-wjg--node1-KUFVIS_clean_sbu_0--edge1-UVAHIK_clean_linker_0
_symmetry_space_group_name_H-M    P1
_symmetry_Int_Tables_number       1
_symmetry_cell_setting            triclinic
loop_
_symmetry_equiv_pos_as_xyz
'x, y, z'
_cell_length_a     40.174245
_cell_length_b     40.020426
_cell_length_c     52.195325
_cell_angle_alpha  90.019494
_cell_angle_beta   90.004945
_cell_angle_gamma 120.1352
loop_
_atom_site_label
_atom_site_type_symbol
_atom_site_fract_x
_atom_site_fract_y
_atom_site_fract_z
_atom_type_partial_charge
Mn0 Mn 0.13596 0.40264 0.31575 0.0
Mn1 Mn 0.2282 0.4308 0.32827 0.0
C2 C 0.15442 0.3565 0.3154 0.0
C3 C 0.09375 0.40005 0.2841 0.0
C4 C 0.16966 0.42147 0.36868 0.0
O5 O 0.1639 0.46152 0.31556 0.0
O6 O 0.22507 0.4743 0.31263 0.0
C7 C 0.2598 0.44299 0.27571 0.0
N8 N 0.25397 0.4258 0.29906 0.0
C9 C 0.2907 0.39575 0.28723 0.0
C10 C 0.29729 0.41327 0.26306 0.0
C11 C 0.2816 0.43684 0.25724 0.0
C12 C 0.26852 0.40272 0.30476 0.0
H13 H 0.24793 0.46128 0.27127 0.0
C14 C 0.19966 0.48462 0.31191 0.0
O15 O 0.08569 0.4001 0.30825 0.0
O16 O 0.12573 0.40124 0.27867 0.0
N17 N 0.23607 0.39181 0.34355 0.0
C18 C 0.22574 0.37572 0.36732 0.0
C19 C 0.23865 0.35097 0.37599 0.0
C20 C 0.26261 0.34354 0.36034 0.0
C21 C 0.27318 0.36069 0.33607 0.0
C22 C 0.25947 0.38513 0.32846 0.0
H23 H 0.20801 0.38182 0.3797 0.0
O24 O 0.11823 0.34615 0.31562 0.0
O25 O 0.17846 0.3934 0.3137 0.0
O26 O 0.13913 0.40364 0.35509 0.0
O27 O 0.20377 0.43605 0.35966 0.0
C28 C 0.29642 0.35412 0.31902 0.0
C29 C 0.30496 0.37137 0.29454 0.0
H30 H 0.31416 0.40868 0.24879 0.0
H31 H 0.28645 0.45036 0.23861 0.0
H32 H 0.23038 0.33787 0.39477 0.0
H33 H 0.27261 0.32451 0.3671 0.0
H34 H 0.30748 0.33552 0.32453 0.0
H35 H 0.32239 0.36557 0.28145 0.0
Mn36 Mn 0.73295 0.13644 0.65304 0.0
Mn37 Mn 0.79542 0.22783 0.66934 0.0
C38 C 0.79754 0.15544 0.65508 0.0
C39 C 0.69616 0.09711 0.61935 0.0
C40 C 0.74238 0.16567 0.70682 0.0
O41 O 0.70214 0.16436 0.65251 0.0
O42 O 0.75101 0.22581 0.65132 0.0
C43 C 0.82153 0.26395 0.61833 0.0
N44 N 0.82984 0.25602 0.64207 0.0
C45 C 0.89791 0.29317 0.63386 0.0
C46 C 0.89012 0.30192 0.60935 0.0
C47 C 0.85175 0.28708 0.60152 0.0
C48 C 0.8666 0.26971 0.64967 0.0
H49 H 0.79207 0.25273 0.61233 0.0
C50 C 0.71535 0.20038 0.64917 0.0
O51 O 0.68594 0.08664 0.64299 0.0
O52 O 0.72752 0.12961 0.61559 0.0
N53 N 0.84014 0.23437 0.68699 0.0
C54 C 0.84292 0.22258 0.711 0.0
C55 C 0.8793 0.23465 0.72163 0.0
C56 C 0.91256 0.25937 0.7077 0.0
C57 C 0.90907 0.27155 0.68319 0.0
C58 C 0.87204 0.2586 0.67358 0.0
H59 H 0.81773 0.20452 0.72218 0.0
O60 O 0.77186 0.11906 0.65361 0.0
O61 O 0.78465 0.17932 0.65356 0.0
O62 O 0.73169 0.13621 0.69235 0.0
O63 O 0.76173 0.20062 0.69888 0.0
C64 C 0.94097 0.29595 0.66791 0.0
C65 C 0.93547 0.30655 0.64316 0.0
H66 H 0.91334 0.31984 0.59636 0.0
H67 H 0.84551 0.2936 0.58261 0.0
H68 H 0.88169 0.22525 0.74064 0.0
H69 H 0.94062 0.26889 0.71602 0.0
H70 H 0.96975 0.30636 0.67509 0.0
H71 H 0.96029 0.32492 0.63144 0.0
Mn72 Mn 0.57936 0.7313 0.98304 0.0
Mn73 Mn 0.56013 0.79844 0.00594 0.0
C74 C 0.62862 0.79479 0.98548 0.0
C75 C 0.57767 0.69452 0.94792 0.0
C76 C 0.56826 0.74088 0.0392 0.0
O77 O 0.52067 0.70394 0.98433 0.0
O78 O 0.51249 0.7549 0.99165 0.0
C79 C 0.54271 0.82498 0.95752 0.0
N80 N 0.56334 0.83299 0.97961 0.0
C81 C 0.59586 0.90128 0.97114 0.0
C82 C 0.57488 0.89384 0.9483 0.0
C83 C 0.54835 0.8555 0.9414 0.0
C84 C 0.58936 0.86967 0.98623 0.0
H85 H 0.52208 0.79554 0.95234 0.0
C86 C 0.49951 0.7191 0.98689 0.0
O87 O 0.57749 0.68292 0.97121 0.0
O88 O 0.57833 0.72703 0.94519 0.0
N89 N 0.60317 0.84242 0.02106 0.0
C90 C 0.62147 0.84463 0.04354 0.0
C91 C 0.64863 0.88092 0.05333 0.0
C92 C 0.65619 0.91458 0.04017 0.0
C93 C 0.63687 0.91159 0.01718 0.0
C94 C 0.60998 0.87468 0.00841 0.0
H95 H 0.61515 0.819 0.05412 0.0
O96 O 0.6363 0.76722 0.98231 0.0
O97 O 0.59235 0.78455 0.98566 0.0
O98 O 0.58112 0.72722 0.02225 0.0
O99 O 0.55702 0.76493 0.03444 0.0
C100 C 0.64321 0.94385 0.00267 0.0
C101 C 0.623 0.93876 0.97953 0.0
H102 H 0.57897 0.9173 0.9359 0.0
H103 H 0.53211 0.84952 0.92378 0.0
H104 H 0.66336 0.88295 0.07113 0.0
H105 H 0.6768 0.94257 0.04792 0.0
H106 H 0.66377 0.97256 0.00923 0.0
H107 H 0.62845 0.96382 0.96837 0.0
Mn108 Mn 0.8619 0.58863 0.32507 0.0
Mn109 Mn 0.77815 0.56911 0.35257 0.0
C110 C 0.84663 0.63702 0.32797 0.0
C111 C 0.89252 0.58522 0.28802 0.0
C112 C 0.84834 0.58172 0.38234 0.0
O113 O 0.83179 0.52983 0.328 0.0
O114 O 0.77371 0.5207 0.3395 0.0
C115 C 0.72812 0.54547 0.3067 0.0
N116 N 0.74305 0.56849 0.32768 0.0
C117 C 0.70478 0.59832 0.32018 0.0
C118 C 0.68884 0.57484 0.29851 0.0
C119 C 0.70073 0.54846 0.29166 0.0
C120 C 0.73231 0.5944 0.3342 0.0
H121 H 0.73702 0.52496 0.30159 0.0
C122 C 0.79616 0.50811 0.33305 0.0
O123 O 0.90728 0.58723 0.31054 0.0
O124 O 0.86021 0.58504 0.28721 0.0
N125 N 0.77776 0.61294 0.36677 0.0
C126 C 0.79633 0.63381 0.38803 0.0
C127 C 0.78755 0.66126 0.39758 0.0
C128 C 0.75928 0.66647 0.38548 0.0
C129 C 0.74041 0.64451 0.36375 0.0
C130 C 0.75026 0.6175 0.35515 0.0
H131 H 0.81742 0.62933 0.3978 0.0
O132 O 0.88165 0.64548 0.32309 0.0
O133 O 0.82132 0.60046 0.3297 0.0
O134 O 0.87259 0.59307 0.36392 0.0
O135 O 0.81259 0.57003 0.37954 0.0
C136 C 0.7121 0.64829 0.35037 0.0
C137 C 0.69449 0.62547 0.32844 0.0
H138 H 0.66752 0.57689 0.28696 0.0
H139 H 0.68862 0.53031 0.27494 0.0
H140 H 0.8022 0.67804 0.41441 0.0
H141 H 0.75219 0.68731 0.39309 0.0
H142 H 0.70393 0.66884 0.35683 0.0
H143 H 0.67299 0.62888 0.31813 0.0
Mn144 Mn 0.27579 0.88166 0.66287 0.0
Mn145 Mn 0.21466 0.79391 0.68679 0.0
C146 C 0.2116 0.86337 0.66679 0.0
C147 C 0.30869 0.9151 0.62612 0.0
C148 C 0.27095 0.86271 0.71895 0.0
O149 O 0.30659 0.85383 0.66399 0.0
O150 O 0.25829 0.79278 0.66993 0.0
C151 C 0.18646 0.74908 0.63869 0.0
N152 N 0.1791 0.76096 0.66135 0.0
C153 C 0.11074 0.72335 0.6543 0.0
C154 C 0.11757 0.71049 0.63095 0.0
C155 C 0.1556 0.72354 0.62307 0.0
C156 C 0.14265 0.74893 0.66898 0.0
H157 H 0.21567 0.75906 0.6326 0.0
C158 C 0.29331 0.8175 0.66471 0.0
O159 O 0.3215 0.92927 0.6488 0.0
O160 O 0.27716 0.88208 0.62504 0.0
N161 N 0.17063 0.79021 0.70375 0.0
C162 C 0.16888 0.80581 0.72658 0.0
C163 C 0.13292 0.79567 0.73719 0.0
C164 C 0.09908 0.76914 0.72443 0.0
C165 C 0.10152 0.75311 0.70113 0.0
C166 C 0.13817 0.76402 0.69161 0.0
H167 H 0.19461 0.82547 0.73682 0.0
O168 O 0.23709 0.89923 0.66259 0.0
O169 O 0.22424 0.8392 0.66697 0.0
O170 O 0.28135 0.88899 0.70186 0.0
O171 O 0.24963 0.82652 0.71444 0.0
C172 C 0.069 0.727 0.68687 0.0
C173 C 0.07356 0.71224 0.66341 0.0
H174 H 0.09385 0.6908 0.61885 0.0
H175 H 0.16111 0.71388 0.60503 0.0
H176 H 0.13131 0.80803 0.75526 0.0
H177 H 0.07137 0.76118 0.73274 0.0
H178 H 0.04042 0.71867 0.69362 0.0
H179 H 0.04831 0.69256 0.65246 0.0
Mn180 Mn 0.39085 0.24936 0.97737 0.0
Mn181 Mn 0.41652 0.18242 0.98684 0.0
C182 C 0.34324 0.18527 0.97642 0.0
C183 C 0.39004 0.29168 0.94699 0.0
C184 C 0.40851 0.22977 0.02944 0.0
O185 O 0.44932 0.27907 0.97729 0.0
O186 O 0.46084 0.23002 0.97258 0.0
C187 C 0.42764 0.16745 0.9329 0.0
N188 N 0.41059 0.15408 0.95609 0.0
C189 C 0.37811 0.08837 0.94104 0.0
C190 C 0.39549 0.10138 0.91701 0.0
C191 C 0.42022 0.14111 0.9129 0.0
C192 C 0.3863 0.11602 0.96014 0.0
H193 H 0.44675 0.19797 0.92973 0.0
C194 C 0.47191 0.26607 0.97316 0.0
O195 O 0.39034 0.29871 0.97137 0.0
O196 O 0.38976 0.26031 0.94062 0.0
N197 N 0.37733 0.13432 0.00073 0.0
C198 C 0.36305 0.12642 0.02505 0.0
C199 C 0.33838 0.08794 0.03245 0.0
C200 C 0.32916 0.05789 0.01495 0.0
C201 C 0.34463 0.0666 0.99018 0.0
C202 C 0.36931 0.10548 0.98395 0.0
H203 H 0.37064 0.14919 0.03883 0.0
O204 O 0.33436 0.21224 0.97713 0.0
O205 O 0.37972 0.19683 0.9741 0.0
O206 O 0.39207 0.24476 0.0166 0.0
O207 O 0.42204 0.20976 0.01951 0.0
C208 C 0.3364 0.03822 0.97139 0.0
C209 C 0.3529 0.0491 0.94677 0.0
H210 H 0.38997 0.08115 0.90157 0.0
H211 H 0.43363 0.15139 0.89438 0.0
H212 H 0.3267 0.08144 0.05166 0.0
H213 H 0.31021 0.02822 0.02073 0.0
H214 H 0.31717 0.00799 0.97567 0.0
H215 H 0.34607 0.02703 0.93241 0.0
Mn216 Mn 0.59878 0.85338 0.35062 0.0
Mn217 Mn 0.58146 0.76921 0.32405 0.0
C218 C 0.6476 0.83876 0.349 0.0
C219 C 0.59465 0.88487 0.38701 0.0
C220 C 0.59487 0.83915 0.29331 0.0
O221 O 0.54038 0.82271 0.34722 0.0
O222 O 0.53233 0.76522 0.3347 0.0
C223 C 0.55416 0.71981 0.37026 0.0
N224 N 0.57859 0.73421 0.34995 0.0
C225 C 0.60724 0.69559 0.36018 0.0
C226 C 0.58231 0.68018 0.3812 0.0
C227 C 0.5558 0.69252 0.38634 0.0
C228 C 0.6046 0.72304 0.34508 0.0
H229 H 0.53359 0.72907 0.37408 0.0
C230 C 0.51921 0.78729 0.34112 0.0
O231 O 0.5966 0.89893 0.36424 0.0
O232 O 0.59476 0.85262 0.38845 0.0
N233 N 0.62577 0.76805 0.31201 0.0
C234 C 0.6479 0.7859 0.29107 0.0
C235 C 0.67542 0.77635 0.283 0.0
C236 C 0.67941 0.74806 0.29625 0.0
C237 C 0.65619 0.72995 0.31764 0.0
C238 C 0.62909 0.74045 0.32468 0.0
H239 H 0.64432 0.80693 0.28042 0.0
O240 O 0.65546 0.87392 0.35318 0.0
O241 O 0.61132 0.81291 0.34704 0.0
O242 O 0.60339 0.8633 0.31165 0.0
O243 O 0.58494 0.80371 0.29627 0.0
C244 C 0.65883 0.70183 0.33218 0.0
C245 C 0.63464 0.68486 0.3536 0.0
H246 H 0.58332 0.65896 0.39354 0.0
H247 H 0.53652 0.68082 0.40255 0.0
H248 H 0.69318 0.79043 0.26644 0.0
H249 H 0.7003 0.74036 0.2898 0.0
H250 H 0.67962 0.6934 0.32702 0.0
H251 H 0.63724 0.6635 0.36481 0.0
Mn252 Mn 0.74937 0.59808 0.69338 0.0
Mn253 Mn 0.82043 0.58139 0.67462 0.0
C254 C 0.81262 0.64655 0.69742 0.0
C255 C 0.70643 0.59237 0.72541 0.0
C256 C 0.77753 0.60427 0.63788 0.0
O257 O 0.7206 0.53997 0.68845 0.0
O258 O 0.77004 0.53289 0.67581 0.0
C259 C 0.81817 0.53925 0.72175 0.0
N260 N 0.83845 0.56816 0.70464 0.0
C261 C 0.89776 0.58752 0.72697 0.0
C262 C 0.87758 0.55783 0.74478 0.0
C263 C 0.83757 0.53372 0.74223 0.0
C264 C 0.87677 0.59201 0.70722 0.0
H265 H 0.78746 0.52057 0.71974 0.0
C266 C 0.73437 0.51938 0.68061 0.0
O267 O 0.69985 0.59651 0.70155 0.0
O268 O 0.7375 0.59143 0.7304 0.0
N269 N 0.87167 0.62413 0.6716 0.0
C270 C 0.88708 0.64976 0.65188 0.0
C271 C 0.92702 0.67497 0.65085 0.0
C272 C 0.95083 0.67314 0.66983 0.0
C273 C 0.93449 0.64569 0.68949 0.0
C274 C 0.89452 0.62104 0.68934 0.0
H275 H 0.86905 0.65075 0.63691 0.0
O276 O 0.78491 0.65416 0.69849 0.0
O277 O 0.80261 0.61013 0.69562 0.0
O278 O 0.75395 0.60554 0.65391 0.0
O279 O 0.80343 0.59595 0.64363 0.0
C280 C 0.95628 0.64154 0.70909 0.0
C281 C 0.93788 0.6127 0.72795 0.0
H282 H 0.89251 0.55327 0.76048 0.0
H283 H 0.82178 0.51079 0.75592 0.0
H284 H 0.93946 0.69559 0.63537 0.0
H285 H 0.98158 0.69276 0.66897 0.0
H286 H 0.98718 0.66027 0.70986 0.0
H287 H 0.95493 0.60988 0.74296 0.0
Mn288 Mn 0.10464 0.71884 0.01018 0.0
Mn289 Mn 0.19984 0.79231 0.99277 0.0
C290 C 0.12329 0.78509 0.01575 0.0
C291 C 0.07617 0.6807 0.04635 0.0
C292 C 0.12701 0.74073 0.96412 0.0
O293 O 0.1389 0.69425 0.00438 0.0
O294 O 0.19937 0.7469 0.00917 0.0
C295 C 0.28042 0.81275 0.0017 0.0
N296 N 0.25463 0.82222 0.99226 0.0
C297 C 0.3054 0.88425 0.97818 0.0
C298 C 0.33254 0.87519 0.98775 0.0
C299 C 0.31998 0.83928 0.99957 0.0
C300 C 0.26633 0.85676 0.98102 0.0
H301 H 0.27084 0.78515 0.01079 0.0
C302 C 0.1756 0.71006 0.00774 0.0
O303 O 0.06025 0.66985 0.02391 0.0
O304 O 0.10832 0.7131 0.04758 0.0
N305 N 0.20107 0.8352 0.97513 0.0
C306 C 0.1717 0.83834 0.96449 0.0
C307 C 0.17961 0.8723 0.95162 0.0
C308 C 0.21775 0.90242 0.94902 0.0
C309 C 0.2477 0.898 0.95896 0.0
C310 C 0.23806 0.8636 0.97189 0.0
H311 H 0.14226 0.81527 0.96598 0.0
O312 O 0.08746 0.75807 0.01809 0.0
O313 O 0.1459 0.77287 0.00698 0.0
O314 O 0.09305 0.71624 0.97037 0.0
O315 O 0.14745 0.7573 0.98366 0.0
C316 C 0.2868 0.92608 0.95598 0.0
C317 C 0.31564 0.91932 0.9657 0.0
H318 H 0.36309 0.89552 0.98604 0.0
H319 H 0.34074 0.83205 0.00699 0.0
H320 H 0.15632 0.87516 0.94361 0.0
H321 H 0.22375 0.92854 0.93896 0.0
H322 H 0.29502 0.95277 0.94591 0.0
H323 H 0.34562 0.9411 0.96318 0.0
Mn324 Mn 0.39813 0.13074 0.34529 0.0
Mn325 Mn 0.42499 0.21747 0.31972 0.0
C326 C 0.35301 0.15019 0.34212 0.0
C327 C 0.39917 0.0992 0.3826 0.0
C328 C 0.4105 0.14682 0.28895 0.0
O329 O 0.45661 0.15769 0.34272 0.0
O330 O 0.47019 0.21895 0.33626 0.0
C331 C 0.44439 0.26579 0.36638 0.0
N332 N 0.42394 0.25235 0.34425 0.0
C333 C 0.39441 0.29131 0.35029 0.0
C334 C 0.41533 0.30575 0.37308 0.0
C335 C 0.44031 0.29282 0.3812 0.0
C336 C 0.39961 0.26435 0.33637 0.0
H337 H 0.46365 0.25594 0.37262 0.0
C338 C 0.48014 0.19389 0.34135 0.0
O339 O 0.39604 0.08345 0.36024 0.0
O340 O 0.40131 0.13253 0.38304 0.0
N341 N 0.38399 0.22028 0.30305 0.0
C342 C 0.36463 0.20231 0.28122 0.0
C343 C 0.338 0.21146 0.27078 0.0
C344 C 0.3319 0.23939 0.28266 0.0
C345 C 0.35239 0.25778 0.30495 0.0
C346 C 0.37871 0.24761 0.31442 0.0
H347 H 0.36957 0.18134 0.2717 0.0
O348 O 0.34212 0.11433 0.34684 0.0
O349 O 0.38991 0.17362 0.34082 0.0
O350 O 0.39428 0.12124 0.30643 0.0
O351 O 0.42598 0.18319 0.29285 0.0
C352 C 0.34731 0.28542 0.31833 0.0
C353 C 0.36816 0.30209 0.34105 0.0
H354 H 0.41222 0.32655 0.38459 0.0
H355 H 0.45641 0.30371 0.39883 0.0
H356 H 0.32238 0.19718 0.25352 0.0
H357 H 0.31137 0.24643 0.27454 0.0
H358 H 0.32694 0.29347 0.31143 0.0
H359 H 0.36351 0.32287 0.35139 0.0
Mn360 Mn 0.26411 0.41356 0.68248 0.0
Mn361 Mn 0.19918 0.43049 0.65296 0.0
C362 C 0.20053 0.36477 0.67996 0.0
C363 C 0.29731 0.41791 0.72018 0.0
C364 C 0.25694 0.41641 0.62468 0.0
O365 O 0.29236 0.47219 0.67882 0.0
O366 O 0.24396 0.47999 0.66404 0.0
C367 C 0.17477 0.45902 0.69736 0.0
N368 N 0.16575 0.43397 0.67744 0.0
C369 C 0.09795 0.4053 0.68586 0.0
C370 C 0.10646 0.43089 0.70645 0.0
C371 C 0.14505 0.45772 0.71229 0.0
C372 C 0.12879 0.40771 0.67186 0.0
H373 H 0.20441 0.47982 0.70173 0.0
C374 C 0.27862 0.49332 0.67173 0.0
O375 O 0.31068 0.41557 0.69796 0.0
O376 O 0.26522 0.41817 0.7203 0.0
N377 N 0.15422 0.38557 0.64054 0.0
C378 C 0.15098 0.36232 0.62047 0.0
C379 C 0.11433 0.33394 0.61209 0.0
C380 C 0.0814 0.3302 0.62412 0.0
C381 C 0.08546 0.35465 0.64459 0.0
C382 C 0.12269 0.38248 0.65204 0.0
H383 H 0.17611 0.36557 0.61079 0.0
O384 O 0.22732 0.35674 0.68513 0.0
O385 O 0.21153 0.40117 0.67735 0.0
O386 O 0.27145 0.40822 0.64381 0.0
O387 O 0.23149 0.42642 0.62647 0.0
C388 C 0.05398 0.35234 0.65794 0.0
C389 C 0.06015 0.37739 0.67873 0.0
H390 H 0.08363 0.43009 0.71794 0.0
H391 H 0.15183 0.47749 0.72819 0.0
H392 H 0.11148 0.31523 0.59624 0.0
H393 H 0.05314 0.30848 0.6175 0.0
H394 H 0.02503 0.33114 0.65237 0.0
H395 H 0.03565 0.37493 0.68908 0.0
Mn396 Mn 0.85432 0.26067 0.0152 0.0
Mn397 Mn 0.77348 0.19714 0.98379 0.0
C398 C 0.83811 0.1965 0.01249 0.0
C399 C 0.88174 0.29345 0.05335 0.0
C400 C 0.84746 0.25474 0.95727 0.0
O401 O 0.82551 0.29016 0.01034 0.0
O402 O 0.76942 0.24223 0.99466 0.0
C403 C 0.7184 0.17242 0.02695 0.0
N404 N 0.73495 0.16344 0.00741 0.0
C405 C 0.6937 0.09532 0.01468 0.0
C406 C 0.67607 0.10377 0.03488 0.0
C407 C 0.68863 0.1425 0.04113 0.0
C408 C 0.72357 0.12634 0.00152 0.0
H409 H 0.72781 0.20218 0.03158 0.0
C410 C 0.79108 0.27689 0.00248 0.0
O411 O 0.89869 0.30681 0.03145 0.0
O412 O 0.84896 0.26152 0.05292 0.0
N413 N 0.77276 0.1519 0.97131 0.0
C414 C 0.79292 0.1487 0.95139 0.0
C415 C 0.78361 0.11194 0.94244 0.0
C416 C 0.75318 0.07888 0.95372 0.0
C417 C 0.73269 0.0829 0.97407 0.0
C418 C 0.74315 0.12025 0.98209 0.0
H419 H 0.81564 0.17396 0.94218 0.0
O420 O 0.87279 0.22281 0.01868 0.0
O421 O 0.81355 0.20824 0.00918 0.0
O422 O 0.86921 0.26832 0.97693 0.0
O423 O 0.81163 0.22986 0.95819 0.0
C424 C 0.70215 0.05127 0.98658 0.0
C425 C 0.68285 0.05739 0.00706 0.0
H426 H 0.65292 0.08079 0.04573 0.0
H427 H 0.67522 0.14925 0.05671 0.0
H428 H 0.79952 0.10912 0.92667 0.0
H429 H 0.74567 0.05056 0.94655 0.0
H430 H 0.69357 0.02222 0.98053 0.0
H431 H 0.65961 0.03279 0.01672 0.0
C432 C 0.20136 0.54486 0.32627 0.0
C433 C 0.21373 0.52617 0.30919 0.0
C434 C 0.22199 0.58519 0.32844 0.0
C435 C 0.3018 0.67486 0.29998 0.0
H436 H 0.34633 0.69352 0.36807 0.0
C437 C 0.45931 0.74721 0.31691 0.0
C438 C 0.47752 0.77138 0.33795 0.0
C439 C 0.41989 0.73054 0.31338 0.0
C440 C 0.33357 0.68962 0.34922 0.0
H441 H 0.25452 0.53443 0.27933 0.0
H442 H 0.28977 0.60455 0.28249 0.0
H443 H 0.28374 0.63659 0.36016 0.0
H444 H 0.4692 0.79836 0.37142 0.0
H445 H 0.39878 0.7672 0.36588 0.0
H446 H 0.35334 0.726 0.28857 0.0
C447 C 0.26446 0.58846 0.29434 0.0
C448 C 0.29766 0.65693 0.34466 0.0
C449 C 0.24448 0.54829 0.2926 0.0
C450 C 0.45563 0.77958 0.35513 0.0
C451 C 0.41559 0.76198 0.35191 0.0
C452 C 0.33758 0.70757 0.30457 0.0
C453 C 0.25461 0.60722 0.31311 0.0
C454 C 0.28289 0.64783 0.3196 0.0
C455 C 0.39742 0.73714 0.33101 0.0
C456 C 0.35502 0.71354 0.32878 0.0
H457 H 0.17787 0.52826 0.33942 0.0
H458 H 0.21392 0.59896 0.3431 0.0
H459 H 0.29075 0.66877 0.28057 0.0
H460 H 0.47562 0.7409 0.30314 0.0
H461 H 0.40672 0.71095 0.29739 0.0
C462 C 0.6555 0.20164 0.65994 0.0
C463 C 0.68851 0.21463 0.64467 0.0
C464 C 0.63589 0.22233 0.66057 0.0
C465 C 0.63182 0.30487 0.63087 0.0
H466 H 0.64786 0.34458 0.70028 0.0
C467 C 0.71632 0.46192 0.65364 0.0
C468 C 0.70808 0.4783 0.67471 0.0
C469 C 0.69344 0.4228 0.64822 0.0
C470 C 0.64181 0.33324 0.68094 0.0
H471 H 0.72468 0.25648 0.61621 0.0
H472 H 0.69022 0.29194 0.61675 0.0
H473 H 0.64187 0.28194 0.6922 0.0
H474 H 0.66858 0.46715 0.70611 0.0
H475 H 0.62899 0.39743 0.69718 0.0
H476 H 0.63542 0.35792 0.61939 0.0
C477 C 0.67933 0.26611 0.62837 0.0
C478 C 0.63834 0.29723 0.67628 0.0
C479 C 0.69931 0.24602 0.62816 0.0
C480 C 0.67554 0.45503 0.68981 0.0
C481 C 0.65292 0.41535 0.68467 0.0
C482 C 0.63521 0.3408 0.63553 0.0
C483 C 0.64864 0.25569 0.64551 0.0
C484 C 0.63624 0.28414 0.651 0.0
C485 C 0.66199 0.39887 0.66393 0.0
C486 C 0.64316 0.3565 0.66038 0.0
H487 H 0.64685 0.17759 0.67297 0.0
H488 H 0.61237 0.21374 0.67396 0.0
H489 H 0.62955 0.2951 0.61125 0.0
H490 H 0.74092 0.47933 0.64147 0.0
H491 H 0.70168 0.41092 0.63241 0.0
C492 C 0.43886 0.69812 0.00992 0.0
C493 C 0.45759 0.69393 0.98858 0.0
C494 C 0.39899 0.6776 0.01158 0.0
C495 C 0.3168 0.64392 0.97103 0.0
H496 H 0.2659 0.6172 0.03718 0.0
C497 C 0.18217 0.65549 0.99045 0.0
C498 C 0.19259 0.68499 0.00866 0.0
C499 C 0.204 0.63726 0.98785 0.0
C500 C 0.27926 0.62363 0.01842 0.0
H501 H 0.44991 0.66393 0.95264 0.0
H502 H 0.3789 0.62846 0.95503 0.0
H503 H 0.3269 0.61852 0.03165 0.0
H504 H 0.23171 0.71663 0.03962 0.0
H505 H 0.26896 0.68407 0.03571 0.0
H506 H 0.2705 0.65182 0.95838 0.0
C507 C 0.39545 0.64736 0.97064 0.0
C508 C 0.31415 0.62445 0.01525 0.0
C509 C 0.43584 0.66755 0.96924 0.0
C510 C 0.22313 0.69391 0.02548 0.0
C511 C 0.24425 0.67509 0.02333 0.0
C512 C 0.28165 0.64274 0.97415 0.0
C513 C 0.3767 0.65267 0.99174 0.0
C514 C 0.33457 0.63733 0.99207 0.0
C515 C 0.23577 0.6476 0.00392 0.0
C516 C 0.26398 0.63511 0.99835 0.0
H517 H 0.45516 0.71809 0.02518 0.0
H518 H 0.38559 0.68302 0.02783 0.0
H519 H 0.33185 0.654 0.95296 0.0
H520 H 0.15891 0.64846 0.9771 0.0
H521 H 0.19712 0.61635 0.97266 0.0
C522 C 0.54034 0.19509 0.32834 0.0
C523 C 0.52137 0.20815 0.34458 0.0
C524 C 0.58062 0.21453 0.32761 0.0
C525 C 0.66884 0.28656 0.36056 0.0
H526 H 0.69832 0.34156 0.29586 0.0
C527 C 0.756 0.44625 0.35522 0.0
C528 C 0.77992 0.46606 0.33444 0.0
C529 C 0.73699 0.40621 0.3563 0.0
C530 C 0.69139 0.32576 0.31376 0.0
H531 H 0.52865 0.24944 0.37392 0.0
H532 H 0.59883 0.28245 0.37346 0.0
H533 H 0.63756 0.28088 0.29915 0.0
H534 H 0.8046 0.46004 0.2991 0.0
H535 H 0.76975 0.38878 0.30047 0.0
H536 H 0.72123 0.33288 0.3757 0.0
C537 C 0.58289 0.2575 0.3612 0.0
C538 C 0.65648 0.29098 0.31565 0.0
C539 C 0.54284 0.23885 0.3614 0.0
C540 C 0.78609 0.44518 0.31524 0.0
C541 C 0.76628 0.40462 0.31607 0.0
C542 C 0.70392 0.32102 0.3586 0.0
C543 C 0.60216 0.24645 0.34367 0.0
C544 C 0.64376 0.27272 0.33952 0.0
C545 C 0.74101 0.38477 0.33646 0.0
C546 C 0.71399 0.34248 0.33572 0.0
H547 H 0.52412 0.17168 0.31499 0.0
H548 H 0.59491 0.20583 0.31377 0.0
H549 H 0.65974 0.27271 0.3791 0.0
H550 H 0.75119 0.46181 0.37043 0.0
H551 H 0.71724 0.39201 0.37203 0.0
C552 C 0.30924 0.77265 0.64266 0.0
C553 C 0.31942 0.80244 0.66043 0.0
C554 C 0.32877 0.7521 0.64223 0.0
C555 C 0.36532 0.7137 0.68772 0.0
H556 H 0.37993 0.66668 0.62705 0.0
C557 C 0.33322 0.55627 0.68827 0.0
C558 C 0.30423 0.53548 0.6701 0.0
C559 C 0.35483 0.59677 0.68705 0.0
C560 C 0.37677 0.67993 0.64429 0.0
H561 H 0.35872 0.83565 0.69093 0.0
H562 H 0.39222 0.79838 0.69091 0.0
H563 H 0.38371 0.72935 0.62376 0.0
H564 H 0.27694 0.54009 0.63549 0.0
H565 H 0.3143 0.60983 0.63327 0.0
H566 H 0.35426 0.66245 0.70771 0.0
C567 C 0.36985 0.7917 0.67689 0.0
C568 C 0.37903 0.71579 0.6424 0.0
C569 C 0.35084 0.81298 0.67685 0.0
C570 C 0.29873 0.55544 0.64998 0.0
C571 C 0.32061 0.59544 0.64848 0.0
C572 C 0.36278 0.67765 0.68958 0.0
C573 C 0.35818 0.76035 0.66005 0.0
C574 C 0.37072 0.73167 0.66374 0.0
C575 C 0.34835 0.61669 0.66724 0.0
C576 C 0.36573 0.65927 0.66748 0.0
H577 H 0.28488 0.76397 0.62999 0.0
H578 H 0.3187 0.7277 0.62933 0.0
H579 H 0.35873 0.72529 0.70448 0.0
H580 H 0.33805 0.5414 0.7039 0.0
H581 H 0.37589 0.61252 0.70184 0.0
C582 C 0.75726 0.30134 0.97601 0.0
C583 C 0.77577 0.30312 0.99915 0.0
C584 C 0.73727 0.32105 0.97311 0.0
C585 C 0.67989 0.34716 0.01209 0.0
H586 H 0.65615 0.37024 0.94461 0.0
C587 C 0.53084 0.32517 0.98849 0.0
C588 C 0.51355 0.29352 0.97162 0.0
C589 C 0.57089 0.34615 0.99125 0.0
C590 C 0.66292 0.36485 0.96372 0.0
H591 H 0.79047 0.32892 0.03688 0.0
H592 H 0.75438 0.36338 0.03206 0.0
H593 H 0.71823 0.37471 0.95228 0.0
H594 H 0.5242 0.26094 0.94293 0.0
H595 H 0.59416 0.29844 0.94702 0.0
H596 H 0.62363 0.33526 0.02306 0.0
C597 C 0.75555 0.34667 0.01612 0.0
C598 C 0.69831 0.3672 0.96812 0.0
C599 C 0.77619 0.32711 0.0189 0.0
C600 C 0.53691 0.28523 0.95603 0.0
C601 C 0.57687 0.30683 0.95828 0.0
C602 C 0.64475 0.3455 0.00779 0.0
C603 C 0.73494 0.3429 0.99339 0.0
C604 C 0.70589 0.35544 0.99178 0.0
C605 C 0.59412 0.33645 0.97661 0.0
C606 C 0.63505 0.35179 0.98312 0.0
H607 H 0.75695 0.28331 0.9604 0.0
H608 H 0.72134 0.31677 0.9555 0.0
H609 H 0.68468 0.3379 0.03053 0.0
H610 H 0.51335 0.33185 0.00091 0.0
H611 H 0.5836 0.36867 0.00562 0.0
C612 C 0.18848 0.32416 0.2976 0.0
C613 C 0.16594 0.32718 0.31688 0.0
C614 C 0.20072 0.2972 0.29981 0.0
C615 C 0.21666 0.24159 0.35034 0.0
H616 H 0.2443 0.20065 0.29206 0.0
C617 C 0.29435 0.14606 0.32319 0.0
C618 C 0.32462 0.16284 0.34086 0.0
C619 C 0.2681 0.15917 0.32138 0.0
C620 C 0.23629 0.21128 0.30864 0.0
H621 H 0.13412 0.30181 0.35174 0.0
H622 H 0.15464 0.25404 0.35552 0.0
H623 H 0.20915 0.23452 0.28524 0.0
H624 H 0.34908 0.20272 0.37252 0.0
H625 H 0.30441 0.22689 0.36898 0.0
H626 H 0.24301 0.21767 0.37378 0.0
C627 C 0.16467 0.27355 0.33932 0.0
C628 C 0.21656 0.23129 0.30467 0.0
C629 C 0.15271 0.30068 0.33714 0.0
C630 C 0.32661 0.19051 0.35813 0.0
C631 C 0.30053 0.20377 0.35633 0.0
C632 C 0.23604 0.22128 0.35432 0.0
C633 C 0.18994 0.27234 0.32115 0.0
C634 C 0.20721 0.24745 0.32542 0.0
C635 C 0.27154 0.18903 0.33745 0.0
C636 C 0.24694 0.20664 0.33349 0.0
H637 H 0.1976 0.34345 0.28127 0.0
H638 H 0.22018 0.29733 0.28542 0.0
H639 H 0.21039 0.25387 0.36685 0.0
H640 H 0.29175 0.12371 0.31024 0.0
H641 H 0.24552 0.14631 0.30714 0.0
C642 C 0.85102 0.1545 0.67815 0.0
C643 C 0.83835 0.16752 0.65748 0.0
C644 C 0.89011 0.16698 0.68101 0.0
C645 C 0.98449 0.21726 0.64701 0.0
H646 H 0.02476 0.25035 0.71559 0.0
C647 C 0.13398 0.33704 0.69656 0.0
C648 C 0.16005 0.33414 0.68025 0.0
C649 C 0.09501 0.30905 0.69586 0.0
C650 C 0.01404 0.24133 0.69631 0.0
H651 H 0.85494 0.19992 0.62211 0.0
H652 H 0.92351 0.22289 0.62727 0.0
H653 H 0.95567 0.21543 0.7087 0.0
H654 H 0.16758 0.29802 0.65279 0.0
H655 H 0.0993 0.24859 0.65153 0.0
H656 H 0.04286 0.24437 0.63447 0.0
C657 C 0.90367 0.20322 0.64143 0.0
C658 C 0.97431 0.22089 0.69237 0.0
C659 C 0.86457 0.19067 0.63863 0.0
C660 C 0.14748 0.30122 0.66492 0.0
C661 C 0.10847 0.27313 0.66418 0.0
C662 C 0.02422 0.23762 0.65096 0.0
C663 C 0.91706 0.1923 0.66301 0.0
C664 C 0.95905 0.20954 0.66756 0.0
C665 C 0.08156 0.27733 0.67905 0.0
C666 C 0.03952 0.2509 0.67555 0.0
H667 H 0.83083 0.13567 0.69251 0.0
H668 H 0.89925 0.15726 0.69751 0.0
H669 H 0.97374 0.20825 0.62773 0.0
H670 H 0.14357 0.36166 0.70923 0.0
H671 H 0.07526 0.3135 0.70751 0.0
C672 C 0.8476 0.1433 0.9965 0.0
C673 C 0.82742 0.15569 0.01204 0.0
C674 C 0.83593 0.10404 0.99502 0.0
C675 C 0.77331 0.00877 0.02613 0.0
H676 H 0.75958 0.96941 0.95671 0.0
C677 C 0.66266 0.86253 0.96968 0.0
C678 C 0.66001 0.83495 0.98731 0.0
C679 C 0.6918 0.90107 0.97207 0.0
C680 C 0.76335 0.97993 0.97622 0.0
H681 H 0.7826 0.13839 0.04045 0.0
H682 H 0.76155 0.06969 0.03771 0.0
H683 H 0.79602 0.03879 0.96421 0.0
H684 H 0.68741 0.82429 0.01943 0.0
H685 H 0.73846 0.89183 0.02386 0.0
H686 H 0.74053 0.94996 0.03815 0.0
C687 C 0.78612 0.08986 0.02643 0.0
C688 C 0.78444 0.01973 0.98056 0.0
C689 C 0.79768 0.12904 0.02774 0.0
C690 C 0.68849 0.84557 0.0061 0.0
C691 C 0.71756 0.88412 0.00862 0.0
C692 C 0.75284 0.96897 0.02183 0.0
C693 C 0.80441 0.07675 0.00951 0.0
C694 C 0.78828 0.03466 0.00546 0.0
C695 C 0.71897 0.9125 0.99203 0.0
C696 C 0.74627 0.95415 0.99675 0.0
H697 H 0.87135 0.16378 0.98474 0.0
H698 H 0.85106 0.09497 0.98217 0.0
H699 H 0.77652 0.0193 0.0456 0.0
H700 H 0.64156 0.85448 0.95452 0.0
H701 H 0.69181 0.92214 0.95906 0.0
C702 C 0.67752 0.80214 0.3662 0.0
C703 C 0.67853 0.82945 0.34899 0.0
C704 C 0.70597 0.79186 0.36535 0.0
C705 C 0.77223 0.78767 0.31894 0.0
H706 H 0.80315 0.75073 0.37777 0.0
C707 C 0.80955 0.66725 0.31227 0.0
C708 C 0.83685 0.66768 0.32913 0.0
C709 C 0.79928 0.69574 0.31392 0.0
C710 C 0.79498 0.76107 0.36112 0.0
H711 H 0.71169 0.87081 0.31947 0.0
H712 H 0.76161 0.8528 0.31774 0.0
H713 H 0.76908 0.78604 0.38423 0.0
H714 H 0.8778 0.69962 0.35912 0.0
H715 H 0.85965 0.74953 0.36232 0.0
H716 H 0.79685 0.76144 0.29582 0.0
C717 C 0.73838 0.83845 0.33141 0.0
C718 C 0.77527 0.78117 0.36484 0.0
C719 C 0.70996 0.84881 0.33239 0.0
C720 C 0.85589 0.69839 0.34641 0.0
C721 C 0.84547 0.72679 0.34823 0.0
C722 C 0.79127 0.76695 0.31522 0.0
C723 C 0.73611 0.80906 0.34738 0.0
C724 C 0.76255 0.79359 0.34376 0.0
C725 C 0.81646 0.7253 0.33236 0.0
C726 C 0.80177 0.75235 0.33626 0.0
H727 H 0.65406 0.78787 0.37974 0.0
H728 H 0.7031 0.76895 0.37782 0.0
H729 H 0.76329 0.7972 0.30224 0.0
H730 H 0.79545 0.64433 0.29827 0.0
H731 H 0.77661 0.69351 0.30155 0.0
C732 C 0.14403 0.82588 0.65179 0.0
C733 C 0.17094 0.8518 0.66931 0.0
C734 C 0.10505 0.81369 0.65473 0.0
C735 C 0.03649 0.80332 0.70554 0.0
H736 H 0.96532 0.76591 0.64847 0.0
C737 C 0.87926 0.68121 0.71521 0.0
C738 C 0.85238 0.67872 0.69713 0.0
C739 C 0.91742 0.71142 0.71388 0.0
C740 C 0.9846 0.77669 0.66473 0.0
H741 H 0.17984 0.88901 0.70174 0.0
H742 H 0.11156 0.86801 0.70699 0.0
H743 H 0.03372 0.80381 0.64025 0.0
H744 H 0.84204 0.70795 0.66593 0.0
H745 H 0.90842 0.76098 0.66366 0.0
H746 H 0.98721 0.77609 0.73002 0.0
C747 C 0.12008 0.85585 0.69152 0.0
C748 C 0.02404 0.79804 0.65995 0.0
C749 C 0.15909 0.86799 0.68853 0.0
C750 C 0.86291 0.70869 0.67943 0.0
C751 C 0.9009 0.73894 0.67813 0.0
C752 C 0.99697 0.78198 0.71033 0.0
C753 C 0.09243 0.82769 0.67509 0.0
C754 C 0.05056 0.81051 0.68025 0.0
C755 C 0.92901 0.73983 0.69463 0.0
C756 C 0.97056 0.76741 0.68996 0.0
H757 H 0.15301 0.81414 0.6363 0.0
H758 H 0.08477 0.79179 0.64178 0.0
H759 H 0.05595 0.81258 0.72172 0.0
H760 H 0.87109 0.65908 0.72971 0.0
H761 H 0.93815 0.71102 0.72694 0.0
C762 C 0.29147 0.13598 0.0034 0.0
C763 C 0.31311 0.14522 0.9808 0.0
C764 C 0.26296 0.09798 0.0083 0.0
C765 C 0.20491 0.00059 0.97907 0.0
H766 H 0.21187 0.96591 0.04725 0.0
C767 C 0.1744 0.85155 0.0267 0.0
C768 C 0.13648 0.82633 0.01882 0.0
C769 C 0.18987 0.89138 0.02487 0.0
C770 C 0.20935 0.97528 0.02824 0.0
H771 H 0.31944 0.12382 0.94417 0.0
H772 H 0.27014 0.05666 0.9529 0.0
H773 H 0.24913 0.03431 0.03682 0.0
H774 H 0.084 0.82227 0.00447 0.0
H775 H 0.11132 0.89243 0.00102 0.0
H776 H 0.16582 0.941 0.97046 0.0
C777 C 0.27524 0.07857 0.967 0.0
C778 C 0.23047 0.01447 0.02225 0.0
C779 C 0.30387 0.11675 0.96214 0.0
C780 C 0.11331 0.84135 0.01073 0.0
C781 C 0.12899 0.8813 0.00852 0.0
C782 C 0.18335 0.96134 0.98519 0.0
C783 C 0.25531 0.0686 0.99051 0.0
C784 C 0.22924 0.02751 0.99743 0.0
C785 C 0.16767 0.90655 0.01501 0.0
C786 C 0.18609 0.94833 0.00966 0.0
H787 H 0.29747 0.15802 0.01765 0.0
H788 H 0.24747 0.09149 0.02628 0.0
H789 H 0.20298 0.00975 0.95988 0.0
H790 H 0.1927 0.84043 0.03296 0.0
H791 H 0.21987 0.91024 0.02978 0.0
C792 C 0.87754 0.30036 0.10062 0.0
C793 C 0.89936 0.31241 0.07797 0.0
C794 C 0.89463 0.31554 0.12432 0.0
C795 C 0.98351 0.39397 0.15515 0.0
H796 H 0.95519 0.31908 0.20998 0.0
C797 C 0.02831 0.38205 0.26687 0.0
C798 C 0.0681 0.3982 0.26319 0.0
C799 C 0.00416 0.37646 0.24591 0.0
C800 C 0.96291 0.34056 0.19507 0.0
H801 H 0.95597 0.35072 0.06229 0.0
H802 H 0.98619 0.37656 0.1037 0.0
H803 H 0.91988 0.29984 0.16974 0.0
H804 H 0.11409 0.42321 0.23513 0.0
H805 H 0.07232 0.41396 0.19892 0.0
H806 H 0.02782 0.4341 0.18026 0.0
C807 C 0.95563 0.3559 0.10318 0.0
C808 C 0.94267 0.32956 0.17193 0.0
C809 C 0.93839 0.34094 0.07941 0.0
C810 C 0.08348 0.41045 0.23854 0.0
C811 C 0.05958 0.40544 0.21779 0.0
C812 C 0.00394 0.40487 0.17824 0.0
C813 C 0.9341 0.34288 0.126 0.0
C814 C 0.9532 0.35589 0.15146 0.0
C815 C 0.01959 0.38764 0.2211 0.0
C816 C 0.99437 0.37803 0.19824 0.0
H817 H 0.84726 0.27869 0.10012 0.0
H818 H 0.87695 0.30542 0.14137 0.0
H819 H 0.99193 0.41524 0.14004 0.0
H820 H 0.01573 0.37232 0.28567 0.0
H821 H 0.97341 0.36279 0.24901 0.0
C822 C 0.6534 0.03339 0.5978 0.0
C823 C 0.67384 0.07391 0.59714 0.0
C824 C 0.63747 0.01224 0.57523 0.0
C825 C 0.65221 0.02544 0.50511 0.0
H826 H 0.56011 0.9246 0.50139 0.0
C827 C 0.60187 0.94349 0.40961 0.0
C828 C 0.59415 0.90518 0.41054 0.0
C829 C 0.60534 0.96369 0.43227 0.0
C830 C 0.5859 0.95278 0.50218 0.0
H831 H 0.69091 0.12415 0.57317 0.0
H832 H 0.66192 0.08762 0.53433 0.0
H833 H 0.5772 0.96056 0.54178 0.0
H834 H 0.58197 0.85733 0.43583 0.0
H835 H 0.58803 0.89254 0.47523 0.0
H836 H 0.66119 0.01764 0.46573 0.0
C837 C 0.65945 0.07191 0.55178 0.0
C838 C 0.59577 0.9733 0.52532 0.0
C839 C 0.67586 0.09288 0.5741 0.0
C840 C 0.58815 0.88692 0.43447 0.0
C841 C 0.59133 0.90698 0.45708 0.0
C842 C 0.6422 0.00513 0.48204 0.0
C843 C 0.64131 0.03138 0.55179 0.0
C844 C 0.62924 0.00981 0.52711 0.0
C845 C 0.60083 0.94585 0.45626 0.0
C846 C 0.60916 0.96845 0.48034 0.0
H847 H 0.65155 0.01815 0.61537 0.0
H848 H 0.62382 0.98106 0.57595 0.0
H849 H 0.67871 0.053 0.50583 0.0
H850 H 0.6065 0.95827 0.39144 0.0
H851 H 0.61228 0.99353 0.43105 0.0
C852 C 0.57509 0.68446 0.90058 0.0
C853 C 0.57921 0.67308 0.9253 0.0
C854 C 0.58049 0.66718 0.87895 0.0
C855 C 0.63497 0.62156 0.85903 0.0
H856 H 0.57556 0.59878 0.79633 0.0
C857 C 0.68186 0.57333 0.76981 0.0
C858 C 0.68111 0.59044 0.74652 0.0
C859 C 0.66243 0.5758 0.7912 0.0
C860 C 0.59258 0.60524 0.81363 0.0
H861 H 0.59052 0.63348 0.94678 0.0
H862 H 0.60026 0.6034 0.90888 0.0
H863 H 0.55374 0.61664 0.83501 0.0
H864 H 0.65799 0.62198 0.72687 0.0
H865 H 0.62496 0.62764 0.76457 0.0
H866 H 0.67472 0.61203 0.83774 0.0
C867 C 0.59301 0.62585 0.9063 0.0
C868 C 0.57999 0.6153 0.8358 0.0
C869 C 0.58728 0.64294 0.92798 0.0
C870 C 0.65893 0.60846 0.74462 0.0
C871 C 0.63992 0.61154 0.76623 0.0
C872 C 0.6477 0.61185 0.8369 0.0
C873 C 0.59041 0.63833 0.88156 0.0
C874 C 0.60129 0.62394 0.85866 0.0
C875 C 0.64237 0.59617 0.78999 0.0
C876 C 0.62691 0.60388 0.81383 0.0
H877 H 0.56871 0.7075 0.89788 0.0
H878 H 0.57863 0.67768 0.86018 0.0
H879 H 0.65243 0.62879 0.87618 0.0
H880 H 0.6983 0.55873 0.7717 0.0
H881 H 0.66403 0.5626 0.80891 0.0
C882 C 0.0181 0.63527 0.0721 0.0
C883 C 0.05817 0.65886 0.07002 0.0
C884 C 0.0012 0.61987 0.0959 0.0
C885 C 0.02335 0.64063 0.16495 0.0
H886 H 0.92671 0.54503 0.174 0.0
C887 C 0.89182 0.57611 0.24069 0.0
C888 C 0.91183 0.58455 0.26406 0.0
C889 C 0.91049 0.57864 0.21761 0.0
C890 C 0.95377 0.57178 0.17174 0.0
H891 H 0.11222 0.68227 0.09055 0.0
H892 H 0.08308 0.65425 0.13163 0.0
H893 H 0.95806 0.56067 0.13207 0.0
H894 H 0.96676 0.60085 0.28169 0.0
H895 H -0.00032 0.60571 0.24116 0.0
H896 H 0.01887 0.65195 0.20447 0.0
C897 C 0.0644 0.64879 0.1153 0.0
C898 C 0.97166 0.58084 0.1477 0.0
C899 C 0.08116 0.66463 0.09169 0.0
C900 C 0.95063 0.59427 0.26397 0.0
C901 C 0.96948 0.59719 0.24079 0.0
C902 C 0.00568 0.63142 0.18896 0.0
C903 C 0.02415 0.62737 0.11796 0.0
C904 C 0.00641 0.6157 0.14389 0.0
C905 C 0.94972 0.58998 0.21733 0.0
C906 C 0.97039 0.59723 0.19254 0.0
H907 H -0.00027 0.6305 0.05568 0.0
H908 H 0.9701 0.60375 0.09719 0.0
H909 H 0.04963 0.66813 0.16274 0.0
H910 H 0.86182 0.56834 0.24013 0.0
H911 H 0.89457 0.57328 0.19988 0.0
C912 C 0.4155 0.10375 0.42885 0.0
C913 C 0.39993 0.08071 0.40691 0.0
C914 C 0.4131 0.08697 0.45268 0.0
C915 C 0.38965 0.9951 0.48552 0.0
H916 H 0.36285 0.04097 0.54153 0.0
C917 C 0.31734 0.91477 0.5789 0.0
C918 C 0.32808 0.93521 0.60218 0.0
C919 C 0.33272 0.93362 0.55575 0.0
C920 C 0.37102 0.0282 0.52624 0.0
H921 H 0.37094 0.02209 0.39247 0.0
H922 H 0.36557 0.99235 0.43443 0.0
H923 H 0.37654 0.07099 0.49949 0.0
H924 H 0.36439 0.99123 0.61956 0.0
H925 H 0.39118 0.02455 0.5788 0.0
H926 H 0.38252 0.9514 0.51233 0.0
C927 C 0.38032 0.02355 0.43313 0.0
C928 C 0.3789 0.04541 0.50206 0.0
C929 C 0.38323 0.04049 0.40909 0.0
C930 C 0.35556 0.97478 0.60191 0.0
C931 C 0.37072 0.99382 0.5786 0.0
C932 C 0.38148 0.97771 0.50973 0.0
C933 C 0.39449 0.04662 0.45532 0.0
C934 C 0.38801 0.02895 0.4813 0.0
C935 C 0.35901 0.97348 0.55525 0.0
C936 C 0.37167 0.99387 0.53028 0.0
H937 H 0.42912 0.13492 0.4277 0.0
H938 H 0.42533 0.10574 0.46914 0.0
H939 H 0.39713 0.98194 0.47012 0.0
H940 H 0.29637 0.88418 0.57847 0.0
H941 H 0.32278 0.9172 0.53812 0.0
C942 C 0.37568 0.34263 0.9313 0.0
C943 C 0.38996 0.31752 0.92681 0.0
C944 C 0.37199 0.36347 0.91095 0.0
C945 C 0.33917 0.37445 0.86045 0.0
H946 H 0.41548 0.42046 0.80651 0.0
C947 C 0.30478 0.42795 0.76749 0.0
C948 C 0.3162 0.41819 0.74456 0.0
C949 C 0.3192 0.42435 0.79102 0.0
C950 C 0.39377 0.40756 0.82131 0.0
H951 H 0.41361 0.29618 0.89801 0.0
H952 H 0.40764 0.33262 0.86289 0.0
H953 H 0.43155 0.39934 0.84615 0.0
H954 H 0.35281 0.39838 0.72822 0.0
H955 H 0.37728 0.39099 0.76936 0.0
H956 H 0.3007 0.38072 0.83534 0.0
C957 C 0.39914 0.33627 0.88191 0.0
C958 C 0.40308 0.39568 0.84408 0.0
C959 C 0.40224 0.31512 0.90203 0.0
C960 C 0.34356 0.40621 0.74557 0.0
C961 C 0.35772 0.40218 0.76919 0.0
C962 C 0.32975 0.38603 0.83762 0.0
C963 C 0.38325 0.36005 0.88598 0.0
C964 C 0.3756 0.37823 0.86366 0.0
C965 C 0.34508 0.41044 0.79228 0.0
C966 C 0.35666 0.402 0.81752 0.0
H967 H 0.36599 0.34497 0.95022 0.0
H968 H 0.35976 0.38173 0.91463 0.0
H969 H 0.31721 0.3606 0.87502 0.0
H970 H 0.28405 0.43773 0.76731 0.0
H971 H 0.30949 0.43185 0.8083 0.0
C972 C 0.14726 0.38612 0.40997 0.0
C973 C 0.16726 0.42135 0.39679 0.0
C974 C 0.15619 0.38366 0.4356 0.0
C975 C 0.20867 0.44194 0.49257 0.0
H976 H 0.23103 0.35968 0.50537 0.0
C977 C 0.28642 0.44627 0.58368 0.0
C978 C 0.26705 0.41248 0.59835 0.0
C979 C 0.27895 0.44541 0.5575 0.0
C980 C 0.22482 0.38272 0.5021 0.0
H981 H 0.20968 0.48205 0.4003 0.0
H982 H 0.22437 0.47818 0.44503 0.0
H983 H 0.20133 0.36138 0.46482 0.0
H984 H 0.22849 0.35071 0.59695 0.0
H985 H 0.2153 0.34898 0.55119 0.0
H986 H 0.23196 0.46336 0.52967 0.0
C987 C 0.20207 0.45235 0.43579 0.0
C988 C 0.20747 0.38351 0.479 0.0
C989 C 0.19353 0.45468 0.4102 0.0
C990 C 0.24426 0.37704 0.58589 0.0
C991 C 0.23636 0.37617 0.5597 0.0
C992 C 0.22596 0.44117 0.51557 0.0
C993 C 0.18481 0.41652 0.44844 0.0
C994 C 0.19951 0.41335 0.47392 0.0
C995 C 0.25158 0.41079 0.54568 0.0
C996 C 0.23467 0.41183 0.52054 0.0
H997 H 0.12748 0.35989 0.39986 0.0
H998 H 0.14207 0.35575 0.44498 0.0
H999 H 0.20249 0.46503 0.48938 0.0
H1000 H 0.30372 0.47401 0.59297 0.0
H1001 H 0.29203 0.47242 0.54703 0.0
C1002 C 0.84955 0.28381 0.91566 0.0
C1003 C 0.86318 0.26483 0.93134 0.0
C1004 C 0.8447 0.27613 0.88942 0.0
C1005 C 0.8162 0.19143 0.85006 0.0
H1006 H 0.81597 0.25726 0.79576 0.0
C1007 C 0.75553 0.14071 0.74673 0.0
C1008 C 0.73996 0.16132 0.73486 0.0
C1009 C 0.77069 0.15061 0.77156 0.0
C1010 C 0.81546 0.23843 0.81085 0.0
H1011 H 0.88682 0.22679 0.93183 0.0
H1012 H 0.87894 0.21367 0.88578 0.0
H1013 H 0.85237 0.28634 0.83482 0.0
H1014 H 0.72285 0.20415 0.74061 0.0
H1015 H 0.74739 0.22 0.78424 0.0
H1016 H 0.77856 0.14347 0.82621 0.0
C1017 C 0.87156 0.23412 0.89374 0.0
C1018 C 0.83665 0.25515 0.8331 0.0
C1019 C 0.87683 0.24224 0.91998 0.0
C1020 C 0.7348 0.18791 0.74936 0.0
C1021 C 0.74956 0.19751 0.77414 0.0
C1022 C 0.79498 0.17467 0.82774 0.0
C1023 C 0.85312 0.24904 0.87856 0.0
C1024 C 0.83662 0.23186 0.85319 0.0
C1025 C 0.76994 0.18085 0.78481 0.0
C1026 C 0.79359 0.198 0.80819 0.0
H1027 H 0.83812 0.30072 0.92412 0.0
H1028 H 0.83039 0.28811 0.87832 0.0
H1029 H 0.81503 0.17261 0.86538 0.0
H1030 H 0.76037 0.12051 0.73581 0.0
H1031 H 0.78597 0.13704 0.77937 0.0
C1032 C 0.56314 0.83604 0.25271 0.0
C1033 C 0.59756 0.85124 0.26661 0.0
C1034 C 0.56248 0.82735 0.22676 0.0
C1035 C 0.62052 0.83193 0.17023 0.0
H1036 H 0.53922 0.72524 0.16215 0.0
C1037 C 0.60769 0.74933 0.0776 0.0
C1038 C 0.57111 0.73419 0.0665 0.0
C1039 C 0.61311 0.75979 0.10351 0.0
C1040 C 0.56204 0.75502 0.16407 0.0
H1041 H 0.65889 0.87372 0.26403 0.0
H1042 H 0.65798 0.8589 0.21855 0.0
H1043 H 0.54428 0.75925 0.2019 0.0
H1044 H 0.51104 0.71423 0.07387 0.0
H1045 H 0.52001 0.73102 0.11907 0.0
H1046 H 0.63788 0.82771 0.13213 0.0
C1047 C 0.63148 0.85367 0.22754 0.0
C1048 C 0.56473 0.77467 0.18674 0.0
C1049 C 0.63212 0.86261 0.25352 0.0
C1050 C 0.53939 0.72531 0.08218 0.0
C1051 C 0.54468 0.73527 0.10805 0.0
C1052 C 0.61772 0.81226 0.14742 0.0
C1053 C 0.59622 0.83346 0.21446 0.0
C1054 C 0.59359 0.81352 0.18993 0.0
C1055 C 0.58188 0.75468 0.11863 0.0
C1056 C 0.58811 0.77371 0.14399 0.0
H1057 H 0.53608 0.82653 0.26254 0.0
H1058 H 0.53502 0.81269 0.21695 0.0
H1059 H 0.64317 0.86176 0.17221 0.0
H1060 H 0.63266 0.75716 0.06571 0.0
H1061 H 0.64203 0.77416 0.11127 0.0
C1062 C 0.84036 0.55453 0.42554 0.0
C1063 C 0.8611 0.58593 0.40905 0.0
C1064 C 0.8381 0.56057 0.45161 0.0
C1065 C 0.83886 0.63581 0.49207 0.0
H1066 H 0.81591 0.5598 0.54533 0.0
C1067 C 0.80432 0.64556 0.59981 0.0
C1068 C 0.77523 0.61102 0.61058 0.0
C1069 C 0.81473 0.6467 0.57411 0.0
C1070 C 0.82195 0.58109 0.53054 0.0
H1071 H 0.89877 0.64784 0.40694 0.0
H1072 H 0.89598 0.65856 0.45289 0.0
H1073 H 0.84359 0.55471 0.50503 0.0
H1074 H 0.7324 0.55155 0.60292 0.0
H1075 H 0.75012 0.55357 0.55788 0.0
H1076 H 0.81755 0.66237 0.51807 0.0
C1077 C 0.88084 0.62927 0.44561 0.0
C1078 C 0.83799 0.57831 0.5075 0.0
C1079 C 0.88319 0.6231 0.41942 0.0
C1080 C 0.75422 0.57875 0.5948 0.0
C1081 C 0.76484 0.57974 0.56922 0.0
C1082 C 0.82329 0.6389 0.51535 0.0
C1083 C 0.8565 0.59826 0.46171 0.0
C1084 C 0.8458 0.60506 0.48771 0.0
C1085 C 0.79654 0.61308 0.55909 0.0
C1086 C 0.8138 0.61097 0.53451 0.0
H1087 H 0.82257 0.52569 0.41783 0.0
H1088 H 0.8189 0.53596 0.46325 0.0
H1089 H 0.84391 0.65661 0.47714 0.0
H1090 H 0.82158 0.67042 0.61189 0.0
H1091 H 0.8393 0.67271 0.56676 0.0
C1092 C 0.18063 0.76432 0.93322 0.0
C1093 C 0.14194 0.75257 0.938 0.0
C1094 C 0.19811 0.78284 0.91039 0.0
C1095 C 0.17725 0.80476 0.84485 0.0
H1096 H 0.28656 0.87995 0.84653 0.0
C1097 C 0.25911 0.89294 0.75646 0.0
C1098 C 0.2768 0.87326 0.7462 0.0
C1099 C 0.24833 0.8882 0.78228 0.0
C1100 C 0.25595 0.85939 0.84596 0.0
H1101 H 0.09088 0.75054 0.92288 0.0
H1102 H 0.12153 0.78399 0.88303 0.0
H1103 H 0.25295 0.84928 0.88629 0.0
H1104 H 0.30121 0.83722 0.75513 0.0
H1105 H 0.28461 0.83105 0.80066 0.0
H1106 H 0.18055 0.81579 0.80447 0.0
C1107 C 0.13829 0.77797 0.89653 0.0
C1108 C 0.23669 0.84129 0.8686 0.0
C1109 C 0.12054 0.75859 0.91927 0.0
C1110 C 0.28813 0.85312 0.76274 0.0
C1111 C 0.27839 0.84936 0.78868 0.0
C1112 C 0.19635 0.82356 0.82238 0.0
C1113 C 0.17757 0.79096 0.89197 0.0
C1114 C 0.19726 0.81287 0.86825 0.0
C1115 C 0.25644 0.86494 0.79822 0.0
C1116 C 0.23593 0.8504 0.82271 0.0
H1117 H 0.19773 0.7601 0.94754 0.0
H1118 H 0.22794 0.79115 0.9074 0.0
H1119 H 0.14716 0.78281 0.84358 0.0
H1120 H 0.24929 0.90784 0.74394 0.0
H1121 H 0.23114 0.90018 0.78931 0.0
C1122 C 0.37097 0.11659 0.25027 0.0
C1123 C 0.40737 0.13549 0.26192 0.0
C1124 C 0.36755 0.1201 0.22383 0.0
C1125 C 0.42138 0.15296 0.1628 0.0
H1126 H 0.35806 0.19916 0.14996 0.0
C1127 C 0.44149 0.23738 0.0708 0.0
C1128 C 0.40819 0.23032 0.05758 0.0
C1129 C 0.43923 0.22543 0.09615 0.0
C1130 C 0.37548 0.18588 0.15308 0.0
H1131 H 0.46869 0.16938 0.25519 0.0
H1132 H 0.46296 0.17391 0.20902 0.0
H1133 H 0.35581 0.17074 0.19179 0.0
H1134 H 0.34676 0.20717 0.06066 0.0
H1135 H 0.34254 0.18587 0.10508 0.0
H1136 H 0.44126 0.16808 0.1243 0.0
C1137 C 0.43701 0.15688 0.22011 0.0
C1138 C 0.37403 0.16939 0.177 0.0
C1139 C 0.44037 0.15406 0.24652 0.0
C1140 C 0.37297 0.21375 0.0707 0.0
C1141 C 0.37056 0.20121 0.09606 0.0
C1142 C 0.42262 0.16914 0.13887 0.0
C1143 C 0.40055 0.1418 0.20873 0.0
C1144 C 0.39754 0.15345 0.18225 0.0
C1145 C 0.40345 0.20539 0.10866 0.0
C1146 C 0.4004 0.18665 0.13389 0.0
H1147 H 0.34512 0.10282 0.26187 0.0
H1148 H 0.33912 0.10794 0.21548 0.0
H1149 H 0.43959 0.14063 0.16625 0.0
H1150 H 0.46891 0.24986 0.06096 0.0
H1151 H 0.46533 0.23027 0.10553 0.0
loop_
_geom_bond_atom_site_label_1
_geom_bond_atom_site_label_2
_geom_bond_distance
_geom_bond_site_symmetry_2
_ccdc_geom_bond_type
Mn0 O5 2.095 . S
Mn0 O15 2.162 . S
Mn0 O16 2.297 . S
Mn0 O24 2.385 . S
Mn0 O25 2.209 . S
Mn0 O26 2.094 . S
Mn1 O6 2.121 . S
Mn1 N8 2.257 . S
Mn1 N17 2.282 . S
Mn1 O25 2.215 . S
Mn1 O27 2.117 . S
C2 O24 1.234 . S
C2 O25 1.283 . S
C3 O15 1.281 . S
C3 O16 1.236 . S
C4 O26 1.240 . S
C4 O27 1.264 . S
O5 Mn0 2.095 . S
O5 C14 1.250 . S
O6 Mn1 2.121 . S
O6 C14 1.258 . S
C7 N8 1.326 . S
C7 C11 1.460 . S
C7 H13 0.929 . S
N8 Mn1 2.257 . S
N8 C7 1.326 . S
N8 C12 1.362 . S
C9 C10 1.258 . S
C9 C12 1.431 . S
C9 C29 1.449 . S
C10 C9 1.258 . S
C10 C11 1.477 . S
C10 H30 0.931 . S
C11 C7 1.460 . S
C11 C10 1.477 . S
C11 H31 0.930 . S
C12 N8 1.362 . S
C12 C9 1.431 . S
C12 C22 1.476 . S
H13 C7 0.929 . S
C14 O5 1.250 . S
C14 O6 1.258 . S
O15 Mn0 2.162 . S
O15 C3 1.281 . S
O16 Mn0 2.297 . S
O16 C3 1.236 . S
N17 Mn1 2.282 . S
N17 C18 1.328 . S
N17 C22 1.318 . S
C18 N17 1.328 . S
C18 C19 1.457 . S
C18 H23 0.929 . S
C19 C18 1.457 . S
C19 C20 1.291 . S
C19 H32 0.931 . S
C20 C19 1.291 . S
C20 C21 1.373 . S
C20 H33 0.929 . S
C21 C20 1.373 . S
C21 C22 1.396 . S
C21 C28 1.403 . S
C22 C12 1.476 . S
C22 N17 1.318 . S
C22 C21 1.396 . S
H23 C18 0.929 . S
O24 Mn0 2.385 . S
O24 C2 1.234 . S
O25 Mn0 2.209 . S
O25 Mn1 2.215 . S
O25 C2 1.283 . S
O26 Mn0 2.094 . S
O26 C4 1.240 . S
O27 Mn1 2.117 . S
O27 C4 1.264 . S
C28 C21 1.403 . S
C28 C29 1.399 . S
C28 H34 0.929 . S
C29 C9 1.449 . S
C29 C28 1.399 . S
C29 H35 0.930 . S
H30 C10 0.931 . S
H31 C11 0.930 . S
H32 C19 0.931 . S
H33 C20 0.929 . S
H34 C28 0.929 . S
H35 C29 0.930 . S
Mn36 O41 2.095 . S
Mn36 O51 2.162 . S
Mn36 O52 2.297 . S
Mn36 O60 2.385 . S
Mn36 O61 2.209 . S
Mn36 O62 2.094 . S
Mn37 O42 2.121 . S
Mn37 N44 2.257 . S
Mn37 N53 2.282 . S
Mn37 O61 2.215 . S
Mn37 O63 2.117 . S
C38 O60 1.234 . S
C38 O61 1.283 . S
C39 O51 1.281 . S
C39 O52 1.236 . S
C40 O62 1.240 . S
C40 O63 1.264 . S
O41 Mn36 2.095 . S
O41 C50 1.250 . S
O42 Mn37 2.121 . S
O42 C50 1.258 . S
C43 N44 1.326 . S
C43 C47 1.460 . S
C43 H49 0.929 . S
N44 Mn37 2.257 . S
N44 C43 1.326 . S
N44 C48 1.362 . S
C45 C46 1.258 . S
C45 C48 1.431 . S
C45 C65 1.449 . S
C46 C45 1.258 . S
C46 C47 1.477 . S
C46 H66 0.931 . S
C47 C43 1.460 . S
C47 C46 1.477 . S
C47 H67 0.930 . S
C48 N44 1.362 . S
C48 C45 1.431 . S
C48 C58 1.476 . S
H49 C43 0.929 . S
C50 O41 1.250 . S
C50 O42 1.258 . S
O51 Mn36 2.162 . S
O51 C39 1.281 . S
O52 Mn36 2.297 . S
O52 C39 1.236 . S
N53 Mn37 2.282 . S
N53 C54 1.328 . S
N53 C58 1.318 . S
C54 N53 1.328 . S
C54 C55 1.457 . S
C54 H59 0.929 . S
C55 C54 1.457 . S
C55 C56 1.291 . S
C55 H68 0.931 . S
C56 C55 1.291 . S
C56 C57 1.373 . S
C56 H69 0.929 . S
C57 C56 1.373 . S
C57 C58 1.396 . S
C57 C64 1.403 . S
C58 C48 1.476 . S
C58 N53 1.318 . S
C58 C57 1.396 . S
H59 C54 0.929 . S
O60 Mn36 2.385 . S
O60 C38 1.234 . S
O61 Mn36 2.209 . S
O61 Mn37 2.215 . S
O61 C38 1.283 . S
O62 Mn36 2.094 . S
O62 C40 1.240 . S
O63 Mn37 2.117 . S
O63 C40 1.264 . S
C64 C57 1.403 . S
C64 C65 1.399 . S
C64 H70 0.929 . S
C65 C45 1.449 . S
C65 C64 1.399 . S
C65 H71 0.930 . S
H66 C46 0.931 . S
H67 C47 0.930 . S
H68 C55 0.931 . S
H69 C56 0.929 . S
H70 C64 0.929 . S
H71 C65 0.930 . S
Mn72 O77 2.093 1_556 S
Mn72 O87 2.178 . S
Mn72 O88 2.331 . S
Mn72 O96 2.387 . S
Mn72 O97 2.211 . S
Mn72 O98 2.061 1_556 S
Mn73 O78 2.121 . S
Mn73 N80 2.257 . S
Mn73 N89 2.282 . S
Mn73 O97 2.215 1_554 S
Mn73 O99 2.117 . S
C74 O96 1.234 . S
C74 O97 1.283 . S
C75 O87 1.281 . S
C75 O88 1.236 . S
C76 O98 1.240 . S
C76 O99 1.264 . S
O77 Mn72 2.093 1_554 S
O77 C86 1.249 1_554 S
O78 Mn73 2.121 . S
O78 C86 1.256 1_554 S
C79 N80 1.326 1_556 S
C79 C83 1.460 . S
C79 H85 0.929 . S
N80 Mn73 2.257 . S
N80 C79 1.326 1_554 S
N80 C84 1.362 . S
C81 C82 1.283 . S
C81 C84 1.431 . S
C81 C101 1.449 . S
C82 C81 1.283 . S
C82 C83 1.462 1_554 S
C82 H102 0.922 1_554 S
C83 C79 1.460 . S
C83 C82 1.462 1_556 S
C83 H103 0.930 . S
C84 N80 1.362 . S
C84 C81 1.431 . S
C84 C94 1.476 . S
H85 C79 0.929 . S
C86 O77 1.249 1_556 S
C86 O78 1.256 1_556 S
O87 Mn72 2.178 . S
O87 C75 1.281 . S
O88 Mn72 2.331 . S
O88 C75 1.236 . S
N89 Mn73 2.282 . S
N89 C90 1.328 . S
N89 C94 1.318 . S
C90 N89 1.328 . S
C90 C91 1.457 . S
C90 H95 0.929 . S
C91 C90 1.457 . S
C91 C92 1.291 . S
C91 H104 0.931 . S
C92 C91 1.291 . S
C92 C93 1.373 . S
C92 H105 0.929 . S
C93 C92 1.373 . S
C93 C94 1.396 . S
C93 C100 1.403 . S
C94 C84 1.476 . S
C94 N89 1.318 . S
C94 C93 1.396 . S
H95 C90 0.929 . S
O96 Mn72 2.387 . S
O96 C74 1.234 . S
O97 Mn72 2.211 . S
O97 Mn73 2.215 1_556 S
O97 C74 1.283 . S
O98 Mn72 2.061 1_554 S
O98 C76 1.240 . S
O99 Mn73 2.117 . S
O99 C76 1.264 . S
C100 C93 1.403 . S
C100 C101 1.399 . S
C100 H106 0.929 . S
C101 C81 1.449 . S
C101 C100 1.399 . S
C101 H107 0.930 . S
H102 C82 0.922 1_556 S
H103 C83 0.930 . S
H104 C91 0.931 . S
H105 C92 0.929 . S
H106 C100 0.929 . S
H107 C101 0.930 . S
Mn108 O113 2.095 . S
Mn108 O123 2.162 . S
Mn108 O124 2.297 . S
Mn108 O132 2.385 . S
Mn108 O133 2.209 . S
Mn108 O134 2.094 . S
Mn109 O114 2.121 . S
Mn109 N116 2.257 . S
Mn109 N125 2.282 . S
Mn109 O133 2.215 . S
Mn109 O135 2.117 . S
C110 O132 1.234 . S
C110 O133 1.283 . S
C111 O123 1.281 . S
C111 O124 1.236 . S
C112 O134 1.240 . S
C112 O135 1.264 . S
O113 Mn108 2.095 . S
O113 C122 1.250 . S
O114 Mn109 2.121 . S
O114 C122 1.258 . S
C115 N116 1.326 . S
C115 C119 1.460 . S
C115 H121 0.929 . S
N116 Mn109 2.257 . S
N116 C115 1.326 . S
N116 C120 1.362 . S
C117 C118 1.258 . S
C117 C120 1.431 . S
C117 C137 1.449 . S
C118 C117 1.258 . S
C118 C119 1.477 . S
C118 H138 0.931 . S
C119 C115 1.460 . S
C119 C118 1.477 . S
C119 H139 0.930 . S
C120 N116 1.362 . S
C120 C117 1.431 . S
C120 C130 1.476 . S
H121 C115 0.929 . S
C122 O113 1.250 . S
C122 O114 1.258 . S
O123 Mn108 2.162 . S
O123 C111 1.281 . S
O124 Mn108 2.297 . S
O124 C111 1.236 . S
N125 Mn109 2.282 . S
N125 C126 1.328 . S
N125 C130 1.318 . S
C126 N125 1.328 . S
C126 C127 1.457 . S
C126 H131 0.929 . S
C127 C126 1.457 . S
C127 C128 1.291 . S
C127 H140 0.931 . S
C128 C127 1.291 . S
C128 C129 1.373 . S
C128 H141 0.929 . S
C129 C128 1.373 . S
C129 C130 1.396 . S
C129 C136 1.403 . S
C130 C120 1.476 . S
C130 N125 1.318 . S
C130 C129 1.396 . S
H131 C126 0.929 . S
O132 Mn108 2.385 . S
O132 C110 1.234 . S
O133 Mn108 2.209 . S
O133 Mn109 2.215 . S
O133 C110 1.283 . S
O134 Mn108 2.094 . S
O134 C112 1.240 . S
O135 Mn109 2.117 . S
O135 C112 1.264 . S
C136 C129 1.403 . S
C136 C137 1.399 . S
C136 H142 0.929 . S
C137 C117 1.449 . S
C137 C136 1.399 . S
C137 H143 0.930 . S
H138 C118 0.931 . S
H139 C119 0.930 . S
H140 C127 0.931 . S
H141 C128 0.929 . S
H142 C136 0.929 . S
H143 C137 0.930 . S
Mn144 O149 2.095 . S
Mn144 O159 2.162 . S
Mn144 O160 2.297 . S
Mn144 O168 2.385 . S
Mn144 O169 2.209 . S
Mn144 O170 2.094 . S
Mn145 O150 2.121 . S
Mn145 N152 2.257 . S
Mn145 N161 2.282 . S
Mn145 O169 2.215 . S
Mn145 O171 2.117 . S
C146 O168 1.234 . S
C146 O169 1.283 . S
C147 O159 1.281 . S
C147 O160 1.236 . S
C148 O170 1.240 . S
C148 O171 1.264 . S
O149 Mn144 2.095 . S
O149 C158 1.250 . S
O150 Mn145 2.121 . S
O150 C158 1.258 . S
C151 N152 1.326 . S
C151 C155 1.460 . S
C151 H157 0.929 . S
N152 Mn145 2.257 . S
N152 C151 1.326 . S
N152 C156 1.362 . S
C153 C154 1.258 . S
C153 C156 1.431 . S
C153 C173 1.449 . S
C154 C153 1.258 . S
C154 C155 1.477 . S
C154 H174 0.931 . S
C155 C151 1.460 . S
C155 C154 1.477 . S
C155 H175 0.930 . S
C156 N152 1.362 . S
C156 C153 1.431 . S
C156 C166 1.476 . S
H157 C151 0.929 . S
C158 O149 1.250 . S
C158 O150 1.258 . S
O159 Mn144 2.162 . S
O159 C147 1.281 . S
O160 Mn144 2.297 . S
O160 C147 1.236 . S
N161 Mn145 2.282 . S
N161 C162 1.328 . S
N161 C166 1.318 . S
C162 N161 1.328 . S
C162 C163 1.457 . S
C162 H167 0.929 . S
C163 C162 1.457 . S
C163 C164 1.291 . S
C163 H176 0.931 . S
C164 C163 1.291 . S
C164 C165 1.373 . S
C164 H177 0.929 . S
C165 C164 1.373 . S
C165 C166 1.396 . S
C165 C172 1.403 . S
C166 C156 1.476 . S
C166 N161 1.318 . S
C166 C165 1.396 . S
H167 C162 0.929 . S
O168 Mn144 2.385 . S
O168 C146 1.234 . S
O169 Mn144 2.209 . S
O169 Mn145 2.215 . S
O169 C146 1.283 . S
O170 Mn144 2.094 . S
O170 C148 1.240 . S
O171 Mn145 2.117 . S
O171 C148 1.264 . S
C172 C165 1.403 . S
C172 C173 1.399 . S
C172 H178 0.929 . S
C173 C153 1.449 . S
C173 C172 1.399 . S
C173 H179 0.930 . S
H174 C154 0.931 . S
H175 C155 0.930 . S
H176 C163 0.931 . S
H177 C164 0.929 . S
H178 C172 0.929 . S
H179 C173 0.930 . S
Mn180 O185 2.093 1_556 S
Mn180 O195 2.178 . S
Mn180 O196 2.331 . S
Mn180 O204 2.387 . S
Mn180 O205 2.211 . S
Mn180 O206 2.061 1_556 S
Mn181 O186 2.121 . S
Mn181 N188 2.257 . S
Mn181 N197 2.282 . S
Mn181 O205 2.215 1_554 S
Mn181 O207 2.117 . S
C182 O204 1.234 . S
C182 O205 1.283 . S
C183 O195 1.281 . S
C183 O196 1.236 . S
C184 O206 1.240 . S
C184 O207 1.264 . S
O185 Mn180 2.093 1_554 S
O185 C194 1.249 1_554 S
O186 Mn181 2.121 . S
O186 C194 1.256 1_554 S
C187 N188 1.326 1_556 S
C187 C191 1.460 . S
C187 H193 0.929 . S
N188 Mn181 2.257 . S
N188 C187 1.326 1_554 S
N188 C192 1.362 . S
C189 C190 1.283 . S
C189 C192 1.431 . S
C189 C209 1.449 . S
C190 C189 1.283 . S
C190 C191 1.462 1_554 S
C190 H210 0.922 1_554 S
C191 C187 1.460 . S
C191 C190 1.462 1_556 S
C191 H211 0.930 . S
C192 N188 1.362 . S
C192 C189 1.431 . S
C192 C202 1.476 . S
H193 C187 0.929 . S
C194 O185 1.249 1_556 S
C194 O186 1.256 1_556 S
O195 Mn180 2.178 . S
O195 C183 1.281 . S
O196 Mn180 2.331 . S
O196 C183 1.236 . S
N197 Mn181 2.282 . S
N197 C198 1.328 . S
N197 C202 1.318 . S
C198 N197 1.328 . S
C198 C199 1.457 . S
C198 H203 0.929 . S
C199 C198 1.457 . S
C199 C200 1.291 . S
C199 H212 0.931 . S
C200 C199 1.291 . S
C200 C201 1.373 . S
C200 H213 0.929 . S
C201 C200 1.373 . S
C201 C202 1.396 . S
C201 C208 1.403 . S
C202 C192 1.476 . S
C202 N197 1.318 . S
C202 C201 1.396 . S
H203 C198 0.929 . S
O204 Mn180 2.387 . S
O204 C182 1.234 . S
O205 Mn180 2.211 . S
O205 Mn181 2.215 1_556 S
O205 C182 1.283 . S
O206 Mn180 2.061 1_554 S
O206 C184 1.240 . S
O207 Mn181 2.117 . S
O207 C184 1.264 . S
C208 C201 1.403 . S
C208 C209 1.399 . S
C208 H214 0.929 . S
C209 C189 1.449 . S
C209 C208 1.399 . S
C209 H215 0.930 . S
H210 C190 0.922 1_556 S
H211 C191 0.930 . S
H212 C199 0.931 . S
H213 C200 0.929 . S
H214 C208 0.929 . S
H215 C209 0.930 . S
Mn216 O221 2.095 . S
Mn216 O231 2.162 . S
Mn216 O232 2.297 . S
Mn216 O240 2.385 . S
Mn216 O241 2.209 . S
Mn216 O242 2.094 . S
Mn217 O222 2.121 . S
Mn217 N224 2.257 . S
Mn217 N233 2.282 . S
Mn217 O241 2.215 . S
Mn217 O243 2.117 . S
C218 O240 1.234 . S
C218 O241 1.283 . S
C219 O231 1.281 . S
C219 O232 1.236 . S
C220 O242 1.240 . S
C220 O243 1.264 . S
O221 Mn216 2.095 . S
O221 C230 1.250 . S
O222 Mn217 2.121 . S
O222 C230 1.258 . S
C223 N224 1.326 . S
C223 C227 1.460 . S
C223 H229 0.929 . S
N224 Mn217 2.257 . S
N224 C223 1.326 . S
N224 C228 1.362 . S
C225 C226 1.258 . S
C225 C228 1.431 . S
C225 C245 1.449 . S
C226 C225 1.258 . S
C226 C227 1.477 . S
C226 H246 0.931 . S
C227 C223 1.460 . S
C227 C226 1.477 . S
C227 H247 0.930 . S
C228 N224 1.362 . S
C228 C225 1.431 . S
C228 C238 1.476 . S
H229 C223 0.929 . S
C230 O221 1.250 . S
C230 O222 1.258 . S
O231 Mn216 2.162 . S
O231 C219 1.281 . S
O232 Mn216 2.297 . S
O232 C219 1.236 . S
N233 Mn217 2.282 . S
N233 C234 1.328 . S
N233 C238 1.318 . S
C234 N233 1.328 . S
C234 C235 1.457 . S
C234 H239 0.929 . S
C235 C234 1.457 . S
C235 C236 1.291 . S
C235 H248 0.931 . S
C236 C235 1.291 . S
C236 C237 1.373 . S
C236 H249 0.929 . S
C237 C236 1.373 . S
C237 C238 1.396 . S
C237 C244 1.403 . S
C238 C228 1.476 . S
C238 N233 1.318 . S
C238 C237 1.396 . S
H239 C234 0.929 . S
O240 Mn216 2.385 . S
O240 C218 1.234 . S
O241 Mn216 2.209 . S
O241 Mn217 2.215 . S
O241 C218 1.283 . S
O242 Mn216 2.094 . S
O242 C220 1.240 . S
O243 Mn217 2.117 . S
O243 C220 1.264 . S
C244 C237 1.403 . S
C244 C245 1.399 . S
C244 H250 0.929 . S
C245 C225 1.449 . S
C245 C244 1.399 . S
C245 H251 0.930 . S
H246 C226 0.931 . S
H247 C227 0.930 . S
H248 C235 0.931 . S
H249 C236 0.929 . S
H250 C244 0.929 . S
H251 C245 0.930 . S
Mn252 O257 2.095 . S
Mn252 O267 2.162 . S
Mn252 O268 2.297 . S
Mn252 O276 2.385 . S
Mn252 O277 2.209 . S
Mn252 O278 2.094 . S
Mn253 O258 2.121 . S
Mn253 N260 2.257 . S
Mn253 N269 2.282 . S
Mn253 O277 2.215 . S
Mn253 O279 2.117 . S
C254 O276 1.234 . S
C254 O277 1.283 . S
C255 O267 1.281 . S
C255 O268 1.236 . S
C256 O278 1.240 . S
C256 O279 1.264 . S
O257 Mn252 2.095 . S
O257 C266 1.250 . S
O258 Mn253 2.121 . S
O258 C266 1.258 . S
C259 N260 1.326 . S
C259 C263 1.460 . S
C259 H265 0.929 . S
N260 Mn253 2.257 . S
N260 C259 1.326 . S
N260 C264 1.362 . S
C261 C262 1.258 . S
C261 C264 1.431 . S
C261 C281 1.449 . S
C262 C261 1.258 . S
C262 C263 1.477 . S
C262 H282 0.931 . S
C263 C259 1.460 . S
C263 C262 1.477 . S
C263 H283 0.930 . S
C264 N260 1.362 . S
C264 C261 1.431 . S
C264 C274 1.476 . S
H265 C259 0.929 . S
C266 O257 1.250 . S
C266 O258 1.258 . S
O267 Mn252 2.162 . S
O267 C255 1.281 . S
O268 Mn252 2.297 . S
O268 C255 1.236 . S
N269 Mn253 2.282 . S
N269 C270 1.328 . S
N269 C274 1.318 . S
C270 N269 1.328 . S
C270 C271 1.457 . S
C270 H275 0.929 . S
C271 C270 1.457 . S
C271 C272 1.291 . S
C271 H284 0.931 . S
C272 C271 1.291 . S
C272 C273 1.373 . S
C272 H285 0.929 . S
C273 C272 1.373 . S
C273 C274 1.396 . S
C273 C280 1.403 . S
C274 C264 1.476 . S
C274 N269 1.318 . S
C274 C273 1.396 . S
H275 C270 0.929 . S
O276 Mn252 2.385 . S
O276 C254 1.234 . S
O277 Mn252 2.209 . S
O277 Mn253 2.215 . S
O277 C254 1.283 . S
O278 Mn252 2.094 . S
O278 C256 1.240 . S
O279 Mn253 2.117 . S
O279 C256 1.264 . S
C280 C273 1.403 . S
C280 C281 1.399 . S
C280 H286 0.929 . S
C281 C261 1.449 . S
C281 C280 1.399 . S
C281 H287 0.930 . S
H282 C262 0.931 . S
H283 C263 0.930 . S
H284 C271 0.931 . S
H285 C272 0.929 . S
H286 C280 0.929 . S
H287 C281 0.930 . S
Mn288 O293 2.093 1_554 S
Mn288 O303 2.178 . S
Mn288 O304 2.331 . S
Mn288 O312 2.387 . S
Mn288 O313 2.211 . S
Mn288 O314 2.061 1_554 S
Mn289 O294 2.121 . S
Mn289 N296 2.257 . S
Mn289 N305 2.282 . S
Mn289 O313 2.215 1_556 S
Mn289 O315 2.117 . S
C290 O312 1.234 . S
C290 O313 1.283 . S
C291 O303 1.281 . S
C291 O304 1.236 . S
C292 O314 1.240 . S
C292 O315 1.264 . S
O293 Mn288 2.093 1_556 S
O293 C302 1.249 1_556 S
O294 Mn289 2.121 . S
O294 C302 1.256 1_556 S
C295 N296 1.326 1_554 S
C295 C299 1.460 . S
C295 H301 0.929 . S
N296 Mn289 2.257 . S
N296 C295 1.326 1_556 S
N296 C300 1.362 . S
C297 C298 1.283 . S
C297 C300 1.431 . S
C297 C317 1.449 . S
C298 C297 1.283 . S
C298 C299 1.462 1_556 S
C298 H318 0.922 1_556 S
C299 C295 1.460 . S
C299 C298 1.462 1_554 S
C299 H319 0.930 . S
C300 N296 1.362 . S
C300 C297 1.431 . S
C300 C310 1.476 . S
H301 C295 0.929 . S
C302 O293 1.249 1_554 S
C302 O294 1.256 1_554 S
O303 Mn288 2.178 . S
O303 C291 1.281 . S
O304 Mn288 2.331 . S
O304 C291 1.236 . S
N305 Mn289 2.282 . S
N305 C306 1.328 . S
N305 C310 1.318 . S
C306 N305 1.328 . S
C306 C307 1.457 . S
C306 H311 0.929 . S
C307 C306 1.457 . S
C307 C308 1.291 . S
C307 H320 0.931 . S
C308 C307 1.291 . S
C308 C309 1.373 . S
C308 H321 0.929 . S
C309 C308 1.373 . S
C309 C310 1.396 . S
C309 C316 1.403 . S
C310 C300 1.476 . S
C310 N305 1.318 . S
C310 C309 1.396 . S
H311 C306 0.929 . S
O312 Mn288 2.387 . S
O312 C290 1.234 . S
O313 Mn288 2.211 . S
O313 Mn289 2.215 1_554 S
O313 C290 1.283 . S
O314 Mn288 2.061 1_556 S
O314 C292 1.240 . S
O315 Mn289 2.117 . S
O315 C292 1.264 . S
C316 C309 1.403 . S
C316 C317 1.399 . S
C316 H322 0.929 . S
C317 C297 1.449 . S
C317 C316 1.399 . S
C317 H323 0.930 . S
H318 C298 0.922 1_554 S
H319 C299 0.930 . S
H320 C307 0.931 . S
H321 C308 0.929 . S
H322 C316 0.929 . S
H323 C317 0.930 . S
Mn324 O329 2.095 . S
Mn324 O339 2.162 . S
Mn324 O340 2.297 . S
Mn324 O348 2.385 . S
Mn324 O349 2.209 . S
Mn324 O350 2.094 . S
Mn325 O330 2.121 . S
Mn325 N332 2.257 . S
Mn325 N341 2.282 . S
Mn325 O349 2.215 . S
Mn325 O351 2.117 . S
C326 O348 1.234 . S
C326 O349 1.283 . S
C327 O339 1.281 . S
C327 O340 1.236 . S
C328 O350 1.240 . S
C328 O351 1.264 . S
O329 Mn324 2.095 . S
O329 C338 1.250 . S
O330 Mn325 2.121 . S
O330 C338 1.258 . S
C331 N332 1.326 . S
C331 C335 1.460 . S
C331 H337 0.929 . S
N332 Mn325 2.257 . S
N332 C331 1.326 . S
N332 C336 1.362 . S
C333 C334 1.258 . S
C333 C336 1.431 . S
C333 C353 1.449 . S
C334 C333 1.258 . S
C334 C335 1.477 . S
C334 H354 0.931 . S
C335 C331 1.460 . S
C335 C334 1.477 . S
C335 H355 0.930 . S
C336 N332 1.362 . S
C336 C333 1.431 . S
C336 C346 1.476 . S
H337 C331 0.929 . S
C338 O329 1.250 . S
C338 O330 1.258 . S
O339 Mn324 2.162 . S
O339 C327 1.281 . S
O340 Mn324 2.297 . S
O340 C327 1.236 . S
N341 Mn325 2.282 . S
N341 C342 1.328 . S
N341 C346 1.318 . S
C342 N341 1.328 . S
C342 C343 1.457 . S
C342 H347 0.929 . S
C343 C342 1.457 . S
C343 C344 1.291 . S
C343 H356 0.931 . S
C344 C343 1.291 . S
C344 C345 1.373 . S
C344 H357 0.929 . S
C345 C344 1.373 . S
C345 C346 1.396 . S
C345 C352 1.403 . S
C346 C336 1.476 . S
C346 N341 1.318 . S
C346 C345 1.396 . S
H347 C342 0.929 . S
O348 Mn324 2.385 . S
O348 C326 1.234 . S
O349 Mn324 2.209 . S
O349 Mn325 2.215 . S
O349 C326 1.283 . S
O350 Mn324 2.094 . S
O350 C328 1.240 . S
O351 Mn325 2.117 . S
O351 C328 1.264 . S
C352 C345 1.403 . S
C352 C353 1.399 . S
C352 H358 0.929 . S
C353 C333 1.449 . S
C353 C352 1.399 . S
C353 H359 0.930 . S
H354 C334 0.931 . S
H355 C335 0.930 . S
H356 C343 0.931 . S
H357 C344 0.929 . S
H358 C352 0.929 . S
H359 C353 0.930 . S
Mn360 O365 2.095 . S
Mn360 O375 2.162 . S
Mn360 O376 2.297 . S
Mn360 O384 2.385 . S
Mn360 O385 2.209 . S
Mn360 O386 2.094 . S
Mn361 O366 2.121 . S
Mn361 N368 2.257 . S
Mn361 N377 2.282 . S
Mn361 O385 2.215 . S
Mn361 O387 2.117 . S
C362 O384 1.234 . S
C362 O385 1.283 . S
C363 O375 1.281 . S
C363 O376 1.236 . S
C364 O386 1.240 . S
C364 O387 1.264 . S
O365 Mn360 2.095 . S
O365 C374 1.250 . S
O366 Mn361 2.121 . S
O366 C374 1.258 . S
C367 N368 1.326 . S
C367 C371 1.460 . S
C367 H373 0.929 . S
N368 Mn361 2.257 . S
N368 C367 1.326 . S
N368 C372 1.362 . S
C369 C370 1.258 . S
C369 C372 1.431 . S
C369 C389 1.449 . S
C370 C369 1.258 . S
C370 C371 1.477 . S
C370 H390 0.931 . S
C371 C367 1.460 . S
C371 C370 1.477 . S
C371 H391 0.930 . S
C372 N368 1.362 . S
C372 C369 1.431 . S
C372 C382 1.476 . S
H373 C367 0.929 . S
C374 O365 1.250 . S
C374 O366 1.258 . S
O375 Mn360 2.162 . S
O375 C363 1.281 . S
O376 Mn360 2.297 . S
O376 C363 1.236 . S
N377 Mn361 2.282 . S
N377 C378 1.328 . S
N377 C382 1.318 . S
C378 N377 1.328 . S
C378 C379 1.457 . S
C378 H383 0.929 . S
C379 C378 1.457 . S
C379 C380 1.291 . S
C379 H392 0.931 . S
C380 C379 1.291 . S
C380 C381 1.373 . S
C380 H393 0.929 . S
C381 C380 1.373 . S
C381 C382 1.396 . S
C381 C388 1.403 . S
C382 C372 1.476 . S
C382 N377 1.318 . S
C382 C381 1.396 . S
H383 C378 0.929 . S
O384 Mn360 2.385 . S
O384 C362 1.234 . S
O385 Mn360 2.209 . S
O385 Mn361 2.215 . S
O385 C362 1.283 . S
O386 Mn360 2.094 . S
O386 C364 1.240 . S
O387 Mn361 2.117 . S
O387 C364 1.264 . S
C388 C381 1.403 . S
C388 C389 1.399 . S
C388 H394 0.929 . S
C389 C369 1.449 . S
C389 C388 1.399 . S
C389 H395 0.930 . S
H390 C370 0.931 . S
H391 C371 0.930 . S
H392 C379 0.931 . S
H393 C380 0.929 . S
H394 C388 0.929 . S
H395 C389 0.930 . S
Mn396 O401 2.093 1_554 S
Mn396 O411 2.178 . S
Mn396 O412 2.331 . S
Mn396 O420 2.387 . S
Mn396 O421 2.211 . S
Mn396 O422 2.061 1_554 S
Mn397 O402 2.121 . S
Mn397 N404 2.257 . S
Mn397 N413 2.282 . S
Mn397 O421 2.215 1_556 S
Mn397 O423 2.117 . S
C398 O420 1.234 . S
C398 O421 1.283 . S
C399 O411 1.281 . S
C399 O412 1.236 . S
C400 O422 1.240 . S
C400 O423 1.264 . S
O401 Mn396 2.093 1_556 S
O401 C410 1.249 1_556 S
O402 Mn397 2.121 . S
O402 C410 1.256 1_556 S
C403 N404 1.326 1_554 S
C403 C407 1.460 . S
C403 H409 0.929 . S
N404 Mn397 2.257 . S
N404 C403 1.326 1_556 S
N404 C408 1.362 . S
C405 C406 1.283 . S
C405 C408 1.431 . S
C405 C425 1.449 . S
C406 C405 1.283 . S
C406 C407 1.462 1_556 S
C406 H426 0.922 1_556 S
C407 C403 1.460 . S
C407 C406 1.462 1_554 S
C407 H427 0.930 . S
C408 N404 1.362 . S
C408 C405 1.431 . S
C408 C418 1.476 . S
H409 C403 0.929 . S
C410 O401 1.249 1_554 S
C410 O402 1.256 1_554 S
O411 Mn396 2.178 . S
O411 C399 1.281 . S
O412 Mn396 2.331 . S
O412 C399 1.236 . S
N413 Mn397 2.282 . S
N413 C414 1.328 . S
N413 C418 1.318 . S
C414 N413 1.328 . S
C414 C415 1.457 . S
C414 H419 0.929 . S
C415 C414 1.457 . S
C415 C416 1.291 . S
C415 H428 0.931 . S
C416 C415 1.291 . S
C416 C417 1.373 . S
C416 H429 0.929 . S
C417 C416 1.373 . S
C417 C418 1.396 . S
C417 C424 1.403 . S
C418 C408 1.476 . S
C418 N413 1.318 . S
C418 C417 1.396 . S
H419 C414 0.929 . S
O420 Mn396 2.387 . S
O420 C398 1.234 . S
O421 Mn396 2.211 . S
O421 Mn397 2.215 1_554 S
O421 C398 1.283 . S
O422 Mn396 2.061 1_556 S
O422 C400 1.240 . S
O423 Mn397 2.117 . S
O423 C400 1.264 . S
C424 C417 1.403 . S
C424 C425 1.399 . S
C424 H430 0.929 . S
C425 C405 1.449 . S
C425 C424 1.399 . S
C425 H431 0.930 . S
H426 C406 0.922 1_554 S
H427 C407 0.930 . S
H428 C415 0.931 . S
H429 C416 0.929 . S
H430 C424 0.929 . S
H431 C425 0.930 . S
C432 C433 1.349 . S
C432 C434 1.327 . S
C432 H457 0.950 . S
C433 C432 1.349 . S
C433 C449 1.349 . S
C434 C432 1.327 . S
C434 C453 1.429 . S
C434 H458 0.950 . S
C435 C452 1.574 . S
C435 C454 1.368 . S
C435 H459 0.949 . S
H436 C440 0.949 . S
C437 C438 1.349 . S
C437 C439 1.327 . S
C437 H460 0.950 . S
C438 C437 1.349 . S
C438 C450 1.349 . S
C439 C437 1.327 . S
C439 C455 1.429 . S
C439 H461 0.950 . S
C440 H436 0.949 . S
C440 C448 1.574 . S
C440 C456 1.368 . S
H441 C449 0.950 . S
H442 C447 0.950 . S
H443 C448 0.949 . S
H444 C450 0.950 . S
H445 C451 0.950 . S
H446 C452 0.949 . S
C447 H442 0.950 . S
C447 C449 1.327 . S
C447 C453 1.429 . S
C448 C440 1.574 . S
C448 H443 0.949 . S
C448 C454 1.368 . S
C449 C433 1.349 . S
C449 H441 0.950 . S
C449 C447 1.327 . S
C450 C438 1.349 . S
C450 H444 0.950 . S
C450 C451 1.327 . S
C451 H445 0.950 . S
C451 C450 1.327 . S
C451 C455 1.429 . S
C452 C435 1.574 . S
C452 H446 0.949 . S
C452 C456 1.368 . S
C453 C434 1.429 . S
C453 C447 1.429 . S
C453 C454 1.523 . S
C454 C435 1.368 . S
C454 C448 1.368 . S
C454 C453 1.523 . S
C455 C439 1.429 . S
C455 C451 1.429 . S
C455 C456 1.523 . S
C456 C440 1.368 . S
C456 C452 1.368 . S
C456 C455 1.523 . S
H457 C432 0.950 . S
H458 C434 0.950 . S
H459 C435 0.949 . S
H460 C437 0.950 . S
H461 C439 0.950 . S
C462 C463 1.349 . S
C462 C464 1.327 . S
C462 H487 0.950 . S
C463 C462 1.349 . S
C463 C479 1.349 . S
C464 C462 1.327 . S
C464 C483 1.429 . S
C464 H488 0.950 . S
C465 C482 1.574 . S
C465 C484 1.368 . S
C465 H489 0.949 . S
H466 C470 0.949 . S
C467 C468 1.349 . S
C467 C469 1.327 . S
C467 H490 0.950 . S
C468 C467 1.349 . S
C468 C480 1.349 . S
C469 C467 1.327 . S
C469 C485 1.429 . S
C469 H491 0.950 . S
C470 H466 0.949 . S
C470 C478 1.574 . S
C470 C486 1.368 . S
H471 C479 0.950 . S
H472 C477 0.950 . S
H473 C478 0.949 . S
H474 C480 0.950 . S
H475 C481 0.950 . S
H476 C482 0.949 . S
C477 H472 0.950 . S
C477 C479 1.327 . S
C477 C483 1.429 . S
C478 C470 1.574 . S
C478 H473 0.949 . S
C478 C484 1.368 . S
C479 C463 1.349 . S
C479 H471 0.950 . S
C479 C477 1.327 . S
C480 C468 1.349 . S
C480 H474 0.950 . S
C480 C481 1.327 . S
C481 H475 0.950 . S
C481 C480 1.327 . S
C481 C485 1.429 . S
C482 C465 1.574 . S
C482 H476 0.949 . S
C482 C486 1.368 . S
C483 C464 1.429 . S
C483 C477 1.429 . S
C483 C484 1.523 . S
C484 C465 1.368 . S
C484 C478 1.368 . S
C484 C483 1.523 . S
C485 C469 1.429 . S
C485 C481 1.429 . S
C485 C486 1.523 . S
C486 C470 1.368 . S
C486 C482 1.368 . S
C486 C485 1.523 . S
H487 C462 0.950 . S
H488 C464 0.950 . S
H489 C465 0.949 . S
H490 C467 0.950 . S
H491 C469 0.950 . S
C492 C493 1.349 1_554 S
C492 C494 1.327 . S
C492 H517 0.950 . S
C493 C492 1.349 1_556 S
C493 C509 1.349 . S
C494 C492 1.327 . S
C494 C513 1.429 1_554 S
C494 H518 0.950 . S
C495 C512 1.574 . S
C495 C514 1.368 . S
C495 H519 0.949 . S
H496 C500 0.949 . S
C497 C498 1.349 1_556 S
C497 C499 1.327 . S
C497 H520 0.950 . S
C498 C497 1.349 1_554 S
C498 C510 1.349 . S
C499 C497 1.327 . S
C499 C515 1.429 1_556 S
C499 H521 0.950 . S
C500 H496 0.949 . S
C500 C508 1.574 . S
C500 C516 1.368 . S
H501 C509 0.950 . S
H502 C507 0.950 . S
H503 C508 0.949 . S
H504 C510 0.950 . S
H505 C511 0.950 . S
H506 C512 0.949 . S
C507 H502 0.950 . S
C507 C509 1.327 . S
C507 C513 1.429 . S
C508 C500 1.574 . S
C508 H503 0.949 . S
C508 C514 1.368 1_554 S
C509 C493 1.349 . S
C509 H501 0.950 . S
C509 C507 1.327 . S
C510 C498 1.349 . S
C510 H504 0.950 . S
C510 C511 1.327 . S
C511 H505 0.950 . S
C511 C510 1.327 . S
C511 C515 1.429 . S
C512 C495 1.574 . S
C512 H506 0.949 . S
C512 C516 1.368 1_556 S
C513 C494 1.429 1_556 S
C513 C507 1.429 . S
C513 C514 1.523 . S
C514 C495 1.368 . S
C514 C508 1.368 1_556 S
C514 C513 1.523 . S
C515 C499 1.429 1_554 S
C515 C511 1.429 . S
C515 C516 1.523 . S
C516 C500 1.368 . S
C516 C512 1.368 1_554 S
C516 C515 1.523 . S
H517 C492 0.950 . S
H518 C494 0.950 . S
H519 C495 0.949 . S
H520 C497 0.950 . S
H521 C499 0.950 . S
C522 C523 1.349 . S
C522 C524 1.327 . S
C522 H547 0.950 . S
C523 C522 1.349 . S
C523 C539 1.349 . S
C524 C522 1.327 . S
C524 C543 1.429 . S
C524 H548 0.950 . S
C525 C542 1.574 . S
C525 C544 1.368 . S
C525 H549 0.949 . S
H526 C530 0.949 . S
C527 C528 1.349 . S
C527 C529 1.327 . S
C527 H550 0.950 . S
C528 C527 1.349 . S
C528 C540 1.349 . S
C529 C527 1.327 . S
C529 C545 1.429 . S
C529 H551 0.950 . S
C530 H526 0.949 . S
C530 C538 1.574 . S
C530 C546 1.368 . S
H531 C539 0.950 . S
H532 C537 0.950 . S
H533 C538 0.949 . S
H534 C540 0.950 . S
H535 C541 0.950 . S
H536 C542 0.949 . S
C537 H532 0.950 . S
C537 C539 1.327 . S
C537 C543 1.429 . S
C538 C530 1.574 . S
C538 H533 0.949 . S
C538 C544 1.368 . S
C539 C523 1.349 . S
C539 H531 0.950 . S
C539 C537 1.327 . S
C540 C528 1.349 . S
C540 H534 0.950 . S
C540 C541 1.327 . S
C541 H535 0.950 . S
C541 C540 1.327 . S
C541 C545 1.429 . S
C542 C525 1.574 . S
C542 H536 0.949 . S
C542 C546 1.368 . S
C543 C524 1.429 . S
C543 C537 1.429 . S
C543 C544 1.523 . S
C544 C525 1.368 . S
C544 C538 1.368 . S
C544 C543 1.523 . S
C545 C529 1.429 . S
C545 C541 1.429 . S
C545 C546 1.523 . S
C546 C530 1.368 . S
C546 C542 1.368 . S
C546 C545 1.523 . S
H547 C522 0.950 . S
H548 C524 0.950 . S
H549 C525 0.949 . S
H550 C527 0.950 . S
H551 C529 0.950 . S
C552 C553 1.349 . S
C552 C554 1.327 . S
C552 H577 0.950 . S
C553 C552 1.349 . S
C553 C569 1.349 . S
C554 C552 1.327 . S
C554 C573 1.429 . S
C554 H578 0.950 . S
C555 C572 1.574 . S
C555 C574 1.368 . S
C555 H579 0.949 . S
H556 C560 0.949 . S
C557 C558 1.349 . S
C557 C559 1.327 . S
C557 H580 0.950 . S
C558 C557 1.349 . S
C558 C570 1.349 . S
C559 C557 1.327 . S
C559 C575 1.429 . S
C559 H581 0.950 . S
C560 H556 0.949 . S
C560 C568 1.574 . S
C560 C576 1.368 . S
H561 C569 0.950 . S
H562 C567 0.950 . S
H563 C568 0.949 . S
H564 C570 0.950 . S
H565 C571 0.950 . S
H566 C572 0.949 . S
C567 H562 0.950 . S
C567 C569 1.327 . S
C567 C573 1.429 . S
C568 C560 1.574 . S
C568 H563 0.949 . S
C568 C574 1.368 . S
C569 C553 1.349 . S
C569 H561 0.950 . S
C569 C567 1.327 . S
C570 C558 1.349 . S
C570 H564 0.950 . S
C570 C571 1.327 . S
C571 H565 0.950 . S
C571 C570 1.327 . S
C571 C575 1.429 . S
C572 C555 1.574 . S
C572 H566 0.949 . S
C572 C576 1.368 . S
C573 C554 1.429 . S
C573 C567 1.429 . S
C573 C574 1.523 . S
C574 C555 1.368 . S
C574 C568 1.368 . S
C574 C573 1.523 . S
C575 C559 1.429 . S
C575 C571 1.429 . S
C575 C576 1.523 . S
C576 C560 1.368 . S
C576 C572 1.368 . S
C576 C575 1.523 . S
H577 C552 0.950 . S
H578 C554 0.950 . S
H579 C555 0.949 . S
H580 C557 0.950 . S
H581 C559 0.950 . S
C582 C583 1.349 1_556 S
C582 C584 1.327 . S
C582 H607 0.950 . S
C583 C582 1.349 1_554 S
C583 C599 1.349 . S
C584 C582 1.327 . S
C584 C603 1.429 1_556 S
C584 H608 0.950 . S
C585 C602 1.574 . S
C585 C604 1.368 . S
C585 H609 0.949 . S
H586 C590 0.949 . S
C587 C588 1.349 1_554 S
C587 C589 1.327 . S
C587 H610 0.950 . S
C588 C587 1.349 1_556 S
C588 C600 1.349 . S
C589 C587 1.327 . S
C589 C605 1.429 1_554 S
C589 H611 0.950 . S
C590 H586 0.949 . S
C590 C598 1.574 . S
C590 C606 1.368 . S
H591 C599 0.950 . S
H592 C597 0.950 . S
H593 C598 0.949 . S
H594 C600 0.950 . S
H595 C601 0.950 . S
H596 C602 0.949 . S
C597 H592 0.950 . S
C597 C599 1.327 . S
C597 C603 1.429 . S
C598 C590 1.574 . S
C598 H593 0.949 . S
C598 C604 1.368 1_556 S
C599 C583 1.349 . S
C599 H591 0.950 . S
C599 C597 1.327 . S
C600 C588 1.349 . S
C600 H594 0.950 . S
C600 C601 1.327 . S
C601 H595 0.950 . S
C601 C600 1.327 . S
C601 C605 1.429 . S
C602 C585 1.574 . S
C602 H596 0.949 . S
C602 C606 1.368 1_554 S
C603 C584 1.429 1_554 S
C603 C597 1.429 . S
C603 C604 1.523 . S
C604 C585 1.368 . S
C604 C598 1.368 1_554 S
C604 C603 1.523 . S
C605 C589 1.429 1_556 S
C605 C601 1.429 . S
C605 C606 1.523 . S
C606 C590 1.368 . S
C606 C602 1.368 1_556 S
C606 C605 1.523 . S
H607 C582 0.950 . S
H608 C584 0.950 . S
H609 C585 0.949 . S
H610 C587 0.950 . S
H611 C589 0.950 . S
C612 C613 1.349 . S
C612 C614 1.327 . S
C612 H637 0.950 . S
C613 C612 1.349 . S
C613 C629 1.349 . S
C614 C612 1.327 . S
C614 C633 1.429 . S
C614 H638 0.950 . S
C615 C632 1.574 . S
C615 C634 1.368 . S
C615 H639 0.949 . S
H616 C620 0.949 . S
C617 C618 1.349 . S
C617 C619 1.327 . S
C617 H640 0.950 . S
C618 C617 1.349 . S
C618 C630 1.349 . S
C619 C617 1.327 . S
C619 C635 1.429 . S
C619 H641 0.950 . S
C620 H616 0.949 . S
C620 C628 1.574 . S
C620 C636 1.368 . S
H621 C629 0.950 . S
H622 C627 0.950 . S
H623 C628 0.949 . S
H624 C630 0.950 . S
H625 C631 0.950 . S
H626 C632 0.949 . S
C627 H622 0.950 . S
C627 C629 1.327 . S
C627 C633 1.429 . S
C628 C620 1.574 . S
C628 H623 0.949 . S
C628 C634 1.368 . S
C629 C613 1.349 . S
C629 H621 0.950 . S
C629 C627 1.327 . S
C630 C618 1.349 . S
C630 H624 0.950 . S
C630 C631 1.327 . S
C631 H625 0.950 . S
C631 C630 1.327 . S
C631 C635 1.429 . S
C632 C615 1.574 . S
C632 H626 0.949 . S
C632 C636 1.368 . S
C633 C614 1.429 . S
C633 C627 1.429 . S
C633 C634 1.523 . S
C634 C615 1.368 . S
C634 C628 1.368 . S
C634 C633 1.523 . S
C635 C619 1.429 . S
C635 C631 1.429 . S
C635 C636 1.523 . S
C636 C620 1.368 . S
C636 C632 1.368 . S
C636 C635 1.523 . S
H637 C612 0.950 . S
H638 C614 0.950 . S
H639 C615 0.949 . S
H640 C617 0.950 . S
H641 C619 0.950 . S
C642 C643 1.349 . S
C642 C644 1.327 . S
C642 H667 0.950 . S
C643 C642 1.349 . S
C643 C659 1.349 . S
C644 C642 1.327 . S
C644 C663 1.429 . S
C644 H668 0.950 . S
C645 C662 1.574 1_655 S
C645 C664 1.368 . S
C645 H669 0.949 . S
H646 C650 0.949 . S
C647 C648 1.349 . S
C647 C649 1.327 . S
C647 H670 0.950 . S
C648 C647 1.349 . S
C648 C660 1.349 . S
C649 C647 1.327 . S
C649 C665 1.429 . S
C649 H671 0.950 . S
C650 H646 0.949 . S
C650 C658 1.574 1_455 S
C650 C666 1.368 . S
H651 C659 0.950 . S
H652 C657 0.950 . S
H653 C658 0.949 . S
H654 C660 0.950 . S
H655 C661 0.950 . S
H656 C662 0.949 . S
C657 H652 0.950 . S
C657 C659 1.327 . S
C657 C663 1.429 . S
C658 C650 1.574 1_655 S
C658 H653 0.949 . S
C658 C664 1.368 . S
C659 C643 1.349 . S
C659 H651 0.950 . S
C659 C657 1.327 . S
C660 C648 1.349 . S
C660 H654 0.950 . S
C660 C661 1.327 . S
C661 H655 0.950 . S
C661 C660 1.327 . S
C661 C665 1.429 . S
C662 C645 1.574 1_455 S
C662 H656 0.949 . S
C662 C666 1.368 . S
C663 C644 1.429 . S
C663 C657 1.429 . S
C663 C664 1.523 . S
C664 C645 1.368 . S
C664 C658 1.368 . S
C664 C663 1.523 . S
C665 C649 1.429 . S
C665 C661 1.429 . S
C665 C666 1.523 . S
C666 C650 1.368 . S
C666 C662 1.368 . S
C666 C665 1.523 . S
H667 C642 0.950 . S
H668 C644 0.950 . S
H669 C645 0.949 . S
H670 C647 0.950 . S
H671 C649 0.950 . S
C672 C673 1.349 1_556 S
C672 C674 1.327 . S
C672 H697 0.950 . S
C673 C672 1.349 1_554 S
C673 C689 1.349 . S
C674 C672 1.327 . S
C674 C693 1.429 1_556 S
C674 H698 0.950 . S
C675 C692 1.574 1_545 S
C675 C694 1.368 . S
C675 H699 0.949 . S
H676 C680 0.949 . S
C677 C678 1.349 1_554 S
C677 C679 1.327 . S
C677 H700 0.950 . S
C678 C677 1.349 1_556 S
C678 C690 1.349 . S
C679 C677 1.327 . S
C679 C695 1.429 1_554 S
C679 H701 0.950 . S
C680 H676 0.949 . S
C680 C688 1.574 1_565 S
C680 C696 1.368 . S
H681 C689 0.950 . S
H682 C687 0.950 . S
H683 C688 0.949 . S
H684 C690 0.950 . S
H685 C691 0.950 . S
H686 C692 0.949 . S
C687 H682 0.950 . S
C687 C689 1.327 . S
C687 C693 1.429 . S
C688 C680 1.574 1_545 S
C688 H683 0.949 . S
C688 C694 1.368 1_556 S
C689 C673 1.349 . S
C689 H681 0.950 . S
C689 C687 1.327 . S
C690 C678 1.349 . S
C690 H684 0.950 . S
C690 C691 1.327 . S
C691 H685 0.950 . S
C691 C690 1.327 . S
C691 C695 1.429 . S
C692 C675 1.574 1_565 S
C692 H686 0.949 . S
C692 C696 1.368 1_554 S
C693 C674 1.429 1_554 S
C693 C687 1.429 . S
C693 C694 1.523 . S
C694 C675 1.368 . S
C694 C688 1.368 1_554 S
C694 C693 1.523 . S
C695 C679 1.429 1_556 S
C695 C691 1.429 . S
C695 C696 1.523 . S
C696 C680 1.368 . S
C696 C692 1.368 1_556 S
C696 C695 1.523 . S
H697 C672 0.950 . S
H698 C674 0.950 . S
H699 C675 0.949 . S
H700 C677 0.950 . S
H701 C679 0.950 . S
C702 C703 1.349 . S
C702 C704 1.327 . S
C702 H727 0.950 . S
C703 C702 1.349 . S
C703 C719 1.349 . S
C704 C702 1.327 . S
C704 C723 1.429 . S
C704 H728 0.950 . S
C705 C722 1.574 . S
C705 C724 1.368 . S
C705 H729 0.949 . S
H706 C710 0.949 . S
C707 C708 1.349 . S
C707 C709 1.327 . S
C707 H730 0.950 . S
C708 C707 1.349 . S
C708 C720 1.349 . S
C709 C707 1.327 . S
C709 C725 1.429 . S
C709 H731 0.950 . S
C710 H706 0.949 . S
C710 C718 1.574 . S
C710 C726 1.368 . S
H711 C719 0.950 . S
H712 C717 0.950 . S
H713 C718 0.949 . S
H714 C720 0.950 . S
H715 C721 0.950 . S
H716 C722 0.949 . S
C717 H712 0.950 . S
C717 C719 1.327 . S
C717 C723 1.429 . S
C718 C710 1.574 . S
C718 H713 0.949 . S
C718 C724 1.368 . S
C719 C703 1.349 . S
C719 H711 0.950 . S
C719 C717 1.327 . S
C720 C708 1.349 . S
C720 H714 0.950 . S
C720 C721 1.327 . S
C721 H715 0.950 . S
C721 C720 1.327 . S
C721 C725 1.429 . S
C722 C705 1.574 . S
C722 H716 0.949 . S
C722 C726 1.368 . S
C723 C704 1.429 . S
C723 C717 1.429 . S
C723 C724 1.523 . S
C724 C705 1.368 . S
C724 C718 1.368 . S
C724 C723 1.523 . S
C725 C709 1.429 . S
C725 C721 1.429 . S
C725 C726 1.523 . S
C726 C710 1.368 . S
C726 C722 1.368 . S
C726 C725 1.523 . S
H727 C702 0.950 . S
H728 C704 0.950 . S
H729 C705 0.949 . S
H730 C707 0.950 . S
H731 C709 0.950 . S
C732 C733 1.349 . S
C732 C734 1.327 . S
C732 H757 0.950 . S
C733 C732 1.349 . S
C733 C749 1.349 . S
C734 C732 1.327 . S
C734 C753 1.429 . S
C734 H758 0.950 . S
C735 C752 1.574 1_455 S
C735 C754 1.368 . S
C735 H759 0.949 . S
H736 C740 0.949 . S
C737 C738 1.349 . S
C737 C739 1.327 . S
C737 H760 0.950 . S
C738 C737 1.349 . S
C738 C750 1.349 . S
C739 C737 1.327 . S
C739 C755 1.429 . S
C739 H761 0.950 . S
C740 H736 0.949 . S
C740 C748 1.574 1_655 S
C740 C756 1.368 . S
H741 C749 0.950 . S
H742 C747 0.950 . S
H743 C748 0.949 . S
H744 C750 0.950 . S
H745 C751 0.950 . S
H746 C752 0.949 . S
C747 H742 0.950 . S
C747 C749 1.327 . S
C747 C753 1.429 . S
C748 C740 1.574 1_455 S
C748 H743 0.949 . S
C748 C754 1.368 . S
C749 C733 1.349 . S
C749 H741 0.950 . S
C749 C747 1.327 . S
C750 C738 1.349 . S
C750 H744 0.950 . S
C750 C751 1.327 . S
C751 H745 0.950 . S
C751 C750 1.327 . S
C751 C755 1.429 . S
C752 C735 1.574 1_655 S
C752 H746 0.949 . S
C752 C756 1.368 . S
C753 C734 1.429 . S
C753 C747 1.429 . S
C753 C754 1.523 . S
C754 C735 1.368 . S
C754 C748 1.368 . S
C754 C753 1.523 . S
C755 C739 1.429 . S
C755 C751 1.429 . S
C755 C756 1.523 . S
C756 C740 1.368 . S
C756 C752 1.368 . S
C756 C755 1.523 . S
H757 C732 0.950 . S
H758 C734 0.950 . S
H759 C735 0.949 . S
H760 C737 0.950 . S
H761 C739 0.950 . S
C762 C763 1.349 1_554 S
C762 C764 1.327 . S
C762 H787 0.950 . S
C763 C762 1.349 1_556 S
C763 C779 1.349 . S
C764 C762 1.327 . S
C764 C783 1.429 1_554 S
C764 H788 0.950 . S
C765 C782 1.574 1_545 S
C765 C784 1.368 . S
C765 H789 0.949 . S
H766 C770 0.949 . S
C767 C768 1.349 1_556 S
C767 C769 1.327 . S
C767 H790 0.950 . S
C768 C767 1.349 1_554 S
C768 C780 1.349 . S
C769 C767 1.327 . S
C769 C785 1.429 1_556 S
C769 H791 0.950 . S
C770 H766 0.949 . S
C770 C778 1.574 1_565 S
C770 C786 1.368 . S
H771 C779 0.950 . S
H772 C777 0.950 . S
H773 C778 0.949 . S
H774 C780 0.950 . S
H775 C781 0.950 . S
H776 C782 0.949 . S
C777 H772 0.950 . S
C777 C779 1.327 . S
C777 C783 1.429 . S
C778 C770 1.574 1_545 S
C778 H773 0.949 . S
C778 C784 1.368 1_554 S
C779 C763 1.349 . S
C779 H771 0.950 . S
C779 C777 1.327 . S
C780 C768 1.349 . S
C780 H774 0.950 . S
C780 C781 1.327 . S
C781 H775 0.950 . S
C781 C780 1.327 . S
C781 C785 1.429 . S
C782 C765 1.574 1_565 S
C782 H776 0.949 . S
C782 C786 1.368 1_556 S
C783 C764 1.429 1_556 S
C783 C777 1.429 . S
C783 C784 1.523 . S
C784 C765 1.368 . S
C784 C778 1.368 1_556 S
C784 C783 1.523 . S
C785 C769 1.429 1_554 S
C785 C781 1.429 . S
C785 C786 1.523 . S
C786 C770 1.368 . S
C786 C782 1.368 1_554 S
C786 C785 1.523 . S
H787 C762 0.950 . S
H788 C764 0.950 . S
H789 C765 0.949 . S
H790 C767 0.950 . S
H791 C769 0.950 . S
C792 C793 1.349 . S
C792 C794 1.327 . S
C792 H817 0.950 . S
C793 C792 1.349 . S
C793 C809 1.349 . S
C794 C792 1.327 . S
C794 C813 1.429 . S
C794 H818 0.950 . S
C795 C812 1.574 . S
C795 C814 1.368 . S
C795 H819 0.949 . S
H796 C800 0.949 . S
C797 C798 1.349 . S
C797 C799 1.327 . S
C797 H820 0.950 . S
C798 C797 1.349 . S
C798 C810 1.349 . S
C799 C797 1.327 . S
C799 C815 1.429 . S
C799 H821 0.950 . S
C800 H796 0.949 . S
C800 C808 1.574 1_455 S
C800 C816 1.368 . S
H801 C809 0.950 . S
H802 C807 0.950 . S
H803 C808 0.949 . S
H804 C810 0.950 . S
H805 C811 0.950 . S
H806 C812 0.949 . S
C807 H802 0.950 . S
C807 C809 1.327 . S
C807 C813 1.429 . S
C808 C800 1.574 1_655 S
C808 H803 0.949 . S
C808 C814 1.368 . S
C809 C793 1.349 . S
C809 H801 0.950 . S
C809 C807 1.327 . S
C810 C798 1.349 . S
C810 H804 0.950 . S
C810 C811 1.327 . S
C811 H805 0.950 . S
C811 C810 1.327 . S
C811 C815 1.429 . S
C812 C795 1.574 . S
C812 H806 0.949 . S
C812 C816 1.368 1_655 S
C813 C794 1.429 . S
C813 C807 1.429 . S
C813 C814 1.523 . S
C814 C795 1.368 . S
C814 C808 1.368 . S
C814 C813 1.523 . S
C815 C799 1.429 . S
C815 C811 1.429 . S
C815 C816 1.523 . S
C816 C800 1.368 . S
C816 C812 1.368 1_455 S
C816 C815 1.523 . S
H817 C792 0.950 . S
H818 C794 0.950 . S
H819 C795 0.949 . S
H820 C797 0.950 . S
H821 C799 0.950 . S
C822 C823 1.349 . S
C822 C824 1.327 . S
C822 H847 0.950 . S
C823 C822 1.349 . S
C823 C839 1.349 . S
C824 C822 1.327 . S
C824 C843 1.429 . S
C824 H848 0.950 1_545 S
C825 C842 1.574 . S
C825 C844 1.368 . S
C825 H849 0.949 . S
H826 C830 0.949 . S
C827 C828 1.349 . S
C827 C829 1.327 . S
C827 H850 0.950 . S
C828 C827 1.349 . S
C828 C840 1.349 . S
C829 C827 1.327 . S
C829 C845 1.429 . S
C829 H851 0.950 1_565 S
C830 H826 0.949 . S
C830 C838 1.574 . S
C830 C846 1.368 . S
H831 C839 0.950 . S
H832 C837 0.950 . S
H833 C838 0.949 . S
H834 C840 0.950 . S
H835 C841 0.950 . S
H836 C842 0.949 . S
C837 H832 0.950 . S
C837 C839 1.327 . S
C837 C843 1.429 . S
C838 C830 1.574 . S
C838 H833 0.949 . S
C838 C844 1.368 1_565 S
C839 C823 1.349 . S
C839 H831 0.950 . S
C839 C837 1.327 . S
C840 C828 1.349 . S
C840 H834 0.950 . S
C840 C841 1.327 . S
C841 H835 0.950 . S
C841 C840 1.327 . S
C841 C845 1.429 . S
C842 C825 1.574 . S
C842 H836 0.949 . S
C842 C846 1.368 1_545 S
C843 C824 1.429 . S
C843 C837 1.429 . S
C843 C844 1.523 . S
C844 C825 1.368 . S
C844 C838 1.368 1_545 S
C844 C843 1.523 . S
C845 C829 1.429 . S
C845 C841 1.429 . S
C845 C846 1.523 . S
C846 C830 1.368 . S
C846 C842 1.368 1_565 S
C846 C845 1.523 . S
H847 C822 0.950 . S
H848 C824 0.950 1_565 S
H849 C825 0.949 . S
H850 C827 0.950 . S
H851 C829 0.950 1_545 S
C852 C853 1.349 . S
C852 C854 1.327 . S
C852 H877 0.950 . S
C853 C852 1.349 . S
C853 C869 1.349 . S
C854 C852 1.327 . S
C854 C873 1.429 . S
C854 H878 0.950 . S
C855 C872 1.574 . S
C855 C874 1.368 . S
C855 H879 0.949 . S
H856 C860 0.949 . S
C857 C858 1.349 . S
C857 C859 1.327 . S
C857 H880 0.950 . S
C858 C857 1.349 . S
C858 C870 1.349 . S
C859 C857 1.327 . S
C859 C875 1.429 . S
C859 H881 0.950 . S
C860 H856 0.949 . S
C860 C868 1.574 . S
C860 C876 1.368 . S
H861 C869 0.950 . S
H862 C867 0.950 . S
H863 C868 0.949 . S
H864 C870 0.950 . S
H865 C871 0.950 . S
H866 C872 0.949 . S
C867 H862 0.950 . S
C867 C869 1.327 . S
C867 C873 1.429 . S
C868 C860 1.574 . S
C868 H863 0.949 . S
C868 C874 1.368 . S
C869 C853 1.349 . S
C869 H861 0.950 . S
C869 C867 1.327 . S
C870 C858 1.349 . S
C870 H864 0.950 . S
C870 C871 1.327 . S
C871 H865 0.950 . S
C871 C870 1.327 . S
C871 C875 1.429 . S
C872 C855 1.574 . S
C872 H866 0.949 . S
C872 C876 1.368 . S
C873 C854 1.429 . S
C873 C867 1.429 . S
C873 C874 1.523 . S
C874 C855 1.368 . S
C874 C868 1.368 . S
C874 C873 1.523 . S
C875 C859 1.429 . S
C875 C871 1.429 . S
C875 C876 1.523 . S
C876 C860 1.368 . S
C876 C872 1.368 . S
C876 C875 1.523 . S
H877 C852 0.950 . S
H878 C854 0.950 . S
H879 C855 0.949 . S
H880 C857 0.950 . S
H881 C859 0.950 . S
C882 C883 1.349 . S
C882 C884 1.327 . S
C882 H907 0.950 . S
C883 C882 1.349 . S
C883 C899 1.349 . S
C884 C882 1.327 . S
C884 C903 1.429 . S
C884 H908 0.950 . S
C885 C902 1.574 1_455 S
C885 C904 1.368 . S
C885 H909 0.949 . S
H886 C890 0.949 . S
C887 C888 1.349 . S
C887 C889 1.327 . S
C887 H910 0.950 . S
C888 C887 1.349 . S
C888 C900 1.349 . S
C889 C887 1.327 . S
C889 C905 1.429 . S
C889 H911 0.950 . S
C890 H886 0.949 . S
C890 C898 1.574 1_655 S
C890 C906 1.368 . S
H891 C899 0.950 . S
H892 C897 0.950 . S
H893 C898 0.949 . S
H894 C900 0.950 . S
H895 C901 0.950 . S
H896 C902 0.949 . S
C897 H892 0.950 . S
C897 C899 1.327 . S
C897 C903 1.429 . S
C898 C890 1.574 1_455 S
C898 H893 0.949 . S
C898 C904 1.368 . S
C899 C883 1.349 . S
C899 H891 0.950 . S
C899 C897 1.327 . S
C900 C888 1.349 . S
C900 H894 0.950 . S
C900 C901 1.327 . S
C901 H895 0.950 . S
C901 C900 1.327 . S
C901 C905 1.429 . S
C902 C885 1.574 1_655 S
C902 H896 0.949 . S
C902 C906 1.368 . S
C903 C884 1.429 . S
C903 C897 1.429 . S
C903 C904 1.523 . S
C904 C885 1.368 . S
C904 C898 1.368 . S
C904 C903 1.523 . S
C905 C889 1.429 . S
C905 C901 1.429 . S
C905 C906 1.523 . S
C906 C890 1.368 . S
C906 C902 1.368 . S
C906 C905 1.523 . S
H907 C882 0.950 . S
H908 C884 0.950 . S
H909 C885 0.949 . S
H910 C887 0.950 . S
H911 C889 0.950 . S
C912 C913 1.349 . S
C912 C914 1.327 . S
C912 H937 0.950 . S
C913 C912 1.349 . S
C913 C929 1.349 . S
C914 C912 1.327 . S
C914 C933 1.429 . S
C914 H938 0.950 . S
C915 C932 1.574 . S
C915 C934 1.368 1_565 S
C915 H939 0.949 . S
H916 C920 0.949 . S
C917 C918 1.349 . S
C917 C919 1.327 . S
C917 H940 0.950 . S
C918 C917 1.349 . S
C918 C930 1.349 . S
C919 C917 1.327 . S
C919 C935 1.429 . S
C919 H941 0.950 . S
C920 H916 0.949 . S
C920 C928 1.574 . S
C920 C936 1.368 1_545 S
H921 C929 0.950 . S
H922 C927 0.950 1_565 S
H923 C928 0.949 . S
H924 C930 0.950 . S
H925 C931 0.950 1_545 S
H926 C932 0.949 . S
C927 H922 0.950 1_545 S
C927 C929 1.327 . S
C927 C933 1.429 . S
C928 C920 1.574 . S
C928 H923 0.949 . S
C928 C934 1.368 . S
C929 C913 1.349 . S
C929 H921 0.950 . S
C929 C927 1.327 . S
C930 C918 1.349 . S
C930 H924 0.950 . S
C930 C931 1.327 . S
C931 H925 0.950 1_565 S
C931 C930 1.327 . S
C931 C935 1.429 . S
C932 C915 1.574 . S
C932 H926 0.949 . S
C932 C936 1.368 . S
C933 C914 1.429 . S
C933 C927 1.429 . S
C933 C934 1.523 . S
C934 C915 1.368 1_545 S
C934 C928 1.368 . S
C934 C933 1.523 . S
C935 C919 1.429 . S
C935 C931 1.429 . S
C935 C936 1.523 . S
C936 C920 1.368 1_565 S
C936 C932 1.368 . S
C936 C935 1.523 . S
H937 C912 0.950 . S
H938 C914 0.950 . S
H939 C915 0.949 . S
H940 C917 0.950 . S
H941 C919 0.950 . S
C942 C943 1.349 . S
C942 C944 1.327 . S
C942 H967 0.950 . S
C943 C942 1.349 . S
C943 C959 1.349 . S
C944 C942 1.327 . S
C944 C963 1.429 . S
C944 H968 0.950 . S
C945 C962 1.574 . S
C945 C964 1.368 . S
C945 H969 0.949 . S
H946 C950 0.949 . S
C947 C948 1.349 . S
C947 C949 1.327 . S
C947 H970 0.950 . S
C948 C947 1.349 . S
C948 C960 1.349 . S
C949 C947 1.327 . S
C949 C965 1.429 . S
C949 H971 0.950 . S
C950 H946 0.949 . S
C950 C958 1.574 . S
C950 C966 1.368 . S
H951 C959 0.950 . S
H952 C957 0.950 . S
H953 C958 0.949 . S
H954 C960 0.950 . S
H955 C961 0.950 . S
H956 C962 0.949 . S
C957 H952 0.950 . S
C957 C959 1.327 . S
C957 C963 1.429 . S
C958 C950 1.574 . S
C958 H953 0.949 . S
C958 C964 1.368 . S
C959 C943 1.349 . S
C959 H951 0.950 . S
C959 C957 1.327 . S
C960 C948 1.349 . S
C960 H954 0.950 . S
C960 C961 1.327 . S
C961 H955 0.950 . S
C961 C960 1.327 . S
C961 C965 1.429 . S
C962 C945 1.574 . S
C962 H956 0.949 . S
C962 C966 1.368 . S
C963 C944 1.429 . S
C963 C957 1.429 . S
C963 C964 1.523 . S
C964 C945 1.368 . S
C964 C958 1.368 . S
C964 C963 1.523 . S
C965 C949 1.429 . S
C965 C961 1.429 . S
C965 C966 1.523 . S
C966 C950 1.368 . S
C966 C962 1.368 . S
C966 C965 1.523 . S
H967 C942 0.950 . S
H968 C944 0.950 . S
H969 C945 0.949 . S
H970 C947 0.950 . S
H971 C949 0.950 . S
C972 C973 1.349 . S
C972 C974 1.327 . S
C972 H997 0.950 . S
C973 C972 1.349 . S
C973 C989 1.349 . S
C974 C972 1.327 . S
C974 C993 1.429 . S
C974 H998 0.950 . S
C975 C992 1.574 . S
C975 C994 1.368 . S
C975 H999 0.949 . S
H976 C980 0.949 . S
C977 C978 1.349 . S
C977 C979 1.327 . S
C977 H1000 0.950 . S
C978 C977 1.349 . S
C978 C990 1.349 . S
C979 C977 1.327 . S
C979 C995 1.429 . S
C979 H1001 0.950 . S
C980 H976 0.949 . S
C980 C988 1.574 . S
C980 C996 1.368 . S
H981 C989 0.950 . S
H982 C987 0.950 . S
H983 C988 0.949 . S
H984 C990 0.950 . S
H985 C991 0.950 . S
H986 C992 0.949 . S
C987 H982 0.950 . S
C987 C989 1.327 . S
C987 C993 1.429 . S
C988 C980 1.574 . S
C988 H983 0.949 . S
C988 C994 1.368 . S
C989 C973 1.349 . S
C989 H981 0.950 . S
C989 C987 1.327 . S
C990 C978 1.349 . S
C990 H984 0.950 . S
C990 C991 1.327 . S
C991 H985 0.950 . S
C991 C990 1.327 . S
C991 C995 1.429 . S
C992 C975 1.574 . S
C992 H986 0.949 . S
C992 C996 1.368 . S
C993 C974 1.429 . S
C993 C987 1.429 . S
C993 C994 1.523 . S
C994 C975 1.368 . S
C994 C988 1.368 . S
C994 C993 1.523 . S
C995 C979 1.429 . S
C995 C991 1.429 . S
C995 C996 1.523 . S
C996 C980 1.368 . S
C996 C992 1.368 . S
C996 C995 1.523 . S
H997 C972 0.950 . S
H998 C974 0.950 . S
H999 C975 0.949 . S
H1000 C977 0.950 . S
H1001 C979 0.950 . S
C1002 C1003 1.349 . S
C1002 C1004 1.327 . S
C1002 H1027 0.950 . S
C1003 C1002 1.349 . S
C1003 C1019 1.349 . S
C1004 C1002 1.327 . S
C1004 C1023 1.429 . S
C1004 H1028 0.950 . S
C1005 C1022 1.574 . S
C1005 C1024 1.368 . S
C1005 H1029 0.949 . S
H1006 C1010 0.949 . S
C1007 C1008 1.349 . S
C1007 C1009 1.327 . S
C1007 H1030 0.950 . S
C1008 C1007 1.349 . S
C1008 C1020 1.349 . S
C1009 C1007 1.327 . S
C1009 C1025 1.429 . S
C1009 H1031 0.950 . S
C1010 H1006 0.949 . S
C1010 C1018 1.574 . S
C1010 C1026 1.368 . S
H1011 C1019 0.950 . S
H1012 C1017 0.950 . S
H1013 C1018 0.949 . S
H1014 C1020 0.950 . S
H1015 C1021 0.950 . S
H1016 C1022 0.949 . S
C1017 H1012 0.950 . S
C1017 C1019 1.327 . S
C1017 C1023 1.429 . S
C1018 C1010 1.574 . S
C1018 H1013 0.949 . S
C1018 C1024 1.368 . S
C1019 C1003 1.349 . S
C1019 H1011 0.950 . S
C1019 C1017 1.327 . S
C1020 C1008 1.349 . S
C1020 H1014 0.950 . S
C1020 C1021 1.327 . S
C1021 H1015 0.950 . S
C1021 C1020 1.327 . S
C1021 C1025 1.429 . S
C1022 C1005 1.574 . S
C1022 H1016 0.949 . S
C1022 C1026 1.368 . S
C1023 C1004 1.429 . S
C1023 C1017 1.429 . S
C1023 C1024 1.523 . S
C1024 C1005 1.368 . S
C1024 C1018 1.368 . S
C1024 C1023 1.523 . S
C1025 C1009 1.429 . S
C1025 C1021 1.429 . S
C1025 C1026 1.523 . S
C1026 C1010 1.368 . S
C1026 C1022 1.368 . S
C1026 C1025 1.523 . S
H1027 C1002 0.950 . S
H1028 C1004 0.950 . S
H1029 C1005 0.949 . S
H1030 C1007 0.950 . S
H1031 C1009 0.950 . S
C1032 C1033 1.349 . S
C1032 C1034 1.327 . S
C1032 H1057 0.950 . S
C1033 C1032 1.349 . S
C1033 C1049 1.349 . S
C1034 C1032 1.327 . S
C1034 C1053 1.429 . S
C1034 H1058 0.950 . S
C1035 C1052 1.574 . S
C1035 C1054 1.368 . S
C1035 H1059 0.949 . S
H1036 C1040 0.949 . S
C1037 C1038 1.349 . S
C1037 C1039 1.327 . S
C1037 H1060 0.950 . S
C1038 C1037 1.349 . S
C1038 C1050 1.349 . S
C1039 C1037 1.327 . S
C1039 C1055 1.429 . S
C1039 H1061 0.950 . S
C1040 H1036 0.949 . S
C1040 C1048 1.574 . S
C1040 C1056 1.368 . S
H1041 C1049 0.950 . S
H1042 C1047 0.950 . S
H1043 C1048 0.949 . S
H1044 C1050 0.950 . S
H1045 C1051 0.950 . S
H1046 C1052 0.949 . S
C1047 H1042 0.950 . S
C1047 C1049 1.327 . S
C1047 C1053 1.429 . S
C1048 C1040 1.574 . S
C1048 H1043 0.949 . S
C1048 C1054 1.368 . S
C1049 C1033 1.349 . S
C1049 H1041 0.950 . S
C1049 C1047 1.327 . S
C1050 C1038 1.349 . S
C1050 H1044 0.950 . S
C1050 C1051 1.327 . S
C1051 H1045 0.950 . S
C1051 C1050 1.327 . S
C1051 C1055 1.429 . S
C1052 C1035 1.574 . S
C1052 H1046 0.949 . S
C1052 C1056 1.368 . S
C1053 C1034 1.429 . S
C1053 C1047 1.429 . S
C1053 C1054 1.523 . S
C1054 C1035 1.368 . S
C1054 C1048 1.368 . S
C1054 C1053 1.523 . S
C1055 C1039 1.429 . S
C1055 C1051 1.429 . S
C1055 C1056 1.523 . S
C1056 C1040 1.368 . S
C1056 C1052 1.368 . S
C1056 C1055 1.523 . S
H1057 C1032 0.950 . S
H1058 C1034 0.950 . S
H1059 C1035 0.949 . S
H1060 C1037 0.950 . S
H1061 C1039 0.950 . S
C1062 C1063 1.349 . S
C1062 C1064 1.327 . S
C1062 H1087 0.950 . S
C1063 C1062 1.349 . S
C1063 C1079 1.349 . S
C1064 C1062 1.327 . S
C1064 C1083 1.429 . S
C1064 H1088 0.950 . S
C1065 C1082 1.574 . S
C1065 C1084 1.368 . S
C1065 H1089 0.949 . S
H1066 C1070 0.949 . S
C1067 C1068 1.349 . S
C1067 C1069 1.327 . S
C1067 H1090 0.950 . S
C1068 C1067 1.349 . S
C1068 C1080 1.349 . S
C1069 C1067 1.327 . S
C1069 C1085 1.429 . S
C1069 H1091 0.950 . S
C1070 H1066 0.949 . S
C1070 C1078 1.574 . S
C1070 C1086 1.368 . S
H1071 C1079 0.950 . S
H1072 C1077 0.950 . S
H1073 C1078 0.949 . S
H1074 C1080 0.950 . S
H1075 C1081 0.950 . S
H1076 C1082 0.949 . S
C1077 H1072 0.950 . S
C1077 C1079 1.327 . S
C1077 C1083 1.429 . S
C1078 C1070 1.574 . S
C1078 H1073 0.949 . S
C1078 C1084 1.368 . S
C1079 C1063 1.349 . S
C1079 H1071 0.950 . S
C1079 C1077 1.327 . S
C1080 C1068 1.349 . S
C1080 H1074 0.950 . S
C1080 C1081 1.327 . S
C1081 H1075 0.950 . S
C1081 C1080 1.327 . S
C1081 C1085 1.429 . S
C1082 C1065 1.574 . S
C1082 H1076 0.949 . S
C1082 C1086 1.368 . S
C1083 C1064 1.429 . S
C1083 C1077 1.429 . S
C1083 C1084 1.523 . S
C1084 C1065 1.368 . S
C1084 C1078 1.368 . S
C1084 C1083 1.523 . S
C1085 C1069 1.429 . S
C1085 C1081 1.429 . S
C1085 C1086 1.523 . S
C1086 C1070 1.368 . S
C1086 C1082 1.368 . S
C1086 C1085 1.523 . S
H1087 C1062 0.950 . S
H1088 C1064 0.950 . S
H1089 C1065 0.949 . S
H1090 C1067 0.950 . S
H1091 C1069 0.950 . S
C1092 C1093 1.349 . S
C1092 C1094 1.327 . S
C1092 H1117 0.950 . S
C1093 C1092 1.349 . S
C1093 C1109 1.349 . S
C1094 C1092 1.327 . S
C1094 C1113 1.429 . S
C1094 H1118 0.950 . S
C1095 C1112 1.574 . S
C1095 C1114 1.368 . S
C1095 H1119 0.949 . S
H1096 C1100 0.949 . S
C1097 C1098 1.349 . S
C1097 C1099 1.327 . S
C1097 H1120 0.950 . S
C1098 C1097 1.349 . S
C1098 C1110 1.349 . S
C1099 C1097 1.327 . S
C1099 C1115 1.429 . S
C1099 H1121 0.950 . S
C1100 H1096 0.949 . S
C1100 C1108 1.574 . S
C1100 C1116 1.368 . S
H1101 C1109 0.950 . S
H1102 C1107 0.950 . S
H1103 C1108 0.949 . S
H1104 C1110 0.950 . S
H1105 C1111 0.950 . S
H1106 C1112 0.949 . S
C1107 H1102 0.950 . S
C1107 C1109 1.327 . S
C1107 C1113 1.429 . S
C1108 C1100 1.574 . S
C1108 H1103 0.949 . S
C1108 C1114 1.368 . S
C1109 C1093 1.349 . S
C1109 H1101 0.950 . S
C1109 C1107 1.327 . S
C1110 C1098 1.349 . S
C1110 H1104 0.950 . S
C1110 C1111 1.327 . S
C1111 H1105 0.950 . S
C1111 C1110 1.327 . S
C1111 C1115 1.429 . S
C1112 C1095 1.574 . S
C1112 H1106 0.949 . S
C1112 C1116 1.368 . S
C1113 C1094 1.429 . S
C1113 C1107 1.429 . S
C1113 C1114 1.523 . S
C1114 C1095 1.368 . S
C1114 C1108 1.368 . S
C1114 C1113 1.523 . S
C1115 C1099 1.429 . S
C1115 C1111 1.429 . S
C1115 C1116 1.523 . S
C1116 C1100 1.368 . S
C1116 C1112 1.368 . S
C1116 C1115 1.523 . S
H1117 C1092 0.950 . S
H1118 C1094 0.950 . S
H1119 C1095 0.949 . S
H1120 C1097 0.950 . S
H1121 C1099 0.950 . S
C1122 C1123 1.349 . S
C1122 C1124 1.327 . S
C1122 H1147 0.950 . S
C1123 C1122 1.349 . S
C1123 C1139 1.349 . S
C1124 C1122 1.327 . S
C1124 C1143 1.429 . S
C1124 H1148 0.950 . S
C1125 C1142 1.574 . S
C1125 C1144 1.368 . S
C1125 H1149 0.949 . S
H1126 C1130 0.949 . S
C1127 C1128 1.349 . S
C1127 C1129 1.327 . S
C1127 H1150 0.950 . S
C1128 C1127 1.349 . S
C1128 C1140 1.349 . S
C1129 C1127 1.327 . S
C1129 C1145 1.429 . S
C1129 H1151 0.950 . S
C1130 H1126 0.949 . S
C1130 C1138 1.574 . S
C1130 C1146 1.368 . S
H1131 C1139 0.950 . S
H1132 C1137 0.950 . S
H1133 C1138 0.949 . S
H1134 C1140 0.950 . S
H1135 C1141 0.950 . S
H1136 C1142 0.949 . S
C1137 H1132 0.950 . S
C1137 C1139 1.327 . S
C1137 C1143 1.429 . S
C1138 C1130 1.574 . S
C1138 H1133 0.949 . S
C1138 C1144 1.368 . S
C1139 C1123 1.349 . S
C1139 H1131 0.950 . S
C1139 C1137 1.327 . S
C1140 C1128 1.349 . S
C1140 H1134 0.950 . S
C1140 C1141 1.327 . S
C1141 H1135 0.950 . S
C1141 C1140 1.327 . S
C1141 C1145 1.429 . S
C1142 C1125 1.574 . S
C1142 H1136 0.949 . S
C1142 C1146 1.368 . S
C1143 C1124 1.429 . S
C1143 C1137 1.429 . S
C1143 C1144 1.523 . S
C1144 C1125 1.368 . S
C1144 C1138 1.368 . S
C1144 C1143 1.523 . S
C1145 C1129 1.429 . S
C1145 C1141 1.429 . S
C1145 C1146 1.523 . S
C1146 C1130 1.368 . S
C1146 C1142 1.368 . S
C1146 C1145 1.523 . S
H1147 C1122 0.950 . S
H1148 C1124 0.950 . S
H1149 C1125 0.949 . S
H1150 C1127 0.950 . S
H1151 C1129 0.950 . S
C433 C14 1.366 . S
C438 C230 1.374 . S
C463 C50 1.374 . S
C468 C266 1.366 . S
C493 C86 1.274 . S
C498 C302 1.272 . S
C523 C338 1.374 . S
C528 C122 1.366 . S
C553 C158 1.374 . S
C558 C374 1.366 . S
C583 C410 1.274 . S
C588 C194 1.272 . S
C613 C2 0.804 . S
C618 C326 0.805 . S
C643 C38 0.805 . S
C648 C362 0.804 . S
C673 C398 0.742 . S
C678 C74 0.741 . S
C703 C218 0.805 . S
C708 C110 0.804 . S
C733 C146 0.805 . S
C738 C254 0.804 . S
C763 C182 0.742 . S
C768 C290 0.741 . S
C793 C399 1.801 . S
C798 C3 1.793 . S
C823 C39 1.995 . S
C828 C219 1.995 . S
C853 C75 1.801 . S
C858 C255 1.793 . S
C883 C291 1.801 . S
C888 C111 1.793 . S
C913 C327 1.995 . S
C918 C147 1.995 . S
C943 C183 1.801 . S
C948 C363 1.793 . S
C973 C4 0.651 . S
C978 C364 0.651 . S
C1003 C400 0.750 . S
C1008 C40 0.755 . S
C1033 C220 0.750 . S
C1038 C76 0.755 . S
C1063 C112 0.651 . S
C1068 C256 0.651 . S
C1093 C292 0.750 . S
C1098 C148 0.755 . S
C1123 C328 0.750 . S
C1128 C184 0.755 . S
