# Generated by pormake.
# Topology yfx, (5)-cn, num edge types: 1
# Building blocks:
#     Node 0, Type 0, BuildingBlock: BEQFEK_clean_sbu_0, # of connection points: 5
#     Node 1, Type 0, BuildingBlock: BEQFEK_clean_sbu_0, # of connection points: 5
#     Node 2, Type 0, BuildingBlock: BEQFEK_clean_sbu_0, # of connection points: 5
#     Node 3, Type 0, BuildingBlock: BEQFEK_clean_sbu_0, # of connection points: 5
#     Node 4, Type 0, BuildingBlock: BEQFEK_clean_sbu_0, # of connection points: 5
#     Node 5, Type 0, BuildingBlock: BEQFEK_clean_sbu_0, # of connection points: 5
#     Node 6, Type 0, BuildingBlock: BEQFEK_clean_sbu_0, # of connection points: 5
#     Node 7, Type 0, BuildingBlock: BEQFEK_clean_sbu_0, # of connection points: 5
#     Edge 8, Type (0, 0), BuildingBlock: AJUNOK_clean_linker_0, # of connection points: 2
#     Edge 9, Type (0, 0), BuildingBlock: AJUNOK_clean_linker_0, # of connection points: 2
#     Edge 10, Type (0, 0), BuildingBlock: AJUNOK_clean_linker_0, # of connection points: 2
#     Edge 11, Type (0, 0), BuildingBlock: AJUNOK_clean_linker_0, # of connection points: 2
#     Edge 12, Type (0, 0), BuildingBlock: AJUNOK_clean_linker_0, # of connection points: 2
#     Edge 13, Type (0, 0), BuildingBlock: AJUNOK_clean_linker_0, # of connection points: 2
#     Edge 14, Type (0, 0), BuildingBlock: AJUNOK_clean_linker_0, # of connection points: 2
#     Edge 15, Type (0, 0), BuildingBlock: AJUNOK_clean_linker_0, # of connection points: 2
#     Edge 16, Type (0, 0), BuildingBlock: AJUNOK_clean_linker_0, # of connection points: 2
#     Edge 17, Type (0, 0), BuildingBlock: AJUNOK_clean_linker_0, # of connection points: 2
#     Edge 18, Type (0, 0), BuildingBlock: AJUNOK_clean_linker_0, # of connection points: 2
#     Edge 19, Type (0, 0), BuildingBlock: AJUNOK_clean_linker_0, # of connection points: 2
#     Edge 20, Type (0, 0), BuildingBlock: AJUNOK_clean_linker_0, # of connection points: 2
#     Edge 21, Type (0, 0), BuildingBlock: AJUNOK_clean_linker_0, # of connection points: 2
#     Edge 22, Type (0, 0), BuildingBlock: AJUNOK_clean_linker_0, # of connection points: 2
#     Edge 23, Type (0, 0), BuildingBlock: AJUNOK_clean_linker_0, # of connection points: 2
#     Edge 24, Type (0, 0), BuildingBlock: AJUNOK_clean_linker_0, # of connection points: 2
#     Edge 25, Type (0, 0), BuildingBlock: AJUNOK_clean_linker_0, # of connection points: 2
#     Edge 26, Type (0, 0), BuildingBlock: AJUNOK_clean_linker_0, # of connection points: 2
#     Edge 27, Type (0, 0), BuildingBlock: AJUNOK_clean_linker_0, # of connection points: 2
# Relax obj value: 0.148
# Max RMSD: 0.151
# Mean RMSD: 0.151
data_MOF--net-yfx--node1-BEQFEK_clean_sbu_0--edge1-AJUNOK_clean_linker_0
_symmetry_space_group_name_H-M    P1
_symmetry_Int_Tables_number       1
_symmetry_cell_setting            triclinic
loop_
_symmetry_equiv_pos_as_xyz
'x, y, z'
_cell_length_a     30.24138
_cell_length_b     29.759243
_cell_length_c     17.209806
_cell_angle_alpha  89.978785
_cell_angle_beta   90.030186
_cell_angle_gamma 89.774729
loop_
_atom_site_label
_atom_site_type_symbol
_atom_site_fract_x
_atom_site_fract_y
_atom_site_fract_z
_atom_type_partial_charge
Co0 Co 0.31519 0.37505 0.12811 0.0
Co1 Co 0.2129 0.39683 0.12761 0.0
C2 C 0.24873 0.32563 0.02701 0.0
O3 O 0.28459 0.33292 0.06222 0.0
O4 O 0.21494 0.35086 0.03897 0.0
C5 C 0.38424 0.35391 0.03149 0.0
O6 O 0.35213 0.35872 -0.01927 0.0
C7 C 0.12417 0.4445 0.09247 0.0
C8 C 0.10005 0.45399 0.21184 0.0
C9 C 0.09009 0.46463 0.13564 0.0
N10 N 0.15324 0.42409 0.14168 0.0
N11 N 0.13772 0.42966 0.21282 0.0
C12 C 0.12775 0.44322 0.00592 0.0
H13 H 0.16097 0.43112 -0.01213 0.0
H14 H 0.1208 0.47687 -0.01908 0.0
H15 H 0.10241 0.41988 -0.01716 0.0
C16 C 0.32217 0.46821 0.08029 0.0
N17 N 0.29787 0.43359 0.10618 0.0
N18 N 0.25557 0.44442 0.10639 0.0
C19 C 0.25218 0.48741 0.08114 0.0
C20 C 0.29398 0.50335 0.06258 0.0
C21 C 0.37059 0.46505 0.06245 0.0
H22 H 0.388 0.44718 0.11007 0.0
H23 H 0.37515 0.44601 0.00772 0.0
H24 H 0.38594 0.49838 0.05441 0.0
O25 O 0.30416 0.35908 0.23361 0.0
O26 O 0.2306 0.36064 0.22736 0.0
H27 H 0.18779 0.5058 0.12257 0.0
H28 H 0.21693 0.55027 0.07359 0.0
C29 C 0.21018 0.51361 0.07362 0.0
H30 H 0.19418 0.50519 0.01773 0.0
H31 H 0.15376 0.41811 0.26271 0.0
O32 O 0.37723 0.36302 0.10254 0.0
C33 C 0.26678 0.34979 0.26246 0.0
Co34 Co 0.66921 0.3223 0.84141 0.0
Co35 Co 0.6587 0.21623 0.84535 0.0
C36 C 0.70279 0.27134 0.71125 0.0
O37 O 0.69293 0.3082 0.74355 0.0
O38 O 0.69136 0.23333 0.74121 0.0
C39 C 0.71125 0.40015 0.87376 0.0
O40 O 0.74439 0.37475 0.85097 0.0
C41 C 0.59546 0.13812 0.81908 0.0
C42 C 0.62562 0.08594 0.89309 0.0
C43 C 0.5883 0.09472 0.84869 0.0
N44 N 0.63446 0.15416 0.84659 0.0
N45 N 0.65223 0.12223 0.89015 0.0
C46 C 0.56728 0.16297 0.76178 0.0
H47 H 0.56655 0.19931 0.77501 0.0
H48 H 0.5332 0.14961 0.75955 0.0
H49 H 0.58247 0.15944 0.70343 0.0
C50 C 0.57738 0.32154 0.87475 0.0
N51 N 0.61397 0.29938 0.85343 0.0
N52 N 0.61021 0.25635 0.86943 0.0
C53 C 0.57146 0.25059 0.90708 0.0
C54 C 0.54946 0.29137 0.90958 0.0
C55 C 0.57133 0.37134 0.86886 0.0
H56 H 0.5852 0.38746 0.92152 0.0
H57 H 0.58897 0.38444 0.81713 0.0
H58 H 0.53569 0.38019 0.86513 0.0
O59 O 0.70726 0.29785 0.92095 0.0
O60 O 0.70433 0.22383 0.93163 0.0
H61 H 0.58777 0.18736 0.9615 0.0
H62 H 0.54452 0.21927 0.00885 0.0
C63 C 0.55888 0.20965 0.95184 0.0
H64 H 0.53294 0.19185 0.91912 0.0
H65 H 0.68183 0.12583 0.92065 0.0
O66 O 0.672 0.38621 0.86463 0.0
C67 C 0.71955 0.26186 0.95355 0.0
Co68 Co 0.72225 0.67853 0.11319 0.0
Co69 Co 0.82578 0.66119 0.12807 0.0
C70 C 0.78574 0.71996 0.00353 0.0
O71 O 0.74862 0.71168 0.03302 0.0
O72 O 0.82135 0.70348 0.03257 0.0
C73 C 0.64994 0.72892 0.08779 0.0
O74 O 0.68157 0.75869 0.09545 0.0
C75 C 0.91294 0.61338 0.08959 0.0
C76 C 0.94659 0.61804 0.2024 0.0
C77 C 0.95124 0.59977 0.12893 0.0
N78 N 0.88694 0.6379 0.13823 0.0
N79 N 0.90814 0.64098 0.20515 0.0
C80 C 0.90182 0.60353 0.00676 0.0
H81 H 0.86613 0.60953 -0.00449 0.0
H82 H 0.91122 0.56848 -0.00815 0.0
H83 H 0.92133 0.62618 0.96886 0.0
C84 C 0.72059 0.585 0.07883 0.0
N85 N 0.74249 0.62071 0.10558 0.0
N86 N 0.78464 0.61098 0.11599 0.0
C87 C 0.78978 0.56659 0.10148 0.0
C88 C 0.7497 0.54916 0.07578 0.0
C89 C 0.67553 0.58855 0.04275 0.0
H90 H 0.65022 0.58893 0.0894 0.0
H91 H 0.67276 0.62049 0.00988 0.0
H92 H 0.6685 0.56059 0.00218 0.0
O93 O 0.73584 0.70455 0.21001 0.0
O94 O 0.80845 0.69802 0.2262 0.0
H95 H 0.85208 0.55661 0.15981 0.0
H96 H 0.82241 0.50578 0.13665 0.0
C97 C 0.83104 0.53996 0.1158 0.0
H98 H 0.84952 0.53569 0.06088 0.0
H99 H 0.89545 0.65719 0.2541 0.0
O100 O 0.65885 0.68747 0.09701 0.0
C101 C 0.77039 0.71236 0.24868 0.0
Co102 Co 0.3758 0.73247 0.8369 0.0
Co103 Co 0.37933 0.83899 0.84393 0.0
C104 C 0.34722 0.78277 0.70171 0.0
O105 O 0.35618 0.74573 0.73457 0.0
O106 O 0.35416 0.82059 0.73602 0.0
C107 C 0.3406 0.64815 0.85431 0.0
O108 O 0.30766 0.66815 0.81827 0.0
C109 C 0.43486 0.92221 0.8191 0.0
C110 C 0.403 0.96988 0.89928 0.0
C111 C 0.43967 0.96548 0.85117 0.0
N112 N 0.39807 0.90254 0.8484 0.0
N113 N 0.37908 0.9318 0.89556 0.0
C114 C 0.46425 0.89964 0.76107 0.0
H115 H 0.4451 0.87494 0.72652 0.0
H116 H 0.49112 0.88127 0.7914 0.0
H117 H 0.47941 0.92487 0.72221 0.0
C118 C 0.46535 0.74039 0.88773 0.0
N119 N 0.42884 0.75989 0.85926 0.0
N120 N 0.42938 0.80327 0.87375 0.0
C121 C 0.46565 0.81225 0.91683 0.0
C122 C 0.48943 0.77267 0.92651 0.0
C123 C 0.47551 0.69128 0.88056 0.0
H124 H 0.46437 0.67882 0.82304 0.0
H125 H 0.51146 0.68474 0.88759 0.0
H126 H 0.45731 0.67248 0.92595 0.0
O127 O 0.33109 0.75251 0.9104 0.0
O128 O 0.33103 0.82651 0.92295 0.0
H129 H 0.48871 0.84789 0.01801 0.0
H130 H 0.49565 0.87703 0.92798 0.0
C131 C 0.47297 0.85497 0.96099 0.0
H132 H 0.44123 0.87276 0.97085 0.0
H133 H 0.35079 0.92505 0.92815 0.0
O134 O 0.37756 0.668 0.85873 0.0
C135 C 0.31568 0.78785 0.94124 0.0
Co136 Co 0.81219 0.87452 0.61667 0.0
Co137 Co 0.71002 0.89462 0.62398 0.0
C138 C 0.74527 0.82443 0.52137 0.0
O139 O 0.78169 0.83004 0.55574 0.0
O140 O 0.71229 0.85027 0.53503 0.0
C141 C 0.87942 0.85232 0.5163 0.0
O142 O 0.84656 0.85699 0.46701 0.0
C143 C 0.62109 0.93967 0.58896 0.0
C144 C 0.59299 0.94175 0.70648 0.0
C145 C 0.58484 0.95579 0.63121 0.0
N146 N 0.6494 0.91803 0.63775 0.0
N147 N 0.63142 0.9188 0.70766 0.0
C148 C 0.62816 0.94456 0.50346 0.0
H149 H 0.66303 0.93697 0.48791 0.0
H150 H 0.61866 0.97886 0.48413 0.0
H151 H 0.60637 0.92048 0.4727 0.0
C152 C 0.81531 0.96759 0.56668 0.0
N153 N 0.79264 0.93239 0.5943 0.0
N154 N 0.7505 0.94302 0.60162 0.0
C155 C 0.7456 0.9865 0.58034 0.0
C156 C 0.78613 1.00278 0.5556 0.0
C157 C 0.86308 0.96557 0.5438 0.0
H158 H 0.88238 0.94804 0.58949 0.0
H159 H 0.86625 0.94645 0.48881 0.0
H160 H 0.87738 0.99932 0.53463 0.0
O161 O 0.80407 0.86017 0.72345 0.0
O162 O 0.73041 0.85987 0.72187 0.0
H163 H 0.68322 1.00072 0.63529 0.0
H164 H 0.71227 0.04937 0.59949 0.0
C165 C 0.70411 1.01368 0.58755 0.0
H166 H 0.68572 1.01291 0.53206 0.0
H167 H 0.6464 0.90536 0.75717 0.0
O168 O 0.87387 0.86326 0.58703 0.0
C169 C 0.7675 0.85034 0.75483 0.0
Co170 Co 0.16768 0.8216 0.33977 0.0
Co171 Co 0.15875 0.71567 0.34426 0.0
C172 C 0.19579 0.7703 0.20475 0.0
O173 O 0.18878 0.80743 0.23874 0.0
O174 O 0.18587 0.73261 0.23722 0.0
C175 C 0.20767 0.90177 0.36567 0.0
O176 O 0.24074 0.879 0.3354 0.0
C177 C 0.10504 0.63115 0.31675 0.0
C178 C 0.1314 0.58786 0.40977 0.0
C179 C 0.0985 0.58948 0.35355 0.0
N180 N 0.13928 0.65275 0.35105 0.0
N181 N 0.15504 0.62605 0.40589 0.0
C182 C 0.08014 0.64985 0.24896 0.0
H183 H 0.10209 0.67153 0.21354 0.0
H184 H 0.0521 0.67074 0.26937 0.0
H185 H 0.06682 0.6222 0.21304 0.0
C186 C 0.07553 0.81826 0.37689 0.0
N187 N 0.11293 0.79698 0.35747 0.0
N188 N 0.10876 0.75344 0.36865 0.0
C189 C 0.06834 0.74608 0.39983 0.0
C190 C 0.04627 0.7869 0.40466 0.0
C191 C 0.06906 0.8681 0.37305 0.0
H192 H 0.08339 0.88363 0.42592 0.0
H193 H 0.08626 0.88189 0.32141 0.0
H194 H 0.0334 0.87695 0.37012 0.0
O195 O 0.20926 0.8001 0.41612 0.0
O196 O 0.20644 0.72611 0.42576 0.0
H197 H 0.08268 0.68258 0.45477 0.0
H198 H 0.03335 0.71039 0.48936 0.0
C199 C 0.05379 0.70317 0.43723 0.0
H200 H 0.03286 0.68393 0.39634 0.0
H201 H 0.18078 0.63475 0.4433 0.0
O202 O 0.16893 0.88572 0.3619 0.0
C203 C 0.22263 0.76389 0.4465 0.0
Co204 Co 0.21978 0.17428 0.6239 0.0
Co205 Co 0.32313 0.1571 0.63316 0.0
C206 C 0.28127 0.21797 0.51182 0.0
O207 O 0.24419 0.20935 0.54183 0.0
O208 O 0.31709 0.20086 0.53939 0.0
C209 C 0.14609 0.22221 0.60701 0.0
O210 O 0.17608 0.25243 0.62422 0.0
C211 C 0.41061 0.10928 0.59328 0.0
C212 C 0.44127 0.10814 0.70913 0.0
C213 C 0.44714 0.09228 0.63436 0.0
N214 N 0.38402 0.13261 0.64279 0.0
N215 N 0.40342 0.13212 0.71157 0.0
C216 C 0.40257 0.10568 0.50779 0.0
H217 H 0.36728 0.11252 0.49415 0.0
H218 H 0.41268 0.07221 0.48566 0.0
H219 H 0.42305 0.13115 0.47765 0.0
C220 C 0.21761 0.08051 0.58789 0.0
N221 N 0.23988 0.11626 0.6141 0.0
N222 N 0.28233 0.10686 0.62028 0.0
C223 C 0.28757 0.06292 0.60207 0.0
C224 C 0.24713 0.04537 0.57915 0.0
C225 C 0.17109 0.08341 0.55805 0.0
H226 H 0.16806 0.11255 0.51813 0.0
H227 H 0.16078 0.05278 0.52645 0.0
H228 H 0.14832 0.08914 0.60763 0.0
O229 O 0.23396 0.20031 0.72166 0.0
O230 O 0.30674 0.19288 0.73333 0.0
H231 H 0.3229 1.00097 0.61893 0.0
H232 H 0.34698 0.03847 0.55024 0.0
C233 C 0.32981 0.03692 0.60685 0.0
H234 H 0.35112 0.05031 0.65367 0.0
H235 H 0.38991 0.14685 0.76121 0.0
O236 O 0.15638 0.18089 0.60977 0.0
C237 C 0.26929 0.20729 0.7588 0.0
Co238 Co 0.87485 0.22896 0.33724 0.0
Co239 Co 0.88576 0.33471 0.34303 0.0
C240 C 0.84761 0.28033 0.20351 0.0
O241 O 0.85557 0.24257 0.23455 0.0
O242 O 0.85721 0.31738 0.2381 0.0
C243 C 0.83297 0.14919 0.35325 0.0
O244 O 0.8019 0.17329 0.31964 0.0
C245 C 0.94781 0.41365 0.31868 0.0
C246 C 0.91399 0.46677 0.38546 0.0
C247 C 0.95269 0.45801 0.34497 0.0
N248 N 0.90864 0.3971 0.34421 0.0
N249 N 0.88866 0.42954 0.38341 0.0
C250 C 0.97847 0.38815 0.26634 0.0
H251 H 0.96302 0.38563 0.20802 0.0
H252 H 0.98325 0.35339 0.28746 0.0
H253 H 1.01096 0.40483 0.26051 0.0
C254 C 0.96525 0.23106 0.38894 0.0
N255 N 0.93001 0.25229 0.35882 0.0
N256 N 0.93288 0.29564 0.37236 0.0
C257 C 0.96873 0.30291 0.41696 0.0
C258 C 0.99094 0.26251 0.42678 0.0
C259 C 0.9717 0.1812 0.38721 0.0
H260 H 0.95334 0.16587 0.43628 0.0
H261 H 0.95846 0.16728 0.33214 0.0
H262 H 1.00724 0.17231 0.39284 0.0
O263 O 0.83207 0.25214 0.41267 0.0
O264 O 0.83895 0.32602 0.42466 0.0
H265 H 0.94436 0.36302 0.47228 0.0
H266 H 0.99063 0.33657 0.52106 0.0
C267 C 0.97596 0.3447 0.46357 0.0
H268 H 0.99937 0.36662 0.43244 0.0
H269 H 0.85826 0.42579 0.4113 0.0
O270 O 0.87176 0.165 0.35834 0.0
C271 C 0.82073 0.28891 0.44416 0.0
C272 C 0.46813 0.29024 0.91293 0.0
C273 C 0.50796 0.30224 0.94847 0.0
C274 C 0.42807 0.30705 0.94091 0.0
C275 C 0.42685 0.33567 0.00597 0.0
H276 H 0.46814 0.26936 0.86132 0.0
H277 H 0.39793 0.29794 0.91084 0.0
S278 S 0.52289 0.3746 0.12125 0.0
N279 N 0.54458 0.34262 0.0526 0.0
N280 N 0.46888 0.37375 0.10684 0.0
C281 C 0.46655 0.34633 0.04385 0.0
C282 C 0.50735 0.32968 0.01457 0.0
C283 C 0.75938 0.4628 0.91666 0.0
C284 C 0.72015 0.43824 0.92556 0.0
C285 C 0.77005 0.4974 0.96821 0.0
C286 C 0.74243 0.5076 0.03145 0.0
H287 H 0.78152 0.45581 0.86864 0.0
H288 H 0.79916 0.51736 0.95657 0.0
S289 S 0.63877 0.4497 0.08585 0.0
N290 N 0.65491 0.42467 0.00504 0.0
N291 N 0.67644 0.48828 0.10423 0.0
C292 C 0.70428 0.48189 0.04317 0.0
C293 C 0.69261 0.44768 -0.01061 0.0
C294 C 0.60616 0.77835 0.0009 0.0
C295 C 0.60739 0.74288 0.055 0.0
C296 C 0.56711 0.78913 0.96158 0.0
C297 C 0.52827 0.76501 0.9759 0.0
H298 H 0.63598 0.7965 -0.01392 0.0
H299 H 0.56772 0.81515 0.91753 0.0
S300 S 0.51251 0.67487 0.1219 0.0
N301 N 0.5657 0.68698 0.12677 0.0
N302 N 0.49154 0.70878 0.05531 0.0
C303 C 0.52831 0.73171 0.03375 0.0
C304 C 0.5682 0.72015 0.07267 0.0
C305 C 0.28564 0.54506 0.93803 0.0
C306 C 0.30472 0.54192 0.01232 0.0
C307 C 0.2983 0.57894 0.88619 0.0
C308 C 0.33111 0.61011 0.90643 0.0
H309 H 0.26124 0.52077 0.91946 0.0
H310 H 0.28242 0.58067 0.82981 0.0
S311 S 0.38787 0.61854 0.09728 0.0
N312 N 0.35501 0.57465 0.10621 0.0
N313 N 0.3804 0.63734 0.00793 0.0
C314 C 0.35013 0.60749 -0.01896 0.0
C315 C 0.33641 0.57367 0.03432 0.0
C316 C 1.00112 0.82513 0.50465 0.0
C317 C 1.00327 0.79695 0.4394 0.0
C318 C 0.96063 0.84224 0.53038 0.0
C319 C 0.92133 0.83226 0.49055 0.0
H320 H 0.03113 0.83517 0.53428 0.0
H321 H 0.96033 0.86464 0.58 0.0
S322 S 0.90985 0.75704 0.31959 0.0
N323 N 0.96342 0.75739 0.33832 0.0
N324 N 0.88683 0.78985 0.3857 0.0
C325 C 0.92306 0.80269 0.42673 0.0
C326 C 0.96426 0.78481 0.40144 0.0
C327 C 0.26347 1.00101 0.4602 0.0
C328 C 0.23988 1.0056 0.53012 0.0
C329 C 0.25258 0.96744 0.40667 0.0
C330 C 0.21721 0.93815 0.42081 0.0
H331 H 0.28951 1.02442 0.44558 0.0
H332 H 0.27139 0.96492 0.35326 0.0
S333 S 0.14835 0.9338 0.59921 0.0
N334 N 0.18233 0.97628 0.61383 0.0
N335 N 0.16097 0.91356 0.51265 0.0
C336 C 0.19423 0.94165 0.49168 0.0
C337 C 0.20588 0.97529 0.54661 0.0
C338 C 0.06666 0.21109 0.5772 0.0
C339 C 0.10563 0.23578 0.56677 0.0
C340 C 0.02907 0.2206 0.53283 0.0
C341 C 0.0299 0.25426 0.4756 0.0
H342 H 0.0654 0.1841 0.61941 0.0
H343 H 0.99935 0.2013 0.54298 0.0
S344 S 0.12463 0.32651 0.42306 0.0
N345 N 0.14315 0.29483 0.49486 0.0
N346 N 0.07275 0.31143 0.4093 0.0
C347 C 0.06855 0.27926 0.46487 0.0
C348 C 0.10649 0.27025 0.511 0.0
C349 C 0.84053 0.10665 0.47644 0.0
C350 C 0.82041 0.11139 0.40315 0.0
C351 C 0.82734 0.07287 0.5277 0.0
C352 C 0.79432 0.04231 0.50663 0.0
H353 H 0.86623 0.12958 0.49486 0.0
H354 H 0.8438 0.06992 0.58343 0.0
S355 S 0.7317 0.04018 0.32144 0.0
N356 N 0.76516 0.08364 0.31283 0.0
N357 N 0.74191 1.01838 0.40792 0.0
C358 C 0.7736 0.0469 0.43399 0.0
C359 C 0.78639 0.08188 0.38239 0.0
C360 C 0.3105 0.28449 0.43715 0.0
C361 C 0.27987 0.2495 0.44478 0.0
C362 C 0.30448 0.31836 0.38085 0.0
C363 C 0.26749 0.31876 0.33034 0.0
H364 H 0.33863 0.28634 0.47599 0.0
H365 H 0.32935 0.34432 0.37626 0.0
S366 S 0.17969 0.2323 0.3228 0.0
N367 N 0.21234 0.21593 0.39437 0.0
N368 N 0.20134 0.27934 0.28945 0.0
C369 C 0.23691 0.28369 0.33717 0.0
C370 C 0.24313 0.24913 0.39387 0.0
C371 C 0.78424 0.23326 0.03144 0.0
C372 C 0.7524 0.26663 0.01717 0.0
C373 C 0.8171 0.23951 0.08815 0.0
C374 C 0.81935 0.2793 0.13297 0.0
H375 H 0.78398 0.20231 -0.00166 0.0
H376 H 0.8403 0.21232 0.0984 0.0
S377 S 0.74254 0.37616 0.12037 0.0
N378 N 0.72455 0.34068 0.05391 0.0
N379 N 0.78633 0.35204 0.15958 0.0
C380 C 0.7881 0.31311 0.11838 0.0
C381 C 0.75455 0.30677 0.06107 0.0
C382 C 0.78901 0.73406 0.38598 0.0
C383 C 0.76397 0.74077 0.31857 0.0
C384 C 0.7803 0.75917 0.45333 0.0
C385 C 0.7464 0.79219 0.45574 0.0
H386 H 0.81521 0.70912 0.38694 0.0
H387 H 0.80125 0.75349 0.50349 0.0
S388 S 0.67193 0.82323 0.29348 0.0
N389 N 0.70391 0.7832 0.25788 0.0
N390 N 0.68796 0.82995 0.38436 0.0
C391 C 0.72069 0.79862 0.3891 0.0
C392 C 0.72954 0.77321 0.32054 0.0
C393 C 0.26345 0.82015 0.03993 0.0
C394 C 0.28101 0.78237 0.00223 0.0
C395 C 0.23399 0.81555 0.10214 0.0
C396 C 0.22093 0.77289 0.13038 0.0
H397 H 0.27333 0.85366 0.02273 0.0
H398 H 0.22269 0.84612 0.13003 0.0
S399 S 0.25286 0.663 0.0461 0.0
N400 N 0.27954 0.70033 -0.00693 0.0
N401 N 0.2248 0.69229 0.11089 0.0
C402 C 0.23629 0.73483 0.09071 0.0
C403 C 0.26616 0.73941 0.02668 0.0
C404 C 0.80838 0.81851 0.86931 0.0
C405 C 0.76996 0.81947 0.82229 0.0
C406 C 0.81527 0.78472 0.92531 0.0
C407 C 0.78419 0.75041 0.93549 0.0
H408 H 0.83352 0.84404 0.86246 0.0
H409 H 0.84429 0.78623 0.96213 0.0
S410 S 0.67989 0.73538 0.82338 0.0
N411 N 0.70155 0.78189 0.78812 0.0
N412 N 0.7147 0.71795 0.89088 0.0
C413 C 0.7462 0.75044 0.88741 0.0
C414 C 0.73889 0.78514 0.83182 0.0
C415 C 0.26234 0.80964 0.54637 0.0
C416 C 0.25696 0.76801 0.50785 0.0
C417 C 0.29382 0.81539 0.60534 0.0
C418 C 0.32151 0.77981 0.62811 0.0
H419 H 0.24112 0.83797 0.53248 0.0
H420 H 0.29495 0.84728 0.63558 0.0
S421 S 0.32518 0.66594 0.53817 0.0
N422 N 0.28475 0.69206 0.4919 0.0
N423 N 0.34466 0.70261 0.60135 0.0
C424 C 0.31822 0.73873 0.58686 0.0
C425 C 0.28571 0.73282 0.52743 0.0
C426 C 0.22853 0.26579 0.83527 0.0
C427 C 0.26472 0.23556 0.82974 0.0
C428 C 0.22183 0.29304 0.90082 0.0
C429 C 0.25088 0.29113 0.96415 0.0
H430 H 0.20543 0.2693 0.7875 0.0
H431 H 0.19467 0.3169 0.90046 0.0
S432 S 0.34795 0.21399 -0.01702 0.0
N433 N 0.32811 0.2033 0.89558 0.0
N434 N 0.31549 0.25329 0.01991 0.0
C435 C 0.28625 0.25956 0.96079 0.0
C436 C 0.2933 0.23229 0.89336 0.0
C437 C 0.73362 0.24274 0.58343 0.0
C438 C 0.73256 0.2752 0.6425 0.0
C439 C 0.76115 0.24825 0.51809 0.0
C440 C 0.78863 0.28638 0.50939 0.0
H441 H 0.71292 0.21321 0.58733 0.0
H442 H 0.76111 0.22214 0.47423 0.0
S443 S 0.80131 0.37905 0.65114 0.0
N444 N 0.76406 0.34559 0.69002 0.0
N445 N 0.81453 0.35563 0.56752 0.0
C446 C 0.7881 0.31874 0.56829 0.0
C447 C 0.76054 0.31313 0.63474 0.0
C448 C 0.97568 0.51904 0.13115 0.0
C449 C 0.98431 0.56378 0.10941 0.0
C450 C 1.00952 0.48624 0.133 0.0
C451 C 0.05351 0.49638 0.11282 0.0
H452 H 0.94305 0.50997 0.15175 0.0
H453 H 1.00154 0.45304 0.15371 0.0
S454 S 0.09289 0.60759 0.04473 0.0
N455 N 0.0396 0.61567 0.06138 0.0
N456 N 0.10301 0.55431 0.0656 0.0
C457 C 0.06202 0.54035 0.08646 0.0
C458 C 0.02751 0.57388 0.08463 0.0
C459 C 0.55586 1.01758 0.82857 0.0
C460 C 0.5491 0.06368 0.84277 0.0
C461 C 0.52069 0.98637 0.82922 0.0
C462 C 0.47672 0.99953 0.84494 0.0
H463 H 0.58914 1.00538 0.81873 0.0
H464 H 0.52874 0.95133 0.8213 0.0
S465 S 0.44259 0.11477 0.90477 0.0
N466 N 0.49581 0.11945 0.88556 0.0
N467 N 0.42998 0.06198 0.88581 0.0
C468 C 0.4699 0.04542 0.86312 0.0
C469 C 0.50579 0.0771 0.86215 0.0
C470 C 0.52721 0.06957 0.6296 0.0
C471 C 0.48283 0.05926 0.61259 0.0
C472 C 0.56075 0.03649 0.62904 0.0
C473 C 0.55153 0.99135 0.61099 0.0
H474 H 0.53573 0.10329 0.64679 0.0
H475 H 0.59376 0.04586 0.64725 0.0
S476 S 0.44149 0.94634 0.55765 0.0
N477 N 0.43206 1.0002 0.57445 0.0
N478 N 0.49513 0.93851 0.57086 0.0
C479 C 0.50785 0.98085 0.58961 0.0
C480 C 0.47354 1.0146 0.59088 0.0
C481 C 0.01905 0.56699 0.32312 0.0
C482 C 0.06247 0.55482 0.3446 0.0
C483 C 0.98433 0.53529 0.32164 0.0
C484 C 0.9913 0.48971 0.3404 0.0
H485 H 1.01118 0.60172 0.3112 0.0
H486 H 0.95134 0.54668 0.30691 0.0
S487 S 0.0968 0.44155 0.41333 0.0
N488 N 0.10904 0.4942 0.3929 0.0
N489 N 0.04417 0.43552 0.39056 0.0
C490 C 0.03415 0.47734 0.36435 0.0
C491 C 0.06944 0.50959 0.36642 0.0
loop_
_geom_bond_atom_site_label_1
_geom_bond_atom_site_label_2
_geom_bond_distance
_geom_bond_site_symmetry_2
_ccdc_geom_bond_type
Co0 O3 1.970 1_554 S
Co0 N17 1.989 . S
Co0 O25 1.967 . S
Co0 O32 1.920 . S
Co1 O4 1.966 1_554 S
Co1 N10 2.022 . S
Co1 N18 1.993 . S
Co1 O26 1.941 . S
C2 O3 1.258 . S
C2 O4 1.263 . S
O3 Co0 1.970 1_556 S
O3 C2 1.258 . S
O4 Co1 1.966 1_556 S
O4 C2 1.263 . S
C5 O6 1.235 . S
C5 O32 1.289 1_556 S
O6 C5 1.235 . S
C7 C9 1.400 . S
C7 N10 1.351 1_556 S
C7 C12 1.501 . S
C8 C9 1.387 1_554 S
C8 N11 1.341 . S
C9 C7 1.400 . S
C9 C8 1.387 1_556 S
N10 Co1 2.022 . S
N10 C7 1.351 1_554 S
N10 N11 1.365 . S
N11 C8 1.341 . S
N11 N10 1.365 . S
N11 H31 0.862 . S
C12 C7 1.501 . S
C12 H13 0.961 . S
C12 H14 0.961 . S
C12 H15 0.960 . S
H13 C12 0.961 . S
H14 C12 0.961 . S
H15 C12 0.960 . S
C16 N17 1.342 . S
C16 C20 1.401 . S
C16 C21 1.499 . S
N17 Co0 1.989 . S
N17 C16 1.342 . S
N17 N18 1.388 . S
N18 Co1 1.993 . S
N18 N17 1.388 . S
N18 C19 1.346 . S
C19 N18 1.346 . S
C19 C20 1.396 . S
C19 C29 1.510 . S
C20 C16 1.401 . S
C20 C19 1.396 . S
C21 C16 1.499 . S
C21 H22 0.959 . S
C21 H23 0.960 1_554 S
C21 H24 0.961 . S
H22 C21 0.959 . S
H23 C21 0.960 1_556 S
H24 C21 0.961 . S
O25 Co0 1.967 . S
O25 C33 1.258 . S
O26 Co1 1.941 . S
O26 C33 1.266 . S
H27 C29 0.959 . S
H28 C29 0.961 1_556 S
C29 C19 1.510 . S
C29 H27 0.959 . S
C29 H28 0.961 1_554 S
C29 H30 0.960 . S
H30 C29 0.960 . S
H31 N11 0.862 . S
O32 Co0 1.920 . S
O32 C5 1.289 1_554 S
C33 O25 1.258 . S
C33 O26 1.266 . S
Co34 O37 1.970 1_554 S
Co34 N51 1.989 . S
Co34 O59 1.967 . S
Co34 O66 1.920 . S
Co35 O38 1.966 1_554 S
Co35 N44 2.022 . S
Co35 N52 1.993 . S
Co35 O60 1.941 . S
C36 O37 1.258 . S
C36 O38 1.263 . S
O37 Co34 1.970 1_556 S
O37 C36 1.258 . S
O38 Co35 1.966 1_556 S
O38 C36 1.263 . S
C39 O40 1.235 . S
C39 O66 1.289 1_556 S
O40 C39 1.235 . S
C41 C43 1.400 . S
C41 N44 1.351 1_556 S
C41 C46 1.501 . S
C42 C43 1.387 1_554 S
C42 N45 1.341 . S
C43 C41 1.400 . S
C43 C42 1.387 1_556 S
N44 Co35 2.022 . S
N44 C41 1.351 1_554 S
N44 N45 1.365 . S
N45 C42 1.341 . S
N45 N44 1.365 . S
N45 H65 0.862 . S
C46 C41 1.501 . S
C46 H47 0.961 . S
C46 H48 0.961 . S
C46 H49 0.960 . S
H47 C46 0.961 . S
H48 C46 0.961 . S
H49 C46 0.960 . S
C50 N51 1.342 . S
C50 C54 1.401 . S
C50 C55 1.499 . S
N51 Co34 1.989 . S
N51 C50 1.342 . S
N51 N52 1.388 . S
N52 Co35 1.993 . S
N52 N51 1.388 . S
N52 C53 1.346 . S
C53 N52 1.346 . S
C53 C54 1.396 . S
C53 C63 1.510 . S
C54 C50 1.401 . S
C54 C53 1.396 . S
C55 C50 1.499 . S
C55 H56 0.959 . S
C55 H57 0.960 1_554 S
C55 H58 0.961 . S
H56 C55 0.959 . S
H57 C55 0.960 1_556 S
H58 C55 0.961 . S
O59 Co34 1.967 . S
O59 C67 1.258 . S
O60 Co35 1.941 . S
O60 C67 1.266 . S
H61 C63 0.959 . S
H62 C63 0.961 1_556 S
C63 C53 1.510 . S
C63 H61 0.959 . S
C63 H62 0.961 1_554 S
C63 H64 0.960 . S
H64 C63 0.960 . S
H65 N45 0.862 . S
O66 Co34 1.920 . S
O66 C39 1.289 1_554 S
C67 O59 1.258 . S
C67 O60 1.266 . S
Co68 O71 1.970 1_554 S
Co68 N85 1.989 . S
Co68 O93 1.967 . S
Co68 O100 1.920 . S
Co69 O72 1.966 1_554 S
Co69 N78 2.022 . S
Co69 N86 1.993 . S
Co69 O94 1.941 . S
C70 O71 1.258 . S
C70 O72 1.263 . S
O71 Co68 1.970 1_556 S
O71 C70 1.258 . S
O72 Co69 1.966 1_556 S
O72 C70 1.263 . S
C73 O74 1.235 . S
C73 O100 1.289 1_556 S
O74 C73 1.235 . S
C75 C77 1.400 . S
C75 N78 1.351 1_556 S
C75 C80 1.501 . S
C76 C77 1.387 1_554 S
C76 N79 1.341 . S
C77 C75 1.400 . S
C77 C76 1.387 1_556 S
N78 Co69 2.022 . S
N78 C75 1.351 1_554 S
N78 N79 1.365 . S
N79 C76 1.341 . S
N79 N78 1.365 . S
N79 H99 0.862 . S
C80 C75 1.501 . S
C80 H81 0.961 . S
C80 H82 0.961 . S
C80 H83 0.960 . S
H81 C80 0.961 . S
H82 C80 0.961 . S
H83 C80 0.960 . S
C84 N85 1.342 . S
C84 C88 1.401 . S
C84 C89 1.499 . S
N85 Co68 1.989 . S
N85 C84 1.342 . S
N85 N86 1.388 . S
N86 Co69 1.993 . S
N86 N85 1.388 . S
N86 C87 1.346 . S
C87 N86 1.346 . S
C87 C88 1.396 . S
C87 C97 1.510 . S
C88 C84 1.401 . S
C88 C87 1.396 . S
C89 C84 1.499 . S
C89 H90 0.959 . S
C89 H91 0.960 1_554 S
C89 H92 0.961 . S
H90 C89 0.959 . S
H91 C89 0.960 1_556 S
H92 C89 0.961 . S
O93 Co68 1.967 . S
O93 C101 1.258 . S
O94 Co69 1.941 . S
O94 C101 1.266 . S
H95 C97 0.959 . S
H96 C97 0.961 1_556 S
C97 C87 1.510 . S
C97 H95 0.959 . S
C97 H96 0.961 1_554 S
C97 H98 0.960 . S
H98 C97 0.960 . S
H99 N79 0.862 . S
O100 Co68 1.920 . S
O100 C73 1.289 1_554 S
C101 O93 1.258 . S
C101 O94 1.266 . S
Co102 O105 1.970 1_554 S
Co102 N119 1.989 . S
Co102 O127 1.967 . S
Co102 O134 1.920 . S
Co103 O106 1.966 1_554 S
Co103 N112 2.022 . S
Co103 N120 1.993 . S
Co103 O128 1.941 . S
C104 O105 1.258 . S
C104 O106 1.263 . S
O105 Co102 1.970 1_556 S
O105 C104 1.258 . S
O106 Co103 1.966 1_556 S
O106 C104 1.263 . S
C107 O108 1.235 . S
C107 O134 1.289 1_556 S
O108 C107 1.235 . S
C109 C111 1.400 . S
C109 N112 1.351 1_556 S
C109 C114 1.501 . S
C110 C111 1.387 1_554 S
C110 N113 1.341 . S
C111 C109 1.400 . S
C111 C110 1.387 1_556 S
N112 Co103 2.022 . S
N112 C109 1.351 1_554 S
N112 N113 1.365 . S
N113 C110 1.341 . S
N113 N112 1.365 . S
N113 H133 0.862 . S
C114 C109 1.501 . S
C114 H115 0.961 . S
C114 H116 0.961 . S
C114 H117 0.960 . S
H115 C114 0.961 . S
H116 C114 0.961 . S
H117 C114 0.960 . S
C118 N119 1.342 . S
C118 C122 1.401 . S
C118 C123 1.499 . S
N119 Co102 1.989 . S
N119 C118 1.342 . S
N119 N120 1.388 . S
N120 Co103 1.993 . S
N120 N119 1.388 . S
N120 C121 1.346 . S
C121 N120 1.346 . S
C121 C122 1.396 . S
C121 C131 1.510 . S
C122 C118 1.401 . S
C122 C121 1.396 . S
C123 C118 1.499 . S
C123 H124 0.959 . S
C123 H125 0.960 1_554 S
C123 H126 0.961 . S
H124 C123 0.959 . S
H125 C123 0.960 1_556 S
H126 C123 0.961 . S
O127 Co102 1.967 . S
O127 C135 1.258 . S
O128 Co103 1.941 . S
O128 C135 1.266 . S
H129 C131 0.959 . S
H130 C131 0.961 1_556 S
C131 C121 1.510 . S
C131 H129 0.959 . S
C131 H130 0.961 1_554 S
C131 H132 0.960 . S
H132 C131 0.960 . S
H133 N113 0.862 . S
O134 Co102 1.920 . S
O134 C107 1.289 1_554 S
C135 O127 1.258 . S
C135 O128 1.266 . S
Co136 O139 1.970 . S
Co136 N153 1.989 . S
Co136 O161 1.967 . S
Co136 O168 1.920 . S
Co137 O140 1.966 . S
Co137 N146 2.022 . S
Co137 N154 1.993 . S
Co137 O162 1.941 . S
C138 O139 1.258 . S
C138 O140 1.263 . S
O139 Co136 1.970 . S
O139 C138 1.258 . S
O140 Co137 1.966 . S
O140 C138 1.263 . S
C141 O142 1.235 . S
C141 O168 1.289 . S
O142 C141 1.235 . S
C143 C145 1.400 . S
C143 N146 1.351 . S
C143 C148 1.501 . S
C144 C145 1.387 . S
C144 N147 1.341 . S
C145 C143 1.400 . S
C145 C144 1.387 . S
N146 Co137 2.022 . S
N146 C143 1.351 . S
N146 N147 1.365 . S
N147 C144 1.341 . S
N147 N146 1.365 . S
N147 H167 0.862 . S
C148 C143 1.501 . S
C148 H149 0.961 . S
C148 H150 0.961 . S
C148 H151 0.960 . S
H149 C148 0.961 . S
H150 C148 0.961 . S
H151 C148 0.960 . S
C152 N153 1.342 . S
C152 C156 1.401 . S
C152 C157 1.499 . S
N153 Co136 1.989 . S
N153 C152 1.342 . S
N153 N154 1.388 . S
N154 Co137 1.993 . S
N154 N153 1.388 . S
N154 C155 1.346 . S
C155 N154 1.346 . S
C155 C156 1.396 . S
C155 C165 1.510 . S
C156 C152 1.401 . S
C156 C155 1.396 . S
C157 C152 1.499 . S
C157 H158 0.959 . S
C157 H159 0.960 . S
C157 H160 0.961 . S
H158 C157 0.959 . S
H159 C157 0.960 . S
H160 C157 0.961 . S
O161 Co136 1.967 . S
O161 C169 1.258 . S
O162 Co137 1.941 . S
O162 C169 1.266 . S
H163 C165 0.959 1_545 S
H164 C165 0.961 1_545 S
C165 C155 1.510 . S
C165 H163 0.959 1_565 S
C165 H164 0.961 1_565 S
C165 H166 0.960 . S
H166 C165 0.960 . S
H167 N147 0.862 . S
O168 Co136 1.920 . S
O168 C141 1.289 . S
C169 O161 1.258 . S
C169 O162 1.266 . S
Co170 O173 1.970 . S
Co170 N187 1.989 . S
Co170 O195 1.967 . S
Co170 O202 1.920 . S
Co171 O174 1.966 . S
Co171 N180 2.022 . S
Co171 N188 1.993 . S
Co171 O196 1.941 . S
C172 O173 1.258 . S
C172 O174 1.263 . S
O173 Co170 1.970 . S
O173 C172 1.258 . S
O174 Co171 1.966 . S
O174 C172 1.263 . S
C175 O176 1.235 . S
C175 O202 1.289 . S
O176 C175 1.235 . S
C177 C179 1.400 . S
C177 N180 1.351 . S
C177 C182 1.501 . S
C178 C179 1.387 . S
C178 N181 1.341 . S
C179 C177 1.400 . S
C179 C178 1.387 . S
N180 Co171 2.022 . S
N180 C177 1.351 . S
N180 N181 1.365 . S
N181 C178 1.341 . S
N181 N180 1.365 . S
N181 H201 0.862 . S
C182 C177 1.501 . S
C182 H183 0.961 . S
C182 H184 0.961 . S
C182 H185 0.960 . S
H183 C182 0.961 . S
H184 C182 0.961 . S
H185 C182 0.960 . S
C186 N187 1.342 . S
C186 C190 1.401 . S
C186 C191 1.499 . S
N187 Co170 1.989 . S
N187 C186 1.342 . S
N187 N188 1.388 . S
N188 Co171 1.993 . S
N188 N187 1.388 . S
N188 C189 1.346 . S
C189 N188 1.346 . S
C189 C190 1.396 . S
C189 C199 1.510 . S
C190 C186 1.401 . S
C190 C189 1.396 . S
C191 C186 1.499 . S
C191 H192 0.959 . S
C191 H193 0.960 . S
C191 H194 0.961 . S
H192 C191 0.959 . S
H193 C191 0.960 . S
H194 C191 0.961 . S
O195 Co170 1.967 . S
O195 C203 1.258 . S
O196 Co171 1.941 . S
O196 C203 1.266 . S
H197 C199 0.959 1_655 S
H198 C199 0.961 1_655 S
C199 C189 1.510 . S
C199 H197 0.959 1_455 S
C199 H198 0.961 1_455 S
C199 H200 0.960 . S
H200 C199 0.960 . S
H201 N181 0.862 . S
O202 Co170 1.920 . S
O202 C175 1.289 . S
C203 O195 1.258 . S
C203 O196 1.266 . S
Co204 O207 1.970 . S
Co204 N221 1.989 . S
Co204 O229 1.967 . S
Co204 O236 1.920 . S
Co205 O208 1.966 . S
Co205 N214 2.022 . S
Co205 N222 1.993 . S
Co205 O230 1.941 . S
C206 O207 1.258 . S
C206 O208 1.263 . S
O207 Co204 1.970 . S
O207 C206 1.258 . S
O208 Co205 1.966 . S
O208 C206 1.263 . S
C209 O210 1.235 . S
C209 O236 1.289 . S
O210 C209 1.235 . S
C211 C213 1.400 . S
C211 N214 1.351 . S
C211 C216 1.501 . S
C212 C213 1.387 . S
C212 N215 1.341 . S
C213 C211 1.400 . S
C213 C212 1.387 . S
N214 Co205 2.022 . S
N214 C211 1.351 . S
N214 N215 1.365 . S
N215 C212 1.341 . S
N215 N214 1.365 . S
N215 H235 0.862 . S
C216 C211 1.501 . S
C216 H217 0.961 . S
C216 H218 0.961 . S
C216 H219 0.960 . S
H217 C216 0.961 . S
H218 C216 0.961 . S
H219 C216 0.960 . S
C220 N221 1.342 . S
C220 C224 1.401 . S
C220 C225 1.499 . S
N221 Co204 1.989 . S
N221 C220 1.342 . S
N221 N222 1.388 . S
N222 Co205 1.993 . S
N222 N221 1.388 . S
N222 C223 1.346 . S
C223 N222 1.346 . S
C223 C224 1.396 . S
C223 C233 1.510 . S
C224 C220 1.401 . S
C224 C223 1.396 . S
C225 C220 1.499 . S
C225 H226 0.959 . S
C225 H227 0.960 . S
C225 H228 0.961 . S
H226 C225 0.959 . S
H227 C225 0.960 . S
H228 C225 0.961 . S
O229 Co204 1.967 . S
O229 C237 1.258 . S
O230 Co205 1.941 . S
O230 C237 1.266 . S
H231 C233 0.959 1_565 S
H232 C233 0.961 1_565 S
C233 C223 1.510 . S
C233 H231 0.959 1_545 S
C233 H232 0.961 1_545 S
C233 H234 0.960 . S
H234 C233 0.960 . S
H235 N215 0.862 . S
O236 Co204 1.920 . S
O236 C209 1.289 . S
C237 O229 1.258 . S
C237 O230 1.266 . S
Co238 O241 1.970 . S
Co238 N255 1.989 . S
Co238 O263 1.967 . S
Co238 O270 1.920 . S
Co239 O242 1.966 . S
Co239 N248 2.022 . S
Co239 N256 1.993 . S
Co239 O264 1.941 . S
C240 O241 1.258 . S
C240 O242 1.263 . S
O241 Co238 1.970 . S
O241 C240 1.258 . S
O242 Co239 1.966 . S
O242 C240 1.263 . S
C243 O244 1.235 . S
C243 O270 1.289 . S
O244 C243 1.235 . S
C245 C247 1.400 . S
C245 N248 1.351 . S
C245 C250 1.501 . S
C246 C247 1.387 . S
C246 N249 1.341 . S
C247 C245 1.400 . S
C247 C246 1.387 . S
N248 Co239 2.022 . S
N248 C245 1.351 . S
N248 N249 1.365 . S
N249 C246 1.341 . S
N249 N248 1.365 . S
N249 H269 0.862 . S
C250 C245 1.501 . S
C250 H251 0.961 . S
C250 H252 0.961 . S
C250 H253 0.960 . S
H251 C250 0.961 . S
H252 C250 0.961 . S
H253 C250 0.960 . S
C254 N255 1.342 . S
C254 C258 1.401 . S
C254 C259 1.499 . S
N255 Co238 1.989 . S
N255 C254 1.342 . S
N255 N256 1.388 . S
N256 Co239 1.993 . S
N256 N255 1.388 . S
N256 C257 1.346 . S
C257 N256 1.346 . S
C257 C258 1.396 . S
C257 C267 1.510 . S
C258 C254 1.401 . S
C258 C257 1.396 . S
C259 C254 1.499 . S
C259 H260 0.959 . S
C259 H261 0.960 . S
C259 H262 0.961 . S
H260 C259 0.959 . S
H261 C259 0.960 . S
H262 C259 0.961 . S
O263 Co238 1.967 . S
O263 C271 1.258 . S
O264 Co239 1.941 . S
O264 C271 1.266 . S
H265 C267 0.959 1_455 S
H266 C267 0.961 1_455 S
C267 C257 1.510 . S
C267 H265 0.959 1_655 S
C267 H266 0.961 1_655 S
C267 H268 0.960 . S
H268 C267 0.960 . S
H269 N249 0.862 . S
O270 Co238 1.920 . S
O270 C243 1.289 . S
C271 O263 1.258 . S
C271 O264 1.266 . S
C272 C273 1.369 1_556 S
C272 C274 1.419 . S
C272 H276 0.930 . S
C273 C272 1.369 1_554 S
C273 C282 1.429 . S
C274 C272 1.419 . S
C274 C275 1.363 . S
C274 H277 0.929 . S
C275 C274 1.363 . S
C275 C281 1.428 1_556 S
H276 C272 0.930 . S
H277 C274 0.929 . S
S278 N279 1.613 . S
S278 N280 1.610 . S
N279 S278 1.613 . S
N279 C282 1.350 . S
N280 S278 1.610 . S
N280 C281 1.351 . S
C281 C275 1.428 1_554 S
C281 N280 1.351 . S
C281 C282 1.434 . S
C282 C273 1.429 . S
C282 N279 1.350 . S
C282 C281 1.434 . S
C283 C284 1.369 . S
C283 C285 1.419 . S
C283 H287 0.930 . S
C284 C283 1.369 . S
C284 C293 1.429 1_556 S
C285 C283 1.419 . S
C285 C286 1.363 1_556 S
C285 H288 0.929 . S
C286 C285 1.363 1_554 S
C286 C292 1.428 . S
H287 C283 0.930 . S
H288 C285 0.929 . S
S289 N290 1.613 . S
S289 N291 1.610 . S
N290 S289 1.613 . S
N290 C293 1.350 . S
N291 S289 1.610 . S
N291 C292 1.351 . S
C292 C286 1.428 . S
C292 N291 1.351 . S
C292 C293 1.434 . S
C293 C284 1.429 1_554 S
C293 N290 1.350 . S
C293 C292 1.434 . S
C294 C295 1.369 . S
C294 C296 1.419 . S
C294 H298 0.930 . S
C295 C294 1.369 . S
C295 C304 1.429 1_556 S
C296 C294 1.419 . S
C296 C297 1.363 1_556 S
C296 H299 0.929 . S
C297 C296 1.363 1_554 S
C297 C303 1.428 . S
H298 C294 0.930 . S
H299 C296 0.929 . S
S300 N301 1.613 . S
S300 N302 1.610 . S
N301 S300 1.613 . S
N301 C304 1.350 . S
N302 S300 1.610 . S
N302 C303 1.351 . S
C303 C297 1.428 . S
C303 N302 1.351 . S
C303 C304 1.434 . S
C304 C295 1.429 1_554 S
C304 N301 1.350 . S
C304 C303 1.434 . S
C305 C306 1.369 1_556 S
C305 C307 1.419 . S
C305 H309 0.930 . S
C306 C305 1.369 1_554 S
C306 C315 1.429 . S
C307 C305 1.419 . S
C307 C308 1.363 . S
C307 H310 0.929 . S
C308 C307 1.363 . S
C308 C314 1.428 1_556 S
H309 C305 0.930 . S
H310 C307 0.929 . S
S311 N312 1.613 . S
S311 N313 1.610 . S
N312 S311 1.613 . S
N312 C315 1.350 . S
N313 S311 1.610 . S
N313 C314 1.351 . S
C314 C308 1.428 1_554 S
C314 N313 1.351 . S
C314 C315 1.434 . S
C315 C306 1.429 . S
C315 N312 1.350 . S
C315 C314 1.434 . S
C316 C317 1.369 . S
C316 C318 1.419 . S
C316 H320 0.930 . S
C317 C316 1.369 . S
C317 C326 1.429 . S
C318 C316 1.419 . S
C318 C319 1.363 . S
C318 H321 0.929 . S
C319 C318 1.363 . S
C319 C325 1.428 . S
H320 C316 0.930 . S
H321 C318 0.929 . S
S322 N323 1.613 . S
S322 N324 1.610 1_455 S
N323 S322 1.613 . S
N323 C326 1.350 1_455 S
N324 S322 1.610 1_655 S
N324 C325 1.351 . S
C325 C319 1.428 . S
C325 N324 1.351 . S
C325 C326 1.434 . S
C326 C317 1.429 . S
C326 N323 1.350 1_655 S
C326 C325 1.434 . S
C327 C328 1.369 . S
C327 C329 1.419 . S
C327 H331 0.930 . S
C328 C327 1.369 . S
C328 C337 1.429 . S
C329 C327 1.419 . S
C329 C330 1.363 . S
C329 H332 0.929 . S
C330 C329 1.363 . S
C330 C336 1.428 . S
H331 C327 0.930 . S
H332 C329 0.929 . S
S333 N334 1.613 1_565 S
S333 N335 1.610 . S
N334 S333 1.613 1_545 S
N334 C337 1.350 1_545 S
N335 S333 1.610 . S
N335 C336 1.351 . S
C336 C330 1.428 . S
C336 N335 1.351 . S
C336 C337 1.434 . S
C337 C328 1.429 . S
C337 N334 1.350 1_565 S
C337 C336 1.434 . S
C338 C339 1.369 . S
C338 C340 1.419 . S
C338 H342 0.930 . S
C339 C338 1.369 . S
C339 C348 1.429 . S
C340 C338 1.419 . S
C340 C341 1.363 . S
C340 H343 0.929 . S
C341 C340 1.363 . S
C341 C347 1.428 . S
H342 C338 0.930 . S
H343 C340 0.929 . S
S344 N345 1.613 1_655 S
S344 N346 1.610 . S
N345 S344 1.613 1_455 S
N345 C348 1.350 . S
N346 S344 1.610 . S
N346 C347 1.351 1_655 S
C347 C341 1.428 . S
C347 N346 1.351 1_455 S
C347 C348 1.434 . S
C348 C339 1.429 . S
C348 N345 1.350 . S
C348 C347 1.434 . S
C349 C350 1.369 . S
C349 C351 1.419 . S
C349 H353 0.930 . S
C350 C349 1.369 . S
C350 C359 1.429 . S
C351 C349 1.419 . S
C351 C352 1.363 . S
C351 H354 0.929 . S
C352 C351 1.363 . S
C352 C358 1.428 . S
H353 C349 0.930 . S
H354 C351 0.929 . S
S355 N356 1.613 1_565 S
S355 N357 1.610 . S
N356 S355 1.613 1_545 S
N356 C359 1.350 . S
N357 S355 1.610 . S
N357 C358 1.351 1_565 S
C358 C352 1.428 . S
C358 N357 1.351 1_545 S
C358 C359 1.434 . S
C359 C350 1.429 . S
C359 N356 1.350 . S
C359 C358 1.434 . S
C360 C361 1.369 . S
C360 C362 1.419 . S
C360 H364 0.930 . S
C361 C360 1.369 . S
C361 C370 1.429 . S
C362 C360 1.419 . S
C362 C363 1.363 . S
C362 H365 0.929 . S
C363 C362 1.363 . S
C363 C369 1.428 . S
H364 C360 0.930 . S
H365 C362 0.929 . S
S366 N367 1.613 . S
S366 N368 1.610 . S
N367 S366 1.613 . S
N367 C370 1.350 . S
N368 S366 1.610 . S
N368 C369 1.351 . S
C369 C363 1.428 . S
C369 N368 1.351 . S
C369 C370 1.434 . S
C370 C361 1.429 . S
C370 N367 1.350 . S
C370 C369 1.434 . S
C371 C372 1.369 . S
C371 C373 1.419 . S
C371 H375 0.930 . S
C372 C371 1.369 . S
C372 C381 1.429 . S
C373 C371 1.419 . S
C373 C374 1.363 . S
C373 H376 0.929 . S
C374 C373 1.363 . S
C374 C380 1.428 . S
H375 C371 0.930 . S
H376 C373 0.929 . S
S377 N378 1.613 . S
S377 N379 1.610 . S
N378 S377 1.613 . S
N378 C381 1.350 . S
N379 S377 1.610 . S
N379 C380 1.351 . S
C380 C374 1.428 . S
C380 N379 1.351 . S
C380 C381 1.434 . S
C381 C372 1.429 . S
C381 N378 1.350 . S
C381 C380 1.434 . S
C382 C383 1.369 . S
C382 C384 1.419 . S
C382 H386 0.930 . S
C383 C382 1.369 . S
C383 C392 1.429 . S
C384 C382 1.419 . S
C384 C385 1.363 . S
C384 H387 0.929 . S
C385 C384 1.363 . S
C385 C391 1.428 . S
H386 C382 0.930 . S
H387 C384 0.929 . S
S388 N389 1.613 . S
S388 N390 1.610 . S
N389 S388 1.613 . S
N389 C392 1.350 . S
N390 S388 1.610 . S
N390 C391 1.351 . S
C391 C385 1.428 . S
C391 N390 1.351 . S
C391 C392 1.434 . S
C392 C383 1.429 . S
C392 N389 1.350 . S
C392 C391 1.434 . S
C393 C394 1.369 . S
C393 C395 1.419 . S
C393 H397 0.930 . S
C394 C393 1.369 . S
C394 C403 1.429 . S
C395 C393 1.419 . S
C395 C396 1.363 . S
C395 H398 0.929 . S
C396 C395 1.363 . S
C396 C402 1.428 . S
H397 C393 0.930 . S
H398 C395 0.929 . S
S399 N400 1.613 . S
S399 N401 1.610 . S
N400 S399 1.613 . S
N400 C403 1.350 . S
N401 S399 1.610 . S
N401 C402 1.351 . S
C402 C396 1.428 . S
C402 N401 1.351 . S
C402 C403 1.434 . S
C403 C394 1.429 . S
C403 N400 1.350 . S
C403 C402 1.434 . S
C404 C405 1.369 . S
C404 C406 1.419 . S
C404 H408 0.930 . S
C405 C404 1.369 . S
C405 C414 1.429 . S
C406 C404 1.419 . S
C406 C407 1.363 . S
C406 H409 0.929 . S
C407 C406 1.363 . S
C407 C413 1.428 . S
H408 C404 0.930 . S
H409 C406 0.929 . S
S410 N411 1.613 . S
S410 N412 1.610 . S
N411 S410 1.613 . S
N411 C414 1.350 . S
N412 S410 1.610 . S
N412 C413 1.351 . S
C413 C407 1.428 . S
C413 N412 1.351 . S
C413 C414 1.434 . S
C414 C405 1.429 . S
C414 N411 1.350 . S
C414 C413 1.434 . S
C415 C416 1.369 . S
C415 C417 1.419 . S
C415 H419 0.930 . S
C416 C415 1.369 . S
C416 C425 1.429 . S
C417 C415 1.419 . S
C417 C418 1.363 . S
C417 H420 0.929 . S
C418 C417 1.363 . S
C418 C424 1.428 . S
H419 C415 0.930 . S
H420 C417 0.929 . S
S421 N422 1.613 . S
S421 N423 1.610 . S
N422 S421 1.613 . S
N422 C425 1.350 . S
N423 S421 1.610 . S
N423 C424 1.351 . S
C424 C418 1.428 . S
C424 N423 1.351 . S
C424 C425 1.434 . S
C425 C416 1.429 . S
C425 N422 1.350 . S
C425 C424 1.434 . S
C426 C427 1.369 . S
C426 C428 1.419 . S
C426 H430 0.930 . S
C427 C426 1.369 . S
C427 C436 1.429 . S
C428 C426 1.419 . S
C428 C429 1.363 . S
C428 H431 0.929 . S
C429 C428 1.363 . S
C429 C435 1.428 . S
H430 C426 0.930 . S
H431 C428 0.929 . S
S432 N433 1.613 . S
S432 N434 1.610 . S
N433 S432 1.613 . S
N433 C436 1.350 . S
N434 S432 1.610 . S
N434 C435 1.351 . S
C435 C429 1.428 . S
C435 N434 1.351 . S
C435 C436 1.434 . S
C436 C427 1.429 . S
C436 N433 1.350 . S
C436 C435 1.434 . S
C437 C438 1.369 . S
C437 C439 1.419 . S
C437 H441 0.930 . S
C438 C437 1.369 . S
C438 C447 1.429 . S
C439 C437 1.419 . S
C439 C440 1.363 . S
C439 H442 0.929 . S
C440 C439 1.363 . S
C440 C446 1.428 . S
H441 C437 0.930 . S
H442 C439 0.929 . S
S443 N444 1.613 . S
S443 N445 1.610 . S
N444 S443 1.613 . S
N444 C447 1.350 . S
N445 S443 1.610 . S
N445 C446 1.351 . S
C446 C440 1.428 . S
C446 N445 1.351 . S
C446 C447 1.434 . S
C447 C438 1.429 . S
C447 N444 1.350 . S
C447 C446 1.434 . S
C448 C449 1.369 . S
C448 C450 1.419 . S
C448 H452 0.930 . S
C449 C448 1.369 . S
C449 C458 1.429 1_655 S
C450 C448 1.419 . S
C450 C451 1.363 1_655 S
C450 H453 0.929 . S
C451 C450 1.363 1_455 S
C451 C457 1.428 . S
H452 C448 0.930 . S
H453 C450 0.929 . S
S454 N455 1.613 1_554 S
S454 N456 1.610 1_554 S
N455 S454 1.613 1_556 S
N455 C458 1.350 . S
N456 S454 1.610 1_556 S
N456 C457 1.351 . S
C457 C451 1.428 . S
C457 N456 1.351 . S
C457 C458 1.434 . S
C458 C449 1.429 1_455 S
C458 N455 1.350 . S
C458 C457 1.434 . S
C459 C460 1.369 1_565 S
C459 C461 1.419 . S
C459 H463 0.930 . S
C460 C459 1.369 1_545 S
C460 C469 1.429 . S
C461 C459 1.419 . S
C461 C462 1.363 . S
C461 H464 0.929 . S
C462 C461 1.363 . S
C462 C468 1.428 1_565 S
H463 C459 0.930 . S
H464 C461 0.929 . S
S465 N466 1.613 1_554 S
S465 N467 1.610 1_554 S
N466 S465 1.613 1_556 S
N466 C469 1.350 . S
N467 S465 1.610 1_556 S
N467 C468 1.351 . S
C468 C462 1.428 1_545 S
C468 N467 1.351 . S
C468 C469 1.434 . S
C469 C460 1.429 . S
C469 N466 1.350 . S
C469 C468 1.434 . S
C470 C471 1.369 . S
C470 C472 1.419 . S
C470 H474 0.930 . S
C471 C470 1.369 . S
C471 C480 1.429 1_545 S
C472 C470 1.419 . S
C472 C473 1.363 1_545 S
C472 H475 0.929 . S
C473 C472 1.363 1_565 S
C473 C479 1.428 . S
H474 C470 0.930 . S
H475 C472 0.929 . S
S476 N477 1.613 . S
S476 N478 1.610 . S
N477 S476 1.613 . S
N477 C480 1.350 . S
N478 S476 1.610 . S
N478 C479 1.351 . S
C479 C473 1.428 . S
C479 N478 1.351 . S
C479 C480 1.434 . S
C480 C471 1.429 1_565 S
C480 N477 1.350 . S
C480 C479 1.434 . S
C481 C482 1.369 1_655 S
C481 C483 1.419 . S
C481 H485 0.930 . S
C482 C481 1.369 1_455 S
C482 C491 1.429 . S
C483 C481 1.419 . S
C483 C484 1.363 . S
C483 H486 0.929 . S
C484 C483 1.363 . S
C484 C490 1.428 1_655 S
H485 C481 0.930 . S
H486 C483 0.929 . S
S487 N488 1.613 . S
S487 N489 1.610 . S
N488 S487 1.613 . S
N488 C491 1.350 . S
N489 S487 1.610 . S
N489 C490 1.351 . S
C490 C484 1.428 1_455 S
C490 N489 1.351 . S
C490 C491 1.434 . S
C491 C482 1.429 . S
C491 N488 1.350 . S
C491 C490 1.434 . S
C273 C54 0.955 . S
C275 C5 0.975 . S
C284 C39 0.977 . S
C286 C88 0.951 . S
C295 C73 0.979 . S
C297 C122 0.947 . S
C306 C20 0.955 . S
C308 C107 0.975 . S
C317 C190 0.940 1_655 S
C319 C141 0.981 . S
C328 C224 0.950 1_565 S
C330 C175 0.978 . S
C339 C209 0.981 . S
C341 C258 0.941 1_455 S
C350 C243 0.981 . S
C352 C156 0.941 1_545 S
C361 C206 1.562 . S
C363 C33 1.594 . S
C372 C67 1.593 . S
C374 C240 1.566 . S
C383 C101 1.593 . S
C385 C138 1.566 . S
C394 C135 1.593 . S
C396 C172 1.566 . S
C405 C169 1.593 . S
C407 C70 1.567 . S
C416 C203 1.595 . S
C418 C104 1.565 . S
C427 C237 1.597 . S
C429 C2 1.563 . S
C438 C36 1.561 . S
C440 C271 1.598 . S
C449 C77 1.918 . S
C451 C9 1.916 . S
C460 C43 1.913 . S
C462 C111 1.915 . S
C471 C213 1.912 . S
C473 C145 1.914 . S
C482 C179 1.921 . S
C484 C247 1.919 . S
