# Generated by pormake.
# Topology sml, (6)-cn, num edge types: 1
# Building blocks:
#     Node 0, Type 0, BuildingBlock: BETFEN_clean_sbu_0, # of connection points: 6
#     Node 1, Type 0, BuildingBlock: BETFEN_clean_sbu_0, # of connection points: 6
#     Node 2, Type 0, BuildingBlock: BETFEN_clean_sbu_0, # of connection points: 6
#     Node 3, Type 0, BuildingBlock: BETFEN_clean_sbu_0, # of connection points: 6
#     Node 4, Type 0, BuildingBlock: BETFEN_clean_sbu_0, # of connection points: 6
#     Node 5, Type 0, BuildingBlock: BETFEN_clean_sbu_0, # of connection points: 6
#     Edge 6, Type (0, 0), BuildingBlock: OJICUG_clean_linker_0, # of connection points: 2
#     Edge 7, Type (0, 0), BuildingBlock: OJICUG_clean_linker_0, # of connection points: 2
#     Edge 8, Type (0, 0), BuildingBlock: OJICUG_clean_linker_0, # of connection points: 2
#     Edge 9, Type (0, 0), BuildingBlock: OJICUG_clean_linker_0, # of connection points: 2
#     Edge 10, Type (0, 0), BuildingBlock: OJICUG_clean_linker_0, # of connection points: 2
#     Edge 11, Type (0, 0), BuildingBlock: OJICUG_clean_linker_0, # of connection points: 2
#     Edge 12, Type (0, 0), BuildingBlock: OJICUG_clean_linker_0, # of connection points: 2
#     Edge 13, Type (0, 0), BuildingBlock: OJICUG_clean_linker_0, # of connection points: 2
#     Edge 14, Type (0, 0), BuildingBlock: OJICUG_clean_linker_0, # of connection points: 2
#     Edge 15, Type (0, 0), BuildingBlock: OJICUG_clean_linker_0, # of connection points: 2
#     Edge 16, Type (0, 0), BuildingBlock: OJICUG_clean_linker_0, # of connection points: 2
#     Edge 17, Type (0, 0), BuildingBlock: OJICUG_clean_linker_0, # of connection points: 2
#     Edge 18, Type (0, 0), BuildingBlock: OJICUG_clean_linker_0, # of connection points: 2
#     Edge 19, Type (0, 0), BuildingBlock: OJICUG_clean_linker_0, # of connection points: 2
#     Edge 20, Type (0, 0), BuildingBlock: OJICUG_clean_linker_0, # of connection points: 2
#     Edge 21, Type (0, 0), BuildingBlock: OJICUG_clean_linker_0, # of connection points: 2
#     Edge 22, Type (0, 0), BuildingBlock: OJICUG_clean_linker_0, # of connection points: 2
#     Edge 23, Type (0, 0), BuildingBlock: OJICUG_clean_linker_0, # of connection points: 2
# Relax obj value: 0.267
# Max RMSD: 0.272
# Mean RMSD: 0.271
data_MOF--net-sml--node1-BETFEN_clean_sbu_0--edge1-OJICUG_clean_linker_0
_symmetry_space_group_name_H-M    P1
_symmetry_Int_Tables_number       1
_symmetry_cell_setting            triclinic
loop_
_symmetry_equiv_pos_as_xyz
'x, y, z'
_cell_length_a     21.556832
_cell_length_b     21.470394
_cell_length_c     20.718864
_cell_angle_alpha  89.621786
_cell_angle_beta   90.028219
_cell_angle_gamma 120.05297
loop_
_atom_site_label
_atom_site_type_symbol
_atom_site_fract_x
_atom_site_fract_y
_atom_site_fract_z
_atom_type_partial_charge
Pr0 Pr 0.28003 0.42652 0.26171 0.0
Pr1 Pr 0.16632 0.40052 0.14992 0.0
C2 C 0.34556 0.45137 0.37709 0.0
C3 C 0.32291 0.44162 0.44547 0.0
C4 C 0.26037 0.37956 0.46625 0.0
C5 C 0.23715 0.3727 0.53027 0.0
C6 C 0.2761 0.42769 0.57502 0.0
C7 C 0.3395 0.48925 0.55433 0.0
C8 C 0.36253 0.49616 0.49012 0.0
C9 C 0.2814 0.34552 0.15884 0.0
C10 C 0.10469 0.29905 0.27682 0.0
C11 C 0.09972 0.37924 0.03546 0.0
C12 C 0.12345 0.38983 0.96734 0.0
C13 C 0.1887 0.44988 0.94814 0.0
C14 C 0.21289 0.4568 0.88441 0.0
C15 C 0.17258 0.40367 0.83848 0.0
C16 C 0.10685 0.34402 0.85784 0.0
C17 C 0.08263 0.33722 0.92159 0.0
C18 C 0.1665 0.47937 0.25582 0.0
C19 C 0.34097 0.52714 0.13209 0.0
O20 O 0.3395 0.50074 0.34484 0.0
O21 O 0.3265 0.39288 0.34364 0.0
O22 O 0.22623 0.34329 0.18199 0.0
O23 O 0.33778 0.38434 0.19395 0.0
O24 O 0.09381 0.30228 0.21453 0.0
O25 O 0.16621 0.34426 0.30502 0.0
O26 O 0.10334 0.32799 0.06683 0.0
O27 O 0.12032 0.43728 0.06996 0.0
O28 O 0.22106 0.4844 0.22858 0.0
O29 O 0.10803 0.43635 0.22472 0.0
O30 O 0.35661 0.52071 0.19263 0.0
O31 O 0.27719 0.48587 0.10655 0.0
H32 H 0.22911 0.33655 0.43286 0.0
H33 H 0.18869 0.32418 0.54478 0.0
H34 H 0.37043 0.53285 0.58739 0.0
H35 H 0.41082 0.54461 0.47509 0.0
H36 H 0.22158 0.49109 0.98255 0.0
H37 H 0.26319 0.50392 0.87113 0.0
H38 H 0.07479 0.30162 0.82411 0.0
H39 H 0.03248 0.29016 0.93544 0.0
Pr40 Pr 0.68838 0.11886 0.46564 0.0
Pr41 Pr 0.8048 0.19288 0.57648 0.0
C42 C 0.61923 0.08004 0.3519 0.0
C43 C 0.64011 0.08801 0.28318 0.0
C44 C 0.69978 0.08317 0.26324 0.0
C45 C 0.72099 0.09383 0.19845 0.0
C46 C 0.68285 0.10935 0.15198 0.0
C47 C 0.62231 0.11299 0.17215 0.0
C48 C 0.60136 0.10263 0.23712 0.0
C49 C 0.67774 0.03 0.56874 0.0
C50 C 0.86126 0.16101 0.44414 0.0
C51 C 0.86851 0.22225 0.69281 0.0
C52 C 0.84135 0.20724 0.75981 0.0
C53 C 0.7749 0.20068 0.77545 0.0
C54 C 0.74793 0.18328 0.83839 0.0
C55 C 0.7867 0.17176 0.88702 0.0
C56 C 0.85309 0.178 0.8711 0.0
C57 C 0.88014 0.19563 0.80806 0.0
C58 C 0.81079 0.28326 0.47663 0.0
C59 C 0.6375 0.16563 0.59547 0.0
O60 O 0.63308 0.13924 0.38177 0.0
O61 O 0.63275 0.03716 0.38694 0.0
O62 O 0.73529 0.07736 0.54279 0.0
O63 O 0.62284 0.02185 0.53573 0.0
O64 O 0.87311 0.1682 0.50681 0.0
O65 O 0.79999 0.14935 0.41861 0.0
O66 O 0.85634 0.16591 0.6591 0.0
O67 O 0.85825 0.26868 0.65993 0.0
O68 O 0.75459 0.23383 0.50257 0.0
O69 O 0.86814 0.29224 0.50616 0.0
O70 O 0.62081 0.1485 0.53418 0.0
O71 O 0.69817 0.17656 0.62108 0.0
H72 H 0.73063 0.07201 0.2979 0.0
H73 H 0.76843 0.09165 0.1852 0.0
H74 H 0.59077 0.12349 0.13774 0.0
H75 H 0.55493 0.10627 0.25144 0.0
H76 H 0.74355 0.20867 0.73902 0.0
H77 H 0.69623 0.17795 0.84879 0.0
H78 H 0.88459 0.17016 0.90758 0.0
H79 H 0.93126 0.19993 0.79693 0.0
Pr80 Pr 0.56538 0.87356 0.9418 0.0
Pr81 Pr 0.60963 0.80144 0.83062 0.0
C82 C 0.52997 0.90596 0.05636 0.0
C83 C 0.53855 0.89066 0.12404 0.0
C84 C 0.51965 0.92133 0.1743 0.0
C85 C 0.52938 0.90785 0.23869 0.0
C86 C 0.55878 0.86391 0.25374 0.0
C87 C 0.57676 0.83262 0.20293 0.0
C88 C 0.56639 0.84561 0.13877 0.0
C89 C 0.64534 0.96539 0.84109 0.0
C90 C 0.69866 0.83466 0.96241 0.0
C91 C 0.6432 0.76909 0.71513 0.0
C92 C 0.62912 0.78106 0.64795 0.0
C93 C 0.6482 0.75172 0.59671 0.0
C94 C 0.63589 0.76438 0.53284 0.0
C95 C 0.60417 0.80661 0.51914 0.0
C96 C 0.58437 0.83506 0.57098 0.0
C97 C 0.59688 0.82253 0.63464 0.0
C98 C 0.52545 0.71036 0.9302 0.0
C99 C 0.47045 0.82974 0.8102 0.0
O100 O 0.48539 0.85032 1.02205 0.0
O101 O 0.5893 0.94939 0.02541 0.0
O102 O 0.65478 0.91679 0.86564 0.0
O103 O 0.59869 0.97327 0.8746 0.0
O104 O 0.70355 0.82815 0.89968 0.0
O105 O 0.64797 0.8445 0.98816 0.0
O106 O 0.68662 0.8271 0.74733 0.0
O107 O 0.58724 0.72336 0.74892 0.0
O108 O 0.51809 0.75931 0.90391 0.0
O109 O 0.5749 0.70253 0.90148 0.0
O110 O 0.47027 0.84645 0.87148 0.0
O111 O 0.51995 0.8182 0.78504 0.0
H112 H 0.49773 0.95597 0.16376 0.0
H113 H 0.51511 0.93288 0.27661 0.0
H114 H 0.59809 0.79734 0.21272 0.0
H115 H 0.58002 0.82036 0.1006 0.0
H116 H 0.67271 0.71916 0.60609 0.0
H117 H 0.6506 0.74053 0.4942 0.0
H118 H 0.56043 0.86826 0.56244 0.0
H119 H 0.58208 0.84599 0.67346 0.0
Pr120 Pr 0.84969 0.56774 0.14536 0.0
Pr121 Pr 0.76255 0.59468 0.25652 0.0
C122 C 0.89083 0.5436 0.02997 0.0
C123 C 0.87857 0.55398 0.96148 0.0
C124 C 0.88334 0.61841 0.9398 0.0
C125 C 0.86752 0.62586 0.87568 0.0
C126 C 0.8468 0.56915 0.83174 0.0
C127 C 0.84334 0.50518 0.85334 0.0
C128 C 0.8589 0.49767 0.91759 0.0
C129 C 0.93196 0.64713 0.24888 0.0
C130 C 0.80378 0.69674 0.12996 0.0
C131 C 0.71827 0.61712 0.37096 0.0
C132 C 0.73222 0.60733 0.43912 0.0
C133 C 0.73285 0.54512 0.4597 0.0
C134 C 0.75057 0.53863 0.52342 0.0
C135 C 0.76852 0.59435 0.56794 0.0
C136 C 0.76748 0.6564 0.54712 0.0
C137 C 0.74952 0.66274 0.48343 0.0
C138 C 0.68358 0.5164 0.15032 0.0
C139 C 0.80919 0.46687 0.27482 0.0
O140 O 0.83522 0.49407 0.0618 0.0
O141 O 0.9302 0.60166 0.06391 0.0
O142 O 0.87981 0.65075 0.22549 0.0
O143 O 0.94887 0.60787 0.21363 0.0
O144 O 0.78942 0.69352 0.19217 0.0
O145 O 0.81946 0.65098 0.10192 0.0
O146 O 0.77262 0.66807 0.33901 0.0
O147 O 0.6805 0.55877 0.33693 0.0
O148 O 0.7327 0.51065 0.17769 0.0
O149 O 0.66868 0.55984 0.18148 0.0
O150 O 0.83109 0.473 0.21427 0.0
O151 O 0.78714 0.50863 0.30027 0.0
H152 H 0.89863 0.66283 0.97253 0.0
H153 H 0.87166 0.67617 0.86047 0.0
H154 H 0.82685 0.46019 0.82099 0.0
H155 H 0.85453 0.44737 0.93328 0.0
H156 H 0.7205 0.50176 0.42641 0.0
H157 H 0.74997 0.48974 0.53781 0.0
H158 H 0.78212 0.70088 0.57965 0.0
H159 H 0.75039 0.71161 0.46842 0.0
Pr160 Pr 0.13551 0.7016 0.60342 0.0
Pr161 Pr 0.21846 0.81929 0.49165 0.0
C162 C 0.09918 0.63497 0.7193 0.0
C163 C 0.11138 0.65678 0.78789 0.0
C164 C 0.10204 0.71315 0.8104 0.0
C165 C 0.11659 0.73514 0.87476 0.0
C166 C 0.14089 0.70135 0.91823 0.0
C167 C 0.14952 0.6444 0.89561 0.0
C168 C 0.1349 0.62241 0.83116 0.0
C169 C 0.05002 0.69988 0.50238 0.0
C170 C 0.17773 0.87524 0.62012 0.0
C171 C 0.25975 0.88631 0.37633 0.0
C172 C 0.24723 0.86104 0.3087 0.0
C173 C 0.25148 0.80029 0.29035 0.0
C174 C 0.23518 0.77431 0.22717 0.0
C175 C 0.2136 0.80802 0.18109 0.0
C176 C 0.20983 0.86904 0.19954 0.0
C177 C 0.22659 0.89529 0.26264 0.0
C178 C 0.30023 0.8223 0.59626 0.0
C179 C 0.17581 0.64575 0.47287 0.0
O180 O 0.15543 0.6447 0.68659 0.0
O181 O 0.05706 0.65086 0.68608 0.0
O182 O 0.10249 0.7553 0.52573 0.0
O183 O 0.03474 0.64264 0.53626 0.0
O184 O 0.18995 0.88775 0.55765 0.0
O185 O 0.16423 0.81371 0.64746 0.0
O186 O 0.20371 0.8791 0.40765 0.0
O187 O 0.30046 0.87034 0.41158 0.0
O188 O 0.25205 0.76628 0.5694 0.0
O189 O 0.31247 0.88048 0.5654 0.0
O190 O 0.15397 0.62772 0.53321 0.0
O191 O 0.19703 0.71015 0.44831 0.0
H192 H 0.08428 0.74091 0.77811 0.0
H193 H 0.11029 0.77981 0.89002 0.0
H194 H 0.16723 0.61648 0.92778 0.0
H195 H 0.14246 0.57876 0.81496 0.0
H196 H 0.26625 0.77205 0.32505 0.0
H197 H 0.23781 0.72673 0.21484 0.0
H198 H 0.19412 0.89672 0.16509 0.0
H199 H 0.2225 0.94187 0.27573 0.0
Pr200 Pr 0.42764 0.28953 0.80442 0.0
Pr201 Pr 0.39639 0.17282 0.91569 0.0
C202 C 0.45312 0.3535 0.68766 0.0
C203 C 0.44668 0.32865 0.62035 0.0
C204 C 0.42462 0.35897 0.57172 0.0
C205 C 0.41664 0.33444 0.50807 0.0
C206 C 0.43071 0.27905 0.49168 0.0
C207 C 0.45286 0.2489 0.54085 0.0
C208 C 0.46032 0.27311 0.60444 0.0
C209 C 0.34388 0.29015 0.9056 0.0
C210 C 0.29886 0.11535 0.78823 0.0
C211 C 0.37287 0.10432 0.03019 0.0
C212 C 0.38404 0.12784 0.09823 0.0
C213 C 0.44361 0.19367 0.11631 0.0
C214 C 0.45147 0.2175 0.18009 0.0
C215 C 0.39978 0.17622 0.22727 0.0
C216 C 0.34052 0.10997 0.20898 0.0
C217 C 0.33279 0.08611 0.14514 0.0
C218 C 0.47512 0.1713 0.81021 0.0
C219 C 0.52371 0.34748 0.93487 0.0
O220 O 0.50319 0.35234 0.72279 0.0
O221 O 0.39281 0.33126 0.71906 0.0
O222 O 0.34188 0.23499 0.88256 0.0
O223 O 0.38431 0.34733 0.87113 0.0
O224 O 0.29872 0.10343 0.85078 0.0
O225 O 0.34687 0.17655 0.76067 0.0
O226 O 0.32286 0.10984 0.99916 0.0
O227 O 0.43048 0.1238 0.99525 0.0
O228 O 0.48217 0.22686 0.83735 0.0
O229 O 0.42991 0.11284 0.84098 0.0
O230 O 0.51967 0.36494 0.87432 0.0
O231 O 0.48133 0.28296 0.95955 0.0
H232 H 0.41303 0.40129 0.58308 0.0
H233 H 0.39839 0.35819 0.47193 0.0
H234 H 0.46519 0.20695 0.53023 0.0
H235 H 0.47664 0.24824 0.64121 0.0
H236 H 0.48381 0.22722 0.08103 0.0
H237 H 0.49828 0.26824 0.19241 0.0
H238 H 0.29916 0.0772 0.24365 0.0
H239 H 0.28612 0.03549 0.13217 0.0
C240 C 0.33714 0.26827 0.02399 0.0
C241 C 0.31734 0.29366 0.96977 0.0
H242 H 0.34222 0.26634 0.12733 0.0
C243 C 0.27921 0.33002 0.97813 0.0
H244 H 0.36747 0.24123 1.01877 0.0
C245 C 0.26246 0.34209 0.04017 0.0
C246 C 0.2861 0.32049 0.09443 0.0
H247 H 0.26401 0.35059 0.93683 0.0
H248 H 0.23513 0.37218 0.04551 0.0
C249 C 0.32288 0.2828 0.08601 0.0
C250 C 0.05197 0.24553 0.3847 0.0
C251 C 0.04301 0.24999 0.31798 0.0
H252 H 0.00151 0.21232 0.47704 0.0
C253 C 0.97334 0.21388 0.29235 0.0
H254 H 0.10479 0.27196 0.40601 0.0
C255 C 0.91382 0.17971 0.33319 0.0
C256 C 0.92274 0.18058 0.40045 0.0
H257 H 0.96436 0.21564 0.24109 0.0
H258 H 0.86094 0.15646 0.31214 0.0
C259 C -0.00751 0.21096 0.42551 0.0
C260 C 0.72418 0.00562 0.67181 0.0
C261 C 0.67127 0.01254 0.63823 0.0
H262 H 0.75706 0.98392 0.76348 0.0
C263 C 0.61217 0.00618 0.67228 0.0
H264 H 0.77029 0.01038 0.64644 0.0
C265 C 0.60666 0.99507 0.73865 0.0
C266 C 0.65791 0.98575 0.77225 0.0
H267 H 0.57045 0.01097 0.64777 0.0
H268 H 0.56086 0.99163 0.76336 0.0
C269 C 0.71685 0.99095 0.73844 0.0
C270 C 0.73524 0.81874 0.07315 0.0
C271 C 0.74136 0.81582 1.00584 0.0
H272 H 0.75093 0.78401 0.16553 0.0
C273 C 0.7792 0.78376 0.98075 0.0
H274 H 0.70732 0.8439 0.09415 0.0
C275 C 0.80404 0.74917 1.0217 0.0
C276 C 0.79199 0.74629 0.08858 0.0
H277 H 0.78542 0.78089 0.92917 0.0
H278 H 0.82898 0.72121 1.0004 0.0
C279 C 0.76038 0.78437 0.11415 0.0
C280 C 0.94558 0.66193 0.4298 0.0
C281 C 0.01996 0.69651 0.43813 0.0
H282 H 0.85935 0.6221 0.36238 0.0
C283 C 0.06498 0.7209 0.38384 0.0
H284 H 0.90988 0.64216 0.47113 0.0
C285 C 0.03615 0.70733 0.32185 0.0
C286 C 0.9618 0.67153 0.31342 0.0
H287 H 0.12222 0.74659 0.38891 0.0
H288 H 0.07183 0.72306 0.28053 0.0
C289 C 0.91674 0.6508 0.36772 0.0
C290 C 0.21382 0.98443 0.77115 0.0
C291 C 0.25223 0.05469 0.74596 0.0
H292 H 0.15902 0.87206 0.75078 0.0
C293 C 0.25397 0.0651 0.67879 0.0
H294 H 0.21083 0.97451 0.82269 0.0
C295 C 0.22399 0.00622 0.63746 0.0
C296 C 0.19203 0.9359 0.6626 0.0
H297 H 0.28239 0.11864 0.6578 0.0
H298 H 0.23043 0.01617 0.58591 0.0
C299 C 0.18409 0.92555 0.72981 0.0
C300 C 0.15177 0.38957 0.71846 0.0
C301 C 0.1993 0.41002 0.77094 0.0
H302 H 0.13873 0.37982 0.61588 0.0
C303 C 0.27248 0.43619 0.75834 0.0
H304 H 0.0953 0.37022 0.72616 0.0
C305 C 0.29744 0.44194 0.69495 0.0
C306 C 0.24982 0.4214 0.64258 0.0
H307 H 0.31046 0.4512 0.79756 0.0
H308 H 0.35392 0.46145 0.687 0.0
C309 C 0.17669 0.39509 0.65515 0.0
C310 C 0.73729 0.0856 0.05397 0.0
C311 C 0.70737 0.12358 0.08328 0.0
H312 H 0.78464 0.07012 0.96906 0.0
C313 C 0.70271 0.17664 0.04681 0.0
H314 H 0.74048 0.04335 0.07993 0.0
C315 C 0.72771 0.19164 0.98311 0.0
C316 C 0.75839 0.15427 0.95424 0.0
H317 H 0.68131 0.20802 0.06789 0.0
H318 H 0.72454 0.23379 0.95693 0.0
C319 C 0.76251 0.10079 0.9903 0.0
C320 C 0.64416 0.83559 0.40331 0.0
C321 C 0.59251 0.82168 0.4512 0.0
H322 H 0.67468 0.86102 0.30411 0.0
C323 C 0.53003 0.82296 0.43372 0.0
H324 H 0.69354 0.83651 0.41519 0.0
C325 C 0.51932 0.83728 0.36994 0.0
C326 C 0.57072 0.85048 0.32201 0.0
H327 H 0.48866 0.81163 0.46911 0.0
H328 H 0.47004 0.83653 0.35793 0.0
C329 C 0.6334 0.84979 0.33957 0.0
C330 C 0.7853 0.60788 0.75097 0.0
C331 C 0.82744 0.57617 0.76407 0.0
H332 H 0.73258 0.6372 0.67951 0.0
C333 C 0.85023 0.55065 0.71213 0.0
H334 H 0.76592 0.6271 0.78991 0.0
C335 C 0.83133 0.55668 0.64868 0.0
C336 C 0.78888 0.5881 0.63555 0.0
H337 H 0.88358 0.52688 0.72043 0.0
H338 H 0.85092 0.5376 0.60981 0.0
C339 C 0.76618 0.61367 0.68759 0.0
C340 C 0.21845 0.73071 1.01743 0.0
C341 C 0.15832 0.72646 0.9864 0.0
H342 H 0.28345 0.76038 0.10256 0.0
C343 C 0.11583 0.74794 1.02061 0.0
H344 H 0.253 0.71559 0.99243 0.0
C345 C 0.13366 0.7741 0.08361 0.0
C346 C 0.19423 0.77918 0.11428 0.0
H347 H 0.06832 0.74404 0.99888 0.0
H348 H 0.09946 0.78967 0.10863 0.0
C349 C 0.23608 0.75659 0.0806 0.0
C350 C 0.44094 0.30058 0.37116 0.0
C351 C 0.42219 0.25265 0.42383 0.0
H352 H 0.4477 0.31428 0.26847 0.0
C353 C 0.39552 0.17922 0.41107 0.0
H354 H 0.46229 0.35756 0.37886 0.0
C355 C 0.38833 0.15454 0.34761 0.0
C356 C 0.40733 0.20251 0.29501 0.0
H357 H 0.37947 0.1404 0.45015 0.0
H358 H 0.36857 0.09782 0.33988 0.0
C359 C 0.4335 0.27584 0.30768 0.0
C360 C 0.23484 0.57319 0.33768 0.0
C361 C 0.16927 0.51584 0.31664 0.0
H362 H 0.28801 0.65883 0.40532 0.0
C363 C 0.10701 0.49509 0.35341 0.0
H364 H 0.28356 0.59033 0.31019 0.0
C365 C 0.11 0.53339 0.40898 0.0
C366 C 0.17511 0.59312 0.42776 0.0
H367 H 0.05588 0.45064 0.3383 0.0
H368 H 0.06087 0.51935 0.43466 0.0
C369 C 0.23758 0.6119 0.39237 0.0
C370 C 0.6156 0.23293 0.67985 0.0
C371 C 0.58812 0.17225 0.63998 0.0
H372 H 0.60056 0.28039 0.76461 0.0
C373 C 0.51992 0.11331 0.65303 0.0
H374 H 0.66849 0.27869 0.67094 0.0
C375 C 0.48228 0.11308 0.70828 0.0
C376 C 0.51159 0.17268 0.74973 0.0
H377 H 0.49799 0.06574 0.6232 0.0
H378 H 0.43107 0.06593 0.7193 0.0
C379 C 0.5772 0.23361 0.7337 0.0
C380 C 0.4593 0.58331 0.07471 0.0
C381 C 0.39505 0.58218 0.08892 0.0
H382 H 0.55105 0.62437 1.01176 0.0
C383 C 0.37641 0.62606 0.05314 0.0
H384 H 0.47385 0.54868 0.10091 0.0
C385 C 0.42016 0.66914 1.00292 0.0
C386 C 0.4827 0.66799 0.98639 0.0
H387 H 0.3266 0.62528 0.0628 0.0
H388 H 0.4035 0.70134 0.97545 0.0
C389 C 0.50271 0.62568 1.02332 0.0
C390 C 0.74656 0.32447 0.40378 0.0
C391 C 0.81032 0.3259 0.42061 0.0
H392 H 0.69676 0.36831 0.34373 0.0
C393 C 0.87274 0.36877 0.38412 0.0
H394 H 0.69765 0.29185 0.43092 0.0
C395 C 0.87163 0.41121 0.33277 0.0
C396 C 0.80838 0.41194 0.31817 0.0
H397 H 0.92247 0.37036 0.39594 0.0
H398 H 0.92083 0.44615 0.30687 0.0
C399 C 0.74586 0.36774 0.35364 0.0
C400 C 0.36829 0.88242 0.69653 0.0
C401 C 0.33622 0.8217 0.65645 0.0
H402 H 0.43329 0.93113 0.78028 0.0
C403 C 0.34015 0.76049 0.67346 0.0
H404 H 0.36492 0.92987 0.68473 0.0
C405 C 0.38007 0.7618 0.72693 0.0
C406 C 0.41478 0.82343 0.76548 0.0
H407 H 0.31547 0.7129 0.64357 0.0
H408 H 0.38641 0.71563 0.73665 0.0
C409 C 0.40656 0.88289 0.75141 0.0
C410 C 0.60618 0.49911 0.0538 0.0
C411 C 0.64882 0.47917 0.08997 0.0
H412 H 0.53422 0.47369 0.97354 0.0
C413 C 0.6571 0.42181 0.0688 0.0
H414 H 0.59937 0.54351 0.06901 0.0
C415 C 0.6203 0.38245 1.01463 0.0
C416 C 0.57565 0.40053 0.97981 0.0
H417 H 0.6895 0.40521 0.09578 0.0
H418 H 0.62412 0.33567 1.00159 0.0
C419 C 0.56999 0.46014 0.99874 0.0
loop_
_geom_bond_atom_site_label_1
_geom_bond_atom_site_label_2
_geom_bond_distance
_geom_bond_site_symmetry_2
_ccdc_geom_bond_type
Pr0 C2 2.880 . S
Pr0 O20 2.562 . S
Pr0 O21 2.490 . S
Pr0 O22 2.695 . S
Pr0 O23 2.512 . S
Pr0 O25 2.437 . S
Pr0 O28 2.436 . S
Pr0 O30 2.438 . S
Pr1 C11 2.880 1_554 S
Pr1 O22 2.436 . S
Pr1 O24 2.438 . S
Pr1 O26 2.562 1_554 S
Pr1 O27 2.490 1_554 S
Pr1 O28 2.695 . S
Pr1 O29 2.512 . S
Pr1 O31 2.437 . S
C2 Pr0 2.880 . S
C2 C3 1.491 . S
C2 O20 1.254 . S
C2 O21 1.225 . S
C3 C2 1.491 . S
C3 C4 1.392 . S
C3 C8 1.356 . S
C4 C3 1.392 . S
C4 C5 1.368 . S
C4 H32 0.929 . S
C5 C4 1.368 . S
C5 C6 1.386 . S
C5 H33 0.929 . S
C6 C5 1.386 . S
C6 C7 1.373 . S
C7 C6 1.373 . S
C7 C8 1.409 . S
C7 H34 0.931 . S
C8 C3 1.356 . S
C8 C7 1.409 . S
C8 H35 0.930 . S
C9 O22 1.270 . S
C9 O23 1.248 . S
C10 O24 1.267 . S
C10 O25 1.278 . S
C11 Pr1 2.880 1_556 S
C11 C12 1.491 . S
C11 O26 1.254 . S
C11 O27 1.225 . S
C12 C11 1.491 . S
C12 C13 1.392 . S
C12 C17 1.356 . S
C13 C12 1.392 . S
C13 C14 1.368 . S
C13 H36 0.929 . S
C14 C13 1.368 . S
C14 C15 1.386 . S
C14 H37 0.929 . S
C15 C14 1.386 . S
C15 C16 1.373 . S
C16 C15 1.373 . S
C16 C17 1.409 . S
C16 H38 0.931 . S
C17 C12 1.356 . S
C17 C16 1.409 . S
C17 H39 0.930 . S
C18 O28 1.270 . S
C18 O29 1.248 . S
C19 O30 1.267 . S
C19 O31 1.278 . S
O20 Pr0 2.562 . S
O20 C2 1.254 . S
O21 Pr0 2.490 . S
O21 C2 1.225 . S
O22 Pr0 2.695 . S
O22 Pr1 2.436 . S
O22 C9 1.270 . S
O23 Pr0 2.512 . S
O23 C9 1.248 . S
O24 Pr1 2.438 . S
O24 C10 1.267 . S
O25 Pr0 2.437 . S
O25 C10 1.278 . S
O26 Pr1 2.562 1_556 S
O26 C11 1.254 . S
O27 Pr1 2.490 1_556 S
O27 C11 1.225 . S
O28 Pr0 2.436 . S
O28 Pr1 2.695 . S
O28 C18 1.270 . S
O29 Pr1 2.512 . S
O29 C18 1.248 . S
O30 Pr0 2.438 . S
O30 C19 1.267 . S
O31 Pr1 2.437 . S
O31 C19 1.278 . S
H32 C4 0.929 . S
H33 C5 0.929 . S
H34 C7 0.931 . S
H35 C8 0.930 . S
H36 C13 0.929 . S
H37 C14 0.929 . S
H38 C16 0.931 . S
H39 C17 0.930 . S
Pr40 C42 2.880 . S
Pr40 O60 2.562 . S
Pr40 O61 2.490 . S
Pr40 O62 2.695 . S
Pr40 O63 2.512 . S
Pr40 O65 2.437 . S
Pr40 O68 2.436 . S
Pr40 O70 2.438 . S
Pr41 C51 2.880 . S
Pr41 O62 2.436 . S
Pr41 O64 2.438 . S
Pr41 O66 2.562 . S
Pr41 O67 2.490 . S
Pr41 O68 2.695 . S
Pr41 O69 2.512 . S
Pr41 O71 2.437 . S
C42 Pr40 2.880 . S
C42 C43 1.491 . S
C42 O60 1.254 . S
C42 O61 1.225 . S
C43 C42 1.491 . S
C43 C44 1.392 . S
C43 C48 1.356 . S
C44 C43 1.392 . S
C44 C45 1.368 . S
C44 H72 0.929 . S
C45 C44 1.368 . S
C45 C46 1.386 . S
C45 H73 0.929 . S
C46 C45 1.386 . S
C46 C47 1.373 . S
C47 C46 1.373 . S
C47 C48 1.409 . S
C47 H74 0.931 . S
C48 C43 1.356 . S
C48 C47 1.409 . S
C48 H75 0.930 . S
C49 O62 1.270 . S
C49 O63 1.248 . S
C50 O64 1.267 . S
C50 O65 1.278 . S
C51 Pr41 2.880 . S
C51 C52 1.491 . S
C51 O66 1.254 . S
C51 O67 1.225 . S
C52 C51 1.491 . S
C52 C53 1.392 . S
C52 C57 1.356 . S
C53 C52 1.392 . S
C53 C54 1.368 . S
C53 H76 0.929 . S
C54 C53 1.368 . S
C54 C55 1.386 . S
C54 H77 0.929 . S
C55 C54 1.386 . S
C55 C56 1.373 . S
C56 C55 1.373 . S
C56 C57 1.409 . S
C56 H78 0.931 . S
C57 C52 1.356 . S
C57 C56 1.409 . S
C57 H79 0.930 . S
C58 O68 1.270 . S
C58 O69 1.248 . S
C59 O70 1.267 . S
C59 O71 1.278 . S
O60 Pr40 2.562 . S
O60 C42 1.254 . S
O61 Pr40 2.490 . S
O61 C42 1.225 . S
O62 Pr40 2.695 . S
O62 Pr41 2.436 . S
O62 C49 1.270 . S
O63 Pr40 2.512 . S
O63 C49 1.248 . S
O64 Pr41 2.438 . S
O64 C50 1.267 . S
O65 Pr40 2.437 . S
O65 C50 1.278 . S
O66 Pr41 2.562 . S
O66 C51 1.254 . S
O67 Pr41 2.490 . S
O67 C51 1.225 . S
O68 Pr40 2.436 . S
O68 Pr41 2.695 . S
O68 C58 1.270 . S
O69 Pr41 2.512 . S
O69 C58 1.248 . S
O70 Pr40 2.438 . S
O70 C59 1.267 . S
O71 Pr41 2.437 . S
O71 C59 1.278 . S
H72 C44 0.929 . S
H73 C45 0.929 . S
H74 C47 0.931 . S
H75 C48 0.930 . S
H76 C53 0.929 . S
H77 C54 0.929 . S
H78 C56 0.931 . S
H79 C57 0.930 . S
Pr80 C82 2.880 . S
Pr80 O100 2.562 . S
Pr80 O101 2.490 . S
Pr80 O102 2.695 . S
Pr80 O103 2.512 . S
Pr80 O105 2.437 . S
Pr80 O108 2.436 . S
Pr80 O110 2.438 . S
Pr81 C91 2.880 . S
Pr81 O102 2.436 . S
Pr81 O104 2.438 . S
Pr81 O106 2.562 . S
Pr81 O107 2.490 . S
Pr81 O108 2.695 . S
Pr81 O109 2.512 . S
Pr81 O111 2.437 . S
C82 Pr80 2.880 . S
C82 C83 1.491 1_556 S
C82 O100 1.254 . S
C82 O101 1.225 . S
C83 C82 1.491 1_554 S
C83 C84 1.392 . S
C83 C88 1.356 . S
C84 C83 1.392 . S
C84 C85 1.368 . S
C84 H112 0.929 . S
C85 C84 1.368 . S
C85 C86 1.386 . S
C85 H113 0.929 . S
C86 C85 1.386 . S
C86 C87 1.373 . S
C87 C86 1.373 . S
C87 C88 1.409 . S
C87 H114 0.931 . S
C88 C83 1.356 . S
C88 C87 1.409 . S
C88 H115 0.930 . S
C89 O102 1.270 . S
C89 O103 1.248 . S
C90 O104 1.267 . S
C90 O105 1.278 . S
C91 Pr81 2.880 . S
C91 C92 1.491 . S
C91 O106 1.254 . S
C91 O107 1.225 . S
C92 C91 1.491 . S
C92 C93 1.392 . S
C92 C97 1.356 . S
C93 C92 1.392 . S
C93 C94 1.368 . S
C93 H116 0.929 . S
C94 C93 1.368 . S
C94 C95 1.386 . S
C94 H117 0.929 . S
C95 C94 1.386 . S
C95 C96 1.373 . S
C96 C95 1.373 . S
C96 C97 1.409 . S
C96 H118 0.931 . S
C97 C92 1.356 . S
C97 C96 1.409 . S
C97 H119 0.930 . S
C98 O108 1.270 . S
C98 O109 1.248 . S
C99 O110 1.267 . S
C99 O111 1.278 . S
O100 Pr80 2.562 . S
O100 C82 1.254 . S
O101 Pr80 2.490 . S
O101 C82 1.225 . S
O102 Pr80 2.695 . S
O102 Pr81 2.436 . S
O102 C89 1.270 . S
O103 Pr80 2.512 . S
O103 C89 1.248 . S
O104 Pr81 2.438 . S
O104 C90 1.267 . S
O105 Pr80 2.437 . S
O105 C90 1.278 . S
O106 Pr81 2.562 . S
O106 C91 1.254 . S
O107 Pr81 2.490 . S
O107 C91 1.225 . S
O108 Pr80 2.436 . S
O108 Pr81 2.695 . S
O108 C98 1.270 . S
O109 Pr81 2.512 . S
O109 C98 1.248 . S
O110 Pr80 2.438 . S
O110 C99 1.267 . S
O111 Pr81 2.437 . S
O111 C99 1.278 . S
H112 C84 0.929 . S
H113 C85 0.929 . S
H114 C87 0.931 . S
H115 C88 0.930 . S
H116 C93 0.929 . S
H117 C94 0.929 . S
H118 C96 0.931 . S
H119 C97 0.930 . S
Pr120 C122 2.880 . S
Pr120 O140 2.562 . S
Pr120 O141 2.490 . S
Pr120 O142 2.695 . S
Pr120 O143 2.512 . S
Pr120 O145 2.437 . S
Pr120 O148 2.436 . S
Pr120 O150 2.438 . S
Pr121 C131 2.880 . S
Pr121 O142 2.436 . S
Pr121 O144 2.438 . S
Pr121 O146 2.562 . S
Pr121 O147 2.490 . S
Pr121 O148 2.695 . S
Pr121 O149 2.512 . S
Pr121 O151 2.437 . S
C122 Pr120 2.880 . S
C122 C123 1.491 1_554 S
C122 O140 1.254 . S
C122 O141 1.225 . S
C123 C122 1.491 1_556 S
C123 C124 1.392 . S
C123 C128 1.356 . S
C124 C123 1.392 . S
C124 C125 1.368 . S
C124 H152 0.929 . S
C125 C124 1.368 . S
C125 C126 1.386 . S
C125 H153 0.929 . S
C126 C125 1.386 . S
C126 C127 1.373 . S
C127 C126 1.373 . S
C127 C128 1.409 . S
C127 H154 0.931 . S
C128 C123 1.356 . S
C128 C127 1.409 . S
C128 H155 0.930 . S
C129 O142 1.270 . S
C129 O143 1.248 . S
C130 O144 1.267 . S
C130 O145 1.278 . S
C131 Pr121 2.880 . S
C131 C132 1.491 . S
C131 O146 1.254 . S
C131 O147 1.225 . S
C132 C131 1.491 . S
C132 C133 1.392 . S
C132 C137 1.356 . S
C133 C132 1.392 . S
C133 C134 1.368 . S
C133 H156 0.929 . S
C134 C133 1.368 . S
C134 C135 1.386 . S
C134 H157 0.929 . S
C135 C134 1.386 . S
C135 C136 1.373 . S
C136 C135 1.373 . S
C136 C137 1.409 . S
C136 H158 0.931 . S
C137 C132 1.356 . S
C137 C136 1.409 . S
C137 H159 0.930 . S
C138 O148 1.270 . S
C138 O149 1.248 . S
C139 O150 1.267 . S
C139 O151 1.278 . S
O140 Pr120 2.562 . S
O140 C122 1.254 . S
O141 Pr120 2.490 . S
O141 C122 1.225 . S
O142 Pr120 2.695 . S
O142 Pr121 2.436 . S
O142 C129 1.270 . S
O143 Pr120 2.512 . S
O143 C129 1.248 . S
O144 Pr121 2.438 . S
O144 C130 1.267 . S
O145 Pr120 2.437 . S
O145 C130 1.278 . S
O146 Pr121 2.562 . S
O146 C131 1.254 . S
O147 Pr121 2.490 . S
O147 C131 1.225 . S
O148 Pr120 2.436 . S
O148 Pr121 2.695 . S
O148 C138 1.270 . S
O149 Pr121 2.512 . S
O149 C138 1.248 . S
O150 Pr120 2.438 . S
O150 C139 1.267 . S
O151 Pr121 2.437 . S
O151 C139 1.278 . S
H152 C124 0.929 . S
H153 C125 0.929 . S
H154 C127 0.931 . S
H155 C128 0.930 . S
H156 C133 0.929 . S
H157 C134 0.929 . S
H158 C136 0.931 . S
H159 C137 0.930 . S
Pr160 C162 2.880 . S
Pr160 O180 2.562 . S
Pr160 O181 2.490 . S
Pr160 O182 2.695 . S
Pr160 O183 2.512 . S
Pr160 O185 2.437 . S
Pr160 O188 2.436 . S
Pr160 O190 2.438 . S
Pr161 C171 2.880 . S
Pr161 O182 2.436 . S
Pr161 O184 2.438 . S
Pr161 O186 2.562 . S
Pr161 O187 2.490 . S
Pr161 O188 2.695 . S
Pr161 O189 2.512 . S
Pr161 O191 2.437 . S
C162 Pr160 2.880 . S
C162 C163 1.491 . S
C162 O180 1.254 . S
C162 O181 1.225 . S
C163 C162 1.491 . S
C163 C164 1.392 . S
C163 C168 1.356 . S
C164 C163 1.392 . S
C164 C165 1.368 . S
C164 H192 0.929 . S
C165 C164 1.368 . S
C165 C166 1.386 . S
C165 H193 0.929 . S
C166 C165 1.386 . S
C166 C167 1.373 . S
C167 C166 1.373 . S
C167 C168 1.409 . S
C167 H194 0.931 . S
C168 C163 1.356 . S
C168 C167 1.409 . S
C168 H195 0.930 . S
C169 O182 1.270 . S
C169 O183 1.248 . S
C170 O184 1.267 . S
C170 O185 1.278 . S
C171 Pr161 2.880 . S
C171 C172 1.491 . S
C171 O186 1.254 . S
C171 O187 1.225 . S
C172 C171 1.491 . S
C172 C173 1.392 . S
C172 C177 1.356 . S
C173 C172 1.392 . S
C173 C174 1.368 . S
C173 H196 0.929 . S
C174 C173 1.368 . S
C174 C175 1.386 . S
C174 H197 0.929 . S
C175 C174 1.386 . S
C175 C176 1.373 . S
C176 C175 1.373 . S
C176 C177 1.409 . S
C176 H198 0.931 . S
C177 C172 1.356 . S
C177 C176 1.409 . S
C177 H199 0.930 . S
C178 O188 1.270 . S
C178 O189 1.248 . S
C179 O190 1.267 . S
C179 O191 1.278 . S
O180 Pr160 2.562 . S
O180 C162 1.254 . S
O181 Pr160 2.490 . S
O181 C162 1.225 . S
O182 Pr160 2.695 . S
O182 Pr161 2.436 . S
O182 C169 1.270 . S
O183 Pr160 2.512 . S
O183 C169 1.248 . S
O184 Pr161 2.438 . S
O184 C170 1.267 . S
O185 Pr160 2.437 . S
O185 C170 1.278 . S
O186 Pr161 2.562 . S
O186 C171 1.254 . S
O187 Pr161 2.490 . S
O187 C171 1.225 . S
O188 Pr160 2.436 . S
O188 Pr161 2.695 . S
O188 C178 1.270 . S
O189 Pr161 2.512 . S
O189 C178 1.248 . S
O190 Pr160 2.438 . S
O190 C179 1.267 . S
O191 Pr161 2.437 . S
O191 C179 1.278 . S
H192 C164 0.929 . S
H193 C165 0.929 . S
H194 C167 0.931 . S
H195 C168 0.930 . S
H196 C173 0.929 . S
H197 C174 0.929 . S
H198 C176 0.931 . S
H199 C177 0.930 . S
Pr200 C202 2.880 . S
Pr200 O220 2.562 . S
Pr200 O221 2.490 . S
Pr200 O222 2.695 . S
Pr200 O223 2.512 . S
Pr200 O225 2.437 . S
Pr200 O228 2.436 . S
Pr200 O230 2.438 . S
Pr201 C211 2.880 1_556 S
Pr201 O222 2.436 . S
Pr201 O224 2.438 . S
Pr201 O226 2.562 1_556 S
Pr201 O227 2.490 1_556 S
Pr201 O228 2.695 . S
Pr201 O229 2.512 . S
Pr201 O231 2.437 1_556 S
C202 Pr200 2.880 . S
C202 C203 1.491 . S
C202 O220 1.254 . S
C202 O221 1.225 . S
C203 C202 1.491 . S
C203 C204 1.392 . S
C203 C208 1.356 . S
C204 C203 1.392 . S
C204 C205 1.368 . S
C204 H232 0.929 . S
C205 C204 1.368 . S
C205 C206 1.386 . S
C205 H233 0.929 . S
C206 C205 1.386 . S
C206 C207 1.373 . S
C207 C206 1.373 . S
C207 C208 1.409 . S
C207 H234 0.931 . S
C208 C203 1.356 . S
C208 C207 1.409 . S
C208 H235 0.930 . S
C209 O222 1.270 . S
C209 O223 1.248 . S
C210 O224 1.267 . S
C210 O225 1.278 . S
C211 Pr201 2.880 1_554 S
C211 C212 1.491 . S
C211 O226 1.254 . S
C211 O227 1.225 . S
C212 C211 1.491 . S
C212 C213 1.392 . S
C212 C217 1.356 . S
C213 C212 1.392 . S
C213 C214 1.368 . S
C213 H236 0.929 . S
C214 C213 1.368 . S
C214 C215 1.386 . S
C214 H237 0.929 . S
C215 C214 1.386 . S
C215 C216 1.373 . S
C216 C215 1.373 . S
C216 C217 1.409 . S
C216 H238 0.931 . S
C217 C212 1.356 . S
C217 C216 1.409 . S
C217 H239 0.930 . S
C218 O228 1.270 . S
C218 O229 1.248 . S
C219 O230 1.267 . S
C219 O231 1.278 1_556 S
O220 Pr200 2.562 . S
O220 C202 1.254 . S
O221 Pr200 2.490 . S
O221 C202 1.225 . S
O222 Pr200 2.695 . S
O222 Pr201 2.436 . S
O222 C209 1.270 . S
O223 Pr200 2.512 . S
O223 C209 1.248 . S
O224 Pr201 2.438 . S
O224 C210 1.267 . S
O225 Pr200 2.437 . S
O225 C210 1.278 . S
O226 Pr201 2.562 1_554 S
O226 C211 1.254 . S
O227 Pr201 2.490 1_554 S
O227 C211 1.225 . S
O228 Pr200 2.436 . S
O228 Pr201 2.695 . S
O228 C218 1.270 . S
O229 Pr201 2.512 . S
O229 C218 1.248 . S
O230 Pr200 2.438 . S
O230 C219 1.267 . S
O231 Pr201 2.437 1_554 S
O231 C219 1.278 1_554 S
H232 C204 0.929 . S
H233 C205 0.929 . S
H234 C207 0.931 . S
H235 C208 0.930 . S
H236 C213 0.929 . S
H237 C214 0.929 . S
H238 C216 0.931 . S
H239 C217 0.930 . S
C240 C241 1.387 1_554 S
C240 H244 0.950 . S
C240 C249 1.390 . S
C241 C240 1.387 1_556 S
C241 C243 1.387 . S
H242 C249 0.950 . S
C243 C241 1.387 . S
C243 C245 1.390 . S
C243 H247 0.950 . S
H244 C240 0.950 . S
C245 C243 1.390 . S
C245 C246 1.387 1_556 S
C245 H248 0.950 . S
C246 C245 1.387 1_554 S
C246 C249 1.387 . S
H247 C243 0.950 . S
H248 C245 0.950 . S
C249 C240 1.390 . S
C249 H242 0.950 . S
C249 C246 1.387 . S
C250 C251 1.387 . S
C250 H254 0.950 . S
C250 C259 1.390 . S
C251 C250 1.387 . S
C251 C253 1.387 1_455 S
H252 C259 0.950 . S
C253 C251 1.387 1_655 S
C253 C255 1.390 . S
C253 H257 0.950 . S
H254 C250 0.950 . S
C255 C253 1.390 . S
C255 C256 1.387 . S
C255 H258 0.950 . S
C256 C255 1.387 . S
C256 C259 1.387 1_655 S
H257 C253 0.950 . S
H258 C255 0.950 . S
C259 C250 1.390 . S
C259 H252 0.950 . S
C259 C256 1.387 1_455 S
C260 C261 1.387 . S
C260 H264 0.950 . S
C260 C269 1.390 1_545 S
C261 C260 1.387 . S
C261 C263 1.387 . S
H262 C269 0.950 . S
C263 C261 1.387 . S
C263 C265 1.390 1_545 S
C263 H267 0.950 . S
H264 C260 0.950 . S
C265 C263 1.390 1_565 S
C265 C266 1.387 . S
C265 H268 0.950 . S
C266 C265 1.387 . S
C266 C269 1.387 . S
H267 C263 0.950 . S
H268 C265 0.950 . S
C269 C260 1.390 1_565 S
C269 H262 0.950 . S
C269 C266 1.387 . S
C270 C271 1.387 . S
C270 H274 0.950 . S
C270 C279 1.390 1_556 S
C271 C270 1.387 . S
C271 C273 1.387 . S
H272 C279 0.950 . S
C273 C271 1.387 . S
C273 C275 1.390 1_556 S
C273 H277 0.950 . S
H274 C270 0.950 . S
C275 C273 1.390 1_554 S
C275 C276 1.387 . S
C275 H278 0.950 . S
C276 C275 1.387 . S
C276 C279 1.387 . S
H277 C273 0.950 . S
H278 C275 0.950 . S
C279 C270 1.390 1_554 S
C279 H272 0.950 . S
C279 C276 1.387 . S
C280 C281 1.387 . S
C280 H284 0.950 . S
C280 C289 1.390 1_455 S
C281 C280 1.387 . S
C281 C283 1.387 . S
H282 C289 0.950 . S
C283 C281 1.387 . S
C283 C285 1.390 1_455 S
C283 H287 0.950 . S
H284 C280 0.950 . S
C285 C283 1.390 1_655 S
C285 C286 1.387 . S
C285 H288 0.950 . S
C286 C285 1.387 . S
C286 C289 1.387 . S
H287 C283 0.950 . S
H288 C285 0.950 . S
C289 C280 1.390 1_655 S
C289 H282 0.950 . S
C289 C286 1.387 . S
C290 C291 1.387 . S
C290 H294 0.950 . S
C290 C299 1.390 . S
C291 C290 1.387 . S
C291 C293 1.386 1_545 S
H292 C299 0.946 . S
C293 C291 1.386 1_565 S
C293 C295 1.390 . S
C293 H297 0.946 . S
H294 C290 0.950 . S
C295 C293 1.390 . S
C295 C296 1.387 . S
C295 H298 0.950 . S
C296 C295 1.387 . S
C296 C299 1.387 1_565 S
H297 C293 0.946 . S
H298 C295 0.950 . S
C299 C290 1.390 . S
C299 H292 0.946 . S
C299 C296 1.387 1_545 S
C300 C301 1.387 . S
C300 H304 0.950 . S
C300 C309 1.390 . S
C301 C300 1.387 . S
C301 C303 1.387 . S
H302 C309 0.950 . S
C303 C301 1.387 . S
C303 C305 1.390 . S
C303 H307 0.950 . S
H304 C300 0.950 . S
C305 C303 1.390 . S
C305 C306 1.387 . S
C305 H308 0.950 . S
C306 C305 1.387 . S
C306 C309 1.387 . S
H307 C303 0.950 . S
H308 C305 0.950 . S
C309 C300 1.390 . S
C309 H302 0.950 . S
C309 C306 1.387 . S
C310 C311 1.387 . S
C310 H314 0.950 . S
C310 C319 1.390 . S
C311 C310 1.387 . S
C311 C313 1.387 . S
H312 C319 0.950 1_556 S
C313 C311 1.387 . S
C313 C315 1.390 . S
C313 H317 0.950 . S
H314 C310 0.950 . S
C315 C313 1.390 . S
C315 C316 1.387 . S
C315 H318 0.950 . S
C316 C315 1.387 . S
C316 C319 1.387 . S
H317 C313 0.950 . S
H318 C315 0.950 . S
C319 C310 1.390 . S
C319 H312 0.950 1_554 S
C319 C316 1.387 . S
C320 C321 1.387 . S
C320 H324 0.950 . S
C320 C329 1.390 . S
C321 C320 1.387 . S
C321 C323 1.387 . S
H322 C329 0.950 . S
C323 C321 1.387 . S
C323 C325 1.390 . S
C323 H327 0.950 . S
H324 C320 0.950 . S
C325 C323 1.390 . S
C325 C326 1.387 . S
C325 H328 0.950 . S
C326 C325 1.387 . S
C326 C329 1.387 . S
H327 C323 0.950 . S
H328 C325 0.950 . S
C329 C320 1.390 . S
C329 H322 0.950 . S
C329 C326 1.387 . S
C330 C331 1.387 . S
C330 H334 0.950 . S
C330 C339 1.390 . S
C331 C330 1.387 . S
C331 C333 1.387 . S
H332 C339 0.950 . S
C333 C331 1.387 . S
C333 C335 1.390 . S
C333 H337 0.950 . S
H334 C330 0.950 . S
C335 C333 1.390 . S
C335 C336 1.387 . S
C335 H338 0.950 . S
C336 C335 1.387 . S
C336 C339 1.387 . S
H337 C333 0.950 . S
H338 C335 0.950 . S
C339 C330 1.390 . S
C339 H332 0.950 . S
C339 C336 1.387 . S
C340 C341 1.387 . S
C340 H344 0.950 . S
C340 C349 1.390 . S
C341 C340 1.387 . S
C341 C343 1.387 . S
H342 C349 0.950 . S
C343 C341 1.387 . S
C343 C345 1.390 . S
C343 H347 0.950 . S
H344 C340 0.950 . S
C345 C343 1.390 . S
C345 C346 1.387 . S
C345 H348 0.950 1_556 S
C346 C345 1.387 . S
C346 C349 1.387 . S
H347 C343 0.950 . S
H348 C345 0.950 1_554 S
C349 C340 1.390 . S
C349 H342 0.950 . S
C349 C346 1.387 . S
C350 C351 1.387 . S
C350 H354 0.950 . S
C350 C359 1.390 . S
C351 C350 1.387 . S
C351 C353 1.387 . S
H352 C359 0.950 . S
C353 C351 1.387 . S
C353 C355 1.390 . S
C353 H357 0.950 . S
H354 C350 0.950 . S
C355 C353 1.390 . S
C355 C356 1.387 . S
C355 H358 0.950 . S
C356 C355 1.387 . S
C356 C359 1.387 . S
H357 C353 0.950 . S
H358 C355 0.950 . S
C359 C350 1.390 . S
C359 H352 0.950 . S
C359 C356 1.387 . S
C360 C361 1.387 . S
C360 H364 0.950 . S
C360 C369 1.390 . S
C361 C360 1.387 . S
C361 C363 1.387 . S
H362 C369 0.950 . S
C363 C361 1.387 . S
C363 C365 1.390 . S
C363 H367 0.950 . S
H364 C360 0.950 . S
C365 C363 1.390 . S
C365 C366 1.387 . S
C365 H368 0.950 . S
C366 C365 1.387 . S
C366 C369 1.387 . S
H367 C363 0.950 . S
H368 C365 0.950 . S
C369 C360 1.390 . S
C369 H362 0.950 . S
C369 C366 1.387 . S
C370 C371 1.387 . S
C370 H374 0.950 . S
C370 C379 1.390 . S
C371 C370 1.387 . S
C371 C373 1.387 . S
H372 C379 0.950 . S
C373 C371 1.387 . S
C373 C375 1.390 . S
C373 H377 0.950 . S
H374 C370 0.950 . S
C375 C373 1.390 . S
C375 C376 1.387 . S
C375 H378 0.950 . S
C376 C375 1.387 . S
C376 C379 1.387 . S
H377 C373 0.950 . S
H378 C375 0.950 . S
C379 C370 1.390 . S
C379 H372 0.950 . S
C379 C376 1.387 . S
C380 C381 1.387 . S
C380 H384 0.950 . S
C380 C389 1.390 . S
C381 C380 1.387 . S
C381 C383 1.387 . S
H382 C389 0.950 . S
C383 C381 1.387 . S
C383 C385 1.390 . S
C383 H387 0.950 . S
H384 C380 0.950 . S
C385 C383 1.390 . S
C385 C386 1.387 . S
C385 H388 0.950 . S
C386 C385 1.387 . S
C386 C389 1.387 . S
H387 C383 0.950 . S
H388 C385 0.950 . S
C389 C380 1.390 . S
C389 H382 0.950 . S
C389 C386 1.387 . S
C390 C391 1.387 . S
C390 H394 0.950 . S
C390 C399 1.390 . S
C391 C390 1.387 . S
C391 C393 1.387 . S
H392 C399 0.950 . S
C393 C391 1.387 . S
C393 C395 1.390 . S
C393 H397 0.950 . S
H394 C390 0.950 . S
C395 C393 1.390 . S
C395 C396 1.387 . S
C395 H398 0.950 . S
C396 C395 1.387 . S
C396 C399 1.387 . S
H397 C393 0.950 . S
H398 C395 0.950 . S
C399 C390 1.390 . S
C399 H392 0.950 . S
C399 C396 1.387 . S
C400 C401 1.387 . S
C400 H404 0.950 . S
C400 C409 1.390 . S
C401 C400 1.387 . S
C401 C403 1.387 . S
H402 C409 0.950 . S
C403 C401 1.387 . S
C403 C405 1.390 . S
C403 H407 0.950 . S
H404 C400 0.950 . S
C405 C403 1.390 . S
C405 C406 1.387 . S
C405 H408 0.950 . S
C406 C405 1.387 . S
C406 C409 1.387 . S
H407 C403 0.950 . S
H408 C405 0.950 . S
C409 C400 1.390 . S
C409 H402 0.950 . S
C409 C406 1.387 . S
C410 C411 1.387 . S
C410 H414 0.950 . S
C410 C419 1.390 . S
C411 C410 1.387 . S
C411 C413 1.387 . S
H412 C419 0.950 . S
C413 C411 1.387 . S
C413 C415 1.390 . S
C413 H417 0.950 . S
H414 C410 0.950 . S
C415 C413 1.390 . S
C415 C416 1.387 . S
C415 H418 0.950 . S
C416 C415 1.387 . S
C416 C419 1.387 . S
H417 C413 0.950 . S
H418 C415 0.950 . S
C419 C410 1.390 . S
C419 H412 0.950 . S
C419 C416 1.387 . S
C241 C209 1.445 . S
C246 C9 1.443 . S
C251 C10 2.013 . S
C256 C50 2.013 . S
C261 C49 1.444 . S
C266 C89 1.444 . S
C271 C90 2.013 . S
C276 C130 2.013 . S
C281 C169 1.443 . S
C286 C129 1.445 . S
C291 C210 2.014 . S
C296 C170 2.014 . S
C301 C15 1.924 . S
C306 C6 1.924 . S
C311 C46 1.926 . S
C316 C55 1.926 1_554 S
C321 C95 1.924 . S
C326 C86 1.924 . S
C331 C126 1.924 . S
C336 C135 1.924 . S
C341 C166 1.924 . S
C346 C175 1.924 1_556 S
C351 C206 1.927 . S
C356 C215 1.927 . S
C361 C18 1.955 . S
C366 C179 1.968 . S
C371 C59 1.968 . S
C376 C218 1.955 . S
C381 C19 1.967 1_556 S
C386 C98 1.955 . S
C391 C58 1.955 . S
C396 C139 1.968 . S
C401 C178 1.956 . S
C406 C99 1.968 . S
C411 C138 1.956 . S
C416 C219 1.968 1_554 S
