# Generated by pormake.
# Topology vby, (6)-cn, num edge types: 1
# Building blocks:
#     Node 0, Type 0, BuildingBlock: LEVNOQ01_clean_sbu_1, # of connection points: 6
#     Node 1, Type 0, BuildingBlock: LEVNOQ01_clean_sbu_1, # of connection points: 6
#     Node 2, Type 0, BuildingBlock: LEVNOQ01_clean_sbu_1, # of connection points: 6
#     Node 3, Type 0, BuildingBlock: LEVNOQ01_clean_sbu_1, # of connection points: 6
#     Node 4, Type 0, BuildingBlock: LEVNOQ01_clean_sbu_1, # of connection points: 6
#     Node 5, Type 0, BuildingBlock: LEVNOQ01_clean_sbu_1, # of connection points: 6
#     Node 6, Type 0, BuildingBlock: LEVNOQ01_clean_sbu_1, # of connection points: 6
#     Node 7, Type 0, BuildingBlock: LEVNOQ01_clean_sbu_1, # of connection points: 6
#     Edge 8, Type (0, 0), BuildingBlock: XIVTED_clean_linker_0, # of connection points: 2
#     Edge 9, Type (0, 0), BuildingBlock: XIVTED_clean_linker_0, # of connection points: 2
#     Edge 10, Type (0, 0), BuildingBlock: XIVTED_clean_linker_0, # of connection points: 2
#     Edge 11, Type (0, 0), BuildingBlock: XIVTED_clean_linker_0, # of connection points: 2
#     Edge 12, Type (0, 0), BuildingBlock: XIVTED_clean_linker_0, # of connection points: 2
#     Edge 13, Type (0, 0), BuildingBlock: XIVTED_clean_linker_0, # of connection points: 2
#     Edge 14, Type (0, 0), BuildingBlock: XIVTED_clean_linker_0, # of connection points: 2
#     Edge 15, Type (0, 0), BuildingBlock: XIVTED_clean_linker_0, # of connection points: 2
#     Edge 16, Type (0, 0), BuildingBlock: XIVTED_clean_linker_0, # of connection points: 2
#     Edge 17, Type (0, 0), BuildingBlock: XIVTED_clean_linker_0, # of connection points: 2
#     Edge 18, Type (0, 0), BuildingBlock: XIVTED_clean_linker_0, # of connection points: 2
#     Edge 19, Type (0, 0), BuildingBlock: XIVTED_clean_linker_0, # of connection points: 2
#     Edge 20, Type (0, 0), BuildingBlock: XIVTED_clean_linker_0, # of connection points: 2
#     Edge 21, Type (0, 0), BuildingBlock: XIVTED_clean_linker_0, # of connection points: 2
#     Edge 22, Type (0, 0), BuildingBlock: XIVTED_clean_linker_0, # of connection points: 2
#     Edge 23, Type (0, 0), BuildingBlock: XIVTED_clean_linker_0, # of connection points: 2
#     Edge 24, Type (0, 0), BuildingBlock: XIVTED_clean_linker_0, # of connection points: 2
#     Edge 25, Type (0, 0), BuildingBlock: XIVTED_clean_linker_0, # of connection points: 2
#     Edge 26, Type (0, 0), BuildingBlock: XIVTED_clean_linker_0, # of connection points: 2
#     Edge 27, Type (0, 0), BuildingBlock: XIVTED_clean_linker_0, # of connection points: 2
#     Edge 28, Type (0, 0), BuildingBlock: XIVTED_clean_linker_0, # of connection points: 2
#     Edge 29, Type (0, 0), BuildingBlock: XIVTED_clean_linker_0, # of connection points: 2
#     Edge 30, Type (0, 0), BuildingBlock: XIVTED_clean_linker_0, # of connection points: 2
#     Edge 31, Type (0, 0), BuildingBlock: XIVTED_clean_linker_0, # of connection points: 2
# Relax obj value: 0.085
# Max RMSD: 0.124
# Mean RMSD: 0.124
data_MOF--net-vby--node1-LEVNOQ01_clean_sbu_1--edge1-XIVTED_clean_linker_0
_symmetry_space_group_name_H-M    P1
_symmetry_Int_Tables_number       1
_symmetry_cell_setting            triclinic
loop_
_symmetry_equiv_pos_as_xyz
'x, y, z'
_cell_length_a     16.094042
_cell_length_b     61.945291
_cell_length_c     31.336465
_cell_angle_alpha  90.185991
_cell_angle_beta   90.006445
_cell_angle_gamma 89.878371
loop_
_atom_site_label
_atom_site_type_symbol
_atom_site_fract_x
_atom_site_fract_y
_atom_site_fract_z
_atom_type_partial_charge
O0 O 0.85626 0.38305 0.98703 0.0
Mg1 Mg 0.93382 0.38378 0.9333 0.0
O2 O 0.91207 0.35195 0.00071 0.0
Mg3 Mg 0.04931 0.36345 -0.00986 0.0
O4 O 0.03864 0.3654 0.91729 0.0
O5 O 0.91354 0.35539 0.89865 0.0
O6 O 0.19082 0.37166 0.98214 0.0
O7 O 0.07538 0.32728 0.97603 0.0
Mg8 Mg 0.15487 0.34009 0.06476 0.0
O9 O 0.06206 0.3633 0.06319 0.0
O10 O 0.2464 0.36245 0.04482 0.0
O11 O 0.16679 0.31466 0.02223 0.0
O12 O 0.03683 0.3318 0.0897 0.0
C13 C 0.0116 0.41672 0.97508 0.0
C14 C 0.8511 0.36479 0.00389 0.0
C15 C -0.00818 0.35456 0.89175 0.0
C16 C 0.25206 0.37115 0.00823 0.0
C17 C 0.12284 0.31236 0.98931 0.0
C18 C 0.0237 0.35206 0.09119 0.0
O19 O -0.00814 0.41353 0.93639 0.0
O20 O 0.02265 0.4009 0.00071 0.0
O21 O 0.08754 0.63907 0.94012 0.0
Mg22 Mg -0.0002 0.61447 0.93234 0.0
O23 O 0.03892 0.62848 0.00089 0.0
Mg24 Mg 0.89663 0.62353 0.98621 0.0
O25 O 0.88884 0.62456 0.90978 0.0
O26 O -0.01284 0.60825 0.87011 0.0
O27 O 0.75475 0.61853 0.98161 0.0
O28 O 0.88067 0.66091 0.96722 0.0
Mg29 Mg 0.85717 0.64977 0.03652 0.0
O30 O 0.90365 0.62241 0.06283 0.0
O31 O 0.73467 0.64985 0.01248 0.0
O32 O 0.9345 0.67645 0.02205 0.0
O33 O 0.84766 0.65027 0.0994 0.0
C34 C 0.97266 0.57538 0.98318 0.0
C35 C 0.09775 0.63664 0.97955 0.0
C36 C 0.91898 0.61907 0.87277 0.0
C37 C 0.70607 0.6337 -0.00727 0.0
C38 C 0.9053 0.67822 0.98501 0.0
C39 C 0.88707 0.63215 0.09867 0.0
O40 O 0.02601 0.58459 0.96015 0.0
O41 O 0.90897 0.58597 -0.0048 0.0
O42 O 0.09793 0.68158 0.44811 0.0
Mg43 Mg 0.14763 0.65318 0.4207 0.0
O44 O 0.09712 0.6623 0.5067 0.0
Mg45 Mg 0.06772 0.62597 0.49227 0.0
O46 O 0.06525 0.62852 0.41995 0.0
O47 O 0.11217 0.64462 0.36091 0.0
O48 O 0.03979 0.58886 0.48252 0.0
O49 O 0.92715 0.63404 0.48977 0.0
Mg50 Mg 0.96303 0.60533 0.57826 0.0
O51 O 0.06928 0.62404 0.56602 0.0
O52 O 0.97843 0.57676 0.5418 0.0
O53 O 0.86349 0.62163 0.54805 0.0
O54 O 0.07014 0.62437 0.56649 0.0
C55 C 0.26841 0.62563 0.47227 0.0
C56 C 0.09762 0.6806 0.48833 0.0
C57 C 0.06548 0.6304 0.37894 0.0
C58 C 0.00856 0.57355 0.50474 0.0
C59 C 0.86257 0.63183 0.51293 0.0
C60 C 0.09988 0.63776 0.59251 0.0
O61 O 0.25922 0.6401 0.44406 0.0
O62 O 0.20756 0.61808 0.49348 0.0
O63 O 0.12966 0.37031 0.5221 0.0
Mg64 Mg 0.0349 0.38796 0.55009 0.0
O65 O 0.05283 0.35625 0.46994 0.0
Mg66 Mg 0.9128 0.36442 0.48636 0.0
O67 O 0.93881 0.36736 0.55816 0.0
O68 O 0.00876 0.38244 0.61222 0.0
O69 O 0.77219 0.37205 0.50184 0.0
O70 O 0.89162 0.32778 0.50191 0.0
Mg71 Mg 0.79056 0.34054 0.41659 0.0
O72 O 0.88814 0.3607 0.41564 0.0
O73 O 0.69796 0.3579 0.44843 0.0
O74 O 0.83029 0.31187 0.44647 0.0
O75 O 0.82788 0.34952 0.35601 0.0
C76 C 0.95974 0.41835 0.48835 0.0
C77 C 0.1227 0.35899 0.48863 0.0
C78 C 0.95343 0.369 0.59869 0.0
C79 C 0.70314 0.36889 0.48253 0.0
C80 C 0.8645 0.31092 0.48291 0.0
C81 C 0.88477 0.36078 0.37454 0.0
O82 O 0.00104 0.41705 0.52253 0.0
O83 O 0.92789 0.40164 0.47081 0.0
O84 O 0.34576 0.8718 0.95536 0.0
Mg85 Mg 0.4381 0.87848 0.91239 0.0
O86 O 0.42743 0.85877 0.00605 0.0
Mg87 Mg 0.56598 0.86558 -0.00918 0.0
O88 O 0.55932 0.86799 0.91752 0.0
O89 O 0.46446 0.84502 0.90101 0.0
O90 O 0.70536 0.87116 0.98366 0.0
O91 O 0.59097 0.82913 0.97458 0.0
Mg92 Mg 0.64604 0.83611 0.06506 0.0
O93 O 0.58043 0.86467 0.06422 0.0
O94 O 0.75416 0.84942 0.03525 0.0
O95 O 0.60267 0.80911 0.03186 0.0
O96 O 0.56356 0.84106 0.1151 0.0
C97 C 0.50226 0.91542 0.97383 0.0
C98 C 0.3559 0.86314 -0.00872 0.0
C99 C 0.53721 0.85208 0.89391 0.0
C100 C 0.76506 0.86245 0.00424 0.0
C101 C 0.59657 0.81069 -0.00804 0.0
C102 C 0.54191 0.85911 0.09859 0.0
O103 O 0.46775 0.90921 0.93933 0.0
O104 O 0.54046 0.90227 -0.00158 0.0
O105 O 0.60447 0.10519 0.97867 0.0
Mg106 Mg 0.50808 0.09995 0.93357 0.0
O107 O 0.55221 0.13726 0.98781 0.0
Mg108 Mg 0.41622 0.1251 0.98508 0.0
O109 O 0.41679 0.12127 0.91321 0.0
O110 O 0.53689 0.11614 0.87924 0.0
O111 O 0.27771 0.11605 0.98444 0.0
O112 O 0.37818 0.16011 0.96304 0.0
Mg113 Mg 0.35838 0.15455 0.0399 0.0
O114 O 0.41769 0.1276 0.05923 0.0
O115 O 0.23942 0.14727 0.01311 0.0
O116 O 0.44083 0.17744 0.01309 0.0
O117 O 0.36088 0.15195 0.10413 0.0
C118 C 0.44277 0.07049 0.98214 0.0
C119 C 0.61284 0.12437 -0.00887 0.0
C120 C 0.46765 0.12642 0.88313 0.0
C121 C 0.22136 0.12953 -0.005 0.0
C122 C 0.40406 0.17798 0.97769 0.0
C123 C 0.40215 0.13438 0.09755 0.0
O124 O 0.45066 0.07075 0.94198 0.0
O125 O 0.44441 0.08812 0.00369 0.0
O126 O 0.52034 0.17938 0.46188 0.0
Mg127 Mg 0.59915 0.15424 0.43962 0.0
O128 O 0.58112 0.16238 0.51291 0.0
Mg129 Mg 0.54837 0.1264 0.49279 0.0
O130 O 0.54842 0.12647 0.41744 0.0
O131 O 0.60684 0.15194 0.37584 0.0
O132 O 0.52081 0.08914 0.48239 0.0
O133 O 0.40904 0.13673 0.48549 0.0
Mg134 Mg 0.43581 0.10625 0.56022 0.0
O135 O 0.54658 0.12339 0.56421 0.0
O136 O 0.5016 0.07793 0.54893 0.0
O137 O 0.35441 0.1066 0.50808 0.0
O138 O 0.4323 0.13763 0.58724 0.0
C139 C 0.74225 0.13347 0.48611 0.0
C140 C 0.55699 0.18022 0.49741 0.0
C141 C 0.5689 0.13374 0.38006 0.0
C142 C 0.51601 0.07389 0.50985 0.0
C143 C 0.34918 0.12341 0.48591 0.0
C144 C 0.51145 0.13706 0.58898 0.0
O145 O 0.71862 0.1506 0.46767 0.0
O146 O 0.68991 0.11873 0.49531 0.0
O147 O 0.59058 0.84901 0.51887 0.0
Mg148 Mg 0.51319 0.8754 0.5335 0.0
O149 O 0.5416 0.86375 0.46198 0.0
Mg150 Mg 0.40074 0.86624 0.48294 0.0
O151 O 0.40464 0.86675 0.56021 0.0
O152 O 0.5156 0.87939 0.59647 0.0
O153 O 0.26031 0.86833 0.4922 0.0
O154 O 0.38942 0.8297 0.49883 0.0
Mg155 Mg 0.32651 0.83409 0.41126 0.0
O156 O 0.38262 0.86404 0.41044 0.0
O157 O 0.21526 0.8447 0.4429 0.0
O158 O 0.38534 0.80829 0.44335 0.0
O159 O 0.39581 0.84133 0.35721 0.0
C160 C 0.46824 0.91486 0.48508 0.0
C161 C 0.59987 0.85362 0.48026 0.0
C162 C 0.44243 0.87102 0.59604 0.0
C163 C 0.20222 0.85799 0.47349 0.0
C164 C 0.38936 0.81077 0.4832 0.0
C165 C 0.41858 0.85906 0.37494 0.0
O166 O 0.52681 0.90648 0.50631 0.0
O167 O 0.40626 0.90342 0.47405 0.0
H168 H 0.35749 0.40098 0.04065 0.0
H169 H 0.75685 0.33522 0.96188 0.0
H170 H 0.34051 0.34981 0.94776 0.0
H171 H 0.75387 0.38045 0.06645 0.0
H172 H 0.60528 0.33883 0.9557 0.0
H173 H 0.50784 0.396 0.04304 0.0
C174 C 0.38612 0.38928 0.01944 0.0
C175 C 0.33699 0.37576 -0.00591 0.0
C176 C 0.63757 0.34758 0.98064 0.0
C177 C 0.50794 0.36884 -0.00119 0.0
C178 C 0.72362 0.34507 0.98491 0.0
C179 C 0.76725 0.35767 0.01465 0.0
C180 C 0.59611 0.36288 0.0062 0.0
C181 C 0.72204 0.3705 0.04316 0.0
C182 C 0.47165 0.38602 0.02159 0.0
C183 C 0.37674 0.36064 0.96755 0.0
N184 N 0.63912 0.37313 0.03769 0.0
N185 N 0.46002 0.35721 0.97124 0.0
H186 H 0.18803 0.60099 0.96715 0.0
H187 H 0.59919 0.66713 0.98907 0.0
H188 H 0.19843 0.6644 0.02372 0.0
H189 H 0.60773 0.59748 0.98533 0.0
H190 H 0.44937 0.66568 -0.00356 0.0
H191 H 0.33892 0.59777 0.97416 0.0
C192 C 0.22243 0.61398 0.98214 0.0
C193 C 0.1824 0.63317 -0.00587 0.0
C194 C 0.4838 0.65068 -0.00572 0.0
C195 C 0.35331 0.62984 0.0013 0.0
C196 C 0.56919 0.65148 0.9895 0.0
C197 C 0.61572 0.63237 0.98743 0.0
C198 C 0.44416 0.63063 -0.00354 0.0
C199 C 0.57375 0.61256 0.98709 0.0
C200 C 0.30815 0.61215 0.98603 0.0
C201 C 0.22813 0.64957 0.01347 0.0
N202 N 0.48967 0.61216 -0.00822 0.0
N203 N 0.312 0.64767 0.01587 0.0
H204 H 0.79343 0.62068 0.43699 0.0
H205 H 0.34894 0.63038 0.5475 0.0
H206 H 0.74569 0.65534 0.55392 0.0
H207 H 0.38014 0.60854 0.41781 0.0
H208 H 0.49953 0.63503 0.55315 0.0
H209 H 0.64347 0.61586 0.42737 0.0
C210 C 0.75103 0.62807 0.45961 0.0
C211 C 0.78094 0.63797 0.49677 0.0
C212 C 0.47359 0.62891 0.52362 0.0
C213 C 0.61159 0.63175 0.48722 0.0
C214 C 0.38814 0.62575 0.52086 0.0
C215 C 0.35333 0.61936 0.48202 0.0
C216 C 0.52331 0.62558 0.48724 0.0
C217 C 0.40575 0.61372 0.44812 0.0
C218 C 0.66577 0.62492 0.45466 0.0
C219 C 0.72425 0.64725 0.52528 0.0
N220 N 0.48854 0.61728 0.45123 0.0
N221 N 0.64198 0.64352 0.52042 0.0
H222 H 0.60394 0.40108 0.45453 0.0
H223 H 0.22025 0.32627 0.51612 0.0
H224 H 0.61849 0.35 0.54693 0.0
H225 H 0.20666 0.37734 0.42369 0.0
H226 H 0.36921 0.33268 0.52368 0.0
H227 H 0.45482 0.39482 0.44772 0.0
C228 C 0.57473 0.38931 0.47515 0.0
C229 C 0.62347 0.37565 0.50051 0.0
C230 C 0.33415 0.34223 0.50105 0.0
C231 C 0.45463 0.36749 0.4911 0.0
C232 C 0.24967 0.33806 0.49563 0.0
C233 C 0.20119 0.35175 0.47017 0.0
C234 C 0.36968 0.36004 0.48036 0.0
C235 C 0.24203 0.36669 0.4442 0.0
C236 C 0.49009 0.38525 0.47022 0.0
C237 C 0.58291 0.36066 0.52655 0.0
N238 N 0.3237 0.371 0.451 0.0
N239 N 0.50098 0.35646 0.52022 0.0
H240 H 0.86112 0.83257 0.96732 0.0
H241 H 0.2747 0.89374 0.03515 0.0
H242 H 0.86191 0.89831 0.01252 0.0
H243 H 0.26439 0.82684 -0.00185 0.0
H244 H 0.1235 0.89582 0.03082 0.0
H245 H 0.01214 0.8317 0.97212 0.0
C246 C 0.89393 0.84708 0.97687 0.0
C247 C 0.85028 0.86541 -0.00971 0.0
C248 C 0.15394 0.8805 0.02481 0.0
C249 C 0.02137 0.86424 -0.00189 0.0
C250 C 0.23989 0.87913 0.02862 0.0
C251 C 0.28112 0.86017 0.01626 0.0
C252 C 0.11 0.8626 0.0093 0.0
C253 C 0.23424 0.84176 0.00756 0.0
C254 C 0.97975 0.84646 0.98045 0.0
C255 C 0.89433 0.88385 0.00238 0.0
N256 N 0.15077 0.84355 0.00311 0.0
N257 N 0.97816 0.8827 0.00681 0.0
H258 H 0.12503 0.11159 0.05512 0.0
H259 H 0.70658 0.14816 0.93788 0.0
H260 H 0.11876 0.13776 0.92804 0.0
H261 H 0.71104 0.11559 0.05904 0.0
H262 H 0.85878 0.14808 0.93707 0.0
H263 H 0.97334 0.11357 0.05813 0.0
C264 C 0.09103 0.11707 0.02732 0.0
C265 C 0.13337 0.12426 -0.00889 0.0
C266 C 0.82664 0.14136 0.9643 0.0
C267 C 0.961 0.12758 -0.00515 0.0
C268 C 0.74002 0.14183 0.96515 0.0
C269 C 0.69728 0.13194 -0.00133 0.0
C270 C 0.87003 0.13094 -0.00271 0.0
C271 C 0.74254 0.12341 0.03277 0.0
C272 C 0.00476 0.11856 0.02925 0.0
C273 C 0.08756 0.13182 0.95627 0.0
N274 N 0.82679 0.12292 0.03107 0.0
N275 N 0.00349 0.13344 0.95908 0.0
H276 H 0.24854 0.09668 0.44223 0.0
H277 H 0.84896 0.16361 0.51518 0.0
H278 H 0.26105 0.16096 0.49469 0.0
H279 H 0.83918 0.09812 0.46859 0.0
H280 H -0.00042 0.16344 0.50608 0.0
H281 H 0.0972 0.09887 0.44257 0.0
C282 C 0.21904 0.11159 0.45235 0.0
C283 C 0.26662 0.12854 0.4691 0.0
C284 C 0.96485 0.14903 0.4981 0.0
C285 C 0.0941 0.13084 0.47137 0.0
C286 C 0.87914 0.14901 0.50388 0.0
C287 C 0.83206 0.13085 0.49248 0.0
C288 C 0.00368 0.13084 0.48029 0.0
C289 C 0.87358 0.11236 0.47799 0.0
C290 C 0.13275 0.11269 0.45327 0.0
C291 C 0.22617 0.14752 0.48173 0.0
N292 N 0.95724 0.11291 0.47179 0.0
N293 N 0.14174 0.14801 0.48349 0.0
H294 H 0.68188 0.89125 0.47418 0.0
H295 H 0.10428 0.82651 0.5027 0.0
H296 H 0.711 0.82247 0.45966 0.0
H297 H 0.10667 0.89462 0.47519 0.0
H298 H 0.95311 0.82717 0.50286 0.0
H299 H 0.83304 0.89487 0.48141 0.0
C300 C 0.72075 0.87705 0.47051 0.0
C301 C 0.68508 0.85651 0.46615 0.0
C302 C -0.0136 0.84206 0.49713 0.0
C303 C 0.85556 0.86039 0.47608 0.0
C304 C 0.07238 0.84172 0.49769 0.0
C305 C 0.11666 0.8604 0.48781 0.0
C306 C 0.94493 0.86113 0.48579 0.0
C307 C 0.07358 0.87985 0.48222 0.0
C308 C 0.80646 0.87909 0.47548 0.0
C309 C 0.7368 0.83853 0.46283 0.0
N310 N -0.01089 0.87969 0.48037 0.0
N311 N 0.81971 0.84087 0.46829 0.0
H312 H 0.08652 0.54937 0.94666 0.0
H313 H 0.91304 0.43784 0.0332 0.0
H314 H 0.88534 0.54802 0.03794 0.0
H315 H 0.12144 0.44614 0.94868 0.0
H316 H 0.90776 0.47736 0.04412 0.0
H317 H 0.10468 0.51129 0.95465 0.0
C318 C 0.04635 0.54109 0.96898 0.0
C319 C -0.01607 0.55206 -0.00845 0.0
C320 C 0.95569 0.47044 0.02402 0.0
C321 C 0.0047 0.5075 0.00086 0.0
C322 C 0.95911 0.44799 0.01807 0.0
C323 C 0.01805 0.43902 -0.00992 0.0
C324 C 0.01174 0.48362 0.00171 0.0
C325 C 0.07535 0.45256 0.9705 0.0
C326 C 0.05693 0.5191 0.97355 0.0
C327 C 0.93378 0.54013 0.01964 0.0
N328 N 0.07046 0.47413 0.97655 0.0
N329 N 0.94484 0.51832 0.02334 0.0
H330 H 0.86631 0.44731 0.52887 0.0
H331 H -0.01724 0.55667 0.42305 0.0
H332 H 0.01899 0.43928 0.41701 0.0
H333 H 0.03877 0.53884 0.55294 0.0
H334 H 0.9606 0.51787 0.4061 0.0
H335 H 0.87896 0.48633 0.5222 0.0
C336 C 0.89917 0.45386 0.50163 0.0
C337 C 0.94124 0.44022 0.47332 0.0
C338 C 0.97911 0.52267 0.43797 0.0
C339 C 0.95787 0.48475 0.46618 0.0
C340 C -0.008 0.54464 0.44762 0.0
C341 C 0.01069 0.55092 0.48974 0.0
C342 C -0.01565 0.50739 0.47091 0.0
C343 C 0.02226 0.53478 0.52039 0.0
C344 C 0.90714 0.47606 0.49811 0.0
C345 C -0.0149 0.44944 0.43917 0.0
N346 N 0.00764 0.51389 0.51055 0.0
N347 N -0.00616 0.47135 0.43688 0.0
H348 H 0.37584 0.94103 0.94871 0.0
H349 H 0.56437 0.05035 0.02775 0.0
H350 H 0.59401 0.94133 0.02893 0.0
H351 H 0.31518 0.0427 0.98015 0.0
H352 H 0.57329 0.01104 0.03829 0.0
H353 H 0.35077 0.97833 0.96651 0.0
C354 C 0.4189 0.949 0.97014 0.0
C355 C 0.48816 0.9381 0.98672 0.0
C356 C 0.51571 0.01805 0.02697 0.0
C357 C 0.4592 0.98135 0.00765 0.0
C358 C 0.51038 0.04043 0.02134 0.0
C359 C 0.43892 0.04948 0.00302 0.0
C360 C 0.44937 0.00496 0.01353 0.0
C361 C 0.37118 0.03617 -0.00564 0.0
C362 C 0.40389 0.97036 0.98074 0.0
C363 C 0.54042 0.94924 0.0151 0.0
N364 N 0.3785 0.01453 -0.00091 0.0
N365 N 0.52571 0.97049 0.02416 0.0
H366 H 0.46475 0.05445 0.43433 0.0
H367 H 0.47521 0.94098 0.55215 0.0
H368 H 0.5726 0.04128 0.55762 0.0
H369 H 0.45416 0.94215 0.41505 0.0
H370 H 0.4871 0.97988 0.55303 0.0
H371 H 0.44725 0.01509 0.42316 0.0
C372 C 0.48638 0.0433 0.45849 0.0
C373 C 0.51955 0.05101 0.49717 0.0
C374 C 0.48022 0.97182 0.52251 0.0
C375 C 0.49797 0.0067 0.48517 0.0
C376 C 0.47289 0.9496 0.52211 0.0
C377 C 0.46482 0.9385 0.48351 0.0
C378 C 0.4809 0.98324 0.48391 0.0
C379 C 0.46071 0.95035 0.44542 0.0
C380 C 0.47573 0.02097 0.45226 0.0
C381 C 0.54587 0.03606 0.5276 0.0
N382 N 0.46971 0.97229 0.44643 0.0
N383 N 0.53382 0.01476 0.52108 0.0
H384 H 0.05567 0.27671 0.02195 0.0
H385 H 0.37054 0.19835 0.90089 0.0
H386 H 0.19847 0.29987 0.91536 0.0
H387 H 0.31532 0.19968 0.03564 0.0
H388 H 0.27386 0.22921 0.89096 0.0
H389 H 0.1082 0.24036 0.00875 0.0
C390 C 0.09484 0.27383 -0.00566 0.0
C391 C 0.12322 0.29104 0.96964 0.0
C392 C 0.2832 0.2225 0.92247 0.0
C393 C 0.18621 0.24998 0.95551 0.0
C394 C 0.33855 0.2052 0.92818 0.0
C395 C 0.35253 0.19706 0.9693 0.0
C396 C 0.23997 0.23078 0.95791 0.0
C397 C 0.30828 0.20595 0.00361 0.0
C398 C 0.12565 0.25321 0.98714 0.0
C399 C 0.17537 0.28678 0.93484 0.0
N400 N 0.254 0.22224 -0.00289 0.0
N401 N 0.20718 0.2666 0.92928 0.0
H402 H 0.71988 0.80576 0.93299 0.0
H403 H 0.766 0.68958 0.02465 0.0
H404 H 0.52463 0.77142 -0.00251 0.0
H405 H 0.93173 0.71076 0.92537 0.0
H406 H 0.67377 0.71938 0.00919 0.0
H407 H 0.79165 0.77132 0.91983 0.0
C408 C 0.69003 0.79085 0.9424 0.0
C409 C 0.61695 0.7913 0.96691 0.0
C410 C 0.72977 0.71763 -0.00967 0.0
C411 C 0.69946 0.75226 0.95335 0.0
C412 C 0.78271 0.70059 -0.00067 0.0
C413 C 0.85608 0.6977 0.97609 0.0
C414 C 0.75132 0.73258 0.95869 0.0
C415 C 0.87557 0.7126 0.94404 0.0
C416 C 0.73159 0.77124 0.9354 0.0
C417 C 0.58133 0.77169 0.97888 0.0
N418 N 0.82389 0.72974 0.93665 0.0
N419 N 0.62377 0.75301 0.9728 0.0
H420 H 0.03039 0.7212 0.4896 0.0
H421 H 0.45651 0.77037 0.49077 0.0
H422 H 0.23507 0.68331 0.53706 0.0
H423 H 0.25032 0.80988 0.53127 0.0
H424 H 0.37944 0.73816 0.51283 0.0
H425 H 0.10538 0.7542 0.50974 0.0
C426 C 0.08987 0.71989 0.5056 0.0
C427 C 0.1269 0.69967 0.51178 0.0
C428 C 0.35216 0.75393 0.51825 0.0
C429 C 0.21433 0.73703 0.53276 0.0
C430 C 0.39637 0.77227 0.50587 0.0
C431 C 0.35977 0.79269 0.50945 0.0
C432 C 0.2696 0.7561 0.53234 0.0
C433 C 0.28089 0.79435 0.52843 0.0
C434 C 0.13272 0.73865 0.517 0.0
C435 C 0.20442 0.69869 0.53213 0.0
N436 N 0.23713 0.77622 0.53787 0.0
N437 N 0.24689 0.71714 0.54067 0.0
H438 H 0.77963 0.30192 0.55586 0.0
H439 H 0.66888 0.19483 0.44226 0.0
H440 H 0.92981 0.27275 0.4576 0.0
H441 H 0.57649 0.20605 0.56953 0.0
H442 H 0.77093 0.22296 0.45245 0.0
H443 H 0.7167 0.26657 0.57024 0.0
C444 C 0.80254 0.28784 0.53893 0.0
C445 C 0.85897 0.29014 0.5051 0.0
C446 C 0.72879 0.21943 0.47842 0.0
C447 C 0.78584 0.25016 0.52023 0.0
C448 C 0.66944 0.20357 0.47228 0.0
C449 C 0.61259 0.19868 0.50457 0.0
C450 C 0.73063 0.23107 0.51688 0.0
C451 C 0.61805 0.20988 0.54348 0.0
C452 C 0.76591 0.26773 0.5468 0.0
C453 C 0.88586 0.27159 0.48366 0.0
N454 N 0.67517 0.22601 0.54832 0.0
N455 N 0.84773 0.25246 0.49092 0.0
H456 H 0.9419 0.38815 0.12304 0.0
H457 H 0.04217 0.3487 0.35683 0.0
H458 H 0.10694 0.33621 0.15869 0.0
H459 H 0.85786 0.397 0.32859 0.0
H460 H 0.10291 0.35412 0.28642 0.0
H461 H 0.93969 0.39996 0.1985 0.0
C462 C 0.97761 0.37935 0.1466 0.0
C463 C 0.02187 0.36073 0.13504 0.0
C464 C 0.05103 0.36419 0.29601 0.0
C465 C 0.02196 0.37432 0.22018 0.0
C466 C 0.01749 0.36135 0.33661 0.0
C467 C 0.94438 0.37217 0.34779 0.0
C468 C 0.00972 0.37763 0.26659 0.0
C469 C 0.91385 0.38818 0.32045 0.0
C470 C 0.97705 0.38614 0.18941 0.0
C471 C 0.0692 0.35018 0.16641 0.0
N472 N 0.94501 0.38998 0.28036 0.0
N473 N 0.06723 0.35697 0.20737 0.0
H474 H 0.89994 0.59039 0.12964 0.0
H475 H 0.91363 0.64198 0.35429 0.0
H476 H 0.95606 0.65695 0.15852 0.0
H477 H 0.09928 0.59242 0.33909 0.0
H478 H 0.86829 0.63566 0.28118 0.0
H479 H 0.93321 0.58102 0.20475 0.0
C480 C 0.9203 0.60286 0.15156 0.0
C481 C 0.9218 0.62457 0.139 0.0
C482 C 0.91602 0.62535 0.29463 0.0
C483 C 0.95761 0.61419 0.22277 0.0
C484 C 0.94087 0.62871 0.33646 0.0
C485 C 0.01067 0.61788 0.35189 0.0
C486 C 0.96115 0.61099 0.2688 0.0
C487 C 0.04552 0.60115 0.32749 0.0
C488 C 0.93883 0.59754 0.19398 0.0
C489 C 0.95054 0.64017 0.16773 0.0
N490 N 0.0223 0.59863 0.28607 0.0
N491 N 0.96583 0.63475 0.20858 0.0
H492 H 0.82062 0.60791 0.80467 0.0
H493 H 0.17127 0.64783 0.66816 0.0
H494 H 0.98095 0.65757 0.85427 0.0
H495 H 0.93224 0.64044 0.60839 0.0
H496 H 0.10118 0.65225 0.73732 0.0
H497 H 0.84881 0.62087 0.73212 0.0
C498 C 0.85831 0.6222 0.80031 0.0
C499 C 0.89852 0.63177 0.83506 0.0
C500 C 0.06408 0.64983 0.70887 0.0
C501 C 0.93616 0.64541 0.75304 0.0
C502 C 0.10406 0.64713 0.66965 0.0
C503 C 0.05754 0.64238 0.63318 0.0
C504 C 0.97722 0.64762 0.71127 0.0
C505 C 0.97048 0.64233 0.63634 0.0
C506 C 0.87535 0.62943 0.75903 0.0
C507 C 0.94844 0.64994 0.82796 0.0
N508 N 0.93299 0.64432 0.67491 0.0
N509 N 0.96878 0.65566 0.78758 0.0
H510 H 0.81818 0.37445 0.64887 0.0
H511 H 0.06813 0.32295 0.84209 0.0
H512 H 0.02024 0.33092 0.62226 0.0
H513 H 0.95313 0.38583 0.83824 0.0
H514 H 0.04148 0.3191 0.76449 0.0
H515 H 0.8361 0.36765 0.72494 0.0
C516 C 0.86318 0.36246 0.65895 0.0
C517 C 0.92026 0.35394 0.62987 0.0
C518 C 0.02251 0.33369 0.78097 0.0
C519 C 0.94437 0.34703 0.71608 0.0
C520 C 0.03927 0.33607 0.82471 0.0
C521 C 0.0114 0.35459 0.84621 0.0
C522 C 0.97452 0.34949 0.76021 0.0
C523 C 0.97507 0.37126 0.82258 0.0
C524 C 0.87524 0.35909 0.70238 0.0
C525 C 0.97663 0.33825 0.64433 0.0
N526 N 0.95531 0.36805 0.78121 0.0
N527 N -0.00967 0.33597 0.68688 0.0
H528 H 0.3864 0.86546 0.13111 0.0
H529 H 0.57642 0.86246 0.34493 0.0
H530 H 0.64033 0.8865 0.14134 0.0
H531 H 0.33203 0.89029 0.33498 0.0
H532 H 0.60662 0.87454 0.2722 0.0
H533 H 0.36198 0.87769 0.20459 0.0
C534 C 0.43566 0.87377 0.14804 0.0
C535 C 0.51517 0.87528 0.1301 0.0
C536 C 0.54762 0.87887 0.28654 0.0
C537 C 0.48952 0.88789 0.21476 0.0
C538 C 0.53086 0.87221 0.32827 0.0
C539 C 0.45167 0.87544 0.34581 0.0
C540 C 0.48357 0.88805 0.262 0.0
C541 C 0.394 0.88765 0.32252 0.0
C542 C 0.42213 0.8805 0.19016 0.0
C543 C 0.57779 0.88545 0.15393 0.0
N544 N 0.40971 0.89275 0.28111 0.0
N545 N 0.56467 0.8906 0.19561 0.0
H546 H 0.56214 0.12908 0.12115 0.0
H547 H 0.41802 0.11834 0.35555 0.0
H548 H 0.31113 0.11315 0.15647 0.0
H549 H 0.67494 0.12173 0.31765 0.0
H550 H 0.3815 0.10655 0.28329 0.0
H551 H 0.60999 0.11685 0.19103 0.0
C552 C 0.51773 0.12229 0.14335 0.0
C553 C 0.43292 0.12236 0.13405 0.0
C554 C 0.44629 0.10916 0.29104 0.0
C555 C 0.48591 0.10875 0.21377 0.0
C556 C 0.46691 0.11585 0.33225 0.0
C557 C 0.54903 0.12141 0.34166 0.0
C558 C 0.50846 0.10834 0.25946 0.0
C559 C 0.61052 0.11805 0.31083 0.0
C560 C 0.54473 0.11531 0.1832 0.0
C561 C 0.37704 0.11364 0.16339 0.0
N562 N 0.58884 0.11205 0.27076 0.0
N563 N 0.40435 0.10748 0.20244 0.0
H564 H 0.52455 0.16502 0.85558 0.0
H565 H 0.52918 0.10426 0.6426 0.0
H566 H 0.35245 0.11401 0.82604 0.0
H567 H 0.55124 0.17346 0.63438 0.0
H568 H 0.4915 0.10772 0.71743 0.0
H569 H 0.54323 0.17156 0.77903 0.0
C570 C 0.48738 0.15601 0.83288 0.0
C571 C 0.4392 0.13852 0.84636 0.0
C572 C 0.50661 0.12213 0.69952 0.0
C573 C 0.46365 0.14497 0.76046 0.0
C574 C 0.53093 0.12013 0.65731 0.0
C575 C 0.54173 0.13869 0.63253 0.0
C576 C 0.49728 0.14277 0.71731 0.0
C577 C 0.54209 0.15888 0.65273 0.0
C578 C 0.49905 0.15951 0.78943 0.0
C579 C 0.3915 0.12736 0.81638 0.0
N580 N 0.5191 0.16049 0.69436 0.0
N581 N 0.40767 0.13011 0.77437 0.0
H582 H 0.46735 0.83085 0.62531 0.0
H583 H 0.54225 0.88842 0.84611 0.0
H584 H 0.36254 0.89242 0.65994 0.0
H585 H 0.55754 0.81905 0.83708 0.0
H586 H 0.49351 0.88974 0.77277 0.0
H587 H 0.50097 0.82426 0.70036 0.0
C588 C 0.44688 0.84242 0.64915 0.0
C589 C 0.41331 0.86236 0.63666 0.0
C590 C 0.50888 0.87422 0.78652 0.0
C591 C 0.45495 0.85545 0.7216 0.0
C592 C 0.53924 0.8735 0.82804 0.0
C593 C 0.55307 0.85353 0.84783 0.0
C594 C 0.49443 0.85491 0.76421 0.0
C595 C 0.54704 0.83473 0.82287 0.0
C596 C 0.46783 0.83885 0.6918 0.0
C597 C 0.38927 0.87697 0.66841 0.0
N598 N 0.51711 0.83581 0.78229 0.0
N599 N 0.41253 0.87348 0.70945 0.0
loop_
_geom_bond_atom_site_label_1
_geom_bond_atom_site_label_2
_geom_bond_distance
_geom_bond_site_symmetry_2
_ccdc_geom_bond_type
O0 Mg1 1.990 . S
O0 C14 1.253 . S
Mg1 O0 1.990 . S
Mg1 O4 2.180 1_655 S
Mg1 O5 2.117 . S
Mg1 O19 2.030 . S
O2 Mg3 2.072 1_655 S
O2 C14 1.260 1_554 S
Mg3 O2 2.072 1_455 S
Mg3 O4 2.098 1_554 S
Mg3 O6 2.079 1_554 S
Mg3 O7 2.072 1_554 S
Mg3 O9 2.099 . S
Mg3 O20 2.079 . S
O4 Mg1 2.180 1_455 S
O4 Mg3 2.098 1_556 S
O4 C15 1.279 . S
O5 Mg1 2.117 . S
O5 C15 1.250 1_655 S
O6 Mg3 2.079 1_556 S
O6 C16 1.264 1_556 S
O7 Mg3 2.072 1_556 S
O7 C17 1.260 1_556 S
Mg8 O9 2.180 . S
Mg8 O10 2.030 . S
Mg8 O11 1.990 . S
Mg8 O12 2.117 . S
O9 Mg3 2.099 . S
O9 Mg8 2.180 . S
O9 C18 1.279 . S
O10 Mg8 2.030 . S
O10 C16 1.248 . S
O11 Mg8 1.990 . S
O11 C17 1.253 . S
O12 Mg8 2.117 . S
O12 C18 1.250 . S
C13 O19 1.248 1_455 S
C13 O20 1.264 1_556 S
C14 O0 1.253 . S
C14 O2 1.260 1_556 S
C15 O4 1.279 . S
C15 O5 1.250 1_455 S
C16 O6 1.264 1_554 S
C16 O10 1.248 . S
C17 O7 1.260 1_554 S
C17 O11 1.253 . S
C18 O9 1.279 . S
C18 O12 1.250 . S
O19 Mg1 2.030 . S
O19 C13 1.248 1_655 S
O20 Mg3 2.079 . S
O20 C13 1.264 1_554 S
O21 Mg22 1.990 . S
O21 C35 1.253 . S
Mg22 O21 1.990 . S
Mg22 O25 2.180 1_455 S
Mg22 O26 2.117 . S
Mg22 O40 2.030 . S
O23 Mg24 2.072 1_455 S
O23 C35 1.260 1_554 S
Mg24 O23 2.072 1_655 S
Mg24 O25 2.098 1_554 S
Mg24 O27 2.079 1_554 S
Mg24 O28 2.072 1_554 S
Mg24 O30 2.099 . S
Mg24 O41 2.079 . S
O25 Mg22 2.180 1_655 S
O25 Mg24 2.098 1_556 S
O25 C36 1.279 . S
O26 Mg22 2.117 . S
O26 C36 1.250 1_455 S
O27 Mg24 2.079 1_556 S
O27 C37 1.264 1_556 S
O28 Mg24 2.072 1_556 S
O28 C38 1.260 1_556 S
Mg29 O30 2.180 . S
Mg29 O31 2.030 . S
Mg29 O32 1.990 . S
Mg29 O33 2.117 . S
O30 Mg24 2.099 . S
O30 Mg29 2.180 . S
O30 C39 1.279 . S
O31 Mg29 2.030 . S
O31 C37 1.248 . S
O32 Mg29 1.990 . S
O32 C38 1.253 . S
O33 Mg29 2.117 . S
O33 C39 1.250 . S
C34 O40 1.248 1_655 S
C34 O41 1.264 1_556 S
C35 O21 1.253 . S
C35 O23 1.260 1_556 S
C36 O25 1.279 . S
C36 O26 1.250 1_655 S
C37 O27 1.264 1_554 S
C37 O31 1.248 . S
C38 O28 1.260 1_554 S
C38 O32 1.253 . S
C39 O30 1.279 . S
C39 O33 1.250 . S
O40 Mg22 2.030 . S
O40 C34 1.248 1_455 S
O41 Mg24 2.079 . S
O41 C34 1.264 1_554 S
O42 Mg43 1.990 . S
O42 C56 1.253 . S
Mg43 O42 1.990 . S
Mg43 O46 2.180 . S
Mg43 O47 2.117 . S
Mg43 O61 2.030 . S
O44 Mg45 2.072 . S
O44 C56 1.260 . S
Mg45 O44 2.072 . S
Mg45 O46 2.099 . S
Mg45 O48 2.079 . S
Mg45 O49 2.072 1_455 S
Mg45 O51 2.099 . S
Mg45 O62 2.079 . S
O46 Mg43 2.180 . S
O46 Mg45 2.099 . S
O46 C57 1.279 . S
O47 Mg43 2.117 . S
O47 C57 1.250 . S
O48 Mg45 2.079 . S
O48 C58 1.264 . S
O49 Mg45 2.072 1_655 S
O49 C59 1.260 . S
Mg50 O51 2.180 1_655 S
Mg50 O52 2.030 . S
Mg50 O53 1.990 . S
Mg50 O54 2.117 . S
O51 Mg45 2.099 . S
O51 Mg50 2.180 1_455 S
O51 C60 1.279 . S
O52 Mg50 2.030 . S
O52 C58 1.248 1_655 S
O53 Mg50 1.990 . S
O53 C59 1.253 . S
O54 Mg50 2.117 . S
O54 C60 1.250 1_655 S
C55 O61 1.248 . S
C55 O62 1.264 . S
C56 O42 1.253 . S
C56 O44 1.260 . S
C57 O46 1.279 . S
C57 O47 1.250 . S
C58 O48 1.264 . S
C58 O52 1.248 1_455 S
C59 O49 1.260 . S
C59 O53 1.253 . S
C60 O51 1.279 . S
C60 O54 1.250 1_455 S
O61 Mg43 2.030 . S
O61 C55 1.248 . S
O62 Mg45 2.079 . S
O62 C55 1.264 . S
O63 Mg64 1.990 . S
O63 C77 1.253 . S
Mg64 O63 1.990 . S
Mg64 O67 2.180 1_455 S
Mg64 O68 2.117 . S
Mg64 O82 2.030 . S
O65 Mg66 2.072 1_455 S
O65 C77 1.260 . S
Mg66 O65 2.072 1_655 S
Mg66 O67 2.099 . S
Mg66 O69 2.079 . S
Mg66 O70 2.072 . S
Mg66 O72 2.099 . S
Mg66 O83 2.079 . S
O67 Mg64 2.180 1_655 S
O67 Mg66 2.099 . S
O67 C78 1.279 . S
O68 Mg64 2.117 . S
O68 C78 1.250 1_455 S
O69 Mg66 2.079 . S
O69 C79 1.264 . S
O70 Mg66 2.072 . S
O70 C80 1.260 . S
Mg71 O72 2.180 . S
Mg71 O73 2.030 . S
Mg71 O74 1.990 . S
Mg71 O75 2.117 . S
O72 Mg66 2.099 . S
O72 Mg71 2.180 . S
O72 C81 1.279 . S
O73 Mg71 2.030 . S
O73 C79 1.248 . S
O74 Mg71 1.990 . S
O74 C80 1.253 . S
O75 Mg71 2.117 . S
O75 C81 1.250 . S
C76 O82 1.248 1_655 S
C76 O83 1.264 . S
C77 O63 1.253 . S
C77 O65 1.260 . S
C78 O67 1.279 . S
C78 O68 1.250 1_655 S
C79 O69 1.264 . S
C79 O73 1.248 . S
C80 O70 1.260 . S
C80 O74 1.253 . S
C81 O72 1.279 . S
C81 O75 1.250 . S
O82 Mg64 2.030 . S
O82 C76 1.248 1_455 S
O83 Mg66 2.079 . S
O83 C76 1.264 . S
O84 Mg85 1.990 . S
O84 C98 1.253 . S
Mg85 O84 1.990 . S
Mg85 O88 2.180 . S
Mg85 O89 2.117 . S
Mg85 O103 2.030 . S
O86 Mg87 2.072 . S
O86 C98 1.260 1_554 S
Mg87 O86 2.072 . S
Mg87 O88 2.098 1_554 S
Mg87 O90 2.079 1_554 S
Mg87 O91 2.072 1_554 S
Mg87 O93 2.099 . S
Mg87 O104 2.079 . S
O88 Mg85 2.180 . S
O88 Mg87 2.098 1_556 S
O88 C99 1.279 . S
O89 Mg85 2.117 . S
O89 C99 1.250 . S
O90 Mg87 2.079 1_556 S
O90 C100 1.264 1_556 S
O91 Mg87 2.072 1_556 S
O91 C101 1.260 1_556 S
Mg92 O93 2.180 . S
Mg92 O94 2.030 . S
Mg92 O95 1.990 . S
Mg92 O96 2.117 . S
O93 Mg87 2.099 . S
O93 Mg92 2.180 . S
O93 C102 1.279 . S
O94 Mg92 2.030 . S
O94 C100 1.248 . S
O95 Mg92 1.990 . S
O95 C101 1.253 . S
O96 Mg92 2.117 . S
O96 C102 1.250 . S
C97 O103 1.248 . S
C97 O104 1.264 1_556 S
C98 O84 1.253 . S
C98 O86 1.260 1_556 S
C99 O88 1.279 . S
C99 O89 1.250 . S
C100 O90 1.264 1_554 S
C100 O94 1.248 . S
C101 O91 1.260 1_554 S
C101 O95 1.253 . S
C102 O93 1.279 . S
C102 O96 1.250 . S
O103 Mg85 2.030 . S
O103 C97 1.248 . S
O104 Mg87 2.079 . S
O104 C97 1.264 1_554 S
O105 Mg106 1.990 . S
O105 C119 1.253 . S
Mg106 O105 1.990 . S
Mg106 O109 2.180 . S
Mg106 O110 2.117 . S
Mg106 O124 2.030 . S
O107 Mg108 2.072 . S
O107 C119 1.260 1_554 S
Mg108 O107 2.072 . S
Mg108 O109 2.098 1_554 S
Mg108 O111 2.079 1_554 S
Mg108 O112 2.072 1_554 S
Mg108 O114 2.099 . S
Mg108 O125 2.079 . S
O109 Mg106 2.180 . S
O109 Mg108 2.098 1_556 S
O109 C120 1.279 . S
O110 Mg106 2.117 . S
O110 C120 1.250 . S
O111 Mg108 2.079 1_556 S
O111 C121 1.264 1_556 S
O112 Mg108 2.072 1_556 S
O112 C122 1.260 1_556 S
Mg113 O114 2.180 . S
Mg113 O115 2.030 . S
Mg113 O116 1.990 . S
Mg113 O117 2.117 . S
O114 Mg108 2.099 . S
O114 Mg113 2.180 . S
O114 C123 1.279 . S
O115 Mg113 2.030 . S
O115 C121 1.248 . S
O116 Mg113 1.990 . S
O116 C122 1.253 . S
O117 Mg113 2.117 . S
O117 C123 1.250 . S
C118 O124 1.248 . S
C118 O125 1.264 1_556 S
C119 O105 1.253 . S
C119 O107 1.260 1_556 S
C120 O109 1.279 . S
C120 O110 1.250 . S
C121 O111 1.264 1_554 S
C121 O115 1.248 . S
C122 O112 1.260 1_554 S
C122 O116 1.253 . S
C123 O114 1.279 . S
C123 O117 1.250 . S
O124 Mg106 2.030 . S
O124 C118 1.248 . S
O125 Mg108 2.079 . S
O125 C118 1.264 1_554 S
O126 Mg127 1.990 . S
O126 C140 1.253 . S
Mg127 O126 1.990 . S
Mg127 O130 2.180 . S
Mg127 O131 2.117 . S
Mg127 O145 2.030 . S
O128 Mg129 2.072 . S
O128 C140 1.260 . S
Mg129 O128 2.072 . S
Mg129 O130 2.099 . S
Mg129 O132 2.079 . S
Mg129 O133 2.072 . S
Mg129 O135 2.099 . S
Mg129 O146 2.079 . S
O130 Mg127 2.180 . S
O130 Mg129 2.099 . S
O130 C141 1.279 . S
O131 Mg127 2.117 . S
O131 C141 1.250 . S
O132 Mg129 2.079 . S
O132 C142 1.264 . S
O133 Mg129 2.072 . S
O133 C143 1.260 . S
Mg134 O135 2.180 . S
Mg134 O136 2.030 . S
Mg134 O137 1.990 . S
Mg134 O138 2.117 . S
O135 Mg129 2.099 . S
O135 Mg134 2.180 . S
O135 C144 1.279 . S
O136 Mg134 2.030 . S
O136 C142 1.248 . S
O137 Mg134 1.990 . S
O137 C143 1.253 . S
O138 Mg134 2.117 . S
O138 C144 1.250 . S
C139 O145 1.248 . S
C139 O146 1.264 . S
C140 O126 1.253 . S
C140 O128 1.260 . S
C141 O130 1.279 . S
C141 O131 1.250 . S
C142 O132 1.264 . S
C142 O136 1.248 . S
C143 O133 1.260 . S
C143 O137 1.253 . S
C144 O135 1.279 . S
C144 O138 1.250 . S
O145 Mg127 2.030 . S
O145 C139 1.248 . S
O146 Mg129 2.079 . S
O146 C139 1.264 . S
O147 Mg148 1.990 . S
O147 C161 1.253 . S
Mg148 O147 1.990 . S
Mg148 O151 2.180 . S
Mg148 O152 2.117 . S
Mg148 O166 2.030 . S
O149 Mg150 2.072 . S
O149 C161 1.260 . S
Mg150 O149 2.072 . S
Mg150 O151 2.099 . S
Mg150 O153 2.079 . S
Mg150 O154 2.072 . S
Mg150 O156 2.099 . S
Mg150 O167 2.079 . S
O151 Mg148 2.180 . S
O151 Mg150 2.099 . S
O151 C162 1.279 . S
O152 Mg148 2.117 . S
O152 C162 1.250 . S
O153 Mg150 2.079 . S
O153 C163 1.264 . S
O154 Mg150 2.072 . S
O154 C164 1.260 . S
Mg155 O156 2.180 . S
Mg155 O157 2.030 . S
Mg155 O158 1.990 . S
Mg155 O159 2.117 . S
O156 Mg150 2.099 . S
O156 Mg155 2.180 . S
O156 C165 1.279 . S
O157 Mg155 2.030 . S
O157 C163 1.248 . S
O158 Mg155 1.990 . S
O158 C164 1.253 . S
O159 Mg155 2.117 . S
O159 C165 1.250 . S
C160 O166 1.248 . S
C160 O167 1.264 . S
C161 O147 1.253 . S
C161 O149 1.260 . S
C162 O151 1.279 . S
C162 O152 1.250 . S
C163 O153 1.264 . S
C163 O157 1.248 . S
C164 O154 1.260 . S
C164 O158 1.253 . S
C165 O156 1.279 . S
C165 O159 1.250 . S
O166 Mg148 2.030 . S
O166 C160 1.248 . S
O167 Mg150 2.079 . S
O167 C160 1.264 . S
H168 C174 0.930 . S
H169 C178 0.930 . S
H170 C183 0.929 . S
H171 C181 0.929 . S
H172 C176 0.929 . S
H173 C182 0.929 . S
C174 H168 0.930 . S
C174 C175 1.367 1_554 S
C174 C182 1.378 . S
C175 C174 1.367 1_556 S
C175 C183 1.433 . S
C176 H172 0.929 . S
C176 C178 1.378 . S
C176 C180 1.350 1_556 S
C177 C180 1.463 . S
C177 C182 1.367 . S
C177 N185 1.408 1_554 S
C178 H169 0.930 . S
C178 C176 1.378 . S
C178 C179 1.367 1_556 S
C179 C178 1.367 1_554 S
C179 C181 1.433 . S
C180 C176 1.350 1_554 S
C180 C177 1.463 . S
C180 N184 1.427 . S
C181 H171 0.929 . S
C181 C179 1.433 . S
C181 N184 1.384 . S
C182 H173 0.929 . S
C182 C174 1.378 . S
C182 C177 1.367 . S
C183 H170 0.929 . S
C183 C175 1.433 . S
C183 N185 1.384 . S
N184 C180 1.427 . S
N184 C181 1.384 . S
N185 C177 1.408 1_556 S
N185 C183 1.384 . S
H186 C192 0.930 . S
H187 C196 0.930 . S
H188 C201 0.929 . S
H189 C199 0.929 . S
H190 C194 0.929 . S
H191 C200 0.929 . S
C192 H186 0.930 . S
C192 C193 1.367 1_556 S
C192 C200 1.378 . S
C193 C192 1.367 1_554 S
C193 C201 1.433 . S
C194 H190 0.929 . S
C194 C196 1.378 . S
C194 C198 1.355 . S
C195 C198 1.463 . S
C195 C200 1.350 1_554 S
C195 N203 1.427 . S
C196 H187 0.930 . S
C196 C194 1.378 . S
C196 C197 1.367 1_554 S
C197 C196 1.367 1_556 S
C197 C199 1.433 . S
C198 C194 1.355 . S
C198 C195 1.463 . S
C198 N202 1.422 1_554 S
C199 H189 0.929 . S
C199 C197 1.433 . S
C199 N202 1.384 . S
C200 H191 0.929 . S
C200 C192 1.378 . S
C200 C195 1.350 1_556 S
C201 H188 0.929 . S
C201 C193 1.433 . S
C201 N203 1.384 . S
N202 C198 1.422 1_556 S
N202 C199 1.384 . S
N203 C195 1.427 . S
N203 C201 1.384 . S
H204 C210 0.930 . S
H205 C214 0.930 . S
H206 C219 0.929 . S
H207 C217 0.929 . S
H208 C212 0.929 . S
H209 C218 0.929 . S
C210 H204 0.930 . S
C210 C211 1.367 . S
C210 C218 1.378 . S
C211 C210 1.367 . S
C211 C219 1.433 . S
C212 H208 0.929 . S
C212 C214 1.378 . S
C212 C216 1.350 . S
C213 C216 1.463 . S
C213 C218 1.350 . S
C213 N221 1.427 . S
C214 H205 0.930 . S
C214 C212 1.378 . S
C214 C215 1.367 . S
C215 C214 1.367 . S
C215 C217 1.433 . S
C216 C212 1.350 . S
C216 C213 1.463 . S
C216 N220 1.427 . S
C217 H207 0.929 . S
C217 C215 1.433 . S
C217 N220 1.384 . S
C218 H209 0.929 . S
C218 C210 1.378 . S
C218 C213 1.350 . S
C219 H206 0.929 . S
C219 C211 1.433 . S
C219 N221 1.384 . S
N220 C216 1.427 . S
N220 C217 1.384 . S
N221 C213 1.427 . S
N221 C219 1.384 . S
H222 C228 0.930 . S
H223 C232 0.930 . S
H224 C237 0.929 . S
H225 C235 0.929 . S
H226 C230 0.929 . S
H227 C236 0.929 . S
C228 H222 0.930 . S
C228 C229 1.367 . S
C228 C236 1.378 . S
C229 C228 1.367 . S
C229 C237 1.433 . S
C230 H226 0.929 . S
C230 C232 1.378 . S
C230 C234 1.350 . S
C231 C234 1.463 . S
C231 C236 1.350 . S
C231 N239 1.427 . S
C232 H223 0.930 . S
C232 C230 1.378 . S
C232 C233 1.367 . S
C233 C232 1.367 . S
C233 C235 1.433 . S
C234 C230 1.350 . S
C234 C231 1.463 . S
C234 N238 1.427 . S
C235 H225 0.929 . S
C235 C233 1.433 . S
C235 N238 1.384 . S
C236 H227 0.929 . S
C236 C228 1.378 . S
C236 C231 1.350 . S
C237 H224 0.929 . S
C237 C229 1.433 . S
C237 N239 1.384 . S
N238 C234 1.427 . S
N238 C235 1.384 . S
N239 C231 1.427 . S
N239 C237 1.384 . S
H240 C246 0.930 . S
H241 C250 0.930 . S
H242 C255 0.929 1_554 S
H243 C253 0.929 . S
H244 C248 0.929 . S
H245 C254 0.929 1_455 S
C246 H240 0.930 . S
C246 C247 1.367 . S
C246 C254 1.378 . S
C247 C246 1.367 . S
C247 C255 1.435 . S
C248 H244 0.929 . S
C248 C250 1.378 . S
C248 C252 1.350 . S
C249 C252 1.462 1_556 S
C249 C254 1.350 1_455 S
C249 N257 1.427 1_456 S
C250 H241 0.930 . S
C250 C248 1.378 . S
C250 C251 1.367 . S
C251 C250 1.367 . S
C251 C253 1.433 . S
C252 C248 1.350 . S
C252 C249 1.462 1_554 S
C252 N256 1.428 . S
C253 H243 0.929 . S
C253 C251 1.433 . S
C253 N256 1.385 . S
C254 H245 0.929 1_655 S
C254 C246 1.378 . S
C254 C249 1.350 1_655 S
C255 H242 0.929 1_556 S
C255 C247 1.435 . S
C255 N257 1.383 1_556 S
N256 C252 1.428 . S
N256 C253 1.385 . S
N257 C249 1.427 1_654 S
N257 C255 1.383 1_554 S
H258 C264 0.930 . S
H259 C268 0.930 . S
H260 C273 0.929 . S
H261 C271 0.929 . S
H262 C266 0.929 . S
H263 C272 0.929 1_655 S
C264 H258 0.930 . S
C264 C265 1.367 1_554 S
C264 C272 1.378 . S
C265 C264 1.367 1_556 S
C265 C273 1.433 . S
C266 H262 0.929 . S
C266 C268 1.378 . S
C266 C270 1.350 1_556 S
C267 C270 1.463 . S
C267 C272 1.350 1_655 S
C267 N275 1.427 1_654 S
C268 H259 0.930 . S
C268 C266 1.378 . S
C268 C269 1.367 1_556 S
C269 C268 1.367 1_554 S
C269 C271 1.433 . S
C270 C266 1.350 1_554 S
C270 C267 1.463 . S
C270 N274 1.427 . S
C271 H261 0.929 . S
C271 C269 1.433 . S
C271 N274 1.384 . S
C272 H263 0.929 1_455 S
C272 C264 1.378 . S
C272 C267 1.350 1_455 S
C273 H260 0.929 . S
C273 C265 1.433 . S
C273 N275 1.384 . S
N274 C270 1.427 . S
N274 C271 1.384 . S
N275 C267 1.427 1_456 S
N275 C273 1.384 . S
H276 C282 0.930 . S
H277 C286 0.930 . S
H278 C291 0.929 . S
H279 C289 0.929 . S
H280 C284 0.929 1_455 S
H281 C290 0.929 . S
C282 H276 0.930 . S
C282 C283 1.367 . S
C282 C290 1.378 . S
C283 C282 1.367 . S
C283 C291 1.433 . S
C284 H280 0.929 1_655 S
C284 C286 1.378 . S
C284 C288 1.350 1_655 S
C285 C288 1.463 . S
C285 C290 1.350 . S
C285 N293 1.427 . S
C286 H277 0.930 . S
C286 C284 1.378 . S
C286 C287 1.367 . S
C287 C286 1.367 . S
C287 C289 1.433 . S
C288 C284 1.350 1_455 S
C288 C285 1.463 . S
C288 N292 1.427 1_455 S
C289 H279 0.929 . S
C289 C287 1.433 . S
C289 N292 1.384 . S
C290 H281 0.929 . S
C290 C282 1.378 . S
C290 C285 1.350 . S
C291 H278 0.929 . S
C291 C283 1.433 . S
C291 N293 1.384 . S
N292 C288 1.427 1_655 S
N292 C289 1.384 . S
N293 C285 1.427 . S
N293 C291 1.384 . S
H294 C300 0.930 . S
H295 C304 0.930 . S
H296 C309 0.929 . S
H297 C307 0.929 . S
H298 C302 0.929 1_655 S
H299 C308 0.929 . S
C300 H294 0.930 . S
C300 C301 1.367 . S
C300 C308 1.378 . S
C301 C300 1.367 . S
C301 C309 1.433 . S
C302 H298 0.929 1_455 S
C302 C304 1.378 . S
C302 C306 1.350 1_455 S
C303 C306 1.463 . S
C303 C308 1.350 . S
C303 N311 1.427 . S
C304 H295 0.930 . S
C304 C302 1.378 . S
C304 C305 1.367 . S
C305 C304 1.367 . S
C305 C307 1.433 . S
C306 C302 1.350 1_655 S
C306 C303 1.463 . S
C306 N310 1.427 1_655 S
C307 H297 0.929 . S
C307 C305 1.433 . S
C307 N310 1.384 . S
C308 H299 0.929 . S
C308 C300 1.378 . S
C308 C303 1.350 . S
C309 H296 0.929 . S
C309 C301 1.433 . S
C309 N311 1.384 . S
N310 C306 1.427 1_455 S
N310 C307 1.384 . S
N311 C303 1.427 . S
N311 C309 1.384 . S
H312 C318 0.930 . S
H313 C322 0.930 . S
H314 C327 0.929 . S
H315 C325 0.929 . S
H316 C320 0.929 . S
H317 C326 0.929 . S
C318 H312 0.930 . S
C318 C319 1.367 1_456 S
C318 C326 1.378 . S
C319 C318 1.367 1_654 S
C319 C327 1.433 . S
C320 H316 0.929 . S
C320 C322 1.378 . S
C320 C324 1.350 1_655 S
C321 C324 1.463 1_655 S
C321 C326 1.350 1_654 S
C321 N329 1.427 . S
C322 H313 0.930 . S
C322 C320 1.378 . S
C322 C323 1.367 1_655 S
C323 C322 1.367 1_455 S
C323 C325 1.433 1_554 S
C324 C320 1.350 1_455 S
C324 C321 1.463 1_455 S
C324 N328 1.427 1_554 S
C325 H315 0.929 . S
C325 C323 1.433 1_556 S
C325 N328 1.384 . S
C326 H317 0.929 . S
C326 C318 1.378 . S
C326 C321 1.350 1_456 S
C327 H314 0.929 . S
C327 C319 1.433 . S
C327 N329 1.384 . S
N328 C324 1.427 1_556 S
N328 C325 1.384 . S
N329 C321 1.427 . S
N329 C327 1.384 . S
H330 C336 0.930 . S
H331 C340 0.930 . S
H332 C345 0.930 . S
H333 C343 0.930 . S
H334 C338 0.929 . S
H335 C344 0.929 . S
C336 H330 0.930 . S
C336 C337 1.367 . S
C336 C344 1.378 . S
C337 C336 1.367 . S
C337 C345 1.432 1_655 S
C338 H334 0.929 . S
C338 C340 1.378 . S
C338 C342 1.350 . S
C339 C342 1.463 1_655 S
C339 C344 1.350 . S
C339 N347 1.427 1_655 S
C340 H331 0.930 . S
C340 C338 1.378 . S
C340 C341 1.367 . S
C341 C340 1.367 . S
C341 C343 1.432 1_455 S
C342 C338 1.350 . S
C342 C339 1.463 1_455 S
C342 N346 1.427 1_455 S
C343 H333 0.930 . S
C343 C341 1.432 1_655 S
C343 N346 1.384 . S
C344 H335 0.929 . S
C344 C336 1.378 . S
C344 C339 1.350 . S
C345 H332 0.930 . S
C345 C337 1.432 1_455 S
C345 N347 1.384 . S
N346 C342 1.427 1_655 S
N346 C343 1.384 . S
N347 C339 1.427 1_455 S
N347 C345 1.384 . S
H348 C354 0.930 . S
H349 C358 0.930 . S
H350 C363 0.929 . S
H351 C361 0.929 . S
H352 C356 0.929 . S
H353 C362 0.929 . S
C354 H348 0.930 . S
C354 C355 1.367 1_556 S
C354 C362 1.378 . S
C355 C354 1.367 1_554 S
C355 C363 1.433 . S
C356 H352 0.929 . S
C356 C358 1.378 . S
C356 C360 1.350 . S
C357 C360 1.463 1_565 S
C357 C362 1.350 1_554 S
C357 N365 1.427 . S
C358 H349 0.930 . S
C358 C356 1.378 . S
C358 C359 1.367 . S
C359 C358 1.367 . S
C359 C361 1.433 1_554 S
C360 C356 1.350 . S
C360 C357 1.463 1_545 S
C360 N364 1.427 1_554 S
C361 H351 0.929 . S
C361 C359 1.433 1_556 S
C361 N364 1.384 . S
C362 H353 0.929 . S
C362 C354 1.378 . S
C362 C357 1.350 1_556 S
C363 H350 0.929 . S
C363 C355 1.433 . S
C363 N365 1.384 . S
N364 C360 1.427 1_556 S
N364 C361 1.384 . S
N365 C357 1.427 . S
N365 C363 1.384 . S
H366 C372 0.930 . S
H367 C376 0.930 . S
H368 C381 0.929 . S
H369 C379 0.929 . S
H370 C374 0.929 . S
H371 C380 0.929 . S
C372 H366 0.930 . S
C372 C373 1.367 . S
C372 C380 1.378 . S
C373 C372 1.367 . S
C373 C381 1.433 . S
C374 H370 0.929 . S
C374 C376 1.378 . S
C374 C378 1.350 . S
C375 C378 1.463 1_545 S
C375 C380 1.350 . S
C375 N383 1.427 . S
C376 H367 0.930 . S
C376 C374 1.378 . S
C376 C377 1.367 . S
C377 C376 1.367 . S
C377 C379 1.433 . S
C378 C374 1.350 . S
C378 C375 1.463 1_565 S
C378 N382 1.427 . S
C379 H369 0.929 . S
C379 C377 1.433 . S
C379 N382 1.384 . S
C380 H371 0.929 . S
C380 C372 1.378 . S
C380 C375 1.350 . S
C381 H368 0.929 . S
C381 C373 1.433 . S
C381 N383 1.384 . S
N382 C378 1.427 . S
N382 C379 1.384 . S
N383 C375 1.427 . S
N383 C381 1.384 . S
H384 C390 0.930 . S
H385 C394 0.930 . S
H386 C399 0.929 . S
H387 C397 0.929 . S
H388 C392 0.929 . S
H389 C398 0.929 . S
C390 H384 0.930 . S
C390 C391 1.367 1_554 S
C390 C398 1.378 . S
C391 C390 1.367 1_556 S
C391 C399 1.433 . S
C392 H388 0.929 . S
C392 C394 1.378 . S
C392 C396 1.350 . S
C393 C396 1.463 . S
C393 C398 1.350 1_556 S
C393 N401 1.427 . S
C394 H385 0.930 . S
C394 C392 1.378 . S
C394 C395 1.367 . S
C395 C394 1.367 . S
C395 C397 1.433 1_556 S
C396 C392 1.350 . S
C396 C393 1.463 . S
C396 N400 1.427 1_556 S
C397 H387 0.929 . S
C397 C395 1.433 1_554 S
C397 N400 1.384 . S
C398 H389 0.929 . S
C398 C390 1.378 . S
C398 C393 1.350 1_554 S
C399 H386 0.929 . S
C399 C391 1.433 . S
C399 N401 1.384 . S
N400 C396 1.427 1_554 S
N400 C397 1.384 . S
N401 C393 1.427 . S
N401 C399 1.384 . S
H402 C408 0.930 . S
H403 C412 0.930 . S
H404 C417 0.929 . S
H405 C415 0.929 . S
H406 C410 0.929 . S
H407 C416 0.929 . S
C408 H402 0.930 . S
C408 C409 1.367 . S
C408 C416 1.378 . S
C409 C408 1.367 . S
C409 C417 1.433 1_556 S
C410 H406 0.929 . S
C410 C412 1.378 . S
C410 C414 1.350 1_554 S
C411 C414 1.463 . S
C411 C416 1.350 . S
C411 N419 1.427 1_556 S
C412 H403 0.930 . S
C412 C410 1.378 . S
C412 C413 1.367 1_554 S
C413 C412 1.367 1_556 S
C413 C415 1.433 . S
C414 C410 1.350 1_556 S
C414 C411 1.463 . S
C414 N418 1.427 . S
C415 H405 0.929 . S
C415 C413 1.433 . S
C415 N418 1.384 . S
C416 H407 0.929 . S
C416 C408 1.378 . S
C416 C411 1.350 . S
C417 H404 0.929 . S
C417 C409 1.433 1_554 S
C417 N419 1.384 . S
N418 C414 1.427 . S
N418 C415 1.384 . S
N419 C411 1.427 1_554 S
N419 C417 1.384 . S
H420 C426 0.930 . S
H421 C430 0.930 . S
H422 C435 0.929 . S
H423 C433 0.929 . S
H424 C428 0.929 . S
H425 C434 0.929 . S
C426 H420 0.930 . S
C426 C427 1.367 . S
C426 C434 1.378 . S
C427 C426 1.367 . S
C427 C435 1.433 . S
C428 H424 0.929 . S
C428 C430 1.378 . S
C428 C432 1.350 . S
C429 C432 1.463 . S
C429 C434 1.350 . S
C429 N437 1.427 . S
C430 H421 0.930 . S
C430 C428 1.378 . S
C430 C431 1.367 . S
C431 C430 1.367 . S
C431 C433 1.433 . S
C432 C428 1.350 . S
C432 C429 1.463 . S
C432 N436 1.427 . S
C433 H423 0.929 . S
C433 C431 1.433 . S
C433 N436 1.384 . S
C434 H425 0.929 . S
C434 C426 1.378 . S
C434 C429 1.350 . S
C435 H422 0.929 . S
C435 C427 1.433 . S
C435 N437 1.384 . S
N436 C432 1.427 . S
N436 C433 1.384 . S
N437 C429 1.427 . S
N437 C435 1.384 . S
H438 C444 0.930 . S
H439 C448 0.930 . S
H440 C453 0.929 . S
H441 C451 0.929 . S
H442 C446 0.929 . S
H443 C452 0.929 . S
C444 H438 0.930 . S
C444 C445 1.367 . S
C444 C452 1.378 . S
C445 C444 1.367 . S
C445 C453 1.433 . S
C446 H442 0.929 . S
C446 C448 1.378 . S
C446 C450 1.350 . S
C447 C450 1.463 . S
C447 C452 1.350 . S
C447 N455 1.427 . S
C448 H439 0.930 . S
C448 C446 1.378 . S
C448 C449 1.367 . S
C449 C448 1.367 . S
C449 C451 1.433 . S
C450 C446 1.350 . S
C450 C447 1.463 . S
C450 N454 1.427 . S
C451 H441 0.929 . S
C451 C449 1.433 . S
C451 N454 1.384 . S
C452 H443 0.929 . S
C452 C444 1.378 . S
C452 C447 1.350 . S
C453 H440 0.929 . S
C453 C445 1.433 . S
C453 N455 1.384 . S
N454 C450 1.427 . S
N454 C451 1.384 . S
N455 C447 1.427 . S
N455 C453 1.384 . S
H456 C462 0.930 . S
H457 C466 0.930 . S
H458 C471 0.929 . S
H459 C469 0.929 . S
H460 C464 0.929 . S
H461 C470 0.929 . S
C462 H456 0.930 . S
C462 C463 1.367 1_655 S
C462 C470 1.378 . S
C463 C462 1.367 1_455 S
C463 C471 1.433 . S
C464 H460 0.929 . S
C464 C466 1.378 . S
C464 C468 1.350 1_455 S
C465 C468 1.463 1_455 S
C465 C470 1.350 1_455 S
C465 N473 1.427 . S
C466 H457 0.930 . S
C466 C464 1.378 . S
C466 C467 1.367 1_455 S
C467 C466 1.367 1_655 S
C467 C469 1.433 . S
C468 C464 1.350 1_655 S
C468 C465 1.463 1_655 S
C468 N472 1.427 . S
C469 H459 0.929 . S
C469 C467 1.433 . S
C469 N472 1.384 . S
C470 H461 0.929 . S
C470 C462 1.378 . S
C470 C465 1.350 1_655 S
C471 H458 0.929 . S
C471 C463 1.433 . S
C471 N473 1.384 . S
N472 C468 1.427 . S
N472 C469 1.384 . S
N473 C465 1.427 . S
N473 C471 1.384 . S
H474 C480 0.930 1_455 S
H475 C484 0.930 1_655 S
H476 C489 0.929 . S
H477 C487 0.929 . S
H478 C482 0.929 . S
H479 C488 0.929 . S
C480 H474 0.930 1_655 S
C480 C481 1.367 . S
C480 C488 1.378 1_655 S
C481 C480 1.367 . S
C481 C489 1.433 . S
C482 H478 0.929 . S
C482 C484 1.378 1_655 S
C482 C486 1.350 1_655 S
C483 C486 1.463 1_655 S
C483 C488 1.350 1_655 S
C483 N491 1.427 . S
C484 H475 0.930 1_455 S
C484 C482 1.378 1_455 S
C484 C485 1.367 . S
C485 C484 1.367 . S
C485 C487 1.433 . S
C486 C482 1.350 1_455 S
C486 C483 1.463 1_455 S
C486 N490 1.427 . S
C487 H477 0.929 . S
C487 C485 1.433 . S
C487 N490 1.384 . S
C488 H479 0.929 . S
C488 C480 1.378 1_455 S
C488 C483 1.350 1_455 S
C489 H476 0.929 . S
C489 C481 1.433 . S
C489 N491 1.384 . S
N490 C486 1.427 . S
N490 C487 1.384 . S
N491 C483 1.427 . S
N491 C489 1.384 . S
H492 C498 0.930 . S
H493 C502 0.930 . S
H494 C507 0.929 . S
H495 C505 0.929 . S
H496 C500 0.929 . S
H497 C506 0.929 . S
C498 H492 0.930 . S
C498 C499 1.367 . S
C498 C506 1.378 . S
C499 C498 1.367 . S
C499 C507 1.433 1_655 S
C500 H496 0.929 . S
C500 C502 1.378 . S
C500 C504 1.350 . S
C501 C504 1.463 1_655 S
C501 C506 1.350 . S
C501 N509 1.427 1_655 S
C502 H493 0.930 . S
C502 C500 1.378 . S
C502 C503 1.367 . S
C503 C502 1.367 . S
C503 C505 1.433 1_455 S
C504 C500 1.350 . S
C504 C501 1.463 1_455 S
C504 N508 1.427 1_455 S
C505 H495 0.929 . S
C505 C503 1.433 1_655 S
C505 N508 1.384 . S
C506 H497 0.929 . S
C506 C498 1.378 . S
C506 C501 1.350 . S
C507 H494 0.929 . S
C507 C499 1.433 1_455 S
C507 N509 1.384 . S
N508 C504 1.427 1_655 S
N508 C505 1.384 . S
N509 C501 1.427 1_455 S
N509 C507 1.384 . S
H510 C516 0.930 . S
H511 C520 0.930 . S
H512 C525 0.929 . S
H513 C523 0.929 . S
H514 C518 0.929 . S
H515 C524 0.929 . S
C516 H510 0.930 . S
C516 C517 1.367 . S
C516 C524 1.378 . S
C517 C516 1.367 . S
C517 C525 1.433 1_655 S
C518 H514 0.929 . S
C518 C520 1.378 . S
C518 C522 1.350 . S
C519 C522 1.463 1_655 S
C519 C524 1.350 . S
C519 N527 1.427 1_655 S
C520 H511 0.930 . S
C520 C518 1.378 . S
C520 C521 1.367 . S
C521 C520 1.367 . S
C521 C523 1.433 1_455 S
C522 C518 1.350 . S
C522 C519 1.463 1_455 S
C522 N526 1.427 1_455 S
C523 H513 0.929 . S
C523 C521 1.433 1_655 S
C523 N526 1.384 . S
C524 H515 0.929 . S
C524 C516 1.378 . S
C524 C519 1.350 . S
C525 H512 0.929 . S
C525 C517 1.433 1_455 S
C525 N527 1.384 . S
N526 C522 1.427 1_655 S
N526 C523 1.384 . S
N527 C519 1.427 1_455 S
N527 C525 1.384 . S
H528 C534 0.930 . S
H529 C538 0.930 . S
H530 C543 0.929 . S
H531 C541 0.929 . S
H532 C536 0.929 . S
H533 C542 0.929 . S
C534 H528 0.930 . S
C534 C535 1.367 . S
C534 C542 1.378 . S
C535 C534 1.367 . S
C535 C543 1.433 . S
C536 H532 0.929 . S
C536 C538 1.378 . S
C536 C540 1.350 . S
C537 C540 1.463 . S
C537 C542 1.350 . S
C537 N545 1.427 . S
C538 H529 0.930 . S
C538 C536 1.378 . S
C538 C539 1.367 . S
C539 C538 1.367 . S
C539 C541 1.433 . S
C540 C536 1.350 . S
C540 C537 1.463 . S
C540 N544 1.427 . S
C541 H531 0.929 . S
C541 C539 1.433 . S
C541 N544 1.384 . S
C542 H533 0.929 . S
C542 C534 1.378 . S
C542 C537 1.350 . S
C543 H530 0.929 . S
C543 C535 1.433 . S
C543 N545 1.384 . S
N544 C540 1.427 . S
N544 C541 1.384 . S
N545 C537 1.427 . S
N545 C543 1.384 . S
H546 C552 0.930 . S
H547 C556 0.930 . S
H548 C561 0.929 . S
H549 C559 0.929 . S
H550 C554 0.929 . S
H551 C560 0.929 . S
C552 H546 0.930 . S
C552 C553 1.367 . S
C552 C560 1.378 . S
C553 C552 1.367 . S
C553 C561 1.433 . S
C554 H550 0.929 . S
C554 C556 1.378 . S
C554 C558 1.350 . S
C555 C558 1.463 . S
C555 C560 1.350 . S
C555 N563 1.427 . S
C556 H547 0.930 . S
C556 C554 1.378 . S
C556 C557 1.367 . S
C557 C556 1.367 . S
C557 C559 1.433 . S
C558 C554 1.350 . S
C558 C555 1.463 . S
C558 N562 1.427 . S
C559 H549 0.929 . S
C559 C557 1.433 . S
C559 N562 1.384 . S
C560 H551 0.929 . S
C560 C552 1.378 . S
C560 C555 1.350 . S
C561 H548 0.929 . S
C561 C553 1.433 . S
C561 N563 1.384 . S
N562 C558 1.427 . S
N562 C559 1.384 . S
N563 C555 1.427 . S
N563 C561 1.384 . S
H564 C570 0.930 . S
H565 C574 0.930 . S
H566 C579 0.929 . S
H567 C577 0.929 . S
H568 C572 0.929 . S
H569 C578 0.929 . S
C570 H564 0.930 . S
C570 C571 1.367 . S
C570 C578 1.378 . S
C571 C570 1.367 . S
C571 C579 1.433 . S
C572 H568 0.929 . S
C572 C574 1.378 . S
C572 C576 1.350 . S
C573 C576 1.463 . S
C573 C578 1.350 . S
C573 N581 1.427 . S
C574 H565 0.930 . S
C574 C572 1.378 . S
C574 C575 1.367 . S
C575 C574 1.367 . S
C575 C577 1.433 . S
C576 C572 1.350 . S
C576 C573 1.463 . S
C576 N580 1.427 . S
C577 H567 0.929 . S
C577 C575 1.433 . S
C577 N580 1.384 . S
C578 H569 0.929 . S
C578 C570 1.378 . S
C578 C573 1.350 . S
C579 H566 0.929 . S
C579 C571 1.433 . S
C579 N581 1.384 . S
N580 C576 1.427 . S
N580 C577 1.384 . S
N581 C573 1.427 . S
N581 C579 1.384 . S
H582 C588 0.930 . S
H583 C592 0.930 . S
H584 C597 0.929 . S
H585 C595 0.929 . S
H586 C590 0.929 . S
H587 C596 0.929 . S
C588 H582 0.930 . S
C588 C589 1.367 . S
C588 C596 1.378 . S
C589 C588 1.367 . S
C589 C597 1.433 . S
C590 H586 0.929 . S
C590 C592 1.378 . S
C590 C594 1.350 . S
C591 C594 1.463 . S
C591 C596 1.350 . S
C591 N599 1.427 . S
C592 H583 0.930 . S
C592 C590 1.378 . S
C592 C593 1.367 . S
C593 C592 1.367 . S
C593 C595 1.433 . S
C594 C590 1.350 . S
C594 C591 1.463 . S
C594 N598 1.427 . S
C595 H585 0.929 . S
C595 C593 1.433 . S
C595 N598 1.384 . S
C596 H587 0.929 . S
C596 C588 1.378 . S
C596 C591 1.350 . S
C597 H584 0.929 . S
C597 C589 1.433 . S
C597 N599 1.384 . S
N598 C594 1.427 . S
N598 C595 1.384 . S
N599 C591 1.427 . S
N599 C597 1.384 . S
C175 C16 1.272 1_556 S
C179 C14 1.261 1_554 S
C193 C35 1.260 1_554 S
C197 C37 1.266 1_556 S
C211 C59 1.276 . S
C215 C55 1.282 . S
C229 C79 1.272 . S
C233 C77 1.261 . S
C247 C100 1.270 1_556 S
C251 C98 1.265 1_554 S
C265 C121 1.268 1_556 S
C269 C119 1.257 1_554 S
C283 C143 1.267 . S
C287 C139 1.271 . S
C301 C161 1.262 . S
C305 C163 1.267 . S
C319 C34 1.508 1_554 S
C323 C13 1.518 1_554 S
C337 C76 1.509 . S
C341 C58 1.521 . S
C355 C97 1.509 1_554 S
C359 C118 1.517 1_554 S
C373 C142 1.521 . S
C377 C160 1.508 . S
C391 C17 1.507 1_556 S
C395 C122 1.523 1_556 S
C409 C101 1.515 1_556 S
C413 C38 1.506 1_556 S
C427 C56 1.518 . S
C431 C164 1.519 . S
C445 C80 1.519 . S
C449 C140 1.505 . S
C463 C18 1.338 . S
C467 C81 1.321 . S
C481 C39 1.336 . S
C485 C57 1.316 . S
C499 C36 1.300 . S
C503 C60 1.308 . S
C517 C78 1.297 . S
C521 C15 1.309 . S
C535 C102 1.337 . S
C539 C165 1.332 . S
C553 C123 1.333 . S
C557 C141 1.335 . S
C571 C120 1.290 . S
C575 C144 1.278 . S
C589 C162 1.290 . S
C593 C99 1.278 . S
