# Generated by pormake.
# Topology vbm, (6)-cn, num edge types: 1
# Building blocks:
#     Node 0, Type 0, BuildingBlock: FUNLAD_clean_sbu_0, # of connection points: 6
#     Node 1, Type 0, BuildingBlock: FUNLAD_clean_sbu_0, # of connection points: 6
#     Node 2, Type 0, BuildingBlock: FUNLAD_clean_sbu_0, # of connection points: 6
#     Node 3, Type 0, BuildingBlock: FUNLAD_clean_sbu_0, # of connection points: 6
#     Node 4, Type 0, BuildingBlock: FUNLAD_clean_sbu_0, # of connection points: 6
#     Node 5, Type 0, BuildingBlock: FUNLAD_clean_sbu_0, # of connection points: 6
#     Node 6, Type 0, BuildingBlock: FUNLAD_clean_sbu_0, # of connection points: 6
#     Node 7, Type 0, BuildingBlock: FUNLAD_clean_sbu_0, # of connection points: 6
#     Node 8, Type 0, BuildingBlock: FUNLAD_clean_sbu_0, # of connection points: 6
#     Node 9, Type 0, BuildingBlock: FUNLAD_clean_sbu_0, # of connection points: 6
#     Node 10, Type 0, BuildingBlock: FUNLAD_clean_sbu_0, # of connection points: 6
#     Node 11, Type 0, BuildingBlock: FUNLAD_clean_sbu_0, # of connection points: 6
#     Node 12, Type 0, BuildingBlock: FUNLAD_clean_sbu_0, # of connection points: 6
#     Node 13, Type 0, BuildingBlock: FUNLAD_clean_sbu_0, # of connection points: 6
#     Node 14, Type 0, BuildingBlock: FUNLAD_clean_sbu_0, # of connection points: 6
#     Node 15, Type 0, BuildingBlock: FUNLAD_clean_sbu_0, # of connection points: 6
#     Edge 16, Type (0, 0), BuildingBlock: AJUNOK_clean_linker_0, # of connection points: 2
#     Edge 17, Type (0, 0), BuildingBlock: AJUNOK_clean_linker_0, # of connection points: 2
#     Edge 18, Type (0, 0), BuildingBlock: AJUNOK_clean_linker_0, # of connection points: 2
#     Edge 19, Type (0, 0), BuildingBlock: AJUNOK_clean_linker_0, # of connection points: 2
#     Edge 20, Type (0, 0), BuildingBlock: AJUNOK_clean_linker_0, # of connection points: 2
#     Edge 21, Type (0, 0), BuildingBlock: AJUNOK_clean_linker_0, # of connection points: 2
#     Edge 22, Type (0, 0), BuildingBlock: AJUNOK_clean_linker_0, # of connection points: 2
#     Edge 23, Type (0, 0), BuildingBlock: AJUNOK_clean_linker_0, # of connection points: 2
#     Edge 24, Type (0, 0), BuildingBlock: AJUNOK_clean_linker_0, # of connection points: 2
#     Edge 25, Type (0, 0), BuildingBlock: AJUNOK_clean_linker_0, # of connection points: 2
#     Edge 26, Type (0, 0), BuildingBlock: AJUNOK_clean_linker_0, # of connection points: 2
#     Edge 27, Type (0, 0), BuildingBlock: AJUNOK_clean_linker_0, # of connection points: 2
#     Edge 28, Type (0, 0), BuildingBlock: AJUNOK_clean_linker_0, # of connection points: 2
#     Edge 29, Type (0, 0), BuildingBlock: AJUNOK_clean_linker_0, # of connection points: 2
#     Edge 30, Type (0, 0), BuildingBlock: AJUNOK_clean_linker_0, # of connection points: 2
#     Edge 31, Type (0, 0), BuildingBlock: AJUNOK_clean_linker_0, # of connection points: 2
#     Edge 32, Type (0, 0), BuildingBlock: AJUNOK_clean_linker_0, # of connection points: 2
#     Edge 33, Type (0, 0), BuildingBlock: AJUNOK_clean_linker_0, # of connection points: 2
#     Edge 34, Type (0, 0), BuildingBlock: AJUNOK_clean_linker_0, # of connection points: 2
#     Edge 35, Type (0, 0), BuildingBlock: AJUNOK_clean_linker_0, # of connection points: 2
#     Edge 36, Type (0, 0), BuildingBlock: AJUNOK_clean_linker_0, # of connection points: 2
#     Edge 37, Type (0, 0), BuildingBlock: AJUNOK_clean_linker_0, # of connection points: 2
#     Edge 38, Type (0, 0), BuildingBlock: AJUNOK_clean_linker_0, # of connection points: 2
#     Edge 39, Type (0, 0), BuildingBlock: AJUNOK_clean_linker_0, # of connection points: 2
#     Edge 40, Type (0, 0), BuildingBlock: AJUNOK_clean_linker_0, # of connection points: 2
#     Edge 41, Type (0, 0), BuildingBlock: AJUNOK_clean_linker_0, # of connection points: 2
#     Edge 42, Type (0, 0), BuildingBlock: AJUNOK_clean_linker_0, # of connection points: 2
#     Edge 43, Type (0, 0), BuildingBlock: AJUNOK_clean_linker_0, # of connection points: 2
#     Edge 44, Type (0, 0), BuildingBlock: AJUNOK_clean_linker_0, # of connection points: 2
#     Edge 45, Type (0, 0), BuildingBlock: AJUNOK_clean_linker_0, # of connection points: 2
#     Edge 46, Type (0, 0), BuildingBlock: AJUNOK_clean_linker_0, # of connection points: 2
#     Edge 47, Type (0, 0), BuildingBlock: AJUNOK_clean_linker_0, # of connection points: 2
#     Edge 48, Type (0, 0), BuildingBlock: AJUNOK_clean_linker_0, # of connection points: 2
#     Edge 49, Type (0, 0), BuildingBlock: AJUNOK_clean_linker_0, # of connection points: 2
#     Edge 50, Type (0, 0), BuildingBlock: AJUNOK_clean_linker_0, # of connection points: 2
#     Edge 51, Type (0, 0), BuildingBlock: AJUNOK_clean_linker_0, # of connection points: 2
#     Edge 52, Type (0, 0), BuildingBlock: AJUNOK_clean_linker_0, # of connection points: 2
#     Edge 53, Type (0, 0), BuildingBlock: AJUNOK_clean_linker_0, # of connection points: 2
#     Edge 54, Type (0, 0), BuildingBlock: AJUNOK_clean_linker_0, # of connection points: 2
#     Edge 55, Type (0, 0), BuildingBlock: AJUNOK_clean_linker_0, # of connection points: 2
#     Edge 56, Type (0, 0), BuildingBlock: AJUNOK_clean_linker_0, # of connection points: 2
#     Edge 57, Type (0, 0), BuildingBlock: AJUNOK_clean_linker_0, # of connection points: 2
#     Edge 58, Type (0, 0), BuildingBlock: AJUNOK_clean_linker_0, # of connection points: 2
#     Edge 59, Type (0, 0), BuildingBlock: AJUNOK_clean_linker_0, # of connection points: 2
#     Edge 60, Type (0, 0), BuildingBlock: AJUNOK_clean_linker_0, # of connection points: 2
#     Edge 61, Type (0, 0), BuildingBlock: AJUNOK_clean_linker_0, # of connection points: 2
#     Edge 62, Type (0, 0), BuildingBlock: AJUNOK_clean_linker_0, # of connection points: 2
#     Edge 63, Type (0, 0), BuildingBlock: AJUNOK_clean_linker_0, # of connection points: 2
# Relax obj value: 0.025
# Max RMSD: 0.079
# Mean RMSD: 0.079
data_MOF--net-vbm--node1-FUNLAD_clean_sbu_0--edge1-AJUNOK_clean_linker_0
_symmetry_space_group_name_H-M    P1
_symmetry_Int_Tables_number       1
_symmetry_cell_setting            triclinic
loop_
_symmetry_equiv_pos_as_xyz
'x, y, z'
_cell_length_a     43.543514
_cell_length_b     11.262422
_cell_length_c     70.56563
_cell_angle_alpha  89.983483
_cell_angle_beta   89.856072
_cell_angle_gamma 90.067523
loop_
_atom_site_label
_atom_site_type_symbol
_atom_site_fract_x
_atom_site_fract_y
_atom_site_fract_z
_atom_type_partial_charge
C0 C 0.11251 0.30825 0.14694 0.0
N1 N 0.11793 0.06901 0.10168 0.0
C2 C 0.09648 0.13453 0.09237 0.0
C3 C 0.09636 0.13885 0.07257 0.0
C4 C 0.1186 0.0756 0.06227 0.0
C5 C 0.14023 0.00774 0.07224 0.0
C6 C 0.13953 0.00591 0.09203 0.0
Zn7 Zn 0.11825 0.06521 0.13073 0.0
C8 C 0.18054 0.10723 0.14631 0.0
N9 N 0.11924 0.05662 0.19135 0.0
C10 C 0.09751 0.11119 0.20218 0.0
C11 C 0.1409 -0.01451 0.19933 0.0
C12 C 0.14071 0.96377 0.21879 0.0
C13 C 0.118 0.01557 0.23021 0.0
C14 C 0.09658 0.09223 0.22179 0.0
Zn15 Zn 0.11843 0.06609 0.1623 0.0
O16 O 0.1126 0.24909 0.13163 0.0
C17 C 0.05588 0.03019 0.14707 0.0
O18 O 0.11359 0.25351 0.16272 0.0
H19 H 0.15798 0.94286 0.19052 0.0
H20 H 0.07951 0.18399 0.10031 0.0
H21 H 0.08042 0.16697 0.19555 0.0
O22 O 0.07007 0.03773 0.13134 0.0
O23 O 0.07075 0.04241 0.1624 0.0
H24 H 0.15628 0.95399 0.09969 0.0
O25 O 0.12319 0.87907 0.16126 0.0
O26 O 0.12396 0.88053 0.13026 0.0
O27 O 0.16603 0.0921 0.16174 0.0
O28 O 0.16634 0.09521 0.13071 0.0
C29 C 0.12432 0.82278 0.14569 0.0
H30 H 0.07931 0.1923 0.06538 0.0
H31 H 0.15737 0.95573 0.06482 0.0
H32 H 0.15801 0.90608 0.22483 0.0
H33 H 0.07878 0.13408 0.23019 0.0
C34 C 0.8698 0.62307 0.14782 0.0
N35 N 0.86465 0.86123 0.1019 0.0
C36 C 0.88619 0.7955 0.09265 0.0
C37 C 0.88668 0.79155 0.07284 0.0
C38 C 0.86474 0.85559 0.06247 0.0
C39 C 0.84293 0.9232 0.07239 0.0
C40 C 0.84325 0.92457 0.09218 0.0
Zn41 Zn 0.86413 0.86587 0.13096 0.0
C42 C 0.80184 0.82266 0.14664 0.0
N43 N 0.86275 0.87665 0.19161 0.0
C44 C 0.88462 0.82376 0.20247 0.0
C45 C 0.84092 0.94764 0.19952 0.0
C46 C 0.84114 0.97127 0.21891 0.0
C47 C 0.86401 0.92132 0.23036 0.0
C48 C 0.88556 0.84452 0.22204 0.0
Zn49 Zn 0.86375 0.8657 0.16255 0.0
O50 O 0.86943 0.67905 0.13215 0.0
C51 C 0.92638 0.90179 0.14722 0.0
O52 O 0.86911 0.68098 0.16327 0.0
H53 H 0.82371 -0.01112 0.19068 0.0
H54 H 0.90308 0.74624 0.10064 0.0
H55 H 0.90184 0.76807 0.1959 0.0
O56 O 0.91235 0.89209 0.13151 0.0
O57 O 0.91135 0.89158 0.16258 0.0
H58 H 0.82632 -0.02381 0.09981 0.0
O59 O 0.85837 0.05 0.1614 0.0
O60 O 0.85878 0.05348 0.1304 0.0
O61 O 0.81628 0.83726 0.16206 0.0
O62 O 0.81596 0.837 0.13101 0.0
C63 C 0.8577 0.10873 0.14609 0.0
H64 H 0.90426 0.74013 0.06573 0.0
H65 H 0.82558 0.97353 0.06491 0.0
H66 H 0.82375 0.02901 0.22488 0.0
H67 H 0.90347 0.80403 0.23046 0.0
C68 C 0.11171 0.63072 0.39426 0.0
N69 N 0.11654 0.87023 0.43991 0.0
C70 C 0.09505 0.8044 0.44922 0.0
C71 C 0.09457 0.80104 0.46902 0.0
C72 C 0.11648 0.86575 0.47934 0.0
C73 C 0.13827 0.93338 0.46936 0.0
C74 C 0.13794 0.93416 0.44957 0.0
Zn75 Zn 0.11702 0.87372 0.41086 0.0
C76 C 0.17991 0.83171 0.39561 0.0
N77 N 0.1192 0.88172 0.35026 0.0
C78 C 0.09753 0.82487 0.33974 0.0
C79 C 0.14051 0.95342 0.34194 0.0
C80 C 0.14016 0.97246 0.3224 0.0
C81 C 0.11785 0.91638 0.31123 0.0
C82 C 0.09647 0.84088 0.32008 0.0
Zn83 Zn 0.11843 0.87302 0.3793 0.0
O84 O 0.11189 0.68676 0.40991 0.0
C85 C 0.05529 0.90872 0.39455 0.0
O86 O 0.11288 0.68857 0.37881 0.0
H87 H 0.15748 -0.00183 0.35053 0.0
H88 H 0.07818 0.7546 0.44127 0.0
H89 H 0.08061 0.76924 0.34664 0.0
O90 O 0.06905 0.89857 0.41032 0.0
O91 O 0.07058 0.89916 0.37927 0.0
H92 H 0.15484 -0.0142 0.4419 0.0
O93 O 0.12386 0.05722 0.38024 0.0
O94 O 0.12215 0.0613 0.41122 0.0
O95 O 0.16627 0.84449 0.37984 0.0
O96 O 0.16489 0.84654 0.41089 0.0
C97 C 0.12368 0.11631 0.39551 0.0
H98 H 0.07702 0.74954 0.47619 0.0
H99 H 0.15559 -0.01579 0.4768 0.0
H100 H 0.15712 0.03083 0.31607 0.0
H101 H 0.07865 0.79726 0.31196 0.0
C102 C 0.86928 0.31505 0.39417 0.0
N103 N 0.86381 0.07621 0.44002 0.0
C104 C 0.88534 0.14225 0.4492 0.0
C105 C 0.8858 0.14662 0.46901 0.0
C106 C 0.86385 0.08275 0.4795 0.0
C107 C 0.84207 0.01459 0.46966 0.0
C108 C 0.84242 0.01279 0.44984 0.0
Zn109 Zn 0.86348 0.07209 0.41087 0.0
C110 C 0.80119 0.11206 0.39507 0.0
N111 N 0.86284 0.06342 0.35017 0.0
C112 C 0.88437 0.12044 0.33949 0.0
C113 C 0.84158 -0.00892 0.342 0.0
C114 C 0.8419 0.97132 0.32249 0.0
C115 C 0.86411 0.02732 0.31117 0.0
C116 C 0.88538 0.10373 0.31984 0.0
Zn117 Zn 0.86346 0.0727 0.37924 0.0
O118 O 0.86872 0.25891 0.40982 0.0
C119 C 0.92594 0.03793 0.39454 0.0
O120 O 0.86855 0.25731 0.37871 0.0
H121 H 0.82468 0.94629 0.3507 0.0
H122 H 0.90224 0.19155 0.44115 0.0
H123 H 0.90123 0.17672 0.34627 0.0
O124 O 0.91178 0.04669 0.41027 0.0
O125 O 0.91104 0.04863 0.3792 0.0
H126 H 0.82551 0.96084 0.44229 0.0
O127 O 0.85848 0.8886 0.38027 0.0
O128 O 0.85824 0.88443 0.41128 0.0
O129 O 0.81592 0.09872 0.37968 0.0
O130 O 0.81523 0.09973 0.41074 0.0
C131 C 0.85768 0.8295 0.39554 0.0
H132 H 0.90338 0.19838 0.47604 0.0
H133 H 0.82472 0.96426 0.47721 0.0
H134 H 0.82501 0.9123 0.3163 0.0
H135 H 0.90311 0.14741 0.3116 0.0
C136 C 0.85703 0.11428 0.8966 0.0
N137 N 0.86207 0.88208 0.85059 0.0
C138 C 0.84046 0.95404 0.84273 0.0
C139 C 0.84061 -0.02304 0.8233 0.0
C140 C 0.86318 0.92533 0.81174 0.0
C141 C 0.88453 0.84777 0.82003 0.0
C142 C 0.88368 0.82781 0.83964 0.0
Zn143 Zn 0.86289 0.87095 0.87971 0.0
C144 C 0.92525 0.90655 0.89551 0.0
N145 N 0.86324 0.86617 0.94038 0.0
C146 C 0.84196 0.92895 0.95036 0.0
C147 C 0.8849 0.79994 0.94937 0.0
C148 C 0.88567 0.79485 0.96915 0.0
C149 C 0.86388 0.85823 0.9798 0.0
C150 C 0.84192 0.92642 0.97016 0.0
Zn151 Zn 0.86269 0.87178 0.91133 0.0
O152 O 0.85778 0.05802 0.88101 0.0
C153 C 0.80056 0.82999 0.89603 0.0
O154 O 0.85747 0.05648 0.91203 0.0
H155 H 0.9017 0.75115 0.94119 0.0
H156 H 0.82345 -0.00366 0.85164 0.0
H157 H 0.82494 -0.01895 0.94295 0.0
O158 O 0.81467 0.84272 0.88035 0.0
O159 O 0.81515 0.84438 0.9114 0.0
H160 H 0.90074 0.77139 0.84616 0.0
O161 O 0.86797 0.68771 0.91019 0.0
O162 O 0.86814 0.68364 0.87909 0.0
O163 O 0.91023 0.8971 0.91087 0.0
O164 O 0.9112 0.89656 0.87981 0.0
C165 C 0.86883 0.62876 0.89487 0.0
H166 H 0.82336 0.03532 0.81738 0.0
H167 H 0.90222 0.80598 0.81154 0.0
H168 H 0.90336 0.74307 0.97604 0.0
H169 H 0.82468 -0.02367 0.97786 0.0
C170 C 0.12308 0.82852 0.89589 0.0
N171 N 0.11703 0.06261 0.85054 0.0
C172 C 0.13726 -0.01429 0.84244 0.0
C173 C 0.13694 0.96586 0.82294 0.0
C174 C 0.11598 0.02716 0.81146 0.0
C175 C 0.09618 0.10988 0.82008 0.0
C176 C 0.09688 0.1254 0.83977 0.0
Zn177 Zn 0.11647 0.07189 0.8796 0.0
C178 C 0.05467 0.03589 0.89569 0.0
N179 N 0.11779 0.07475 0.9402 0.0
C180 C 0.13955 0.01179 0.94967 0.0
C181 C 0.09625 0.1391 0.94971 0.0
C182 C 0.09619 0.14218 0.96952 0.0
C183 C 0.11859 0.07899 0.97963 0.0
C184 C 0.14033 0.01248 0.96946 0.0
Zn185 Zn 0.11774 0.07106 0.91116 0.0
O186 O 0.12156 0.88751 0.88064 0.0
C187 C 0.17925 0.11392 0.89494 0.0
O188 O 0.12308 0.88358 0.91161 0.0
H189 H 0.07912 0.18835 0.94191 0.0
H190 H 0.15333 0.93735 0.85117 0.0
H191 H 0.15634 0.9606 0.94186 0.0
O192 O 0.16424 0.09975 0.8797 0.0
O193 O 0.16565 0.09956 0.91073 0.0
H194 H 0.08108 0.18651 0.84647 0.0
O195 O 0.1124 0.25791 0.91019 0.0
O196 O 0.11129 0.25638 0.87909 0.0
O197 O 0.06981 0.04507 0.91099 0.0
O198 O 0.06858 0.04666 0.87992 0.0
C199 C 0.11125 0.31409 0.89456 0.0
H200 H 0.1526 0.90113 0.81698 0.0
H201 H 0.08031 0.16211 0.81176 0.0
H202 H 0.07902 0.19455 0.97685 0.0
H203 H 0.15758 0.96043 0.97672 0.0
C204 C 0.85637 0.83198 0.64619 0.0
N205 N 0.8617 0.06509 0.69171 0.0
C206 C 0.84035 -0.00677 0.69998 0.0
C207 C 0.84073 0.97328 0.71951 0.0
C208 C 0.86309 0.02861 0.73074 0.0
C209 C 0.88448 0.10436 0.72195 0.0
C210 C 0.8834 0.12128 0.7023 0.0
Zn211 Zn 0.86232 0.07483 0.66258 0.0
C212 C 0.925 0.04006 0.6471 0.0
N213 N 0.86308 0.07932 0.60178 0.0
C214 C 0.84173 0.01574 0.59202 0.0
C215 C 0.88466 0.14513 0.59254 0.0
C216 C 0.88527 0.14893 0.57273 0.0
C217 C 0.8634 0.0847 0.5623 0.0
C218 C 0.84153 0.01695 0.5722 0.0
Zn219 Zn 0.86267 0.07501 0.63093 0.0
O220 O 0.85705 0.89055 0.66151 0.0
C221 C 0.80026 0.11646 0.6468 0.0
O222 O 0.85736 0.88736 0.6305 0.0
H223 H 0.90153 0.19456 0.60055 0.0
H224 H 0.82333 0.94902 0.69135 0.0
H225 H 0.82477 0.96397 0.59962 0.0
O226 O 0.81474 0.10221 0.66222 0.0
O227 O 0.81446 0.10313 0.63116 0.0
H228 H 0.90034 0.17711 0.69545 0.0
O229 O 0.86793 0.26184 0.63202 0.0
O230 O 0.86758 0.25963 0.66315 0.0
O231 O 0.91092 0.04951 0.63139 0.0
O232 O 0.90999 0.04989 0.66246 0.0
C233 C 0.86829 0.31767 0.6477 0.0
H234 H 0.82375 0.91477 0.72577 0.0
H235 H 0.90234 0.14748 0.7301 0.0
H236 H 0.90291 0.20041 0.56565 0.0
H237 H 0.82423 0.96639 0.5647 0.0
C238 C 0.12292 0.12627 0.64524 0.0
N239 N 0.1182 0.89231 0.69101 0.0
C240 C 0.13815 0.97044 0.69905 0.0
C241 C 0.13764 -0.00929 0.71854 0.0
C242 C 0.11667 0.92895 0.73005 0.0
C243 C 0.09714 0.84516 0.72148 0.0
C244 C 0.09808 0.829 0.70182 0.0
Zn245 Zn 0.11748 0.88288 0.66198 0.0
C246 C 0.05478 0.91649 0.64681 0.0
N247 N 0.11669 0.87912 0.60139 0.0
C248 C 0.138 0.94242 0.59149 0.0
C249 C 0.09516 0.81247 0.59232 0.0
C250 C 0.09463 0.8072 0.57254 0.0
C251 C 0.11649 0.87096 0.56198 0.0
C252 C 0.13825 0.93987 0.57169 0.0
Zn253 Zn 0.11718 0.88381 0.63043 0.0
O254 O 0.12166 0.07 0.66081 0.0
C255 C 0.17965 0.84456 0.64603 0.0
O256 O 0.12282 0.0685 0.62981 0.0
H257 H 0.07833 0.7633 0.60045 0.0
H258 H 0.15409 0.01958 0.69026 0.0
H259 H 0.15492 -0.00522 0.59896 0.0
O260 O 0.16523 0.85976 0.6615 0.0
O261 O 0.1653 0.85475 0.63044 0.0
H262 H 0.08244 0.76721 0.69515 0.0
O263 O 0.11161 0.7 0.63139 0.0
O264 O 0.11316 0.69527 0.66245 0.0
O265 O 0.06898 0.9104 0.63107 0.0
O266 O 0.06969 0.90391 0.66212 0.0
C267 C 0.11181 0.6407 0.64668 0.0
H268 H 0.15309 0.05625 0.72447 0.0
H269 H 0.08126 0.79266 0.72983 0.0
H270 H 0.07709 0.75486 0.56559 0.0
H271 H 0.15553 -0.00988 0.56405 0.0
C272 C 0.61234 0.81221 0.14702 0.0
N273 N 0.61698 0.57404 0.10121 0.0
C274 C 0.59509 0.63932 0.09226 0.0
C275 C 0.59379 0.64218 0.07247 0.0
C276 C 0.61516 0.57699 0.06179 0.0
C277 C 0.63771 0.51151 0.07139 0.0
C278 C 0.63816 0.51101 0.0912 0.0
Zn279 Zn 0.61777 0.56963 0.13026 0.0
C280 C 0.68018 0.60895 0.1458 0.0
N281 N 0.61882 0.56001 0.19093 0.0
C282 C 0.59731 0.61701 0.20159 0.0
C283 C 0.64007 0.48789 0.19912 0.0
C284 C 0.63977 0.4684 0.21865 0.0
C285 C 0.61758 0.52446 0.22995 0.0
C286 C 0.59631 0.60057 0.22125 0.0
Zn287 Zn 0.61802 0.5694 0.16186 0.0
O288 O 0.61264 0.75637 0.13136 0.0
C289 C 0.55543 0.53501 0.14669 0.0
O290 O 0.61308 0.75419 0.16246 0.0
H291 H 0.65695 0.44311 0.19042 0.0
H292 H 0.57857 0.68929 0.10047 0.0
H293 H 0.58045 0.6731 0.1948 0.0
O294 O 0.56956 0.54413 0.13097 0.0
O295 O 0.57037 0.54531 0.16202 0.0
H296 H 0.65537 0.45974 0.09859 0.0
O297 O 0.62295 0.38521 0.1608 0.0
O298 O 0.62297 0.38201 0.12978 0.0
O299 O 0.66558 0.59532 0.16125 0.0
O300 O 0.66599 0.59732 0.13018 0.0
C301 C 0.62378 0.32664 0.14548 0.0
H302 H 0.57641 0.6957 0.06561 0.0
H303 H 0.65457 0.45992 0.06366 0.0
H304 H 0.65665 0.40958 0.22486 0.0
H305 H 0.57859 0.64423 0.22947 0.0
C306 C 0.36952 0.12818 0.1466 0.0
N307 N 0.36399 0.3677 0.10127 0.0
C308 C 0.38551 0.30221 0.09195 0.0
C309 C 0.38596 0.29861 0.07214 0.0
C310 C 0.36403 0.36284 0.06179 0.0
C311 C 0.34225 0.43038 0.07177 0.0
C312 C 0.34258 0.43129 0.09158 0.0
Zn313 Zn 0.36363 0.37114 0.13041 0.0
C314 C 0.30144 0.32796 0.14631 0.0
N315 N 0.36283 0.379 0.19118 0.0
C316 C 0.38435 0.322 0.20179 0.0
C317 C 0.34155 0.45089 0.19945 0.0
C318 C 0.34179 0.47 0.219 0.0
C319 C 0.36398 0.41399 0.23025 0.0
C320 C 0.3853 0.33815 0.22146 0.0
Zn321 Zn 0.36347 0.37043 0.16205 0.0
O322 O 0.36942 0.18728 0.13128 0.0
C323 C 0.42597 0.4066 0.1466 0.0
O324 O 0.36836 0.18296 0.16237 0.0
H325 H 0.32469 0.49577 0.19081 0.0
H326 H 0.40242 0.25278 0.0999 0.0
H327 H 0.40124 0.26615 0.19493 0.0
O328 O 0.41181 0.39918 0.13089 0.0
O329 O 0.41107 0.39421 0.16196 0.0
H330 H 0.32566 0.48274 0.09923 0.0
O331 O 0.35866 0.55747 0.16104 0.0
O332 O 0.35779 0.55577 0.13003 0.0
O333 O 0.31593 0.34416 0.16168 0.0
O334 O 0.31554 0.34042 0.13063 0.0
C335 C 0.35751 0.61363 0.14545 0.0
H336 H 0.40353 0.24726 0.065 0.0
H337 H 0.32491 0.48093 0.06433 0.0
H338 H 0.32486 0.52857 0.22526 0.0
H339 H 0.40303 0.2945 0.22963 0.0
C340 C 0.61131 0.1247 0.39353 0.0
N341 N 0.61745 0.36326 0.43936 0.0
C342 C 0.59574 0.29806 0.4486 0.0
C343 C 0.59509 0.29448 0.4684 0.0
C344 C 0.61707 0.35825 0.4788 0.0
C345 C 0.63908 0.42533 0.46891 0.0
C346 C 0.63889 0.42643 0.44911 0.0
Zn347 Zn 0.61789 0.36783 0.4103 0.0
C348 C 0.67948 0.32477 0.39442 0.0
N349 N 0.61776 0.37776 0.34967 0.0
C350 C 0.59602 0.32426 0.33876 0.0
C351 C 0.63969 0.44857 0.34178 0.0
C352 C 0.63972 0.47141 0.32235 0.0
C353 C 0.617 0.4208 0.31085 0.0
C354 C 0.59534 0.34416 0.31916 0.0
Zn355 Zn 0.6168 0.36702 0.37872 0.0
O356 O 0.61262 0.18083 0.40916 0.0
C357 C 0.55492 0.40386 0.39465 0.0
O358 O 0.61118 0.18249 0.37805 0.0
H359 H 0.65683 0.49013 0.35064 0.0
H360 H 0.57879 0.24902 0.44059 0.0
H361 H 0.57874 0.26857 0.34531 0.0
O362 O 0.57 0.39335 0.40995 0.0
O363 O 0.56886 0.39385 0.37889 0.0
H364 H 0.65593 0.4778 0.4415 0.0
O365 O 0.62238 0.55131 0.37984 0.0
O366 O 0.62317 0.5554 0.41082 0.0
O367 O 0.66457 0.33764 0.37911 0.0
O368 O 0.66579 0.34016 0.41015 0.0
C369 C 0.62358 0.61038 0.39509 0.0
H370 H 0.57735 0.24355 0.47549 0.0
H371 H 0.65645 0.47552 0.47641 0.0
H372 H 0.6572 0.529 0.3164 0.0
H373 H 0.57754 0.30312 0.31069 0.0
C374 C 0.36929 0.8153 0.3939 0.0
N375 N 0.36366 0.57618 0.43976 0.0
C376 C 0.38529 0.64085 0.4491 0.0
C377 C 0.38592 0.64227 0.46891 0.0
C378 C 0.36418 0.57616 0.4792 0.0
C379 C 0.34189 0.51159 0.46919 0.0
C380 C 0.3421 0.51257 0.4494 0.0
Zn381 Zn 0.36333 0.57221 0.4107 0.0
C382 C 0.30114 0.61452 0.39543 0.0
N383 N 0.36248 0.56213 0.35 0.0
C384 C 0.3843 0.61563 0.33908 0.0
C385 C 0.34072 0.49074 0.34211 0.0
C386 C 0.34099 0.4673 0.3227 0.0
C387 C 0.36379 0.51802 0.31119 0.0
C388 C 0.38525 0.59524 0.3195 0.0
Zn389 Zn 0.36331 0.57296 0.3791 0.0
O390 O 0.36833 0.75922 0.40956 0.0
C391 C 0.42577 0.53686 0.39483 0.0
O392 O 0.36907 0.75747 0.37843 0.0
H393 H 0.32352 0.44912 0.35098 0.0
H394 H 0.40219 0.69095 0.44117 0.0
H395 H 0.40146 0.67163 0.34562 0.0
O396 O 0.41095 0.54811 0.41024 0.0
O397 O 0.41154 0.5455 0.37917 0.0
H398 H 0.32501 0.46226 0.44172 0.0
O399 O 0.35761 0.38872 0.38023 0.0
O400 O 0.35831 0.3846 0.41121 0.0
O401 O 0.31521 0.60304 0.37972 0.0
O402 O 0.31573 0.59847 0.41076 0.0
C403 C 0.35716 0.32964 0.3955 0.0
H404 H 0.40349 0.69317 0.47611 0.0
H405 H 0.32432 0.46151 0.47659 0.0
H406 H 0.32366 0.40924 0.31676 0.0
H407 H 0.40311 0.63639 0.31103 0.0
C408 C 0.35607 0.62057 0.89524 0.0
N409 N 0.36114 0.38871 0.84969 0.0
C410 C 0.33952 0.46047 0.84178 0.0
C411 C 0.33994 0.48414 0.82238 0.0
C412 C 0.36276 0.43337 0.81092 0.0
C413 C 0.38407 0.35584 0.81925 0.0
C414 C 0.38295 0.33511 0.83881 0.0
Zn415 Zn 0.36205 0.3776 0.87875 0.0
C416 C 0.42462 0.41344 0.89388 0.0
N417 N 0.36296 0.37265 0.93952 0.0
C418 C 0.34168 0.43564 0.94947 0.0
C419 C 0.38458 0.30656 0.94858 0.0
C420 C 0.38528 0.30177 0.96838 0.0
C421 C 0.36346 0.36531 0.979 0.0
C422 C 0.34157 0.43345 0.96929 0.0
Zn423 Zn 0.36232 0.37778 0.91038 0.0
O424 O 0.35683 0.56173 0.87996 0.0
C425 C 0.3 0.3358 0.89481 0.0
O426 O 0.35696 0.56543 0.91096 0.0
H427 H 0.40139 0.2576 0.94043 0.0
H428 H 0.32235 0.50226 0.85063 0.0
H429 H 0.32468 0.48762 0.94202 0.0
O430 O 0.31454 0.34991 0.87937 0.0
O431 O 0.31414 0.34902 0.91043 0.0
H432 H 0.40001 0.27885 0.84537 0.0
O433 O 0.36763 0.19102 0.90915 0.0
O434 O 0.36731 0.1929 0.87803 0.0
O435 O 0.41053 0.40402 0.90963 0.0
O436 O 0.40965 0.40299 0.87856 0.0
C437 C 0.36803 0.13502 0.89349 0.0
H438 H 0.32272 0.54248 0.81641 0.0
H439 H 0.40195 0.31471 0.81082 0.0
H440 H 0.40294 0.25003 0.97531 0.0
H441 H 0.32431 0.48351 0.97694 0.0
C442 C 0.62214 0.33286 0.89539 0.0
N443 N 0.61853 0.56659 0.84995 0.0
C444 C 0.63864 0.48889 0.84193 0.0
C445 C 0.63802 0.46694 0.82249 0.0
C446 C 0.61682 0.52676 0.81096 0.0
C447 C 0.5972 0.61054 0.81948 0.0
C448 C 0.59822 0.62824 0.83912 0.0
Zn449 Zn 0.61739 0.57634 0.87903 0.0
C450 C 0.5541 0.54149 0.89401 0.0
N451 N 0.61491 0.5787 0.93968 0.0
C452 C 0.63636 0.51553 0.94939 0.0
C453 C 0.59315 0.64327 0.94895 0.0
C454 C 0.5923 0.64522 0.96875 0.0
C455 C 0.614 0.57991 0.97912 0.0
C456 C 0.63637 0.51516 0.96919 0.0
Zn457 Zn 0.61573 0.57519 0.91062 0.0
O458 O 0.62231 0.39211 0.88014 0.0
C459 C 0.67879 0.61632 0.89562 0.0
O460 O 0.62074 0.38768 0.91111 0.0
H461 H 0.57644 0.69345 0.94096 0.0
H462 H 0.65473 0.44102 0.85072 0.0
H463 H 0.65348 0.46488 0.94177 0.0
O464 O 0.66532 0.60348 0.87979 0.0
O465 O 0.66358 0.60217 0.91084 0.0
H466 H 0.58242 0.68966 0.84574 0.0
O467 O 0.61071 0.76205 0.90958 0.0
O468 O 0.61226 0.7608 0.87848 0.0
O469 O 0.56779 0.55056 0.90983 0.0
O470 O 0.56947 0.55161 0.87877 0.0
C471 C 0.6108 0.81833 0.89394 0.0
H472 H 0.65355 0.40144 0.81661 0.0
H473 H 0.58114 0.6617 0.81112 0.0
H474 H 0.57504 0.69819 0.97588 0.0
H475 H 0.65346 0.46347 0.97666 0.0
C476 C 0.35626 0.33955 0.64564 0.0
N477 N 0.36295 0.57339 0.69101 0.0
C478 C 0.3414 0.50233 0.69925 0.0
C479 C 0.34153 0.48299 0.71878 0.0
C480 C 0.36384 0.5382 0.73005 0.0
C481 C 0.38541 0.61341 0.72131 0.0
C482 C 0.3846 0.62962 0.70163 0.0
Zn483 Zn 0.36339 0.58253 0.66192 0.0
C484 C 0.4252 0.54535 0.64567 0.0
N485 N 0.36227 0.5858 0.60127 0.0
C486 C 0.34072 0.5217 0.59177 0.0
C487 C 0.38405 0.64927 0.59179 0.0
C488 C 0.38492 0.64871 0.57198 0.0
C489 C 0.36327 0.58173 0.56184 0.0
C490 C 0.34077 0.51864 0.57199 0.0
Zn491 Zn 0.3622 0.58269 0.63033 0.0
O492 O 0.3576 0.39794 0.66097 0.0
C493 C 0.30073 0.62677 0.64654 0.0
O494 O 0.35675 0.39514 0.62997 0.0
H495 H 0.40097 0.6996 0.59961 0.0
H496 H 0.32437 0.45836 0.6906 0.0
H497 H 0.32354 0.47225 0.59957 0.0
O498 O 0.31566 0.61265 0.66181 0.0
O499 O 0.3143 0.61128 0.63076 0.0
H500 H 0.40165 0.68501 0.6948 0.0
O501 O 0.36762 0.76961 0.63129 0.0
O502 O 0.3691 0.76735 0.6624 0.0
O503 O 0.41008 0.55648 0.63041 0.0
O504 O 0.41132 0.55507 0.66146 0.0
C505 C 0.36887 0.82543 0.64695 0.0
H506 H 0.32441 0.42495 0.72501 0.0
H507 H 0.4032 0.65653 0.72952 0.0
H508 H 0.40265 0.69847 0.56467 0.0
H509 H 0.32327 0.46789 0.56469 0.0
C510 C 0.62243 0.61744 0.64466 0.0
N511 N 0.61641 0.38464 0.69062 0.0
C512 C 0.63661 0.46239 0.69852 0.0
C513 C 0.63642 0.48318 0.718 0.0
C514 C 0.61555 0.42223 0.72969 0.0
C515 C 0.59571 0.33885 0.72127 0.0
C516 C 0.59632 0.32221 0.70159 0.0
Zn517 Zn 0.6159 0.37403 0.66153 0.0
C518 C 0.55417 0.40994 0.64548 0.0
N519 N 0.61723 0.36935 0.6009 0.0
C520 C 0.63875 0.43171 0.59101 0.0
C521 C 0.5955 0.30382 0.59181 0.0
C522 C 0.59495 0.29884 0.57202 0.0
C523 C 0.61701 0.36168 0.56148 0.0
C524 C 0.639 0.42933 0.57121 0.0
Zn525 Zn 0.61738 0.3748 0.62995 0.0
O526 O 0.62059 0.56121 0.66022 0.0
C527 C 0.67887 0.33295 0.64608 0.0
O528 O 0.62311 0.5596 0.62925 0.0
H529 H 0.57848 0.25549 0.59991 0.0
H530 H 0.65258 0.51067 0.68964 0.0
H531 H 0.6558 0.48335 0.5985 0.0
O532 O 0.6638 0.34806 0.66133 0.0
O533 O 0.66527 0.34527 0.63028 0.0
H534 H 0.58052 0.26051 0.69505 0.0
O535 O 0.61158 0.1908 0.63102 0.0
O536 O 0.61102 0.18651 0.66211 0.0
O537 O 0.56951 0.40213 0.63019 0.0
O538 O 0.56788 0.39766 0.66125 0.0
C539 C 0.61052 0.13173 0.64632 0.0
H540 H 0.6521 0.54842 0.72379 0.0
H541 H 0.57989 0.28689 0.72974 0.0
H542 H 0.57722 0.24754 0.56506 0.0
H543 H 0.65643 0.47887 0.56359 0.0
C544 C 0.22611 0.1944 0.12964 0.0
C545 C 0.21216 0.15624 0.14661 0.0
C546 C 0.25445 0.25348 0.12972 0.0
C547 C 0.26999 0.27726 0.14677 0.0
H548 H 0.21488 0.18018 0.11615 0.0
H549 H 0.26432 0.27986 0.11625 0.0
S550 S 0.24366 0.19369 0.19516 0.0
N551 N 0.21642 0.1446 0.18097 0.0
N552 N 0.26937 0.25637 0.18115 0.0
C553 C 0.25632 0.23934 0.16387 0.0
C554 C 0.22758 0.17842 0.16377 0.0
C555 C 0.75397 0.75873 0.12989 0.0
C556 C 0.77036 0.77233 0.14692 0.0
C557 C 0.72537 0.70156 0.12952 0.0
C558 C 0.71204 0.65529 0.14616 0.0
H559 H 0.7633 0.7922 0.11668 0.0
H560 H 0.71341 0.69569 0.11611 0.0
S561 S 0.74623 0.66166 0.19434 0.0
N562 N 0.77148 0.73096 0.18082 0.0
N563 N 0.718 0.62307 0.18007 0.0
C564 C 0.7284 0.66653 0.16325 0.0
C565 C 0.75741 0.72537 0.16365 0.0
C566 C 0.25518 0.69784 0.37894 0.0
C567 C 0.26953 0.66352 0.39592 0.0
C568 C 0.22678 0.75605 0.37903 0.0
C569 C 0.21149 0.78259 0.39611 0.0
H570 H 0.26609 0.68102 0.36539 0.0
H571 H 0.21663 0.77921 0.36553 0.0
S572 S 0.23912 0.71147 0.4446 0.0
N573 N 0.26614 0.66001 0.43039 0.0
N574 N 0.21292 0.76974 0.43056 0.0
C575 C 0.22559 0.74901 0.41324 0.0
C576 C 0.25448 0.68916 0.41315 0.0
C577 C 0.75562 0.2008 0.41141 0.0
C578 C 0.76939 0.15882 0.39463 0.0
C579 C 0.72706 0.25785 0.41111 0.0
C580 C 0.71105 0.27549 0.39403 0.0
H581 H 0.76719 0.19144 0.4249 0.0
H582 H 0.7174 0.28763 0.42445 0.0
S583 S 0.73662 0.17898 0.34615 0.0
N584 N 0.76442 0.13641 0.36044 0.0
N585 N 0.71094 0.24403 0.35987 0.0
C586 C 0.72448 0.23339 0.37713 0.0
C587 C 0.7535 0.17474 0.37745 0.0
C588 C 0.7259 0.69214 0.87925 0.0
C589 C 0.71049 0.66454 0.89626 0.0
C590 C 0.75445 0.74948 0.87931 0.0
C591 C 0.76885 0.78178 0.89639 0.0
H592 H 0.71572 0.67055 0.86569 0.0
H593 H 0.76543 0.76723 0.86581 0.0
S594 S 0.7382 0.73026 0.94493 0.0
N595 N 0.71188 0.67414 0.93073 0.0
N596 N 0.76539 0.78219 0.93086 0.0
C597 C 0.75368 0.75503 0.91354 0.0
C598 C 0.72464 0.69611 0.91347 0.0
C599 C 0.25474 0.24653 0.91147 0.0
C600 C 0.26842 0.28641 0.89452 0.0
C601 C 0.22647 0.18701 0.91139 0.0
C602 C 0.21069 0.16466 0.89437 0.0
H603 H 0.26612 0.25965 0.92494 0.0
H604 H 0.21683 0.15928 0.92485 0.0
S605 S 0.23628 0.25289 0.84606 0.0
N606 N 0.26369 0.301 0.86021 0.0
N607 N 0.2108 0.18866 0.86005 0.0
C608 C 0.22408 0.20426 0.87729 0.0
C609 C 0.25279 0.26549 0.87738 0.0
C610 C 0.72558 0.25303 0.62976 0.0
C611 C 0.7105 0.28413 0.64672 0.0
C612 C 0.75403 0.19505 0.62993 0.0
C613 C 0.76863 0.16545 0.64707 0.0
H614 H 0.71522 0.27231 0.61617 0.0
H615 H 0.76478 0.17454 0.61646 0.0
S616 S 0.73891 0.22718 0.69552 0.0
N617 N 0.71248 0.28118 0.68122 0.0
N618 N 0.76571 0.17177 0.68154 0.0
C619 C 0.75378 0.19578 0.66417 0.0
C620 C 0.72487 0.25544 0.66399 0.0
C621 C 0.22413 0.74752 0.62978 0.0
C622 C 0.21141 0.79725 0.64633 0.0
C623 C 0.25253 0.68924 0.63011 0.0
C624 C 0.26938 0.67799 0.64701 0.0
H625 H 0.21182 0.75145 0.61647 0.0
H626 H 0.26135 0.65309 0.61696 0.0
S627 S 0.24697 0.79799 0.69413 0.0
N628 N 0.21841 0.83505 0.68001 0.0
N629 N 0.27163 0.72536 0.68067 0.0
C630 C 0.25707 0.72838 0.66365 0.0
C631 C 0.2282 0.78824 0.66329 0.0
C632 C 0.11664 0.05673 0.28367 0.0
C633 C 0.1167 0.93923 0.29052 0.0
C634 C 0.11638 0.08086 0.26416 0.0
C635 C 0.11663 -0.01165 0.25079 0.0
H636 H 0.11675 0.13063 0.2935 0.0
H637 H 0.11664 0.17252 0.2595 0.0
S638 S 0.11618 0.66554 0.26132 0.0
N639 N 0.11654 0.72963 0.28237 0.0
N640 N 0.116 0.77484 0.24571 0.0
C641 C 0.11634 0.87055 0.25744 0.0
C642 C 0.11633 0.84602 0.27729 0.0
C643 C 0.86568 0.88489 0.28391 0.0
C644 C 0.86533 0.00294 0.29049 0.0
C645 C 0.86593 0.8591 0.26445 0.0
C646 C 0.86539 0.95043 0.25087 0.0
H647 H 0.86579 0.81182 0.2939 0.0
H648 H 0.86589 0.76704 0.26 0.0
S649 S 0.86502 0.27412 0.26067 0.0
N650 N 0.86493 0.21183 0.28187 0.0
N651 N 0.86541 0.16351 0.24531 0.0
C652 C 0.86539 0.06881 0.25725 0.0
C653 C 0.86541 0.09503 0.27705 0.0
C654 C 0.86423 0.88687 0.75817 0.0
C655 C 0.86427 0.00469 0.75145 0.0
C656 C 0.86456 0.86176 0.77766 0.0
C657 C 0.86446 0.95357 0.79117 0.0
H658 H 0.86401 0.81344 0.74825 0.0
H659 H 0.86424 0.76987 0.78221 0.0
S660 S 0.86517 0.27689 0.78101 0.0
N661 N 0.86467 0.21383 0.75988 0.0
N662 N 0.86529 0.16683 0.79648 0.0
C663 C 0.86482 0.07168 0.78464 0.0
C664 C 0.86478 0.09719 0.76481 0.0
C665 C 0.14288 -0.00833 0.78049 0.0
C666 C 0.11519 0.00402 0.79064 0.0
C667 C 0.14305 0.9662 0.76106 0.0
C668 C 0.11554 0.95278 0.75084 0.0
H669 H 0.16474 0.00232 0.78759 0.0
H670 H 0.16503 0.95623 0.75402 0.0
S671 S 0.03668 -0.02263 0.77062 0.0
N672 N 0.05939 -0.00154 0.78901 0.0
N673 N 0.05971 0.95689 0.7523 0.0
C674 C 0.08763 0.96577 0.76075 0.0
C675 C 0.08745 -0.00965 0.78064 0.0
C676 C 0.61552 0.35748 0.27681 0.0
C677 C 0.61588 0.44922 0.29031 0.0
C678 C 0.61598 0.3827 0.25733 0.0
C679 C 0.61635 0.50057 0.25065 0.0
H680 H 0.61553 0.26555 0.28133 0.0
H681 H 0.61597 0.30935 0.24739 0.0
S682 S 0.61632 0.77262 0.28024 0.0
N683 N 0.61577 0.66245 0.29569 0.0
N684 N 0.61665 0.70971 0.2591 0.0
C685 C 0.61613 0.59304 0.26401 0.0
C686 C 0.61595 0.56739 0.28383 0.0
C687 C 0.36563 0.58106 0.27711 0.0
C688 C 0.36517 0.48942 0.29064 0.0
C689 C 0.36538 0.55575 0.25763 0.0
C690 C 0.36514 0.43786 0.25096 0.0
H691 H 0.36551 0.67301 0.28162 0.0
H692 H 0.36542 0.62908 0.24769 0.0
S693 S 0.3651 0.16598 0.28062 0.0
N694 N 0.36539 0.2762 0.29605 0.0
N695 N 0.36494 0.22878 0.25946 0.0
C696 C 0.36531 0.34547 0.26435 0.0
C697 C 0.36527 0.37121 0.28417 0.0
C698 C 0.36479 0.37068 0.77686 0.0
C699 C 0.36434 0.46221 0.7904 0.0
C700 C 0.36479 0.39619 0.75739 0.0
C701 C 0.36483 0.51415 0.75075 0.0
H702 H 0.36446 0.27869 0.78135 0.0
H703 H 0.36479 0.32297 0.74743 0.0
S704 S 0.36493 0.78575 0.78044 0.0
N705 N 0.36487 0.67536 0.79586 0.0
N706 N 0.36489 0.72316 0.75927 0.0
C707 C 0.36502 0.60642 0.76414 0.0
C708 C 0.36471 0.58049 0.78396 0.0
C709 C 0.64296 0.48728 0.77985 0.0
C710 C 0.61553 0.50095 0.79022 0.0
C711 C 0.64265 0.46028 0.76047 0.0
C712 C 0.6149 0.44654 0.7505 0.0
H713 H 0.665 0.49834 0.78672 0.0
H714 H 0.66447 0.44961 0.75325 0.0
S715 S 0.53654 0.47278 0.77099 0.0
N716 N 0.5597 0.49527 0.78912 0.0
N717 N 0.55911 0.45081 0.75249 0.0
C718 C 0.58723 0.46027 0.76066 0.0
C719 C 0.58755 0.48643 0.7805 0.0
C720 C 0.09186 0.06063 1.01103 0.0
C721 C 0.11904 0.08124 1.00069 0.0
C722 C 0.09187 0.05978 0.03092 0.0
C723 C 0.11904 0.07948 0.04121 0.0
H724 H 0.07052 0.04296 1.0037 0.0
H725 H 0.07052 0.04154 0.03829 0.0
S726 S 0.19565 0.14924 0.02091 0.0
N727 N 0.1734 0.12959 1.00225 0.0
N728 N 0.17341 0.12788 0.03959 0.0
C729 C 0.14623 0.10263 0.03105 0.0
C730 C 0.14622 0.10354 1.01082 0.0
C731 C 0.86263 0.96123 1.01128 0.0
C732 C 0.86423 0.85488 1.00086 0.0
C733 C 0.86288 0.96058 0.03116 0.0
C734 C 0.86473 0.85356 0.04139 0.0
H735 H 0.86152 0.04584 1.00401 0.0
H736 H 0.86193 0.04473 0.03857 0.0
S737 S 0.86696 0.5504 0.02087 0.0
N738 N 0.86617 0.63935 1.00227 0.0
N739 N 0.86663 0.63813 0.03962 0.0
C740 C 0.86602 0.74651 0.03116 0.0
C741 C 0.86577 0.74717 1.01091 0.0
C742 C 0.11803 0.97183 0.51055 0.0
C743 C 0.11643 0.86442 0.5004 0.0
C744 C 0.11804 0.9731 0.53042 0.0
C745 C 0.11647 0.86701 0.54092 0.0
H746 H 0.11891 0.05575 0.50306 0.0
H747 H 0.11893 0.05796 0.53763 0.0
S748 S 0.11453 0.56182 0.52117 0.0
N749 N 0.11491 0.64899 0.50235 0.0
N750 N 0.11495 0.65137 0.5397 0.0
C751 C 0.11526 0.75893 0.53096 0.0
C752 C 0.11524 0.75764 0.51072 0.0
C753 C 0.86166 -0.02006 0.53091 0.0
C754 C 0.86355 0.08681 0.54119 0.0
C755 C 0.86177 -0.02054 0.51102 0.0
C756 C 0.86378 0.08584 0.5006 0.0
H757 H 0.86046 0.89574 0.53831 0.0
H758 H 0.86065 0.89492 0.50373 0.0
S759 S 0.86657 0.39009 0.5207 0.0
N760 N 0.86578 0.3022 0.53943 0.0
N761 N 0.86598 0.30132 0.50208 0.0
C762 C 0.86527 0.19341 0.5107 0.0
C763 C 0.86516 0.19389 0.53096 0.0
C764 C 0.64117 0.59895 0.03023 0.0
C765 C 0.61418 0.57784 0.04073 0.0
C766 C 0.64087 0.59986 1.01035 0.0
C767 C 0.61358 0.57965 1.0002 0.0
H768 H 0.66265 0.61617 0.03745 0.0
H769 H 0.66214 0.61769 1.00287 0.0
S770 S 0.53724 0.51049 0.02093 0.0
N771 N 0.55976 0.53013 0.03947 0.0
N772 N 0.55921 0.53177 1.00213 0.0
C773 C 0.58651 0.55712 1.01051 0.0
C774 C 0.58681 0.55621 0.03075 0.0
C775 C 0.36188 0.46838 1.01053 0.0
C776 C 0.36369 0.36206 1.0001 0.0
C777 C 0.36203 0.46779 0.03042 0.0
C778 C 0.36398 0.36086 0.04068 0.0
H779 H 0.36071 0.55296 1.00326 0.0
H780 H 0.36096 0.55194 0.03783 0.0
S781 S 0.36657 0.05769 1.02017 0.0
N782 N 0.36581 0.14657 1.00156 0.0
N783 N 0.36607 0.14548 0.03891 0.0
C784 C 0.3654 0.25383 0.03044 0.0
C785 C 0.36526 0.25443 1.01018 0.0
C786 C 0.61888 0.46355 0.51009 0.0
C787 C 0.61691 0.35647 0.49988 0.0
C788 C 0.61889 0.46439 0.52996 0.0
C789 C 0.61693 0.35818 0.54041 0.0
H790 H 0.62008 0.5476 0.50265 0.0
H791 H 0.62009 0.54904 0.53721 0.0
S792 S 0.6138 0.05356 0.52049 0.0
N793 N 0.61454 0.1411 0.50172 0.0
N794 N 0.61456 0.14268 0.53906 0.0
C795 C 0.61529 0.25041 0.53039 0.0
C796 C 0.61528 0.24955 0.51014 0.0
C797 C 0.36625 0.68399 0.53029 0.0
C798 C 0.36409 0.57802 0.54079 0.0
C799 C 0.36649 0.68264 0.5104 0.0
C800 C 0.36459 0.57526 0.50026 0.0
H801 H 0.36724 0.7688 0.5375 0.0
H802 H 0.36765 0.76646 0.50289 0.0
S803 S 0.36175 0.2728 0.52106 0.0
N804 N 0.36214 0.36243 0.53957 0.0
N805 N 0.3626 0.35989 0.50224 0.0
C806 C 0.36311 0.46857 0.5106 0.0
C807 C 0.36286 0.46995 0.53083 0.0
C808 C 0.97567 0.94905 0.13057 0.0
C809 C 0.95951 0.93179 0.14765 0.0
C810 C 0.00665 -0.01746 0.13053 0.0
C811 C 0.02274 0.00026 0.14757 0.0
H812 H 0.96433 0.93719 0.11705 0.0
H813 H 0.01804 -0.00592 0.11699 0.0
S814 S -0.00896 0.96642 0.19625 0.0
N815 N 0.96202 0.93479 0.18214 0.0
N816 N 0.02011 -0.00214 0.18207 0.0
C817 C 0.00686 -0.0166 0.16478 0.0
C818 C 0.97533 0.94903 0.16482 0.0
C819 C 0.97514 -0.00895 0.41111 0.0
C820 C 0.95906 0.00795 0.39406 0.0
C821 C 0.00606 0.9572 0.4111 0.0
C822 C 0.02219 0.93882 0.39404 0.0
H823 H 0.96379 0.00344 0.42464 0.0
H824 H 0.01738 0.94602 0.42463 0.0
S825 S 0.99067 0.97091 0.34542 0.0
N826 N 0.96165 0.00351 0.35955 0.0
N827 N 0.01967 0.93981 0.35956 0.0
C828 C 0.0064 0.95525 0.37685 0.0
C829 C 0.9749 -0.01005 0.37685 0.0
C830 C 0.00536 -0.00891 0.87905 0.0
C831 C 0.02156 0.00556 0.89614 0.0
C832 C 0.97442 0.95721 0.87898 0.0
C833 C 0.95839 0.93637 0.89599 0.0
H834 H 0.01665 0.00553 0.86554 0.0
H835 H 0.96299 0.9481 0.86544 0.0
S836 S 0.99026 0.96107 0.94467 0.0
N837 N 0.01919 -0.00406 0.9306 0.0
N838 N 0.96117 0.93204 0.93048 0.0
C839 C 0.97432 0.9502 0.91321 0.0
C840 C 0.00583 -0.01504 0.91329 0.0
C841 C 0.97433 -0.00565 0.6304 0.0
C842 C 0.95818 0.01107 0.64749 0.0
C843 C 0.00538 0.9621 0.63033 0.0
C844 C 0.02157 0.94511 0.64735 0.0
H845 H 0.96293 0.00572 0.61689 0.0
H846 H 0.01675 0.95093 0.61678 0.0
S847 S 0.98996 -0.02199 0.69606 0.0
N848 N 0.96083 0.00837 0.68198 0.0
N849 N 0.01904 0.94762 0.68185 0.0
C850 C 0.00571 0.9614 0.66458 0.0
C851 C 0.97409 -0.00548 0.66465 0.0
C852 C 0.47513 0.4569 0.13003 0.0
C853 C 0.45909 0.43657 0.14706 0.0
C854 C 0.50609 0.49046 0.13007 0.0
C855 C 0.52229 0.50519 0.14714 0.0
H856 H 0.46369 0.44742 0.11649 0.0
H857 H 0.51739 0.50443 0.11655 0.0
S858 S 0.49095 0.46259 0.19572 0.0
N859 N 0.46184 0.4334 0.18155 0.0
N860 N 0.51991 0.49666 0.18162 0.0
C861 C 0.50654 0.48528 0.16431 0.0
C862 C 0.47502 0.45081 0.16427 0.0
C863 C 0.47469 0.48446 0.37815 0.0
C864 C 0.45886 0.50623 0.39521 0.0
C865 C 0.50555 0.44967 0.37814 0.0
C866 C 0.52187 0.43508 0.39517 0.0
H867 H 0.46315 0.49358 0.36465 0.0
H868 H 0.51668 0.43456 0.3646 0.0
S869 S 0.49113 0.48179 0.44379 0.0
N870 N 0.46198 0.51134 0.42968 0.0
N871 N 0.51983 0.44569 0.42964 0.0
C872 C 0.50634 0.4566 0.41236 0.0
C873 C 0.47492 0.49236 0.41238 0.0
C874 C 0.47372 0.46155 0.91046 0.0
C875 C 0.45774 0.4435 0.8934 0.0
C876 C 0.50466 0.49508 0.91048 0.0
C877 C 0.52096 0.51195 0.89343 0.0
H878 H 0.46225 0.45029 0.92398 0.0
H879 H 0.51589 0.50718 0.92402 0.0
S880 S 0.48978 0.47627 0.84478 0.0
N881 N 0.4606 0.44519 0.8589 0.0
N882 N 0.51872 0.50824 0.85895 0.0
C883 C 0.50528 0.49443 0.87623 0.0
C884 C 0.47373 0.46009 0.8762 0.0
C885 C 0.47423 0.49443 0.66213 0.0
C886 C 0.45822 0.51363 0.6451 0.0
C887 C 0.50502 0.45893 0.66208 0.0
C888 C 0.52113 0.44115 0.645 0.0
H889 H 0.4629 0.5063 0.67568 0.0
H890 H 0.51627 0.44615 0.6756 0.0
S891 S 0.48979 0.47894 0.59643 0.0
N892 N 0.46085 0.51191 0.61061 0.0
N893 N 0.51866 0.44508 0.61052 0.0
C894 C 0.50541 0.45977 0.62783 0.0
C895 C 0.47402 0.49614 0.62788 0.0
C896 C 0.1192 0.62918 0.16279 0.0
C897 C 0.12274 0.69138 0.1456 0.0
C898 C 0.11518 0.5058 0.16309 0.0
C899 C 0.11448 0.43955 0.1462 0.0
H900 H 0.1192 0.67608 0.1762 0.0
H901 H 0.11276 0.46218 0.17669 0.0
S902 S 0.12336 0.55945 0.09735 0.0
N903 N 0.1258 0.67688 0.11123 0.0
N904 N 0.11811 0.44564 0.11172 0.0
C905 C 0.1181 0.50062 0.12888 0.0
C906 C 0.12234 0.62618 0.1286 0.0
C907 C 0.86563 0.30504 0.1302 0.0
C908 C 0.85909 0.24011 0.14676 0.0
C909 C 0.8698 0.42834 0.13077 0.0
C910 C 0.86764 0.49174 0.14792 0.0
H911 H 0.86803 0.26029 0.11669 0.0
H912 H 0.8747 0.47417 0.1176 0.0
S913 S 0.84968 0.3641 0.19526 0.0
N914 N 0.84974 0.2491 0.18079 0.0
N915 N 0.85768 0.4802 0.18186 0.0
C916 C 0.86086 0.428 0.16459 0.0
C917 C 0.8565 0.30253 0.164 0.0
C918 C 0.11936 0.31332 0.41169 0.0
C919 C 0.1219 0.24764 0.39481 0.0
C920 C 0.11526 0.43662 0.41135 0.0
C921 C 0.11347 0.49933 0.39412 0.0
H922 H 0.12032 0.26927 0.42532 0.0
H923 H 0.11375 0.48304 0.42477 0.0
S924 S 0.11861 0.36913 0.34583 0.0
N925 N 0.1223 0.25492 0.36027 0.0
N926 N 0.11441 0.48596 0.35967 0.0
C927 C 0.11587 0.43472 0.37711 0.0
C928 C 0.1202 0.30925 0.37744 0.0
C929 C 0.86585 0.50899 0.41131 0.0
C930 C 0.86754 0.44642 0.39406 0.0
C931 C 0.86186 0.63233 0.41168 0.0
C932 C 0.85935 0.69817 0.39482 0.0
H933 H 0.86739 0.46244 0.42471 0.0
H934 H 0.861 0.67629 0.42533 0.0
S935 S 0.8622 0.57701 0.34581 0.0
N936 N 0.86641 0.46003 0.35962 0.0
N937 N 0.85873 0.69115 0.36029 0.0
C938 C 0.86091 0.63668 0.37744 0.0
C939 C 0.86512 0.51117 0.37707 0.0
C940 C 0.85857 0.3085 0.87941 0.0
C941 C 0.85895 0.24564 0.89666 0.0
C942 C 0.86264 0.43185 0.87889 0.0
C943 C 0.86731 0.49738 0.8956 0.0
H944 H 0.85522 0.26219 0.86612 0.0
H945 H 0.86173 0.47609 0.86527 0.0
S946 S 0.87104 0.37507 0.94451 0.0
N947 N 0.86479 0.25843 0.93092 0.0
N948 N 0.87262 0.48956 0.92997 0.0
C949 C 0.86797 0.43552 0.91298 0.0
C950 C 0.86368 0.31002 0.91351 0.0
C951 C 0.11379 0.50838 0.91167 0.0
C952 C 0.11317 0.44543 0.89443 0.0
C953 C 0.11787 0.63173 0.91206 0.0
C954 C 0.12154 0.69717 0.89522 0.0
H955 H 0.11125 0.46214 0.92505 0.0
H956 H 0.11777 0.67605 0.92568 0.0
S957 S 0.1224 0.5747 0.84628 0.0
N958 N 0.11699 0.45811 0.86004 0.0
N959 N 0.12482 0.68924 0.86075 0.0
C960 C 0.1212 0.63525 0.87786 0.0
C961 C 0.11691 0.50974 0.87747 0.0
C962 C 0.86381 0.63587 0.63018 0.0
C963 C 0.85776 0.7006 0.64682 0.0
C964 C 0.86793 0.51258 0.63068 0.0
C965 C 0.86621 0.44898 0.64784 0.0
H966 H 0.86584 0.68076 0.61666 0.0
H967 H 0.87242 0.46689 0.61745 0.0
S968 S 0.84976 0.57608 0.69539 0.0
N969 N 0.84942 0.69123 0.68095 0.0
N970 N 0.8573 0.46015 0.68189 0.0
C971 C 0.85996 0.51254 0.66459 0.0
C972 C 0.85564 0.63799 0.66407 0.0
C973 C 0.11857 0.31971 0.66239 0.0
C974 C 0.1214 0.25761 0.64516 0.0
C975 C 0.11478 0.4431 0.66275 0.0
C976 C 0.1136 0.50946 0.64589 0.0
H977 H 0.11901 0.27273 0.67579 0.0
H978 H 0.11292 0.48665 0.67639 0.0
S979 S 0.12037 0.38979 0.59691 0.0
N980 N 0.12315 0.27222 0.61074 0.0
N981 N 0.11589 0.50359 0.61136 0.0
C982 C 0.11647 0.44849 0.62851 0.0
C983 C 0.12047 0.32288 0.62816 0.0
C984 C 0.6127 0.00699 0.12999 0.0
C985 C 0.61433 0.94352 0.14715 0.0
C986 C 0.61666 0.13038 0.12948 0.0
C987 C 0.62245 0.19529 0.14612 0.0
H988 H 0.6084 0.96115 0.11676 0.0
H989 H 0.61473 0.17518 0.11595 0.0
S990 S 0.63008 0.07119 0.19472 0.0
N991 N 0.62284 0.95501 0.18121 0.0
N992 N 0.63043 0.18628 0.18026 0.0
C993 C 0.62447 0.13282 0.16338 0.0
C994 C 0.62031 0.00727 0.1639 0.0
C995 C 0.36191 0.80755 0.16251 0.0
C996 C 0.35918 0.74505 0.14531 0.0
C997 C 0.366 0.93089 0.16279 0.0
C998 C 0.36762 -0.00317 0.14589 0.0
H999 H 0.36115 0.76093 0.17593 0.0
H1000 H 0.36773 0.97475 0.17641 0.0
S1001 S 0.36141 0.87599 0.09698 0.0
N1002 N 0.35807 0.75889 0.11088 0.0
N1003 N 0.36593 -0.00996 0.11136 0.0
C1004 C 0.36489 0.93544 0.12855 0.0
C1005 C 0.36057 0.80992 0.12828 0.0
C1006 C 0.61334 0.93037 0.41067 0.0
C1007 C 0.61335 -0.00666 0.39342 0.0
C1008 C 0.61756 0.80713 0.41114 0.0
C1009 C 0.62202 0.74176 0.39438 0.0
H1010 H 0.61016 -0.02347 0.42399 0.0
H1011 H 0.61692 0.76281 0.42476 0.0
S1012 S 0.6249 0.86431 0.34545 0.0
N1013 N 0.61873 -0.01924 0.35911 0.0
N1014 N 0.62681 0.74981 0.35997 0.0
C1015 C 0.62235 0.8037 0.37701 0.0
C1016 C 0.61792 0.92912 0.37653 0.0
C1017 C 0.36766 0.00967 0.41102 0.0
C1018 C 0.36728 0.94666 0.39379 0.0
C1019 C 0.36349 0.13293 0.41151 0.0
C1020 C 0.35872 0.19827 0.39479 0.0
H1021 H 0.37108 0.96355 0.42433 0.0
H1022 H 0.3644 0.17728 0.42512 0.0
S1023 S 0.35491 0.0756 0.34592 0.0
N1024 N 0.36128 0.95916 0.35953 0.0
N1025 N 0.3533 0.19015 0.36044 0.0
C1026 C 0.35804 0.13629 0.37744 0.0
C1027 C 0.36243 0.01085 0.37693 0.0
C1028 C 0.36289 0.81727 0.91118 0.0
C1029 C 0.35753 0.75196 0.89453 0.0
C1030 C 0.36702 0.94058 0.91063 0.0
C1031 C 0.36601 0.00365 0.89341 0.0
H1032 H 0.36432 0.77284 0.92477 0.0
H1033 H 0.37093 -0.0133 0.92388 0.0
S1034 S 0.35178 0.8748 0.84573 0.0
N1035 N 0.35076 0.76017 0.86027 0.0
N1036 N 0.35868 -0.00875 0.85925 0.0
C1037 C 0.36052 0.93949 0.87663 0.0
C1038 C 0.35618 0.81401 0.87719 0.0
C1039 C 0.61836 0.13542 0.9115 0.0
C1040 C 0.62039 0.20158 0.89464 0.0
C1041 C 0.61447 0.01201 0.91113 0.0
C1042 C 0.61239 0.94971 0.89387 0.0
H1043 H 0.6196 0.17916 0.92515 0.0
H1044 H 0.61337 0.96518 0.92452 0.0
S1045 S 0.61597 0.08135 0.84562 0.0
N1046 N 0.61985 0.19527 0.8601 0.0
N1047 N 0.61237 0.96399 0.85943 0.0
C1048 C 0.61424 0.01481 0.87688 0.0
C1049 C 0.61833 0.14039 0.87725 0.0
C1050 C 0.36882 0.02082 0.63006 0.0
C1051 C 0.36656 0.9567 0.64714 0.0
C1052 C 0.3645 0.14404 0.62959 0.0
C1053 C 0.35768 0.20815 0.64618 0.0
H1054 H 0.37396 -0.0244 0.61688 0.0
H1055 H 0.36704 0.18944 0.61614 0.0
S1056 S 0.34751 0.08178 0.69446 0.0
N1057 N 0.35593 0.96648 0.68101 0.0
N1058 N 0.34772 0.19748 0.68012 0.0
C1059 C 0.3549 0.14495 0.66334 0.0
C1060 C 0.35942 0.01956 0.66383 0.0
C1061 C 0.6207 0.81159 0.66182 0.0
C1062 C 0.62048 0.74875 0.64457 0.0
C1063 C 0.6166 0.93487 0.66232 0.0
C1064 C 0.61204 0.00036 0.64559 0.0
H1065 H 0.62397 0.7653 0.67512 0.0
H1066 H 0.6174 -0.02089 0.67594 0.0
S1067 S 0.60862 0.87796 0.59669 0.0
N1068 N 0.61482 0.7614 0.6103 0.0
N1069 N 0.60694 -0.00752 0.61121 0.0
C1070 C 0.61152 0.9385 0.62822 0.0
C1071 C 0.61585 0.81304 0.62771 0.0
loop_
_geom_bond_atom_site_label_1
_geom_bond_atom_site_label_2
_geom_bond_distance
_geom_bond_site_symmetry_2
_ccdc_geom_bond_type
C0 O16 1.251 . S
C0 O18 1.254 . S
N1 C2 1.333 . S
N1 C6 1.307 . S
N1 Zn7 2.020 . S
C2 N1 1.333 . S
C2 C3 1.379 . S
C2 H20 0.952 . S
C3 C2 1.379 . S
C3 C4 1.390 . S
C3 H30 0.949 . S
C4 C3 1.390 . S
C4 C5 1.357 . S
C5 C4 1.357 . S
C5 C6 1.370 . S
C5 H31 0.950 1_545 S
C6 N1 1.307 . S
C6 C5 1.370 . S
C6 H24 0.948 1_545 S
Zn7 N1 2.020 . S
Zn7 O16 2.039 . S
Zn7 O22 2.034 . S
Zn7 O26 2.025 1_545 S
Zn7 O28 2.024 . S
C8 O27 1.246 . S
C8 O28 1.249 . S
N9 C10 1.307 . S
N9 C11 1.333 1_545 S
N9 Zn15 2.020 . S
C10 N9 1.307 . S
C10 C14 1.370 . S
C10 H21 0.948 . S
C11 N9 1.333 1_565 S
C11 C12 1.379 . S
C11 H19 0.952 . S
C12 C11 1.379 . S
C12 C13 1.390 1_565 S
C12 H32 0.949 . S
C13 C12 1.390 1_545 S
C13 C14 1.357 . S
C14 C10 1.370 . S
C14 C13 1.357 . S
C14 H33 0.950 . S
Zn15 N9 2.020 . S
Zn15 O18 2.025 . S
Zn15 O23 2.024 . S
Zn15 O25 2.039 1_545 S
Zn15 O27 2.034 . S
O16 C0 1.251 . S
O16 Zn7 2.039 . S
C17 O22 1.246 . S
C17 O23 1.249 . S
O18 C0 1.254 . S
O18 Zn15 2.025 . S
H19 C11 0.952 . S
H20 C2 0.952 . S
H21 C10 0.948 . S
O22 Zn7 2.034 . S
O22 C17 1.246 . S
O23 Zn15 2.024 . S
O23 C17 1.249 . S
H24 C6 0.948 1_565 S
O25 Zn15 2.039 1_565 S
O25 C29 1.251 . S
O26 Zn7 2.025 1_565 S
O26 C29 1.254 . S
O27 C8 1.246 . S
O27 Zn15 2.034 . S
O28 Zn7 2.024 . S
O28 C8 1.249 . S
C29 O25 1.251 . S
C29 O26 1.254 . S
H30 C3 0.949 . S
H31 C5 0.950 1_565 S
H32 C12 0.949 . S
H33 C14 0.950 . S
C34 O50 1.251 . S
C34 O52 1.254 . S
N35 C36 1.333 . S
N35 C40 1.307 . S
N35 Zn41 2.020 . S
C36 N35 1.333 . S
C36 C37 1.379 . S
C36 H54 0.952 . S
C37 C36 1.379 . S
C37 C38 1.390 . S
C37 H64 0.949 . S
C38 C37 1.390 . S
C38 C39 1.357 . S
C39 C38 1.357 . S
C39 C40 1.370 . S
C39 H65 0.950 1_565 S
C40 N35 1.307 . S
C40 C39 1.370 . S
C40 H58 0.948 1_565 S
Zn41 N35 2.020 . S
Zn41 O50 2.039 . S
Zn41 O56 2.034 . S
Zn41 O60 2.025 1_565 S
Zn41 O62 2.024 . S
C42 O61 1.246 . S
C42 O62 1.249 . S
N43 C44 1.307 . S
N43 C45 1.333 1_565 S
N43 Zn49 2.020 . S
C44 N43 1.307 . S
C44 C48 1.370 . S
C44 H55 0.948 . S
C45 N43 1.333 1_545 S
C45 C46 1.379 . S
C45 H53 0.952 . S
C46 C45 1.379 . S
C46 C47 1.390 1_545 S
C46 H66 0.949 . S
C47 C46 1.390 1_565 S
C47 C48 1.357 . S
C48 C44 1.370 . S
C48 C47 1.357 . S
C48 H67 0.950 . S
Zn49 N43 2.020 . S
Zn49 O52 2.025 . S
Zn49 O57 2.024 . S
Zn49 O59 2.039 1_565 S
Zn49 O61 2.034 . S
O50 C34 1.251 . S
O50 Zn41 2.039 . S
C51 O56 1.246 . S
C51 O57 1.249 . S
O52 C34 1.254 . S
O52 Zn49 2.025 . S
H53 C45 0.952 . S
H54 C36 0.952 . S
H55 C44 0.948 . S
O56 Zn41 2.034 . S
O56 C51 1.246 . S
O57 Zn49 2.024 . S
O57 C51 1.249 . S
H58 C40 0.948 1_545 S
O59 Zn49 2.039 1_545 S
O59 C63 1.251 . S
O60 Zn41 2.025 1_545 S
O60 C63 1.254 . S
O61 C42 1.246 . S
O61 Zn49 2.034 . S
O62 Zn41 2.024 . S
O62 C42 1.249 . S
C63 O59 1.251 . S
C63 O60 1.254 . S
H64 C37 0.949 . S
H65 C39 0.950 1_545 S
H66 C46 0.949 . S
H67 C48 0.950 . S
C68 O84 1.251 . S
C68 O86 1.254 . S
N69 C70 1.333 . S
N69 C74 1.307 . S
N69 Zn75 2.020 . S
C70 N69 1.333 . S
C70 C71 1.379 . S
C70 H88 0.952 . S
C71 C70 1.379 . S
C71 C72 1.390 . S
C71 H98 0.949 . S
C72 C71 1.390 . S
C72 C73 1.357 . S
C73 C72 1.357 . S
C73 C74 1.370 . S
C73 H99 0.950 1_565 S
C74 N69 1.307 . S
C74 C73 1.370 . S
C74 H92 0.948 1_565 S
Zn75 N69 2.020 . S
Zn75 O84 2.039 . S
Zn75 O90 2.034 . S
Zn75 O94 2.025 1_565 S
Zn75 O96 2.024 . S
C76 O95 1.246 . S
C76 O96 1.249 . S
N77 C78 1.307 . S
N77 C79 1.333 1_565 S
N77 Zn83 2.020 . S
C78 N77 1.307 . S
C78 C82 1.370 . S
C78 H89 0.948 . S
C79 N77 1.333 1_545 S
C79 C80 1.379 . S
C79 H87 0.952 . S
C80 C79 1.379 . S
C80 C81 1.390 1_545 S
C80 H100 0.949 . S
C81 C80 1.390 1_565 S
C81 C82 1.357 . S
C82 C78 1.370 . S
C82 C81 1.357 . S
C82 H101 0.950 . S
Zn83 N77 2.020 . S
Zn83 O86 2.025 . S
Zn83 O91 2.024 . S
Zn83 O93 2.039 1_565 S
Zn83 O95 2.034 . S
O84 C68 1.251 . S
O84 Zn75 2.039 . S
C85 O90 1.246 . S
C85 O91 1.249 . S
O86 C68 1.254 . S
O86 Zn83 2.025 . S
H87 C79 0.952 . S
H88 C70 0.952 . S
H89 C78 0.948 . S
O90 Zn75 2.034 . S
O90 C85 1.246 . S
O91 Zn83 2.024 . S
O91 C85 1.249 . S
H92 C74 0.948 1_545 S
O93 Zn83 2.039 1_545 S
O93 C97 1.251 . S
O94 Zn75 2.025 1_545 S
O94 C97 1.254 . S
O95 C76 1.246 . S
O95 Zn83 2.034 . S
O96 Zn75 2.024 . S
O96 C76 1.249 . S
C97 O93 1.251 . S
C97 O94 1.254 . S
H98 C71 0.949 . S
H99 C73 0.950 1_545 S
H100 C80 0.949 . S
H101 C82 0.950 . S
C102 O118 1.251 . S
C102 O120 1.254 . S
N103 C104 1.333 . S
N103 C108 1.307 . S
N103 Zn109 2.020 . S
C104 N103 1.333 . S
C104 C105 1.379 . S
C104 H122 0.952 . S
C105 C104 1.379 . S
C105 C106 1.390 . S
C105 H132 0.949 . S
C106 C105 1.390 . S
C106 C107 1.357 . S
C107 C106 1.357 . S
C107 C108 1.370 . S
C107 H133 0.950 1_545 S
C108 N103 1.307 . S
C108 C107 1.370 . S
C108 H126 0.948 1_545 S
Zn109 N103 2.020 . S
Zn109 O118 2.039 . S
Zn109 O124 2.034 . S
Zn109 O128 2.025 1_545 S
Zn109 O130 2.024 . S
C110 O129 1.246 . S
C110 O130 1.249 . S
N111 C112 1.307 . S
N111 C113 1.333 1_545 S
N111 Zn117 2.020 . S
C112 N111 1.307 . S
C112 C116 1.370 . S
C112 H123 0.948 . S
C113 N111 1.333 1_565 S
C113 C114 1.379 . S
C113 H121 0.952 . S
C114 C113 1.379 . S
C114 C115 1.390 1_565 S
C114 H134 0.949 . S
C115 C114 1.390 1_545 S
C115 C116 1.357 . S
C116 C112 1.370 . S
C116 C115 1.357 . S
C116 H135 0.950 . S
Zn117 N111 2.020 . S
Zn117 O120 2.025 . S
Zn117 O125 2.024 . S
Zn117 O127 2.039 1_545 S
Zn117 O129 2.034 . S
O118 C102 1.251 . S
O118 Zn109 2.039 . S
C119 O124 1.246 . S
C119 O125 1.249 . S
O120 C102 1.254 . S
O120 Zn117 2.025 . S
H121 C113 0.952 . S
H122 C104 0.952 . S
H123 C112 0.948 . S
O124 Zn109 2.034 . S
O124 C119 1.246 . S
O125 Zn117 2.024 . S
O125 C119 1.249 . S
H126 C108 0.948 1_565 S
O127 Zn117 2.039 1_565 S
O127 C131 1.251 . S
O128 Zn109 2.025 1_565 S
O128 C131 1.254 . S
O129 C110 1.246 . S
O129 Zn117 2.034 . S
O130 Zn109 2.024 . S
O130 C110 1.249 . S
C131 O127 1.251 . S
C131 O128 1.254 . S
H132 C105 0.949 . S
H133 C107 0.950 1_565 S
H134 C114 0.949 . S
H135 C116 0.950 . S
C136 O152 1.251 . S
C136 O154 1.254 . S
N137 C138 1.333 1_565 S
N137 C142 1.307 . S
N137 Zn143 2.020 . S
C138 N137 1.333 1_545 S
C138 C139 1.379 . S
C138 H156 0.952 . S
C139 C138 1.379 . S
C139 C140 1.390 1_545 S
C139 H166 0.949 . S
C140 C139 1.390 1_565 S
C140 C141 1.357 . S
C141 C140 1.357 . S
C141 C142 1.370 . S
C141 H167 0.950 . S
C142 N137 1.307 . S
C142 C141 1.370 . S
C142 H160 0.948 . S
Zn143 N137 2.020 . S
Zn143 O152 2.039 1_565 S
Zn143 O158 2.034 . S
Zn143 O162 2.025 . S
Zn143 O164 2.024 . S
C144 O163 1.246 . S
C144 O164 1.249 . S
N145 C146 1.307 . S
N145 C147 1.333 . S
N145 Zn151 2.020 . S
C146 N145 1.307 . S
C146 C150 1.370 . S
C146 H157 0.948 1_565 S
C147 N145 1.333 . S
C147 C148 1.379 . S
C147 H155 0.952 . S
C148 C147 1.379 . S
C148 C149 1.390 . S
C148 H168 0.949 . S
C149 C148 1.390 . S
C149 C150 1.357 . S
C150 C146 1.370 . S
C150 C149 1.357 . S
C150 H169 0.950 1_565 S
Zn151 N145 2.020 . S
Zn151 O154 2.025 1_565 S
Zn151 O159 2.024 . S
Zn151 O161 2.039 . S
Zn151 O163 2.034 . S
O152 C136 1.251 . S
O152 Zn143 2.039 1_545 S
C153 O158 1.246 . S
C153 O159 1.249 . S
O154 C136 1.254 . S
O154 Zn151 2.025 1_545 S
H155 C147 0.952 . S
H156 C138 0.952 . S
H157 C146 0.948 1_545 S
O158 Zn143 2.034 . S
O158 C153 1.246 . S
O159 Zn151 2.024 . S
O159 C153 1.249 . S
H160 C142 0.948 . S
O161 Zn151 2.039 . S
O161 C165 1.251 . S
O162 Zn143 2.025 . S
O162 C165 1.254 . S
O163 C144 1.246 . S
O163 Zn151 2.034 . S
O164 Zn143 2.024 . S
O164 C144 1.249 . S
C165 O161 1.251 . S
C165 O162 1.254 . S
H166 C139 0.949 . S
H167 C141 0.950 . S
H168 C148 0.949 . S
H169 C150 0.950 1_545 S
C170 O186 1.251 . S
C170 O188 1.254 . S
N171 C172 1.333 1_545 S
N171 C176 1.307 . S
N171 Zn177 2.020 . S
C172 N171 1.333 1_565 S
C172 C173 1.379 . S
C172 H190 0.952 . S
C173 C172 1.379 . S
C173 C174 1.390 1_565 S
C173 H200 0.949 . S
C174 C173 1.390 1_545 S
C174 C175 1.357 . S
C175 C174 1.357 . S
C175 C176 1.370 . S
C175 H201 0.950 . S
C176 N171 1.307 . S
C176 C175 1.370 . S
C176 H194 0.948 . S
Zn177 N171 2.020 . S
Zn177 O186 2.039 1_545 S
Zn177 O192 2.034 . S
Zn177 O196 2.025 . S
Zn177 O198 2.024 . S
C178 O197 1.246 . S
C178 O198 1.249 . S
N179 C180 1.307 . S
N179 C181 1.333 . S
N179 Zn185 2.020 . S
C180 N179 1.307 . S
C180 C184 1.370 . S
C180 H191 0.948 1_545 S
C181 N179 1.333 . S
C181 C182 1.379 . S
C181 H189 0.952 . S
C182 C181 1.379 . S
C182 C183 1.390 . S
C182 H202 0.949 . S
C183 C182 1.390 . S
C183 C184 1.357 . S
C184 C180 1.370 . S
C184 C183 1.357 . S
C184 H203 0.950 1_545 S
Zn185 N179 2.020 . S
Zn185 O188 2.025 1_545 S
Zn185 O193 2.024 . S
Zn185 O195 2.039 . S
Zn185 O197 2.034 . S
O186 C170 1.251 . S
O186 Zn177 2.039 1_565 S
C187 O192 1.246 . S
C187 O193 1.249 . S
O188 C170 1.254 . S
O188 Zn185 2.025 1_565 S
H189 C181 0.952 . S
H190 C172 0.952 . S
H191 C180 0.948 1_565 S
O192 Zn177 2.034 . S
O192 C187 1.246 . S
O193 Zn185 2.024 . S
O193 C187 1.249 . S
H194 C176 0.948 . S
O195 Zn185 2.039 . S
O195 C199 1.251 . S
O196 Zn177 2.025 . S
O196 C199 1.254 . S
O197 C178 1.246 . S
O197 Zn185 2.034 . S
O198 Zn177 2.024 . S
O198 C178 1.249 . S
C199 O195 1.251 . S
C199 O196 1.254 . S
H200 C173 0.949 . S
H201 C175 0.950 . S
H202 C182 0.949 . S
H203 C184 0.950 1_565 S
C204 O220 1.251 . S
C204 O222 1.254 . S
N205 C206 1.333 1_545 S
N205 C210 1.307 . S
N205 Zn211 2.020 . S
C206 N205 1.333 1_565 S
C206 C207 1.379 . S
C206 H224 0.952 . S
C207 C206 1.379 . S
C207 C208 1.390 1_565 S
C207 H234 0.949 . S
C208 C207 1.390 1_545 S
C208 C209 1.357 . S
C209 C208 1.357 . S
C209 C210 1.370 . S
C209 H235 0.950 . S
C210 N205 1.307 . S
C210 C209 1.370 . S
C210 H228 0.948 . S
Zn211 N205 2.020 . S
Zn211 O220 2.039 1_545 S
Zn211 O226 2.034 . S
Zn211 O230 2.025 . S
Zn211 O232 2.024 . S
C212 O231 1.246 . S
C212 O232 1.249 . S
N213 C214 1.307 . S
N213 C215 1.333 . S
N213 Zn219 2.020 . S
C214 N213 1.307 . S
C214 C218 1.370 . S
C214 H225 0.948 1_545 S
C215 N213 1.333 . S
C215 C216 1.379 . S
C215 H223 0.952 . S
C216 C215 1.379 . S
C216 C217 1.390 . S
C216 H236 0.949 . S
C217 C216 1.390 . S
C217 C218 1.357 . S
C218 C214 1.370 . S
C218 C217 1.357 . S
C218 H237 0.950 1_545 S
Zn219 N213 2.020 . S
Zn219 O222 2.025 1_545 S
Zn219 O227 2.024 . S
Zn219 O229 2.039 . S
Zn219 O231 2.034 . S
O220 C204 1.251 . S
O220 Zn211 2.039 1_565 S
C221 O226 1.246 . S
C221 O227 1.249 . S
O222 C204 1.254 . S
O222 Zn219 2.025 1_565 S
H223 C215 0.952 . S
H224 C206 0.952 . S
H225 C214 0.948 1_565 S
O226 Zn211 2.034 . S
O226 C221 1.246 . S
O227 Zn219 2.024 . S
O227 C221 1.249 . S
H228 C210 0.948 . S
O229 Zn219 2.039 . S
O229 C233 1.251 . S
O230 Zn211 2.025 . S
O230 C233 1.254 . S
O231 C212 1.246 . S
O231 Zn219 2.034 . S
O232 Zn211 2.024 . S
O232 C212 1.249 . S
C233 O229 1.251 . S
C233 O230 1.254 . S
H234 C207 0.949 . S
H235 C209 0.950 . S
H236 C216 0.949 . S
H237 C218 0.950 1_565 S
C238 O254 1.251 . S
C238 O256 1.254 . S
N239 C240 1.333 1_565 S
N239 C244 1.307 . S
N239 Zn245 2.020 . S
C240 N239 1.333 1_545 S
C240 C241 1.379 . S
C240 H258 0.952 . S
C241 C240 1.379 . S
C241 C242 1.390 1_545 S
C241 H268 0.949 . S
C242 C241 1.390 1_565 S
C242 C243 1.357 . S
C243 C242 1.357 . S
C243 C244 1.370 . S
C243 H269 0.950 . S
C244 N239 1.307 . S
C244 C243 1.370 . S
C244 H262 0.948 . S
Zn245 N239 2.020 . S
Zn245 O254 2.039 1_565 S
Zn245 O260 2.034 . S
Zn245 O264 2.025 . S
Zn245 O266 2.024 . S
C246 O265 1.246 . S
C246 O266 1.249 . S
N247 C248 1.307 . S
N247 C249 1.333 . S
N247 Zn253 2.020 . S
C248 N247 1.307 . S
C248 C252 1.370 . S
C248 H259 0.948 1_565 S
C249 N247 1.333 . S
C249 C250 1.379 . S
C249 H257 0.952 . S
C250 C249 1.379 . S
C250 C251 1.390 . S
C250 H270 0.949 . S
C251 C250 1.390 . S
C251 C252 1.357 . S
C252 C248 1.370 . S
C252 C251 1.357 . S
C252 H271 0.950 1_565 S
Zn253 N247 2.020 . S
Zn253 O256 2.025 1_565 S
Zn253 O261 2.024 . S
Zn253 O263 2.039 . S
Zn253 O265 2.034 . S
O254 C238 1.251 . S
O254 Zn245 2.039 1_545 S
C255 O260 1.246 . S
C255 O261 1.249 . S
O256 C238 1.254 . S
O256 Zn253 2.025 1_545 S
H257 C249 0.952 . S
H258 C240 0.952 . S
H259 C248 0.948 1_545 S
O260 Zn245 2.034 . S
O260 C255 1.246 . S
O261 Zn253 2.024 . S
O261 C255 1.249 . S
H262 C244 0.948 . S
O263 Zn253 2.039 . S
O263 C267 1.251 . S
O264 Zn245 2.025 . S
O264 C267 1.254 . S
O265 C246 1.246 . S
O265 Zn253 2.034 . S
O266 Zn245 2.024 . S
O266 C246 1.249 . S
C267 O263 1.251 . S
C267 O264 1.254 . S
H268 C241 0.949 . S
H269 C243 0.950 . S
H270 C250 0.949 . S
H271 C252 0.950 1_545 S
C272 O288 1.251 . S
C272 O290 1.254 . S
N273 C274 1.333 . S
N273 C278 1.307 . S
N273 Zn279 2.020 . S
C274 N273 1.333 . S
C274 C275 1.379 . S
C274 H292 0.952 . S
C275 C274 1.379 . S
C275 C276 1.390 . S
C275 H302 0.949 . S
C276 C275 1.390 . S
C276 C277 1.357 . S
C277 C276 1.357 . S
C277 C278 1.370 . S
C277 H303 0.950 . S
C278 N273 1.307 . S
C278 C277 1.370 . S
C278 H296 0.948 . S
Zn279 N273 2.020 . S
Zn279 O288 2.039 . S
Zn279 O294 2.034 . S
Zn279 O298 2.025 . S
Zn279 O300 2.024 . S
C280 O299 1.246 . S
C280 O300 1.249 . S
N281 C282 1.307 . S
N281 C283 1.333 . S
N281 Zn287 2.020 . S
C282 N281 1.307 . S
C282 C286 1.370 . S
C282 H293 0.948 . S
C283 N281 1.333 . S
C283 C284 1.379 . S
C283 H291 0.952 . S
C284 C283 1.379 . S
C284 C285 1.390 . S
C284 H304 0.949 . S
C285 C284 1.390 . S
C285 C286 1.357 . S
C286 C282 1.370 . S
C286 C285 1.357 . S
C286 H305 0.950 . S
Zn287 N281 2.020 . S
Zn287 O290 2.025 . S
Zn287 O295 2.024 . S
Zn287 O297 2.039 . S
Zn287 O299 2.034 . S
O288 C272 1.251 . S
O288 Zn279 2.039 . S
C289 O294 1.246 . S
C289 O295 1.249 . S
O290 C272 1.254 . S
O290 Zn287 2.025 . S
H291 C283 0.952 . S
H292 C274 0.952 . S
H293 C282 0.948 . S
O294 Zn279 2.034 . S
O294 C289 1.246 . S
O295 Zn287 2.024 . S
O295 C289 1.249 . S
H296 C278 0.948 . S
O297 Zn287 2.039 . S
O297 C301 1.251 . S
O298 Zn279 2.025 . S
O298 C301 1.254 . S
O299 C280 1.246 . S
O299 Zn287 2.034 . S
O300 Zn279 2.024 . S
O300 C280 1.249 . S
C301 O297 1.251 . S
C301 O298 1.254 . S
H302 C275 0.949 . S
H303 C277 0.950 . S
H304 C284 0.949 . S
H305 C286 0.950 . S
C306 O322 1.251 . S
C306 O324 1.254 . S
N307 C308 1.333 . S
N307 C312 1.307 . S
N307 Zn313 2.020 . S
C308 N307 1.333 . S
C308 C309 1.379 . S
C308 H326 0.952 . S
C309 C308 1.379 . S
C309 C310 1.390 . S
C309 H336 0.949 . S
C310 C309 1.390 . S
C310 C311 1.357 . S
C311 C310 1.357 . S
C311 C312 1.370 . S
C311 H337 0.950 . S
C312 N307 1.307 . S
C312 C311 1.370 . S
C312 H330 0.948 . S
Zn313 N307 2.020 . S
Zn313 O322 2.039 . S
Zn313 O328 2.034 . S
Zn313 O332 2.025 . S
Zn313 O334 2.024 . S
C314 O333 1.246 . S
C314 O334 1.249 . S
N315 C316 1.307 . S
N315 C317 1.333 . S
N315 Zn321 2.020 . S
C316 N315 1.307 . S
C316 C320 1.370 . S
C316 H327 0.948 . S
C317 N315 1.333 . S
C317 C318 1.379 . S
C317 H325 0.952 . S
C318 C317 1.379 . S
C318 C319 1.390 . S
C318 H338 0.949 . S
C319 C318 1.390 . S
C319 C320 1.357 . S
C320 C316 1.370 . S
C320 C319 1.357 . S
C320 H339 0.950 . S
Zn321 N315 2.020 . S
Zn321 O324 2.025 . S
Zn321 O329 2.024 . S
Zn321 O331 2.039 . S
Zn321 O333 2.034 . S
O322 C306 1.251 . S
O322 Zn313 2.039 . S
C323 O328 1.246 . S
C323 O329 1.249 . S
O324 C306 1.254 . S
O324 Zn321 2.025 . S
H325 C317 0.952 . S
H326 C308 0.952 . S
H327 C316 0.948 . S
O328 Zn313 2.034 . S
O328 C323 1.246 . S
O329 Zn321 2.024 . S
O329 C323 1.249 . S
H330 C312 0.948 . S
O331 Zn321 2.039 . S
O331 C335 1.251 . S
O332 Zn313 2.025 . S
O332 C335 1.254 . S
O333 C314 1.246 . S
O333 Zn321 2.034 . S
O334 Zn313 2.024 . S
O334 C314 1.249 . S
C335 O331 1.251 . S
C335 O332 1.254 . S
H336 C309 0.949 . S
H337 C311 0.950 . S
H338 C318 0.949 . S
H339 C320 0.950 . S
C340 O356 1.251 . S
C340 O358 1.254 . S
N341 C342 1.333 . S
N341 C346 1.307 . S
N341 Zn347 2.020 . S
C342 N341 1.333 . S
C342 C343 1.379 . S
C342 H360 0.952 . S
C343 C342 1.379 . S
C343 C344 1.390 . S
C343 H370 0.949 . S
C344 C343 1.390 . S
C344 C345 1.357 . S
C345 C344 1.357 . S
C345 C346 1.370 . S
C345 H371 0.950 . S
C346 N341 1.307 . S
C346 C345 1.370 . S
C346 H364 0.948 . S
Zn347 N341 2.020 . S
Zn347 O356 2.039 . S
Zn347 O362 2.034 . S
Zn347 O366 2.025 . S
Zn347 O368 2.024 . S
C348 O367 1.246 . S
C348 O368 1.249 . S
N349 C350 1.307 . S
N349 C351 1.333 . S
N349 Zn355 2.020 . S
C350 N349 1.307 . S
C350 C354 1.370 . S
C350 H361 0.948 . S
C351 N349 1.333 . S
C351 C352 1.379 . S
C351 H359 0.952 . S
C352 C351 1.379 . S
C352 C353 1.390 . S
C352 H372 0.949 . S
C353 C352 1.390 . S
C353 C354 1.357 . S
C354 C350 1.370 . S
C354 C353 1.357 . S
C354 H373 0.950 . S
Zn355 N349 2.020 . S
Zn355 O358 2.025 . S
Zn355 O363 2.024 . S
Zn355 O365 2.039 . S
Zn355 O367 2.034 . S
O356 C340 1.251 . S
O356 Zn347 2.039 . S
C357 O362 1.246 . S
C357 O363 1.249 . S
O358 C340 1.254 . S
O358 Zn355 2.025 . S
H359 C351 0.952 . S
H360 C342 0.952 . S
H361 C350 0.948 . S
O362 Zn347 2.034 . S
O362 C357 1.246 . S
O363 Zn355 2.024 . S
O363 C357 1.249 . S
H364 C346 0.948 . S
O365 Zn355 2.039 . S
O365 C369 1.251 . S
O366 Zn347 2.025 . S
O366 C369 1.254 . S
O367 C348 1.246 . S
O367 Zn355 2.034 . S
O368 Zn347 2.024 . S
O368 C348 1.249 . S
C369 O365 1.251 . S
C369 O366 1.254 . S
H370 C343 0.949 . S
H371 C345 0.950 . S
H372 C352 0.949 . S
H373 C354 0.950 . S
C374 O390 1.251 . S
C374 O392 1.254 . S
N375 C376 1.333 . S
N375 C380 1.307 . S
N375 Zn381 2.020 . S
C376 N375 1.333 . S
C376 C377 1.379 . S
C376 H394 0.952 . S
C377 C376 1.379 . S
C377 C378 1.390 . S
C377 H404 0.949 . S
C378 C377 1.390 . S
C378 C379 1.357 . S
C379 C378 1.357 . S
C379 C380 1.370 . S
C379 H405 0.950 . S
C380 N375 1.307 . S
C380 C379 1.370 . S
C380 H398 0.948 . S
Zn381 N375 2.020 . S
Zn381 O390 2.039 . S
Zn381 O396 2.034 . S
Zn381 O400 2.025 . S
Zn381 O402 2.024 . S
C382 O401 1.246 . S
C382 O402 1.249 . S
N383 C384 1.307 . S
N383 C385 1.333 . S
N383 Zn389 2.020 . S
C384 N383 1.307 . S
C384 C388 1.370 . S
C384 H395 0.948 . S
C385 N383 1.333 . S
C385 C386 1.379 . S
C385 H393 0.952 . S
C386 C385 1.379 . S
C386 C387 1.390 . S
C386 H406 0.949 . S
C387 C386 1.390 . S
C387 C388 1.357 . S
C388 C384 1.370 . S
C388 C387 1.357 . S
C388 H407 0.950 . S
Zn389 N383 2.020 . S
Zn389 O392 2.025 . S
Zn389 O397 2.024 . S
Zn389 O399 2.039 . S
Zn389 O401 2.034 . S
O390 C374 1.251 . S
O390 Zn381 2.039 . S
C391 O396 1.246 . S
C391 O397 1.249 . S
O392 C374 1.254 . S
O392 Zn389 2.025 . S
H393 C385 0.952 . S
H394 C376 0.952 . S
H395 C384 0.948 . S
O396 Zn381 2.034 . S
O396 C391 1.246 . S
O397 Zn389 2.024 . S
O397 C391 1.249 . S
H398 C380 0.948 . S
O399 Zn389 2.039 . S
O399 C403 1.251 . S
O400 Zn381 2.025 . S
O400 C403 1.254 . S
O401 C382 1.246 . S
O401 Zn389 2.034 . S
O402 Zn381 2.024 . S
O402 C382 1.249 . S
C403 O399 1.251 . S
C403 O400 1.254 . S
H404 C377 0.949 . S
H405 C379 0.950 . S
H406 C386 0.949 . S
H407 C388 0.950 . S
C408 O424 1.251 . S
C408 O426 1.254 . S
N409 C410 1.333 . S
N409 C414 1.307 . S
N409 Zn415 2.020 . S
C410 N409 1.333 . S
C410 C411 1.379 . S
C410 H428 0.952 . S
C411 C410 1.379 . S
C411 C412 1.390 . S
C411 H438 0.949 . S
C412 C411 1.390 . S
C412 C413 1.357 . S
C413 C412 1.357 . S
C413 C414 1.370 . S
C413 H439 0.950 . S
C414 N409 1.307 . S
C414 C413 1.370 . S
C414 H432 0.948 . S
Zn415 N409 2.020 . S
Zn415 O424 2.039 . S
Zn415 O430 2.034 . S
Zn415 O434 2.025 . S
Zn415 O436 2.024 . S
C416 O435 1.246 . S
C416 O436 1.249 . S
N417 C418 1.307 . S
N417 C419 1.333 . S
N417 Zn423 2.020 . S
C418 N417 1.307 . S
C418 C422 1.370 . S
C418 H429 0.948 . S
C419 N417 1.333 . S
C419 C420 1.379 . S
C419 H427 0.952 . S
C420 C419 1.379 . S
C420 C421 1.390 . S
C420 H440 0.949 . S
C421 C420 1.390 . S
C421 C422 1.357 . S
C422 C418 1.370 . S
C422 C421 1.357 . S
C422 H441 0.950 . S
Zn423 N417 2.020 . S
Zn423 O426 2.025 . S
Zn423 O431 2.024 . S
Zn423 O433 2.039 . S
Zn423 O435 2.034 . S
O424 C408 1.251 . S
O424 Zn415 2.039 . S
C425 O430 1.246 . S
C425 O431 1.249 . S
O426 C408 1.254 . S
O426 Zn423 2.025 . S
H427 C419 0.952 . S
H428 C410 0.952 . S
H429 C418 0.948 . S
O430 Zn415 2.034 . S
O430 C425 1.246 . S
O431 Zn423 2.024 . S
O431 C425 1.249 . S
H432 C414 0.948 . S
O433 Zn423 2.039 . S
O433 C437 1.251 . S
O434 Zn415 2.025 . S
O434 C437 1.254 . S
O435 C416 1.246 . S
O435 Zn423 2.034 . S
O436 Zn415 2.024 . S
O436 C416 1.249 . S
C437 O433 1.251 . S
C437 O434 1.254 . S
H438 C411 0.949 . S
H439 C413 0.950 . S
H440 C420 0.949 . S
H441 C422 0.950 . S
C442 O458 1.251 . S
C442 O460 1.254 . S
N443 C444 1.333 . S
N443 C448 1.307 . S
N443 Zn449 2.020 . S
C444 N443 1.333 . S
C444 C445 1.379 . S
C444 H462 0.952 . S
C445 C444 1.379 . S
C445 C446 1.390 . S
C445 H472 0.949 . S
C446 C445 1.390 . S
C446 C447 1.357 . S
C447 C446 1.357 . S
C447 C448 1.370 . S
C447 H473 0.950 . S
C448 N443 1.307 . S
C448 C447 1.370 . S
C448 H466 0.948 . S
Zn449 N443 2.020 . S
Zn449 O458 2.039 . S
Zn449 O464 2.034 . S
Zn449 O468 2.025 . S
Zn449 O470 2.024 . S
C450 O469 1.246 . S
C450 O470 1.249 . S
N451 C452 1.307 . S
N451 C453 1.333 . S
N451 Zn457 2.020 . S
C452 N451 1.307 . S
C452 C456 1.370 . S
C452 H463 0.948 . S
C453 N451 1.333 . S
C453 C454 1.379 . S
C453 H461 0.952 . S
C454 C453 1.379 . S
C454 C455 1.390 . S
C454 H474 0.949 . S
C455 C454 1.390 . S
C455 C456 1.357 . S
C456 C452 1.370 . S
C456 C455 1.357 . S
C456 H475 0.950 . S
Zn457 N451 2.020 . S
Zn457 O460 2.025 . S
Zn457 O465 2.024 . S
Zn457 O467 2.039 . S
Zn457 O469 2.034 . S
O458 C442 1.251 . S
O458 Zn449 2.039 . S
C459 O464 1.246 . S
C459 O465 1.249 . S
O460 C442 1.254 . S
O460 Zn457 2.025 . S
H461 C453 0.952 . S
H462 C444 0.952 . S
H463 C452 0.948 . S
O464 Zn449 2.034 . S
O464 C459 1.246 . S
O465 Zn457 2.024 . S
O465 C459 1.249 . S
H466 C448 0.948 . S
O467 Zn457 2.039 . S
O467 C471 1.251 . S
O468 Zn449 2.025 . S
O468 C471 1.254 . S
O469 C450 1.246 . S
O469 Zn457 2.034 . S
O470 Zn449 2.024 . S
O470 C450 1.249 . S
C471 O467 1.251 . S
C471 O468 1.254 . S
H472 C445 0.949 . S
H473 C447 0.950 . S
H474 C454 0.949 . S
H475 C456 0.950 . S
C476 O492 1.251 . S
C476 O494 1.254 . S
N477 C478 1.333 . S
N477 C482 1.307 . S
N477 Zn483 2.020 . S
C478 N477 1.333 . S
C478 C479 1.379 . S
C478 H496 0.952 . S
C479 C478 1.379 . S
C479 C480 1.390 . S
C479 H506 0.949 . S
C480 C479 1.390 . S
C480 C481 1.357 . S
C481 C480 1.357 . S
C481 C482 1.370 . S
C481 H507 0.950 . S
C482 N477 1.307 . S
C482 C481 1.370 . S
C482 H500 0.948 . S
Zn483 N477 2.020 . S
Zn483 O492 2.039 . S
Zn483 O498 2.034 . S
Zn483 O502 2.025 . S
Zn483 O504 2.024 . S
C484 O503 1.246 . S
C484 O504 1.249 . S
N485 C486 1.307 . S
N485 C487 1.333 . S
N485 Zn491 2.020 . S
C486 N485 1.307 . S
C486 C490 1.370 . S
C486 H497 0.948 . S
C487 N485 1.333 . S
C487 C488 1.379 . S
C487 H495 0.952 . S
C488 C487 1.379 . S
C488 C489 1.390 . S
C488 H508 0.949 . S
C489 C488 1.390 . S
C489 C490 1.357 . S
C490 C486 1.370 . S
C490 C489 1.357 . S
C490 H509 0.950 . S
Zn491 N485 2.020 . S
Zn491 O494 2.025 . S
Zn491 O499 2.024 . S
Zn491 O501 2.039 . S
Zn491 O503 2.034 . S
O492 C476 1.251 . S
O492 Zn483 2.039 . S
C493 O498 1.246 . S
C493 O499 1.249 . S
O494 C476 1.254 . S
O494 Zn491 2.025 . S
H495 C487 0.952 . S
H496 C478 0.952 . S
H497 C486 0.948 . S
O498 Zn483 2.034 . S
O498 C493 1.246 . S
O499 Zn491 2.024 . S
O499 C493 1.249 . S
H500 C482 0.948 . S
O501 Zn491 2.039 . S
O501 C505 1.251 . S
O502 Zn483 2.025 . S
O502 C505 1.254 . S
O503 C484 1.246 . S
O503 Zn491 2.034 . S
O504 Zn483 2.024 . S
O504 C484 1.249 . S
C505 O501 1.251 . S
C505 O502 1.254 . S
H506 C479 0.949 . S
H507 C481 0.950 . S
H508 C488 0.949 . S
H509 C490 0.950 . S
C510 O526 1.251 . S
C510 O528 1.254 . S
N511 C512 1.333 . S
N511 C516 1.307 . S
N511 Zn517 2.020 . S
C512 N511 1.333 . S
C512 C513 1.379 . S
C512 H530 0.952 . S
C513 C512 1.379 . S
C513 C514 1.390 . S
C513 H540 0.949 . S
C514 C513 1.390 . S
C514 C515 1.357 . S
C515 C514 1.357 . S
C515 C516 1.370 . S
C515 H541 0.950 . S
C516 N511 1.307 . S
C516 C515 1.370 . S
C516 H534 0.948 . S
Zn517 N511 2.020 . S
Zn517 O526 2.039 . S
Zn517 O532 2.034 . S
Zn517 O536 2.025 . S
Zn517 O538 2.024 . S
C518 O537 1.246 . S
C518 O538 1.249 . S
N519 C520 1.307 . S
N519 C521 1.333 . S
N519 Zn525 2.020 . S
C520 N519 1.307 . S
C520 C524 1.370 . S
C520 H531 0.948 . S
C521 N519 1.333 . S
C521 C522 1.379 . S
C521 H529 0.952 . S
C522 C521 1.379 . S
C522 C523 1.390 . S
C522 H542 0.949 . S
C523 C522 1.390 . S
C523 C524 1.357 . S
C524 C520 1.370 . S
C524 C523 1.357 . S
C524 H543 0.950 . S
Zn525 N519 2.020 . S
Zn525 O528 2.025 . S
Zn525 O533 2.024 . S
Zn525 O535 2.039 . S
Zn525 O537 2.034 . S
O526 C510 1.251 . S
O526 Zn517 2.039 . S
C527 O532 1.246 . S
C527 O533 1.249 . S
O528 C510 1.254 . S
O528 Zn525 2.025 . S
H529 C521 0.952 . S
H530 C512 0.952 . S
H531 C520 0.948 . S
O532 Zn517 2.034 . S
O532 C527 1.246 . S
O533 Zn525 2.024 . S
O533 C527 1.249 . S
H534 C516 0.948 . S
O535 Zn525 2.039 . S
O535 C539 1.251 . S
O536 Zn517 2.025 . S
O536 C539 1.254 . S
O537 C518 1.246 . S
O537 Zn525 2.034 . S
O538 Zn517 2.024 . S
O538 C518 1.249 . S
C539 O535 1.251 . S
C539 O536 1.254 . S
H540 C513 0.949 . S
H541 C515 0.950 . S
H542 C522 0.949 . S
H543 C524 0.950 . S
C544 C545 1.369 . S
C544 C546 1.419 . S
C544 H548 0.930 . S
C545 C544 1.369 . S
C545 C554 1.429 . S
C546 C544 1.419 . S
C546 C547 1.363 . S
C546 H549 0.929 . S
C547 C546 1.363 . S
C547 C553 1.428 . S
H548 C544 0.930 . S
H549 C546 0.929 . S
S550 N551 1.613 . S
S550 N552 1.610 1_565 S
N551 S550 1.613 . S
N551 C554 1.350 1_565 S
N552 S550 1.610 1_545 S
N552 C553 1.351 . S
C553 C547 1.428 . S
C553 N552 1.351 . S
C553 C554 1.434 . S
C554 C545 1.429 . S
C554 N551 1.350 1_545 S
C554 C553 1.434 . S
C555 C556 1.369 . S
C555 C557 1.419 . S
C555 H559 0.930 . S
C556 C555 1.369 . S
C556 C565 1.429 . S
C557 C555 1.419 . S
C557 C558 1.363 . S
C557 H560 0.929 . S
C558 C557 1.363 . S
C558 C564 1.428 . S
H559 C555 0.930 . S
H560 C557 0.929 . S
S561 N562 1.613 . S
S561 N563 1.610 . S
N562 S561 1.613 . S
N562 C565 1.350 . S
N563 S561 1.610 . S
N563 C564 1.351 . S
C564 C558 1.428 . S
C564 N563 1.351 . S
C564 C565 1.434 . S
C565 C556 1.429 . S
C565 N562 1.350 . S
C565 C564 1.434 . S
C566 C567 1.369 . S
C566 C568 1.419 . S
C566 H570 0.930 . S
C567 C566 1.369 . S
C567 C576 1.429 . S
C568 C566 1.419 . S
C568 C569 1.363 . S
C568 H571 0.929 . S
C569 C568 1.363 . S
C569 C575 1.428 . S
H570 C566 0.930 . S
H571 C568 0.929 . S
S572 N573 1.613 . S
S572 N574 1.610 . S
N573 S572 1.613 . S
N573 C576 1.350 . S
N574 S572 1.610 . S
N574 C575 1.351 . S
C575 C569 1.428 . S
C575 N574 1.351 . S
C575 C576 1.434 . S
C576 C567 1.429 . S
C576 N573 1.350 . S
C576 C575 1.434 . S
C577 C578 1.369 . S
C577 C579 1.419 . S
C577 H581 0.930 . S
C578 C577 1.369 . S
C578 C587 1.429 . S
C579 C577 1.419 . S
C579 C580 1.363 . S
C579 H582 0.929 . S
C580 C579 1.363 . S
C580 C586 1.428 . S
H581 C577 0.930 . S
H582 C579 0.929 . S
S583 N584 1.613 . S
S583 N585 1.610 1_565 S
N584 S583 1.613 . S
N584 C587 1.350 1_565 S
N585 S583 1.610 1_545 S
N585 C586 1.351 . S
C586 C580 1.428 . S
C586 N585 1.351 . S
C586 C587 1.434 . S
C587 C578 1.429 . S
C587 N584 1.350 1_545 S
C587 C586 1.434 . S
C588 C589 1.369 . S
C588 C590 1.419 . S
C588 H592 0.930 . S
C589 C588 1.369 . S
C589 C598 1.429 . S
C590 C588 1.419 . S
C590 C591 1.363 . S
C590 H593 0.929 . S
C591 C590 1.363 . S
C591 C597 1.428 . S
H592 C588 0.930 . S
H593 C590 0.929 . S
S594 N595 1.613 . S
S594 N596 1.610 . S
N595 S594 1.613 . S
N595 C598 1.350 . S
N596 S594 1.610 . S
N596 C597 1.351 . S
C597 C591 1.428 . S
C597 N596 1.351 . S
C597 C598 1.434 . S
C598 C589 1.429 . S
C598 N595 1.350 . S
C598 C597 1.434 . S
C599 C600 1.369 . S
C599 C601 1.419 . S
C599 H603 0.930 . S
C600 C599 1.369 . S
C600 C609 1.429 . S
C601 C599 1.419 . S
C601 C602 1.363 . S
C601 H604 0.929 . S
C602 C601 1.363 . S
C602 C608 1.428 . S
H603 C599 0.930 . S
H604 C601 0.929 . S
S605 N606 1.613 . S
S605 N607 1.610 . S
N606 S605 1.613 . S
N606 C609 1.350 . S
N607 S605 1.610 . S
N607 C608 1.351 . S
C608 C602 1.428 . S
C608 N607 1.351 . S
C608 C609 1.434 . S
C609 C600 1.429 . S
C609 N606 1.350 . S
C609 C608 1.434 . S
C610 C611 1.369 . S
C610 C612 1.419 . S
C610 H614 0.930 . S
C611 C610 1.369 . S
C611 C620 1.429 . S
C612 C610 1.419 . S
C612 C613 1.363 . S
C612 H615 0.929 . S
C613 C612 1.363 . S
C613 C619 1.428 . S
H614 C610 0.930 . S
H615 C612 0.929 . S
S616 N617 1.613 1_565 S
S616 N618 1.610 1_565 S
N617 S616 1.613 1_545 S
N617 C620 1.350 . S
N618 S616 1.610 1_545 S
N618 C619 1.351 . S
C619 C613 1.428 . S
C619 N618 1.351 . S
C619 C620 1.434 . S
C620 C611 1.429 . S
C620 N617 1.350 . S
C620 C619 1.434 . S
C621 C622 1.369 . S
C621 C623 1.419 . S
C621 H625 0.930 . S
C622 C621 1.369 . S
C622 C631 1.429 . S
C623 C621 1.419 . S
C623 C624 1.363 . S
C623 H626 0.929 . S
C624 C623 1.363 . S
C624 C630 1.428 . S
H625 C621 0.930 . S
H626 C623 0.929 . S
S627 N628 1.613 . S
S627 N629 1.610 . S
N628 S627 1.613 . S
N628 C631 1.350 . S
N629 S627 1.610 . S
N629 C630 1.351 . S
C630 C624 1.428 . S
C630 N629 1.351 . S
C630 C631 1.434 . S
C631 C622 1.429 . S
C631 N628 1.350 . S
C631 C630 1.434 . S
C632 C633 1.369 1_545 S
C632 C634 1.419 . S
C632 H636 0.930 . S
C633 C632 1.369 1_565 S
C633 C642 1.429 . S
C634 C632 1.419 . S
C634 C635 1.363 . S
C634 H637 0.929 . S
C635 C634 1.363 . S
C635 C641 1.428 1_545 S
H636 C632 0.930 . S
H637 C634 0.929 . S
S638 N639 1.613 . S
S638 N640 1.610 . S
N639 S638 1.613 . S
N639 C642 1.350 . S
N640 S638 1.610 . S
N640 C641 1.351 . S
C641 C635 1.428 1_565 S
C641 N640 1.351 . S
C641 C642 1.434 . S
C642 C633 1.429 . S
C642 N639 1.350 . S
C642 C641 1.434 . S
C643 C644 1.369 1_565 S
C643 C645 1.419 . S
C643 H647 0.930 . S
C644 C643 1.369 1_545 S
C644 C653 1.429 . S
C645 C643 1.419 . S
C645 C646 1.363 . S
C645 H648 0.929 . S
C646 C645 1.363 . S
C646 C652 1.428 1_565 S
H647 C643 0.930 . S
H648 C645 0.929 . S
S649 N650 1.613 . S
S649 N651 1.610 . S
N650 S649 1.613 . S
N650 C653 1.350 . S
N651 S649 1.610 . S
N651 C652 1.351 . S
C652 C646 1.428 1_545 S
C652 N651 1.351 . S
C652 C653 1.434 . S
C653 C644 1.429 . S
C653 N650 1.350 . S
C653 C652 1.434 . S
C654 C655 1.369 1_565 S
C654 C656 1.419 . S
C654 H658 0.930 . S
C655 C654 1.369 1_545 S
C655 C664 1.429 . S
C656 C654 1.419 . S
C656 C657 1.363 . S
C656 H659 0.929 . S
C657 C656 1.363 . S
C657 C663 1.428 1_565 S
H658 C654 0.930 . S
H659 C656 0.929 . S
S660 N661 1.613 . S
S660 N662 1.610 . S
N661 S660 1.613 . S
N661 C664 1.350 . S
N662 S660 1.610 . S
N662 C663 1.351 . S
C663 C657 1.428 1_545 S
C663 N662 1.351 . S
C663 C664 1.434 . S
C664 C655 1.429 . S
C664 N661 1.350 . S
C664 C663 1.434 . S
C665 C666 1.369 . S
C665 C667 1.419 . S
C665 H669 0.930 . S
C666 C665 1.369 . S
C666 C675 1.429 1_545 S
C667 C665 1.419 . S
C667 C668 1.363 1_545 S
C667 H670 0.929 . S
C668 C667 1.363 1_565 S
C668 C674 1.428 . S
H669 C665 0.930 . S
H670 C667 0.929 . S
S671 N672 1.613 . S
S671 N673 1.610 . S
N672 S671 1.613 . S
N672 C675 1.350 . S
N673 S671 1.610 . S
N673 C674 1.351 . S
C674 C668 1.428 . S
C674 N673 1.351 . S
C674 C675 1.434 . S
C675 C666 1.429 1_565 S
C675 N672 1.350 . S
C675 C674 1.434 . S
C676 C677 1.369 . S
C676 C678 1.419 . S
C676 H680 0.930 . S
C677 C676 1.369 . S
C677 C686 1.429 . S
C678 C676 1.419 . S
C678 C679 1.363 . S
C678 H681 0.929 . S
C679 C678 1.363 . S
C679 C685 1.428 . S
H680 C676 0.930 . S
H681 C678 0.929 . S
S682 N683 1.613 . S
S682 N684 1.610 . S
N683 S682 1.613 . S
N683 C686 1.350 . S
N684 S682 1.610 . S
N684 C685 1.351 . S
C685 C679 1.428 . S
C685 N684 1.351 . S
C685 C686 1.434 . S
C686 C677 1.429 . S
C686 N683 1.350 . S
C686 C685 1.434 . S
C687 C688 1.369 . S
C687 C689 1.419 . S
C687 H691 0.930 . S
C688 C687 1.369 . S
C688 C697 1.429 . S
C689 C687 1.419 . S
C689 C690 1.363 . S
C689 H692 0.929 . S
C690 C689 1.363 . S
C690 C696 1.428 . S
H691 C687 0.930 . S
H692 C689 0.929 . S
S693 N694 1.613 . S
S693 N695 1.610 . S
N694 S693 1.613 . S
N694 C697 1.350 . S
N695 S693 1.610 . S
N695 C696 1.351 . S
C696 C690 1.428 . S
C696 N695 1.351 . S
C696 C697 1.434 . S
C697 C688 1.429 . S
C697 N694 1.350 . S
C697 C696 1.434 . S
C698 C699 1.369 . S
C698 C700 1.419 . S
C698 H702 0.930 . S
C699 C698 1.369 . S
C699 C708 1.429 . S
C700 C698 1.419 . S
C700 C701 1.363 . S
C700 H703 0.929 . S
C701 C700 1.363 . S
C701 C707 1.428 . S
H702 C698 0.930 . S
H703 C700 0.929 . S
S704 N705 1.613 . S
S704 N706 1.610 . S
N705 S704 1.613 . S
N705 C708 1.350 . S
N706 S704 1.610 . S
N706 C707 1.351 . S
C707 C701 1.428 . S
C707 N706 1.351 . S
C707 C708 1.434 . S
C708 C699 1.429 . S
C708 N705 1.350 . S
C708 C707 1.434 . S
C709 C710 1.369 . S
C709 C711 1.419 . S
C709 H713 0.930 . S
C710 C709 1.369 . S
C710 C719 1.429 . S
C711 C709 1.419 . S
C711 C712 1.363 . S
C711 H714 0.929 . S
C712 C711 1.363 . S
C712 C718 1.428 . S
H713 C709 0.930 . S
H714 C711 0.929 . S
S715 N716 1.613 . S
S715 N717 1.610 . S
N716 S715 1.613 . S
N716 C719 1.350 . S
N717 S715 1.610 . S
N717 C718 1.351 . S
C718 C712 1.428 . S
C718 N717 1.351 . S
C718 C719 1.434 . S
C719 C710 1.429 . S
C719 N716 1.350 . S
C719 C718 1.434 . S
C720 C721 1.369 . S
C720 C722 1.419 1_556 S
C720 H724 0.930 . S
C721 C720 1.369 . S
C721 C730 1.429 . S
C722 C720 1.419 1_554 S
C722 C723 1.363 . S
C722 H725 0.929 . S
C723 C722 1.363 . S
C723 C729 1.428 . S
H724 C720 0.930 . S
H725 C722 0.929 . S
S726 N727 1.618 1_554 S
S726 N728 1.605 . S
N727 S726 1.618 1_556 S
N727 C730 1.350 . S
N728 S726 1.605 . S
N728 C729 1.351 . S
C729 C723 1.428 . S
C729 N728 1.351 . S
C729 C730 1.434 1_554 S
C730 C721 1.429 . S
C730 N727 1.350 . S
C730 C729 1.434 1_556 S
C731 C732 1.369 . S
C731 C733 1.419 1_556 S
C731 H735 0.930 1_565 S
C732 C731 1.369 . S
C732 C741 1.429 . S
C733 C731 1.419 1_554 S
C733 C734 1.363 . S
C733 H736 0.929 1_565 S
C734 C733 1.363 . S
C734 C740 1.428 . S
H735 C731 0.930 1_545 S
H736 C733 0.929 1_545 S
S737 N738 1.618 1_554 S
S737 N739 1.605 . S
N738 S737 1.618 1_556 S
N738 C741 1.350 . S
N739 S737 1.605 . S
N739 C740 1.351 . S
C740 C734 1.428 . S
C740 N739 1.351 . S
C740 C741 1.434 1_554 S
C741 C732 1.429 . S
C741 N738 1.350 . S
C741 C740 1.434 1_556 S
C742 C743 1.369 . S
C742 C744 1.419 . S
C742 H746 0.930 1_565 S
C743 C742 1.369 . S
C743 C752 1.429 . S
C744 C742 1.419 . S
C744 C745 1.363 . S
C744 H747 0.929 1_565 S
C745 C744 1.363 . S
C745 C751 1.428 . S
H746 C742 0.930 1_545 S
H747 C744 0.929 1_545 S
S748 N749 1.613 . S
S748 N750 1.610 . S
N749 S748 1.613 . S
N749 C752 1.350 . S
N750 S748 1.610 . S
N750 C751 1.351 . S
C751 C745 1.428 . S
C751 N750 1.351 . S
C751 C752 1.434 . S
C752 C743 1.429 . S
C752 N749 1.350 . S
C752 C751 1.434 . S
C753 C754 1.369 . S
C753 C755 1.419 . S
C753 H757 0.930 1_545 S
C754 C753 1.369 . S
C754 C763 1.429 . S
C755 C753 1.419 . S
C755 C756 1.363 . S
C755 H758 0.929 1_545 S
C756 C755 1.363 . S
C756 C762 1.428 . S
H757 C753 0.930 1_565 S
H758 C755 0.929 1_565 S
S759 N760 1.613 . S
S759 N761 1.610 . S
N760 S759 1.613 . S
N760 C763 1.350 . S
N761 S759 1.610 . S
N761 C762 1.351 . S
C762 C756 1.428 . S
C762 N761 1.351 . S
C762 C763 1.434 . S
C763 C754 1.429 . S
C763 N760 1.350 . S
C763 C762 1.434 . S
C764 C765 1.369 . S
C764 C766 1.419 1_554 S
C764 H768 0.930 . S
C765 C764 1.369 . S
C765 C774 1.429 . S
C766 C764 1.419 1_556 S
C766 C767 1.363 . S
C766 H769 0.929 . S
C767 C766 1.363 . S
C767 C773 1.428 . S
H768 C764 0.930 . S
H769 C766 0.929 . S
S770 N771 1.618 1_556 S
S770 N772 1.605 . S
N771 S770 1.618 1_554 S
N771 C774 1.350 . S
N772 S770 1.605 . S
N772 C773 1.351 . S
C773 C767 1.428 . S
C773 N772 1.351 . S
C773 C774 1.434 1_556 S
C774 C765 1.429 . S
C774 N771 1.350 . S
C774 C773 1.434 1_554 S
C775 C776 1.369 . S
C775 C777 1.419 1_556 S
C775 H779 0.930 . S
C776 C775 1.369 . S
C776 C785 1.429 . S
C777 C775 1.419 1_554 S
C777 C778 1.363 . S
C777 H780 0.929 . S
C778 C777 1.363 . S
C778 C784 1.428 . S
H779 C775 0.930 . S
H780 C777 0.929 . S
S781 N782 1.618 1_554 S
S781 N783 1.605 . S
N782 S781 1.618 1_556 S
N782 C785 1.350 . S
N783 S781 1.605 . S
N783 C784 1.351 . S
C784 C778 1.428 . S
C784 N783 1.351 . S
C784 C785 1.434 1_554 S
C785 C776 1.429 . S
C785 N782 1.350 . S
C785 C784 1.434 1_556 S
C786 C787 1.369 . S
C786 C788 1.419 . S
C786 H790 0.930 . S
C787 C786 1.369 . S
C787 C796 1.429 . S
C788 C786 1.419 . S
C788 C789 1.363 . S
C788 H791 0.929 . S
C789 C788 1.363 . S
C789 C795 1.428 . S
H790 C786 0.930 . S
H791 C788 0.929 . S
S792 N793 1.613 . S
S792 N794 1.610 . S
N793 S792 1.613 . S
N793 C796 1.350 . S
N794 S792 1.610 . S
N794 C795 1.351 . S
C795 C789 1.428 . S
C795 N794 1.351 . S
C795 C796 1.434 . S
C796 C787 1.429 . S
C796 N793 1.350 . S
C796 C795 1.434 . S
C797 C798 1.369 . S
C797 C799 1.419 . S
C797 H801 0.930 . S
C798 C797 1.369 . S
C798 C807 1.429 . S
C799 C797 1.419 . S
C799 C800 1.363 . S
C799 H802 0.929 . S
C800 C799 1.363 . S
C800 C806 1.428 . S
H801 C797 0.930 . S
H802 C799 0.929 . S
S803 N804 1.613 . S
S803 N805 1.610 . S
N804 S803 1.613 . S
N804 C807 1.350 . S
N805 S803 1.610 . S
N805 C806 1.351 . S
C806 C800 1.428 . S
C806 N805 1.351 . S
C806 C807 1.434 . S
C807 C798 1.429 . S
C807 N804 1.350 . S
C807 C806 1.434 . S
C808 C809 1.369 1_545 S
C808 C810 1.419 1_655 S
C808 H812 0.930 . S
C809 C808 1.369 1_565 S
C809 C818 1.429 . S
C810 C808 1.419 1_455 S
C810 C811 1.363 . S
C810 H813 0.929 . S
C811 C810 1.363 . S
C811 C817 1.428 1_545 S
H812 C808 0.930 . S
H813 C810 0.929 . S
S814 N815 1.613 1_455 S
S814 N816 1.610 . S
N815 S814 1.613 1_655 S
N815 C818 1.350 . S
N816 S814 1.610 . S
N816 C817 1.351 . S
C817 C811 1.428 1_565 S
C817 N816 1.351 . S
C817 C818 1.434 1_455 S
C818 C809 1.429 . S
C818 N815 1.350 . S
C818 C817 1.434 1_655 S
C819 C820 1.369 . S
C819 C821 1.419 1_655 S
C819 H823 0.930 . S
C820 C819 1.369 . S
C820 C829 1.429 1_545 S
C821 C819 1.419 1_455 S
C821 C822 1.363 1_545 S
C821 H824 0.929 . S
C822 C821 1.363 1_565 S
C822 C828 1.428 . S
H823 C819 0.930 . S
H824 C821 0.929 . S
S825 N826 1.613 . S
S825 N827 1.610 1_655 S
N826 S825 1.613 . S
N826 C829 1.350 . S
N827 S825 1.610 1_455 S
N827 C828 1.351 . S
C828 C822 1.428 . S
C828 N827 1.351 . S
C828 C829 1.434 1_455 S
C829 C820 1.429 1_565 S
C829 N826 1.350 . S
C829 C828 1.434 1_655 S
C830 C831 1.369 . S
C830 C832 1.419 1_455 S
C830 H834 0.930 . S
C831 C830 1.369 . S
C831 C840 1.429 1_545 S
C832 C830 1.419 1_655 S
C832 C833 1.363 1_545 S
C832 H835 0.929 . S
C833 C832 1.363 1_565 S
C833 C839 1.428 . S
H834 C830 0.930 . S
H835 C832 0.929 . S
S836 N837 1.613 . S
S836 N838 1.610 1_455 S
N837 S836 1.613 . S
N837 C840 1.350 . S
N838 S836 1.610 1_655 S
N838 C839 1.351 . S
C839 C833 1.428 . S
C839 N838 1.351 . S
C839 C840 1.434 1_655 S
C840 C831 1.429 1_565 S
C840 N837 1.350 . S
C840 C839 1.434 1_455 S
C841 C842 1.369 1_565 S
C841 C843 1.419 1_655 S
C841 H845 0.930 . S
C842 C841 1.369 1_545 S
C842 C851 1.429 . S
C843 C841 1.419 1_455 S
C843 C844 1.363 . S
C843 H846 0.929 . S
C844 C843 1.363 . S
C844 C850 1.428 1_565 S
H845 C841 0.930 . S
H846 C843 0.929 . S
S847 N848 1.613 1_455 S
S847 N849 1.610 . S
N848 S847 1.613 1_655 S
N848 C851 1.350 . S
N849 S847 1.610 . S
N849 C850 1.351 . S
C850 C844 1.428 1_545 S
C850 N849 1.351 . S
C850 C851 1.434 1_455 S
C851 C842 1.429 . S
C851 N848 1.350 . S
C851 C850 1.434 1_655 S
C852 C853 1.369 . S
C852 C854 1.419 . S
C852 H856 0.930 . S
C853 C852 1.369 . S
C853 C862 1.429 . S
C854 C852 1.419 . S
C854 C855 1.363 . S
C854 H857 0.929 . S
C855 C854 1.363 . S
C855 C861 1.428 . S
H856 C852 0.930 . S
H857 C854 0.929 . S
S858 N859 1.613 . S
S858 N860 1.610 . S
N859 S858 1.613 . S
N859 C862 1.350 . S
N860 S858 1.610 . S
N860 C861 1.351 . S
C861 C855 1.428 . S
C861 N860 1.351 . S
C861 C862 1.434 . S
C862 C853 1.429 . S
C862 N859 1.350 . S
C862 C861 1.434 . S
C863 C864 1.369 . S
C863 C865 1.419 . S
C863 H867 0.930 . S
C864 C863 1.369 . S
C864 C873 1.429 . S
C865 C863 1.419 . S
C865 C866 1.363 . S
C865 H868 0.929 . S
C866 C865 1.363 . S
C866 C872 1.428 . S
H867 C863 0.930 . S
H868 C865 0.929 . S
S869 N870 1.613 . S
S869 N871 1.610 . S
N870 S869 1.613 . S
N870 C873 1.350 . S
N871 S869 1.610 . S
N871 C872 1.351 . S
C872 C866 1.428 . S
C872 N871 1.351 . S
C872 C873 1.434 . S
C873 C864 1.429 . S
C873 N870 1.350 . S
C873 C872 1.434 . S
C874 C875 1.369 . S
C874 C876 1.419 . S
C874 H878 0.930 . S
C875 C874 1.369 . S
C875 C884 1.429 . S
C876 C874 1.419 . S
C876 C877 1.363 . S
C876 H879 0.929 . S
C877 C876 1.363 . S
C877 C883 1.428 . S
H878 C874 0.930 . S
H879 C876 0.929 . S
S880 N881 1.613 . S
S880 N882 1.610 . S
N881 S880 1.613 . S
N881 C884 1.350 . S
N882 S880 1.610 . S
N882 C883 1.351 . S
C883 C877 1.428 . S
C883 N882 1.351 . S
C883 C884 1.434 . S
C884 C875 1.429 . S
C884 N881 1.350 . S
C884 C883 1.434 . S
C885 C886 1.369 . S
C885 C887 1.419 . S
C885 H889 0.930 . S
C886 C885 1.369 . S
C886 C895 1.429 . S
C887 C885 1.419 . S
C887 C888 1.363 . S
C887 H890 0.929 . S
C888 C887 1.363 . S
C888 C894 1.428 . S
H889 C885 0.930 . S
H890 C887 0.929 . S
S891 N892 1.613 . S
S891 N893 1.610 . S
N892 S891 1.613 . S
N892 C895 1.350 . S
N893 S891 1.610 . S
N893 C894 1.351 . S
C894 C888 1.428 . S
C894 N893 1.351 . S
C894 C895 1.434 . S
C895 C886 1.429 . S
C895 N892 1.350 . S
C895 C894 1.434 . S
C896 C897 1.369 . S
C896 C898 1.419 . S
C896 H900 0.930 . S
C897 C896 1.369 . S
C897 C906 1.429 . S
C898 C896 1.419 . S
C898 C899 1.363 . S
C898 H901 0.929 . S
C899 C898 1.363 . S
C899 C905 1.428 . S
H900 C896 0.930 . S
H901 C898 0.929 . S
S902 N903 1.613 . S
S902 N904 1.610 . S
N903 S902 1.613 . S
N903 C906 1.350 . S
N904 S902 1.610 . S
N904 C905 1.351 . S
C905 C899 1.428 . S
C905 N904 1.351 . S
C905 C906 1.434 . S
C906 C897 1.429 . S
C906 N903 1.350 . S
C906 C905 1.434 . S
C907 C908 1.369 . S
C907 C909 1.419 . S
C907 H911 0.930 . S
C908 C907 1.369 . S
C908 C917 1.429 . S
C909 C907 1.419 . S
C909 C910 1.363 . S
C909 H912 0.929 . S
C910 C909 1.363 . S
C910 C916 1.428 . S
H911 C907 0.930 . S
H912 C909 0.929 . S
S913 N914 1.613 . S
S913 N915 1.610 . S
N914 S913 1.613 . S
N914 C917 1.350 . S
N915 S913 1.610 . S
N915 C916 1.351 . S
C916 C910 1.428 . S
C916 N915 1.351 . S
C916 C917 1.434 . S
C917 C908 1.429 . S
C917 N914 1.350 . S
C917 C916 1.434 . S
C918 C919 1.369 . S
C918 C920 1.419 . S
C918 H922 0.930 . S
C919 C918 1.369 . S
C919 C928 1.429 . S
C920 C918 1.419 . S
C920 C921 1.363 . S
C920 H923 0.929 . S
C921 C920 1.363 . S
C921 C927 1.428 . S
H922 C918 0.930 . S
H923 C920 0.929 . S
S924 N925 1.613 . S
S924 N926 1.610 . S
N925 S924 1.613 . S
N925 C928 1.350 . S
N926 S924 1.610 . S
N926 C927 1.351 . S
C927 C921 1.428 . S
C927 N926 1.351 . S
C927 C928 1.434 . S
C928 C919 1.429 . S
C928 N925 1.350 . S
C928 C927 1.434 . S
C929 C930 1.369 . S
C929 C931 1.419 . S
C929 H933 0.930 . S
C930 C929 1.369 . S
C930 C939 1.429 . S
C931 C929 1.419 . S
C931 C932 1.363 . S
C931 H934 0.929 . S
C932 C931 1.363 . S
C932 C938 1.428 . S
H933 C929 0.930 . S
H934 C931 0.929 . S
S935 N936 1.613 . S
S935 N937 1.610 . S
N936 S935 1.613 . S
N936 C939 1.350 . S
N937 S935 1.610 . S
N937 C938 1.351 . S
C938 C932 1.428 . S
C938 N937 1.351 . S
C938 C939 1.434 . S
C939 C930 1.429 . S
C939 N936 1.350 . S
C939 C938 1.434 . S
C940 C941 1.369 . S
C940 C942 1.419 . S
C940 H944 0.930 . S
C941 C940 1.369 . S
C941 C950 1.429 . S
C942 C940 1.419 . S
C942 C943 1.363 . S
C942 H945 0.929 . S
C943 C942 1.363 . S
C943 C949 1.428 . S
H944 C940 0.930 . S
H945 C942 0.929 . S
S946 N947 1.613 . S
S946 N948 1.610 . S
N947 S946 1.613 . S
N947 C950 1.350 . S
N948 S946 1.610 . S
N948 C949 1.351 . S
C949 C943 1.428 . S
C949 N948 1.351 . S
C949 C950 1.434 . S
C950 C941 1.429 . S
C950 N947 1.350 . S
C950 C949 1.434 . S
C951 C952 1.369 . S
C951 C953 1.419 . S
C951 H955 0.930 . S
C952 C951 1.369 . S
C952 C961 1.429 . S
C953 C951 1.419 . S
C953 C954 1.363 . S
C953 H956 0.929 . S
C954 C953 1.363 . S
C954 C960 1.428 . S
H955 C951 0.930 . S
H956 C953 0.929 . S
S957 N958 1.613 . S
S957 N959 1.610 . S
N958 S957 1.613 . S
N958 C961 1.350 . S
N959 S957 1.610 . S
N959 C960 1.351 . S
C960 C954 1.428 . S
C960 N959 1.351 . S
C960 C961 1.434 . S
C961 C952 1.429 . S
C961 N958 1.350 . S
C961 C960 1.434 . S
C962 C963 1.369 . S
C962 C964 1.419 . S
C962 H966 0.930 . S
C963 C962 1.369 . S
C963 C972 1.429 . S
C964 C962 1.419 . S
C964 C965 1.363 . S
C964 H967 0.929 . S
C965 C964 1.363 . S
C965 C971 1.428 . S
H966 C962 0.930 . S
H967 C964 0.929 . S
S968 N969 1.613 . S
S968 N970 1.610 . S
N969 S968 1.613 . S
N969 C972 1.350 . S
N970 S968 1.610 . S
N970 C971 1.351 . S
C971 C965 1.428 . S
C971 N970 1.351 . S
C971 C972 1.434 . S
C972 C963 1.429 . S
C972 N969 1.350 . S
C972 C971 1.434 . S
C973 C974 1.369 . S
C973 C975 1.419 . S
C973 H977 0.930 . S
C974 C973 1.369 . S
C974 C983 1.429 . S
C975 C973 1.419 . S
C975 C976 1.363 . S
C975 H978 0.929 . S
C976 C975 1.363 . S
C976 C982 1.428 . S
H977 C973 0.930 . S
H978 C975 0.929 . S
S979 N980 1.613 . S
S979 N981 1.610 . S
N980 S979 1.613 . S
N980 C983 1.350 . S
N981 S979 1.610 . S
N981 C982 1.351 . S
C982 C976 1.428 . S
C982 N981 1.351 . S
C982 C983 1.434 . S
C983 C974 1.429 . S
C983 N980 1.350 . S
C983 C982 1.434 . S
C984 C985 1.369 1_545 S
C984 C986 1.419 . S
C984 H988 0.930 . S
C985 C984 1.369 1_565 S
C985 C994 1.429 1_565 S
C986 C984 1.419 . S
C986 C987 1.363 . S
C986 H989 0.929 . S
C987 C986 1.363 . S
C987 C993 1.428 . S
H988 C984 0.930 . S
H989 C986 0.929 . S
S990 N991 1.613 1_545 S
S990 N992 1.610 . S
N991 S990 1.613 1_565 S
N991 C994 1.350 1_565 S
N992 S990 1.610 . S
N992 C993 1.351 . S
C993 C987 1.428 . S
C993 N992 1.351 . S
C993 C994 1.434 . S
C994 C985 1.429 1_545 S
C994 N991 1.350 1_545 S
C994 C993 1.434 . S
C995 C996 1.369 . S
C995 C997 1.419 . S
C995 H999 0.930 . S
C996 C995 1.369 . S
C996 C1005 1.429 . S
C997 C995 1.419 . S
C997 C998 1.363 1_565 S
C997 H1000 0.929 . S
C998 C997 1.363 1_545 S
C998 C1004 1.428 1_545 S
H999 C995 0.930 . S
H1000 C997 0.929 . S
S1001 N1002 1.613 . S
S1001 N1003 1.610 1_565 S
N1002 S1001 1.613 . S
N1002 C1005 1.350 . S
N1003 S1001 1.610 1_545 S
N1003 C1004 1.351 1_545 S
C1004 C998 1.428 1_565 S
C1004 N1003 1.351 1_565 S
C1004 C1005 1.434 . S
C1005 C996 1.429 . S
C1005 N1002 1.350 . S
C1005 C1004 1.434 . S
C1006 C1007 1.369 1_565 S
C1006 C1008 1.419 . S
C1006 H1010 0.930 1_565 S
C1007 C1006 1.369 1_545 S
C1007 C1016 1.429 1_545 S
C1008 C1006 1.419 . S
C1008 C1009 1.363 . S
C1008 H1011 0.929 . S
C1009 C1008 1.363 . S
C1009 C1015 1.428 . S
H1010 C1006 0.930 1_545 S
H1011 C1008 0.929 . S
S1012 N1013 1.613 . S
S1012 N1014 1.610 . S
N1013 S1012 1.613 . S
N1013 C1016 1.350 . S
N1014 S1012 1.610 . S
N1014 C1015 1.351 . S
C1015 C1009 1.428 . S
C1015 N1014 1.351 . S
C1015 C1016 1.434 . S
C1016 C1007 1.429 1_565 S
C1016 N1013 1.350 . S
C1016 C1015 1.434 . S
C1017 C1018 1.369 1_545 S
C1017 C1019 1.419 . S
C1017 H1021 0.930 . S
C1018 C1017 1.369 1_565 S
C1018 C1027 1.429 1_565 S
C1019 C1017 1.419 . S
C1019 C1020 1.363 . S
C1019 H1022 0.929 . S
C1020 C1019 1.363 . S
C1020 C1026 1.428 . S
H1021 C1017 0.930 . S
H1022 C1019 0.929 . S
S1023 N1024 1.613 1_545 S
S1023 N1025 1.610 . S
N1024 S1023 1.613 1_565 S
N1024 C1027 1.350 1_565 S
N1025 S1023 1.610 . S
N1025 C1026 1.351 . S
C1026 C1020 1.428 . S
C1026 N1025 1.351 . S
C1026 C1027 1.434 . S
C1027 C1018 1.429 1_545 S
C1027 N1024 1.350 1_545 S
C1027 C1026 1.434 . S
C1028 C1029 1.369 . S
C1028 C1030 1.419 . S
C1028 H1032 0.930 . S
C1029 C1028 1.369 . S
C1029 C1038 1.429 . S
C1030 C1028 1.419 . S
C1030 C1031 1.363 1_565 S
C1030 H1033 0.929 . S
C1031 C1030 1.363 1_545 S
C1031 C1037 1.428 1_545 S
H1032 C1028 0.930 . S
H1033 C1030 0.929 . S
S1034 N1035 1.613 . S
S1034 N1036 1.610 1_565 S
N1035 S1034 1.613 . S
N1035 C1038 1.350 . S
N1036 S1034 1.610 1_545 S
N1036 C1037 1.351 1_545 S
C1037 C1031 1.428 1_565 S
C1037 N1036 1.351 1_565 S
C1037 C1038 1.434 . S
C1038 C1029 1.429 . S
C1038 N1035 1.350 . S
C1038 C1037 1.434 . S
C1039 C1040 1.369 . S
C1039 C1041 1.419 . S
C1039 H1043 0.930 . S
C1040 C1039 1.369 . S
C1040 C1049 1.429 . S
C1041 C1039 1.419 . S
C1041 C1042 1.363 1_545 S
C1041 H1044 0.929 1_545 S
C1042 C1041 1.363 1_565 S
C1042 C1048 1.428 1_565 S
H1043 C1039 0.930 . S
H1044 C1041 0.929 1_565 S
S1045 N1046 1.613 . S
S1045 N1047 1.610 . S
N1046 S1045 1.613 . S
N1046 C1049 1.350 . S
N1047 S1045 1.610 . S
N1047 C1048 1.351 . S
C1048 C1042 1.428 1_545 S
C1048 N1047 1.351 . S
C1048 C1049 1.434 . S
C1049 C1040 1.429 . S
C1049 N1046 1.350 . S
C1049 C1048 1.434 . S
C1050 C1051 1.369 1_545 S
C1050 C1052 1.419 . S
C1050 H1054 0.930 1_545 S
C1051 C1050 1.369 1_565 S
C1051 C1060 1.429 1_565 S
C1052 C1050 1.419 . S
C1052 C1053 1.363 . S
C1052 H1055 0.929 . S
C1053 C1052 1.363 . S
C1053 C1059 1.428 . S
H1054 C1050 0.930 1_565 S
H1055 C1052 0.929 . S
S1056 N1057 1.613 1_545 S
S1056 N1058 1.610 . S
N1057 S1056 1.613 1_565 S
N1057 C1060 1.350 1_565 S
N1058 S1056 1.610 . S
N1058 C1059 1.351 . S
C1059 C1053 1.428 . S
C1059 N1058 1.351 . S
C1059 C1060 1.434 . S
C1060 C1051 1.429 1_545 S
C1060 N1057 1.350 1_545 S
C1060 C1059 1.434 . S
C1061 C1062 1.369 . S
C1061 C1063 1.419 . S
C1061 H1065 0.930 . S
C1062 C1061 1.369 . S
C1062 C1071 1.429 . S
C1063 C1061 1.419 . S
C1063 C1064 1.363 1_565 S
C1063 H1066 0.929 1_565 S
C1064 C1063 1.363 1_545 S
C1064 C1070 1.428 1_545 S
H1065 C1061 0.930 . S
H1066 C1063 0.929 1_545 S
S1067 N1068 1.613 . S
S1067 N1069 1.610 1_565 S
N1068 S1067 1.613 . S
N1068 C1071 1.350 . S
N1069 S1067 1.610 1_545 S
N1069 C1070 1.351 1_545 S
C1070 C1064 1.428 1_565 S
C1070 N1069 1.351 1_565 S
C1070 C1071 1.434 . S
C1071 C1062 1.429 . S
C1071 N1068 1.350 . S
C1071 C1070 1.434 . S
C545 C8 1.565 . S
C547 C314 1.563 . S
C556 C42 1.562 . S
C558 C280 1.565 . S
C567 C382 1.564 . S
C569 C76 1.563 . S
C578 C110 1.565 . S
C580 C348 1.562 . S
C589 C459 1.562 . S
C591 C153 1.564 . S
C600 C425 1.565 . S
C602 C187 1.562 . S
C611 C527 1.563 . S
C613 C221 1.565 . S
C622 C255 1.565 . S
C624 C493 1.563 . S
C633 C81 1.555 . S
C635 C13 1.553 . S
C644 C115 1.555 . S
C646 C47 1.553 . S
C655 C208 1.554 . S
C657 C140 1.553 . S
C666 C174 1.553 . S
C668 C242 1.554 . S
C677 C353 1.552 . S
C679 C285 1.554 . S
C688 C387 1.552 . S
C690 C319 1.554 . S
C699 C412 1.552 . S
C701 C480 1.554 . S
C710 C446 1.552 . S
C712 C514 1.554 . S
C721 C183 1.517 . S
C723 C4 1.517 . S
C732 C149 1.519 . S
C734 C38 1.519 . S
C743 C72 1.519 . S
C745 C251 1.519 . S
C754 C217 1.519 . S
C756 C106 1.519 . S
C765 C276 1.519 . S
C767 C455 1.519 . S
C776 C421 1.519 . S
C778 C310 1.519 . S
C787 C344 1.519 . S
C789 C523 1.519 . S
C798 C489 1.517 . S
C800 C378 1.517 . S
C809 C51 1.506 . S
C811 C17 1.507 . S
C820 C119 1.507 . S
C822 C85 1.506 . S
C831 C178 1.507 . S
C833 C144 1.507 . S
C842 C212 1.506 . S
C844 C246 1.507 . S
C853 C323 1.506 . S
C855 C289 1.506 . S
C864 C391 1.506 . S
C866 C357 1.506 . S
C875 C416 1.506 . S
C877 C450 1.506 . S
C886 C484 1.507 . S
C888 C518 1.506 . S
C897 C29 1.342 . S
C899 C0 1.340 . S
C908 C63 1.342 . S
C910 C34 1.341 . S
C919 C97 1.340 . S
C921 C68 1.342 . S
C930 C102 1.342 . S
C932 C131 1.340 . S
C941 C136 1.340 . S
C943 C165 1.342 . S
C952 C199 1.342 . S
C954 C170 1.340 . S
C963 C204 1.341 . S
C965 C233 1.341 . S
C974 C238 1.342 . S
C976 C267 1.341 . S
C985 C272 1.340 . S
C987 C301 1.341 . S
C996 C335 1.342 . S
C998 C306 1.340 . S
C1007 C340 1.342 . S
C1009 C369 1.340 . S
C1018 C374 1.340 . S
C1020 C403 1.342 . S
C1029 C408 1.342 . S
C1031 C437 1.340 . S
C1040 C442 1.339 . S
C1042 C471 1.342 . S
C1051 C505 1.340 . S
C1053 C476 1.342 . S
C1062 C510 1.341 . S
C1064 C539 1.341 . S
