# Generated by pormake.
# Topology crs, (6)-cn, num edge types: 1
# Building blocks:
#     Node 0, Type 0, BuildingBlock: CUWYAW_clean_sbu_0, # of connection points: 6
#     Node 1, Type 0, BuildingBlock: CUWYAW_clean_sbu_0, # of connection points: 6
#     Node 2, Type 0, BuildingBlock: CUWYAW_clean_sbu_0, # of connection points: 6
#     Node 3, Type 0, BuildingBlock: CUWYAW_clean_sbu_0, # of connection points: 6
#     Node 4, Type 0, BuildingBlock: CUWYAW_clean_sbu_0, # of connection points: 6
#     Node 5, Type 0, BuildingBlock: CUWYAW_clean_sbu_0, # of connection points: 6
#     Node 6, Type 0, BuildingBlock: CUWYAW_clean_sbu_0, # of connection points: 6
#     Node 7, Type 0, BuildingBlock: CUWYAW_clean_sbu_0, # of connection points: 6
#     Node 8, Type 0, BuildingBlock: CUWYAW_clean_sbu_0, # of connection points: 6
#     Node 9, Type 0, BuildingBlock: CUWYAW_clean_sbu_0, # of connection points: 6
#     Node 10, Type 0, BuildingBlock: CUWYAW_clean_sbu_0, # of connection points: 6
#     Node 11, Type 0, BuildingBlock: CUWYAW_clean_sbu_0, # of connection points: 6
#     Node 12, Type 0, BuildingBlock: CUWYAW_clean_sbu_0, # of connection points: 6
#     Node 13, Type 0, BuildingBlock: CUWYAW_clean_sbu_0, # of connection points: 6
#     Node 14, Type 0, BuildingBlock: CUWYAW_clean_sbu_0, # of connection points: 6
#     Node 15, Type 0, BuildingBlock: CUWYAW_clean_sbu_0, # of connection points: 6
#     Edge 16, Type (0, 0), BuildingBlock: MIFKUJ_clean_linker_0, # of connection points: 2
#     Edge 17, Type (0, 0), BuildingBlock: MIFKUJ_clean_linker_0, # of connection points: 2
#     Edge 18, Type (0, 0), BuildingBlock: MIFKUJ_clean_linker_0, # of connection points: 2
#     Edge 19, Type (0, 0), BuildingBlock: MIFKUJ_clean_linker_0, # of connection points: 2
#     Edge 20, Type (0, 0), BuildingBlock: MIFKUJ_clean_linker_0, # of connection points: 2
#     Edge 21, Type (0, 0), BuildingBlock: MIFKUJ_clean_linker_0, # of connection points: 2
#     Edge 22, Type (0, 0), BuildingBlock: MIFKUJ_clean_linker_0, # of connection points: 2
#     Edge 23, Type (0, 0), BuildingBlock: MIFKUJ_clean_linker_0, # of connection points: 2
#     Edge 24, Type (0, 0), BuildingBlock: MIFKUJ_clean_linker_0, # of connection points: 2
#     Edge 25, Type (0, 0), BuildingBlock: MIFKUJ_clean_linker_0, # of connection points: 2
#     Edge 26, Type (0, 0), BuildingBlock: MIFKUJ_clean_linker_0, # of connection points: 2
#     Edge 27, Type (0, 0), BuildingBlock: MIFKUJ_clean_linker_0, # of connection points: 2
#     Edge 28, Type (0, 0), BuildingBlock: MIFKUJ_clean_linker_0, # of connection points: 2
#     Edge 29, Type (0, 0), BuildingBlock: MIFKUJ_clean_linker_0, # of connection points: 2
#     Edge 30, Type (0, 0), BuildingBlock: MIFKUJ_clean_linker_0, # of connection points: 2
#     Edge 31, Type (0, 0), BuildingBlock: MIFKUJ_clean_linker_0, # of connection points: 2
#     Edge 32, Type (0, 0), BuildingBlock: MIFKUJ_clean_linker_0, # of connection points: 2
#     Edge 33, Type (0, 0), BuildingBlock: MIFKUJ_clean_linker_0, # of connection points: 2
#     Edge 34, Type (0, 0), BuildingBlock: MIFKUJ_clean_linker_0, # of connection points: 2
#     Edge 35, Type (0, 0), BuildingBlock: MIFKUJ_clean_linker_0, # of connection points: 2
#     Edge 36, Type (0, 0), BuildingBlock: MIFKUJ_clean_linker_0, # of connection points: 2
#     Edge 37, Type (0, 0), BuildingBlock: MIFKUJ_clean_linker_0, # of connection points: 2
#     Edge 38, Type (0, 0), BuildingBlock: MIFKUJ_clean_linker_0, # of connection points: 2
#     Edge 39, Type (0, 0), BuildingBlock: MIFKUJ_clean_linker_0, # of connection points: 2
#     Edge 40, Type (0, 0), BuildingBlock: MIFKUJ_clean_linker_0, # of connection points: 2
#     Edge 41, Type (0, 0), BuildingBlock: MIFKUJ_clean_linker_0, # of connection points: 2
#     Edge 42, Type (0, 0), BuildingBlock: MIFKUJ_clean_linker_0, # of connection points: 2
#     Edge 43, Type (0, 0), BuildingBlock: MIFKUJ_clean_linker_0, # of connection points: 2
#     Edge 44, Type (0, 0), BuildingBlock: MIFKUJ_clean_linker_0, # of connection points: 2
#     Edge 45, Type (0, 0), BuildingBlock: MIFKUJ_clean_linker_0, # of connection points: 2
#     Edge 46, Type (0, 0), BuildingBlock: MIFKUJ_clean_linker_0, # of connection points: 2
#     Edge 47, Type (0, 0), BuildingBlock: MIFKUJ_clean_linker_0, # of connection points: 2
#     Edge 48, Type (0, 0), BuildingBlock: MIFKUJ_clean_linker_0, # of connection points: 2
#     Edge 49, Type (0, 0), BuildingBlock: MIFKUJ_clean_linker_0, # of connection points: 2
#     Edge 50, Type (0, 0), BuildingBlock: MIFKUJ_clean_linker_0, # of connection points: 2
#     Edge 51, Type (0, 0), BuildingBlock: MIFKUJ_clean_linker_0, # of connection points: 2
#     Edge 52, Type (0, 0), BuildingBlock: MIFKUJ_clean_linker_0, # of connection points: 2
#     Edge 53, Type (0, 0), BuildingBlock: MIFKUJ_clean_linker_0, # of connection points: 2
#     Edge 54, Type (0, 0), BuildingBlock: MIFKUJ_clean_linker_0, # of connection points: 2
#     Edge 55, Type (0, 0), BuildingBlock: MIFKUJ_clean_linker_0, # of connection points: 2
#     Edge 56, Type (0, 0), BuildingBlock: MIFKUJ_clean_linker_0, # of connection points: 2
#     Edge 57, Type (0, 0), BuildingBlock: MIFKUJ_clean_linker_0, # of connection points: 2
#     Edge 58, Type (0, 0), BuildingBlock: MIFKUJ_clean_linker_0, # of connection points: 2
#     Edge 59, Type (0, 0), BuildingBlock: MIFKUJ_clean_linker_0, # of connection points: 2
#     Edge 60, Type (0, 0), BuildingBlock: MIFKUJ_clean_linker_0, # of connection points: 2
#     Edge 61, Type (0, 0), BuildingBlock: MIFKUJ_clean_linker_0, # of connection points: 2
#     Edge 62, Type (0, 0), BuildingBlock: MIFKUJ_clean_linker_0, # of connection points: 2
#     Edge 63, Type (0, 0), BuildingBlock: MIFKUJ_clean_linker_0, # of connection points: 2
# Relax obj value: 0.403
# Max RMSD: 0.342
# Mean RMSD: 0.291
data_MOF--net-crs--node1-CUWYAW_clean_sbu_0--edge1-MIFKUJ_clean_linker_0
_symmetry_space_group_name_H-M    P1
_symmetry_Int_Tables_number       1
_symmetry_cell_setting            triclinic
loop_
_symmetry_equiv_pos_as_xyz
'x, y, z'
_cell_length_a     65.410476
_cell_length_b     70.838218
_cell_length_c     52.350352
_cell_angle_alpha  77.762366
_cell_angle_beta   78.511945
_cell_angle_gamma 69.878808
loop_
_atom_site_label
_atom_site_type_symbol
_atom_site_fract_x
_atom_site_fract_y
_atom_site_fract_z
_atom_type_partial_charge
C0 C 0.05494 1.00386 0.9738 0.0
Eu1 Eu 0.0129 0.01268 0.98957 0.0
C2 C 0.06955 0.01641 0.96492 0.0
C3 C 0.06157 0.03637 0.95193 0.0
C4 C 0.07335 0.04993 0.94923 0.0
C5 C 0.09324 0.0439 0.95987 0.0
C6 C 0.10215 0.02322 0.97048 0.0
C7 C 0.09028 1.00968 0.97323 0.0
C8 C 0.97916 0.03164 0.96117 0.0
C9 C 0.98352 0.0564 0.00578 0.0
C10 C 0.92626 0.01769 0.03971 0.0
Eu11 Eu 0.96602 0.01817 0.02181 0.0
C12 C 0.91365 1.0064 0.03258 0.0
C13 C 0.89683 1.00118 0.05075 0.0
C14 C 0.88752 0.98751 0.0456 0.0
C15 C 0.89519 0.97874 0.02239 0.0
C16 C 0.9112 0.98484 0.00367 0.0
C17 C 0.9203 0.9986 0.00868 0.0
C18 C -0.00148 0.01351 0.04987 0.0
C19 C -0.00781 0.97615 0.99678 0.0
O20 O 0.04625 1.00378 0.99855 0.0
O21 O 0.04068 1.00575 0.95829 0.0
O22 O -0.0022 0.0354 0.95544 0.0
O23 O 0.9801 0.01716 0.98006 0.0
O24 O 0.00376 0.04377 0.00137 0.0
O25 O 0.96578 0.05062 0.00989 0.0
O26 O 0.93075 0.03199 0.02125 0.0
O27 O 0.94327 1.00623 0.05155 0.0
O28 O 0.9784 0.02485 0.05532 0.0
O29 O -3e-05 1.00428 0.03114 0.0
O30 O 0.97419 0.98734 0.00978 0.0
O31 O 0.00974 0.98215 0.98813 0.0
H32 H 0.04545 0.04197 0.94558 0.0
H33 H 0.06558 0.06556 0.94101 0.0
H34 H 0.11786 0.01758 0.97776 0.0
H35 H 0.09676 0.99425 0.98319 0.0
H36 H 0.89162 1.00694 0.06937 0.0
H37 H 0.87526 0.9829 0.06038 0.0
H38 H 0.91737 0.97828 0.98567 0.0
H39 H 0.93339 1.00226 0.99447 0.0
C40 C 0.97322 0.22925 0.20577 0.0
Eu41 Eu 0.98398 0.25017 0.23317 0.0
C42 C 0.98063 0.22106 0.18064 0.0
C43 C 0.96686 0.22843 0.16092 0.0
C44 C 0.97237 0.21971 0.13796 0.0
C45 C -0.00828 0.20331 0.1343 0.0
C46 C 0.00596 0.19644 0.1536 0.0
C47 C 0.00048 0.20524 0.17657 0.0
C48 C 0.96456 0.29048 0.23606 0.0
C49 C 0.02412 0.26753 0.21288 0.0
C50 C 0.00378 0.29239 0.30022 0.0
Eu51 Eu -2e-05 0.26711 0.27352 0.0
C52 C -0.00882 0.30661 0.31897 0.0
C53 C 0.98467 0.29941 0.34548 0.0
C54 C 0.97638 0.31272 0.36402 0.0
C55 C 0.97441 0.33345 0.35643 0.0
C56 C 0.97959 0.34082 0.32964 0.0
C57 C 0.98793 0.32752 0.31111 0.0
C58 C 0.02821 0.22901 0.26692 0.0
C59 C 0.96208 0.24589 0.29533 0.0
O60 O 0.98543 0.22091 0.22473 0.0
O61 O 0.96502 0.24905 0.20406 0.0
O62 O 0.96992 0.28286 0.21427 0.0
O63 O 0.96936 0.27642 0.25537 0.0
O64 O 0.01529 0.25411 0.20975 0.0
O65 O 0.01794 0.27687 0.23387 0.0
O66 O -0.00034 0.29762 0.2757 0.0
O67 O 0.00773 0.27286 0.30891 0.0
O68 O 0.03039 0.23995 0.28254 0.0
O69 O 0.01127 0.23892 0.2562 0.0
O70 O 0.9735 0.2564 0.30072 0.0
O71 O 0.9639 0.24137 0.27152 0.0
H72 H 0.95142 0.24054 0.16365 0.0
H73 H 0.96087 0.22514 0.12371 0.0
H74 H 0.02105 0.18391 0.15124 0.0
H75 H 0.0115 0.19928 0.19138 0.0
H76 H 0.98686 0.28338 0.35218 0.0
H77 H 0.9723 0.30668 0.3845 0.0
H78 H 0.97856 0.35665 0.32327 0.0
H79 H -0.00709 0.33346 0.29086 0.0
C80 C 0.68951 0.24681 0.48325 0.0
Eu81 Eu 0.72333 0.25539 0.49073 0.0
C82 C 0.68403 0.22807 0.48391 0.0
C83 C 0.69285 0.2163 0.46344 0.0
C84 C 0.68763 0.1986 0.46441 0.0
C85 C 0.67347 0.19225 0.48584 0.0
C86 C 0.66459 0.20407 0.50625 0.0
C87 C 0.66977 0.22181 0.50525 0.0
C88 C 0.76445 0.24222 0.4646 0.0
C89 C 0.74782 0.22017 0.53688 0.0
C90 C 0.79356 0.26907 0.52218 0.0
Eu91 Eu 0.75897 0.26178 0.51456 0.0
C92 C 0.7995 0.28722 0.52228 0.0
C93 C 0.78476 0.30677 0.51608 0.0
C94 C 0.79038 0.32397 0.51678 0.0
C95 C 0.81077 0.32187 0.52394 0.0
C96 C 0.82552 0.30221 0.52996 0.0
C97 C 0.81992 0.28503 0.52909 0.0
C98 C 0.71805 0.27453 0.54123 0.0
C99 C 0.73389 0.29729 0.4687 0.0
O100 O 0.69175 0.2504 0.50587 0.0
O101 O 0.70427 0.25099 0.46407 0.0
O102 O 0.74695 0.24969 0.4531 0.0
O103 O 0.7594 0.24051 0.48926 0.0
O104 O 0.73025 0.22871 0.52455 0.0
O105 O 0.76351 0.22876 0.53296 0.0
O106 O 0.79062 0.26654 0.49928 0.0
O107 O 0.7785 0.26541 0.54126 0.0
O108 O 0.73575 0.2672 0.5524 0.0
O109 O 0.72282 0.27649 0.51648 0.0
O110 O 0.75117 0.28925 0.48167 0.0
O111 O 0.71875 0.28819 0.47172 0.0
H112 H 0.70376 0.22075 0.44659 0.0
H113 H 0.69443 0.19007 0.44812 0.0
H114 H 0.65379 0.19953 0.52315 0.0
H115 H 0.66265 0.23062 0.52125 0.0
H116 H 0.76883 0.30868 0.51099 0.0
H117 H 0.77859 0.3389 0.51231 0.0
H118 H 0.84144 0.30011 0.53523 0.0
H119 H 0.83149 0.27003 0.53389 0.0
C120 C 0.72506 0.99076 0.69791 0.0
Eu121 Eu 0.73369 1.00149 0.73814 0.0
C122 C 0.70517 0.9934 0.68697 0.0
C123 C 0.70673 0.99156 0.66051 0.0
C124 C 0.68812 0.99266 0.65034 0.0
C125 C 0.66775 0.99548 0.66661 0.0
C126 C 0.66614 0.9979 0.69295 0.0
C127 C 0.68472 0.99699 0.70303 0.0
C128 C 0.72707 0.98203 0.78852 0.0
C129 C 0.69899 0.03842 0.76452 0.0
C130 C 0.76019 0.02483 0.81577 0.0
Eu131 Eu 0.7504 0.01566 0.77508 0.0
C132 C 0.78005 0.0174 0.82864 0.0
C133 C 0.78231 0.02809 0.84697 0.0
C134 C 0.8024 0.02288 0.85635 0.0
C135 C 0.82055 1.00701 0.8473 0.0
C136 C 0.81793 0.9958 0.82975 0.0
C137 C 0.79779 1.00093 0.82056 0.0
C138 C 0.75734 0.03486 0.72471 0.0
C139 C 0.78499 0.97972 0.74704 0.0
O140 O 0.73039 1.00718 0.69625 0.0
O141 O 0.72712 0.97924 0.72088 0.0
O142 O 0.71245 0.98881 0.77244 0.0
O143 O 0.74431 0.98632 0.77745 0.0
O144 O 0.70299 0.02781 0.74523 0.0
O145 O 0.714 0.03492 0.78013 0.0
O146 O 0.74945 0.01194 0.81774 0.0
O147 O 0.76252 0.03466 0.79185 0.0
O148 O 0.77186 0.02813 0.7409 0.0
O149 O 0.74 0.03075 0.73574 0.0
O150 O 0.78032 0.98859 0.76808 0.0
O151 O 0.77046 0.98459 0.73051 0.0
H152 H 0.72242 0.98883 0.64789 0.0
H153 H 0.68981 0.99057 0.63003 0.0
H154 H 0.65058 1.00028 0.70578 0.0
H155 H 0.68323 0.99865 0.7235 0.0
H156 H 0.76881 0.04095 0.85322 0.0
H157 H 0.80404 0.03192 0.86966 0.0
H158 H 0.83159 0.9834 0.82265 0.0
H159 H 0.79634 0.99248 0.80644 0.0
C160 C 0.47214 0.7391 0.20355 0.0
Eu161 Eu 0.48122 0.75289 0.24091 0.0
C162 C 0.48341 0.72543 0.18387 0.0
C163 C 0.48042 0.73236 0.15729 0.0
C164 C 0.48917 0.71904 0.13875 0.0
C165 C 0.50092 0.6985 0.14654 0.0
C166 C 0.50443 0.69182 0.17304 0.0
C167 C 0.49593 0.70515 0.19149 0.0
C168 C 0.4547 0.78939 0.25577 0.0
C169 C 0.52063 0.77158 0.21782 0.0
C170 C 0.5066 0.78176 0.31351 0.0
Eu171 Eu 0.49963 0.76603 0.2767 0.0
C172 C 0.4936 0.79295 0.33522 0.0
C173 C 0.49517 0.78351 0.3615 0.0
C174 C 0.48523 0.79468 0.38218 0.0
C175 C 0.47381 0.81561 0.37693 0.0
C176 C 0.47111 0.8247 0.35067 0.0
C177 C 0.48086 0.8135 0.33005 0.0
C178 C 0.52678 0.72973 0.26273 0.0
C179 C 0.46263 0.74406 0.29984 0.0
O180 O 0.47088 0.7307 0.22832 0.0
O181 O 0.47618 0.75636 0.19986 0.0
O182 O 0.44773 0.77514 0.25278 0.0
O183 O 0.47529 0.78424 0.24975 0.0
O184 O 0.51225 0.75746 0.21633 0.0
O185 O 0.51518 0.7804 0.23897 0.0
O186 O 0.50436 0.79129 0.28945 0.0
O187 O 0.50792 0.76263 0.31616 0.0
O188 O 0.53323 0.74427 0.26599 0.0
O189 O 0.50602 0.73448 0.26789 0.0
O190 O 0.4702 0.75851 0.30225 0.0
O191 O 0.46782 0.73632 0.27789 0.0
H192 H 0.47085 0.74796 0.15099 0.0
H193 H 0.48634 0.72472 0.11843 0.0
H194 H 0.51286 0.67605 0.17982 0.0
H195 H 0.49856 0.69934 0.21185 0.0
H196 H 0.50477 0.76765 0.36604 0.0
H197 H 0.48728 0.78712 0.40221 0.0
H198 H 0.46266 0.84082 0.34577 0.0
H199 H 0.47918 0.82123 0.31001 0.0
C200 C 0.1872 0.75264 0.48437 0.0
Eu201 Eu 0.22319 0.75766 0.49157 0.0
C202 C 0.17965 0.73659 0.47951 0.0
C203 C 0.19376 0.72107 0.46552 0.0
C204 C 0.18576 0.70698 0.45911 0.0
C205 C 0.16354 0.70808 0.4667 0.0
C206 C 0.14967 0.72331 0.48141 0.0
C207 C 0.15766 0.73746 0.48769 0.0
C208 C 0.26386 0.74269 0.46526 0.0
C209 C 0.24756 0.72229 0.53865 0.0
C210 C 0.29588 0.77095 0.51723 0.0
Eu211 Eu 0.26057 0.76297 0.51419 0.0
C212 C 0.30305 0.78926 0.50822 0.0
C213 C 0.29063 0.8079 0.51683 0.0
C214 C 0.29742 0.82512 0.50782 0.0
C215 C 0.31672 0.82422 0.48981 0.0
C216 C 0.32889 0.80563 0.48079 0.0
C217 C 0.32215 0.78835 0.48996 0.0
C218 C 0.22015 0.77613 0.54158 0.0
C219 C 0.23571 0.79864 0.46862 0.0
O220 O 0.19255 0.7508 0.50778 0.0
O221 O 0.20076 0.75894 0.46534 0.0
O222 O 0.24625 0.75002 0.45393 0.0
O223 O 0.25894 0.7419 0.4898 0.0
O224 O 0.23053 0.73046 0.52513 0.0
O225 O 0.26318 0.73093 0.53562 0.0
O226 O 0.29431 0.76207 0.49853 0.0
O227 O 0.27959 0.77186 0.5366 0.0
O228 O 0.23805 0.76837 0.55248 0.0
O229 O 0.22461 0.77821 0.51678 0.0
O230 O 0.2533 0.78996 0.48084 0.0
O231 O 0.21981 0.79035 0.47259 0.0
H232 H 0.21083 0.72013 0.45905 0.0
H233 H 0.19686 0.69558 0.44758 0.0
H234 H 0.13259 0.72437 0.48804 0.0
H235 H 0.14656 0.74929 0.49859 0.0
H236 H 0.27568 0.80922 0.53067 0.0
H237 H 0.28779 0.83904 0.51555 0.0
H238 H 0.34364 0.80442 0.46663 0.0
H239 H 0.33186 0.77424 0.48271 0.0
C240 C 0.22254 0.50529 0.68326 0.0
Eu241 Eu 0.23552 0.50345 0.72757 0.0
C242 C 0.20311 0.51812 0.67073 0.0
C243 C 0.18211 0.52261 0.6856 0.0
C244 C 0.16344 0.53227 0.67312 0.0
C245 C 0.16543 0.53779 0.64554 0.0
C246 C 0.18657 0.53491 0.63101 0.0
C247 C 0.20528 0.52502 0.64353 0.0
C248 C 0.2352 0.47469 0.77124 0.0
C249 C 0.19779 0.53653 0.76149 0.0
C250 C 0.25377 0.51092 0.82527 0.0
Eu251 Eu 0.24628 0.51313 0.77776 0.0
C252 C 0.27015 0.51555 0.83616 0.0
C253 C 0.27645 0.53292 0.82514 0.0
C254 C 0.29318 0.5364 0.83437 0.0
C255 C 0.3041 0.52245 0.85455 0.0
C256 C 0.29761 0.50515 0.86568 0.0
C257 C 0.28072 0.50177 0.85657 0.0
C258 C 0.25574 0.54023 0.73444 0.0
C259 C 0.28411 0.4811 0.74236 0.0
O260 O 0.2366 0.51422 0.68514 0.0
O261 O 0.21881 0.4928 0.70464 0.0
O262 O 0.24155 0.47085 0.74725 0.0
O263 O 0.22785 0.49382 0.77117 0.0
O264 O 0.20433 0.52849 0.73946 0.0
O265 O 0.21015 0.53108 0.78059 0.0
O266 O 0.26154 0.49545 0.81231 0.0
O267 O 0.23927 0.52647 0.81352 0.0
O268 O 0.2595 0.5398 0.75801 0.0
O269 O 0.24868 0.52562 0.73552 0.0
O270 O 0.27679 0.48754 0.76549 0.0
O271 O 0.27224 0.48787 0.72261 0.0
H272 H 0.18002 0.5177 0.70673 0.0
H273 H 0.1475 0.53406 0.68496 0.0
H274 H 0.18865 0.53939 0.6098 0.0
H275 H 0.22138 0.52202 0.63182 0.0
H276 H 0.26864 0.5437 0.80917 0.0
H277 H 0.29756 0.55003 0.82569 0.0
H278 H 0.3059 0.49399 0.88103 0.0
H279 H 0.27621 0.48816 0.86506 0.0
C280 C 0.03236 0.52328 0.44003 0.0
Eu281 Eu -0.00241 0.52339 0.47448 0.0
C282 C 0.04296 0.53917 0.42984 0.0
C283 C 0.06472 0.53434 0.41728 0.0
C284 C 0.07551 0.54908 0.41087 0.0
C285 C 0.06484 0.56879 0.41749 0.0
C286 C 0.04254 0.57378 0.42858 0.0
C287 C 0.03174 0.55916 0.43451 0.0
C288 C 0.95575 0.53721 0.46362 0.0
C289 C 0.97598 0.56207 0.50468 0.0
C290 C 0.92503 0.52167 0.55177 0.0
Eu291 Eu 0.96177 0.52072 0.52157 0.0
C292 C 0.91107 0.50862 0.55385 0.0
C293 C 0.89066 0.51667 0.54436 0.0
C294 C 0.87878 0.50385 0.54309 0.0
C295 C 0.88705 0.48273 0.55142 0.0
C296 C 0.9072 0.47483 0.56153 0.0
C297 C 0.91904 0.48757 0.56275 0.0
C298 C 0.00312 0.50771 0.53476 0.0
C299 C 0.98482 0.48176 0.49226 0.0
O300 O 0.03327 0.51563 0.46503 0.0
O301 O 0.01279 0.52742 0.43356 0.0
O302 O 0.97034 0.54595 0.45194 0.0
O303 O 0.96412 0.52157 0.47916 0.0
O304 O -0.00709 0.55229 0.4889 0.0
O305 O 0.96085 0.55373 0.51783 0.0
O306 O 0.92611 0.53421 0.52956 0.0
O307 O 0.94423 0.51268 0.55998 0.0
O308 O 0.9878 0.49978 0.54617 0.0
O309 O -0.00464 0.52254 0.51755 0.0
O310 O 0.96675 0.49214 0.50596 0.0
O311 O 0.00059 0.48979 0.48102 0.0
H312 H 0.07358 0.51901 0.41328 0.0
H313 H 0.09251 0.54475 0.40183 0.0
H314 H 0.03371 0.58856 0.4344 0.0
H315 H 0.01484 0.56325 0.44384 0.0
H316 H 0.88419 0.5328 0.5372 0.0
H317 H 0.86323 0.51046 0.53538 0.0
H318 H 0.91429 0.45862 0.56764 0.0
H319 H 0.93481 0.48073 0.5699 0.0
C320 C 0.18574 0.25793 0.99277 0.0
Eu321 Eu 0.22333 0.26051 0.9983 0.0
C322 C 0.17692 0.24124 0.99388 0.0
C323 C 0.16475 0.24216 0.97421 0.0
C324 C 0.15779 0.22576 0.97346 0.0
C325 C 0.16281 0.20815 0.99249 0.0
C326 C 0.17459 0.20748 0.01259 0.0
C327 C 0.18168 0.22384 0.01321 0.0
C328 C 0.26165 0.24629 0.96678 0.0
C329 C 0.24818 0.22114 0.03992 0.0
C330 C 0.30182 0.26309 0.02297 0.0
Eu331 Eu 0.26431 0.26003 0.01801 0.0
C332 C 0.31035 0.28014 0.02144 0.0
C333 C 0.31914 0.28153 0.04305 0.0
C334 C 0.32576 0.29831 0.04297 0.0
C335 C 0.32378 0.31404 0.0212 0.0
C336 C 0.31549 0.31238 0.99925 0.0
C337 C 0.3088 0.2956 0.99938 0.0
C338 C 0.22594 0.27429 0.04947 0.0
C339 C 0.23905 0.29955 0.97646 0.0
O340 O 0.19007 0.26042 0.01495 0.0
O341 O 0.20106 0.25964 0.97301 0.0
O342 O 0.24321 0.2568 0.95807 0.0
O343 O 0.25874 0.24253 0.9916 0.0
O344 O 0.22962 0.23244 0.0305 0.0
O345 O 0.26588 0.22715 0.0339 0.0
O346 O 0.29752 0.26014 0.00101 0.0
O347 O 0.28672 0.26117 0.04296 0.0
O348 O 0.24435 0.26371 0.05827 0.0
O349 O 0.22898 0.27801 0.02465 0.0
O350 O 0.25749 0.28862 0.98646 0.0
O351 O 0.22165 0.29316 0.98197 0.0
H352 H 0.16108 0.25539 0.959 0.0
H353 H 0.14904 0.22668 0.95748 0.0
H354 H 0.17846 0.19428 0.02777 0.0
H355 H 0.19115 0.22273 0.02856 0.0
H356 H 0.32057 0.26976 0.06022 0.0
H357 H 0.33244 0.29897 0.05998 0.0
H358 H 0.31364 0.3243 0.98225 0.0
H359 H 0.30209 0.29493 0.9824 0.0
C360 C 0.23453 1.00468 0.17511 0.0
Eu361 Eu 0.23965 1.00364 0.22354 0.0
C362 C 0.21894 0.01648 0.1565 0.0
C363 C 0.19717 0.02714 0.16559 0.0
C364 C 0.18148 0.03504 0.14825 0.0
C365 C 0.18736 0.0324 0.12156 0.0
C366 C 0.20961 0.02325 0.11218 0.0
C367 C 0.22526 0.01528 0.12957 0.0
C368 C 0.234 0.97367 0.26413 0.0
C369 C 0.19643 0.03487 0.25269 0.0
C370 C 0.24592 1.00855 0.32485 0.0
Eu371 Eu 0.24023 0.01195 0.27609 0.0
C372 C 0.26601 1.00271 0.33686 0.0
C373 C 0.28563 1.00369 0.32087 0.0
C374 C 0.30465 0.99921 0.33206 0.0
C375 C 0.30448 0.99352 0.3595 0.0
C376 C 0.28499 0.99159 0.37536 0.0
C377 C 0.26584 0.99619 0.36407 0.0
C378 C 0.24688 0.04193 0.23621 0.0
C379 C 0.28486 0.98174 0.24587 0.0
O380 O 0.24663 0.01394 0.18126 0.0
O381 O 0.22698 0.99351 0.19548 0.0
O382 O 0.24573 0.97046 0.24149 0.0
O383 O 0.22491 0.99262 0.26409 0.0
O384 O 0.20872 0.03056 0.2301 0.0
O385 O 0.20374 0.02568 0.27528 0.0
O386 O 0.24315 0.9941 0.3154 0.0
O387 O 0.24186 0.02579 0.30865 0.0
O388 O 0.23579 0.04503 0.25921 0.0
O389 O 0.25532 0.02297 0.23564 0.0
O390 O 0.27414 0.98863 0.26799 0.0
O391 O 0.27573 0.9875 0.22403 0.0
H392 H 0.19202 0.0283 0.18634 0.0
H393 H 0.16449 0.04183 0.15622 0.0
H394 H 0.2147 0.02128 0.09167 0.0
H395 H 0.24206 1.00724 0.12222 0.0
H396 H 0.28609 1.00854 0.29975 0.0
H397 H 0.31919 1.00122 0.31925 0.0
H398 H 0.28443 0.987 0.39652 0.0
H399 H 0.25085 0.99505 0.37659 0.0
C400 C 0.47993 0.22239 0.70424 0.0
Eu401 Eu 0.48215 0.24808 0.73147 0.0
C402 C 0.49328 0.20845 0.68542 0.0
C403 C 0.49181 0.21477 0.65836 0.0
C404 C 0.50149 0.20104 0.64055 0.0
C405 C 0.5128 0.18059 0.64936 0.0
C406 C 0.51521 0.17447 0.67628 0.0
C407 C 0.50553 0.18827 0.69416 0.0
C408 C 0.45396 0.2868 0.7356 0.0
C409 C 0.51882 0.27143 0.70937 0.0
C410 C 0.50075 0.29544 0.79732 0.0
Eu411 Eu 0.4971 0.26999 0.77079 0.0
C412 C 0.48883 0.31101 0.81411 0.0
C413 C 0.50112 0.31947 0.82459 0.0
C414 C 0.49065 0.33424 0.8408 0.0
C415 C 0.46764 0.34097 0.84658 0.0
C416 C 0.45521 0.33259 0.83598 0.0
C417 C 0.46581 0.31741 0.82008 0.0
C418 C 0.526 0.2316 0.76527 0.0
C419 C 0.4594 0.24776 0.79265 0.0
O420 O 0.4833 0.21735 0.72905 0.0
O421 O 0.4758 0.24193 0.69554 0.0
O422 O 0.45181 0.275 0.72115 0.0
O423 O 0.47079 0.27716 0.74667 0.0
O424 O 0.51051 0.25749 0.70642 0.0
O425 O 0.51397 0.27996 0.73094 0.0
O426 O 0.49824 0.30007 0.77225 0.0
O427 O 0.5017 0.27661 0.8075 0.0
O428 O 0.52831 0.24344 0.77953 0.0
O429 O 0.50858 0.24099 0.75531 0.0
O430 O 0.46837 0.26123 0.79556 0.0
O431 O 0.4639 0.2392 0.77109 0.0
H432 H 0.48227 0.23014 0.65102 0.0
H433 H 0.49887 0.20624 0.6201 0.0
H434 H 0.5239 0.15884 0.6837 0.0
H435 H 0.50691 0.18289 0.71491 0.0
H436 H 0.5189 0.31462 0.82025 0.0
H437 H 0.50054 0.34064 0.84857 0.0
H438 H 0.43744 0.33754 0.84032 0.0
H439 H 0.45612 0.31064 0.81266 0.0
C440 C 0.97462 0.7297 0.70231 0.0
Eu441 Eu 0.98213 0.749 0.73479 0.0
C442 C 0.98455 0.72148 0.67762 0.0
C443 C 0.97074 0.72355 0.65923 0.0
C444 C 0.97911 0.71463 0.63647 0.0
C445 C 0.00148 0.70339 0.63171 0.0
C446 C 0.01554 0.70205 0.64957 0.0
C447 C 0.00714 0.71108 0.67242 0.0
C448 C 0.95597 0.78717 0.74283 0.0
C449 C 0.02069 0.76871 0.70809 0.0
C450 C 0.00866 0.7853 0.79986 0.0
Eu451 Eu -0.00018 0.76654 0.76771 0.0
C452 C -0.00097 0.79843 0.8204 0.0
C453 C 0.00882 0.7933 0.84346 0.0
C454 C 0.00298 0.80708 0.86119 0.0
C455 C 0.98727 0.8263 0.85611 0.0
C456 C 0.97641 0.83095 0.83386 0.0
C457 C 0.98222 0.8171 0.81611 0.0
C458 C 0.02563 0.72827 0.75909 0.0
C459 C 0.95988 0.74848 0.79368 0.0
O460 O 0.98409 0.72055 0.72336 0.0
O461 O 0.9677 0.7495 0.70046 0.0
O462 O 0.94883 0.77238 0.74217 0.0
O463 O 0.97674 0.78154 0.73829 0.0
O464 O 0.01184 0.75465 0.7077 0.0
O465 O 0.01585 0.77824 0.72856 0.0
O466 O 0.00483 0.79334 0.77571 0.0
O467 O 0.00887 0.76636 0.80585 0.0
O468 O 0.03307 0.74297 0.75908 0.0
O469 O 0.00497 0.73409 0.76451 0.0
O470 O 0.96879 0.76264 0.79363 0.0
O471 O 0.96524 0.7382 0.77385 0.0
H472 H 0.9533 0.73158 0.66287 0.0
H473 H 0.96783 0.71569 0.62323 0.0
H474 H 0.03286 0.69374 0.64602 0.0
H475 H 0.01816 0.70954 0.68623 0.0
H476 H 0.0218 0.779 0.84715 0.0
H477 H 0.01141 0.80302 0.87836 0.0
H478 H 0.96444 0.84575 0.82934 0.0
H479 H 0.97435 0.82143 0.79846 0.0
C480 C 0.73346 0.50733 0.18305 0.0
Eu481 Eu 0.73894 0.50465 0.23158 0.0
C482 C 0.71725 0.50356 0.17079 0.0
C483 C 0.70661 0.48935 0.1839 0.0
C484 C 0.69039 0.48655 0.17281 0.0
C485 C 0.68429 0.4981 0.14856 0.0
C486 C 0.6951 0.51227 0.13543 0.0
C487 C 0.71151 0.51491 0.14647 0.0
C488 C 0.72629 0.47848 0.2742 0.0
C489 C 0.70104 0.53738 0.2658 0.0
C490 C 0.75755 0.51095 0.33108 0.0
Eu491 Eu 0.74795 0.51259 0.28478 0.0
C492 C 0.7573 0.52458 0.34865 0.0
C493 C 0.75388 0.54541 0.33965 0.0
C494 C 0.7578 0.55733 0.35513 0.0
C495 C 0.7653 0.54851 0.37968 0.0
C496 C 0.76704 0.52795 0.38926 0.0
C497 C 0.76307 0.51613 0.37386 0.0
C498 C 0.75185 0.5413 0.24179 0.0
C499 C 0.78425 0.47765 0.25278 0.0
O500 O 0.72584 0.52287 0.1959 0.0
O501 O 0.74673 0.49128 0.19574 0.0
O502 O 0.7241 0.47863 0.25005 0.0
O503 O 0.73382 0.49261 0.27357 0.0
O504 O 0.70935 0.53132 0.24256 0.0
O505 O 0.71155 0.52969 0.28671 0.0
O506 O 0.77169 0.51076 0.30944 0.0
O507 O 0.73846 0.51057 0.32737 0.0
O508 O 0.74598 0.5449 0.2659 0.0
O509 O 0.75773 0.52229 0.24173 0.0
O510 O 0.7753 0.48353 0.27597 0.0
O511 O 0.77487 0.48652 0.23127 0.0
H512 H 0.71076 0.48048 0.20279 0.0
H513 H 0.68271 0.47525 0.18322 0.0
H514 H 0.69062 0.52158 0.11688 0.0
H515 H 0.71956 0.52597 0.13621 0.0
H516 H 0.7493 0.55215 0.32018 0.0
H517 H 0.75605 0.57315 0.34731 0.0
H518 H 0.77312 0.52047 0.40781 0.0
H519 H 0.76579 0.50005 0.38101 0.0
C520 C 0.68594 0.75192 0.98803 0.0
Eu521 Eu 0.72213 0.75612 0.99591 0.0
C522 C 0.6785 0.73447 0.9888 0.0
C523 C 0.66045 0.73703 0.97635 0.0
C524 C 0.65353 0.7204 0.97651 0.0
C525 C 0.66487 0.70089 0.98872 0.0
C526 C 0.68303 0.69839 0.00108 0.0
C527 C 0.68978 0.71505 0.00112 0.0
C528 C 0.76146 0.7434 0.96563 0.0
C529 C 0.74707 0.71725 0.03827 0.0
C530 C 0.79778 0.76049 0.02593 0.0
Eu531 Eu 0.76109 0.75733 0.018 0.0
C532 C 0.80784 0.77661 0.02276 0.0
C533 C 0.81942 0.77677 0.04248 0.0
C534 C 0.82818 0.79249 0.04065 0.0
C535 C 0.82549 0.80833 0.01902 0.0
C536 C 0.8142 0.80792 0.99901 0.0
C537 C 0.80541 0.79219 0.00089 0.0
C538 C 0.72172 0.76944 0.04839 0.0
C539 C 0.73578 0.79656 0.97641 0.0
O540 O 0.68891 0.75495 0.01065 0.0
O541 O 0.70182 0.75385 0.96915 0.0
O542 O 0.74322 0.7535 0.95622 0.0
O543 O 0.75795 0.73937 0.9904 0.0
O544 O 0.72886 0.72766 0.0276 0.0
O545 O 0.76389 0.72438 0.03386 0.0
O546 O 0.79529 0.7555 0.00434 0.0
O547 O 0.78071 0.7616 0.04413 0.0
O548 O 0.73992 0.75898 0.05777 0.0
O549 O 0.72525 0.77396 0.02368 0.0
O550 O 0.75411 0.78615 0.98688 0.0
O551 O 0.71907 0.78925 0.98072 0.0
H552 H 0.65176 0.75188 0.96644 0.0
H553 H 0.63966 0.72271 0.96654 0.0
H554 H 0.69199 0.68355 0.01075 0.0
H555 H 0.70393 0.71272 0.01053 0.0
H556 H 0.82149 0.76484 0.05947 0.0
H557 H 0.83706 0.79224 0.05617 0.0
H558 H 0.81169 0.82001 0.98223 0.0
H559 H 0.79652 0.79235 0.98545 0.0
C560 C 0.55318 0.99866 0.45526 0.0
Eu561 Eu 0.51143 1.00824 0.47155 0.0
C562 C 0.56793 1.01063 0.45429 0.0
C563 C 0.56146 0.03154 0.44427 0.0
C564 C 0.57351 0.04365 0.44697 0.0
C565 C 0.59221 0.03523 0.45997 0.0
C566 C 0.59917 0.01418 0.46922 0.0
C567 C 0.58707 1.00198 0.46644 0.0
C568 C 0.47682 0.02727 0.44458 0.0
C569 C 0.49009 0.05067 0.49567 0.0
C570 C 0.42262 0.02578 0.51797 0.0
Eu571 Eu 0.46472 0.01654 0.50555 0.0
C572 C 0.40911 0.01676 0.50799 0.0
C573 C 0.38982 0.01388 0.52304 0.0
C574 C 0.37967 1.00179 0.51544 0.0
C575 C 0.38884 0.99231 0.49284 0.0
C576 C 0.40746 0.99618 0.47716 0.0
C577 C 0.41753 1.0081 0.48478 0.0
C578 C 0.49927 0.99836 0.53264 0.0
C579 C 0.48758 0.97321 0.48522 0.0
O580 O 0.54518 0.99181 0.47902 0.0
O581 O 0.53833 1.00625 0.43914 0.0
O582 O 0.49599 0.02973 0.43675 0.0
O583 O 0.47789 0.01329 0.4641 0.0
O584 O 0.50776 0.03791 0.48411 0.0
O585 O 0.47131 0.04643 0.50406 0.0
O586 O 0.43196 0.03746 0.50012 0.0
O587 O 0.4363 0.01284 0.53359 0.0
O588 O 0.48019 0.99572 0.54111 0.0
O589 O 0.49792 0.01177 0.51264 0.0
O590 O 0.46913 0.9871 0.49267 0.0
O591 O 0.50649 0.97715 0.47806 0.0
H592 H 0.54661 0.03877 0.43514 0.0
H593 H 0.5679 0.05976 0.43934 0.0
H594 H 0.61339 1.00731 0.47956 0.0
H595 H 0.59216 0.98597 0.47468 0.0
H596 H 0.38326 0.02012 0.54125 0.0
H597 H 0.36545 0.9989 0.52806 0.0
H598 H 0.41482 0.98925 0.45957 0.0
H599 H 0.43266 1.00964 0.47316 0.0
C600 C 0.54967 0.50819 0.94802 0.0
Eu601 Eu 0.51191 0.51275 0.97725 0.0
C602 C 0.56745 0.51478 0.95261 0.0
C603 C 0.5806 0.52251 0.9313 0.0
C604 C 0.5933 0.53367 0.93552 0.0
C605 C 0.59268 0.53739 0.96104 0.0
C606 C 0.58076 0.5284 0.98249 0.0
C607 C 0.56828 0.51718 0.97831 0.0
C608 C 0.47196 0.53926 0.96783 0.0
C609 C 0.50016 0.54292 0.01999 0.0
C610 C 0.43785 0.51227 0.0539 0.0
Eu611 Eu 0.4744 0.51067 0.02286 0.0
C612 C 0.42114 0.5032 0.05161 0.0
C613 C 0.41428 0.49015 0.07315 0.0
C614 C 0.40262 0.4778 0.0697 0.0
C615 C 0.39756 0.47827 0.0446 0.0
C616 C 0.40323 0.4923 0.02345 0.0
C617 C 0.41502 0.50449 0.02686 0.0
C618 C 0.51501 0.48459 0.03157 0.0
C619 C 0.48373 0.48285 0.97779 0.0
O620 O 0.54514 0.49341 0.96546 0.0
O621 O 0.53199 0.52321 0.94239 0.0
O622 O 0.49036 0.54279 0.95793 0.0
O623 O 0.4759 0.52134 0.98005 0.0
O624 O 0.51546 0.53301 0.00266 0.0
O625 O 0.48175 0.53834 0.02915 0.0
O626 O 0.44023 0.5275 0.03566 0.0
O627 O 0.4567 0.49897 0.05914 0.0
O628 O 0.4969 0.4804 0.04078 0.0
O629 O 0.51044 0.50266 0.02003 0.0
O630 O 0.46932 0.49235 0.99612 0.0
O631 O 0.50269 0.48651 0.96911 0.0
H632 H 0.57991 0.52109 0.91131 0.0
H633 H 0.60228 0.54063 0.91869 0.0
H634 H 0.5801 0.53105 0.00234 0.0
H635 H 0.55804 0.51168 0.99504 0.0
H636 H 0.41907 0.48864 0.09233 0.0
H637 H 0.39868 0.46706 0.08641 0.0
H638 H 0.39928 0.49335 0.00395 0.0
H639 H 0.42034 0.51408 0.00973 0.0
H640 H 0.96407 0.07226 0.04993 0.0
H641 H 0.96374 0.10407 0.06073 0.0
H642 H -0.00499 0.11918 0.9817 0.0
H643 H -0.00257 0.08597 0.972 0.0
H644 H 0.01402 0.12768 0.01009 0.0
H645 H 0.93872 0.14752 0.00906 0.0
H646 H 0.90091 0.14591 0.01626 0.0
H647 H 0.89923 0.13943 0.1 0.0
H648 H 0.93713 0.14068 0.09339 0.0
H649 H 0.98601 0.21884 0.08253 0.0
H650 H 0.98515 0.2 0.0486 0.0
H651 H 0.00437 0.14371 0.10219 0.0
H652 H 0.00507 0.16224 0.13614 0.0
H653 H 0.95615 0.16647 0.07318 0.0
H654 H 0.03938 0.13673 0.06644 0.0
H655 H 0.07691 0.13897 0.05234 0.0
H656 H 0.0601 0.16868 0.97541 0.0
H657 H 0.02244 0.16678 0.98917 0.0
C658 C 0.97058 0.08256 0.03481 0.0
C659 C 0.98075 0.07688 0.01021 0.0
C660 C 0.97012 0.10093 0.04082 0.0
C661 C 0.97886 0.11448 0.02187 0.0
C662 C 0.98814 0.10909 0.99672 0.0
C663 C 0.98945 0.09023 0.99109 0.0
C664 C 0.98075 0.13275 0.02974 0.0
C665 C 0.00118 0.13623 0.0236 0.0
C666 C 0.96377 0.14484 0.04647 0.0
C667 C 0.94085 0.14418 0.05069 0.0
C668 C 0.93034 0.14565 0.02903 0.0
C669 C 0.90888 0.14481 0.03301 0.0
C670 C 0.89768 0.14257 0.05857 0.0
C671 C 0.90791 0.1412 0.08021 0.0
C672 C 0.92938 0.14203 0.07635 0.0
C673 C -0.00948 0.2024 0.08684 0.0
C674 C -0.0045 0.19202 0.11205 0.0
C675 C -0.00984 0.1917 0.06741 0.0
C676 C -0.00509 0.17053 0.07294 0.0
C677 C 0.00105 0.16005 0.0975 0.0
C678 C 0.00149 0.17067 0.11685 0.0
C679 C -0.01008 0.15953 0.05529 0.0
C680 C 0.96874 0.15785 0.05939 0.0
C681 C 0.00599 0.14945 0.03621 0.0
C682 C 0.02798 0.15208 0.02903 0.0
C683 C 0.04353 0.1442 0.04676 0.0
C684 C 0.06488 0.14525 0.03874 0.0
C685 C 0.07081 0.15408 0.01303 0.0
C686 C 0.05543 0.16195 0.99534 0.0
C687 C 0.0341 0.16092 0.00324 0.0
H688 H 0.08733 0.15474 0.00663 0.0
H689 H 0.88107 0.1419 0.0616 0.0
H690 H 0.77692 0.24493 0.41167 0.0
H691 H 0.81407 0.24024 0.38779 0.0
H692 H 0.84002 0.22583 0.46157 0.0
H693 H 0.80289 0.22962 0.48572 0.0
H694 H 0.85089 0.2595 0.41876 0.0
H695 H 0.8537 0.18919 0.4353 0.0
H696 H 0.83958 0.16099 0.43585 0.0
H697 H 0.84055 0.17559 0.3518 0.0
H698 H 0.85436 0.20409 0.3508 0.0
H699 H 0.95816 0.24475 0.34868 0.0
H700 H 0.92807 0.23899 0.38213 0.0
H701 H 0.89695 0.23049 0.32195 0.0
H702 H 0.92732 0.23535 0.28873 0.0
H703 H 0.89113 0.20538 0.36379 0.0
H704 H 0.8825 0.27698 0.34585 0.0
H705 H 0.89385 0.30735 0.34213 0.0
H706 H 0.90042 0.29342 0.4246 0.0
H707 H 0.8894 0.26277 0.42872 0.0
C708 C 0.79057 0.24051 0.42282 0.0
C709 C 0.78704 0.2379 0.45051 0.0
C710 C 0.81173 0.23786 0.40917 0.0
C711 C 0.82966 0.23279 0.42298 0.0
C712 C 0.8263 0.22982 0.45065 0.0
C713 C 0.80514 0.23204 0.46436 0.0
C714 C 0.85169 0.2315 0.40818 0.0
C715 C 0.86002 0.24745 0.40718 0.0
C716 C 0.86306 0.2161 0.39251 0.0
C717 C 0.8549 0.19888 0.39302 0.0
C718 C 0.85072 0.1865 0.41697 0.0
C719 C 0.84281 0.17044 0.41735 0.0
C720 C 0.83913 0.16652 0.39388 0.0
C721 C 0.8434 0.17864 0.36997 0.0
C722 C 0.85129 0.19474 0.36948 0.0
C723 C 0.94502 0.24142 0.34265 0.0
C724 C 0.94505 0.24065 0.31603 0.0
C725 C 0.92778 0.23821 0.36177 0.0
C726 C 0.90999 0.2347 0.35451 0.0
C727 C 0.91045 0.23317 0.32808 0.0
C728 C 0.92784 0.23601 0.30907 0.0
C729 C 0.89036 0.23359 0.37397 0.0
C730 C 0.88234 0.21726 0.37574 0.0
C731 C 0.87897 0.24894 0.38989 0.0
C732 C 0.8854 0.26745 0.38752 0.0
C733 C 0.88652 0.28031 0.36315 0.0
C734 C 0.89287 0.29759 0.36097 0.0
C735 C 0.89793 0.30227 0.3831 0.0
C736 C 0.89655 0.28974 0.40747 0.0
C737 C 0.89025 0.27242 0.40974 0.0
H738 H 0.90286 0.31564 0.38137 0.0
H739 H 0.833 0.15408 0.39422 0.0
H740 H 0.72425 0.05811 0.69541 0.0
H741 H 0.72353 0.08847 0.66231 0.0
H742 H 0.79014 0.08114 0.67104 0.0
H743 H 0.79081 0.05096 0.70436 0.0
H744 H 0.76566 0.11976 0.67153 0.0
H745 H 0.77647 0.07049 0.61545 0.0
H746 H 0.76796 0.04396 0.59969 0.0
H747 H 0.70482 0.08596 0.58408 0.0
H748 H 0.71282 0.11267 0.6001 0.0
H749 H 0.78263 0.19551 0.56321 0.0
H750 H 0.78529 0.16336 0.59319 0.0
H751 H 0.72001 0.16796 0.58232 0.0
H752 H 0.71748 0.19972 0.5519 0.0
H753 H 0.74435 0.13032 0.58256 0.0
H754 H 0.73202 0.179 0.63955 0.0
H755 H 0.73901 0.20594 0.65625 0.0
H756 H 0.80306 0.1657 0.67125 0.0
H757 H 0.79656 0.13859 0.6543 0.0
C758 C 0.73885 0.06281 0.69003 0.0
C759 C 0.75761 0.05203 0.70256 0.0
C760 C 0.73844 0.08021 0.67102 0.0
C761 C 0.75683 0.0872 0.66388 0.0
C762 C 0.77569 0.07621 0.67611 0.0
C763 C 0.7761 0.05884 0.69511 0.0
C764 C 0.75623 0.10628 0.64442 0.0
C765 C 0.76133 0.1219 0.65192 0.0
C766 C 0.74996 0.10953 0.61901 0.0
C767 C 0.74517 0.09352 0.60921 0.0
C768 C 0.7607 0.07403 0.60884 0.0
C769 C 0.75598 0.05896 0.59983 0.0
C770 C 0.73584 0.06326 0.59096 0.0
C771 C 0.7204 0.08265 0.591 0.0
C772 C 0.72503 0.09776 0.60002 0.0
C773 C 0.76884 0.18969 0.56716 0.0
C774 C 0.74982 0.20038 0.55507 0.0
C775 C 0.77032 0.17128 0.58449 0.0
C776 C 0.75272 0.16317 0.59051 0.0
C777 C 0.73386 0.17372 0.57816 0.0
C778 C 0.73242 0.19203 0.56074 0.0
C779 C 0.75384 0.14381 0.60965 0.0
C780 C 0.74878 0.12817 0.60212 0.0
C781 C 0.75995 0.1406 0.63514 0.0
C782 C 0.76389 0.15684 0.6454 0.0
C783 C 0.74766 0.17595 0.64623 0.0
C784 C 0.75152 0.19124 0.65577 0.0
C785 C 0.77149 0.18755 0.66473 0.0
C786 C 0.78762 0.16854 0.66425 0.0
C787 C 0.78384 0.1532 0.6547 0.0
H788 H 0.77445 0.19941 0.67211 0.0
H789 H 0.73221 0.05157 0.584 0.0
H790 H 0.9887 0.03559 0.90739 0.0
H791 H 0.96639 0.03085 0.87804 0.0
H792 H 0.91424 0.03062 0.94303 0.0
H793 H 0.93616 0.03574 0.97194 0.0
H794 H 0.93672 0.99288 0.91811 0.0
H795 H 0.90265 0.06673 0.8989 0.0
H796 H 0.90394 0.1015 0.88107 0.0
H797 H 0.93198 0.08374 0.80498 0.0
H798 H 0.93113 0.04876 0.8225 0.0
H799 H 0.83103 1.00468 0.89599 0.0
H800 H 0.86623 1.00341 0.90664 0.0
H801 H 0.8943 1.002 0.82495 0.0
H802 H 0.85933 1.00229 0.81436 0.0
H803 H 0.89379 0.036 0.84693 0.0
H804 H 0.91967 0.9657 0.86095 0.0
H805 H 0.92465 0.92917 0.87527 0.0
H806 H 0.91943 0.93645 0.95585 0.0
H807 H 0.91341 0.97318 0.94227 0.0
C808 C 0.97208 0.03547 0.915 0.0
C809 C 0.96409 0.03574 0.94196 0.0
C810 C 0.95947 0.03263 0.89832 0.0
C811 C 0.93891 0.03012 0.90862 0.0
C812 C 0.93017 0.0324 0.93487 0.0
C813 C 0.94266 0.03531 0.95137 0.0
C814 C 0.92771 0.02214 0.89376 0.0
C815 C 0.92727 1.00215 0.9025 0.0
C816 C 0.91661 0.03409 0.87251 0.0
C817 C 0.91713 0.05508 0.86209 0.0
C818 C 0.90933 0.07018 0.87845 0.0
C819 C 0.90992 0.08994 0.86838 0.0
C820 C 0.91812 0.09481 0.84194 0.0
C821 C 0.92569 0.07994 0.82548 0.0
C822 C 0.92515 0.06015 0.83546 0.0
C823 C 0.84492 1.00334 0.8805 0.0
C824 C 0.84251 1.00341 0.85444 0.0
C825 C 0.86503 1.00254 0.88659 0.0
C826 C 0.88285 1.00243 0.86658 0.0
C827 C 0.88078 1.00178 0.84068 0.0
C828 C 0.86082 1.00197 0.8347 0.0
C829 C 0.90175 1.00688 0.87226 0.0
C830 C 0.90371 0.02628 0.86192 0.0
C831 C 0.91467 0.99414 0.89173 0.0
C832 C 0.91587 0.97241 0.90052 0.0
C833 C 0.91901 0.95968 0.88181 0.0
C834 C 0.92211 0.93887 0.8898 0.0
C835 C 0.92229 0.93051 0.91645 0.0
C836 C 0.91921 0.94296 0.93522 0.0
C837 C 0.91584 0.96381 0.92738 0.0
H838 H 0.92483 0.91439 0.92253 0.0
H839 H 0.91855 0.11012 0.83417 0.0
H840 H -0.0008 0.04642 0.0684 0.0
H841 H 0.03145 0.05306 0.0769 0.0
H842 H 0.07246 0.99416 0.05763 0.0
H843 H 0.04016 0.98733 0.04979 0.0
H844 H 0.08178 1.00204 0.10104 0.0
H845 H 0.06102 0.03954 0.01767 0.0
H846 H 0.0389 0.06589 0.98671 0.0
H847 H 0.05469 0.11184 0.01301 0.0
H848 H 0.07308 0.08658 0.0479 0.0
H849 H 0.18622 1.00785 0.08866 0.0
H850 H 0.1544 1.00868 0.07056 0.0
H851 H 0.11674 0.06475 0.10006 0.0
H852 H 0.14883 0.0643 0.11798 0.0
H853 H 0.10621 0.05979 0.04991 0.0
H854 H 0.11442 0.0257 0.13951 0.0
H855 H 0.13573 1.00151 0.1734 0.0
H856 H 0.14545 0.9523 0.1318 0.0
H857 H 0.12453 0.9763 0.09737 0.0
C858 C 0.01508 0.03482 0.06631 0.0
C859 C 0.01737 0.0165 0.05795 0.0
C860 C 0.03347 0.03869 0.07098 0.0
C861 C 0.0544 0.0243 0.06732 0.0
C862 C 0.05648 1.00558 0.06027 0.0
C863 C 0.03809 1.0017 0.05572 0.0
C864 C 0.07429 0.02843 0.07093 0.0
C865 C 0.08701 0.0147 0.08971 0.0
C866 C 0.08089 0.04532 0.05644 0.0
C867 C 0.06832 0.06083 0.03618 0.0
C868 C 0.05895 0.05529 0.01804 0.0
C869 C 0.04692 0.07016 -0.00029 0.0
C870 C 0.04574 0.09044 0.99754 0.0
C871 C 0.05554 0.09611 0.01473 0.0
C872 C 0.06628 0.08156 0.03432 0.0
C873 C 0.17152 0.02085 0.0904 0.0
C874 C 0.16998 0.03589 0.1051 0.0
C875 C 0.1533 0.02121 0.08012 0.0
C876 C 0.13321 0.03655 0.08443 0.0
C877 C 0.13214 0.05272 0.09669 0.0
C878 C 0.15041 0.05236 0.10708 0.0
C879 C 0.11282 0.0338 0.08017 0.0
C880 C 0.10035 0.04752 0.06128 0.0
C881 C 0.10595 0.01734 0.09478 0.0
C882 C 0.1181 1.00282 0.11575 0.0
C883 C 0.12124 1.00974 0.1375 0.0
C884 C 0.13323 0.99607 0.1568 0.0
C885 C 0.14198 0.97538 0.15472 0.0
C886 C 0.13869 0.96833 0.13336 0.0
C887 C 0.12676 0.98196 0.11395 0.0
H888 H 0.15127 0.96482 0.16969 0.0
H889 H 0.03725 0.10174 0.98251 0.0
H890 H 0.01756 0.45607 0.46222 0.0
H891 H 0.01463 0.42776 0.44483 0.0
H892 H 0.94976 0.43616 0.48881 0.0
H893 H 0.95284 0.4636 0.50703 0.0
H894 H 0.96908 0.39743 0.48655 0.0
H895 H 0.95798 0.45963 0.42566 0.0
H896 H 0.96782 0.4892 0.39896 0.0
H897 H 0.02268 0.44933 0.35593 0.0
H898 H 0.01344 0.41949 0.38277 0.0
H899 H 0.9471 0.37275 0.35554 0.0
H900 H 0.94512 0.39654 0.38445 0.0
H901 H -0.01022 0.34825 0.43109 0.0
H902 H -0.00818 0.32456 0.40232 0.0
H903 H 0.97788 0.40789 0.38876 0.0
H904 H 0.98244 0.35796 0.49379 0.0
H905 H 0.96584 0.33275 0.52158 0.0
H906 H 0.91194 0.35471 0.47639 0.0
H907 H 0.92812 0.38007 0.44844 0.0
C908 C 0.00292 0.45152 0.4687 0.0
C909 C 0.9853 0.46233 0.48564 0.0
C910 C 0.00122 0.4354 0.45866 0.0
C911 C 0.98175 0.43014 0.46505 0.0
C912 C 0.9649 0.43991 0.48351 0.0
C913 C 0.96668 0.45576 0.49382 0.0
C914 C 0.9779 0.41601 0.45068 0.0
C915 C 0.97112 0.3996 0.46516 0.0
C916 C 0.97971 0.41938 0.4228 0.0
C917 C 0.98511 0.43732 0.40638 0.0
C918 C 0.97219 0.45717 0.41058 0.0
C919 C 0.97766 0.47397 0.39544 0.0
C920 C -0.00415 0.47114 0.37577 0.0
C921 C 0.0086 0.4515 0.37119 0.0
C922 C 0.00326 0.43463 0.38638 0.0
C923 C 0.9562 0.3672 0.3722 0.0
C924 C 0.96975 0.34687 0.37652 0.0
C925 C 0.95504 0.38076 0.38872 0.0
C926 C 0.96736 0.37419 0.40988 0.0
C927 C 0.97989 0.35362 0.41512 0.0
C928 C 0.98102 0.34006 0.39865 0.0
C929 C 0.96918 0.38914 0.42461 0.0
C930 C 0.97577 0.40566 0.41015 0.0
C931 C 0.96616 0.38642 0.4525 0.0
C932 C 0.95665 0.37079 0.46883 0.0
C933 C 0.96706 0.35739 0.48977 0.0
C934 C 0.95772 0.34307 0.50555 0.0
C935 C 0.9379 0.34208 0.50069 0.0
C936 C 0.92737 0.3554 0.48004 0.0
C937 C 0.93667 0.3697 0.46415 0.0
H938 H 0.93067 0.33102 0.51298 0.0
H939 H 6e-05 0.48417 0.36406 0.0
H940 H 0.67905 0.2852 0.52167 0.0
H941 H 0.64296 0.28684 0.54713 0.0
H942 H 0.67032 0.27669 0.61935 0.0
H943 H 0.70663 0.27303 0.59406 0.0
H944 H 0.64678 0.2548 0.62728 0.0
H945 H 0.63424 0.32498 0.58982 0.0
H946 H 0.63335 0.35433 0.55445 0.0
H947 H 0.58746 0.34008 0.51949 0.0
H948 H 0.58828 0.31048 0.5545 0.0
H949 H 0.54931 0.28831 0.71401 0.0
H950 H 0.58035 0.29257 0.68136 0.0
H951 H 0.55787 0.27074 0.62477 0.0
H952 H 0.52685 0.26593 0.65759 0.0
H953 H 0.577 0.30837 0.60733 0.0
H954 H 0.58987 0.23796 0.65162 0.0
H955 H 0.58878 0.21364 0.69279 0.0
H956 H 0.63544 0.23249 0.71975 0.0
H957 H 0.6358 0.25786 0.67943 0.0
C958 C 0.67732 0.28312 0.54299 0.0
C959 C 0.69569 0.27846 0.55594 0.0
C960 C 0.6566 0.28438 0.55756 0.0
C961 C 0.65375 0.28197 0.5853 0.0
C962 C 0.67202 0.27836 0.59805 0.0
C963 C 0.69278 0.27641 0.58356 0.0
C964 C 0.63211 0.28227 0.6013 0.0
C965 C 0.63164 0.26668 0.62291 0.0
C966 C 0.61212 0.29755 0.59562 0.0
C967 C 0.61151 0.31539 0.57462 0.0
C968 C 0.62407 0.32802 0.57449 0.0
C969 C 0.62356 0.34472 0.55452 0.0
C970 C 0.61041 0.34903 0.53469 0.0
C971 C 0.59767 0.33669 0.53484 0.0
C972 C 0.59814 0.31997 0.55475 0.0
C973 C 0.55066 0.28476 0.69448 0.0
C974 C 0.53574 0.27658 0.68845 0.0
C975 C 0.56838 0.28727 0.67586 0.0
C976 C 0.57132 0.28194 0.65079 0.0
C977 C 0.55573 0.27501 0.64404 0.0
C978 C 0.53816 0.27213 0.66286 0.0
C979 C 0.59208 0.28118 0.63307 0.0
C980 C 0.59229 0.29654 0.6113 0.0
C981 C 0.61196 0.26608 0.63902 0.0
C982 C 0.61265 0.25002 0.66259 0.0
C983 C 0.59972 0.2371 0.66643 0.0
C984 C 0.59925 0.2231 0.68961 0.0
C985 C 0.61212 0.22141 0.7088 0.0
C986 C 0.62547 0.2338 0.70487 0.0
C987 C 0.62573 0.24807 0.6819 0.0
H988 H 0.61173 0.21053 0.72672 0.0
H989 H 0.61005 0.36195 0.51924 0.0
H990 H 0.69459 0.96441 0.80751 0.0
H991 H 0.69571 0.93419 0.84076 0.0
H992 H 0.76043 0.93012 0.85317 0.0
H993 H 0.75954 0.96016 0.81936 0.0
H994 H 0.76039 0.89377 0.85078 0.0
H995 H 0.71254 0.9461 0.89924 0.0
H996 H 0.68071 0.97625 0.90795 0.0
H997 H 0.63676 0.94397 0.90441 0.0
H998 H 0.66836 0.9137 0.89533 0.0
H999 H 0.76575 0.81761 0.96474 0.0
H1000 H 0.76378 0.84971 0.93519 0.0
H1001 H 0.70036 0.85349 0.91872 0.0
H1002 H 0.70207 0.82149 0.94866 0.0
H1003 H 0.70001 0.89023 0.92398 0.0
H1004 H 0.74916 0.83762 0.87511 0.0
H1005 H 0.78171 0.80768 0.86779 0.0
H1006 H 0.82381 0.84119 0.87356 0.0
H1007 H 0.79163 0.8711 0.88128 0.0
C1008 C 0.70898 0.95724 0.81751 0.0
C1009 C 0.72695 0.96482 0.81074 0.0
C1010 C 0.70959 0.93991 0.83669 0.0
C1011 C 0.72808 0.92976 0.84993 0.0
C1012 C 0.74594 0.93752 0.84339 0.0
C1013 C 0.74537 0.95482 0.82411 0.0
C1014 C 0.72907 0.91075 0.86982 0.0
C1015 C 0.74729 0.89317 0.86699 0.0
C1016 C 0.71187 0.90954 0.89085 0.0
C1017 C 0.69283 0.9277 0.89636 0.0
C1018 C 0.6961 0.94548 0.90012 0.0
C1019 C 0.67809 0.96258 0.90516 0.0
C1020 C 0.65673 0.96205 0.90666 0.0
C1021 C 0.65332 0.94438 0.90321 0.0
C1022 C 0.67127 0.92724 0.89814 0.0
C1023 C 0.75133 0.82523 0.95494 0.0
C1024 C 0.73414 0.81672 0.95915 0.0
C1025 C 0.75026 0.84365 0.93785 0.0
C1026 C 0.73207 0.85406 0.92418 0.0
C1027 C 0.71464 0.84586 0.92884 0.0
C1028 C 0.71567 0.82745 0.94601 0.0
C1029 C 0.7313 0.8733 0.90488 0.0
C1030 C 0.71311 0.89089 0.90778 0.0
C1031 C 0.74858 0.87455 0.88401 0.0
C1032 C 0.76797 0.85656 0.87899 0.0
C1033 C 0.76538 0.83854 0.87496 0.0
C1034 C 0.78379 0.82155 0.87072 0.0
C1035 C 0.80486 0.82247 0.87022 0.0
C1036 C 0.80756 0.8404 0.87392 0.0
C1037 C 0.78923 0.85739 0.87822 0.0
H1038 H 0.81908 0.80932 0.86692 0.0
H1039 H 0.64281 0.9753 0.91057 0.0
H1040 H 0.18537 0.29562 0.03479 0.0
H1041 H 0.1496 0.29621 0.0608 0.0
H1042 H 0.18219 0.25898 0.12677 0.0
H1043 H 0.21783 0.25784 0.10066 0.0
H1044 H 0.15219 0.24458 0.11943 0.0
H1045 H 0.15509 0.31033 0.12553 0.0
H1046 H 0.1591 0.34427 0.10834 0.0
H1047 H 0.10315 0.36061 0.06758 0.0
H1048 H 0.09897 0.32665 0.08426 0.0
H1049 H 0.04922 0.29097 0.21486 0.0
H1050 H 0.0821 0.29397 0.18502 0.0
H1051 H 0.0737 0.25571 0.13646 0.0
H1052 H 0.04099 0.25226 0.16651 0.0
H1053 H 0.09122 0.30799 0.13435 0.0
H1054 H 0.12556 0.22468 0.11388 0.0
H1055 H 0.12301 0.19074 0.13469 0.0
H1056 H 0.10698 0.20937 0.21106 0.0
H1057 H 0.10995 0.24325 0.19078 0.0
C1058 C 0.18482 0.28767 0.0549 0.0
C1059 C 0.20431 0.27657 0.06568 0.0
C1060 C 0.16441 0.28807 0.06976 0.0
C1061 C 0.16322 0.27764 0.09576 0.0
C1062 C 0.18271 0.26701 0.10671 0.0
C1063 C 0.20306 0.26651 0.09183 0.0
C1064 C 0.14177 0.27736 0.11153 0.0
C1065 C 0.13883 0.25844 0.12261 0.0
C1066 C 0.12442 0.29545 0.1159 0.0
C1067 C 0.12686 0.31589 0.10592 0.0
C1068 C 0.14374 0.32111 0.11273 0.0
C1069 C 0.14603 0.34036 0.10312 0.0
C1070 C 0.13143 0.35457 0.08682 0.0
C1071 C 0.11447 0.34958 0.08017 0.0
C1072 C 0.11212 0.33034 0.08971 0.0
C1073 C 0.0542 0.28333 0.19771 0.0
C1074 C 0.04258 0.27119 0.19324 0.0
C1075 C 0.07299 0.28512 0.18062 0.0
C1076 C 0.08053 0.27483 0.15874 0.0
C1077 C 0.06838 0.2635 0.15349 0.0
C1078 C 0.04964 0.2616 0.17066 0.0
C1079 C 0.10166 0.27521 0.14225 0.0
C1080 C 0.10452 0.29412 0.13097 0.0
C1081 C 0.11914 0.2571 0.1382 0.0
C1082 C 0.11766 0.23663 0.15072 0.0
C1083 C 0.12157 0.22152 0.13511 0.0
C1084 C 0.12007 0.20227 0.14683 0.0
C1085 C 0.11472 0.19793 0.17417 0.0
C1086 C 0.11103 0.21278 0.18987 0.0
C1087 C 0.11262 0.232 0.17827 0.0
H1088 H 0.1135 0.18306 0.18319 0.0
H1089 H 0.13322 0.36947 0.07939 0.0
H1090 H 0.73791 0.47229 0.32379 0.0
H1091 H 0.73717 0.44355 0.35938 0.0
H1092 H 0.70991 0.41862 0.31094 0.0
H1093 H 0.71039 0.44738 0.2756 0.0
H1094 H 0.69034 0.4148 0.36254 0.0
H1095 H 0.76467 0.40374 0.31624 0.0
H1096 H 0.79777 0.4143 0.30091 0.0
H1097 H 0.80663 0.41063 0.38107 0.0
H1098 H 0.7728 0.40123 0.39694 0.0
H1099 H 0.71042 0.31276 0.42676 0.0
H1100 H 0.70804 0.34434 0.39586 0.0
H1101 H 0.74894 0.35881 0.43913 0.0
H1102 H 0.75241 0.32663 0.46904 0.0
H1103 H 0.76102 0.36962 0.39212 0.0
H1104 H 0.68923 0.38321 0.44034 0.0
H1105 H 0.65385 0.37762 0.46002 0.0
H1106 H 0.63918 0.37965 0.38292 0.0
H1107 H 0.67462 0.38497 0.36278 0.0
C1108 C 0.73147 0.46083 0.32091 0.0
C1109 C 0.72421 0.46214 0.29684 0.0
C1110 C 0.73116 0.44431 0.34122 0.0
C1111 C 0.72371 0.42865 0.33787 0.0
C1112 C 0.71575 0.43039 0.31415 0.0
C1113 C 0.71609 0.44685 0.29388 0.0
C1114 C 0.72506 0.41 0.35834 0.0
C1115 C 0.70584 0.40481 0.36883 0.0
C1116 C 0.74512 0.39726 0.36743 0.0
C1117 C 0.76603 0.40197 0.35779 0.0
C1118 C 0.77357 0.4053 0.33063 0.0
C1119 C 0.79248 0.4111 0.32183 0.0
C1120 C 0.80441 0.41298 0.33999 0.0
C1121 C 0.79738 0.40916 0.36702 0.0
C1122 C 0.77826 0.40371 0.37593 0.0
C1123 C 0.71881 0.32272 0.42979 0.0
C1124 C 0.73151 0.31711 0.45057 0.0
C1125 C 0.71733 0.34096 0.41213 0.0
C1126 C 0.7279 0.3545 0.41518 0.0
C1127 C 0.74055 0.34886 0.43605 0.0
C1128 C 0.74247 0.3304 0.45333 0.0
C1129 C 0.72624 0.37419 0.39639 0.0
C1130 C 0.74544 0.37957 0.38607 0.0
C1131 C 0.70604 0.38747 0.38808 0.0
C1132 C 0.68469 0.38429 0.40007 0.0
C1133 C 0.67853 0.38232 0.42759 0.0
C1134 C 0.65846 0.37922 0.43883 0.0
C1135 C 0.6443 0.37823 0.42274 0.0
C1136 C 0.65017 0.38039 0.39536 0.0
C1137 C 0.67025 0.38347 0.38402 0.0
H1138 H 0.62877 0.37583 0.43148 0.0
H1139 H 0.81906 0.41744 0.33316 0.0
H1140 H 0.50431 0.97269 0.57992 0.0
H1141 H 0.53372 0.96564 0.6069 0.0
H1142 H 0.56413 1.00348 0.54673 0.0
H1143 H 0.53524 1.01055 0.52032 0.0
H1144 H 0.5943 0.9714 0.56582 0.0
H1145 H 0.52762 0.02053 0.60002 0.0
H1146 H 0.48915 0.03279 0.62052 0.0
H1147 H 0.50372 0.98737 0.6889 0.0
H1148 H 0.54236 0.97471 0.66867 0.0
H1149 H 0.65254 0.01524 0.62011 0.0
H1150 H 0.62324 1.01096 0.60143 0.0
H1151 H 0.61099 0.96922 0.67119 0.0
H1152 H 0.64007 0.97366 0.69018 0.0
H1153 H 0.57276 0.99549 0.65261 0.0
H1154 H 0.64215 0.95041 0.61727 0.0
H1155 H 0.68055 0.94249 0.5955 0.0
H1156 H 0.65968 0.98522 0.52685 0.0
H1157 H 0.6212 0.99358 0.54832 0.0
C1158 C 0.51749 0.97921 0.57247 0.0
C1159 C 0.51757 0.9921 0.54808 0.0
C1160 C 0.5342 0.97523 0.58783 0.0
C1161 C 0.55095 0.98422 0.5789 0.0
C1162 C 0.55141 0.99636 0.55404 0.0
C1163 C 0.53485 1.00035 0.53888 0.0
C1164 C 0.56735 0.98251 0.5957 0.0
C1165 C 0.58959 0.97655 0.58488 0.0
C1166 C 0.56118 0.98899 0.62072 0.0
C1167 C 0.53787 0.99651 0.6327 0.0
C1168 C 0.52265 0.01306 0.61936 0.0
C1169 C 0.50079 0.0201 0.63094 0.0
C1170 C 0.49397 1.01082 0.65597 0.0
C1171 C 0.50902 0.99451 0.66948 0.0
C1172 C 0.5309 0.9874 0.65797 0.0
C1173 C 0.64348 1.00527 0.6315 0.0
C1174 C 0.64864 0.99463 0.65645 0.0
C1175 C 0.62682 1.00283 0.62084 0.0
C1176 C 0.61536 0.98943 0.63474 0.0
C1177 C 0.61977 0.97953 0.66016 0.0
C1178 C 0.63631 0.98211 0.67096 0.0
C1179 C 0.59947 0.98518 0.62215 0.0
C1180 C 0.57747 0.98981 0.6339 0.0
C1181 C 0.60572 0.97801 0.59762 0.0
C1182 C 0.62881 0.97264 0.58445 0.0
C1183 C 0.64577 0.95815 0.59756 0.0
C1184 C 0.66755 0.95359 0.58527 0.0
C1185 C 0.67256 0.96335 0.55981 0.0
C1186 C 0.65578 0.97766 0.54655 0.0
C1187 C 0.63398 0.98228 0.55876 0.0
H1188 H 0.68943 0.95981 0.55035 0.0
H1189 H 0.47704 0.0163 0.66492 0.0
H1190 H 0.02412 0.94988 0.96677 0.0
H1191 H 0.01905 0.92506 0.94457 0.0
H1192 H 0.95165 0.93858 0.98135 0.0
H1193 H 0.95701 0.96209 0.0053 0.0
H1194 H 0.96589 0.90085 0.97851 0.0
H1195 H 0.96514 0.95983 0.91758 0.0
H1196 H 0.97699 0.98888 0.89277 0.0
H1197 H 0.03563 0.94781 0.85719 0.0
H1198 H 0.0243 0.9185 0.88212 0.0
H1199 H 0.94859 0.85231 0.87743 0.0
H1200 H 0.94449 0.87918 0.90297 0.0
H1201 H 0.01503 0.86298 0.89585 0.0
H1202 H 0.01921 0.83634 0.87059 0.0
H1203 H -0.00876 0.90613 0.88217 0.0
H1204 H 0.9893 0.84688 0.95138 0.0
H1205 H 0.97228 0.8207 0.97473 0.0
H1206 H 0.91102 0.86726 0.99146 0.0
H1207 H 0.92767 0.89369 0.96826 0.0
C1208 C 0.00837 0.9472 0.97071 0.0
C1209 C -0.00915 0.95831 0.98747 0.0
C1210 C 0.0054 0.93319 0.95773 0.0
C1211 C 0.98472 0.93039 0.96078 0.0
C1212 C 0.96765 0.94053 0.97869 0.0
C1213 C 0.97076 0.95413 0.99218 0.0
C1214 C 0.98075 0.91737 0.94472 0.0
C1215 C 0.97121 0.90221 0.9574 0.0
C1216 C 0.98696 0.91946 0.91702 0.0
C1217 C -0.00608 0.93698 0.90188 0.0
C1218 C 0.98061 0.95701 0.90458 0.0
C1219 C 0.98722 0.97352 0.89049 0.0
C1220 C 0.00704 0.9702 0.87344 0.0
C1221 C 0.02028 0.95036 0.87042 0.0
C1222 C 0.01376 0.93379 0.88451 0.0
C1223 C 0.96315 0.85452 0.88141 0.0
C1224 C 0.98421 0.84214 0.87227 0.0
C1225 C 0.9608 0.86978 0.896 0.0
C1226 C 0.97949 0.87296 0.90126 0.0
C1227 C 0.00044 0.86072 0.89198 0.0
C1228 C 0.00279 0.8454 0.87776 0.0
C1229 C 0.97771 0.88905 0.91627 0.0
C1230 C 0.98584 0.90498 0.90327 0.0
C1231 C 0.96949 0.88809 0.94343 0.0
C1232 C 0.95966 0.87222 0.95783 0.0
C1233 C 0.97217 0.85151 0.95994 0.0
C1234 C 0.96261 0.83664 0.97323 0.0
C1235 C 0.94058 0.84231 0.98457 0.0
C1236 C 0.92809 0.86288 0.98276 0.0
C1237 C 0.93759 0.87782 0.96958 0.0
H1238 H 0.93322 0.83075 0.99477 0.0
H1239 H 0.01213 0.98301 0.86255 0.0
H1240 H 0.09027 0.08145 0.92899 0.0
H1241 H 0.10187 0.10818 0.93726 0.0
H1242 H 0.13289 0.06815 0.00286 0.0
H1243 H 0.11809 0.04248 0.99764 0.0
H1244 H 0.11897 0.10089 0.01661 0.0
H1245 H 0.16164 0.08235 0.93649 0.0
H1246 H 0.17038 0.07432 0.8912 0.0
H1247 H 0.13246 0.13527 0.86233 0.0
H1248 H 0.12325 0.1436 0.90751 0.0
H1249 H 0.18688 0.1679 0.00151 0.0
H1250 H 0.17645 0.13845 0.99856 0.0
H1251 H 0.11487 0.17862 0.97416 0.0
H1252 H 0.12446 0.20807 0.97888 0.0
H1253 H 0.14756 0.14454 0.94092 0.0
H1254 H 0.11203 0.15979 0.02955 0.0
H1255 H 0.11332 0.16252 0.07511 0.0
H1256 H 0.15239 0.09963 0.08848 0.0
H1257 H 0.15163 0.0965 0.04279 0.0
C1258 C 0.09915 0.07826 0.94557 0.0
C1259 C 0.10316 0.05943 0.96249 0.0
C1260 C 0.10631 0.09358 0.94989 0.0
C1261 C 0.11896 0.09014 0.97018 0.0
C1262 C 0.12332 0.0713 0.98689 0.0
C1263 C 0.11523 0.0563 0.9834 0.0
C1264 C 0.12721 0.10634 0.97418 0.0
C1265 C 0.12558 0.11012 -2e-05 0.0
C1266 C 0.13613 0.11844 0.9527 0.0
C1267 C 0.14161 0.11354 0.92544 0.0
C1268 C 0.15505 0.094 0.92051 0.0
C1269 C 0.1601 0.0894 0.89485 0.0
C1270 C 0.15194 0.10426 0.87391 0.0
C1271 C 0.13875 0.12377 0.87857 0.0
C1272 C 0.13363 0.12845 0.9042 0.0
C1273 C 0.17086 0.17043 0.9963 0.0
C1274 C 0.1564 0.19031 0.99082 0.0
C1275 C 0.16507 0.15363 0.99431 0.0
C1276 C 0.14491 0.15649 0.98626 0.0
C1277 C 0.13052 0.17624 0.98042 0.0
C1278 C 0.13609 0.19301 0.98299 0.0
C1279 C 0.13901 0.13895 0.98299 0.0
C1280 C 0.14113 0.13501 0.95735 0.0
C1281 C 0.132 0.12592 0.00473 0.0
C1282 C 0.13193 0.12795 0.03245 0.0
C1283 C 0.12108 0.14654 0.04199 0.0
C1284 C 0.12165 0.14816 0.06795 0.0
C1285 C 0.13292 0.13128 0.08468 0.0
C1286 C 0.14361 0.11271 0.07554 0.0
C1287 C 0.14308 0.111 0.04959 0.0
H1288 H 0.13334 0.13264 0.10472 0.0
H1289 H 0.15587 0.10067 0.85406 0.0
H1290 H 0.67839 0.5606 0.22534 0.0
H1291 H 0.64697 0.59143 0.22658 0.0
H1292 H 0.64462 0.58491 0.31083 0.0
H1293 H 0.67671 0.5542 0.30963 0.0
H1294 H 0.60648 0.60164 0.24681 0.0
H1295 H 0.62734 0.63175 0.32967 0.0
H1296 H 0.65988 0.62887 0.34918 0.0
H1297 H 0.70115 0.61585 0.2761 0.0
H1298 H 0.66884 0.61895 0.25607 0.0
H1299 H 0.51834 0.6929 0.27443 0.0
H1300 H 0.5456 0.65869 0.27626 0.0
H1301 H 0.59767 0.68556 0.24911 0.0
H1302 H 0.57072 0.71941 0.24796 0.0
H1303 H 0.60982 0.65764 0.28714 0.0
H1304 H 0.58062 0.6607 0.20953 0.0
H1305 H 0.5541 0.66387 0.18036 0.0
H1306 H 0.53621 0.61362 0.22959 0.0
H1307 H 0.56259 0.61031 0.25932 0.0
C1308 C 0.67114 0.56552 0.24426 0.0
C1309 C 0.68026 0.55484 0.2674 0.0
C1310 C 0.65304 0.58323 0.24492 0.0
C1311 C 0.64345 0.59079 0.26873 0.0
C1312 C 0.65191 0.57969 0.29209 0.0
C1313 C 0.67021 0.56201 0.29141 0.0
C1314 C 0.62526 0.61066 0.26864 0.0
C1315 C 0.60712 0.61382 0.25588 0.0
C1316 C 0.62623 0.62685 0.27979 0.0
C1317 C 0.6457 0.62533 0.29151 0.0
C1318 C 0.64335 0.62834 0.31776 0.0
C1319 C 0.66175 0.62667 0.3289 0.0
C1320 C 0.68258 0.6221 0.31393 0.0
C1321 C 0.68503 0.61931 0.28772 0.0
C1322 C 0.66668 0.62102 0.27647 0.0
C1323 C 0.53559 0.69142 0.26862 0.0
C1324 C 0.54238 0.70886 0.26125 0.0
C1325 C 0.55121 0.67185 0.26963 0.0
C1326 C 0.57387 0.66936 0.26295 0.0
C1327 C 0.58043 0.68688 0.25474 0.0
C1328 C 0.56494 0.7063 0.25395 0.0
C1329 C 0.59097 0.64875 0.26512 0.0
C1330 C 0.60892 0.6454 0.27842 0.0
C1331 C 0.59026 0.63266 0.25353 0.0
C1332 C 0.57335 0.63545 0.23682 0.0
C1333 C 0.57078 0.65053 0.21438 0.0
C1334 C 0.55584 0.65227 0.19765 0.0
C1335 C 0.54344 0.63892 0.20307 0.0
C1336 C 0.54581 0.62394 0.22541 0.0
C1337 C 0.56075 0.62214 0.24222 0.0
H1338 H 0.53208 0.64009 0.18991 0.0
H1339 H 0.6968 0.62077 0.32261 0.0
H1340 H 0.29236 0.86459 0.47919 0.0
H1341 H 0.30497 0.89415 0.47301 0.0
H1342 H 0.37175 0.85446 0.47526 0.0
H1343 H 0.35917 0.82486 0.48264 0.0
H1344 H 0.36257 0.87924 0.50843 0.0
H1345 H 0.35471 0.88724 0.41852 0.0
H1346 H 0.33767 0.89055 0.37915 0.0
H1347 H 0.28763 0.94502 0.39975 0.0
H1348 H 0.30427 0.94197 0.4394 0.0
H1349 H 0.41339 0.95517 0.47982 0.0
H1350 H 0.40069 0.92807 0.47381 0.0
H1351 H 0.33341 0.96651 0.48707 0.0
H1352 H 0.34613 0.99391 0.4933 0.0
H1353 H 0.34279 0.94321 0.44469 0.0
H1354 H 0.35372 0.93236 0.53679 0.0
H1355 H 0.37601 0.92887 0.57143 0.0
H1356 H 0.42587 0.87814 0.54058 0.0
H1357 H 0.4038 0.88157 0.50571 0.0
C1358 C 0.30975 0.86214 0.4783 0.0
C1359 C 0.32468 0.84228 0.48187 0.0
C1360 C 0.31699 0.87911 0.47436 0.0
C1361 C 0.33934 0.8766 0.47369 0.0
C1362 C 0.35441 0.85682 0.47578 0.0
C1363 C 0.34719 0.83986 0.47982 0.0
C1364 C 0.34663 0.89429 0.47391 0.0
C1365 C 0.35845 0.89308 0.49418 0.0
C1366 C 0.34102 0.91256 0.45566 0.0
C1367 C 0.33058 0.9142 0.4322 0.0
C1368 C 0.33993 0.8998 0.41485 0.0
C1369 C 0.33041 0.90169 0.39239 0.0
C1370 C 0.31153 0.91794 0.38702 0.0
C1371 C 0.30221 0.9324 0.404 0.0
C1372 C 0.31171 0.93062 0.42645 0.0
C1373 C 0.39589 0.958 0.48117 0.0
C1374 C 0.38074 0.97665 0.48719 0.0
C1375 C 0.38865 0.94243 0.47787 0.0
C1376 C 0.3661 0.94522 0.48024 0.0
C1377 C 0.35088 0.96408 0.48519 0.0
C1378 C 0.35815 0.97963 0.4889 0.0
C1379 C 0.3586 0.92793 0.47908 0.0
C1380 C 0.34669 0.92931 0.45885 0.0
C1381 C 0.36454 0.90958 0.49694 0.0
C1382 C 0.37724 0.90721 0.5186 0.0
C1383 C 0.36945 0.92049 0.5374 0.0
C1384 C 0.38202 0.91854 0.55708 0.0
C1385 C 0.40236 0.9033 0.55821 0.0
C1386 C 0.41012 0.88993 0.53974 0.0
C1387 C 0.39757 0.89183 0.52008 0.0
H1388 H 0.41209 0.90185 0.57341 0.0
H1389 H 0.30414 0.91933 0.36967 0.0
H1390 H 0.06829 0.71563 0.73712 0.0
H1391 H 0.09323 0.6807 0.73736 0.0
H1392 H 0.04077 0.65769 0.77925 0.0
H1393 H 0.0155 0.69279 0.77847 0.0
H1394 H 0.08047 0.64024 0.80212 0.0
H1395 H 0.05535 0.64865 0.72199 0.0
H1396 H 0.0449 0.66315 0.6777 0.0
H1397 H 0.11157 0.66076 0.64721 0.0
H1398 H 0.12244 0.64645 0.69157 0.0
H1399 H 0.16248 0.54584 0.73487 0.0
H1400 H 0.12932 0.57545 0.73592 0.0
H1401 H 0.15307 0.59629 0.79251 0.0
H1402 H 0.18553 0.56619 0.79257 0.0
H1403 H 0.1223 0.6123 0.7211 0.0
H1404 H 0.11371 0.62761 0.82873 0.0
H1405 H 0.11912 0.60796 0.87314 0.0
H1406 H 0.11128 0.55666 0.84954 0.0
H1407 H 0.10553 0.57608 0.80511 0.0
C1408 C 0.06201 0.70312 0.74616 0.0
C1409 C 0.03997 0.70695 0.75785 0.0
C1410 C 0.07627 0.68316 0.7462 0.0
C1411 C 0.06893 0.66652 0.75831 0.0
C1412 C 0.04683 0.67027 0.76982 0.0
C1413 C 0.03239 0.69031 0.76927 0.0
C1414 C 0.08474 0.6454 0.75969 0.0
C1415 C 0.08962 0.63407 0.78443 0.0
C1416 C 0.09613 0.63699 0.73669 0.0
C1417 C 0.08964 0.64678 0.71025 0.0
C1418 C 0.06773 0.65161 0.70598 0.0
C1419 C 0.06174 0.65976 0.68082 0.0
C1420 C 0.07751 0.66317 0.65967 0.0
C1421 C 0.09933 0.65834 0.66367 0.0
C1422 C 0.10543 0.65016 0.68883 0.0
C1423 C 0.16043 0.55653 0.74792 0.0
C1424 C 0.17663 0.55347 0.76383 0.0
C1425 C 0.14145 0.5736 0.74841 0.0
C1426 C 0.1383 0.58824 0.76453 0.0
C1427 C 0.15453 0.5851 0.78046 0.0
C1428 C 0.17325 0.56783 0.7804 0.0
C1429 C 0.11879 0.60725 0.76362 0.0
C1430 C 0.11322 0.6183 0.73891 0.0
C1431 C 0.10616 0.61499 0.78673 0.0
C1432 C 0.10938 0.60326 0.81351 0.0
C1433 C 0.11304 0.61217 0.83305 0.0
C1434 C 0.11619 0.60107 0.85822 0.0
C1435 C 0.11561 0.58106 0.86413 0.0
C1436 C 0.1118 0.57213 0.84491 0.0
C1437 C 0.10862 0.58318 0.81971 0.0
H1438 H 0.11807 0.57248 0.88362 0.0
H1439 H 0.07287 0.66937 0.64014 0.0
H1440 H 0.82959 0.3273 0.56277 0.0
H1441 H 0.8391 0.35716 0.56579 0.0
H1442 H 0.8141 0.38758 0.49251 0.0
H1443 H 0.80483 0.35754 0.48913 0.0
H1444 H 0.85484 0.39084 0.49507 0.0
H1445 H 0.78436 0.40152 0.54868 0.0
H1446 H 0.75692 0.39186 0.58389 0.0
H1447 H 0.79909 0.38271 0.64166 0.0
H1448 H 0.82693 0.39203 0.60675 0.0
H1449 H 0.86597 0.48428 0.51038 0.0
H1450 H 0.84967 0.45948 0.50418 0.0
H1451 H 0.86601 0.42444 0.57966 0.0
H1452 H 0.88178 0.44939 0.58621 0.0
H1453 H 0.82621 0.42603 0.57345 0.0
H1454 H 0.89762 0.41003 0.52289 0.0
H1455 H 0.92806 0.41578 0.48986 0.0
H1456 H 0.88756 0.43176 0.42845 0.0
H1457 H 0.85656 0.42626 0.46141 0.0
C1458 C 0.82624 0.34029 0.5472 0.0
C1459 C 0.81647 0.34007 0.5257 0.0
C1460 C 0.8315 0.35741 0.54908 0.0
C1461 C 0.82707 0.37466 0.52953 0.0
C1462 C 0.81754 0.37445 0.50787 0.0
C1463 C 0.81214 0.35735 0.50605 0.0
C1464 C 0.8328 0.39274 0.53162 0.0
C1465 C 0.8482 0.39887 0.51189 0.0
C1466 C 0.82462 0.40277 0.55397 0.0
C1467 C 0.8078 0.39735 0.57506 0.0
C1468 C 0.78785 0.39732 0.56887 0.0
C1469 C 0.77221 0.39192 0.58878 0.0
C1470 C 0.77627 0.38664 0.61499 0.0
C1471 C 0.79597 0.3868 0.62135 0.0
C1472 C 0.81167 0.39217 0.60151 0.0
C1473 C 0.8658 0.47145 0.52579 0.0
C1474 C 0.8754 0.46871 0.54864 0.0
C1475 C 0.85665 0.45719 0.52214 0.0
C1476 C 0.8569 0.43994 0.54129 0.0
C1477 C 0.86571 0.43758 0.56455 0.0
C1478 C 0.87488 0.45179 0.56817 0.0
C1479 C 0.84846 0.42403 0.53704 0.0
C1480 C 0.83254 0.41829 0.55637 0.0
C1481 C 0.85642 0.41414 0.51451 0.0
C1482 C 0.87469 0.41804 0.49466 0.0
C1483 C 0.89508 0.41504 0.50239 0.0
C1484 C 0.91247 0.41823 0.48365 0.0
C1485 C 0.9098 0.42424 0.45701 0.0
C1486 C 0.88962 0.42714 0.44909 0.0
C1487 C 0.87211 0.42399 0.46781 0.0
H1488 H 0.9234 0.42652 0.44251 0.0
H1489 H 0.76415 0.38246 0.63038 0.0
H1490 H 0.31156 0.96882 0.28473 0.0
H1491 H 0.34434 0.93894 0.28834 0.0
H1492 H 0.3387 0.92639 0.21335 0.0
H1493 H 0.30656 0.95661 0.20918 0.0
H1494 H 0.34876 0.9017 0.29405 0.0
H1495 H 0.38625 0.89817 0.18379 0.0
H1496 H 0.39119 0.92184 0.14285 0.0
H1497 H 0.38727 0.96712 0.18828 0.0
H1498 H 0.38261 0.94363 0.22949 0.0
H1499 H 0.41037 0.80146 0.27029 0.0
H1500 H 0.38531 0.83599 0.27277 0.0
H1501 H 0.44034 0.85921 0.25192 0.0
H1502 H 0.46558 0.8245 0.24949 0.0
H1503 H 0.40978 0.88097 0.22219 0.0
H1504 H 0.40991 0.86118 0.31441 0.0
H1505 H 0.40617 0.84313 0.35999 0.0
H1506 H 0.33948 0.84876 0.35522 0.0
H1507 H 0.34283 0.86676 0.30965 0.0
C1508 C 0.31758 0.95995 0.26873 0.0
C1509 C 0.30642 0.96526 0.24658 0.0
C1510 C 0.33631 0.94274 0.27088 0.0
C1511 C 0.34429 0.9303 0.25106 0.0
C1512 C 0.33338 0.93586 0.22869 0.0
C1513 C 0.31485 0.9532 0.22636 0.0
C1514 C 0.36294 0.9108 0.25458 0.0
C1515 C 0.36211 0.89722 0.27831 0.0
C1516 C 0.38085 0.90502 0.23444 0.0
C1517 C 0.3839 0.91917 0.20974 0.0
C1518 C 0.38655 0.91313 0.18505 0.0
C1519 C 0.38928 0.92653 0.16179 0.0
C1520 C 0.38948 0.94599 0.16297 0.0
C1521 C 0.38703 0.95207 0.1874 0.0
C1522 C 0.38432 0.93873 0.21072 0.0
C1523 C 0.41718 0.81389 0.26651 0.0
C1524 C 0.43996 0.81025 0.25943 0.0
C1525 C 0.40281 0.83366 0.26813 0.0
C1526 C 0.41082 0.85035 0.26264 0.0
C1527 C 0.43368 0.84666 0.25624 0.0
C1528 C 0.44811 0.82681 0.25486 0.0
C1529 C 0.39517 0.87162 0.26138 0.0
C1530 C 0.3965 0.8855 0.238 0.0
C1531 C 0.37803 0.8779 0.28212 0.0
C1532 C 0.37669 0.8652 0.3085 0.0
C1533 C 0.39457 0.85826 0.32292 0.0
C1534 C 0.39245 0.84818 0.34886 0.0
C1535 C 0.37254 0.8449 0.36057 0.0
C1536 C 0.35485 0.85138 0.34622 0.0
C1537 C 0.35685 0.86153 0.32034 0.0
H1538 H 0.37081 0.83734 0.38076 0.0
H1539 H 0.39158 0.95634 0.14494 0.0
H1540 H 0.31517 0.46537 0.77625 0.0
H1541 H 0.34616 0.43382 0.77594 0.0
H1542 H 0.33095 0.42526 0.70363 0.0
H1543 H 0.29997 0.4568 0.70371 0.0
H1544 H 0.33472 0.39151 0.74207 0.0
H1545 H 0.37656 0.43764 0.70429 0.0
H1546 H 0.38957 0.46664 0.70317 0.0
H1547 H 0.4161 0.43823 0.77564 0.0
H1548 H 0.40298 0.40917 0.77739 0.0
H1549 H 0.42173 0.30804 0.70582 0.0
H1550 H 0.39525 0.34163 0.70865 0.0
H1551 H 0.424 0.3467 0.77328 0.0
H1552 H 0.45163 0.31297 0.76933 0.0
H1553 H 0.41325 0.38218 0.74335 0.0
H1554 H 0.37162 0.33764 0.78365 0.0
H1555 H 0.35733 0.30872 0.78897 0.0
H1556 H 0.32895 0.33429 0.7172 0.0
H1557 H 0.34321 0.3632 0.71141 0.0
C1558 C 0.31863 0.45701 0.75997 0.0
C1559 C 0.30497 0.46374 0.73998 0.0
C1560 C 0.33643 0.43893 0.75983 0.0
C1561 C 0.34097 0.42708 0.73976 0.0
C1562 C 0.32781 0.4341 0.71935 0.0
C1563 C 0.31014 0.45226 0.71934 0.0
C1564 C 0.35832 0.40669 0.74098 0.0
C1565 C 0.35194 0.38953 0.74196 0.0
C1566 C 0.38066 0.40388 0.74218 0.0
C1567 C 0.38857 0.42133 0.74112 0.0
C1568 C 0.38499 0.43766 0.72012 0.0
C1569 C 0.39242 0.45409 0.71934 0.0
C1570 C 0.40359 0.45431 0.73936 0.0
C1571 C 0.40741 0.43806 0.76017 0.0
C1572 C 0.4 0.4216 0.76105 0.0
C1573 C 0.42252 0.31626 0.72066 0.0
C1574 C 0.43864 0.30772 0.73765 0.0
C1575 C 0.40714 0.3355 0.72244 0.0
C1576 C 0.40699 0.34667 0.74171 0.0
C1577 C 0.42349 0.3384 0.75838 0.0
C1578 C 0.43923 0.31911 0.75628 0.0
C1579 C 0.38973 0.36698 0.74378 0.0
C1580 C 0.39604 0.38411 0.74354 0.0
C1581 C 0.36715 0.36981 0.74381 0.0
C1582 C 0.35872 0.35238 0.74698 0.0
C1583 C 0.36254 0.33691 0.76891 0.0
C1584 C 0.3544 0.32059 0.77204 0.0
C1585 C 0.34235 0.31963 0.75338 0.0
C1586 C 0.33833 0.33503 0.73161 0.0
C1587 C 0.3464 0.3514 0.72843 0.0
H1588 H 0.33606 0.30699 0.75583 0.0
H1589 H 0.40934 0.46704 0.73871 0.0
H1590 H 0.18078 0.79019 0.52223 0.0
H1591 H 0.14458 0.79083 0.54712 0.0
H1592 H 0.17371 0.76776 0.61915 0.0
H1593 H 0.20978 0.76669 0.5944 0.0
H1594 H 0.14792 0.74705 0.61556 0.0
H1595 H 0.14285 0.81767 0.60475 0.0
H1596 H 0.14399 0.85101 0.57957 0.0
H1597 H 0.09191 0.85409 0.53864 0.0
H1598 H 0.09066 0.82063 0.56336 0.0
H1599 H 0.04192 0.79686 0.70199 0.0
H1600 H 0.07347 0.80007 0.66958 0.0
H1601 H 0.07016 0.75231 0.63288 0.0
H1602 H 0.0387 0.74878 0.66546 0.0
H1603 H 0.08204 0.80849 0.61645 0.0
H1604 H 0.12418 0.72222 0.61618 0.0
H1605 H 0.12518 0.68946 0.64457 0.0
H1606 H 0.10545 0.71882 0.71334 0.0
H1607 H 0.10481 0.75171 0.6854 0.0
C1608 C 0.17935 0.78539 0.5434 0.0
C1609 C 0.19803 0.77831 0.55641 0.0
C1610 C 0.1587 0.78581 0.55759 0.0
C1611 C 0.15645 0.77936 0.58501 0.0
C1612 C 0.17508 0.7727 0.598 0.0
C1613 C 0.19566 0.77221 0.58386 0.0
C1614 C 0.13491 0.77891 0.60031 0.0
C1615 C 0.13347 0.76046 0.6156 0.0
C1616 C 0.11613 0.79644 0.60052 0.0
C1617 C 0.11683 0.81655 0.58569 0.0
C1618 C 0.13177 0.82538 0.59022 0.0
C1619 C 0.13241 0.84431 0.57607 0.0
C1620 C 0.11808 0.85463 0.55746 0.0
C1621 C 0.10303 0.84607 0.55302 0.0
C1622 C 0.10234 0.82713 0.56711 0.0
C1623 C 0.04771 0.78718 0.68685 0.0
C1624 C 0.03794 0.7724 0.6865 0.0
C1625 C 0.06569 0.78912 0.66825 0.0
C1626 C 0.07431 0.77627 0.64904 0.0
C1627 C 0.06391 0.76222 0.64776 0.0
C1628 C 0.0459 0.76026 0.66637 0.0
C1629 C 0.09511 0.77663 0.63174 0.0
C1630 C 0.0964 0.79502 0.61606 0.0
C1631 C 0.11394 0.75913 0.63156 0.0
C1632 C 0.11411 0.73948 0.64863 0.0
C1633 C 0.12003 0.72169 0.63736 0.0
C1634 C 0.12052 0.70309 0.65339 0.0
C1635 C 0.11514 0.70208 0.68074 0.0
C1636 C 0.1094 0.71966 0.69214 0.0
C1637 C 0.10898 0.73829 0.67621 0.0
H1638 H 0.1156 0.68766 0.69309 0.0
H1639 H 0.1186 0.86929 0.54652 0.0
H1640 H 0.25901 0.93385 0.26741 0.0
H1641 H 0.25895 0.90616 0.30424 0.0
H1642 H 0.20868 0.948 0.35036 0.0
H1643 H 0.20861 0.97592 0.31318 0.0
H1644 H 0.26806 0.8982 0.3536 0.0
H1645 H 0.17531 0.9221 0.39096 0.0
H1646 H 0.14008 0.94179 0.37428 0.0
H1647 H 0.16907 0.92865 0.2963 0.0
H1648 H 0.20437 0.90868 0.31258 0.0
H1649 H 0.25388 0.82794 0.46993 0.0
H1650 H 0.25244 0.85926 0.43879 0.0
H1651 H 0.21382 0.84417 0.39297 0.0
H1652 H 0.21393 0.81358 0.42526 0.0
H1653 H 0.19916 0.88181 0.39081 0.0
H1654 H 0.27474 0.83724 0.37765 0.0
H1655 H 0.30984 0.81565 0.39342 0.0
H1656 H 0.31636 0.86678 0.41888 0.0
H1657 H 0.28126 0.8887 0.40335 0.0
C1658 C 0.24788 0.93722 0.28536 0.0
C1659 C 0.23367 0.95714 0.28719 0.0
C1660 C 0.24798 0.92132 0.30656 0.0
C1661 C 0.23373 0.92476 0.33023 0.0
C1662 C 0.2197 0.94476 0.3323 0.0
C1663 C 0.21967 0.96076 0.31103 0.0
C1664 C 0.23326 0.90723 0.35215 0.0
C1665 C 0.25295 0.89469 0.36179 0.0
C1666 C 0.21371 0.90232 0.36291 0.0
C1667 C 0.19252 0.91412 0.35295 0.0
C1668 C 0.17413 0.92338 0.37027 0.0
C1669 C 0.15416 0.93459 0.36089 0.0
C1670 C 0.15236 0.93653 0.33423 0.0
C1671 C 0.17051 0.9272 0.31692 0.0
C1672 C 0.1905 0.91596 0.32621 0.0
C1673 C 0.24494 0.83138 0.4533 0.0
C1674 C 0.23406 0.81816 0.4501 0.0
C1675 C 0.24431 0.84928 0.43523 0.0
C1676 C 0.23355 0.8541 0.41278 0.0
C1677 C 0.22233 0.84102 0.40991 0.0
C1678 C 0.22241 0.82343 0.42842 0.0
C1679 C 0.23401 0.87253 0.39221 0.0
C1680 C 0.2143 0.88531 0.38282 0.0
C1681 C 0.25365 0.87744 0.3814 0.0
C1682 C 0.27528 0.86455 0.38953 0.0
C1683 C 0.28368 0.84388 0.38659 0.0
C1684 C 0.30355 0.83159 0.39551 0.0
C1685 C 0.31526 0.83984 0.40726 0.0
C1686 C 0.30725 0.86044 0.40981 0.0
C1687 C 0.2874 0.87281 0.40088 0.0
H1688 H 0.33059 0.83029 0.41427 0.0
H1689 H 0.13689 0.94523 0.327 0.0
H1690 H 0.02432 0.663 0.63444 0.0
H1691 H 0.02627 0.64131 0.60286 0.0
H1692 H -0.00282 0.69454 0.54845 0.0
H1693 H -0.00517 0.71624 0.58023 0.0
H1694 H 0.97208 0.67143 0.56226 0.0
H1695 H 0.04831 0.65983 0.5301 0.0
H1696 H 0.08819 0.65053 0.53069 0.0
H1697 H 0.08962 0.59083 0.57144 0.0
H1698 H 0.04977 0.5997 0.57101 0.0
H1699 H -0.00137 0.58685 0.47533 0.0
H1700 H 0.00676 0.61375 0.48958 0.0
H1701 H 0.96401 0.60704 0.5628 0.0
H1702 H 0.95595 0.57978 0.54876 0.0
H1703 H 0.02695 0.60918 0.53236 0.0
H1704 H 0.94188 0.6535 0.58292 0.0
H1705 H 0.90273 0.66292 0.57796 0.0
H1706 H 0.92028 0.65929 0.49521 0.0
H1707 H 0.9595 0.65014 0.4996 0.0
C1708 C 0.01921 0.6701 0.61529 0.0
C1709 C 0.00906 0.69124 0.60989 0.0
C1710 C 0.02038 0.65768 0.5972 0.0
C1711 C 0.01165 0.66629 0.57338 0.0
C1712 C 0.00385 0.68757 0.56679 0.0
C1713 C 0.00249 0.69995 0.58494 0.0
C1714 C 0.00638 0.65339 0.55839 0.0
C1715 C 0.9842 0.65796 0.55545 0.0
C1716 C 0.02211 0.63575 0.54957 0.0
C1717 C 0.04595 0.63055 0.55078 0.0
C1718 C 0.05706 0.64479 0.53945 0.0
C1719 C 0.0797 0.63955 0.53962 0.0
C1720 C 0.09141 0.62011 0.55113 0.0
C1721 C 0.08052 0.60587 0.56252 0.0
C1722 C 0.05791 0.61098 0.56223 0.0
C1723 C -0.00935 0.59129 0.4943 0.0
C1724 C 0.97674 0.58111 0.51101 0.0
C1725 C -0.00459 0.60661 0.50243 0.0
C1726 C 0.98611 0.61226 0.52726 0.0
C1727 C 0.97126 0.60293 0.54346 0.0
C1728 C 0.96655 0.58748 0.53536 0.0
C1729 C -0.00724 0.62722 0.5367 0.0
C1730 C 0.01503 0.62288 0.53884 0.0
C1731 C 0.97721 0.64519 0.54458 0.0
C1732 C 0.95364 0.65097 0.54166 0.0
C1733 C 0.93737 0.65481 0.56364 0.0
C1734 C 0.91517 0.66008 0.56094 0.0
C1735 C 0.90903 0.66164 0.5363 0.0
C1736 C 0.92507 0.658 0.5143 0.0
C1737 C 0.94729 0.65275 0.5169 0.0
H1738 H 0.89183 0.66571 0.53425 0.0
H1739 H 0.10894 0.61606 0.55117 0.0
H1740 H 0.27646 0.74804 0.41222 0.0
H1741 H 0.31399 0.74243 0.38899 0.0
H1742 H 0.33958 0.72106 0.46332 0.0
H1743 H 0.30213 0.72563 0.48663 0.0
H1744 H 0.35156 0.75704 0.42251 0.0
H1745 H 0.35252 0.6871 0.43597 0.0
H1746 H 0.33736 0.65999 0.43452 0.0
H1747 H 0.33897 0.6771 0.35058 0.0
H1748 H 0.35382 0.70454 0.35159 0.0
H1749 H 0.45892 0.74273 0.35302 0.0
H1750 H 0.42915 0.73612 0.38657 0.0
H1751 H 0.39821 0.72794 0.32589 0.0
H1752 H 0.42865 0.73299 0.29291 0.0
H1753 H 0.39128 0.70353 0.36649 0.0
H1754 H 0.38636 0.77465 0.35157 0.0
H1755 H 0.40094 0.80265 0.35035 0.0
H1756 H 0.40353 0.78665 0.43377 0.0
H1757 H 0.38971 0.75805 0.43529 0.0
C1758 C 0.29011 0.74186 0.42357 0.0
C1759 C 0.28645 0.73762 0.45122 0.0
C1760 C 0.31147 0.73872 0.41031 0.0
C1761 C 0.32939 0.73149 0.42455 0.0
C1762 C 0.32586 0.72676 0.45211 0.0
C1763 C 0.30452 0.72946 0.46533 0.0
C1764 C 0.35167 0.7298 0.41047 0.0
C1765 C 0.36055 0.74515 0.41062 0.0
C1766 C 0.3629 0.71455 0.39459 0.0
C1767 C 0.35409 0.698 0.3939 0.0
C1768 C 0.34944 0.68522 0.41724 0.0
C1769 C 0.34095 0.66976 0.41649 0.0
C1770 C 0.33715 0.66685 0.39248 0.0
C1771 C 0.3419 0.67937 0.36916 0.0
C1772 C 0.35037 0.69487 0.36981 0.0
C1773 C 0.4459 0.73917 0.34706 0.0
C1774 C 0.44595 0.73844 0.32046 0.0
C1775 C 0.42884 0.73551 0.36615 0.0
C1776 C 0.41109 0.73203 0.35872 0.0
C1777 C 0.41165 0.73059 0.33222 0.0
C1778 C 0.42903 0.73354 0.31333 0.0
C1779 C 0.39123 0.73109 0.37788 0.0
C1780 C 0.38263 0.71529 0.37865 0.0
C1781 C 0.37999 0.74625 0.39418 0.0
C1782 C 0.38735 0.764 0.39346 0.0
C1783 C 0.39016 0.77703 0.36962 0.0
C1784 C 0.39835 0.79297 0.36887 0.0
C1785 C 0.40328 0.79636 0.39196 0.0
C1786 C 0.39984 0.78392 0.41588 0.0
C1787 C 0.3919 0.76779 0.41668 0.0
H1788 H 0.40969 0.80866 0.39135 0.0
H1789 H 0.33059 0.65487 0.39194 0.0
H1790 H 0.27545 0.04103 0.18919 0.0
H1791 H 0.27702 0.06999 0.15382 0.0
H1792 H 0.22199 0.10972 0.19737 0.0
H1793 H 0.22093 0.08133 0.23291 0.0
H1794 H 0.21999 0.11214 0.13975 0.0
H1795 H 0.26633 0.1143 0.20042 0.0
H1796 H 0.29768 0.09947 0.22577 0.0
H1797 H 0.34217 0.0893 0.15403 0.0
H1798 H 0.31101 0.10381 0.1283 0.0
H1799 H 0.21395 0.21152 0.07297 0.0
H1800 H 0.21452 0.18039 0.10394 0.0
H1801 H 0.28385 0.15459 0.07802 0.0
H1802 H 0.28352 0.18649 0.04839 0.0
H1803 H 0.28001 0.1426 0.12503 0.0
H1804 H 0.23725 0.1395 0.06316 0.0
H1805 H 0.20794 0.14944 0.03531 0.0
H1806 H 0.15905 0.15731 0.10381 0.0
H1807 H 0.1882 0.14724 0.13218 0.0
C1808 C 0.26374 0.05596 0.19118 0.0
C1809 C 0.2481 0.05883 0.21394 0.0
C1810 C 0.26464 0.0725 0.17097 0.0
C1811 C 0.2496 0.09212 0.17288 0.0
C1812 C 0.23375 0.09482 0.19534 0.0
C1813 C 0.23322 0.07851 0.21572 0.0
C1814 C 0.25031 0.11001 0.15182 0.0
C1815 C 0.23302 0.11894 0.13658 0.0
C1816 C 0.26762 0.11852 0.14704 0.0
C1817 C 0.28633 0.1099 0.16248 0.0
C1818 C 0.28277 0.10871 0.19009 0.0
C1819 C 0.30051 0.10041 0.20451 0.0
C1820 C 0.3219 0.09338 0.19153 0.0
C1821 C 0.3256 0.09471 0.16407 0.0
C1822 C 0.3079 0.10298 0.14956 0.0
C1823 C 0.22932 0.19917 0.07375 0.0
C1824 C 0.24868 0.20156 0.05801 0.0
C1825 C 0.22961 0.18113 0.0914 0.0
C1826 C 0.24912 0.16451 0.09324 0.0
C1827 C 0.26847 0.16692 0.07732 0.0
C1828 C 0.2683 0.18523 0.0602 0.0
C1829 C 0.24953 0.14511 0.11245 0.0
C1830 C 0.26699 0.13587 0.12765 0.0
C1831 C 0.23258 0.13599 0.11671 0.0
C1832 C 0.21492 0.14286 0.09973 0.0
C1833 C 0.22024 0.14356 0.07226 0.0
C1834 C 0.20363 0.14915 0.05639 0.0
C1835 C 0.18159 0.15412 0.06773 0.0
C1836 C 0.17612 0.15348 0.09503 0.0
C1837 C 0.19269 0.14777 0.11103 0.0
H1838 H 0.16874 0.1584 0.05541 0.0
H1839 H 0.33562 0.08696 0.20273 0.0
H1840 H 0.77023 0.75917 0.91441 0.0
H1841 H 0.80606 0.75748 0.88867 0.0
H1842 H 0.8379 0.72089 0.95549 0.0
H1843 H 0.80183 0.72206 0.98121 0.0
H1844 H 0.83557 0.77209 0.89641 0.0
H1845 H 0.8897 0.69073 0.93148 0.0
H1846 H 0.88611 0.65667 0.94926 0.0
H1847 H 0.82953 0.67166 0.91004 0.0
H1848 H 0.83295 0.70568 0.89178 0.0
H1849 H 0.9447 0.76609 0.83855 0.0
H1850 H 0.91345 0.76294 0.87172 0.0
H1851 H 0.90306 0.7216 0.82956 0.0
H1852 H 0.93456 0.7242 0.79682 0.0
H1853 H 0.8963 0.70887 0.88004 0.0
H1854 H 0.86908 0.77408 0.82374 0.0
H1855 H 0.86684 0.80913 0.80189 0.0
H1856 H 0.86582 0.8259 0.8764 0.0
H1857 H 0.86764 0.79107 0.89871 0.0
C1858 C 0.78486 0.75055 0.92354 0.0
C1859 C 0.7833 0.74087 0.94985 0.0
C1860 C 0.80533 0.7497 0.90886 0.0
C1861 C 0.82468 0.73911 0.92014 0.0
C1862 C 0.8232 0.72903 0.9463 0.0
C1863 C 0.80263 0.72979 0.961 0.0
C1864 C 0.84619 0.73932 0.90448 0.0
C1865 C 0.8489 0.75823 0.89301 0.0
C1866 C 0.86356 0.72129 0.8999 0.0
C1867 C 0.86144 0.70082 0.91056 0.0
C1868 C 0.87653 0.68672 0.92662 0.0
C1869 C 0.87452 0.66743 0.93678 0.0
C1870 C 0.85755 0.66203 0.93087 0.0
C1871 C 0.8426 0.67589 0.9147 0.0
C1872 C 0.84455 0.69519 0.90448 0.0
C1873 C 0.9359 0.75618 0.83648 0.0
C1874 C 0.94207 0.74549 0.81493 0.0
C1875 C 0.91794 0.75447 0.85539 0.0
C1876 C 0.90567 0.74227 0.85294 0.0
C1877 C 0.91226 0.7311 0.83191 0.0
C1878 C 0.93027 0.73266 0.81313 0.0
C1879 C 0.88546 0.74166 0.87156 0.0
C1880 C 0.88308 0.7227 0.88377 0.0
C1881 C 0.86809 0.75962 0.87635 0.0
C1882 C 0.86861 0.78004 0.8628 0.0
C1883 C 0.86857 0.78523 0.83538 0.0
C1884 C 0.86721 0.80506 0.82296 0.0
C1885 C 0.86593 0.81975 0.83782 0.0
C1886 C 0.86662 0.81453 0.86498 0.0
C1887 C 0.8677 0.7948 0.87753 0.0
H1888 H 0.86425 0.83523 0.82835 0.0
H1889 H 0.85601 0.6471 0.93877 0.0
H1890 H 0.23443 0.55184 0.69038 0.0
H1891 H 0.23289 0.58181 0.6563 0.0
H1892 H 0.27674 0.59723 0.69392 0.0
H1893 H 0.27759 0.56774 0.72837 0.0
H1894 H 0.24682 0.63015 0.681 0.0
H1895 H 0.29171 0.57619 0.63192 0.0
H1896 H 0.30036 0.54416 0.61452 0.0
H1897 H 0.24355 0.56983 0.57412 0.0
H1898 H 0.23444 0.60195 0.59151 0.0
H1899 H 0.27517 0.7037 0.57657 0.0
H1900 H 0.27661 0.67245 0.60816 0.0
H1901 H 0.22492 0.6651 0.57532 0.0
H1902 H 0.22327 0.69639 0.5438 0.0
H1903 H 0.25764 0.62841 0.58495 0.0
H1904 H 0.21331 0.68231 0.6329 0.0
H1905 H 0.20425 0.71444 0.65016 0.0
H1906 H 0.25983 0.68876 0.6927 0.0
H1907 H 0.26941 0.65655 0.67535 0.0
C1908 C 0.24406 0.5614 0.69107 0.0
C1909 C 0.2564 0.55715 0.71195 0.0
C1910 C 0.24318 0.57865 0.67151 0.0
C1911 C 0.25495 0.59195 0.672 0.0
C1912 C 0.26744 0.58746 0.6928 0.0
C1913 C 0.26806 0.57043 0.71249 0.0
C1914 C 0.25383 0.6108 0.65155 0.0
C1915 C 0.24956 0.62957 0.66001 0.0
C1916 C 0.25668 0.61058 0.62397 0.0
C1917 C 0.26229 0.5914 0.61321 0.0
C1918 C 0.28101 0.57496 0.61943 0.0
C1919 C 0.286 0.5568 0.60955 0.0
C1920 C 0.27248 0.55495 0.59328 0.0
C1921 C 0.25399 0.57128 0.58675 0.0
C1922 C 0.24892 0.58948 0.59658 0.0
C1923 C 0.26414 0.69544 0.57594 0.0
C1924 C 0.24907 0.70276 0.55751 0.0
C1925 C 0.26492 0.67753 0.59416 0.0
C1926 C 0.25077 0.6663 0.59442 0.0
C1927 C 0.23605 0.67334 0.57567 0.0
C1928 C 0.23507 0.69137 0.55764 0.0
C1929 C 0.25107 0.6475 0.61449 0.0
C1930 C 0.25505 0.62885 0.60596 0.0
C1931 C 0.24798 0.64779 0.64201 0.0
C1932 C 0.24221 0.66709 0.6526 0.0
C1933 C 0.2237 0.68357 0.64576 0.0
C1934 C 0.21845 0.70178 0.65559 0.0
C1935 C 0.23149 0.70365 0.67246 0.0
C1936 C 0.24977 0.68729 0.67959 0.0
C1937 C 0.25511 0.66905 0.66978 0.0
H1938 H 0.2274 0.71777 0.68006 0.0
H1939 H 0.27636 0.54087 0.58568 0.0
H1940 H 0.34812 0.97709 0.34122 0.0
H1941 H 0.37886 0.98335 0.35391 0.0
H1942 H 0.33554 0.01263 0.41774 0.0
H1943 H 0.3045 1.00758 0.4042 0.0
H1944 H 0.35676 0.03688 0.38593 0.0
H1945 H 0.37631 0.96564 0.42493 0.0
H1946 H 0.38698 0.92862 0.42513 0.0
H1947 H 0.44435 0.93065 0.36972 0.0
H1948 H 0.43383 0.96768 0.36851 0.0
H1949 H 0.43415 0.05026 0.4519 0.0
H1950 H 0.40488 0.04578 0.43377 0.0
H1951 H 0.45337 1.01057 0.37832 0.0
H1952 H 0.48267 0.01346 0.39848 0.0
H1953 H 0.4297 0.98929 0.40449 0.0
H1954 H 0.41192 0.05771 0.35977 0.0
H1955 H 0.40338 0.09493 0.35449 0.0
H1956 H 0.34597 0.09873 0.41221 0.0
H1957 H 0.35431 0.06149 0.41811 0.0
C1958 C 0.34519 0.98463 0.35818 0.0
C1959 C 0.32379 0.99221 0.37136 0.0
C1960 C 0.36282 0.98803 0.36555 0.0
C1961 C 0.35941 0.99861 0.38663 0.0
C1962 C 0.33844 1.00458 0.40127 0.0
C1963 C 0.32075 1.00145 0.39369 0.0
C1964 C 0.377 1.00544 0.39162 0.0
C1965 C 0.37271 0.02646 0.39024 0.0
C1966 C 0.3981 0.99189 0.3959 0.0
C1967 C 0.40418 0.96955 0.39656 0.0
C1968 C 0.39109 0.95826 0.41259 0.0
C1969 C 0.39711 0.93726 0.41289 0.0
C1970 C 0.41629 0.92734 0.39749 0.0
C1971 C 0.42947 0.93837 0.38162 0.0
C1972 C 0.42347 0.95936 0.3811 0.0
C1973 C 0.43844 0.04194 0.43551 0.0
C1974 C 0.46044 0.03177 0.42697 0.0
C1975 C 0.42171 0.0396 0.42485 0.0
C1976 C 0.4269 0.02757 0.40487 0.0
C1977 C 0.449 0.01959 0.39407 0.0
C1978 C 0.46572 0.02151 0.40526 0.0
C1979 C 0.4098 0.02077 0.39822 0.0
C1980 C 0.41402 0.99977 0.39961 0.0
C1981 C 0.38894 0.03435 0.39301 0.0
C1982 C 0.38384 0.05677 0.38951 0.0
C1983 C 0.39756 0.06646 0.37148 0.0
C1984 C 0.39274 0.08756 0.36835 0.0
C1985 C 0.37417 0.09918 0.38304 0.0
C1986 C 0.36035 0.08971 0.40085 0.0
C1987 C 0.3651 0.06861 0.40406 0.0
H1988 H 0.37046 0.11552 0.38059 0.0
H1989 H 0.42092 0.91111 0.39781 0.0
H1990 H 0.84712 0.82672 0.97616 0.0
H1991 H 0.86081 0.85518 0.97425 0.0
H1992 H 0.83645 0.85715 0.05686 0.0
H1993 H 0.82278 0.82876 0.0589 0.0
H1994 H 0.84008 0.8932 0.98234 0.0
H1995 H 0.87148 0.87111 0.08481 0.0
H1996 H 0.88783 0.84009 0.11522 0.0
H1997 H 0.91118 0.80592 0.05078 0.0
H1998 H 0.89517 0.83674 0.01998 0.0
H1999 H 0.8535 0.97749 0.02424 0.0
H2000 H 0.84306 0.9482 0.02003 0.0
H2001 H 0.91156 0.9123 0.0091 0.0
H2002 H 0.92183 0.94129 0.01397 0.0
H2003 H 0.88884 0.89204 0.04447 0.0
H2004 H 0.88262 0.92808 0.95704 0.0
H2005 H 0.87047 0.95642 0.92102 0.0
H2006 H 0.80325 0.95943 0.94889 0.0
H2007 H 0.81501 0.93139 0.98522 0.0
C2008 C 0.84463 0.83328 0.99387 0.0
C2009 C 0.83398 0.82545 0.01772 0.0
C2010 C 0.85248 0.84949 0.99277 0.0
C2011 C 0.84984 0.85813 0.01547 0.0
C2012 C 0.83903 0.85046 0.03922 0.0
C2013 C 0.83126 0.83423 0.04037 0.0
C2014 C 0.85803 0.8754 0.01429 0.0
C2015 C 0.85072 0.89297 0.99595 0.0
C2016 C 0.87229 0.8749 0.03168 0.0
C2017 C 0.88196 0.85624 0.05011 0.0
C2018 C 0.88016 0.85699 0.07711 0.0
C2019 C 0.88935 0.83943 0.09443 0.0
C2020 C 0.90049 0.82103 0.08496 0.0
C2021 C 0.90249 0.82016 0.05812 0.0
C2022 C 0.89333 0.83767 0.04074 0.0
C2023 C 0.86623 0.96335 0.02076 0.0
C2024 C 0.88848 0.96164 0.01894 0.0
C2025 C 0.86031 0.94671 0.01817 0.0
C2026 C 0.87656 0.92814 0.01394 0.0
C2027 C 0.89877 0.9265 0.01215 0.0
C2028 C 0.90464 0.9431 0.01463 0.0
C2029 C 0.87047 0.91004 0.01292 0.0
C2030 C 0.87812 0.89232 0.03094 0.0
C2031 C 0.85693 0.91023 0.99485 0.0
C2032 C 0.8497 0.92783 0.97397 0.0
C2033 C 0.86525 0.93506 0.95569 0.0
C2034 C 0.85844 0.95098 0.93518 0.0
C2035 C 0.8361 0.95968 0.93271 0.0
C2036 C 0.82054 0.95266 0.95086 0.0
C2037 C 0.82727 0.93676 0.9714 0.0
H2038 H 0.83082 0.97173 0.91663 0.0
H2039 H 0.90759 0.80746 0.09839 0.0
H2040 H 0.70052 0.15571 0.47169 0.0
H2041 H 0.69035 0.12581 0.47038 0.0
H2042 H 0.62327 0.1565 0.50051 0.0
H2043 H 0.63321 0.18654 0.50156 0.0
H2044 H 0.63713 0.11652 0.52378 0.0
H2045 H 0.63781 0.15496 0.4358 0.0
H2046 H 0.65432 0.17213 0.39506 0.0
H2047 H 0.705 0.11577 0.3832 0.0
H2048 H 0.68895 0.09832 0.42412 0.0
H2049 H 0.57323 0.07198 0.47662 0.0
H2050 H 0.59127 0.0946 0.48498 0.0
H2051 H 0.65465 0.05211 0.46253 0.0
H2052 H 0.63659 0.02902 0.45471 0.0
H2053 H 0.64741 0.09413 0.43716 0.0
H2054 H 0.64279 0.05469 0.52192 0.0
H2055 H 0.62608 0.0378 0.56261 0.0
H2056 H 0.58289 0.09582 0.58115 0.0
H2057 H 0.59865 0.11306 0.53997 0.0
C2058 C 0.68358 0.15613 0.47796 0.0
C2059 C 0.66764 0.1736 0.48653 0.0
C2060 C 0.67783 0.13899 0.47732 0.0
C2061 C 0.65602 0.13901 0.48513 0.0
C2062 C 0.64022 0.15614 0.49448 0.0
C2063 C 0.64594 0.17329 0.49511 0.0
C2064 C 0.64937 0.12159 0.48243 0.0
C2065 C 0.63922 0.11169 0.50484 0.0
C2066 C 0.65272 0.11494 0.45781 0.0
C2067 C 0.66234 0.12539 0.43318 0.0
C2068 C 0.65259 0.14627 0.42462 0.0
C2069 C 0.66184 0.15604 0.40148 0.0
C2070 C 0.68074 0.14506 0.3866 0.0
C2071 C 0.69039 0.12426 0.39479 0.0
C2072 C 0.68122 0.11442 0.41794 0.0
C2073 C 0.59101 0.06739 0.47357 0.0
C2074 C 0.6035 0.04871 0.46508 0.0
C2075 C 0.60128 0.08027 0.47848 0.0
C2076 C 0.62426 0.07493 0.47451 0.0
C2077 C 0.63687 0.0564 0.46582 0.0
C2078 C 0.62656 0.04324 0.46145 0.0
C2079 C 0.63481 0.08932 0.47842 0.0
C2080 C 0.64562 0.09872 0.4562 0.0
C2081 C 0.63197 0.09553 0.5032 0.0
C2082 C 0.62183 0.08519 0.52764 0.0
C2083 C 0.62946 0.06386 0.5344 0.0
C2084 C 0.62017 0.05421 0.55761 0.0
C2085 C 0.60339 0.06572 0.57446 0.0
C2086 C 0.59577 0.0869 0.56801 0.0
C2087 C 0.60486 0.09663 0.54469 0.0
H2088 H 0.59633 0.05823 0.59253 0.0
H2089 H 0.68787 0.15266 0.36868 0.0
H2090 H 0.8054 0.45846 0.20999 0.0
H2091 H 0.8373 0.42783 0.20824 0.0
H2092 H 0.8414 0.42525 0.29012 0.0
H2093 H 0.80946 0.456 0.29209 0.0
H2094 H 0.88179 0.41551 0.26293 0.0
H2095 H 0.82017 0.39128 0.27286 0.0
H2096 H 0.78461 0.39203 0.26265 0.0
H2097 H 0.8138 0.38343 0.18313 0.0
H2098 H 0.84937 0.38306 0.1929 0.0
H2099 H 0.94822 0.30893 0.2804 0.0
H2100 H 0.91937 0.34184 0.28417 0.0
H2101 H 0.91586 0.35113 0.20083 0.0
H2102 H 0.94467 0.31857 0.19692 0.0
H2103 H 0.87508 0.35714 0.23078 0.0
H2104 H 0.939 0.37724 0.22431 0.0
H2105 H 0.97367 0.3765 0.23681 0.0
H2106 H 0.94004 0.39223 0.31231 0.0
H2107 H 0.90527 0.39233 0.30067 0.0
C2108 C 0.81311 0.45151 0.22765 0.0
C2109 C 0.80467 0.45976 0.25122 0.0
C2110 C 0.83133 0.43385 0.22665 0.0
C2111 C 0.8416 0.4239 0.2492 0.0
C2112 C 0.83372 0.4325 0.27251 0.0
C2113 C 0.8154 0.45013 0.27358 0.0
C2114 C 0.86019 0.40434 0.24852 0.0
C2115 C 0.88023 0.40264 0.25626 0.0
C2116 C 0.85839 0.38754 0.23953 0.0
C2117 C 0.83722 0.3875 0.23352 0.0
C2118 C 0.81884 0.38983 0.25315 0.0
C2119 C 0.79874 0.39012 0.24746 0.0
C2120 C 0.79692 0.38786 0.2222 0.0
C2121 C 0.81522 0.38523 0.20266 0.0
C2122 C 0.83535 0.38498 0.20827 0.0
C2123 C 0.94146 0.31813 0.26286 0.0
C2124 C 0.94868 0.31111 0.23837 0.0
C2125 C 0.92498 0.33694 0.26502 0.0
C2126 C 0.91536 0.34899 0.24277 0.0
C2127 C 0.92292 0.34211 0.21829 0.0
C2128 C 0.93949 0.3235 0.21607 0.0
C2129 C 0.89679 0.36833 0.24495 0.0
C2130 C 0.8767 0.36997 0.23751 0.0
C2131 C 0.89857 0.38492 0.2545 0.0
C2132 C 0.91955 0.38451 0.26173 0.0
C2133 C 0.93904 0.38021 0.24376 0.0
C2134 C 0.95872 0.37992 0.25069 0.0
C2135 C 0.95908 0.38419 0.27541 0.0
C2136 C 0.93977 0.38875 0.29326 0.0
C2137 C 0.92007 0.38889 0.28652 0.0
H2138 H 0.97432 0.38407 0.28068 0.0
H2139 H 0.78135 0.38808 0.21781 0.0
H2140 H 0.10757 0.55932 0.42627 0.0
H2141 H 0.12657 0.58247 0.43001 0.0
H2142 H 0.06911 0.63367 0.4135 0.0
H2143 H 0.05067 0.61073 0.40723 0.0
H2144 H 0.10314 0.64398 0.39169 0.0
H2145 H 0.08387 0.61017 0.48131 0.0
H2146 H 0.08485 0.58046 0.51616 0.0
H2147 H 0.15544 0.56118 0.50399 0.0
H2148 H 0.15485 0.59081 0.46918 0.0
H2149 H 0.12361 0.71617 0.45046 0.0
H2150 H 0.10891 0.69235 0.43861 0.0
H2151 H 0.16912 0.64374 0.45209 0.0
H2152 H 0.18354 0.66727 0.46523 0.0
H2153 H 0.13551 0.63159 0.47405 0.0
H2154 H 0.15604 0.66567 0.3889 0.0
H2155 H 0.15725 0.69504 0.35427 0.0
H2156 H 0.08726 0.71299 0.35637 0.0
H2157 H 0.08559 0.68387 0.39129 0.0
C2158 C 0.09912 0.57552 0.42257 0.0
C2159 C 0.07741 0.58304 0.41656 0.0
C2160 C 0.1099 0.58878 0.42533 0.0
C2161 C 0.09905 0.60984 0.42297 0.0
C2162 C 0.07779 0.61748 0.41578 0.0
C2163 C 0.06716 0.60427 0.41243 0.0
C2164 C 0.10956 0.62393 0.42843 0.0
C2165 C 0.10998 0.64137 0.40986 0.0
C2166 C 0.11917 0.62033 0.45172 0.0
C2167 C 0.11931 0.60252 0.47249 0.0
C2168 C 0.09957 0.5995 0.48597 0.0
C2169 C 0.10008 0.58269 0.50574 0.0
C2170 C 0.12023 0.56886 0.51212 0.0
C2171 C 0.13988 0.57188 0.49895 0.0
C2172 C 0.13947 0.58868 0.47928 0.0
C2173 C 0.13367 0.70038 0.45115 0.0
C2174 C 0.15476 0.69364 0.4589 0.0
C2175 C 0.12535 0.68682 0.44398 0.0
C2176 C 0.13803 0.6663 0.44407 0.0
C2177 C 0.15909 0.65953 0.45172 0.0
C2178 C 0.16737 0.67305 0.45905 0.0
C2179 C 0.12893 0.65166 0.43745 0.0
C2180 C 0.12872 0.63418 0.45584 0.0
C2181 C 0.11972 0.65517 0.41392 0.0
C2182 C 0.12067 0.67269 0.39289 0.0
C2183 C 0.14088 0.67597 0.38213 0.0
C2184 C 0.14165 0.69256 0.36242 0.0
C2185 C 0.12234 0.7059 0.35317 0.0
C2186 C 0.10221 0.70266 0.36358 0.0
C2187 C 0.10134 0.6861 0.38331 0.0
H2188 H 0.12297 0.71874 0.33791 0.0
H2189 H 0.12078 0.55577 0.52723 0.0
H2190 H 0.69132 0.07167 0.78806 0.0
H2191 H 0.65986 0.10263 0.78683 0.0
H2192 H 0.62854 0.07685 0.74425 0.0
H2193 H 0.66071 0.04616 0.7442 0.0
H2194 H 0.62087 0.11361 0.72362 0.0
H2195 H 0.61144 0.08346 0.81304 0.0
H2196 H 0.62134 0.06697 0.85729 0.0
H2197 H 0.63534 0.11979 0.86694 0.0
H2198 H 0.62581 0.1365 0.82259 0.0
H2199 H 0.52167 0.20051 0.74415 0.0
H2200 H 0.54809 0.16606 0.74272 0.0
H2201 H 0.59331 0.18263 0.77653 0.0
H2202 H 0.56697 0.21645 0.77854 0.0
H2203 H 0.58928 0.14783 0.80242 0.0
H2204 H 0.5997 0.17595 0.70811 0.0
H2205 H 0.58647 0.19079 0.66489 0.0
H2206 H 0.56564 0.13921 0.66699 0.0
H2207 H 0.57849 0.1242 0.71027 0.0
C2208 C 0.67762 0.07241 0.77877 0.0
C2209 C 0.67853 0.05624 0.7665 0.0
C2210 C 0.65947 0.09021 0.77812 0.0
C2211 C 0.64134 0.09219 0.76589 0.0
C2212 C 0.64214 0.0759 0.75387 0.0
C2213 C 0.66053 0.05822 0.75404 0.0
C2214 C 0.62201 0.11144 0.76509 0.0
C2215 C 0.6138 0.12088 0.74102 0.0
C2216 C 0.61235 0.12113 0.78765 0.0
C2217 C 0.61806 0.11117 0.81439 0.0
C2218 C 0.61676 0.09151 0.82453 0.0
C2219 C 0.62229 0.08213 0.84964 0.0
C2220 C 0.629 0.09231 0.86489 0.0
C2221 C 0.63015 0.11191 0.85509 0.0
C2222 C 0.62466 0.12136 0.82998 0.0
C2223 C 0.53732 0.19679 0.75101 0.0
C2224 C 0.54209 0.2112 0.76165 0.0
C2225 C 0.5525 0.17708 0.75014 0.0
C2226 C 0.57286 0.17155 0.75958 0.0
C2227 C 0.57776 0.18627 0.76935 0.0
C2228 C 0.56262 0.20572 0.77043 0.0
C2229 C 0.58889 0.15037 0.7608 0.0
C2230 C 0.59634 0.14047 0.78508 0.0
C2231 C 0.59734 0.14008 0.73862 0.0
C2232 C 0.58981 0.1491 0.71254 0.0
C2233 C 0.59212 0.16789 0.69942 0.0
C2234 C 0.58471 0.17631 0.67494 0.0
C2235 C 0.57509 0.16602 0.66333 0.0
C2236 C 0.57302 0.1472 0.67606 0.0
C2237 C 0.58037 0.13873 0.70054 0.0
H2238 H 0.5693 0.17259 0.64442 0.0
H2239 H 0.63328 0.08501 0.88433 0.0
H2240 H 0.73501 0.58188 0.24225 0.0
H2241 H 0.73418 0.60973 0.20575 0.0
H2242 H 0.76651 0.56658 0.15184 0.0
H2243 H 0.76694 0.53833 0.18876 0.0
H2244 H 0.76458 0.62172 0.17605 0.0
H2245 H 0.75265 0.58993 0.08847 0.0
H2246 H 0.73454 0.56699 0.0799 0.0
H2247 H 0.68992 0.57647 0.15166 0.0
H2248 H 0.7075 0.59971 0.16044 0.0
H2249 H 0.78278 0.68953 0.06014 0.0
H2250 H 0.78419 0.6583 0.0915 0.0
H2251 H 0.71553 0.66893 0.08936 0.0
H2252 H 0.71412 0.69996 0.05754 0.0
H2253 H 0.73583 0.62968 0.09232 0.0
H2254 H 0.73383 0.68058 0.14047 0.0
H2255 H 0.74558 0.70721 0.15116 0.0
H2256 H 0.80877 0.66376 0.16351 0.0
H2257 H 0.79748 0.63692 0.15251 0.0
C2258 C 0.74194 0.57821 0.22264 0.0
C2259 C 0.75121 0.55779 0.21854 0.0
C2260 C 0.7415 0.59425 0.20168 0.0
C2261 C 0.75032 0.5905 0.17579 0.0
C2262 C 0.75938 0.57005 0.17148 0.0
C2263 C 0.75974 0.55386 0.19262 0.0
C2264 C 0.75039 0.60815 0.15391 0.0
C2265 C 0.75841 0.62329 0.1577 0.0
C2266 C 0.74196 0.6107 0.12999 0.0
C2267 C 0.73159 0.59638 0.12524 0.0
C2268 C 0.73898 0.58711 0.10242 0.0
C2269 C 0.72878 0.57409 0.09751 0.0
C2270 C 0.71109 0.57029 0.11522 0.0
C2271 C 0.70364 0.5794 0.13797 0.0
C2272 C 0.71375 0.59248 0.14295 0.0
C2273 C 0.76798 0.6852 0.06615 0.0
C2274 C 0.74831 0.69746 0.05624 0.0
C2275 C 0.76879 0.66729 0.08425 0.0
C2276 C 0.74988 0.66122 0.09332 0.0
C2277 C 0.73039 0.67311 0.08283 0.0
C2278 C 0.7296 0.69098 0.06458 0.0
C2279 C 0.75021 0.64304 0.11446 0.0
C2280 C 0.74226 0.62789 0.11055 0.0
C2281 C 0.75806 0.64073 0.13869 0.0
C2282 C 0.76489 0.6568 0.14539 0.0
C2283 C 0.75029 0.67674 0.14528 0.0
C2284 C 0.75685 0.69187 0.15142 0.0
C2285 C 0.77793 0.68719 0.15794 0.0
C2286 C 0.79246 0.66736 0.15841 0.0
C2287 C 0.78599 0.65219 0.15223 0.0
H2288 H 0.78299 0.69892 0.1627 0.0
H2289 H 0.70309 0.56035 0.11125 0.0
H2290 H 0.92459 0.51999 0.48852 0.0
H2291 H 0.88682 0.52954 0.48027 0.0
H2292 H 0.89792 0.57664 0.41698 0.0
H2293 H 0.93546 0.56824 0.42696 0.0
H2294 H 0.8579 0.5895 0.43988 0.0
H2295 H 0.90145 0.52838 0.4065 0.0
H2296 H 0.92695 0.49342 0.40689 0.0
H2297 H 0.88145 0.47079 0.46554 0.0
H2298 H 0.85568 0.50574 0.46578 0.0
H2299 H 0.7902 0.57337 0.35691 0.0
H2300 H 0.81601 0.58069 0.37796 0.0
H2301 H 0.79005 0.55372 0.4536 0.0
H2302 H 0.76327 0.54719 0.43295 0.0
H2303 H 0.83533 0.53237 0.42739 0.0
H2304 H 0.78972 0.59627 0.454 0.0
H2305 H 0.76525 0.63171 0.44723 0.0
H2306 H 0.81624 0.64929 0.39245 0.0
H2307 H 0.84093 0.61388 0.39857 0.0
C2308 C 0.91884 0.53274 0.47331 0.0
C2309 C 0.93286 0.54351 0.4585 0.0
C2310 C 0.8973 0.53803 0.46838 0.0
C2311 C 0.88965 0.5535 0.4476 0.0
C2312 C 0.90348 0.56462 0.4331 0.0
C2313 C 0.92493 0.55973 0.43864 0.0
C2314 C 0.86776 0.55711 0.44011 0.0
C2315 C 0.85302 0.57703 0.43694 0.0
C2316 C 0.86132 0.54081 0.43643 0.0
C2317 C 0.87678 0.51974 0.43645 0.0
C2318 C 0.89696 0.51599 0.4197 0.0
C2319 C 0.91146 0.49617 0.41981 0.0
C2320 C 0.90591 0.47992 0.43642 0.0
C2321 C 0.88577 0.48343 0.45284 0.0
C2322 C 0.8712 0.50325 0.45285 0.0
C2323 C 0.78903 0.57 0.37821 0.0
C2324 C 0.77504 0.55916 0.39317 0.0
C2325 C 0.8039 0.57419 0.39021 0.0
C2326 C 0.80503 0.56751 0.41721 0.0
C2327 C 0.78937 0.55894 0.43268 0.0
C2328 C 0.77425 0.55505 0.42079 0.0
C2329 C 0.82548 0.56465 0.42744 0.0
C2330 C 0.8401 0.54478 0.43079 0.0
C2331 C 0.83196 0.58105 0.43035 0.0
C2332 C 0.81712 0.60235 0.42657 0.0
C2333 C 0.79565 0.60764 0.44029 0.0
C2334 C 0.78175 0.62774 0.43663 0.0
C2335 C 0.78917 0.64274 0.41937 0.0
C2336 C 0.81051 0.63766 0.40579 0.0
C2337 C 0.82447 0.61757 0.40938 0.0
H2338 H 0.77839 0.6583 0.41657 0.0
H2339 H 0.91718 0.46461 0.43647 0.0
H2340 H 0.12299 0.5617 0.65998 0.0
H2341 H 0.08999 0.56306 0.64316 0.0
H2342 H 0.13085 0.5268 0.5842 0.0
H2343 H 0.16346 0.5251 0.60087 0.0
H2344 H 0.09653 0.55455 0.56484 0.0
H2345 H 0.11036 0.50541 0.64581 0.0
H2346 H 0.11392 0.49641 0.69325 0.0
H2347 H 0.04817 0.53576 0.71177 0.0
H2348 H 0.04435 0.54519 0.66435 0.0
H2349 H 0.04782 0.49329 0.52888 0.0
H2350 H 0.07172 0.50211 0.55198 0.0
H2351 H 0.0146 0.53745 0.59831 0.0
H2352 H -0.00913 0.52781 0.57615 0.0
H2353 H 0.04966 0.51811 0.62712 0.0
H2354 H 0.03753 0.56241 0.54105 0.0
H2355 H 0.0375 0.56539 0.49313 0.0
H2356 H 0.10543 0.52887 0.48431 0.0
H2357 H 0.10579 0.52537 0.5321 0.0
C2358 C 0.12489 0.55433 0.64313 0.0
C2359 C 0.14588 0.54309 0.63197 0.0
C2360 C 0.10605 0.55513 0.63358 0.0
C2361 C 0.10801 0.54468 0.61281 0.0
C2362 C 0.12896 0.53495 0.6003 0.0
C2363 C 0.14768 0.53412 0.60978 0.0
C2364 C 0.08874 0.54196 0.6052 0.0
C2365 C 0.08625 0.54667 0.57845 0.0
C2366 C 0.07497 0.53204 0.62315 0.0
C2367 C 0.07716 0.52617 0.65159 0.0
C2368 C 0.09672 0.51222 0.66001 0.0
C2369 C 0.09878 0.50704 0.68688 0.0
C2370 C 0.0813 0.51556 0.70551 0.0
C2371 C 0.06171 0.52922 0.69731 0.0
C2372 C 0.05958 0.53448 0.67045 0.0
C2373 C 0.04055 0.50241 0.54455 0.0
C2374 C 0.01773 0.5098 0.55102 0.0
C2375 C 0.05408 0.50757 0.55758 0.0
C2376 C 0.04484 0.52079 0.57646 0.0
C2377 C 0.02203 0.52726 0.58384 0.0
C2378 C 0.00855 0.52177 0.5712 0.0
C2379 C 0.05875 0.52948 0.5864 0.0
C2380 C 0.05974 0.5263 0.61356 0.0
C2381 C 0.07173 0.5403 0.56879 0.0
C2382 C 0.07171 0.5437 0.53999 0.0
C2383 C 0.05246 0.55514 0.52881 0.0
C2384 C 0.05237 0.55685 0.50175 0.0
C2385 C 0.07144 0.54725 0.48588 0.0
C2386 C 0.09071 0.53622 0.49675 0.0
C2387 C 0.09087 0.53439 0.52375 0.0
H2388 H 0.07134 0.54811 0.4652 0.0
H2389 H 0.08293 0.51154 0.72631 0.0
H2390 H 0.54382 0.74867 0.17964 0.0
H2391 H 0.57587 0.75252 0.1489 0.0
H2392 H 0.56961 0.80716 0.17804 0.0
H2393 H 0.53788 0.8029 0.20975 0.0
H2394 H 0.58456 0.77825 0.1097 0.0
H2395 H 0.6204 0.81074 0.17633 0.0
H2396 H 0.61938 0.81088 0.22369 0.0
H2397 H 0.60597 0.75389 0.24304 0.0
H2398 H 0.6072 0.7533 0.19581 0.0
H2399 H 0.68217 0.79519 0.03454 0.0
H2400 H 0.6459 0.79979 0.06117 0.0
H2401 H 0.67588 0.75421 0.12355 0.0
H2402 H 0.712 0.75036 0.09757 0.0
H2403 H 0.64748 0.78259 0.14499 0.0
H2404 H 0.64519 0.7445 0.07979 0.0
H2405 H 0.64605 0.73633 0.03603 0.0
H2406 H 0.59587 0.79322 0.01771 0.0
H2407 H 0.59449 0.80156 0.06161 0.0
C2408 C 0.5491 0.76163 0.17938 0.0
C2409 C 0.53844 0.77539 0.19729 0.0
C2410 C 0.56743 0.76385 0.16171 0.0
C2411 C 0.57537 0.77997 0.16136 0.0
C2412 C 0.56406 0.79436 0.17831 0.0
C2413 C 0.54589 0.79196 0.19633 0.0
C2414 C 0.59608 0.78094 0.14411 0.0
C2415 C 0.59827 0.77937 0.11737 0.0
C2416 C 0.61413 0.78204 0.15417 0.0
C2417 C 0.61362 0.78213 0.18259 0.0
C2418 C 0.61729 0.79823 0.19071 0.0
C2419 C 0.61668 0.79839 0.21752 0.0
C2420 C 0.61253 0.78245 0.23637 0.0
C2421 C 0.60909 0.76627 0.22843 0.0
C2422 C 0.60973 0.76602 0.20165 0.0
C2423 C 0.68091 0.78628 0.05401 0.0
C2424 C 0.69981 0.77251 0.0641 0.0
C2425 C 0.6602 0.78878 0.06914 0.0
C2426 C 0.65805 0.77722 0.09435 0.0
C2427 C 0.67704 0.76344 0.10429 0.0
C2428 C 0.6977 0.76121 0.0894 0.0
C2429 C 0.6362 0.77934 0.11063 0.0
C2430 C 0.63371 0.78173 0.13717 0.0
C2431 C 0.61817 0.77811 0.10069 0.0
C2432 C 0.61995 0.77375 0.07377 0.0
C2433 C 0.63455 0.75536 0.06628 0.0
C2434 C 0.63506 0.75067 0.0415 0.0
C2435 C 0.62112 0.76431 0.02401 0.0
C2436 C 0.60668 0.78269 0.03125 0.0
C2437 C 0.60597 0.78738 0.0561 0.0
H2438 H 0.62131 0.76061 0.00495 0.0
H2439 H 0.61203 0.78261 0.25711 0.0
H2440 H 0.68289 0.49782 0.09669 0.0
H2441 H 0.65418 0.4925 0.07821 0.0
H2442 H 0.61757 0.48612 0.15599 0.0
H2443 H 0.64584 0.49203 0.17461 0.0
H2444 H 0.62104 0.45577 0.12872 0.0
H2445 H 0.59954 0.5277 0.116 0.0
H2446 H 0.60252 0.56224 0.1022 0.0
H2447 H 0.61874 0.55272 0.02134 0.0
H2448 H 0.61587 0.51809 0.03462 0.0
H2449 H 0.51677 0.47372 0.08426 0.0
H2450 H 0.54797 0.47058 0.10596 0.0
H2451 H 0.58826 0.47366 0.03013 0.0
H2452 H 0.5573 0.47635 0.00864 0.0
H2453 H 0.58233 0.50531 0.05785 0.0
H2454 H 0.60215 0.43208 0.07334 0.0
H2455 H 0.59534 0.39919 0.08976 0.0
H2456 H 0.57836 0.41319 0.16867 0.0
H2457 H 0.58476 0.44631 0.15267 0.0
C2458 C 0.66859 0.4956 0.10984 0.0
C2459 C 0.66669 0.49531 0.13714 0.0
C2460 C 0.65226 0.49247 0.09926 0.0
C2461 C 0.6338 0.48895 0.11578 0.0
C2462 C 0.6318 0.48868 0.14299 0.0
C2463 C 0.64802 0.49198 0.15357 0.0
C2464 C 0.61677 0.48522 0.10461 0.0
C2465 C 0.61238 0.46667 0.11341 0.0
C2466 C 0.60566 0.49944 0.08455 0.0
C2467 C 0.60785 0.52013 0.07639 0.0
C2468 C 0.60403 0.53285 0.0953 0.0
C2469 C 0.60555 0.55251 0.08755 0.0
C2470 C 0.61086 0.55965 0.06092 0.0
C2471 C 0.61457 0.54719 0.04195 0.0
C2472 C 0.61297 0.52754 0.04958 0.0
C2473 C 0.53259 0.47274 0.07241 0.0
C2474 C 0.5347 0.47558 0.04476 0.0
C2475 C 0.55034 0.47107 0.08478 0.0
C2476 C 0.57027 0.47215 0.06955 0.0
C2477 C 0.57293 0.47296 0.04215 0.0
C2478 C 0.55526 0.47455 0.02988 0.0
C2479 C 0.58701 0.47565 0.08148 0.0
C2480 C 0.59117 0.49431 0.07296 0.0
C2481 C 0.59755 0.4617 0.1021 0.0
C2482 C 0.59374 0.44177 0.11175 0.0
C2483 C 0.59677 0.42823 0.09416 0.0
C2484 C 0.59303 0.40953 0.1034 0.0
C2485 C 0.58637 0.40413 0.13023 0.0
C2486 C 0.58349 0.4174 0.14789 0.0
C2487 C 0.5872 0.43614 0.13874 0.0
H2488 H 0.58348 0.38963 0.13735 0.0
H2489 H 0.61209 0.57485 0.05504 0.0
H2490 H 0.4084 0.45782 0.00251 0.0
H2491 H 0.39453 0.43148 0.99599 0.0
H2492 H 0.35215 0.43726 0.07029 0.0
H2493 H 0.36561 0.46394 0.0767 0.0
H2494 H 0.37793 0.39722 0.06427 0.0
H2495 H 0.33248 0.45641 0.01519 0.0
H2496 H 0.32362 0.48655 0.98088 0.0
H2497 H 0.35202 0.44875 0.92057 0.0
H2498 H 0.362 0.41847 0.95444 0.0
H2499 H 0.31461 0.33555 0.06189 0.0
H2500 H 0.32608 0.36458 0.06348 0.0
H2501 H 0.35819 0.36292 0.98321 0.0
H2502 H 0.34674 0.33385 0.98149 0.0
H2503 H 0.33899 0.40074 0.99035 0.0
H2504 H 0.3872 0.34252 0.03757 0.0
H2505 H 0.39721 0.31176 0.07079 0.0
H2506 H 0.36429 0.34716 0.13286 0.0
H2507 H 0.35382 0.37813 0.09995 0.0
C2508 C 0.39575 0.45387 0.01716 0.0
C2509 C 0.38803 0.46314 0.04004 0.0
C2510 C 0.38791 0.43874 0.01343 0.0
C2511 C 0.37217 0.43258 0.03252 0.0
C2512 C 0.3643 0.44184 0.0553 0.0
C2513 C 0.37206 0.45703 0.05898 0.0
C2514 C 0.3647 0.41576 0.02945 0.0
C2515 C 0.36916 0.39809 0.04828 0.0
C2516 C 0.35402 0.41668 0.00796 0.0
C2517 C 0.34847 0.43509 0.98749 0.0
C2518 C 0.33732 0.45451 0.99464 0.0
C2519 C 0.33203 0.47166 0.97523 0.0
C2520 C 0.33736 0.46958 0.94856 0.0
C2521 C 0.34799 0.45035 0.94124 0.0
C2522 C 0.35362 0.4332 0.96055 0.0
C2523 C 0.32429 0.34126 0.04464 0.0
C2524 C 0.33007 0.3322 0.0217 0.0
C2525 C 0.33082 0.35788 0.04556 0.0
C2526 C 0.34359 0.36561 0.02372 0.0
C2527 C 0.34866 0.35708 0.00044 0.0
C2528 C 0.34203 0.34049 0.99945 0.0
C2529 C 0.35192 0.38232 0.02544 0.0
C2530 C 0.3478 0.39988 0.00628 0.0
C2531 C 0.36321 0.38127 0.04641 0.0
C2532 C 0.36958 0.36265 0.06625 0.0
C2533 C 0.38198 0.34375 0.05827 0.0
C2534 C 0.38775 0.32626 0.07706 0.0
C2535 C 0.38136 0.32749 0.10392 0.0
C2536 C 0.36922 0.34622 0.11204 0.0
C2537 C 0.36338 0.36376 0.09333 0.0
H2538 H 0.38584 0.31393 0.11843 0.0
H2539 H 0.33322 0.48286 0.93357 0.0
H2540 H 0.02483 0.20148 0.23883 0.0
H2541 H 0.05055 0.1671 0.23472 0.0
H2542 H 0.09313 0.17689 0.28029 0.0
H2543 H 0.06735 0.21063 0.28508 0.0
H2544 H 0.09227 0.15114 0.21448 0.0
H2545 H 0.11683 0.13522 0.31973 0.0
H2546 H 0.10008 0.14424 0.36388 0.0
H2547 H 0.03586 0.15473 0.34462 0.0
H2548 H 0.05223 0.14549 0.30051 0.0
H2549 H 0.19131 0.07033 0.21907 0.0
H2550 H 0.16118 0.10197 0.22082 0.0
H2551 H 0.12549 0.07212 0.28576 0.0
H2552 H 0.1572 0.04091 0.28598 0.0
H2553 H 0.11777 0.10594 0.29602 0.0
H2554 H 0.11273 0.08809 0.21431 0.0
H2555 H 0.12908 0.07653 0.17133 0.0
H2556 H 0.14964 0.1297 0.14471 0.0
H2557 H 0.13322 0.14166 0.18735 0.0
C2558 C 0.03965 0.19622 0.24797 0.0
C2559 C 0.04386 0.20864 0.26264 0.0
C2560 C 0.05441 0.1766 0.24554 0.0
C2561 C 0.07364 0.16911 0.25771 0.0
C2562 C 0.0782 0.18196 0.27133 0.0
C2563 C 0.06343 0.20135 0.27397 0.0
C2564 C 0.08888 0.14784 0.25682 0.0
C2565 C 0.09768 0.14118 0.23233 0.0
C2566 C 0.09574 0.13452 0.28007 0.0
C2567 C 0.08577 0.1398 0.30673 0.0
C2568 C 0.09915 0.13934 0.32497 0.0
C2569 C 0.08972 0.14452 0.34997 0.0
C2570 C 0.06692 0.1501 0.35702 0.0
C2571 C 0.05351 0.15046 0.33911 0.0
C2572 C 0.06286 0.14527 0.31409 0.0
C2573 C 0.17698 0.07047 0.23364 0.0
C2574 C 0.17655 0.05308 0.25227 0.0
C2575 C 0.15948 0.08861 0.23442 0.0
C2576 C 0.14038 0.08959 0.2528 0.0
C2577 C 0.13983 0.07199 0.27121 0.0
C2578 C 0.15788 0.05404 0.27125 0.0
C2579 C 0.12162 0.10918 0.2536 0.0
C2580 C 0.11215 0.11563 0.27812 0.0
C2581 C 0.11365 0.12198 0.23045 0.0
C2582 C 0.12179 0.11573 0.20402 0.0
C2583 C 0.12055 0.0974 0.19917 0.0
C2584 C 0.12984 0.09077 0.17488 0.0
C2585 C 0.14038 0.10237 0.15531 0.0
C2586 C 0.14135 0.12078 0.15982 0.0
C2587 C 0.13194 0.12756 0.18398 0.0
H2588 H 0.14785 0.09705 0.13671 0.0
H2589 H 0.05965 0.15413 0.37638 0.0
H2590 H 0.20678 0.32335 0.94614 0.0
H2591 H 0.2066 0.35385 0.91377 0.0
H2592 H 0.26891 0.351 0.93272 0.0
H2593 H 0.26942 0.32021 0.96463 0.0
H2594 H 0.20534 0.39058 0.91396 0.0
H2595 H 0.29915 0.37025 0.87801 0.0
H2596 H 0.33182 0.33996 0.87335 0.0
H2597 H 0.29068 0.30473 0.87047 0.0
H2598 H 0.25781 0.3349 0.87456 0.0
H2599 H 0.22422 0.4776 0.82476 0.0
H2600 H 0.22545 0.44945 0.86194 0.0
H2601 H 0.24766 0.40654 0.80704 0.0
H2602 H 0.24713 0.43422 0.77043 0.0
H2603 H 0.26952 0.39046 0.84512 0.0
H2604 H 0.19237 0.42329 0.84027 0.0
H2605 H 0.15777 0.45196 0.84028 0.0
H2606 H 0.16249 0.45891 0.91822 0.0
H2607 H 0.19728 0.43042 0.91852 0.0
C2608 C 0.22043 0.32923 0.94356 0.0
C2609 C 0.23819 0.31909 0.95803 0.0
C2610 C 0.22029 0.34679 0.92498 0.0
C2611 C 0.23788 0.35479 0.92028 0.0
C2612 C 0.25531 0.34505 0.93535 0.0
C2613 C 0.25554 0.3274 0.9538 0.0
C2614 C 0.23809 0.37299 0.89933 0.0
C2615 C 0.21947 0.39052 0.89902 0.0
C2616 C 0.2563 0.3731 0.87937 0.0
C2617 C 0.27598 0.35481 0.87695 0.0
C2618 C 0.29707 0.35605 0.87634 0.0
C2619 C 0.31563 0.33891 0.87377 0.0
C2620 C 0.31331 0.32043 0.8717 0.0
C2621 C 0.29244 0.31905 0.87216 0.0
C2622 C 0.27384 0.33617 0.87461 0.0
C2623 C 0.22937 0.46215 0.82072 0.0
C2624 C 0.23547 0.45825 0.79454 0.0
C2625 C 0.23 0.446 0.842 0.0
C2626 C 0.23647 0.42563 0.83754 0.0
C2627 C 0.24269 0.42191 0.81134 0.0
C2628 C 0.24225 0.43789 0.79027 0.0
C2629 C 0.23675 0.40805 0.85971 0.0
C2630 C 0.25549 0.39062 0.86026 0.0
C2631 C 0.21844 0.40781 0.87941 0.0
C2632 C 0.19754 0.42489 0.87929 0.0
C2633 C 0.1861 0.43103 0.85733 0.0
C2634 C 0.16645 0.44723 0.85729 0.0
C2635 C 0.15797 0.45729 0.8792 0.0
C2636 C 0.1691 0.45113 0.90123 0.0
C2637 C 0.18878 0.43495 0.90136 0.0
H2638 H 0.14275 0.46982 0.87914 0.0
H2639 H 0.32769 0.3072 0.86962 0.0
H2640 H 0.26973 0.26453 0.91653 0.0
H2641 H 0.3054 0.26212 0.88973 0.0
H2642 H 0.33795 0.22033 0.95311 0.0
H2643 H 0.30209 0.22272 0.98016 0.0
H2644 H 0.33945 0.27226 0.89955 0.0
H2645 H 0.38468 0.18645 0.92316 0.0
H2646 H 0.37626 0.15408 0.93683 0.0
H2647 H 0.31747 0.18025 0.90013 0.0
H2648 H 0.3257 0.21266 0.88596 0.0
H2649 H 0.45013 0.25652 0.84297 0.0
H2650 H 0.41919 0.25265 0.87615 0.0
H2651 H 0.39871 0.22543 0.82349 0.0
H2652 H 0.42989 0.22876 0.79045 0.0
H2653 H 0.39196 0.20747 0.87368 0.0
H2654 H 0.38001 0.27585 0.82644 0.0
H2655 H 0.38956 0.3075 0.81157 0.0
H2656 H 0.37857 0.31805 0.89167 0.0
H2657 H 0.37044 0.28568 0.90726 0.0
C2658 C 0.28447 0.25469 0.92469 0.0
C2659 C 0.28321 0.24375 0.95037 0.0
C2660 C 0.30482 0.25344 0.90942 0.0
C2661 C 0.32428 0.24103 0.91941 0.0
C2662 C 0.32309 0.22989 0.94499 0.0
C2663 C 0.30267 0.23126 0.96039 0.0
C2664 C 0.34574 0.24 0.90294 0.0
C2665 C 0.351 0.2581 0.89397 0.0
C2666 C 0.3607 0.22151 0.89565 0.0
C2667 C 0.35569 0.20204 0.90379 0.0
C2668 C 0.36999 0.18526 0.91796 0.0
C2669 C 0.36525 0.16691 0.9258 0.0
C2670 C 0.3463 0.16513 0.91944 0.0
C2671 C 0.33209 0.18167 0.90515 0.0
C2672 C 0.33677 0.20005 0.89724 0.0
C2673 C 0.43923 0.24944 0.83856 0.0
C2674 C 0.44231 0.2432 0.81389 0.0
C2675 C 0.42156 0.24723 0.85757 0.0
C2676 C 0.40643 0.2391 0.85209 0.0
C2677 C 0.41017 0.2318 0.8281 0.0
C2678 C 0.42797 0.23379 0.80918 0.0
C2679 C 0.38572 0.23976 0.87021 0.0
C2680 C 0.38056 0.22162 0.87949 0.0
C2681 C 0.37072 0.2583 0.87755 0.0
C2682 C 0.37493 0.27812 0.86807 0.0
C2683 C 0.37985 0.28477 0.84095 0.0
C2684 C 0.38502 0.30287 0.83237 0.0
C2685 C 0.38451 0.31488 0.85062 0.0
C2686 C 0.379 0.30872 0.87754 0.0
C2687 C 0.37428 0.2904 0.88628 0.0
H2688 H 0.38842 0.32894 0.8439 0.0
H2689 H 0.34265 0.15092 0.92554 0.0
H2690 H 0.46956 0.55497 0.91585 0.0
H2691 H 0.43931 0.55783 0.8926 0.0
H2692 H 0.40036 0.54564 0.96718 0.0
H2693 H 0.43026 0.5434 0.99031 0.0
H2694 H 0.41429 0.51536 0.93018 0.0
H2695 H 0.38072 0.58761 0.93486 0.0
H2696 H 0.38056 0.62325 0.9265 0.0
H2697 H 0.39485 0.6218 0.84311 0.0
H2698 H 0.39542 0.58603 0.85101 0.0
H2699 H 0.31255 0.51613 0.90523 0.0
H2700 H 0.34241 0.52209 0.92044 0.0
H2701 H 0.36609 0.54328 0.84026 0.0
H2702 H 0.33669 0.5367 0.82471 0.0
H2703 H 0.36295 0.56909 0.87466 0.0
H2704 H 0.39528 0.49957 0.86692 0.0
H2705 H 0.3993 0.46314 0.87164 0.0
H2706 H 0.39138 0.45822 0.95588 0.0
H2707 H 0.38726 0.49463 0.95178 0.0
C2708 C 0.45413 0.55395 0.92726 0.0
C2709 C 0.4522 0.54855 0.95485 0.0
C2710 C 0.43697 0.55544 0.91398 0.0
C2711 C 0.41789 0.55161 0.92828 0.0
C2712 C 0.4151 0.54847 0.9559 0.0
C2713 C 0.43213 0.54714 0.96909 0.0
C2714 C 0.40265 0.54735 0.91483 0.0
C2715 C 0.40281 0.52712 0.91833 0.0
C2716 C 0.38872 0.56258 0.89827 0.0
C2717 C 0.38838 0.58407 0.89355 0.0
C2718 C 0.38407 0.59482 0.91476 0.0
C2719 C 0.38384 0.61506 0.9101 0.0
C2720 C 0.38776 0.62476 0.88429 0.0
C2721 C 0.39186 0.61425 0.86309 0.0
C2722 C 0.39211 0.594 0.86765 0.0
C2723 C 0.32431 0.52173 0.89078 0.0
C2724 C 0.32228 0.52592 0.86378 0.0
C2725 C 0.34128 0.52521 0.8995 0.0
C2726 C 0.35642 0.53303 0.8814 0.0
C2727 C 0.35447 0.53729 0.85446 0.0
C2728 C 0.33761 0.53363 0.84568 0.0
C2729 C 0.37391 0.53721 0.89093 0.0
C2730 C 0.37441 0.55731 0.88649 0.0
C2731 C 0.38882 0.52177 0.90624 0.0
C2732 C 0.39068 0.49994 0.90902 0.0
C2733 C 0.39409 0.4908 0.88649 0.0
C2734 C 0.39653 0.47012 0.88905 0.0
C2735 C 0.39558 0.4584 0.91405 0.0
C2736 C 0.39218 0.46733 0.93654 0.0
C2737 C 0.38983 0.48798 0.93411 0.0
H2738 H 0.3974 0.44241 0.916 0.0
H2739 H 0.38757 0.64044 0.88073 0.0
H2740 H 0.62341 0.69777 0.99872 0.0
H2741 H 0.61252 0.66854 0.99581 0.0
H2742 H 0.68042 0.63472 0.9737 0.0
H2743 H 0.69137 0.66391 0.9764 0.0
H2744 H 0.6525 0.63351 0.94091 0.0
H2745 H 0.65613 0.62354 0.0339 0.0
H2746 H 0.6474 0.63282 0.07853 0.0
H2747 H 0.57905 0.64206 0.0783 0.0
H2748 H 0.58727 0.63316 0.03348 0.0
H2749 H 0.63476 0.53901 0.94688 0.0
H2750 H 0.64863 0.56562 0.95313 0.0
H2751 H 0.58381 0.59771 0.98893 0.0
H2752 H 0.57036 0.57081 0.98363 0.0
H2753 H 0.61163 0.59914 0.01539 0.0
H2754 H 0.60598 0.61204 0.92319 0.0
H2755 H 0.61261 0.60403 0.87806 0.0
H2756 H 0.68202 0.59105 0.87598 0.0
H2757 H 0.67581 0.59872 0.92127 0.0
C2758 C 0.63598 0.68409 0.99325 0.0
C2759 C 0.65823 0.68307 0.98782 0.0
C2760 C 0.62978 0.66738 0.99178 0.0
C2761 C 0.64571 0.64945 0.98472 0.0
C2762 C 0.66791 0.64841 0.97927 0.0
C2763 C 0.67414 0.66503 0.98097 0.0
C2764 C 0.63915 0.63202 0.98208 0.0
C2765 C 0.64389 0.62573 0.9573 0.0
C2766 C 0.62733 0.62235 0.0033 0.0
C2767 C 0.6223 0.62793 0.03016 0.0
C2768 C 0.63919 0.62778 0.04322 0.0
C2769 C 0.63434 0.63293 0.06859 0.0
C2770 C 0.61266 0.6381 0.0812 0.0
C2771 C 0.5958 0.63811 0.06848 0.0
C2772 C 0.60056 0.63301 0.0431 0.0
C2773 C 0.62363 0.55175 0.95616 0.0
C2774 C 0.60159 0.55291 0.96497 0.0
C2775 C 0.63146 0.56698 0.95959 0.0
C2776 C 0.61718 0.58386 0.97117 0.0
C2777 C 0.59517 0.58487 0.98002 0.0
C2778 C 0.5875 0.56951 0.97705 0.0
C2779 C 0.62499 0.6005 0.97422 0.0
C2780 C 0.62043 0.60673 0.99905 0.0
C2781 C 0.63666 0.61033 0.95295 0.0
C2782 C 0.64045 0.60573 0.92572 0.0
C2783 C 0.62267 0.60732 0.91318 0.0
C2784 C 0.62635 0.60287 0.88757 0.0
C2785 C 0.64773 0.59698 0.87419 0.0
C2786 C 0.66547 0.59558 0.88639 0.0
C2787 C 0.66188 0.59999 0.91202 0.0
H2788 H 0.65055 0.59354 0.85436 0.0
H2789 H 0.60893 0.64206 0.10085 0.0
H2790 H 0.96577 0.82077 0.74879 0.0
H2791 H 0.94064 0.856 0.74804 0.0
H2792 H 0.88845 0.83687 0.73429 0.0
H2793 H 0.91304 0.80193 0.7357 0.0
H2794 H 0.89432 0.87332 0.69977 0.0
H2795 H 0.89268 0.84148 0.79157 0.0
H2796 H 0.90915 0.82576 0.83244 0.0
H2797 H 0.92235 0.88067 0.83446 0.0
H2798 H 0.90682 0.89649 0.79289 0.0
H2799 H 0.79242 0.94766 0.7216 0.0
H2800 H 0.82448 0.91733 0.72 0.0
H2801 H 0.85677 0.94212 0.76271 0.0
H2802 H 0.82385 0.97199 0.76594 0.0
H2803 H 0.86642 0.90536 0.78071 0.0
H2804 H 0.87132 0.9379 0.69213 0.0
H2805 H 0.85928 0.95544 0.64912 0.0
H2806 H 0.84538 0.90278 0.63871 0.0
H2807 H 0.85705 0.885 0.68182 0.0
C2808 C 0.94893 0.82416 0.7456 0.0
C2809 C 0.9414 0.80858 0.74228 0.0
C2810 C 0.93461 0.84425 0.74516 0.0
C2811 C 0.91266 0.8491 0.74099 0.0
C2812 C 0.90531 0.83355 0.73737 0.0
C2813 C 0.9194 0.81354 0.73831 0.0
C2814 C 0.89687 0.87012 0.74086 0.0
C2815 C 0.88815 0.88035 0.71746 0.0
C2816 C 0.88956 0.87968 0.76368 0.0
C2817 C 0.89878 0.87012 0.78882 0.0
C2818 C 0.89937 0.85015 0.80044 0.0
C2819 C 0.9085 0.84122 0.82379 0.0
C2820 C 0.91666 0.85224 0.83609 0.0
C2821 C 0.91594 0.87217 0.82493 0.0
C2822 C 0.90705 0.88109 0.8014 0.0
C2823 C 0.80646 0.94681 0.73034 0.0
C2824 C 0.80564 0.9624 0.74361 0.0
C2825 C 0.82496 0.92941 0.72931 0.0
C2826 C 0.84357 0.92739 0.74063 0.0
C2827 C 0.84282 0.94313 0.75369 0.0
C2828 C 0.82402 0.96033 0.75537 0.0
C2829 C 0.86327 0.90855 0.73962 0.0
C2830 C 0.87276 0.89866 0.76279 0.0
C2831 C 0.87193 0.89958 0.71633 0.0
C2832 C 0.86493 0.91017 0.69032 0.0
C2833 C 0.86557 0.9301 0.68074 0.0
C2834 C 0.85882 0.94008 0.65634 0.0
C2835 C 0.85153 0.93024 0.64122 0.0
C2836 C 0.85102 0.91038 0.65045 0.0
C2837 C 0.85773 0.90033 0.67486 0.0
H2838 H 0.84631 0.938 0.62233 0.0
H2839 H 0.92356 0.84531 0.85426 0.0
H2840 H 0.53081 0.18469 0.59715 0.0
H2841 H 0.53345 0.16292 0.56522 0.0
H2842 H 0.51214 0.12064 0.62803 0.0
H2843 H 0.50894 0.14242 0.65987 0.0
H2844 H 0.54398 0.10141 0.59041 0.0
H2845 H 0.47524 0.15694 0.59476 0.0
H2846 H 0.453 0.19319 0.59159 0.0
H2847 H 0.48156 0.204 0.51077 0.0
H2848 H 0.50424 0.16784 0.51361 0.0
H2849 H 0.46941 0.06737 0.53995 0.0
H2850 H 0.48087 0.08946 0.56036 0.0
H2851 H 0.53023 0.09391 0.49326 0.0
H2852 H 0.51953 0.07103 0.47314 0.0
H2853 H 0.49021 0.13286 0.52664 0.0
H2854 H 0.55863 0.07722 0.52113 0.0
H2855 H 0.58386 0.04192 0.52535 0.0
H2856 H 0.5597 0.03258 0.6079 0.0
H2857 H 0.53338 0.0673 0.60372 0.0
C2858 C 0.52696 0.17062 0.60421 0.0
C2859 C 0.51932 0.16547 0.63103 0.0
C2860 C 0.52854 0.1582 0.58595 0.0
C2861 C 0.52259 0.1404 0.59425 0.0
C2862 C 0.51675 0.13436 0.62124 0.0
C2863 C 0.51505 0.1468 0.63947 0.0
C2864 C 0.52037 0.12899 0.57488 0.0
C2865 C 0.53244 0.10829 0.57623 0.0
C2866 C 0.5054 0.13811 0.55626 0.0
C2867 C 0.49161 0.15977 0.55449 0.0
C2868 C 0.4769 0.16709 0.57638 0.0
C2869 C 0.4642 0.18761 0.57464 0.0
C2870 C 0.46591 0.20091 0.55102 0.0
C2871 C 0.48028 0.19369 0.52907 0.0
C2872 C 0.49306 0.17319 0.53073 0.0
C2873 C 0.4824 0.07335 0.52927 0.0
C2874 C 0.4935 0.06754 0.50489 0.0
C2875 C 0.48913 0.08573 0.54111 0.0
C2876 C 0.5068 0.09275 0.52863 0.0
C2877 C 0.51698 0.08813 0.50351 0.0
C2878 C 0.51062 0.07533 0.4919 0.0
C2879 C 0.514 0.10525 0.54203 0.0
C2880 C 0.50245 0.12612 0.54002 0.0
C2881 C 0.52967 0.09632 0.55982 0.0
C2882 C 0.54352 0.07466 0.56182 0.0
C2883 C 0.55803 0.06733 0.53985 0.0
C2884 C 0.57261 0.04746 0.54229 0.0
C2885 C 0.57319 0.03494 0.56681 0.0
C2886 C 0.559 0.04216 0.58883 0.0
C2887 C 0.54412 0.06187 0.58638 0.0
H2888 H 0.58487 0.01978 0.5688 0.0
H2889 H 0.45606 0.21679 0.5497 0.0
H2890 H 0.47516 0.34 0.89586 0.0
H2891 H 0.46499 0.36879 0.91947 0.0
H2892 H 0.42703 0.4072 0.85832 0.0
H2893 H 0.43743 0.37815 0.83445 0.0
H2894 H 0.45497 0.42359 0.86498 0.0
H2895 H 0.40215 0.4001 0.92111 0.0
H2896 H 0.3831 0.37734 0.95006 0.0
H2897 H 0.42702 0.36406 0.00711 0.0
H2898 H 0.44693 0.38618 0.97809 0.0
H2899 H 0.44289 0.47933 0.98439 0.0
H2900 H 0.42974 0.46049 0.96134 0.0
H2901 H 0.49432 0.43918 0.91773 0.0
H2902 H 0.50775 0.45866 0.94037 0.0
H2903 H 0.43932 0.42237 0.96186 0.0
H2904 H 0.48878 0.43433 0.85529 0.0
H2905 H 0.50039 0.46201 0.82581 0.0
H2906 H 0.45104 0.50605 0.86911 0.0
H2907 H 0.43903 0.47872 0.89865 0.0
C2908 C 0.46411 0.35445 0.88789 0.0
C2909 C 0.45716 0.35699 0.86336 0.0
C2910 C 0.45817 0.37088 0.90145 0.0
C2911 C 0.44521 0.39019 0.89069 0.0
C2912 C 0.43702 0.39243 0.86698 0.0
C2913 C 0.44285 0.37586 0.85346 0.0
C2914 C 0.44345 0.40815 0.90227 0.0
C2915 C 0.45137 0.42342 0.88614 0.0
C2916 C 0.4377 0.40855 0.92973 0.0
C2917 C 0.42621 0.39473 0.94718 0.0
C2918 C 0.40802 0.3921 0.93963 0.0
C2919 C 0.39703 0.3793 0.9561 0.0
C2920 C 0.4039 0.3692 0.98038 0.0
C2921 C 0.42176 0.37188 0.98826 0.0
C2922 C 0.43293 0.38453 0.97176 0.0
C2923 C 0.45445 0.47061 0.97001 0.0
C2924 C 0.4765 0.47038 0.96437 0.0
C2925 C 0.44679 0.45985 0.95684 0.0
C2926 C 0.46094 0.4485 0.93785 0.0
C2927 C 0.48303 0.4481 0.93214 0.0
C2928 C 0.49074 0.45907 0.94521 0.0
C2929 C 0.45278 0.43644 0.92481 0.0
C2930 C 0.44277 0.42254 0.94069 0.0
C2931 C 0.45572 0.43786 0.89707 0.0
C2932 C 0.46301 0.45439 0.87928 0.0
C2933 C 0.48031 0.44992 0.85845 0.0
C2934 C 0.487 0.46556 0.84174 0.0
C2935 C 0.47648 0.48577 0.84559 0.0
C2936 C 0.45923 0.49039 0.86615 0.0
C2937 C 0.45249 0.47481 0.8829 0.0
H2938 H 0.4817 0.49785 0.83263 0.0
H2939 H 0.39541 0.35929 0.99308 0.0
H2940 H 0.49682 0.81192 0.4169 0.0
H2941 H 0.49164 0.83731 0.44439 0.0
H2942 H 0.4328 0.87481 0.41114 0.0
H2943 H 0.43733 0.84907 0.38403 0.0
H2944 H 0.46736 0.89234 0.40251 0.0
H2945 H 0.42765 0.85909 0.47111 0.0
H2946 H 0.41886 0.83128 0.50338 0.0
H2947 H 0.47379 0.82347 0.54226 0.0
H2948 H 0.48325 0.85098 0.5099 0.0
H2949 H 0.45353 0.95843 0.50585 0.0
H2950 H 0.44718 0.92929 0.4952 0.0
H2951 H 0.51091 0.91403 0.44791 0.0
H2952 H 0.51743 0.94349 0.45828 0.0
H2953 H 0.46601 0.88842 0.49855 0.0
H2954 H 0.50225 0.90235 0.38828 0.0
H2955 H 0.5131 0.92945 0.35651 0.0
H2956 H 0.46727 0.97444 0.40103 0.0
H2957 H 0.45465 0.94791 0.43184 0.0
C2958 C 0.48222 0.82512 0.41614 0.0
C2959 C 0.46766 0.82858 0.39789 0.0
C2960 C 0.47937 0.83969 0.43184 0.0
C2961 C 0.46201 0.85799 0.4295 0.0
C2962 C 0.44644 0.86084 0.41293 0.0
C2963 C 0.44912 0.84615 0.39741 0.0
C2964 C 0.46238 0.87513 0.44105 0.0
C2965 C 0.4669 0.89159 0.42353 0.0
C2966 C 0.46168 0.87399 0.46848 0.0
C2967 C 0.45627 0.85713 0.48785 0.0
C2968 C 0.43812 0.85126 0.48625 0.0
C2969 C 0.43293 0.83559 0.50467 0.0
C2970 C 0.44578 0.82558 0.52484 0.0
C2971 C 0.46384 0.83125 0.52663 0.0
C2972 C 0.46908 0.84694 0.50827 0.0
C2973 C 0.46641 0.94874 0.49348 0.0
C2974 C 0.48585 0.95351 0.48242 0.0
C2975 C 0.46274 0.93201 0.48756 0.0
C2976 C 0.47832 0.91984 0.47031 0.0
C2977 C 0.49854 0.9235 0.46098 0.0
C2978 C 0.50227 0.94029 0.46693 0.0
C2979 C 0.47229 0.90494 0.45985 0.0
C2980 C 0.46644 0.88913 0.47756 0.0
C2981 C 0.47199 0.9065 0.43249 0.0
C2982 C 0.47779 0.923 0.41274 0.0
C2983 C 0.49412 0.91807 0.39104 0.0
C2984 C 0.50044 0.93337 0.37306 0.0
C2985 C 0.49074 0.95369 0.37668 0.0
C2986 C 0.47446 0.95876 0.39806 0.0
C2987 C 0.46763 0.94359 0.41572 0.0
H2988 H 0.49588 0.9655 0.36297 0.0
H2989 H 0.44173 0.81346 0.5391 0.0
H2990 H 0.53287 0.55989 0.0006 0.0
H2991 H 0.54141 0.5851 0.0184 0.0
H2992 H 0.487 0.58653 0.08069 0.0
H2993 H 0.47818 0.56134 0.06303 0.0
H2994 H 0.51658 0.62391 0.02533 0.0
H2995 H 0.50405 0.58968 0.1374 0.0
H2996 H 0.51003 0.55566 0.16436 0.0
H2997 H 0.55856 0.52909 0.1027 0.0
H2998 H 0.55347 0.56298 0.07571 0.0
H2999 H 0.47779 0.6961 0.10999 0.0
H3000 H 0.48684 0.66922 0.08344 0.0
H3001 H 0.54819 0.63968 0.11502 0.0
H3002 H 0.53945 0.66692 0.1412 0.0
H3003 H 0.52725 0.61337 0.11917 0.0
H3004 H 0.54881 0.65947 0.04985 0.0
H3005 H 0.54756 0.69193 0.02059 0.0
H3006 H 0.48952 0.69252 0.99349 0.0
H3007 H 0.49029 0.66014 0.02282 0.0
C3008 C 0.52267 0.56555 0.0181 0.0
C3009 C 0.5048 0.55861 0.03044 0.0
C3010 C 0.52761 0.57996 0.02816 0.0
C3011 C 0.51499 0.58748 0.05091 0.0
C3012 C 0.49708 0.58069 0.06323 0.0
C3013 C 0.49198 0.56641 0.05304 0.0
C3014 C 0.52014 0.60277 0.06161 0.0
C3015 C 0.51903 0.62164 0.0458 0.0
C3016 C 0.52448 0.59933 0.08788 0.0
C3017 C 0.52818 0.57892 0.10441 0.0
C3018 C 0.51615 0.57662 0.12967 0.0
C3019 C 0.51942 0.55734 0.14498 0.0
C3020 C 0.53467 0.54023 0.13523 0.0
C3021 C 0.54678 0.54236 0.11022 0.0
C3022 C 0.54371 0.56161 0.09492 0.0
C3023 C 0.49352 0.68425 0.11072 0.0
C3024 C 0.50786 0.68362 0.12785 0.0
C3025 C 0.49867 0.66884 0.09553 0.0
C3026 C 0.51829 0.65251 0.09706 0.0
C3027 C 0.533 0.65216 0.11347 0.0
C3028 C 0.5279 0.66766 0.12856 0.0
C3029 C 0.52218 0.63503 0.08339 0.0
C3030 C 0.52515 0.61563 0.09858 0.0
C3031 C 0.52028 0.6378 0.05629 0.0
C3032 C 0.51958 0.65737 0.03866 0.0
C3033 C 0.5357 0.66657 0.03779 0.0
C3034 C 0.5351 0.68495 0.02115 0.0
C3035 C 0.51846 0.6943 0.00521 0.0
C3036 C 0.50241 0.68525 0.00584 0.0
C3037 C 0.50296 0.66685 0.02243 0.0
H3038 H 0.518 0.70854 0.99235 0.0
H3039 H 0.53711 0.52531 0.14706 0.0
loop_
_geom_bond_atom_site_label_1
_geom_bond_atom_site_label_2
_geom_bond_distance
_geom_bond_site_symmetry_2
_ccdc_geom_bond_type
C0 Eu1 2.835 . S
C0 C2 1.500 . S
C0 O20 1.257 . S
C0 O21 1.260 . S
Eu1 C0 2.835 . S
Eu1 O20 2.473 . S
Eu1 O21 2.480 . S
Eu1 O22 2.430 1_455 S
Eu1 O23 2.670 1_455 S
Eu1 O24 2.386 1_456 S
Eu1 O29 2.355 1_546 S
Eu1 O31 2.374 1_545 S
C2 C0 1.500 . S
C2 C3 1.377 . S
C2 C7 1.377 . S
C3 C2 1.377 . S
C3 C4 1.395 . S
C3 H32 0.931 . S
C4 C3 1.395 . S
C4 C5 1.383 . S
C4 H33 0.931 . S
C5 C4 1.383 . S
C5 C6 1.394 . S
C6 C5 1.394 . S
C6 C7 1.378 . S
C6 H34 0.931 . S
C7 C2 1.377 . S
C7 C6 1.378 . S
C7 H35 0.931 1_556 S
C8 O22 1.259 . S
C8 O23 1.270 . S
C9 O24 1.262 . S
C9 O25 1.251 . S
C10 Eu11 2.835 . S
C10 C12 1.500 . S
C10 O26 1.257 . S
C10 O27 1.260 . S
Eu11 C10 2.835 . S
Eu11 O23 2.355 1_564 S
Eu11 O25 2.374 1_565 S
Eu11 O26 2.473 . S
Eu11 O27 2.480 . S
Eu11 O28 2.430 1_655 S
Eu11 O29 2.670 1_655 S
Eu11 O30 2.403 1_655 S
C12 C10 1.500 . S
C12 C13 1.377 . S
C12 C17 1.377 . S
C13 C12 1.377 . S
C13 C14 1.395 . S
C13 H36 0.931 . S
C14 C13 1.395 . S
C14 C15 1.383 . S
C14 H37 0.931 . S
C15 C14 1.383 . S
C15 C16 1.394 . S
C16 C15 1.394 . S
C16 C17 1.378 . S
C16 H38 0.931 . S
C17 C12 1.377 . S
C17 C16 1.378 . S
C17 H39 0.925 1_554 S
C18 O28 1.259 . S
C18 O29 1.270 . S
C19 O30 1.238 1_556 S
C19 O31 1.251 . S
O20 C0 1.257 . S
O20 Eu1 2.473 . S
O21 C0 1.260 . S
O21 Eu1 2.480 . S
O22 Eu1 2.430 1_655 S
O22 C8 1.259 . S
O23 Eu1 2.670 1_655 S
O23 C8 1.270 . S
O23 Eu11 2.355 1_546 S
O24 Eu1 2.386 1_654 S
O24 C9 1.262 . S
O25 C9 1.251 . S
O25 Eu11 2.374 1_545 S
O26 C10 1.257 . S
O26 Eu11 2.473 . S
O27 C10 1.260 . S
O27 Eu11 2.480 . S
O28 Eu11 2.430 1_455 S
O28 C18 1.259 . S
O29 Eu1 2.355 1_564 S
O29 Eu11 2.670 1_455 S
O29 C18 1.270 . S
O30 Eu11 2.403 1_455 S
O30 C19 1.238 1_554 S
O31 Eu1 2.374 1_565 S
O31 C19 1.251 . S
H32 C3 0.931 . S
H33 C4 0.931 . S
H34 C6 0.931 . S
H35 C7 0.931 1_554 S
H36 C13 0.931 . S
H37 C14 0.931 . S
H38 C16 0.931 . S
H39 C17 0.925 1_556 S
C40 Eu41 2.835 . S
C40 C42 1.500 1_655 S
C40 O60 1.257 1_655 S
C40 O61 1.260 . S
Eu41 C40 2.835 . S
Eu41 O60 2.473 1_655 S
Eu41 O61 2.480 . S
Eu41 O62 2.430 . S
Eu41 O63 2.670 . S
Eu41 O64 2.394 1_655 S
Eu41 O69 2.355 1_655 S
Eu41 O71 2.374 . S
C42 C40 1.500 1_455 S
C42 C43 1.377 1_455 S
C42 C47 1.377 . S
C43 C42 1.377 1_655 S
C43 C44 1.395 . S
C43 H72 0.931 . S
C44 C43 1.395 . S
C44 C45 1.383 1_655 S
C44 H73 0.931 . S
C45 C44 1.383 1_455 S
C45 C46 1.394 . S
C46 C45 1.394 . S
C46 C47 1.378 . S
C46 H74 0.931 . S
C47 C42 1.377 . S
C47 C46 1.378 . S
C47 H75 0.931 . S
C48 O62 1.259 . S
C48 O63 1.270 . S
C49 O64 1.251 . S
C49 O65 1.251 . S
C50 Eu51 2.835 . S
C50 C52 1.502 1_455 S
C50 O66 1.257 1_455 S
C50 O67 1.260 . S
Eu51 C50 2.835 . S
Eu51 O63 2.355 1_455 S
Eu51 O65 2.374 . S
Eu51 O66 2.473 1_455 S
Eu51 O67 2.480 . S
Eu51 O68 2.430 . S
Eu51 O69 2.670 . S
Eu51 O70 2.394 1_455 S
C52 C50 1.502 1_655 S
C52 C53 1.358 1_655 S
C52 C57 1.393 . S
C53 C52 1.358 1_455 S
C53 C54 1.395 . S
C53 H76 0.931 . S
C54 C53 1.395 . S
C54 C55 1.383 1_455 S
C54 H77 0.931 . S
C55 C54 1.383 1_655 S
C55 C56 1.394 . S
C56 C55 1.394 . S
C56 C57 1.378 . S
C56 H78 0.931 . S
C57 C52 1.393 . S
C57 C56 1.378 . S
C57 H79 0.931 . S
C58 O68 1.259 . S
C58 O69 1.270 . S
C59 O70 1.251 . S
C59 O71 1.251 . S
O60 C40 1.257 1_455 S
O60 Eu41 2.473 1_455 S
O61 C40 1.260 . S
O61 Eu41 2.480 . S
O62 Eu41 2.430 . S
O62 C48 1.259 . S
O63 Eu41 2.670 . S
O63 C48 1.270 . S
O63 Eu51 2.355 1_655 S
O64 Eu41 2.394 1_455 S
O64 C49 1.251 . S
O65 C49 1.251 . S
O65 Eu51 2.374 . S
O66 C50 1.257 1_655 S
O66 Eu51 2.473 1_655 S
O67 C50 1.260 . S
O67 Eu51 2.480 . S
O68 Eu51 2.430 . S
O68 C58 1.259 . S
O69 Eu41 2.355 1_455 S
O69 Eu51 2.670 . S
O69 C58 1.270 . S
O70 Eu51 2.394 1_655 S
O70 C59 1.251 . S
O71 Eu41 2.374 . S
O71 C59 1.251 . S
H72 C43 0.931 . S
H73 C44 0.931 . S
H74 C46 0.931 . S
H75 C47 0.931 . S
H76 C53 0.931 . S
H77 C54 0.931 . S
H78 C56 0.931 . S
H79 C57 0.931 . S
C80 Eu81 2.835 . S
C80 C82 1.500 . S
C80 O100 1.257 . S
C80 O101 1.260 . S
Eu81 C80 2.835 . S
Eu81 O100 2.473 . S
Eu81 O101 2.480 . S
Eu81 O102 2.430 . S
Eu81 O103 2.670 . S
Eu81 O104 2.394 . S
Eu81 O109 2.355 . S
Eu81 O111 2.374 . S
C82 C80 1.500 . S
C82 C83 1.377 . S
C82 C87 1.377 . S
C83 C82 1.377 . S
C83 C84 1.395 . S
C83 H112 0.931 . S
C84 C83 1.395 . S
C84 C85 1.383 . S
C84 H113 0.931 . S
C85 C84 1.383 . S
C85 C86 1.394 . S
C86 C85 1.394 . S
C86 C87 1.378 . S
C86 H114 0.931 . S
C87 C82 1.377 . S
C87 C86 1.378 . S
C87 H115 0.931 . S
C88 O102 1.259 . S
C88 O103 1.270 . S
C89 O104 1.251 . S
C89 O105 1.251 . S
C90 Eu91 2.835 . S
C90 C92 1.500 . S
C90 O106 1.257 . S
C90 O107 1.260 . S
Eu91 C90 2.835 . S
Eu91 O103 2.355 . S
Eu91 O105 2.374 . S
Eu91 O106 2.473 . S
Eu91 O107 2.480 . S
Eu91 O108 2.430 . S
Eu91 O109 2.670 . S
Eu91 O110 2.394 . S
C92 C90 1.500 . S
C92 C93 1.377 . S
C92 C97 1.377 . S
C93 C92 1.377 . S
C93 C94 1.395 . S
C93 H116 0.931 . S
C94 C93 1.395 . S
C94 C95 1.383 . S
C94 H117 0.931 . S
C95 C94 1.383 . S
C95 C96 1.394 . S
C96 C95 1.394 . S
C96 C97 1.378 . S
C96 H118 0.931 . S
C97 C92 1.377 . S
C97 C96 1.378 . S
C97 H119 0.931 . S
C98 O108 1.259 . S
C98 O109 1.270 . S
C99 O110 1.251 . S
C99 O111 1.251 . S
O100 C80 1.257 . S
O100 Eu81 2.473 . S
O101 C80 1.260 . S
O101 Eu81 2.480 . S
O102 Eu81 2.430 . S
O102 C88 1.259 . S
O103 Eu81 2.670 . S
O103 C88 1.270 . S
O103 Eu91 2.355 . S
O104 Eu81 2.394 . S
O104 C89 1.251 . S
O105 C89 1.251 . S
O105 Eu91 2.374 . S
O106 C90 1.257 . S
O106 Eu91 2.473 . S
O107 C90 1.260 . S
O107 Eu91 2.480 . S
O108 Eu91 2.430 . S
O108 C98 1.259 . S
O109 Eu81 2.355 . S
O109 Eu91 2.670 . S
O109 C98 1.270 . S
O110 Eu91 2.394 . S
O110 C99 1.251 . S
O111 Eu81 2.374 . S
O111 C99 1.251 . S
H112 C83 0.931 . S
H113 C84 0.931 . S
H114 C86 0.931 . S
H115 C87 0.931 . S
H116 C93 0.931 . S
H117 C94 0.931 . S
H118 C96 0.931 . S
H119 C97 0.931 . S
C120 Eu121 2.834 . S
C120 C122 1.501 1_565 S
C120 O140 1.244 1_565 S
C120 O141 1.273 . S
Eu121 C120 2.834 . S
Eu121 O140 2.473 1_565 S
Eu121 O141 2.480 . S
Eu121 O142 2.430 . S
Eu121 O143 2.670 . S
Eu121 O144 2.394 1_565 S
Eu121 O149 2.355 1_565 S
Eu121 O151 2.374 . S
C122 C120 1.501 1_545 S
C122 C123 1.377 1_545 S
C122 C127 1.377 . S
C123 C122 1.377 1_565 S
C123 C124 1.395 . S
C123 H152 0.931 . S
C124 C123 1.395 . S
C124 C125 1.383 1_565 S
C124 H153 0.931 . S
C125 C124 1.383 1_545 S
C125 C126 1.394 . S
C126 C125 1.394 . S
C126 C127 1.378 . S
C126 H154 0.931 . S
C127 C122 1.377 . S
C127 C126 1.378 . S
C127 H155 0.931 . S
C128 O142 1.259 . S
C128 O143 1.270 . S
C129 O144 1.251 . S
C129 O145 1.251 . S
C130 Eu131 2.835 . S
C130 C132 1.500 1_545 S
C130 O146 1.257 1_545 S
C130 O147 1.260 . S
Eu131 C130 2.835 . S
Eu131 O143 2.355 1_545 S
Eu131 O145 2.374 . S
Eu131 O146 2.473 1_545 S
Eu131 O147 2.480 . S
Eu131 O148 2.430 . S
Eu131 O149 2.670 . S
Eu131 O150 2.394 1_545 S
C132 C130 1.500 1_565 S
C132 C133 1.377 1_565 S
C132 C137 1.377 . S
C133 C132 1.377 1_545 S
C133 C134 1.395 . S
C133 H156 0.931 . S
C134 C133 1.395 . S
C134 C135 1.383 1_545 S
C134 H157 0.931 . S
C135 C134 1.383 1_565 S
C135 C136 1.394 . S
C136 C135 1.394 . S
C136 C137 1.378 . S
C136 H158 0.931 . S
C137 C132 1.377 . S
C137 C136 1.378 . S
C137 H159 0.931 . S
C138 O148 1.259 . S
C138 O149 1.270 . S
C139 O150 1.251 . S
C139 O151 1.251 . S
O140 C120 1.244 1_545 S
O140 Eu121 2.473 1_545 S
O141 C120 1.273 . S
O141 Eu121 2.480 . S
O142 Eu121 2.430 . S
O142 C128 1.259 . S
O143 Eu121 2.670 . S
O143 C128 1.270 . S
O143 Eu131 2.355 1_565 S
O144 Eu121 2.394 1_545 S
O144 C129 1.251 . S
O145 C129 1.251 . S
O145 Eu131 2.374 . S
O146 C130 1.257 1_565 S
O146 Eu131 2.473 1_565 S
O147 C130 1.260 . S
O147 Eu131 2.480 . S
O148 Eu131 2.430 . S
O148 C138 1.259 . S
O149 Eu121 2.355 1_545 S
O149 Eu131 2.670 . S
O149 C138 1.270 . S
O150 Eu131 2.394 1_565 S
O150 C139 1.251 . S
O151 Eu121 2.374 . S
O151 C139 1.251 . S
H152 C123 0.931 . S
H153 C124 0.931 . S
H154 C126 0.931 . S
H155 C127 0.931 . S
H156 C133 0.931 . S
H157 C134 0.931 . S
H158 C136 0.931 . S
H159 C137 0.931 . S
C160 Eu161 2.835 . S
C160 C162 1.500 . S
C160 O180 1.257 . S
C160 O181 1.260 . S
Eu161 C160 2.835 . S
Eu161 O180 2.473 . S
Eu161 O181 2.480 . S
Eu161 O182 2.430 . S
Eu161 O183 2.670 . S
Eu161 O184 2.394 . S
Eu161 O189 2.355 . S
Eu161 O191 2.374 . S
C162 C160 1.500 . S
C162 C163 1.377 . S
C162 C167 1.377 . S
C163 C162 1.377 . S
C163 C164 1.395 . S
C163 H192 0.931 . S
C164 C163 1.395 . S
C164 C165 1.383 . S
C164 H193 0.931 . S
C165 C164 1.383 . S
C165 C166 1.394 . S
C166 C165 1.394 . S
C166 C167 1.378 . S
C166 H194 0.931 . S
C167 C162 1.377 . S
C167 C166 1.378 . S
C167 H195 0.931 . S
C168 O182 1.259 . S
C168 O183 1.270 . S
C169 O184 1.251 . S
C169 O185 1.251 . S
C170 Eu171 2.835 . S
C170 C172 1.500 . S
C170 O186 1.257 . S
C170 O187 1.260 . S
Eu171 C170 2.835 . S
Eu171 O183 2.355 . S
Eu171 O185 2.374 . S
Eu171 O186 2.473 . S
Eu171 O187 2.480 . S
Eu171 O188 2.430 . S
Eu171 O189 2.670 . S
Eu171 O190 2.394 . S
C172 C170 1.500 . S
C172 C173 1.377 . S
C172 C177 1.377 . S
C173 C172 1.377 . S
C173 C174 1.395 . S
C173 H196 0.931 . S
C174 C173 1.395 . S
C174 C175 1.383 . S
C174 H197 0.931 . S
C175 C174 1.383 . S
C175 C176 1.394 . S
C176 C175 1.394 . S
C176 C177 1.378 . S
C176 H198 0.931 . S
C177 C172 1.377 . S
C177 C176 1.378 . S
C177 H199 0.931 . S
C178 O188 1.259 . S
C178 O189 1.270 . S
C179 O190 1.251 . S
C179 O191 1.251 . S
O180 C160 1.257 . S
O180 Eu161 2.473 . S
O181 C160 1.260 . S
O181 Eu161 2.480 . S
O182 Eu161 2.430 . S
O182 C168 1.259 . S
O183 Eu161 2.670 . S
O183 C168 1.270 . S
O183 Eu171 2.355 . S
O184 Eu161 2.394 . S
O184 C169 1.251 . S
O185 C169 1.251 . S
O185 Eu171 2.374 . S
O186 C170 1.257 . S
O186 Eu171 2.473 . S
O187 C170 1.260 . S
O187 Eu171 2.480 . S
O188 Eu171 2.430 . S
O188 C178 1.259 . S
O189 Eu161 2.355 . S
O189 Eu171 2.670 . S
O189 C178 1.270 . S
O190 Eu171 2.394 . S
O190 C179 1.251 . S
O191 Eu161 2.374 . S
O191 C179 1.251 . S
H192 C163 0.931 . S
H193 C164 0.931 . S
H194 C166 0.931 . S
H195 C167 0.931 . S
H196 C173 0.931 . S
H197 C174 0.931 . S
H198 C176 0.931 . S
H199 C177 0.931 . S
C200 Eu201 2.835 . S
C200 C202 1.500 . S
C200 O220 1.257 . S
C200 O221 1.260 . S
Eu201 C200 2.835 . S
Eu201 O220 2.473 . S
Eu201 O221 2.480 . S
Eu201 O222 2.430 . S
Eu201 O223 2.670 . S
Eu201 O224 2.394 . S
Eu201 O229 2.355 . S
Eu201 O231 2.374 . S
C202 C200 1.500 . S
C202 C203 1.377 . S
C202 C207 1.377 . S
C203 C202 1.377 . S
C203 C204 1.395 . S
C203 H232 0.931 . S
C204 C203 1.395 . S
C204 C205 1.383 . S
C204 H233 0.931 . S
C205 C204 1.383 . S
C205 C206 1.394 . S
C206 C205 1.394 . S
C206 C207 1.378 . S
C206 H234 0.931 . S
C207 C202 1.377 . S
C207 C206 1.378 . S
C207 H235 0.931 . S
C208 O222 1.259 . S
C208 O223 1.270 . S
C209 O224 1.251 . S
C209 O225 1.251 . S
C210 Eu211 2.835 . S
C210 C212 1.500 . S
C210 O226 1.257 . S
C210 O227 1.260 . S
Eu211 C210 2.835 . S
Eu211 O223 2.355 . S
Eu211 O225 2.374 . S
Eu211 O226 2.473 . S
Eu211 O227 2.480 . S
Eu211 O228 2.430 . S
Eu211 O229 2.670 . S
Eu211 O230 2.394 . S
C212 C210 1.500 . S
C212 C213 1.377 . S
C212 C217 1.377 . S
C213 C212 1.377 . S
C213 C214 1.395 . S
C213 H236 0.931 . S
C214 C213 1.395 . S
C214 C215 1.383 . S
C214 H237 0.931 . S
C215 C214 1.383 . S
C215 C216 1.394 . S
C216 C215 1.394 . S
C216 C217 1.378 . S
C216 H238 0.931 . S
C217 C212 1.377 . S
C217 C216 1.378 . S
C217 H239 0.931 . S
C218 O228 1.259 . S
C218 O229 1.270 . S
C219 O230 1.251 . S
C219 O231 1.251 . S
O220 C200 1.257 . S
O220 Eu201 2.473 . S
O221 C200 1.260 . S
O221 Eu201 2.480 . S
O222 Eu201 2.430 . S
O222 C208 1.259 . S
O223 Eu201 2.670 . S
O223 C208 1.270 . S
O223 Eu211 2.355 . S
O224 Eu201 2.394 . S
O224 C209 1.251 . S
O225 C209 1.251 . S
O225 Eu211 2.374 . S
O226 C210 1.257 . S
O226 Eu211 2.473 . S
O227 C210 1.260 . S
O227 Eu211 2.480 . S
O228 Eu211 2.430 . S
O228 C218 1.259 . S
O229 Eu201 2.355 . S
O229 Eu211 2.670 . S
O229 C218 1.270 . S
O230 Eu211 2.394 . S
O230 C219 1.251 . S
O231 Eu201 2.374 . S
O231 C219 1.251 . S
H232 C203 0.931 . S
H233 C204 0.931 . S
H234 C206 0.931 . S
H235 C207 0.931 . S
H236 C213 0.931 . S
H237 C214 0.931 . S
H238 C216 0.931 . S
H239 C217 0.931 . S
C240 Eu241 2.835 . S
C240 C242 1.500 . S
C240 O260 1.257 . S
C240 O261 1.260 . S
Eu241 C240 2.835 . S
Eu241 O260 2.473 . S
Eu241 O261 2.480 . S
Eu241 O262 2.430 . S
Eu241 O263 2.670 . S
Eu241 O264 2.394 . S
Eu241 O269 2.355 . S
Eu241 O271 2.374 . S
C242 C240 1.500 . S
C242 C243 1.377 . S
C242 C247 1.377 . S
C243 C242 1.377 . S
C243 C244 1.395 . S
C243 H272 0.931 . S
C244 C243 1.395 . S
C244 C245 1.383 . S
C244 H273 0.931 . S
C245 C244 1.383 . S
C245 C246 1.394 . S
C246 C245 1.394 . S
C246 C247 1.378 . S
C246 H274 0.931 . S
C247 C242 1.377 . S
C247 C246 1.378 . S
C247 H275 0.931 . S
C248 O262 1.259 . S
C248 O263 1.270 . S
C249 O264 1.251 . S
C249 O265 1.251 . S
C250 Eu251 2.835 . S
C250 C252 1.500 . S
C250 O266 1.257 . S
C250 O267 1.260 . S
Eu251 C250 2.835 . S
Eu251 O263 2.355 . S
Eu251 O265 2.374 . S
Eu251 O266 2.473 . S
Eu251 O267 2.480 . S
Eu251 O268 2.430 . S
Eu251 O269 2.670 . S
Eu251 O270 2.394 . S
C252 C250 1.500 . S
C252 C253 1.377 . S
C252 C257 1.377 . S
C253 C252 1.377 . S
C253 C254 1.395 . S
C253 H276 0.931 . S
C254 C253 1.395 . S
C254 C255 1.383 . S
C254 H277 0.931 . S
C255 C254 1.383 . S
C255 C256 1.394 . S
C256 C255 1.394 . S
C256 C257 1.378 . S
C256 H278 0.931 . S
C257 C252 1.377 . S
C257 C256 1.378 . S
C257 H279 0.931 . S
C258 O268 1.259 . S
C258 O269 1.270 . S
C259 O270 1.251 . S
C259 O271 1.251 . S
O260 C240 1.257 . S
O260 Eu241 2.473 . S
O261 C240 1.260 . S
O261 Eu241 2.480 . S
O262 Eu241 2.430 . S
O262 C248 1.259 . S
O263 Eu241 2.670 . S
O263 C248 1.270 . S
O263 Eu251 2.355 . S
O264 Eu241 2.394 . S
O264 C249 1.251 . S
O265 C249 1.251 . S
O265 Eu251 2.374 . S
O266 C250 1.257 . S
O266 Eu251 2.473 . S
O267 C250 1.260 . S
O267 Eu251 2.480 . S
O268 Eu251 2.430 . S
O268 C258 1.259 . S
O269 Eu241 2.355 . S
O269 Eu251 2.670 . S
O269 C258 1.270 . S
O270 Eu251 2.394 . S
O270 C259 1.251 . S
O271 Eu241 2.374 . S
O271 C259 1.251 . S
H272 C243 0.931 . S
H273 C244 0.931 . S
H274 C246 0.931 . S
H275 C247 0.931 . S
H276 C253 0.931 . S
H277 C254 0.931 . S
H278 C256 0.931 . S
H279 C257 0.931 . S
C280 Eu281 2.835 . S
C280 C282 1.500 . S
C280 O300 1.257 . S
C280 O301 1.260 . S
Eu281 C280 2.835 . S
Eu281 O300 2.473 . S
Eu281 O301 2.480 . S
Eu281 O302 2.430 1_455 S
Eu281 O303 2.670 1_455 S
Eu281 O304 2.394 1_455 S
Eu281 O309 2.355 . S
Eu281 O311 2.374 . S
C282 C280 1.500 . S
C282 C283 1.377 . S
C282 C287 1.377 . S
C283 C282 1.377 . S
C283 C284 1.395 . S
C283 H312 0.931 . S
C284 C283 1.395 . S
C284 C285 1.383 . S
C284 H313 0.931 . S
C285 C284 1.383 . S
C285 C286 1.394 . S
C286 C285 1.394 . S
C286 C287 1.378 . S
C286 H314 0.931 . S
C287 C282 1.377 . S
C287 C286 1.378 . S
C287 H315 0.931 . S
C288 O302 1.259 . S
C288 O303 1.270 . S
C289 O304 1.251 . S
C289 O305 1.251 . S
C290 Eu291 2.835 . S
C290 C292 1.500 . S
C290 O306 1.257 . S
C290 O307 1.260 . S
Eu291 C290 2.835 . S
Eu291 O303 2.355 . S
Eu291 O305 2.374 . S
Eu291 O306 2.473 . S
Eu291 O307 2.480 . S
Eu291 O308 2.430 1_655 S
Eu291 O309 2.670 1_655 S
Eu291 O310 2.394 1_655 S
C292 C290 1.500 . S
C292 C293 1.377 . S
C292 C297 1.377 . S
C293 C292 1.377 . S
C293 C294 1.395 . S
C293 H316 0.931 . S
C294 C293 1.395 . S
C294 C295 1.383 . S
C294 H317 0.931 . S
C295 C294 1.383 . S
C295 C296 1.394 . S
C296 C295 1.394 . S
C296 C297 1.378 . S
C296 H318 0.931 . S
C297 C292 1.377 . S
C297 C296 1.378 . S
C297 H319 0.931 . S
C298 O308 1.259 . S
C298 O309 1.270 . S
C299 O310 1.251 . S
C299 O311 1.251 . S
O300 C280 1.257 . S
O300 Eu281 2.473 . S
O301 C280 1.260 . S
O301 Eu281 2.480 . S
O302 Eu281 2.430 1_655 S
O302 C288 1.259 . S
O303 Eu281 2.670 1_655 S
O303 C288 1.270 . S
O303 Eu291 2.355 . S
O304 Eu281 2.394 1_655 S
O304 C289 1.251 . S
O305 C289 1.251 . S
O305 Eu291 2.374 . S
O306 C290 1.257 . S
O306 Eu291 2.473 . S
O307 C290 1.260 . S
O307 Eu291 2.480 . S
O308 Eu291 2.430 1_455 S
O308 C298 1.259 . S
O309 Eu281 2.355 . S
O309 Eu291 2.670 1_455 S
O309 C298 1.270 . S
O310 Eu291 2.394 1_455 S
O310 C299 1.251 . S
O311 Eu281 2.374 . S
O311 C299 1.251 . S
H312 C283 0.931 . S
H313 C284 0.931 . S
H314 C286 0.931 . S
H315 C287 0.931 . S
H316 C293 0.931 . S
H317 C294 0.931 . S
H318 C296 0.931 . S
H319 C297 0.931 . S
C320 Eu321 2.835 . S
C320 C322 1.500 . S
C320 O340 1.257 . S
C320 O341 1.260 . S
Eu321 C320 2.835 . S
Eu321 O340 2.473 . S
Eu321 O341 2.480 . S
Eu321 O342 2.430 . S
Eu321 O343 2.670 . S
Eu321 O344 2.394 1_556 S
Eu321 O349 2.355 1_556 S
Eu321 O351 2.374 . S
C322 C320 1.500 . S
C322 C323 1.377 . S
C322 C327 1.377 1_556 S
C323 C322 1.377 . S
C323 C324 1.395 . S
C323 H352 0.931 . S
C324 C323 1.395 . S
C324 C325 1.383 . S
C324 H353 0.931 . S
C325 C324 1.383 . S
C325 C326 1.394 1_556 S
C326 C325 1.394 1_554 S
C326 C327 1.378 . S
C326 H354 0.931 . S
C327 C322 1.377 1_554 S
C327 C326 1.378 . S
C327 H355 0.931 . S
C328 O342 1.259 . S
C328 O343 1.270 . S
C329 O344 1.251 . S
C329 O345 1.251 . S
C330 Eu331 2.835 . S
C330 C332 1.500 . S
C330 O346 1.257 . S
C330 O347 1.260 . S
Eu331 C330 2.835 . S
Eu331 O343 2.355 1_554 S
Eu331 O345 2.374 . S
Eu331 O346 2.473 . S
Eu331 O347 2.480 . S
Eu331 O348 2.430 . S
Eu331 O349 2.670 . S
Eu331 O350 2.394 1_554 S
C332 C330 1.500 . S
C332 C333 1.377 . S
C332 C337 1.377 1_554 S
C333 C332 1.377 . S
C333 C334 1.395 . S
C333 H356 0.931 . S
C334 C333 1.395 . S
C334 C335 1.383 . S
C334 H357 0.931 . S
C335 C334 1.383 . S
C335 C336 1.394 1_554 S
C336 C335 1.394 1_556 S
C336 C337 1.378 . S
C336 H358 0.931 . S
C337 C332 1.377 1_556 S
C337 C336 1.378 . S
C337 H359 0.931 . S
C338 O348 1.259 . S
C338 O349 1.270 . S
C339 O350 1.251 . S
C339 O351 1.251 . S
O340 C320 1.257 . S
O340 Eu321 2.473 . S
O341 C320 1.260 . S
O341 Eu321 2.480 . S
O342 Eu321 2.430 . S
O342 C328 1.259 . S
O343 Eu321 2.670 . S
O343 C328 1.270 . S
O343 Eu331 2.355 1_556 S
O344 Eu321 2.394 1_554 S
O344 C329 1.251 . S
O345 C329 1.251 . S
O345 Eu331 2.374 . S
O346 C330 1.257 . S
O346 Eu331 2.473 . S
O347 C330 1.260 . S
O347 Eu331 2.480 . S
O348 Eu331 2.430 . S
O348 C338 1.259 . S
O349 Eu321 2.355 1_554 S
O349 Eu331 2.670 . S
O349 C338 1.270 . S
O350 Eu331 2.394 1_556 S
O350 C339 1.251 . S
O351 Eu321 2.374 . S
O351 C339 1.251 . S
H352 C323 0.931 . S
H353 C324 0.931 . S
H354 C326 0.931 . S
H355 C327 0.931 . S
H356 C333 0.931 . S
H357 C334 0.931 . S
H358 C336 0.931 . S
H359 C337 0.931 . S
C360 Eu361 2.834 . S
C360 C362 1.501 1_565 S
C360 O380 1.244 1_565 S
C360 O381 1.273 . S
Eu361 C360 2.834 . S
Eu361 O380 2.473 1_565 S
Eu361 O381 2.480 . S
Eu361 O382 2.430 . S
Eu361 O383 2.670 . S
Eu361 O384 2.394 1_565 S
Eu361 O389 2.355 1_565 S
Eu361 O391 2.374 . S
C362 C360 1.501 1_545 S
C362 C363 1.377 1_545 S
C362 C367 1.377 . S
C363 C362 1.377 1_565 S
C363 C364 1.395 . S
C363 H392 0.931 . S
C364 C363 1.395 . S
C364 C365 1.383 1_565 S
C364 H393 0.931 . S
C365 C364 1.383 1_545 S
C365 C366 1.394 . S
C366 C365 1.394 . S
C366 C367 1.378 . S
C366 H394 0.931 . S
C367 C362 1.377 . S
C367 C366 1.378 . S
C367 H395 0.931 . S
C368 O382 1.259 . S
C368 O383 1.270 . S
C369 O384 1.251 . S
C369 O385 1.251 . S
C370 Eu371 2.835 . S
C370 C372 1.500 1_545 S
C370 O386 1.257 1_545 S
C370 O387 1.260 . S
Eu371 C370 2.835 . S
Eu371 O383 2.355 1_545 S
Eu371 O385 2.374 . S
Eu371 O386 2.473 1_545 S
Eu371 O387 2.480 . S
Eu371 O388 2.430 . S
Eu371 O389 2.670 . S
Eu371 O390 2.394 1_545 S
C372 C370 1.500 1_565 S
C372 C373 1.377 1_565 S
C372 C377 1.377 . S
C373 C372 1.377 1_545 S
C373 C374 1.395 . S
C373 H396 0.931 . S
C374 C373 1.395 . S
C374 C375 1.383 1_545 S
C374 H397 0.931 . S
C375 C374 1.383 1_565 S
C375 C376 1.394 . S
C376 C375 1.394 . S
C376 C377 1.378 . S
C376 H398 0.931 . S
C377 C372 1.377 . S
C377 C376 1.378 . S
C377 H399 0.931 . S
C378 O388 1.259 . S
C378 O389 1.270 . S
C379 O390 1.251 . S
C379 O391 1.251 . S
O380 C360 1.244 1_545 S
O380 Eu361 2.473 1_545 S
O381 C360 1.273 . S
O381 Eu361 2.480 . S
O382 Eu361 2.430 . S
O382 C368 1.259 . S
O383 Eu361 2.670 . S
O383 C368 1.270 . S
O383 Eu371 2.355 1_565 S
O384 Eu361 2.394 1_545 S
O384 C369 1.251 . S
O385 C369 1.251 . S
O385 Eu371 2.374 . S
O386 C370 1.257 1_565 S
O386 Eu371 2.473 1_565 S
O387 C370 1.260 . S
O387 Eu371 2.480 . S
O388 Eu371 2.430 . S
O388 C378 1.259 . S
O389 Eu361 2.355 1_545 S
O389 Eu371 2.670 . S
O389 C378 1.270 . S
O390 Eu371 2.394 1_565 S
O390 C379 1.251 . S
O391 Eu361 2.374 . S
O391 C379 1.251 . S
H392 C363 0.931 . S
H393 C364 0.931 . S
H394 C366 0.931 . S
H395 C367 0.931 . S
H396 C373 0.931 . S
H397 C374 0.931 . S
H398 C376 0.931 . S
H399 C377 0.931 . S
C400 Eu401 2.835 . S
C400 C402 1.500 . S
C400 O420 1.257 . S
C400 O421 1.260 . S
Eu401 C400 2.835 . S
Eu401 O420 2.473 . S
Eu401 O421 2.480 . S
Eu401 O422 2.430 . S
Eu401 O423 2.670 . S
Eu401 O424 2.394 . S
Eu401 O429 2.355 . S
Eu401 O431 2.374 . S
C402 C400 1.500 . S
C402 C403 1.377 . S
C402 C407 1.377 . S
C403 C402 1.377 . S
C403 C404 1.395 . S
C403 H432 0.931 . S
C404 C403 1.395 . S
C404 C405 1.383 . S
C404 H433 0.931 . S
C405 C404 1.383 . S
C405 C406 1.394 . S
C406 C405 1.394 . S
C406 C407 1.378 . S
C406 H434 0.931 . S
C407 C402 1.377 . S
C407 C406 1.378 . S
C407 H435 0.931 . S
C408 O422 1.259 . S
C408 O423 1.270 . S
C409 O424 1.251 . S
C409 O425 1.251 . S
C410 Eu411 2.835 . S
C410 C412 1.500 . S
C410 O426 1.257 . S
C410 O427 1.260 . S
Eu411 C410 2.835 . S
Eu411 O423 2.355 . S
Eu411 O425 2.374 . S
Eu411 O426 2.473 . S
Eu411 O427 2.480 . S
Eu411 O428 2.430 . S
Eu411 O429 2.670 . S
Eu411 O430 2.394 . S
C412 C410 1.500 . S
C412 C413 1.377 . S
C412 C417 1.377 . S
C413 C412 1.377 . S
C413 C414 1.395 . S
C413 H436 0.931 . S
C414 C413 1.395 . S
C414 C415 1.383 . S
C414 H437 0.931 . S
C415 C414 1.383 . S
C415 C416 1.394 . S
C416 C415 1.394 . S
C416 C417 1.378 . S
C416 H438 0.931 . S
C417 C412 1.377 . S
C417 C416 1.378 . S
C417 H439 0.931 . S
C418 O428 1.259 . S
C418 O429 1.270 . S
C419 O430 1.251 . S
C419 O431 1.251 . S
O420 C400 1.257 . S
O420 Eu401 2.473 . S
O421 C400 1.260 . S
O421 Eu401 2.480 . S
O422 Eu401 2.430 . S
O422 C408 1.259 . S
O423 Eu401 2.670 . S
O423 C408 1.270 . S
O423 Eu411 2.355 . S
O424 Eu401 2.394 . S
O424 C409 1.251 . S
O425 C409 1.251 . S
O425 Eu411 2.374 . S
O426 C410 1.257 . S
O426 Eu411 2.473 . S
O427 C410 1.260 . S
O427 Eu411 2.480 . S
O428 Eu411 2.430 . S
O428 C418 1.259 . S
O429 Eu401 2.355 . S
O429 Eu411 2.670 . S
O429 C418 1.270 . S
O430 Eu411 2.394 . S
O430 C419 1.251 . S
O431 Eu401 2.374 . S
O431 C419 1.251 . S
H432 C403 0.931 . S
H433 C404 0.931 . S
H434 C406 0.931 . S
H435 C407 0.931 . S
H436 C413 0.931 . S
H437 C414 0.931 . S
H438 C416 0.931 . S
H439 C417 0.931 . S
C440 Eu441 2.835 . S
C440 C442 1.500 1_655 S
C440 O460 1.257 1_655 S
C440 O461 1.260 . S
Eu441 C440 2.835 . S
Eu441 O460 2.473 1_655 S
Eu441 O461 2.480 . S
Eu441 O462 2.430 . S
Eu441 O463 2.670 . S
Eu441 O464 2.394 1_655 S
Eu441 O469 2.355 1_655 S
Eu441 O471 2.374 . S
C442 C440 1.500 1_455 S
C442 C443 1.377 1_455 S
C442 C447 1.377 . S
C443 C442 1.377 1_655 S
C443 C444 1.395 . S
C443 H472 0.931 . S
C444 C443 1.395 . S
C444 C445 1.383 1_655 S
C444 H473 0.931 . S
C445 C444 1.383 1_455 S
C445 C446 1.394 . S
C446 C445 1.394 . S
C446 C447 1.378 . S
C446 H474 0.931 . S
C447 C442 1.377 . S
C447 C446 1.378 . S
C447 H475 0.931 . S
C448 O462 1.259 . S
C448 O463 1.270 . S
C449 O464 1.251 . S
C449 O465 1.251 . S
C450 Eu451 2.835 . S
C450 C452 1.502 1_455 S
C450 O466 1.257 1_455 S
C450 O467 1.260 . S
Eu451 C450 2.835 . S
Eu451 O463 2.355 1_455 S
Eu451 O465 2.374 . S
Eu451 O466 2.473 1_455 S
Eu451 O467 2.480 . S
Eu451 O468 2.430 . S
Eu451 O469 2.670 . S
Eu451 O470 2.394 1_455 S
C452 C450 1.502 1_655 S
C452 C453 1.359 1_655 S
C452 C457 1.393 . S
C453 C452 1.359 1_455 S
C453 C454 1.395 . S
C453 H476 0.931 . S
C454 C453 1.395 . S
C454 C455 1.383 1_455 S
C454 H477 0.931 . S
C455 C454 1.383 1_655 S
C455 C456 1.394 . S
C456 C455 1.394 . S
C456 C457 1.378 . S
C456 H478 0.931 . S
C457 C452 1.393 . S
C457 C456 1.378 . S
C457 H479 0.931 . S
C458 O468 1.259 . S
C458 O469 1.270 . S
C459 O470 1.251 . S
C459 O471 1.251 . S
O460 C440 1.257 1_455 S
O460 Eu441 2.473 1_455 S
O461 C440 1.260 . S
O461 Eu441 2.480 . S
O462 Eu441 2.430 . S
O462 C448 1.259 . S
O463 Eu441 2.670 . S
O463 C448 1.270 . S
O463 Eu451 2.355 1_655 S
O464 Eu441 2.394 1_455 S
O464 C449 1.251 . S
O465 C449 1.251 . S
O465 Eu451 2.374 . S
O466 C450 1.257 1_655 S
O466 Eu451 2.473 1_655 S
O467 C450 1.260 . S
O467 Eu451 2.480 . S
O468 Eu451 2.430 . S
O468 C458 1.259 . S
O469 Eu441 2.355 1_455 S
O469 Eu451 2.670 . S
O469 C458 1.270 . S
O470 Eu451 2.394 1_655 S
O470 C459 1.251 . S
O471 Eu441 2.374 . S
O471 C459 1.251 . S
H472 C443 0.931 . S
H473 C444 0.931 . S
H474 C446 0.931 . S
H475 C447 0.931 . S
H476 C453 0.931 . S
H477 C454 0.931 . S
H478 C456 0.931 . S
H479 C457 0.931 . S
C480 Eu481 2.835 . S
C480 C482 1.500 . S
C480 O500 1.257 . S
C480 O501 1.260 . S
Eu481 C480 2.835 . S
Eu481 O500 2.473 . S
Eu481 O501 2.480 . S
Eu481 O502 2.430 . S
Eu481 O503 2.670 . S
Eu481 O504 2.394 . S
Eu481 O509 2.355 . S
Eu481 O511 2.374 . S
C482 C480 1.500 . S
C482 C483 1.377 . S
C482 C487 1.377 . S
C483 C482 1.377 . S
C483 C484 1.395 . S
C483 H512 0.931 . S
C484 C483 1.395 . S
C484 C485 1.383 . S
C484 H513 0.931 . S
C485 C484 1.383 . S
C485 C486 1.394 . S
C486 C485 1.394 . S
C486 C487 1.378 . S
C486 H514 0.931 . S
C487 C482 1.377 . S
C487 C486 1.378 . S
C487 H515 0.931 . S
C488 O502 1.259 . S
C488 O503 1.270 . S
C489 O504 1.251 . S
C489 O505 1.251 . S
C490 Eu491 2.835 . S
C490 C492 1.500 . S
C490 O506 1.257 . S
C490 O507 1.260 . S
Eu491 C490 2.835 . S
Eu491 O503 2.355 . S
Eu491 O505 2.374 . S
Eu491 O506 2.473 . S
Eu491 O507 2.480 . S
Eu491 O508 2.430 . S
Eu491 O509 2.670 . S
Eu491 O510 2.394 . S
C492 C490 1.500 . S
C492 C493 1.377 . S
C492 C497 1.377 . S
C493 C492 1.377 . S
C493 C494 1.395 . S
C493 H516 0.931 . S
C494 C493 1.395 . S
C494 C495 1.383 . S
C494 H517 0.931 . S
C495 C494 1.383 . S
C495 C496 1.394 . S
C496 C495 1.394 . S
C496 C497 1.378 . S
C496 H518 0.931 . S
C497 C492 1.377 . S
C497 C496 1.378 . S
C497 H519 0.931 . S
C498 O508 1.259 . S
C498 O509 1.270 . S
C499 O510 1.251 . S
C499 O511 1.251 . S
O500 C480 1.257 . S
O500 Eu481 2.473 . S
O501 C480 1.260 . S
O501 Eu481 2.480 . S
O502 Eu481 2.430 . S
O502 C488 1.259 . S
O503 Eu481 2.670 . S
O503 C488 1.270 . S
O503 Eu491 2.355 . S
O504 Eu481 2.394 . S
O504 C489 1.251 . S
O505 C489 1.251 . S
O505 Eu491 2.374 . S
O506 C490 1.257 . S
O506 Eu491 2.473 . S
O507 C490 1.260 . S
O507 Eu491 2.480 . S
O508 Eu491 2.430 . S
O508 C498 1.259 . S
O509 Eu481 2.355 . S
O509 Eu491 2.670 . S
O509 C498 1.270 . S
O510 Eu491 2.394 . S
O510 C499 1.251 . S
O511 Eu481 2.374 . S
O511 C499 1.251 . S
H512 C483 0.931 . S
H513 C484 0.931 . S
H514 C486 0.931 . S
H515 C487 0.931 . S
H516 C493 0.931 . S
H517 C494 0.931 . S
H518 C496 0.931 . S
H519 C497 0.931 . S
C520 Eu521 2.835 . S
C520 C522 1.500 . S
C520 O540 1.257 . S
C520 O541 1.260 . S
Eu521 C520 2.835 . S
Eu521 O540 2.473 . S
Eu521 O541 2.480 . S
Eu521 O542 2.430 . S
Eu521 O543 2.670 . S
Eu521 O544 2.394 1_556 S
Eu521 O549 2.355 1_556 S
Eu521 O551 2.374 . S
C522 C520 1.500 . S
C522 C523 1.377 . S
C522 C527 1.377 1_556 S
C523 C522 1.377 . S
C523 C524 1.395 . S
C523 H552 0.931 . S
C524 C523 1.395 . S
C524 C525 1.383 . S
C524 H553 0.931 . S
C525 C524 1.383 . S
C525 C526 1.394 1_556 S
C526 C525 1.394 1_554 S
C526 C527 1.378 . S
C526 H554 0.931 . S
C527 C522 1.377 1_554 S
C527 C526 1.378 . S
C527 H555 0.931 . S
C528 O542 1.259 . S
C528 O543 1.270 . S
C529 O544 1.251 . S
C529 O545 1.251 . S
C530 Eu531 2.835 . S
C530 C532 1.500 . S
C530 O546 1.257 . S
C530 O547 1.260 . S
Eu531 C530 2.835 . S
Eu531 O543 2.355 1_554 S
Eu531 O545 2.374 . S
Eu531 O546 2.473 . S
Eu531 O547 2.480 . S
Eu531 O548 2.430 . S
Eu531 O549 2.670 . S
Eu531 O550 2.394 1_554 S
C532 C530 1.500 . S
C532 C533 1.377 . S
C532 C537 1.377 1_554 S
C533 C532 1.377 . S
C533 C534 1.395 . S
C533 H556 0.931 . S
C534 C533 1.395 . S
C534 C535 1.383 . S
C534 H557 0.931 . S
C535 C534 1.383 . S
C535 C536 1.394 1_554 S
C536 C535 1.394 1_556 S
C536 C537 1.378 . S
C536 H558 0.931 . S
C537 C532 1.377 1_556 S
C537 C536 1.378 . S
C537 H559 0.931 . S
C538 O548 1.259 . S
C538 O549 1.270 . S
C539 O550 1.251 . S
C539 O551 1.251 . S
O540 C520 1.257 . S
O540 Eu521 2.473 . S
O541 C520 1.260 . S
O541 Eu521 2.480 . S
O542 Eu521 2.430 . S
O542 C528 1.259 . S
O543 Eu521 2.670 . S
O543 C528 1.270 . S
O543 Eu531 2.355 1_556 S
O544 Eu521 2.394 1_554 S
O544 C529 1.251 . S
O545 C529 1.251 . S
O545 Eu531 2.374 . S
O546 C530 1.257 . S
O546 Eu531 2.473 . S
O547 C530 1.260 . S
O547 Eu531 2.480 . S
O548 Eu531 2.430 . S
O548 C538 1.259 . S
O549 Eu521 2.355 1_554 S
O549 Eu531 2.670 . S
O549 C538 1.270 . S
O550 Eu531 2.394 1_556 S
O550 C539 1.251 . S
O551 Eu521 2.374 . S
O551 C539 1.251 . S
H552 C523 0.931 . S
H553 C524 0.931 . S
H554 C526 0.931 . S
H555 C527 0.931 . S
H556 C533 0.931 . S
H557 C534 0.931 . S
H558 C536 0.931 . S
H559 C537 0.931 . S
C560 Eu561 2.835 . S
C560 C562 1.500 . S
C560 O580 1.257 . S
C560 O581 1.260 . S
Eu561 C560 2.835 . S
Eu561 O580 2.473 . S
Eu561 O581 2.480 . S
Eu561 O582 2.430 . S
Eu561 O583 2.670 . S
Eu561 O584 2.394 . S
Eu561 O589 2.355 1_545 S
Eu561 O591 2.374 1_545 S
C562 C560 1.500 . S
C562 C563 1.377 . S
C562 C567 1.377 . S
C563 C562 1.377 . S
C563 C564 1.395 . S
C563 H592 0.931 . S
C564 C563 1.395 . S
C564 C565 1.383 . S
C564 H593 0.931 . S
C565 C564 1.383 . S
C565 C566 1.394 . S
C566 C565 1.394 . S
C566 C567 1.378 . S
C566 H594 0.931 . S
C567 C562 1.377 . S
C567 C566 1.378 . S
C567 H595 0.931 . S
C568 O582 1.259 . S
C568 O583 1.270 . S
C569 O584 1.251 . S
C569 O585 1.251 . S
C570 Eu571 2.835 . S
C570 C572 1.500 . S
C570 O586 1.257 . S
C570 O587 1.260 . S
Eu571 C570 2.835 . S
Eu571 O583 2.355 1_565 S
Eu571 O585 2.374 1_565 S
Eu571 O586 2.473 . S
Eu571 O587 2.480 . S
Eu571 O588 2.430 . S
Eu571 O589 2.670 . S
Eu571 O590 2.394 . S
C572 C570 1.500 . S
C572 C573 1.377 . S
C572 C577 1.377 . S
C573 C572 1.377 . S
C573 C574 1.395 . S
C573 H596 0.931 . S
C574 C573 1.395 . S
C574 C575 1.383 . S
C574 H597 0.931 . S
C575 C574 1.383 . S
C575 C576 1.394 . S
C576 C575 1.394 . S
C576 C577 1.378 . S
C576 H598 0.931 . S
C577 C572 1.377 . S
C577 C576 1.378 . S
C577 H599 0.931 . S
C578 O588 1.259 . S
C578 O589 1.270 . S
C579 O590 1.251 . S
C579 O591 1.251 . S
O580 C560 1.257 . S
O580 Eu561 2.473 . S
O581 C560 1.260 . S
O581 Eu561 2.480 . S
O582 Eu561 2.430 . S
O582 C568 1.259 . S
O583 Eu561 2.670 . S
O583 C568 1.270 . S
O583 Eu571 2.355 1_545 S
O584 Eu561 2.394 . S
O584 C569 1.251 . S
O585 C569 1.251 . S
O585 Eu571 2.374 1_545 S
O586 C570 1.257 . S
O586 Eu571 2.473 . S
O587 C570 1.260 . S
O587 Eu571 2.480 . S
O588 Eu571 2.430 . S
O588 C578 1.259 . S
O589 Eu561 2.355 1_565 S
O589 Eu571 2.670 . S
O589 C578 1.270 . S
O590 Eu571 2.394 . S
O590 C579 1.251 . S
O591 Eu561 2.374 1_565 S
O591 C579 1.251 . S
H592 C563 0.931 . S
H593 C564 0.931 . S
H594 C566 0.931 . S
H595 C567 0.931 . S
H596 C573 0.931 . S
H597 C574 0.931 . S
H598 C576 0.931 . S
H599 C577 0.931 . S
C600 Eu601 2.835 . S
C600 C602 1.500 . S
C600 O620 1.257 . S
C600 O621 1.260 . S
Eu601 C600 2.835 . S
Eu601 O620 2.473 . S
Eu601 O621 2.480 . S
Eu601 O622 2.430 . S
Eu601 O623 2.670 . S
Eu601 O624 2.387 1_556 S
Eu601 O629 2.355 1_556 S
Eu601 O631 2.374 . S
C602 C600 1.500 . S
C602 C603 1.377 . S
C602 C607 1.377 . S
C603 C602 1.377 . S
C603 C604 1.395 . S
C603 H632 0.931 . S
C604 C603 1.395 . S
C604 C605 1.383 . S
C604 H633 0.931 . S
C605 C604 1.383 . S
C605 C606 1.394 . S
C606 C605 1.394 . S
C606 C607 1.378 . S
C606 H634 0.931 . S
C607 C602 1.377 . S
C607 C606 1.378 . S
C607 H635 0.900 1_556 S
C608 O622 1.259 . S
C608 O623 1.270 . S
C609 O624 1.261 . S
C609 O625 1.251 . S
C610 Eu611 2.835 . S
C610 C612 1.500 . S
C610 O626 1.257 . S
C610 O627 1.260 . S
Eu611 C610 2.835 . S
Eu611 O623 2.355 1_554 S
Eu611 O625 2.374 . S
Eu611 O626 2.473 . S
Eu611 O627 2.480 . S
Eu611 O628 2.430 . S
Eu611 O629 2.670 . S
Eu611 O630 2.403 . S
C612 C610 1.500 . S
C612 C613 1.377 . S
C612 C617 1.377 . S
C613 C612 1.377 . S
C613 C614 1.395 . S
C613 H636 0.931 . S
C614 C613 1.395 . S
C614 C615 1.383 . S
C614 H637 0.931 . S
C615 C614 1.383 . S
C615 C616 1.394 . S
C616 C615 1.394 . S
C616 C617 1.378 . S
C616 H638 0.931 . S
C617 C612 1.377 . S
C617 C616 1.378 . S
C617 H639 0.924 1_554 S
C618 O628 1.259 . S
C618 O629 1.270 . S
C619 O630 1.238 1_556 S
C619 O631 1.251 . S
O620 C600 1.257 . S
O620 Eu601 2.473 . S
O621 C600 1.260 . S
O621 Eu601 2.480 . S
O622 Eu601 2.430 . S
O622 C608 1.259 . S
O623 Eu601 2.670 . S
O623 C608 1.270 . S
O623 Eu611 2.355 1_556 S
O624 Eu601 2.387 1_554 S
O624 C609 1.261 . S
O625 C609 1.251 . S
O625 Eu611 2.374 . S
O626 C610 1.257 . S
O626 Eu611 2.473 . S
O627 C610 1.260 . S
O627 Eu611 2.480 . S
O628 Eu611 2.430 . S
O628 C618 1.259 . S
O629 Eu601 2.355 1_554 S
O629 Eu611 2.670 . S
O629 C618 1.270 . S
O630 Eu611 2.403 . S
O630 C619 1.238 1_554 S
O631 Eu601 2.374 . S
O631 C619 1.251 . S
H632 C603 0.931 . S
H633 C604 0.931 . S
H634 C606 0.931 . S
H635 C607 0.900 1_554 S
H636 C613 0.931 . S
H637 C614 0.931 . S
H638 C616 0.931 . S
H639 C617 0.924 1_556 S
H640 C658 0.951 . S
H641 C660 0.951 . S
H642 C662 0.950 1_455 S
H643 C663 0.950 1_556 S
H644 C665 0.950 . S
H645 C668 0.950 . S
H646 C669 0.950 . S
H647 C671 0.950 . S
H648 C672 0.950 . S
H649 C673 0.951 . S
H650 C675 0.951 . S
H651 C677 0.952 1_655 S
H652 C678 0.950 1_655 S
H653 C680 0.950 . S
H654 C683 0.950 . S
H655 C684 0.950 . S
H656 C686 0.950 . S
H657 C687 0.950 . S
C658 H640 0.951 . S
C658 C659 1.366 . S
C658 C660 1.388 . S
C659 C658 1.366 . S
C659 C663 1.385 . S
C660 H641 0.951 . S
C660 C658 1.388 . S
C660 C661 1.366 . S
C661 C660 1.366 . S
C661 C662 1.414 . S
C661 C664 1.499 . S
C662 H642 0.950 1_655 S
C662 C661 1.414 . S
C662 C663 1.374 . S
C663 H643 0.950 1_554 S
C663 C659 1.385 . S
C663 C662 1.374 . S
C664 C661 1.499 . S
C664 C665 1.373 1_655 S
C664 C666 1.389 . S
C665 H644 0.950 . S
C665 C664 1.373 1_455 S
C665 C681 1.377 . S
C666 C664 1.389 . S
C666 C667 1.524 . S
C666 C680 1.377 . S
C667 C666 1.524 . S
C667 C668 1.397 . S
C667 C672 1.363 . S
C668 H645 0.950 . S
C668 C667 1.397 . S
C668 C669 1.334 . S
C669 H646 0.950 . S
C669 C668 1.334 . S
C669 C670 1.287 . S
C670 C669 1.287 . S
C670 C671 1.524 . S
C670 H689 0.913 . S
C671 H647 0.950 . S
C671 C670 1.524 . S
C671 C672 1.415 . S
C672 H648 0.950 . S
C672 C667 1.363 . S
C672 C671 1.415 . S
C673 H649 0.951 . S
C673 C674 1.366 . S
C673 C675 1.388 . S
C674 C673 1.366 . S
C674 C678 1.385 . S
C675 H650 0.951 . S
C675 C673 1.388 . S
C675 C676 1.366 . S
C676 C675 1.366 . S
C676 C677 1.414 . S
C676 C679 1.499 . S
C677 H651 0.952 1_455 S
C677 C676 1.414 . S
C677 C678 1.372 . S
C678 H652 0.950 1_455 S
C678 C674 1.385 . S
C678 C677 1.372 . S
C679 C676 1.499 . S
C679 C680 1.373 1_455 S
C679 C681 1.389 . S
C680 H653 0.950 . S
C680 C666 1.377 . S
C680 C679 1.373 1_655 S
C681 C665 1.377 . S
C681 C679 1.389 . S
C681 C682 1.524 . S
C682 C681 1.524 . S
C682 C683 1.397 . S
C682 C687 1.363 . S
C683 H654 0.950 . S
C683 C682 1.397 . S
C683 C684 1.334 . S
C684 H655 0.950 . S
C684 C683 1.334 . S
C684 C685 1.287 . S
C685 C684 1.287 . S
C685 C686 1.524 . S
C685 H688 0.999 . S
C686 H656 0.950 . S
C686 C685 1.524 . S
C686 C687 1.415 . S
C687 H657 0.950 . S
C687 C682 1.363 . S
C687 C686 1.415 . S
H688 C685 0.999 . S
H689 C670 0.913 . S
H690 C708 0.951 . S
H691 C710 0.951 . S
H692 C712 0.950 . S
H693 C713 0.950 . S
H694 C715 0.950 . S
H695 C718 0.950 . S
H696 C719 0.950 . S
H697 C721 0.950 . S
H698 C722 0.950 . S
H699 C723 0.951 . S
H700 C725 0.951 . S
H701 C727 0.950 . S
H702 C728 0.950 . S
H703 C730 0.950 . S
H704 C733 0.950 . S
H705 C734 0.950 . S
H706 C736 0.950 . S
H707 C737 0.950 . S
C708 H690 0.951 . S
C708 C709 1.366 . S
C708 C710 1.388 . S
C709 C708 1.366 . S
C709 C713 1.385 . S
C710 H691 0.951 . S
C710 C708 1.388 . S
C710 C711 1.366 . S
C711 C710 1.366 . S
C711 C712 1.414 . S
C711 C714 1.499 . S
C712 H692 0.950 . S
C712 C711 1.414 . S
C712 C713 1.374 . S
C713 H693 0.950 . S
C713 C709 1.385 . S
C713 C712 1.374 . S
C714 C711 1.499 . S
C714 C715 1.373 . S
C714 C716 1.389 . S
C715 H694 0.950 . S
C715 C714 1.373 . S
C715 C731 1.377 . S
C716 C714 1.389 . S
C716 C717 1.524 . S
C716 C730 1.377 . S
C717 C716 1.524 . S
C717 C718 1.397 . S
C717 C722 1.363 . S
C718 H695 0.950 . S
C718 C717 1.397 . S
C718 C719 1.334 . S
C719 H696 0.950 . S
C719 C718 1.334 . S
C719 C720 1.287 . S
C720 C719 1.287 . S
C720 C721 1.524 . S
C720 H739 0.913 . S
C721 H697 0.950 . S
C721 C720 1.524 . S
C721 C722 1.415 . S
C722 H698 0.950 . S
C722 C717 1.363 . S
C722 C721 1.415 . S
C723 H699 0.951 . S
C723 C724 1.366 . S
C723 C725 1.388 . S
C724 C723 1.366 . S
C724 C728 1.385 . S
C725 H700 0.951 . S
C725 C723 1.388 . S
C725 C726 1.366 . S
C726 C725 1.366 . S
C726 C727 1.414 . S
C726 C729 1.499 . S
C727 H701 0.950 . S
C727 C726 1.414 . S
C727 C728 1.374 . S
C728 H702 0.950 . S
C728 C724 1.385 . S
C728 C727 1.374 . S
C729 C726 1.499 . S
C729 C730 1.373 . S
C729 C731 1.389 . S
C730 H703 0.950 . S
C730 C716 1.377 . S
C730 C729 1.373 . S
C731 C715 1.377 . S
C731 C729 1.389 . S
C731 C732 1.524 . S
C732 C731 1.524 . S
C732 C733 1.397 . S
C732 C737 1.363 . S
C733 H704 0.950 . S
C733 C732 1.397 . S
C733 C734 1.334 . S
C734 H705 0.950 . S
C734 C733 1.334 . S
C734 C735 1.287 . S
C735 C734 1.287 . S
C735 C736 1.524 . S
C735 H738 0.999 . S
C736 H706 0.950 . S
C736 C735 1.524 . S
C736 C737 1.415 . S
C737 H707 0.950 . S
C737 C732 1.363 . S
C737 C736 1.415 . S
H738 C735 0.999 . S
H739 C720 0.913 . S
H740 C758 0.951 . S
H741 C760 0.951 . S
H742 C762 0.950 . S
H743 C763 0.950 . S
H744 C765 0.950 . S
H745 C768 0.950 . S
H746 C769 0.950 . S
H747 C771 0.950 . S
H748 C772 0.950 . S
H749 C773 0.951 . S
H750 C775 0.951 . S
H751 C777 0.950 . S
H752 C778 0.950 . S
H753 C780 0.950 . S
H754 C783 0.950 . S
H755 C784 0.950 . S
H756 C786 0.950 . S
H757 C787 0.950 . S
C758 H740 0.951 . S
C758 C759 1.366 . S
C758 C760 1.388 . S
C759 C758 1.366 . S
C759 C763 1.385 . S
C760 H741 0.951 . S
C760 C758 1.388 . S
C760 C761 1.366 . S
C761 C760 1.366 . S
C761 C762 1.414 . S
C761 C764 1.499 . S
C762 H742 0.950 . S
C762 C761 1.414 . S
C762 C763 1.374 . S
C763 H743 0.950 . S
C763 C759 1.385 . S
C763 C762 1.374 . S
C764 C761 1.499 . S
C764 C765 1.373 . S
C764 C766 1.389 . S
C765 H744 0.950 . S
C765 C764 1.373 . S
C765 C781 1.377 . S
C766 C764 1.389 . S
C766 C767 1.524 . S
C766 C780 1.377 . S
C767 C766 1.524 . S
C767 C768 1.397 . S
C767 C772 1.363 . S
C768 H745 0.950 . S
C768 C767 1.397 . S
C768 C769 1.334 . S
C769 H746 0.950 . S
C769 C768 1.334 . S
C769 C770 1.287 . S
C770 C769 1.287 . S
C770 C771 1.524 . S
C770 H789 0.913 . S
C771 H747 0.950 . S
C771 C770 1.524 . S
C771 C772 1.415 . S
C772 H748 0.950 . S
C772 C767 1.363 . S
C772 C771 1.415 . S
C773 H749 0.951 . S
C773 C774 1.366 . S
C773 C775 1.388 . S
C774 C773 1.366 . S
C774 C778 1.385 . S
C775 H750 0.951 . S
C775 C773 1.388 . S
C775 C776 1.366 . S
C776 C775 1.366 . S
C776 C777 1.414 . S
C776 C779 1.499 . S
C777 H751 0.950 . S
C777 C776 1.414 . S
C777 C778 1.374 . S
C778 H752 0.950 . S
C778 C774 1.385 . S
C778 C777 1.374 . S
C779 C776 1.499 . S
C779 C780 1.373 . S
C779 C781 1.389 . S
C780 H753 0.950 . S
C780 C766 1.377 . S
C780 C779 1.373 . S
C781 C765 1.377 . S
C781 C779 1.389 . S
C781 C782 1.524 . S
C782 C781 1.524 . S
C782 C783 1.397 . S
C782 C787 1.363 . S
C783 H754 0.950 . S
C783 C782 1.397 . S
C783 C784 1.334 . S
C784 H755 0.950 . S
C784 C783 1.334 . S
C784 C785 1.287 . S
C785 C784 1.287 . S
C785 C786 1.524 . S
C785 H788 0.999 . S
C786 H756 0.950 . S
C786 C785 1.524 . S
C786 C787 1.415 . S
C787 H757 0.950 . S
C787 C782 1.363 . S
C787 C786 1.415 . S
H788 C785 0.999 . S
H789 C770 0.913 . S
H790 C808 0.951 . S
H791 C810 0.951 . S
H792 C812 0.950 . S
H793 C813 0.950 . S
H794 C815 0.950 . S
H795 C818 0.950 . S
H796 C819 0.950 . S
H797 C821 0.950 . S
H798 C822 0.950 . S
H799 C823 0.951 . S
H800 C825 0.951 . S
H801 C827 0.950 . S
H802 C828 0.950 . S
H803 C830 0.950 . S
H804 C833 0.950 . S
H805 C834 0.950 . S
H806 C836 0.950 . S
H807 C837 0.950 . S
C808 H790 0.951 . S
C808 C809 1.366 . S
C808 C810 1.388 . S
C809 C808 1.366 . S
C809 C813 1.385 . S
C810 H791 0.951 . S
C810 C808 1.388 . S
C810 C811 1.366 . S
C811 C810 1.366 . S
C811 C812 1.414 . S
C811 C814 1.499 . S
C812 H792 0.950 . S
C812 C811 1.414 . S
C812 C813 1.374 . S
C813 H793 0.950 . S
C813 C809 1.385 . S
C813 C812 1.374 . S
C814 C811 1.499 . S
C814 C815 1.373 1_545 S
C814 C816 1.389 . S
C815 H794 0.950 . S
C815 C814 1.373 1_565 S
C815 C831 1.377 . S
C816 C814 1.389 . S
C816 C817 1.524 . S
C816 C830 1.377 . S
C817 C816 1.524 . S
C817 C818 1.397 . S
C817 C822 1.363 . S
C818 H795 0.950 . S
C818 C817 1.397 . S
C818 C819 1.334 . S
C819 H796 0.950 . S
C819 C818 1.334 . S
C819 C820 1.287 . S
C820 C819 1.287 . S
C820 C821 1.524 . S
C820 H839 0.913 . S
C821 H797 0.950 . S
C821 C820 1.524 . S
C821 C822 1.415 . S
C822 H798 0.950 . S
C822 C817 1.363 . S
C822 C821 1.415 . S
C823 H799 0.951 . S
C823 C824 1.366 . S
C823 C825 1.388 . S
C824 C823 1.366 . S
C824 C828 1.385 . S
C825 H800 0.951 . S
C825 C823 1.388 . S
C825 C826 1.366 . S
C826 C825 1.366 . S
C826 C827 1.414 . S
C826 C829 1.499 . S
C827 H801 0.950 . S
C827 C826 1.414 . S
C827 C828 1.374 . S
C828 H802 0.950 . S
C828 C824 1.385 . S
C828 C827 1.374 . S
C829 C826 1.499 . S
C829 C830 1.373 1_565 S
C829 C831 1.389 . S
C830 H803 0.950 . S
C830 C816 1.377 . S
C830 C829 1.373 1_545 S
C831 C815 1.377 . S
C831 C829 1.389 . S
C831 C832 1.524 . S
C832 C831 1.524 . S
C832 C833 1.397 . S
C832 C837 1.363 . S
C833 H804 0.950 . S
C833 C832 1.397 . S
C833 C834 1.334 . S
C834 H805 0.950 . S
C834 C833 1.334 . S
C834 C835 1.287 . S
C835 C834 1.287 . S
C835 C836 1.524 . S
C835 H838 0.999 . S
C836 H806 0.950 . S
C836 C835 1.524 . S
C836 C837 1.415 . S
C837 H807 0.950 . S
C837 C832 1.363 . S
C837 C836 1.415 . S
H838 C835 0.999 . S
H839 C820 0.913 . S
H840 C858 0.950 . S
H841 C860 0.951 1_545 S
H842 C862 0.950 . S
H843 C863 0.950 . S
H844 C865 0.950 . S
H845 C868 0.950 . S
H846 C869 0.950 1_556 S
H847 C871 0.950 . S
H848 C872 0.950 . S
H849 C873 0.951 1_565 S
H850 C875 0.951 . S
H851 C877 0.950 . S
H852 C878 0.950 . S
H853 C880 0.950 . S
H854 C883 0.950 . S
H855 C884 0.950 . S
H856 C886 0.950 . S
H857 C887 0.950 . S
C858 H840 0.950 . S
C858 C859 1.366 . S
C858 C860 1.388 . S
C859 C858 1.366 . S
C859 C863 1.385 . S
C860 H841 0.951 1_565 S
C860 C858 1.388 . S
C860 C861 1.366 . S
C861 C860 1.366 . S
C861 C862 1.414 . S
C861 C864 1.499 . S
C862 H842 0.950 . S
C862 C861 1.414 . S
C862 C863 1.374 . S
C863 H843 0.950 . S
C863 C859 1.385 . S
C863 C862 1.374 . S
C864 C861 1.499 . S
C864 C865 1.373 . S
C864 C866 1.389 1_565 S
C865 H844 0.950 . S
C865 C864 1.373 . S
C865 C881 1.377 . S
C866 C864 1.389 1_545 S
C866 C867 1.524 . S
C866 C880 1.377 . S
C867 C866 1.524 . S
C867 C868 1.397 . S
C867 C872 1.363 . S
C868 H845 0.950 . S
C868 C867 1.397 . S
C868 C869 1.334 . S
C869 H846 0.950 1_554 S
C869 C868 1.334 . S
C869 C870 1.287 . S
C870 C869 1.287 . S
C870 C871 1.524 . S
C870 H889 0.913 . S
C871 H847 0.950 . S
C871 C870 1.524 . S
C871 C872 1.415 . S
C872 H848 0.950 . S
C872 C867 1.363 . S
C872 C871 1.415 . S
C873 H849 0.951 1_545 S
C873 C874 1.366 . S
C873 C875 1.388 1_545 S
C874 C873 1.366 . S
C874 C878 1.385 . S
C875 H850 0.951 . S
C875 C873 1.388 1_565 S
C875 C876 1.366 1_565 S
C876 C875 1.366 1_545 S
C876 C877 1.414 . S
C876 C879 1.499 . S
C877 H851 0.950 . S
C877 C876 1.414 . S
C877 C878 1.374 . S
C878 H852 0.950 . S
C878 C874 1.385 . S
C878 C877 1.374 . S
C879 C876 1.499 . S
C879 C880 1.373 . S
C879 C881 1.389 1_545 S
C880 H853 0.950 . S
C880 C866 1.377 . S
C880 C879 1.373 . S
C881 C865 1.377 . S
C881 C879 1.389 1_565 S
C881 C882 1.524 . S
C882 C881 1.524 . S
C882 C883 1.397 . S
C882 C887 1.363 . S
C883 H854 0.950 . S
C883 C882 1.397 . S
C883 C884 1.334 . S
C884 H855 0.950 . S
C884 C883 1.334 . S
C884 C885 1.287 . S
C885 C884 1.287 . S
C885 C886 1.524 . S
C885 H888 0.999 . S
C886 H856 0.950 . S
C886 C885 1.524 . S
C886 C887 1.415 . S
C887 H857 0.950 . S
C887 C882 1.363 . S
C887 C886 1.415 . S
H888 C885 0.999 . S
H889 C870 0.913 . S
H890 C908 0.951 . S
H891 C910 0.951 . S
H892 C912 0.950 . S
H893 C913 0.950 . S
H894 C915 0.950 . S
H895 C918 0.950 . S
H896 C919 0.950 . S
H897 C921 0.950 . S
H898 C922 0.950 . S
H899 C923 0.951 . S
H900 C925 0.951 . S
H901 C927 0.950 . S
H902 C928 0.950 . S
H903 C930 0.950 . S
H904 C933 0.950 . S
H905 C934 0.950 . S
H906 C936 0.950 . S
H907 C937 0.950 . S
C908 H890 0.951 . S
C908 C909 1.366 . S
C908 C910 1.388 . S
C909 C908 1.366 . S
C909 C913 1.385 1_455 S
C910 H891 0.951 . S
C910 C908 1.388 . S
C910 C911 1.366 . S
C911 C910 1.366 . S
C911 C912 1.414 1_455 S
C911 C914 1.499 . S
C912 H892 0.950 . S
C912 C911 1.414 1_655 S
C912 C913 1.374 . S
C913 H893 0.950 . S
C913 C909 1.385 1_655 S
C913 C912 1.374 . S
C914 C911 1.499 . S
C914 C915 1.373 1_455 S
C914 C916 1.389 . S
C915 H894 0.950 . S
C915 C914 1.373 1_655 S
C915 C931 1.377 . S
C916 C914 1.389 . S
C916 C917 1.524 . S
C916 C930 1.377 . S
C917 C916 1.524 . S
C917 C918 1.397 . S
C917 C922 1.363 . S
C918 H895 0.950 . S
C918 C917 1.397 . S
C918 C919 1.334 . S
C919 H896 0.950 . S
C919 C918 1.334 . S
C919 C920 1.287 . S
C920 C919 1.287 . S
C920 C921 1.524 . S
C920 H939 0.913 . S
C921 H897 0.950 . S
C921 C920 1.524 . S
C921 C922 1.415 . S
C922 H898 0.950 . S
C922 C917 1.363 . S
C922 C921 1.415 . S
C923 H899 0.951 . S
C923 C924 1.366 . S
C923 C925 1.388 . S
C924 C923 1.366 . S
C924 C928 1.385 1_655 S
C925 H900 0.951 . S
C925 C923 1.388 . S
C925 C926 1.366 . S
C926 C925 1.366 . S
C926 C927 1.414 1_655 S
C926 C929 1.485 1_655 S
C927 H901 0.950 . S
C927 C926 1.414 1_455 S
C927 C928 1.374 . S
C928 H902 0.950 . S
C928 C924 1.385 1_455 S
C928 C927 1.374 . S
C929 C926 1.485 1_455 S
C929 C930 1.397 . S
C929 C931 1.379 1_455 S
C930 H903 0.950 . S
C930 C916 1.377 . S
C930 C929 1.397 . S
C931 C915 1.377 . S
C931 C929 1.379 1_655 S
C931 C932 1.524 . S
C932 C931 1.524 . S
C932 C933 1.397 . S
C932 C937 1.363 . S
C933 H904 0.950 . S
C933 C932 1.397 . S
C933 C934 1.334 . S
C934 H905 0.950 . S
C934 C933 1.334 . S
C934 C935 1.287 . S
C935 C934 1.287 . S
C935 C936 1.524 . S
C935 H938 0.999 . S
C936 H906 0.950 . S
C936 C935 1.524 . S
C936 C937 1.415 . S
C937 H907 0.950 . S
C937 C932 1.363 . S
C937 C936 1.415 . S
H938 C935 0.999 . S
H939 C920 0.913 . S
H940 C958 0.951 . S
H941 C960 0.951 . S
H942 C962 0.950 . S
H943 C963 0.950 . S
H944 C965 0.950 . S
H945 C968 0.950 . S
H946 C969 0.950 . S
H947 C971 0.950 . S
H948 C972 0.950 . S
H949 C973 0.951 . S
H950 C975 0.951 . S
H951 C977 0.950 . S
H952 C978 0.950 . S
H953 C980 0.950 . S
H954 C983 0.950 . S
H955 C984 0.950 . S
H956 C986 0.950 . S
H957 C987 0.950 . S
C958 H940 0.951 . S
C958 C959 1.366 . S
C958 C960 1.388 . S
C959 C958 1.366 . S
C959 C963 1.385 . S
C960 H941 0.951 . S
C960 C958 1.388 . S
C960 C961 1.366 . S
C961 C960 1.366 . S
C961 C962 1.414 . S
C961 C964 1.499 . S
C962 H942 0.950 . S
C962 C961 1.414 . S
C962 C963 1.374 . S
C963 H943 0.950 . S
C963 C959 1.385 . S
C963 C962 1.374 . S
C964 C961 1.499 . S
C964 C965 1.373 . S
C964 C966 1.389 . S
C965 H944 0.950 . S
C965 C964 1.373 . S
C965 C981 1.377 . S
C966 C964 1.389 . S
C966 C967 1.524 . S
C966 C980 1.377 . S
C967 C966 1.524 . S
C967 C968 1.397 . S
C967 C972 1.363 . S
C968 H945 0.950 . S
C968 C967 1.397 . S
C968 C969 1.334 . S
C969 H946 0.950 . S
C969 C968 1.334 . S
C969 C970 1.287 . S
C970 C969 1.287 . S
C970 C971 1.524 . S
C970 H989 0.913 . S
C971 H947 0.950 . S
C971 C970 1.524 . S
C971 C972 1.415 . S
C972 H948 0.950 . S
C972 C967 1.363 . S
C972 C971 1.415 . S
C973 H949 0.951 . S
C973 C974 1.366 . S
C973 C975 1.388 . S
C974 C973 1.366 . S
C974 C978 1.385 . S
C975 H950 0.951 . S
C975 C973 1.388 . S
C975 C976 1.366 . S
C976 C975 1.366 . S
C976 C977 1.414 . S
C976 C979 1.499 . S
C977 H951 0.950 . S
C977 C976 1.414 . S
C977 C978 1.374 . S
C978 H952 0.950 . S
C978 C974 1.385 . S
C978 C977 1.374 . S
C979 C976 1.499 . S
C979 C980 1.373 . S
C979 C981 1.389 . S
C980 H953 0.950 . S
C980 C966 1.377 . S
C980 C979 1.373 . S
C981 C965 1.377 . S
C981 C979 1.389 . S
C981 C982 1.524 . S
C982 C981 1.524 . S
C982 C983 1.397 . S
C982 C987 1.363 . S
C983 H954 0.950 . S
C983 C982 1.397 . S
C983 C984 1.334 . S
C984 H955 0.950 . S
C984 C983 1.334 . S
C984 C985 1.287 . S
C985 C984 1.287 . S
C985 C986 1.524 . S
C985 H988 0.999 . S
C986 H956 0.950 . S
C986 C985 1.524 . S
C986 C987 1.415 . S
C987 H957 0.950 . S
C987 C982 1.363 . S
C987 C986 1.415 . S
H988 C985 0.999 . S
H989 C970 0.913 . S
H990 C1008 0.951 . S
H991 C1010 0.951 . S
H992 C1012 0.950 . S
H993 C1013 0.950 . S
H994 C1015 0.950 . S
H995 C1018 0.950 . S
H996 C1019 0.950 . S
H997 C1021 0.950 . S
H998 C1022 0.950 . S
H999 C1023 0.951 . S
H1000 C1025 0.951 . S
H1001 C1027 0.950 . S
H1002 C1028 0.950 . S
H1003 C1030 0.950 . S
H1004 C1033 0.950 . S
H1005 C1034 0.950 . S
H1006 C1036 0.950 . S
H1007 C1037 0.950 . S
C1008 H990 0.951 . S
C1008 C1009 1.366 . S
C1008 C1010 1.388 . S
C1009 C1008 1.366 . S
C1009 C1013 1.385 . S
C1010 H991 0.951 . S
C1010 C1008 1.388 . S
C1010 C1011 1.366 . S
C1011 C1010 1.366 . S
C1011 C1012 1.414 . S
C1011 C1014 1.499 . S
C1012 H992 0.950 . S
C1012 C1011 1.414 . S
C1012 C1013 1.374 . S
C1013 H993 0.950 . S
C1013 C1009 1.385 . S
C1013 C1012 1.374 . S
C1014 C1011 1.499 . S
C1014 C1015 1.373 . S
C1014 C1016 1.389 . S
C1015 H994 0.950 . S
C1015 C1014 1.373 . S
C1015 C1031 1.377 . S
C1016 C1014 1.389 . S
C1016 C1017 1.524 . S
C1016 C1030 1.377 . S
C1017 C1016 1.524 . S
C1017 C1018 1.397 . S
C1017 C1022 1.363 . S
C1018 H995 0.950 . S
C1018 C1017 1.397 . S
C1018 C1019 1.334 . S
C1019 H996 0.950 . S
C1019 C1018 1.334 . S
C1019 C1020 1.287 . S
C1020 C1019 1.287 . S
C1020 C1021 1.524 . S
C1020 H1039 0.913 . S
C1021 H997 0.950 . S
C1021 C1020 1.524 . S
C1021 C1022 1.415 . S
C1022 H998 0.950 . S
C1022 C1017 1.363 . S
C1022 C1021 1.415 . S
C1023 H999 0.951 . S
C1023 C1024 1.366 . S
C1023 C1025 1.388 . S
C1024 C1023 1.366 . S
C1024 C1028 1.385 . S
C1025 H1000 0.951 . S
C1025 C1023 1.388 . S
C1025 C1026 1.366 . S
C1026 C1025 1.366 . S
C1026 C1027 1.414 . S
C1026 C1029 1.499 . S
C1027 H1001 0.950 . S
C1027 C1026 1.414 . S
C1027 C1028 1.374 . S
C1028 H1002 0.950 . S
C1028 C1024 1.385 . S
C1028 C1027 1.374 . S
C1029 C1026 1.499 . S
C1029 C1030 1.373 . S
C1029 C1031 1.389 . S
C1030 H1003 0.950 . S
C1030 C1016 1.377 . S
C1030 C1029 1.373 . S
C1031 C1015 1.377 . S
C1031 C1029 1.389 . S
C1031 C1032 1.524 . S
C1032 C1031 1.524 . S
C1032 C1033 1.397 . S
C1032 C1037 1.363 . S
C1033 H1004 0.950 . S
C1033 C1032 1.397 . S
C1033 C1034 1.334 . S
C1034 H1005 0.950 . S
C1034 C1033 1.334 . S
C1034 C1035 1.287 . S
C1035 C1034 1.287 . S
C1035 C1036 1.524 . S
C1035 H1038 0.999 . S
C1036 H1006 0.950 . S
C1036 C1035 1.524 . S
C1036 C1037 1.415 . S
C1037 H1007 0.950 . S
C1037 C1032 1.363 . S
C1037 C1036 1.415 . S
H1038 C1035 0.999 . S
H1039 C1020 0.913 . S
H1040 C1058 0.951 . S
H1041 C1060 0.951 . S
H1042 C1062 0.950 . S
H1043 C1063 0.950 . S
H1044 C1065 0.950 . S
H1045 C1068 0.950 . S
H1046 C1069 0.950 . S
H1047 C1071 0.950 . S
H1048 C1072 0.950 . S
H1049 C1073 0.951 . S
H1050 C1075 0.951 . S
H1051 C1077 0.950 . S
H1052 C1078 0.950 . S
H1053 C1080 0.950 . S
H1054 C1083 0.950 . S
H1055 C1084 0.950 . S
H1056 C1086 0.950 . S
H1057 C1087 0.950 . S
C1058 H1040 0.951 . S
C1058 C1059 1.366 . S
C1058 C1060 1.388 . S
C1059 C1058 1.366 . S
C1059 C1063 1.385 . S
C1060 H1041 0.951 . S
C1060 C1058 1.388 . S
C1060 C1061 1.366 . S
C1061 C1060 1.366 . S
C1061 C1062 1.414 . S
C1061 C1064 1.499 . S
C1062 H1042 0.950 . S
C1062 C1061 1.414 . S
C1062 C1063 1.374 . S
C1063 H1043 0.950 . S
C1063 C1059 1.385 . S
C1063 C1062 1.374 . S
C1064 C1061 1.499 . S
C1064 C1065 1.373 . S
C1064 C1066 1.389 . S
C1065 H1044 0.950 . S
C1065 C1064 1.373 . S
C1065 C1081 1.377 . S
C1066 C1064 1.389 . S
C1066 C1067 1.524 . S
C1066 C1080 1.377 . S
C1067 C1066 1.524 . S
C1067 C1068 1.397 . S
C1067 C1072 1.363 . S
C1068 H1045 0.950 . S
C1068 C1067 1.397 . S
C1068 C1069 1.334 . S
C1069 H1046 0.950 . S
C1069 C1068 1.334 . S
C1069 C1070 1.287 . S
C1070 C1069 1.287 . S
C1070 C1071 1.524 . S
C1070 H1089 0.913 . S
C1071 H1047 0.950 . S
C1071 C1070 1.524 . S
C1071 C1072 1.415 . S
C1072 H1048 0.950 . S
C1072 C1067 1.363 . S
C1072 C1071 1.415 . S
C1073 H1049 0.951 . S
C1073 C1074 1.366 . S
C1073 C1075 1.388 . S
C1074 C1073 1.366 . S
C1074 C1078 1.385 . S
C1075 H1050 0.951 . S
C1075 C1073 1.388 . S
C1075 C1076 1.366 . S
C1076 C1075 1.366 . S
C1076 C1077 1.414 . S
C1076 C1079 1.499 . S
C1077 H1051 0.950 . S
C1077 C1076 1.414 . S
C1077 C1078 1.374 . S
C1078 H1052 0.950 . S
C1078 C1074 1.385 . S
C1078 C1077 1.374 . S
C1079 C1076 1.499 . S
C1079 C1080 1.373 . S
C1079 C1081 1.389 . S
C1080 H1053 0.950 . S
C1080 C1066 1.377 . S
C1080 C1079 1.373 . S
C1081 C1065 1.377 . S
C1081 C1079 1.389 . S
C1081 C1082 1.524 . S
C1082 C1081 1.524 . S
C1082 C1083 1.397 . S
C1082 C1087 1.363 . S
C1083 H1054 0.950 . S
C1083 C1082 1.397 . S
C1083 C1084 1.334 . S
C1084 H1055 0.950 . S
C1084 C1083 1.334 . S
C1084 C1085 1.287 . S
C1085 C1084 1.287 . S
C1085 C1086 1.524 . S
C1085 H1088 0.999 . S
C1086 H1056 0.950 . S
C1086 C1085 1.524 . S
C1086 C1087 1.415 . S
C1087 H1057 0.950 . S
C1087 C1082 1.363 . S
C1087 C1086 1.415 . S
H1088 C1085 0.999 . S
H1089 C1070 0.913 . S
H1090 C1108 0.951 . S
H1091 C1110 0.951 . S
H1092 C1112 0.950 . S
H1093 C1113 0.950 . S
H1094 C1115 0.950 . S
H1095 C1118 0.950 . S
H1096 C1119 0.950 . S
H1097 C1121 0.950 . S
H1098 C1122 0.950 . S
H1099 C1123 0.951 . S
H1100 C1125 0.951 . S
H1101 C1127 0.950 . S
H1102 C1128 0.950 . S
H1103 C1130 0.950 . S
H1104 C1133 0.950 . S
H1105 C1134 0.950 . S
H1106 C1136 0.950 . S
H1107 C1137 0.950 . S
C1108 H1090 0.951 . S
C1108 C1109 1.366 . S
C1108 C1110 1.388 . S
C1109 C1108 1.366 . S
C1109 C1113 1.385 . S
C1110 H1091 0.951 . S
C1110 C1108 1.388 . S
C1110 C1111 1.366 . S
C1111 C1110 1.366 . S
C1111 C1112 1.414 . S
C1111 C1114 1.499 . S
C1112 H1092 0.950 . S
C1112 C1111 1.414 . S
C1112 C1113 1.374 . S
C1113 H1093 0.950 . S
C1113 C1109 1.385 . S
C1113 C1112 1.374 . S
C1114 C1111 1.499 . S
C1114 C1115 1.373 . S
C1114 C1116 1.389 . S
C1115 H1094 0.950 . S
C1115 C1114 1.373 . S
C1115 C1131 1.377 . S
C1116 C1114 1.389 . S
C1116 C1117 1.524 . S
C1116 C1130 1.377 . S
C1117 C1116 1.524 . S
C1117 C1118 1.397 . S
C1117 C1122 1.363 . S
C1118 H1095 0.950 . S
C1118 C1117 1.397 . S
C1118 C1119 1.334 . S
C1119 H1096 0.950 . S
C1119 C1118 1.334 . S
C1119 C1120 1.287 . S
C1120 C1119 1.287 . S
C1120 C1121 1.524 . S
C1120 H1139 0.913 . S
C1121 H1097 0.950 . S
C1121 C1120 1.524 . S
C1121 C1122 1.415 . S
C1122 H1098 0.950 . S
C1122 C1117 1.363 . S
C1122 C1121 1.415 . S
C1123 H1099 0.951 . S
C1123 C1124 1.366 . S
C1123 C1125 1.388 . S
C1124 C1123 1.366 . S
C1124 C1128 1.385 . S
C1125 H1100 0.951 . S
C1125 C1123 1.388 . S
C1125 C1126 1.366 . S
C1126 C1125 1.366 . S
C1126 C1127 1.414 . S
C1126 C1129 1.499 . S
C1127 H1101 0.950 . S
C1127 C1126 1.414 . S
C1127 C1128 1.374 . S
C1128 H1102 0.950 . S
C1128 C1124 1.385 . S
C1128 C1127 1.374 . S
C1129 C1126 1.499 . S
C1129 C1130 1.373 . S
C1129 C1131 1.389 . S
C1130 H1103 0.950 . S
C1130 C1116 1.377 . S
C1130 C1129 1.373 . S
C1131 C1115 1.377 . S
C1131 C1129 1.389 . S
C1131 C1132 1.524 . S
C1132 C1131 1.524 . S
C1132 C1133 1.397 . S
C1132 C1137 1.363 . S
C1133 H1104 0.950 . S
C1133 C1132 1.397 . S
C1133 C1134 1.334 . S
C1134 H1105 0.950 . S
C1134 C1133 1.334 . S
C1134 C1135 1.287 . S
C1135 C1134 1.287 . S
C1135 C1136 1.524 . S
C1135 H1138 0.999 . S
C1136 H1106 0.950 . S
C1136 C1135 1.524 . S
C1136 C1137 1.415 . S
C1137 H1107 0.950 . S
C1137 C1132 1.363 . S
C1137 C1136 1.415 . S
H1138 C1135 0.999 . S
H1139 C1120 0.913 . S
H1140 C1158 0.951 . S
H1141 C1160 0.951 . S
H1142 C1162 0.950 . S
H1143 C1163 0.950 . S
H1144 C1165 0.950 . S
H1145 C1168 0.950 . S
H1146 C1169 0.950 . S
H1147 C1171 0.950 . S
H1148 C1172 0.950 . S
H1149 C1173 0.951 . S
H1150 C1175 0.951 . S
H1151 C1177 0.950 . S
H1152 C1178 0.950 . S
H1153 C1180 0.950 . S
H1154 C1183 0.950 . S
H1155 C1184 0.950 . S
H1156 C1186 0.950 . S
H1157 C1187 0.950 . S
C1158 H1140 0.951 . S
C1158 C1159 1.366 . S
C1158 C1160 1.388 . S
C1159 C1158 1.366 . S
C1159 C1163 1.385 . S
C1160 H1141 0.951 . S
C1160 C1158 1.388 . S
C1160 C1161 1.366 . S
C1161 C1160 1.366 . S
C1161 C1162 1.414 . S
C1161 C1164 1.499 . S
C1162 H1142 0.950 . S
C1162 C1161 1.414 . S
C1162 C1163 1.374 . S
C1163 H1143 0.950 . S
C1163 C1159 1.385 . S
C1163 C1162 1.374 . S
C1164 C1161 1.499 . S
C1164 C1165 1.373 . S
C1164 C1166 1.389 1_565 S
C1165 H1144 0.950 . S
C1165 C1164 1.373 . S
C1165 C1181 1.377 . S
C1166 C1164 1.389 1_545 S
C1166 C1167 1.524 . S
C1166 C1180 1.377 . S
C1167 C1166 1.524 . S
C1167 C1168 1.397 . S
C1167 C1172 1.363 . S
C1168 H1145 0.950 . S
C1168 C1167 1.397 . S
C1168 C1169 1.334 . S
C1169 H1146 0.950 . S
C1169 C1168 1.334 . S
C1169 C1170 1.287 . S
C1170 C1169 1.287 . S
C1170 C1171 1.524 . S
C1170 H1189 0.913 . S
C1171 H1147 0.950 . S
C1171 C1170 1.524 . S
C1171 C1172 1.415 . S
C1172 H1148 0.950 . S
C1172 C1167 1.363 . S
C1172 C1171 1.415 . S
C1173 H1149 0.951 . S
C1173 C1174 1.366 . S
C1173 C1175 1.388 . S
C1174 C1173 1.366 . S
C1174 C1178 1.385 . S
C1175 H1150 0.951 . S
C1175 C1173 1.388 . S
C1175 C1176 1.366 . S
C1176 C1175 1.366 . S
C1176 C1177 1.414 . S
C1176 C1179 1.499 . S
C1177 H1151 0.950 . S
C1177 C1176 1.414 . S
C1177 C1178 1.374 . S
C1178 H1152 0.950 . S
C1178 C1174 1.385 . S
C1178 C1177 1.374 . S
C1179 C1176 1.499 . S
C1179 C1180 1.373 . S
C1179 C1181 1.389 1_545 S
C1180 H1153 0.950 . S
C1180 C1166 1.377 . S
C1180 C1179 1.373 . S
C1181 C1165 1.377 . S
C1181 C1179 1.389 1_565 S
C1181 C1182 1.524 . S
C1182 C1181 1.524 . S
C1182 C1183 1.397 . S
C1182 C1187 1.363 . S
C1183 H1154 0.950 . S
C1183 C1182 1.397 . S
C1183 C1184 1.334 . S
C1184 H1155 0.950 . S
C1184 C1183 1.334 . S
C1184 C1185 1.287 . S
C1185 C1184 1.287 . S
C1185 C1186 1.524 . S
C1185 H1188 0.999 . S
C1186 H1156 0.950 . S
C1186 C1185 1.524 . S
C1186 C1187 1.415 . S
C1187 H1157 0.950 . S
C1187 C1182 1.363 . S
C1187 C1186 1.415 . S
H1188 C1185 0.999 . S
H1189 C1170 0.913 . S
H1190 C1208 0.951 . S
H1191 C1210 0.951 . S
H1192 C1212 0.950 . S
H1193 C1213 0.950 . S
H1194 C1215 0.950 . S
H1195 C1218 0.950 . S
H1196 C1219 0.950 . S
H1197 C1221 0.950 . S
H1198 C1222 0.950 . S
H1199 C1223 0.951 . S
H1200 C1225 0.951 . S
H1201 C1227 0.950 . S
H1202 C1228 0.950 . S
H1203 C1230 0.950 . S
H1204 C1233 0.950 1_455 S
H1205 C1234 0.950 . S
H1206 C1236 0.950 1_554 S
H1207 C1237 0.950 . S
C1208 H1190 0.951 . S
C1208 C1209 1.366 . S
C1208 C1210 1.388 . S
C1209 C1208 1.366 . S
C1209 C1213 1.385 1_455 S
C1210 H1191 0.951 . S
C1210 C1208 1.388 . S
C1210 C1211 1.366 . S
C1211 C1210 1.366 . S
C1211 C1212 1.414 1_455 S
C1211 C1214 1.499 . S
C1212 H1192 0.950 . S
C1212 C1211 1.414 1_655 S
C1212 C1213 1.374 . S
C1213 H1193 0.950 . S
C1213 C1209 1.385 1_655 S
C1213 C1212 1.374 . S
C1214 C1211 1.499 . S
C1214 C1215 1.373 1_455 S
C1214 C1216 1.389 . S
C1215 H1194 0.950 . S
C1215 C1214 1.373 1_655 S
C1215 C1231 1.377 . S
C1216 C1214 1.389 . S
C1216 C1217 1.524 . S
C1216 C1230 1.377 . S
C1217 C1216 1.524 . S
C1217 C1218 1.397 . S
C1217 C1222 1.363 . S
C1218 H1195 0.950 . S
C1218 C1217 1.397 . S
C1218 C1219 1.334 . S
C1219 H1196 0.950 . S
C1219 C1218 1.334 . S
C1219 C1220 1.287 . S
C1220 C1219 1.287 . S
C1220 C1221 1.524 . S
C1220 H1239 0.913 . S
C1221 H1197 0.950 . S
C1221 C1220 1.524 . S
C1221 C1222 1.415 . S
C1222 H1198 0.950 . S
C1222 C1217 1.363 . S
C1222 C1221 1.415 . S
C1223 H1199 0.951 . S
C1223 C1224 1.366 . S
C1223 C1225 1.388 . S
C1224 C1223 1.366 . S
C1224 C1228 1.385 1_655 S
C1225 H1200 0.951 . S
C1225 C1223 1.388 . S
C1225 C1226 1.366 . S
C1226 C1225 1.366 . S
C1226 C1227 1.414 1_655 S
C1226 C1229 1.474 1_655 S
C1227 H1201 0.950 . S
C1227 C1226 1.414 1_455 S
C1227 C1228 1.374 . S
C1228 H1202 0.950 . S
C1228 C1224 1.385 1_455 S
C1228 C1227 1.374 . S
C1229 C1226 1.474 1_455 S
C1229 C1230 1.408 . S
C1229 C1231 1.379 1_455 S
C1230 H1203 0.950 . S
C1230 C1216 1.377 . S
C1230 C1229 1.408 . S
C1231 C1215 1.377 . S
C1231 C1229 1.379 1_655 S
C1231 C1232 1.524 . S
C1232 C1231 1.524 . S
C1232 C1233 1.397 . S
C1232 C1237 1.363 . S
C1233 H1204 0.950 1_655 S
C1233 C1232 1.397 . S
C1233 C1234 1.334 . S
C1234 H1205 0.950 . S
C1234 C1233 1.334 . S
C1234 C1235 1.287 1_556 S
C1235 C1234 1.287 1_554 S
C1235 C1236 1.524 1_554 S
C1235 H1238 0.999 . S
C1236 H1206 0.950 1_556 S
C1236 C1235 1.524 1_556 S
C1236 C1237 1.415 . S
C1237 H1207 0.950 . S
C1237 C1232 1.363 . S
C1237 C1236 1.415 . S
H1238 C1235 0.999 . S
H1239 C1220 0.913 . S
H1240 C1258 0.951 . S
H1241 C1260 0.951 . S
H1242 C1262 0.950 . S
H1243 C1263 0.950 . S
H1244 C1265 0.950 1_554 S
H1245 C1268 0.950 . S
H1246 C1269 0.950 . S
H1247 C1271 0.950 . S
H1248 C1272 0.950 . S
H1249 C1273 0.951 . S
H1250 C1275 0.941 1_554 S
H1251 C1277 0.950 . S
H1252 C1278 0.950 . S
H1253 C1280 0.950 . S
H1254 C1283 0.969 . S
H1255 C1284 0.950 . S
H1256 C1286 0.950 . S
H1257 C1287 0.950 . S
C1258 H1240 0.951 . S
C1258 C1259 1.366 . S
C1258 C1260 1.388 . S
C1259 C1258 1.366 . S
C1259 C1263 1.385 . S
C1260 H1241 0.951 . S
C1260 C1258 1.388 . S
C1260 C1261 1.366 . S
C1261 C1260 1.366 . S
C1261 C1262 1.414 . S
C1261 C1264 1.499 . S
C1262 H1242 0.950 . S
C1262 C1261 1.414 . S
C1262 C1263 1.374 . S
C1263 H1243 0.950 . S
C1263 C1259 1.385 . S
C1263 C1262 1.374 . S
C1264 C1261 1.499 . S
C1264 C1265 1.373 . S
C1264 C1266 1.389 . S
C1265 H1244 0.950 1_556 S
C1265 C1264 1.373 . S
C1265 C1281 1.377 . S
C1266 C1264 1.389 . S
C1266 C1267 1.524 . S
C1266 C1280 1.377 . S
C1267 C1266 1.524 . S
C1267 C1268 1.397 . S
C1267 C1272 1.363 . S
C1268 H1245 0.950 . S
C1268 C1267 1.397 . S
C1268 C1269 1.334 . S
C1269 H1246 0.950 . S
C1269 C1268 1.334 . S
C1269 C1270 1.287 . S
C1270 C1269 1.287 . S
C1270 C1271 1.524 . S
C1270 H1289 0.913 . S
C1271 H1247 0.950 . S
C1271 C1270 1.524 . S
C1271 C1272 1.415 . S
C1272 H1248 0.950 . S
C1272 C1267 1.363 . S
C1272 C1271 1.415 . S
C1273 H1249 0.951 . S
C1273 C1274 1.366 1_554 S
C1273 C1275 1.382 1_554 S
C1274 C1273 1.366 1_556 S
C1274 C1278 1.385 . S
C1275 H1250 0.941 1_556 S
C1275 C1273 1.382 1_556 S
C1275 C1276 1.381 . S
C1276 C1275 1.381 . S
C1276 C1277 1.414 . S
C1276 C1279 1.499 . S
C1277 H1251 0.950 . S
C1277 C1276 1.414 . S
C1277 C1278 1.374 . S
C1278 H1252 0.950 . S
C1278 C1274 1.385 . S
C1278 C1277 1.374 . S
C1279 C1276 1.499 . S
C1279 C1280 1.373 . S
C1279 C1281 1.389 . S
C1280 H1253 0.950 . S
C1280 C1266 1.377 . S
C1280 C1279 1.373 . S
C1281 C1265 1.377 . S
C1281 C1279 1.389 . S
C1281 C1282 1.524 1_556 S
C1282 C1281 1.524 1_554 S
C1282 C1283 1.397 . S
C1282 C1287 1.363 . S
C1283 H1254 0.969 . S
C1283 C1282 1.397 . S
C1283 C1284 1.334 . S
C1284 H1255 0.950 . S
C1284 C1283 1.334 . S
C1284 C1285 1.287 . S
C1285 C1284 1.287 . S
C1285 C1286 1.524 . S
C1285 H1288 0.999 . S
C1286 H1256 0.950 . S
C1286 C1285 1.524 . S
C1286 C1287 1.415 . S
C1287 H1257 0.950 . S
C1287 C1282 1.363 . S
C1287 C1286 1.415 . S
H1288 C1285 0.999 . S
H1289 C1270 0.913 . S
H1290 C1308 0.951 . S
H1291 C1310 0.951 . S
H1292 C1312 0.950 . S
H1293 C1313 0.950 . S
H1294 C1315 0.950 . S
H1295 C1318 0.950 . S
H1296 C1319 0.950 . S
H1297 C1321 0.950 . S
H1298 C1322 0.950 . S
H1299 C1323 0.951 . S
H1300 C1325 0.951 . S
H1301 C1327 0.950 . S
H1302 C1328 0.950 . S
H1303 C1330 0.950 . S
H1304 C1333 0.950 . S
H1305 C1334 0.950 . S
H1306 C1336 0.950 . S
H1307 C1337 0.950 . S
C1308 H1290 0.951 . S
C1308 C1309 1.366 . S
C1308 C1310 1.388 . S
C1309 C1308 1.366 . S
C1309 C1313 1.385 . S
C1310 H1291 0.951 . S
C1310 C1308 1.388 . S
C1310 C1311 1.366 . S
C1311 C1310 1.366 . S
C1311 C1312 1.414 . S
C1311 C1314 1.499 . S
C1312 H1292 0.950 . S
C1312 C1311 1.414 . S
C1312 C1313 1.374 . S
C1313 H1293 0.950 . S
C1313 C1309 1.385 . S
C1313 C1312 1.374 . S
C1314 C1311 1.499 . S
C1314 C1315 1.373 . S
C1314 C1316 1.389 . S
C1315 H1294 0.950 . S
C1315 C1314 1.373 . S
C1315 C1331 1.377 . S
C1316 C1314 1.389 . S
C1316 C1317 1.524 . S
C1316 C1330 1.377 . S
C1317 C1316 1.524 . S
C1317 C1318 1.397 . S
C1317 C1322 1.363 . S
C1318 H1295 0.950 . S
C1318 C1317 1.397 . S
C1318 C1319 1.334 . S
C1319 H1296 0.950 . S
C1319 C1318 1.334 . S
C1319 C1320 1.287 . S
C1320 C1319 1.287 . S
C1320 C1321 1.524 . S
C1320 H1339 0.913 . S
C1321 H1297 0.950 . S
C1321 C1320 1.524 . S
C1321 C1322 1.415 . S
C1322 H1298 0.950 . S
C1322 C1317 1.363 . S
C1322 C1321 1.415 . S
C1323 H1299 0.951 . S
C1323 C1324 1.366 . S
C1323 C1325 1.388 . S
C1324 C1323 1.366 . S
C1324 C1328 1.385 . S
C1325 H1300 0.951 . S
C1325 C1323 1.388 . S
C1325 C1326 1.366 . S
C1326 C1325 1.366 . S
C1326 C1327 1.414 . S
C1326 C1329 1.499 . S
C1327 H1301 0.950 . S
C1327 C1326 1.414 . S
C1327 C1328 1.374 . S
C1328 H1302 0.950 . S
C1328 C1324 1.385 . S
C1328 C1327 1.374 . S
C1329 C1326 1.499 . S
C1329 C1330 1.373 . S
C1329 C1331 1.389 . S
C1330 H1303 0.950 . S
C1330 C1316 1.377 . S
C1330 C1329 1.373 . S
C1331 C1315 1.377 . S
C1331 C1329 1.389 . S
C1331 C1332 1.524 . S
C1332 C1331 1.524 . S
C1332 C1333 1.397 . S
C1332 C1337 1.363 . S
C1333 H1304 0.950 . S
C1333 C1332 1.397 . S
C1333 C1334 1.334 . S
C1334 H1305 0.950 . S
C1334 C1333 1.334 . S
C1334 C1335 1.287 . S
C1335 C1334 1.287 . S
C1335 C1336 1.524 . S
C1335 H1338 0.999 . S
C1336 H1306 0.950 . S
C1336 C1335 1.524 . S
C1336 C1337 1.415 . S
C1337 H1307 0.950 . S
C1337 C1332 1.363 . S
C1337 C1336 1.415 . S
H1338 C1335 0.999 . S
H1339 C1320 0.913 . S
H1340 C1358 0.951 . S
H1341 C1360 0.951 . S
H1342 C1362 0.950 . S
H1343 C1363 0.950 . S
H1344 C1365 0.950 . S
H1345 C1368 0.950 . S
H1346 C1369 0.950 . S
H1347 C1371 0.950 . S
H1348 C1372 0.950 . S
H1349 C1373 0.951 . S
H1350 C1375 0.951 . S
H1351 C1377 0.950 . S
H1352 C1378 0.950 . S
H1353 C1380 0.950 . S
H1354 C1383 0.950 . S
H1355 C1384 0.950 . S
H1356 C1386 0.950 . S
H1357 C1387 0.950 . S
C1358 H1340 0.951 . S
C1358 C1359 1.366 . S
C1358 C1360 1.388 . S
C1359 C1358 1.366 . S
C1359 C1363 1.385 . S
C1360 H1341 0.951 . S
C1360 C1358 1.388 . S
C1360 C1361 1.366 . S
C1361 C1360 1.366 . S
C1361 C1362 1.414 . S
C1361 C1364 1.499 . S
C1362 H1342 0.950 . S
C1362 C1361 1.414 . S
C1362 C1363 1.374 . S
C1363 H1343 0.950 . S
C1363 C1359 1.385 . S
C1363 C1362 1.374 . S
C1364 C1361 1.499 . S
C1364 C1365 1.373 . S
C1364 C1366 1.389 . S
C1365 H1344 0.950 . S
C1365 C1364 1.373 . S
C1365 C1381 1.377 . S
C1366 C1364 1.389 . S
C1366 C1367 1.524 . S
C1366 C1380 1.377 . S
C1367 C1366 1.524 . S
C1367 C1368 1.397 . S
C1367 C1372 1.363 . S
C1368 H1345 0.950 . S
C1368 C1367 1.397 . S
C1368 C1369 1.334 . S
C1369 H1346 0.950 . S
C1369 C1368 1.334 . S
C1369 C1370 1.287 . S
C1370 C1369 1.287 . S
C1370 C1371 1.524 . S
C1370 H1389 0.913 . S
C1371 H1347 0.950 . S
C1371 C1370 1.524 . S
C1371 C1372 1.415 . S
C1372 H1348 0.950 . S
C1372 C1367 1.363 . S
C1372 C1371 1.415 . S
C1373 H1349 0.951 . S
C1373 C1374 1.366 . S
C1373 C1375 1.388 . S
C1374 C1373 1.366 . S
C1374 C1378 1.385 . S
C1375 H1350 0.951 . S
C1375 C1373 1.388 . S
C1375 C1376 1.366 . S
C1376 C1375 1.366 . S
C1376 C1377 1.414 . S
C1376 C1379 1.499 . S
C1377 H1351 0.950 . S
C1377 C1376 1.414 . S
C1377 C1378 1.374 . S
C1378 H1352 0.950 . S
C1378 C1374 1.385 . S
C1378 C1377 1.374 . S
C1379 C1376 1.499 . S
C1379 C1380 1.373 . S
C1379 C1381 1.389 . S
C1380 H1353 0.950 . S
C1380 C1366 1.377 . S
C1380 C1379 1.373 . S
C1381 C1365 1.377 . S
C1381 C1379 1.389 . S
C1381 C1382 1.524 . S
C1382 C1381 1.524 . S
C1382 C1383 1.397 . S
C1382 C1387 1.363 . S
C1383 H1354 0.950 . S
C1383 C1382 1.397 . S
C1383 C1384 1.334 . S
C1384 H1355 0.950 . S
C1384 C1383 1.334 . S
C1384 C1385 1.287 . S
C1385 C1384 1.287 . S
C1385 C1386 1.524 . S
C1385 H1388 0.999 . S
C1386 H1356 0.950 . S
C1386 C1385 1.524 . S
C1386 C1387 1.415 . S
C1387 H1357 0.950 . S
C1387 C1382 1.363 . S
C1387 C1386 1.415 . S
H1388 C1385 0.999 . S
H1389 C1370 0.913 . S
H1390 C1408 0.951 . S
H1391 C1410 0.951 . S
H1392 C1412 0.950 . S
H1393 C1413 0.950 . S
H1394 C1415 0.950 . S
H1395 C1418 0.950 . S
H1396 C1419 0.950 . S
H1397 C1421 0.950 . S
H1398 C1422 0.950 . S
H1399 C1423 0.951 . S
H1400 C1425 0.951 . S
H1401 C1427 0.950 . S
H1402 C1428 0.950 . S
H1403 C1430 0.950 . S
H1404 C1433 0.950 . S
H1405 C1434 0.950 . S
H1406 C1436 0.950 . S
H1407 C1437 0.950 . S
C1408 H1390 0.951 . S
C1408 C1409 1.366 . S
C1408 C1410 1.388 . S
C1409 C1408 1.366 . S
C1409 C1413 1.385 . S
C1410 H1391 0.951 . S
C1410 C1408 1.388 . S
C1410 C1411 1.366 . S
C1411 C1410 1.366 . S
C1411 C1412 1.414 . S
C1411 C1414 1.499 . S
C1412 H1392 0.950 . S
C1412 C1411 1.414 . S
C1412 C1413 1.374 . S
C1413 H1393 0.950 . S
C1413 C1409 1.385 . S
C1413 C1412 1.374 . S
C1414 C1411 1.499 . S
C1414 C1415 1.373 . S
C1414 C1416 1.389 . S
C1415 H1394 0.950 . S
C1415 C1414 1.373 . S
C1415 C1431 1.377 . S
C1416 C1414 1.389 . S
C1416 C1417 1.524 . S
C1416 C1430 1.377 . S
C1417 C1416 1.524 . S
C1417 C1418 1.397 . S
C1417 C1422 1.363 . S
C1418 H1395 0.950 . S
C1418 C1417 1.397 . S
C1418 C1419 1.334 . S
C1419 H1396 0.950 . S
C1419 C1418 1.334 . S
C1419 C1420 1.287 . S
C1420 C1419 1.287 . S
C1420 C1421 1.524 . S
C1420 H1439 0.913 . S
C1421 H1397 0.950 . S
C1421 C1420 1.524 . S
C1421 C1422 1.415 . S
C1422 H1398 0.950 . S
C1422 C1417 1.363 . S
C1422 C1421 1.415 . S
C1423 H1399 0.951 . S
C1423 C1424 1.366 . S
C1423 C1425 1.388 . S
C1424 C1423 1.366 . S
C1424 C1428 1.385 . S
C1425 H1400 0.951 . S
C1425 C1423 1.388 . S
C1425 C1426 1.366 . S
C1426 C1425 1.366 . S
C1426 C1427 1.414 . S
C1426 C1429 1.499 . S
C1427 H1401 0.950 . S
C1427 C1426 1.414 . S
C1427 C1428 1.374 . S
C1428 H1402 0.950 . S
C1428 C1424 1.385 . S
C1428 C1427 1.374 . S
C1429 C1426 1.499 . S
C1429 C1430 1.373 . S
C1429 C1431 1.389 . S
C1430 H1403 0.950 . S
C1430 C1416 1.377 . S
C1430 C1429 1.373 . S
C1431 C1415 1.377 . S
C1431 C1429 1.389 . S
C1431 C1432 1.524 . S
C1432 C1431 1.524 . S
C1432 C1433 1.397 . S
C1432 C1437 1.363 . S
C1433 H1404 0.950 . S
C1433 C1432 1.397 . S
C1433 C1434 1.334 . S
C1434 H1405 0.950 . S
C1434 C1433 1.334 . S
C1434 C1435 1.287 . S
C1435 C1434 1.287 . S
C1435 C1436 1.524 . S
C1435 H1438 0.999 . S
C1436 H1406 0.950 . S
C1436 C1435 1.524 . S
C1436 C1437 1.415 . S
C1437 H1407 0.950 . S
C1437 C1432 1.363 . S
C1437 C1436 1.415 . S
H1438 C1435 0.999 . S
H1439 C1420 0.913 . S
H1440 C1458 0.951 . S
H1441 C1460 0.951 . S
H1442 C1462 0.950 . S
H1443 C1463 0.950 . S
H1444 C1465 0.950 . S
H1445 C1468 0.950 . S
H1446 C1469 0.950 . S
H1447 C1471 0.950 . S
H1448 C1472 0.950 . S
H1449 C1473 0.951 . S
H1450 C1475 0.951 . S
H1451 C1477 0.950 . S
H1452 C1478 0.950 . S
H1453 C1480 0.950 . S
H1454 C1483 0.950 . S
H1455 C1484 0.950 . S
H1456 C1486 0.950 . S
H1457 C1487 0.950 . S
C1458 H1440 0.951 . S
C1458 C1459 1.366 . S
C1458 C1460 1.388 . S
C1459 C1458 1.366 . S
C1459 C1463 1.385 . S
C1460 H1441 0.951 . S
C1460 C1458 1.388 . S
C1460 C1461 1.366 . S
C1461 C1460 1.366 . S
C1461 C1462 1.414 . S
C1461 C1464 1.499 . S
C1462 H1442 0.950 . S
C1462 C1461 1.414 . S
C1462 C1463 1.374 . S
C1463 H1443 0.950 . S
C1463 C1459 1.385 . S
C1463 C1462 1.374 . S
C1464 C1461 1.499 . S
C1464 C1465 1.373 . S
C1464 C1466 1.389 . S
C1465 H1444 0.950 . S
C1465 C1464 1.373 . S
C1465 C1481 1.377 . S
C1466 C1464 1.389 . S
C1466 C1467 1.524 . S
C1466 C1480 1.377 . S
C1467 C1466 1.524 . S
C1467 C1468 1.397 . S
C1467 C1472 1.363 . S
C1468 H1445 0.950 . S
C1468 C1467 1.397 . S
C1468 C1469 1.334 . S
C1469 H1446 0.950 . S
C1469 C1468 1.334 . S
C1469 C1470 1.287 . S
C1470 C1469 1.287 . S
C1470 C1471 1.524 . S
C1470 H1489 0.913 . S
C1471 H1447 0.950 . S
C1471 C1470 1.524 . S
C1471 C1472 1.415 . S
C1472 H1448 0.950 . S
C1472 C1467 1.363 . S
C1472 C1471 1.415 . S
C1473 H1449 0.951 . S
C1473 C1474 1.366 . S
C1473 C1475 1.388 . S
C1474 C1473 1.366 . S
C1474 C1478 1.385 . S
C1475 H1450 0.951 . S
C1475 C1473 1.388 . S
C1475 C1476 1.366 . S
C1476 C1475 1.366 . S
C1476 C1477 1.414 . S
C1476 C1479 1.499 . S
C1477 H1451 0.950 . S
C1477 C1476 1.414 . S
C1477 C1478 1.374 . S
C1478 H1452 0.950 . S
C1478 C1474 1.385 . S
C1478 C1477 1.374 . S
C1479 C1476 1.499 . S
C1479 C1480 1.373 . S
C1479 C1481 1.389 . S
C1480 H1453 0.950 . S
C1480 C1466 1.377 . S
C1480 C1479 1.373 . S
C1481 C1465 1.377 . S
C1481 C1479 1.389 . S
C1481 C1482 1.524 . S
C1482 C1481 1.524 . S
C1482 C1483 1.397 . S
C1482 C1487 1.363 . S
C1483 H1454 0.950 . S
C1483 C1482 1.397 . S
C1483 C1484 1.334 . S
C1484 H1455 0.950 . S
C1484 C1483 1.334 . S
C1484 C1485 1.287 . S
C1485 C1484 1.287 . S
C1485 C1486 1.524 . S
C1485 H1488 0.999 . S
C1486 H1456 0.950 . S
C1486 C1485 1.524 . S
C1486 C1487 1.415 . S
C1487 H1457 0.950 . S
C1487 C1482 1.363 . S
C1487 C1486 1.415 . S
H1488 C1485 0.999 . S
H1489 C1470 0.913 . S
H1490 C1508 0.951 . S
H1491 C1510 0.951 . S
H1492 C1512 0.950 . S
H1493 C1513 0.950 . S
H1494 C1515 0.950 . S
H1495 C1518 0.950 . S
H1496 C1519 0.950 . S
H1497 C1521 0.950 . S
H1498 C1522 0.950 . S
H1499 C1523 0.951 . S
H1500 C1525 0.951 . S
H1501 C1527 0.950 . S
H1502 C1528 0.950 . S
H1503 C1530 0.950 . S
H1504 C1533 0.950 . S
H1505 C1534 0.950 . S
H1506 C1536 0.950 . S
H1507 C1537 0.950 . S
C1508 H1490 0.951 . S
C1508 C1509 1.366 . S
C1508 C1510 1.388 . S
C1509 C1508 1.366 . S
C1509 C1513 1.385 . S
C1510 H1491 0.951 . S
C1510 C1508 1.388 . S
C1510 C1511 1.366 . S
C1511 C1510 1.366 . S
C1511 C1512 1.414 . S
C1511 C1514 1.499 . S
C1512 H1492 0.950 . S
C1512 C1511 1.414 . S
C1512 C1513 1.374 . S
C1513 H1493 0.950 . S
C1513 C1509 1.385 . S
C1513 C1512 1.374 . S
C1514 C1511 1.499 . S
C1514 C1515 1.373 . S
C1514 C1516 1.389 . S
C1515 H1494 0.950 . S
C1515 C1514 1.373 . S
C1515 C1531 1.377 . S
C1516 C1514 1.389 . S
C1516 C1517 1.524 . S
C1516 C1530 1.377 . S
C1517 C1516 1.524 . S
C1517 C1518 1.397 . S
C1517 C1522 1.363 . S
C1518 H1495 0.950 . S
C1518 C1517 1.397 . S
C1518 C1519 1.334 . S
C1519 H1496 0.950 . S
C1519 C1518 1.334 . S
C1519 C1520 1.287 . S
C1520 C1519 1.287 . S
C1520 C1521 1.524 . S
C1520 H1539 0.913 . S
C1521 H1497 0.950 . S
C1521 C1520 1.524 . S
C1521 C1522 1.415 . S
C1522 H1498 0.950 . S
C1522 C1517 1.363 . S
C1522 C1521 1.415 . S
C1523 H1499 0.951 . S
C1523 C1524 1.366 . S
C1523 C1525 1.388 . S
C1524 C1523 1.366 . S
C1524 C1528 1.385 . S
C1525 H1500 0.951 . S
C1525 C1523 1.388 . S
C1525 C1526 1.366 . S
C1526 C1525 1.366 . S
C1526 C1527 1.414 . S
C1526 C1529 1.499 . S
C1527 H1501 0.950 . S
C1527 C1526 1.414 . S
C1527 C1528 1.374 . S
C1528 H1502 0.950 . S
C1528 C1524 1.385 . S
C1528 C1527 1.374 . S
C1529 C1526 1.499 . S
C1529 C1530 1.373 . S
C1529 C1531 1.389 . S
C1530 H1503 0.950 . S
C1530 C1516 1.377 . S
C1530 C1529 1.373 . S
C1531 C1515 1.377 . S
C1531 C1529 1.389 . S
C1531 C1532 1.524 . S
C1532 C1531 1.524 . S
C1532 C1533 1.397 . S
C1532 C1537 1.363 . S
C1533 H1504 0.950 . S
C1533 C1532 1.397 . S
C1533 C1534 1.334 . S
C1534 H1505 0.950 . S
C1534 C1533 1.334 . S
C1534 C1535 1.287 . S
C1535 C1534 1.287 . S
C1535 C1536 1.524 . S
C1535 H1538 0.999 . S
C1536 H1506 0.950 . S
C1536 C1535 1.524 . S
C1536 C1537 1.415 . S
C1537 H1507 0.950 . S
C1537 C1532 1.363 . S
C1537 C1536 1.415 . S
H1538 C1535 0.999 . S
H1539 C1520 0.913 . S
H1540 C1558 0.951 . S
H1541 C1560 0.951 . S
H1542 C1562 0.950 . S
H1543 C1563 0.950 . S
H1544 C1565 0.950 . S
H1545 C1568 0.950 . S
H1546 C1569 0.950 . S
H1547 C1571 0.950 . S
H1548 C1572 0.950 . S
H1549 C1573 0.951 . S
H1550 C1575 0.951 . S
H1551 C1577 0.950 . S
H1552 C1578 0.950 . S
H1553 C1580 0.950 . S
H1554 C1583 0.950 . S
H1555 C1584 0.950 . S
H1556 C1586 0.950 . S
H1557 C1587 0.950 . S
C1558 H1540 0.951 . S
C1558 C1559 1.366 . S
C1558 C1560 1.388 . S
C1559 C1558 1.366 . S
C1559 C1563 1.385 . S
C1560 H1541 0.951 . S
C1560 C1558 1.388 . S
C1560 C1561 1.366 . S
C1561 C1560 1.366 . S
C1561 C1562 1.414 . S
C1561 C1564 1.499 . S
C1562 H1542 0.950 . S
C1562 C1561 1.414 . S
C1562 C1563 1.374 . S
C1563 H1543 0.950 . S
C1563 C1559 1.385 . S
C1563 C1562 1.374 . S
C1564 C1561 1.499 . S
C1564 C1565 1.373 . S
C1564 C1566 1.389 . S
C1565 H1544 0.950 . S
C1565 C1564 1.373 . S
C1565 C1581 1.377 . S
C1566 C1564 1.389 . S
C1566 C1567 1.524 . S
C1566 C1580 1.377 . S
C1567 C1566 1.524 . S
C1567 C1568 1.397 . S
C1567 C1572 1.363 . S
C1568 H1545 0.950 . S
C1568 C1567 1.397 . S
C1568 C1569 1.334 . S
C1569 H1546 0.950 . S
C1569 C1568 1.334 . S
C1569 C1570 1.287 . S
C1570 C1569 1.287 . S
C1570 C1571 1.524 . S
C1570 H1589 0.913 . S
C1571 H1547 0.950 . S
C1571 C1570 1.524 . S
C1571 C1572 1.415 . S
C1572 H1548 0.950 . S
C1572 C1567 1.363 . S
C1572 C1571 1.415 . S
C1573 H1549 0.951 . S
C1573 C1574 1.366 . S
C1573 C1575 1.388 . S
C1574 C1573 1.366 . S
C1574 C1578 1.385 . S
C1575 H1550 0.951 . S
C1575 C1573 1.388 . S
C1575 C1576 1.366 . S
C1576 C1575 1.366 . S
C1576 C1577 1.414 . S
C1576 C1579 1.499 . S
C1577 H1551 0.950 . S
C1577 C1576 1.414 . S
C1577 C1578 1.374 . S
C1578 H1552 0.950 . S
C1578 C1574 1.385 . S
C1578 C1577 1.374 . S
C1579 C1576 1.499 . S
C1579 C1580 1.373 . S
C1579 C1581 1.389 . S
C1580 H1553 0.950 . S
C1580 C1566 1.377 . S
C1580 C1579 1.373 . S
C1581 C1565 1.377 . S
C1581 C1579 1.389 . S
C1581 C1582 1.524 . S
C1582 C1581 1.524 . S
C1582 C1583 1.397 . S
C1582 C1587 1.363 . S
C1583 H1554 0.950 . S
C1583 C1582 1.397 . S
C1583 C1584 1.334 . S
C1584 H1555 0.950 . S
C1584 C1583 1.334 . S
C1584 C1585 1.287 . S
C1585 C1584 1.287 . S
C1585 C1586 1.524 . S
C1585 H1588 0.999 . S
C1586 H1556 0.950 . S
C1586 C1585 1.524 . S
C1586 C1587 1.415 . S
C1587 H1557 0.950 . S
C1587 C1582 1.363 . S
C1587 C1586 1.415 . S
H1588 C1585 0.999 . S
H1589 C1570 0.913 . S
H1590 C1608 0.951 . S
H1591 C1610 0.951 . S
H1592 C1612 0.950 . S
H1593 C1613 0.950 . S
H1594 C1615 0.950 . S
H1595 C1618 0.950 . S
H1596 C1619 0.950 . S
H1597 C1621 0.950 . S
H1598 C1622 0.950 . S
H1599 C1623 0.951 . S
H1600 C1625 0.951 . S
H1601 C1627 0.950 . S
H1602 C1628 0.950 . S
H1603 C1630 0.950 . S
H1604 C1633 0.950 . S
H1605 C1634 0.950 . S
H1606 C1636 0.950 . S
H1607 C1637 0.950 . S
C1608 H1590 0.951 . S
C1608 C1609 1.366 . S
C1608 C1610 1.388 . S
C1609 C1608 1.366 . S
C1609 C1613 1.385 . S
C1610 H1591 0.951 . S
C1610 C1608 1.388 . S
C1610 C1611 1.366 . S
C1611 C1610 1.366 . S
C1611 C1612 1.414 . S
C1611 C1614 1.499 . S
C1612 H1592 0.950 . S
C1612 C1611 1.414 . S
C1612 C1613 1.374 . S
C1613 H1593 0.950 . S
C1613 C1609 1.385 . S
C1613 C1612 1.374 . S
C1614 C1611 1.499 . S
C1614 C1615 1.373 . S
C1614 C1616 1.389 . S
C1615 H1594 0.950 . S
C1615 C1614 1.373 . S
C1615 C1631 1.377 . S
C1616 C1614 1.389 . S
C1616 C1617 1.524 . S
C1616 C1630 1.377 . S
C1617 C1616 1.524 . S
C1617 C1618 1.397 . S
C1617 C1622 1.363 . S
C1618 H1595 0.950 . S
C1618 C1617 1.397 . S
C1618 C1619 1.334 . S
C1619 H1596 0.950 . S
C1619 C1618 1.334 . S
C1619 C1620 1.287 . S
C1620 C1619 1.287 . S
C1620 C1621 1.524 . S
C1620 H1639 0.913 . S
C1621 H1597 0.950 . S
C1621 C1620 1.524 . S
C1621 C1622 1.415 . S
C1622 H1598 0.950 . S
C1622 C1617 1.363 . S
C1622 C1621 1.415 . S
C1623 H1599 0.951 . S
C1623 C1624 1.366 . S
C1623 C1625 1.388 . S
C1624 C1623 1.366 . S
C1624 C1628 1.385 . S
C1625 H1600 0.951 . S
C1625 C1623 1.388 . S
C1625 C1626 1.366 . S
C1626 C1625 1.366 . S
C1626 C1627 1.414 . S
C1626 C1629 1.499 . S
C1627 H1601 0.950 . S
C1627 C1626 1.414 . S
C1627 C1628 1.374 . S
C1628 H1602 0.950 . S
C1628 C1624 1.385 . S
C1628 C1627 1.374 . S
C1629 C1626 1.499 . S
C1629 C1630 1.373 . S
C1629 C1631 1.389 . S
C1630 H1603 0.950 . S
C1630 C1616 1.377 . S
C1630 C1629 1.373 . S
C1631 C1615 1.377 . S
C1631 C1629 1.389 . S
C1631 C1632 1.524 . S
C1632 C1631 1.524 . S
C1632 C1633 1.397 . S
C1632 C1637 1.363 . S
C1633 H1604 0.950 . S
C1633 C1632 1.397 . S
C1633 C1634 1.334 . S
C1634 H1605 0.950 . S
C1634 C1633 1.334 . S
C1634 C1635 1.287 . S
C1635 C1634 1.287 . S
C1635 C1636 1.524 . S
C1635 H1638 0.999 . S
C1636 H1606 0.950 . S
C1636 C1635 1.524 . S
C1636 C1637 1.415 . S
C1637 H1607 0.950 . S
C1637 C1632 1.363 . S
C1637 C1636 1.415 . S
H1638 C1635 0.999 . S
H1639 C1620 0.913 . S
H1640 C1658 0.951 . S
H1641 C1660 0.951 . S
H1642 C1662 0.950 . S
H1643 C1663 0.950 . S
H1644 C1665 0.950 . S
H1645 C1668 0.950 . S
H1646 C1669 0.950 . S
H1647 C1671 0.950 . S
H1648 C1672 0.950 . S
H1649 C1673 0.951 . S
H1650 C1675 0.951 . S
H1651 C1677 0.950 . S
H1652 C1678 0.950 . S
H1653 C1680 0.950 . S
H1654 C1683 0.950 . S
H1655 C1684 0.950 . S
H1656 C1686 0.950 . S
H1657 C1687 0.950 . S
C1658 H1640 0.951 . S
C1658 C1659 1.366 . S
C1658 C1660 1.388 . S
C1659 C1658 1.366 . S
C1659 C1663 1.385 . S
C1660 H1641 0.951 . S
C1660 C1658 1.388 . S
C1660 C1661 1.366 . S
C1661 C1660 1.366 . S
C1661 C1662 1.414 . S
C1661 C1664 1.499 . S
C1662 H1642 0.950 . S
C1662 C1661 1.414 . S
C1662 C1663 1.374 . S
C1663 H1643 0.950 . S
C1663 C1659 1.385 . S
C1663 C1662 1.374 . S
C1664 C1661 1.499 . S
C1664 C1665 1.373 . S
C1664 C1666 1.389 . S
C1665 H1644 0.950 . S
C1665 C1664 1.373 . S
C1665 C1681 1.377 . S
C1666 C1664 1.389 . S
C1666 C1667 1.524 . S
C1666 C1680 1.377 . S
C1667 C1666 1.524 . S
C1667 C1668 1.397 . S
C1667 C1672 1.363 . S
C1668 H1645 0.950 . S
C1668 C1667 1.397 . S
C1668 C1669 1.334 . S
C1669 H1646 0.950 . S
C1669 C1668 1.334 . S
C1669 C1670 1.287 . S
C1670 C1669 1.287 . S
C1670 C1671 1.524 . S
C1670 H1689 0.913 . S
C1671 H1647 0.950 . S
C1671 C1670 1.524 . S
C1671 C1672 1.415 . S
C1672 H1648 0.950 . S
C1672 C1667 1.363 . S
C1672 C1671 1.415 . S
C1673 H1649 0.951 . S
C1673 C1674 1.366 . S
C1673 C1675 1.388 . S
C1674 C1673 1.366 . S
C1674 C1678 1.385 . S
C1675 H1650 0.951 . S
C1675 C1673 1.388 . S
C1675 C1676 1.366 . S
C1676 C1675 1.366 . S
C1676 C1677 1.414 . S
C1676 C1679 1.499 . S
C1677 H1651 0.950 . S
C1677 C1676 1.414 . S
C1677 C1678 1.374 . S
C1678 H1652 0.950 . S
C1678 C1674 1.385 . S
C1678 C1677 1.374 . S
C1679 C1676 1.499 . S
C1679 C1680 1.373 . S
C1679 C1681 1.389 . S
C1680 H1653 0.950 . S
C1680 C1666 1.377 . S
C1680 C1679 1.373 . S
C1681 C1665 1.377 . S
C1681 C1679 1.389 . S
C1681 C1682 1.524 . S
C1682 C1681 1.524 . S
C1682 C1683 1.397 . S
C1682 C1687 1.363 . S
C1683 H1654 0.950 . S
C1683 C1682 1.397 . S
C1683 C1684 1.334 . S
C1684 H1655 0.950 . S
C1684 C1683 1.334 . S
C1684 C1685 1.287 . S
C1685 C1684 1.287 . S
C1685 C1686 1.524 . S
C1685 H1688 0.999 . S
C1686 H1656 0.950 . S
C1686 C1685 1.524 . S
C1686 C1687 1.415 . S
C1687 H1657 0.950 . S
C1687 C1682 1.363 . S
C1687 C1686 1.415 . S
H1688 C1685 0.999 . S
H1689 C1670 0.913 . S
H1690 C1708 0.951 . S
H1691 C1710 0.951 . S
H1692 C1712 0.950 . S
H1693 C1713 0.950 . S
H1694 C1715 0.950 . S
H1695 C1718 0.950 . S
H1696 C1719 0.950 . S
H1697 C1721 0.950 . S
H1698 C1722 0.950 . S
H1699 C1723 0.951 . S
H1700 C1725 0.951 . S
H1701 C1727 0.950 . S
H1702 C1728 0.946 1_455 S
H1703 C1730 0.950 . S
H1704 C1733 0.950 . S
H1705 C1734 0.950 . S
H1706 C1736 0.950 . S
H1707 C1737 0.950 . S
C1708 H1690 0.951 . S
C1708 C1709 1.366 . S
C1708 C1710 1.388 . S
C1709 C1708 1.366 . S
C1709 C1713 1.385 1_455 S
C1710 H1691 0.951 . S
C1710 C1708 1.388 . S
C1710 C1711 1.366 . S
C1711 C1710 1.366 . S
C1711 C1712 1.414 1_455 S
C1711 C1714 1.499 . S
C1712 H1692 0.950 . S
C1712 C1711 1.414 1_655 S
C1712 C1713 1.374 . S
C1713 H1693 0.950 . S
C1713 C1709 1.385 1_655 S
C1713 C1712 1.374 . S
C1714 C1711 1.499 . S
C1714 C1715 1.373 1_455 S
C1714 C1716 1.389 . S
C1715 H1694 0.950 . S
C1715 C1714 1.373 1_655 S
C1715 C1731 1.377 . S
C1716 C1714 1.389 . S
C1716 C1717 1.524 . S
C1716 C1730 1.377 . S
C1717 C1716 1.524 . S
C1717 C1718 1.397 . S
C1717 C1722 1.363 . S
C1718 H1695 0.950 . S
C1718 C1717 1.397 . S
C1718 C1719 1.334 . S
C1719 H1696 0.950 . S
C1719 C1718 1.334 . S
C1719 C1720 1.287 . S
C1720 C1719 1.287 . S
C1720 C1721 1.524 . S
C1720 H1739 0.913 . S
C1721 H1697 0.950 . S
C1721 C1720 1.524 . S
C1721 C1722 1.415 . S
C1722 H1698 0.950 . S
C1722 C1717 1.363 . S
C1722 C1721 1.415 . S
C1723 H1699 0.951 . S
C1723 C1724 1.366 . S
C1723 C1725 1.388 . S
C1724 C1723 1.366 . S
C1724 C1728 1.397 . S
C1725 H1700 0.951 . S
C1725 C1723 1.388 . S
C1725 C1726 1.366 . S
C1726 C1725 1.366 . S
C1726 C1727 1.414 1_655 S
C1726 C1729 1.499 . S
C1727 H1701 0.950 . S
C1727 C1726 1.414 1_455 S
C1727 C1728 1.366 1_455 S
C1728 H1702 0.946 1_655 S
C1728 C1724 1.397 . S
C1728 C1727 1.366 1_655 S
C1729 C1726 1.499 . S
C1729 C1730 1.373 1_655 S
C1729 C1731 1.389 . S
C1730 H1703 0.950 . S
C1730 C1716 1.377 . S
C1730 C1729 1.373 1_455 S
C1731 C1715 1.377 . S
C1731 C1729 1.389 . S
C1731 C1732 1.524 . S
C1732 C1731 1.524 . S
C1732 C1733 1.397 . S
C1732 C1737 1.363 . S
C1733 H1704 0.950 . S
C1733 C1732 1.397 . S
C1733 C1734 1.334 . S
C1734 H1705 0.950 . S
C1734 C1733 1.334 . S
C1734 C1735 1.287 . S
C1735 C1734 1.287 . S
C1735 C1736 1.524 . S
C1735 H1738 0.999 . S
C1736 H1706 0.950 . S
C1736 C1735 1.524 . S
C1736 C1737 1.415 . S
C1737 H1707 0.950 . S
C1737 C1732 1.363 . S
C1737 C1736 1.415 . S
H1738 C1735 0.999 . S
H1739 C1720 0.913 . S
H1740 C1758 0.951 . S
H1741 C1760 0.951 . S
H1742 C1762 0.950 . S
H1743 C1763 0.950 . S
H1744 C1765 0.950 . S
H1745 C1768 0.950 . S
H1746 C1769 0.950 . S
H1747 C1771 0.950 . S
H1748 C1772 0.950 . S
H1749 C1773 0.951 . S
H1750 C1775 0.951 . S
H1751 C1777 0.950 . S
H1752 C1778 0.950 . S
H1753 C1780 0.950 . S
H1754 C1783 0.950 . S
H1755 C1784 0.950 . S
H1756 C1786 0.950 . S
H1757 C1787 0.950 . S
C1758 H1740 0.951 . S
C1758 C1759 1.366 . S
C1758 C1760 1.388 . S
C1759 C1758 1.366 . S
C1759 C1763 1.385 . S
C1760 H1741 0.951 . S
C1760 C1758 1.388 . S
C1760 C1761 1.366 . S
C1761 C1760 1.366 . S
C1761 C1762 1.414 . S
C1761 C1764 1.499 . S
C1762 H1742 0.950 . S
C1762 C1761 1.414 . S
C1762 C1763 1.374 . S
C1763 H1743 0.950 . S
C1763 C1759 1.385 . S
C1763 C1762 1.374 . S
C1764 C1761 1.499 . S
C1764 C1765 1.373 . S
C1764 C1766 1.389 . S
C1765 H1744 0.950 . S
C1765 C1764 1.373 . S
C1765 C1781 1.377 . S
C1766 C1764 1.389 . S
C1766 C1767 1.524 . S
C1766 C1780 1.377 . S
C1767 C1766 1.524 . S
C1767 C1768 1.397 . S
C1767 C1772 1.363 . S
C1768 H1745 0.950 . S
C1768 C1767 1.397 . S
C1768 C1769 1.334 . S
C1769 H1746 0.950 . S
C1769 C1768 1.334 . S
C1769 C1770 1.287 . S
C1770 C1769 1.287 . S
C1770 C1771 1.524 . S
C1770 H1789 0.913 . S
C1771 H1747 0.950 . S
C1771 C1770 1.524 . S
C1771 C1772 1.415 . S
C1772 H1748 0.950 . S
C1772 C1767 1.363 . S
C1772 C1771 1.415 . S
C1773 H1749 0.951 . S
C1773 C1774 1.366 . S
C1773 C1775 1.388 . S
C1774 C1773 1.366 . S
C1774 C1778 1.385 . S
C1775 H1750 0.951 . S
C1775 C1773 1.388 . S
C1775 C1776 1.366 . S
C1776 C1775 1.366 . S
C1776 C1777 1.414 . S
C1776 C1779 1.499 . S
C1777 H1751 0.950 . S
C1777 C1776 1.414 . S
C1777 C1778 1.374 . S
C1778 H1752 0.950 . S
C1778 C1774 1.385 . S
C1778 C1777 1.374 . S
C1779 C1776 1.499 . S
C1779 C1780 1.373 . S
C1779 C1781 1.389 . S
C1780 H1753 0.950 . S
C1780 C1766 1.377 . S
C1780 C1779 1.373 . S
C1781 C1765 1.377 . S
C1781 C1779 1.389 . S
C1781 C1782 1.524 . S
C1782 C1781 1.524 . S
C1782 C1783 1.397 . S
C1782 C1787 1.363 . S
C1783 H1754 0.950 . S
C1783 C1782 1.397 . S
C1783 C1784 1.334 . S
C1784 H1755 0.950 . S
C1784 C1783 1.334 . S
C1784 C1785 1.287 . S
C1785 C1784 1.287 . S
C1785 C1786 1.524 . S
C1785 H1788 0.999 . S
C1786 H1756 0.950 . S
C1786 C1785 1.524 . S
C1786 C1787 1.415 . S
C1787 H1757 0.950 . S
C1787 C1782 1.363 . S
C1787 C1786 1.415 . S
H1788 C1785 0.999 . S
H1789 C1770 0.913 . S
H1790 C1808 0.951 . S
H1791 C1810 0.951 . S
H1792 C1812 0.950 . S
H1793 C1813 0.950 . S
H1794 C1815 0.950 . S
H1795 C1818 0.950 . S
H1796 C1819 0.950 . S
H1797 C1821 0.950 . S
H1798 C1822 0.950 . S
H1799 C1823 0.951 . S
H1800 C1825 0.951 . S
H1801 C1827 0.950 . S
H1802 C1828 0.950 . S
H1803 C1830 0.950 . S
H1804 C1833 0.950 . S
H1805 C1834 0.950 . S
H1806 C1836 0.950 . S
H1807 C1837 0.950 . S
C1808 H1790 0.951 . S
C1808 C1809 1.366 . S
C1808 C1810 1.388 . S
C1809 C1808 1.366 . S
C1809 C1813 1.385 . S
C1810 H1791 0.951 . S
C1810 C1808 1.388 . S
C1810 C1811 1.366 . S
C1811 C1810 1.366 . S
C1811 C1812 1.414 . S
C1811 C1814 1.499 . S
C1812 H1792 0.950 . S
C1812 C1811 1.414 . S
C1812 C1813 1.374 . S
C1813 H1793 0.950 . S
C1813 C1809 1.385 . S
C1813 C1812 1.374 . S
C1814 C1811 1.499 . S
C1814 C1815 1.373 . S
C1814 C1816 1.389 . S
C1815 H1794 0.950 . S
C1815 C1814 1.373 . S
C1815 C1831 1.377 . S
C1816 C1814 1.389 . S
C1816 C1817 1.524 . S
C1816 C1830 1.377 . S
C1817 C1816 1.524 . S
C1817 C1818 1.397 . S
C1817 C1822 1.363 . S
C1818 H1795 0.950 . S
C1818 C1817 1.397 . S
C1818 C1819 1.334 . S
C1819 H1796 0.950 . S
C1819 C1818 1.334 . S
C1819 C1820 1.287 . S
C1820 C1819 1.287 . S
C1820 C1821 1.524 . S
C1820 H1839 0.913 . S
C1821 H1797 0.950 . S
C1821 C1820 1.524 . S
C1821 C1822 1.415 . S
C1822 H1798 0.950 . S
C1822 C1817 1.363 . S
C1822 C1821 1.415 . S
C1823 H1799 0.951 . S
C1823 C1824 1.366 . S
C1823 C1825 1.388 . S
C1824 C1823 1.366 . S
C1824 C1828 1.385 . S
C1825 H1800 0.951 . S
C1825 C1823 1.388 . S
C1825 C1826 1.366 . S
C1826 C1825 1.366 . S
C1826 C1827 1.414 . S
C1826 C1829 1.499 . S
C1827 H1801 0.950 . S
C1827 C1826 1.414 . S
C1827 C1828 1.374 . S
C1828 H1802 0.950 . S
C1828 C1824 1.385 . S
C1828 C1827 1.374 . S
C1829 C1826 1.499 . S
C1829 C1830 1.373 . S
C1829 C1831 1.389 . S
C1830 H1803 0.950 . S
C1830 C1816 1.377 . S
C1830 C1829 1.373 . S
C1831 C1815 1.377 . S
C1831 C1829 1.389 . S
C1831 C1832 1.524 . S
C1832 C1831 1.524 . S
C1832 C1833 1.397 . S
C1832 C1837 1.363 . S
C1833 H1804 0.950 . S
C1833 C1832 1.397 . S
C1833 C1834 1.334 . S
C1834 H1805 0.950 . S
C1834 C1833 1.334 . S
C1834 C1835 1.287 . S
C1835 C1834 1.287 . S
C1835 C1836 1.524 . S
C1835 H1838 0.999 . S
C1836 H1806 0.950 . S
C1836 C1835 1.524 . S
C1836 C1837 1.415 . S
C1837 H1807 0.950 . S
C1837 C1832 1.363 . S
C1837 C1836 1.415 . S
H1838 C1835 0.999 . S
H1839 C1820 0.913 . S
H1840 C1858 0.951 . S
H1841 C1860 0.951 . S
H1842 C1862 0.950 . S
H1843 C1863 0.950 . S
H1844 C1865 0.950 . S
H1845 C1868 0.950 . S
H1846 C1869 0.950 . S
H1847 C1871 0.950 . S
H1848 C1872 0.950 . S
H1849 C1873 0.951 . S
H1850 C1875 0.951 . S
H1851 C1877 0.950 . S
H1852 C1878 0.950 . S
H1853 C1880 0.950 . S
H1854 C1883 0.950 . S
H1855 C1884 0.950 . S
H1856 C1886 0.950 . S
H1857 C1887 0.950 . S
C1858 H1840 0.951 . S
C1858 C1859 1.366 . S
C1858 C1860 1.388 . S
C1859 C1858 1.366 . S
C1859 C1863 1.385 . S
C1860 H1841 0.951 . S
C1860 C1858 1.388 . S
C1860 C1861 1.366 . S
C1861 C1860 1.366 . S
C1861 C1862 1.414 . S
C1861 C1864 1.499 . S
C1862 H1842 0.950 . S
C1862 C1861 1.414 . S
C1862 C1863 1.374 . S
C1863 H1843 0.950 . S
C1863 C1859 1.385 . S
C1863 C1862 1.374 . S
C1864 C1861 1.499 . S
C1864 C1865 1.373 . S
C1864 C1866 1.389 . S
C1865 H1844 0.950 . S
C1865 C1864 1.373 . S
C1865 C1881 1.377 . S
C1866 C1864 1.389 . S
C1866 C1867 1.524 . S
C1866 C1880 1.377 . S
C1867 C1866 1.524 . S
C1867 C1868 1.397 . S
C1867 C1872 1.363 . S
C1868 H1845 0.950 . S
C1868 C1867 1.397 . S
C1868 C1869 1.334 . S
C1869 H1846 0.950 . S
C1869 C1868 1.334 . S
C1869 C1870 1.287 . S
C1870 C1869 1.287 . S
C1870 C1871 1.524 . S
C1870 H1889 0.913 . S
C1871 H1847 0.950 . S
C1871 C1870 1.524 . S
C1871 C1872 1.415 . S
C1872 H1848 0.950 . S
C1872 C1867 1.363 . S
C1872 C1871 1.415 . S
C1873 H1849 0.951 . S
C1873 C1874 1.366 . S
C1873 C1875 1.388 . S
C1874 C1873 1.366 . S
C1874 C1878 1.385 . S
C1875 H1850 0.951 . S
C1875 C1873 1.388 . S
C1875 C1876 1.366 . S
C1876 C1875 1.366 . S
C1876 C1877 1.414 . S
C1876 C1879 1.499 . S
C1877 H1851 0.950 . S
C1877 C1876 1.414 . S
C1877 C1878 1.374 . S
C1878 H1852 0.950 . S
C1878 C1874 1.385 . S
C1878 C1877 1.374 . S
C1879 C1876 1.499 . S
C1879 C1880 1.373 . S
C1879 C1881 1.389 . S
C1880 H1853 0.950 . S
C1880 C1866 1.377 . S
C1880 C1879 1.373 . S
C1881 C1865 1.377 . S
C1881 C1879 1.389 . S
C1881 C1882 1.524 . S
C1882 C1881 1.524 . S
C1882 C1883 1.397 . S
C1882 C1887 1.363 . S
C1883 H1854 0.950 . S
C1883 C1882 1.397 . S
C1883 C1884 1.334 . S
C1884 H1855 0.950 . S
C1884 C1883 1.334 . S
C1884 C1885 1.287 . S
C1885 C1884 1.287 . S
C1885 C1886 1.524 . S
C1885 H1888 0.999 . S
C1886 H1856 0.950 . S
C1886 C1885 1.524 . S
C1886 C1887 1.415 . S
C1887 H1857 0.950 . S
C1887 C1882 1.363 . S
C1887 C1886 1.415 . S
H1888 C1885 0.999 . S
H1889 C1870 0.913 . S
H1890 C1908 0.951 . S
H1891 C1910 0.951 . S
H1892 C1912 0.950 . S
H1893 C1913 0.950 . S
H1894 C1915 0.950 . S
H1895 C1918 0.950 . S
H1896 C1919 0.950 . S
H1897 C1921 0.950 . S
H1898 C1922 0.950 . S
H1899 C1923 0.951 . S
H1900 C1925 0.951 . S
H1901 C1927 0.950 . S
H1902 C1928 0.950 . S
H1903 C1930 0.950 . S
H1904 C1933 0.950 . S
H1905 C1934 0.950 . S
H1906 C1936 0.950 . S
H1907 C1937 0.950 . S
C1908 H1890 0.951 . S
C1908 C1909 1.366 . S
C1908 C1910 1.388 . S
C1909 C1908 1.366 . S
C1909 C1913 1.385 . S
C1910 H1891 0.951 . S
C1910 C1908 1.388 . S
C1910 C1911 1.366 . S
C1911 C1910 1.366 . S
C1911 C1912 1.414 . S
C1911 C1914 1.499 . S
C1912 H1892 0.950 . S
C1912 C1911 1.414 . S
C1912 C1913 1.374 . S
C1913 H1893 0.950 . S
C1913 C1909 1.385 . S
C1913 C1912 1.374 . S
C1914 C1911 1.499 . S
C1914 C1915 1.373 . S
C1914 C1916 1.389 . S
C1915 H1894 0.950 . S
C1915 C1914 1.373 . S
C1915 C1931 1.377 . S
C1916 C1914 1.389 . S
C1916 C1917 1.524 . S
C1916 C1930 1.377 . S
C1917 C1916 1.524 . S
C1917 C1918 1.397 . S
C1917 C1922 1.363 . S
C1918 H1895 0.950 . S
C1918 C1917 1.397 . S
C1918 C1919 1.334 . S
C1919 H1896 0.950 . S
C1919 C1918 1.334 . S
C1919 C1920 1.287 . S
C1920 C1919 1.287 . S
C1920 C1921 1.524 . S
C1920 H1939 0.913 . S
C1921 H1897 0.950 . S
C1921 C1920 1.524 . S
C1921 C1922 1.415 . S
C1922 H1898 0.950 . S
C1922 C1917 1.363 . S
C1922 C1921 1.415 . S
C1923 H1899 0.951 . S
C1923 C1924 1.366 . S
C1923 C1925 1.388 . S
C1924 C1923 1.366 . S
C1924 C1928 1.385 . S
C1925 H1900 0.951 . S
C1925 C1923 1.388 . S
C1925 C1926 1.366 . S
C1926 C1925 1.366 . S
C1926 C1927 1.414 . S
C1926 C1929 1.499 . S
C1927 H1901 0.950 . S
C1927 C1926 1.414 . S
C1927 C1928 1.374 . S
C1928 H1902 0.950 . S
C1928 C1924 1.385 . S
C1928 C1927 1.374 . S
C1929 C1926 1.499 . S
C1929 C1930 1.373 . S
C1929 C1931 1.389 . S
C1930 H1903 0.950 . S
C1930 C1916 1.377 . S
C1930 C1929 1.373 . S
C1931 C1915 1.377 . S
C1931 C1929 1.389 . S
C1931 C1932 1.524 . S
C1932 C1931 1.524 . S
C1932 C1933 1.397 . S
C1932 C1937 1.363 . S
C1933 H1904 0.950 . S
C1933 C1932 1.397 . S
C1933 C1934 1.334 . S
C1934 H1905 0.950 . S
C1934 C1933 1.334 . S
C1934 C1935 1.287 . S
C1935 C1934 1.287 . S
C1935 C1936 1.524 . S
C1935 H1938 0.999 . S
C1936 H1906 0.950 . S
C1936 C1935 1.524 . S
C1936 C1937 1.415 . S
C1937 H1907 0.950 . S
C1937 C1932 1.363 . S
C1937 C1936 1.415 . S
H1938 C1935 0.999 . S
H1939 C1920 0.913 . S
H1940 C1958 0.951 . S
H1941 C1960 0.951 . S
H1942 C1962 0.950 . S
H1943 C1963 0.950 . S
H1944 C1965 0.950 . S
H1945 C1968 0.950 . S
H1946 C1969 0.950 . S
H1947 C1971 0.950 . S
H1948 C1972 0.950 . S
H1949 C1973 0.951 . S
H1950 C1975 0.951 . S
H1951 C1977 0.950 . S
H1952 C1978 0.950 . S
H1953 C1980 0.950 . S
H1954 C1983 0.950 . S
H1955 C1984 0.950 . S
H1956 C1986 0.950 . S
H1957 C1987 0.950 . S
C1958 H1940 0.951 . S
C1958 C1959 1.366 . S
C1958 C1960 1.388 . S
C1959 C1958 1.366 . S
C1959 C1963 1.385 . S
C1960 H1941 0.951 . S
C1960 C1958 1.388 . S
C1960 C1961 1.366 . S
C1961 C1960 1.366 . S
C1961 C1962 1.414 . S
C1961 C1964 1.499 . S
C1962 H1942 0.950 . S
C1962 C1961 1.414 . S
C1962 C1963 1.374 . S
C1963 H1943 0.950 . S
C1963 C1959 1.385 . S
C1963 C1962 1.374 . S
C1964 C1961 1.499 . S
C1964 C1965 1.373 1_565 S
C1964 C1966 1.389 . S
C1965 H1944 0.950 . S
C1965 C1964 1.373 1_545 S
C1965 C1981 1.377 . S
C1966 C1964 1.389 . S
C1966 C1967 1.524 . S
C1966 C1980 1.377 . S
C1967 C1966 1.524 . S
C1967 C1968 1.397 . S
C1967 C1972 1.363 . S
C1968 H1945 0.950 . S
C1968 C1967 1.397 . S
C1968 C1969 1.334 . S
C1969 H1946 0.950 . S
C1969 C1968 1.334 . S
C1969 C1970 1.287 . S
C1970 C1969 1.287 . S
C1970 C1971 1.524 . S
C1970 H1989 0.913 . S
C1971 H1947 0.950 . S
C1971 C1970 1.524 . S
C1971 C1972 1.415 . S
C1972 H1948 0.950 . S
C1972 C1967 1.363 . S
C1972 C1971 1.415 . S
C1973 H1949 0.951 . S
C1973 C1974 1.366 . S
C1973 C1975 1.388 . S
C1974 C1973 1.366 . S
C1974 C1978 1.385 . S
C1975 H1950 0.951 . S
C1975 C1973 1.388 . S
C1975 C1976 1.366 . S
C1976 C1975 1.366 . S
C1976 C1977 1.414 . S
C1976 C1979 1.499 . S
C1977 H1951 0.950 . S
C1977 C1976 1.414 . S
C1977 C1978 1.374 . S
C1978 H1952 0.950 . S
C1978 C1974 1.385 . S
C1978 C1977 1.374 . S
C1979 C1976 1.499 . S
C1979 C1980 1.373 1_545 S
C1979 C1981 1.389 . S
C1980 H1953 0.950 . S
C1980 C1966 1.377 . S
C1980 C1979 1.373 1_565 S
C1981 C1965 1.377 . S
C1981 C1979 1.389 . S
C1981 C1982 1.524 . S
C1982 C1981 1.524 . S
C1982 C1983 1.397 . S
C1982 C1987 1.363 . S
C1983 H1954 0.950 . S
C1983 C1982 1.397 . S
C1983 C1984 1.334 . S
C1984 H1955 0.950 . S
C1984 C1983 1.334 . S
C1984 C1985 1.287 . S
C1985 C1984 1.287 . S
C1985 C1986 1.524 . S
C1985 H1988 0.999 . S
C1986 H1956 0.950 . S
C1986 C1985 1.524 . S
C1986 C1987 1.415 . S
C1987 H1957 0.950 . S
C1987 C1982 1.363 . S
C1987 C1986 1.415 . S
H1988 C1985 0.999 . S
H1989 C1970 0.913 . S
H1990 C2008 0.951 1_556 S
H1991 C2010 0.951 1_556 S
H1992 C2012 0.950 . S
H1993 C2013 0.950 . S
H1994 C2015 0.950 . S
H1995 C2018 0.950 . S
H1996 C2019 0.950 . S
H1997 C2021 0.950 . S
H1998 C2022 0.967 . S
H1999 C2023 0.951 . S
H2000 C2025 0.951 . S
H2001 C2027 0.950 . S
H2002 C2028 0.950 . S
H2003 C2030 0.950 . S
H2004 C2033 0.950 1_556 S
H2005 C2034 0.950 1_556 S
H2006 C2036 0.950 . S
H2007 C2037 0.950 . S
C2008 H1990 0.951 1_554 S
C2008 C2009 1.366 . S
C2008 C2010 1.388 . S
C2009 C2008 1.366 . S
C2009 C2013 1.385 . S
C2010 H1991 0.951 1_554 S
C2010 C2008 1.388 . S
C2010 C2011 1.366 . S
C2011 C2010 1.366 . S
C2011 C2012 1.414 . S
C2011 C2014 1.499 . S
C2012 H1992 0.950 . S
C2012 C2011 1.414 . S
C2012 C2013 1.374 . S
C2013 H1993 0.950 . S
C2013 C2009 1.385 . S
C2013 C2012 1.374 . S
C2014 C2011 1.499 . S
C2014 C2015 1.373 . S
C2014 C2016 1.389 . S
C2015 H1994 0.950 . S
C2015 C2014 1.373 . S
C2015 C2031 1.377 . S
C2016 C2014 1.389 . S
C2016 C2017 1.524 . S
C2016 C2030 1.377 . S
C2017 C2016 1.524 . S
C2017 C2018 1.397 . S
C2017 C2022 1.363 . S
C2018 H1995 0.950 . S
C2018 C2017 1.397 . S
C2018 C2019 1.334 . S
C2019 H1996 0.950 . S
C2019 C2018 1.334 . S
C2019 C2020 1.287 . S
C2020 C2019 1.287 . S
C2020 C2021 1.524 . S
C2020 H2039 0.913 . S
C2021 H1997 0.950 . S
C2021 C2020 1.524 . S
C2021 C2022 1.415 . S
C2022 H1998 0.967 . S
C2022 C2017 1.363 . S
C2022 C2021 1.415 . S
C2023 H1999 0.951 . S
C2023 C2024 1.366 . S
C2023 C2025 1.388 . S
C2024 C2023 1.366 . S
C2024 C2028 1.385 . S
C2025 H2000 0.951 . S
C2025 C2023 1.388 . S
C2025 C2026 1.366 . S
C2026 C2025 1.366 . S
C2026 C2027 1.414 . S
C2026 C2029 1.499 . S
C2027 H2001 0.950 . S
C2027 C2026 1.414 . S
C2027 C2028 1.374 . S
C2028 H2002 0.950 . S
C2028 C2024 1.385 . S
C2028 C2027 1.374 . S
C2029 C2026 1.499 . S
C2029 C2030 1.373 . S
C2029 C2031 1.389 . S
C2030 H2003 0.950 . S
C2030 C2016 1.377 . S
C2030 C2029 1.373 . S
C2031 C2015 1.377 . S
C2031 C2029 1.389 . S
C2031 C2032 1.524 . S
C2032 C2031 1.524 . S
C2032 C2033 1.397 . S
C2032 C2037 1.363 . S
C2033 H2004 0.950 1_554 S
C2033 C2032 1.397 . S
C2033 C2034 1.334 . S
C2034 H2005 0.950 1_554 S
C2034 C2033 1.334 . S
C2034 C2035 1.287 . S
C2035 C2034 1.287 . S
C2035 C2036 1.524 . S
C2035 H2038 0.999 . S
C2036 H2006 0.950 . S
C2036 C2035 1.524 . S
C2036 C2037 1.415 . S
C2037 H2007 0.950 . S
C2037 C2032 1.363 . S
C2037 C2036 1.415 . S
H2038 C2035 0.999 . S
H2039 C2020 0.913 . S
H2040 C2058 0.951 . S
H2041 C2060 0.951 . S
H2042 C2062 0.950 . S
H2043 C2063 0.950 . S
H2044 C2065 0.950 . S
H2045 C2068 0.950 . S
H2046 C2069 0.950 . S
H2047 C2071 0.950 . S
H2048 C2072 0.950 . S
H2049 C2073 0.951 . S
H2050 C2075 0.951 . S
H2051 C2077 0.950 . S
H2052 C2078 0.950 . S
H2053 C2080 0.950 . S
H2054 C2083 0.950 . S
H2055 C2084 0.950 . S
H2056 C2086 0.950 . S
H2057 C2087 0.950 . S
C2058 H2040 0.951 . S
C2058 C2059 1.366 . S
C2058 C2060 1.388 . S
C2059 C2058 1.366 . S
C2059 C2063 1.385 . S
C2060 H2041 0.951 . S
C2060 C2058 1.388 . S
C2060 C2061 1.366 . S
C2061 C2060 1.366 . S
C2061 C2062 1.414 . S
C2061 C2064 1.499 . S
C2062 H2042 0.950 . S
C2062 C2061 1.414 . S
C2062 C2063 1.374 . S
C2063 H2043 0.950 . S
C2063 C2059 1.385 . S
C2063 C2062 1.374 . S
C2064 C2061 1.499 . S
C2064 C2065 1.373 . S
C2064 C2066 1.389 . S
C2065 H2044 0.950 . S
C2065 C2064 1.373 . S
C2065 C2081 1.377 . S
C2066 C2064 1.389 . S
C2066 C2067 1.524 . S
C2066 C2080 1.377 . S
C2067 C2066 1.524 . S
C2067 C2068 1.397 . S
C2067 C2072 1.363 . S
C2068 H2045 0.950 . S
C2068 C2067 1.397 . S
C2068 C2069 1.334 . S
C2069 H2046 0.950 . S
C2069 C2068 1.334 . S
C2069 C2070 1.287 . S
C2070 C2069 1.287 . S
C2070 C2071 1.524 . S
C2070 H2089 0.913 . S
C2071 H2047 0.950 . S
C2071 C2070 1.524 . S
C2071 C2072 1.415 . S
C2072 H2048 0.950 . S
C2072 C2067 1.363 . S
C2072 C2071 1.415 . S
C2073 H2049 0.951 . S
C2073 C2074 1.366 . S
C2073 C2075 1.388 . S
C2074 C2073 1.366 . S
C2074 C2078 1.385 . S
C2075 H2050 0.951 . S
C2075 C2073 1.388 . S
C2075 C2076 1.366 . S
C2076 C2075 1.366 . S
C2076 C2077 1.414 . S
C2076 C2079 1.499 . S
C2077 H2051 0.950 . S
C2077 C2076 1.414 . S
C2077 C2078 1.374 . S
C2078 H2052 0.950 . S
C2078 C2074 1.385 . S
C2078 C2077 1.374 . S
C2079 C2076 1.499 . S
C2079 C2080 1.373 . S
C2079 C2081 1.389 . S
C2080 H2053 0.950 . S
C2080 C2066 1.377 . S
C2080 C2079 1.373 . S
C2081 C2065 1.377 . S
C2081 C2079 1.389 . S
C2081 C2082 1.524 . S
C2082 C2081 1.524 . S
C2082 C2083 1.397 . S
C2082 C2087 1.363 . S
C2083 H2054 0.950 . S
C2083 C2082 1.397 . S
C2083 C2084 1.334 . S
C2084 H2055 0.950 . S
C2084 C2083 1.334 . S
C2084 C2085 1.287 . S
C2085 C2084 1.287 . S
C2085 C2086 1.524 . S
C2085 H2088 0.999 . S
C2086 H2056 0.950 . S
C2086 C2085 1.524 . S
C2086 C2087 1.415 . S
C2087 H2057 0.950 . S
C2087 C2082 1.363 . S
C2087 C2086 1.415 . S
H2088 C2085 0.999 . S
H2089 C2070 0.913 . S
H2090 C2108 0.951 . S
H2091 C2110 0.951 . S
H2092 C2112 0.950 . S
H2093 C2113 0.950 . S
H2094 C2115 0.950 . S
H2095 C2118 0.950 . S
H2096 C2119 0.950 . S
H2097 C2121 0.950 . S
H2098 C2122 0.950 . S
H2099 C2123 0.951 . S
H2100 C2125 0.951 . S
H2101 C2127 0.950 . S
H2102 C2128 0.950 . S
H2103 C2130 0.950 . S
H2104 C2133 0.950 . S
H2105 C2134 0.950 . S
H2106 C2136 0.950 . S
H2107 C2137 0.950 . S
C2108 H2090 0.951 . S
C2108 C2109 1.366 . S
C2108 C2110 1.388 . S
C2109 C2108 1.366 . S
C2109 C2113 1.385 . S
C2110 H2091 0.951 . S
C2110 C2108 1.388 . S
C2110 C2111 1.366 . S
C2111 C2110 1.366 . S
C2111 C2112 1.414 . S
C2111 C2114 1.499 . S
C2112 H2092 0.950 . S
C2112 C2111 1.414 . S
C2112 C2113 1.374 . S
C2113 H2093 0.950 . S
C2113 C2109 1.385 . S
C2113 C2112 1.374 . S
C2114 C2111 1.499 . S
C2114 C2115 1.373 . S
C2114 C2116 1.389 . S
C2115 H2094 0.950 . S
C2115 C2114 1.373 . S
C2115 C2131 1.377 . S
C2116 C2114 1.389 . S
C2116 C2117 1.524 . S
C2116 C2130 1.377 . S
C2117 C2116 1.524 . S
C2117 C2118 1.397 . S
C2117 C2122 1.363 . S
C2118 H2095 0.950 . S
C2118 C2117 1.397 . S
C2118 C2119 1.334 . S
C2119 H2096 0.950 . S
C2119 C2118 1.334 . S
C2119 C2120 1.287 . S
C2120 C2119 1.287 . S
C2120 C2121 1.524 . S
C2120 H2139 0.913 . S
C2121 H2097 0.950 . S
C2121 C2120 1.524 . S
C2121 C2122 1.415 . S
C2122 H2098 0.950 . S
C2122 C2117 1.363 . S
C2122 C2121 1.415 . S
C2123 H2099 0.951 . S
C2123 C2124 1.366 . S
C2123 C2125 1.388 . S
C2124 C2123 1.366 . S
C2124 C2128 1.385 . S
C2125 H2100 0.951 . S
C2125 C2123 1.388 . S
C2125 C2126 1.366 . S
C2126 C2125 1.366 . S
C2126 C2127 1.414 . S
C2126 C2129 1.499 . S
C2127 H2101 0.950 . S
C2127 C2126 1.414 . S
C2127 C2128 1.374 . S
C2128 H2102 0.950 . S
C2128 C2124 1.385 . S
C2128 C2127 1.374 . S
C2129 C2126 1.499 . S
C2129 C2130 1.373 . S
C2129 C2131 1.389 . S
C2130 H2103 0.950 . S
C2130 C2116 1.377 . S
C2130 C2129 1.373 . S
C2131 C2115 1.377 . S
C2131 C2129 1.389 . S
C2131 C2132 1.524 . S
C2132 C2131 1.524 . S
C2132 C2133 1.397 . S
C2132 C2137 1.363 . S
C2133 H2104 0.950 . S
C2133 C2132 1.397 . S
C2133 C2134 1.334 . S
C2134 H2105 0.950 . S
C2134 C2133 1.334 . S
C2134 C2135 1.287 . S
C2135 C2134 1.287 . S
C2135 C2136 1.524 . S
C2135 H2138 0.999 . S
C2136 H2106 0.950 . S
C2136 C2135 1.524 . S
C2136 C2137 1.415 . S
C2137 H2107 0.950 . S
C2137 C2132 1.363 . S
C2137 C2136 1.415 . S
H2138 C2135 0.999 . S
H2139 C2120 0.913 . S
H2140 C2158 0.951 . S
H2141 C2160 0.951 . S
H2142 C2162 0.950 . S
H2143 C2163 0.950 . S
H2144 C2165 0.950 . S
H2145 C2168 0.950 . S
H2146 C2169 0.950 . S
H2147 C2171 0.950 . S
H2148 C2172 0.950 . S
H2149 C2173 0.951 . S
H2150 C2175 0.951 . S
H2151 C2177 0.950 . S
H2152 C2178 0.950 . S
H2153 C2180 0.950 . S
H2154 C2183 0.950 . S
H2155 C2184 0.950 . S
H2156 C2186 0.950 . S
H2157 C2187 0.950 . S
C2158 H2140 0.951 . S
C2158 C2159 1.366 . S
C2158 C2160 1.388 . S
C2159 C2158 1.366 . S
C2159 C2163 1.385 . S
C2160 H2141 0.951 . S
C2160 C2158 1.388 . S
C2160 C2161 1.366 . S
C2161 C2160 1.366 . S
C2161 C2162 1.414 . S
C2161 C2164 1.499 . S
C2162 H2142 0.950 . S
C2162 C2161 1.414 . S
C2162 C2163 1.374 . S
C2163 H2143 0.950 . S
C2163 C2159 1.385 . S
C2163 C2162 1.374 . S
C2164 C2161 1.499 . S
C2164 C2165 1.373 . S
C2164 C2166 1.389 . S
C2165 H2144 0.950 . S
C2165 C2164 1.373 . S
C2165 C2181 1.377 . S
C2166 C2164 1.389 . S
C2166 C2167 1.524 . S
C2166 C2180 1.377 . S
C2167 C2166 1.524 . S
C2167 C2168 1.397 . S
C2167 C2172 1.363 . S
C2168 H2145 0.950 . S
C2168 C2167 1.397 . S
C2168 C2169 1.334 . S
C2169 H2146 0.950 . S
C2169 C2168 1.334 . S
C2169 C2170 1.287 . S
C2170 C2169 1.287 . S
C2170 C2171 1.524 . S
C2170 H2189 0.913 . S
C2171 H2147 0.950 . S
C2171 C2170 1.524 . S
C2171 C2172 1.415 . S
C2172 H2148 0.950 . S
C2172 C2167 1.363 . S
C2172 C2171 1.415 . S
C2173 H2149 0.951 . S
C2173 C2174 1.366 . S
C2173 C2175 1.388 . S
C2174 C2173 1.366 . S
C2174 C2178 1.385 . S
C2175 H2150 0.951 . S
C2175 C2173 1.388 . S
C2175 C2176 1.366 . S
C2176 C2175 1.366 . S
C2176 C2177 1.414 . S
C2176 C2179 1.499 . S
C2177 H2151 0.950 . S
C2177 C2176 1.414 . S
C2177 C2178 1.374 . S
C2178 H2152 0.950 . S
C2178 C2174 1.385 . S
C2178 C2177 1.374 . S
C2179 C2176 1.499 . S
C2179 C2180 1.373 . S
C2179 C2181 1.389 . S
C2180 H2153 0.950 . S
C2180 C2166 1.377 . S
C2180 C2179 1.373 . S
C2181 C2165 1.377 . S
C2181 C2179 1.389 . S
C2181 C2182 1.524 . S
C2182 C2181 1.524 . S
C2182 C2183 1.397 . S
C2182 C2187 1.363 . S
C2183 H2154 0.950 . S
C2183 C2182 1.397 . S
C2183 C2184 1.334 . S
C2184 H2155 0.950 . S
C2184 C2183 1.334 . S
C2184 C2185 1.287 . S
C2185 C2184 1.287 . S
C2185 C2186 1.524 . S
C2185 H2188 0.999 . S
C2186 H2156 0.950 . S
C2186 C2185 1.524 . S
C2186 C2187 1.415 . S
C2187 H2157 0.950 . S
C2187 C2182 1.363 . S
C2187 C2186 1.415 . S
H2188 C2185 0.999 . S
H2189 C2170 0.913 . S
H2190 C2208 0.951 . S
H2191 C2210 0.951 . S
H2192 C2212 0.950 . S
H2193 C2213 0.950 . S
H2194 C2215 0.950 . S
H2195 C2218 0.950 . S
H2196 C2219 0.950 . S
H2197 C2221 0.950 . S
H2198 C2222 0.950 . S
H2199 C2223 0.951 . S
H2200 C2225 0.951 . S
H2201 C2227 0.950 . S
H2202 C2228 0.950 . S
H2203 C2230 0.950 . S
H2204 C2233 0.950 . S
H2205 C2234 0.950 . S
H2206 C2236 0.950 . S
H2207 C2237 0.950 . S
C2208 H2190 0.951 . S
C2208 C2209 1.366 . S
C2208 C2210 1.388 . S
C2209 C2208 1.366 . S
C2209 C2213 1.385 . S
C2210 H2191 0.951 . S
C2210 C2208 1.388 . S
C2210 C2211 1.366 . S
C2211 C2210 1.366 . S
C2211 C2212 1.414 . S
C2211 C2214 1.499 . S
C2212 H2192 0.950 . S
C2212 C2211 1.414 . S
C2212 C2213 1.374 . S
C2213 H2193 0.950 . S
C2213 C2209 1.385 . S
C2213 C2212 1.374 . S
C2214 C2211 1.499 . S
C2214 C2215 1.373 . S
C2214 C2216 1.389 . S
C2215 H2194 0.950 . S
C2215 C2214 1.373 . S
C2215 C2231 1.377 . S
C2216 C2214 1.389 . S
C2216 C2217 1.524 . S
C2216 C2230 1.377 . S
C2217 C2216 1.524 . S
C2217 C2218 1.397 . S
C2217 C2222 1.363 . S
C2218 H2195 0.950 . S
C2218 C2217 1.397 . S
C2218 C2219 1.334 . S
C2219 H2196 0.950 . S
C2219 C2218 1.334 . S
C2219 C2220 1.287 . S
C2220 C2219 1.287 . S
C2220 C2221 1.524 . S
C2220 H2239 0.913 . S
C2221 H2197 0.950 . S
C2221 C2220 1.524 . S
C2221 C2222 1.415 . S
C2222 H2198 0.950 . S
C2222 C2217 1.363 . S
C2222 C2221 1.415 . S
C2223 H2199 0.951 . S
C2223 C2224 1.366 . S
C2223 C2225 1.388 . S
C2224 C2223 1.366 . S
C2224 C2228 1.385 . S
C2225 H2200 0.951 . S
C2225 C2223 1.388 . S
C2225 C2226 1.366 . S
C2226 C2225 1.366 . S
C2226 C2227 1.414 . S
C2226 C2229 1.499 . S
C2227 H2201 0.950 . S
C2227 C2226 1.414 . S
C2227 C2228 1.374 . S
C2228 H2202 0.950 . S
C2228 C2224 1.385 . S
C2228 C2227 1.374 . S
C2229 C2226 1.499 . S
C2229 C2230 1.373 . S
C2229 C2231 1.389 . S
C2230 H2203 0.950 . S
C2230 C2216 1.377 . S
C2230 C2229 1.373 . S
C2231 C2215 1.377 . S
C2231 C2229 1.389 . S
C2231 C2232 1.524 . S
C2232 C2231 1.524 . S
C2232 C2233 1.397 . S
C2232 C2237 1.363 . S
C2233 H2204 0.950 . S
C2233 C2232 1.397 . S
C2233 C2234 1.334 . S
C2234 H2205 0.950 . S
C2234 C2233 1.334 . S
C2234 C2235 1.287 . S
C2235 C2234 1.287 . S
C2235 C2236 1.524 . S
C2235 H2238 0.999 . S
C2236 H2206 0.950 . S
C2236 C2235 1.524 . S
C2236 C2237 1.415 . S
C2237 H2207 0.950 . S
C2237 C2232 1.363 . S
C2237 C2236 1.415 . S
H2238 C2235 0.999 . S
H2239 C2220 0.913 . S
H2240 C2258 0.951 . S
H2241 C2260 0.951 . S
H2242 C2262 0.950 . S
H2243 C2263 0.950 . S
H2244 C2265 0.950 . S
H2245 C2268 0.950 . S
H2246 C2269 0.950 . S
H2247 C2271 0.950 . S
H2248 C2272 0.950 . S
H2249 C2273 0.951 . S
H2250 C2275 0.951 . S
H2251 C2277 0.950 . S
H2252 C2278 0.950 . S
H2253 C2280 0.950 . S
H2254 C2283 0.950 . S
H2255 C2284 0.950 . S
H2256 C2286 0.950 . S
H2257 C2287 0.950 . S
C2258 H2240 0.951 . S
C2258 C2259 1.366 . S
C2258 C2260 1.388 . S
C2259 C2258 1.366 . S
C2259 C2263 1.385 . S
C2260 H2241 0.951 . S
C2260 C2258 1.388 . S
C2260 C2261 1.366 . S
C2261 C2260 1.366 . S
C2261 C2262 1.414 . S
C2261 C2264 1.499 . S
C2262 H2242 0.950 . S
C2262 C2261 1.414 . S
C2262 C2263 1.374 . S
C2263 H2243 0.950 . S
C2263 C2259 1.385 . S
C2263 C2262 1.374 . S
C2264 C2261 1.499 . S
C2264 C2265 1.373 . S
C2264 C2266 1.389 . S
C2265 H2244 0.950 . S
C2265 C2264 1.373 . S
C2265 C2281 1.377 . S
C2266 C2264 1.389 . S
C2266 C2267 1.524 . S
C2266 C2280 1.377 . S
C2267 C2266 1.524 . S
C2267 C2268 1.397 . S
C2267 C2272 1.363 . S
C2268 H2245 0.950 . S
C2268 C2267 1.397 . S
C2268 C2269 1.334 . S
C2269 H2246 0.950 . S
C2269 C2268 1.334 . S
C2269 C2270 1.287 . S
C2270 C2269 1.287 . S
C2270 C2271 1.524 . S
C2270 H2289 0.913 . S
C2271 H2247 0.950 . S
C2271 C2270 1.524 . S
C2271 C2272 1.415 . S
C2272 H2248 0.950 . S
C2272 C2267 1.363 . S
C2272 C2271 1.415 . S
C2273 H2249 0.951 . S
C2273 C2274 1.366 . S
C2273 C2275 1.388 . S
C2274 C2273 1.366 . S
C2274 C2278 1.385 . S
C2275 H2250 0.951 . S
C2275 C2273 1.388 . S
C2275 C2276 1.366 . S
C2276 C2275 1.366 . S
C2276 C2277 1.414 . S
C2276 C2279 1.499 . S
C2277 H2251 0.950 . S
C2277 C2276 1.414 . S
C2277 C2278 1.374 . S
C2278 H2252 0.950 . S
C2278 C2274 1.385 . S
C2278 C2277 1.374 . S
C2279 C2276 1.499 . S
C2279 C2280 1.373 . S
C2279 C2281 1.389 . S
C2280 H2253 0.950 . S
C2280 C2266 1.377 . S
C2280 C2279 1.373 . S
C2281 C2265 1.377 . S
C2281 C2279 1.389 . S
C2281 C2282 1.524 . S
C2282 C2281 1.524 . S
C2282 C2283 1.397 . S
C2282 C2287 1.363 . S
C2283 H2254 0.950 . S
C2283 C2282 1.397 . S
C2283 C2284 1.334 . S
C2284 H2255 0.950 . S
C2284 C2283 1.334 . S
C2284 C2285 1.287 . S
C2285 C2284 1.287 . S
C2285 C2286 1.524 . S
C2285 H2288 0.999 . S
C2286 H2256 0.950 . S
C2286 C2285 1.524 . S
C2286 C2287 1.415 . S
C2287 H2257 0.950 . S
C2287 C2282 1.363 . S
C2287 C2286 1.415 . S
H2288 C2285 0.999 . S
H2289 C2270 0.913 . S
H2290 C2308 0.951 . S
H2291 C2310 0.951 . S
H2292 C2312 0.950 . S
H2293 C2313 0.950 . S
H2294 C2315 0.950 . S
H2295 C2318 0.950 . S
H2296 C2319 0.950 . S
H2297 C2321 0.950 . S
H2298 C2322 0.950 . S
H2299 C2323 0.951 . S
H2300 C2325 0.951 . S
H2301 C2327 0.950 . S
H2302 C2328 0.950 . S
H2303 C2330 0.950 . S
H2304 C2333 0.950 . S
H2305 C2334 0.950 . S
H2306 C2336 0.950 . S
H2307 C2337 0.950 . S
C2308 H2290 0.951 . S
C2308 C2309 1.366 . S
C2308 C2310 1.388 . S
C2309 C2308 1.366 . S
C2309 C2313 1.385 . S
C2310 H2291 0.951 . S
C2310 C2308 1.388 . S
C2310 C2311 1.366 . S
C2311 C2310 1.366 . S
C2311 C2312 1.414 . S
C2311 C2314 1.499 . S
C2312 H2292 0.950 . S
C2312 C2311 1.414 . S
C2312 C2313 1.374 . S
C2313 H2293 0.950 . S
C2313 C2309 1.385 . S
C2313 C2312 1.374 . S
C2314 C2311 1.499 . S
C2314 C2315 1.373 . S
C2314 C2316 1.389 . S
C2315 H2294 0.950 . S
C2315 C2314 1.373 . S
C2315 C2331 1.377 . S
C2316 C2314 1.389 . S
C2316 C2317 1.524 . S
C2316 C2330 1.377 . S
C2317 C2316 1.524 . S
C2317 C2318 1.397 . S
C2317 C2322 1.363 . S
C2318 H2295 0.950 . S
C2318 C2317 1.397 . S
C2318 C2319 1.334 . S
C2319 H2296 0.950 . S
C2319 C2318 1.334 . S
C2319 C2320 1.287 . S
C2320 C2319 1.287 . S
C2320 C2321 1.524 . S
C2320 H2339 0.913 . S
C2321 H2297 0.950 . S
C2321 C2320 1.524 . S
C2321 C2322 1.415 . S
C2322 H2298 0.950 . S
C2322 C2317 1.363 . S
C2322 C2321 1.415 . S
C2323 H2299 0.951 . S
C2323 C2324 1.366 . S
C2323 C2325 1.388 . S
C2324 C2323 1.366 . S
C2324 C2328 1.385 . S
C2325 H2300 0.951 . S
C2325 C2323 1.388 . S
C2325 C2326 1.366 . S
C2326 C2325 1.366 . S
C2326 C2327 1.414 . S
C2326 C2329 1.499 . S
C2327 H2301 0.950 . S
C2327 C2326 1.414 . S
C2327 C2328 1.374 . S
C2328 H2302 0.950 . S
C2328 C2324 1.385 . S
C2328 C2327 1.374 . S
C2329 C2326 1.499 . S
C2329 C2330 1.373 . S
C2329 C2331 1.389 . S
C2330 H2303 0.950 . S
C2330 C2316 1.377 . S
C2330 C2329 1.373 . S
C2331 C2315 1.377 . S
C2331 C2329 1.389 . S
C2331 C2332 1.524 . S
C2332 C2331 1.524 . S
C2332 C2333 1.397 . S
C2332 C2337 1.363 . S
C2333 H2304 0.950 . S
C2333 C2332 1.397 . S
C2333 C2334 1.334 . S
C2334 H2305 0.950 . S
C2334 C2333 1.334 . S
C2334 C2335 1.287 . S
C2335 C2334 1.287 . S
C2335 C2336 1.524 . S
C2335 H2338 0.999 . S
C2336 H2306 0.950 . S
C2336 C2335 1.524 . S
C2336 C2337 1.415 . S
C2337 H2307 0.950 . S
C2337 C2332 1.363 . S
C2337 C2336 1.415 . S
H2338 C2335 0.999 . S
H2339 C2320 0.913 . S
H2340 C2358 0.951 . S
H2341 C2360 0.951 . S
H2342 C2362 0.950 . S
H2343 C2363 0.950 . S
H2344 C2365 0.950 . S
H2345 C2368 0.950 . S
H2346 C2369 0.950 . S
H2347 C2371 0.950 . S
H2348 C2372 0.950 . S
H2349 C2373 0.951 . S
H2350 C2375 0.951 . S
H2351 C2377 0.950 . S
H2352 C2378 0.950 . S
H2353 C2380 0.950 . S
H2354 C2383 0.950 . S
H2355 C2384 0.950 . S
H2356 C2386 0.950 . S
H2357 C2387 0.950 . S
C2358 H2340 0.951 . S
C2358 C2359 1.366 . S
C2358 C2360 1.388 . S
C2359 C2358 1.366 . S
C2359 C2363 1.385 . S
C2360 H2341 0.951 . S
C2360 C2358 1.388 . S
C2360 C2361 1.366 . S
C2361 C2360 1.366 . S
C2361 C2362 1.414 . S
C2361 C2364 1.499 . S
C2362 H2342 0.950 . S
C2362 C2361 1.414 . S
C2362 C2363 1.374 . S
C2363 H2343 0.950 . S
C2363 C2359 1.385 . S
C2363 C2362 1.374 . S
C2364 C2361 1.499 . S
C2364 C2365 1.373 . S
C2364 C2366 1.389 . S
C2365 H2344 0.950 . S
C2365 C2364 1.373 . S
C2365 C2381 1.377 . S
C2366 C2364 1.389 . S
C2366 C2367 1.524 . S
C2366 C2380 1.377 . S
C2367 C2366 1.524 . S
C2367 C2368 1.397 . S
C2367 C2372 1.363 . S
C2368 H2345 0.950 . S
C2368 C2367 1.397 . S
C2368 C2369 1.334 . S
C2369 H2346 0.950 . S
C2369 C2368 1.334 . S
C2369 C2370 1.287 . S
C2370 C2369 1.287 . S
C2370 C2371 1.524 . S
C2370 H2389 0.913 . S
C2371 H2347 0.950 . S
C2371 C2370 1.524 . S
C2371 C2372 1.415 . S
C2372 H2348 0.950 . S
C2372 C2367 1.363 . S
C2372 C2371 1.415 . S
C2373 H2349 0.951 . S
C2373 C2374 1.366 . S
C2373 C2375 1.388 . S
C2374 C2373 1.366 . S
C2374 C2378 1.385 . S
C2375 H2350 0.951 . S
C2375 C2373 1.388 . S
C2375 C2376 1.366 . S
C2376 C2375 1.366 . S
C2376 C2377 1.414 . S
C2376 C2379 1.499 . S
C2377 H2351 0.950 . S
C2377 C2376 1.414 . S
C2377 C2378 1.374 . S
C2378 H2352 0.950 . S
C2378 C2374 1.385 . S
C2378 C2377 1.374 . S
C2379 C2376 1.499 . S
C2379 C2380 1.373 . S
C2379 C2381 1.389 . S
C2380 H2353 0.950 . S
C2380 C2366 1.377 . S
C2380 C2379 1.373 . S
C2381 C2365 1.377 . S
C2381 C2379 1.389 . S
C2381 C2382 1.524 . S
C2382 C2381 1.524 . S
C2382 C2383 1.397 . S
C2382 C2387 1.363 . S
C2383 H2354 0.950 . S
C2383 C2382 1.397 . S
C2383 C2384 1.334 . S
C2384 H2355 0.950 . S
C2384 C2383 1.334 . S
C2384 C2385 1.287 . S
C2385 C2384 1.287 . S
C2385 C2386 1.524 . S
C2385 H2388 0.999 . S
C2386 H2356 0.950 . S
C2386 C2385 1.524 . S
C2386 C2387 1.415 . S
C2387 H2357 0.950 . S
C2387 C2382 1.363 . S
C2387 C2386 1.415 . S
H2388 C2385 0.999 . S
H2389 C2370 0.913 . S
H2390 C2408 0.951 . S
H2391 C2410 0.951 . S
H2392 C2412 0.950 . S
H2393 C2413 0.950 . S
H2394 C2415 0.950 . S
H2395 C2418 0.950 . S
H2396 C2419 0.950 . S
H2397 C2421 0.950 . S
H2398 C2422 0.950 . S
H2399 C2423 0.951 . S
H2400 C2425 0.951 . S
H2401 C2427 0.950 . S
H2402 C2428 0.950 . S
H2403 C2430 0.950 . S
H2404 C2433 0.950 . S
H2405 C2434 0.950 . S
H2406 C2436 0.950 . S
H2407 C2437 0.950 . S
C2408 H2390 0.951 . S
C2408 C2409 1.366 . S
C2408 C2410 1.388 . S
C2409 C2408 1.366 . S
C2409 C2413 1.385 . S
C2410 H2391 0.951 . S
C2410 C2408 1.388 . S
C2410 C2411 1.366 . S
C2411 C2410 1.366 . S
C2411 C2412 1.414 . S
C2411 C2414 1.499 . S
C2412 H2392 0.950 . S
C2412 C2411 1.414 . S
C2412 C2413 1.374 . S
C2413 H2393 0.950 . S
C2413 C2409 1.385 . S
C2413 C2412 1.374 . S
C2414 C2411 1.499 . S
C2414 C2415 1.373 . S
C2414 C2416 1.389 . S
C2415 H2394 0.950 . S
C2415 C2414 1.373 . S
C2415 C2431 1.377 . S
C2416 C2414 1.389 . S
C2416 C2417 1.524 . S
C2416 C2430 1.377 . S
C2417 C2416 1.524 . S
C2417 C2418 1.397 . S
C2417 C2422 1.363 . S
C2418 H2395 0.950 . S
C2418 C2417 1.397 . S
C2418 C2419 1.334 . S
C2419 H2396 0.950 . S
C2419 C2418 1.334 . S
C2419 C2420 1.287 . S
C2420 C2419 1.287 . S
C2420 C2421 1.524 . S
C2420 H2439 0.913 . S
C2421 H2397 0.950 . S
C2421 C2420 1.524 . S
C2421 C2422 1.415 . S
C2422 H2398 0.950 . S
C2422 C2417 1.363 . S
C2422 C2421 1.415 . S
C2423 H2399 0.951 . S
C2423 C2424 1.366 . S
C2423 C2425 1.388 . S
C2424 C2423 1.366 . S
C2424 C2428 1.385 . S
C2425 H2400 0.951 . S
C2425 C2423 1.388 . S
C2425 C2426 1.366 . S
C2426 C2425 1.366 . S
C2426 C2427 1.414 . S
C2426 C2429 1.499 . S
C2427 H2401 0.950 . S
C2427 C2426 1.414 . S
C2427 C2428 1.374 . S
C2428 H2402 0.950 . S
C2428 C2424 1.385 . S
C2428 C2427 1.374 . S
C2429 C2426 1.499 . S
C2429 C2430 1.373 . S
C2429 C2431 1.389 . S
C2430 H2403 0.950 . S
C2430 C2416 1.377 . S
C2430 C2429 1.373 . S
C2431 C2415 1.377 . S
C2431 C2429 1.389 . S
C2431 C2432 1.524 . S
C2432 C2431 1.524 . S
C2432 C2433 1.397 . S
C2432 C2437 1.363 . S
C2433 H2404 0.950 . S
C2433 C2432 1.397 . S
C2433 C2434 1.334 . S
C2434 H2405 0.950 . S
C2434 C2433 1.334 . S
C2434 C2435 1.287 . S
C2435 C2434 1.287 . S
C2435 C2436 1.524 . S
C2435 H2438 0.999 1_554 S
C2436 H2406 0.950 . S
C2436 C2435 1.524 . S
C2436 C2437 1.415 . S
C2437 H2407 0.950 . S
C2437 C2432 1.363 . S
C2437 C2436 1.415 . S
H2438 C2435 0.999 1_556 S
H2439 C2420 0.913 . S
H2440 C2458 0.951 . S
H2441 C2460 0.951 . S
H2442 C2462 0.950 . S
H2443 C2463 0.950 . S
H2444 C2465 0.950 . S
H2445 C2468 0.950 . S
H2446 C2469 0.950 . S
H2447 C2471 0.950 . S
H2448 C2472 0.950 . S
H2449 C2473 0.951 . S
H2450 C2475 0.951 . S
H2451 C2477 0.950 . S
H2452 C2478 0.985 . S
H2453 C2480 0.950 . S
H2454 C2483 0.950 . S
H2455 C2484 0.950 . S
H2456 C2486 0.950 . S
H2457 C2487 0.950 . S
C2458 H2440 0.951 . S
C2458 C2459 1.366 . S
C2458 C2460 1.388 . S
C2459 C2458 1.366 . S
C2459 C2463 1.385 . S
C2460 H2441 0.951 . S
C2460 C2458 1.388 . S
C2460 C2461 1.366 . S
C2461 C2460 1.366 . S
C2461 C2462 1.414 . S
C2461 C2464 1.499 . S
C2462 H2442 0.950 . S
C2462 C2461 1.414 . S
C2462 C2463 1.374 . S
C2463 H2443 0.950 . S
C2463 C2459 1.385 . S
C2463 C2462 1.374 . S
C2464 C2461 1.499 . S
C2464 C2465 1.373 . S
C2464 C2466 1.389 . S
C2465 H2444 0.950 . S
C2465 C2464 1.373 . S
C2465 C2481 1.377 . S
C2466 C2464 1.389 . S
C2466 C2467 1.524 . S
C2466 C2480 1.377 . S
C2467 C2466 1.524 . S
C2467 C2468 1.397 . S
C2467 C2472 1.363 . S
C2468 H2445 0.950 . S
C2468 C2467 1.397 . S
C2468 C2469 1.334 . S
C2469 H2446 0.950 . S
C2469 C2468 1.334 . S
C2469 C2470 1.287 . S
C2470 C2469 1.287 . S
C2470 C2471 1.524 . S
C2470 H2489 0.913 . S
C2471 H2447 0.950 . S
C2471 C2470 1.524 . S
C2471 C2472 1.415 . S
C2472 H2448 0.950 . S
C2472 C2467 1.363 . S
C2472 C2471 1.415 . S
C2473 H2449 0.951 . S
C2473 C2474 1.366 . S
C2473 C2475 1.388 . S
C2474 C2473 1.366 . S
C2474 C2478 1.385 . S
C2475 H2450 0.951 . S
C2475 C2473 1.388 . S
C2475 C2476 1.366 . S
C2476 C2475 1.366 . S
C2476 C2477 1.414 . S
C2476 C2479 1.499 . S
C2477 H2451 0.950 . S
C2477 C2476 1.414 . S
C2477 C2478 1.374 . S
C2478 H2452 0.985 . S
C2478 C2474 1.385 . S
C2478 C2477 1.374 . S
C2479 C2476 1.499 . S
C2479 C2480 1.373 . S
C2479 C2481 1.389 . S
C2480 H2453 0.950 . S
C2480 C2466 1.377 . S
C2480 C2479 1.373 . S
C2481 C2465 1.377 . S
C2481 C2479 1.389 . S
C2481 C2482 1.524 . S
C2482 C2481 1.524 . S
C2482 C2483 1.397 . S
C2482 C2487 1.363 . S
C2483 H2454 0.950 . S
C2483 C2482 1.397 . S
C2483 C2484 1.334 . S
C2484 H2455 0.950 . S
C2484 C2483 1.334 . S
C2484 C2485 1.287 . S
C2485 C2484 1.287 . S
C2485 C2486 1.524 . S
C2485 H2488 0.999 . S
C2486 H2456 0.950 . S
C2486 C2485 1.524 . S
C2486 C2487 1.415 . S
C2487 H2457 0.950 . S
C2487 C2482 1.363 . S
C2487 C2486 1.415 . S
H2488 C2485 0.999 . S
H2489 C2470 0.913 . S
H2490 C2508 0.951 . S
H2491 C2510 0.951 . S
H2492 C2512 0.950 . S
H2493 C2513 0.950 . S
H2494 C2515 0.950 . S
H2495 C2518 0.923 1_554 S
H2496 C2519 0.950 . S
H2497 C2521 0.950 . S
H2498 C2522 0.950 . S
H2499 C2523 0.951 . S
H2500 C2525 0.951 . S
H2501 C2527 0.950 1_556 S
H2502 C2528 0.921 1_556 S
H2503 C2530 0.950 1_556 S
H2504 C2533 0.950 . S
H2505 C2534 0.950 . S
H2506 C2536 0.950 . S
H2507 C2537 0.950 . S
C2508 H2490 0.951 . S
C2508 C2509 1.366 . S
C2508 C2510 1.388 . S
C2509 C2508 1.366 . S
C2509 C2513 1.385 . S
C2510 H2491 0.951 . S
C2510 C2508 1.388 . S
C2510 C2511 1.366 . S
C2511 C2510 1.366 . S
C2511 C2512 1.414 . S
C2511 C2514 1.499 . S
C2512 H2492 0.950 . S
C2512 C2511 1.414 . S
C2512 C2513 1.374 . S
C2513 H2493 0.950 . S
C2513 C2509 1.385 . S
C2513 C2512 1.374 . S
C2514 C2511 1.499 . S
C2514 C2515 1.373 . S
C2514 C2516 1.389 . S
C2515 H2494 0.950 . S
C2515 C2514 1.373 . S
C2515 C2531 1.377 . S
C2516 C2514 1.389 . S
C2516 C2517 1.524 1_554 S
C2516 C2530 1.377 . S
C2517 C2516 1.524 1_556 S
C2517 C2518 1.397 . S
C2517 C2522 1.363 . S
C2518 H2495 0.923 1_556 S
C2518 C2517 1.397 . S
C2518 C2519 1.334 . S
C2519 H2496 0.950 . S
C2519 C2518 1.334 . S
C2519 C2520 1.287 . S
C2520 C2519 1.287 . S
C2520 C2521 1.524 . S
C2520 H2539 0.913 . S
C2521 H2497 0.950 . S
C2521 C2520 1.524 . S
C2521 C2522 1.415 . S
C2522 H2498 0.950 . S
C2522 C2517 1.363 . S
C2522 C2521 1.415 . S
C2523 H2499 0.951 . S
C2523 C2524 1.366 . S
C2523 C2525 1.388 . S
C2524 C2523 1.366 . S
C2524 C2528 1.402 . S
C2525 H2500 0.951 . S
C2525 C2523 1.388 . S
C2525 C2526 1.366 . S
C2526 C2525 1.366 . S
C2526 C2527 1.414 . S
C2526 C2529 1.499 . S
C2527 H2501 0.950 1_554 S
C2527 C2526 1.414 . S
C2527 C2528 1.386 . S
C2528 H2502 0.921 1_554 S
C2528 C2524 1.402 . S
C2528 C2527 1.386 . S
C2529 C2526 1.499 . S
C2529 C2530 1.373 . S
C2529 C2531 1.389 . S
C2530 H2503 0.950 1_554 S
C2530 C2516 1.377 . S
C2530 C2529 1.373 . S
C2531 C2515 1.377 . S
C2531 C2529 1.389 . S
C2531 C2532 1.524 . S
C2532 C2531 1.524 . S
C2532 C2533 1.397 . S
C2532 C2537 1.363 . S
C2533 H2504 0.950 . S
C2533 C2532 1.397 . S
C2533 C2534 1.334 . S
C2534 H2505 0.950 . S
C2534 C2533 1.334 . S
C2534 C2535 1.287 . S
C2535 C2534 1.287 . S
C2535 C2536 1.524 . S
C2535 H2538 0.999 . S
C2536 H2506 0.950 . S
C2536 C2535 1.524 . S
C2536 C2537 1.415 . S
C2537 H2507 0.950 . S
C2537 C2532 1.363 . S
C2537 C2536 1.415 . S
H2538 C2535 0.999 . S
H2539 C2520 0.913 . S
H2540 C2558 0.951 . S
H2541 C2560 0.951 . S
H2542 C2562 0.950 . S
H2543 C2563 0.950 . S
H2544 C2565 0.950 . S
H2545 C2568 0.950 . S
H2546 C2569 0.950 . S
H2547 C2571 0.950 . S
H2548 C2572 0.950 . S
H2549 C2573 0.951 . S
H2550 C2575 0.951 . S
H2551 C2577 0.950 . S
H2552 C2578 0.950 . S
H2553 C2580 0.950 . S
H2554 C2583 0.950 . S
H2555 C2584 0.950 . S
H2556 C2586 0.950 . S
H2557 C2587 0.950 . S
C2558 H2540 0.951 . S
C2558 C2559 1.366 . S
C2558 C2560 1.388 . S
C2559 C2558 1.366 . S
C2559 C2563 1.385 . S
C2560 H2541 0.951 . S
C2560 C2558 1.388 . S
C2560 C2561 1.366 . S
C2561 C2560 1.366 . S
C2561 C2562 1.414 . S
C2561 C2564 1.499 . S
C2562 H2542 0.950 . S
C2562 C2561 1.414 . S
C2562 C2563 1.374 . S
C2563 H2543 0.950 . S
C2563 C2559 1.385 . S
C2563 C2562 1.374 . S
C2564 C2561 1.499 . S
C2564 C2565 1.373 . S
C2564 C2566 1.389 . S
C2565 H2544 0.950 . S
C2565 C2564 1.373 . S
C2565 C2581 1.377 . S
C2566 C2564 1.389 . S
C2566 C2567 1.524 . S
C2566 C2580 1.377 . S
C2567 C2566 1.524 . S
C2567 C2568 1.397 . S
C2567 C2572 1.363 . S
C2568 H2545 0.950 . S
C2568 C2567 1.397 . S
C2568 C2569 1.334 . S
C2569 H2546 0.950 . S
C2569 C2568 1.334 . S
C2569 C2570 1.287 . S
C2570 C2569 1.287 . S
C2570 C2571 1.524 . S
C2570 H2589 0.913 . S
C2571 H2547 0.950 . S
C2571 C2570 1.524 . S
C2571 C2572 1.415 . S
C2572 H2548 0.950 . S
C2572 C2567 1.363 . S
C2572 C2571 1.415 . S
C2573 H2549 0.951 . S
C2573 C2574 1.366 . S
C2573 C2575 1.388 . S
C2574 C2573 1.366 . S
C2574 C2578 1.385 . S
C2575 H2550 0.951 . S
C2575 C2573 1.388 . S
C2575 C2576 1.366 . S
C2576 C2575 1.366 . S
C2576 C2577 1.414 . S
C2576 C2579 1.499 . S
C2577 H2551 0.950 . S
C2577 C2576 1.414 . S
C2577 C2578 1.374 . S
C2578 H2552 0.950 . S
C2578 C2574 1.385 . S
C2578 C2577 1.374 . S
C2579 C2576 1.499 . S
C2579 C2580 1.373 . S
C2579 C2581 1.389 . S
C2580 H2553 0.950 . S
C2580 C2566 1.377 . S
C2580 C2579 1.373 . S
C2581 C2565 1.377 . S
C2581 C2579 1.389 . S
C2581 C2582 1.524 . S
C2582 C2581 1.524 . S
C2582 C2583 1.397 . S
C2582 C2587 1.363 . S
C2583 H2554 0.950 . S
C2583 C2582 1.397 . S
C2583 C2584 1.334 . S
C2584 H2555 0.950 . S
C2584 C2583 1.334 . S
C2584 C2585 1.287 . S
C2585 C2584 1.287 . S
C2585 C2586 1.524 . S
C2585 H2588 0.999 . S
C2586 H2556 0.950 . S
C2586 C2585 1.524 . S
C2586 C2587 1.415 . S
C2587 H2557 0.950 . S
C2587 C2582 1.363 . S
C2587 C2586 1.415 . S
H2588 C2585 0.999 . S
H2589 C2570 0.913 . S
H2590 C2608 0.951 . S
H2591 C2610 0.951 . S
H2592 C2612 0.950 . S
H2593 C2613 0.950 . S
H2594 C2615 0.950 . S
H2595 C2618 0.950 . S
H2596 C2619 0.950 . S
H2597 C2621 0.950 . S
H2598 C2622 0.950 . S
H2599 C2623 0.951 . S
H2600 C2625 0.951 . S
H2601 C2627 0.950 . S
H2602 C2628 0.950 . S
H2603 C2630 0.950 . S
H2604 C2633 0.950 . S
H2605 C2634 0.950 . S
H2606 C2636 0.950 . S
H2607 C2637 0.950 . S
C2608 H2590 0.951 . S
C2608 C2609 1.366 . S
C2608 C2610 1.388 . S
C2609 C2608 1.366 . S
C2609 C2613 1.385 . S
C2610 H2591 0.951 . S
C2610 C2608 1.388 . S
C2610 C2611 1.366 . S
C2611 C2610 1.366 . S
C2611 C2612 1.414 . S
C2611 C2614 1.499 . S
C2612 H2592 0.950 . S
C2612 C2611 1.414 . S
C2612 C2613 1.374 . S
C2613 H2593 0.950 . S
C2613 C2609 1.385 . S
C2613 C2612 1.374 . S
C2614 C2611 1.499 . S
C2614 C2615 1.373 . S
C2614 C2616 1.389 . S
C2615 H2594 0.950 . S
C2615 C2614 1.373 . S
C2615 C2631 1.377 . S
C2616 C2614 1.389 . S
C2616 C2617 1.524 . S
C2616 C2630 1.377 . S
C2617 C2616 1.524 . S
C2617 C2618 1.397 . S
C2617 C2622 1.363 . S
C2618 H2595 0.950 . S
C2618 C2617 1.397 . S
C2618 C2619 1.334 . S
C2619 H2596 0.950 . S
C2619 C2618 1.334 . S
C2619 C2620 1.287 . S
C2620 C2619 1.287 . S
C2620 C2621 1.524 . S
C2620 H2639 0.913 . S
C2621 H2597 0.950 . S
C2621 C2620 1.524 . S
C2621 C2622 1.415 . S
C2622 H2598 0.950 . S
C2622 C2617 1.363 . S
C2622 C2621 1.415 . S
C2623 H2599 0.951 . S
C2623 C2624 1.366 . S
C2623 C2625 1.388 . S
C2624 C2623 1.366 . S
C2624 C2628 1.385 . S
C2625 H2600 0.951 . S
C2625 C2623 1.388 . S
C2625 C2626 1.366 . S
C2626 C2625 1.366 . S
C2626 C2627 1.414 . S
C2626 C2629 1.499 . S
C2627 H2601 0.950 . S
C2627 C2626 1.414 . S
C2627 C2628 1.374 . S
C2628 H2602 0.950 . S
C2628 C2624 1.385 . S
C2628 C2627 1.374 . S
C2629 C2626 1.499 . S
C2629 C2630 1.373 . S
C2629 C2631 1.389 . S
C2630 H2603 0.950 . S
C2630 C2616 1.377 . S
C2630 C2629 1.373 . S
C2631 C2615 1.377 . S
C2631 C2629 1.389 . S
C2631 C2632 1.524 . S
C2632 C2631 1.524 . S
C2632 C2633 1.397 . S
C2632 C2637 1.363 . S
C2633 H2604 0.950 . S
C2633 C2632 1.397 . S
C2633 C2634 1.334 . S
C2634 H2605 0.950 . S
C2634 C2633 1.334 . S
C2634 C2635 1.287 . S
C2635 C2634 1.287 . S
C2635 C2636 1.524 . S
C2635 H2638 0.999 . S
C2636 H2606 0.950 . S
C2636 C2635 1.524 . S
C2636 C2637 1.415 . S
C2637 H2607 0.950 . S
C2637 C2632 1.363 . S
C2637 C2636 1.415 . S
H2638 C2635 0.999 . S
H2639 C2620 0.913 . S
H2640 C2658 0.951 . S
H2641 C2660 0.951 . S
H2642 C2662 0.950 . S
H2643 C2663 0.950 . S
H2644 C2665 0.950 . S
H2645 C2668 0.950 . S
H2646 C2669 0.950 . S
H2647 C2671 0.950 . S
H2648 C2672 0.950 . S
H2649 C2673 0.951 . S
H2650 C2675 0.951 . S
H2651 C2677 0.950 . S
H2652 C2678 0.950 . S
H2653 C2680 0.950 . S
H2654 C2683 0.950 . S
H2655 C2684 0.950 . S
H2656 C2686 0.950 . S
H2657 C2687 0.950 . S
C2658 H2640 0.951 . S
C2658 C2659 1.366 . S
C2658 C2660 1.388 . S
C2659 C2658 1.366 . S
C2659 C2663 1.385 . S
C2660 H2641 0.951 . S
C2660 C2658 1.388 . S
C2660 C2661 1.366 . S
C2661 C2660 1.366 . S
C2661 C2662 1.414 . S
C2661 C2664 1.499 . S
C2662 H2642 0.950 . S
C2662 C2661 1.414 . S
C2662 C2663 1.374 . S
C2663 H2643 0.950 . S
C2663 C2659 1.385 . S
C2663 C2662 1.374 . S
C2664 C2661 1.499 . S
C2664 C2665 1.373 . S
C2664 C2666 1.389 . S
C2665 H2644 0.950 . S
C2665 C2664 1.373 . S
C2665 C2681 1.377 . S
C2666 C2664 1.389 . S
C2666 C2667 1.524 . S
C2666 C2680 1.377 . S
C2667 C2666 1.524 . S
C2667 C2668 1.397 . S
C2667 C2672 1.363 . S
C2668 H2645 0.950 . S
C2668 C2667 1.397 . S
C2668 C2669 1.334 . S
C2669 H2646 0.950 . S
C2669 C2668 1.334 . S
C2669 C2670 1.287 . S
C2670 C2669 1.287 . S
C2670 C2671 1.524 . S
C2670 H2689 0.913 . S
C2671 H2647 0.950 . S
C2671 C2670 1.524 . S
C2671 C2672 1.415 . S
C2672 H2648 0.950 . S
C2672 C2667 1.363 . S
C2672 C2671 1.415 . S
C2673 H2649 0.951 . S
C2673 C2674 1.366 . S
C2673 C2675 1.388 . S
C2674 C2673 1.366 . S
C2674 C2678 1.385 . S
C2675 H2650 0.951 . S
C2675 C2673 1.388 . S
C2675 C2676 1.366 . S
C2676 C2675 1.366 . S
C2676 C2677 1.414 . S
C2676 C2679 1.499 . S
C2677 H2651 0.950 . S
C2677 C2676 1.414 . S
C2677 C2678 1.374 . S
C2678 H2652 0.950 . S
C2678 C2674 1.385 . S
C2678 C2677 1.374 . S
C2679 C2676 1.499 . S
C2679 C2680 1.373 . S
C2679 C2681 1.389 . S
C2680 H2653 0.950 . S
C2680 C2666 1.377 . S
C2680 C2679 1.373 . S
C2681 C2665 1.377 . S
C2681 C2679 1.389 . S
C2681 C2682 1.524 . S
C2682 C2681 1.524 . S
C2682 C2683 1.397 . S
C2682 C2687 1.363 . S
C2683 H2654 0.950 . S
C2683 C2682 1.397 . S
C2683 C2684 1.334 . S
C2684 H2655 0.950 . S
C2684 C2683 1.334 . S
C2684 C2685 1.287 . S
C2685 C2684 1.287 . S
C2685 C2686 1.524 . S
C2685 H2688 0.999 . S
C2686 H2656 0.950 . S
C2686 C2685 1.524 . S
C2686 C2687 1.415 . S
C2687 H2657 0.950 . S
C2687 C2682 1.363 . S
C2687 C2686 1.415 . S
H2688 C2685 0.999 . S
H2689 C2670 0.913 . S
H2690 C2708 0.951 . S
H2691 C2710 0.951 . S
H2692 C2712 0.950 . S
H2693 C2713 0.950 . S
H2694 C2715 0.950 . S
H2695 C2718 0.950 . S
H2696 C2719 0.950 . S
H2697 C2721 0.950 . S
H2698 C2722 0.950 . S
H2699 C2723 0.951 . S
H2700 C2725 0.951 . S
H2701 C2727 0.950 . S
H2702 C2728 0.950 . S
H2703 C2730 0.950 . S
H2704 C2733 0.950 . S
H2705 C2734 0.950 . S
H2706 C2736 0.950 . S
H2707 C2737 0.950 . S
C2708 H2690 0.951 . S
C2708 C2709 1.366 . S
C2708 C2710 1.388 . S
C2709 C2708 1.366 . S
C2709 C2713 1.385 . S
C2710 H2691 0.951 . S
C2710 C2708 1.388 . S
C2710 C2711 1.366 . S
C2711 C2710 1.366 . S
C2711 C2712 1.414 . S
C2711 C2714 1.499 . S
C2712 H2692 0.950 . S
C2712 C2711 1.414 . S
C2712 C2713 1.374 . S
C2713 H2693 0.950 . S
C2713 C2709 1.385 . S
C2713 C2712 1.374 . S
C2714 C2711 1.499 . S
C2714 C2715 1.373 . S
C2714 C2716 1.389 . S
C2715 H2694 0.950 . S
C2715 C2714 1.373 . S
C2715 C2731 1.377 . S
C2716 C2714 1.389 . S
C2716 C2717 1.524 . S
C2716 C2730 1.377 . S
C2717 C2716 1.524 . S
C2717 C2718 1.397 . S
C2717 C2722 1.363 . S
C2718 H2695 0.950 . S
C2718 C2717 1.397 . S
C2718 C2719 1.334 . S
C2719 H2696 0.950 . S
C2719 C2718 1.334 . S
C2719 C2720 1.287 . S
C2720 C2719 1.287 . S
C2720 C2721 1.524 . S
C2720 H2739 0.913 . S
C2721 H2697 0.950 . S
C2721 C2720 1.524 . S
C2721 C2722 1.415 . S
C2722 H2698 0.950 . S
C2722 C2717 1.363 . S
C2722 C2721 1.415 . S
C2723 H2699 0.951 . S
C2723 C2724 1.366 . S
C2723 C2725 1.388 . S
C2724 C2723 1.366 . S
C2724 C2728 1.385 . S
C2725 H2700 0.951 . S
C2725 C2723 1.388 . S
C2725 C2726 1.366 . S
C2726 C2725 1.366 . S
C2726 C2727 1.414 . S
C2726 C2729 1.499 . S
C2727 H2701 0.950 . S
C2727 C2726 1.414 . S
C2727 C2728 1.374 . S
C2728 H2702 0.950 . S
C2728 C2724 1.385 . S
C2728 C2727 1.374 . S
C2729 C2726 1.499 . S
C2729 C2730 1.373 . S
C2729 C2731 1.389 . S
C2730 H2703 0.950 . S
C2730 C2716 1.377 . S
C2730 C2729 1.373 . S
C2731 C2715 1.377 . S
C2731 C2729 1.389 . S
C2731 C2732 1.524 . S
C2732 C2731 1.524 . S
C2732 C2733 1.397 . S
C2732 C2737 1.363 . S
C2733 H2704 0.950 . S
C2733 C2732 1.397 . S
C2733 C2734 1.334 . S
C2734 H2705 0.950 . S
C2734 C2733 1.334 . S
C2734 C2735 1.287 . S
C2735 C2734 1.287 . S
C2735 C2736 1.524 . S
C2735 H2738 0.999 . S
C2736 H2706 0.950 . S
C2736 C2735 1.524 . S
C2736 C2737 1.415 . S
C2737 H2707 0.950 . S
C2737 C2732 1.363 . S
C2737 C2736 1.415 . S
H2738 C2735 0.999 . S
H2739 C2720 0.913 . S
H2740 C2758 0.951 . S
H2741 C2760 0.951 . S
H2742 C2762 0.950 . S
H2743 C2763 0.950 . S
H2744 C2765 0.950 . S
H2745 C2768 0.950 . S
H2746 C2769 0.950 . S
H2747 C2771 0.950 . S
H2748 C2772 0.950 . S
H2749 C2773 0.951 . S
H2750 C2775 0.951 . S
H2751 C2777 0.950 . S
H2752 C2778 0.950 . S
H2753 C2780 0.950 . S
H2754 C2783 0.950 . S
H2755 C2784 0.950 . S
H2756 C2786 0.950 . S
H2757 C2787 0.950 . S
C2758 H2740 0.951 . S
C2758 C2759 1.366 . S
C2758 C2760 1.388 . S
C2759 C2758 1.366 . S
C2759 C2763 1.385 . S
C2760 H2741 0.951 . S
C2760 C2758 1.388 . S
C2760 C2761 1.366 . S
C2761 C2760 1.366 . S
C2761 C2762 1.414 . S
C2761 C2764 1.499 . S
C2762 H2742 0.950 . S
C2762 C2761 1.414 . S
C2762 C2763 1.374 . S
C2763 H2743 0.950 . S
C2763 C2759 1.385 . S
C2763 C2762 1.374 . S
C2764 C2761 1.499 . S
C2764 C2765 1.373 . S
C2764 C2766 1.389 . S
C2765 H2744 0.950 . S
C2765 C2764 1.373 . S
C2765 C2781 1.377 . S
C2766 C2764 1.389 . S
C2766 C2767 1.524 1_556 S
C2766 C2780 1.377 . S
C2767 C2766 1.524 1_554 S
C2767 C2768 1.397 . S
C2767 C2772 1.363 . S
C2768 H2745 0.950 . S
C2768 C2767 1.397 . S
C2768 C2769 1.334 . S
C2769 H2746 0.950 . S
C2769 C2768 1.334 . S
C2769 C2770 1.287 . S
C2770 C2769 1.287 . S
C2770 C2771 1.524 . S
C2770 H2789 0.913 . S
C2771 H2747 0.950 . S
C2771 C2770 1.524 . S
C2771 C2772 1.415 . S
C2772 H2748 0.950 . S
C2772 C2767 1.363 . S
C2772 C2771 1.415 . S
C2773 H2749 0.951 . S
C2773 C2774 1.366 . S
C2773 C2775 1.388 . S
C2774 C2773 1.366 . S
C2774 C2778 1.385 . S
C2775 H2750 0.951 . S
C2775 C2773 1.388 . S
C2775 C2776 1.366 . S
C2776 C2775 1.366 . S
C2776 C2777 1.414 . S
C2776 C2779 1.499 . S
C2777 H2751 0.950 . S
C2777 C2776 1.414 . S
C2777 C2778 1.374 . S
C2778 H2752 0.950 . S
C2778 C2774 1.385 . S
C2778 C2777 1.374 . S
C2779 C2776 1.499 . S
C2779 C2780 1.373 . S
C2779 C2781 1.389 . S
C2780 H2753 0.950 . S
C2780 C2766 1.377 . S
C2780 C2779 1.373 . S
C2781 C2765 1.377 . S
C2781 C2779 1.389 . S
C2781 C2782 1.524 . S
C2782 C2781 1.524 . S
C2782 C2783 1.397 . S
C2782 C2787 1.363 . S
C2783 H2754 0.950 . S
C2783 C2782 1.397 . S
C2783 C2784 1.334 . S
C2784 H2755 0.950 . S
C2784 C2783 1.334 . S
C2784 C2785 1.287 . S
C2785 C2784 1.287 . S
C2785 C2786 1.524 . S
C2785 H2788 0.999 . S
C2786 H2756 0.950 . S
C2786 C2785 1.524 . S
C2786 C2787 1.415 . S
C2787 H2757 0.950 . S
C2787 C2782 1.363 . S
C2787 C2786 1.415 . S
H2788 C2785 0.999 . S
H2789 C2770 0.913 . S
H2790 C2808 0.951 . S
H2791 C2810 0.951 . S
H2792 C2812 0.950 . S
H2793 C2813 0.950 . S
H2794 C2815 0.950 . S
H2795 C2818 0.950 . S
H2796 C2819 0.950 . S
H2797 C2821 0.950 . S
H2798 C2822 0.950 . S
H2799 C2823 0.951 . S
H2800 C2825 0.951 . S
H2801 C2827 0.950 . S
H2802 C2828 0.950 . S
H2803 C2830 0.950 . S
H2804 C2833 0.950 . S
H2805 C2834 0.950 . S
H2806 C2836 0.950 . S
H2807 C2837 0.950 . S
C2808 H2790 0.951 . S
C2808 C2809 1.366 . S
C2808 C2810 1.388 . S
C2809 C2808 1.366 . S
C2809 C2813 1.385 . S
C2810 H2791 0.951 . S
C2810 C2808 1.388 . S
C2810 C2811 1.366 . S
C2811 C2810 1.366 . S
C2811 C2812 1.414 . S
C2811 C2814 1.499 . S
C2812 H2792 0.950 . S
C2812 C2811 1.414 . S
C2812 C2813 1.374 . S
C2813 H2793 0.950 . S
C2813 C2809 1.385 . S
C2813 C2812 1.374 . S
C2814 C2811 1.499 . S
C2814 C2815 1.373 . S
C2814 C2816 1.389 . S
C2815 H2794 0.950 . S
C2815 C2814 1.373 . S
C2815 C2831 1.377 . S
C2816 C2814 1.389 . S
C2816 C2817 1.524 . S
C2816 C2830 1.377 . S
C2817 C2816 1.524 . S
C2817 C2818 1.397 . S
C2817 C2822 1.363 . S
C2818 H2795 0.950 . S
C2818 C2817 1.397 . S
C2818 C2819 1.334 . S
C2819 H2796 0.950 . S
C2819 C2818 1.334 . S
C2819 C2820 1.287 . S
C2820 C2819 1.287 . S
C2820 C2821 1.524 . S
C2820 H2839 0.913 . S
C2821 H2797 0.950 . S
C2821 C2820 1.524 . S
C2821 C2822 1.415 . S
C2822 H2798 0.950 . S
C2822 C2817 1.363 . S
C2822 C2821 1.415 . S
C2823 H2799 0.951 . S
C2823 C2824 1.366 . S
C2823 C2825 1.388 . S
C2824 C2823 1.366 . S
C2824 C2828 1.385 . S
C2825 H2800 0.951 . S
C2825 C2823 1.388 . S
C2825 C2826 1.366 . S
C2826 C2825 1.366 . S
C2826 C2827 1.414 . S
C2826 C2829 1.499 . S
C2827 H2801 0.950 . S
C2827 C2826 1.414 . S
C2827 C2828 1.374 . S
C2828 H2802 0.950 . S
C2828 C2824 1.385 . S
C2828 C2827 1.374 . S
C2829 C2826 1.499 . S
C2829 C2830 1.373 . S
C2829 C2831 1.389 . S
C2830 H2803 0.950 . S
C2830 C2816 1.377 . S
C2830 C2829 1.373 . S
C2831 C2815 1.377 . S
C2831 C2829 1.389 . S
C2831 C2832 1.524 . S
C2832 C2831 1.524 . S
C2832 C2833 1.397 . S
C2832 C2837 1.363 . S
C2833 H2804 0.950 . S
C2833 C2832 1.397 . S
C2833 C2834 1.334 . S
C2834 H2805 0.950 . S
C2834 C2833 1.334 . S
C2834 C2835 1.287 . S
C2835 C2834 1.287 . S
C2835 C2836 1.524 . S
C2835 H2838 0.999 . S
C2836 H2806 0.950 . S
C2836 C2835 1.524 . S
C2836 C2837 1.415 . S
C2837 H2807 0.950 . S
C2837 C2832 1.363 . S
C2837 C2836 1.415 . S
H2838 C2835 0.999 . S
H2839 C2820 0.913 . S
H2840 C2858 0.951 . S
H2841 C2860 0.951 . S
H2842 C2862 0.950 . S
H2843 C2863 0.950 . S
H2844 C2865 0.950 . S
H2845 C2868 0.950 . S
H2846 C2869 0.950 . S
H2847 C2871 0.950 . S
H2848 C2872 0.950 . S
H2849 C2873 0.951 . S
H2850 C2875 0.951 . S
H2851 C2877 0.950 . S
H2852 C2878 0.950 . S
H2853 C2880 0.950 . S
H2854 C2883 0.950 . S
H2855 C2884 0.950 . S
H2856 C2886 0.950 . S
H2857 C2887 0.950 . S
C2858 H2840 0.951 . S
C2858 C2859 1.366 . S
C2858 C2860 1.388 . S
C2859 C2858 1.366 . S
C2859 C2863 1.385 . S
C2860 H2841 0.951 . S
C2860 C2858 1.388 . S
C2860 C2861 1.366 . S
C2861 C2860 1.366 . S
C2861 C2862 1.414 . S
C2861 C2864 1.499 . S
C2862 H2842 0.950 . S
C2862 C2861 1.414 . S
C2862 C2863 1.374 . S
C2863 H2843 0.950 . S
C2863 C2859 1.385 . S
C2863 C2862 1.374 . S
C2864 C2861 1.499 . S
C2864 C2865 1.373 . S
C2864 C2866 1.389 . S
C2865 H2844 0.950 . S
C2865 C2864 1.373 . S
C2865 C2881 1.377 . S
C2866 C2864 1.389 . S
C2866 C2867 1.524 . S
C2866 C2880 1.377 . S
C2867 C2866 1.524 . S
C2867 C2868 1.397 . S
C2867 C2872 1.363 . S
C2868 H2845 0.950 . S
C2868 C2867 1.397 . S
C2868 C2869 1.334 . S
C2869 H2846 0.950 . S
C2869 C2868 1.334 . S
C2869 C2870 1.287 . S
C2870 C2869 1.287 . S
C2870 C2871 1.524 . S
C2870 H2889 0.913 . S
C2871 H2847 0.950 . S
C2871 C2870 1.524 . S
C2871 C2872 1.415 . S
C2872 H2848 0.950 . S
C2872 C2867 1.363 . S
C2872 C2871 1.415 . S
C2873 H2849 0.951 . S
C2873 C2874 1.366 . S
C2873 C2875 1.388 . S
C2874 C2873 1.366 . S
C2874 C2878 1.385 . S
C2875 H2850 0.951 . S
C2875 C2873 1.388 . S
C2875 C2876 1.366 . S
C2876 C2875 1.366 . S
C2876 C2877 1.414 . S
C2876 C2879 1.499 . S
C2877 H2851 0.950 . S
C2877 C2876 1.414 . S
C2877 C2878 1.374 . S
C2878 H2852 0.950 . S
C2878 C2874 1.385 . S
C2878 C2877 1.374 . S
C2879 C2876 1.499 . S
C2879 C2880 1.373 . S
C2879 C2881 1.389 . S
C2880 H2853 0.950 . S
C2880 C2866 1.377 . S
C2880 C2879 1.373 . S
C2881 C2865 1.377 . S
C2881 C2879 1.389 . S
C2881 C2882 1.524 . S
C2882 C2881 1.524 . S
C2882 C2883 1.397 . S
C2882 C2887 1.363 . S
C2883 H2854 0.950 . S
C2883 C2882 1.397 . S
C2883 C2884 1.334 . S
C2884 H2855 0.950 . S
C2884 C2883 1.334 . S
C2884 C2885 1.287 . S
C2885 C2884 1.287 . S
C2885 C2886 1.524 . S
C2885 H2888 0.999 . S
C2886 H2856 0.950 . S
C2886 C2885 1.524 . S
C2886 C2887 1.415 . S
C2887 H2857 0.950 . S
C2887 C2882 1.363 . S
C2887 C2886 1.415 . S
H2888 C2885 0.999 . S
H2889 C2870 0.913 . S
H2890 C2908 0.951 . S
H2891 C2910 0.951 . S
H2892 C2912 0.950 . S
H2893 C2913 0.950 . S
H2894 C2915 0.950 . S
H2895 C2918 0.950 . S
H2896 C2919 0.950 . S
H2897 C2921 0.950 . S
H2898 C2922 0.950 . S
H2899 C2923 0.951 . S
H2900 C2925 0.951 . S
H2901 C2927 0.950 . S
H2902 C2928 0.950 1_554 S
H2903 C2930 0.950 . S
H2904 C2933 0.950 . S
H2905 C2934 0.950 . S
H2906 C2936 0.950 . S
H2907 C2937 0.950 . S
C2908 H2890 0.951 . S
C2908 C2909 1.366 . S
C2908 C2910 1.388 . S
C2909 C2908 1.366 . S
C2909 C2913 1.385 . S
C2910 H2891 0.951 . S
C2910 C2908 1.388 . S
C2910 C2911 1.366 . S
C2911 C2910 1.366 . S
C2911 C2912 1.414 . S
C2911 C2914 1.499 . S
C2912 H2892 0.950 . S
C2912 C2911 1.414 . S
C2912 C2913 1.374 . S
C2913 H2893 0.950 . S
C2913 C2909 1.385 . S
C2913 C2912 1.374 . S
C2914 C2911 1.499 . S
C2914 C2915 1.373 . S
C2914 C2916 1.389 . S
C2915 H2894 0.950 . S
C2915 C2914 1.373 . S
C2915 C2931 1.377 . S
C2916 C2914 1.389 . S
C2916 C2917 1.524 . S
C2916 C2930 1.377 . S
C2917 C2916 1.524 . S
C2917 C2918 1.397 . S
C2917 C2922 1.363 . S
C2918 H2895 0.950 . S
C2918 C2917 1.397 . S
C2918 C2919 1.334 . S
C2919 H2896 0.950 . S
C2919 C2918 1.334 . S
C2919 C2920 1.287 . S
C2920 C2919 1.287 . S
C2920 C2921 1.524 . S
C2920 H2939 0.913 . S
C2921 H2897 0.950 . S
C2921 C2920 1.524 . S
C2921 C2922 1.415 . S
C2922 H2898 0.950 . S
C2922 C2917 1.363 . S
C2922 C2921 1.415 . S
C2923 H2899 0.951 . S
C2923 C2924 1.366 . S
C2923 C2925 1.388 . S
C2924 C2923 1.366 . S
C2924 C2928 1.385 . S
C2925 H2900 0.951 . S
C2925 C2923 1.388 . S
C2925 C2926 1.366 . S
C2926 C2925 1.366 . S
C2926 C2927 1.414 . S
C2926 C2929 1.499 . S
C2927 H2901 0.950 . S
C2927 C2926 1.414 . S
C2927 C2928 1.374 . S
C2928 H2902 0.950 1_556 S
C2928 C2924 1.385 . S
C2928 C2927 1.374 . S
C2929 C2926 1.499 . S
C2929 C2930 1.373 . S
C2929 C2931 1.389 . S
C2930 H2903 0.950 . S
C2930 C2916 1.377 . S
C2930 C2929 1.373 . S
C2931 C2915 1.377 . S
C2931 C2929 1.389 . S
C2931 C2932 1.524 . S
C2932 C2931 1.524 . S
C2932 C2933 1.397 . S
C2932 C2937 1.363 . S
C2933 H2904 0.950 . S
C2933 C2932 1.397 . S
C2933 C2934 1.334 . S
C2934 H2905 0.950 . S
C2934 C2933 1.334 . S
C2934 C2935 1.287 . S
C2935 C2934 1.287 . S
C2935 C2936 1.524 . S
C2935 H2938 0.999 . S
C2936 H2906 0.950 . S
C2936 C2935 1.524 . S
C2936 C2937 1.415 . S
C2937 H2907 0.950 . S
C2937 C2932 1.363 . S
C2937 C2936 1.415 . S
H2938 C2935 0.999 . S
H2939 C2920 0.913 . S
H2940 C2958 0.951 . S
H2941 C2960 0.951 . S
H2942 C2962 0.950 . S
H2943 C2963 0.950 . S
H2944 C2965 0.950 . S
H2945 C2968 0.950 . S
H2946 C2969 0.950 . S
H2947 C2971 0.950 . S
H2948 C2972 0.950 . S
H2949 C2973 0.951 . S
H2950 C2975 0.951 . S
H2951 C2977 0.950 . S
H2952 C2978 0.950 . S
H2953 C2980 0.950 . S
H2954 C2983 0.950 . S
H2955 C2984 0.950 . S
H2956 C2986 0.950 . S
H2957 C2987 0.950 . S
C2958 H2940 0.951 . S
C2958 C2959 1.366 . S
C2958 C2960 1.388 . S
C2959 C2958 1.366 . S
C2959 C2963 1.385 . S
C2960 H2941 0.951 . S
C2960 C2958 1.388 . S
C2960 C2961 1.366 . S
C2961 C2960 1.366 . S
C2961 C2962 1.414 . S
C2961 C2964 1.499 . S
C2962 H2942 0.950 . S
C2962 C2961 1.414 . S
C2962 C2963 1.374 . S
C2963 H2943 0.950 . S
C2963 C2959 1.385 . S
C2963 C2962 1.374 . S
C2964 C2961 1.499 . S
C2964 C2965 1.373 . S
C2964 C2966 1.389 . S
C2965 H2944 0.950 . S
C2965 C2964 1.373 . S
C2965 C2981 1.377 . S
C2966 C2964 1.389 . S
C2966 C2967 1.524 . S
C2966 C2980 1.377 . S
C2967 C2966 1.524 . S
C2967 C2968 1.397 . S
C2967 C2972 1.363 . S
C2968 H2945 0.950 . S
C2968 C2967 1.397 . S
C2968 C2969 1.334 . S
C2969 H2946 0.950 . S
C2969 C2968 1.334 . S
C2969 C2970 1.287 . S
C2970 C2969 1.287 . S
C2970 C2971 1.524 . S
C2970 H2989 0.913 . S
C2971 H2947 0.950 . S
C2971 C2970 1.524 . S
C2971 C2972 1.415 . S
C2972 H2948 0.950 . S
C2972 C2967 1.363 . S
C2972 C2971 1.415 . S
C2973 H2949 0.951 . S
C2973 C2974 1.366 . S
C2973 C2975 1.388 . S
C2974 C2973 1.366 . S
C2974 C2978 1.385 . S
C2975 H2950 0.951 . S
C2975 C2973 1.388 . S
C2975 C2976 1.366 . S
C2976 C2975 1.366 . S
C2976 C2977 1.414 . S
C2976 C2979 1.499 . S
C2977 H2951 0.950 . S
C2977 C2976 1.414 . S
C2977 C2978 1.374 . S
C2978 H2952 0.950 . S
C2978 C2974 1.385 . S
C2978 C2977 1.374 . S
C2979 C2976 1.499 . S
C2979 C2980 1.373 . S
C2979 C2981 1.389 . S
C2980 H2953 0.950 . S
C2980 C2966 1.377 . S
C2980 C2979 1.373 . S
C2981 C2965 1.377 . S
C2981 C2979 1.389 . S
C2981 C2982 1.524 . S
C2982 C2981 1.524 . S
C2982 C2983 1.397 . S
C2982 C2987 1.363 . S
C2983 H2954 0.950 . S
C2983 C2982 1.397 . S
C2983 C2984 1.334 . S
C2984 H2955 0.950 . S
C2984 C2983 1.334 . S
C2984 C2985 1.287 . S
C2985 C2984 1.287 . S
C2985 C2986 1.524 . S
C2985 H2988 0.999 . S
C2986 H2956 0.950 . S
C2986 C2985 1.524 . S
C2986 C2987 1.415 . S
C2987 H2957 0.950 . S
C2987 C2982 1.363 . S
C2987 C2986 1.415 . S
H2988 C2985 0.999 . S
H2989 C2970 0.913 . S
H2990 C3008 0.951 . S
H2991 C3010 0.951 . S
H2992 C3012 0.950 . S
H2993 C3013 0.950 . S
H2994 C3015 0.950 . S
H2995 C3018 0.950 . S
H2996 C3019 0.950 . S
H2997 C3021 0.950 . S
H2998 C3022 0.950 . S
H2999 C3023 0.951 . S
H3000 C3025 0.951 . S
H3001 C3027 0.950 . S
H3002 C3028 0.950 . S
H3003 C3030 0.950 . S
H3004 C3033 0.950 . S
H3005 C3034 0.950 . S
H3006 C3036 0.950 . S
H3007 C3037 0.950 . S
C3008 H2990 0.951 . S
C3008 C3009 1.366 . S
C3008 C3010 1.388 . S
C3009 C3008 1.366 . S
C3009 C3013 1.385 . S
C3010 H2991 0.951 . S
C3010 C3008 1.388 . S
C3010 C3011 1.366 . S
C3011 C3010 1.366 . S
C3011 C3012 1.414 . S
C3011 C3014 1.499 . S
C3012 H2992 0.950 . S
C3012 C3011 1.414 . S
C3012 C3013 1.374 . S
C3013 H2993 0.950 . S
C3013 C3009 1.385 . S
C3013 C3012 1.374 . S
C3014 C3011 1.499 . S
C3014 C3015 1.373 . S
C3014 C3016 1.389 . S
C3015 H2994 0.950 . S
C3015 C3014 1.373 . S
C3015 C3031 1.377 . S
C3016 C3014 1.389 . S
C3016 C3017 1.524 . S
C3016 C3030 1.377 . S
C3017 C3016 1.524 . S
C3017 C3018 1.397 . S
C3017 C3022 1.363 . S
C3018 H2995 0.950 . S
C3018 C3017 1.397 . S
C3018 C3019 1.334 . S
C3019 H2996 0.950 . S
C3019 C3018 1.334 . S
C3019 C3020 1.287 . S
C3020 C3019 1.287 . S
C3020 C3021 1.524 . S
C3020 H3039 0.913 . S
C3021 H2997 0.950 . S
C3021 C3020 1.524 . S
C3021 C3022 1.415 . S
C3022 H2998 0.950 . S
C3022 C3017 1.363 . S
C3022 C3021 1.415 . S
C3023 H2999 0.951 . S
C3023 C3024 1.366 . S
C3023 C3025 1.388 . S
C3024 C3023 1.366 . S
C3024 C3028 1.385 . S
C3025 H3000 0.951 . S
C3025 C3023 1.388 . S
C3025 C3026 1.366 . S
C3026 C3025 1.366 . S
C3026 C3027 1.414 . S
C3026 C3029 1.499 . S
C3027 H3001 0.950 . S
C3027 C3026 1.414 . S
C3027 C3028 1.374 . S
C3028 H3002 0.950 . S
C3028 C3024 1.385 . S
C3028 C3027 1.374 . S
C3029 C3026 1.499 . S
C3029 C3030 1.373 . S
C3029 C3031 1.389 . S
C3030 H3003 0.950 . S
C3030 C3016 1.377 . S
C3030 C3029 1.373 . S
C3031 C3015 1.377 . S
C3031 C3029 1.389 . S
C3031 C3032 1.524 . S
C3032 C3031 1.524 . S
C3032 C3033 1.397 . S
C3032 C3037 1.363 . S
C3033 H3004 0.950 . S
C3033 C3032 1.397 . S
C3033 C3034 1.334 . S
C3034 H3005 0.950 . S
C3034 C3033 1.334 . S
C3034 C3035 1.287 . S
C3035 C3034 1.287 . S
C3035 C3036 1.524 . S
C3035 H3038 0.999 . S
C3036 H3006 0.950 . S
C3036 C3035 1.524 . S
C3036 C3037 1.415 . S
C3037 H3007 0.950 . S
C3037 C3032 1.363 . S
C3037 C3036 1.415 . S
H3038 C3035 0.999 . S
H3039 C3020 0.913 . S
C659 C9 0.989 . S
C674 C45 0.973 . S
C709 C88 1.297 . S
C724 C59 1.307 . S
C759 C138 1.849 . S
C774 C89 1.952 . S
C809 C8 0.530 . S
C824 C135 0.429 . S
C859 C18 0.532 . S
C874 C365 0.432 . S
C909 C299 0.989 . S
C924 C55 0.972 . S
C959 C98 1.296 . S
C974 C409 1.307 . S
C1009 C128 1.849 . S
C1024 C539 1.952 . S
C1059 C338 1.297 . S
C1074 C49 1.307 . S
C1109 C488 1.850 . S
C1124 C99 1.952 . S
C1159 C578 0.533 . S
C1174 C125 0.432 . S
C1209 C19 0.989 . S
C1224 C455 0.972 . S
C1259 C5 0.399 . S
C1274 C325 0.320 . S
C1309 C489 1.960 . S
C1324 C178 1.918 . S
C1359 C215 0.318 . S
C1374 C575 0.397 . S
C1409 C458 1.918 . S
C1424 C249 1.960 . S
C1459 C95 0.319 . S
C1474 C295 0.400 . S
C1509 C379 1.960 . S
C1524 C168 1.918 . S
C1559 C259 1.960 . S
C1574 C408 1.918 . S
C1609 C218 1.296 . S
C1624 C449 1.307 . S
C1659 C368 1.849 . S
C1674 C219 1.952 . S
C1709 C445 0.972 . S
C1724 C289 0.989 . S
C1759 C208 1.297 . S
C1774 C179 1.307 . S
C1809 C378 1.849 . S
C1824 C329 1.952 . S
C1859 C528 1.296 . S
C1874 C459 1.307 . S
C1909 C258 1.849 . S
C1924 C209 1.952 . S
C1959 C375 0.429 . S
C1974 C568 0.529 . S
C2009 C535 0.320 . S
C2024 C15 0.401 . S
C2059 C85 0.320 . S
C2074 C565 0.401 . S
C2109 C499 1.961 . S
C2124 C48 1.918 . S
C2159 C285 0.401 . S
C2174 C205 0.321 . S
C2209 C129 1.961 . S
C2224 C418 1.918 . S
C2259 C498 1.849 . S
C2274 C529 1.952 . S
C2309 C288 0.533 . S
C2324 C495 0.432 . S
C2359 C245 0.431 . S
C2374 C298 0.531 . S
C2409 C169 1.308 . S
C2424 C538 1.297 . S
C2459 C485 0.429 . S
C2474 C618 0.530 . S
C2509 C615 0.401 . S
C2524 C335 0.320 . S
C2559 C58 1.918 . S
C2574 C369 1.960 . S
C2609 C339 1.952 . S
C2624 C248 1.849 . S
C2659 C328 1.296 . S
C2674 C419 1.307 . S
C2709 C608 0.529 . S
C2724 C255 0.430 . S
C2759 C525 0.319 . S
C2774 C605 0.399 . S
C2809 C448 1.918 . S
C2824 C139 1.960 . S
C2859 C405 0.974 . S
C2874 C569 0.990 . S
C2909 C415 0.973 . S
C2924 C619 0.989 . S
C2959 C175 0.972 . S
C2974 C579 0.989 . S
C3009 C609 0.989 . S
C3024 C165 0.973 . S
