# Generated by pormake.
# Topology crs, (6)-cn, num edge types: 1
# Building blocks:
#     Node 0, Type 0, BuildingBlock: CIFDUS_clean_sbu_1, # of connection points: 6
#     Node 1, Type 0, BuildingBlock: CIFDUS_clean_sbu_1, # of connection points: 6
#     Node 2, Type 0, BuildingBlock: CIFDUS_clean_sbu_1, # of connection points: 6
#     Node 3, Type 0, BuildingBlock: CIFDUS_clean_sbu_1, # of connection points: 6
#     Node 4, Type 0, BuildingBlock: CIFDUS_clean_sbu_1, # of connection points: 6
#     Node 5, Type 0, BuildingBlock: CIFDUS_clean_sbu_1, # of connection points: 6
#     Node 6, Type 0, BuildingBlock: CIFDUS_clean_sbu_1, # of connection points: 6
#     Node 7, Type 0, BuildingBlock: CIFDUS_clean_sbu_1, # of connection points: 6
#     Node 8, Type 0, BuildingBlock: CIFDUS_clean_sbu_1, # of connection points: 6
#     Node 9, Type 0, BuildingBlock: CIFDUS_clean_sbu_1, # of connection points: 6
#     Node 10, Type 0, BuildingBlock: CIFDUS_clean_sbu_1, # of connection points: 6
#     Node 11, Type 0, BuildingBlock: CIFDUS_clean_sbu_1, # of connection points: 6
#     Node 12, Type 0, BuildingBlock: CIFDUS_clean_sbu_1, # of connection points: 6
#     Node 13, Type 0, BuildingBlock: CIFDUS_clean_sbu_1, # of connection points: 6
#     Node 14, Type 0, BuildingBlock: CIFDUS_clean_sbu_1, # of connection points: 6
#     Node 15, Type 0, BuildingBlock: CIFDUS_clean_sbu_1, # of connection points: 6
#     Edge 16, Type (0, 0), BuildingBlock: EZIPEK_clean_linker_0, # of connection points: 2
#     Edge 17, Type (0, 0), BuildingBlock: EZIPEK_clean_linker_0, # of connection points: 2
#     Edge 18, Type (0, 0), BuildingBlock: EZIPEK_clean_linker_0, # of connection points: 2
#     Edge 19, Type (0, 0), BuildingBlock: EZIPEK_clean_linker_0, # of connection points: 2
#     Edge 20, Type (0, 0), BuildingBlock: EZIPEK_clean_linker_0, # of connection points: 2
#     Edge 21, Type (0, 0), BuildingBlock: EZIPEK_clean_linker_0, # of connection points: 2
#     Edge 22, Type (0, 0), BuildingBlock: EZIPEK_clean_linker_0, # of connection points: 2
#     Edge 23, Type (0, 0), BuildingBlock: EZIPEK_clean_linker_0, # of connection points: 2
#     Edge 24, Type (0, 0), BuildingBlock: EZIPEK_clean_linker_0, # of connection points: 2
#     Edge 25, Type (0, 0), BuildingBlock: EZIPEK_clean_linker_0, # of connection points: 2
#     Edge 26, Type (0, 0), BuildingBlock: EZIPEK_clean_linker_0, # of connection points: 2
#     Edge 27, Type (0, 0), BuildingBlock: EZIPEK_clean_linker_0, # of connection points: 2
#     Edge 28, Type (0, 0), BuildingBlock: EZIPEK_clean_linker_0, # of connection points: 2
#     Edge 29, Type (0, 0), BuildingBlock: EZIPEK_clean_linker_0, # of connection points: 2
#     Edge 30, Type (0, 0), BuildingBlock: EZIPEK_clean_linker_0, # of connection points: 2
#     Edge 31, Type (0, 0), BuildingBlock: EZIPEK_clean_linker_0, # of connection points: 2
#     Edge 32, Type (0, 0), BuildingBlock: EZIPEK_clean_linker_0, # of connection points: 2
#     Edge 33, Type (0, 0), BuildingBlock: EZIPEK_clean_linker_0, # of connection points: 2
#     Edge 34, Type (0, 0), BuildingBlock: EZIPEK_clean_linker_0, # of connection points: 2
#     Edge 35, Type (0, 0), BuildingBlock: EZIPEK_clean_linker_0, # of connection points: 2
#     Edge 36, Type (0, 0), BuildingBlock: EZIPEK_clean_linker_0, # of connection points: 2
#     Edge 37, Type (0, 0), BuildingBlock: EZIPEK_clean_linker_0, # of connection points: 2
#     Edge 38, Type (0, 0), BuildingBlock: EZIPEK_clean_linker_0, # of connection points: 2
#     Edge 39, Type (0, 0), BuildingBlock: EZIPEK_clean_linker_0, # of connection points: 2
#     Edge 40, Type (0, 0), BuildingBlock: EZIPEK_clean_linker_0, # of connection points: 2
#     Edge 41, Type (0, 0), BuildingBlock: EZIPEK_clean_linker_0, # of connection points: 2
#     Edge 42, Type (0, 0), BuildingBlock: EZIPEK_clean_linker_0, # of connection points: 2
#     Edge 43, Type (0, 0), BuildingBlock: EZIPEK_clean_linker_0, # of connection points: 2
#     Edge 44, Type (0, 0), BuildingBlock: EZIPEK_clean_linker_0, # of connection points: 2
#     Edge 45, Type (0, 0), BuildingBlock: EZIPEK_clean_linker_0, # of connection points: 2
#     Edge 46, Type (0, 0), BuildingBlock: EZIPEK_clean_linker_0, # of connection points: 2
#     Edge 47, Type (0, 0), BuildingBlock: EZIPEK_clean_linker_0, # of connection points: 2
#     Edge 48, Type (0, 0), BuildingBlock: EZIPEK_clean_linker_0, # of connection points: 2
#     Edge 49, Type (0, 0), BuildingBlock: EZIPEK_clean_linker_0, # of connection points: 2
#     Edge 50, Type (0, 0), BuildingBlock: EZIPEK_clean_linker_0, # of connection points: 2
#     Edge 51, Type (0, 0), BuildingBlock: EZIPEK_clean_linker_0, # of connection points: 2
#     Edge 52, Type (0, 0), BuildingBlock: EZIPEK_clean_linker_0, # of connection points: 2
#     Edge 53, Type (0, 0), BuildingBlock: EZIPEK_clean_linker_0, # of connection points: 2
#     Edge 54, Type (0, 0), BuildingBlock: EZIPEK_clean_linker_0, # of connection points: 2
#     Edge 55, Type (0, 0), BuildingBlock: EZIPEK_clean_linker_0, # of connection points: 2
#     Edge 56, Type (0, 0), BuildingBlock: EZIPEK_clean_linker_0, # of connection points: 2
#     Edge 57, Type (0, 0), BuildingBlock: EZIPEK_clean_linker_0, # of connection points: 2
#     Edge 58, Type (0, 0), BuildingBlock: EZIPEK_clean_linker_0, # of connection points: 2
#     Edge 59, Type (0, 0), BuildingBlock: EZIPEK_clean_linker_0, # of connection points: 2
#     Edge 60, Type (0, 0), BuildingBlock: EZIPEK_clean_linker_0, # of connection points: 2
#     Edge 61, Type (0, 0), BuildingBlock: EZIPEK_clean_linker_0, # of connection points: 2
#     Edge 62, Type (0, 0), BuildingBlock: EZIPEK_clean_linker_0, # of connection points: 2
#     Edge 63, Type (0, 0), BuildingBlock: EZIPEK_clean_linker_0, # of connection points: 2
# Relax obj value: 0.276
# Max RMSD: 0.234
# Mean RMSD: 0.228
data_MOF--net-crs--node1-CIFDUS_clean_sbu_1--edge1-EZIPEK_clean_linker_0
_symmetry_space_group_name_H-M    P1
_symmetry_Int_Tables_number       1
_symmetry_cell_setting            triclinic
loop_
_symmetry_equiv_pos_as_xyz
'x, y, z'
_cell_length_a     30.80462
_cell_length_b     31.014785
_cell_length_c     31.315472
_cell_angle_alpha  90.820915
_cell_angle_beta   89.006578
_cell_angle_gamma 87.926731
loop_
_atom_site_label
_atom_site_type_symbol
_atom_site_fract_x
_atom_site_fract_y
_atom_site_fract_z
_atom_type_partial_charge
O0 O 0.9506 0.02607 0.94034 0.0
Mn1 Mn 0.98969 0.01281 0.99064 0.0
O2 O 0.88088 0.0287 0.96236 0.0
Mn3 Mn 0.89181 0.00564 0.01609 0.0
O4 O 0.033 0.00129 0.03938 0.0
O5 O 0.03565 -0.00224 0.94627 0.0
Mn6 Mn 0.0836 0.02441 0.95451 0.0
O7 O 0.00685 0.07799 -0.00732 0.0
O8 O 0.09959 0.00332 0.00712 0.0
O9 O 0.97215 0.94751 0.99178 0.0
O10 O 0.9032 0.94696 0.01786 0.0
O11 O 0.09295 0.99042 0.90569 0.0
O12 O 0.06913 0.08298 0.95481 0.0
C13 C 0.91928 0.04668 0.06377 0.0
C14 C 0.91045 0.03331 0.93393 0.0
C15 C 0.07477 -0.00202 0.03966 0.0
C16 C 0.05428 0.97772 0.91418 0.0
C17 C 0.03778 0.10008 0.97703 0.0
C18 C 0.9385 0.92774 0.00537 0.0
O19 O 0.9409 0.02782 0.03272 0.0
O20 O 0.8787 0.03746 0.06543 0.0
O21 O 0.04189 0.27271 0.19344 0.0
Mn22 Mn -0.00716 0.25442 0.23471 0.0
O23 O 0.01173 0.3117 0.14131 0.0
Mn24 Mn 0.95557 0.29376 0.15158 0.0
O25 O 0.94489 0.23382 0.27849 0.0
O26 O 0.0384 0.21573 0.26216 0.0
Mn27 Mn 0.03746 0.23198 0.31655 0.0
O28 O 0.00401 0.30734 0.27478 0.0
O29 O 0.98284 0.22198 0.33842 0.0
O30 O 0.97897 0.20464 0.19118 0.0
O31 O 0.94345 0.23739 0.13748 0.0
O32 O 0.07838 0.18846 0.31328 0.0
O33 O 0.0548 0.28824 0.32046 0.0
C34 C 0.91847 0.32184 0.20334 0.0
C35 C 0.04494 0.29587 0.16014 0.0
C36 C 0.94722 0.22315 0.31826 0.0
C37 C 0.06935 0.18874 0.27299 0.0
C38 C 0.03125 0.31723 0.30326 0.0
C39 C 0.95829 0.20345 0.15561 0.0
O40 O 0.94966 0.29372 0.20703 0.0
O41 O 0.9105 0.33285 0.16452 0.0
O42 O 0.763 0.21572 0.55465 0.0
Mn43 Mn 0.7399 0.24412 0.4995 0.0
O44 O 0.78453 0.14867 0.5354 0.0
Mn45 Mn 0.76759 0.1539 0.47934 0.0
O46 O 0.71822 0.27452 0.44423 0.0
O47 O 0.70061 0.28304 0.53767 0.0
Mn48 Mn 0.703 0.33623 0.51879 0.0
O49 O 0.79007 0.28615 0.50519 0.0
O50 O 0.68271 0.33635 0.46375 0.0
O51 O 0.68753 0.20364 0.49563 0.0
O52 O 0.71209 0.14251 0.46503 0.0
O53 O 0.66603 0.34006 0.56523 0.0
O54 O 0.76017 0.35122 0.52378 0.0
C55 C 0.80803 0.18107 0.43535 0.0
C56 C 0.78092 0.17913 0.563 0.0
C57 C 0.69662 0.30936 0.43534 0.0
C58 C 0.67422 0.29892 0.56725 0.0
C59 C 0.79294 0.32596 0.51579 0.0
C60 C 0.68107 0.16702 0.47829 0.0
O61 O 0.78167 0.20537 0.46017 0.0
O62 O 0.80702 0.13953 0.43904 0.0
O63 O 0.73752 0.9577 0.7824 0.0
Mn64 Mn 0.75106 0.00805 0.74193 0.0
O65 O 0.72645 0.99053 0.84702 0.0
Mn66 Mn 0.72537 0.04842 0.83078 0.0
O67 O 0.76667 0.06079 0.70526 0.0
O68 O 0.78825 0.9668 0.7056 0.0
Mn69 Mn 0.78386 0.98246 0.65185 0.0
O70 O 0.698 -0.00416 0.70508 0.0
O71 O 0.80925 0.03555 0.65175 0.0
O72 O 0.80435 0.02348 0.77803 0.0
O73 O 0.77894 0.07315 0.82577 0.0
O74 O 0.81981 0.93372 0.65112 0.0
O75 O 0.72507 0.98161 0.63885 0.0
C76 C 0.67658 0.06737 0.78485 0.0
C77 C 0.73093 0.95678 0.82305 0.0
C78 C 0.79647 0.0661 0.67702 0.0
C79 C 0.81471 0.93613 0.69218 0.0
C80 C 0.69334 0.98771 0.66531 0.0
C81 C 0.81015 0.05538 0.80376 0.0
O82 O 0.71208 0.04617 0.77696 0.0
O83 O 0.67248 0.07905 0.82453 0.0
O84 O 0.54802 0.77043 0.19162 0.0
Mn85 Mn 0.50194 0.75431 0.23784 0.0
O86 O 0.51333 0.79589 0.13465 0.0
Mn87 Mn 0.46043 0.77289 0.15019 0.0
O88 O 0.45784 0.73649 0.28586 0.0
O89 O 0.54945 0.72793 0.27074 0.0
Mn90 Mn 0.55201 0.74788 0.32343 0.0
O91 O 0.50921 0.81379 0.27022 0.0
O92 O 0.49695 0.73784 0.34645 0.0
O93 O 0.4947 0.69547 0.20406 0.0
O94 O 0.45636 0.71391 0.14579 0.0
O95 O 0.59301 0.70204 0.31678 0.0
O96 O 0.56171 0.80621 0.31843 0.0
C97 C 0.42041 0.80635 0.19637 0.0
C98 C 0.54832 0.78756 0.15451 0.0
C99 C 0.46124 0.73291 0.3268 0.0
C100 C 0.57781 0.69831 0.27875 0.0
C101 C 0.53412 0.82968 0.29865 0.0
C102 C 0.47547 0.68581 0.16901 0.0
O103 O 0.45416 0.78272 0.20501 0.0
O104 O 0.41115 0.80786 0.15628 0.0
O105 O 0.25667 0.69919 0.54786 0.0
Mn106 Mn 0.24872 0.73758 0.49463 0.0
O107 O 0.2785 0.6338 0.52229 0.0
Mn108 Mn 0.27043 0.64507 0.46533 0.0
O109 O 0.24137 0.77514 0.44067 0.0
O110 O 0.20959 0.77718 0.53266 0.0
Mn111 Mn 0.21918 0.83035 0.51597 0.0
O112 O 0.30187 0.77084 0.51385 0.0
O113 O 0.20326 0.83513 0.45963 0.0
O114 O 0.1942 0.7061 0.47458 0.0
O115 O 0.21442 0.64256 0.4454 0.0
O116 O 0.17886 0.83628 0.55931 0.0
O117 O 0.27725 0.83873 0.52791 0.0
C118 C 0.31798 0.67928 0.43232 0.0
C119 C 0.2702 0.66025 0.55313 0.0
C120 C 0.21984 0.80961 0.43131 0.0
C121 C 0.18379 0.79475 0.56198 0.0
C122 C 0.3077 0.80961 0.52648 0.0
C123 C 0.18549 0.67193 0.45354 0.0
O124 O 0.28866 0.6978 0.45763 0.0
O125 O 0.31629 0.63778 0.42821 0.0
O126 O 0.22497 0.45942 0.80503 0.0
Mn127 Mn 0.24992 0.50184 0.76101 0.0
O128 O 0.19516 0.50041 0.8581 0.0
Mn129 Mn 0.21285 0.55338 0.83874 0.0
O130 O 0.27119 0.54541 0.71619 0.0
O131 O 0.29083 0.45274 0.74012 0.0
Mn132 Mn 0.29826 0.46094 0.68497 0.0
O133 O 0.20319 0.48419 0.71825 0.0
O134 O 0.32471 0.51314 0.67838 0.0
O135 O 0.29883 0.52191 0.80123 0.0
O136 O 0.26896 0.56976 0.84798 0.0
O137 O 0.3306 0.41206 0.69567 0.0
O138 O 0.24299 0.45719 0.66227 0.0
C139 C 0.17883 0.57868 0.78535 0.0
C140 C 0.20111 0.46399 0.83888 0.0
C141 C 0.30178 0.54661 0.68823 0.0
C142 C 0.31602 0.41853 0.73435 0.0
C143 C 0.20684 0.46958 0.67981 0.0
C144 C 0.30219 0.55235 0.82907 0.0
O145 O 0.20889 0.54881 0.78291 0.0
O146 O 0.17117 0.59394 0.82353 0.0
O147 O 0.98161 0.53342 0.56896 0.0
Mn148 Mn -0.00583 0.50318 0.50959 0.0
O149 O 0.92642 0.58054 0.56103 0.0
Mn150 Mn 0.94031 0.5873 0.5041 0.0
O151 O 0.00739 0.46767 0.45089 0.0
O152 O 0.04709 0.47235 0.53749 0.0
Mn153 Mn 0.03607 0.41921 0.5179 0.0
O154 O 0.94828 0.46087 0.52858 0.0
O155 O 0.06365 0.42358 0.46609 0.0
O156 O 0.0354 0.55154 0.49059 0.0
O157 O -0.0079 0.61201 0.48935 0.0
O158 O 0.05238 0.4114 0.57204 0.0
O159 O 0.98097 0.39875 0.51295 0.0
C160 C 0.91129 0.54783 0.45843 0.0
C161 C 0.94997 0.55684 0.58468 0.0
C162 C 0.03794 0.43977 0.43899 0.0
C163 C 0.05974 0.45203 0.57167 0.0
C164 C 0.94728 0.42074 0.5222 0.0
C165 C 0.02901 0.59236 0.48463 0.0
O166 O 0.94396 0.53502 0.4812 0.0
O167 O 0.89697 0.58709 0.46535 0.0
O168 O 0.26562 0.21895 0.05273 0.0
Mn169 Mn 0.24336 0.25783 0.00383 0.0
O170 O 0.25539 0.15012 0.03222 0.0
Mn171 Mn 0.23288 0.16118 0.97805 0.0
O172 O 0.2199 0.29923 0.9564 0.0
O173 O 0.23107 0.30461 0.04709 0.0
Mn174 Mn 0.25547 0.35287 0.03452 0.0
O175 O 0.30759 0.2787 -0.00656 0.0
O176 O 0.23058 0.36639 0.98251 0.0
O177 O 0.17882 0.23676 0.01237 0.0
O178 O 0.17431 0.17386 0.97606 0.0
O179 O 0.22202 0.36333 0.08402 0.0
O180 O 0.31434 0.33945 0.03258 0.0
C181 C 0.27887 0.18708 0.93393 0.0
C182 C 0.26775 0.17826 0.05924 0.0
C183 C 0.21538 0.34073 0.95454 0.0
C184 C 0.21018 0.3242 0.07794 0.0
C185 C 0.33058 0.30896 0.00907 0.0
C186 C 0.15671 0.20627 -0.00421 0.0
O187 O 0.25616 0.20938 0.96186 0.0
O188 O 0.2673 0.1475 0.93039 0.0
O189 O 0.23063 0.9446 0.27569 0.0
Mn190 Mn 0.24983 0.0011 0.24743 0.0
O191 O 0.1922 0.96143 0.3356 0.0
Mn192 Mn 0.20383 0.01975 0.33543 0.0
O193 O 0.27188 0.05727 0.21667 0.0
O194 O 0.29153 0.96493 0.21232 0.0
Mn195 Mn 0.29042 0.977 0.15797 0.0
O196 O 0.20274 -0.00535 0.20297 0.0
O197 O 0.30823 0.033 0.1572 0.0
O198 O 0.29579 0.00628 0.29495 0.0
O199 O 0.2589 0.03049 0.35415 0.0
O200 O 0.32986 0.93104 0.16323 0.0
O201 O 0.23356 0.96941 0.1416 0.0
C202 C 0.17449 0.06344 0.2911 0.0
C203 C 0.21013 0.93394 0.3096 0.0
C204 C 0.2961 0.06345 0.18308 0.0
C205 C 0.31952 0.9345 0.20336 0.0
C206 C 0.20052 0.98081 0.16466 0.0
C207 C 0.29396 0.01837 0.33441 0.0
O208 O 0.20554 0.03579 0.28198 0.0
O209 O 0.16139 0.06311 0.33055 0.0
O210 O 0.54845 0.24366 0.72934 0.0
Mn211 Mn 0.49867 0.23835 0.77581 0.0
O212 O 0.51827 0.27393 0.67158 0.0
Mn213 Mn 0.46194 0.26286 0.6878 0.0
O214 O 0.44947 0.23135 0.82103 0.0
O215 O 0.53751 0.20046 0.80956 0.0
Mn216 Mn 0.53743 0.21312 0.86418 0.0
O217 O 0.52179 0.29301 0.80825 0.0
O218 O 0.48019 0.20931 0.88222 0.0
O219 O 0.47778 0.18335 0.74421 0.0
O220 O 0.44827 0.20518 0.68246 0.0
O221 O 0.57404 0.16439 0.85574 0.0
O222 O 0.55786 0.26811 0.86496 0.0
C223 C 0.42501 0.30209 0.73348 0.0
C224 C 0.55122 0.25944 0.69161 0.0
C225 C 0.44704 0.2189 0.85991 0.0
C226 C 0.56375 0.16853 0.81615 0.0
C227 C 0.54706 0.29881 0.84021 0.0
C228 C 0.45914 0.17575 0.70866 0.0
O229 O 0.45708 0.27599 0.7427 0.0
O230 O 0.41811 0.30476 0.69293 0.0
O231 O 0.04923 0.75707 0.72023 0.0
Mn232 Mn -0.00236 0.74732 0.76295 0.0
O233 O 0.02065 0.77101 0.65609 0.0
Mn234 Mn 0.96363 0.76193 0.6725 0.0
O235 O 0.94748 0.73556 0.80587 0.0
O236 O 0.03888 0.71376 0.79839 0.0
Mn237 Mn 0.03762 0.72832 0.85226 0.0
O238 O 0.01003 0.80485 0.7976 0.0
O239 O 0.97999 0.72047 0.86847 0.0
O240 O 0.98396 0.68913 0.73181 0.0
O241 O 0.94851 0.70517 0.67173 0.0
O242 O 0.07829 0.68257 0.84563 0.0
O243 O 0.05435 0.78475 0.85081 0.0
C244 C 0.92634 0.80699 0.71076 0.0
C245 C 0.05311 0.76566 0.68037 0.0
C246 C 0.94621 0.72508 0.84543 0.0
C247 C 0.06807 0.68463 0.80588 0.0
C248 C 0.03359 0.81372 0.8302 0.0
C249 C 0.9628 0.67813 0.69862 0.0
O250 O 0.95578 0.7808 0.72583 0.0
O251 O 0.92112 0.80442 0.66988 0.0
O252 O 0.72049 0.4472 0.28513 0.0
Mn253 Mn 0.74268 0.50044 0.25416 0.0
O254 O 0.68215 0.47032 0.34324 0.0
Mn255 Mn 0.69311 0.52831 0.33619 0.0
O256 O 0.76684 0.55419 0.22243 0.0
O257 O 0.79016 0.46319 0.22886 0.0
Mn258 Mn 0.79694 0.47023 0.1739 0.0
O259 O 0.70241 0.48517 0.20466 0.0
O260 O 0.81073 0.52768 0.16945 0.0
O261 O 0.78411 0.51196 0.30438 0.0
O262 O 0.74597 0.54406 0.35814 0.0
O263 O 0.83745 0.4279 0.1895 0.0
O264 O 0.74417 0.45296 0.15329 0.0
C265 C 0.65861 0.56147 0.28682 0.0
C266 C 0.69794 0.44028 0.31882 0.0
C267 C 0.79497 0.55932 0.19209 0.0
C268 C 0.81976 0.4332 0.22705 0.0
C269 C 0.70711 0.4614 0.17099 0.0
C270 C 0.78168 0.52923 0.34173 0.0
O271 O 0.69333 0.5372 0.28026 0.0
O272 O 0.64764 0.56652 0.32678 0.0
O273 O 0.77209 0.71838 0.06422 0.0
Mn274 Mn 0.75712 0.75604 0.01147 0.0
O275 O 0.76989 0.64897 0.04272 0.0
Mn276 Mn 0.74896 0.65941 0.98826 0.0
O277 O 0.74415 0.79559 0.95951 0.0
O278 O 0.73942 0.80491 0.05089 0.0
Mn279 Mn 0.76785 0.85147 0.04098 0.0
O280 O 0.82278 0.77469 0.00994 0.0
O281 O 0.75543 0.86333 0.98409 0.0
O282 O 0.69164 0.73708 0.01383 0.0
O283 O 0.69034 0.67042 0.98467 0.0
O284 O 0.72709 0.86555 0.08406 0.0
O285 O 0.82478 0.83442 0.05118 0.0
C286 C 0.7928 0.68306 0.94151 0.0
C287 C 0.77678 0.67781 0.07111 0.0
C288 C 0.74581 0.83666 0.95441 0.0
C289 C 0.71537 0.82635 0.07824 0.0
C290 C 0.84394 0.80316 0.03074 0.0
C291 C 0.67118 0.70415 0.00028 0.0
O292 O 0.77386 0.70654 0.97128 0.0
O293 O 0.78141 0.64328 0.94047 0.0
O294 O 0.47109 0.02619 0.5724 0.0
Mn295 Mn 0.4824 0.0026 0.50919 0.0
O296 O 0.42299 0.08264 0.56857 0.0
Mn297 Mn 0.42856 0.09053 0.51046 0.0
O298 O 0.49186 0.97871 0.44556 0.0
O299 O 0.53616 0.97122 0.52913 0.0
Mn300 Mn 0.54411 0.9216 0.5022 0.0
O301 O 0.44658 0.94909 0.52253 0.0
O302 O 0.55005 0.9332 0.44488 0.0
O303 O 0.5186 0.05362 0.49333 0.0
O304 O 0.47925 0.11509 0.49023 0.0
O305 O 0.58839 0.92444 0.5407 0.0
O306 O 0.4949 0.8922 0.51687 0.0
C307 C 0.39932 0.04723 0.46644 0.0
C308 C 0.44484 0.05496 0.59005 0.0
C309 C 0.52023 0.95393 0.42543 0.0
C310 C 0.56878 0.96039 0.55247 0.0
C311 C 0.45661 0.90846 0.52343 0.0
C312 C 0.5147 0.09339 0.48376 0.0
O313 O 0.43075 0.03699 0.49076 0.0
O314 O 0.38327 0.08593 0.47271 0.0
O315 O 0.4675 0.52508 0.94886 0.0
Mn316 Mn 0.50916 0.4995 -0.00641 0.0
O317 O 0.39971 0.51863 0.97602 0.0
Mn318 Mn 0.41417 0.49281 0.02773 0.0
O319 O 0.55103 0.47456 0.03808 0.0
O320 O 0.55366 0.48609 0.94725 0.0
Mn321 Mn 0.60356 0.509 0.95908 0.0
O322 O 0.534 0.56148 0.00361 0.0
O323 O 0.61842 0.48618 0.01205 0.0
O324 O 0.48433 0.43719 0.98372 0.0
O325 O 0.42399 0.43382 0.02483 0.0
O326 O 0.61236 0.47629 0.90941 0.0
O327 O 0.59224 0.56772 0.96042 0.0
C328 C 0.44706 0.53173 0.07383 0.0
C329 C 0.42612 0.52957 0.94639 0.0
C330 C 0.59244 0.47345 0.04127 0.0
C331 C 0.5725 0.46577 0.91542 0.0
C332 C 0.56376 0.584 0.98634 0.0
C333 C 0.45346 0.41596 0.00092 0.0
O334 O 0.46485 0.51336 0.04028 0.0
O335 O 0.40668 0.52285 0.07927 0.0
C336 C 0.94324 0.08303 0.13089 0.0
C337 C 0.934 0.08489 0.08687 0.0
C338 C 0.9485 0.16129 0.08709 0.0
C339 C 0.95182 0.16151 0.13259 0.0
N340 N 0.9389 0.12238 0.19799 0.0
N341 N 0.91497 0.12861 0.02642 0.0
C342 C 0.94588 0.12224 0.15479 0.0
C343 C 0.93239 0.1249 0.06607 0.0
N344 N 0.94884 0.044 0.15 0.0
N345 N 0.96344 0.19431 0.06318 0.0
H346 H 0.90228 0.10264 0.00994 0.0
H347 H 0.90918 0.15833 0.01202 0.0
H348 H 0.98161 0.21875 0.07588 0.0
H349 H 0.96391 0.1937 0.02988 0.0
H350 H 0.95963 0.04087 0.18121 0.0
H351 H 0.94656 0.01485 0.13322 0.0
H352 H 0.93098 0.09483 0.21466 0.0
H353 H 0.93553 0.15049 0.21649 0.0
C354 C 0.83329 0.2232 0.3711 0.0
C355 C 0.84265 0.19735 0.40693 0.0
C356 C 0.91385 0.17866 0.37495 0.0
C357 C 0.90819 0.21138 0.34412 0.0
N358 N 0.86418 0.27249 0.32122 0.0
N359 N 0.89717 0.15821 0.44714 0.0
C360 C 0.86824 0.23582 0.34422 0.0
C361 C 0.88475 0.17772 0.41024 0.0
N362 N 0.79141 0.23392 0.36126 0.0
N363 N 0.94612 0.14753 0.3699 0.0
H364 H 0.87732 0.15844 0.47449 0.0
H365 H 0.92878 0.14619 0.45176 0.0
H366 H 0.96608 0.14517 0.34262 0.0
H367 H 0.94924 0.12124 0.39017 0.0
H368 H 0.78326 0.24941 0.33298 0.0
H369 H 0.76504 0.2247 0.37993 0.0
H370 H 0.83619 0.29237 0.32252 0.0
H371 H 0.89034 0.28512 0.30487 0.0
C372 C 0.783 0.14625 0.67671 0.0
C373 C 0.81078 0.11017 0.66734 0.0
C374 C 0.83986 0.14652 0.60585 0.0
C375 C 0.80011 0.17093 0.60529 0.0
N376 N 0.74342 0.20779 0.64743 0.0
N377 N 0.88112 0.08799 0.63952 0.0
C378 C 0.7751 0.17615 0.64359 0.0
C379 C 0.84519 0.11488 0.63767 0.0
N380 N 0.76587 0.15194 0.71688 0.0
N381 N 0.8705 0.15258 0.57475 0.0
H382 H 0.88484 0.06612 0.6644 0.0
H383 H 0.90732 0.08839 0.61815 0.0
H384 H 0.86639 0.17696 0.55233 0.0
H385 H 0.90007 0.13538 0.57223 0.0
H386 H 0.7475 0.17925 0.72669 0.0
H387 H 0.77414 0.13081 0.74136 0.0
H388 H 0.72205 0.211 0.67347 0.0
H389 H 0.73943 0.23162 0.62468 0.0
C390 C 0.90276 0.01733 0.85614 0.0
C391 C 0.89851 0.04693 0.89105 0.0
C392 C 0.85987 0.09877 0.84667 0.0
C393 C 0.85463 0.0646 0.81729 0.0
N394 N 0.89572 0.00926 0.77955 0.0
N395 N 0.89255 0.12179 0.91294 0.0
C396 C 0.88484 0.02979 0.81698 0.0
C397 C 0.88356 0.09006 0.88419 0.0
N398 N 0.92121 0.97703 0.86083 0.0
N399 N 0.84009 0.1379 0.8392 0.0
H400 H 0.91267 0.11576 0.93874 0.0
H401 H 0.88368 0.15418 0.90925 0.0
H402 H 0.82407 0.14361 0.81056 0.0
H403 H 0.83956 0.16391 0.86058 0.0
H404 H 0.92096 0.95336 0.83686 0.0
H405 H 0.93469 0.96663 0.88935 0.0
H406 H 0.92049 0.98551 0.77703 0.0
H407 H 0.88316 0.02065 0.75091 0.0
C408 C 0.10019 0.95676 0.10297 0.0
C409 C 0.09692 -0.00394 0.08053 0.0
C410 C 0.14938 0.02859 0.12735 0.0
C411 C 0.15914 0.98718 0.14342 0.0
N412 N 0.14172 0.91308 0.15312 0.0
N413 N 0.12035 0.06876 0.06887 0.0
C414 C 0.13332 0.95163 0.13378 0.0
C415 C 0.1212 0.03219 0.09274 0.0
N416 N 0.07311 0.92421 0.09333 0.0
N417 N 0.16799 0.06429 0.14425 0.0
H418 H 0.10017 0.07318 0.04292 0.0
H419 H 0.14217 0.09338 0.07252 0.0
H420 H 0.19042 0.06299 0.16874 0.0
H421 H 0.15795 0.09573 0.13691 0.0
H422 H 0.07182 0.89553 0.11003 0.0
H423 H 0.05007 0.92685 0.06943 0.0
H424 H 0.12663 0.88459 0.1455 0.0
H425 H 0.16474 0.90964 0.17704 0.0
C426 C 0.01351 0.37152 0.4048 0.0
C427 C 0.03209 0.41262 0.40012 0.0
C428 C 0.0441 0.39548 0.32381 0.0
C429 C 0.02219 0.35657 0.32966 0.0
N430 N 0.96883 0.3199 0.37071 0.0
N431 N 0.05916 0.46662 0.35294 0.0
C432 C 0.00012 0.34971 0.36829 0.0
C433 C 0.04503 0.42595 0.35864 0.0
N434 N 0.01288 0.35038 0.44271 0.0
N435 N 0.06443 0.40265 0.28574 0.0
H436 H 0.06143 0.48842 0.37836 0.0
H437 H 0.06593 0.47926 0.32302 0.0
H438 H 0.06155 0.38167 0.25969 0.0
H439 H 0.08456 0.42841 0.28058 0.0
H440 H 0.00112 0.31942 0.44569 0.0
H441 H 0.03095 0.3592 0.46881 0.0
H442 H 0.95157 0.31415 0.39884 0.0
H443 H 0.95693 0.30543 0.34332 0.0
C444 C 0.66091 0.28771 0.64478 0.0
C445 C 0.6537 0.27434 0.60195 0.0
C446 C 0.5918 0.23379 0.62657 0.0
C447 C 0.59261 0.25576 0.66652 0.0
N448 N 0.62978 0.30104 0.71587 0.0
N449 N 0.60894 0.23803 0.5514 0.0
C450 C 0.62839 0.28113 0.67678 0.0
C451 C 0.61907 0.24711 0.59273 0.0
N452 N 0.69844 0.30767 0.65427 0.0
N453 N 0.56358 0.20138 0.62067 0.0
H454 H 0.62632 0.24982 0.52555 0.0
H455 H 0.58087 0.2225 0.54288 0.0
H456 H 0.54271 0.19165 0.645 0.0
H457 H 0.5641 0.18168 0.59339 0.0
H458 H 0.70755 0.31537 0.68523 0.0
H459 H 0.72246 0.31276 0.63113 0.0
H460 H 0.65223 0.32401 0.72376 0.0
H461 H 0.60715 0.29562 0.74015 0.0
C462 C 0.69648 0.89613 0.86172 0.0
C463 C 0.73434 0.91501 0.84511 0.0
C464 C 0.78005 0.87105 0.89176 0.0
C465 C 0.74215 0.85479 0.91106 0.0
N466 N 0.66569 0.84248 0.90848 0.0
N467 N 0.81211 0.91258 0.83508 0.0
C468 C 0.70071 0.86393 0.89367 0.0
C469 C 0.77615 0.89943 0.85682 0.0
N470 N 0.65669 0.91046 0.84806 0.0
N471 N 0.81968 0.86154 0.90888 0.0
H472 H 0.81043 0.9346 0.81027 0.0
H473 H 0.84319 0.89903 0.83896 0.0
H474 H 0.82429 0.83824 0.93224 0.0
H475 H 0.84743 0.87806 0.9012 0.0
H476 H 0.6273 0.90147 0.86147 0.0
H477 H 0.65325 0.93256 0.82339 0.0
H478 H 0.63479 0.84543 0.89571 0.0
H479 H 0.66847 0.81896 0.93185 0.0
C480 C 0.13176 0.30567 0.07391 0.0
C481 C 0.1699 0.30914 0.09826 0.0
C482 C 0.12593 0.30757 0.16403 0.0
C483 C 0.08844 0.29985 0.1395 0.0
N484 N 0.05967 0.27878 0.07114 0.0
N485 N 0.20466 0.30399 0.16627 0.0
C486 C 0.09252 0.29517 0.09444 0.0
C487 C 0.16739 0.30688 0.14331 0.0
N488 N 0.13229 0.31379 0.03128 0.0
N489 N 0.12193 0.31841 0.20637 0.0
H490 H 0.23545 0.30308 0.15172 0.0
H491 H 0.20487 0.29807 0.19894 0.0
H492 H 0.09213 0.32129 0.22249 0.0
H493 H 0.14781 0.32858 0.22448 0.0
H494 H 0.10428 0.31786 0.01335 0.0
H495 H 0.1607 0.31887 0.01434 0.0
H496 H 0.06148 0.27354 0.03826 0.0
H497 H 0.03269 0.26527 0.08515 0.0
C498 C 0.7391 0.38055 0.35328 0.0
C499 C 0.69953 0.39636 0.33587 0.0
C500 C 0.65979 0.33996 0.37146 0.0
C501 C 0.69877 0.32644 0.39158 0.0
N502 N 0.77723 0.32493 0.39187 0.0
N503 N 0.62533 0.38518 0.31781 0.0
C504 C 0.73902 0.34308 0.37828 0.0
C505 C 0.66083 0.37373 0.34119 0.0
N506 N 0.77603 0.40361 0.34956 0.0
N507 N 0.62169 0.32211 0.38339 0.0
H508 H 0.62598 0.40993 0.29556 0.0
H509 H 0.59678 0.36823 0.31782 0.0
H510 H 0.62097 0.29648 0.40454 0.0
H511 H 0.59124 0.33322 0.37355 0.0
H512 H 0.80404 0.39752 0.36692 0.0
H513 H 0.77824 0.43142 0.33168 0.0
H514 H 0.8075 0.33297 0.37984 0.0
H515 H 0.77906 0.29891 0.41217 0.0
C516 C 0.58468 0.95139 0.62835 0.0
C517 C 0.57956 0.98003 0.59399 0.0
C518 C 0.63787 0.02339 0.6195 0.0
C519 C 0.64929 0.98969 0.64791 0.0
N520 N 0.62808 0.92819 0.68864 0.0
N521 N 0.5825 0.05349 0.57332 0.0
C522 C 0.62022 0.95623 0.65617 0.0
C523 C 0.60019 0.01962 0.59477 0.0
N524 N 0.55629 0.91881 0.63238 0.0
N525 N 0.66392 0.05782 0.61499 0.0
H526 H 0.55229 0.05085 0.5596 0.0
H527 H 0.59395 0.08466 0.57461 0.0
H528 H 0.69183 0.06153 0.63282 0.0
H529 H 0.65889 0.08179 0.59251 0.0
H530 H 0.55786 0.89522 0.6556 0.0
H531 H 0.52964 0.91667 0.61233 0.0
H532 H 0.60831 0.90294 0.6965 0.0
H533 H 0.65434 0.93088 0.70894 0.0
C534 C 0.03818 0.89941 0.91734 0.0
C535 C 0.03875 0.938 0.89376 0.0
C536 C 0.03679 0.8958 0.82702 0.0
C537 C 0.03155 0.85761 0.85069 0.0
N538 N 0.01465 0.82617 0.91925 0.0
N539 N 0.02873 0.97385 0.82681 0.0
C540 C 0.02817 0.86046 0.89616 0.0
C541 C 0.03448 0.93645 0.84878 0.0
N542 N 0.04944 0.89921 0.95939 0.0
N543 N 0.04783 0.89335 0.7847 0.0
H544 H 0.0266 0.00399 0.84214 0.0
H545 H 0.02163 0.97437 0.79438 0.0
H546 H 0.05242 0.86408 0.76833 0.0
H547 H 0.05641 0.9201 0.76708 0.0
H548 H 0.05451 0.87097 0.97651 0.0
H549 H 0.05738 0.92686 0.97637 0.0
H550 H 0.01108 0.82683 0.95238 0.0
H551 H 0.00136 0.79912 0.90513 0.0
C552 C 0.05921 0.15332 0.03265 0.0
C553 C 0.04349 0.14563 0.99095 0.0
C554 C 0.0836 0.20684 0.96483 0.0
C555 C 0.10901 0.20448 0.00194 0.0
N556 N 0.1148 0.18625 0.07561 0.0
N557 N 0.02805 0.1735 0.92191 0.0
C558 C 0.09357 0.18236 0.03792 0.0
C559 C 0.05072 0.17625 0.95883 0.0
N560 N 0.04343 0.13069 0.06617 0.0
N561 N 0.09346 0.23645 0.93472 0.0
H562 H 0.00362 0.15125 0.91841 0.0
H563 H 0.03257 0.19314 0.89569 0.0
H564 H 0.11782 0.25847 0.9398 0.0
H565 H 0.07669 0.24068 0.90646 0.0
H566 H 0.05115 0.13643 0.0979 0.0
H567 H 0.02076 0.10699 0.06217 0.0
H568 H 0.13952 0.20806 0.07931 0.0
H569 H 0.10834 0.16847 0.10274 0.0
C570 C 0.58452 0.58057 0.26612 0.0
C571 C 0.62883 0.57886 0.25385 0.0
C572 C 0.62183 0.65203 0.22753 0.0
C573 C 0.58438 0.65781 0.25387 0.0
N574 N 0.52206 0.62692 0.28668 0.0
N575 N 0.6769 0.60053 0.19846 0.0
C576 C 0.56221 0.62138 0.26801 0.0
C577 C 0.64354 0.61068 0.22612 0.0
N578 N 0.56609 0.54381 0.27974 0.0
N579 N 0.63704 0.68634 0.20601 0.0
H580 H 0.69056 0.56928 0.19709 0.0
H581 H 0.68733 0.62103 0.17466 0.0
H582 H 0.62064 0.71642 0.20723 0.0
H583 H 0.66462 0.68456 0.1865 0.0
H584 H 0.53337 0.54172 0.28799 0.0
H585 H 0.5841 0.51461 0.28011 0.0
H586 H 0.5052 0.60243 0.30113 0.0
H587 H 0.50555 0.65689 0.28702 0.0
C588 C 0.35743 0.85529 0.56864 0.0
C589 C 0.35205 0.8231 0.53666 0.0
C590 C 0.41715 0.84418 0.49931 0.0
C591 C 0.42182 0.878 0.52972 0.0
N592 N 0.40464 0.90801 0.59977 0.0
N593 N 0.39037 0.77309 0.48818 0.0
C594 C 0.39452 0.88119 0.56664 0.0
C595 C 0.38634 0.81279 0.50741 0.0
N596 N 0.32688 0.86088 0.60054 0.0
N597 N 0.44006 0.84316 0.46149 0.0
H598 H 0.37154 0.74745 0.49718 0.0
H599 H 0.41695 0.76384 0.46865 0.0
H600 H 0.4614 0.86688 0.45259 0.0
H601 H 0.43419 0.8211 0.43701 0.0
H602 H 0.32577 0.8868 0.62207 0.0
H603 H 0.30204 0.83925 0.60485 0.0
H604 H 0.38787 0.90937 0.62891 0.0
H605 H 0.43224 0.92656 0.59942 0.0
C606 C 0.1274 0.66767 0.75247 0.0
C607 C 0.08874 0.65537 0.77367 0.0
C608 C 0.10767 0.57985 0.75756 0.0
C609 C 0.15055 0.59218 0.75049 0.0
N610 N 0.19404 0.64276 0.71494 0.0
N611 N 0.03693 0.60096 0.78842 0.0
C612 C 0.1572 0.63457 0.73755 0.0
C613 C 0.07669 0.61166 0.77283 0.0
N614 N 0.13732 0.71012 0.7506 0.0
N615 N 0.09872 0.53733 0.75385 0.0
H616 H 0.0135 0.62444 0.79806 0.0
H617 H 0.02728 0.56936 0.79172 0.0
H618 H 0.12304 0.51459 0.74453 0.0
H619 H 0.06769 0.52545 0.75721 0.0
H620 H 0.16665 0.72082 0.7385 0.0
H621 H 0.11634 0.73467 0.76267 0.0
H622 H 0.20064 0.6728 0.70241 0.0
H623 H 0.21623 0.61771 0.70643 0.0
C624 C 0.8463 0.36549 0.55895 0.0
C625 C 0.836 0.34427 0.52007 0.0
C626 C 0.89352 0.38038 0.48254 0.0
C627 C 0.90605 0.39911 0.52164 0.0
N628 N 0.89873 0.40645 0.59813 0.0
N629 N 0.85968 0.32009 0.44942 0.0
C630 C 0.88358 0.39101 0.56029 0.0
C631 C 0.86263 0.34806 0.48319 0.0
N632 N 0.82058 0.3608 0.59448 0.0
N633 N 0.91033 0.39436 0.44471 0.0
H634 H 0.84089 0.29297 0.45035 0.0
H635 H 0.88005 0.32054 0.4226 0.0
H636 H 0.93219 0.41923 0.4431 0.0
H637 H 0.89891 0.38468 0.41506 0.0
H638 H 0.82296 0.3794 0.62221 0.0
H639 H 0.79579 0.33877 0.59576 0.0
H640 H 0.88657 0.39788 0.62791 0.0
H641 H 0.92535 0.42622 0.59993 0.0
C642 C 0.32115 0.86158 0.23159 0.0
C643 C 0.33732 0.90352 0.23367 0.0
C644 C 0.41133 0.87561 0.23606 0.0
C645 C 0.39588 0.83402 0.22696 0.0
N646 N 0.33805 0.78441 0.23127 0.0
N647 N 0.3925 0.94893 0.25934 0.0
C648 C 0.35118 0.82595 0.23134 0.0
C649 C 0.38059 0.90951 0.24503 0.0
N650 N 0.27791 0.85657 0.22526 0.0
N651 N 0.45406 0.88419 0.22959 0.0
H652 H 0.36965 0.97442 0.26326 0.0
H653 H 0.42341 0.95464 0.27072 0.0
H654 H 0.47677 0.86097 0.21819 0.0
H655 H 0.4661 0.91508 0.23198 0.0
H656 H 0.26411 0.82698 0.2194 0.0
H657 H 0.25605 0.88306 0.22481 0.0
H658 H 0.30598 0.77601 0.23639 0.0
H659 H 0.36052 0.75834 0.22981 0.0
C660 C 0.36432 0.39183 0.78965 0.0
C661 C 0.32639 0.38547 0.76649 0.0
C662 C 0.34889 0.30959 0.75733 0.0
C663 C 0.39215 0.32139 0.76393 0.0
N664 N 0.44057 0.3711 0.79537 0.0
N665 N 0.27741 0.33579 0.73613 0.0
C666 C 0.39961 0.36132 0.78435 0.0
C667 C 0.31609 0.34281 0.75501 0.0
N668 N 0.36688 0.42794 0.81434 0.0
N669 N 0.34051 0.26734 0.74986 0.0
H670 H 0.25431 0.3609 0.73246 0.0
H671 H 0.26932 0.30631 0.7227 0.0
H672 H 0.36528 0.24345 0.75072 0.0
H673 H 0.30925 0.25607 0.74683 0.0
H674 H 0.39259 0.43304 0.83466 0.0
H675 H 0.34047 0.44987 0.81741 0.0
H676 H 0.44891 0.40135 0.80679 0.0
H677 H 0.46599 0.34833 0.79167 0.0
C678 C 0.16372 0.79806 0.63911 0.0
C679 C 0.16524 0.77347 0.60057 0.0
C680 C 0.10578 0.73076 0.62778 0.0
C681 C 0.09674 0.76333 0.6594 0.0
N682 N 0.12059 0.82407 0.70035 0.0
N683 N 0.14989 0.70637 0.56642 0.0
C684 C 0.12744 0.79518 0.66743 0.0
C685 C 0.14034 0.73616 0.59767 0.0
N686 N 0.19738 0.82396 0.64818 0.0
N687 N 0.08088 0.69517 0.6267 0.0
H688 H 0.17759 0.70856 0.54767 0.0
H689 H 0.13299 0.67853 0.56093 0.0
H690 H 0.05514 0.6912 0.64812 0.0
H691 H 0.08637 0.66868 0.6064 0.0
H692 H 0.2003 0.84065 0.677 0.0
H693 H 0.22472 0.82496 0.62805 0.0
H694 H 0.13901 0.85118 0.70493 0.0
H695 H 0.09519 0.82154 0.72241 0.0
C696 C 0.17863 0.86553 0.33505 0.0
C697 C 0.21579 0.88922 0.32507 0.0
C698 C 0.26001 0.84468 0.37289 0.0
C699 C 0.22154 0.82551 0.38727 0.0
N700 N 0.14858 0.80556 0.37381 0.0
N701 N 0.29433 0.89285 0.32431 0.0
C702 C 0.18222 0.83171 0.36514 0.0
C703 C 0.25742 0.87509 0.33969 0.0
N704 N 0.13988 0.87689 0.31704 0.0
N705 N 0.29802 0.83764 0.3942 0.0
H706 H 0.29428 0.91997 0.30537 0.0
H707 H 0.32541 0.87964 0.32901 0.0
H708 H 0.30195 0.81464 0.41785 0.0
H709 H 0.32552 0.85576 0.38999 0.0
H710 H 0.11037 0.86391 0.32563 0.0
H711 H 0.13752 0.90027 0.29343 0.0
H712 H 0.11939 0.80644 0.35758 0.0
H713 H 0.15173 0.78028 0.39533 0.0
C714 C -0.00845 0.60341 0.67875 0.0
C715 C 0.95585 0.63229 0.68859 0.0
C716 C 0.90805 0.58653 0.64802 0.0
C717 C 0.94571 0.56433 0.63161 0.0
N718 N 0.012 0.53068 0.65525 0.0
N719 N 0.8783 0.6423 0.69693 0.0
C720 C 0.98375 0.56536 0.65543 0.0
C721 C 0.91311 0.62022 0.67861 0.0
N722 N 0.03306 0.61414 0.68685 0.0
N723 N 0.86859 0.57671 0.63217 0.0
H724 H 0.88226 0.66683 0.7196 0.0
H725 H 0.84615 0.6346 0.69209 0.0
H726 H 0.86552 0.55068 0.61099 0.0
H727 H 0.83968 0.59371 0.63974 0.0
H728 H 0.05993 0.5952 0.67647 0.0
H729 H 0.04059 0.64318 0.70136 0.0
H730 H 0.0389 0.52909 0.67505 0.0
H731 H 0.00517 0.50221 0.63887 0.0
C732 C 0.39649 0.68626 0.41872 0.0
C733 C 0.35365 0.70128 0.41042 0.0
C734 C 0.38102 0.74142 0.34937 0.0
C735 C 0.42294 0.72097 0.35378 0.0
N736 N 0.4661 0.66465 0.3878 0.0
N737 N 0.30369 0.73686 0.36298 0.0
C738 C 0.42954 0.69097 0.38731 0.0
C739 C 0.34545 0.72746 0.37462 0.0
N740 N 0.40555 0.66712 0.45675 0.0
N741 N 0.37493 0.77488 0.32216 0.0
H742 H 0.27683 0.72679 0.38037 0.0
H743 H 0.29585 0.75171 0.33433 0.0
H744 H 0.39906 0.78541 0.30176 0.0
H745 H 0.34655 0.79422 0.32228 0.0
H746 H 0.43709 0.65924 0.46621 0.0
H747 H 0.38193 0.66364 0.48065 0.0
H748 H 0.47032 0.63963 0.40937 0.0
H749 H 0.48981 0.66405 0.36367 0.0
C750 C 0.2733 0.14092 0.17361 0.0
C751 C 0.30495 0.10773 0.16743 0.0
C752 C 0.32681 0.14084 0.10025 0.0
C753 C 0.28553 0.16261 0.10004 0.0
N754 N 0.22231 0.1901 0.13991 0.0
N755 N 0.37436 0.08827 0.13569 0.0
C756 C 0.26 0.16563 0.13813 0.0
C757 C 0.33641 0.11226 0.13434 0.0
N758 N 0.25883 0.15077 0.21376 0.0
N759 N 0.35601 0.14767 0.06799 0.0
H760 H 0.38183 0.06942 0.16217 0.0
H761 H 0.3983 0.08753 0.11185 0.0
H762 H 0.34978 0.17056 0.04456 0.0
H763 H 0.38698 0.13323 0.0658 0.0
H764 H 0.24022 0.17874 0.2206 0.0
H765 H 0.27173 0.13459 0.23993 0.0
H766 H 0.20054 0.18948 0.16576 0.0
H767 H 0.21216 0.20953 0.1148 0.0
C768 C 0.82836 0.73015 0.88685 0.0
C769 C 0.83098 0.69592 0.91637 0.0
C770 C 0.90339 0.67523 0.88904 0.0
C771 C 0.90426 0.71371 0.86534 0.0
N772 N 0.86866 0.781 0.84514 0.0
N773 N 0.875 0.64142 0.9517 0.0
C774 C 0.86681 0.74196 0.8646 0.0
C775 C 0.86963 0.67 0.91919 0.0
N776 N 0.78925 0.75046 0.87928 0.0
N777 N 0.93408 0.64289 0.88174 0.0
H778 H 0.85194 0.63779 0.97602 0.0
H779 H 0.9044 0.62486 0.95712 0.0
H780 H 0.95811 0.64446 0.85798 0.0
H781 H 0.93239 0.61264 0.89564 0.0
H782 H 0.78468 0.77291 0.8552 0.0
H783 H 0.76056 0.74189 0.89462 0.0
H784 H 0.84327 0.80405 0.8463 0.0
H785 H 0.89681 0.79193 0.83063 0.0
C786 C 0.26737 0.56921 0.62155 0.0
C787 C 0.29578 0.57928 0.65506 0.0
C788 C 0.30079 0.65223 0.62713 0.0
C789 C 0.26992 0.64148 0.59591 0.0
N790 N 0.21089 0.59712 0.57637 0.0
N791 N 0.33329 0.63305 0.69502 0.0
C792 C 0.2479 0.60284 0.5988 0.0
C793 C 0.31024 0.62196 0.65998 0.0
N794 N 0.26221 0.5277 0.60832 0.0
N795 N 0.32209 0.68989 0.62431 0.0
H796 H 0.34189 0.61073 0.71834 0.0
H797 H 0.34159 0.66464 0.70192 0.0
H798 H 0.31464 0.71284 0.60127 0.0
H799 H 0.348 0.6974 0.64368 0.0
H800 H 0.24272 0.51956 0.58275 0.0
H801 H 0.28325 0.50271 0.6174 0.0
H802 H 0.19287 0.56941 0.57879 0.0
H803 H 0.1965 0.62196 0.55874 0.0
C804 C 0.32639 0.9862 0.39901 0.0
C805 C 0.33198 0.01118 0.36153 0.0
C806 C 0.39976 0.03729 0.38882 0.0
C807 C 0.38727 0.02208 0.4293 0.0
N808 N 0.34664 0.97466 0.47285 0.0
N809 N 0.37689 0.05551 0.31745 0.0
C810 C 0.35376 0.99298 0.43402 0.0
C811 C 0.37042 0.03406 0.35469 0.0
N812 N 0.29369 0.95771 0.4015 0.0
N813 N 0.43907 0.0558 0.38406 0.0
H814 H 0.35596 0.05372 0.29176 0.0
H815 H 0.40212 0.07637 0.31239 0.0
H816 H 0.46047 0.0581 0.40944 0.0
H817 H 0.452 0.06508 0.35483 0.0
H818 H 0.28989 0.93591 0.4261 0.0
H819 H 0.27128 0.95425 0.37736 0.0
H820 H 0.32025 0.95602 0.48033 0.0
H821 H 0.36765 0.97884 0.49824 0.0
C822 C 0.91422 0.82554 0.0587 0.0
C823 C 0.89167 0.80718 0.02448 0.0
C824 C 0.92628 0.85469 0.97438 0.0
C825 C 0.93929 0.88026 0.00933 0.0
N826 N 0.95755 0.88495 0.0835 0.0
N827 N 0.90086 0.78493 0.95169 0.0
C828 C 0.93843 0.8631 0.05115 0.0
C829 C 0.90646 0.81503 0.98275 0.0
N830 N 0.90894 0.80868 0.09833 0.0
N831 N 0.92977 0.86979 0.93385 0.0
H832 H 0.88685 0.75568 0.95878 0.0
H833 H 0.91505 0.78713 0.92145 0.0
H834 H 0.94383 0.89911 0.92732 0.0
H835 H 0.91874 0.85335 0.90715 0.0
H836 H 0.92354 0.82014 0.12573 0.0
H837 H 0.89048 0.78141 0.10274 0.0
H838 H 0.95738 0.87542 0.1152 0.0
H839 H 0.97464 0.91281 0.07783 0.0
C840 C 0.63185 0.10591 0.48199 0.0
C841 C 0.6369 0.15052 0.4759 0.0
C842 C 0.55872 0.15907 0.46257 0.0
C843 C 0.55521 0.114 0.46891 0.0
N844 N 0.59426 0.04619 0.45378 0.0
N845 N 0.60742 0.21636 0.44537 0.0
C846 C 0.59372 0.08782 0.46834 0.0
C847 C 0.60097 0.17656 0.46188 0.0
N848 N 0.66232 0.08076 0.50205 0.0
N849 N 0.52274 0.18464 0.45529 0.0
H850 H 0.63811 0.22905 0.44199 0.0
H851 H 0.58294 0.23491 0.43121 0.0
H852 H 0.49318 0.17222 0.44649 0.0
H853 H 0.52277 0.21822 0.45692 0.0
H854 H 0.65753 0.04829 0.50837 0.0
H855 H 0.68906 0.09334 0.51721 0.0
H856 H 0.62275 0.02695 0.45161 0.0
H857 H 0.56757 0.03368 0.43853 0.0
C858 C 0.8162 0.36102 0.25205 0.0
C859 C 0.83016 0.40286 0.2612 0.0
C860 C 0.90522 0.37846 0.25921 0.0
C861 C 0.89212 0.34024 0.23863 0.0
N862 N 0.83745 0.28803 0.22814 0.0
N863 N 0.88137 0.44151 0.30131 0.0
C864 C 0.84811 0.32866 0.24042 0.0
C865 C 0.87243 0.40708 0.27615 0.0
N866 N 0.77292 0.35489 0.24801 0.0
N867 N 0.94747 0.39004 0.25746 0.0
H868 H 0.85647 0.4633 0.31097 0.0
H869 H 0.91163 0.44571 0.31487 0.0
H870 H 0.97155 0.37124 0.24157 0.0
H871 H 0.95775 0.4196 0.26898 0.0
H872 H 0.75962 0.32585 0.23908 0.0
H873 H 0.75029 0.38016 0.25359 0.0
H874 H 0.80603 0.27685 0.22897 0.0
H875 H 0.86132 0.26451 0.21968 0.0
C876 C 0.0896 0.60422 0.43201 0.0
C877 C 0.06529 0.61813 0.469 0.0
C878 C 0.10637 0.68385 0.47061 0.0
C879 C 0.13917 0.66247 0.44548 0.0
N880 N 0.15552 0.6107 0.3891 0.0
N881 N 0.05008 0.67363 0.52335 0.0
C882 C 0.12857 0.62525 0.42165 0.0
C883 C 0.07286 0.65914 0.48783 0.0
N884 N 0.07424 0.57277 0.40593 0.0
N885 N 0.10686 0.7274 0.47725 0.0
H886 H 0.02806 0.65505 0.53988 0.0
H887 H 0.05643 0.70256 0.53896 0.0
H888 H 0.12922 0.74641 0.4616 0.0
H889 H 0.08188 0.74489 0.49325 0.0
H890 H 0.08858 0.56369 0.37669 0.0
H891 H 0.04449 0.55866 0.4115 0.0
H892 H 0.15296 0.58091 0.37378 0.0
H893 H 0.18065 0.62923 0.37745 0.0
C894 C 0.60134 0.06359 0.76743 0.0
C895 C 0.64231 0.07726 0.75398 0.0
C896 C 0.61785 0.15181 0.75766 0.0
C897 C 0.58196 0.1392 0.78286 0.0
N898 N 0.53094 0.08472 0.79974 0.0
N899 N 0.67362 0.12718 0.70657 0.0
C900 C 0.57026 0.09535 0.78305 0.0
C901 C 0.64437 0.11899 0.73795 0.0
N902 N 0.59506 0.02043 0.76942 0.0
N903 N 0.62933 0.19382 0.75633 0.0
H904 H 0.69427 0.10256 0.69417 0.0
H905 H 0.67388 0.15664 0.69102 0.0
H906 H 0.612 0.2184 0.77292 0.0
H907 H 0.65769 0.2034 0.74107 0.0
H908 H 0.56648 0.00702 0.78017 0.0
H909 H 0.61947 -0.00175 0.75898 0.0
H910 H 0.52034 0.05332 0.80135 0.0
H911 H 0.5081 0.10834 0.81044 0.0
C912 C 0.83924 0.60666 0.14594 0.0
C913 C 0.80615 0.60352 0.17745 0.0
C914 C 0.77162 0.67015 0.15174 0.0
C915 C 0.79444 0.66255 0.11234 0.0
N916 N 0.85947 0.63441 0.07658 0.0
N917 N 0.75839 0.64533 0.22453 0.0
C918 C 0.83199 0.63473 0.11128 0.0
C919 C 0.77814 0.64001 0.1854 0.0
N920 N 0.87702 0.58282 0.14981 0.0
N921 N 0.74428 0.70551 0.15664 0.0
H922 H 0.76728 0.62607 0.25023 0.0
H923 H 0.73535 0.66962 0.23231 0.0
H924 H 0.7381 0.727 0.13209 0.0
H925 H 0.73012 0.71545 0.18565 0.0
H926 H 0.90376 0.58504 0.12928 0.0
H927 H 0.88261 0.56377 0.17657 0.0
H928 H 0.8849 0.61179 0.07156 0.0
H929 H 0.85624 0.65717 0.05249 0.0
C930 C 0.85079 0.50304 0.43814 0.0
C931 C 0.88995 0.5219 0.42596 0.0
C932 C 0.86112 0.53976 0.35611 0.0
C933 C 0.82011 0.52457 0.3695 0.0
N934 N 0.78057 0.47841 0.41715 0.0
N935 N 0.93858 0.54178 0.37015 0.0
C936 C 0.81644 0.50171 0.40856 0.0
C937 C 0.8972 0.53407 0.38339 0.0
N938 N 0.84564 0.48932 0.4791 0.0
N939 N 0.86505 0.56167 0.31877 0.0
H940 H 0.96475 0.53774 0.39071 0.0
H941 H 0.94723 0.5478 0.33856 0.0
H942 H 0.83906 0.56775 0.29857 0.0
H943 H 0.89329 0.57664 0.30934 0.0
H944 H 0.81622 0.47991 0.49216 0.0
H945 H 0.8712 0.48909 0.50054 0.0
H946 H 0.77829 0.4576 0.44283 0.0
H947 H 0.75452 0.47654 0.39653 0.0
C948 C 0.14476 0.50629 0.64087 0.0
C949 C 0.16811 0.46778 0.65286 0.0
C950 C 0.13261 0.42816 0.59728 0.0
C951 C 0.1014 0.46256 0.59282 0.0
N952 N 0.08655 0.53902 0.59863 0.0
N953 N 0.17917 0.39051 0.64604 0.0
C954 C 0.10984 0.50335 0.61131 0.0
C955 C 0.1604 0.42826 0.63218 0.0
N956 N 0.15691 0.54525 0.65673 0.0
N957 N 0.13775 0.39683 0.56629 0.0
H958 H 0.19887 0.38889 0.6728 0.0
H959 H 0.17131 0.36049 0.63351 0.0
H960 H 0.12145 0.39863 0.53737 0.0
H961 H 0.16232 0.37282 0.5669 0.0
H962 H 0.14175 0.57477 0.65001 0.0
H963 H 0.18384 0.54844 0.67603 0.0
H964 H 0.09067 0.57018 0.61002 0.0
H965 H 0.06326 0.53759 0.5751 0.0
C966 C 0.5976 0.79456 0.08851 0.0
C967 C 0.59124 0.79715 0.13387 0.0
C968 C 0.66921 0.80928 0.14132 0.0
C969 C 0.67399 0.81174 0.09651 0.0
N970 N 0.6399 0.8185 0.02803 0.0
N971 N 0.62016 0.82147 0.20124 0.0
C972 C 0.63735 0.80795 0.07021 0.0
C973 C 0.6269 0.80827 0.15979 0.0
N974 N 0.56705 0.77763 0.06263 0.0
N975 N 0.70506 0.80852 0.16641 0.0
H976 H 0.58929 0.82689 0.2147 0.0
H977 H 0.64475 0.833 0.22028 0.0
H978 H 0.7366 0.80959 0.15383 0.0
H979 H 0.70358 0.80238 0.19903 0.0
H980 H 0.57161 0.7734 0.0298 0.0
H981 H 0.53935 0.76301 0.0737 0.0
H982 H 0.61282 0.82124 0.00864 0.0
H983 H 0.66845 0.82824 0.01331 0.0
C984 C 0.6729 0.4183 0.1134 0.0
C985 C 0.66802 0.44717 0.14844 0.0
C986 C 0.60054 0.47688 0.12103 0.0
C987 C 0.61173 0.45693 0.08082 0.0
N988 N 0.65316 0.40181 0.0407 0.0
N989 N 0.61336 0.47694 0.1971 0.0
C990 C 0.6457 0.4246 0.07789 0.0
C991 C 0.62727 0.46798 0.15625 0.0
N992 N 0.70232 0.38441 0.11533 0.0
N993 N 0.56714 0.5069 0.12514 0.0
H994 H 0.63093 0.46638 0.22341 0.0
H995 H 0.58202 0.48873 0.20461 0.0
H996 H 0.5459 0.51465 0.1008 0.0
H997 H 0.56216 0.52625 0.1524 0.0
H998 H 0.70578 0.36011 0.09214 0.0
H999 H 0.71996 0.37838 0.14295 0.0
H1000 H 0.68022 0.38134 0.035 0.0
H1001 H 0.6326 0.40446 0.01479 0.0
C1002 C 0.4445 0.33986 0.02125 0.0
C1003 C 0.44572 0.37059 0.98836 0.0
C1004 C 0.38138 0.34124 0.95667 0.0
C1005 C 0.37562 0.31547 -0.00667 0.0
N1006 N 0.40806 0.27868 0.05216 0.0
N1007 N 0.43013 0.38511 0.91538 0.0
C1008 C 0.41003 0.31027 0.02243 0.0
C1009 C 0.41968 0.36507 0.95238 0.0
N1010 N 0.47439 0.34177 0.05275 0.0
N1011 N 0.34821 0.34706 0.92881 0.0
H1012 H 0.4579 0.4033 0.91274 0.0
H1013 H 0.41403 0.37966 0.88693 0.0
H1014 H 0.31989 0.32969 0.93067 0.0
H1015 H 0.3483 0.37025 0.90503 0.0
H1016 H 0.47379 0.32311 0.08009 0.0
H1017 H 0.49983 0.36313 0.051 0.0
H1018 H 0.43273 0.27162 0.07353 0.0
H1019 H 0.38252 0.2574 0.05283 0.0
C1020 C 0.14251 0.17258 0.25053 0.0
C1021 C 0.0988 0.16414 0.24323 0.0
C1022 C 0.11749 0.08696 0.24013 0.0
C1023 C 0.15636 0.09583 0.26179 0.0
N1024 N 0.20439 0.14807 0.29093 0.0
N1025 N 0.04662 0.11549 0.21798 0.0
C1026 C 0.16946 0.13894 0.26656 0.0
C1027 C 0.08745 0.12187 0.23212 0.0
N1028 N 0.15537 0.21409 0.24876 0.0
N1029 N 0.10823 0.04528 0.23053 0.0
H1030 H 0.02539 0.14167 0.21265 0.0
H1031 H 0.03402 0.08541 0.2118 0.0
H1032 H 0.12925 0.01953 0.23819 0.0
H1033 H 0.08144 0.03641 0.21311 0.0
H1034 H 0.18717 0.22306 0.25375 0.0
H1035 H 0.13385 0.23875 0.2392 0.0
H1036 H 0.21184 0.17937 0.29998 0.0
H1037 H 0.22517 0.12408 0.30308 0.0
C1038 C 0.16531 0.40093 0.93049 0.0
C1039 C 0.18933 0.36189 0.92049 0.0
C1040 C 0.19344 0.38241 0.84575 0.0
C1041 C 0.18287 0.42532 0.85959 0.0
N1042 N 0.1281 0.4641 0.90186 0.0
N1043 N 0.1978 0.30668 0.86611 0.0
C1044 C 0.15844 0.43106 0.89781 0.0
C1045 C 0.19459 0.34936 0.87701 0.0
N1046 N 0.15086 0.40993 0.97117 0.0
N1047 N 0.19953 0.37338 0.80334 0.0
H1048 H 0.19158 0.28296 0.88842 0.0
H1049 H 0.20166 0.29484 0.835 0.0
H1050 H 0.19235 0.39617 0.78007 0.0
H1051 H 0.20877 0.34302 0.79123 0.0
H1052 H 0.13786 0.44003 0.98091 0.0
H1053 H 0.15315 0.38753 -0.00455 0.0
H1054 H 0.10698 0.468 0.92809 0.0
H1055 H 0.12064 0.48412 0.87626 0.0
C1056 C 0.32715 0.23469 0.8907 0.0
C1057 C 0.32206 0.19901 0.91781 0.0
C1058 C 0.39657 0.17402 0.90189 0.0
C1059 C 0.40371 0.2125 0.87933 0.0
N1060 N 0.37761 0.28323 0.85822 0.0
N1061 N 0.35581 0.14127 0.95818 0.0
C1062 C 0.36946 0.24406 0.87537 0.0
C1063 C 0.35803 0.17083 0.92632 0.0
N1064 N 0.29157 0.25865 0.87871 0.0
N1065 N 0.42503 0.13925 0.89785 0.0
H1066 H 0.32859 0.13858 0.97805 0.0
H1067 H 0.38277 0.12289 0.96794 0.0
H1068 H 0.45201 0.13847 0.87725 0.0
H1069 H 0.41875 0.10926 0.91075 0.0
H1070 H 0.29242 0.2824 0.85557 0.0
H1071 H 0.26048 0.252 0.88964 0.0
H1072 H 0.35398 0.30761 0.8545 0.0
H1073 H 0.40893 0.29292 0.85106 0.0
C1074 C 0.37765 0.58475 0.91216 0.0
C1075 C 0.40718 0.54865 0.90759 0.0
C1076 C 0.3831 0.53751 0.83434 0.0
C1077 C 0.34578 0.56325 0.84526 0.0
N1078 N 0.32437 0.63148 0.87745 0.0
N1079 N 0.44592 0.49719 0.86042 0.0
C1080 C 0.34855 0.59379 0.87875 0.0
C1081 C 0.4134 0.52781 0.86694 0.0
N1082 N 0.37615 0.60883 0.949 0.0
N1083 N 0.38967 0.52397 0.79301 0.0
H1084 H 0.46811 0.4883 0.88363 0.0
H1085 H 0.45069 0.47964 0.8321 0.0
H1086 H 0.36901 0.53435 0.76885 0.0
H1087 H 0.41739 0.50688 0.78192 0.0
H1088 H 0.35204 0.63235 0.95615 0.0
H1089 H 0.39874 0.60428 0.97301 0.0
H1090 H 0.327 0.6567 0.89946 0.0
H1091 H 0.30534 0.63908 0.85112 0.0
C1092 C 0.61608 0.67388 0.04571 0.0
C1093 C 0.62456 0.69911 0.0097 0.0
C1094 C 0.56809 0.66232 0.97095 0.0
C1095 C 0.57094 0.6288 0.00115 0.0
N1096 N 0.59272 0.60477 0.07083 0.0
N1097 N 0.60075 0.72706 0.94321 0.0
C1098 C 0.59243 0.63575 0.04033 0.0
C1099 C 0.59672 0.69726 0.97446 0.0
N1100 N 0.63397 0.68481 0.0837 0.0
N1101 N 0.53936 0.65933 0.93848 0.0
H1102 H 0.62162 0.75265 0.94674 0.0
H1103 H 0.58418 0.7264 0.91455 0.0
H1104 H 0.51835 0.6337 0.93634 0.0
H1105 H 0.53415 0.6832 0.91594 0.0
H1106 H 0.62713 0.66949 0.11228 0.0
H1107 H 0.65282 0.71199 0.08661 0.0
H1108 H 0.61158 0.60589 0.09807 0.0
H1109 H 0.57463 0.5772 0.06819 0.0
C1110 C 0.91736 0.88252 0.73026 0.0
C1111 C 0.90182 0.84085 0.73527 0.0
C1112 C 0.82706 0.87045 0.73622 0.0
C1113 C 0.84286 0.90924 0.71952 0.0
N1114 N 0.90339 0.95235 0.69931 0.0
N1115 N 0.84329 0.79446 0.75001 0.0
C1116 C 0.88818 0.916 0.71767 0.0
C1117 C 0.85697 0.835 0.7422 0.0
N1118 N 0.96076 0.88855 0.7333 0.0
N1119 N 0.78355 0.86684 0.74342 0.0
H1120 H 0.86545 0.76866 0.75443 0.0
H1121 H 0.81085 0.78624 0.75141 0.0
H1122 H 0.76123 0.8918 0.73674 0.0
H1123 H 0.77001 0.84066 0.75842 0.0
H1124 H 0.97435 0.91882 0.73298 0.0
H1125 H 0.98225 0.8628 0.73973 0.0
H1126 H 0.93608 0.95661 0.69215 0.0
H1127 H 0.88292 0.97772 0.68949 0.0
C1128 C 0.41043 0.11746 0.68545 0.0
C1129 C 0.45295 0.13064 0.69467 0.0
C1130 C 0.48265 0.06561 0.65855 0.0
C1131 C 0.44323 0.06218 0.63725 0.0
N1132 N 0.36592 0.07186 0.64098 0.0
N1133 N 0.53071 0.1155 0.69088 0.0
C1134 C 0.40556 0.08324 0.65526 0.0
C1135 C 0.48948 0.10348 0.6828 0.0
N1136 N 0.37544 0.13867 0.70445 0.0
N1137 N 0.51289 0.03269 0.65578 0.0
H1138 H 0.53738 0.14399 0.70702 0.0
H1139 H 0.55816 0.09855 0.67868 0.0
H1140 H 0.50585 0.00382 0.64032 0.0
H1141 H 0.54131 0.03223 0.67343 0.0
H1142 H 0.3434 0.13028 0.70021 0.0
H1143 H 0.37908 0.16342 0.72692 0.0
H1144 H 0.33664 0.08755 0.64973 0.0
H1145 H 0.36306 0.04577 0.61982 0.0
C1146 C 0.5766 0.34858 0.89555 0.0
C1147 C 0.55964 0.34344 0.85407 0.0
C1148 C 0.55034 0.42276 0.85127 0.0
C1149 C 0.55782 0.42514 0.89597 0.0
N1150 N 0.56966 0.38746 0.96191 0.0
N1151 N 0.54431 0.37777 0.7872 0.0
C1152 C 0.56732 0.38703 0.91852 0.0
C1153 C 0.55002 0.38128 0.83021 0.0
N1154 N 0.606 0.31911 0.91128 0.0
N1155 N 0.54478 0.46021 0.82923 0.0
H1156 H 0.55199 0.34935 0.77013 0.0
H1157 H 0.5335 0.40292 0.76805 0.0
H1158 H 0.54348 0.49041 0.84447 0.0
H1159 H 0.54158 0.46191 0.79632 0.0
H1160 H 0.62112 0.32346 0.94052 0.0
H1161 H 0.6207 0.29471 0.89218 0.0
H1162 H 0.57312 0.35918 0.97941 0.0
H1163 H 0.56403 0.41528 0.98026 0.0
C1164 C 0.55574 0.90442 0.32029 0.0
C1165 C 0.52323 0.87332 0.31778 0.0
C1166 C 0.47807 0.91692 0.36887 0.0
C1167 C 0.51482 0.94069 0.37969 0.0
N1168 N 0.58574 0.96392 0.36025 0.0
N1169 N 0.45235 0.85022 0.34052 0.0
C1170 C 0.55242 0.93717 0.35282 0.0
C1171 C 0.48345 0.88046 0.34113 0.0
N1172 N 0.58986 0.90205 0.2919 0.0
N1173 N 0.43838 0.92778 0.38652 0.0
H1174 H 0.45483 0.82261 0.32161 0.0
H1175 H 0.42544 0.85075 0.36114 0.0
H1176 H 0.43382 0.95276 0.40855 0.0
H1177 H 0.40952 0.91498 0.3761 0.0
H1178 H 0.61345 0.92512 0.28962 0.0
H1179 H 0.59236 0.87831 0.26807 0.0
H1180 H 0.61633 0.96056 0.34575 0.0
H1181 H 0.58235 0.98959 0.38199 0.0
C1182 C 0.46634 0.5649 0.14431 0.0
C1183 C 0.46584 0.5672 0.09897 0.0
C1184 C 0.48908 0.64125 0.10393 0.0
C1185 C 0.48059 0.64208 0.14861 0.0
N1186 N 0.45631 0.60482 0.21121 0.0
N1187 N 0.46602 0.6124 0.03672 0.0
C1188 C 0.4687 0.60371 0.16917 0.0
C1189 C 0.47473 0.60658 0.07888 0.0
N1190 N 0.46385 0.52578 0.16345 0.0
N1191 N 0.5094 0.67484 0.08544 0.0
H1192 H 0.45448 0.58815 0.01717 0.0
H1193 H 0.46704 0.64225 0.02197 0.0
H1194 H 0.5247 0.69797 0.10378 0.0
H1195 H 0.51439 0.67769 0.05271 0.0
H1196 H 0.46779 0.52164 0.19614 0.0
H1197 H 0.46222 0.49705 0.14587 0.0
H1198 H 0.44328 0.57862 0.2267 0.0
H1199 H 0.45572 0.63306 0.22963 0.0
loop_
_geom_bond_atom_site_label_1
_geom_bond_atom_site_label_2
_geom_bond_distance
_geom_bond_site_symmetry_2
_ccdc_geom_bond_type
O0 Mn1 2.163 1_656 S
O0 C14 1.244 . S
Mn1 O0 2.163 1_454 S
Mn1 O4 2.160 1_545 S
Mn1 O5 2.221 1_544 S
Mn1 O7 2.163 1_554 S
Mn1 O9 2.160 1_445 S
Mn1 O19 2.221 1_455 S
O2 Mn3 2.087 1_556 S
O2 C14 1.256 . S
Mn3 O2 2.087 1_554 S
Mn3 O10 2.089 1_545 S
Mn3 O19 2.290 . S
Mn3 O20 2.251 . S
O4 Mn1 2.160 1_565 S
O4 C15 1.239 . S
O5 Mn1 2.221 1_566 S
O5 Mn6 2.290 . S
O5 C16 1.278 . S
Mn6 O5 2.290 . S
Mn6 O8 2.089 1_556 S
Mn6 O11 2.251 . S
Mn6 O12 2.087 1_565 S
O7 Mn1 2.163 1_556 S
O7 C17 1.244 . S
O8 Mn6 2.089 1_554 S
O8 C15 1.256 . S
O9 Mn1 2.160 1_665 S
O9 C18 1.239 . S
O10 Mn3 2.089 1_565 S
O10 C18 1.256 . S
O11 Mn6 2.251 . S
O11 C16 1.241 . S
O12 Mn6 2.087 1_545 S
O12 C17 1.256 . S
C13 O19 1.278 . S
C13 O20 1.241 . S
C14 O0 1.244 . S
C14 O2 1.256 . S
C15 O4 1.239 . S
C15 O8 1.256 . S
C16 O5 1.278 . S
C16 O11 1.241 . S
C17 O7 1.244 . S
C17 O12 1.256 . S
C18 O9 1.239 . S
C18 O10 1.256 . S
O19 Mn1 2.221 1_655 S
O19 Mn3 2.290 . S
O19 C13 1.278 . S
O20 Mn3 2.251 . S
O20 C13 1.241 . S
O21 Mn22 2.163 . S
O21 C35 1.244 . S
Mn22 O21 2.163 . S
Mn22 O25 2.160 1_455 S
Mn22 O26 2.221 . S
Mn22 O28 2.163 . S
Mn22 O30 2.160 1_455 S
Mn22 O40 2.221 1_455 S
O23 Mn24 2.087 1_455 S
O23 C35 1.256 . S
Mn24 O23 2.087 1_655 S
Mn24 O31 2.089 . S
Mn24 O40 2.290 . S
Mn24 O41 2.251 . S
O25 Mn22 2.160 1_655 S
O25 C36 1.239 . S
O26 Mn22 2.221 . S
O26 Mn27 2.290 . S
O26 C37 1.278 . S
Mn27 O26 2.290 . S
Mn27 O29 2.089 1_455 S
Mn27 O32 2.251 . S
Mn27 O33 2.087 . S
O28 Mn22 2.163 . S
O28 C38 1.244 . S
O29 Mn27 2.089 1_655 S
O29 C36 1.256 . S
O30 Mn22 2.160 1_655 S
O30 C39 1.239 . S
O31 Mn24 2.089 . S
O31 C39 1.256 . S
O32 Mn27 2.251 . S
O32 C37 1.241 . S
O33 Mn27 2.087 . S
O33 C38 1.256 . S
C34 O40 1.278 . S
C34 O41 1.241 . S
C35 O21 1.244 . S
C35 O23 1.256 . S
C36 O25 1.239 . S
C36 O29 1.256 . S
C37 O26 1.278 . S
C37 O32 1.241 . S
C38 O28 1.244 . S
C38 O33 1.256 . S
C39 O30 1.239 . S
C39 O31 1.256 . S
O40 Mn22 2.221 1_655 S
O40 Mn24 2.290 . S
O40 C34 1.278 . S
O41 Mn24 2.251 . S
O41 C34 1.241 . S
O42 Mn43 2.163 . S
O42 C56 1.244 . S
Mn43 O42 2.163 . S
Mn43 O46 2.160 . S
Mn43 O47 2.221 . S
Mn43 O49 2.163 . S
Mn43 O51 2.160 . S
Mn43 O61 2.221 . S
O44 Mn45 2.087 . S
O44 C56 1.256 . S
Mn45 O44 2.087 . S
Mn45 O52 2.089 . S
Mn45 O61 2.290 . S
Mn45 O62 2.251 . S
O46 Mn43 2.160 . S
O46 C57 1.239 . S
O47 Mn43 2.221 . S
O47 Mn48 2.290 . S
O47 C58 1.278 . S
Mn48 O47 2.290 . S
Mn48 O50 2.089 . S
Mn48 O53 2.251 . S
Mn48 O54 2.087 . S
O49 Mn43 2.163 . S
O49 C59 1.244 . S
O50 Mn48 2.089 . S
O50 C57 1.256 . S
O51 Mn43 2.160 . S
O51 C60 1.239 . S
O52 Mn45 2.089 . S
O52 C60 1.256 . S
O53 Mn48 2.251 . S
O53 C58 1.241 . S
O54 Mn48 2.087 . S
O54 C59 1.256 . S
C55 O61 1.278 . S
C55 O62 1.241 . S
C56 O42 1.244 . S
C56 O44 1.256 . S
C57 O46 1.239 . S
C57 O50 1.256 . S
C58 O47 1.278 . S
C58 O53 1.241 . S
C59 O49 1.244 . S
C59 O54 1.256 . S
C60 O51 1.239 . S
C60 O52 1.256 . S
O61 Mn43 2.221 . S
O61 Mn45 2.290 . S
O61 C55 1.278 . S
O62 Mn45 2.251 . S
O62 C55 1.241 . S
O63 Mn64 2.163 1_565 S
O63 C77 1.244 . S
Mn64 O63 2.163 1_545 S
Mn64 O67 2.160 . S
Mn64 O68 2.221 1_545 S
Mn64 O70 2.160 1_545 S
Mn64 O72 2.160 . S
Mn64 O82 2.221 . S
O65 Mn66 2.087 1_565 S
O65 C77 1.256 . S
Mn66 O65 2.087 1_545 S
Mn66 O73 2.089 . S
Mn66 O82 2.290 . S
Mn66 O83 2.251 . S
O67 Mn64 2.160 . S
O67 C78 1.239 . S
O68 Mn64 2.221 1_565 S
O68 Mn69 2.290 . S
O68 C79 1.278 . S
Mn69 O68 2.290 . S
Mn69 O71 2.089 1_565 S
Mn69 O74 2.251 . S
Mn69 O75 2.087 . S
O70 Mn64 2.160 1_565 S
O70 C80 1.251 . S
O71 Mn69 2.089 1_545 S
O71 C78 1.256 . S
O72 Mn64 2.160 . S
O72 C81 1.239 . S
O73 Mn66 2.089 . S
O73 C81 1.256 . S
O74 Mn69 2.251 . S
O74 C79 1.241 . S
O75 Mn69 2.087 . S
O75 C80 1.256 . S
C76 O82 1.278 . S
C76 O83 1.241 . S
C77 O63 1.244 . S
C77 O65 1.256 . S
C78 O67 1.239 . S
C78 O71 1.256 . S
C79 O68 1.278 . S
C79 O74 1.241 . S
C80 O70 1.251 . S
C80 O75 1.256 . S
C81 O72 1.239 . S
C81 O73 1.256 . S
O82 Mn64 2.221 . S
O82 Mn66 2.290 . S
O82 C76 1.278 . S
O83 Mn66 2.251 . S
O83 C76 1.241 . S
O84 Mn85 2.163 . S
O84 C98 1.244 . S
Mn85 O84 2.163 . S
Mn85 O88 2.160 . S
Mn85 O89 2.221 . S
Mn85 O91 2.163 . S
Mn85 O93 2.160 . S
Mn85 O103 2.221 . S
O86 Mn87 2.087 . S
O86 C98 1.256 . S
Mn87 O86 2.087 . S
Mn87 O94 2.089 . S
Mn87 O103 2.290 . S
Mn87 O104 2.251 . S
O88 Mn85 2.160 . S
O88 C99 1.239 . S
O89 Mn85 2.221 . S
O89 Mn90 2.290 . S
O89 C100 1.278 . S
Mn90 O89 2.290 . S
Mn90 O92 2.089 . S
Mn90 O95 2.251 . S
Mn90 O96 2.087 . S
O91 Mn85 2.163 . S
O91 C101 1.244 . S
O92 Mn90 2.089 . S
O92 C99 1.256 . S
O93 Mn85 2.160 . S
O93 C102 1.239 . S
O94 Mn87 2.089 . S
O94 C102 1.256 . S
O95 Mn90 2.251 . S
O95 C100 1.241 . S
O96 Mn90 2.087 . S
O96 C101 1.256 . S
C97 O103 1.278 . S
C97 O104 1.241 . S
C98 O84 1.244 . S
C98 O86 1.256 . S
C99 O88 1.239 . S
C99 O92 1.256 . S
C100 O89 1.278 . S
C100 O95 1.241 . S
C101 O91 1.244 . S
C101 O96 1.256 . S
C102 O93 1.239 . S
C102 O94 1.256 . S
O103 Mn85 2.221 . S
O103 Mn87 2.290 . S
O103 C97 1.278 . S
O104 Mn87 2.251 . S
O104 C97 1.241 . S
O105 Mn106 2.163 . S
O105 C119 1.244 . S
Mn106 O105 2.163 . S
Mn106 O109 2.160 . S
Mn106 O110 2.221 . S
Mn106 O112 2.163 . S
Mn106 O114 2.160 . S
Mn106 O124 2.221 . S
O107 Mn108 2.087 . S
O107 C119 1.256 . S
Mn108 O107 2.087 . S
Mn108 O115 2.089 . S
Mn108 O124 2.290 . S
Mn108 O125 2.251 . S
O109 Mn106 2.160 . S
O109 C120 1.239 . S
O110 Mn106 2.221 . S
O110 Mn111 2.290 . S
O110 C121 1.278 . S
Mn111 O110 2.290 . S
Mn111 O113 2.089 . S
Mn111 O116 2.251 . S
Mn111 O117 2.087 . S
O112 Mn106 2.163 . S
O112 C122 1.244 . S
O113 Mn111 2.089 . S
O113 C120 1.256 . S
O114 Mn106 2.160 . S
O114 C123 1.239 . S
O115 Mn108 2.089 . S
O115 C123 1.256 . S
O116 Mn111 2.251 . S
O116 C121 1.241 . S
O117 Mn111 2.087 . S
O117 C122 1.256 . S
C118 O124 1.278 . S
C118 O125 1.241 . S
C119 O105 1.244 . S
C119 O107 1.256 . S
C120 O109 1.239 . S
C120 O113 1.256 . S
C121 O110 1.278 . S
C121 O116 1.241 . S
C122 O112 1.244 . S
C122 O117 1.256 . S
C123 O114 1.239 . S
C123 O115 1.256 . S
O124 Mn106 2.221 . S
O124 Mn108 2.290 . S
O124 C118 1.278 . S
O125 Mn108 2.251 . S
O125 C118 1.241 . S
O126 Mn127 2.163 . S
O126 C140 1.244 . S
Mn127 O126 2.163 . S
Mn127 O130 2.160 . S
Mn127 O131 2.221 . S
Mn127 O133 2.163 . S
Mn127 O135 2.160 . S
Mn127 O145 2.221 . S
O128 Mn129 2.087 . S
O128 C140 1.256 . S
Mn129 O128 2.087 . S
Mn129 O136 2.089 . S
Mn129 O145 2.290 . S
Mn129 O146 2.251 . S
O130 Mn127 2.160 . S
O130 C141 1.239 . S
O131 Mn127 2.221 . S
O131 Mn132 2.290 . S
O131 C142 1.278 . S
Mn132 O131 2.290 . S
Mn132 O134 2.089 . S
Mn132 O137 2.251 . S
Mn132 O138 2.087 . S
O133 Mn127 2.163 . S
O133 C143 1.244 . S
O134 Mn132 2.089 . S
O134 C141 1.256 . S
O135 Mn127 2.160 . S
O135 C144 1.239 . S
O136 Mn129 2.089 . S
O136 C144 1.256 . S
O137 Mn132 2.251 . S
O137 C142 1.241 . S
O138 Mn132 2.087 . S
O138 C143 1.256 . S
C139 O145 1.278 . S
C139 O146 1.241 . S
C140 O126 1.244 . S
C140 O128 1.256 . S
C141 O130 1.239 . S
C141 O134 1.256 . S
C142 O131 1.278 . S
C142 O137 1.241 . S
C143 O133 1.244 . S
C143 O138 1.256 . S
C144 O135 1.239 . S
C144 O136 1.256 . S
O145 Mn127 2.221 . S
O145 Mn129 2.290 . S
O145 C139 1.278 . S
O146 Mn129 2.251 . S
O146 C139 1.241 . S
O147 Mn148 2.163 1_655 S
O147 C161 1.244 . S
Mn148 O147 2.163 1_455 S
Mn148 O151 2.160 . S
Mn148 O152 2.221 . S
Mn148 O154 2.163 1_455 S
Mn148 O156 2.160 . S
Mn148 O166 2.221 1_455 S
O149 Mn150 2.087 . S
O149 C161 1.256 . S
Mn150 O149 2.087 . S
Mn150 O157 2.089 1_655 S
Mn150 O166 2.290 . S
Mn150 O167 2.251 . S
O151 Mn148 2.160 . S
O151 C162 1.239 . S
O152 Mn148 2.221 . S
O152 Mn153 2.290 . S
O152 C163 1.278 . S
Mn153 O152 2.290 . S
Mn153 O155 2.089 . S
Mn153 O158 2.251 . S
Mn153 O159 2.087 1_455 S
O154 Mn148 2.163 1_655 S
O154 C164 1.244 . S
O155 Mn153 2.089 . S
O155 C162 1.256 . S
O156 Mn148 2.160 . S
O156 C165 1.239 . S
O157 Mn150 2.089 1_455 S
O157 C165 1.256 . S
O158 Mn153 2.251 . S
O158 C163 1.241 . S
O159 Mn153 2.087 1_655 S
O159 C164 1.256 . S
C160 O166 1.278 . S
C160 O167 1.241 . S
C161 O147 1.244 . S
C161 O149 1.256 . S
C162 O151 1.239 . S
C162 O155 1.256 . S
C163 O152 1.278 . S
C163 O158 1.241 . S
C164 O154 1.244 . S
C164 O159 1.256 . S
C165 O156 1.239 . S
C165 O157 1.256 . S
O166 Mn148 2.221 1_655 S
O166 Mn150 2.290 . S
O166 C160 1.278 . S
O167 Mn150 2.251 . S
O167 C160 1.241 . S
O168 Mn169 2.163 . S
O168 C182 1.244 . S
Mn169 O168 2.163 . S
Mn169 O172 2.160 1_554 S
Mn169 O173 2.221 . S
Mn169 O175 2.163 . S
Mn169 O177 2.160 1_554 S
Mn169 O187 2.221 1_554 S
O170 Mn171 2.087 1_554 S
O170 C182 1.256 . S
Mn171 O170 2.087 1_556 S
Mn171 O178 2.089 . S
Mn171 O187 2.290 . S
Mn171 O188 2.251 . S
O172 Mn169 2.160 1_556 S
O172 C183 1.239 . S
O173 Mn169 2.221 . S
O173 Mn174 2.290 . S
O173 C184 1.278 . S
Mn174 O173 2.290 . S
Mn174 O176 2.089 1_554 S
Mn174 O179 2.251 . S
Mn174 O180 2.087 . S
O175 Mn169 2.163 . S
O175 C185 1.244 . S
O176 Mn174 2.089 1_556 S
O176 C183 1.256 . S
O177 Mn169 2.160 1_556 S
O177 C186 1.239 . S
O178 Mn171 2.089 . S
O178 C186 1.256 . S
O179 Mn174 2.251 . S
O179 C184 1.241 . S
O180 Mn174 2.087 . S
O180 C185 1.256 . S
C181 O187 1.278 . S
C181 O188 1.241 . S
C182 O168 1.244 . S
C182 O170 1.256 . S
C183 O172 1.239 . S
C183 O176 1.256 . S
C184 O173 1.278 . S
C184 O179 1.241 . S
C185 O175 1.244 . S
C185 O180 1.256 . S
C186 O177 1.239 . S
C186 O178 1.256 . S
O187 Mn169 2.221 1_556 S
O187 Mn171 2.290 . S
O187 C181 1.278 . S
O188 Mn171 2.251 . S
O188 C181 1.241 . S
O189 Mn190 2.163 1_565 S
O189 C203 1.244 . S
Mn190 O189 2.163 1_545 S
Mn190 O193 2.160 . S
Mn190 O194 2.221 1_545 S
Mn190 O196 2.163 . S
Mn190 O198 2.160 . S
Mn190 O208 2.221 . S
O191 Mn192 2.087 1_565 S
O191 C203 1.256 . S
Mn192 O191 2.087 1_545 S
Mn192 O199 2.089 . S
Mn192 O208 2.290 . S
Mn192 O209 2.251 . S
O193 Mn190 2.160 . S
O193 C204 1.239 . S
O194 Mn190 2.221 1_565 S
O194 Mn195 2.290 . S
O194 C205 1.278 . S
Mn195 O194 2.290 . S
Mn195 O197 2.089 1_565 S
Mn195 O200 2.251 . S
Mn195 O201 2.087 . S
O196 Mn190 2.163 . S
O196 C206 1.244 1_545 S
O197 Mn195 2.089 1_545 S
O197 C204 1.256 . S
O198 Mn190 2.160 . S
O198 C207 1.239 . S
O199 Mn192 2.089 . S
O199 C207 1.256 . S
O200 Mn195 2.251 . S
O200 C205 1.241 . S
O201 Mn195 2.087 . S
O201 C206 1.256 . S
C202 O208 1.278 . S
C202 O209 1.241 . S
C203 O189 1.244 . S
C203 O191 1.256 . S
C204 O193 1.239 . S
C204 O197 1.256 . S
C205 O194 1.278 . S
C205 O200 1.241 . S
C206 O196 1.244 1_565 S
C206 O201 1.256 . S
C207 O198 1.239 . S
C207 O199 1.256 . S
O208 Mn190 2.221 . S
O208 Mn192 2.290 . S
O208 C202 1.278 . S
O209 Mn192 2.251 . S
O209 C202 1.241 . S
O210 Mn211 2.163 . S
O210 C224 1.244 . S
Mn211 O210 2.163 . S
Mn211 O214 2.160 . S
Mn211 O215 2.221 . S
Mn211 O217 2.163 . S
Mn211 O219 2.160 . S
Mn211 O229 2.221 . S
O212 Mn213 2.087 . S
O212 C224 1.256 . S
Mn213 O212 2.087 . S
Mn213 O220 2.089 . S
Mn213 O229 2.290 . S
Mn213 O230 2.251 . S
O214 Mn211 2.160 . S
O214 C225 1.239 . S
O215 Mn211 2.221 . S
O215 Mn216 2.290 . S
O215 C226 1.278 . S
Mn216 O215 2.290 . S
Mn216 O218 2.089 . S
Mn216 O221 2.251 . S
Mn216 O222 2.087 . S
O217 Mn211 2.163 . S
O217 C227 1.244 . S
O218 Mn216 2.089 . S
O218 C225 1.256 . S
O219 Mn211 2.160 . S
O219 C228 1.239 . S
O220 Mn213 2.089 . S
O220 C228 1.256 . S
O221 Mn216 2.251 . S
O221 C226 1.241 . S
O222 Mn216 2.087 . S
O222 C227 1.256 . S
C223 O229 1.278 . S
C223 O230 1.241 . S
C224 O210 1.244 . S
C224 O212 1.256 . S
C225 O214 1.239 . S
C225 O218 1.256 . S
C226 O215 1.278 . S
C226 O221 1.241 . S
C227 O217 1.244 . S
C227 O222 1.256 . S
C228 O219 1.239 . S
C228 O220 1.256 . S
O229 Mn211 2.221 . S
O229 Mn213 2.290 . S
O229 C223 1.278 . S
O230 Mn213 2.251 . S
O230 C223 1.241 . S
O231 Mn232 2.163 . S
O231 C245 1.244 . S
Mn232 O231 2.163 . S
Mn232 O235 2.160 1_455 S
Mn232 O236 2.221 . S
Mn232 O238 2.163 . S
Mn232 O240 2.160 1_455 S
Mn232 O250 2.221 1_455 S
O233 Mn234 2.087 1_455 S
O233 C245 1.256 . S
Mn234 O233 2.087 1_655 S
Mn234 O241 2.089 . S
Mn234 O250 2.290 . S
Mn234 O251 2.251 . S
O235 Mn232 2.160 1_655 S
O235 C246 1.239 . S
O236 Mn232 2.221 . S
O236 Mn237 2.290 . S
O236 C247 1.278 . S
Mn237 O236 2.290 . S
Mn237 O239 2.089 1_455 S
Mn237 O242 2.251 . S
Mn237 O243 2.087 . S
O238 Mn232 2.163 . S
O238 C248 1.244 . S
O239 Mn237 2.089 1_655 S
O239 C246 1.256 . S
O240 Mn232 2.160 1_655 S
O240 C249 1.239 . S
O241 Mn234 2.089 . S
O241 C249 1.256 . S
O242 Mn237 2.251 . S
O242 C247 1.241 . S
O243 Mn237 2.087 . S
O243 C248 1.256 . S
C244 O250 1.278 . S
C244 O251 1.241 . S
C245 O231 1.244 . S
C245 O233 1.256 . S
C246 O235 1.239 . S
C246 O239 1.256 . S
C247 O236 1.278 . S
C247 O242 1.241 . S
C248 O238 1.244 . S
C248 O243 1.256 . S
C249 O240 1.239 . S
C249 O241 1.256 . S
O250 Mn232 2.221 1_655 S
O250 Mn234 2.290 . S
O250 C244 1.278 . S
O251 Mn234 2.251 . S
O251 C244 1.241 . S
O252 Mn253 2.163 . S
O252 C266 1.244 . S
Mn253 O252 2.163 . S
Mn253 O256 2.160 . S
Mn253 O257 2.221 . S
Mn253 O259 2.163 . S
Mn253 O261 2.160 . S
Mn253 O271 2.221 . S
O254 Mn255 2.087 . S
O254 C266 1.256 . S
Mn255 O254 2.087 . S
Mn255 O262 2.089 . S
Mn255 O271 2.290 . S
Mn255 O272 2.251 . S
O256 Mn253 2.160 . S
O256 C267 1.239 . S
O257 Mn253 2.221 . S
O257 Mn258 2.290 . S
O257 C268 1.278 . S
Mn258 O257 2.290 . S
Mn258 O260 2.089 . S
Mn258 O263 2.251 . S
Mn258 O264 2.087 . S
O259 Mn253 2.163 . S
O259 C269 1.244 . S
O260 Mn258 2.089 . S
O260 C267 1.256 . S
O261 Mn253 2.160 . S
O261 C270 1.239 . S
O262 Mn255 2.089 . S
O262 C270 1.256 . S
O263 Mn258 2.251 . S
O263 C268 1.241 . S
O264 Mn258 2.087 . S
O264 C269 1.256 . S
C265 O271 1.278 . S
C265 O272 1.241 . S
C266 O252 1.244 . S
C266 O254 1.256 . S
C267 O256 1.239 . S
C267 O260 1.256 . S
C268 O257 1.278 . S
C268 O263 1.241 . S
C269 O259 1.244 . S
C269 O264 1.256 . S
C270 O261 1.239 . S
C270 O262 1.256 . S
O271 Mn253 2.221 . S
O271 Mn255 2.290 . S
O271 C265 1.278 . S
O272 Mn255 2.251 . S
O272 C265 1.241 . S
O273 Mn274 2.163 . S
O273 C287 1.244 . S
Mn274 O273 2.163 . S
Mn274 O277 2.160 1_554 S
Mn274 O278 2.221 . S
Mn274 O280 2.163 . S
Mn274 O282 2.160 1_554 S
Mn274 O292 2.221 1_554 S
O275 Mn276 2.087 1_554 S
O275 C287 1.256 . S
Mn276 O275 2.087 1_556 S
Mn276 O283 2.089 . S
Mn276 O292 2.290 . S
Mn276 O293 2.251 . S
O277 Mn274 2.160 1_556 S
O277 C288 1.239 . S
O278 Mn274 2.221 . S
O278 Mn279 2.290 . S
O278 C289 1.278 . S
Mn279 O278 2.290 . S
Mn279 O281 2.089 1_554 S
Mn279 O284 2.251 . S
Mn279 O285 2.087 . S
O280 Mn274 2.163 . S
O280 C290 1.244 . S
O281 Mn279 2.089 1_556 S
O281 C288 1.256 . S
O282 Mn274 2.160 1_556 S
O282 C291 1.239 . S
O283 Mn276 2.089 . S
O283 C291 1.256 . S
O284 Mn279 2.251 . S
O284 C289 1.241 . S
O285 Mn279 2.087 . S
O285 C290 1.256 . S
C286 O292 1.278 . S
C286 O293 1.241 . S
C287 O273 1.244 . S
C287 O275 1.256 . S
C288 O277 1.239 . S
C288 O281 1.256 . S
C289 O278 1.278 . S
C289 O284 1.241 . S
C290 O280 1.244 . S
C290 O285 1.256 . S
C291 O282 1.239 . S
C291 O283 1.256 . S
O292 Mn274 2.221 1_556 S
O292 Mn276 2.290 . S
O292 C286 1.278 . S
O293 Mn276 2.251 . S
O293 C286 1.241 . S
O294 Mn295 2.163 . S
O294 C308 1.244 . S
Mn295 O294 2.163 . S
Mn295 O298 2.160 1_545 S
Mn295 O299 2.221 1_545 S
Mn295 O301 2.163 1_545 S
Mn295 O303 2.160 . S
Mn295 O313 2.221 . S
O296 Mn297 2.087 . S
O296 C308 1.256 . S
Mn297 O296 2.087 . S
Mn297 O304 2.089 . S
Mn297 O313 2.290 . S
Mn297 O314 2.251 . S
O298 Mn295 2.160 1_565 S
O298 C309 1.239 . S
O299 Mn295 2.221 1_565 S
O299 Mn300 2.290 . S
O299 C310 1.278 . S
Mn300 O299 2.290 . S
Mn300 O302 2.089 . S
Mn300 O305 2.251 . S
Mn300 O306 2.087 . S
O301 Mn295 2.163 1_565 S
O301 C311 1.244 . S
O302 Mn300 2.089 . S
O302 C309 1.256 . S
O303 Mn295 2.160 . S
O303 C312 1.239 . S
O304 Mn297 2.089 . S
O304 C312 1.256 . S
O305 Mn300 2.251 . S
O305 C310 1.241 . S
O306 Mn300 2.087 . S
O306 C311 1.256 . S
C307 O313 1.278 . S
C307 O314 1.241 . S
C308 O294 1.244 . S
C308 O296 1.256 . S
C309 O298 1.239 . S
C309 O302 1.256 . S
C310 O299 1.278 . S
C310 O305 1.241 . S
C311 O301 1.244 . S
C311 O306 1.256 . S
C312 O303 1.239 . S
C312 O304 1.256 . S
O313 Mn295 2.221 . S
O313 Mn297 2.290 . S
O313 C307 1.278 . S
O314 Mn297 2.251 . S
O314 C307 1.241 . S
O315 Mn316 2.163 1_556 S
O315 C329 1.244 . S
Mn316 O315 2.163 1_554 S
Mn316 O319 2.160 . S
Mn316 O320 2.221 1_554 S
Mn316 O322 2.163 1_554 S
Mn316 O324 2.160 . S
Mn316 O334 2.221 . S
O317 Mn318 2.087 1_556 S
O317 C329 1.256 . S
Mn318 O317 2.087 1_554 S
Mn318 O325 2.089 . S
Mn318 O334 2.290 . S
Mn318 O335 2.251 . S
O319 Mn316 2.160 . S
O319 C330 1.239 . S
O320 Mn316 2.221 1_556 S
O320 Mn321 2.290 . S
O320 C331 1.278 . S
Mn321 O320 2.290 . S
Mn321 O323 2.089 1_556 S
Mn321 O326 2.251 . S
Mn321 O327 2.087 . S
O322 Mn316 2.163 1_556 S
O322 C332 1.244 . S
O323 Mn321 2.089 1_554 S
O323 C330 1.256 . S
O324 Mn316 2.160 . S
O324 C333 1.239 . S
O325 Mn318 2.089 . S
O325 C333 1.256 . S
O326 Mn321 2.251 . S
O326 C331 1.241 . S
O327 Mn321 2.087 . S
O327 C332 1.256 . S
C328 O334 1.278 . S
C328 O335 1.241 . S
C329 O315 1.244 . S
C329 O317 1.256 . S
C330 O319 1.239 . S
C330 O323 1.256 . S
C331 O320 1.278 . S
C331 O326 1.241 . S
C332 O322 1.244 . S
C332 O327 1.256 . S
C333 O324 1.239 . S
C333 O325 1.256 . S
O334 Mn316 2.221 . S
O334 Mn318 2.290 . S
O334 C328 1.278 . S
O335 Mn318 2.251 . S
O335 C328 1.241 . S
C336 C337 1.363 . S
C336 C342 1.379 . S
C336 N344 1.356 . S
C337 C336 1.363 . S
C337 C343 1.363 . S
C338 C339 1.363 . S
C338 C343 1.379 . S
C338 N345 1.356 1_655 S
C339 C338 1.363 . S
C339 C342 1.363 . S
N340 C342 1.356 . S
N340 H352 0.984 . S
N340 H353 0.985 . S
N341 C343 1.356 1_455 S
N341 H346 0.984 . S
N341 H347 0.985 . S
C342 C336 1.379 . S
C342 C339 1.363 . S
C342 N340 1.356 . S
C343 C337 1.363 . S
C343 C338 1.379 . S
C343 N341 1.356 1_655 S
N344 C336 1.356 . S
N344 H350 0.984 . S
N344 H351 0.984 . S
N345 C338 1.356 1_455 S
N345 H348 0.985 . S
N345 H349 0.985 . S
H346 N341 0.984 . S
H347 N341 0.985 . S
H348 N345 0.985 . S
H349 N345 0.985 . S
H350 N344 0.984 . S
H351 N344 0.984 . S
H352 N340 0.984 . S
H353 N340 0.985 . S
C354 C355 1.363 . S
C354 C360 1.379 . S
C354 N362 1.356 . S
C355 C354 1.363 . S
C355 C361 1.363 . S
C356 C357 1.363 . S
C356 C361 1.379 . S
C356 N363 1.356 . S
C357 C356 1.363 . S
C357 C360 1.363 . S
N358 C360 1.356 . S
N358 H370 0.984 . S
N358 H371 0.985 . S
N359 C361 1.356 . S
N359 H364 0.984 . S
N359 H365 0.985 . S
C360 C354 1.379 . S
C360 C357 1.363 . S
C360 N358 1.356 . S
C361 C355 1.363 . S
C361 C356 1.379 . S
C361 N359 1.356 . S
N362 C354 1.356 . S
N362 H368 0.984 . S
N362 H369 0.984 . S
N363 C356 1.356 . S
N363 H366 0.984 . S
N363 H367 0.985 . S
H364 N359 0.984 . S
H365 N359 0.985 . S
H366 N363 0.984 . S
H367 N363 0.985 . S
H368 N362 0.984 . S
H369 N362 0.984 . S
H370 N358 0.984 . S
H371 N358 0.985 . S
C372 C373 1.363 . S
C372 C378 1.379 . S
C372 N380 1.356 . S
C373 C372 1.363 . S
C373 C379 1.363 . S
C374 C375 1.363 . S
C374 C379 1.379 . S
C374 N381 1.356 . S
C375 C374 1.363 . S
C375 C378 1.363 . S
N376 C378 1.356 . S
N376 H388 0.984 . S
N376 H389 0.985 . S
N377 C379 1.356 . S
N377 H382 0.984 . S
N377 H383 0.985 . S
C378 C372 1.379 . S
C378 C375 1.363 . S
C378 N376 1.356 . S
C379 C373 1.363 . S
C379 C374 1.379 . S
C379 N377 1.356 . S
N380 C372 1.356 . S
N380 H386 0.984 . S
N380 H387 0.984 . S
N381 C374 1.356 . S
N381 H384 0.984 . S
N381 H385 0.985 . S
H382 N377 0.984 . S
H383 N377 0.985 . S
H384 N381 0.984 . S
H385 N381 0.985 . S
H386 N380 0.984 . S
H387 N380 0.984 . S
H388 N376 0.984 . S
H389 N376 0.985 . S
C390 C391 1.363 . S
C390 C396 1.379 . S
C390 N398 1.356 1_545 S
C391 C390 1.363 . S
C391 C397 1.363 . S
C392 C393 1.363 . S
C392 C397 1.379 . S
C392 N399 1.356 . S
C393 C392 1.363 . S
C393 C396 1.363 . S
N394 C396 1.356 1_565 S
N394 H406 0.984 . S
N394 H407 0.985 . S
N395 C397 1.356 . S
N395 H400 0.984 . S
N395 H401 0.985 . S
C396 C390 1.379 . S
C396 C393 1.363 . S
C396 N394 1.356 1_545 S
C397 C391 1.363 . S
C397 C392 1.379 . S
C397 N395 1.356 . S
N398 C390 1.356 1_565 S
N398 H404 0.984 . S
N398 H405 0.984 . S
N399 C392 1.356 . S
N399 H402 0.984 . S
N399 H403 0.985 . S
H400 N395 0.984 . S
H401 N395 0.985 . S
H402 N399 0.984 . S
H403 N399 0.985 . S
H404 N398 0.984 . S
H405 N398 0.984 . S
H406 N394 0.984 . S
H407 N394 0.985 . S
C408 C409 1.363 . S
C408 C414 1.379 . S
C408 N416 1.356 . S
C409 C408 1.363 . S
C409 C415 1.363 1_565 S
C410 C411 1.363 1_545 S
C410 C415 1.379 . S
C410 N417 1.356 . S
C411 C410 1.363 1_565 S
C411 C414 1.363 . S
N412 C414 1.356 . S
N412 H424 0.984 . S
N412 H425 0.985 . S
N413 C415 1.356 . S
N413 H418 0.984 . S
N413 H419 0.985 . S
C414 C408 1.379 . S
C414 C411 1.363 . S
C414 N412 1.356 . S
C415 C409 1.363 1_545 S
C415 C410 1.379 . S
C415 N413 1.356 . S
N416 C408 1.356 . S
N416 H422 0.984 . S
N416 H423 0.984 . S
N417 C410 1.356 . S
N417 H420 0.984 . S
N417 H421 0.985 . S
H418 N413 0.984 . S
H419 N413 0.985 . S
H420 N417 0.984 . S
H421 N417 0.985 . S
H422 N416 0.984 . S
H423 N416 0.984 . S
H424 N412 0.984 . S
H425 N412 0.985 . S
C426 C427 1.363 . S
C426 C432 1.379 . S
C426 N434 1.356 . S
C427 C426 1.363 . S
C427 C433 1.363 . S
C428 C429 1.363 . S
C428 C433 1.379 . S
C428 N435 1.356 . S
C429 C428 1.363 . S
C429 C432 1.363 . S
N430 C432 1.356 . S
N430 H442 0.984 1_455 S
N430 H443 0.985 . S
N431 C433 1.356 . S
N431 H436 0.984 . S
N431 H437 0.985 . S
C432 C426 1.379 . S
C432 C429 1.363 . S
C432 N430 1.356 . S
C433 C427 1.363 . S
C433 C428 1.379 . S
C433 N431 1.356 . S
N434 C426 1.356 . S
N434 H440 0.984 1_455 S
N434 H441 0.984 . S
N435 C428 1.356 . S
N435 H438 0.984 . S
N435 H439 0.985 . S
H436 N431 0.984 . S
H437 N431 0.985 . S
H438 N435 0.984 . S
H439 N435 0.985 . S
H440 N434 0.984 1_655 S
H441 N434 0.984 . S
H442 N430 0.984 1_655 S
H443 N430 0.985 . S
C444 C445 1.363 . S
C444 C450 1.379 . S
C444 N452 1.356 . S
C445 C444 1.363 . S
C445 C451 1.363 . S
C446 C447 1.363 . S
C446 C451 1.379 . S
C446 N453 1.356 . S
C447 C446 1.363 . S
C447 C450 1.363 . S
N448 C450 1.356 . S
N448 H460 0.984 . S
N448 H461 0.985 . S
N449 C451 1.356 . S
N449 H454 0.984 . S
N449 H455 0.985 . S
C450 C444 1.379 . S
C450 C447 1.363 . S
C450 N448 1.356 . S
C451 C445 1.363 . S
C451 C446 1.379 . S
C451 N449 1.356 . S
N452 C444 1.356 . S
N452 H458 0.984 . S
N452 H459 0.984 . S
N453 C446 1.356 . S
N453 H456 0.984 . S
N453 H457 0.985 . S
H454 N449 0.984 . S
H455 N449 0.985 . S
H456 N453 0.984 . S
H457 N453 0.985 . S
H458 N452 0.984 . S
H459 N452 0.984 . S
H460 N448 0.984 . S
H461 N448 0.985 . S
C462 C463 1.363 . S
C462 C468 1.379 . S
C462 N470 1.356 . S
C463 C462 1.363 . S
C463 C469 1.363 . S
C464 C465 1.363 . S
C464 C469 1.379 . S
C464 N471 1.356 . S
C465 C464 1.363 . S
C465 C468 1.363 . S
N466 C468 1.356 . S
N466 H478 0.984 . S
N466 H479 0.985 . S
N467 C469 1.356 . S
N467 H472 0.984 . S
N467 H473 0.985 . S
C468 C462 1.379 . S
C468 C465 1.363 . S
C468 N466 1.356 . S
C469 C463 1.363 . S
C469 C464 1.379 . S
C469 N467 1.356 . S
N470 C462 1.356 . S
N470 H476 0.984 . S
N470 H477 0.984 . S
N471 C464 1.356 . S
N471 H474 0.984 . S
N471 H475 0.985 . S
H472 N467 0.984 . S
H473 N467 0.985 . S
H474 N471 0.984 . S
H475 N471 0.985 . S
H476 N470 0.984 . S
H477 N470 0.984 . S
H478 N466 0.984 . S
H479 N466 0.985 . S
C480 C481 1.363 . S
C480 C486 1.379 . S
C480 N488 1.356 . S
C481 C480 1.363 . S
C481 C487 1.363 . S
C482 C483 1.363 . S
C482 C487 1.379 . S
C482 N489 1.356 . S
C483 C482 1.363 . S
C483 C486 1.363 . S
N484 C486 1.356 . S
N484 H496 0.984 . S
N484 H497 0.985 . S
N485 C487 1.356 . S
N485 H490 0.984 . S
N485 H491 0.985 . S
C486 C480 1.379 . S
C486 C483 1.363 . S
C486 N484 1.356 . S
C487 C481 1.363 . S
C487 C482 1.379 . S
C487 N485 1.356 . S
N488 C480 1.356 . S
N488 H494 0.984 . S
N488 H495 0.984 . S
N489 C482 1.356 . S
N489 H492 0.984 . S
N489 H493 0.985 . S
H490 N485 0.984 . S
H491 N485 0.985 . S
H492 N489 0.984 . S
H493 N489 0.985 . S
H494 N488 0.984 . S
H495 N488 0.984 . S
H496 N484 0.984 . S
H497 N484 0.985 . S
C498 C499 1.363 . S
C498 C504 1.379 . S
C498 N506 1.356 . S
C499 C498 1.363 . S
C499 C505 1.363 . S
C500 C501 1.363 . S
C500 C505 1.379 . S
C500 N507 1.356 . S
C501 C500 1.363 . S
C501 C504 1.363 . S
N502 C504 1.356 . S
N502 H514 0.984 . S
N502 H515 0.985 . S
N503 C505 1.356 . S
N503 H508 0.984 . S
N503 H509 0.985 . S
C504 C498 1.379 . S
C504 C501 1.363 . S
C504 N502 1.356 . S
C505 C499 1.363 . S
C505 C500 1.379 . S
C505 N503 1.356 . S
N506 C498 1.356 . S
N506 H512 0.984 . S
N506 H513 0.984 . S
N507 C500 1.356 . S
N507 H510 0.984 . S
N507 H511 0.985 . S
H508 N503 0.984 . S
H509 N503 0.985 . S
H510 N507 0.984 . S
H511 N507 0.985 . S
H512 N506 0.984 . S
H513 N506 0.984 . S
H514 N502 0.984 . S
H515 N502 0.985 . S
C516 C517 1.363 . S
C516 C522 1.379 . S
C516 N524 1.356 . S
C517 C516 1.363 . S
C517 C523 1.363 1_565 S
C518 C519 1.363 1_545 S
C518 C523 1.379 . S
C518 N525 1.356 . S
C519 C518 1.363 1_565 S
C519 C522 1.363 . S
N520 C522 1.356 . S
N520 H532 0.984 . S
N520 H533 0.985 . S
N521 C523 1.356 . S
N521 H526 0.984 . S
N521 H527 0.985 . S
C522 C516 1.379 . S
C522 C519 1.363 . S
C522 N520 1.356 . S
C523 C517 1.363 1_545 S
C523 C518 1.379 . S
C523 N521 1.356 . S
N524 C516 1.356 . S
N524 H530 0.984 . S
N524 H531 0.984 . S
N525 C518 1.356 . S
N525 H528 0.984 . S
N525 H529 0.985 . S
H526 N521 0.984 . S
H527 N521 0.985 . S
H528 N525 0.984 . S
H529 N525 0.985 . S
H530 N524 0.984 . S
H531 N524 0.984 . S
H532 N520 0.984 . S
H533 N520 0.985 . S
C534 C535 1.363 . S
C534 C540 1.379 . S
C534 N542 1.356 . S
C535 C534 1.363 . S
C535 C541 1.363 . S
C536 C537 1.363 . S
C536 C541 1.379 . S
C536 N543 1.356 . S
C537 C536 1.363 . S
C537 C540 1.363 . S
N538 C540 1.356 . S
N538 H550 0.984 . S
N538 H551 0.985 . S
N539 C541 1.356 . S
N539 H544 0.984 . S
N539 H545 0.985 1_455 S
C540 C534 1.379 . S
C540 C537 1.363 . S
C540 N538 1.356 . S
C541 C535 1.363 . S
C541 C536 1.379 . S
C541 N539 1.356 . S
N542 C534 1.356 . S
N542 H548 0.984 . S
N542 H549 0.984 . S
N543 C536 1.356 . S
N543 H546 0.984 . S
N543 H547 0.985 1_455 S
H544 N539 0.984 . S
H545 N539 0.985 1_655 S
H546 N543 0.984 . S
H547 N543 0.985 1_655 S
H548 N542 0.984 . S
H549 N542 0.984 . S
H550 N538 0.984 . S
H551 N538 0.985 . S
C552 C553 1.363 1_554 S
C552 C558 1.379 . S
C552 N560 1.356 . S
C553 C552 1.363 1_556 S
C553 C559 1.363 . S
C554 C555 1.363 . S
C554 C559 1.379 . S
C554 N561 1.356 . S
C555 C554 1.363 . S
C555 C558 1.363 1_556 S
N556 C558 1.356 . S
N556 H568 0.984 . S
N556 H569 0.985 . S
N557 C559 1.356 . S
N557 H562 0.984 . S
N557 H563 0.985 . S
C558 C552 1.379 . S
C558 C555 1.363 1_554 S
C558 N556 1.356 . S
C559 C553 1.363 . S
C559 C554 1.379 . S
C559 N557 1.356 . S
N560 C552 1.356 . S
N560 H566 0.984 . S
N560 H567 0.984 . S
N561 C554 1.356 . S
N561 H564 0.984 . S
N561 H565 0.985 . S
H562 N557 0.984 . S
H563 N557 0.985 . S
H564 N561 0.984 . S
H565 N561 0.985 . S
H566 N560 0.984 . S
H567 N560 0.984 . S
H568 N556 0.984 . S
H569 N556 0.985 . S
C570 C571 1.363 . S
C570 C576 1.379 . S
C570 N578 1.356 . S
C571 C570 1.363 . S
C571 C577 1.363 . S
C572 C573 1.363 . S
C572 C577 1.379 . S
C572 N579 1.356 . S
C573 C572 1.363 . S
C573 C576 1.363 . S
N574 C576 1.356 . S
N574 H586 0.984 . S
N574 H587 0.985 . S
N575 C577 1.356 . S
N575 H580 0.984 . S
N575 H581 0.985 . S
C576 C570 1.379 . S
C576 C573 1.363 . S
C576 N574 1.356 . S
C577 C571 1.363 . S
C577 C572 1.379 . S
C577 N575 1.356 . S
N578 C570 1.356 . S
N578 H584 0.984 . S
N578 H585 0.984 . S
N579 C572 1.356 . S
N579 H582 0.984 . S
N579 H583 0.985 . S
H580 N575 0.984 . S
H581 N575 0.985 . S
H582 N579 0.984 . S
H583 N579 0.985 . S
H584 N578 0.984 . S
H585 N578 0.984 . S
H586 N574 0.984 . S
H587 N574 0.985 . S
C588 C589 1.363 . S
C588 C594 1.379 . S
C588 N596 1.356 . S
C589 C588 1.363 . S
C589 C595 1.363 . S
C590 C591 1.363 . S
C590 C595 1.379 . S
C590 N597 1.356 . S
C591 C590 1.363 . S
C591 C594 1.363 . S
N592 C594 1.356 . S
N592 H604 0.984 . S
N592 H605 0.985 . S
N593 C595 1.356 . S
N593 H598 0.984 . S
N593 H599 0.985 . S
C594 C588 1.379 . S
C594 C591 1.363 . S
C594 N592 1.356 . S
C595 C589 1.363 . S
C595 C590 1.379 . S
C595 N593 1.356 . S
N596 C588 1.356 . S
N596 H602 0.984 . S
N596 H603 0.984 . S
N597 C590 1.356 . S
N597 H600 0.984 . S
N597 H601 0.985 . S
H598 N593 0.984 . S
H599 N593 0.985 . S
H600 N597 0.984 . S
H601 N597 0.985 . S
H602 N596 0.984 . S
H603 N596 0.984 . S
H604 N592 0.984 . S
H605 N592 0.985 . S
C606 C607 1.363 . S
C606 C612 1.379 . S
C606 N614 1.356 . S
C607 C606 1.363 . S
C607 C613 1.363 . S
C608 C609 1.363 . S
C608 C613 1.379 . S
C608 N615 1.356 . S
C609 C608 1.363 . S
C609 C612 1.363 . S
N610 C612 1.356 . S
N610 H622 0.984 . S
N610 H623 0.985 . S
N611 C613 1.356 . S
N611 H616 0.984 . S
N611 H617 0.985 . S
C612 C606 1.379 . S
C612 C609 1.363 . S
C612 N610 1.356 . S
C613 C607 1.363 . S
C613 C608 1.379 . S
C613 N611 1.356 . S
N614 C606 1.356 . S
N614 H620 0.984 . S
N614 H621 0.984 . S
N615 C608 1.356 . S
N615 H618 0.984 . S
N615 H619 0.985 . S
H616 N611 0.984 . S
H617 N611 0.985 . S
H618 N615 0.984 . S
H619 N615 0.985 . S
H620 N614 0.984 . S
H621 N614 0.984 . S
H622 N610 0.984 . S
H623 N610 0.985 . S
C624 C625 1.363 . S
C624 C630 1.379 . S
C624 N632 1.356 . S
C625 C624 1.363 . S
C625 C631 1.363 . S
C626 C627 1.363 . S
C626 C631 1.379 . S
C626 N633 1.356 . S
C627 C626 1.363 . S
C627 C630 1.363 . S
N628 C630 1.356 . S
N628 H640 0.984 . S
N628 H641 0.985 . S
N629 C631 1.356 . S
N629 H634 0.984 . S
N629 H635 0.985 . S
C630 C624 1.379 . S
C630 C627 1.363 . S
C630 N628 1.356 . S
C631 C625 1.363 . S
C631 C626 1.379 . S
C631 N629 1.356 . S
N632 C624 1.356 . S
N632 H638 0.984 . S
N632 H639 0.984 . S
N633 C626 1.356 . S
N633 H636 0.984 . S
N633 H637 0.985 . S
H634 N629 0.984 . S
H635 N629 0.985 . S
H636 N633 0.984 . S
H637 N633 0.985 . S
H638 N632 0.984 . S
H639 N632 0.984 . S
H640 N628 0.984 . S
H641 N628 0.985 . S
C642 C643 1.363 . S
C642 C648 1.379 . S
C642 N650 1.356 . S
C643 C642 1.363 . S
C643 C649 1.363 . S
C644 C645 1.363 . S
C644 C649 1.379 . S
C644 N651 1.356 . S
C645 C644 1.363 . S
C645 C648 1.363 . S
N646 C648 1.356 . S
N646 H658 0.984 . S
N646 H659 0.985 . S
N647 C649 1.356 . S
N647 H652 0.984 . S
N647 H653 0.985 . S
C648 C642 1.379 . S
C648 C645 1.363 . S
C648 N646 1.356 . S
C649 C643 1.363 . S
C649 C644 1.379 . S
C649 N647 1.356 . S
N650 C642 1.356 . S
N650 H656 0.984 . S
N650 H657 0.984 . S
N651 C644 1.356 . S
N651 H654 0.984 . S
N651 H655 0.985 . S
H652 N647 0.984 . S
H653 N647 0.985 . S
H654 N651 0.984 . S
H655 N651 0.985 . S
H656 N650 0.984 . S
H657 N650 0.984 . S
H658 N646 0.984 . S
H659 N646 0.985 . S
C660 C661 1.363 . S
C660 C666 1.379 . S
C660 N668 1.356 . S
C661 C660 1.363 . S
C661 C667 1.363 . S
C662 C663 1.363 . S
C662 C667 1.379 . S
C662 N669 1.356 . S
C663 C662 1.363 . S
C663 C666 1.363 . S
N664 C666 1.356 . S
N664 H676 0.984 . S
N664 H677 0.985 . S
N665 C667 1.356 . S
N665 H670 0.984 . S
N665 H671 0.985 . S
C666 C660 1.379 . S
C666 C663 1.363 . S
C666 N664 1.356 . S
C667 C661 1.363 . S
C667 C662 1.379 . S
C667 N665 1.356 . S
N668 C660 1.356 . S
N668 H674 0.984 . S
N668 H675 0.984 . S
N669 C662 1.356 . S
N669 H672 0.984 . S
N669 H673 0.985 . S
H670 N665 0.984 . S
H671 N665 0.985 . S
H672 N669 0.984 . S
H673 N669 0.985 . S
H674 N668 0.984 . S
H675 N668 0.984 . S
H676 N664 0.984 . S
H677 N664 0.985 . S
C678 C679 1.363 . S
C678 C684 1.379 . S
C678 N686 1.356 . S
C679 C678 1.363 . S
C679 C685 1.363 . S
C680 C681 1.363 . S
C680 C685 1.379 . S
C680 N687 1.356 . S
C681 C680 1.363 . S
C681 C684 1.363 . S
N682 C684 1.356 . S
N682 H694 0.984 . S
N682 H695 0.985 . S
N683 C685 1.356 . S
N683 H688 0.984 . S
N683 H689 0.985 . S
C684 C678 1.379 . S
C684 C681 1.363 . S
C684 N682 1.356 . S
C685 C679 1.363 . S
C685 C680 1.379 . S
C685 N683 1.356 . S
N686 C678 1.356 . S
N686 H692 0.984 . S
N686 H693 0.984 . S
N687 C680 1.356 . S
N687 H690 0.984 . S
N687 H691 0.985 . S
H688 N683 0.984 . S
H689 N683 0.985 . S
H690 N687 0.984 . S
H691 N687 0.985 . S
H692 N686 0.984 . S
H693 N686 0.984 . S
H694 N682 0.984 . S
H695 N682 0.985 . S
C696 C697 1.363 . S
C696 C702 1.379 . S
C696 N704 1.356 . S
C697 C696 1.363 . S
C697 C703 1.363 . S
C698 C699 1.363 . S
C698 C703 1.379 . S
C698 N705 1.356 . S
C699 C698 1.363 . S
C699 C702 1.363 . S
N700 C702 1.356 . S
N700 H712 0.984 . S
N700 H713 0.985 . S
N701 C703 1.356 . S
N701 H706 0.984 . S
N701 H707 0.985 . S
C702 C696 1.379 . S
C702 C699 1.363 . S
C702 N700 1.356 . S
C703 C697 1.363 . S
C703 C698 1.379 . S
C703 N701 1.356 . S
N704 C696 1.356 . S
N704 H710 0.984 . S
N704 H711 0.984 . S
N705 C698 1.356 . S
N705 H708 0.984 . S
N705 H709 0.985 . S
H706 N701 0.984 . S
H707 N701 0.985 . S
H708 N705 0.984 . S
H709 N705 0.985 . S
H710 N704 0.984 . S
H711 N704 0.984 . S
H712 N700 0.984 . S
H713 N700 0.985 . S
C714 C715 1.363 1_455 S
C714 C720 1.379 . S
C714 N722 1.356 . S
C715 C714 1.363 1_655 S
C715 C721 1.363 . S
C716 C717 1.363 . S
C716 C721 1.379 . S
C716 N723 1.356 . S
C717 C716 1.363 . S
C717 C720 1.363 1_655 S
N718 C720 1.356 . S
N718 H730 0.984 . S
N718 H731 0.985 . S
N719 C721 1.356 . S
N719 H724 0.984 . S
N719 H725 0.985 . S
C720 C714 1.379 . S
C720 C717 1.363 1_455 S
C720 N718 1.356 . S
C721 C715 1.363 . S
C721 C716 1.379 . S
C721 N719 1.356 . S
N722 C714 1.356 . S
N722 H728 0.984 . S
N722 H729 0.984 . S
N723 C716 1.356 . S
N723 H726 0.984 . S
N723 H727 0.985 . S
H724 N719 0.984 . S
H725 N719 0.985 . S
H726 N723 0.984 . S
H727 N723 0.985 . S
H728 N722 0.984 . S
H729 N722 0.984 . S
H730 N718 0.984 . S
H731 N718 0.985 . S
C732 C733 1.363 . S
C732 C738 1.379 . S
C732 N740 1.356 . S
C733 C732 1.363 . S
C733 C739 1.363 . S
C734 C735 1.363 . S
C734 C739 1.379 . S
C734 N741 1.356 . S
C735 C734 1.363 . S
C735 C738 1.363 . S
N736 C738 1.356 . S
N736 H748 0.984 . S
N736 H749 0.985 . S
N737 C739 1.356 . S
N737 H742 0.984 . S
N737 H743 0.985 . S
C738 C732 1.379 . S
C738 C735 1.363 . S
C738 N736 1.356 . S
C739 C733 1.363 . S
C739 C734 1.379 . S
C739 N737 1.356 . S
N740 C732 1.356 . S
N740 H746 0.984 . S
N740 H747 0.984 . S
N741 C734 1.356 . S
N741 H744 0.984 . S
N741 H745 0.985 . S
H742 N737 0.984 . S
H743 N737 0.985 . S
H744 N741 0.984 . S
H745 N741 0.985 . S
H746 N740 0.984 . S
H747 N740 0.984 . S
H748 N736 0.984 . S
H749 N736 0.985 . S
C750 C751 1.363 . S
C750 C756 1.379 . S
C750 N758 1.356 . S
C751 C750 1.363 . S
C751 C757 1.363 . S
C752 C753 1.363 . S
C752 C757 1.379 . S
C752 N759 1.356 . S
C753 C752 1.363 . S
C753 C756 1.363 . S
N754 C756 1.356 . S
N754 H766 0.984 . S
N754 H767 0.985 . S
N755 C757 1.356 . S
N755 H760 0.984 . S
N755 H761 0.985 . S
C756 C750 1.379 . S
C756 C753 1.363 . S
C756 N754 1.356 . S
C757 C751 1.363 . S
C757 C752 1.379 . S
C757 N755 1.356 . S
N758 C750 1.356 . S
N758 H764 0.984 . S
N758 H765 0.984 . S
N759 C752 1.356 . S
N759 H762 0.984 . S
N759 H763 0.985 . S
H760 N755 0.984 . S
H761 N755 0.985 . S
H762 N759 0.984 . S
H763 N759 0.985 . S
H764 N758 0.984 . S
H765 N758 0.984 . S
H766 N754 0.984 . S
H767 N754 0.985 . S
C768 C769 1.363 . S
C768 C774 1.379 . S
C768 N776 1.356 . S
C769 C768 1.363 . S
C769 C775 1.363 . S
C770 C771 1.363 . S
C770 C775 1.379 . S
C770 N777 1.356 . S
C771 C770 1.363 . S
C771 C774 1.363 . S
N772 C774 1.356 . S
N772 H784 0.984 . S
N772 H785 0.985 . S
N773 C775 1.356 . S
N773 H778 0.984 . S
N773 H779 0.985 . S
C774 C768 1.379 . S
C774 C771 1.363 . S
C774 N772 1.356 . S
C775 C769 1.363 . S
C775 C770 1.379 . S
C775 N773 1.356 . S
N776 C768 1.356 . S
N776 H782 0.984 . S
N776 H783 0.984 . S
N777 C770 1.356 . S
N777 H780 0.984 . S
N777 H781 0.985 . S
H778 N773 0.984 . S
H779 N773 0.985 . S
H780 N777 0.984 . S
H781 N777 0.985 . S
H782 N776 0.984 . S
H783 N776 0.984 . S
H784 N772 0.984 . S
H785 N772 0.985 . S
C786 C787 1.363 . S
C786 C792 1.379 . S
C786 N794 1.356 . S
C787 C786 1.363 . S
C787 C793 1.363 . S
C788 C789 1.363 . S
C788 C793 1.379 . S
C788 N795 1.356 . S
C789 C788 1.363 . S
C789 C792 1.363 . S
N790 C792 1.356 . S
N790 H802 0.984 . S
N790 H803 0.985 . S
N791 C793 1.356 . S
N791 H796 0.984 . S
N791 H797 0.985 . S
C792 C786 1.379 . S
C792 C789 1.363 . S
C792 N790 1.356 . S
C793 C787 1.363 . S
C793 C788 1.379 . S
C793 N791 1.356 . S
N794 C786 1.356 . S
N794 H800 0.984 . S
N794 H801 0.984 . S
N795 C788 1.356 . S
N795 H798 0.984 . S
N795 H799 0.985 . S
H796 N791 0.984 . S
H797 N791 0.985 . S
H798 N795 0.984 . S
H799 N795 0.985 . S
H800 N794 0.984 . S
H801 N794 0.984 . S
H802 N790 0.984 . S
H803 N790 0.985 . S
C804 C805 1.363 . S
C804 C810 1.379 . S
C804 N812 1.356 . S
C805 C804 1.363 . S
C805 C811 1.363 . S
C806 C807 1.363 . S
C806 C811 1.379 . S
C806 N813 1.356 . S
C807 C806 1.363 . S
C807 C810 1.363 . S
N808 C810 1.356 . S
N808 H820 0.984 . S
N808 H821 0.985 . S
N809 C811 1.356 . S
N809 H814 0.984 . S
N809 H815 0.985 . S
C810 C804 1.379 . S
C810 C807 1.363 . S
C810 N808 1.356 . S
C811 C805 1.363 . S
C811 C806 1.379 . S
C811 N809 1.356 . S
N812 C804 1.356 . S
N812 H818 0.984 . S
N812 H819 0.984 . S
N813 C806 1.356 . S
N813 H816 0.984 . S
N813 H817 0.985 . S
H814 N809 0.984 . S
H815 N809 0.985 . S
H816 N813 0.984 . S
H817 N813 0.985 . S
H818 N812 0.984 . S
H819 N812 0.984 . S
H820 N808 0.984 . S
H821 N808 0.985 . S
C822 C823 1.363 . S
C822 C828 1.379 . S
C822 N830 1.356 . S
C823 C822 1.363 . S
C823 C829 1.363 . S
C824 C825 1.363 . S
C824 C829 1.379 . S
C824 N831 1.356 1_554 S
C825 C824 1.363 . S
C825 C828 1.363 . S
N826 C828 1.356 . S
N826 H838 0.984 . S
N826 H839 0.985 . S
N827 C829 1.356 1_556 S
N827 H832 0.984 . S
N827 H833 0.985 . S
C828 C822 1.379 . S
C828 C825 1.363 . S
C828 N826 1.356 . S
C829 C823 1.363 . S
C829 C824 1.379 . S
C829 N827 1.356 1_554 S
N830 C822 1.356 . S
N830 H836 0.984 . S
N830 H837 0.984 . S
N831 C824 1.356 1_556 S
N831 H834 0.984 . S
N831 H835 0.985 . S
H832 N827 0.984 . S
H833 N827 0.985 . S
H834 N831 0.984 . S
H835 N831 0.985 . S
H836 N830 0.984 . S
H837 N830 0.984 . S
H838 N826 0.984 . S
H839 N826 0.985 . S
C840 C841 1.363 . S
C840 C846 1.379 . S
C840 N848 1.356 . S
C841 C840 1.363 . S
C841 C847 1.363 . S
C842 C843 1.363 . S
C842 C847 1.379 . S
C842 N849 1.356 . S
C843 C842 1.363 . S
C843 C846 1.363 . S
N844 C846 1.356 . S
N844 H856 0.984 . S
N844 H857 0.985 . S
N845 C847 1.356 . S
N845 H850 0.984 . S
N845 H851 0.985 . S
C846 C840 1.379 . S
C846 C843 1.363 . S
C846 N844 1.356 . S
C847 C841 1.363 . S
C847 C842 1.379 . S
C847 N845 1.356 . S
N848 C840 1.356 . S
N848 H854 0.984 . S
N848 H855 0.984 . S
N849 C842 1.356 . S
N849 H852 0.984 . S
N849 H853 0.985 . S
H850 N845 0.984 . S
H851 N845 0.985 . S
H852 N849 0.984 . S
H853 N849 0.985 . S
H854 N848 0.984 . S
H855 N848 0.984 . S
H856 N844 0.984 . S
H857 N844 0.985 . S
C858 C859 1.363 . S
C858 C864 1.379 . S
C858 N866 1.356 . S
C859 C858 1.363 . S
C859 C865 1.363 . S
C860 C861 1.363 . S
C860 C865 1.379 . S
C860 N867 1.356 . S
C861 C860 1.363 . S
C861 C864 1.363 . S
N862 C864 1.356 . S
N862 H874 0.984 . S
N862 H875 0.985 . S
N863 C865 1.356 . S
N863 H868 0.984 . S
N863 H869 0.985 . S
C864 C858 1.379 . S
C864 C861 1.363 . S
C864 N862 1.356 . S
C865 C859 1.363 . S
C865 C860 1.379 . S
C865 N863 1.356 . S
N866 C858 1.356 . S
N866 H872 0.984 . S
N866 H873 0.984 . S
N867 C860 1.356 . S
N867 H870 0.984 . S
N867 H871 0.985 . S
H868 N863 0.984 . S
H869 N863 0.985 . S
H870 N867 0.984 . S
H871 N867 0.985 . S
H872 N866 0.984 . S
H873 N866 0.984 . S
H874 N862 0.984 . S
H875 N862 0.985 . S
C876 C877 1.363 . S
C876 C882 1.379 . S
C876 N884 1.356 . S
C877 C876 1.363 . S
C877 C883 1.363 . S
C878 C879 1.363 . S
C878 C883 1.379 . S
C878 N885 1.356 . S
C879 C878 1.363 . S
C879 C882 1.363 . S
N880 C882 1.356 . S
N880 H892 0.984 . S
N880 H893 0.985 . S
N881 C883 1.356 . S
N881 H886 0.984 . S
N881 H887 0.985 . S
C882 C876 1.379 . S
C882 C879 1.363 . S
C882 N880 1.356 . S
C883 C877 1.363 . S
C883 C878 1.379 . S
C883 N881 1.356 . S
N884 C876 1.356 . S
N884 H890 0.984 . S
N884 H891 0.984 . S
N885 C878 1.356 . S
N885 H888 0.984 . S
N885 H889 0.985 . S
H886 N881 0.984 . S
H887 N881 0.985 . S
H888 N885 0.984 . S
H889 N885 0.985 . S
H890 N884 0.984 . S
H891 N884 0.984 . S
H892 N880 0.984 . S
H893 N880 0.985 . S
C894 C895 1.363 . S
C894 C900 1.379 . S
C894 N902 1.356 . S
C895 C894 1.363 . S
C895 C901 1.363 . S
C896 C897 1.363 . S
C896 C901 1.379 . S
C896 N903 1.356 . S
C897 C896 1.363 . S
C897 C900 1.363 . S
N898 C900 1.356 . S
N898 H910 0.984 . S
N898 H911 0.985 . S
N899 C901 1.356 . S
N899 H904 0.984 . S
N899 H905 0.985 . S
C900 C894 1.379 . S
C900 C897 1.363 . S
C900 N898 1.356 . S
C901 C895 1.363 . S
C901 C896 1.379 . S
C901 N899 1.356 . S
N902 C894 1.356 . S
N902 H908 0.984 . S
N902 H909 0.984 . S
N903 C896 1.356 . S
N903 H906 0.984 . S
N903 H907 0.985 . S
H904 N899 0.984 . S
H905 N899 0.985 . S
H906 N903 0.984 . S
H907 N903 0.985 . S
H908 N902 0.984 . S
H909 N902 0.984 . S
H910 N898 0.984 . S
H911 N898 0.985 . S
C912 C913 1.363 . S
C912 C918 1.379 . S
C912 N920 1.356 . S
C913 C912 1.363 . S
C913 C919 1.363 . S
C914 C915 1.363 . S
C914 C919 1.379 . S
C914 N921 1.356 . S
C915 C914 1.363 . S
C915 C918 1.363 . S
N916 C918 1.356 . S
N916 H928 0.984 . S
N916 H929 0.985 . S
N917 C919 1.356 . S
N917 H922 0.984 . S
N917 H923 0.985 . S
C918 C912 1.379 . S
C918 C915 1.363 . S
C918 N916 1.356 . S
C919 C913 1.363 . S
C919 C914 1.379 . S
C919 N917 1.356 . S
N920 C912 1.356 . S
N920 H926 0.984 . S
N920 H927 0.984 . S
N921 C914 1.356 . S
N921 H924 0.984 . S
N921 H925 0.985 . S
H922 N917 0.984 . S
H923 N917 0.985 . S
H924 N921 0.984 . S
H925 N921 0.985 . S
H926 N920 0.984 . S
H927 N920 0.984 . S
H928 N916 0.984 . S
H929 N916 0.985 . S
C930 C931 1.363 . S
C930 C936 1.379 . S
C930 N938 1.356 . S
C931 C930 1.363 . S
C931 C937 1.363 . S
C932 C933 1.363 . S
C932 C937 1.379 . S
C932 N939 1.356 . S
C933 C932 1.363 . S
C933 C936 1.363 . S
N934 C936 1.356 . S
N934 H946 0.984 . S
N934 H947 0.985 . S
N935 C937 1.356 . S
N935 H940 0.984 . S
N935 H941 0.985 . S
C936 C930 1.379 . S
C936 C933 1.363 . S
C936 N934 1.356 . S
C937 C931 1.363 . S
C937 C932 1.379 . S
C937 N935 1.356 . S
N938 C930 1.356 . S
N938 H944 0.984 . S
N938 H945 0.984 . S
N939 C932 1.356 . S
N939 H942 0.984 . S
N939 H943 0.985 . S
H940 N935 0.984 . S
H941 N935 0.985 . S
H942 N939 0.984 . S
H943 N939 0.985 . S
H944 N938 0.984 . S
H945 N938 0.984 . S
H946 N934 0.984 . S
H947 N934 0.985 . S
C948 C949 1.363 . S
C948 C954 1.379 . S
C948 N956 1.356 . S
C949 C948 1.363 . S
C949 C955 1.363 . S
C950 C951 1.363 . S
C950 C955 1.379 . S
C950 N957 1.356 . S
C951 C950 1.363 . S
C951 C954 1.363 . S
N952 C954 1.356 . S
N952 H964 0.984 . S
N952 H965 0.985 . S
N953 C955 1.356 . S
N953 H958 0.984 . S
N953 H959 0.985 . S
C954 C948 1.379 . S
C954 C951 1.363 . S
C954 N952 1.356 . S
C955 C949 1.363 . S
C955 C950 1.379 . S
C955 N953 1.356 . S
N956 C948 1.356 . S
N956 H962 0.984 . S
N956 H963 0.984 . S
N957 C950 1.356 . S
N957 H960 0.984 . S
N957 H961 0.985 . S
H958 N953 0.984 . S
H959 N953 0.985 . S
H960 N957 0.984 . S
H961 N957 0.985 . S
H962 N956 0.984 . S
H963 N956 0.984 . S
H964 N952 0.984 . S
H965 N952 0.985 . S
C966 C967 1.363 . S
C966 C972 1.379 . S
C966 N974 1.356 . S
C967 C966 1.363 . S
C967 C973 1.363 . S
C968 C969 1.363 . S
C968 C973 1.379 . S
C968 N975 1.356 . S
C969 C968 1.363 . S
C969 C972 1.363 . S
N970 C972 1.356 . S
N970 H982 0.984 . S
N970 H983 0.985 . S
N971 C973 1.356 . S
N971 H976 0.984 . S
N971 H977 0.985 . S
C972 C966 1.379 . S
C972 C969 1.363 . S
C972 N970 1.356 . S
C973 C967 1.363 . S
C973 C968 1.379 . S
C973 N971 1.356 . S
N974 C966 1.356 . S
N974 H980 0.984 . S
N974 H981 0.984 . S
N975 C968 1.356 . S
N975 H978 0.984 . S
N975 H979 0.985 . S
H976 N971 0.984 . S
H977 N971 0.985 . S
H978 N975 0.984 . S
H979 N975 0.985 . S
H980 N974 0.984 . S
H981 N974 0.984 . S
H982 N970 0.984 . S
H983 N970 0.985 . S
C984 C985 1.363 . S
C984 C990 1.379 . S
C984 N992 1.356 . S
C985 C984 1.363 . S
C985 C991 1.363 . S
C986 C987 1.363 . S
C986 C991 1.379 . S
C986 N993 1.356 . S
C987 C986 1.363 . S
C987 C990 1.363 . S
N988 C990 1.356 . S
N988 H1000 0.984 . S
N988 H1001 0.985 . S
N989 C991 1.356 . S
N989 H994 0.984 . S
N989 H995 0.985 . S
C990 C984 1.379 . S
C990 C987 1.363 . S
C990 N988 1.356 . S
C991 C985 1.363 . S
C991 C986 1.379 . S
C991 N989 1.356 . S
N992 C984 1.356 . S
N992 H998 0.984 . S
N992 H999 0.984 . S
N993 C986 1.356 . S
N993 H996 0.984 . S
N993 H997 0.985 . S
H994 N989 0.984 . S
H995 N989 0.985 . S
H996 N993 0.984 . S
H997 N993 0.985 . S
H998 N992 0.984 . S
H999 N992 0.984 . S
H1000 N988 0.984 . S
H1001 N988 0.985 . S
C1002 C1003 1.363 . S
C1002 C1008 1.379 . S
C1002 N1010 1.356 . S
C1003 C1002 1.363 . S
C1003 C1009 1.363 . S
C1004 C1005 1.363 . S
C1004 C1009 1.379 . S
C1004 N1011 1.356 1_554 S
C1005 C1004 1.363 . S
C1005 C1008 1.363 . S
N1006 C1008 1.356 . S
N1006 H1018 0.984 . S
N1006 H1019 0.985 . S
N1007 C1009 1.356 1_556 S
N1007 H1012 0.984 . S
N1007 H1013 0.985 . S
C1008 C1002 1.379 . S
C1008 C1005 1.363 . S
C1008 N1006 1.356 . S
C1009 C1003 1.363 . S
C1009 C1004 1.379 . S
C1009 N1007 1.356 1_554 S
N1010 C1002 1.356 . S
N1010 H1016 0.984 . S
N1010 H1017 0.984 . S
N1011 C1004 1.356 1_556 S
N1011 H1014 0.984 . S
N1011 H1015 0.985 . S
H1012 N1007 0.984 . S
H1013 N1007 0.985 . S
H1014 N1011 0.984 . S
H1015 N1011 0.985 . S
H1016 N1010 0.984 . S
H1017 N1010 0.984 . S
H1018 N1006 0.984 . S
H1019 N1006 0.985 . S
C1020 C1021 1.363 . S
C1020 C1026 1.379 . S
C1020 N1028 1.356 . S
C1021 C1020 1.363 . S
C1021 C1027 1.363 . S
C1022 C1023 1.363 . S
C1022 C1027 1.379 . S
C1022 N1029 1.356 . S
C1023 C1022 1.363 . S
C1023 C1026 1.363 . S
N1024 C1026 1.356 . S
N1024 H1036 0.984 . S
N1024 H1037 0.985 . S
N1025 C1027 1.356 . S
N1025 H1030 0.984 . S
N1025 H1031 0.985 . S
C1026 C1020 1.379 . S
C1026 C1023 1.363 . S
C1026 N1024 1.356 . S
C1027 C1021 1.363 . S
C1027 C1022 1.379 . S
C1027 N1025 1.356 . S
N1028 C1020 1.356 . S
N1028 H1034 0.984 . S
N1028 H1035 0.984 . S
N1029 C1022 1.356 . S
N1029 H1032 0.984 . S
N1029 H1033 0.985 . S
H1030 N1025 0.984 . S
H1031 N1025 0.985 . S
H1032 N1029 0.984 . S
H1033 N1029 0.985 . S
H1034 N1028 0.984 . S
H1035 N1028 0.984 . S
H1036 N1024 0.984 . S
H1037 N1024 0.985 . S
C1038 C1039 1.363 . S
C1038 C1044 1.379 . S
C1038 N1046 1.356 . S
C1039 C1038 1.363 . S
C1039 C1045 1.363 . S
C1040 C1041 1.363 . S
C1040 C1045 1.379 . S
C1040 N1047 1.356 . S
C1041 C1040 1.363 . S
C1041 C1044 1.363 . S
N1042 C1044 1.356 . S
N1042 H1054 0.984 . S
N1042 H1055 0.985 . S
N1043 C1045 1.356 . S
N1043 H1048 0.984 . S
N1043 H1049 0.985 . S
C1044 C1038 1.379 . S
C1044 C1041 1.363 . S
C1044 N1042 1.356 . S
C1045 C1039 1.363 . S
C1045 C1040 1.379 . S
C1045 N1043 1.356 . S
N1046 C1038 1.356 . S
N1046 H1052 0.984 . S
N1046 H1053 0.984 . S
N1047 C1040 1.356 . S
N1047 H1050 0.984 . S
N1047 H1051 0.985 . S
H1048 N1043 0.984 . S
H1049 N1043 0.985 . S
H1050 N1047 0.984 . S
H1051 N1047 0.985 . S
H1052 N1046 0.984 . S
H1053 N1046 0.984 . S
H1054 N1042 0.984 . S
H1055 N1042 0.985 . S
C1056 C1057 1.363 . S
C1056 C1062 1.379 . S
C1056 N1064 1.356 . S
C1057 C1056 1.363 . S
C1057 C1063 1.363 . S
C1058 C1059 1.363 . S
C1058 C1063 1.379 . S
C1058 N1065 1.356 . S
C1059 C1058 1.363 . S
C1059 C1062 1.363 . S
N1060 C1062 1.356 . S
N1060 H1072 0.984 . S
N1060 H1073 0.985 . S
N1061 C1063 1.356 . S
N1061 H1066 0.984 . S
N1061 H1067 0.985 . S
C1062 C1056 1.379 . S
C1062 C1059 1.363 . S
C1062 N1060 1.356 . S
C1063 C1057 1.363 . S
C1063 C1058 1.379 . S
C1063 N1061 1.356 . S
N1064 C1056 1.356 . S
N1064 H1070 0.984 . S
N1064 H1071 0.984 . S
N1065 C1058 1.356 . S
N1065 H1068 0.984 . S
N1065 H1069 0.985 . S
H1066 N1061 0.984 . S
H1067 N1061 0.985 . S
H1068 N1065 0.984 . S
H1069 N1065 0.985 . S
H1070 N1064 0.984 . S
H1071 N1064 0.984 . S
H1072 N1060 0.984 . S
H1073 N1060 0.985 . S
C1074 C1075 1.363 . S
C1074 C1080 1.379 . S
C1074 N1082 1.356 . S
C1075 C1074 1.363 . S
C1075 C1081 1.363 . S
C1076 C1077 1.363 . S
C1076 C1081 1.379 . S
C1076 N1083 1.356 . S
C1077 C1076 1.363 . S
C1077 C1080 1.363 . S
N1078 C1080 1.356 . S
N1078 H1090 0.984 . S
N1078 H1091 0.985 . S
N1079 C1081 1.356 . S
N1079 H1084 0.984 . S
N1079 H1085 0.985 . S
C1080 C1074 1.379 . S
C1080 C1077 1.363 . S
C1080 N1078 1.356 . S
C1081 C1075 1.363 . S
C1081 C1076 1.379 . S
C1081 N1079 1.356 . S
N1082 C1074 1.356 . S
N1082 H1088 0.984 . S
N1082 H1089 0.984 . S
N1083 C1076 1.356 . S
N1083 H1086 0.984 . S
N1083 H1087 0.985 . S
H1084 N1079 0.984 . S
H1085 N1079 0.985 . S
H1086 N1083 0.984 . S
H1087 N1083 0.985 . S
H1088 N1082 0.984 . S
H1089 N1082 0.984 . S
H1090 N1078 0.984 . S
H1091 N1078 0.985 . S
C1092 C1093 1.363 1_554 S
C1092 C1098 1.379 . S
C1092 N1100 1.356 . S
C1093 C1092 1.363 1_556 S
C1093 C1099 1.363 . S
C1094 C1095 1.363 . S
C1094 C1099 1.379 . S
C1094 N1101 1.356 . S
C1095 C1094 1.363 . S
C1095 C1098 1.363 1_556 S
N1096 C1098 1.356 . S
N1096 H1108 0.984 . S
N1096 H1109 0.985 . S
N1097 C1099 1.356 . S
N1097 H1102 0.984 . S
N1097 H1103 0.985 . S
C1098 C1092 1.379 . S
C1098 C1095 1.363 1_554 S
C1098 N1096 1.356 . S
C1099 C1093 1.363 . S
C1099 C1094 1.379 . S
C1099 N1097 1.356 . S
N1100 C1092 1.356 . S
N1100 H1106 0.984 . S
N1100 H1107 0.984 . S
N1101 C1094 1.356 . S
N1101 H1104 0.984 . S
N1101 H1105 0.985 . S
H1102 N1097 0.984 . S
H1103 N1097 0.985 . S
H1104 N1101 0.984 . S
H1105 N1101 0.985 . S
H1106 N1100 0.984 . S
H1107 N1100 0.984 . S
H1108 N1096 0.984 . S
H1109 N1096 0.985 . S
C1110 C1111 1.363 . S
C1110 C1116 1.379 . S
C1110 N1118 1.356 . S
C1111 C1110 1.363 . S
C1111 C1117 1.363 . S
C1112 C1113 1.363 . S
C1112 C1117 1.379 . S
C1112 N1119 1.356 . S
C1113 C1112 1.363 . S
C1113 C1116 1.363 . S
N1114 C1116 1.356 . S
N1114 H1126 0.984 . S
N1114 H1127 0.985 . S
N1115 C1117 1.356 . S
N1115 H1120 0.984 . S
N1115 H1121 0.985 . S
C1116 C1110 1.379 . S
C1116 C1113 1.363 . S
C1116 N1114 1.356 . S
C1117 C1111 1.363 . S
C1117 C1112 1.379 . S
C1117 N1115 1.356 . S
N1118 C1110 1.356 . S
N1118 H1124 0.984 . S
N1118 H1125 0.984 . S
N1119 C1112 1.356 . S
N1119 H1122 0.984 . S
N1119 H1123 0.985 . S
H1120 N1115 0.984 . S
H1121 N1115 0.985 . S
H1122 N1119 0.984 . S
H1123 N1119 0.985 . S
H1124 N1118 0.984 . S
H1125 N1118 0.984 . S
H1126 N1114 0.984 . S
H1127 N1114 0.985 . S
C1128 C1129 1.363 . S
C1128 C1134 1.379 . S
C1128 N1136 1.356 . S
C1129 C1128 1.363 . S
C1129 C1135 1.363 . S
C1130 C1131 1.363 . S
C1130 C1135 1.379 . S
C1130 N1137 1.356 . S
C1131 C1130 1.363 . S
C1131 C1134 1.363 . S
N1132 C1134 1.356 . S
N1132 H1144 0.984 . S
N1132 H1145 0.985 . S
N1133 C1135 1.356 . S
N1133 H1138 0.984 . S
N1133 H1139 0.985 . S
C1134 C1128 1.379 . S
C1134 C1131 1.363 . S
C1134 N1132 1.356 . S
C1135 C1129 1.363 . S
C1135 C1130 1.379 . S
C1135 N1133 1.356 . S
N1136 C1128 1.356 . S
N1136 H1142 0.984 . S
N1136 H1143 0.984 . S
N1137 C1130 1.356 . S
N1137 H1140 0.984 . S
N1137 H1141 0.985 . S
H1138 N1133 0.984 . S
H1139 N1133 0.985 . S
H1140 N1137 0.984 . S
H1141 N1137 0.985 . S
H1142 N1136 0.984 . S
H1143 N1136 0.984 . S
H1144 N1132 0.984 . S
H1145 N1132 0.985 . S
C1146 C1147 1.363 . S
C1146 C1152 1.379 . S
C1146 N1154 1.356 . S
C1147 C1146 1.363 . S
C1147 C1153 1.363 . S
C1148 C1149 1.363 . S
C1148 C1153 1.379 . S
C1148 N1155 1.356 . S
C1149 C1148 1.363 . S
C1149 C1152 1.363 . S
N1150 C1152 1.356 . S
N1150 H1162 0.984 . S
N1150 H1163 0.985 . S
N1151 C1153 1.356 . S
N1151 H1156 0.984 . S
N1151 H1157 0.985 . S
C1152 C1146 1.379 . S
C1152 C1149 1.363 . S
C1152 N1150 1.356 . S
C1153 C1147 1.363 . S
C1153 C1148 1.379 . S
C1153 N1151 1.356 . S
N1154 C1146 1.356 . S
N1154 H1160 0.984 . S
N1154 H1161 0.984 . S
N1155 C1148 1.356 . S
N1155 H1158 0.984 . S
N1155 H1159 0.985 . S
H1156 N1151 0.984 . S
H1157 N1151 0.985 . S
H1158 N1155 0.984 . S
H1159 N1155 0.985 . S
H1160 N1154 0.984 . S
H1161 N1154 0.984 . S
H1162 N1150 0.984 . S
H1163 N1150 0.985 . S
C1164 C1165 1.363 . S
C1164 C1170 1.379 . S
C1164 N1172 1.356 . S
C1165 C1164 1.363 . S
C1165 C1171 1.363 . S
C1166 C1167 1.363 . S
C1166 C1171 1.379 . S
C1166 N1173 1.356 . S
C1167 C1166 1.363 . S
C1167 C1170 1.363 . S
N1168 C1170 1.356 . S
N1168 H1180 0.984 . S
N1168 H1181 0.985 . S
N1169 C1171 1.356 . S
N1169 H1174 0.984 . S
N1169 H1175 0.985 . S
C1170 C1164 1.379 . S
C1170 C1167 1.363 . S
C1170 N1168 1.356 . S
C1171 C1165 1.363 . S
C1171 C1166 1.379 . S
C1171 N1169 1.356 . S
N1172 C1164 1.356 . S
N1172 H1178 0.984 . S
N1172 H1179 0.984 . S
N1173 C1166 1.356 . S
N1173 H1176 0.984 . S
N1173 H1177 0.985 . S
H1174 N1169 0.984 . S
H1175 N1169 0.985 . S
H1176 N1173 0.984 . S
H1177 N1173 0.985 . S
H1178 N1172 0.984 . S
H1179 N1172 0.984 . S
H1180 N1168 0.984 . S
H1181 N1168 0.985 . S
C1182 C1183 1.363 . S
C1182 C1188 1.379 . S
C1182 N1190 1.356 . S
C1183 C1182 1.363 . S
C1183 C1189 1.363 . S
C1184 C1185 1.363 . S
C1184 C1189 1.379 . S
C1184 N1191 1.356 . S
C1185 C1184 1.363 . S
C1185 C1188 1.363 . S
N1186 C1188 1.356 . S
N1186 H1198 0.984 . S
N1186 H1199 0.985 . S
N1187 C1189 1.356 . S
N1187 H1192 0.984 . S
N1187 H1193 0.985 . S
C1188 C1182 1.379 . S
C1188 C1185 1.363 . S
C1188 N1186 1.356 . S
C1189 C1183 1.363 . S
C1189 C1184 1.379 . S
C1189 N1187 1.356 . S
N1190 C1182 1.356 . S
N1190 H1196 0.984 . S
N1190 H1197 0.984 . S
N1191 C1184 1.356 . S
N1191 H1194 0.984 . S
N1191 H1195 0.985 . S
H1192 N1187 0.984 . S
H1193 N1187 0.985 . S
H1194 N1191 0.984 . S
H1195 N1191 0.985 . S
H1196 N1190 0.984 . S
H1197 N1190 0.984 . S
H1198 N1186 0.984 . S
H1199 N1186 0.985 . S
C337 C13 1.006 . S
C339 C39 1.033 . S
C355 C55 0.968 . S
C357 C36 0.998 . S
C373 C78 1.041 . S
C375 C56 1.054 . S
C391 C14 1.018 . S
C393 C81 1.006 . S
C409 C15 1.080 . S
C411 C206 1.088 . S
C427 C162 1.053 . S
C429 C38 1.068 . S
C445 C58 1.105 . S
C447 C224 1.163 . S
C463 C77 1.084 . S
C465 C288 1.073 . S
C481 C184 1.085 . S
C483 C35 1.138 . S
C499 C266 1.057 . S
C501 C57 1.041 . S
C517 C310 1.094 . S
C519 C80 1.151 . S
C535 C16 1.076 . S
C537 C248 1.138 . S
C553 C17 1.034 . S
C555 C186 1.026 . S
C571 C265 1.047 . S
C573 C100 1.035 . S
C589 C122 1.109 . S
C591 C311 1.109 . S
C607 C247 1.070 . S
C609 C139 1.066 . S
C625 C59 1.109 . S
C627 C164 1.109 . S
C643 C205 1.093 . S
C645 C97 1.097 . S
C661 C142 1.126 . S
C663 C223 1.113 . S
C679 C121 1.105 . S
C681 C245 1.163 . S
C697 C203 1.057 . S
C699 C120 1.041 . S
C715 C249 1.047 . S
C717 C161 1.060 . S
C733 C118 0.968 . S
C735 C99 0.998 . S
C751 C204 1.009 . S
C753 C182 1.027 . S
C769 C286 1.000 . S
C771 C246 1.029 . S
C787 C141 1.041 . S
C789 C119 1.054 . S
C805 C207 0.992 . S
C807 C307 0.962 . S
C823 C290 1.035 . S
C825 C18 1.026 . S
C841 C60 0.948 . S
C843 C312 0.948 . S
C859 C268 1.093 . S
C861 C34 1.097 . S
C877 C165 0.948 . S
C879 C123 0.948 . S
C895 C76 1.066 . S
C897 C226 1.070 . S
C913 C267 1.009 . S
C915 C287 1.027 . S
C931 C160 0.962 . S
C933 C270 0.992 . S
C949 C143 1.151 . S
C951 C163 1.094 . S
C967 C98 1.138 . S
C969 C289 1.085 . S
C985 C269 1.088 . S
C987 C330 1.080 . S
C1003 C333 1.026 . S
C1005 C185 1.035 . S
C1021 C37 1.035 . S
C1023 C202 1.047 . S
C1039 C183 1.073 . S
C1041 C140 1.084 . S
C1057 C181 1.000 . S
C1059 C225 1.029 . S
C1075 C329 1.018 . S
C1077 C144 1.006 . S
C1093 C291 1.026 . S
C1095 C332 1.034 . S
C1111 C244 1.113 . S
C1113 C79 1.126 . S
C1129 C228 1.047 . S
C1131 C308 1.060 . S
C1147 C227 1.138 . S
C1149 C331 1.076 . S
C1165 C101 1.068 . S
C1167 C309 1.053 . S
C1183 C328 1.006 . S
C1185 C102 1.033 . S
