# Generated by pormake.
# Topology snk, (6)-cn, num edge types: 1
# Building blocks:
#     Node 0, Type 0, BuildingBlock: KUMBOL_clean_sbu_0, # of connection points: 6
#     Node 1, Type 0, BuildingBlock: KUMBOL_clean_sbu_0, # of connection points: 6
#     Node 2, Type 0, BuildingBlock: KUMBOL_clean_sbu_0, # of connection points: 6
#     Node 3, Type 0, BuildingBlock: KUMBOL_clean_sbu_0, # of connection points: 6
#     Node 4, Type 0, BuildingBlock: KUMBOL_clean_sbu_0, # of connection points: 6
#     Node 5, Type 0, BuildingBlock: KUMBOL_clean_sbu_0, # of connection points: 6
#     Node 6, Type 0, BuildingBlock: KUMBOL_clean_sbu_0, # of connection points: 6
#     Node 7, Type 0, BuildingBlock: KUMBOL_clean_sbu_0, # of connection points: 6
#     Edge 8, Type (0, 0), BuildingBlock: AJUNOK_clean_linker_0, # of connection points: 2
#     Edge 9, Type (0, 0), BuildingBlock: AJUNOK_clean_linker_0, # of connection points: 2
#     Edge 10, Type (0, 0), BuildingBlock: AJUNOK_clean_linker_0, # of connection points: 2
#     Edge 11, Type (0, 0), BuildingBlock: AJUNOK_clean_linker_0, # of connection points: 2
#     Edge 12, Type (0, 0), BuildingBlock: AJUNOK_clean_linker_0, # of connection points: 2
#     Edge 13, Type (0, 0), BuildingBlock: AJUNOK_clean_linker_0, # of connection points: 2
#     Edge 14, Type (0, 0), BuildingBlock: AJUNOK_clean_linker_0, # of connection points: 2
#     Edge 15, Type (0, 0), BuildingBlock: AJUNOK_clean_linker_0, # of connection points: 2
#     Edge 16, Type (0, 0), BuildingBlock: AJUNOK_clean_linker_0, # of connection points: 2
#     Edge 17, Type (0, 0), BuildingBlock: AJUNOK_clean_linker_0, # of connection points: 2
#     Edge 18, Type (0, 0), BuildingBlock: AJUNOK_clean_linker_0, # of connection points: 2
#     Edge 19, Type (0, 0), BuildingBlock: AJUNOK_clean_linker_0, # of connection points: 2
#     Edge 20, Type (0, 0), BuildingBlock: AJUNOK_clean_linker_0, # of connection points: 2
#     Edge 21, Type (0, 0), BuildingBlock: AJUNOK_clean_linker_0, # of connection points: 2
#     Edge 22, Type (0, 0), BuildingBlock: AJUNOK_clean_linker_0, # of connection points: 2
#     Edge 23, Type (0, 0), BuildingBlock: AJUNOK_clean_linker_0, # of connection points: 2
#     Edge 24, Type (0, 0), BuildingBlock: AJUNOK_clean_linker_0, # of connection points: 2
#     Edge 25, Type (0, 0), BuildingBlock: AJUNOK_clean_linker_0, # of connection points: 2
#     Edge 26, Type (0, 0), BuildingBlock: AJUNOK_clean_linker_0, # of connection points: 2
#     Edge 27, Type (0, 0), BuildingBlock: AJUNOK_clean_linker_0, # of connection points: 2
#     Edge 28, Type (0, 0), BuildingBlock: AJUNOK_clean_linker_0, # of connection points: 2
#     Edge 29, Type (0, 0), BuildingBlock: AJUNOK_clean_linker_0, # of connection points: 2
#     Edge 30, Type (0, 0), BuildingBlock: AJUNOK_clean_linker_0, # of connection points: 2
#     Edge 31, Type (0, 0), BuildingBlock: AJUNOK_clean_linker_0, # of connection points: 2
# Relax obj value: 0.002
# Max RMSD: 0.036
# Mean RMSD: 0.035
data_MOF--net-snk--node1-KUMBOL_clean_sbu_0--edge1-AJUNOK_clean_linker_0
_symmetry_space_group_name_H-M    P1
_symmetry_Int_Tables_number       1
_symmetry_cell_setting            triclinic
loop_
_symmetry_equiv_pos_as_xyz
'x, y, z'
_cell_length_a     26.800223
_cell_length_b     26.786104
_cell_length_c     20.173268
_cell_angle_alpha  86.991846
_cell_angle_beta   87.20294
_cell_angle_gamma 89.512165
loop_
_atom_site_label
_atom_site_type_symbol
_atom_site_fract_x
_atom_site_fract_y
_atom_site_fract_z
_atom_type_partial_charge
Gd0 Gd 0.01392 0.04381 0.59141 0.0
Gd1 Gd 1.00515 0.96557 0.45749 0.0
C2 C 0.92467 0.82284 0.41421 0.0
C3 C 0.9912 0.77621 0.35883 0.0
C4 C 0.00951 0.85345 0.41108 0.0
C5 C 0.95969 0.85909 0.42969 0.0
C6 C 0.02592 0.81198 0.37534 0.0
C7 C 0.94071 0.78144 0.3787 0.0
C8 C 0.87431 0.83028 0.43265 0.0
C9 C 0.85964 0.87433 0.46215 0.0
N10 N 0.94501 0.90162 0.45897 0.0
C11 C 0.89541 0.91044 0.47262 0.0
H12 H 0.88285 0.9461 0.48928 0.0
C13 C 0.09185 0.88385 0.41196 0.0
N14 N 0.04175 0.88927 0.42649 0.0
C15 C 0.11005 0.84306 0.37731 0.0
C16 C 0.07678 0.80765 0.35736 0.0
H17 H 0.11813 0.91134 0.42543 0.0
H18 H 0.91434 0.75349 0.36601 0.0
H19 H 0.13881 0.05774 0.55403 0.0
H20 H 0.84637 0.80311 0.42229 0.0
H21 H 0.82052 0.88147 0.47426 0.0
H22 H 1.00311 0.7441 0.33147 0.0
H23 H 0.9031 0.1042 0.62467 0.0
H24 H 0.18154 0.19787 0.62323 0.0
H25 H 0.20346 0.11935 0.56959 0.0
H26 H 0.0289 0.26442 0.71522 0.0
H27 H 0.14965 0.83938 0.36506 0.0
H28 H 0.09086 0.77635 0.32999 0.0
H29 H 0.1168 0.25003 0.68078 0.0
H30 H 0.87688 0.17773 0.68514 0.0
N31 N 0.07835 0.10378 0.58801 0.0
C32 C 0.15229 0.1721 0.61298 0.0
C33 C 0.16478 0.12779 0.58278 0.0
C34 C 0.10241 0.18184 0.63176 0.0
C35 C 0.06546 0.14764 0.61601 0.0
C36 C 0.12747 0.09318 0.57276 0.0
N37 N 0.98076 0.12194 0.62113 0.0
C38 C 0.01551 0.15627 0.63466 0.0
C39 C 0.91601 0.17198 0.6716 0.0
C40 C 0.95162 0.20542 0.69039 0.0
C41 C 0.93122 0.1303 0.63679 0.0
C42 C 1.00189 0.19845 0.67086 0.0
H43 H 0.93979 0.23713 0.71861 0.0
O44 O 1.00314 0.99229 0.67814 0.0
O45 O 0.98017 0.97154 0.56365 0.0
O46 O 0.93988 0.02061 0.46214 0.0
O47 O 0.96628 0.08814 0.51854 0.0
O48 O 0.93298 0.02159 0.60915 0.0
O49 O 0.04287 0.06038 0.68706 0.0
O50 O 0.03222 0.97602 0.35467 0.0
O51 O 0.03728 0.03954 0.4836 0.0
O52 O 0.08077 0.99207 0.58023 0.0
O53 O 0.04739 0.92217 0.53775 0.0
O54 O 0.08316 0.99219 0.43283 0.0
O55 O 0.9531 0.98556 0.38219 0.0
C56 C 0.93572 0.97695 0.58786 0.0
C57 C 0.03877 0.2319 0.68748 0.0
C58 C 0.08881 0.22375 0.66775 0.0
C59 C 0.0207 0.02294 0.71838 0.0
C60 C 0.98789 0.03464 0.77557 0.0
C61 C 0.93771 0.0483 0.76785 0.0
C62 C 0.00644 0.03061 0.83895 0.0
C63 C 0.97481 0.03847 0.89468 0.0
C64 C 0.9067 0.05866 0.8228 0.0
C65 C 0.92489 0.05323 0.88617 0.0
C66 C 0.93665 0.06837 0.47623 0.0
C67 C 0.08057 0.03622 0.45491 0.0
C68 C 0.98726 0.98363 0.33409 0.0
C69 C 0.97435 0.95728 0.27591 0.0
C70 C 0.93832 0.91937 0.27943 0.0
C71 C 0.99588 0.97373 0.21447 0.0
C72 C 0.98032 0.95389 0.15633 0.0
C73 C 0.9252 0.89715 0.22188 0.0
C74 C 0.94598 0.9144 0.16026 0.0
C75 C 0.07959 0.94299 0.57596 0.0
H76 H 0.92193 0.05004 0.71995 0.0
H77 H 0.04488 0.01956 0.8452 0.0
H78 H 0.86801 0.06896 0.81643 0.0
H79 H 0.89921 0.0581 0.92851 0.0
H80 H 0.91905 0.90813 0.32584 0.0
H81 H 0.02232 1.00435 0.21149 0.0
H82 H 0.89701 0.86842 0.22486 0.0
H83 H 0.93283 0.89932 0.11555 0.0
Gd84 Gd 0.20668 0.75588 0.86258 0.0
Gd85 Gd 0.29644 0.75827 0.71926 0.0
C86 C 0.40117 0.62396 0.75056 0.0
C87 C 0.47475 0.66374 0.78827 0.0
C88 C 0.40387 0.71395 0.75382 0.0
C89 C 0.37804 0.67126 0.74243 0.0
C90 C 0.45321 0.71087 0.77469 0.0
C91 C 0.44896 0.62044 0.77564 0.0
C92 C 0.37634 0.58195 0.73098 0.0
C93 C 0.33088 0.58816 0.70085 0.0
N94 N 0.33166 0.67631 0.71886 0.0
C95 C 0.30955 0.63588 0.69378 0.0
H96 H 0.27609 0.63954 0.66662 0.0
C97 C 0.41083 0.80089 0.7321 0.0
N98 N 0.38247 0.75857 0.73797 0.0
C99 C 0.45961 0.80013 0.75302 0.0
C100 C 0.48043 0.75508 0.7764 0.0
H101 H 0.3955 0.8355 0.71195 0.0
H102 H 0.4673 0.58474 0.78255 0.0
H103 H 0.21893 0.87002 0.93027 0.0
H104 H 0.39284 0.54501 0.73623 0.0
H105 H 0.31247 0.55629 0.6823 0.0
H106 H 0.51258 0.66011 0.80386 0.0
H107 H 0.10533 0.67922 0.84653 0.0
H108 H 0.11346 0.96951 0.84193 0.0
H109 H 0.18495 0.95455 0.91306 0.0
H110 H 1.00452 0.85965 0.73766 0.0
H111 H 0.48141 0.83404 0.74947 0.0
H112 H 0.51897 0.7544 0.78958 0.0
H113 H 0.04581 0.93344 0.77682 0.0
H114 H 0.0279 0.68397 0.78577 0.0
N115 N 0.17008 0.83694 0.86436 0.0
C116 C 0.12808 0.93204 0.84928 0.0
C117 C 0.16885 0.9238 0.88885 0.0
C118 C 0.10561 0.89145 0.82206 0.0
C119 C 0.12703 0.84357 0.83226 0.0
C120 C 0.18879 0.87562 0.89713 0.0
N121 N 0.12267 0.75648 0.82867 0.0
C122 C 0.10315 0.802 0.81231 0.0
C123 C 0.04919 0.71749 0.79154 0.0
C124 C 0.03168 0.76377 0.76724 0.0
C125 C 0.09378 0.71487 0.82491 0.0
C126 C 0.05769 0.80702 0.7799 0.0
H127 H 0.99671 0.76594 0.74238 0.0
O128 O 0.159 0.73179 0.9491 0.0
O129 O 0.28371 0.73295 0.82665 0.0
O130 O 0.23244 0.70782 0.70456 0.0
O131 O 0.18893 0.689 0.8052 0.0
O132 O 0.23912 0.67866 0.87645 0.0
O133 O 0.23336 0.75845 0.96237 0.0
O134 O 0.33718 0.78753 0.62947 0.0
O135 O 0.22152 0.7844 0.7565 0.0
O136 O 0.26771 0.81018 0.87891 0.0
O137 O 0.31945 0.81966 0.78272 0.0
O138 O 0.26943 0.83765 0.71055 0.0
O139 O 0.26595 0.75222 0.62193 0.0
C140 C 0.28363 0.68836 0.85149 0.0
C141 C 0.03878 0.85493 0.76376 0.0
C142 C 0.06231 0.89703 0.78588 0.0
C143 C 0.19215 0.74189 0.99164 0.0
C144 C 0.17574 0.76514 0.05421 0.0
C145 C 0.13088 0.79239 0.05967 0.0
C146 C 0.20508 0.75836 0.11042 0.0
C147 C 0.18925 0.77759 0.17179 0.0
C148 C 0.11521 0.81176 0.12037 0.0
C149 C 0.14395 0.80416 0.17617 0.0
C150 C 0.19918 0.68193 0.74181 0.0
C151 C 0.22428 0.82977 0.7342 0.0
C152 C 0.30358 0.77386 0.58972 0.0
C153 C 0.32025 0.7533 0.52561 0.0
C154 C 0.36612 0.72808 0.51803 0.0
C155 C 0.29042 0.76113 0.47009 0.0
C156 C 0.30696 0.74527 0.40714 0.0
C157 C 0.38242 0.71186 0.45579 0.0
C158 C 0.35333 0.72073 0.40058 0.0
C159 C 0.30486 0.83165 0.84328 0.0
H160 H 0.10787 0.79847 1.01726 0.0
H161 H 0.23979 0.73738 0.10675 0.0
H162 H 0.0805 0.83262 0.12427 0.0
H163 H 0.13111 0.81953 0.22261 0.0
H164 H 0.38953 0.72137 0.55994 0.0
H165 H 0.25497 0.78069 0.47547 0.0
H166 H 0.41797 0.69268 0.45019 0.0
H167 H 0.36689 0.70822 0.35272 0.0
Gd168 Gd 0.51107 0.05833 0.95002 0.0
Gd169 Gd 0.51233 0.96421 0.09042 0.0
C170 C 0.6098 0.82683 0.04903 0.0
C171 C 0.54703 0.76363 0.03719 0.0
C172 C 0.52247 0.8468 0.06821 0.0
C173 C 0.57152 0.86144 0.06431 0.0
C174 C 0.50953 0.79746 0.05597 0.0
C175 C 0.59719 0.77838 0.03287 0.0
C176 C 0.65943 0.84138 0.05298 0.0
C177 C 0.66968 0.88875 0.07422 0.0
N178 N 0.58184 0.90877 0.07961 0.0
C179 C 0.63033 0.92199 0.08786 0.0
H180 H 0.63972 0.95817 0.10404 0.0
C181 C 0.43986 0.86491 0.10495 0.0
N182 N 0.48762 0.8801 0.08855 0.0
C183 C 0.42473 0.81668 0.09164 0.0
C184 C 0.45955 0.78317 0.06539 0.0
H185 H 0.41276 0.89135 0.12387 0.0
H186 H 0.62596 0.7514 1.02009 0.0
H187 H 0.38351 0.07115 0.92949 0.0
H188 H 0.68991 0.81589 0.04186 0.0
H189 H 0.70794 0.89994 0.07947 0.0
H190 H 0.53766 0.72528 1.02954 0.0
H191 H 0.61621 0.12584 0.91725 0.0
H192 H 0.34163 0.2133 1.00117 0.0
H193 H 0.31886 0.13295 0.95617 0.0
H194 H 0.49836 0.29333 1.02338 0.0
H195 H 0.38622 0.8055 0.10069 0.0
H196 H 0.44792 0.74579 0.05524 0.0
H197 H 0.40885 0.27134 0.03103 0.0
H198 H 0.64561 0.21055 0.93978 0.0
N199 N 0.44375 0.11531 0.95991 0.0
C200 C 0.37058 0.18645 0.98865 0.0
C201 C 0.35763 0.14116 0.96322 0.0
C202 C 0.42098 0.1975 0.99463 0.0
C203 C 0.45726 0.1615 0.97718 0.0
C204 C 0.39483 0.10578 0.94884 0.0
N205 N 0.54152 0.13984 0.95255 0.0
C206 C 0.50751 0.17419 0.97294 0.0
C207 C 0.60676 0.20069 0.94954 0.0
C208 C 0.57323 0.23494 0.97717 0.0
C209 C 0.59 0.15311 0.93626 0.0
C210 C 0.52265 0.22246 0.98706 0.0
H211 H 0.58647 0.2713 0.98929 0.0
O212 O 0.51884 0.09848 0.85346 0.0
O213 O 0.53937 0.98415 0.98607 0.0
O214 O 0.57677 0.01719 0.09607 0.0
O215 O 0.55677 0.08714 1.02916 0.0
O216 O 0.59083 0.03075 0.93581 0.0
O217 O 0.51303 0.01835 0.85853 0.0
O218 O 0.4743 0.9486 0.18694 0.0
O219 O 0.48401 0.03939 0.05495 0.0
O220 O 0.44311 0.00993 0.94816 0.0
O221 O 0.46252 0.93769 1.01261 0.0
O222 O 0.43422 0.9948 0.11078 0.0
O223 O 0.54743 0.9822 0.18118 0.0
C224 C 0.58399 0.98623 0.96242 0.0
C225 C 0.48701 0.2565 1.01082 0.0
C226 C 0.43623 0.24396 1.01507 0.0
C227 C 0.51676 0.05855 0.8198 0.0
C228 C 0.48594 0.06097 0.76109 0.0
C229 C 0.43915 0.08493 0.76272 0.0
C230 C 0.50294 0.0375 0.70315 0.0
C231 C 0.47295 0.03721 0.64777 0.0
C232 C 0.40941 0.08475 0.70775 0.0
C233 C 0.4261 0.06102 0.65059 0.0
C234 C 0.58204 0.06454 0.07637 0.0
C235 C 0.43995 0.03828 0.0811 0.0
C236 C 0.5102 0.96603 0.22001 0.0
C237 C 0.52225 0.93875 0.28246 0.0
C238 C 0.5392 0.88908 0.28332 0.0
C239 C 0.51529 0.96286 0.3426 0.0
C240 C 0.52415 0.93729 0.40369 0.0
C241 C 0.54837 0.86355 0.34387 0.0
C242 C 0.54048 0.88728 0.40378 0.0
C243 C 0.43604 0.9626 0.96792 0.0
H244 H 0.42527 0.10298 0.80678 0.0
H245 H 0.53886 0.01853 0.70168 0.0
H246 H 0.37293 0.10234 0.70984 0.0
H247 H 0.40229 0.06088 0.60871 0.0
H248 H 0.54491 0.8701 0.2374 0.0
H249 H 0.50176 1.00116 0.342 0.0
H250 H 0.56125 0.82512 0.34441 0.0
H251 H 0.5473 0.8667 0.45018 0.0
Gd252 Gd 0.22163 0.27053 0.20731 0.0
Gd253 Gd 0.2944 0.24942 0.34686 0.0
C254 C 0.43391 0.31603 0.42386 0.0
C255 C 0.48031 0.24107 0.45661 0.0
C256 C 0.40514 0.23498 0.39469 0.0
C257 C 0.39861 0.2862 0.39489 0.0
C258 C 0.44609 0.21177 0.42552 0.0
C259 C 0.47449 0.2931 0.45518 0.0
C260 C 0.42686 0.36788 0.42148 0.0
C261 C 0.3844 0.38849 0.39311 0.0
N262 N 0.35707 0.30664 0.36837 0.0
C263 C 0.34904 0.35707 0.36844 0.0
H264 H 0.3147 0.37336 0.35162 0.0
C265 C 0.37593 0.15688 0.36387 0.0
N266 N 0.37039 0.20764 0.36641 0.0
C267 C 0.41673 0.13236 0.39198 0.0
C268 C 0.45123 0.15974 0.4246 0.0
H269 H 0.34813 0.13479 0.34213 0.0
H270 H 0.50153 0.31513 0.4786 0.0
H271 H 0.19947 0.14647 0.20572 0.0
H272 H 0.45346 0.39217 0.44231 0.0
H273 H 0.37797 0.42846 0.39239 0.0
H274 H 0.51189 0.22395 0.48078 0.0
H275 H 0.16783 0.38504 0.21352 0.0
H276 H 0.05975 0.12791 0.11767 0.0
H277 H 0.13511 0.09145 0.16769 0.0
H278 H 1.00415 0.29657 0.07351 0.0
H279 H 0.42065 0.09218 0.39037 0.0
H280 H 0.48208 0.14052 0.44787 0.0
H281 H 0.01243 0.20498 0.0795 0.0
H282 H 0.09541 0.42778 0.16573 0.0
N283 N 0.15841 0.21354 0.18658 0.0
C284 C 0.08694 0.15225 0.13712 0.0
C285 C 0.12937 0.13154 0.16545 0.0
C286 C 0.08077 0.20421 0.13289 0.0
C287 C 0.11698 0.23409 0.15994 0.0
C288 C 0.16549 0.16296 0.18835 0.0
N289 N 0.14601 0.31257 0.18732 0.0
C290 C 0.11131 0.2854 0.15868 0.0
C291 C 0.09961 0.3878 0.16281 0.0
C292 C 0.06556 0.36072 0.12897 0.0
C293 C 0.1403 0.36318 0.19088 0.0
C294 C 0.07065 0.30872 0.12748 0.0
H295 H 0.03459 0.38001 0.10622 0.0
O296 O 0.24303 0.32029 0.12314 0.0
O297 O 0.29583 0.28976 0.24703 0.0
O298 O 0.24156 0.31703 0.35797 0.0
O299 O 0.17514 0.3007 0.29326 0.0
O300 O 0.25118 0.34818 0.21593 0.0
O301 O 0.23237 0.24157 0.10837 0.0
O302 O 0.27565 0.20001 0.43264 0.0
O303 O 0.22033 0.23003 0.30742 0.0
O304 O 0.27321 0.20249 0.19519 0.0
O305 O 0.33974 0.21702 0.26051 0.0
O306 O 0.26503 0.17203 0.33968 0.0
O307 O 0.28047 0.27981 0.44423 0.0
C308 C 0.29508 0.337 0.2355 0.0
C309 C 0.03569 0.27936 0.09768 0.0
C310 C 0.04026 0.22717 0.1014 0.0
C311 C 0.24106 0.28589 0.08032 0.0
C312 C 0.21533 0.29994 1.01932 0.0
C313 C 0.17724 0.33629 1.01836 0.0
C314 C 0.23244 0.28003 0.95972 0.0
C315 C 0.21147 0.29575 0.89963 0.0
C316 C 0.15528 0.351 0.95917 0.0
C317 C 0.17221 0.33082 0.89986 0.0
C318 C 0.19415 0.32375 0.34273 0.0
C319 C 0.22128 0.18287 0.31953 0.0
C320 C 0.27484 0.23566 0.47403 0.0
C321 C 0.30167 0.22563 0.53516 0.0
C322 C 0.34379 0.19413 0.53658 0.0
C323 C 0.28307 0.24555 0.59411 0.0
C324 C 0.30626 0.23394 0.65385 0.0
C325 C 0.36894 0.18539 0.59493 0.0
C326 C 0.35022 0.20514 0.65368 0.0
C327 C 0.32026 0.1943 0.21089 0.0
H328 H 0.16549 0.35454 0.06265 0.0
H329 H 0.26373 0.25411 0.95976 0.0
H330 H 0.12613 0.37916 0.95907 0.0
H331 H 0.15544 0.34336 0.85405 0.0
H332 H 0.35668 0.17538 0.49325 0.0
H333 H 0.24929 0.26811 0.59413 0.0
H334 H 0.4022 0.16223 0.59485 0.0
H335 H 0.3692 0.19699 0.69924 0.0
Gd336 Gd 0.70956 0.26182 0.34842 0.0
Gd337 Gd 0.80794 0.25103 0.2132 0.0
C338 C 0.94626 0.15893 0.26545 0.0
C339 C 0.00756 0.22426 0.27488 0.0
C340 C 0.92487 0.2448 0.23706 0.0
C341 C 0.91127 0.19558 0.24538 0.0
C342 C 0.97323 0.25988 0.25061 0.0
C343 C 0.99423 0.17364 0.28164 0.0
C344 C 0.93208 0.10877 0.26772 0.0
C345 C 0.88473 0.09632 0.24792 0.0
N346 N 0.86427 0.18342 0.23072 0.0
C347 C 0.85124 0.13428 0.2289 0.0
H348 H 0.81471 0.12381 0.21474 0.0
C349 C 0.90486 0.32536 0.19284 0.0
N350 N 0.89107 0.27777 0.21269 0.0
C351 C 0.95214 0.3426 0.2064 0.0
C352 C 0.98576 0.31008 0.23757 0.0
H353 H 0.87819 0.35075 0.17049 0.0
H354 H 0.02148 0.14617 0.29818 0.0
H355 H 0.69973 0.38832 0.35033 0.0
H356 H 0.95779 0.07947 0.28284 0.0
H357 H 0.8738 0.0575 0.24803 0.0
H358 H 0.04492 0.23515 0.28623 0.0
H359 H 0.64569 0.15503 0.37235 0.0
H360 H 0.5526 0.42968 0.29493 0.0
H361 H 0.6375 0.45336 0.32419 0.0
H362 H 0.47111 0.2717 0.28417 0.0
H363 H 0.9625 0.38093 0.19339 0.0
H364 H 0.02228 0.32346 0.24803 0.0
H365 H 0.49059 0.36174 0.2801 0.0
H366 H 0.56308 0.12356 0.34455 0.0
N367 N 0.65102 0.32764 0.33597 0.0
C368 C 0.57973 0.40086 0.30703 0.0
C369 C 0.62759 0.41429 0.32358 0.0
C370 C 0.56718 0.35029 0.30762 0.0
C371 C 0.60386 0.31423 0.32375 0.0
C372 C 0.66287 0.37703 0.3385 0.0
N373 N 0.62787 0.23094 0.34687 0.0
C374 C 0.59208 0.26416 0.32865 0.0
C375 C 0.57063 0.16325 0.34077 0.0
C376 C 0.53458 0.19676 0.31734 0.0
C377 C 0.61708 0.18122 0.35704 0.0
C378 C 0.54428 0.24809 0.3139 0.0
H379 H 0.49928 0.18274 0.30239 0.0
O380 O 0.70157 0.22576 0.44772 0.0
O381 O 0.78408 0.23068 0.31838 0.0
O382 O 0.75238 0.18747 0.21755 0.0
O383 O 0.68027 0.22333 0.26275 0.0
O384 O 0.73651 0.18336 0.37427 0.0
O385 O 0.72165 0.30417 0.43509 0.0
O386 O 0.81464 0.28667 0.11367 0.0
O387 O 0.73446 0.2837 0.24427 0.0
O388 O 0.76307 0.32595 0.34578 0.0
O389 O 0.83686 0.29811 0.29224 0.0
O390 O 0.78114 0.32965 0.18539 0.0
O391 O 0.79689 0.20798 0.12646 0.0
C392 C 0.78098 0.18781 0.34752 0.0
C393 C 0.50814 0.28355 0.29522 0.0
C394 C 0.51929 0.33467 0.2929 0.0
C395 C 0.71486 0.26562 0.4767 0.0
C396 C 0.6931 0.27437 0.54348 0.0
C397 C 0.64357 0.29045 0.55315 0.0
C398 C 0.72335 0.26734 0.5985 0.0
C399 C 0.7046 0.2771 0.66304 0.0
C400 C 0.62459 0.30001 0.61709 0.0
C401 C 0.65482 0.29358 0.67163 0.0
C402 C 0.7033 0.19007 0.22604 0.0
C403 C 0.73735 0.32649 0.21464 0.0
C404 C 0.80334 0.24636 0.08454 0.0
C405 C 0.82787 0.23816 1.01901 0.0
C406 C 0.87712 0.22054 1.01267 0.0
C407 C 0.80086 0.24827 0.96156 0.0
C408 C 0.82254 0.24032 0.89786 0.0
C409 C 0.89879 0.21215 0.94966 0.0
C410 C 0.87167 0.22159 0.89265 0.0
C411 C 0.81165 0.32778 0.33246 0.0
H412 H 0.61982 0.29567 0.51135 0.0
H413 H 0.76176 0.25498 0.59093 0.0
H414 H 0.58627 0.31243 0.62447 0.0
H415 H 0.63909 0.30083 0.72069 0.0
H416 H 0.8986 0.21331 0.05631 0.0
H417 H 0.76267 0.26178 0.96655 0.0
H418 H 0.93682 0.19838 0.94493 0.0
H419 H 0.88933 0.21499 0.84441 0.0
Gd420 Gd 0.71911 0.75366 0.71187 0.0
Gd421 Gd 0.80209 0.76248 0.84541 0.0
C422 C 0.94418 0.84789 0.87437 0.0
C423 C 0.99667 0.78241 0.92241 0.0
C424 C 0.91759 0.76159 0.87659 0.0
C425 C 0.90871 0.81161 0.86069 0.0
C426 C 0.9621 0.74633 0.90658 0.0
C427 C 0.98765 0.83308 0.90653 0.0
C428 C 0.9336 0.89821 0.8586 0.0
C429 C 0.88713 0.91163 0.83498 0.0
N430 N 0.86334 0.82524 0.83849 0.0
C431 C 0.85162 0.87468 0.82796 0.0
H432 H 0.81451 0.88615 0.81532 0.0
C433 C 0.88856 0.67838 0.88172 0.0
N434 N 0.88123 0.72825 0.86693 0.0
C435 C 0.93343 0.66115 0.90752 0.0
C436 C 0.96993 0.69536 0.92143 0.0
H437 H 0.85968 0.65169 0.87439 0.0
H438 H 0.01464 0.86046 0.91916 0.0
H439 H 0.69794 0.63218 0.74652 0.0
H440 H 0.9603 0.92707 0.86618 0.0
H441 H 0.87785 0.95058 0.82483 0.0
H442 H 0.03065 0.7715 0.94649 0.0
H443 H 0.66713 0.86861 0.68414 0.0
H444 H 0.55205 0.59939 0.68595 0.0
H445 H 0.63156 0.57113 0.73312 0.0
H446 H 0.49125 0.75873 0.60595 0.0
H447 H 0.93931 0.62164 0.91844 0.0
H448 H 1.00392 0.68208 0.94361 0.0
H449 H 0.50165 0.66895 0.63426 0.0
H450 H 0.59042 0.90308 0.63736 0.0
N451 N 0.65368 0.69533 0.7189 0.0
C452 C 0.57997 0.62657 0.69584 0.0
C453 C 0.62478 0.61056 0.7224 0.0
C454 C 0.57239 0.67743 0.68018 0.0
C455 C 0.60969 0.71155 0.69476 0.0
C456 C 0.66198 0.64546 0.73152 0.0
N457 N 0.64225 0.79297 0.68855 0.0
C458 C 0.60413 0.76189 0.67797 0.0
C459 C 0.59395 0.86321 0.64803 0.0
C460 C 0.55586 0.8312 0.63281 0.0
C461 C 0.63746 0.84334 0.67488 0.0
C462 C 0.56079 0.7798 0.64724 0.0
H463 H 0.52286 0.8465 0.61003 0.0
O464 O 0.73335 0.77967 0.60891 0.0
O465 O 0.7928 0.78512 0.73866 0.0
O466 O 0.7467 0.82762 0.83844 0.0
O467 O 0.67695 0.79724 0.7907 0.0
O468 O 0.7478 0.83089 0.68223 0.0
O469 O 0.729 0.70018 0.63489 0.0
O470 O 0.78958 0.73229 0.94672 0.0
O471 O 0.72849 0.73106 0.81893 0.0
O472 O 0.77306 0.68763 0.72106 0.0
O473 O 0.8437 0.71768 0.76702 0.0
O474 O 0.7745 0.68413 0.87238 0.0
O475 O 0.79102 0.81258 0.92629 0.0
C476 C 0.79039 0.82821 0.70883 0.0
C477 C 0.52435 0.74582 0.63066 0.0
C478 C 0.53015 0.69474 0.6471 0.0
C479 C 0.73411 0.73473 0.58714 0.0
C480 C 0.70753 0.7279 0.52626 0.0
C481 C 0.65741 0.71315 0.52797 0.0
C482 C 0.73304 0.73725 0.46481 0.0
C483 C 0.70854 0.73271 0.40549 0.0
C484 C 0.63226 0.71059 0.46934 0.0
C485 C 0.65753 0.72088 0.40819 0.0
C486 C 0.69798 0.82861 0.82967 0.0
C487 C 0.73105 0.68765 0.84797 0.0
C488 C 0.78772 0.77613 0.97167 0.0
C489 C 0.81513 0.78102 0.03221 0.0
C490 C 0.86466 0.79762 1.03044 0.0
C491 C 0.79113 0.76715 0.09333 0.0
C492 C 0.81651 0.76891 0.15231 0.0
C493 C 0.89074 0.79771 0.08862 0.0
C494 C 0.8669 0.78317 0.14947 0.0
C495 C 0.82183 0.68575 0.7296 0.0
H496 H 0.6377 0.70344 0.57406 0.0
H497 H 0.77192 0.74837 0.46313 0.0
H498 H 0.59327 0.7001 0.47133 0.0
H499 H 0.6376 0.71842 0.36304 0.0
H500 H 0.88317 0.81069 0.98471 0.0
H501 H 0.75264 0.75486 0.09499 0.0
H502 H 0.92931 0.80959 0.08657 0.0
H503 H 0.88734 0.78432 0.19434 0.0
Gd504 Gd 0.51777 0.55249 0.10754 0.0
Gd505 Gd 0.50573 0.47404 0.97134 0.0
C506 C 0.41704 0.3405 0.91534 0.0
C507 C 0.48057 0.29418 0.85359 0.0
C508 C 0.50358 0.36539 0.91545 0.0
C509 C 0.45428 0.37285 0.93502 0.0
C510 C 0.51754 0.32556 0.87529 0.0
C511 C 0.43036 0.30164 0.8736 0.0
C512 C 0.3675 0.34878 0.93718 0.0
C513 C 0.35601 0.38956 0.97549 0.0
N514 N 0.44261 0.41297 0.97118 0.0
C515 C 0.39395 0.4222 0.99028 0.0
H516 H 0.38354 0.45575 1.0146 0.0
C517 C 0.58757 0.38983 0.92089 0.0
N518 N 0.53786 0.39744 0.93557 0.0
C519 C 0.60347 0.34992 0.88285 0.0
C520 C 0.56824 0.31842 0.85847 0.0
H521 H 0.61513 0.41516 0.93687 0.0
H522 H 0.40224 0.27677 0.85736 0.0
H523 H 0.64019 0.56997 0.07204 0.0
H524 H 0.33787 0.32448 0.92386 0.0
H525 H 0.31763 0.39708 0.99133 0.0
H526 H 0.49052 0.26354 0.82241 0.0
H527 H 0.40649 0.60885 0.13905 0.0
H528 H 0.68085 0.70901 0.1476 0.0
H529 H 0.70445 0.63171 0.09151 0.0
H530 H 0.52465 0.77464 0.23139 0.0
H531 H 0.64278 0.34392 0.87139 0.0
H532 H 0.58061 0.28801 0.8282 0.0
H533 H 0.61384 0.76109 0.20208 0.0
H534 H 0.3758 0.68387 0.19406 0.0
N535 N 0.57949 0.61477 0.10654 0.0
C536 C 0.65218 0.68306 0.13597 0.0
C537 C 0.66556 0.6396 0.10411 0.0
C538 C 0.60196 0.69195 0.15385 0.0
C539 C 0.56601 0.65707 0.1372 0.0
C540 C 0.62872 0.60512 0.09148 0.0
N541 N 0.48312 0.62962 0.13826 0.0
C542 C 0.51615 0.66456 0.15407 0.0
C543 C 0.41544 0.67881 0.18334 0.0
C544 C 0.44931 0.71394 0.20259 0.0
C545 C 0.43307 0.63641 0.15167 0.0
C546 C 0.50039 0.70727 0.18767 0.0
H547 H 0.43562 0.74636 0.22804 0.0
O548 O 0.49355 0.54438 0.21253 0.0
O549 O 0.48521 0.47917 0.08026 0.0
O550 O 0.43992 0.52669 0.98695 0.0
O551 O 0.4723 0.59671 1.03014 0.0
O552 O 0.44029 0.52494 0.13654 0.0
O553 O 0.56989 0.5271 0.18045 0.0
O554 O 0.53211 0.48672 0.86783 0.0
O555 O 0.53882 0.54673 0.99942 0.0
O556 O 0.58317 0.4982 0.09447 0.0
O557 O 0.55123 0.42922 0.04693 0.0
O558 O 0.58438 0.50057 0.94463 0.0
O559 O 0.45418 0.49872 0.89724 0.0
C560 C 0.44268 0.48184 0.11146 0.0
C561 C 0.53601 0.74174 0.20535 0.0
C562 C 0.58675 0.73405 0.18858 0.0
C563 C 0.53803 0.53118 0.23071 0.0
C564 C 0.55673 0.5535 0.2898 0.0
C565 C 0.59645 0.58759 0.2848 0.0
C566 C 0.53724 0.53707 0.35286 0.0
C567 C 0.55687 0.55472 0.4105 0.0
C568 C 0.61557 0.60571 0.34197 0.0
C569 C 0.5957 0.58967 0.40471 0.0
C570 C 0.43951 0.57562 0.99293 0.0
C571 C 0.58192 0.54358 0.97005 0.0
C572 C 0.48747 0.49737 0.84818 0.0
C573 C 0.47223 0.47498 0.78725 0.0
C574 C 0.43266 0.44083 0.78815 0.0
C575 C 0.49549 0.49112 0.72622 0.0
C576 C 0.4796 0.4734 0.66659 0.0
C577 C 0.41794 0.42173 0.72909 0.0
C578 C 0.44127 0.43789 0.66843 0.0
C579 C 0.58375 0.44952 0.08526 0.0
H580 H 0.61364 0.59924 0.23707 0.0
H581 H 0.50755 0.50963 0.35721 0.0
H582 H 0.64679 0.63116 0.3375 0.0
H583 H 0.61174 0.60306 0.44867 0.0
H584 H 0.41241 0.42971 0.83403 0.0
H585 H 0.52533 0.51821 0.72503 0.0
H586 H 0.3876 0.39522 0.73022 0.0
H587 H 0.42849 0.42381 0.62286 0.0
Gd588 Gd 1.00438 0.55194 0.4718 0.0
Gd589 Gd 0.00679 0.45072 0.60618 0.0
C590 C 0.09527 0.31314 0.54476 0.0
C591 C 0.02824 0.25678 0.5217 0.0
C592 C 0.00972 0.3355 0.57226 0.0
C593 C 0.05937 0.3477 0.56758 0.0
C594 C 0.99341 0.28931 0.55153 0.0
C595 C 0.07932 0.26857 0.51873 0.0
C596 C 0.1458 0.32428 0.54978 0.0
C597 C 0.15902 0.36873 0.5777 0.0
N598 N 0.07257 0.39267 0.58866 0.0
C599 C 0.1217 0.40298 0.59642 0.0
H600 H 0.13252 0.43806 0.61527 0.0
C601 C 0.93013 0.35389 0.61995 0.0
N602 N 0.97761 0.36827 0.60048 0.0
C603 C 0.91192 0.30805 0.60108 0.0
C604 C 0.94309 0.27677 0.56371 0.0
H605 H 0.90523 0.37951 0.64511 0.0
H606 H 0.10619 0.24226 0.49857 0.0
H607 H 0.87752 0.5639 0.47352 0.0
H608 H 0.17467 0.29857 0.5333 0.0
H609 H 0.19798 0.37736 0.58281 0.0
H610 H 0.01644 0.22152 0.50383 0.0
H611 H 0.10593 0.61764 0.42478 0.0
H612 H 0.8397 0.70919 0.53944 0.0
H613 H 0.81396 0.62638 0.50454 0.0
H614 H 0.99849 0.79026 0.53779 0.0
H615 H 0.87353 0.29763 0.61351 0.0
H616 H 0.92873 0.24183 0.54795 0.0
H617 H 0.90954 0.76914 0.55659 0.0
H618 H 0.13739 0.70354 0.43458 0.0
N619 N 0.93927 0.6107 0.48989 0.0
C620 C 0.86782 0.68212 0.52477 0.0
C621 C 0.85322 0.63547 0.50495 0.0
C622 C 0.91862 0.69378 0.52333 0.0
C623 C 0.95361 0.65722 0.50357 0.0
C624 C 0.88961 0.60006 0.48716 0.0
N625 N 0.03456 0.63373 0.46931 0.0
C626 C 1.00319 0.66911 0.49307 0.0
C627 C 0.09975 0.69404 0.45179 0.0
C628 C 0.06912 0.7297 0.48159 0.0
C629 C 0.08169 0.64579 0.44572 0.0
C630 C 0.01987 0.71771 0.50216 0.0
H631 H 0.08326 0.767 0.48569 0.0
O632 O 0.04188 0.5524 0.37257 0.0
O633 O 0.0324 0.4761 0.50292 0.0
O634 O 0.07012 0.5059 0.61271 0.0
O635 O 0.04922 0.58019 0.55308 0.0
O636 O 0.08271 0.52279 0.45052 0.0
O637 O 0.96126 0.55292 0.38384 0.0
O638 O 0.96739 0.44568 0.70395 0.0
O639 O 0.97983 0.52681 0.57539 0.0
O640 O 0.93954 0.49936 0.46661 0.0
O641 O 0.95901 0.42497 0.52604 0.0
O642 O 0.92943 0.48102 0.62933 0.0
O643 O 0.048 0.45115 0.69624 0.0
C644 C 0.07649 0.47823 0.47695 0.0
C645 C 0.98629 0.75294 0.52864 0.0
C646 C 0.93557 0.74095 0.53924 0.0
C647 C 1.00006 0.55049 0.34264 0.0
C648 C 0.99638 0.57472 0.27551 0.0
C649 C 0.98359 0.62537 0.26682 0.0
C650 C 1.00172 0.5453 0.21939 0.0
C651 C 0.99274 0.56583 0.15509 0.0
C652 C 0.97577 0.64629 0.20314 0.0
C653 C 0.98 0.61682 0.14776 0.0
C654 C 0.07442 0.55465 0.59868 0.0
C655 C 0.93633 0.52551 0.60291 0.0
C656 C 0.008 0.45095 0.73564 0.0
C657 C 0.01099 0.42882 0.80394 0.0
C658 C 0.02274 0.37821 0.81576 0.0
C659 C 1.00411 0.45989 0.85824 0.0
C660 C 0.00983 0.44077 0.92403 0.0
C661 C 0.02782 0.35885 0.88085 0.0
C662 C 0.02166 0.38982 0.9345 0.0
C663 C 0.93383 0.45108 0.48115 0.0
H664 H 0.97896 0.64843 0.30928 0.0
H665 H 0.01107 0.50595 0.22609 0.0
H666 H 0.96579 0.68544 0.19673 0.0
H667 H 0.97358 0.63398 0.09906 0.0
H668 H 0.02836 0.3539 0.77474 0.0
H669 H 0.99565 0.49924 0.8491 0.0
H670 H 0.03705 0.31973 0.8898 0.0
H671 H 0.02611 0.37389 0.98431 0.0
C672 C 0.10251 0.12859 0.4162 0.0
C673 C 0.11385 0.07667 0.42044 0.0
C674 C 0.13499 0.16384 0.38015 0.0
C675 C 0.1794 0.14837 0.34563 0.0
H676 H 0.06887 0.14213 0.44144 0.0
H677 H 0.12607 0.20331 0.38109 0.0
S678 S 0.22518 0.01749 0.33761 0.0
N679 N 0.17355 0.01308 0.3853 0.0
N680 N 0.23081 0.07742 0.31606 0.0
C681 C 0.18958 0.09673 0.34777 0.0
C682 C 0.15803 0.0616 0.38538 0.0
C683 C 0.1522 0.93629 0.65066 0.0
C684 C 0.11551 0.91209 0.61605 0.0
C685 C 0.18587 0.90936 0.69041 0.0
C686 C 0.18408 0.857 0.69855 0.0
H687 H 0.15537 0.97662 0.64695 0.0
H688 H 0.21381 0.92976 0.7149 0.0
S689 S 0.09624 0.77485 0.6208 0.0
N690 N 0.07967 0.83176 0.59435 0.0
N691 N 0.14418 0.7816 0.66743 0.0
C692 C 0.14826 0.83212 0.66415 0.0
C693 C 0.11364 0.85948 0.62365 0.0
C694 C 0.33521 0.86903 0.9441 0.0
C695 C 0.3332 0.86995 0.87455 0.0
C696 C 0.36667 0.90133 0.97433 0.0
C697 C 0.39764 0.93485 0.93612 0.0
H698 H 0.31362 0.84219 0.9754 0.0
H699 H 0.36693 0.89975 1.02783 0.0
S700 S 0.39985 0.95714 0.7534 0.0
N701 N 0.35861 0.91238 0.76923 0.0
N702 N 0.4205 0.97075 0.82597 0.0
C703 C 0.39345 0.93842 0.86706 0.0
C704 C 0.36067 0.90631 0.83628 0.0
C705 C 0.43236 0.11854 0.14189 0.0
C706 C 0.41015 0.08156 0.10617 0.0
C707 C 0.40351 0.15513 0.17483 0.0
C708 C 0.35082 0.15609 0.17391 0.0
H709 H 0.47208 0.11735 0.14752 0.0
H710 H 0.42269 0.18234 0.20209 0.0
S711 S 0.27415 0.06457 0.09126 0.0
N712 N 0.33226 0.04606 0.07572 0.0
N713 N 0.27803 0.11476 0.13479 0.0
C714 C 0.32827 0.11877 0.13855 0.0
C715 C 0.35776 0.08133 0.10611 0.0
C716 C 0.91479 0.88649 0.63327 0.0
C717 C 0.9006 0.9369 0.61867 0.0
C718 C 0.88065 0.85112 0.66547 0.0
C719 C 0.83099 0.86481 0.6844 0.0
H720 H 0.95237 0.87428 0.61973 0.0
H721 H 0.89281 0.81276 0.67402 0.0
S722 S 0.77573 0.99175 0.65951 0.0
N723 N 0.8333 0.99769 0.62746 0.0
N724 N 0.77074 0.93284 0.68698 0.0
C725 C 0.81719 0.91508 0.67066 0.0
C726 C 0.85141 0.95054 0.6384 0.0
C727 C 0.90171 0.15156 0.43274 0.0
C728 C 0.89664 0.09936 0.44441 0.0
C729 C 0.86541 0.18022 0.39877 0.0
C730 C 0.82266 0.15772 0.37553 0.0
H731 H 0.93424 0.17031 0.44905 0.0
H732 H 0.87046 0.22025 0.39163 0.0
S733 S 0.78999 0.02349 0.39575 0.0
N734 N 0.84396 0.02728 0.43108 0.0
N735 N 0.77649 0.08098 0.36871 0.0
C736 C 0.81675 0.10607 0.38808 0.0
C737 C 0.85358 0.07693 0.42178 0.0
C738 C 0.69 0.11012 0.17069 0.0
C739 C 0.67251 0.15745 0.18872 0.0
C740 C 0.66047 0.07933 0.13453 0.0
C741 C 0.61352 0.09588 0.11406 0.0
H742 H 0.72629 0.09662 0.18521 0.0
H743 H 0.67468 0.04294 0.12168 0.0
S744 S 0.5509 0.21607 0.14921 0.0
N745 N 0.60488 0.21838 0.18428 0.0
N746 N 0.55078 0.1616 0.11517 0.0
C747 C 0.59604 0.14298 0.13162 0.0
C748 C 0.62522 0.17355 0.16933 0.0
C749 C 0.69117 0.90891 0.88945 0.0
C750 C 0.66729 0.86779 0.86374 0.0
C751 C 0.66404 0.94617 0.92258 0.0
C752 C 0.61191 0.94344 0.9334 0.0
H753 H 0.73133 0.91294 0.88324 0.0
H754 H 0.68413 0.97749 0.93999 0.0
S755 S 0.53068 0.84449 0.8768 0.0
N756 N 0.58753 0.82751 0.85135 0.0
N757 N 0.5371 0.89705 0.91439 0.0
C758 C 0.58741 0.90274 0.90826 0.0
C759 C 0.6149 0.86508 0.87347 0.0
C760 C 0.66789 0.57049 0.92924 0.0
C761 C 0.61773 0.58421 0.94357 0.0
C762 C 0.70282 0.60405 0.89756 0.0
C763 C 0.68974 0.65331 0.87658 0.0
H764 H 0.68047 0.53291 0.94267 0.0
H765 H 0.74084 0.59093 0.88903 0.0
S766 S 0.5632 0.70806 0.89852 0.0
N767 N 0.55652 0.65083 0.93221 0.0
N768 N 0.62224 0.71389 0.87232 0.0
C769 C 0.63967 0.66776 0.89002 0.0
C770 C 0.60383 0.63339 0.92334 0.0
C771 C 0.65446 0.33618 0.16065 0.0
C772 C 0.69536 0.35779 0.18932 0.0
C773 C 0.61866 0.36555 0.12679 0.0
C774 C 0.62268 0.41808 0.11959 0.0
H775 H 0.65162 0.29616 0.16173 0.0
H776 H 0.58791 0.34686 0.10573 0.0
S777 S 0.72489 0.49275 0.18407 0.0
N778 N 0.73876 0.43442 0.20685 0.0
N779 N 0.67277 0.48993 0.14418 0.0
C780 C 0.66399 0.43997 0.1481 0.0
C781 C 0.70011 0.40986 0.18222 0.0
C782 C 0.86833 0.38683 0.47493 0.0
C783 C 0.89857 0.42406 0.44286 0.0
C784 C 0.8396 0.3559 0.43861 0.0
C785 C 0.83936 0.36245 0.36925 0.0
H786 H 0.86658 0.38181 0.5283 0.0
H787 H 0.81818 0.32624 0.46479 0.0
S788 S 0.9023 0.4615 0.2628 0.0
N789 N 0.92157 0.46923 0.33803 0.0
N790 N 0.86382 0.41359 0.2708 0.0
C791 C 0.8657 0.40203 0.33698 0.0
C792 C 0.89607 0.43261 0.37367 0.0
C793 C 0.90403 0.6475 0.68774 0.0
C794 C 0.85155 0.64472 0.69784 0.0
C795 C 0.93163 0.60999 0.65487 0.0
C796 C 0.9078 0.56822 0.63098 0.0
H797 H 0.92393 0.67913 0.70461 0.0
H798 H 0.97186 0.6134 0.64892 0.0
S799 S 0.77227 0.54113 0.64705 0.0
N800 N 0.77775 0.59487 0.68228 0.0
N801 N 0.82947 0.5253 0.62201 0.0
C802 C 0.85586 0.56446 0.6421 0.0
C803 C 0.8278 0.60249 0.67473 0.0
C804 C 0.32699 0.42235 0.20055 0.0
C805 C 0.33752 0.37083 0.20922 0.0
C806 C 0.36087 0.45616 0.16753 0.0
C807 C 0.40788 0.44103 0.1407 0.0
H808 H 0.2913 0.43691 0.21865 0.0
H809 H 0.34974 0.49512 0.16287 0.0
S810 S 0.45564 0.31087 0.15119 0.0
N811 N 0.3995 0.3063 0.18843 0.0
N812 N 0.46393 0.3703 0.12755 0.0
C813 C 0.41973 0.38972 0.14965 0.0
C814 C 0.38462 0.35475 0.18357 0.0
C815 C 0.40259 0.6581 0.94623 0.0
C816 C 0.40016 0.60552 0.95657 0.0
C817 C 0.36642 0.68529 0.90951 0.0
C818 C 0.32671 0.66088 0.88115 0.0
H819 H 0.43261 0.67841 0.96647 0.0
H820 H 0.369 0.72566 0.90446 0.0
S821 S 0.3024 0.52472 0.8924 0.0
N822 N 0.35299 0.53106 0.93441 0.0
N823 N 0.28724 0.58179 0.86575 0.0
C824 C 0.3241 0.60879 0.89073 0.0
C825 C 0.36021 0.58126 0.92801 0.0
C826 C 0.16708 0.65194 0.63795 0.0
C827 C 0.16987 0.64583 0.70743 0.0
C828 C 0.13762 0.62083 0.60325 0.0
C829 C 0.10927 0.58276 0.63635 0.0
H830 H 0.18704 0.68167 0.60976 0.0
H831 H 0.13712 0.62674 0.55003 0.0
S832 S 0.10689 0.54778 0.81699 0.0
N833 N 0.14558 0.59551 0.80746 0.0
N834 N 0.08751 0.53861 0.74215 0.0
C835 C 0.11294 0.57483 0.70544 0.0
C836 C 0.14374 0.60616 0.74101 0.0
C837 C 0.18596 0.40175 0.40743 0.0
C838 C 0.16294 0.36141 0.37892 0.0
C839 C 0.15771 0.43862 0.44005 0.0
C840 C 0.10528 0.43596 0.44781 0.0
H841 H 0.2262 0.40558 0.40336 0.0
H842 H 0.17714 0.46949 0.4597 0.0
S843 S 0.02628 0.33842 0.38368 0.0
N844 N 0.08383 0.32144 0.3612 0.0
N845 N 0.03138 0.39066 0.42238 0.0
C846 C 0.08173 0.39616 0.4194 0.0
C847 C 0.11034 0.35887 0.38534 0.0
C848 C 0.01059 0.97517 0.97348 0.0
C849 C 0.99088 0.02353 0.96153 0.0
C850 C 0.01053 0.95342 0.03791 0.0
C851 C 0.99234 0.98016 0.09197 0.0
H852 H 0.02229 0.95247 0.93266 0.0
H853 H 0.02199 0.91468 0.0451 0.0
S854 S 0.94796 0.11177 0.08754 0.0
N855 N 0.96128 0.10035 1.00906 0.0
N856 N 0.96144 0.05976 0.13066 0.0
C857 C 0.97839 0.03054 0.08124 0.0
C858 C 0.97784 0.05233 1.01571 0.0
C859 C 0.23032 0.73144 0.3432 0.0
C860 C 0.27666 0.75497 0.34771 0.0
C861 C 0.20212 0.73897 0.28629 0.0
C862 C 0.21963 0.76987 0.23153 0.0
H863 H 0.21644 0.70631 0.38348 0.0
H864 H 0.16669 0.72 0.28473 0.0
S865 S 0.33614 0.84379 0.2217 0.0
N866 N 0.33712 0.81282 0.29457 0.0
N867 N 0.28462 0.82662 0.18752 0.0
C868 C 0.26552 0.79415 0.23598 0.0
C869 C 0.29395 0.78672 0.294 0.0
C870 C 0.4659 0.96582 0.57348 0.0
C871 C 0.48921 0.01064 0.58763 0.0
C872 C 0.47846 0.94163 0.51474 0.0
C873 C 0.51397 0.96201 0.46738 0.0
H874 H 0.43745 0.94958 0.60778 0.0
H875 H 0.4593 0.90742 0.50547 0.0
S876 S 0.58711 0.0774 0.4827 0.0
N877 N 0.55077 0.07333 0.55129 0.0
N878 N 0.57363 0.02866 0.44002 0.0
C879 C 0.53796 1.00649 0.48146 0.0
C880 C 0.52578 0.03058 0.54183 0.0
C881 C 0.247 0.31418 0.78472 0.0
C882 C 0.23361 0.27875 0.83634 0.0
C883 C 0.27083 0.29949 0.72567 0.0
C884 C 0.2824 0.24902 0.71682 0.0
H885 H 0.23989 0.35363 0.79051 0.0
H886 H 0.2808 0.32776 0.687 0.0
S887 S 0.25149 0.14141 0.83415 0.0
N888 N 0.23081 0.1908 0.87307 0.0
N889 N 0.27633 0.16327 0.76202 0.0
C890 C 0.26856 0.21314 0.76742 0.0
C891 C 0.24398 0.22801 0.8273 0.0
C892 C 0.78961 0.21456 0.78989 0.0
C893 C 0.79382 0.25111 0.83702 0.0
C894 C 0.76147 0.22349 0.73329 0.0
C895 C 0.73645 0.26935 0.72154 0.0
H896 H 0.80742 0.17838 0.79748 0.0
H897 H 0.7584 0.19387 0.69918 0.0
S898 S 0.74228 0.38006 0.824 0.0
N899 N 0.77483 0.33666 0.86439 0.0
N900 N 0.72219 0.35346 0.75829 0.0
C901 C 0.74194 0.30681 0.76699 0.0
C902 C 0.77051 0.2977 0.82458 0.0
C903 C 0.7172 0.77324 0.29153 0.0
C904 C 0.73627 0.74047 0.34087 0.0
C905 C 0.74338 0.78192 0.23046 0.0
C906 C 0.78941 0.75803 0.21673 0.0
H907 H 0.68223 0.79291 0.3006 0.0
H908 H 0.72784 0.80809 0.19406 0.0
S909 S 0.85248 0.66471 0.32661 0.0
N910 N 0.8019 0.68127 0.37039 0.0
N911 N 0.85125 0.69775 0.25525 0.0
C912 C 0.80833 0.72435 0.26502 0.0
C913 C 0.78168 0.71549 0.3272 0.0
C914 C 0.49745 0.54533 0.58525 0.0
C915 C 0.50132 0.49384 0.60226 0.0
C916 C 0.51616 0.56522 0.52332 0.0
C917 C 0.5389 0.53406 0.47658 0.0
H918 H 0.47905 0.57015 0.61961 0.0
H919 H 0.51203 0.60492 0.51143 0.0
S920 S 0.56395 0.3984 0.5006 0.0
N921 N 0.53327 0.41313 0.56995 0.0
N922 N 0.56824 0.45058 0.4535 0.0
C923 C 0.54424 0.48295 0.49387 0.0
C924 C 0.5254 0.46276 0.55675 0.0
C925 C 0.04344 0.47558 1.02668 0.0
C926 C 1.00484 0.47372 0.98182 0.0
C927 C 0.03923 0.50528 0.08234 0.0
C928 C 0.99618 0.53422 0.0958 0.0
H929 H 0.07739 0.45409 1.01843 0.0
H930 H 0.07025 0.50621 0.11466 0.0
S931 S 0.8828 0.5396 0.99686 0.0
N932 N 0.92125 0.50195 0.95644 0.0
N933 N 0.91314 0.5572 0.06098 0.0
C934 C 0.95714 0.53238 0.05162 0.0
C935 C 0.96152 0.50234 0.99478 0.0
loop_
_geom_bond_atom_site_label_1
_geom_bond_atom_site_label_2
_geom_bond_distance
_geom_bond_site_symmetry_2
_ccdc_geom_bond_type
Gd0 N31 2.658 1_655 S
Gd0 N37 2.601 1_655 S
Gd0 O44 2.546 . S
Gd0 O45 2.607 1_545 S
Gd0 O47 2.431 . S
Gd0 O48 2.547 1_545 S
Gd0 O49 2.412 1_655 S
Gd0 O51 2.361 1_655 S
Gd0 O52 2.322 1_645 S
Gd0 C59 2.829 . S
Gd1 N10 2.653 1_455 S
Gd1 N14 2.601 1_455 S
Gd1 O45 2.359 1_455 S
Gd1 O46 2.318 1_465 S
Gd1 O50 2.549 . S
Gd1 O51 2.609 1_565 S
Gd1 O53 2.435 . S
Gd1 O54 2.550 1_565 S
Gd1 O55 2.410 1_455 S
Gd1 C68 2.830 . S
C2 C5 1.417 . S
C2 C7 1.431 . S
C2 C8 1.412 . S
C3 C6 1.437 . S
C3 C7 1.317 . S
C3 H22 0.929 . S
C4 C5 1.426 . S
C4 C6 1.413 . S
C4 N14 1.359 . S
C5 C2 1.417 . S
C5 C4 1.426 . S
C5 N10 1.350 . S
C6 C3 1.437 . S
C6 C4 1.413 . S
C6 C16 1.412 . S
C7 C2 1.431 . S
C7 C3 1.317 . S
C7 H18 0.930 . S
C8 C2 1.412 . S
C8 C9 1.355 . S
C8 H20 0.930 . S
C9 C8 1.355 . S
C9 C11 1.402 . S
C9 H21 0.930 . S
N10 Gd1 2.653 1_655 S
N10 C5 1.350 . S
N10 C11 1.307 . S
C11 C9 1.402 . S
C11 N10 1.307 . S
C11 H12 0.930 . S
H12 C11 0.930 . S
C13 N14 1.334 1_455 S
C13 C15 1.394 . S
C13 H17 0.930 . S
N14 Gd1 2.601 1_655 S
N14 C4 1.359 . S
N14 C13 1.334 1_655 S
C15 C13 1.394 . S
C15 C16 1.338 1_455 S
C15 H27 0.930 . S
C16 C6 1.412 . S
C16 C15 1.338 1_655 S
C16 H28 0.929 . S
H17 C13 0.930 . S
H18 C7 0.930 . S
H19 C36 0.930 . S
H20 C8 0.930 . S
H21 C9 0.930 . S
H22 C3 0.929 . S
H23 C41 0.930 . S
H24 C32 0.930 . S
H25 C33 0.930 . S
H26 C57 0.929 . S
H27 C15 0.930 . S
H28 C16 0.929 . S
H29 C58 0.930 . S
H30 C39 0.930 . S
N31 Gd0 2.658 1_455 S
N31 C35 1.350 . S
N31 C36 1.307 . S
C32 H24 0.930 . S
C32 C33 1.355 . S
C32 C34 1.412 . S
C33 H25 0.930 . S
C33 C32 1.355 . S
C33 C36 1.402 . S
C34 C32 1.412 . S
C34 C35 1.417 . S
C34 C58 1.431 . S
C35 N31 1.350 . S
C35 C34 1.417 . S
C35 C38 1.426 . S
C36 H19 0.930 . S
C36 N31 1.307 . S
C36 C33 1.402 . S
N37 Gd0 2.601 1_455 S
N37 C38 1.359 . S
N37 C41 1.334 1_455 S
C38 C35 1.426 . S
C38 N37 1.359 . S
C38 C42 1.413 . S
C39 H30 0.930 . S
C39 C40 1.359 1_655 S
C39 C41 1.394 . S
C40 C39 1.359 1_455 S
C40 C42 1.391 . S
C40 H43 0.929 . S
C41 H23 0.930 . S
C41 N37 1.334 1_655 S
C41 C39 1.394 . S
C42 C38 1.413 . S
C42 C40 1.391 . S
C42 C57 1.437 . S
H43 C40 0.929 . S
O44 Gd0 2.546 . S
O44 C59 1.258 . S
O45 Gd0 2.607 1_565 S
O45 Gd1 2.359 1_655 S
O45 C56 1.284 . S
O46 Gd1 2.318 1_645 S
O46 C66 1.254 . S
O47 Gd0 2.431 . S
O47 C66 1.268 . S
O48 Gd0 2.547 1_565 S
O48 C56 1.250 . S
O49 Gd0 2.412 1_455 S
O49 C59 1.252 1_455 S
O50 Gd1 2.549 . S
O50 C68 1.258 . S
O51 Gd0 2.361 1_455 S
O51 Gd1 2.609 1_545 S
O51 C67 1.284 . S
O52 Gd0 2.322 1_465 S
O52 C75 1.254 . S
O53 Gd1 2.435 . S
O53 C75 1.268 . S
O54 Gd1 2.550 1_545 S
O54 C67 1.250 . S
O55 Gd1 2.410 1_655 S
O55 C68 1.252 1_655 S
C56 O45 1.284 . S
C56 O48 1.250 . S
C57 H26 0.929 . S
C57 C42 1.437 . S
C57 C58 1.317 . S
C58 H29 0.930 . S
C58 C34 1.431 . S
C58 C57 1.317 . S
C59 Gd0 2.829 . S
C59 O44 1.258 . S
C59 O49 1.252 1_655 S
C59 C60 1.497 . S
C60 C59 1.497 . S
C60 C61 1.395 . S
C60 C62 1.380 . S
C61 C60 1.395 . S
C61 C64 1.398 . S
C61 H76 0.930 . S
C62 C60 1.380 . S
C62 C63 1.391 . S
C62 H77 0.930 1_655 S
C63 C62 1.391 . S
C63 C65 1.387 . S
C64 C61 1.398 . S
C64 C65 1.380 . S
C64 H78 0.930 . S
C65 C63 1.387 . S
C65 C64 1.380 . S
C65 H79 0.930 . S
C66 O46 1.254 . S
C66 O47 1.268 . S
C67 O51 1.284 . S
C67 O54 1.250 . S
C68 Gd1 2.830 . S
C68 O50 1.258 . S
C68 O55 1.252 1_455 S
C68 C69 1.497 . S
C69 C68 1.497 . S
C69 C70 1.395 . S
C69 C71 1.380 . S
C70 C69 1.395 . S
C70 C73 1.398 . S
C70 H80 0.930 . S
C71 C69 1.380 . S
C71 C72 1.391 . S
C71 H81 0.930 1_455 S
C72 C71 1.391 . S
C72 C74 1.387 . S
C73 C70 1.398 . S
C73 C74 1.380 . S
C73 H82 0.930 . S
C74 C72 1.387 . S
C74 C73 1.380 . S
C74 H83 0.930 . S
C75 O52 1.254 . S
C75 O53 1.268 . S
H76 C61 0.930 . S
H77 C62 0.930 1_455 S
H78 C64 0.930 . S
H79 C65 0.930 . S
H80 C70 0.930 . S
H81 C71 0.930 1_655 S
H82 C73 0.930 . S
H83 C74 0.930 . S
Gd84 N115 2.661 . S
Gd84 N121 2.601 . S
Gd84 O128 2.545 . S
Gd84 O129 2.606 . S
Gd84 O131 2.429 . S
Gd84 O132 2.545 . S
Gd84 O133 2.412 . S
Gd84 O135 2.362 . S
Gd84 O136 2.324 . S
Gd84 C143 2.828 . S
Gd85 N94 2.661 . S
Gd85 N98 2.601 . S
Gd85 O129 2.362 . S
Gd85 O130 2.324 . S
Gd85 O134 2.545 . S
Gd85 O135 2.606 . S
Gd85 O137 2.429 . S
Gd85 O138 2.545 . S
Gd85 O139 2.412 . S
Gd85 C152 2.828 . S
C86 C89 1.417 . S
C86 C91 1.431 . S
C86 C92 1.412 . S
C87 C90 1.437 . S
C87 C91 1.317 . S
C87 H106 0.929 . S
C88 C89 1.426 . S
C88 C90 1.413 . S
C88 N98 1.359 . S
C89 C86 1.417 . S
C89 C88 1.426 . S
C89 N94 1.350 . S
C90 C87 1.437 . S
C90 C88 1.413 . S
C90 C100 1.391 . S
C91 C86 1.431 . S
C91 C87 1.317 . S
C91 H102 0.930 . S
C92 C86 1.412 . S
C92 C93 1.355 . S
C92 H104 0.930 . S
C93 C92 1.355 . S
C93 C95 1.402 . S
C93 H105 0.930 . S
N94 Gd85 2.661 . S
N94 C89 1.350 . S
N94 C95 1.307 . S
C95 C93 1.402 . S
C95 N94 1.307 . S
C95 H96 0.930 . S
H96 C95 0.930 . S
C97 N98 1.334 . S
C97 C99 1.394 . S
C97 H101 0.930 . S
N98 Gd85 2.601 . S
N98 C88 1.359 . S
N98 C97 1.334 . S
C99 C97 1.394 . S
C99 C100 1.359 . S
C99 H111 0.930 . S
C100 C90 1.391 . S
C100 C99 1.359 . S
C100 H112 0.929 . S
H101 C97 0.930 . S
H102 C91 0.930 . S
H103 C120 0.930 . S
H104 C92 0.930 . S
H105 C93 0.930 . S
H106 C87 0.929 . S
H107 C125 0.930 . S
H108 C116 0.930 . S
H109 C117 0.930 . S
H110 C141 0.929 1_655 S
H111 C99 0.930 . S
H112 C100 0.929 . S
H113 C142 0.930 . S
H114 C123 0.930 . S
N115 Gd84 2.661 . S
N115 C119 1.350 . S
N115 C120 1.307 . S
C116 H108 0.930 . S
C116 C117 1.355 . S
C116 C118 1.412 . S
C117 H109 0.930 . S
C117 C116 1.355 . S
C117 C120 1.402 . S
C118 C116 1.412 . S
C118 C119 1.417 . S
C118 C142 1.431 . S
C119 N115 1.350 . S
C119 C118 1.417 . S
C119 C122 1.426 . S
C120 H103 0.930 . S
C120 N115 1.307 . S
C120 C117 1.402 . S
N121 Gd84 2.601 . S
N121 C122 1.359 . S
N121 C125 1.334 . S
C122 C119 1.426 . S
C122 N121 1.359 . S
C122 C126 1.413 . S
C123 H114 0.930 . S
C123 C124 1.359 . S
C123 C125 1.394 . S
C124 C123 1.359 . S
C124 C126 1.391 . S
C124 H127 0.929 1_455 S
C125 H107 0.930 . S
C125 N121 1.334 . S
C125 C123 1.394 . S
C126 C122 1.413 . S
C126 C124 1.391 . S
C126 C141 1.437 . S
H127 C124 0.929 1_655 S
O128 Gd84 2.545 . S
O128 C143 1.258 . S
O129 Gd84 2.606 . S
O129 Gd85 2.362 . S
O129 C140 1.284 . S
O130 Gd85 2.324 . S
O130 C150 1.254 . S
O131 Gd84 2.429 . S
O131 C150 1.268 . S
O132 Gd84 2.545 . S
O132 C140 1.250 . S
O133 Gd84 2.412 . S
O133 C143 1.252 . S
O134 Gd85 2.545 . S
O134 C152 1.258 . S
O135 Gd84 2.362 . S
O135 Gd85 2.606 . S
O135 C151 1.284 . S
O136 Gd84 2.324 . S
O136 C159 1.254 . S
O137 Gd85 2.429 . S
O137 C159 1.268 . S
O138 Gd85 2.545 . S
O138 C151 1.250 . S
O139 Gd85 2.412 . S
O139 C152 1.252 . S
C140 O129 1.284 . S
C140 O132 1.250 . S
C141 H110 0.929 1_455 S
C141 C126 1.437 . S
C141 C142 1.317 . S
C142 H113 0.930 . S
C142 C118 1.431 . S
C142 C141 1.317 . S
C143 Gd84 2.828 . S
C143 O128 1.258 . S
C143 O133 1.252 . S
C143 C144 1.497 1_556 S
C144 C143 1.497 1_554 S
C144 C145 1.395 . S
C144 C146 1.380 . S
C145 C144 1.395 . S
C145 C148 1.398 . S
C145 H160 0.930 . S
C146 C144 1.380 . S
C146 C147 1.391 . S
C146 H161 0.930 . S
C147 C146 1.391 . S
C147 C149 1.387 . S
C148 C145 1.398 . S
C148 C149 1.380 . S
C148 H162 0.930 . S
C149 C147 1.387 . S
C149 C148 1.380 . S
C149 H163 0.930 . S
C150 O130 1.254 . S
C150 O131 1.268 . S
C151 O135 1.284 . S
C151 O138 1.250 . S
C152 Gd85 2.828 . S
C152 O134 1.258 . S
C152 O139 1.252 . S
C152 C153 1.497 . S
C153 C152 1.497 . S
C153 C154 1.395 . S
C153 C155 1.380 . S
C154 C153 1.395 . S
C154 C157 1.398 . S
C154 H164 0.930 . S
C155 C153 1.380 . S
C155 C156 1.391 . S
C155 H165 0.930 . S
C156 C155 1.391 . S
C156 C158 1.387 . S
C157 C154 1.398 . S
C157 C158 1.380 . S
C157 H166 0.930 . S
C158 C156 1.387 . S
C158 C157 1.380 . S
C158 H167 0.930 . S
C159 O136 1.254 . S
C159 O137 1.268 . S
H160 C145 0.930 . S
H161 C146 0.930 . S
H162 C148 0.930 . S
H163 C149 0.930 . S
H164 C154 0.930 . S
H165 C155 0.930 . S
H166 C157 0.930 . S
H167 C158 0.930 . S
Gd168 N199 2.661 . S
Gd168 N205 2.601 . S
Gd168 O212 2.545 . S
Gd168 O213 2.606 1_545 S
Gd168 O215 2.429 . S
Gd168 O216 2.545 1_545 S
Gd168 O217 2.412 . S
Gd168 O219 2.362 1_556 S
Gd168 O220 2.324 1_545 S
Gd168 C227 2.828 . S
Gd169 N178 2.661 . S
Gd169 N182 2.601 . S
Gd169 O213 2.362 1_554 S
Gd169 O214 2.324 1_565 S
Gd169 O218 2.545 . S
Gd169 O219 2.606 1_565 S
Gd169 O221 2.429 . S
Gd169 O222 2.545 1_565 S
Gd169 O223 2.412 . S
Gd169 C236 2.828 . S
C170 C173 1.417 . S
C170 C175 1.431 . S
C170 C176 1.412 . S
C171 C174 1.437 . S
C171 C175 1.317 . S
C171 H190 0.929 . S
C172 C173 1.426 . S
C172 C174 1.413 . S
C172 N182 1.359 . S
C173 C170 1.417 . S
C173 C172 1.426 . S
C173 N178 1.350 . S
C174 C171 1.437 . S
C174 C172 1.413 . S
C174 C184 1.391 . S
C175 C170 1.431 . S
C175 C171 1.317 . S
C175 H186 0.930 . S
C176 C170 1.412 . S
C176 C177 1.355 . S
C176 H188 0.930 . S
C177 C176 1.355 . S
C177 C179 1.402 . S
C177 H189 0.930 . S
N178 Gd169 2.661 . S
N178 C173 1.350 . S
N178 C179 1.307 . S
C179 C177 1.402 . S
C179 N178 1.307 . S
C179 H180 0.930 . S
H180 C179 0.930 . S
C181 N182 1.334 . S
C181 C183 1.394 . S
C181 H185 0.930 . S
N182 Gd169 2.601 . S
N182 C172 1.359 . S
N182 C181 1.334 . S
C183 C181 1.394 . S
C183 C184 1.359 . S
C183 H195 0.930 . S
C184 C174 1.391 . S
C184 C183 1.359 . S
C184 H196 0.929 . S
H185 C181 0.930 . S
H186 C175 0.930 . S
H187 C204 0.930 . S
H188 C176 0.930 . S
H189 C177 0.930 . S
H190 C171 0.929 . S
H191 C209 0.930 . S
H192 C200 0.930 . S
H193 C201 0.930 . S
H194 C225 0.929 . S
H195 C183 0.930 . S
H196 C184 0.929 . S
H197 C226 0.930 . S
H198 C207 0.930 . S
N199 Gd168 2.661 . S
N199 C203 1.350 . S
N199 C204 1.307 . S
C200 H192 0.930 . S
C200 C201 1.355 . S
C200 C202 1.412 . S
C201 H193 0.930 . S
C201 C200 1.355 . S
C201 C204 1.402 . S
C202 C200 1.412 . S
C202 C203 1.417 . S
C202 C226 1.431 . S
C203 N199 1.350 . S
C203 C202 1.417 . S
C203 C206 1.426 . S
C204 H187 0.930 . S
C204 N199 1.307 . S
C204 C201 1.402 . S
N205 Gd168 2.601 . S
N205 C206 1.359 . S
N205 C209 1.334 . S
C206 C203 1.426 . S
C206 N205 1.359 . S
C206 C210 1.413 . S
C207 H198 0.930 . S
C207 C208 1.359 . S
C207 C209 1.394 . S
C208 C207 1.359 . S
C208 C210 1.391 . S
C208 H211 0.929 . S
C209 H191 0.930 . S
C209 N205 1.334 . S
C209 C207 1.394 . S
C210 C206 1.413 . S
C210 C208 1.391 . S
C210 C225 1.437 . S
H211 C208 0.929 . S
O212 Gd168 2.545 . S
O212 C227 1.258 . S
O213 Gd168 2.606 1_565 S
O213 Gd169 2.362 1_556 S
O213 C224 1.284 . S
O214 Gd169 2.324 1_545 S
O214 C234 1.254 . S
O215 Gd168 2.429 . S
O215 C234 1.268 1_556 S
O216 Gd168 2.545 1_565 S
O216 C224 1.250 . S
O217 Gd168 2.412 . S
O217 C227 1.252 . S
O218 Gd169 2.545 . S
O218 C236 1.258 . S
O219 Gd168 2.362 1_554 S
O219 Gd169 2.606 1_545 S
O219 C235 1.284 . S
O220 Gd168 2.324 1_565 S
O220 C243 1.254 . S
O221 Gd169 2.429 . S
O221 C243 1.268 1_554 S
O222 Gd169 2.545 1_545 S
O222 C235 1.250 . S
O223 Gd169 2.412 . S
O223 C236 1.252 . S
C224 O213 1.284 . S
C224 O216 1.250 . S
C225 H194 0.929 . S
C225 C210 1.437 . S
C225 C226 1.317 . S
C226 H197 0.930 . S
C226 C202 1.431 . S
C226 C225 1.317 . S
C227 Gd168 2.828 . S
C227 O212 1.258 . S
C227 O217 1.252 . S
C227 C228 1.497 . S
C228 C227 1.497 . S
C228 C229 1.395 . S
C228 C230 1.380 . S
C229 C228 1.395 . S
C229 C232 1.398 . S
C229 H244 0.930 . S
C230 C228 1.380 . S
C230 C231 1.391 . S
C230 H245 0.931 . S
C231 C230 1.391 . S
C231 C233 1.387 . S
C232 C229 1.398 . S
C232 C233 1.380 . S
C232 H246 0.930 . S
C233 C231 1.387 . S
C233 C232 1.380 . S
C233 H247 0.930 . S
C234 O214 1.254 . S
C234 O215 1.268 1_554 S
C235 O219 1.284 . S
C235 O222 1.250 . S
C236 Gd169 2.828 . S
C236 O218 1.258 . S
C236 O223 1.252 . S
C236 C237 1.497 . S
C237 C236 1.497 . S
C237 C238 1.395 . S
C237 C239 1.380 . S
C238 C237 1.395 . S
C238 C241 1.398 . S
C238 H248 0.930 . S
C239 C237 1.380 . S
C239 C240 1.391 . S
C239 H249 0.931 1_565 S
C240 C239 1.391 . S
C240 C242 1.387 . S
C241 C238 1.398 . S
C241 C242 1.380 . S
C241 H250 0.930 . S
C242 C240 1.387 . S
C242 C241 1.380 . S
C242 H251 0.930 . S
C243 O220 1.254 . S
C243 O221 1.268 1_556 S
H244 C229 0.930 . S
H245 C230 0.931 . S
H246 C232 0.930 . S
H247 C233 0.930 . S
H248 C238 0.930 . S
H249 C239 0.931 1_545 S
H250 C241 0.930 . S
H251 C242 0.930 . S
Gd252 N283 2.661 . S
Gd252 N289 2.601 . S
Gd252 O296 2.545 . S
Gd252 O297 2.606 . S
Gd252 O299 2.429 . S
Gd252 O300 2.545 . S
Gd252 O301 2.412 . S
Gd252 O303 2.362 . S
Gd252 O304 2.324 . S
Gd252 C311 2.828 . S
Gd253 N262 2.661 . S
Gd253 N266 2.601 . S
Gd253 O297 2.362 . S
Gd253 O298 2.324 . S
Gd253 O302 2.545 . S
Gd253 O303 2.606 . S
Gd253 O305 2.429 . S
Gd253 O306 2.545 . S
Gd253 O307 2.412 . S
Gd253 C320 2.828 . S
C254 C257 1.417 . S
C254 C259 1.431 . S
C254 C260 1.412 . S
C255 C258 1.437 . S
C255 C259 1.317 . S
C255 H274 0.929 . S
C256 C257 1.426 . S
C256 C258 1.413 . S
C256 N266 1.359 . S
C257 C254 1.417 . S
C257 C256 1.426 . S
C257 N262 1.350 . S
C258 C255 1.437 . S
C258 C256 1.413 . S
C258 C268 1.391 . S
C259 C254 1.431 . S
C259 C255 1.317 . S
C259 H270 0.930 . S
C260 C254 1.412 . S
C260 C261 1.355 . S
C260 H272 0.930 . S
C261 C260 1.355 . S
C261 C263 1.402 . S
C261 H273 0.930 . S
N262 Gd253 2.661 . S
N262 C257 1.350 . S
N262 C263 1.307 . S
C263 C261 1.402 . S
C263 N262 1.307 . S
C263 H264 0.930 . S
H264 C263 0.930 . S
C265 N266 1.334 . S
C265 C267 1.394 . S
C265 H269 0.930 . S
N266 Gd253 2.601 . S
N266 C256 1.359 . S
N266 C265 1.334 . S
C267 C265 1.394 . S
C267 C268 1.359 . S
C267 H279 0.930 . S
C268 C258 1.391 . S
C268 C267 1.359 . S
C268 H280 0.929 . S
H269 C265 0.930 . S
H270 C259 0.930 . S
H271 C288 0.930 . S
H272 C260 0.930 . S
H273 C261 0.930 . S
H274 C255 0.929 . S
H275 C293 0.930 . S
H276 C284 0.930 . S
H277 C285 0.930 . S
H278 C309 0.929 1_655 S
H279 C267 0.930 . S
H280 C268 0.929 . S
H281 C310 0.930 . S
H282 C291 0.930 . S
N283 Gd252 2.661 . S
N283 C287 1.350 . S
N283 C288 1.307 . S
C284 H276 0.930 . S
C284 C285 1.355 . S
C284 C286 1.412 . S
C285 H277 0.930 . S
C285 C284 1.355 . S
C285 C288 1.402 . S
C286 C284 1.412 . S
C286 C287 1.417 . S
C286 C310 1.431 . S
C287 N283 1.350 . S
C287 C286 1.417 . S
C287 C290 1.426 . S
C288 H271 0.930 . S
C288 N283 1.307 . S
C288 C285 1.402 . S
N289 Gd252 2.601 . S
N289 C290 1.359 . S
N289 C293 1.334 . S
C290 C287 1.426 . S
C290 N289 1.359 . S
C290 C294 1.413 . S
C291 H282 0.930 . S
C291 C292 1.359 . S
C291 C293 1.394 . S
C292 C291 1.359 . S
C292 C294 1.391 . S
C292 H295 0.929 1_455 S
C293 H275 0.930 . S
C293 N289 1.334 . S
C293 C291 1.394 . S
C294 C290 1.413 . S
C294 C292 1.391 . S
C294 C309 1.437 . S
H295 C292 0.929 1_655 S
O296 Gd252 2.545 . S
O296 C311 1.258 . S
O297 Gd252 2.606 . S
O297 Gd253 2.362 . S
O297 C308 1.284 . S
O298 Gd253 2.324 . S
O298 C318 1.254 . S
O299 Gd252 2.429 . S
O299 C318 1.268 . S
O300 Gd252 2.545 . S
O300 C308 1.250 . S
O301 Gd252 2.412 . S
O301 C311 1.252 . S
O302 Gd253 2.545 . S
O302 C320 1.258 . S
O303 Gd252 2.362 . S
O303 Gd253 2.606 . S
O303 C319 1.284 . S
O304 Gd252 2.324 . S
O304 C327 1.254 . S
O305 Gd253 2.429 . S
O305 C327 1.268 . S
O306 Gd253 2.545 . S
O306 C319 1.250 . S
O307 Gd253 2.412 . S
O307 C320 1.252 . S
C308 O297 1.284 . S
C308 O300 1.250 . S
C309 H278 0.929 1_455 S
C309 C294 1.437 . S
C309 C310 1.317 . S
C310 H281 0.930 . S
C310 C286 1.431 . S
C310 C309 1.317 . S
C311 Gd252 2.828 . S
C311 O296 1.258 . S
C311 O301 1.252 . S
C311 C312 1.497 1_554 S
C312 C311 1.497 1_556 S
C312 C313 1.395 . S
C312 C314 1.380 . S
C313 C312 1.395 . S
C313 C316 1.398 . S
C313 H328 0.930 . S
C314 C312 1.380 . S
C314 C315 1.391 . S
C314 H329 0.930 . S
C315 C314 1.391 . S
C315 C317 1.387 . S
C316 C313 1.398 . S
C316 C317 1.380 . S
C316 H330 0.930 . S
C317 C315 1.387 . S
C317 C316 1.380 . S
C317 H331 0.930 . S
C318 O298 1.254 . S
C318 O299 1.268 . S
C319 O303 1.284 . S
C319 O306 1.250 . S
C320 Gd253 2.828 . S
C320 O302 1.258 . S
C320 O307 1.252 . S
C320 C321 1.497 . S
C321 C320 1.497 . S
C321 C322 1.395 . S
C321 C323 1.380 . S
C322 C321 1.395 . S
C322 C325 1.398 . S
C322 H332 0.930 . S
C323 C321 1.380 . S
C323 C324 1.391 . S
C323 H333 0.930 . S
C324 C323 1.391 . S
C324 C326 1.387 . S
C325 C322 1.398 . S
C325 C326 1.380 . S
C325 H334 0.930 . S
C326 C324 1.387 . S
C326 C325 1.380 . S
C326 H335 0.930 . S
C327 O304 1.254 . S
C327 O305 1.268 . S
H328 C313 0.930 . S
H329 C314 0.930 . S
H330 C316 0.930 . S
H331 C317 0.930 . S
H332 C322 0.930 . S
H333 C323 0.930 . S
H334 C325 0.930 . S
H335 C326 0.930 . S
Gd336 N367 2.661 . S
Gd336 N373 2.601 . S
Gd336 O380 2.545 . S
Gd336 O381 2.606 . S
Gd336 O383 2.429 . S
Gd336 O384 2.545 . S
Gd336 O385 2.412 . S
Gd336 O387 2.362 . S
Gd336 O388 2.324 . S
Gd336 C395 2.828 . S
Gd337 N346 2.661 . S
Gd337 N350 2.601 . S
Gd337 O381 2.362 . S
Gd337 O382 2.324 . S
Gd337 O386 2.545 . S
Gd337 O387 2.606 . S
Gd337 O389 2.429 . S
Gd337 O390 2.545 . S
Gd337 O391 2.412 . S
Gd337 C404 2.828 . S
C338 C341 1.417 . S
C338 C343 1.431 . S
C338 C344 1.412 . S
C339 C342 1.437 . S
C339 C343 1.317 . S
C339 H358 0.929 1_655 S
C340 C341 1.426 . S
C340 C342 1.413 . S
C340 N350 1.359 . S
C341 C338 1.417 . S
C341 C340 1.426 . S
C341 N346 1.350 . S
C342 C339 1.437 . S
C342 C340 1.413 . S
C342 C352 1.391 . S
C343 C338 1.431 . S
C343 C339 1.317 . S
C343 H354 0.930 . S
C344 C338 1.412 . S
C344 C345 1.355 . S
C344 H356 0.930 . S
C345 C344 1.355 . S
C345 C347 1.402 . S
C345 H357 0.930 . S
N346 Gd337 2.661 . S
N346 C341 1.350 . S
N346 C347 1.307 . S
C347 C345 1.402 . S
C347 N346 1.307 . S
C347 H348 0.930 . S
H348 C347 0.930 . S
C349 N350 1.334 . S
C349 C351 1.394 . S
C349 H353 0.930 . S
N350 Gd337 2.601 . S
N350 C340 1.359 . S
N350 C349 1.334 . S
C351 C349 1.394 . S
C351 C352 1.359 . S
C351 H363 0.930 . S
C352 C342 1.391 . S
C352 C351 1.359 . S
C352 H364 0.929 1_655 S
H353 C349 0.930 . S
H354 C343 0.930 . S
H355 C372 0.930 . S
H356 C344 0.930 . S
H357 C345 0.930 . S
H358 C339 0.929 1_455 S
H359 C377 0.930 . S
H360 C368 0.930 . S
H361 C369 0.930 . S
H362 C393 0.929 . S
H363 C351 0.930 . S
H364 C352 0.929 1_455 S
H365 C394 0.930 . S
H366 C375 0.930 . S
N367 Gd336 2.661 . S
N367 C371 1.350 . S
N367 C372 1.307 . S
C368 H360 0.930 . S
C368 C369 1.355 . S
C368 C370 1.412 . S
C369 H361 0.930 . S
C369 C368 1.355 . S
C369 C372 1.402 . S
C370 C368 1.412 . S
C370 C371 1.417 . S
C370 C394 1.431 . S
C371 N367 1.350 . S
C371 C370 1.417 . S
C371 C374 1.426 . S
C372 H355 0.930 . S
C372 N367 1.307 . S
C372 C369 1.402 . S
N373 Gd336 2.601 . S
N373 C374 1.359 . S
N373 C377 1.334 . S
C374 C371 1.426 . S
C374 N373 1.359 . S
C374 C378 1.413 . S
C375 H366 0.930 . S
C375 C376 1.359 . S
C375 C377 1.394 . S
C376 C375 1.359 . S
C376 C378 1.391 . S
C376 H379 0.929 . S
C377 H359 0.930 . S
C377 N373 1.334 . S
C377 C375 1.394 . S
C378 C374 1.413 . S
C378 C376 1.391 . S
C378 C393 1.437 . S
H379 C376 0.929 . S
O380 Gd336 2.545 . S
O380 C395 1.258 . S
O381 Gd336 2.606 . S
O381 Gd337 2.362 . S
O381 C392 1.284 . S
O382 Gd337 2.324 . S
O382 C402 1.254 . S
O383 Gd336 2.429 . S
O383 C402 1.268 . S
O384 Gd336 2.545 . S
O384 C392 1.250 . S
O385 Gd336 2.412 . S
O385 C395 1.252 . S
O386 Gd337 2.545 . S
O386 C404 1.258 . S
O387 Gd336 2.362 . S
O387 Gd337 2.606 . S
O387 C403 1.284 . S
O388 Gd336 2.324 . S
O388 C411 1.254 . S
O389 Gd337 2.429 . S
O389 C411 1.268 . S
O390 Gd337 2.545 . S
O390 C403 1.250 . S
O391 Gd337 2.412 . S
O391 C404 1.252 . S
C392 O381 1.284 . S
C392 O384 1.250 . S
C393 H362 0.929 . S
C393 C378 1.437 . S
C393 C394 1.317 . S
C394 H365 0.930 . S
C394 C370 1.431 . S
C394 C393 1.317 . S
C395 Gd336 2.828 . S
C395 O380 1.258 . S
C395 O385 1.252 . S
C395 C396 1.497 . S
C396 C395 1.497 . S
C396 C397 1.395 . S
C396 C398 1.380 . S
C397 C396 1.395 . S
C397 C400 1.398 . S
C397 H412 0.930 . S
C398 C396 1.380 . S
C398 C399 1.391 . S
C398 H413 0.930 . S
C399 C398 1.391 . S
C399 C401 1.387 . S
C400 C397 1.398 . S
C400 C401 1.380 . S
C400 H414 0.930 . S
C401 C399 1.387 . S
C401 C400 1.380 . S
C401 H415 0.930 . S
C402 O382 1.254 . S
C402 O383 1.268 . S
C403 O387 1.284 . S
C403 O390 1.250 . S
C404 Gd337 2.828 . S
C404 O386 1.258 . S
C404 O391 1.252 . S
C404 C405 1.497 1_554 S
C405 C404 1.497 1_556 S
C405 C406 1.395 . S
C405 C407 1.380 . S
C406 C405 1.395 . S
C406 C409 1.398 . S
C406 H416 0.930 . S
C407 C405 1.380 . S
C407 C408 1.391 . S
C407 H417 0.930 . S
C408 C407 1.391 . S
C408 C410 1.387 . S
C409 C406 1.398 . S
C409 C410 1.380 . S
C409 H418 0.930 . S
C410 C408 1.387 . S
C410 C409 1.380 . S
C410 H419 0.930 . S
C411 O388 1.254 . S
C411 O389 1.268 . S
H412 C397 0.930 . S
H413 C398 0.930 . S
H414 C400 0.930 . S
H415 C401 0.930 . S
H416 C406 0.930 . S
H417 C407 0.930 . S
H418 C409 0.930 . S
H419 C410 0.930 . S
Gd420 N451 2.661 . S
Gd420 N457 2.601 . S
Gd420 O464 2.545 . S
Gd420 O465 2.606 . S
Gd420 O467 2.429 . S
Gd420 O468 2.545 . S
Gd420 O469 2.412 . S
Gd420 O471 2.362 . S
Gd420 O472 2.324 . S
Gd420 C479 2.828 . S
Gd421 N430 2.661 . S
Gd421 N434 2.601 . S
Gd421 O465 2.362 . S
Gd421 O466 2.324 . S
Gd421 O470 2.545 . S
Gd421 O471 2.606 . S
Gd421 O473 2.429 . S
Gd421 O474 2.545 . S
Gd421 O475 2.412 . S
Gd421 C488 2.828 . S
C422 C425 1.417 . S
C422 C427 1.431 . S
C422 C428 1.412 . S
C423 C426 1.437 . S
C423 C427 1.317 . S
C423 H442 0.929 1_655 S
C424 C425 1.426 . S
C424 C426 1.413 . S
C424 N434 1.359 . S
C425 C422 1.417 . S
C425 C424 1.426 . S
C425 N430 1.350 . S
C426 C423 1.437 . S
C426 C424 1.413 . S
C426 C436 1.391 . S
C427 C422 1.431 . S
C427 C423 1.317 . S
C427 H438 0.930 . S
C428 C422 1.412 . S
C428 C429 1.355 . S
C428 H440 0.930 . S
C429 C428 1.355 . S
C429 C431 1.402 . S
C429 H441 0.930 . S
N430 Gd421 2.661 . S
N430 C425 1.350 . S
N430 C431 1.307 . S
C431 C429 1.402 . S
C431 N430 1.307 . S
C431 H432 0.930 . S
H432 C431 0.930 . S
C433 N434 1.334 . S
C433 C435 1.394 . S
C433 H437 0.930 . S
N434 Gd421 2.601 . S
N434 C424 1.359 . S
N434 C433 1.334 . S
C435 C433 1.394 . S
C435 C436 1.359 . S
C435 H447 0.930 . S
C436 C426 1.391 . S
C436 C435 1.359 . S
C436 H448 0.929 1_655 S
H437 C433 0.930 . S
H438 C427 0.930 . S
H439 C456 0.930 . S
H440 C428 0.930 . S
H441 C429 0.930 . S
H442 C423 0.929 1_455 S
H443 C461 0.930 . S
H444 C452 0.930 . S
H445 C453 0.930 . S
H446 C477 0.929 . S
H447 C435 0.930 . S
H448 C436 0.929 1_455 S
H449 C478 0.930 . S
H450 C459 0.930 . S
N451 Gd420 2.661 . S
N451 C455 1.350 . S
N451 C456 1.307 . S
C452 H444 0.930 . S
C452 C453 1.355 . S
C452 C454 1.412 . S
C453 H445 0.930 . S
C453 C452 1.355 . S
C453 C456 1.402 . S
C454 C452 1.412 . S
C454 C455 1.417 . S
C454 C478 1.431 . S
C455 N451 1.350 . S
C455 C454 1.417 . S
C455 C458 1.426 . S
C456 H439 0.930 . S
C456 N451 1.307 . S
C456 C453 1.402 . S
N457 Gd420 2.601 . S
N457 C458 1.359 . S
N457 C461 1.334 . S
C458 C455 1.426 . S
C458 N457 1.359 . S
C458 C462 1.413 . S
C459 H450 0.930 . S
C459 C460 1.359 . S
C459 C461 1.394 . S
C460 C459 1.359 . S
C460 C462 1.391 . S
C460 H463 0.929 . S
C461 H443 0.930 . S
C461 N457 1.334 . S
C461 C459 1.394 . S
C462 C458 1.413 . S
C462 C460 1.391 . S
C462 C477 1.437 . S
H463 C460 0.929 . S
O464 Gd420 2.545 . S
O464 C479 1.258 . S
O465 Gd420 2.606 . S
O465 Gd421 2.362 . S
O465 C476 1.284 . S
O466 Gd421 2.324 . S
O466 C486 1.254 . S
O467 Gd420 2.429 . S
O467 C486 1.268 . S
O468 Gd420 2.545 . S
O468 C476 1.250 . S
O469 Gd420 2.412 . S
O469 C479 1.252 . S
O470 Gd421 2.545 . S
O470 C488 1.258 . S
O471 Gd420 2.362 . S
O471 Gd421 2.606 . S
O471 C487 1.284 . S
O472 Gd420 2.324 . S
O472 C495 1.254 . S
O473 Gd421 2.429 . S
O473 C495 1.268 . S
O474 Gd421 2.545 . S
O474 C487 1.250 . S
O475 Gd421 2.412 . S
O475 C488 1.252 . S
C476 O465 1.284 . S
C476 O468 1.250 . S
C477 H446 0.929 . S
C477 C462 1.437 . S
C477 C478 1.317 . S
C478 H449 0.930 . S
C478 C454 1.431 . S
C478 C477 1.317 . S
C479 Gd420 2.828 . S
C479 O464 1.258 . S
C479 O469 1.252 . S
C479 C480 1.497 . S
C480 C479 1.497 . S
C480 C481 1.395 . S
C480 C482 1.380 . S
C481 C480 1.395 . S
C481 C484 1.398 . S
C481 H496 0.930 . S
C482 C480 1.380 . S
C482 C483 1.391 . S
C482 H497 0.930 . S
C483 C482 1.391 . S
C483 C485 1.387 . S
C484 C481 1.398 . S
C484 C485 1.380 . S
C484 H498 0.930 . S
C485 C483 1.387 . S
C485 C484 1.380 . S
C485 H499 0.930 . S
C486 O466 1.254 . S
C486 O467 1.268 . S
C487 O471 1.284 . S
C487 O474 1.250 . S
C488 Gd421 2.828 . S
C488 O470 1.258 . S
C488 O475 1.252 . S
C488 C489 1.497 1_556 S
C489 C488 1.497 1_554 S
C489 C490 1.395 . S
C489 C491 1.380 . S
C490 C489 1.395 . S
C490 C493 1.398 . S
C490 H500 0.930 . S
C491 C489 1.380 . S
C491 C492 1.391 . S
C491 H501 0.930 . S
C492 C491 1.391 . S
C492 C494 1.387 . S
C493 C490 1.398 . S
C493 C494 1.380 . S
C493 H502 0.930 . S
C494 C492 1.387 . S
C494 C493 1.380 . S
C494 H503 0.930 . S
C495 O472 1.254 . S
C495 O473 1.268 . S
H496 C481 0.930 . S
H497 C482 0.930 . S
H498 C484 0.930 . S
H499 C485 0.930 . S
H500 C490 0.930 . S
H501 C491 0.930 . S
H502 C493 0.930 . S
H503 C494 0.930 . S
Gd504 N535 2.661 . S
Gd504 N541 2.601 . S
Gd504 O548 2.545 . S
Gd504 O549 2.606 . S
Gd504 O551 2.429 . S
Gd504 O552 2.545 . S
Gd504 O553 2.412 . S
Gd504 O555 2.362 1_554 S
Gd504 O556 2.324 . S
Gd504 C563 2.828 . S
Gd505 N514 2.661 . S
Gd505 N518 2.601 . S
Gd505 O549 2.362 1_556 S
Gd505 O550 2.324 . S
Gd505 O554 2.545 . S
Gd505 O555 2.606 . S
Gd505 O557 2.429 . S
Gd505 O558 2.545 . S
Gd505 O559 2.412 . S
Gd505 C572 2.828 . S
C506 C509 1.417 . S
C506 C511 1.431 . S
C506 C512 1.412 . S
C507 C510 1.437 . S
C507 C511 1.317 . S
C507 H526 0.929 . S
C508 C509 1.426 . S
C508 C510 1.413 . S
C508 N518 1.359 . S
C509 C506 1.417 . S
C509 C508 1.426 . S
C509 N514 1.350 . S
C510 C507 1.437 . S
C510 C508 1.413 . S
C510 C520 1.391 . S
C511 C506 1.431 . S
C511 C507 1.317 . S
C511 H522 0.930 . S
C512 C506 1.412 . S
C512 C513 1.355 . S
C512 H524 0.930 . S
C513 C512 1.355 . S
C513 C515 1.402 . S
C513 H525 0.930 . S
N514 Gd505 2.661 . S
N514 C509 1.350 . S
N514 C515 1.307 . S
C515 C513 1.402 . S
C515 N514 1.307 . S
C515 H516 0.930 . S
H516 C515 0.930 . S
C517 N518 1.334 . S
C517 C519 1.394 . S
C517 H521 0.930 . S
N518 Gd505 2.601 . S
N518 C508 1.359 . S
N518 C517 1.334 . S
C519 C517 1.394 . S
C519 C520 1.359 . S
C519 H531 0.930 . S
C520 C510 1.391 . S
C520 C519 1.359 . S
C520 H532 0.929 . S
H521 C517 0.930 . S
H522 C511 0.930 . S
H523 C540 0.930 . S
H524 C512 0.930 . S
H525 C513 0.930 . S
H526 C507 0.929 . S
H527 C545 0.930 . S
H528 C536 0.930 . S
H529 C537 0.930 . S
H530 C561 0.929 . S
H531 C519 0.930 . S
H532 C520 0.929 . S
H533 C562 0.930 . S
H534 C543 0.930 . S
N535 Gd504 2.661 . S
N535 C539 1.350 . S
N535 C540 1.307 . S
C536 H528 0.930 . S
C536 C537 1.355 . S
C536 C538 1.412 . S
C537 H529 0.930 . S
C537 C536 1.355 . S
C537 C540 1.402 . S
C538 C536 1.412 . S
C538 C539 1.417 . S
C538 C562 1.431 . S
C539 N535 1.350 . S
C539 C538 1.417 . S
C539 C542 1.426 . S
C540 H523 0.930 . S
C540 N535 1.307 . S
C540 C537 1.402 . S
N541 Gd504 2.601 . S
N541 C542 1.359 . S
N541 C545 1.334 . S
C542 C539 1.426 . S
C542 N541 1.359 . S
C542 C546 1.413 . S
C543 H534 0.930 . S
C543 C544 1.359 . S
C543 C545 1.394 . S
C544 C543 1.359 . S
C544 C546 1.391 . S
C544 H547 0.929 . S
C545 H527 0.930 . S
C545 N541 1.334 . S
C545 C543 1.394 . S
C546 C542 1.413 . S
C546 C544 1.391 . S
C546 C561 1.437 . S
H547 C544 0.929 . S
O548 Gd504 2.545 . S
O548 C563 1.258 . S
O549 Gd504 2.606 . S
O549 Gd505 2.362 1_554 S
O549 C560 1.284 . S
O550 Gd505 2.324 . S
O550 C570 1.254 . S
O551 Gd504 2.429 . S
O551 C570 1.268 1_554 S
O552 Gd504 2.545 . S
O552 C560 1.250 . S
O553 Gd504 2.412 . S
O553 C563 1.252 . S
O554 Gd505 2.545 . S
O554 C572 1.258 . S
O555 Gd504 2.362 1_556 S
O555 Gd505 2.606 . S
O555 C571 1.284 . S
O556 Gd504 2.324 . S
O556 C579 1.254 . S
O557 Gd505 2.429 . S
O557 C579 1.268 1_556 S
O558 Gd505 2.545 . S
O558 C571 1.250 . S
O559 Gd505 2.412 . S
O559 C572 1.252 . S
C560 O549 1.284 . S
C560 O552 1.250 . S
C561 H530 0.929 . S
C561 C546 1.437 . S
C561 C562 1.317 . S
C562 H533 0.930 . S
C562 C538 1.431 . S
C562 C561 1.317 . S
C563 Gd504 2.828 . S
C563 O548 1.258 . S
C563 O553 1.252 . S
C563 C564 1.497 . S
C564 C563 1.497 . S
C564 C565 1.395 . S
C564 C566 1.380 . S
C565 C564 1.395 . S
C565 C568 1.398 . S
C565 H580 0.930 . S
C566 C564 1.380 . S
C566 C567 1.391 . S
C566 H581 0.930 . S
C567 C566 1.391 . S
C567 C569 1.387 . S
C568 C565 1.398 . S
C568 C569 1.380 . S
C568 H582 0.930 . S
C569 C567 1.387 . S
C569 C568 1.380 . S
C569 H583 0.930 . S
C570 O550 1.254 . S
C570 O551 1.268 1_556 S
C571 O555 1.284 . S
C571 O558 1.250 . S
C572 Gd505 2.828 . S
C572 O554 1.258 . S
C572 O559 1.252 . S
C572 C573 1.497 . S
C573 C572 1.497 . S
C573 C574 1.395 . S
C573 C575 1.380 . S
C574 C573 1.395 . S
C574 C577 1.398 . S
C574 H584 0.930 . S
C575 C573 1.380 . S
C575 C576 1.391 . S
C575 H585 0.930 . S
C576 C575 1.391 . S
C576 C578 1.387 . S
C577 C574 1.398 . S
C577 C578 1.380 . S
C577 H586 0.930 . S
C578 C576 1.387 . S
C578 C577 1.380 . S
C578 H587 0.930 . S
C579 O556 1.254 . S
C579 O557 1.268 1_554 S
H580 C565 0.930 . S
H581 C566 0.930 . S
H582 C568 0.930 . S
H583 C569 0.930 . S
H584 C574 0.930 . S
H585 C575 0.930 . S
H586 C577 0.930 . S
H587 C578 0.930 . S
Gd588 N619 2.653 1_455 S
Gd588 N625 2.601 1_455 S
Gd588 O632 2.549 . S
Gd588 O633 2.609 . S
Gd588 O635 2.435 . S
Gd588 O636 2.550 . S
Gd588 O637 2.410 1_455 S
Gd588 O639 2.359 1_455 S
Gd588 O640 2.318 1_455 S
Gd588 C647 2.830 . S
Gd589 N598 2.658 1_655 S
Gd589 N602 2.601 1_655 S
Gd589 O633 2.361 1_655 S
Gd589 O634 2.322 1_655 S
Gd589 O638 2.546 . S
Gd589 O639 2.607 . S
Gd589 O641 2.431 . S
Gd589 O642 2.546 . S
Gd589 O643 2.412 1_655 S
Gd589 C656 2.829 . S
C590 C593 1.417 . S
C590 C595 1.431 . S
C590 C596 1.412 . S
C591 C594 1.437 . S
C591 C595 1.317 . S
C591 H610 0.929 . S
C592 C593 1.426 . S
C592 C594 1.413 . S
C592 N602 1.359 . S
C593 C590 1.417 . S
C593 C592 1.426 . S
C593 N598 1.350 . S
C594 C591 1.437 . S
C594 C592 1.413 . S
C594 C604 1.391 . S
C595 C590 1.431 . S
C595 C591 1.317 . S
C595 H606 0.930 . S
C596 C590 1.412 . S
C596 C597 1.355 . S
C596 H608 0.930 . S
C597 C596 1.355 . S
C597 C599 1.402 . S
C597 H609 0.930 . S
N598 Gd589 2.658 1_455 S
N598 C593 1.350 . S
N598 C599 1.307 . S
C599 C597 1.402 . S
C599 N598 1.307 . S
C599 H600 0.930 . S
H600 C599 0.930 . S
C601 N602 1.334 1_655 S
C601 C603 1.394 . S
C601 H605 0.930 . S
N602 Gd589 2.601 1_455 S
N602 C592 1.359 . S
N602 C601 1.334 1_455 S
C603 C601 1.394 . S
C603 C604 1.359 1_655 S
C603 H615 0.930 . S
C604 C594 1.391 . S
C604 C603 1.359 1_455 S
C604 H616 0.929 . S
H605 C601 0.930 . S
H606 C595 0.930 . S
H607 C624 0.930 . S
H608 C596 0.930 . S
H609 C597 0.930 . S
H610 C591 0.929 . S
H611 C629 0.930 . S
H612 C620 0.930 . S
H613 C621 0.930 . S
H614 C645 0.929 . S
H615 C603 0.930 . S
H616 C604 0.929 . S
H617 C646 0.930 . S
H618 C627 0.930 . S
N619 Gd588 2.653 1_655 S
N619 C623 1.350 . S
N619 C624 1.307 . S
C620 H612 0.930 . S
C620 C621 1.355 . S
C620 C622 1.412 . S
C621 H613 0.930 . S
C621 C620 1.355 . S
C621 C624 1.402 . S
C622 C620 1.412 . S
C622 C623 1.417 . S
C622 C646 1.431 . S
C623 N619 1.350 . S
C623 C622 1.417 . S
C623 C626 1.426 . S
C624 H607 0.930 . S
C624 N619 1.307 . S
C624 C621 1.402 . S
N625 Gd588 2.601 1_655 S
N625 C626 1.359 . S
N625 C629 1.334 1_655 S
C626 C623 1.426 . S
C626 N625 1.359 . S
C626 C630 1.413 . S
C627 H618 0.930 . S
C627 C628 1.359 1_455 S
C627 C629 1.394 . S
C628 C627 1.359 1_655 S
C628 C630 1.391 . S
C628 H631 0.929 . S
C629 H611 0.930 . S
C629 N625 1.334 1_455 S
C629 C627 1.394 . S
C630 C626 1.413 . S
C630 C628 1.391 . S
C630 C645 1.437 . S
H631 C628 0.929 . S
O632 Gd588 2.549 . S
O632 C647 1.258 . S
O633 Gd588 2.609 . S
O633 Gd589 2.361 1_455 S
O633 C644 1.284 . S
O634 Gd589 2.322 1_455 S
O634 C654 1.254 . S
O635 Gd588 2.435 . S
O635 C654 1.268 . S
O636 Gd588 2.550 . S
O636 C644 1.250 . S
O637 Gd588 2.410 1_655 S
O637 C647 1.252 1_655 S
O638 Gd589 2.546 . S
O638 C656 1.258 . S
O639 Gd588 2.359 1_655 S
O639 Gd589 2.607 . S
O639 C655 1.284 . S
O640 Gd588 2.318 1_655 S
O640 C663 1.254 . S
O641 Gd589 2.431 . S
O641 C663 1.268 . S
O642 Gd589 2.546 . S
O642 C655 1.250 . S
O643 Gd589 2.412 1_455 S
O643 C656 1.252 1_455 S
C644 O633 1.284 . S
C644 O636 1.250 . S
C645 H614 0.929 . S
C645 C630 1.437 . S
C645 C646 1.317 . S
C646 H617 0.930 . S
C646 C622 1.431 . S
C646 C645 1.317 . S
C647 Gd588 2.830 . S
C647 O632 1.258 . S
C647 O637 1.252 1_455 S
C647 C648 1.497 . S
C648 C647 1.497 . S
C648 C649 1.395 . S
C648 C650 1.380 . S
C649 C648 1.395 . S
C649 C652 1.398 . S
C649 H664 0.930 . S
C650 C648 1.380 . S
C650 C651 1.391 . S
C650 H665 0.930 1_455 S
C651 C650 1.391 . S
C651 C653 1.387 . S
C652 C649 1.398 . S
C652 C653 1.380 . S
C652 H666 0.930 . S
C653 C651 1.387 . S
C653 C652 1.380 . S
C653 H667 0.930 . S
C654 O634 1.254 . S
C654 O635 1.268 . S
C655 O639 1.284 . S
C655 O642 1.250 . S
C656 Gd589 2.829 . S
C656 O638 1.258 . S
C656 O643 1.252 1_655 S
C656 C657 1.497 . S
C657 C656 1.497 . S
C657 C658 1.395 . S
C657 C659 1.380 . S
C658 C657 1.395 . S
C658 C661 1.398 . S
C658 H668 0.930 . S
C659 C657 1.380 . S
C659 C660 1.391 . S
C659 H669 0.930 1_655 S
C660 C659 1.391 . S
C660 C662 1.387 . S
C661 C658 1.398 . S
C661 C662 1.380 . S
C661 H670 0.930 . S
C662 C660 1.387 . S
C662 C661 1.380 . S
C662 H671 0.930 . S
C663 O640 1.254 . S
C663 O641 1.268 . S
H664 C649 0.930 . S
H665 C650 0.930 1_655 S
H666 C652 0.930 . S
H667 C653 0.930 . S
H668 C658 0.930 . S
H669 C659 0.930 1_455 S
H670 C661 0.930 . S
H671 C662 0.930 . S
C672 C673 1.369 . S
C672 C674 1.419 . S
C672 H676 0.930 . S
C673 C672 1.369 . S
C673 C682 1.429 . S
C674 C672 1.419 . S
C674 C675 1.363 . S
C674 H677 0.929 . S
C675 C674 1.363 . S
C675 C681 1.428 . S
H676 C672 0.930 . S
H677 C674 0.929 . S
S678 N679 1.613 . S
S678 N680 1.610 . S
N679 S678 1.613 . S
N679 C682 1.350 . S
N680 S678 1.610 . S
N680 C681 1.351 . S
C681 C675 1.428 . S
C681 N680 1.351 . S
C681 C682 1.434 . S
C682 C673 1.429 . S
C682 N679 1.350 . S
C682 C681 1.434 . S
C683 C684 1.369 . S
C683 C685 1.419 . S
C683 H687 0.930 . S
C684 C683 1.369 . S
C684 C693 1.429 . S
C685 C683 1.419 . S
C685 C686 1.363 . S
C685 H688 0.929 . S
C686 C685 1.363 . S
C686 C692 1.428 . S
H687 C683 0.930 . S
H688 C685 0.929 . S
S689 N690 1.613 . S
S689 N691 1.610 . S
N690 S689 1.613 . S
N690 C693 1.350 . S
N691 S689 1.610 . S
N691 C692 1.351 . S
C692 C686 1.428 . S
C692 N691 1.351 . S
C692 C693 1.434 . S
C693 C684 1.429 . S
C693 N690 1.350 . S
C693 C692 1.434 . S
C694 C695 1.369 . S
C694 C696 1.419 . S
C694 H698 0.930 . S
C695 C694 1.369 . S
C695 C704 1.429 . S
C696 C694 1.419 . S
C696 C697 1.363 . S
C696 H699 0.929 . S
C697 C696 1.363 . S
C697 C703 1.428 . S
H698 C694 0.930 . S
H699 C696 0.929 . S
S700 N701 1.613 . S
S700 N702 1.610 . S
N701 S700 1.613 . S
N701 C704 1.350 . S
N702 S700 1.610 . S
N702 C703 1.351 . S
C703 C697 1.428 . S
C703 N702 1.351 . S
C703 C704 1.434 . S
C704 C695 1.429 . S
C704 N701 1.350 . S
C704 C703 1.434 . S
C705 C706 1.369 . S
C705 C707 1.419 . S
C705 H709 0.930 . S
C706 C705 1.369 . S
C706 C715 1.429 . S
C707 C705 1.419 . S
C707 C708 1.363 . S
C707 H710 0.929 . S
C708 C707 1.363 . S
C708 C714 1.428 . S
H709 C705 0.930 . S
H710 C707 0.929 . S
S711 N712 1.613 1_556 S
S711 N713 1.610 1_556 S
N712 S711 1.613 1_554 S
N712 C715 1.350 . S
N713 S711 1.610 1_554 S
N713 C714 1.351 . S
C714 C708 1.428 . S
C714 N713 1.351 . S
C714 C715 1.434 . S
C715 C706 1.429 . S
C715 N712 1.350 . S
C715 C714 1.434 . S
C716 C717 1.369 . S
C716 C718 1.419 . S
C716 H720 0.930 . S
C717 C716 1.369 . S
C717 C726 1.429 . S
C718 C716 1.419 . S
C718 C719 1.363 . S
C718 H721 0.929 . S
C719 C718 1.363 . S
C719 C725 1.428 . S
H720 C716 0.930 . S
H721 C718 0.929 . S
S722 N723 1.613 . S
S722 N724 1.610 . S
N723 S722 1.613 . S
N723 C726 1.350 . S
N724 S722 1.610 . S
N724 C725 1.351 . S
C725 C719 1.428 . S
C725 N724 1.351 . S
C725 C726 1.434 . S
C726 C717 1.429 . S
C726 N723 1.350 . S
C726 C725 1.434 . S
C727 C728 1.369 . S
C727 C729 1.419 . S
C727 H731 0.930 . S
C728 C727 1.369 . S
C728 C737 1.429 . S
C729 C727 1.419 . S
C729 C730 1.363 . S
C729 H732 0.929 . S
C730 C729 1.363 . S
C730 C736 1.428 . S
H731 C727 0.930 . S
H732 C729 0.929 . S
S733 N734 1.613 . S
S733 N735 1.610 . S
N734 S733 1.613 . S
N734 C737 1.350 . S
N735 S733 1.610 . S
N735 C736 1.351 . S
C736 C730 1.428 . S
C736 N735 1.351 . S
C736 C737 1.434 . S
C737 C728 1.429 . S
C737 N734 1.350 . S
C737 C736 1.434 . S
C738 C739 1.369 . S
C738 C740 1.419 . S
C738 H742 0.930 . S
C739 C738 1.369 . S
C739 C748 1.429 . S
C740 C738 1.419 . S
C740 C741 1.363 . S
C740 H743 0.929 . S
C741 C740 1.363 . S
C741 C747 1.428 . S
H742 C738 0.930 . S
H743 C740 0.929 . S
S744 N745 1.613 . S
S744 N746 1.610 . S
N745 S744 1.613 . S
N745 C748 1.350 . S
N746 S744 1.610 . S
N746 C747 1.351 . S
C747 C741 1.428 . S
C747 N746 1.351 . S
C747 C748 1.434 . S
C748 C739 1.429 . S
C748 N745 1.350 . S
C748 C747 1.434 . S
C749 C750 1.369 . S
C749 C751 1.419 . S
C749 H753 0.930 . S
C750 C749 1.369 . S
C750 C759 1.429 . S
C751 C749 1.419 . S
C751 C752 1.363 . S
C751 H754 0.929 . S
C752 C751 1.363 . S
C752 C758 1.428 . S
H753 C749 0.930 . S
H754 C751 0.929 . S
S755 N756 1.613 . S
S755 N757 1.610 . S
N756 S755 1.613 . S
N756 C759 1.350 . S
N757 S755 1.610 . S
N757 C758 1.351 . S
C758 C752 1.428 . S
C758 N757 1.351 . S
C758 C759 1.434 . S
C759 C750 1.429 . S
C759 N756 1.350 . S
C759 C758 1.434 . S
C760 C761 1.369 . S
C760 C762 1.419 . S
C760 H764 0.930 . S
C761 C760 1.369 . S
C761 C770 1.429 . S
C762 C760 1.419 . S
C762 C763 1.363 . S
C762 H765 0.929 . S
C763 C762 1.363 . S
C763 C769 1.428 . S
H764 C760 0.930 . S
H765 C762 0.929 . S
S766 N767 1.613 . S
S766 N768 1.610 . S
N767 S766 1.613 . S
N767 C770 1.350 . S
N768 S766 1.610 . S
N768 C769 1.351 . S
C769 C763 1.428 . S
C769 N768 1.351 . S
C769 C770 1.434 . S
C770 C761 1.429 . S
C770 N767 1.350 . S
C770 C769 1.434 . S
C771 C772 1.369 . S
C771 C773 1.419 . S
C771 H775 0.930 . S
C772 C771 1.369 . S
C772 C781 1.429 . S
C773 C771 1.419 . S
C773 C774 1.363 . S
C773 H776 0.929 . S
C774 C773 1.363 . S
C774 C780 1.428 . S
H775 C771 0.930 . S
H776 C773 0.929 . S
S777 N778 1.613 . S
S777 N779 1.610 . S
N778 S777 1.613 . S
N778 C781 1.350 . S
N779 S777 1.610 . S
N779 C780 1.351 . S
C780 C774 1.428 . S
C780 N779 1.351 . S
C780 C781 1.434 . S
C781 C772 1.429 . S
C781 N778 1.350 . S
C781 C780 1.434 . S
C782 C783 1.369 . S
C782 C784 1.419 . S
C782 H786 0.930 . S
C783 C782 1.369 . S
C783 C792 1.429 . S
C784 C782 1.419 . S
C784 C785 1.363 . S
C784 H787 0.929 . S
C785 C784 1.363 . S
C785 C791 1.428 . S
H786 C782 0.930 . S
H787 C784 0.929 . S
S788 N789 1.613 . S
S788 N790 1.610 . S
N789 S788 1.613 . S
N789 C792 1.350 . S
N790 S788 1.610 . S
N790 C791 1.351 . S
C791 C785 1.428 . S
C791 N790 1.351 . S
C791 C792 1.434 . S
C792 C783 1.429 . S
C792 N789 1.350 . S
C792 C791 1.434 . S
C793 C794 1.369 . S
C793 C795 1.419 . S
C793 H797 0.930 . S
C794 C793 1.369 . S
C794 C803 1.429 . S
C795 C793 1.419 . S
C795 C796 1.363 . S
C795 H798 0.929 . S
C796 C795 1.363 . S
C796 C802 1.428 . S
H797 C793 0.930 . S
H798 C795 0.929 . S
S799 N800 1.613 . S
S799 N801 1.610 . S
N800 S799 1.613 . S
N800 C803 1.350 . S
N801 S799 1.610 . S
N801 C802 1.351 . S
C802 C796 1.428 . S
C802 N801 1.351 . S
C802 C803 1.434 . S
C803 C794 1.429 . S
C803 N800 1.350 . S
C803 C802 1.434 . S
C804 C805 1.369 . S
C804 C806 1.419 . S
C804 H808 0.930 . S
C805 C804 1.369 . S
C805 C814 1.429 . S
C806 C804 1.419 . S
C806 C807 1.363 . S
C806 H809 0.929 . S
C807 C806 1.363 . S
C807 C813 1.428 . S
H808 C804 0.930 . S
H809 C806 0.929 . S
S810 N811 1.613 . S
S810 N812 1.610 . S
N811 S810 1.613 . S
N811 C814 1.350 . S
N812 S810 1.610 . S
N812 C813 1.351 . S
C813 C807 1.428 . S
C813 N812 1.351 . S
C813 C814 1.434 . S
C814 C805 1.429 . S
C814 N811 1.350 . S
C814 C813 1.434 . S
C815 C816 1.369 . S
C815 C817 1.419 . S
C815 H819 0.930 . S
C816 C815 1.369 . S
C816 C825 1.429 . S
C817 C815 1.419 . S
C817 C818 1.363 . S
C817 H820 0.929 . S
C818 C817 1.363 . S
C818 C824 1.428 . S
H819 C815 0.930 . S
H820 C817 0.929 . S
S821 N822 1.613 . S
S821 N823 1.610 . S
N822 S821 1.613 . S
N822 C825 1.350 . S
N823 S821 1.610 . S
N823 C824 1.351 . S
C824 C818 1.428 . S
C824 N823 1.351 . S
C824 C825 1.434 . S
C825 C816 1.429 . S
C825 N822 1.350 . S
C825 C824 1.434 . S
C826 C827 1.369 . S
C826 C828 1.419 . S
C826 H830 0.930 . S
C827 C826 1.369 . S
C827 C836 1.429 . S
C828 C826 1.419 . S
C828 C829 1.363 . S
C828 H831 0.929 . S
C829 C828 1.363 . S
C829 C835 1.428 . S
H830 C826 0.930 . S
H831 C828 0.929 . S
S832 N833 1.613 . S
S832 N834 1.610 . S
N833 S832 1.613 . S
N833 C836 1.350 . S
N834 S832 1.610 . S
N834 C835 1.351 . S
C835 C829 1.428 . S
C835 N834 1.351 . S
C835 C836 1.434 . S
C836 C827 1.429 . S
C836 N833 1.350 . S
C836 C835 1.434 . S
C837 C838 1.369 . S
C837 C839 1.419 . S
C837 H841 0.930 . S
C838 C837 1.369 . S
C838 C847 1.429 . S
C839 C837 1.419 . S
C839 C840 1.363 . S
C839 H842 0.929 . S
C840 C839 1.363 . S
C840 C846 1.428 . S
H841 C837 0.930 . S
H842 C839 0.929 . S
S843 N844 1.613 . S
S843 N845 1.610 . S
N844 S843 1.613 . S
N844 C847 1.350 . S
N845 S843 1.610 . S
N845 C846 1.351 . S
C846 C840 1.428 . S
C846 N845 1.351 . S
C846 C847 1.434 . S
C847 C838 1.429 . S
C847 N844 1.350 . S
C847 C846 1.434 . S
C848 C849 1.369 1_465 S
C848 C850 1.419 1_556 S
C848 H852 0.930 . S
C849 C848 1.369 1_645 S
C849 C858 1.429 . S
C850 C848 1.419 1_554 S
C850 C851 1.363 . S
C850 H853 0.929 . S
C851 C850 1.363 . S
C851 C857 1.428 1_465 S
H852 C848 0.930 . S
H853 C850 0.929 . S
S854 N855 1.613 1_554 S
S854 N856 1.610 . S
N855 S854 1.613 1_556 S
N855 C858 1.350 . S
N856 S854 1.610 . S
N856 C857 1.351 . S
C857 C851 1.428 1_645 S
C857 N856 1.351 . S
C857 C858 1.434 1_554 S
C858 C849 1.429 . S
C858 N855 1.350 . S
C858 C857 1.434 1_556 S
C859 C860 1.369 . S
C859 C861 1.419 . S
C859 H863 0.930 . S
C860 C859 1.369 . S
C860 C869 1.429 . S
C861 C859 1.419 . S
C861 C862 1.363 . S
C861 H864 0.929 . S
C862 C861 1.363 . S
C862 C868 1.428 . S
H863 C859 0.930 . S
H864 C861 0.929 . S
S865 N866 1.613 . S
S865 N867 1.610 . S
N866 S865 1.613 . S
N866 C869 1.350 . S
N867 S865 1.610 . S
N867 C868 1.351 . S
C868 C862 1.428 . S
C868 N867 1.351 . S
C868 C869 1.434 . S
C869 C860 1.429 . S
C869 N866 1.350 . S
C869 C868 1.434 . S
C870 C871 1.369 1_565 S
C870 C872 1.419 . S
C870 H874 0.930 . S
C871 C870 1.369 1_545 S
C871 C880 1.429 . S
C872 C870 1.419 . S
C872 C873 1.363 . S
C872 H875 0.929 . S
C873 C872 1.363 . S
C873 C879 1.428 1_565 S
H874 C870 0.930 . S
H875 C872 0.929 . S
S876 N877 1.613 . S
S876 N878 1.610 . S
N877 S876 1.613 . S
N877 C880 1.350 . S
N878 S876 1.610 . S
N878 C879 1.351 . S
C879 C873 1.428 1_545 S
C879 N878 1.351 . S
C879 C880 1.434 . S
C880 C871 1.429 . S
C880 N877 1.350 . S
C880 C879 1.434 . S
C881 C882 1.369 . S
C881 C883 1.419 . S
C881 H885 0.930 . S
C882 C881 1.369 . S
C882 C891 1.429 . S
C883 C881 1.419 . S
C883 C884 1.363 . S
C883 H886 0.929 . S
C884 C883 1.363 . S
C884 C890 1.428 . S
H885 C881 0.930 . S
H886 C883 0.929 . S
S887 N888 1.613 . S
S887 N889 1.610 . S
N888 S887 1.613 . S
N888 C891 1.350 . S
N889 S887 1.610 . S
N889 C890 1.351 . S
C890 C884 1.428 . S
C890 N889 1.351 . S
C890 C891 1.434 . S
C891 C882 1.429 . S
C891 N888 1.350 . S
C891 C890 1.434 . S
C892 C893 1.369 . S
C892 C894 1.419 . S
C892 H896 0.930 . S
C893 C892 1.369 . S
C893 C902 1.429 . S
C894 C892 1.419 . S
C894 C895 1.363 . S
C894 H897 0.929 . S
C895 C894 1.363 . S
C895 C901 1.428 . S
H896 C892 0.930 . S
H897 C894 0.929 . S
S898 N899 1.613 . S
S898 N900 1.610 . S
N899 S898 1.613 . S
N899 C902 1.350 . S
N900 S898 1.610 . S
N900 C901 1.351 . S
C901 C895 1.428 . S
C901 N900 1.351 . S
C901 C902 1.434 . S
C902 C893 1.429 . S
C902 N899 1.350 . S
C902 C901 1.434 . S
C903 C904 1.369 . S
C903 C905 1.419 . S
C903 H907 0.930 . S
C904 C903 1.369 . S
C904 C913 1.429 . S
C905 C903 1.419 . S
C905 C906 1.363 . S
C905 H908 0.929 . S
C906 C905 1.363 . S
C906 C912 1.428 . S
H907 C903 0.930 . S
H908 C905 0.929 . S
S909 N910 1.613 . S
S909 N911 1.610 . S
N910 S909 1.613 . S
N910 C913 1.350 . S
N911 S909 1.610 . S
N911 C912 1.351 . S
C912 C906 1.428 . S
C912 N911 1.351 . S
C912 C913 1.434 . S
C913 C904 1.429 . S
C913 N910 1.350 . S
C913 C912 1.434 . S
C914 C915 1.369 . S
C914 C916 1.419 . S
C914 H918 0.930 . S
C915 C914 1.369 . S
C915 C924 1.429 . S
C916 C914 1.419 . S
C916 C917 1.363 . S
C916 H919 0.929 . S
C917 C916 1.363 . S
C917 C923 1.428 . S
H918 C914 0.930 . S
H919 C916 0.929 . S
S920 N921 1.613 . S
S920 N922 1.610 . S
N921 S920 1.613 . S
N921 C924 1.350 . S
N922 S920 1.610 . S
N922 C923 1.351 . S
C923 C917 1.428 . S
C923 N922 1.351 . S
C923 C924 1.434 . S
C924 C915 1.429 . S
C924 N921 1.350 . S
C924 C923 1.434 . S
C925 C926 1.369 1_455 S
C925 C927 1.419 1_556 S
C925 H929 0.930 . S
C926 C925 1.369 1_655 S
C926 C935 1.429 . S
C927 C925 1.419 1_554 S
C927 C928 1.363 . S
C927 H930 0.929 . S
C928 C927 1.363 . S
C928 C934 1.428 1_455 S
H929 C925 0.930 . S
H930 C927 0.929 . S
S931 N932 1.613 . S
S931 N933 1.610 1_556 S
N932 S931 1.613 . S
N932 C935 1.350 . S
N933 S931 1.610 1_554 S
N933 C934 1.351 . S
C934 C928 1.428 1_655 S
C934 N933 1.351 . S
C934 C935 1.434 1_554 S
C935 C926 1.429 . S
C935 N932 1.350 . S
C935 C934 1.434 1_556 S
C673 C67 1.568 . S
C675 C319 1.558 . S
C684 C75 1.476 . S
C686 C151 1.438 . S
C695 C159 1.344 . S
C697 C243 1.350 . S
C706 C235 1.438 . S
C708 C327 1.471 . S
C717 C56 1.568 . S
C719 C476 1.565 . S
C728 C66 1.476 . S
C730 C392 1.439 . S
C739 C402 1.345 . S
C741 C234 1.345 . S
C750 C486 1.476 . S
C752 C224 1.440 . S
C761 C571 1.565 . S
C763 C487 1.569 . S
C772 C403 1.430 . S
C774 C579 1.469 . S
C783 C663 1.347 . S
C785 C411 1.346 . S
C794 C495 1.472 . S
C796 C655 1.436 . S
C805 C308 1.569 . S
C807 C560 1.564 . S
C816 C570 1.472 . S
C818 C140 1.435 . S
C827 C150 1.341 . S
C829 C654 1.342 . S
C838 C318 1.476 . S
C840 C644 1.436 . S
C849 C63 1.371 . S
C851 C72 1.383 . S
C860 C156 1.358 . S
C862 C147 1.366 . S
C871 C231 1.355 . S
C873 C240 1.368 . S
C882 C315 1.376 . S
C884 C324 1.380 . S
C893 C408 1.366 . S
C895 C399 1.360 . S
C904 C483 1.375 . S
C906 C492 1.380 . S
C915 C576 1.384 . S
C917 C567 1.373 . S
C926 C660 1.369 . S
C928 C651 1.357 . S
