# Generated by pormake.
# Topology qzd, (4)-cn, num edge types: 1
# Building blocks:
#     Node 0, Type 0, BuildingBlock: ESEHIV_clean_sbu_0, # of connection points: 4
#     Node 1, Type 0, BuildingBlock: ESEHIV_clean_sbu_0, # of connection points: 4
#     Node 2, Type 0, BuildingBlock: ESEHIV_clean_sbu_0, # of connection points: 4
#     Edge 3, Type (0, 0), BuildingBlock: MIFKUJ_clean_linker_0, # of connection points: 2
#     Edge 4, Type (0, 0), BuildingBlock: MIFKUJ_clean_linker_0, # of connection points: 2
#     Edge 5, Type (0, 0), BuildingBlock: MIFKUJ_clean_linker_0, # of connection points: 2
#     Edge 6, Type (0, 0), BuildingBlock: MIFKUJ_clean_linker_0, # of connection points: 2
#     Edge 7, Type (0, 0), BuildingBlock: MIFKUJ_clean_linker_0, # of connection points: 2
#     Edge 8, Type (0, 0), BuildingBlock: MIFKUJ_clean_linker_0, # of connection points: 2
# Relax obj value: 0.000
# Max RMSD: 0.159
# Mean RMSD: 0.075
data_MOF--net-qzd--node1-ESEHIV_clean_sbu_0--edge1-MIFKUJ_clean_linker_0
_symmetry_space_group_name_H-M    P1
_symmetry_Int_Tables_number       1
_symmetry_cell_setting            triclinic
loop_
_symmetry_equiv_pos_as_xyz
'x, y, z'
_cell_length_a     19.250319
_cell_length_b     21.626794
_cell_length_c     59.786933
_cell_angle_alpha  99.696326
_cell_angle_beta   98.922272
_cell_angle_gamma 116.23287
loop_
_atom_site_label
_atom_site_type_symbol
_atom_site_fract_x
_atom_site_fract_y
_atom_site_fract_z
_atom_type_partial_charge
Cu0 Cu 0.2178 0.14933 0.037 0.0
N1 N 0.19877 0.09319 0.05835 0.0
N2 N 0.18227 0.06264 0.09195 0.0
C3 C 0.19187 0.11291 0.08016 0.0
C4 C 0.1832 1.00924 0.07677 0.0
C5 C 0.19375 0.02836 0.05618 0.0
O6 O 0.16112 0.20466 0.04142 0.0
C7 C 0.36653 0.16766 0.03457 0.0
O8 O 0.32079 0.09859 0.02508 0.0
H9 H 0.19595 0.16412 0.08735 0.0
H10 H 0.19869 0.99752 0.04088 0.0
N11 N 0.17623 0.09364 1.00559 0.0
N12 N 0.15682 0.06584 0.96653 0.0
C13 C 0.19323 0.11852 0.98682 0.0
C14 C 0.1268 1.0228 0.99686 0.0
C15 C 0.11498 1.00547 0.97279 0.0
C16 C 0.08491 0.16671 0.035 0.0
O17 O 0.05356 0.09714 0.02681 0.0
H18 H 0.23305 0.17405 0.98814 0.0
H19 H 0.10082 0.98626 0.0072 0.0
O20 O 0.33416 0.20455 0.04204 0.0
H21 H 0.17671 0.95963 0.08015 0.0
H22 H 0.07773 0.95269 0.96082 0.0
Cu23 Cu 0.05084 0.14266 0.36816 0.0
N24 N 0.08784 0.24088 0.37279 0.0
N25 N 0.16737 0.35506 0.37369 0.0
C26 C 0.15532 0.28709 0.36823 0.0
C27 C 0.10438 0.3507 0.38204 0.0
C28 C 0.05588 0.28057 0.38155 0.0
O29 O 0.0812 0.11124 0.34048 0.0
C30 C 0.06487 0.13887 0.41413 0.0
O31 O 1.01186 0.16133 0.41072 0.0
H32 H 0.19514 0.27072 0.36139 0.0
H33 H 1.00153 0.26022 0.38739 0.0
N34 N 0.93867 0.09163 0.3621 0.0
N35 N 0.81663 1.0039 0.3597 0.0
C36 C 0.89574 1.02455 0.36386 0.0
C37 C 0.88473 0.1139 0.35642 0.0
C38 C 0.80949 0.06002 0.35501 0.0
C39 C 0.04335 0.11208 0.32113 0.0
O40 O 0.98816 0.13205 0.32145 0.0
H41 H 0.92242 0.99241 0.3688 0.0
H42 H 0.89898 0.1657 0.35354 0.0
O43 O 0.09459 0.12741 0.39725 0.0
H44 H 0.09338 0.3947 0.38814 0.0
H45 H 0.75381 0.06186 0.35077 0.0
Cu46 Cu 0.03709 0.04371 0.6847 0.0
N47 N 0.97889 0.09326 0.68889 0.0
N48 N 0.94493 0.1802 0.69091 0.0
C49 C 0.98887 0.15255 0.68214 0.0
C50 C 0.90578 0.13663 0.70359 0.0
C51 C 0.92667 0.08301 0.70225 0.0
O52 O 0.0867 0.06555 0.65883 0.0
C53 C 0.13623 0.12359 0.73106 0.0
O54 O 0.12365 0.17544 0.72627 0.0
H55 H 0.03063 0.17701 0.67205 0.0
H56 H 0.9077 0.04109 0.71117 0.0
N57 N 0.96932 0.9446 0.67684 0.0
N58 N 0.92991 0.82842 0.67294 0.0
C59 C 0.98903 0.89618 0.68313 0.0
C60 C 0.89474 0.90605 0.66246 0.0
C61 C 0.87054 0.83431 0.65987 0.0
C62 C 0.03851 0.05393 0.63947 0.0
O63 O 0.96253 0.03129 0.63887 0.0
H64 H 0.04672 0.91025 0.69425 0.0
H65 H 0.86086 0.92838 0.65407 0.0
O66 O 0.11124 0.06659 0.7148 0.0
H67 H 0.86595 0.14374 0.71343 0.0
H68 H 0.81391 0.78989 0.64915 0.0
H69 H 0.1062 0.28649 0.06674 0.0
H70 H 1.00465 0.32544 0.07025 0.0
H71 H 0.83921 0.15437 0.00913 0.0
H72 H 0.93873 0.11524 1.00579 0.0
H73 H 0.83765 0.28217 0.00904 0.0
H74 H 0.83083 0.13218 0.0624 0.0
H75 H 0.89114 0.10483 0.0963 0.0
H76 H 0.93626 0.30247 0.14157 0.0
H77 H 0.87716 0.3314 0.10782 0.0
H78 H 0.43454 0.11914 1.00492 0.0
H79 H 0.57613 0.15918 0.0083 0.0
H80 H 0.63814 0.32635 0.0705 0.0
H81 H 0.49428 0.28614 0.06704 0.0
H82 H 0.71656 0.24505 0.07634 0.0
H83 H 0.68651 0.37558 0.02303 0.0
H84 H 0.62561 0.4 0.98849 0.0
H85 H 0.64872 0.23863 0.94261 0.0
H86 H 0.70858 0.21236 0.97683 0.0
C87 C 0.04857 0.25822 0.05389 0.0
C88 C 0.03017 0.19769 0.03606 0.0
C89 C 0.99058 0.28022 0.05595 0.0
C90 C 0.91417 0.24262 0.03997 0.0
C91 C 0.89765 0.18437 0.02161 0.0
C92 C 0.95458 0.16185 0.01979 0.0
C93 C 0.84841 0.25952 0.04269 0.0
C94 C 0.81141 0.27466 0.02382 0.0
C95 C 0.81567 0.25202 0.06233 0.0
C96 C 0.85072 0.23443 0.08257 0.0
C97 C 0.85428 0.17008 0.07955 0.0
C98 C 0.88811 0.15423 0.09873 0.0
C99 C 0.91782 0.20202 0.12106 0.0
C100 C 0.91347 0.26562 0.12426 0.0
C101 C 0.87984 0.28177 0.10511 0.0
C102 C 0.4781 0.1651 0.01918 0.0
C103 C 0.45324 0.19941 0.03575 0.0
C104 C 0.55926 0.18825 0.02101 0.0
C105 C 0.61804 0.24619 0.03953 0.0
C106 C 0.59379 0.28178 0.05598 0.0
C107 C 0.5118 0.25907 0.05393 0.0
C108 C 0.70363 0.26453 0.04214 0.0
C109 C 0.74423 0.25554 0.06194 0.0
C110 C 0.7396 0.27744 0.02328 0.0
C111 C 0.70216 0.29203 1.00256 0.0
C112 C 0.67806 0.34488 1.00558 0.0
C113 C 0.64382 0.35912 0.98605 0.0
C114 C 0.63362 0.32106 0.96338 0.0
C115 C 0.65699 0.26826 0.96019 0.0
C116 C 0.69121 0.25376 0.97965 0.0
H117 H 0.60783 0.33258 0.94828 0.0
H118 H 0.94398 0.18966 0.13589 0.0
H119 H 0.80714 0.8732 0.34835 0.0
H120 H 0.69899 0.75964 0.35027 0.0
H121 H 0.57538 0.86993 0.37576 0.0
H122 H 0.68301 0.98328 0.37381 0.0
H123 H 0.58687 0.77436 0.40169 0.0
H124 H 0.51061 0.77817 0.32109 0.0
H125 H 0.53147 0.78579 0.28177 0.0
H126 H 0.56389 0.59992 0.2738 0.0
H127 H 0.54443 0.59185 0.31325 0.0
H128 H 0.20518 0.49433 0.39147 0.0
H129 H 0.31726 0.60072 0.38834 0.0
H130 H 0.39787 0.47036 0.34924 0.0
H131 H 0.28315 0.3629 0.35106 0.0
H132 H 0.41546 0.57347 0.3305 0.0
H133 H 0.49015 0.56406 0.40902 0.0
H134 H 0.47567 0.55413 0.44871 0.0
H135 H 0.45582 0.74634 0.46158 0.0
H136 H 0.46909 0.75692 0.42183 0.0
C137 C 0.75703 0.87315 0.35443 0.0
C138 C 0.75338 0.93707 0.36085 0.0
C139 C 0.69516 0.80829 0.3554 0.0
C140 C 0.62902 0.80638 0.36305 0.0
C141 C 0.62581 0.87024 0.36976 0.0
C142 C 0.68701 0.93484 0.36848 0.0
C143 C 0.5631 0.738 0.36418 0.0
C144 C 0.54875 0.73063 0.38612 0.0
C145 C 0.51542 0.68011 0.34396 0.0
C146 C 0.52705 0.68495 0.32024 0.0
C147 C 0.523 0.73935 0.31106 0.0
C148 C 0.5344 0.74366 0.28872 0.0
C149 C 0.54927 0.69352 0.27533 0.0
C150 C 0.55255 0.63882 0.28422 0.0
C151 C 0.5413 0.63434 0.30655 0.0
C152 C 0.24579 0.48744 0.38199 0.0
C153 C 0.23426 0.41885 0.37171 0.0
C154 C 0.31093 0.54897 0.38047 0.0
C155 C 0.36743 0.54396 0.36904 0.0
C156 C 0.35563 0.47586 0.35836 0.0
C157 C 0.28987 0.41411 0.35963 0.0
C158 C 0.43809 0.60983 0.36806 0.0
C159 C 0.45362 0.61682 0.34616 0.0
C160 C 0.48788 0.667 0.38841 0.0
C161 C 0.47989 0.6609 0.41235 0.0
C162 C 0.48209 0.60392 0.42024 0.0
C163 C 0.4742 0.59822 0.44276 0.0
C164 C 0.46464 0.64948 0.45763 0.0
C165 C 0.46314 0.70664 0.45003 0.0
C166 C 0.47093 0.71255 0.42751 0.0
H167 H 0.45855 0.64498 0.47507 0.0
H168 H 0.55804 0.69692 0.25804 0.0
H169 H 0.87939 0.71074 0.63748 0.0
H170 H 0.8838 0.60074 0.63998 0.0
H171 H 0.98494 0.68776 0.715 0.0
H172 H 0.98505 0.79958 0.71207 0.0
H173 H 0.05538 0.62224 0.70113 0.0
H174 H 0.77659 0.55235 0.68616 0.0
H175 H 0.64606 0.53694 0.6658 0.0
H176 H 0.64745 0.40673 0.60332 0.0
H177 H 0.77857 0.42215 0.62322 0.0
H178 H 0.93959 0.27764 0.72448 0.0
H179 H 0.93919 0.38883 0.72081 0.0
H180 H 0.94733 0.34126 0.64861 0.0
H181 H 0.94966 0.23058 0.65239 0.0
H182 H 0.82114 0.38383 0.66089 0.0
H183 H 0.10567 0.45725 0.67951 0.0
H184 H 0.2296 0.46912 0.70344 0.0
H185 H 0.20661 0.59007 0.7639 0.0
H186 H 0.08178 0.57794 0.74039 0.0
C187 C 0.90228 0.70602 0.65447 0.0
C188 C 0.93146 0.7633 0.6746 0.0
C189 C 0.90435 0.64293 0.65596 0.0
C190 C 0.93292 0.63458 0.67779 0.0
C191 C 0.96246 0.69228 0.69792 0.0
C192 C 0.96242 0.75617 0.6963 0.0
C193 C 0.93347 0.56652 0.67956 0.0
C194 C 1.00351 0.57036 0.69253 0.0
C195 C 0.86645 0.49803 0.6682 0.0
C196 C 0.78782 0.48902 0.65612 0.0
C197 C 0.74938 0.5209 0.66802 0.0
C198 C 0.67522 0.51209 0.65657 0.0
C199 C 0.63857 0.47102 0.63326 0.0
C200 C 0.67596 0.43861 0.62137 0.0
C201 C 0.75017 0.44733 0.63273 0.0
C202 C 0.94105 0.29083 0.70782 0.0
C203 C 0.94448 0.24544 0.68869 0.0
C204 C 0.94113 0.3544 0.70578 0.0
C205 C 0.94319 0.37317 0.68445 0.0
C206 C 0.94569 0.32764 0.66521 0.0
C207 C 0.9474 0.26476 0.66741 0.0
C208 C 0.94257 0.44039 0.68231 0.0
C209 C 0.87259 0.4361 0.66936 0.0
C210 C 1.00866 0.50833 0.69416 0.0
C211 C 0.08393 0.51599 0.70825 0.0
C212 C 0.1266 0.48575 0.69796 0.0
C213 C 0.19711 0.49267 0.71144 0.0
C214 C 0.22584 0.53014 0.73519 0.0
C215 C 0.18423 0.56096 0.74551 0.0
C216 C 0.11364 0.55413 0.73211 0.0
H217 H 0.28045 0.53545 0.7456 0.0
H218 H 0.58111 0.46418 0.62444 0.0
H219 H 0.18435 0.12009 0.31347 0.0
H220 H 0.21682 0.10568 0.27531 0.0
H221 H 0.97671 0.05231 0.23991 0.0
H222 H 0.94437 0.06686 0.27761 0.0
H223 H 0.02774 0.96657 0.21674 0.0
H224 H 0.12341 0.21821 0.25122 0.0
H225 H 0.20382 0.33163 0.28233 0.0
H226 H 0.41997 0.3271 0.27491 0.0
H227 H 0.34064 0.21294 0.24401 0.0
H228 H 0.14228 0.1509 0.11872 0.0
H229 H 0.12849 0.15547 0.15875 0.0
H230 H 0.18856 0.98602 0.15972 0.0
H231 H 0.20466 0.98206 0.11995 0.0
H232 H 0.23518 0.18116 0.20098 0.0
H233 H 0.06574 0.87682 0.18924 0.0
H234 H 0.97703 0.76543 0.15781 0.0
H235 H 0.89555 0.88059 0.1186 0.0
H236 H 0.9829 0.99236 0.14991 0.0
C237 C 0.1383 0.1041 0.29749 0.0
C238 C 0.06198 0.09496 0.29852 0.0
C239 C 0.15697 0.09625 0.27574 0.0
C240 C 0.09928 0.07841 0.25477 0.0
C241 C 1.02213 0.06602 0.25582 0.0
C242 C 1.00387 0.07467 0.27742 0.0
C243 C 0.11925 0.07635 0.2317 0.0
C244 C 0.07385 1.01322 0.21339 0.0
C245 C 0.17831 0.1376 0.22717 0.0
C246 C 0.22606 0.20664 0.24551 0.0
C247 C 0.18805 0.24112 0.25636 0.0
C248 C 0.23342 0.30557 0.27393 0.0
C249 C 0.31694 0.33644 0.28065 0.0
C250 C 0.35526 0.30304 0.26973 0.0
C251 C 0.31013 0.23847 0.25219 0.0
C252 C 0.15377 0.11514 0.12743 0.0
C253 C 0.17449 0.06592 0.1158 0.0
C254 C 0.14571 0.11786 0.1504 0.0
C255 C 0.15723 0.07096 0.16222 0.0
C256 C 0.17872 1.02234 0.15087 0.0
C257 C 0.18738 1.01989 0.12797 0.0
C258 C 0.14389 0.07123 0.18607 0.0
C259 C 0.19029 0.13408 0.20447 0.0
C260 C 0.08494 1.01002 0.19064 0.0
C261 C 0.03162 0.94303 0.17179 0.0
C262 C 0.02875 0.87828 0.17393 0.0
C263 C 0.97871 0.81509 0.15614 0.0
C264 C 0.93093 0.81599 0.13618 0.0
C265 C 0.93286 0.88002 0.13401 0.0
C266 C 0.98271 0.94331 0.15176 0.0
H267 H 0.89226 0.76703 0.12242 0.0
H268 H 0.35196 0.38632 0.29427 0.0
H269 H 0.19075 0.10053 0.63241 0.0
H270 H 0.22797 0.11111 0.59504 0.0
H271 H 0.98129 0.03794 0.55996 0.0
H272 H 0.94409 0.02711 0.59656 0.0
H273 H 0.04416 0.96873 0.53535 0.0
H274 H 0.12324 0.21541 0.5764 0.0
H275 H 0.20348 0.32578 0.60877 0.0
H276 H 0.42047 0.33789 0.59458 0.0
H277 H 0.34135 0.22701 0.56227 0.0
H278 H 0.96974 0.10478 0.4437 0.0
H279 H 0.99924 0.0853 0.48213 0.0
H280 H 0.23308 0.1213 0.47552 0.0
H281 H 0.203 0.1398 0.43622 0.0
H282 H 0.21853 0.2015 0.52157 0.0
H283 H 0.13242 0.9685 0.47373 0.0
H284 H 0.04768 0.86135 0.44052 0.0
H285 H 0.84204 0.82423 0.46718 0.0
H286 H 0.92526 0.9318 0.50037 0.0
C287 C 0.1447 0.08684 0.61669 0.0
C288 C 0.06441 0.06286 0.61753 0.0
C289 C 0.16602 0.09294 0.59537 0.0
C290 C 0.1073 0.07499 0.57463 0.0
C291 C 0.02758 0.05146 0.57562 0.0
C292 C 1.00647 0.04562 0.59671 0.0
C293 C 0.12644 0.08044 0.55161 0.0
C294 C 0.08297 1.01952 0.53239 0.0
C295 C 0.17922 0.14607 0.54777 0.0
C296 C 0.2265 0.21247 0.56718 0.0
C297 C 0.18807 0.24127 0.58033 0.0
C298 C 0.23332 0.30398 0.59863 0.0
C299 C 0.31702 0.33867 0.60379 0.0
C300 C 0.35564 0.31084 0.59061 0.0
C301 C 0.31063 0.2481 0.57231 0.0
C302 C 0.02751 0.10842 0.45028 0.0
C303 C 0.08414 0.12396 0.43693 0.0
C304 C 0.04419 0.09715 0.47228 0.0
C305 C 0.11827 0.10192 0.48168 0.0
C306 C 0.17553 0.11748 0.46853 0.0
C307 C 0.15815 0.12758 0.4461 0.0
C308 C 0.1333 0.09049 0.50536 0.0
C309 C 0.18254 0.15013 0.52466 0.0
C310 C 0.08564 1.02369 0.50934 0.0
C311 C 0.03517 0.95845 0.48952 0.0
C312 C 0.06903 0.93778 0.47244 0.0
C313 C 1.02126 0.87691 0.45362 0.0
C314 C 0.93952 0.83604 0.45173 0.0
C315 C 0.90539 0.85591 0.46868 0.0
C316 C 0.95289 0.91677 0.48753 0.0
H317 H 0.90263 0.78894 0.43714 0.0
H318 H 0.35195 0.38723 0.61795 0.0
H319 H 0.15864 1.02143 0.74787 0.0
H320 H 0.17846 1.01444 0.78858 0.0
H321 H 0.19045 0.21989 0.81123 0.0
H322 H 0.1724 0.22806 0.77069 0.0
H323 H 0.29295 0.20433 0.84333 0.0
H324 H 1.01417 0.06498 0.79997 0.0
H325 H 0.90244 0.97258 0.76686 0.0
H326 H 0.95602 0.81195 0.78523 0.0
H327 H 0.06884 0.90366 0.81827 0.0
H328 H 0.17764 0.18007 0.94982 0.0
H329 H 0.1865 0.19135 0.91023 0.0
H330 H 0.15832 0.97859 0.89063 0.0
H331 H 0.14774 0.96667 0.93011 0.0
H332 H 0.07033 0.99541 0.85688 0.0
H333 H 0.34387 0.13416 0.9024 0.0
H334 H 0.45406 0.22695 0.93573 0.0
H335 H 0.41156 0.38885 0.91358 0.0
H336 H 0.30006 0.29681 0.88034 0.0
C337 C 0.16719 0.06587 0.76155 0.0
C338 C 0.16294 0.12495 0.75592 0.0
C339 C 0.17811 0.06161 0.78483 0.0
C340 C 0.18412 0.1159 0.80293 0.0
C341 C 0.18549 0.17713 0.79758 0.0
C342 C 0.17501 0.18164 0.77432 0.0
C343 C 0.18243 0.10655 0.827 0.0
C344 C 0.24407 0.15892 0.84632 0.0
C345 C 0.11934 0.04668 0.83093 0.0
C346 C 0.05035 0.99125 0.81144 0.0
C347 C 1.00232 1.01 0.79688 0.0
C348 C 0.93881 0.95777 0.77813 0.0
C349 C 0.92227 0.88647 0.77391 0.0
C350 C 0.96898 0.86722 0.7885 0.0
C351 C 0.03266 0.91928 0.80725 0.0
C352 C 0.17397 0.13594 0.93713 0.0
C353 C 0.16231 0.07258 0.94316 0.0
C354 C 0.17918 0.14244 0.91448 0.0
C355 C 0.1745 0.08629 0.89745 0.0
C356 C 0.16223 1.02275 0.9034 0.0
C357 C 0.15604 1.01591 0.92598 0.0
C358 C 0.18088 0.09328 0.87335 0.0
C359 C 0.11983 0.04052 0.85396 0.0
C360 C 0.24459 0.15278 0.8694 0.0
C361 C 0.31315 0.20848 0.88898 0.0
C362 C 0.35779 0.18951 0.90469 0.0
C363 C 0.42049 0.24199 0.92357 0.0
C364 C 0.43968 0.31376 0.9268 0.0
C365 C 0.39654 0.33323 0.91107 0.0
C366 C 0.33362 0.28093 0.89219 0.0
H367 H 0.48796 0.35432 0.94149 0.0
H368 H 0.87317 0.84612 0.75936 0.0
loop_
_geom_bond_atom_site_label_1
_geom_bond_atom_site_label_2
_geom_bond_distance
_geom_bond_site_symmetry_2
_ccdc_geom_bond_type
Cu0 N1 1.999 . S
Cu0 O6 1.974 1_455 S
Cu0 N11 1.985 1_554 S
Cu0 O20 1.959 . S
N1 Cu0 1.999 . S
N1 C3 1.263 1_455 S
N1 C5 1.389 . S
N2 C3 1.358 1_455 S
N2 C4 1.400 . S
C3 N1 1.263 1_655 S
C3 N2 1.358 1_655 S
C3 H9 0.930 1_545 S
C4 N2 1.400 . S
C4 C5 1.351 . S
C4 H21 0.930 . S
C5 N1 1.389 . S
C5 C4 1.351 . S
C5 H10 0.930 . S
O6 Cu0 1.974 1_655 S
O6 C16 1.282 1_545 S
C7 O8 1.261 . S
C7 O20 1.251 1_565 S
O8 C7 1.261 . S
H9 C3 0.930 1_565 S
H10 C5 0.930 . S
N11 Cu0 1.985 1_556 S
N11 C13 1.335 . S
N11 C14 1.390 1_445 S
N12 C13 1.345 . S
N12 C15 1.336 1_445 S
C13 N11 1.335 . S
C13 N12 1.345 . S
C13 H18 0.930 . S
C14 N11 1.390 1_665 S
C14 C15 1.346 . S
C14 H19 0.930 . S
C15 N12 1.336 1_665 S
C15 C14 1.346 . S
C15 H22 0.929 . S
C16 O6 1.282 1_565 S
C16 O17 1.216 . S
O17 C16 1.216 . S
H18 C13 0.930 . S
H19 C14 0.930 . S
O20 Cu0 1.959 . S
O20 C7 1.251 1_545 S
H21 C4 0.930 . S
H22 C15 0.929 . S
Cu23 N24 1.999 . S
Cu23 O29 1.974 . S
Cu23 N34 1.985 1_455 S
Cu23 O43 1.959 . S
N24 Cu23 1.999 . S
N24 C26 1.263 . S
N24 C28 1.389 . S
N25 C26 1.358 . S
N25 C27 1.400 . S
C26 N24 1.263 . S
C26 N25 1.358 . S
C26 H32 0.930 . S
C27 N25 1.400 . S
C27 C28 1.351 . S
C27 H44 0.930 . S
C28 N24 1.389 . S
C28 C27 1.351 . S
C28 H33 0.930 . S
O29 Cu23 1.974 . S
O29 C39 1.282 1_455 S
C30 O31 1.261 1_455 S
C30 O43 1.251 . S
O31 C30 1.261 1_655 S
H32 C26 0.930 . S
H33 C28 0.930 . S
N34 Cu23 1.985 1_655 S
N34 C36 1.335 1_545 S
N34 C37 1.390 1_545 S
N35 C36 1.345 . S
N35 C38 1.336 . S
C36 N34 1.335 1_565 S
C36 N35 1.345 . S
C36 H41 0.930 . S
C37 N34 1.390 1_565 S
C37 C38 1.346 . S
C37 H42 0.930 1_565 S
C38 N35 1.336 . S
C38 C37 1.346 . S
C38 H45 0.929 . S
C39 O29 1.282 1_655 S
C39 O40 1.216 . S
O40 C39 1.216 . S
H41 C36 0.930 . S
H42 C37 0.930 1_545 S
O43 Cu23 1.959 . S
O43 C30 1.251 . S
H44 C27 0.930 . S
H45 C38 0.929 . S
Cu46 N47 1.999 . S
Cu46 O52 1.974 . S
Cu46 N57 1.985 . S
Cu46 O66 1.959 . S
N47 Cu46 1.999 . S
N47 C49 1.263 . S
N47 C51 1.389 . S
N48 C49 1.358 . S
N48 C50 1.400 . S
C49 N47 1.263 . S
C49 N48 1.358 . S
C49 H55 0.930 . S
C50 N48 1.400 . S
C50 C51 1.351 . S
C50 H67 0.930 . S
C51 N47 1.389 . S
C51 C50 1.351 . S
C51 H56 0.930 . S
O52 Cu46 1.974 . S
O52 C62 1.282 . S
C53 O54 1.261 . S
C53 O66 1.251 . S
O54 C53 1.261 . S
H55 C49 0.930 . S
H56 C51 0.930 . S
N57 Cu46 1.985 . S
N57 C59 1.335 . S
N57 C60 1.397 . S
N58 C59 1.345 1_565 S
N58 C61 1.336 . S
C59 N57 1.335 . S
C59 N58 1.345 1_545 S
C59 H64 0.930 . S
C60 N57 1.397 . S
C60 C61 1.328 1_545 S
C60 H65 0.939 . S
C61 N58 1.336 . S
C61 C60 1.328 1_565 S
C61 H68 0.929 . S
C62 O52 1.282 . S
C62 O63 1.216 . S
O63 C62 1.216 . S
H64 C59 0.930 . S
H65 C60 0.939 . S
O66 Cu46 1.959 . S
O66 C53 1.251 . S
H67 C50 0.930 . S
H68 C61 0.929 . S
H69 C87 0.951 1_545 S
H70 C89 0.953 . S
H71 C91 0.950 . S
H72 C92 0.950 . S
H73 C94 0.991 . S
H74 C97 0.950 . S
H75 C98 0.950 . S
H76 C100 0.950 . S
H77 C101 0.950 . S
H78 C102 0.951 . S
H79 C104 0.951 . S
H80 C106 0.950 1_545 S
H81 C107 0.950 1_545 S
H82 C109 0.950 . S
H83 C112 0.950 . S
H84 C113 0.950 1_554 S
H85 C115 0.950 . S
H86 C116 0.950 . S
C87 H69 0.951 1_565 S
C87 C88 1.366 . S
C87 C89 1.388 . S
C88 C87 1.366 . S
C88 C92 1.385 1_554 S
C89 H70 0.953 . S
C89 C87 1.388 . S
C89 C90 1.366 . S
C90 C89 1.366 . S
C90 C91 1.414 1_554 S
C90 C93 1.499 . S
C91 H71 0.950 . S
C91 C90 1.414 1_556 S
C91 C92 1.374 . S
C92 H72 0.950 . S
C92 C88 1.385 1_556 S
C92 C91 1.374 . S
C93 C90 1.499 . S
C93 C94 1.344 1_564 S
C93 C95 1.389 . S
C94 H73 0.991 . S
C94 C93 1.344 1_546 S
C94 C110 1.368 1_556 S
C95 C93 1.389 . S
C95 C96 1.524 . S
C95 C109 1.377 . S
C96 C95 1.524 . S
C96 C97 1.397 . S
C96 C101 1.363 . S
C97 H74 0.950 . S
C97 C96 1.397 . S
C97 C98 1.334 . S
C98 H75 0.950 . S
C98 C97 1.334 . S
C98 C99 1.287 . S
C99 C98 1.287 . S
C99 C100 1.524 . S
C99 H118 0.913 . S
C100 H76 0.950 . S
C100 C99 1.524 . S
C100 C101 1.415 . S
C101 H77 0.950 . S
C101 C96 1.363 . S
C101 C100 1.415 . S
C102 H78 0.951 . S
C102 C103 1.366 1_556 S
C102 C104 1.388 . S
C103 C102 1.366 1_554 S
C103 C107 1.385 . S
C104 H79 0.951 . S
C104 C102 1.388 . S
C104 C105 1.366 1_556 S
C105 C104 1.366 1_554 S
C105 C106 1.414 . S
C105 C108 1.499 . S
C106 H80 0.950 1_565 S
C106 C105 1.414 . S
C106 C107 1.374 . S
C107 H81 0.950 1_565 S
C107 C103 1.385 . S
C107 C106 1.374 . S
C108 C105 1.499 . S
C108 C109 1.373 . S
C108 C110 1.387 1_565 S
C109 H82 0.950 . S
C109 C95 1.377 . S
C109 C108 1.373 . S
C110 C94 1.368 1_554 S
C110 C108 1.387 1_545 S
C110 C111 1.526 1_554 S
C111 C110 1.526 1_556 S
C111 C112 1.397 1_556 S
C111 C116 1.363 . S
C112 H83 0.950 . S
C112 C111 1.397 1_554 S
C112 C113 1.334 1_554 S
C113 H84 0.950 1_556 S
C113 C112 1.334 1_556 S
C113 C114 1.287 . S
C114 C113 1.287 . S
C114 C115 1.524 . S
C114 H117 0.999 . S
C115 H85 0.950 . S
C115 C114 1.524 . S
C115 C116 1.415 . S
C116 H86 0.950 . S
C116 C111 1.363 . S
C116 C115 1.415 . S
H117 C114 0.999 . S
H118 C99 0.913 . S
H119 C137 0.951 . S
H120 C139 0.951 . S
H121 C141 0.950 . S
H122 C142 0.950 . S
H123 C144 0.950 . S
H124 C147 0.950 . S
H125 C148 0.950 . S
H126 C150 0.950 . S
H127 C151 0.950 . S
H128 C152 0.951 . S
H129 C154 0.951 . S
H130 C156 0.950 . S
H131 C157 0.950 . S
H132 C159 0.950 . S
H133 C162 0.950 . S
H134 C163 0.950 . S
H135 C165 0.950 . S
H136 C166 0.950 . S
C137 H119 0.951 . S
C137 C138 1.366 . S
C137 C139 1.388 . S
C138 C137 1.366 . S
C138 C142 1.385 . S
C139 H120 0.951 . S
C139 C137 1.388 . S
C139 C140 1.366 . S
C140 C139 1.366 . S
C140 C141 1.414 . S
C140 C143 1.499 . S
C141 H121 0.950 . S
C141 C140 1.414 . S
C141 C142 1.374 . S
C142 H122 0.950 . S
C142 C138 1.385 . S
C142 C141 1.374 . S
C143 C140 1.499 . S
C143 C144 1.373 . S
C143 C145 1.389 . S
C144 H123 0.950 . S
C144 C143 1.373 . S
C144 C160 1.377 . S
C145 C143 1.389 . S
C145 C146 1.524 . S
C145 C159 1.377 . S
C146 C145 1.524 . S
C146 C147 1.397 . S
C146 C151 1.363 . S
C147 H124 0.950 . S
C147 C146 1.397 . S
C147 C148 1.334 . S
C148 H125 0.950 . S
C148 C147 1.334 . S
C148 C149 1.287 . S
C149 C148 1.287 . S
C149 C150 1.524 . S
C149 H168 0.913 . S
C150 H126 0.950 . S
C150 C149 1.524 . S
C150 C151 1.415 . S
C151 H127 0.950 . S
C151 C146 1.363 . S
C151 C150 1.415 . S
C152 H128 0.951 . S
C152 C153 1.366 . S
C152 C154 1.388 . S
C153 C152 1.366 . S
C153 C157 1.385 . S
C154 H129 0.951 . S
C154 C152 1.388 . S
C154 C155 1.366 . S
C155 C154 1.366 . S
C155 C156 1.414 . S
C155 C158 1.499 . S
C156 H130 0.950 . S
C156 C155 1.414 . S
C156 C157 1.374 . S
C157 H131 0.950 . S
C157 C153 1.385 . S
C157 C156 1.374 . S
C158 C155 1.499 . S
C158 C159 1.373 . S
C158 C160 1.389 . S
C159 H132 0.950 . S
C159 C145 1.377 . S
C159 C158 1.373 . S
C160 C144 1.377 . S
C160 C158 1.389 . S
C160 C161 1.524 . S
C161 C160 1.524 . S
C161 C162 1.397 . S
C161 C166 1.363 . S
C162 H133 0.950 . S
C162 C161 1.397 . S
C162 C163 1.334 . S
C163 H134 0.950 . S
C163 C162 1.334 . S
C163 C164 1.287 . S
C164 C163 1.287 . S
C164 C165 1.524 . S
C164 H167 0.999 . S
C165 H135 0.950 . S
C165 C164 1.524 . S
C165 C166 1.415 . S
C166 H136 0.950 . S
C166 C161 1.363 . S
C166 C165 1.415 . S
H167 C164 0.999 . S
H168 C149 0.913 . S
H169 C187 0.951 . S
H170 C189 0.951 . S
H171 C191 0.950 . S
H172 C192 0.950 . S
H173 C194 0.950 . S
H174 C197 0.950 . S
H175 C198 0.950 . S
H176 C200 0.950 . S
H177 C201 0.950 . S
H178 C202 0.951 . S
H179 C204 0.951 . S
H180 C206 0.950 . S
H181 C207 0.950 . S
H182 C209 0.950 . S
H183 C212 0.950 . S
H184 C213 0.950 . S
H185 C215 0.950 . S
H186 C216 0.950 . S
C187 H169 0.951 . S
C187 C188 1.366 . S
C187 C189 1.388 . S
C188 C187 1.366 . S
C188 C192 1.385 . S
C189 H170 0.951 . S
C189 C187 1.388 . S
C189 C190 1.366 . S
C190 C189 1.366 . S
C190 C191 1.414 . S
C190 C193 1.499 . S
C191 H171 0.950 . S
C191 C190 1.414 . S
C191 C192 1.374 . S
C192 H172 0.950 . S
C192 C188 1.385 . S
C192 C191 1.374 . S
C193 C190 1.499 . S
C193 C194 1.373 . S
C193 C195 1.389 . S
C194 H173 0.950 . S
C194 C193 1.373 . S
C194 C210 1.377 . S
C195 C193 1.389 . S
C195 C196 1.524 . S
C195 C209 1.377 . S
C196 C195 1.524 . S
C196 C197 1.397 . S
C196 C201 1.363 . S
C197 H174 0.950 . S
C197 C196 1.397 . S
C197 C198 1.334 1_455 S
C198 H175 0.950 . S
C198 C197 1.334 1_655 S
C198 C199 1.287 . S
C199 C198 1.287 . S
C199 C200 1.524 1_655 S
C199 H218 0.913 . S
C200 H176 0.950 . S
C200 C199 1.524 1_455 S
C200 C201 1.415 . S
C201 H177 0.950 . S
C201 C196 1.363 . S
C201 C200 1.415 . S
C202 H178 0.951 . S
C202 C203 1.366 . S
C202 C204 1.388 . S
C203 C202 1.366 . S
C203 C207 1.385 . S
C204 H179 0.951 . S
C204 C202 1.388 . S
C204 C205 1.366 . S
C205 C204 1.366 . S
C205 C206 1.414 . S
C205 C208 1.499 . S
C206 H180 0.950 . S
C206 C205 1.414 . S
C206 C207 1.374 . S
C207 H181 0.950 . S
C207 C203 1.385 . S
C207 C206 1.374 . S
C208 C205 1.499 . S
C208 C209 1.373 . S
C208 C210 1.389 . S
C209 H182 0.950 . S
C209 C195 1.377 . S
C209 C208 1.373 . S
C210 C194 1.377 . S
C210 C208 1.389 . S
C210 C211 1.524 . S
C211 C210 1.524 . S
C211 C212 1.397 . S
C211 C216 1.363 . S
C212 H183 0.950 . S
C212 C211 1.397 . S
C212 C213 1.334 . S
C213 H184 0.950 . S
C213 C212 1.334 . S
C213 C214 1.287 . S
C214 C213 1.287 . S
C214 C215 1.524 . S
C214 H217 0.999 . S
C215 H185 0.950 . S
C215 C214 1.524 . S
C215 C216 1.415 . S
C216 H186 0.950 . S
C216 C211 1.363 . S
C216 C215 1.415 . S
H217 C214 0.999 . S
H218 C199 0.913 . S
H219 C237 0.951 . S
H220 C239 0.951 . S
H221 C241 0.950 . S
H222 C242 0.950 . S
H223 C244 0.950 1_565 S
H224 C247 0.950 1_655 S
H225 C248 0.950 . S
H226 C250 0.950 . S
H227 C251 0.950 . S
H228 C252 0.951 . S
H229 C254 0.951 1_565 S
H230 C256 0.950 . S
H231 C257 0.950 . S
H232 C259 0.950 . S
H233 C262 0.950 1_455 S
H234 C263 0.950 . S
H235 C265 0.950 . S
H236 C266 0.950 . S
C237 H219 0.951 . S
C237 C238 1.366 1_455 S
C237 C239 1.388 . S
C238 C237 1.366 1_655 S
C238 C242 1.385 . S
C239 H220 0.951 . S
C239 C237 1.388 . S
C239 C240 1.366 1_455 S
C240 C239 1.366 1_655 S
C240 C241 1.414 . S
C240 C243 1.499 . S
C241 H221 0.950 . S
C241 C240 1.414 . S
C241 C242 1.374 . S
C242 H222 0.950 . S
C242 C238 1.385 . S
C242 C241 1.374 . S
C243 C240 1.499 . S
C243 C244 1.373 . S
C243 C245 1.389 1_655 S
C244 H223 0.950 1_545 S
C244 C243 1.373 . S
C244 C260 1.377 . S
C245 C243 1.389 1_455 S
C245 C246 1.524 . S
C245 C259 1.377 . S
C246 C245 1.524 . S
C246 C247 1.397 . S
C246 C251 1.363 . S
C247 H224 0.950 1_455 S
C247 C246 1.397 . S
C247 C248 1.334 . S
C248 H225 0.950 . S
C248 C247 1.334 . S
C248 C249 1.287 . S
C249 C248 1.287 . S
C249 C250 1.524 . S
C249 H268 0.913 . S
C250 H226 0.950 . S
C250 C249 1.524 . S
C250 C251 1.415 . S
C251 H227 0.950 . S
C251 C246 1.363 . S
C251 C250 1.415 . S
C252 H228 0.951 . S
C252 C253 1.366 1_665 S
C252 C254 1.388 1_565 S
C253 C252 1.366 1_445 S
C253 C257 1.385 . S
C254 H229 0.951 1_545 S
C254 C252 1.388 1_545 S
C254 C255 1.366 . S
C255 C254 1.366 . S
C255 C256 1.414 1_655 S
C255 C258 1.499 . S
C256 H230 0.950 . S
C256 C255 1.414 1_455 S
C256 C257 1.374 . S
C257 H231 0.950 . S
C257 C253 1.385 . S
C257 C256 1.374 . S
C258 C255 1.499 . S
C258 C259 1.373 1_655 S
C258 C260 1.389 . S
C259 H232 0.950 . S
C259 C245 1.377 . S
C259 C258 1.373 1_455 S
C260 C244 1.377 . S
C260 C258 1.389 . S
C260 C261 1.524 1_545 S
C261 C260 1.524 1_565 S
C261 C262 1.397 . S
C261 C266 1.363 . S
C262 H233 0.950 1_655 S
C262 C261 1.397 . S
C262 C263 1.334 . S
C263 H234 0.950 . S
C263 C262 1.334 . S
C263 C264 1.287 . S
C264 C263 1.287 . S
C264 C265 1.524 . S
C264 H267 0.999 . S
C265 H235 0.950 . S
C265 C264 1.524 . S
C265 C266 1.415 . S
C266 H236 0.950 . S
C266 C261 1.363 . S
C266 C265 1.415 . S
H267 C264 0.999 . S
H268 C249 0.913 . S
H269 C287 0.951 . S
H270 C289 0.951 . S
H271 C291 0.950 . S
H272 C292 0.950 . S
H273 C294 0.950 . S
H274 C297 0.950 . S
H275 C298 0.950 . S
H276 C300 0.950 . S
H277 C301 0.950 . S
H278 C302 0.951 . S
H279 C304 0.951 . S
H280 C306 0.950 . S
H281 C307 0.950 . S
H282 C309 0.950 . S
H283 C312 0.950 . S
H284 C313 0.950 . S
H285 C315 0.950 . S
H286 C316 0.950 . S
C287 H269 0.951 . S
C287 C288 1.366 . S
C287 C289 1.388 . S
C288 C287 1.366 . S
C288 C292 1.385 . S
C289 H270 0.951 . S
C289 C287 1.388 . S
C289 C290 1.366 . S
C290 C289 1.366 . S
C290 C291 1.414 . S
C290 C293 1.499 . S
C291 H271 0.950 . S
C291 C290 1.414 . S
C291 C292 1.374 . S
C292 H272 0.950 . S
C292 C288 1.385 . S
C292 C291 1.374 . S
C293 C290 1.499 . S
C293 C294 1.373 . S
C293 C295 1.389 . S
C294 H273 0.950 . S
C294 C293 1.373 . S
C294 C310 1.377 . S
C295 C293 1.389 . S
C295 C296 1.524 . S
C295 C309 1.377 . S
C296 C295 1.524 . S
C296 C297 1.397 . S
C296 C301 1.363 . S
C297 H274 0.950 . S
C297 C296 1.397 . S
C297 C298 1.334 . S
C298 H275 0.950 . S
C298 C297 1.334 . S
C298 C299 1.287 . S
C299 C298 1.287 . S
C299 C300 1.524 . S
C299 H318 0.913 . S
C300 H276 0.950 . S
C300 C299 1.524 . S
C300 C301 1.415 . S
C301 H277 0.950 . S
C301 C296 1.363 . S
C301 C300 1.415 . S
C302 H278 0.951 . S
C302 C303 1.366 1_655 S
C302 C304 1.388 . S
C303 C302 1.366 1_455 S
C303 C307 1.385 . S
C304 H279 0.951 . S
C304 C302 1.388 . S
C304 C305 1.366 1_655 S
C305 C304 1.366 1_455 S
C305 C306 1.414 . S
C305 C308 1.499 . S
C306 H280 0.950 . S
C306 C305 1.414 . S
C306 C307 1.374 . S
C307 H281 0.950 . S
C307 C303 1.385 . S
C307 C306 1.374 . S
C308 C305 1.499 . S
C308 C309 1.373 . S
C308 C310 1.389 . S
C309 H282 0.950 . S
C309 C295 1.377 . S
C309 C308 1.373 . S
C310 C294 1.377 . S
C310 C308 1.389 . S
C310 C311 1.524 . S
C311 C310 1.524 . S
C311 C312 1.397 . S
C311 C316 1.363 1_445 S
C312 H283 0.950 . S
C312 C311 1.397 . S
C312 C313 1.334 1_545 S
C313 H284 0.950 . S
C313 C312 1.334 1_565 S
C313 C314 1.287 . S
C314 C313 1.287 . S
C314 C315 1.524 1_455 S
C314 H317 0.999 1_455 S
C315 H285 0.950 . S
C315 C314 1.524 1_655 S
C315 C316 1.415 . S
C316 H286 0.950 . S
C316 C311 1.363 1_665 S
C316 C315 1.415 . S
H317 C314 0.999 1_655 S
H318 C299 0.913 . S
H319 C337 0.951 . S
H320 C339 0.951 . S
H321 C341 0.950 . S
H322 C342 0.950 . S
H323 C344 0.950 . S
H324 C347 0.950 . S
H325 C348 0.950 . S
H326 C350 0.950 . S
H327 C351 0.950 . S
H328 C352 0.951 . S
H329 C354 0.951 . S
H330 C356 0.950 . S
H331 C357 0.950 . S
H332 C359 0.950 1_565 S
H333 C362 0.950 . S
H334 C363 0.950 . S
H335 C365 0.950 . S
H336 C366 0.950 . S
C337 H319 0.951 . S
C337 C338 1.366 . S
C337 C339 1.388 . S
C338 C337 1.366 . S
C338 C342 1.385 . S
C339 H320 0.951 . S
C339 C337 1.388 . S
C339 C340 1.366 . S
C340 C339 1.366 . S
C340 C341 1.414 . S
C340 C343 1.499 . S
C341 H321 0.950 . S
C341 C340 1.414 . S
C341 C342 1.374 . S
C342 H322 0.950 . S
C342 C338 1.385 . S
C342 C341 1.374 . S
C343 C340 1.499 . S
C343 C344 1.373 . S
C343 C345 1.389 . S
C344 H323 0.950 . S
C344 C343 1.373 . S
C344 C360 1.377 . S
C345 C343 1.389 . S
C345 C346 1.524 1_545 S
C345 C359 1.377 . S
C346 C345 1.524 1_565 S
C346 C347 1.397 1_455 S
C346 C351 1.363 . S
C347 H324 0.950 . S
C347 C346 1.397 1_655 S
C347 C348 1.334 . S
C348 H325 0.950 . S
C348 C347 1.334 . S
C348 C349 1.287 . S
C349 C348 1.287 . S
C349 C350 1.524 . S
C349 H368 0.913 . S
C350 H326 0.950 . S
C350 C349 1.524 . S
C350 C351 1.415 1_655 S
C351 H327 0.950 . S
C351 C346 1.363 . S
C351 C350 1.415 1_455 S
C352 H328 0.951 . S
C352 C353 1.366 . S
C352 C354 1.388 . S
C353 C352 1.366 . S
C353 C357 1.385 1_545 S
C354 H329 0.951 . S
C354 C352 1.388 . S
C354 C355 1.366 . S
C355 C354 1.366 . S
C355 C356 1.414 1_545 S
C355 C358 1.499 . S
C356 H330 0.950 . S
C356 C355 1.414 1_565 S
C356 C357 1.374 . S
C357 H331 0.950 . S
C357 C353 1.385 1_565 S
C357 C356 1.374 . S
C358 C355 1.499 . S
C358 C359 1.373 . S
C358 C360 1.389 . S
C359 H332 0.950 1_545 S
C359 C345 1.377 . S
C359 C358 1.373 . S
C360 C344 1.377 . S
C360 C358 1.389 . S
C360 C361 1.524 . S
C361 C360 1.524 . S
C361 C362 1.397 . S
C361 C366 1.363 . S
C362 H333 0.950 . S
C362 C361 1.397 . S
C362 C363 1.334 . S
C363 H334 0.950 . S
C363 C362 1.334 . S
C363 C364 1.287 . S
C364 C363 1.287 . S
C364 C365 1.524 . S
C364 H367 0.999 . S
C365 H335 0.950 . S
C365 C364 1.524 . S
C365 C366 1.415 . S
C366 H336 0.950 . S
C366 C361 1.363 . S
C366 C365 1.415 . S
H367 C364 0.999 . S
H368 C349 0.913 . S
C88 C16 1.475 . S
C103 C7 1.482 . S
C138 N35 1.459 . S
C153 N25 1.456 . S
C188 N58 1.457 . S
C203 N48 1.455 . S
C238 C39 1.587 . S
C253 N2 1.531 . S
C288 C62 1.573 . S
C303 C30 1.591 . S
C338 C53 1.532 . S
C353 N12 1.507 . S
