# Generated by pormake.
# Topology vce, (5)-cn, num edge types: 1
# Building blocks:
#     Node 0, Type 0, BuildingBlock: XOMCOT_clean_sbu_1, # of connection points: 5
#     Node 1, Type 0, BuildingBlock: XOMCOT_clean_sbu_1, # of connection points: 5
#     Node 2, Type 0, BuildingBlock: XOMCOT_clean_sbu_1, # of connection points: 5
#     Node 3, Type 0, BuildingBlock: XOMCOT_clean_sbu_1, # of connection points: 5
#     Node 4, Type 0, BuildingBlock: XOMCOT_clean_sbu_1, # of connection points: 5
#     Node 5, Type 0, BuildingBlock: XOMCOT_clean_sbu_1, # of connection points: 5
#     Node 6, Type 0, BuildingBlock: XOMCOT_clean_sbu_1, # of connection points: 5
#     Node 7, Type 0, BuildingBlock: XOMCOT_clean_sbu_1, # of connection points: 5
#     Node 8, Type 0, BuildingBlock: XOMCOT_clean_sbu_1, # of connection points: 5
#     Node 9, Type 0, BuildingBlock: XOMCOT_clean_sbu_1, # of connection points: 5
#     Node 10, Type 0, BuildingBlock: XOMCOT_clean_sbu_1, # of connection points: 5
#     Node 11, Type 0, BuildingBlock: XOMCOT_clean_sbu_1, # of connection points: 5
#     Node 12, Type 0, BuildingBlock: XOMCOT_clean_sbu_1, # of connection points: 5
#     Node 13, Type 0, BuildingBlock: XOMCOT_clean_sbu_1, # of connection points: 5
#     Node 14, Type 0, BuildingBlock: XOMCOT_clean_sbu_1, # of connection points: 5
#     Node 15, Type 0, BuildingBlock: XOMCOT_clean_sbu_1, # of connection points: 5
#     Node 16, Type 0, BuildingBlock: XOMCOT_clean_sbu_1, # of connection points: 5
#     Node 17, Type 0, BuildingBlock: XOMCOT_clean_sbu_1, # of connection points: 5
#     Node 18, Type 0, BuildingBlock: XOMCOT_clean_sbu_1, # of connection points: 5
#     Node 19, Type 0, BuildingBlock: XOMCOT_clean_sbu_1, # of connection points: 5
#     Node 20, Type 0, BuildingBlock: XOMCOT_clean_sbu_1, # of connection points: 5
#     Node 21, Type 0, BuildingBlock: XOMCOT_clean_sbu_1, # of connection points: 5
#     Node 22, Type 0, BuildingBlock: XOMCOT_clean_sbu_1, # of connection points: 5
#     Node 23, Type 0, BuildingBlock: XOMCOT_clean_sbu_1, # of connection points: 5
#     Node 24, Type 0, BuildingBlock: XOMCOT_clean_sbu_1, # of connection points: 5
#     Node 25, Type 0, BuildingBlock: XOMCOT_clean_sbu_1, # of connection points: 5
#     Node 26, Type 0, BuildingBlock: XOMCOT_clean_sbu_1, # of connection points: 5
#     Node 27, Type 0, BuildingBlock: XOMCOT_clean_sbu_1, # of connection points: 5
#     Node 28, Type 0, BuildingBlock: XOMCOT_clean_sbu_1, # of connection points: 5
#     Node 29, Type 0, BuildingBlock: XOMCOT_clean_sbu_1, # of connection points: 5
#     Node 30, Type 0, BuildingBlock: XOMCOT_clean_sbu_1, # of connection points: 5
#     Node 31, Type 0, BuildingBlock: XOMCOT_clean_sbu_1, # of connection points: 5
#     Edge 32, Type (0, 0), BuildingBlock: EZIPEK_clean_linker_0, # of connection points: 2
#     Edge 33, Type (0, 0), BuildingBlock: EZIPEK_clean_linker_0, # of connection points: 2
#     Edge 34, Type (0, 0), BuildingBlock: EZIPEK_clean_linker_0, # of connection points: 2
#     Edge 35, Type (0, 0), BuildingBlock: EZIPEK_clean_linker_0, # of connection points: 2
#     Edge 36, Type (0, 0), BuildingBlock: EZIPEK_clean_linker_0, # of connection points: 2
#     Edge 37, Type (0, 0), BuildingBlock: EZIPEK_clean_linker_0, # of connection points: 2
#     Edge 38, Type (0, 0), BuildingBlock: EZIPEK_clean_linker_0, # of connection points: 2
#     Edge 39, Type (0, 0), BuildingBlock: EZIPEK_clean_linker_0, # of connection points: 2
#     Edge 40, Type (0, 0), BuildingBlock: EZIPEK_clean_linker_0, # of connection points: 2
#     Edge 41, Type (0, 0), BuildingBlock: EZIPEK_clean_linker_0, # of connection points: 2
#     Edge 42, Type (0, 0), BuildingBlock: EZIPEK_clean_linker_0, # of connection points: 2
#     Edge 43, Type (0, 0), BuildingBlock: EZIPEK_clean_linker_0, # of connection points: 2
#     Edge 44, Type (0, 0), BuildingBlock: EZIPEK_clean_linker_0, # of connection points: 2
#     Edge 45, Type (0, 0), BuildingBlock: EZIPEK_clean_linker_0, # of connection points: 2
#     Edge 46, Type (0, 0), BuildingBlock: EZIPEK_clean_linker_0, # of connection points: 2
#     Edge 47, Type (0, 0), BuildingBlock: EZIPEK_clean_linker_0, # of connection points: 2
#     Edge 48, Type (0, 0), BuildingBlock: EZIPEK_clean_linker_0, # of connection points: 2
#     Edge 49, Type (0, 0), BuildingBlock: EZIPEK_clean_linker_0, # of connection points: 2
#     Edge 50, Type (0, 0), BuildingBlock: EZIPEK_clean_linker_0, # of connection points: 2
#     Edge 51, Type (0, 0), BuildingBlock: EZIPEK_clean_linker_0, # of connection points: 2
#     Edge 52, Type (0, 0), BuildingBlock: EZIPEK_clean_linker_0, # of connection points: 2
#     Edge 53, Type (0, 0), BuildingBlock: EZIPEK_clean_linker_0, # of connection points: 2
#     Edge 54, Type (0, 0), BuildingBlock: EZIPEK_clean_linker_0, # of connection points: 2
#     Edge 55, Type (0, 0), BuildingBlock: EZIPEK_clean_linker_0, # of connection points: 2
#     Edge 56, Type (0, 0), BuildingBlock: EZIPEK_clean_linker_0, # of connection points: 2
#     Edge 57, Type (0, 0), BuildingBlock: EZIPEK_clean_linker_0, # of connection points: 2
#     Edge 58, Type (0, 0), BuildingBlock: EZIPEK_clean_linker_0, # of connection points: 2
#     Edge 59, Type (0, 0), BuildingBlock: EZIPEK_clean_linker_0, # of connection points: 2
#     Edge 60, Type (0, 0), BuildingBlock: EZIPEK_clean_linker_0, # of connection points: 2
#     Edge 61, Type (0, 0), BuildingBlock: EZIPEK_clean_linker_0, # of connection points: 2
#     Edge 62, Type (0, 0), BuildingBlock: EZIPEK_clean_linker_0, # of connection points: 2
#     Edge 63, Type (0, 0), BuildingBlock: EZIPEK_clean_linker_0, # of connection points: 2
#     Edge 64, Type (0, 0), BuildingBlock: EZIPEK_clean_linker_0, # of connection points: 2
#     Edge 65, Type (0, 0), BuildingBlock: EZIPEK_clean_linker_0, # of connection points: 2
#     Edge 66, Type (0, 0), BuildingBlock: EZIPEK_clean_linker_0, # of connection points: 2
#     Edge 67, Type (0, 0), BuildingBlock: EZIPEK_clean_linker_0, # of connection points: 2
#     Edge 68, Type (0, 0), BuildingBlock: EZIPEK_clean_linker_0, # of connection points: 2
#     Edge 69, Type (0, 0), BuildingBlock: EZIPEK_clean_linker_0, # of connection points: 2
#     Edge 70, Type (0, 0), BuildingBlock: EZIPEK_clean_linker_0, # of connection points: 2
#     Edge 71, Type (0, 0), BuildingBlock: EZIPEK_clean_linker_0, # of connection points: 2
#     Edge 72, Type (0, 0), BuildingBlock: EZIPEK_clean_linker_0, # of connection points: 2
#     Edge 73, Type (0, 0), BuildingBlock: EZIPEK_clean_linker_0, # of connection points: 2
#     Edge 74, Type (0, 0), BuildingBlock: EZIPEK_clean_linker_0, # of connection points: 2
#     Edge 75, Type (0, 0), BuildingBlock: EZIPEK_clean_linker_0, # of connection points: 2
#     Edge 76, Type (0, 0), BuildingBlock: EZIPEK_clean_linker_0, # of connection points: 2
#     Edge 77, Type (0, 0), BuildingBlock: EZIPEK_clean_linker_0, # of connection points: 2
#     Edge 78, Type (0, 0), BuildingBlock: EZIPEK_clean_linker_0, # of connection points: 2
#     Edge 79, Type (0, 0), BuildingBlock: EZIPEK_clean_linker_0, # of connection points: 2
#     Edge 80, Type (0, 0), BuildingBlock: EZIPEK_clean_linker_0, # of connection points: 2
#     Edge 81, Type (0, 0), BuildingBlock: EZIPEK_clean_linker_0, # of connection points: 2
#     Edge 82, Type (0, 0), BuildingBlock: EZIPEK_clean_linker_0, # of connection points: 2
#     Edge 83, Type (0, 0), BuildingBlock: EZIPEK_clean_linker_0, # of connection points: 2
#     Edge 84, Type (0, 0), BuildingBlock: EZIPEK_clean_linker_0, # of connection points: 2
#     Edge 85, Type (0, 0), BuildingBlock: EZIPEK_clean_linker_0, # of connection points: 2
#     Edge 86, Type (0, 0), BuildingBlock: EZIPEK_clean_linker_0, # of connection points: 2
#     Edge 87, Type (0, 0), BuildingBlock: EZIPEK_clean_linker_0, # of connection points: 2
#     Edge 88, Type (0, 0), BuildingBlock: EZIPEK_clean_linker_0, # of connection points: 2
#     Edge 89, Type (0, 0), BuildingBlock: EZIPEK_clean_linker_0, # of connection points: 2
#     Edge 90, Type (0, 0), BuildingBlock: EZIPEK_clean_linker_0, # of connection points: 2
#     Edge 91, Type (0, 0), BuildingBlock: EZIPEK_clean_linker_0, # of connection points: 2
#     Edge 92, Type (0, 0), BuildingBlock: EZIPEK_clean_linker_0, # of connection points: 2
#     Edge 93, Type (0, 0), BuildingBlock: EZIPEK_clean_linker_0, # of connection points: 2
#     Edge 94, Type (0, 0), BuildingBlock: EZIPEK_clean_linker_0, # of connection points: 2
#     Edge 95, Type (0, 0), BuildingBlock: EZIPEK_clean_linker_0, # of connection points: 2
#     Edge 96, Type (0, 0), BuildingBlock: EZIPEK_clean_linker_0, # of connection points: 2
#     Edge 97, Type (0, 0), BuildingBlock: EZIPEK_clean_linker_0, # of connection points: 2
#     Edge 98, Type (0, 0), BuildingBlock: EZIPEK_clean_linker_0, # of connection points: 2
#     Edge 99, Type (0, 0), BuildingBlock: EZIPEK_clean_linker_0, # of connection points: 2
#     Edge 100, Type (0, 0), BuildingBlock: EZIPEK_clean_linker_0, # of connection points: 2
#     Edge 101, Type (0, 0), BuildingBlock: EZIPEK_clean_linker_0, # of connection points: 2
#     Edge 102, Type (0, 0), BuildingBlock: EZIPEK_clean_linker_0, # of connection points: 2
#     Edge 103, Type (0, 0), BuildingBlock: EZIPEK_clean_linker_0, # of connection points: 2
#     Edge 104, Type (0, 0), BuildingBlock: EZIPEK_clean_linker_0, # of connection points: 2
#     Edge 105, Type (0, 0), BuildingBlock: EZIPEK_clean_linker_0, # of connection points: 2
#     Edge 106, Type (0, 0), BuildingBlock: EZIPEK_clean_linker_0, # of connection points: 2
#     Edge 107, Type (0, 0), BuildingBlock: EZIPEK_clean_linker_0, # of connection points: 2
#     Edge 108, Type (0, 0), BuildingBlock: EZIPEK_clean_linker_0, # of connection points: 2
#     Edge 109, Type (0, 0), BuildingBlock: EZIPEK_clean_linker_0, # of connection points: 2
#     Edge 110, Type (0, 0), BuildingBlock: EZIPEK_clean_linker_0, # of connection points: 2
#     Edge 111, Type (0, 0), BuildingBlock: EZIPEK_clean_linker_0, # of connection points: 2
# Relax obj value: 0.148
# Max RMSD: 0.168
# Mean RMSD: 0.168
data_MOF--net-vce--node1-XOMCOT_clean_sbu_1--edge1-EZIPEK_clean_linker_0
_symmetry_space_group_name_H-M    P1
_symmetry_Int_Tables_number       1
_symmetry_cell_setting            triclinic
loop_
_symmetry_equiv_pos_as_xyz
'x, y, z'
_cell_length_a     37.206022
_cell_length_b     99.478639
_cell_length_c     19.789469
_cell_angle_alpha  90.292232
_cell_angle_beta   90.106273
_cell_angle_gamma 90.053028
loop_
_atom_site_label
_atom_site_type_symbol
_atom_site_fract_x
_atom_site_fract_y
_atom_site_fract_z
_atom_type_partial_charge
C0 C 0.96676 0.23244 0.3762 0.0
C1 C 0.95428 0.24454 0.35206 0.0
N2 N 0.98225 0.25158 0.32784 0.0
N3 N 0.00269 0.23154 0.36699 0.0
C4 C 0.01142 0.24363 0.33886 0.0
H5 H 0.95019 0.22469 0.39813 0.0
Co6 Co 0.03178 0.21593 0.38959 0.0
C7 C 0.05045 0.221 0.24208 0.0
O8 O 0.01849 0.22586 0.22871 0.0
N9 N 0.06155 0.20035 0.41143 0.0
C10 C 0.10755 0.18812 0.4509 0.0
C11 C 0.0928 0.20074 0.44679 0.0
C12 C 0.05856 0.18707 0.39383 0.0
N13 N 0.08614 0.17949 0.41764 0.0
O14 O 0.06517 0.22735 0.43832 0.0
H15 H 0.10507 0.20962 0.46819 0.0
H16 H 0.03703 0.183 0.36314 0.0
O17 O 0.05822 0.21698 0.30192 0.0
C18 C 0.05105 0.22959 0.49667 0.0
O19 O 0.01616 0.22806 0.50316 0.0
N20 N -0.00421 0.20443 0.35756 0.0
C21 C 0.93343 0.18829 0.35888 0.0
C22 C 0.94907 0.19272 0.29737 0.0
C23 C 0.98052 0.20066 0.29777 0.0
C24 C 0.98136 0.20025 0.41682 0.0
C25 C 0.95083 0.19236 0.41878 0.0
H26 H 0.99136 0.20402 0.25044 0.0
H27 H -0.00694 0.20362 0.46389 0.0
H28 H 0.03845 0.24636 0.32455 0.0
H29 H 0.92652 0.24778 0.35049 0.0
H30 H 0.13248 0.18547 0.47579 0.0
H31 H 0.93703 0.19075 0.24889 0.0
H32 H 0.94019 0.19033 0.4684 0.0
C33 C 0.17602 0.05794 0.4206 0.0
C34 C 0.18762 0.04591 0.39311 0.0
N35 N 0.19917 0.04818 0.32982 0.0
N36 N 0.17988 0.0679 0.37498 0.0
C37 C 0.19412 0.06153 0.31999 0.0
H38 H 0.16698 0.05931 0.47196 0.0
Co39 Co 0.17455 0.08696 0.38989 0.0
C40 C 0.14215 0.09722 0.26007 0.0
O41 O 0.15972 0.10859 0.2663 0.0
N42 N 0.16971 0.10608 0.40488 0.0
C43 C 0.18352 0.12763 0.42411 0.0
C44 C 0.19675 0.11474 0.41908 0.0
C45 C 0.13992 0.11408 0.40381 0.0
N46 N 0.1478 0.12728 0.41398 0.0
O47 O 0.13223 0.08427 0.44607 0.0
H48 H 0.22466 0.11199 0.42459 0.0
H49 H 0.11309 0.1103 0.39482 0.0
O50 O 0.14585 0.088 0.30473 0.0
C51 C 0.14448 0.08448 0.50688 0.0
O52 O 0.17941 0.08528 0.51534 0.0
N53 N 0.21895 0.08943 0.34801 0.0
C54 C 0.29208 0.09335 0.33102 0.0
C55 C 0.26829 0.09601 0.27756 0.0
C56 C 0.23131 0.09381 0.28691 0.0
C57 C 0.24245 0.08604 0.39793 0.0
C58 C 0.27896 0.08795 0.39068 0.0
H59 H 0.21332 0.09571 0.24551 0.0
H60 H 0.23261 0.08214 0.44509 0.0
H61 H 0.20258 0.06666 0.27481 0.0
H62 H 0.18856 0.0363 0.41841 0.0
H63 H 0.1991 0.13667 0.43292 0.0
H64 H 0.27812 0.09992 0.2301 0.0
H65 H 0.29681 0.08557 0.43231 0.0
C66 C 0.00238 0.06865 0.83482 0.0
C67 C 0.98955 0.05664 0.8597 0.0
N68 N -0.00529 0.05654 0.92683 0.0
N69 N 0.01549 0.0764 0.88565 0.0
C70 C 0.01049 0.06852 0.94137 0.0
H71 H 0.00066 0.07176 0.7828 0.0
Co72 Co 0.03716 0.09415 0.87186 0.0
C73 C 0.04921 0.09391 0.02282 0.0
O74 O 0.01451 0.09483 0.03404 0.0
N75 N 0.0613 0.11128 0.85958 0.0
C76 C 0.10835 0.12509 0.87176 0.0
C77 C 0.09588 0.11227 0.88013 0.0
C78 C 0.05349 0.12401 0.83807 0.0
N79 N 0.08184 0.1326 0.84586 0.0
O80 O 0.07664 0.08562 0.82333 0.0
H81 H 0.11134 0.10412 0.90138 0.0
H82 H 0.02723 0.12708 0.82033 0.0
O83 O 0.06102 0.09296 0.96208 0.0
C84 C 0.06844 0.08683 0.76045 0.0
O85 O 0.03762 0.09249 0.74516 0.0
N86 N -0.0045 0.10301 0.90615 0.0
C87 C 0.93293 0.11857 0.90849 0.0
C88 C 0.96446 0.12332 0.93934 0.0
C89 C -0.00452 0.11523 0.9385 0.0
C90 C 0.96439 0.09836 0.87771 0.0
C91 C 0.93287 0.1057 0.8804 0.0
H92 H 0.02017 0.11934 0.95828 0.0
H93 H 0.96396 0.08951 0.84664 0.0
H94 H 0.01808 0.07128 0.992 0.0
H95 H 0.97684 0.04867 0.83086 0.0
H96 H 0.13464 0.1288 0.88628 0.0
H97 H 0.96561 0.13336 0.9607 0.0
H98 H 0.9091 0.10176 0.85538 0.0
C99 C 0.16408 0.25498 0.84275 0.0
C100 C 0.17742 0.26681 0.86941 0.0
N101 N 0.19478 0.26408 0.9275 0.0
N102 N 0.17328 0.24457 0.88264 0.0
C103 C 0.19179 0.25055 0.93439 0.0
H104 H 0.14849 0.25416 0.79706 0.0
Co105 Co 0.16596 0.22567 0.86419 0.0
C106 C 0.13661 0.21531 0.99729 0.0
O107 O 0.15438 0.20402 0.99002 0.0
N108 N 0.15904 0.20668 0.84582 0.0
C109 C 0.17081 0.18575 0.81041 0.0
C110 C 0.18425 0.19857 0.81821 0.0
C111 C 0.12994 0.19841 0.85281 0.0
N112 N 0.13667 0.18557 0.83237 0.0
O113 O 0.12296 0.22948 0.81113 0.0
H114 H 0.21097 0.20171 0.80407 0.0
H115 H 0.10441 0.20171 0.87292 0.0
O116 O 0.139 0.2244 0.95161 0.0
C117 C 0.13226 0.22869 0.74849 0.0
O118 O 0.1656 0.22542 0.73454 0.0
N119 N 0.21122 0.22236 0.90132 0.0
C120 C 0.2853 0.21947 0.91007 0.0
C121 C 0.26342 0.21612 0.96536 0.0
C122 C 0.22598 0.2179 0.96042 0.0
C123 C 0.23272 0.226 0.84881 0.0
C124 C 0.26962 0.22469 0.8521 0.0
H125 H 0.20965 0.2159 1.00398 0.0
H126 H 0.22089 0.2299 0.80314 0.0
H127 H 0.20386 0.24509 0.97563 0.0
H128 H 0.17418 0.27674 0.84811 0.0
H129 H 0.18517 0.17713 0.79061 0.0
H130 H 0.27516 0.2123 0.01152 0.0
H131 H 0.28583 0.22751 0.80896 0.0
C132 C 0.9521 0.81113 0.561 0.0
C133 C 0.96295 0.79878 0.58549 0.0
N134 N 0.96394 0.79935 0.65346 0.0
N135 N 0.94556 0.81969 0.61289 0.0
C136 C 0.9525 0.81198 0.66848 0.0
H137 H 0.95005 0.8136 0.50811 0.0
Co138 Co 0.93258 0.83877 0.61042 0.0
C139 C 0.92123 0.83931 0.76104 0.0
O140 O 0.95437 0.84308 0.7727 0.0
N141 N 0.91826 0.8577 0.61462 0.0
C142 C 0.91645 0.8788 0.65477 0.0
C143 C 0.93301 0.86653 0.65919 0.0
C144 C 0.89136 0.86502 0.58533 0.0
N145 N 0.89033 0.87793 0.60828 0.0
O146 O 0.88818 0.83465 0.5648 0.0
H147 H 0.95445 0.86424 0.6941 0.0
H148 H 0.87226 0.86096 0.54938 0.0
O149 O 0.91097 0.83726 0.70024 0.0
C150 C 0.8995 0.83554 0.50352 0.0
O151 O 0.93412 0.83727 0.49377 0.0
N152 N 0.98016 0.84326 0.63589 0.0
C153 C 0.05323 0.84695 0.61334 0.0
C154 C 0.04157 0.83878 0.66625 0.0
C155 C 0.00473 0.83689 0.67623 0.0
C156 C 0.99204 0.85147 0.58522 0.0
C157 C 0.02822 0.85368 0.57403 0.0
H158 H -0.00314 0.82963 0.71328 0.0
H159 H 0.97349 0.85561 0.54889 0.0
H160 H 0.95022 0.8156 0.71979 0.0
H161 H 0.97064 0.79014 0.55537 0.0
H162 H 0.92268 0.88768 0.68443 0.0
H163 H 0.06072 0.83318 0.6963 0.0
H164 H 0.0366 0.85975 0.53154 0.0
C165 C 0.75718 0.99262 0.59899 0.0
C166 C 0.74696 1.00535 0.61934 0.0
N167 N 0.75802 1.00722 0.68335 0.0
N168 N 0.77442 0.98627 0.64998 0.0
C169 C 0.7749 0.99567 0.70052 0.0
H170 H 0.75116 0.9881 0.55052 0.0
Co171 Co 0.79361 0.96822 0.64238 0.0
C172 C 0.80586 0.97073 0.79121 0.0
O173 O 0.77104 0.97152 0.8014 0.0
N174 N 0.81623 0.9507 0.63324 0.0
C175 C 0.8596 0.93552 0.64994 0.0
C176 C 0.84864 0.94842 0.66222 0.0
C177 C 0.80872 0.93881 0.60111 0.0
N178 N 0.83458 0.92936 0.61209 0.0
O179 O 0.83315 0.9755 0.59079 0.0
H180 H 0.86431 0.95578 0.68976 0.0
H181 H 0.78452 0.937 0.57203 0.0
O182 O 0.81816 0.9703 0.73078 0.0
C183 C 0.8241 0.97381 0.52865 0.0
O184 O 0.79275 0.96832 0.51533 0.0
N185 N 0.75082 0.96036 0.68376 0.0
C186 C 0.6871 0.94584 0.66879 0.0
C187 C 0.68667 0.95986 0.66905 0.0
C188 C 0.71866 0.96692 0.67633 0.0
C189 C 0.74984 0.947 0.70062 0.0
C190 C 0.71859 0.93933 0.68938 0.0
H191 H 0.71672 0.97757 0.67048 0.0
H192 H 0.77389 0.94187 0.71651 0.0
H193 H 0.78728 0.99431 0.74918 0.0
H194 H 0.73198 1.01259 0.58993 0.0
H195 H 0.88426 0.93093 0.66756 0.0
H196 H 0.66231 0.9653 0.65671 0.0
H197 H 0.71966 0.92848 0.69282 0.0
C198 C 0.93355 1.00309 0.19591 0.0
C199 C 0.94189 1.01542 0.16828 0.0
N200 N 0.94978 1.01363 0.10257 0.0
N201 N 0.93578 0.9934 0.14794 0.0
C202 C 0.94589 1.00023 0.09144 0.0
H203 H 0.92741 1.00134 0.24843 0.0
Co204 Co 0.93098 0.97425 0.1594 0.0
C205 C 0.89754 0.96507 0.02782 0.0
O206 O 0.91263 0.9532 0.03177 0.0
N207 N 0.92604 0.95492 0.17037 0.0
C208 C 0.9401 0.93321 0.18298 0.0
C209 C 0.95338 0.9461 0.17786 0.0
C210 C 0.89608 0.94696 0.17353 0.0
N211 N 0.90399 0.93364 0.18005 0.0
O212 O 0.88855 0.9766 0.2149 0.0
H213 H 0.9815 0.94877 0.17954 0.0
H214 H 0.86898 0.95082 0.17061 0.0
O215 O 0.90288 0.97387 0.07417 0.0
C216 C 0.90085 0.9761 0.27555 0.0
O217 O 0.93577 0.97506 0.28385 0.0
N218 N 0.97591 0.97214 0.118 0.0
C219 C 0.04925 0.96779 0.10269 0.0
C220 C 0.02525 0.96414 0.05083 0.0
C221 C 0.98826 0.96655 0.05921 0.0
C222 C -0.00049 0.97626 0.1667 0.0
C223 C 0.03614 0.97426 0.16 0.0
H224 H 0.97019 0.96354 0.0196 0.0
H225 H 0.98964 0.98073 0.21283 0.0
H226 H 0.95146 0.99544 0.04352 0.0
H227 H 0.94287 1.02497 0.19477 0.0
H228 H 0.95586 0.92414 0.1885 0.0
H229 H 0.03492 0.95925 1.00537 0.0
H230 H 0.05404 0.9773 0.20057 0.0
C231 C 0.75187 0.82103 0.16215 0.0
C232 C 0.7398 0.80859 0.14027 0.0
N233 N 0.7586 0.80503 0.085 0.0
N234 N 0.77763 0.82562 0.11991 0.0
C235 C 0.78182 0.81532 0.07469 0.0
H236 H 0.74122 0.82668 0.2044 0.0
Co237 Co 0.80031 0.84316 0.12688 0.0
C238 C 0.82347 0.83747 0.98502 0.0
O239 O 0.79093 0.84015 0.96323 0.0
N240 N 0.82572 0.8603 0.13716 0.0
C241 C 0.8709 0.87493 0.12383 0.0
C242 C 0.85892 0.86217 0.11124 0.0
C243 C 0.81867 0.87239 0.16794 0.0
N244 N 0.8457 0.8815 0.15905 0.0
O245 O 0.83397 0.83556 0.18957 0.0
H246 H 0.87442 0.85466 0.08603 0.0
H247 H 0.79382 0.87462 0.194 0.0
O248 O 0.83051 0.83851 0.04822 0.0
C249 C 0.82231 0.83757 0.24959 0.0
O250 O 0.79095 0.84343 0.2573 0.0
N251 N 0.76322 0.85149 0.07077 0.0
C252 C 0.70121 0.86657 0.08172 0.0
C253 C 0.69896 0.85269 0.07261 0.0
C254 C 0.7304 0.84531 0.06558 0.0
C255 C 0.76448 0.86502 0.05825 0.0
C256 C 0.73381 0.87298 0.06809 0.0
H257 H 0.72755 0.83463 0.06162 0.0
H258 H 0.78962 0.86995 0.04772 0.0
H259 H 0.80103 0.81523 0.03409 0.0
H260 H 0.71838 0.80272 0.16242 0.0
H261 H 0.89633 0.87916 0.10791 0.0
H262 H 0.67354 0.84746 0.07791 0.0
H263 H 0.73606 0.88383 0.06998 0.0
C264 C 0.98855 0.73442 0.86261 0.0
C265 C 0.97611 0.74595 0.83334 0.0
N266 N 0.00411 0.75387 0.81737 0.0
N267 N 0.02488 0.73432 0.86385 0.0
C268 C 0.03352 0.74674 0.83848 0.0
H269 H 0.97135 0.72651 0.88029 0.0
Co270 Co 0.05407 0.71844 0.88829 0.0
C271 C 0.06819 0.72316 0.74063 0.0
O272 O 0.03559 0.72798 0.73402 0.0
N273 N 0.08311 0.70272 0.91132 0.0
C274 C 0.12977 0.69024 0.94596 0.0
C275 C 0.11662 0.70309 0.93823 0.0
C276 C 0.07697 0.68923 0.90278 0.0
N277 N 0.10489 0.6815 0.9238 0.0
O278 O 0.08886 0.72995 0.93327 0.0
H279 H 0.13141 0.7121 0.95084 0.0
H280 H 0.05287 0.68504 0.88051 0.0
O281 O 0.07861 0.71892 0.79873 0.0
C282 C 0.07518 0.73369 0.98993 0.0
O283 O 0.04005 0.73332 0.99624 0.0
N284 N 0.01778 0.70703 0.85931 0.0
C285 C 0.94867 0.69726 0.85377 0.0
C286 C 0.96967 0.69752 0.79472 0.0
C287 C 0.00489 0.70255 0.79867 0.0
C288 C -1e-05 0.70426 0.91768 0.0
C289 C 0.96518 0.69942 0.91614 0.0
H290 H 0.02043 0.70356 0.75327 0.0
H291 H 0.01132 0.70742 0.96545 0.0
H292 H 0.06095 0.75017 0.83274 0.0
H293 H 0.94815 0.7483 0.82371 0.0
H294 H 0.15596 0.68752 0.9655 0.0
H295 H 0.95779 0.69535 0.74588 0.0
H296 H 0.95 0.69893 0.96277 0.0
C297 C 0.16084 0.55591 0.91813 0.0
C298 C 0.17164 0.54402 0.88802 0.0
N299 N 0.18777 0.54687 0.82899 0.0
N300 N 0.17016 0.56642 0.87892 0.0
C301 C 0.18613 0.56047 0.82428 0.0
H302 H 0.14761 0.55674 0.96636 0.0
Co303 Co 0.1669 0.58545 0.90035 0.0
C304 C 0.13017 0.59633 0.77443 0.0
O305 O 0.14264 0.6086 0.78053 0.0
N306 N 0.16434 0.60453 0.92132 0.0
C307 C 0.18387 0.62489 0.95337 0.0
C308 C 0.19266 0.61151 0.94631 0.0
C309 C 0.13798 0.61404 0.9164 0.0
N310 N 0.14956 0.62656 0.93401 0.0
O311 O 0.12574 0.58249 0.95721 0.0
H312 H 0.21862 0.6072 0.95761 0.0
H313 H 0.11119 0.61196 0.89797 0.0
O314 O 0.13772 0.5873 0.81798 0.0
C315 C 0.13762 0.58266 0.01821 0.0
O316 O 0.1724 0.58403 0.02761 0.0
N317 N 0.20991 0.58805 0.85658 0.0
C318 C 0.28206 0.59232 0.83585 0.0
C319 C 0.25702 0.59759 0.79028 0.0
C320 C 0.22046 0.5953 0.80166 0.0
C321 C 0.23447 0.58247 0.89903 0.0
C322 C 0.27072 0.58433 0.88915 0.0
H323 H 0.20137 0.59982 0.76823 0.0
H324 H 0.22561 0.57702 0.94309 0.0
H325 H 0.19779 0.566 0.78287 0.0
H326 H 0.16837 0.53402 0.90846 0.0
H327 H 0.2017 0.63289 0.9696 0.0
H328 H 0.26556 0.60385 0.74867 0.0
H329 H 0.28972 0.58021 0.9251 0.0
C330 C 0.98505 0.57346 0.33982 0.0
C331 C 0.97083 0.56126 0.35947 0.0
N332 N 0.98931 0.55682 0.41349 0.0
N333 N 0.01266 0.57692 0.3809 0.0
C334 C 0.01522 0.56624 0.4238 0.0
H335 H 0.97416 0.57982 0.30076 0.0
Co336 Co 0.03613 0.59451 0.38406 0.0
C337 C 0.04446 0.58761 0.53445 0.0
O338 O 0.01137 0.58362 0.54398 0.0
N339 N 0.06086 0.6117 0.39288 0.0
C340 C 0.07306 0.63133 0.44356 0.0
C341 C 0.05606 0.61921 0.44946 0.0
C342 C 0.08262 0.61956 0.35406 0.0
N343 N 0.08956 0.63171 0.38342 0.0
O344 O 0.07672 0.58738 0.33577 0.0
H345 H 0.03962 0.61629 0.49179 0.0
H346 H 0.09295 0.6166 0.30534 0.0
O347 O 0.05563 0.591 0.47569 0.0
C348 C 0.06423 0.58898 0.27541 0.0
O349 O 0.03086 0.59309 0.26891 0.0
N350 N -0.00747 0.6027 0.41267 0.0
C351 C 0.92311 0.61241 0.39328 0.0
C352 C 0.92929 0.60156 0.43656 0.0
C353 C 0.96426 0.59672 0.44489 0.0
C354 C 0.98615 0.61369 0.3727 0.0
C355 C 0.95205 0.61896 0.36429 0.0
H356 H 0.96685 0.58706 0.46779 0.0
H357 H 0.00644 0.61756 0.33921 0.0
H358 H 0.03468 0.5655 0.46401 0.0
H359 H 0.94707 0.55648 0.33871 0.0
H360 H 0.0726 0.63947 0.48011 0.0
H361 H 0.90693 0.5959 0.45691 0.0
H362 H 0.94786 0.62696 0.32812 0.0
C363 C 0.22941 0.7452 0.31939 0.0
C364 C 0.24676 0.75639 0.34526 0.0
N365 N 0.23444 0.75877 0.40809 0.0
N366 N 0.20595 0.7404 0.36531 0.0
C367 C 0.2097 0.74897 0.41907 0.0
H368 H 0.23503 0.74047 0.27127 0.0
Co369 Co 0.1803 0.72367 0.35664 0.0
C370 C 0.15507 0.71883 0.49691 0.0
O371 O 0.1687 0.70668 0.49282 0.0
N372 N 0.15372 0.70681 0.34976 0.0
C373 C 0.10512 0.69364 0.35892 0.0
C374 C 0.11791 0.70657 0.36103 0.0
C375 C 0.16186 0.69352 0.34021 0.0
N376 N 0.13273 0.68537 0.34615 0.0
O377 O 0.14199 0.73264 0.30742 0.0
H378 H 0.10193 0.71528 0.37249 0.0
H379 H 0.18852 0.68964 0.33147 0.0
O380 O 0.15792 0.72683 0.44653 0.0
C381 C 0.1505 0.73169 0.24465 0.0
O382 O 0.18098 0.7258 0.22924 0.0
N383 N 0.22014 0.71503 0.39094 0.0
C384 C 0.29266 0.70898 0.39459 0.0
C385 C 0.2762 0.71516 0.45048 0.0
C386 C 0.23954 0.71827 0.4473 0.0
C387 C 0.23595 0.70865 0.33771 0.0
C388 C 0.27189 0.70516 0.33923 0.0
H389 H 0.2281 0.72463 0.48588 0.0
H390 H 0.22143 0.70747 0.29073 0.0
H391 H 0.19601 0.74769 0.46679 0.0
H392 H 0.26795 0.76202 0.32086 0.0
H393 H 0.07766 0.6905 0.36768 0.0
H394 H 0.29216 0.71871 0.4928 0.0
H395 H 0.28417 0.70086 0.29447 0.0
C396 C 0.97198 0.31719 0.1066 0.0
C397 C 0.9821 0.30453 0.12738 0.0
N398 N 0.96328 0.30135 0.18305 0.0
N399 N 0.94658 0.32215 0.14849 0.0
C400 C 0.94176 0.31217 0.19473 0.0
H401 H 0.98365 0.3227 0.06506 0.0
Co402 Co 0.92949 0.34042 0.14529 0.0
C403 C 0.91286 0.34162 0.29598 0.0
O404 O 0.94222 0.34809 0.31298 0.0
N405 N 0.91207 0.35896 0.14458 0.0
C406 C 0.90431 0.38007 0.18172 0.0
C407 C 0.92035 0.36796 0.19388 0.0
C408 C 0.89121 0.3663 0.10148 0.0
N409 N 0.88586 0.37912 0.12378 0.0
O410 O 0.88658 0.33457 0.09983 0.0
H411 H 0.93811 0.36613 0.23567 0.0
H412 H 0.88086 0.36252 0.05421 0.0
O413 O 0.9067 0.33821 0.23451 0.0
C414 C 0.89502 0.33402 0.03717 0.0
O415 O 0.92808 0.33713 0.02007 0.0
N416 N 0.97401 0.34619 0.17737 0.0
C417 C 0.04683 0.352 0.18016 0.0
C418 C 0.03194 0.34334 0.22842 0.0
C419 C -0.00469 0.34025 0.22491 0.0
C420 C 0.98846 0.35479 0.13128 0.0
C421 C 0.0246 0.35803 0.13257 0.0
H422 H 0.98471 0.33247 0.25705 0.0
H423 H 0.97242 0.35842 0.08962 0.0
H424 H 0.92385 0.31294 0.23756 0.0
H425 H 0.00244 0.29823 0.10433 0.0
H426 H 0.90626 0.38902 0.21289 0.0
H427 H 0.04897 0.33817 0.26432 0.0
H428 H 0.03562 0.36438 0.09332 0.0
C429 C 0.74611 0.49203 0.09897 0.0
C430 C 0.734 0.50453 0.11922 0.0
N431 N 0.74802 0.50729 0.18039 0.0
N432 N 0.76734 0.48668 0.1475 0.0
C433 C 0.76862 0.49651 0.19582 0.0
H434 H 0.73856 0.48689 0.05281 0.0
Co435 Co 0.78838 0.46895 0.14162 0.0
C436 C 0.80019 0.47232 0.28967 0.0
O437 O 0.76541 0.47332 0.29958 0.0
N438 N 0.81278 0.4517 0.13327 0.0
C439 C 0.85663 0.43678 0.15144 0.0
C440 C 0.8447 0.44954 0.16435 0.0
C441 C 0.80681 0.43992 0.09887 0.0
N442 N 0.83284 0.43058 0.11097 0.0
O443 O 0.82688 0.47662 0.08932 0.0
H444 H 0.85933 0.45686 0.19404 0.0
H445 H 0.78339 0.43809 0.06762 0.0
O446 O 0.81276 0.47161 0.22951 0.0
C447 C 0.81779 0.47484 0.02732 0.0
O448 O 0.78681 0.46902 0.0143 0.0
N449 N 0.74657 0.46068 0.18508 0.0
C450 C 0.68214 0.44702 0.16819 0.0
C451 C 0.68222 0.46091 0.17655 0.0
C452 C 0.71463 0.46755 0.18603 0.0
C453 C 0.74524 0.44707 0.19565 0.0
C454 C 0.71338 0.43987 0.18351 0.0
H455 H 0.71311 0.47825 0.18973 0.0
H456 H 0.76909 0.44152 0.20839 0.0
H457 H 0.78383 0.49592 0.24202 0.0
H458 H 0.71578 0.511 0.09177 0.0
H459 H 0.88109 0.4323 0.17071 0.0
H460 H 0.65784 0.46672 0.16962 0.0
H461 H 0.71364 0.42899 0.18214 0.0
C462 C 0.92847 0.50446 0.6888 0.0
C463 C 0.93794 0.51649 0.65913 0.0
N464 N 0.94593 0.51418 0.59381 0.0
N465 N 0.93015 0.49441 0.64268 0.0
C466 C 0.94097 0.50075 0.58515 0.0
H467 H 0.9216 0.50322 0.74136 0.0
Co468 Co 0.92394 0.47535 0.65754 0.0
C469 C 0.88939 0.46557 0.52852 0.0
O470 O 0.90429 0.4537 0.53435 0.0
N471 N 0.91782 0.45617 0.67219 0.0
C472 C 0.93083 0.43462 0.69265 0.0
C473 C 0.94467 0.44736 0.68448 0.0
C474 C 0.88753 0.44838 0.67509 0.0
N475 N 0.8949 0.43516 0.68633 0.0
O476 O 0.88229 0.4784 0.71439 0.0
H477 H 0.97283 0.44994 0.6876 0.0
H478 H 0.86065 0.4523 0.66872 0.0
O479 O 0.89507 0.47467 0.57328 0.0
C480 C 0.89519 0.47849 0.7747 0.0
O481 O 0.93026 0.47813 0.78193 0.0
N482 N 0.96797 0.47248 0.61463 0.0
C483 C 0.04046 0.46732 0.59589 0.0
C484 C 0.01576 0.4643 0.54436 0.0
C485 C 0.97916 0.46702 0.55474 0.0
C486 C -0.00761 0.47617 0.66267 0.0
C487 C 0.02863 0.47364 0.65456 0.0
H488 H 0.96055 0.46444 0.51535 0.0
H489 H 0.98348 0.48071 0.70927 0.0
H490 H 0.94626 0.4956 0.5382 0.0
H491 H 0.93912 0.52622 0.68381 0.0
H492 H 0.94609 0.42557 0.70231 0.0
H493 H 0.02458 0.45961 0.49775 0.0
H494 H 0.04725 0.47629 0.69468 0.0
C495 C 0.76434 0.31766 0.70769 0.0
C496 C 0.75328 0.30532 0.6833 0.0
N497 N 0.76055 0.30482 0.61704 0.0
N498 N 0.7782 0.32523 0.65713 0.0
C499 C 0.77586 0.3168 0.60251 0.0
H500 H 0.7617 0.32088 0.75958 0.0
Co501 Co 0.79845 0.34337 0.66927 0.0
C502 C 0.81438 0.34126 0.52134 0.0
O503 O 0.77983 0.34121 0.50743 0.0
N504 N 0.82126 0.36078 0.68076 0.0
C505 C 0.86858 0.37463 0.67608 0.0
C506 C 0.85708 0.3616 0.66981 0.0
C507 C 0.81177 0.37377 0.69521 0.0
N508 N 0.84027 0.38237 0.69165 0.0
O509 O 0.83582 0.33584 0.72465 0.0
H510 H 0.874 0.35319 0.65625 0.0
H511 H 0.78449 0.37695 0.70541 0.0
O512 O 0.82521 0.34146 0.58298 0.0
C513 C 0.82199 0.3379 0.78325 0.0
O514 O 0.78929 0.3429 0.78591 0.0
N515 N 0.75818 0.3514 0.62786 0.0
C516 C 0.69486 0.36578 0.60914 0.0
C517 C 0.69489 0.35377 0.64504 0.0
C518 C 0.7268 0.34704 0.65567 0.0
C519 C 0.75849 0.36285 0.58968 0.0
C520 C 0.72689 0.37032 0.57995 0.0
H521 H 0.72637 0.33897 0.69143 0.0
H522 H 0.78357 0.36678 0.57092 0.0
H523 H 0.78562 0.31896 0.55282 0.0
H524 H 0.74089 0.29732 0.71196 0.0
H525 H 0.89565 0.37827 0.66777 0.0
H526 H 0.67065 0.35013 0.66924 0.0
H527 H 0.72777 0.37974 0.55281 0.0
C528 C 0.52354 0.24686 0.95731 0.0
C529 C 0.51236 0.25933 0.93554 0.0
N530 N 0.52459 0.26123 0.87243 0.0
N531 N 0.54311 0.24075 0.90854 0.0
C532 C 0.54327 0.24989 0.85727 0.0
H533 H 0.51554 0.24224 1.00419 0.0
Co534 Co 0.55709 0.22207 0.90822 0.0
C535 C 0.58009 0.21973 0.76308 0.0
O536 O 0.55437 0.21111 0.74957 0.0
N537 N 0.57147 0.20304 0.90522 0.0
C538 C 0.5718 0.18124 0.87538 0.0
C539 C 0.55472 0.19334 0.86828 0.0
C540 C 0.59961 0.19624 0.93379 0.0
N541 N 0.59998 0.18296 0.91663 0.0
O542 O 0.59892 0.22624 0.96242 0.0
H543 H 0.53133 0.19475 0.83679 0.0
H544 H 0.61974 0.20089 0.96573 0.0
O545 O 0.58324 0.2248 0.82244 0.0
C546 C 0.58643 0.22516 0.02265 0.0
O547 O 0.55234 0.22206 0.02962 0.0
N548 N 0.51242 0.21803 0.87027 0.0
C549 C 0.43792 0.21647 0.86811 0.0
C550 C 0.45633 0.22309 0.81595 0.0
C551 C 0.49404 0.22392 0.81841 0.0
C552 C 0.49441 0.21123 0.91949 0.0
C553 C 0.45738 0.21014 0.91879 0.0
H554 H 0.50788 0.23011 0.78218 0.0
H555 H 0.50884 0.20726 0.96236 0.0
H556 H 0.55463 0.24795 0.80793 0.0
H557 H 0.49473 0.26615 0.96241 0.0
H558 H 0.56429 0.17184 0.85136 0.0
H559 H 0.44165 0.22833 0.77682 0.0
H560 H 0.44386 0.20514 0.96013 0.0
C561 C 0.73036 0.06691 0.93909 0.0
C562 C 0.74059 0.0545 0.91468 0.0
N563 N 0.7314 0.05378 0.84925 0.0
N564 N 0.71514 0.07433 0.88931 0.0
C565 C 0.71575 0.06574 0.83515 0.0
H566 H 0.73457 0.07031 0.99035 0.0
Co567 Co 0.69563 0.09245 0.90315 0.0
C568 C 0.67638 0.09066 0.75564 0.0
O569 O 0.71066 0.09049 0.73983 0.0
N570 N 0.67356 0.10984 0.91733 0.0
C571 C 0.62683 0.12394 0.91672 0.0
C572 C 0.63776 0.11095 0.90681 0.0
C573 C 0.68362 0.12258 0.93554 0.0
N574 N 0.65551 0.13136 0.93419 0.0
O575 O 0.65894 0.08501 0.96086 0.0
H576 H 0.62038 0.10274 0.89172 0.0
H577 H 0.71099 0.12547 0.94728 0.0
O578 O 0.66685 0.09078 0.81804 0.0
C579 C 0.67295 0.0871 0.01943 0.0
O580 O 0.70606 0.09172 0.02183 0.0
N581 N 0.73554 0.10053 0.85902 0.0
C582 C 0.79662 0.11671 0.8497 0.0
C583 C 0.7987 0.10384 0.87692 0.0
C584 C 0.76788 0.09612 0.88286 0.0
C585 C 0.73383 0.11248 0.82509 0.0
C586 C 0.76407 0.12094 0.82113 0.0
H587 H 0.76991 0.08729 0.91346 0.0
H588 H 0.70825 0.11621 0.80764 0.0
H589 H 0.7045 0.06783 0.78631 0.0
H590 H 0.75368 0.04659 0.94283 0.0
H591 H 0.59984 0.12778 0.90989 0.0
H592 H 0.82344 0.10027 0.89968 0.0
H593 H 0.76146 0.13091 0.80003 0.0
C594 C 0.52102 0.06872 0.33028 0.0
C595 C 0.50892 0.05621 0.34987 0.0
N596 N 0.52353 0.05331 0.41023 0.0
N597 N 0.54347 0.07379 0.37771 0.0
C598 C 0.54455 0.06404 0.42593 0.0
H599 H 0.51231 0.07408 0.28581 0.0
Co600 Co 0.56042 0.09205 0.3785 0.0
C601 C 0.57522 0.09246 0.53099 0.0
O602 O 0.54515 0.09852 0.54709 0.0
N603 N 0.57757 0.11055 0.38158 0.0
C604 C 0.58421 0.13148 0.42176 0.0
C605 C 0.56782 0.1193 0.43087 0.0
C606 C 0.59984 0.11804 0.34186 0.0
N607 N 0.60441 0.13077 0.36592 0.0
O608 O 0.60417 0.08644 0.33464 0.0
H609 H 0.5491 0.11721 0.47079 0.0
H610 H 0.61193 0.11441 0.29587 0.0
O611 O 0.58214 0.08941 0.46929 0.0
C612 C 0.5968 0.08641 0.27132 0.0
O613 O 0.56453 0.0902 0.25243 0.0
N614 N 0.51489 0.09754 0.40796 0.0
C615 C 0.44104 0.09972 0.39123 0.0
C616 C 0.45518 0.09172 0.44302 0.0
C617 C 0.49253 0.09072 0.45051 0.0
C618 C 0.50097 0.10594 0.36022 0.0
C619 C 0.46418 0.10736 0.35182 0.0
H620 H 0.50319 0.08343 0.48535 0.0
H621 H 0.51828 0.11048 0.32294 0.0
H622 H 0.55887 0.06504 0.47329 0.0
H623 H 0.48975 0.04995 0.32311 0.0
H624 H 0.58143 0.14029 0.45371 0.0
H625 H 0.43767 0.08552 0.47348 0.0
H626 H 0.45396 0.1134 0.31061 0.0
C627 C 0.72587 0.24734 0.34947 0.0
C628 C 0.73653 0.25976 0.37355 0.0
N629 N 0.73006 0.26019 0.44021 0.0
N630 N 0.71285 0.23974 0.40051 0.0
C631 C 0.71554 0.24809 0.45526 0.0
H632 H 0.72858 0.24394 0.29787 0.0
Co633 Co 0.69344 0.2217 0.38827 0.0
C634 C 0.68008 0.22292 0.53832 0.0
O635 O 0.71479 0.22299 0.55078 0.0
N636 N 0.67155 0.2042 0.37628 0.0
C637 C 0.62824 0.18886 0.38928 0.0
C638 C 0.63841 0.20186 0.40166 0.0
C639 C 0.68072 0.19219 0.34723 0.0
N640 N 0.65474 0.18267 0.35556 0.0
O641 O 0.65349 0.22923 0.33863 0.0
H642 H 0.62195 0.20923 0.42722 0.0
H643 H 0.70616 0.19035 0.3224 0.0
O644 O 0.66882 0.22306 0.47705 0.0
C645 C 0.66219 0.22786 0.2762 0.0
O646 O 0.69386 0.22277 0.26195 0.0
N647 N 0.73561 0.21369 0.42574 0.0
C648 C 0.79687 0.1975 0.42161 0.0
C649 C 0.79821 0.2108 0.39994 0.0
C650 C 0.7672 0.21853 0.40038 0.0
C651 C 0.73527 0.20137 0.45645 0.0
C652 C 0.76537 0.19288 0.45274 0.0
H653 H 0.76838 0.22783 0.37332 0.0
H654 H 0.71059 0.19744 0.47726 0.0
H655 H 0.70662 0.24572 0.50539 0.0
H656 H 0.74843 0.26781 0.34456 0.0
H657 H 0.60325 0.1842 0.40459 0.0
H658 H 0.82213 0.21473 0.37582 0.0
H659 H 0.76336 0.18262 0.47026 0.0
C660 C 0.48727 0.81713 0.09464 0.0
C661 C 0.49709 0.80526 0.12479 0.0
N662 N 0.49011 0.8062 0.19126 0.0
N663 N 0.47392 0.82571 0.14135 0.0
C664 C 0.47599 0.81868 0.20023 0.0
H665 H 0.49143 0.81958 0.04223 0.0
Co666 Co 0.46092 0.84396 0.12228 0.0
C667 C 0.41981 0.85203 0.25121 0.0
O668 O 0.42302 0.86504 0.24381 0.0
N669 N 0.44856 0.86223 0.1011 0.0
C670 C 0.45727 0.88293 0.06091 0.0
C671 C 0.47226 0.87044 0.07011 0.0
C672 C 0.41849 0.86995 0.10741 0.0
N673 N 0.42353 0.88268 0.08478 0.0
O674 O 0.42065 0.83788 0.06768 0.0
H675 H 0.49918 0.86757 0.05558 0.0
H676 H 0.39357 0.86645 0.12926 0.0
O677 O 0.43247 0.84384 0.20719 0.0
C678 C 0.43039 0.8381 1.00544 0.0
O679 O 0.46369 0.84151 0.99163 0.0
N680 N 0.50313 0.84994 0.1652 0.0
C681 C 0.5687 0.86319 0.17587 0.0
C682 C 0.54024 0.86676 0.21848 0.0
C683 C 0.50748 0.85984 0.21283 0.0
C684 C 0.53154 0.84599 0.12655 0.0
C685 C 0.56462 0.85229 0.13195 0.0
H686 H 0.48545 0.8633 0.24272 0.0
H687 H 0.52773 0.83889 0.08589 0.0
H688 H 0.46802 0.82266 0.2489 0.0
H689 H 0.50891 0.79661 0.09997 0.0
H690 H 0.47042 0.89165 0.03971 0.0
H691 H 0.54268 0.87522 0.25286 0.0
H692 H 0.5861 0.84937 0.09797 0.0
C693 C 0.26906 0.99506 0.0649 0.0
C694 C 0.25195 1.00631 0.09022 0.0
N695 N 0.26263 1.00824 0.15455 0.0
N696 N 0.29072 0.98979 0.11267 0.0
C697 C 0.28626 0.99815 0.1669 0.0
H698 H 0.26441 0.99061 0.01574 0.0
Co699 Co 0.31602 0.97306 0.10391 0.0
C700 C 0.3431 0.96855 0.24428 0.0
O701 O 0.32826 0.95657 0.24268 0.0
N702 N 0.34259 0.95618 0.09648 0.0
C703 C 0.39236 0.94354 0.09173 0.0
C704 C 0.3789 0.95632 0.0944 0.0
C705 C 0.33478 0.94272 0.09619 0.0
N706 N 0.36474 0.93492 0.0926 0.0
O707 O 0.35377 0.98219 0.05298 0.0
H708 H 0.39516 0.96519 0.09716 0.0
H709 H 0.30804 0.93858 0.1006 0.0
O710 O 0.33992 0.97633 0.19303 0.0
C711 C 0.34559 0.9812 0.99 0.0
O712 O 0.31582 0.97482 0.97401 0.0
N713 N 0.27592 0.96436 0.13935 0.0
C714 C 0.20183 0.96071 0.13744 0.0
C715 C 0.21867 0.96651 0.19409 0.0
C716 C 0.25612 0.96829 0.19402 0.0
C717 C 0.25982 0.95791 0.08634 0.0
C718 C 0.22294 0.95575 0.08491 0.0
H719 H 0.26819 0.97432 0.2333 0.0
H720 H 0.275 0.95586 0.04093 0.0
H721 H 0.29861 0.99654 0.21572 0.0
H722 H 0.23186 1.01226 0.06442 0.0
H723 H 0.42047 0.94074 0.09113 0.0
H724 H 0.20278 0.97074 0.23477 0.0
H725 H 0.21064 0.95151 0.03991 0.0
C726 C 0.50855 0.98949 0.63582 0.0
C727 C 0.52017 1.00146 0.60936 0.0
N728 N 0.494 1.00646 0.57026 0.0
N729 N 0.47498 0.98653 0.61329 0.0
C730 C 0.46653 0.99748 0.5748 0.0
H731 H 0.52429 0.98348 0.66992 0.0
Co732 Co 0.44781 0.97004 0.63324 0.0
C733 C 0.43398 0.97385 0.48443 0.0
O734 O 0.46764 0.97748 0.47631 0.0
N735 N 0.42045 0.95405 0.65151 0.0
C736 C 0.37124 0.94124 0.65865 0.0
C737 C 0.38411 0.95412 0.65241 0.0
C738 C 0.42892 0.94074 0.65721 0.0
N739 N 0.39929 0.93279 0.66158 0.0
O740 O 0.41155 0.9805 0.68126 0.0
H741 H 0.36762 0.96295 0.64539 0.0
H742 H 0.45601 0.93683 0.65511 0.0
O743 O 0.42288 0.97086 0.54393 0.0
C744 C 0.42412 0.9841 0.73913 0.0
O745 O 0.45914 0.98443 0.74702 0.0
N746 N 0.48523 0.9594 0.60103 0.0
C747 C 0.5484 0.94447 0.593 0.0
C748 C 0.52274 0.94382 0.5405 0.0
C749 C 0.49101 0.95152 0.54536 0.0
C750 C 0.50757 0.95857 0.65518 0.0
C751 C 0.53976 0.95173 0.65139 0.0
H752 H 0.47093 0.95076 0.50616 0.0
H753 H 0.5004 0.96356 0.70189 0.0
H754 H 0.44123 0.99863 0.54841 0.0
H755 H 0.54633 1.00601 0.61682 0.0
H756 H 0.34327 0.93821 0.65791 0.0
H757 H 0.52731 0.93758 0.49635 0.0
H758 H 0.55791 0.95216 0.69426 0.0
C759 C 0.31141 0.81051 0.67487 0.0
C760 C 0.30039 0.79832 0.64831 0.0
N761 N 0.29506 0.79977 0.58155 0.0
N762 N 0.31334 0.81979 0.62534 0.0
C763 C 0.30336 0.81281 0.56871 0.0
H764 H 0.31588 0.81253 0.72787 0.0
Co765 Co 0.31938 0.83887 0.63855 0.0
C766 C 0.34635 0.84909 0.50558 0.0
O767 O 0.32851 0.86026 0.51615 0.0
N768 N 0.32509 0.85817 0.65299 0.0
C769 C 0.313 0.87947 0.68211 0.0
C770 C 0.29949 0.86664 0.67654 0.0
C771 C 0.35457 0.86631 0.64651 0.0
N772 N 0.34757 0.87935 0.66296 0.0
O773 O 0.36241 0.83619 0.69254 0.0
H774 H 0.27251 0.86384 0.69015 0.0
H775 H 0.38045 0.86279 0.62892 0.0
O776 O 0.34564 0.83981 0.55061 0.0
C777 C 0.35072 0.83671 0.75366 0.0
O778 O 0.31592 0.8378 0.76305 0.0
N779 N 0.27478 0.84123 0.59817 0.0
C780 C 0.20248 0.84387 0.5687 0.0
C781 C 0.22762 0.84326 0.51621 0.0
C782 C 0.26391 0.8414 0.53228 0.0
C783 C 0.25008 0.84086 0.6487 0.0
C784 C 0.21388 0.84233 0.63528 0.0
H785 H 0.28256 0.83944 0.49226 0.0
H786 H 0.25869 0.83967 0.70035 0.0
H787 H 0.30072 0.81727 0.5193 0.0
H788 H 0.29518 0.78921 0.67639 0.0
H789 H 0.29843 0.8883 0.69876 0.0
H790 H 0.21916 0.84383 0.46391 0.0
H791 H 0.19487 0.84238 0.67674 0.0
C792 C 0.50713 0.7427 0.41914 0.0
C793 C 0.49532 0.7554 0.40338 0.0
N794 N 0.52036 0.7614 0.36498 0.0
N795 N 0.53954 0.74042 0.39049 0.0
C796 C 0.54762 0.75236 0.36072 0.0
H797 H 0.49163 0.73519 0.44563 0.0
Co798 Co 0.56046 0.72262 0.38604 0.0
C799 C 0.58026 0.73254 0.23999 0.0
O800 O 0.55609 0.74202 0.23263 0.0
N801 N 0.58063 0.70487 0.37921 0.0
C802 C 0.59093 0.68517 0.32836 0.0
C803 C 0.57764 0.69787 0.32061 0.0
C804 C 0.59661 0.69599 0.42209 0.0
N805 N 0.60273 0.68385 0.3921 0.0
O806 O 0.60159 0.72865 0.43787 0.0
H807 H 0.56532 0.70163 0.27493 0.0
H808 H 0.60299 0.69823 0.47422 0.0
O809 O 0.58251 0.72593 0.29545 0.0
C810 C 0.58834 0.72855 0.49796 0.0
O811 O 0.55387 0.72599 0.50413 0.0
N812 N 0.5178 0.71602 0.35036 0.0
C813 C 0.44528 0.70999 0.34664 0.0
C814 C 0.46124 0.71702 0.2931 0.0
C815 C 0.49781 0.7202 0.29672 0.0
C816 C 0.50312 0.70805 0.39889 0.0
C817 C 0.46686 0.70495 0.3982 0.0
H818 H 0.50866 0.72699 0.26049 0.0
H819 H 0.51897 0.70516 0.4423 0.0
H820 H 0.57211 0.75418 0.33294 0.0
H821 H 0.46888 0.75944 0.41382 0.0
H822 H 0.59131 0.67731 0.29025 0.0
H823 H 0.44492 0.72115 0.25285 0.0
H824 H 0.45529 0.69957 0.44041 0.0
C825 C 0.73547 0.572 0.40544 0.0
C826 C 0.74775 0.55987 0.381 0.0
N827 N 0.72159 0.55424 0.3436 0.0
N828 N 0.70172 0.57435 0.38268 0.0
C829 C 0.69363 0.56296 0.34714 0.0
H830 H 0.75092 0.57874 0.43697 0.0
Co831 Co 0.67525 0.5909 0.39636 0.0
C832 C 0.6548 0.58435 0.25073 0.0
O833 O 0.68675 0.57986 0.23399 0.0
N834 N 0.64892 0.60722 0.40941 0.0
C835 C 0.60399 0.62187 0.39767 0.0
C836 C 0.61427 0.60869 0.39031 0.0
C837 C 0.65889 0.61981 0.42946 0.0
N838 N 0.63209 0.62894 0.42163 0.0
O839 O 0.63995 0.58152 0.44829 0.0
H840 H 0.59766 0.60075 0.36967 0.0
H841 H 0.68563 0.62245 0.44635 0.0
O842 O 0.64844 0.58833 0.31109 0.0
C843 C 0.65201 0.58025 0.50854 0.0
O844 O 0.686 0.58306 0.51968 0.0
N845 N 0.71176 0.60066 0.35621 0.0
C846 C 0.77732 0.61256 0.33203 0.0
C847 C 0.75237 0.61126 0.27933 0.0
C848 C 0.71925 0.60516 0.29263 0.0
C849 C 0.73401 0.60365 0.40869 0.0
C850 C 0.76714 0.60943 0.39779 0.0
H851 H 0.7009 0.60382 0.2514 0.0
H852 H 0.72659 0.6008 0.45939 0.0
H853 H 0.66818 0.56125 0.32237 0.0
H854 H 0.77438 0.55572 0.38803 0.0
H855 H 0.57817 0.62609 0.384 0.0
H856 H 0.75945 0.61397 0.22812 0.0
H857 H 0.7856 0.61061 0.43986 0.0
C858 C 0.51231 0.56843 0.81712 0.0
C859 C 0.50063 0.5558 0.83526 0.0
N860 N 0.51575 0.5526 0.89482 0.0
N861 N 0.53511 0.57331 0.86455 0.0
C862 C 0.53705 0.56324 0.91077 0.0
H863 H 0.50222 0.57412 0.77475 0.0
Co864 Co 0.54997 0.59185 0.8704 0.0
C865 C 0.56264 0.59356 0.0199 0.0
O866 O 0.53621 0.60212 0.02739 0.0
N867 N 0.56481 0.61076 0.8779 0.0
C868 C 0.5636 0.63249 0.90858 0.0
C869 C 0.54714 0.62029 0.91436 0.0
C870 C 0.59273 0.61782 0.85052 0.0
N871 N 0.59218 0.63106 0.86836 0.0
O872 O 0.59407 0.58747 0.82488 0.0
H873 H 0.52282 0.6188 0.94286 0.0
H874 H 0.61295 0.61344 0.81799 0.0
O875 O 0.57038 0.58873 0.9615 0.0
C876 C 0.58273 0.58834 0.76372 0.0
O877 O 0.5492 0.59196 0.75391 0.0
N878 N 0.50423 0.59602 0.89976 0.0
C879 C 0.43054 0.59813 0.89062 0.0
C880 C 0.44602 0.59066 0.94305 0.0
C881 C 0.48344 0.58951 0.94607 0.0
C882 C 0.48896 0.60364 0.85029 0.0
C883 C 0.45223 0.60505 0.84561 0.0
H884 H 0.49535 0.58259 0.9815 0.0
H885 H 0.50538 0.608 0.81116 0.0
H886 H 0.55206 0.56395 0.95717 0.0
H887 H 0.48027 0.5499 0.80955 0.0
H888 H 0.55497 0.64184 0.9316 0.0
H889 H 0.42937 0.58491 0.97725 0.0
H890 H 0.44075 0.61063 0.80392 0.0
C891 C 0.74562 0.74205 0.84261 0.0
C892 C 0.75834 0.75398 0.86962 0.0
N893 N 0.73585 0.75795 0.91899 0.0
N894 N 0.71509 0.73842 0.87456 0.0
C895 C 0.70984 0.7484 0.92093 0.0
H896 H 0.75846 0.73618 0.80336 0.0
Co897 Co 0.68922 0.72195 0.86093 0.0
C898 C 0.66027 0.71672 0.99893 0.0
O899 O 0.67001 0.70406 0.99475 0.0
N900 N 0.66214 0.70529 0.84935 0.0
C901 C 0.61317 0.69215 0.84689 0.0
C902 C 0.62581 0.7051 0.85131 0.0
C903 C 0.67075 0.69195 0.84387 0.0
N904 N 0.64141 0.68384 0.84255 0.0
O905 O 0.65212 0.73154 0.813 0.0
H906 H 0.60918 0.71381 0.85832 0.0
H907 H 0.69772 0.68799 0.84352 0.0
O908 O 0.66645 0.72466 0.94965 0.0
C909 C 0.66288 0.73274 0.75175 0.0
O910 O 0.69551 0.7286 0.73739 0.0
N911 N 0.72805 0.71272 0.89453 0.0
C912 C 0.79796 0.70338 0.90059 0.0
C913 C 0.78205 0.70925 0.95806 0.0
C914 C 0.74672 0.71415 0.95352 0.0
C915 C 0.74347 0.70693 0.8393 0.0
C916 C 0.77787 0.70182 0.84178 0.0
H917 H 0.73589 0.72015 0.99421 0.0
H918 H 0.72942 0.70697 0.79142 0.0
H919 H 0.68784 0.7486 0.95657 0.0
H920 H 0.78265 0.7592 0.85514 0.0
H921 H 0.58531 0.68902 0.8487 0.0
H922 H 0.79779 0.71114 1.00319 0.0
H923 H 0.78986 0.69778 0.7961 0.0
C924 C 0.47582 0.31403 0.5962 0.0
C925 C 0.48649 0.30241 0.62789 0.0
N926 N 0.48231 0.30406 0.69477 0.0
N927 N 0.46461 0.32317 0.64236 0.0
C928 C 0.46892 0.31669 0.70252 0.0
H929 H 0.47785 0.31584 0.54273 0.0
Co930 Co 0.4494 0.34117 0.61927 0.0
C931 C 0.41964 0.34632 0.76172 0.0
O932 O 0.44416 0.35521 0.77761 0.0
N933 N 0.43336 0.35877 0.59381 0.0
C934 C 0.43642 0.37845 0.54066 0.0
C935 C 0.45086 0.36577 0.54576 0.0
C936 C 0.40741 0.36741 0.6159 0.0
N937 N 0.40912 0.37958 0.58487 0.0
O938 O 0.41084 0.33373 0.56362 0.0
H939 H 0.4739 0.36206 0.51819 0.0
H940 H 0.38866 0.36509 0.65575 0.0
O941 O 0.41895 0.34096 0.70246 0.0
C942 C 0.42087 0.33322 0.5015 0.0
O943 O 0.45412 0.33656 0.48705 0.0
N944 N 0.49111 0.34902 0.66352 0.0
C945 C 0.55619 0.36317 0.66304 0.0
C946 C 0.5244 0.36971 0.6801 0.0
C947 C 0.49228 0.36243 0.68087 0.0
C948 C 0.52297 0.34244 0.65278 0.0
C949 C 0.55564 0.34927 0.65333 0.0
H950 H 0.46814 0.36817 0.68815 0.0
H951 H 0.5239 0.33219 0.63571 0.0
H952 H 0.46308 0.32118 0.75103 0.0
H953 H 0.49735 0.29351 0.60378 0.0
H954 H 0.44578 0.38639 0.50788 0.0
H955 H 0.52393 0.3805 0.68748 0.0
H956 H 0.57996 0.34394 0.6396 0.0
C957 C 0.26161 0.49323 0.56771 0.0
C958 C 0.24423 0.5047 0.58997 0.0
N959 N 0.25284 0.50683 0.65527 0.0
N960 N 0.2814 0.48801 0.61841 0.0
C961 C 0.27561 0.49666 0.67111 0.0
H962 H 0.25849 0.48865 0.51841 0.0
Co963 Co 0.30643 0.47104 0.61602 0.0
C964 C 0.32624 0.4666 0.75867 0.0
O965 O 0.31341 0.45436 0.75185 0.0
N966 N 0.33298 0.45413 0.6158 0.0
C967 C 0.38234 0.44163 0.63154 0.0
C968 C 0.36814 0.45433 0.63335 0.0
C969 C 0.3265 0.44075 0.60444 0.0
N970 N 0.35629 0.43302 0.61337 0.0
O971 O 0.34683 0.47949 0.57083 0.0
H972 H 0.3827 0.46325 0.64838 0.0
H973 H 0.30066 0.43657 0.59106 0.0
O974 O 0.32495 0.47466 0.70838 0.0
C975 C 0.34014 0.47772 0.50767 0.0
O976 O 0.31002 0.47169 0.49076 0.0
N977 N 0.2647 0.46275 0.6461 0.0
C978 C 0.191 0.45907 0.63731 0.0
C979 C 0.20603 0.46546 0.694 0.0
C980 C 0.24333 0.46721 0.69753 0.0
C981 C 0.25027 0.4558 0.59304 0.0
C982 C 0.21354 0.45352 0.5885 0.0
H983 H 0.25414 0.47368 0.73634 0.0
H984 H 0.26658 0.45355 0.54936 0.0
H985 H 0.28635 0.49523 0.72137 0.0
H986 H 0.22535 0.51068 0.56128 0.0
H987 H 0.40971 0.43886 0.64387 0.0
H988 H 0.18896 0.47016 0.73158 0.0
H989 H 0.20253 0.4489 0.54328 0.0
C990 C 0.45558 0.50017 0.1653 0.0
C991 C 0.46606 0.51196 0.13495 0.0
N992 N 0.47038 0.50962 0.06857 0.0
N993 N 0.4529 0.49026 0.11853 0.0
C994 C 0.46214 0.49642 0.05962 0.0
H995 H 0.45113 0.49899 0.21876 0.0
Co996 Co 0.44289 0.47162 0.13671 0.0
C997 C 0.39711 0.46376 0.01188 0.0
O998 O 0.40022 0.4507 0.01725 0.0
N999 N 0.43354 0.45311 0.15697 0.0
C1000 C 0.44665 0.43242 0.19269 0.0
C1001 C 0.45929 0.4453 0.18467 0.0
C1002 C 0.40452 0.44479 0.15251 0.0
N1003 N 0.4123 0.43204 0.17186 0.0
O1004 O 0.40389 0.4765 0.19689 0.0
H1005 H 0.48599 0.44877 0.19744 0.0
H1006 H 0.37839 0.44788 0.13431 0.0
O1007 O 0.41174 0.47173 0.055 0.0
C1008 C 0.4177 0.47635 0.25639 0.0
O1009 O 0.45254 0.47436 0.26159 0.0
N1010 N 0.48404 0.46654 0.08768 0.0
C1011 C 0.54897 0.45302 0.07475 0.0
C1012 C 0.5191 0.44889 0.03696 0.0
C1013 C 0.48667 0.45593 0.0437 0.0
C1014 C 0.51396 0.47132 0.11967 0.0
C1015 C 0.54676 0.46479 0.11332 0.0
H1016 H 0.46332 0.4518 0.01974 0.0
H1017 H 0.51169 0.47928 0.15674 0.0
H1018 H 0.46359 0.49129 0.01141 0.0
H1019 H 0.47059 0.52153 0.15986 0.0
H1020 H 0.46184 0.42386 0.21055 0.0
H1021 H 0.5201 0.43978 1.00681 0.0
H1022 H 0.56947 0.46821 0.1432 0.0
C1023 C 0.25531 0.32165 0.17359 0.0
C1024 C 0.23897 0.30994 0.15268 0.0
N1025 N 0.25778 0.30473 0.10083 0.0
N1026 N 0.28474 0.32409 0.13572 0.0
C1027 C 0.2863 0.31317 0.09369 0.0
H1028 H 0.24488 0.32841 0.21173 0.0
Co1029 Co 0.31144 0.34083 0.14262 0.0
C1030 C 0.32542 0.33456 0.98875 0.0
O1031 O 0.29555 0.32806 0.975 0.0
N1032 N 0.33879 0.35734 0.14819 0.0
C1033 C 0.38868 0.3699 0.14593 0.0
C1034 C 0.37504 0.3571 0.14267 0.0
C1035 C 0.33116 0.37075 0.15324 0.0
N1036 N 0.3612 0.37852 0.15277 0.0
O1037 O 0.35055 0.33166 0.1892 0.0
H1038 H 0.3909 0.34813 0.13488 0.0
H1039 H 0.30435 0.37488 0.15584 0.0
O1040 O 0.33202 0.3389 0.04898 0.0
C1041 C 0.33998 0.33191 0.25119 0.0
O1042 O 0.30645 0.33517 0.26328 0.0
N1043 N 0.27072 0.35023 0.11491 0.0
C1044 C 0.19827 0.35635 0.12419 0.0
C1045 C 0.21315 0.35255 0.06191 0.0
C1046 C 0.24978 0.34943 0.05844 0.0
C1047 C 0.25703 0.3554 0.17344 0.0
C1048 C 0.2209 0.35857 0.17922 0.0
H1049 H 0.25979 0.34538 0.01244 0.0
H1050 H 0.27358 0.3558 0.21831 0.0
H1051 H 0.30744 0.31146 0.0574 0.0
H1052 H 0.21345 0.30612 0.17053 0.0
H1053 H 0.4167 0.37274 0.14188 0.0
H1054 H 0.19605 0.35073 0.01844 0.0
H1055 H 0.21017 0.36146 0.22804 0.0
C1056 C 0.09085 0.20673 0.08113 0.0
C1057 C 0.11432 0.21721 0.06006 0.0
C1058 C 0.09663 0.23029 0.16089 0.0
C1059 C 0.07605 0.21925 0.18459 0.0
N1060 N 0.06074 0.19581 0.17455 0.0
N1061 N 0.14558 0.2377 0.08963 0.0
C1062 C 0.07557 0.20709 0.14707 0.0
C1063 C 0.11878 0.2287 0.10249 0.0
N1064 N 0.08139 0.19678 0.03677 0.0
N1065 N 0.09497 0.24235 0.19395 0.0
H1066 H 0.16356 0.23646 0.04998 0.0
H1067 H 0.15238 0.24555 0.12228 0.0
H1068 H 0.08085 0.24366 0.23893 0.0
H1069 H 0.10579 0.25119 0.17457 0.0
H1070 H 0.06196 0.18954 0.04729 0.0
H1071 H 0.08974 0.19671 0.9866 0.0
H1072 H 0.06264 0.18634 0.15212 0.0
H1073 H 0.05009 0.19566 0.22324 0.0
C1074 C 0.12318 0.08537 0.15154 0.0
C1075 C 0.11739 0.09557 0.20095 0.0
C1076 C 0.07138 0.10562 0.12783 0.0
C1077 C 0.07425 0.09464 0.08194 0.0
N1078 N 0.09933 0.07285 0.0559 0.0
N1079 N 0.08099 0.11401 0.24115 0.0
C1080 C 0.09919 0.08416 0.09535 0.0
C1081 C 0.09003 0.10528 0.19045 0.0
N1082 N 0.15267 0.07727 0.15617 0.0
N1083 N 0.0521 0.11677 0.11044 0.0
H1084 H 0.09372 0.1141 0.28793 0.0
H1085 H 0.05854 0.12025 0.23928 0.0
H1086 H 0.03861 0.11765 0.06469 0.0
H1087 H 0.0526 0.1257 0.13816 0.0
H1088 H 0.16048 0.07061 0.11816 0.0
H1089 H 0.17131 0.07815 0.19518 0.0
H1090 H 0.11393 0.06425 0.06794 0.0
H1091 H 0.08264 0.0716 0.01402 0.0
C1092 C 0.90376 0.84392 0.88197 0.0
C1093 C 0.89639 0.83725 0.81963 0.0
C1094 C 0.84252 0.82747 0.87249 0.0
C1095 C 0.85176 0.83391 0.93441 0.0
N1096 N 0.90354 0.83993 1.00131 0.0
N1097 N 0.86412 0.81872 0.76587 0.0
C1098 C 0.88629 0.83952 0.94073 0.0
C1099 C 0.86724 0.82784 0.8174 0.0
N1100 N 0.92548 0.85497 0.88571 0.0
N1101 N 0.81086 0.82061 0.86702 0.0
H1102 H 0.88276 0.81769 0.72727 0.0
H1103 H 0.84525 0.81098 0.76573 0.0
H1104 H 0.79495 0.81837 0.90885 0.0
H1105 H 0.8003 0.81735 0.82094 0.0
H1106 H 0.92977 0.8601 0.93118 0.0
H1107 H 0.93442 0.86012 0.8432 0.0
H1108 H 0.92972 0.8436 1.00622 0.0
H1109 H 0.89373 0.83477 0.04317 0.0
C1110 C 0.86077 0.97805 0.85907 0.0
C1111 C 0.83024 0.96956 0.851 0.0
C1112 C 0.84028 0.96067 0.96499 0.0
C1113 C 0.87313 0.9678 0.96969 0.0
N1114 N 0.91765 0.98179 0.91646 0.0
N1115 N 0.79685 0.95027 0.89056 0.0
C1116 C 0.88423 0.97612 0.91544 0.0
C1117 C 0.82159 0.96017 0.90246 0.0
N1118 N 0.86677 0.98827 0.81463 0.0
N1119 N 0.82633 0.95463 0.02092 0.0
H1120 H 0.78407 0.94894 0.84408 0.0
H1121 H 0.7922 0.94242 0.92414 0.0
H1122 H 0.83862 0.9553 0.06818 0.0
H1123 H 0.80083 0.95029 0.02191 0.0
H1124 H 0.88632 0.99563 0.82223 0.0
H1125 H 0.85025 0.99013 0.7732 0.0
H1126 H 0.92879 0.98674 0.87521 0.0
H1127 H 0.93542 0.98058 0.9567 0.0
C1128 C 0.09653 0.72356 0.5553 0.0
C1129 C 0.13435 0.72252 0.55905 0.0
C1130 C 0.12968 0.72442 0.68293 0.0
C1131 C 0.09178 0.72249 0.67898 0.0
N1132 N 0.04162 0.71613 0.60652 0.0
N1133 N 0.1872 0.72048 0.6294 0.0
C1134 C 0.07581 0.72094 0.61378 0.0
C1135 C 0.15103 0.72241 0.62383 0.0
N1136 N 0.08006 0.72709 0.49643 0.0
N1137 N 0.14534 0.72892 0.74129 0.0
H1138 H 0.20402 0.71968 0.58763 0.0
H1139 H 0.19995 0.71883 0.67558 0.0
H1140 H 0.13078 0.73171 0.78397 0.0
H1141 H 0.17244 0.73152 0.7444 0.0
H1142 H 0.05242 0.72871 0.49303 0.0
H1143 H 0.09439 0.73033 0.45451 0.0
H1144 H 0.03035 0.71396 0.5594 0.0
H1145 H 0.02649 0.71247 0.64658 0.0
C1146 C 0.12145 0.58505 0.66136 0.0
C1147 C 0.10759 0.59308 0.71491 0.0
C1148 C 0.05494 0.59865 0.64637 0.0
C1149 C 0.06729 0.58979 0.59486 0.0
N1150 N 0.10929 0.57292 0.55706 0.0
N1151 N 0.05819 0.60529 0.76407 0.0
C1152 C 0.09977 0.58253 0.60328 0.0
C1153 C 0.07346 0.59923 0.70901 0.0
N1154 N 0.1558 0.58026 0.6648 0.0
N1155 N 0.02631 0.60694 0.63457 0.0
H1156 H 0.07075 0.60569 0.81116 0.0
H1157 H 0.03174 0.6087 0.76499 0.0
H1158 H 0.01197 0.60699 0.58929 0.0
H1159 H 0.0188 0.61468 0.66724 0.0
H1160 H 0.1689 0.57569 0.62434 0.0
H1161 H 0.17226 0.58174 0.70676 0.0
H1162 H 0.13041 0.56622 0.56433 0.0
H1163 H 0.09436 0.57093 0.51352 0.0
C1164 C 0.86732 0.33098 0.45939 0.0
C1165 C 0.84012 0.34098 0.46383 0.0
C1166 C 0.85508 0.34858 0.34936 0.0
C1167 C 0.88512 0.33986 0.34869 0.0
N1168 N 0.92193 0.32334 0.40426 0.0
N1169 N 0.81324 0.36111 0.4179 0.0
C1170 C 0.89187 0.33123 0.40418 0.0
C1171 C 0.83526 0.35023 0.40995 0.0
N1172 N 0.86875 0.32087 0.50587 0.0
N1173 N 0.84541 0.35539 0.2923 0.0
H1174 H 0.79921 0.3631 0.46219 0.0
H1175 H 0.81189 0.36898 0.38345 0.0
H1176 H 0.85924 0.35458 0.24684 0.0
H1177 H 0.8215 0.36076 0.28802 0.0
H1178 H 0.88536 0.31251 0.50094 0.0
H1179 H 0.85121 0.32018 0.54664 0.0
H1180 H 0.93082 0.3181 0.44652 0.0
H1181 H 0.93912 0.32258 0.36278 0.0
C1182 C 0.81593 0.46052 0.39735 0.0
C1183 C 0.82411 0.47067 0.34948 0.0
C1184 C 0.87685 0.4771 0.41714 0.0
C1185 C 0.86594 0.46811 0.46884 0.0
N1186 N 0.82118 0.453 0.51299 0.0
N1187 N 0.85966 0.49 0.31868 0.0
C1188 C 0.83429 0.46034 0.46032 0.0
C1189 C 0.85383 0.47937 0.36069 0.0
N1190 N 0.79191 0.45058 0.38138 0.0
N1191 N 0.91005 0.48292 0.41989 0.0
H1192 H 0.84387 0.49191 0.27629 0.0
H1193 H 0.87836 0.49754 0.32897 0.0
H1194 H 0.9281 0.48107 0.45887 0.0
H1195 H 0.92102 0.48845 0.3804 0.0
H1196 H 0.78774 0.44217 0.41155 0.0
H1197 H 0.77909 0.44991 0.3346 0.0
H1198 H 0.79626 0.44822 0.51186 0.0
H1199 H 0.83352 0.45281 0.56027 0.0
C1200 C 0.64039 0.21525 0.71175 0.0
C1201 C 0.60746 0.22233 0.70988 0.0
C1202 C 0.62424 0.23153 0.59905 0.0
C1203 C 0.6544 0.22273 0.59653 0.0
N1204 N 0.68562 0.20382 0.64594 0.0
N1205 N 0.56611 0.23644 0.649 0.0
C1206 C 0.66113 0.21399 0.65186 0.0
C1207 C 0.59876 0.23022 0.65255 0.0
N1208 N 0.65201 0.20965 0.77067 0.0
N1209 N 0.62076 0.24158 0.55269 0.0
H1210 H 0.54776 0.23636 0.68877 0.0
H1211 H 0.55647 0.241 0.60528 0.0
H1212 H 0.63944 0.24331 0.51458 0.0
H1213 H 0.60131 0.24908 0.55617 0.0
H1214 H 0.67776 0.20568 0.77638 0.0
H1215 H 0.63743 0.2102 0.81552 0.0
H1216 H 0.68889 0.19642 0.68252 0.0
H1217 H 0.69951 0.20175 0.60143 0.0
C1218 C 0.59602 0.08203 0.64037 0.0
C1219 C 0.60281 0.09073 0.58503 0.0
C1220 C 0.6541 0.10042 0.64629 0.0
C1221 C 0.64944 0.09096 0.69931 0.0
N1222 N 0.61953 0.07107 0.74051 0.0
N1223 N 0.64298 0.10626 0.52976 0.0
C1224 C 0.62125 0.08132 0.69486 0.0
C1225 C 0.63342 0.09923 0.58611 0.0
N1226 N 0.56539 0.07443 0.6409 0.0
N1227 N 0.67686 0.11109 0.65477 0.0
H1228 H 0.62846 0.10599 0.48485 0.0
H1229 H 0.66737 0.11133 0.52541 0.0
H1230 H 0.69154 0.11275 0.69877 0.0
H1231 H 0.67821 0.11913 0.62134 0.0
H1232 H 0.55658 0.06917 0.68312 0.0
H1233 H 0.54767 0.07396 0.60003 0.0
H1234 H 0.60212 0.06293 0.73558 0.0
H1235 H 0.63756 0.07006 0.78047 0.0
C1236 C 0.34541 0.84959 0.37697 0.0
C1237 C 0.36463 0.84715 0.4386 0.0
C1238 C 0.42054 0.84469 0.37264 0.0
C1239 C 0.40099 0.84719 0.31248 0.0
N1240 N 0.34454 0.84777 0.2545 0.0
N1241 N 0.41999 0.84038 0.49325 0.0
C1242 C 0.3633 0.84817 0.31397 0.0
C1243 C 0.40193 0.84384 0.4357 0.0
N1244 N 0.31054 0.85392 0.37765 0.0
N1245 N 0.45718 0.84387 0.36973 0.0
H1246 H 0.40886 0.84094 0.54138 0.0
H1247 H 0.44574 0.83629 0.49326 0.0
H1248 H 0.47116 0.84377 0.32408 0.0
H1249 H 0.47385 0.84383 0.41199 0.0
H1250 H 0.29742 0.85757 0.335 0.0
H1251 H 0.29508 0.85502 0.42075 0.0
H1252 H 0.31666 0.84695 0.25188 0.0
H1253 H 0.35721 0.84677 0.2077 0.0
C1254 C 0.37263 0.97659 0.42667 0.0
C1255 C 0.40972 0.97303 0.42332 0.0
C1256 C 0.40362 0.9713 0.29973 0.0
C1257 C 0.36578 0.97225 0.30444 0.0
N1258 N 0.31358 0.97424 0.37593 0.0
N1259 N 0.45693 0.96312 0.35466 0.0
C1260 C 0.35005 0.97434 0.3691 0.0
C1261 C 0.4243 0.96933 0.35925 0.0
N1262 N 0.35913 0.98281 0.48283 0.0
N1263 N 0.42013 0.97236 0.2386 0.0
H1264 H 0.47168 0.96006 0.39656 0.0
H1265 H 0.46696 0.95932 0.30924 0.0
H1266 H 0.40603 0.97492 0.1952 0.0
H1267 H 0.448 0.97264 0.23326 0.0
H1268 H 0.33306 0.9866 0.48514 0.0
H1269 H 0.37495 0.98569 0.52389 0.0
H1270 H 0.30083 0.97419 0.42279 0.0
H1271 H 0.29624 0.97331 0.33485 0.0
C1272 C 0.65787 0.72116 0.12528 0.0
C1273 C 0.64096 0.72155 0.06064 0.0
C1274 C 0.58382 0.72692 0.11575 0.0
C1275 C 0.60146 0.72829 0.17929 0.0
N1276 N 0.65734 0.72918 0.2413 0.0
N1277 N 0.58903 0.72801 0.99455 0.0
C1278 C 0.63909 0.72604 0.18332 0.0
C1279 C 0.60446 0.72555 0.05591 0.0
N1280 N 0.69186 0.71615 0.13166 0.0
N1281 N 0.54722 0.726 0.11241 0.0
H1282 H 0.60277 0.72717 0.94913 0.0
H1283 H 0.5636 0.73228 0.98943 0.0
H1284 H 0.5309 0.72579 0.15495 0.0
H1285 H 0.5334 0.72364 0.06803 0.0
H1286 H 0.70379 0.71418 0.17824 0.0
H1287 H 0.70724 0.71303 0.09062 0.0
H1288 H 0.68528 0.72906 0.24477 0.0
H1289 H 0.64492 0.73319 0.28402 0.0
C1290 C 0.60565 0.60173 0.10807 0.0
C1291 C 0.58587 0.59095 0.07926 0.0
C1292 C 0.6106 0.5757 0.16419 0.0
C1293 C 0.62808 0.58672 0.19625 0.0
N1294 N 0.63277 0.61088 0.20916 0.0
N1295 N 0.56033 0.5689 0.09415 0.0
C1296 C 0.62266 0.59995 0.17159 0.0
C1297 C 0.58576 0.57822 0.1111 0.0
N1298 N 0.609 0.61359 0.07407 0.0
N1299 N 0.61735 0.56286 0.18458 0.0
H1300 H 0.53946 0.57104 0.06072 0.0
H1301 H 0.55724 0.55982 0.11949 0.0
H1302 H 0.63406 0.56063 0.22527 0.0
H1303 H 0.60816 0.55444 0.15812 0.0
H1304 H 0.62623 0.62128 0.0896 0.0
H1305 H 0.59734 0.61524 0.02689 0.0
H1306 H 0.62642 0.62071 0.1958 0.0
H1307 H 0.64355 0.61013 0.25747 0.0
C1308 C 0.33626 0.34365 0.87173 0.0
C1309 C 0.35022 0.33759 0.93133 0.0
C1310 C 0.40988 0.33672 0.87825 0.0
C1311 C 0.39507 0.34176 0.81678 0.0
N1312 N 0.34228 0.34718 0.75135 0.0
N1313 N 0.39898 0.32603 0.98634 0.0
C1314 C 0.35764 0.34422 0.81224 0.0
C1315 C 0.38673 0.33352 0.93336 0.0
N1316 N 0.30326 0.34966 0.87295 0.0
N1317 N 0.44618 0.33497 0.88428 0.0
H1318 H 0.38291 0.32334 0.0272 0.0
H1319 H 0.42413 0.32145 0.98714 0.0
H1320 H 0.46398 0.33596 0.84404 0.0
H1321 H 0.45896 0.33318 0.93024 0.0
H1322 H 0.29328 0.35545 0.83347 0.0
H1323 H 0.28761 0.35024 0.9163 0.0
H1324 H 0.31458 0.34765 0.74397 0.0
H1325 H 0.35682 0.34778 0.70662 0.0
C1326 C 0.39763 0.4724 0.89269 0.0
C1327 C 0.37803 0.46899 0.95159 0.0
C1328 C 0.32235 0.46791 0.88564 0.0
C1329 C 0.34218 0.47052 0.82552 0.0
N1330 N 0.39632 0.47961 0.77589 0.0
N1331 N 0.32142 0.46731 0.00859 0.0
C1332 C 0.37899 0.47431 0.83041 0.0
C1333 C 0.34017 0.46807 0.94938 0.0
N1334 N 0.4343 0.47299 0.89541 0.0
N1335 N 0.28661 0.46485 0.88153 0.0
H1336 H 0.33412 0.46744 0.05569 0.0
H1337 H 0.29353 0.4678 0.01163 0.0
H1338 H 0.27198 0.46568 0.83692 0.0
H1339 H 0.27165 0.46107 0.92155 0.0
H1340 H 0.45061 0.47362 0.85286 0.0
H1341 H 0.44865 0.47206 0.94042 0.0
H1342 H 0.42211 0.48365 0.77833 0.0
H1343 H 0.38381 0.48136 0.72978 0.0
C1344 C 0.85019 0.18267 0.45034 0.0
C1345 C 0.82693 0.18843 0.40156 0.0
C1346 C 0.87073 0.18291 0.31292 0.0
C1347 C 0.89682 0.18155 0.36413 0.0
N1348 N 0.90415 0.16935 0.4674 0.0
N1349 N 0.81056 0.19033 0.28375 0.0
C1350 C 0.88392 0.17768 0.42837 0.0
C1351 C 0.83556 0.18713 0.33159 0.0
N1352 N 0.84182 0.18299 0.5174 0.0
N1353 N 0.87834 0.17856 0.24921 0.0
H1354 H 0.78388 0.19244 0.29617 0.0
H1355 H 0.81649 0.19116 0.23253 0.0
H1356 H 0.90216 0.17339 0.23903 0.0
H1357 H 0.8597 0.17841 0.2099 0.0
H1358 H 0.85994 0.18014 0.55493 0.0
H1359 H 0.81765 0.18681 0.53568 0.0
H1360 H 0.89513 0.1654 0.51302 0.0
H1361 H 0.92872 0.16562 0.44992 0.0
C1362 C 0.39213 0.08754 0.32907 0.0
C1363 C 0.40296 0.09859 0.37021 0.0
C1364 C 0.34287 0.1084 0.36085 0.0
C1365 C 0.33088 0.09645 0.32867 0.0
N1366 N 0.34276 0.07453 0.28209 0.0
N1367 N 0.38928 0.11937 0.42767 0.0
C1368 C 0.35528 0.08605 0.31188 0.0
C1369 C 0.37859 0.10908 0.38616 0.0
N1370 N 0.4172 0.07865 0.3054 0.0
N1371 N 0.31977 0.119 0.36745 0.0
H1372 H 0.41533 0.12016 0.44691 0.0
H1373 H 0.37193 0.12663 0.44695 0.0
H1374 H 0.29343 0.11867 0.34927 0.0
H1375 H 0.32735 0.12844 0.38532 0.0
H1376 H 0.41164 0.07123 0.26958 0.0
H1377 H 0.44441 0.07925 0.3177 0.0
H1378 H 0.35799 0.06583 0.27654 0.0
H1379 H 0.31629 0.07352 0.26529 0.0
C1380 C 0.85378 0.12739 0.80993 0.0
C1381 C 0.82787 0.12576 0.86132 0.0
C1382 C 0.87415 0.12783 0.94856 0.0
C1383 C 0.90035 0.12691 0.89716 0.0
N1384 N 0.91648 0.13179 0.7827 0.0
N1385 N 0.81072 0.13032 0.97586 0.0
C1386 C 0.89036 0.1291 0.82897 0.0
C1387 C 0.83732 0.12835 0.92954 0.0
N1388 N 0.84383 0.1261 0.74384 0.0
N1389 N 0.8843 0.12698 0.01466 0.0
H1390 H 0.78367 0.13045 0.96155 0.0
H1391 H 0.81548 0.13294 0.0261 0.0
H1392 H 0.91126 0.1269 0.02918 0.0
H1393 H 0.86626 0.12603 0.05449 0.0
H1394 H 0.86201 0.12568 0.70396 0.0
H1395 H 0.81697 0.12512 0.7294 0.0
H1396 H 0.91121 0.13414 0.73245 0.0
H1397 H 0.94341 0.13274 0.79711 0.0
C1398 C 0.38391 0.22828 0.91389 0.0
C1399 C 0.39844 0.21734 0.87644 0.0
C1400 C 0.33913 0.20664 0.87104 0.0
C1401 C 0.32476 0.21748 0.90935 0.0
N1402 N 0.33345 0.23735 0.97714 0.0
N1403 N 0.39197 0.19531 0.82685 0.0
C1404 C 0.34724 0.22792 0.9339 0.0
C1405 C 0.37661 0.20627 0.8572 0.0
N1406 N 0.40518 0.2391 0.92948 0.0
N1407 N 0.31656 0.19691 0.84638 0.0
H1408 H 0.41896 0.19502 0.81267 0.0
H1409 H 0.37864 0.18625 0.81857 0.0
H1410 H 0.28943 0.19639 0.85944 0.0
H1411 H 0.32414 0.18966 0.81111 0.0
H1412 H 0.39554 0.24806 0.94984 0.0
H1413 H 0.4325 0.23953 0.91812 0.0
H1414 H 0.34886 0.24454 1.00227 0.0
H1415 H 0.30666 0.23733 0.99246 0.0
C1416 C 0.149 0.8582 0.58196 0.0
C1417 C 0.16382 0.84605 0.55725 0.0
C1418 C 0.10424 0.8358 0.55415 0.0
C1419 C 0.09102 0.84694 0.59165 0.0
N1420 N 0.09972 0.86891 0.64128 0.0
N1421 N 0.15644 0.82343 0.51569 0.0
C1422 C 0.11293 0.85832 0.60465 0.0
C1423 C 0.14157 0.83496 0.54079 0.0
N1424 N 0.16993 0.86949 0.58444 0.0
N1425 N 0.08102 0.82616 0.53071 0.0
H1426 H 0.18336 0.82279 0.50172 0.0
H1427 H 0.14252 0.8144 0.51083 0.0
H1428 H 0.05345 0.82637 0.54006 0.0
H1429 H 0.08847 0.81853 0.4974 0.0
H1430 H 0.16025 0.87899 0.59703 0.0
H1431 H 0.19651 0.86949 0.5675 0.0
H1432 H 0.11546 0.87689 0.65838 0.0
H1433 H 0.07329 0.86931 0.65864 0.0
C1434 C 0.61185 0.94321 0.54802 0.0
C1435 C 0.58468 0.93802 0.59097 0.0
C1436 C 0.63002 0.93201 0.67555 0.0
C1437 C 0.65611 0.93879 0.63659 0.0
N1438 N 0.67584 0.94496 0.52553 0.0
N1439 N 0.56994 0.92237 0.67855 0.0
C1440 C 0.64829 0.94213 0.56866 0.0
C1441 C 0.59488 0.93036 0.64823 0.0
N1442 N 0.60305 0.95025 0.49134 0.0
N1443 N 0.63786 0.92816 0.73996 0.0
H1444 H 0.54396 0.92139 0.65894 0.0
H1445 H 0.57595 0.91593 0.71835 0.0
H1446 H 0.66351 0.92917 0.76069 0.0
H1447 H 0.61865 0.92452 0.77344 0.0
H1448 H 0.62168 0.95577 0.46371 0.0
H1449 H 0.57693 0.95108 0.47318 0.0
H1450 H 0.67217 0.94655 0.47399 0.0
H1451 H 0.70268 0.94431 0.54074 0.0
C1452 C 0.11219 0.97435 0.07457 0.0
C1453 C 0.08819 0.96463 0.10056 0.0
C1454 C 0.13887 0.95162 0.14583 0.0
C1455 C 0.1625 0.96206 0.12607 0.0
N1456 N 0.17251 0.9836 0.0737 0.0
N1457 N 0.07728 0.94424 0.16243 0.0
C1458 C 0.14939 0.97347 0.09058 0.0
C1459 C 0.1012 0.95324 0.13609 0.0
N1460 N 0.09924 0.98438 0.03421 0.0
N1461 N 0.15262 0.94008 0.17282 0.0
H1462 H 0.04972 0.9447 0.15286 0.0
H1463 H 0.08432 0.93666 0.19595 0.0
H1464 H 0.17996 0.93879 0.18259 0.0
H1465 H 0.13747 0.93148 0.18176 0.0
H1466 H 0.11539 0.99113 0.00813 0.0
H1467 H 0.07203 0.98535 0.02237 0.0
H1468 H 0.16442 0.99289 0.05518 0.0
H1469 H 0.20012 0.98309 0.08204 0.0
C1470 C 0.63148 0.86841 0.21185 0.0
C1471 C 0.6019 0.8713 0.16954 0.0
C1472 C 0.64198 0.87833 0.07863 0.0
C1473 C 0.67104 0.8733 0.11673 0.0
N1474 N 0.69642 0.8687 0.22585 0.0
N1475 N 0.57819 0.88371 0.07592 0.0
C1476 C 0.66669 0.87036 0.18624 0.0
C1477 C 0.60711 0.87816 0.10773 0.0
N1478 N 0.62575 0.86275 0.2736 0.0
N1479 N 0.64752 0.88223 0.01348 0.0
H1480 H 0.55257 0.88347 0.09742 0.0
H1481 H 0.58 0.88941 0.0321 0.0
H1482 H 0.67326 0.88268 0.9927 0.0
H1483 H 0.62695 0.8847 0.98009 0.0
H1484 H 0.64613 0.85892 0.30399 0.0
H1485 H 0.60001 0.86161 0.29359 0.0
H1486 H 0.69542 0.86724 0.27786 0.0
H1487 H 0.72235 0.86997 0.20683 0.0
C1488 C 0.85731 0.71253 0.86824 0.0
C1489 C 0.8372 0.7016 0.89407 0.0
C1490 C 0.88938 0.68677 0.88175 0.0
C1491 C 0.90887 0.69757 0.85284 0.0
N1492 N 0.90869 0.71982 0.80383 0.0
N1493 N 0.83156 0.67798 0.9177 0.0
C1494 C 0.89195 0.71015 0.84132 0.0
C1495 C 0.8525 0.68859 0.89853 0.0
N1496 N 0.84342 0.72527 0.87015 0.0
N1497 N 0.90654 0.67491 0.89444 0.0
H1498 H 0.805 0.67916 0.93359 0.0
H1499 H 0.8398 0.668 0.91489 0.0
H1500 H 0.93283 0.67305 0.87857 0.0
H1501 H 0.89539 0.66715 0.92263 0.0
H1502 H 0.85844 0.73385 0.85992 0.0
H1503 H 0.81772 0.72748 0.88783 0.0
H1504 H 0.89604 0.72856 0.78761 0.0
H1505 H 0.93403 0.71864 0.78268 0.0
C1506 C 0.38041 0.58632 0.83234 0.0
C1507 C 0.39219 0.59711 0.87428 0.0
C1508 C 0.33202 0.60681 0.87509 0.0
C1509 C 0.32022 0.5959 0.83431 0.0
N1510 N 0.33274 0.57704 0.76211 0.0
N1511 N 0.38212 0.61883 0.92548 0.0
C1512 C 0.34448 0.58625 0.80875 0.0
C1513 C 0.36888 0.60778 0.89233 0.0
N1514 N 0.40345 0.57607 0.81632 0.0
N1515 N 0.30752 0.61578 0.90018 0.0
H1516 H 0.40869 0.61954 0.94213 0.0
H1517 H 0.36749 0.62761 0.93325 0.0
H1518 H 0.28054 0.61574 0.88573 0.0
H1519 H 0.31341 0.62291 0.93724 0.0
H1520 H 0.3956 0.56724 0.79211 0.0
H1521 H 0.43043 0.57597 0.83062 0.0
H1522 H 0.34941 0.57028 0.73701 0.0
H1523 H 0.30633 0.57693 0.74418 0.0
C1524 C 0.87474 0.60465 0.31589 0.0
C1525 C 0.88732 0.61435 0.363 0.0
C1526 C 0.83082 0.62657 0.353 0.0
C1527 C 0.81574 0.61517 0.32063 0.0
N1528 N 0.8231 0.59312 0.27018 0.0
N1529 N 0.87918 0.63522 0.42336 0.0
C1530 C 0.83779 0.6043 0.29986 0.0
C1531 C 0.86617 0.62571 0.37968 0.0
N1532 N 0.89813 0.5958 0.28647 0.0
N1533 N 0.81049 0.63791 0.36013 0.0
H1534 H 0.90515 0.63485 0.44326 0.0
H1535 H 0.86377 0.64307 0.44268 0.0
H1536 H 0.78441 0.63847 0.34069 0.0
H1537 H 0.82031 0.64694 0.37947 0.0
H1538 H 0.89091 0.58937 0.24699 0.0
H1539 H 0.92564 0.59585 0.29655 0.0
H1540 H 0.83714 0.58416 0.26358 0.0
H1541 H 0.79634 0.59247 0.2552 0.0
C1542 C 0.35148 0.69697 0.38327 0.0
C1543 C 0.33201 0.70919 0.38581 0.0
C1544 C 0.38695 0.72191 0.36595 0.0
C1545 C 0.40585 0.70968 0.35565 0.0
N1546 N 0.40482 0.68555 0.34268 0.0
N1547 N 0.32945 0.73286 0.35859 0.0
C1548 C 0.38772 0.69716 0.36091 0.0
C1549 C 0.34918 0.72156 0.37111 0.0
N1550 N 0.33545 0.68527 0.40296 0.0
N1551 N 0.40491 0.73381 0.37392 0.0
H1552 H 0.30145 0.73294 0.3583 0.0
H1553 H 0.34087 0.74177 0.34128 0.0
H1554 H 0.43281 0.73461 0.3735 0.0
H1555 H 0.39209 0.7427 0.38823 0.0
H1556 H 0.34932 0.67625 0.40829 0.0
H1557 H 0.30886 0.68486 0.41958 0.0
H1558 H 0.39193 0.67627 0.33957 0.0
H1559 H 0.43112 0.68541 0.32448 0.0
C1560 C 0.13936 0.36707 0.15458 0.0
C1561 C 0.15914 0.35543 0.13647 0.0
C1562 C 0.10495 0.34168 0.14508 0.0
C1563 C 0.08602 0.35299 0.17029 0.0
N1564 N 0.08605 0.37601 0.20899 0.0
N1565 N 0.16265 0.33115 0.13278 0.0
C1566 C 0.10351 0.36559 0.17805 0.0
C1567 C 0.1425 0.34258 0.13693 0.0
N1568 N 0.15458 0.37949 0.14783 0.0
N1569 N 0.08706 0.33026 0.12589 0.0
H1570 H 0.19048 0.33131 0.12874 0.0
H1571 H 0.15209 0.32157 0.14041 0.0
H1572 H 0.05925 0.32916 0.12895 0.0
H1573 H 0.09954 0.32234 0.10044 0.0
H1574 H 0.14038 0.38843 0.15405 0.0
H1575 H 0.18075 0.38086 0.13022 0.0
H1576 H 0.09848 0.38505 0.22178 0.0
H1577 H 0.05987 0.37516 0.22732 0.0
C1578 C 0.5859 0.43782 0.14518 0.0
C1579 C 0.58143 0.44455 0.08282 0.0
C1580 C 0.64614 0.44376 0.06476 0.0
C1581 C 0.65054 0.44094 0.13441 0.0
N1582 N 0.62607 0.43322 0.23928 0.0
N1583 N 0.60594 0.45207 0.97749 0.0
C1584 C 0.62085 0.43691 0.17369 0.0
C1585 C 0.61115 0.44656 0.03976 0.0
N1586 N 0.55644 0.43284 0.17747 0.0
N1587 N 0.67576 0.44447 0.02435 0.0
H1588 H 0.58026 0.4538 0.95805 0.0
H1589 H 0.62671 0.45522 0.94615 0.0
H1590 H 0.70152 0.44254 0.04298 0.0
H1591 H 0.6746 0.44579 0.97226 0.0
H1592 H 0.55771 0.42724 0.2217 0.0
H1593 H 0.53095 0.43326 0.15554 0.0
H1594 H 0.60526 0.43158 0.27337 0.0
H1595 H 0.65179 0.43216 0.25976 0.0
C1596 C 0.09101 0.45167 0.61992 0.0
C1597 C 0.07902 0.46394 0.59145 0.0
C1598 C 0.1409 0.47211 0.58489 0.0
C1599 C 0.15236 0.46058 0.62123 0.0
N1600 N 0.13939 0.43951 0.67525 0.0
N1601 N 0.09115 0.48607 0.54842 0.0
C1602 C 0.12774 0.45031 0.63876 0.0
C1603 C 0.10366 0.47416 0.57355 0.0
N1604 N 0.06706 0.44141 0.62906 0.0
N1605 N 0.16571 0.48099 0.5604 0.0
H1606 H 0.06421 0.48758 0.53577 0.0
H1607 H 0.10692 0.49464 0.54302 0.0
H1608 H 0.1932 0.4801 0.56937 0.0
H1609 H 0.15952 0.48876 0.52737 0.0
H1610 H 0.07427 0.43179 0.6443 0.0
H1611 H 0.03995 0.44222 0.61615 0.0
H1612 H 0.1224 0.4323 0.69577 0.0
H1613 H 0.16627 0.43815 0.68869 0.0
C1614 C 0.61321 0.3754 0.69354 0.0
C1615 C 0.5889 0.37071 0.64366 0.0
C1616 C 0.63597 0.37125 0.55782 0.0
C1617 C 0.6611 0.37361 0.60999 0.0
N1618 N 0.67368 0.38348 0.71795 0.0
N1619 N 0.57303 0.36941 0.52589 0.0
C1620 C 0.64931 0.37797 0.67434 0.0
C1621 C 0.59894 0.37062 0.57452 0.0
N1622 N 0.60258 0.37632 0.75939 0.0
N1623 N 0.64797 0.36844 0.4942 0.0
H1624 H 0.54574 0.36895 0.53789 0.0
H1625 H 0.5782 0.37004 0.47433 0.0
H1626 H 0.67509 0.36927 0.48148 0.0
H1627 H 0.63151 0.36506 0.45505 0.0
H1628 H 0.62009 0.3783 0.7993 0.0
H1629 H 0.57609 0.37462 0.77427 0.0
H1630 H 0.66693 0.38751 0.76488 0.0
H1631 H 0.70041 0.38497 0.70361 0.0
C1632 C 0.11143 0.16054 0.35087 0.0
C1633 C 0.09346 0.16521 0.40954 0.0
C1634 C 0.10338 0.1432 0.46396 0.0
C1635 C 0.12479 0.13908 0.40832 0.0
N1636 N 0.14777 0.14313 0.29712 0.0
N1637 N 0.06901 0.16108 0.51922 0.0
C1638 C 0.12786 0.14752 0.35077 0.0
C1639 C 0.08809 0.15644 0.46501 0.0
N1640 N 0.11324 0.16878 0.29594 0.0
N1641 N 0.09862 0.13448 0.51625 0.0
H1642 H 0.05694 0.17055 0.51951 0.0
H1643 H 0.06475 0.15574 0.56347 0.0
H1644 H 0.10973 0.12487 0.51604 0.0
H1645 H 0.08289 0.13639 0.55853 0.0
H1646 H 0.12411 0.16606 0.24953 0.0
H1647 H 0.10205 0.17838 0.29583 0.0
H1648 H 0.15382 0.14885 0.25486 0.0
H1649 H 0.15904 0.13356 0.29551 0.0
C1650 C 0.09068 0.15336 0.77766 0.0
C1651 C 0.08414 0.14717 0.84083 0.0
C1652 C 0.10805 0.16719 0.899 0.0
C1653 C 0.1142 0.17357 0.83607 0.0
N1654 N 0.10433 0.17394 0.71628 0.0
N1655 N 0.07718 0.14954 0.96056 0.0
C1656 C 0.10294 0.16703 0.7756 0.0
C1657 C 0.08929 0.15469 0.90102 0.0
N1658 N 0.08726 0.1459 0.72001 0.0
N1659 N 0.12309 0.1724 0.95624 0.0
H1660 H 0.06361 0.14036 0.96268 0.0
H1661 H 0.07743 0.15492 1.00587 0.0
H1662 H 0.13916 0.18094 0.95545 0.0
H1663 H 0.12261 0.16757 1.0028 0.0
H1664 H 0.09567 0.14922 0.67279 0.0
H1665 H 0.07769 0.13604 0.7205 0.0
H1666 H 0.09406 0.17024 0.67087 0.0
H1667 H 0.11308 0.18391 0.71421 0.0
C1668 C 0.87707 0.89833 0.54153 0.0
C1669 C 0.86649 0.88898 0.59148 0.0
C1670 C 0.82306 0.90538 0.63675 0.0
C1671 C 0.837 0.91529 0.59264 0.0
N1672 N 0.87263 0.92116 0.497 0.0
N1673 N 0.82501 0.88218 0.67682 0.0
C1674 C 0.86204 0.91159 0.54196 0.0
C1675 C 0.83756 0.89205 0.63533 0.0
N1676 N 0.90251 0.89454 0.49564 0.0
N1677 N 0.79766 0.9091 0.68283 0.0
H1678 H 0.83564 0.87248 0.67584 0.0
H1679 H 0.80323 0.88325 0.70922 0.0
H1680 H 0.78645 0.91869 0.68308 0.0
H1681 H 0.78771 0.90291 0.72059 0.0
H1682 H 0.9122 0.90062 0.45722 0.0
H1683 H 0.91335 0.88486 0.49517 0.0
H1684 H 0.89222 0.9198 0.46029 0.0
H1685 H 0.86091 0.93069 0.49637 0.0
C1686 C 0.85966 0.9179 0.12522 0.0
C1687 C 0.88041 0.92186 0.18249 0.0
C1688 C 0.86849 0.89967 0.23382 0.0
C1689 C 0.84867 0.89569 0.17592 0.0
N1690 N 0.81738 0.90197 0.07538 0.0
N1691 N 0.89715 0.91772 0.29769 0.0
C1692 C 0.84129 0.90526 0.12509 0.0
C1693 C 0.88219 0.9131 0.23904 0.0
N1694 N 0.85999 0.92563 0.06861 0.0
N1695 N 0.87567 0.8903 0.28211 0.0
H1696 H 0.90687 0.9275 0.30255 0.0
H1697 H 0.8972 0.91231 0.34254 0.0
H1698 H 0.86471 0.88064 0.27996 0.0
H1699 H 0.89333 0.89186 0.32225 0.0
H1700 H 0.84875 0.92269 0.02264 0.0
H1701 H 0.87412 0.93459 0.06614 0.0
H1702 H 0.80808 0.90876 0.03949 0.0
H1703 H 0.80421 0.89272 0.07459 0.0
C1704 C 0.1018 0.65905 0.97894 0.0
C1705 C 0.10935 0.66695 0.92106 0.0
C1706 C 0.13882 0.64739 0.86765 0.0
C1707 C 0.13187 0.63953 0.92599 0.0
N1708 N 0.10327 0.63705 0.03346 0.0
N1709 N 0.12945 0.66833 0.80643 0.0
C1710 C 0.11193 0.64513 0.9803 0.0
C1711 C 0.12593 0.66094 0.86399 0.0
N1712 N 0.08603 0.66512 0.03334 0.0
N1713 N 0.15933 0.64202 0.81715 0.0
H1714 H 0.12084 0.67829 0.80343 0.0
H1715 H 0.13846 0.66445 0.76059 0.0
H1716 H 0.16857 0.63213 0.8183 0.0
H1717 H 0.16876 0.64742 0.77597 0.0
H1718 H 0.08198 0.66049 0.07968 0.0
H1719 H 0.07772 0.67514 0.03238 0.0
H1720 H 0.08696 0.63996 0.07355 0.0
H1721 H 0.11114 0.627 0.03548 0.0
C1722 C 0.14574 0.66271 0.39443 0.0
C1723 C 0.13001 0.67079 0.34337 0.0
C1724 C 0.09296 0.65152 0.30665 0.0
C1725 C 0.10826 0.64352 0.3585 0.0
N1726 N 0.15593 0.64021 0.43804 0.0
N1727 N 0.0966 0.67197 0.23993 0.0
C1728 C 0.13721 0.64873 0.39727 0.0
C1729 C 0.10639 0.66479 0.29558 0.0
N1730 N 0.16654 0.66855 0.44334 0.0
N1731 N 0.06398 0.64683 0.27127 0.0
H1732 H 0.10655 0.68161 0.23092 0.0
H1733 H 0.08161 0.66796 0.20019 0.0
H1734 H 0.05344 0.63723 0.27795 0.0
H1735 H 0.04901 0.65273 0.23827 0.0
H1736 H 0.17547 0.66348 0.48609 0.0
H1737 H 0.17272 0.67875 0.44396 0.0
H1738 H 0.17923 0.64297 0.46388 0.0
H1739 H 0.14986 0.62996 0.44037 0.0
C1740 C 0.86576 0.41288 0.04926 0.0
C1741 C 0.83632 0.41656 0.09083 0.0
C1742 C 0.83106 0.39298 0.12735 0.0
C1743 C 0.86451 0.39005 0.09669 0.0
N1744 N 0.91234 0.39641 0.02288 0.0
N1745 N 0.78864 0.41002 0.1652 0.0
C1746 C 0.88097 0.39971 0.05443 0.0
C1747 C 0.81764 0.40646 0.12714 0.0
N1748 N 0.87968 0.42232 1.00689 0.0
N1749 N 0.81303 0.38281 0.15854 0.0
H1750 H 0.77779 0.41965 0.16369 0.0
H1751 H 0.77579 0.40366 0.19902 0.0
H1752 H 0.823 0.373 0.15906 0.0
H1753 H 0.78742 0.38375 0.17903 0.0
H1754 H 0.90036 0.4205 0.97277 0.0
H1755 H 0.86839 0.4319 1.00307 0.0
H1756 H 0.92797 0.40313 0.99561 0.0
H1757 H 0.92307 0.38673 0.02539 0.0
C1758 C 0.85831 0.4172 0.62982 0.0
C1759 C 0.87103 0.42352 0.6899 0.0
C1760 C 0.85325 0.40343 0.75476 0.0
C1761 C 0.84206 0.39695 0.69434 0.0
N1762 N 0.82608 0.39849 0.5775 0.0
N1763 N 0.87291 0.42402 0.81078 0.0
C1764 C 0.84166 0.40424 0.63304 0.0
C1765 C 0.86573 0.41704 0.75288 0.0
N1766 N 0.86442 0.42321 0.56921 0.0
N1767 N 0.85363 0.39621 0.81324 0.0
H1768 H 0.88179 0.43395 0.80963 0.0
H1769 H 0.86717 0.42048 0.85896 0.0
H1770 H 0.84353 0.38643 0.81557 0.0
H1771 H 0.86499 0.39964 0.85826 0.0
H1772 H 0.85955 0.41868 0.52257 0.0
H1773 H 0.87637 0.43261 0.56583 0.0
H1774 H 0.82199 0.40348 0.53204 0.0
H1775 H 0.81444 0.38895 0.57908 0.0
C1776 C 0.66266 0.15421 0.88616 0.0
C1777 C 0.65411 0.14588 0.94185 0.0
C1778 C 0.61837 0.16426 0.99179 0.0
C1779 C 0.6248 0.17223 0.93387 0.0
N1780 N 0.65908 0.17631 0.83405 0.0
N1781 N 0.63191 0.14384 0.05463 0.0
C1782 C 0.64944 0.1677 0.88422 0.0
C1783 C 0.63494 0.15134 0.9974 0.0
N1784 N 0.68111 0.14886 0.83293 0.0
N1785 N 0.59433 0.1687 0.03884 0.0
H1786 H 0.64374 0.13435 0.05845 0.0
H1787 H 0.62052 0.14734 0.09936 0.0
H1788 H 0.58228 0.17813 0.03561 0.0
H1789 H 0.58515 0.16291 0.07892 0.0
H1790 H 0.68496 0.15374 0.78714 0.0
H1791 H 0.69164 0.13918 0.8339 0.0
H1792 H 0.67884 0.17428 0.79829 0.0
H1793 H 0.64883 0.18603 0.83197 0.0
C1794 C 0.6281 0.16409 0.28956 0.0
C1795 C 0.65358 0.16847 0.3383 0.0
C1796 C 0.65735 0.14534 0.38123 0.0
C1797 C 0.62673 0.14177 0.34249 0.0
N1798 N 0.58449 0.14704 0.25519 0.0
N1799 N 0.6943 0.16326 0.4285 0.0
C1800 C 0.61316 0.15086 0.29386 0.0
C1801 C 0.66954 0.15897 0.38229 0.0
N1802 N 0.61751 0.17293 0.24096 0.0
N1803 N 0.67379 0.13562 0.41855 0.0
H1804 H 0.70389 0.1731 0.42921 0.0
H1805 H 0.70436 0.15732 0.46729 0.0
H1806 H 0.66481 0.12567 0.41763 0.0
H1807 H 0.69761 0.13708 0.44524 0.0
H1808 H 0.6004 0.17047 0.20114 0.0
H1809 H 0.62837 0.1826 0.23823 0.0
H1810 H 0.57073 0.15344 0.22275 0.0
H1811 H 0.57388 0.13734 0.25715 0.0
C1812 C 0.38217 0.89936 0.03379 0.0
C1813 C 0.4005 0.89439 0.09139 0.0
C1814 C 0.38248 0.91461 0.1551 0.0
C1815 C 0.369 0.92043 0.09507 0.0
N1816 N 0.35575 0.91867 0.97682 0.0
N1817 N 0.42115 0.89773 0.20534 0.0
C1818 C 0.36814 0.91277 0.03444 0.0
C1819 C 0.40086 0.90204 0.15216 0.0
N1820 N 0.37892 0.89125 0.97829 0.0
N1821 N 0.37828 0.9214 0.21465 0.0
H1822 H 0.43591 0.88885 0.2036 0.0
H1823 H 0.42566 0.9034 0.2489 0.0
H1824 H 0.3652 0.93067 0.21711 0.0
H1825 H 0.38474 0.91739 0.26162 0.0
H1826 H 0.36371 0.89367 0.93588 0.0
H1827 H 0.38969 0.88157 0.97696 0.0
H1828 H 0.35749 0.91431 0.92904 0.0
H1829 H 0.3448 0.92832 0.97688 0.0
C1830 C 0.38515 0.89689 0.71823 0.0
C1831 C 0.37007 0.8913 0.65844 0.0
C1832 C 0.38653 0.91195 0.59721 0.0
C1833 C 0.39619 0.91824 0.65899 0.0
N1834 N 0.40511 0.91699 0.77869 0.0
N1835 N 0.35502 0.89362 0.54111 0.0
C1836 C 0.39619 0.91069 0.71956 0.0
C1837 C 0.37104 0.89879 0.59756 0.0
N1838 N 0.38851 0.88891 0.77367 0.0
N1839 N 0.39182 0.91875 0.53832 0.0
H1840 H 0.34366 0.88407 0.54027 0.0
H1841 H 0.35107 0.89901 0.49676 0.0
H1842 H 0.40283 0.9284 0.53748 0.0
H1843 H 0.38829 0.91449 0.49061 0.0
H1844 H 0.40126 0.89186 0.81818 0.0
H1845 H 0.38105 0.87881 0.77244 0.0
H1846 H 0.40243 0.91263 0.8261 0.0
H1847 H 0.41396 0.92695 0.78011 0.0
C1848 C 0.64775 0.6658 0.38493 0.0
C1849 C 0.61756 0.67141 0.41824 0.0
C1850 C 0.60748 0.64963 0.47348 0.0
C1851 C 0.63257 0.64347 0.42921 0.0
N1852 N 0.67551 0.64572 0.33882 0.0
N1853 N 0.56773 0.66855 0.49423 0.0
C1854 C 0.6531 0.6516 0.38485 0.0
C1855 C 0.5976 0.66337 0.46387 0.0
N1856 N 0.6707 0.67418 0.35179 0.0
N1857 N 0.59288 0.64217 0.52417 0.0
H1858 H 0.55982 0.67852 0.48849 0.0
H1859 H 0.54968 0.66278 0.52193 0.0
H1860 H 0.60006 0.63215 0.5317 0.0
H1861 H 0.57664 0.6462 0.56199 0.0
H1862 H 0.69492 0.67102 0.33073 0.0
H1863 H 0.66692 0.68458 0.35158 0.0
H1864 H 0.68813 0.65101 0.30027 0.0
H1865 H 0.67947 0.63538 0.33568 0.0
C1866 C 0.62222 0.66294 0.78457 0.0
C1867 C 0.63902 0.66926 0.84075 0.0
C1868 C 0.63804 0.64768 0.90096 0.0
C1869 C 0.61539 0.64218 0.85034 0.0
N1870 N 0.58567 0.64433 0.74337 0.0
N1871 N 0.66278 0.66777 0.95363 0.0
C1872 C 0.60812 0.64965 0.7911 0.0
C1873 C 0.64772 0.66157 0.89879 0.0
N1874 N 0.61949 0.66984 0.72536 0.0
N1875 N 0.64921 0.63954 0.95215 0.0
H1876 H 0.67004 0.67788 0.95372 0.0
H1877 H 0.66625 0.66315 1.00025 0.0
H1878 H 0.64197 0.6294 0.95394 0.0
H1879 H 0.66786 0.64241 0.98875 0.0
H1880 H 0.61003 0.66562 0.68046 0.0
H1881 H 0.62976 0.67956 0.72013 0.0
H1882 H 0.57588 0.64968 0.70221 0.0
H1883 H 0.57545 0.6346 0.74704 0.0
C1884 C 0.389 0.39856 0.65988 0.0
C1885 C 0.38837 0.39182 0.59629 0.0
C1886 C 0.36083 0.41194 0.545 0.0
C1887 C 0.36094 0.41853 0.60866 0.0
N1888 N 0.36595 0.4169 0.72907 0.0
N1889 N 0.36492 0.39083 0.48321 0.0
C1890 C 0.37188 0.41134 0.66689 0.0
C1891 C 0.37129 0.39814 0.54052 0.0
N1892 N 0.40814 0.39329 0.71233 0.0
N1893 N 0.35296 0.41908 0.48819 0.0
H1894 H 0.37195 0.38071 0.47911 0.0
H1895 H 0.34958 0.39438 0.44302 0.0
H1896 H 0.34542 0.42916 0.48969 0.0
H1897 H 0.35645 0.41528 0.43953 0.0
H1898 H 0.41287 0.39846 0.75739 0.0
H1899 H 0.42196 0.38424 0.70901 0.0
H1900 H 0.37029 0.41178 0.77414 0.0
H1901 H 0.35317 0.42617 0.73499 0.0
C1902 C 0.37329 0.41411 0.21813 0.0
C1903 C 0.39156 0.41982 0.16245 0.0
C1904 C 0.37822 0.39954 0.09516 0.0
C1905 C 0.36496 0.39306 0.15362 0.0
N1906 N 0.35017 0.39387 0.27155 0.0
N1907 N 0.41392 0.41776 0.04907 0.0
C1908 C 0.36192 0.40036 0.21516 0.0
C1909 C 0.39418 0.41255 0.1008 0.0
N1910 N 0.36738 0.42188 0.27399 0.0
N1911 N 0.37559 0.3931 0.03429 0.0
H1912 H 0.42618 0.42717 0.05211 0.0
H1913 H 0.42025 0.41245 1.00525 0.0
H1914 H 0.36376 0.38362 0.02951 0.0
H1915 H 0.38194 0.39757 0.98836 0.0
H1916 H 0.35159 0.41889 0.31457 0.0
H1917 H 0.37615 0.43185 0.27699 0.0
H1918 H 0.35067 0.39808 0.31976 0.0
H1919 H 0.3414 0.38391 0.27036 0.0
C1920 C 0.95389 0.27671 0.19416 0.0
C1921 C 0.967 0.28897 0.22163 0.0
C1922 C 0.99064 0.27648 0.32003 0.0
C1923 C 0.97954 0.26413 0.2903 0.0
N1924 N 0.95549 0.25226 0.19444 0.0
N1925 N 0.00242 0.3004 0.30563 0.0
C1926 C 0.96248 0.26422 0.22597 0.0
C1927 C 0.9866 0.28881 0.28338 0.0
N1928 N 0.9323 0.27711 0.13834 0.0
N1929 N 0.00402 0.27642 0.38428 0.0
H1930 H -8e-05 0.30945 0.27976 0.0
H1931 H 0.02001 0.30086 0.34653 0.0
H1932 H 0.00758 0.26756 0.41147 0.0
H1933 H 0.00929 0.28511 0.41213 0.0
H1934 H 0.91879 0.26878 0.11887 0.0
H1935 H 0.92551 0.28611 0.11464 0.0
H1936 H 0.9463 0.25145 0.14488 0.0
H1937 H 0.96183 0.24303 0.21616 0.0
C1938 C 0.26806 1.02929 0.22329 0.0
C1939 C 0.24758 1.018 0.20182 0.0
C1940 C 0.19443 1.0275 0.25907 0.0
C1941 C 0.21543 0.03831 0.28456 0.0
N1942 N 0.27373 0.04828 0.30063 0.0
N1943 N 0.19337 1.00504 0.2101 0.0
C1944 C 0.25272 0.03889 0.26918 0.0
C1945 C 0.21129 1.01676 0.22286 0.0
N1946 N 0.30184 1.03104 0.19804 0.0
N1947 N 0.15805 1.02775 0.26778 0.0
H1948 H 0.20561 0.9969 0.18603 0.0
H1949 H 0.1679 1.00289 0.22892 0.0
H1950 H 0.14505 0.0356 0.29295 0.0
H1951 H 0.14058 1.0209 0.2451 0.0
H1952 H 0.317 0.03971 0.20578 0.0
H1953 H 0.31365 1.02412 0.16508 0.0
H1954 H 0.30165 0.04839 0.29745 0.0
H1955 H 0.2634 0.05531 0.33468 0.0
C1956 C 0.00932 0.03642 0.99652 0.0
C1957 C 0.9838 0.04592 0.97292 0.0
C1958 C 0.93548 0.03309 0.02884 0.0
C1959 C 0.96121 1.02406 0.0558 0.0
N1960 N 0.02285 1.01773 0.07174 0.0
N1961 N 0.92344 0.05434 0.97231 0.0
C1962 C -0.00174 1.02589 0.04117 0.0
C1963 C 0.94704 0.0445 0.99068 0.0
N1964 N 0.044 0.03734 0.97455 0.0
N1965 N 0.89983 1.03049 0.03864 0.0
H1966 H 0.93136 0.06275 0.94475 0.0
H1967 H 0.89682 0.05473 0.98822 0.0
H1968 H 0.89091 1.02223 0.06622 0.0
H1969 H 0.87916 0.03585 0.01574 0.0
H1970 H 0.06357 1.03013 0.98401 0.0
H1971 H 0.05268 0.04506 0.94298 0.0
H1972 H 0.05051 1.01916 0.06897 0.0
H1973 H 0.01535 1.0099 0.10362 0.0
C1974 C 0.20963 0.29651 0.02382 0.0
C1975 C 0.24405 0.29467 0.05327 0.0
C1976 C 0.24809 0.27292 0.99301 0.0
C1977 C 0.21137 0.27394 0.97289 0.0
N1978 N 0.15511 0.28566 0.98556 0.0
N1979 N 0.29457 0.28013 0.07216 0.0
C1980 C 0.19156 0.28545 0.99318 0.0
C1981 C 0.26296 0.28257 0.03956 0.0
N1982 N 0.19486 0.30904 0.02216 0.0
N1983 N 0.26931 0.2632 0.96519 0.0
H1984 H 0.30581 0.28697 0.10631 0.0
H1985 H 0.30792 0.27094 0.0693 0.0
H1986 H 0.25986 0.25636 0.92927 0.0
H1987 H 0.29703 0.26287 0.97257 0.0
H1988 H 0.17086 0.31116 0.99713 0.0
H1989 H 0.2091 0.31753 0.03793 0.0
H1990 H 0.13913 0.29341 1.00453 0.0
H1991 H 0.14065 0.27738 0.96774 0.0
C1992 C 0.01885 0.77008 0.72222 0.0
C1993 C 0.0001 0.76686 0.78291 0.0
C1994 C 0.95724 0.78515 0.75757 0.0
C1995 C 0.97712 0.78893 0.69951 0.0
N1996 N 0.03415 0.78762 0.64235 0.0
N1997 N 0.95949 0.77495 0.86841 0.0
C1998 C 0.0102 0.78219 0.68666 0.0
C1999 C 0.972 0.77565 0.8038 0.0
N2000 N 0.04359 0.76144 0.69591 0.0
N2001 N 0.92319 0.78987 0.76667 0.0
H2002 H 0.97104 0.76859 0.90415 0.0
H2003 H 0.94086 0.78175 0.88803 0.0
H2004 H 0.91018 0.79575 0.73079 0.0
H2005 H 0.90651 0.78658 0.8055 0.0
H2006 H 0.05477 0.76268 0.64807 0.0
H2007 H 0.05084 0.7525 0.71888 0.0
H2008 H 0.05991 0.78375 0.63521 0.0
H2009 H 0.02992 0.7969 0.6194 0.0
C2010 C 0.71123 0.03197 0.80044 0.0
C2011 C 0.73728 0.04236 0.80453 0.0
C2012 C 0.7778 1.02919 0.73108 0.0
C2013 C 0.75136 1.01896 0.7255 0.0
N2014 N 0.69229 1.01067 0.75012 0.0
N2015 N 0.79394 0.05166 0.77126 0.0
C2016 C 0.71783 1.0204 0.75892 0.0
C2017 C 0.77023 0.04117 0.769 0.0
N2018 N 0.68055 0.03313 0.83785 0.0
N2019 N 0.81028 1.02728 0.70046 0.0
H2020 H 0.78895 0.06038 0.79928 0.0
H2021 H 0.81755 0.05212 0.74343 0.0
H2022 H 0.81587 1.01876 0.67131 0.0
H2023 H 0.83217 0.03369 0.70573 0.0
H2024 H 0.66141 1.02558 0.8427 0.0
H2025 H 0.67488 0.04166 0.86684 0.0
H2026 H 0.66604 1.01138 0.76761 0.0
H2027 H 0.69713 1.00189 0.72245 0.0
C2028 C 0.75935 0.76864 0.02424 0.0
C2029 C 0.74025 0.7697 0.96234 0.0
C2030 C 0.73463 0.79421 0.98006 0.0
C2031 C 0.75296 0.79312 0.04297 0.0
N2032 N 0.7811 0.77948 0.12745 0.0
N2033 N 0.70728 0.78292 0.8828 0.0
C2034 C 0.76474 0.78033 0.06577 0.0
C2035 C 0.72731 0.78237 0.94067 0.0
N2036 N 0.7731 0.75642 0.04197 0.0
N2037 N 0.72434 0.80663 0.95824 0.0
H2038 H 0.70197 0.77441 0.85337 0.0
H2039 H 0.6944 0.7915 0.86532 0.0
H2040 H 0.72756 0.81527 0.98751 0.0
H2041 H 0.71385 0.80857 0.91056 0.0
H2042 H 0.78986 0.75484 0.08327 0.0
H2043 H 0.76885 0.74777 0.01304 0.0
H2044 H 0.78772 0.77049 0.15098 0.0
H2045 H 0.78708 0.78794 0.1567 0.0
C2046 C 0.24221 0.53716 0.77226 0.0
C2047 C 0.20439 0.53718 0.78292 0.0
C2048 C 0.19973 0.51622 0.71601 0.0
C2049 C 0.23692 0.51685 0.70031 0.0
N2050 N 0.29268 0.52896 0.70548 0.0
N2051 N 0.14645 0.52809 0.75459 0.0
C2052 C 0.25792 0.52763 0.72632 0.0
C2053 C 0.183 0.52706 0.75179 0.0
N2054 N 0.26331 0.54585 0.80831 0.0
N2055 N 0.18069 0.50496 0.69888 0.0
H2056 H 0.13356 0.53608 0.77872 0.0
H2057 H 0.12911 0.5218 0.72772 0.0
H2058 H 0.19252 0.49673 0.67494 0.0
H2059 H 0.15431 0.50325 0.7141 0.0
H2060 H 0.29128 0.54557 0.80794 0.0
H2061 H 0.25281 0.55267 0.84322 0.0
H2062 H 0.30858 0.5373 0.7167 0.0
H2063 H 0.30469 0.52214 0.6723 0.0
C2064 C 0.99186 0.52449 0.51699 0.0
C2065 C 0.95657 0.5243 0.54451 0.0
C2066 C 0.94465 0.5462 0.49108 0.0
C2067 C 0.97872 0.54589 0.45855 0.0
N2068 N 0.03275 0.53372 0.43297 0.0
N2069 N 0.89709 0.5336 0.54592 0.0
C2070 C 0.00179 0.53473 0.46951 0.0
C2071 C 0.93234 0.53478 0.5279 0.0
N2072 N 0.01631 0.51521 0.53832 0.0
N2073 N 0.92469 0.55771 0.48981 0.0
H2074 H 0.8872 0.52521 0.57136 0.0
H2075 H 0.87717 0.5402 0.52973 0.0
H2076 H 0.93342 0.56645 0.46622 0.0
H2077 H 0.90136 0.55904 0.51805 0.0
H2078 H 0.04345 0.51551 0.5257 0.0
H2079 H 0.00991 0.50774 0.57312 0.0
H2080 H 0.04923 0.52527 0.43334 0.0
H2081 H 0.04038 0.54098 0.39791 0.0
C2082 C 0.24282 0.79015 0.51821 0.0
C2083 C 0.27975 0.78967 0.5363 0.0
C2084 C 0.28428 0.76752 0.48033 0.0
C2085 C 0.24863 0.76876 0.45537 0.0
N2086 N 0.19501 0.78199 0.4446 0.0
N2087 N 0.33676 0.77853 0.52924 0.0
C2088 C 0.22813 0.78027 0.47298 0.0
C2089 C 0.30078 0.7785 0.51569 0.0
N2090 N 0.22138 0.79971 0.54678 0.0
N2091 N 0.30166 0.75555 0.47273 0.0
H2092 H 0.34926 0.78643 0.55507 0.0
H2093 H 0.35451 0.77135 0.51039 0.0
H2094 H 0.28909 0.74721 0.45098 0.0
H2095 H 0.32665 0.75345 0.49395 0.0
H2096 H 0.19347 0.79943 0.54341 0.0
H2097 H 0.23134 0.80717 0.57899 0.0
H2098 H 0.18013 0.7908 0.44963 0.0
H2099 H 0.18362 0.77491 0.4119 0.0
C2100 C 0.75639 0.53166 0.2038 0.0
C2101 C 0.74095 0.51914 0.22161 0.0
C2102 C 0.71185 0.52991 0.31995 0.0
C2103 C 0.72583 0.54254 0.3001 0.0
N2104 N 0.75698 0.55597 0.21845 0.0
N2105 N 0.69997 0.50654 0.29036 0.0
C2106 C 0.74683 0.54354 0.24049 0.0
C2107 C 0.71755 0.51833 0.27812 0.0
N2108 N 0.78121 0.53203 0.15309 0.0
N2109 N 0.69406 0.52899 0.38002 0.0
H2110 H 0.7037 0.49798 0.26063 0.0
H2111 H 0.67993 0.50548 0.32656 0.0
H2112 H 0.68911 0.53737 0.41054 0.0
H2113 H 0.68622 0.51993 0.40157 0.0
H2114 H 0.79629 0.54051 0.14123 0.0
H2115 H 0.78872 0.52347 0.12598 0.0
H2116 H 0.76944 0.55767 0.17225 0.0
H2117 H 0.75034 0.56477 0.24436 0.0
C2118 C 0.71806 0.29201 0.54423 0.0
C2119 C 0.75313 0.29369 0.57128 0.0
C2120 C 0.77309 0.27331 0.51067 0.0
C2121 C 0.73764 0.27132 0.48586 0.0
N2122 N 0.67568 0.27789 0.48195 0.0
N2123 N 0.81341 0.28573 0.58578 0.0
C2124 C 0.70989 0.28044 0.50367 0.0
C2125 C 0.78054 0.28428 0.55572 0.0
N2126 N 0.69297 0.30175 0.55614 0.0
N2127 N 0.79956 0.26468 0.49046 0.0
H2128 H 0.81943 0.29377 0.61806 0.0
H2129 H 0.83412 0.27877 0.5819 0.0
H2130 H 0.79434 0.25626 0.46024 0.0
H2131 H 0.8267 0.26604 0.50093 0.0
H2132 H 0.66762 0.30194 0.53404 0.0
H2133 H 0.69846 0.31024 0.58572 0.0
H2134 H 0.65326 0.2833 0.49738 0.0
H2135 H 0.66943 0.26977 0.45038 0.0
C2136 C 0.46746 0.28355 0.75996 0.0
C2137 C 0.49182 0.29411 0.74539 0.0
C2138 C 0.53763 0.28313 0.81685 0.0
C2139 C 0.51409 0.27212 0.82756 0.0
N2140 N 0.45801 0.26105 0.80467 0.0
N2141 N 0.55088 0.30362 0.75447 0.0
C2142 C 0.47926 0.27216 0.79797 0.0
C2143 C 0.52714 0.29382 0.77268 0.0
N2144 N 0.43283 0.28458 0.73761 0.0
N2145 N 0.56972 0.28343 0.85038 0.0
H2146 H 0.54345 0.3117 0.72405 0.0
H2147 H 0.57812 0.30345 0.7664 0.0
H2148 H 0.57805 0.27561 0.8817 0.0
H2149 H 0.58705 0.29164 0.85051 0.0
H2150 H 0.41242 0.27794 0.7506 0.0
H2151 H 0.42393 0.29278 0.70944 0.0
H2152 H 0.43354 0.25972 0.78005 0.0
H2153 H 0.46622 0.25263 0.83173 0.0
C2154 C 0.48923 0.0421 0.50256 0.0
C2155 C 0.51558 0.0415 0.45075 0.0
C2156 C 0.52173 1.01715 0.46991 0.0
C2157 C 0.49812 1.01801 0.5261 0.0
N2158 N 0.46203 0.03144 0.60056 0.0
N2159 N 0.55918 1.02885 0.38821 0.0
C2160 C 0.48244 1.03054 0.54349 0.0
C2161 C 0.53237 1.02909 0.43522 0.0
N2162 N 0.46993 0.05364 0.51099 0.0
N2163 N 0.53329 1.00479 0.44905 0.0
H2164 H 0.56716 0.03744 0.3621 0.0
H2165 H 0.57517 1.02049 0.37849 0.0
H2166 H 0.52549 0.99595 0.47312 0.0
H2167 H 0.54798 1.00314 0.4051 0.0
H2168 H 0.44804 0.0545 0.54339 0.0
H2169 H 0.47416 0.06209 0.48112 0.0
H2170 H 0.45277 0.04049 0.62057 0.0
H2171 H 0.45627 1.02309 0.63036 0.0
C2172 C 0.52428 0.79639 0.2882 0.0
C2173 C 0.49601 0.79552 0.23997 0.0
C2174 C 0.48746 0.77171 0.26891 0.0
C2175 C 0.51364 0.77282 0.32103 0.0
N2176 N 0.55404 0.78653 0.38604 0.0
N2177 N 0.44624 0.7832 0.19355 0.0
C2178 C 0.53124 0.78528 0.33229 0.0
C2179 C 0.4763 0.7834 0.23323 0.0
N2180 N 0.54537 0.80762 0.28984 0.0
N2181 N 0.47435 0.75933 0.25158 0.0
H2182 H 0.43715 0.7917 0.16805 0.0
H2183 H 0.42854 0.77509 0.19123 0.0
H2184 H 0.48289 0.75052 0.27487 0.0
H2185 H 0.45785 0.75763 0.20984 0.0
H2186 H 0.56861 0.80846 0.31892 0.0
H2187 H 0.54086 0.81582 0.2583 0.0
H2188 H 0.56523 0.79563 0.40155 0.0
H2189 H 0.55981 0.77848 0.41792 0.0
C2190 C 0.51727 0.52014 0.99587 0.0
C2191 C 0.48124 0.51962 0.01931 0.0
C2192 C 0.46934 0.54147 0.96583 0.0
C2193 C 0.50464 0.54162 0.9385 0.0
N2194 N 0.56084 0.53041 0.92004 0.0
N2195 N 0.42144 0.52853 0.01805 0.0
C2196 C 0.52825 0.53073 0.95154 0.0
C2197 C 0.45685 0.52994 1.00152 0.0
N2198 N 0.54121 0.51076 0.01811 0.0
N2199 N 0.4483 0.55265 0.96011 0.0
H2200 H 0.41177 0.52014 0.0438 0.0
H2201 H 0.40131 0.53498 1.00131 0.0
H2202 H 0.45699 0.56133 0.93591 0.0
H2203 H 0.42367 0.55379 0.98432 0.0
H2204 H 0.56872 0.51122 0.00889 0.0
H2205 H 0.53369 0.50288 0.04968 0.0
H2206 H 0.57821 0.52223 0.92177 0.0
H2207 H 0.56941 0.53808 0.88809 0.0
C2208 C 0.06568 0.21975 0.61059 0.0
C2209 C 0.0728 0.22969 0.56058 0.0
C2210 C 0.11731 0.23989 0.63707 0.0
C2211 C 0.10747 0.23073 0.68952 0.0
N2212 N 0.06673 0.21361 0.7288 0.0
N2213 N 0.10118 0.25054 0.53084 0.0
C2214 C 0.07963 0.2213 0.67726 0.0
C2215 C 0.09742 0.24015 0.57517 0.0
N2216 N 0.04738 0.20831 0.59337 0.0
N2217 N 0.14638 0.24814 0.64536 0.0
H2218 H 0.08758 0.25088 0.48472 0.0
H2219 H 0.11552 0.25927 0.54203 0.0
H2220 H 0.161 0.24877 0.69011 0.0
H2221 H 0.15751 0.25372 0.60623 0.0
H2222 H 0.04493 0.20006 0.62527 0.0
H2223 H 0.03832 0.20634 0.54456 0.0
H2224 H 0.04404 0.20752 0.72412 0.0
H2225 H 0.07625 0.21431 0.77813 0.0
C2226 C 0.13096 0.09488 0.61895 0.0
C2227 C 0.12193 0.08501 0.56941 0.0
C2228 C 0.08198 0.07428 0.65242 0.0
C2229 C 0.0931 0.0837 0.70274 0.0
N2230 N 0.13649 0.10015 0.73796 0.0
N2231 N 0.0923 0.06413 0.54197 0.0
C2232 C 0.12024 0.09311 0.68716 0.0
C2233 C 0.09823 0.07438 0.58682 0.0
N2234 N 0.149 0.10625 0.60031 0.0
N2235 N 0.05576 0.0652 0.66773 0.0
H2236 H 0.10259 0.06412 0.49305 0.0
H2237 H 0.07877 0.05531 0.5542 0.0
H2238 H 0.04677 0.06386 0.71707 0.0
H2239 H 0.0427 0.05924 0.63189 0.0
H2240 H 0.15315 0.11439 0.63275 0.0
H2241 H 0.15625 0.10817 0.55043 0.0
H2242 H 0.15833 0.10653 0.73051 0.0
H2243 H 0.13134 0.09806 0.78844 0.0
C2244 C 0.87272 0.84451 0.32542 0.0
C2245 C 0.84455 0.83539 0.31117 0.0
C2246 C 0.85078 0.82604 0.42599 0.0
C2247 C 0.8761 0.83626 0.4422 0.0
N2248 N 0.90388 0.85737 0.41059 0.0
N2249 N 0.80369 0.81827 0.34987 0.0
C2250 C 0.88479 0.84613 0.39285 0.0
C2251 C 0.83254 0.82642 0.36228 0.0
N2252 N 0.88854 0.85157 0.27449 0.0
N2253 N 0.84541 0.81562 0.4695 0.0
H2254 H 0.79143 0.8176 0.30249 0.0
H2255 H 0.79092 0.8127 0.38727 0.0
H2256 H 0.85819 0.81497 0.51627 0.0
H2257 H 0.83034 0.80712 0.45717 0.0
H2258 H 0.9115 0.85744 0.28125 0.0
H2259 H 0.88152 0.85029 0.2241 0.0
H2260 H 0.90707 0.86558 0.37867 0.0
H2261 H 0.91339 0.85918 0.45921 0.0
C2262 C 0.83837 0.98622 0.4214 0.0
C2263 C 0.84828 0.9764 0.47008 0.0
C2264 C 0.88583 0.96521 0.38528 0.0
C2265 C 0.87818 0.97552 0.33776 0.0
N2266 N 0.85075 0.99691 0.31364 0.0
N2267 N 0.88798 0.95853 0.50271 0.0
C2268 C 0.85527 0.98632 0.3565 0.0
C2269 C 0.87418 0.96656 0.45332 0.0
N2270 N 0.81248 0.99542 0.43731 0.0
N2271 N 0.90313 0.9538 0.36457 0.0
H2272 H 0.88086 0.95963 0.55323 0.0
H2273 H 0.90932 0.95193 0.49501 0.0
H2274 H 0.91093 0.95221 0.31463 0.0
H2275 H 0.90627 0.94537 0.39496 0.0
H2276 H 0.80041 1.00171 0.40208 0.0
H2277 H 0.80234 0.99643 0.48613 0.0
H2278 H 0.83797 1.00581 0.32733 0.0
H2279 H 0.86158 0.99711 0.26516 0.0
C2280 C 0.1231 0.74345 0.06872 0.0
C2281 C 0.09634 0.73367 0.05443 0.0
C2282 C 0.09605 0.72724 0.17418 0.0
C2283 C 0.12646 0.73535 0.18682 0.0
N2284 N 0.17007 0.75119 0.14546 0.0
N2285 N 0.06511 0.71369 0.09125 0.0
C2286 C 0.14025 0.74351 0.13371 0.0
C2287 C 0.08505 0.72483 0.1066 0.0
N2288 N 0.13151 0.75281 0.02108 0.0
N2289 N 0.07723 0.72193 0.22666 0.0
H2290 H 0.05875 0.71098 0.04173 0.0
H2291 H 0.05893 0.70631 0.12662 0.0
H2292 H 0.08251 0.72474 0.27633 0.0
H2293 H 0.05343 0.71653 0.22027 0.0
H2294 H 0.14811 0.76104 0.03053 0.0
H2295 H 0.11999 0.75276 0.97296 0.0
H2296 H 0.18415 0.75612 0.10751 0.0
H2297 H 0.18137 0.7522 0.19355 0.0
C2298 C 0.07957 0.59657 0.15789 0.0
C2299 C 0.08507 0.58714 0.21123 0.0
C2300 C 0.12255 0.5737 0.13413 0.0
C2301 C 0.1143 0.58257 0.07972 0.0
N2302 N 0.07667 0.60045 0.03762 0.0
N2303 N 0.10537 0.56507 0.24394 0.0
C2304 C 0.09005 0.5933 0.09081 0.0
C2305 C 0.1049 0.57524 0.19781 0.0
N2306 N 0.06553 0.60901 0.17127 0.0
N2307 N 0.14744 0.56376 0.12526 0.0
H2308 H 0.09235 0.56562 0.29041 0.0
H2309 H 0.11594 0.55559 0.23366 0.0
H2310 H 0.15889 0.56152 0.07858 0.0
H2311 H 0.15806 0.5582 0.16504 0.0
H2312 H 0.06532 0.61677 0.13611 0.0
H2313 H 0.05738 0.61216 0.21895 0.0
H2314 H 0.05606 0.60746 0.04266 0.0
H2315 H 0.08287 0.59836 0.98751 0.0
C2316 C 0.87763 0.32273 0.92824 0.0
C2317 C 0.86882 0.33188 0.98118 0.0
C2318 C 0.83481 0.34538 0.90167 0.0
C2319 C 0.84118 0.33589 0.84887 0.0
N2320 N 0.86173 0.31365 0.81796 0.0
N2321 N 0.82659 0.34834 0.02177 0.0
C2322 C 0.86062 0.32397 0.8637 0.0
C2323 C 0.84307 0.34195 0.96918 0.0
N2324 N 0.90253 0.31292 0.93969 0.0
N2325 N 0.82299 0.35806 0.88729 0.0
H2326 H 0.831 0.34561 0.07189 0.0
H2327 H 0.80581 0.35523 0.01481 0.0
H2328 H 0.82017 0.36157 0.83799 0.0
H2329 H 0.8207 0.36555 0.92409 0.0
H2330 H 0.91339 0.30697 0.9014 0.0
H2331 H 0.91323 0.31116 0.98767 0.0
H2332 H 0.87267 0.30428 0.8289 0.0
H2333 H 0.84889 0.31402 0.77119 0.0
C2334 C 0.82964 0.48706 0.9185 0.0
C2335 C 0.84151 0.47783 0.96861 0.0
C2336 C 0.88312 0.46787 0.88675 0.0
C2337 C 0.87315 0.47763 0.83767 0.0
N2338 N 0.84114 0.49798 0.81102 0.0
N2339 N 0.88518 0.46155 1.00477 0.0
C2340 C 0.84743 0.48762 0.85455 0.0
C2341 C 0.8702 0.46897 0.95413 0.0
N2342 N 0.80105 0.49523 0.93206 0.0
N2343 N 0.90381 0.45712 0.86812 0.0
H2344 H 0.87666 0.46222 0.0547 0.0
H2345 H 0.90847 0.45587 0.99889 0.0
H2346 H 0.91243 0.45552 0.81867 0.0
H2347 H 0.90908 0.449 0.89962 0.0
H2348 H 0.78794 0.50091 0.89547 0.0
H2349 H 0.78958 0.49592 0.97999 0.0
H2350 H 0.82586 0.50639 0.82352 0.0
H2351 H 0.85323 0.49864 0.76371 0.0
C2352 C 0.62851 0.23796 0.10188 0.0
C2353 C 0.60824 0.22625 0.08595 0.0
C2354 C 0.61219 0.21927 0.20474 0.0
C2355 C 0.6369 0.2297 0.21843 0.0
N2356 N 0.67005 0.24892 0.1795 0.0
N2357 N 0.58801 0.20421 0.12035 0.0
C2358 C 0.64549 0.23904 0.16664 0.0
C2359 C 0.60224 0.21646 0.13696 0.0
N2360 N 0.63022 0.2483 0.05685 0.0
N2361 N 0.59773 0.21215 0.25671 0.0
H2362 H 0.58169 0.20148 0.07086 0.0
H2363 H 0.58622 0.19627 0.15437 0.0
H2364 H 0.60224 0.21486 0.30683 0.0
H2365 H 0.57764 0.20495 0.2502 0.0
H2366 H 0.64134 0.25764 0.06849 0.0
H2367 H 0.61816 0.24792 0.00931 0.0
H2368 H 0.68108 0.25499 0.14212 0.0
H2369 H 0.68013 0.25071 0.22793 0.0
C2370 C 0.63229 0.07444 0.1016 0.0
C2371 C 0.65314 0.08593 0.085 0.0
C2372 C 0.64987 0.09328 0.20365 0.0
C2373 C 0.62328 0.08357 0.21669 0.0
N2374 N 0.58853 0.06461 0.17796 0.0
N2375 N 0.67313 0.10818 0.11908 0.0
C2376 C 0.61439 0.07401 0.1655 0.0
C2377 C 0.6597 0.09586 0.13585 0.0
N2378 N 0.63064 0.06375 0.05811 0.0
N2379 N 0.66563 0.10014 0.25565 0.0
H2380 H 0.67724 0.11113 0.06924 0.0
H2381 H 0.67555 0.11603 0.15392 0.0
H2382 H 0.65997 0.09801 0.30605 0.0
H2383 H 0.68705 0.10675 0.2486 0.0
H2384 H 0.61865 0.05463 0.07052 0.0
H2385 H 0.644 0.06355 0.0119 0.0
H2386 H 0.57758 0.05842 0.14058 0.0
H2387 H 0.57717 0.06341 0.22575 0.0
C2388 C 0.41439 0.82612 0.89672 0.0
C2389 C 0.40553 0.83593 0.94679 0.0
C2390 C 0.36684 0.84729 0.86457 0.0
C2391 C 0.37389 0.8371 0.81552 0.0
N2392 N 0.39977 0.81552 0.78908 0.0
N2393 N 0.36597 0.8537 0.98274 0.0
C2394 C 0.39658 0.82617 0.83257 0.0
C2395 C 0.37936 0.84581 0.9321 0.0
N2396 N 0.43993 0.81669 0.91076 0.0
N2397 N 0.34909 0.85871 0.84591 0.0
H2398 H 0.37349 0.85258 0.03301 0.0
H2399 H 0.34438 0.86023 0.97632 0.0
H2400 H 0.34046 0.8604 0.79659 0.0
H2401 H 0.34646 0.86711 0.87714 0.0
H2402 H 0.45142 0.81045 0.87436 0.0
H2403 H 0.45029 0.8154 0.95921 0.0
H2404 H 0.41237 0.80654 0.80167 0.0
H2405 H 0.38774 0.8153 0.74149 0.0
C2406 C 0.4027 0.97903 0.92407 0.0
C2407 C 0.3693 0.98548 0.93258 0.0
C2408 C 0.37219 0.99251 0.81264 0.0
C2409 C 0.40209 0.98389 0.80253 0.0
N2410 N 0.43858 0.96586 0.84734 0.0
N2411 N 0.32178 0.99879 0.88439 0.0
C2412 C 0.41521 0.97624 0.85794 0.0
C2413 C 0.35392 0.99238 0.87645 0.0
N2414 N 0.42321 0.97595 0.97885 0.0
N2415 N 0.36192 1.00105 0.76242 0.0
H2416 H 0.30966 0.99991 0.93159 0.0
H2417 H 0.30686 1.00262 0.8443 0.0
H2418 H 0.37447 1.00122 0.71535 0.0
H2419 H 0.34267 1.00854 0.76889 0.0
H2420 H 0.44874 0.97171 0.97487 0.0
H2421 H 0.41716 0.97981 0.02646 0.0
H2422 H 0.44661 0.9594 0.88588 0.0
H2423 H 0.44618 0.96268 0.7991 0.0
C2424 C 0.63517 0.74087 0.57113 0.0
C2425 C 0.60918 0.7305 0.56234 0.0
C2426 C 0.60731 0.72782 0.68554 0.0
C2427 C 0.63861 0.7356 0.69311 0.0
N2428 N 0.68217 0.75036 0.64257 0.0
N2429 N 0.57841 0.71156 0.61396 0.0
C2430 C 0.65249 0.7424 0.6355 0.0
C2431 C 0.59759 0.72322 0.6204 0.0
N2432 N 0.64221 0.74962 0.51988 0.0
N2433 N 0.58619 0.72507 0.73985 0.0
H2434 H 0.57304 0.70703 0.56748 0.0
H2435 H 0.57192 0.70559 0.65537 0.0
H2436 H 0.58998 0.72995 0.78603 0.0
H2437 H 0.56199 0.71983 0.73567 0.0
H2438 H 0.65831 0.75812 0.52587 0.0
H2439 H 0.62953 0.74911 0.47301 0.0
H2440 H 0.69633 0.75426 0.60174 0.0
H2441 H 0.69314 0.75266 0.68985 0.0
C2442 C 0.59803 0.59476 0.64669 0.0
C2443 C 0.60469 0.58602 0.70184 0.0
C2444 C 0.63879 0.57137 0.62481 0.0
C2445 C 0.62837 0.57953 0.56916 0.0
N2446 N 0.58536 0.59558 0.52758 0.0
N2447 N 0.62619 0.56442 0.7399 0.0
C2448 C 0.60397 0.59015 0.58011 0.0
C2449 C 0.62376 0.57385 0.69022 0.0
N2450 N 0.58615 0.60756 0.65784 0.0
N2451 N 0.66303 0.56126 0.61497 0.0
H2452 H 0.61572 0.56584 0.78817 0.0
H2453 H 0.63642 0.5548 0.73171 0.0
H2454 H 0.67212 0.55854 0.56692 0.0
H2455 H 0.67496 0.55599 0.65446 0.0
H2456 H 0.58348 0.61459 0.61922 0.0
H2457 H 0.58298 0.61154 0.7063 0.0
H2458 H 0.56595 0.60303 0.53406 0.0
H2459 H 0.58501 0.59109 0.48002 0.0
C2460 C 0.40124 0.32047 0.39666 0.0
C2461 C 0.39573 0.33128 0.44311 0.0
C2462 C 0.36206 0.34332 0.35589 0.0
C2463 C 0.36458 0.33209 0.31123 0.0
N2464 N 0.3828 0.3092 0.29248 0.0
N2465 N 0.36311 0.35143 0.47124 0.0
C2466 C 0.38329 0.32044 0.33242 0.0
C2467 C 0.37361 0.34218 0.42407 0.0
N2468 N 0.42375 0.31022 0.41406 0.0
N2469 N 0.34966 0.35535 0.33238 0.0
H2470 H 0.37035 0.3508 0.52192 0.0
H2471 H 0.34372 0.35873 0.4617 0.0
H2472 H 0.34192 0.35676 0.28234 0.0
H2473 H 0.35077 0.36424 0.3604 0.0
H2474 H 0.43253 0.30289 0.38018 0.0
H2475 H 0.43456 0.30936 0.46247 0.0
H2476 H 0.39243 0.29989 0.30799 0.0
H2477 H 0.37082 0.30905 0.24478 0.0
C2478 C 0.39419 0.47146 0.44082 0.0
C2479 C 0.36581 0.4806 0.45156 0.0
C2480 C 0.37255 0.48825 0.33353 0.0
C2481 C 0.39652 0.47741 0.32054 0.0
N2482 N 0.42239 0.4566 0.36035 0.0
N2483 N 0.32645 0.49758 0.40706 0.0
C2484 C 0.40518 0.46843 0.3739 0.0
C2485 C 0.35462 0.489 0.39744 0.0
N2486 N 0.41096 0.46572 0.49464 0.0
N2487 N 0.36782 0.49806 0.28633 0.0
H2488 H 0.31476 0.49905 0.45443 0.0
H2489 H 0.31398 0.50276 0.36791 0.0
H2490 H 0.38045 0.4979 0.2394 0.0
H2491 H 0.35359 0.50688 0.29575 0.0
H2492 H 0.43339 0.45951 0.48991 0.0
H2493 H 0.40561 0.46886 0.54378 0.0
H2494 H 0.42647 0.44921 0.39672 0.0
H2495 H 0.42846 0.45346 0.31136 0.0
loop_
_geom_bond_atom_site_label_1
_geom_bond_atom_site_label_2
_geom_bond_distance
_geom_bond_site_symmetry_2
_ccdc_geom_bond_type
C0 C1 1.351 . S
C0 N3 1.368 . S
C0 H5 0.931 . S
C1 C0 1.351 . S
C1 N2 1.373 . S
C1 H29 0.930 . S
N2 C1 1.373 . S
N2 C4 1.340 . S
N3 C0 1.368 . S
N3 C4 1.321 . S
N3 Co6 2.135 . S
C4 N2 1.340 . S
C4 N3 1.321 . S
C4 H28 0.930 . S
H5 C0 0.931 . S
Co6 N3 2.135 . S
Co6 N9 2.121 . S
Co6 O14 2.055 . S
Co6 O17 2.039 . S
Co6 N20 2.140 . S
C7 O8 1.227 . S
C7 O17 1.265 . S
O8 C7 1.227 . S
N9 Co6 2.121 . S
N9 C11 1.375 . S
N9 C12 1.313 . S
C10 C11 1.338 . S
C10 N13 1.377 . S
C10 H30 0.930 . S
C11 N9 1.375 . S
C11 C10 1.338 . S
C11 H15 0.931 . S
C12 N9 1.313 . S
C12 N13 1.344 . S
C12 H16 0.930 . S
N13 C10 1.377 . S
N13 C12 1.344 . S
O14 Co6 2.055 . S
O14 C18 1.253 . S
H15 C11 0.931 . S
H16 C12 0.930 . S
O17 Co6 2.039 . S
O17 C7 1.265 . S
C18 O14 1.253 . S
C18 O19 1.227 . S
O19 C18 1.227 . S
N20 Co6 2.140 . S
N20 C23 1.346 1_455 S
N20 C24 1.345 1_455 S
C21 C22 1.387 . S
C21 C25 1.391 . S
C22 C21 1.387 . S
C22 C23 1.369 . S
C22 H31 0.929 . S
C23 N20 1.346 1_655 S
C23 C22 1.369 . S
C23 H26 0.918 1_655 S
C24 N20 1.345 1_655 S
C24 C25 1.371 . S
C24 H27 0.931 1_655 S
C25 C21 1.391 . S
C25 C24 1.371 . S
C25 H32 0.930 . S
H26 C23 0.918 1_455 S
H27 C24 0.931 1_455 S
H28 C4 0.930 . S
H29 C1 0.930 . S
H30 C10 0.930 . S
H31 C22 0.929 . S
H32 C25 0.930 . S
C33 C34 1.351 . S
C33 N36 1.368 . S
C33 H38 0.931 . S
C34 C33 1.351 . S
C34 N35 1.373 . S
C34 H62 0.930 . S
N35 C34 1.373 . S
N35 C37 1.340 . S
N36 C33 1.368 . S
N36 C37 1.321 . S
N36 Co39 2.135 . S
C37 N35 1.340 . S
C37 N36 1.321 . S
C37 H61 0.930 . S
H38 C33 0.931 . S
Co39 N36 2.135 . S
Co39 N42 2.121 . S
Co39 O47 2.055 . S
Co39 O50 2.039 . S
Co39 N53 2.140 . S
C40 O41 1.227 . S
C40 O50 1.265 . S
O41 C40 1.227 . S
N42 Co39 2.121 . S
N42 C44 1.375 . S
N42 C45 1.313 . S
C43 C44 1.338 . S
C43 N46 1.377 . S
C43 H63 0.930 . S
C44 N42 1.375 . S
C44 C43 1.338 . S
C44 H48 0.931 . S
C45 N42 1.313 . S
C45 N46 1.344 . S
C45 H49 0.930 . S
N46 C43 1.377 . S
N46 C45 1.344 . S
O47 Co39 2.055 . S
O47 C51 1.253 . S
H48 C44 0.931 . S
H49 C45 0.930 . S
O50 Co39 2.039 . S
O50 C40 1.265 . S
C51 O47 1.253 . S
C51 O52 1.227 . S
O52 C51 1.227 . S
N53 Co39 2.140 . S
N53 C56 1.346 . S
N53 C57 1.345 . S
C54 C55 1.387 . S
C54 C58 1.391 . S
C55 C54 1.387 . S
C55 C56 1.369 . S
C55 H64 0.929 . S
C56 N53 1.346 . S
C56 C55 1.369 . S
C56 H59 0.928 . S
C57 N53 1.345 . S
C57 C58 1.371 . S
C57 H60 0.931 . S
C58 C54 1.391 . S
C58 C57 1.371 . S
C58 H65 0.930 . S
H59 C56 0.928 . S
H60 C57 0.931 . S
H61 C37 0.930 . S
H62 C34 0.930 . S
H63 C43 0.930 . S
H64 C55 0.929 . S
H65 C58 0.930 . S
C66 C67 1.351 . S
C66 N69 1.368 . S
C66 H71 0.931 . S
C67 C66 1.351 . S
C67 N68 1.373 . S
C67 H95 0.930 . S
N68 C67 1.373 . S
N68 C70 1.340 . S
N69 C66 1.368 . S
N69 C70 1.321 . S
N69 Co72 2.135 . S
C70 N68 1.340 . S
C70 N69 1.321 . S
C70 H94 0.930 . S
H71 C66 0.931 . S
Co72 N69 2.135 . S
Co72 N75 2.121 . S
Co72 O80 2.055 . S
Co72 O83 2.039 . S
Co72 N86 2.140 . S
C73 O74 1.227 . S
C73 O83 1.265 1_554 S
O74 C73 1.227 . S
N75 Co72 2.121 . S
N75 C77 1.375 . S
N75 C78 1.313 . S
C76 C77 1.338 . S
C76 N79 1.377 . S
C76 H96 0.930 . S
C77 N75 1.375 . S
C77 C76 1.338 . S
C77 H81 0.931 . S
C78 N75 1.313 . S
C78 N79 1.344 . S
C78 H82 0.930 . S
N79 C76 1.377 . S
N79 C78 1.344 . S
O80 Co72 2.055 . S
O80 C84 1.253 . S
H81 C77 0.931 . S
H82 C78 0.930 . S
O83 Co72 2.039 . S
O83 C73 1.265 1_556 S
C84 O80 1.253 . S
C84 O85 1.227 . S
O85 C84 1.227 . S
N86 Co72 2.140 . S
N86 C89 1.346 1_455 S
N86 C90 1.345 1_455 S
C87 C88 1.387 . S
C87 C91 1.391 . S
C88 C87 1.387 . S
C88 C89 1.369 . S
C88 H97 0.929 . S
C89 N86 1.346 1_655 S
C89 C88 1.369 . S
C89 H92 0.918 1_655 S
C90 N86 1.345 1_655 S
C90 C91 1.371 . S
C90 H93 0.931 1_655 S
C91 C87 1.391 . S
C91 C90 1.371 . S
C91 H98 0.930 . S
H92 C89 0.918 1_455 S
H93 C90 0.931 1_455 S
H94 C70 0.930 . S
H95 C67 0.930 . S
H96 C76 0.930 . S
H97 C88 0.929 . S
H98 C91 0.930 . S
C99 C100 1.351 . S
C99 N102 1.368 . S
C99 H104 0.931 . S
C100 C99 1.351 . S
C100 N101 1.373 . S
C100 H128 0.930 . S
N101 C100 1.373 . S
N101 C103 1.340 . S
N102 C99 1.368 . S
N102 C103 1.321 . S
N102 Co105 2.135 . S
C103 N101 1.340 . S
C103 N102 1.321 . S
C103 H127 0.930 . S
H104 C99 0.931 . S
Co105 N102 2.135 . S
Co105 N108 2.121 . S
Co105 O113 2.055 . S
Co105 O116 2.039 . S
Co105 N119 2.140 . S
C106 O107 1.227 . S
C106 O116 1.265 1_554 S
O107 C106 1.227 . S
N108 Co105 2.121 . S
N108 C110 1.375 . S
N108 C111 1.313 . S
C109 C110 1.338 . S
C109 N112 1.377 . S
C109 H129 0.930 . S
C110 N108 1.375 . S
C110 C109 1.338 . S
C110 H114 0.931 . S
C111 N108 1.313 . S
C111 N112 1.344 . S
C111 H115 0.930 . S
N112 C109 1.377 . S
N112 C111 1.344 . S
O113 Co105 2.055 . S
O113 C117 1.253 . S
H114 C110 0.931 . S
H115 C111 0.930 . S
O116 Co105 2.039 . S
O116 C106 1.265 1_556 S
C117 O113 1.253 . S
C117 O118 1.227 . S
O118 C117 1.227 . S
N119 Co105 2.140 . S
N119 C122 1.346 . S
N119 C123 1.345 . S
C120 C121 1.387 . S
C120 C124 1.391 . S
C121 C120 1.387 . S
C121 C122 1.369 . S
C121 H130 0.929 . S
C122 N119 1.346 . S
C122 C121 1.369 . S
C122 H125 0.928 . S
C123 N119 1.345 . S
C123 C124 1.371 . S
C123 H126 0.931 . S
C124 C120 1.391 . S
C124 C123 1.371 . S
C124 H131 0.930 . S
H125 C122 0.928 . S
H126 C123 0.931 . S
H127 C103 0.930 . S
H128 C100 0.930 . S
H129 C109 0.930 . S
H130 C121 0.929 . S
H131 C124 0.930 . S
C132 C133 1.351 . S
C132 N135 1.368 . S
C132 H137 0.931 . S
C133 C132 1.351 . S
C133 N134 1.373 . S
C133 H161 0.930 . S
N134 C133 1.373 . S
N134 C136 1.340 . S
N135 C132 1.368 . S
N135 C136 1.321 . S
N135 Co138 2.135 . S
C136 N134 1.340 . S
C136 N135 1.321 . S
C136 H160 0.930 . S
H137 C132 0.931 . S
Co138 N135 2.135 . S
Co138 N141 2.121 . S
Co138 O146 2.055 . S
Co138 O149 2.039 . S
Co138 N152 2.140 . S
C139 O140 1.227 . S
C139 O149 1.265 . S
O140 C139 1.227 . S
N141 Co138 2.121 . S
N141 C143 1.375 . S
N141 C144 1.313 . S
C142 C143 1.338 . S
C142 N145 1.377 . S
C142 H162 0.930 . S
C143 N141 1.375 . S
C143 C142 1.338 . S
C143 H147 0.931 . S
C144 N141 1.313 . S
C144 N145 1.344 . S
C144 H148 0.930 . S
N145 C142 1.377 . S
N145 C144 1.344 . S
O146 Co138 2.055 . S
O146 C150 1.253 . S
H147 C143 0.931 . S
H148 C144 0.930 . S
O149 Co138 2.039 . S
O149 C139 1.265 . S
C150 O146 1.253 . S
C150 O151 1.227 . S
O151 C150 1.227 . S
N152 Co138 2.140 . S
N152 C155 1.346 1_655 S
N152 C156 1.345 1_655 S
C153 C154 1.387 . S
C153 C157 1.391 . S
C154 C153 1.387 . S
C154 C155 1.369 . S
C154 H163 0.929 . S
C155 N152 1.346 1_455 S
C155 C154 1.369 . S
C155 H158 0.918 1_455 S
C156 N152 1.345 1_455 S
C156 C157 1.371 . S
C156 H159 0.931 1_455 S
C157 C153 1.391 . S
C157 C156 1.371 . S
C157 H164 0.930 . S
H158 C155 0.918 1_655 S
H159 C156 0.931 1_655 S
H160 C136 0.930 . S
H161 C133 0.930 . S
H162 C142 0.930 . S
H163 C154 0.929 . S
H164 C157 0.930 . S
C165 C166 1.351 . S
C165 N168 1.368 . S
C165 H170 0.931 . S
C166 C165 1.351 . S
C166 N167 1.373 . S
C166 H194 0.930 . S
N167 C166 1.373 . S
N167 C169 1.340 . S
N168 C165 1.368 . S
N168 C169 1.321 . S
N168 Co171 2.135 . S
C169 N167 1.340 . S
C169 N168 1.321 . S
C169 H193 0.930 . S
H170 C165 0.931 . S
Co171 N168 2.135 . S
Co171 N174 2.121 . S
Co171 O179 2.055 . S
Co171 O182 2.039 . S
Co171 N185 2.140 . S
C172 O173 1.227 . S
C172 O182 1.265 . S
O173 C172 1.227 . S
N174 Co171 2.121 . S
N174 C176 1.375 . S
N174 C177 1.313 . S
C175 C176 1.338 . S
C175 N178 1.377 . S
C175 H195 0.930 . S
C176 N174 1.375 . S
C176 C175 1.338 . S
C176 H180 0.931 . S
C177 N174 1.313 . S
C177 N178 1.344 . S
C177 H181 0.930 . S
N178 C175 1.377 . S
N178 C177 1.344 . S
O179 Co171 2.055 . S
O179 C183 1.253 . S
H180 C176 0.931 . S
H181 C177 0.930 . S
O182 Co171 2.039 . S
O182 C172 1.265 . S
C183 O179 1.253 . S
C183 O184 1.227 . S
O184 C183 1.227 . S
N185 Co171 2.140 . S
N185 C188 1.346 . S
N185 C189 1.345 . S
C186 C187 1.387 . S
C186 C190 1.391 . S
C187 C186 1.387 . S
C187 C188 1.369 . S
C187 H196 0.929 . S
C188 N185 1.346 . S
C188 C187 1.369 . S
C188 H191 0.928 . S
C189 N185 1.345 . S
C189 C190 1.371 . S
C189 H192 0.931 . S
C190 C186 1.391 . S
C190 C189 1.371 . S
C190 H197 0.930 . S
H191 C188 0.928 . S
H192 C189 0.931 . S
H193 C169 0.930 . S
H194 C166 0.930 . S
H195 C175 0.930 . S
H196 C187 0.929 . S
H197 C190 0.930 . S
C198 C199 1.351 . S
C198 N201 1.368 . S
C198 H203 0.931 . S
C199 C198 1.351 . S
C199 N200 1.373 . S
C199 H227 0.930 . S
N200 C199 1.373 . S
N200 C202 1.340 . S
N201 C198 1.368 . S
N201 C202 1.321 . S
N201 Co204 2.135 . S
C202 N200 1.340 . S
C202 N201 1.321 . S
C202 H226 0.930 . S
H203 C198 0.931 . S
Co204 N201 2.135 . S
Co204 N207 2.121 . S
Co204 O212 2.055 . S
Co204 O215 2.039 . S
Co204 N218 2.140 . S
C205 O206 1.227 . S
C205 O215 1.265 1_556 S
O206 C205 1.227 . S
N207 Co204 2.121 . S
N207 C209 1.375 . S
N207 C210 1.313 . S
C208 C209 1.338 . S
C208 N211 1.377 . S
C208 H228 0.930 . S
C209 N207 1.375 . S
C209 C208 1.338 . S
C209 H213 0.931 . S
C210 N207 1.313 . S
C210 N211 1.344 . S
C210 H214 0.930 . S
N211 C208 1.377 . S
N211 C210 1.344 . S
O212 Co204 2.055 . S
O212 C216 1.253 . S
H213 C209 0.931 . S
H214 C210 0.930 . S
O215 Co204 2.039 . S
O215 C205 1.265 1_554 S
C216 O212 1.253 . S
C216 O217 1.227 . S
O217 C216 1.227 . S
N218 Co204 2.140 . S
N218 C221 1.346 1_655 S
N218 C222 1.345 1_655 S
C219 C220 1.387 . S
C219 C223 1.391 . S
C220 C219 1.387 . S
C220 C221 1.369 . S
C220 H229 0.929 . S
C221 N218 1.346 1_455 S
C221 C220 1.369 . S
C221 H224 0.918 1_455 S
C222 N218 1.345 1_455 S
C222 C223 1.371 . S
C222 H225 0.931 1_455 S
C223 C219 1.391 . S
C223 C222 1.371 . S
C223 H230 0.930 . S
H224 C221 0.918 1_655 S
H225 C222 0.931 1_655 S
H226 C202 0.930 . S
H227 C199 0.930 . S
H228 C208 0.930 . S
H229 C220 0.929 . S
H230 C223 0.930 . S
C231 C232 1.351 . S
C231 N234 1.368 . S
C231 H236 0.931 . S
C232 C231 1.351 . S
C232 N233 1.373 . S
C232 H260 0.930 . S
N233 C232 1.373 . S
N233 C235 1.340 . S
N234 C231 1.368 . S
N234 C235 1.321 . S
N234 Co237 2.135 . S
C235 N233 1.340 . S
C235 N234 1.321 . S
C235 H259 0.930 . S
H236 C231 0.931 . S
Co237 N234 2.135 . S
Co237 N240 2.121 . S
Co237 O245 2.055 . S
Co237 O248 2.039 . S
Co237 N251 2.140 . S
C238 O239 1.227 . S
C238 O248 1.265 1_556 S
O239 C238 1.227 . S
N240 Co237 2.121 . S
N240 C242 1.375 . S
N240 C243 1.313 . S
C241 C242 1.338 . S
C241 N244 1.377 . S
C241 H261 0.930 . S
C242 N240 1.375 . S
C242 C241 1.338 . S
C242 H246 0.931 . S
C243 N240 1.313 . S
C243 N244 1.344 . S
C243 H247 0.930 . S
N244 C241 1.377 . S
N244 C243 1.344 . S
O245 Co237 2.055 . S
O245 C249 1.253 . S
H246 C242 0.931 . S
H247 C243 0.930 . S
O248 Co237 2.039 . S
O248 C238 1.265 1_554 S
C249 O245 1.253 . S
C249 O250 1.227 . S
O250 C249 1.227 . S
N251 Co237 2.140 . S
N251 C254 1.346 . S
N251 C255 1.345 . S
C252 C253 1.387 . S
C252 C256 1.391 . S
C253 C252 1.387 . S
C253 C254 1.369 . S
C253 H262 0.929 . S
C254 N251 1.346 . S
C254 C253 1.369 . S
C254 H257 0.928 . S
C255 N251 1.345 . S
C255 C256 1.371 . S
C255 H258 0.931 . S
C256 C252 1.391 . S
C256 C255 1.371 . S
C256 H263 0.930 . S
H257 C254 0.928 . S
H258 C255 0.931 . S
H259 C235 0.930 . S
H260 C232 0.930 . S
H261 C241 0.930 . S
H262 C253 0.929 . S
H263 C256 0.930 . S
C264 C265 1.351 . S
C264 N267 1.368 . S
C264 H269 0.931 . S
C265 C264 1.351 . S
C265 N266 1.373 . S
C265 H293 0.930 . S
N266 C265 1.373 . S
N266 C268 1.340 . S
N267 C264 1.368 . S
N267 C268 1.321 . S
N267 Co270 2.135 . S
C268 N266 1.340 . S
C268 N267 1.321 . S
C268 H292 0.930 . S
H269 C264 0.931 . S
Co270 N267 2.135 . S
Co270 N273 2.121 . S
Co270 O278 2.055 . S
Co270 O281 2.039 . S
Co270 N284 2.140 . S
C271 O272 1.227 . S
C271 O281 1.265 . S
O272 C271 1.227 . S
N273 Co270 2.121 . S
N273 C275 1.375 . S
N273 C276 1.313 . S
C274 C275 1.338 . S
C274 N277 1.377 . S
C274 H294 0.930 . S
C275 N273 1.375 . S
C275 C274 1.338 . S
C275 H279 0.931 . S
C276 N273 1.313 . S
C276 N277 1.344 . S
C276 H280 0.930 . S
N277 C274 1.377 . S
N277 C276 1.344 . S
O278 Co270 2.055 . S
O278 C282 1.253 . S
H279 C275 0.931 . S
H280 C276 0.930 . S
O281 Co270 2.039 . S
O281 C271 1.265 . S
C282 O278 1.253 . S
C282 O283 1.227 . S
O283 C282 1.227 . S
N284 Co270 2.140 . S
N284 C287 1.346 1_455 S
N284 C288 1.345 1_455 S
C285 C286 1.387 . S
C285 C289 1.391 . S
C286 C285 1.387 . S
C286 C287 1.369 . S
C286 H295 0.929 . S
C287 N284 1.346 1_655 S
C287 C286 1.369 . S
C287 H290 0.918 1_655 S
C288 N284 1.345 1_655 S
C288 C289 1.371 . S
C288 H291 0.931 1_655 S
C289 C285 1.391 . S
C289 C288 1.371 . S
C289 H296 0.930 . S
H290 C287 0.918 1_455 S
H291 C288 0.931 1_455 S
H292 C268 0.930 . S
H293 C265 0.930 . S
H294 C274 0.930 . S
H295 C286 0.929 . S
H296 C289 0.930 . S
C297 C298 1.351 . S
C297 N300 1.368 . S
C297 H302 0.931 . S
C298 C297 1.351 . S
C298 N299 1.373 . S
C298 H326 0.930 . S
N299 C298 1.373 . S
N299 C301 1.340 . S
N300 C297 1.368 . S
N300 C301 1.321 . S
N300 Co303 2.135 . S
C301 N299 1.340 . S
C301 N300 1.321 . S
C301 H325 0.930 . S
H302 C297 0.931 . S
Co303 N300 2.135 . S
Co303 N306 2.121 . S
Co303 O311 2.055 . S
Co303 O314 2.039 . S
Co303 N317 2.140 . S
C304 O305 1.227 . S
C304 O314 1.265 . S
O305 C304 1.227 . S
N306 Co303 2.121 . S
N306 C308 1.375 . S
N306 C309 1.313 . S
C307 C308 1.338 . S
C307 N310 1.377 . S
C307 H327 0.930 . S
C308 N306 1.375 . S
C308 C307 1.338 . S
C308 H312 0.931 . S
C309 N306 1.313 . S
C309 N310 1.344 . S
C309 H313 0.930 . S
N310 C307 1.377 . S
N310 C309 1.344 . S
O311 Co303 2.055 . S
O311 C315 1.253 . S
H312 C308 0.931 . S
H313 C309 0.930 . S
O314 Co303 2.039 . S
O314 C304 1.265 . S
C315 O311 1.253 . S
C315 O316 1.227 . S
O316 C315 1.227 . S
N317 Co303 2.140 . S
N317 C320 1.346 . S
N317 C321 1.345 . S
C318 C319 1.387 . S
C318 C322 1.391 . S
C319 C318 1.387 . S
C319 C320 1.369 . S
C319 H328 0.929 . S
C320 N317 1.346 . S
C320 C319 1.369 . S
C320 H323 0.928 . S
C321 N317 1.345 . S
C321 C322 1.371 . S
C321 H324 0.931 . S
C322 C318 1.391 . S
C322 C321 1.371 . S
C322 H329 0.930 . S
H323 C320 0.928 . S
H324 C321 0.931 . S
H325 C301 0.930 . S
H326 C298 0.930 . S
H327 C307 0.930 . S
H328 C319 0.929 . S
H329 C322 0.930 . S
C330 C331 1.351 . S
C330 N333 1.368 . S
C330 H335 0.931 . S
C331 C330 1.351 . S
C331 N332 1.373 . S
C331 H359 0.930 . S
N332 C331 1.373 . S
N332 C334 1.340 . S
N333 C330 1.368 . S
N333 C334 1.321 . S
N333 Co336 2.135 . S
C334 N332 1.340 . S
C334 N333 1.321 . S
C334 H358 0.930 . S
H335 C330 0.931 . S
Co336 N333 2.135 . S
Co336 N339 2.121 . S
Co336 O344 2.055 . S
Co336 O347 2.039 . S
Co336 N350 2.140 . S
C337 O338 1.227 . S
C337 O347 1.265 . S
O338 C337 1.227 . S
N339 Co336 2.121 . S
N339 C341 1.375 . S
N339 C342 1.313 . S
C340 C341 1.338 . S
C340 N343 1.377 . S
C340 H360 0.930 . S
C341 N339 1.375 . S
C341 C340 1.338 . S
C341 H345 0.931 . S
C342 N339 1.313 . S
C342 N343 1.344 . S
C342 H346 0.930 . S
N343 C340 1.377 . S
N343 C342 1.344 . S
O344 Co336 2.055 . S
O344 C348 1.253 . S
H345 C341 0.931 . S
H346 C342 0.930 . S
O347 Co336 2.039 . S
O347 C337 1.265 . S
C348 O344 1.253 . S
C348 O349 1.227 . S
O349 C348 1.227 . S
N350 Co336 2.140 . S
N350 C353 1.346 1_455 S
N350 C354 1.345 1_455 S
C351 C352 1.387 . S
C351 C355 1.391 . S
C352 C351 1.387 . S
C352 C353 1.369 . S
C352 H361 0.929 . S
C353 N350 1.346 1_655 S
C353 C352 1.369 . S
C353 H356 0.918 1_655 S
C354 N350 1.345 1_655 S
C354 C355 1.371 . S
C354 H357 0.931 1_655 S
C355 C351 1.391 . S
C355 C354 1.371 . S
C355 H362 0.930 . S
H356 C353 0.918 1_455 S
H357 C354 0.931 1_455 S
H358 C334 0.930 . S
H359 C331 0.930 . S
H360 C340 0.930 . S
H361 C352 0.929 . S
H362 C355 0.930 . S
C363 C364 1.351 . S
C363 N366 1.368 . S
C363 H368 0.931 . S
C364 C363 1.351 . S
C364 N365 1.373 . S
C364 H392 0.930 . S
N365 C364 1.373 . S
N365 C367 1.340 . S
N366 C363 1.368 . S
N366 C367 1.321 . S
N366 Co369 2.135 . S
C367 N365 1.340 . S
C367 N366 1.321 . S
C367 H391 0.930 . S
H368 C363 0.931 . S
Co369 N366 2.135 . S
Co369 N372 2.121 . S
Co369 O377 2.055 . S
Co369 O380 2.039 . S
Co369 N383 2.140 . S
C370 O371 1.227 . S
C370 O380 1.265 . S
O371 C370 1.227 . S
N372 Co369 2.121 . S
N372 C374 1.375 . S
N372 C375 1.313 . S
C373 C374 1.338 . S
C373 N376 1.377 . S
C373 H393 0.930 . S
C374 N372 1.375 . S
C374 C373 1.338 . S
C374 H378 0.931 . S
C375 N372 1.313 . S
C375 N376 1.344 . S
C375 H379 0.930 . S
N376 C373 1.377 . S
N376 C375 1.344 . S
O377 Co369 2.055 . S
O377 C381 1.253 . S
H378 C374 0.931 . S
H379 C375 0.930 . S
O380 Co369 2.039 . S
O380 C370 1.265 . S
C381 O377 1.253 . S
C381 O382 1.227 . S
O382 C381 1.227 . S
N383 Co369 2.140 . S
N383 C386 1.346 . S
N383 C387 1.345 . S
C384 C385 1.387 . S
C384 C388 1.391 . S
C385 C384 1.387 . S
C385 C386 1.369 . S
C385 H394 0.929 . S
C386 N383 1.346 . S
C386 C385 1.369 . S
C386 H389 0.928 . S
C387 N383 1.345 . S
C387 C388 1.371 . S
C387 H390 0.931 . S
C388 C384 1.391 . S
C388 C387 1.371 . S
C388 H395 0.930 . S
H389 C386 0.928 . S
H390 C387 0.931 . S
H391 C367 0.930 . S
H392 C364 0.930 . S
H393 C373 0.930 . S
H394 C385 0.929 . S
H395 C388 0.930 . S
C396 C397 1.351 . S
C396 N399 1.368 . S
C396 H401 0.931 . S
C397 C396 1.351 . S
C397 N398 1.373 . S
C397 H425 0.930 . S
N398 C397 1.373 . S
N398 C400 1.340 . S
N399 C396 1.368 . S
N399 C400 1.321 . S
N399 Co402 2.135 . S
C400 N398 1.340 . S
C400 N399 1.321 . S
C400 H424 0.930 . S
H401 C396 0.931 . S
Co402 N399 2.135 . S
Co402 N405 2.121 . S
Co402 O410 2.055 . S
Co402 O413 2.039 . S
Co402 N416 2.140 . S
C403 O404 1.227 . S
C403 O413 1.265 . S
O404 C403 1.227 . S
N405 Co402 2.121 . S
N405 C407 1.375 . S
N405 C408 1.313 . S
C406 C407 1.338 . S
C406 N409 1.377 . S
C406 H426 0.930 . S
C407 N405 1.375 . S
C407 C406 1.338 . S
C407 H411 0.931 . S
C408 N405 1.313 . S
C408 N409 1.344 . S
C408 H412 0.930 . S
N409 C406 1.377 . S
N409 C408 1.344 . S
O410 Co402 2.055 . S
O410 C414 1.253 . S
H411 C407 0.931 . S
H412 C408 0.930 . S
O413 Co402 2.039 . S
O413 C403 1.265 . S
C414 O410 1.253 . S
C414 O415 1.227 . S
O415 C414 1.227 . S
N416 Co402 2.140 . S
N416 C419 1.346 1_655 S
N416 C420 1.345 1_655 S
C417 C418 1.387 . S
C417 C421 1.391 . S
C418 C417 1.387 . S
C418 C419 1.369 . S
C418 H427 0.929 . S
C419 N416 1.346 1_455 S
C419 C418 1.369 . S
C419 H422 0.918 1_455 S
C420 N416 1.345 1_455 S
C420 C421 1.371 . S
C420 H423 0.931 1_455 S
C421 C417 1.391 . S
C421 C420 1.371 . S
C421 H428 0.930 . S
H422 C419 0.918 1_655 S
H423 C420 0.931 1_655 S
H424 C400 0.930 . S
H425 C397 0.930 . S
H426 C406 0.930 . S
H427 C418 0.929 . S
H428 C421 0.930 . S
C429 C430 1.351 . S
C429 N432 1.368 . S
C429 H434 0.931 . S
C430 C429 1.351 . S
C430 N431 1.373 . S
C430 H458 0.930 . S
N431 C430 1.373 . S
N431 C433 1.340 . S
N432 C429 1.368 . S
N432 C433 1.321 . S
N432 Co435 2.135 . S
C433 N431 1.340 . S
C433 N432 1.321 . S
C433 H457 0.930 . S
H434 C429 0.931 . S
Co435 N432 2.135 . S
Co435 N438 2.121 . S
Co435 O443 2.055 . S
Co435 O446 2.039 . S
Co435 N449 2.140 . S
C436 O437 1.227 . S
C436 O446 1.265 . S
O437 C436 1.227 . S
N438 Co435 2.121 . S
N438 C440 1.375 . S
N438 C441 1.313 . S
C439 C440 1.338 . S
C439 N442 1.377 . S
C439 H459 0.930 . S
C440 N438 1.375 . S
C440 C439 1.338 . S
C440 H444 0.931 . S
C441 N438 1.313 . S
C441 N442 1.344 . S
C441 H445 0.930 . S
N442 C439 1.377 . S
N442 C441 1.344 . S
O443 Co435 2.055 . S
O443 C447 1.253 . S
H444 C440 0.931 . S
H445 C441 0.930 . S
O446 Co435 2.039 . S
O446 C436 1.265 . S
C447 O443 1.253 . S
C447 O448 1.227 . S
O448 C447 1.227 . S
N449 Co435 2.140 . S
N449 C452 1.346 . S
N449 C453 1.345 . S
C450 C451 1.387 . S
C450 C454 1.391 . S
C451 C450 1.387 . S
C451 C452 1.369 . S
C451 H460 0.929 . S
C452 N449 1.346 . S
C452 C451 1.369 . S
C452 H455 0.928 . S
C453 N449 1.345 . S
C453 C454 1.371 . S
C453 H456 0.931 . S
C454 C450 1.391 . S
C454 C453 1.371 . S
C454 H461 0.930 . S
H455 C452 0.928 . S
H456 C453 0.931 . S
H457 C433 0.930 . S
H458 C430 0.930 . S
H459 C439 0.930 . S
H460 C451 0.929 . S
H461 C454 0.930 . S
C462 C463 1.351 . S
C462 N465 1.368 . S
C462 H467 0.931 . S
C463 C462 1.351 . S
C463 N464 1.373 . S
C463 H491 0.930 . S
N464 C463 1.373 . S
N464 C466 1.340 . S
N465 C462 1.368 . S
N465 C466 1.321 . S
N465 Co468 2.135 . S
C466 N464 1.340 . S
C466 N465 1.321 . S
C466 H490 0.930 . S
H467 C462 0.931 . S
Co468 N465 2.135 . S
Co468 N471 2.121 . S
Co468 O476 2.055 . S
Co468 O479 2.039 . S
Co468 N482 2.140 . S
C469 O470 1.227 . S
C469 O479 1.265 . S
O470 C469 1.227 . S
N471 Co468 2.121 . S
N471 C473 1.375 . S
N471 C474 1.313 . S
C472 C473 1.338 . S
C472 N475 1.377 . S
C472 H492 0.930 . S
C473 N471 1.375 . S
C473 C472 1.338 . S
C473 H477 0.931 . S
C474 N471 1.313 . S
C474 N475 1.344 . S
C474 H478 0.930 . S
N475 C472 1.377 . S
N475 C474 1.344 . S
O476 Co468 2.055 . S
O476 C480 1.253 . S
H477 C473 0.931 . S
H478 C474 0.930 . S
O479 Co468 2.039 . S
O479 C469 1.265 . S
C480 O476 1.253 . S
C480 O481 1.227 . S
O481 C480 1.227 . S
N482 Co468 2.140 . S
N482 C485 1.346 1_655 S
N482 C486 1.345 1_655 S
C483 C484 1.387 . S
C483 C487 1.391 . S
C484 C483 1.387 . S
C484 C485 1.369 . S
C484 H493 0.929 . S
C485 N482 1.346 1_455 S
C485 C484 1.369 . S
C485 H488 0.918 1_455 S
C486 N482 1.345 1_455 S
C486 C487 1.371 . S
C486 H489 0.931 1_455 S
C487 C483 1.391 . S
C487 C486 1.371 . S
C487 H494 0.930 . S
H488 C485 0.918 1_655 S
H489 C486 0.931 1_655 S
H490 C466 0.930 . S
H491 C463 0.930 . S
H492 C472 0.930 . S
H493 C484 0.929 . S
H494 C487 0.930 . S
C495 C496 1.351 . S
C495 N498 1.368 . S
C495 H500 0.931 . S
C496 C495 1.351 . S
C496 N497 1.373 . S
C496 H524 0.930 . S
N497 C496 1.373 . S
N497 C499 1.340 . S
N498 C495 1.368 . S
N498 C499 1.321 . S
N498 Co501 2.135 . S
C499 N497 1.340 . S
C499 N498 1.321 . S
C499 H523 0.930 . S
H500 C495 0.931 . S
Co501 N498 2.135 . S
Co501 N504 2.121 . S
Co501 O509 2.055 . S
Co501 O512 2.039 . S
Co501 N515 2.140 . S
C502 O503 1.227 . S
C502 O512 1.265 . S
O503 C502 1.227 . S
N504 Co501 2.121 . S
N504 C506 1.375 . S
N504 C507 1.313 . S
C505 C506 1.338 . S
C505 N508 1.377 . S
C505 H525 0.930 . S
C506 N504 1.375 . S
C506 C505 1.338 . S
C506 H510 0.931 . S
C507 N504 1.313 . S
C507 N508 1.344 . S
C507 H511 0.930 . S
N508 C505 1.377 . S
N508 C507 1.344 . S
O509 Co501 2.055 . S
O509 C513 1.253 . S
H510 C506 0.931 . S
H511 C507 0.930 . S
O512 Co501 2.039 . S
O512 C502 1.265 . S
C513 O509 1.253 . S
C513 O514 1.227 . S
O514 C513 1.227 . S
N515 Co501 2.140 . S
N515 C518 1.346 . S
N515 C519 1.345 . S
C516 C517 1.387 . S
C516 C520 1.391 . S
C517 C516 1.387 . S
C517 C518 1.369 . S
C517 H526 0.929 . S
C518 N515 1.346 . S
C518 C517 1.369 . S
C518 H521 0.928 . S
C519 N515 1.345 . S
C519 C520 1.371 . S
C519 H522 0.931 . S
C520 C516 1.391 . S
C520 C519 1.371 . S
C520 H527 0.930 . S
H521 C518 0.928 . S
H522 C519 0.931 . S
H523 C499 0.930 . S
H524 C496 0.930 . S
H525 C505 0.930 . S
H526 C517 0.929 . S
H527 C520 0.930 . S
C528 C529 1.351 . S
C528 N531 1.368 . S
C528 H533 0.931 . S
C529 C528 1.351 . S
C529 N530 1.373 . S
C529 H557 0.930 . S
N530 C529 1.373 . S
N530 C532 1.340 . S
N531 C528 1.368 . S
N531 C532 1.321 . S
N531 Co534 2.135 . S
C532 N530 1.340 . S
C532 N531 1.321 . S
C532 H556 0.930 . S
H533 C528 0.931 . S
Co534 N531 2.135 . S
Co534 N537 2.121 . S
Co534 O542 2.055 . S
Co534 O545 2.039 . S
Co534 N548 2.140 . S
C535 O536 1.227 . S
C535 O545 1.265 . S
O536 C535 1.227 . S
N537 Co534 2.121 . S
N537 C539 1.375 . S
N537 C540 1.313 . S
C538 C539 1.338 . S
C538 N541 1.377 . S
C538 H558 0.930 . S
C539 N537 1.375 . S
C539 C538 1.338 . S
C539 H543 0.931 . S
C540 N537 1.313 . S
C540 N541 1.344 . S
C540 H544 0.930 . S
N541 C538 1.377 . S
N541 C540 1.344 . S
O542 Co534 2.055 . S
O542 C546 1.253 . S
H543 C539 0.931 . S
H544 C540 0.930 . S
O545 Co534 2.039 . S
O545 C535 1.265 . S
C546 O542 1.253 . S
C546 O547 1.227 . S
O547 C546 1.227 . S
N548 Co534 2.140 . S
N548 C551 1.346 . S
N548 C552 1.345 . S
C549 C550 1.387 . S
C549 C553 1.391 . S
C550 C549 1.387 . S
C550 C551 1.369 . S
C550 H559 0.929 . S
C551 N548 1.346 . S
C551 C550 1.369 . S
C551 H554 0.928 . S
C552 N548 1.345 . S
C552 C553 1.371 . S
C552 H555 0.931 . S
C553 C549 1.391 . S
C553 C552 1.371 . S
C553 H560 0.930 . S
H554 C551 0.928 . S
H555 C552 0.931 . S
H556 C532 0.930 . S
H557 C529 0.930 . S
H558 C538 0.930 . S
H559 C550 0.929 . S
H560 C553 0.930 . S
C561 C562 1.351 . S
C561 N564 1.368 . S
C561 H566 0.931 . S
C562 C561 1.351 . S
C562 N563 1.373 . S
C562 H590 0.930 . S
N563 C562 1.373 . S
N563 C565 1.340 . S
N564 C561 1.368 . S
N564 C565 1.321 . S
N564 Co567 2.135 . S
C565 N563 1.340 . S
C565 N564 1.321 . S
C565 H589 0.930 . S
H566 C561 0.931 . S
Co567 N564 2.135 . S
Co567 N570 2.121 . S
Co567 O575 2.055 . S
Co567 O578 2.039 . S
Co567 N581 2.140 . S
C568 O569 1.227 . S
C568 O578 1.265 . S
O569 C568 1.227 . S
N570 Co567 2.121 . S
N570 C572 1.375 . S
N570 C573 1.313 . S
C571 C572 1.338 . S
C571 N574 1.377 . S
C571 H591 0.930 . S
C572 N570 1.375 . S
C572 C571 1.338 . S
C572 H576 0.931 . S
C573 N570 1.313 . S
C573 N574 1.344 . S
C573 H577 0.930 . S
N574 C571 1.377 . S
N574 C573 1.344 . S
O575 Co567 2.055 . S
O575 C579 1.253 . S
H576 C572 0.931 . S
H577 C573 0.930 . S
O578 Co567 2.039 . S
O578 C568 1.265 . S
C579 O575 1.253 . S
C579 O580 1.227 . S
O580 C579 1.227 . S
N581 Co567 2.140 . S
N581 C584 1.346 . S
N581 C585 1.345 . S
C582 C583 1.387 . S
C582 C586 1.391 . S
C583 C582 1.387 . S
C583 C584 1.369 . S
C583 H592 0.929 . S
C584 N581 1.346 . S
C584 C583 1.369 . S
C584 H587 0.928 . S
C585 N581 1.345 . S
C585 C586 1.371 . S
C585 H588 0.931 . S
C586 C582 1.391 . S
C586 C585 1.371 . S
C586 H593 0.930 . S
H587 C584 0.928 . S
H588 C585 0.931 . S
H589 C565 0.930 . S
H590 C562 0.930 . S
H591 C571 0.930 . S
H592 C583 0.929 . S
H593 C586 0.930 . S
C594 C595 1.351 . S
C594 N597 1.368 . S
C594 H599 0.931 . S
C595 C594 1.351 . S
C595 N596 1.373 . S
C595 H623 0.930 . S
N596 C595 1.373 . S
N596 C598 1.340 . S
N597 C594 1.368 . S
N597 C598 1.321 . S
N597 Co600 2.135 . S
C598 N596 1.340 . S
C598 N597 1.321 . S
C598 H622 0.930 . S
H599 C594 0.931 . S
Co600 N597 2.135 . S
Co600 N603 2.121 . S
Co600 O608 2.055 . S
Co600 O611 2.039 . S
Co600 N614 2.140 . S
C601 O602 1.227 . S
C601 O611 1.265 . S
O602 C601 1.227 . S
N603 Co600 2.121 . S
N603 C605 1.375 . S
N603 C606 1.313 . S
C604 C605 1.338 . S
C604 N607 1.377 . S
C604 H624 0.930 . S
C605 N603 1.375 . S
C605 C604 1.338 . S
C605 H609 0.931 . S
C606 N603 1.313 . S
C606 N607 1.344 . S
C606 H610 0.930 . S
N607 C604 1.377 . S
N607 C606 1.344 . S
O608 Co600 2.055 . S
O608 C612 1.253 . S
H609 C605 0.931 . S
H610 C606 0.930 . S
O611 Co600 2.039 . S
O611 C601 1.265 . S
C612 O608 1.253 . S
C612 O613 1.227 . S
O613 C612 1.227 . S
N614 Co600 2.140 . S
N614 C617 1.346 . S
N614 C618 1.345 . S
C615 C616 1.387 . S
C615 C619 1.391 . S
C616 C615 1.387 . S
C616 C617 1.369 . S
C616 H625 0.929 . S
C617 N614 1.346 . S
C617 C616 1.369 . S
C617 H620 0.928 . S
C618 N614 1.345 . S
C618 C619 1.371 . S
C618 H621 0.931 . S
C619 C615 1.391 . S
C619 C618 1.371 . S
C619 H626 0.930 . S
H620 C617 0.928 . S
H621 C618 0.931 . S
H622 C598 0.930 . S
H623 C595 0.930 . S
H624 C604 0.930 . S
H625 C616 0.929 . S
H626 C619 0.930 . S
C627 C628 1.351 . S
C627 N630 1.368 . S
C627 H632 0.931 . S
C628 C627 1.351 . S
C628 N629 1.373 . S
C628 H656 0.930 . S
N629 C628 1.373 . S
N629 C631 1.340 . S
N630 C627 1.368 . S
N630 C631 1.321 . S
N630 Co633 2.135 . S
C631 N629 1.340 . S
C631 N630 1.321 . S
C631 H655 0.930 . S
H632 C627 0.931 . S
Co633 N630 2.135 . S
Co633 N636 2.121 . S
Co633 O641 2.055 . S
Co633 O644 2.039 . S
Co633 N647 2.140 . S
C634 O635 1.227 . S
C634 O644 1.265 . S
O635 C634 1.227 . S
N636 Co633 2.121 . S
N636 C638 1.375 . S
N636 C639 1.313 . S
C637 C638 1.338 . S
C637 N640 1.377 . S
C637 H657 0.930 . S
C638 N636 1.375 . S
C638 C637 1.338 . S
C638 H642 0.931 . S
C639 N636 1.313 . S
C639 N640 1.344 . S
C639 H643 0.930 . S
N640 C637 1.377 . S
N640 C639 1.344 . S
O641 Co633 2.055 . S
O641 C645 1.253 . S
H642 C638 0.931 . S
H643 C639 0.930 . S
O644 Co633 2.039 . S
O644 C634 1.265 . S
C645 O641 1.253 . S
C645 O646 1.227 . S
O646 C645 1.227 . S
N647 Co633 2.140 . S
N647 C650 1.346 . S
N647 C651 1.345 . S
C648 C649 1.387 . S
C648 C652 1.391 . S
C649 C648 1.387 . S
C649 C650 1.369 . S
C649 H658 0.929 . S
C650 N647 1.346 . S
C650 C649 1.369 . S
C650 H653 0.928 . S
C651 N647 1.345 . S
C651 C652 1.371 . S
C651 H654 0.931 . S
C652 C648 1.391 . S
C652 C651 1.371 . S
C652 H659 0.930 . S
H653 C650 0.928 . S
H654 C651 0.931 . S
H655 C631 0.930 . S
H656 C628 0.930 . S
H657 C637 0.930 . S
H658 C649 0.929 . S
H659 C652 0.930 . S
C660 C661 1.351 . S
C660 N663 1.368 . S
C660 H665 0.931 . S
C661 C660 1.351 . S
C661 N662 1.373 . S
C661 H689 0.930 . S
N662 C661 1.373 . S
N662 C664 1.340 . S
N663 C660 1.368 . S
N663 C664 1.321 . S
N663 Co666 2.135 . S
C664 N662 1.340 . S
C664 N663 1.321 . S
C664 H688 0.930 . S
H665 C660 0.931 . S
Co666 N663 2.135 . S
Co666 N669 2.121 . S
Co666 O674 2.055 . S
Co666 O677 2.039 . S
Co666 N680 2.140 . S
C667 O668 1.227 . S
C667 O677 1.265 . S
O668 C667 1.227 . S
N669 Co666 2.121 . S
N669 C671 1.375 . S
N669 C672 1.313 . S
C670 C671 1.338 . S
C670 N673 1.377 . S
C670 H690 0.930 . S
C671 N669 1.375 . S
C671 C670 1.338 . S
C671 H675 0.931 . S
C672 N669 1.313 . S
C672 N673 1.344 . S
C672 H676 0.930 . S
N673 C670 1.377 . S
N673 C672 1.344 . S
O674 Co666 2.055 . S
O674 C678 1.253 . S
H675 C671 0.931 . S
H676 C672 0.930 . S
O677 Co666 2.039 . S
O677 C667 1.265 . S
C678 O674 1.253 . S
C678 O679 1.227 . S
O679 C678 1.227 . S
N680 Co666 2.140 . S
N680 C683 1.346 . S
N680 C684 1.345 . S
C681 C682 1.387 . S
C681 C685 1.391 . S
C682 C681 1.387 . S
C682 C683 1.369 . S
C682 H691 0.929 . S
C683 N680 1.346 . S
C683 C682 1.369 . S
C683 H686 0.928 . S
C684 N680 1.345 . S
C684 C685 1.371 . S
C684 H687 0.931 . S
C685 C681 1.391 . S
C685 C684 1.371 . S
C685 H692 0.930 . S
H686 C683 0.928 . S
H687 C684 0.931 . S
H688 C664 0.930 . S
H689 C661 0.930 . S
H690 C670 0.930 . S
H691 C682 0.929 . S
H692 C685 0.930 . S
C693 C694 1.351 . S
C693 N696 1.368 . S
C693 H698 0.931 . S
C694 C693 1.351 . S
C694 N695 1.373 . S
C694 H722 0.930 . S
N695 C694 1.373 . S
N695 C697 1.340 . S
N696 C693 1.368 . S
N696 C697 1.321 . S
N696 Co699 2.135 . S
C697 N695 1.340 . S
C697 N696 1.321 . S
C697 H721 0.930 . S
H698 C693 0.931 . S
Co699 N696 2.135 . S
Co699 N702 2.121 . S
Co699 O707 2.055 . S
Co699 O710 2.039 . S
Co699 N713 2.140 . S
C700 O701 1.227 . S
C700 O710 1.265 . S
O701 C700 1.227 . S
N702 Co699 2.121 . S
N702 C704 1.375 . S
N702 C705 1.313 . S
C703 C704 1.338 . S
C703 N706 1.377 . S
C703 H723 0.930 . S
C704 N702 1.375 . S
C704 C703 1.338 . S
C704 H708 0.931 . S
C705 N702 1.313 . S
C705 N706 1.344 . S
C705 H709 0.930 . S
N706 C703 1.377 . S
N706 C705 1.344 . S
O707 Co699 2.055 . S
O707 C711 1.253 . S
H708 C704 0.931 . S
H709 C705 0.930 . S
O710 Co699 2.039 . S
O710 C700 1.265 . S
C711 O707 1.253 . S
C711 O712 1.227 . S
O712 C711 1.227 . S
N713 Co699 2.140 . S
N713 C716 1.346 . S
N713 C717 1.345 . S
C714 C715 1.387 . S
C714 C718 1.391 . S
C715 C714 1.387 . S
C715 C716 1.369 . S
C715 H724 0.929 . S
C716 N713 1.346 . S
C716 C715 1.369 . S
C716 H719 0.928 . S
C717 N713 1.345 . S
C717 C718 1.371 . S
C717 H720 0.931 . S
C718 C714 1.391 . S
C718 C717 1.371 . S
C718 H725 0.930 . S
H719 C716 0.928 . S
H720 C717 0.931 . S
H721 C697 0.930 . S
H722 C694 0.930 . S
H723 C703 0.930 . S
H724 C715 0.929 . S
H725 C718 0.930 . S
C726 C727 1.351 . S
C726 N729 1.368 . S
C726 H731 0.931 . S
C727 C726 1.351 . S
C727 N728 1.373 . S
C727 H755 0.930 . S
N728 C727 1.373 . S
N728 C730 1.340 . S
N729 C726 1.368 . S
N729 C730 1.321 . S
N729 Co732 2.135 . S
C730 N728 1.340 . S
C730 N729 1.321 . S
C730 H754 0.930 . S
H731 C726 0.931 . S
Co732 N729 2.135 . S
Co732 N735 2.121 . S
Co732 O740 2.055 . S
Co732 O743 2.039 . S
Co732 N746 2.140 . S
C733 O734 1.227 . S
C733 O743 1.265 . S
O734 C733 1.227 . S
N735 Co732 2.121 . S
N735 C737 1.375 . S
N735 C738 1.313 . S
C736 C737 1.338 . S
C736 N739 1.377 . S
C736 H756 0.930 . S
C737 N735 1.375 . S
C737 C736 1.338 . S
C737 H741 0.931 . S
C738 N735 1.313 . S
C738 N739 1.344 . S
C738 H742 0.930 . S
N739 C736 1.377 . S
N739 C738 1.344 . S
O740 Co732 2.055 . S
O740 C744 1.253 . S
H741 C737 0.931 . S
H742 C738 0.930 . S
O743 Co732 2.039 . S
O743 C733 1.265 . S
C744 O740 1.253 . S
C744 O745 1.227 . S
O745 C744 1.227 . S
N746 Co732 2.140 . S
N746 C749 1.346 . S
N746 C750 1.345 . S
C747 C748 1.387 . S
C747 C751 1.391 . S
C748 C747 1.387 . S
C748 C749 1.369 . S
C748 H757 0.929 . S
C749 N746 1.346 . S
C749 C748 1.369 . S
C749 H752 0.928 . S
C750 N746 1.345 . S
C750 C751 1.371 . S
C750 H753 0.931 . S
C751 C747 1.391 . S
C751 C750 1.371 . S
C751 H758 0.930 . S
H752 C749 0.928 . S
H753 C750 0.931 . S
H754 C730 0.930 . S
H755 C727 0.930 . S
H756 C736 0.930 . S
H757 C748 0.929 . S
H758 C751 0.930 . S
C759 C760 1.351 . S
C759 N762 1.368 . S
C759 H764 0.931 . S
C760 C759 1.351 . S
C760 N761 1.373 . S
C760 H788 0.930 . S
N761 C760 1.373 . S
N761 C763 1.340 . S
N762 C759 1.368 . S
N762 C763 1.321 . S
N762 Co765 2.135 . S
C763 N761 1.340 . S
C763 N762 1.321 . S
C763 H787 0.930 . S
H764 C759 0.931 . S
Co765 N762 2.135 . S
Co765 N768 2.121 . S
Co765 O773 2.055 . S
Co765 O776 2.039 . S
Co765 N779 2.140 . S
C766 O767 1.227 . S
C766 O776 1.265 . S
O767 C766 1.227 . S
N768 Co765 2.121 . S
N768 C770 1.375 . S
N768 C771 1.313 . S
C769 C770 1.338 . S
C769 N772 1.377 . S
C769 H789 0.930 . S
C770 N768 1.375 . S
C770 C769 1.338 . S
C770 H774 0.931 . S
C771 N768 1.313 . S
C771 N772 1.344 . S
C771 H775 0.930 . S
N772 C769 1.377 . S
N772 C771 1.344 . S
O773 Co765 2.055 . S
O773 C777 1.253 . S
H774 C770 0.931 . S
H775 C771 0.930 . S
O776 Co765 2.039 . S
O776 C766 1.265 . S
C777 O773 1.253 . S
C777 O778 1.227 . S
O778 C777 1.227 . S
N779 Co765 2.140 . S
N779 C782 1.346 . S
N779 C783 1.345 . S
C780 C781 1.387 . S
C780 C784 1.391 . S
C781 C780 1.387 . S
C781 C782 1.369 . S
C781 H790 0.929 . S
C782 N779 1.346 . S
C782 C781 1.369 . S
C782 H785 0.928 . S
C783 N779 1.345 . S
C783 C784 1.371 . S
C783 H786 0.931 . S
C784 C780 1.391 . S
C784 C783 1.371 . S
C784 H791 0.930 . S
H785 C782 0.928 . S
H786 C783 0.931 . S
H787 C763 0.930 . S
H788 C760 0.930 . S
H789 C769 0.930 . S
H790 C781 0.929 . S
H791 C784 0.930 . S
C792 C793 1.351 . S
C792 N795 1.368 . S
C792 H797 0.931 . S
C793 C792 1.351 . S
C793 N794 1.373 . S
C793 H821 0.930 . S
N794 C793 1.373 . S
N794 C796 1.340 . S
N795 C792 1.368 . S
N795 C796 1.321 . S
N795 Co798 2.135 . S
C796 N794 1.340 . S
C796 N795 1.321 . S
C796 H820 0.930 . S
H797 C792 0.931 . S
Co798 N795 2.135 . S
Co798 N801 2.121 . S
Co798 O806 2.055 . S
Co798 O809 2.039 . S
Co798 N812 2.140 . S
C799 O800 1.227 . S
C799 O809 1.265 . S
O800 C799 1.227 . S
N801 Co798 2.121 . S
N801 C803 1.375 . S
N801 C804 1.313 . S
C802 C803 1.338 . S
C802 N805 1.377 . S
C802 H822 0.930 . S
C803 N801 1.375 . S
C803 C802 1.338 . S
C803 H807 0.931 . S
C804 N801 1.313 . S
C804 N805 1.344 . S
C804 H808 0.930 . S
N805 C802 1.377 . S
N805 C804 1.344 . S
O806 Co798 2.055 . S
O806 C810 1.253 . S
H807 C803 0.931 . S
H808 C804 0.930 . S
O809 Co798 2.039 . S
O809 C799 1.265 . S
C810 O806 1.253 . S
C810 O811 1.227 . S
O811 C810 1.227 . S
N812 Co798 2.140 . S
N812 C815 1.346 . S
N812 C816 1.345 . S
C813 C814 1.387 . S
C813 C817 1.391 . S
C814 C813 1.387 . S
C814 C815 1.369 . S
C814 H823 0.929 . S
C815 N812 1.346 . S
C815 C814 1.369 . S
C815 H818 0.928 . S
C816 N812 1.345 . S
C816 C817 1.371 . S
C816 H819 0.931 . S
C817 C813 1.391 . S
C817 C816 1.371 . S
C817 H824 0.930 . S
H818 C815 0.928 . S
H819 C816 0.931 . S
H820 C796 0.930 . S
H821 C793 0.930 . S
H822 C802 0.930 . S
H823 C814 0.929 . S
H824 C817 0.930 . S
C825 C826 1.351 . S
C825 N828 1.368 . S
C825 H830 0.931 . S
C826 C825 1.351 . S
C826 N827 1.373 . S
C826 H854 0.930 . S
N827 C826 1.373 . S
N827 C829 1.340 . S
N828 C825 1.368 . S
N828 C829 1.321 . S
N828 Co831 2.135 . S
C829 N827 1.340 . S
C829 N828 1.321 . S
C829 H853 0.930 . S
H830 C825 0.931 . S
Co831 N828 2.135 . S
Co831 N834 2.121 . S
Co831 O839 2.055 . S
Co831 O842 2.039 . S
Co831 N845 2.140 . S
C832 O833 1.227 . S
C832 O842 1.265 . S
O833 C832 1.227 . S
N834 Co831 2.121 . S
N834 C836 1.375 . S
N834 C837 1.313 . S
C835 C836 1.338 . S
C835 N838 1.377 . S
C835 H855 0.930 . S
C836 N834 1.375 . S
C836 C835 1.338 . S
C836 H840 0.931 . S
C837 N834 1.313 . S
C837 N838 1.344 . S
C837 H841 0.930 . S
N838 C835 1.377 . S
N838 C837 1.344 . S
O839 Co831 2.055 . S
O839 C843 1.253 . S
H840 C836 0.931 . S
H841 C837 0.930 . S
O842 Co831 2.039 . S
O842 C832 1.265 . S
C843 O839 1.253 . S
C843 O844 1.227 . S
O844 C843 1.227 . S
N845 Co831 2.140 . S
N845 C848 1.346 . S
N845 C849 1.345 . S
C846 C847 1.387 . S
C846 C850 1.391 . S
C847 C846 1.387 . S
C847 C848 1.369 . S
C847 H856 0.929 . S
C848 N845 1.346 . S
C848 C847 1.369 . S
C848 H851 0.928 . S
C849 N845 1.345 . S
C849 C850 1.371 . S
C849 H852 0.931 . S
C850 C846 1.391 . S
C850 C849 1.371 . S
C850 H857 0.930 . S
H851 C848 0.928 . S
H852 C849 0.931 . S
H853 C829 0.930 . S
H854 C826 0.930 . S
H855 C835 0.930 . S
H856 C847 0.929 . S
H857 C850 0.930 . S
C858 C859 1.351 . S
C858 N861 1.368 . S
C858 H863 0.931 . S
C859 C858 1.351 . S
C859 N860 1.373 . S
C859 H887 0.930 . S
N860 C859 1.373 . S
N860 C862 1.340 . S
N861 C858 1.368 . S
N861 C862 1.321 . S
N861 Co864 2.135 . S
C862 N860 1.340 . S
C862 N861 1.321 . S
C862 H886 0.930 . S
H863 C858 0.931 . S
Co864 N861 2.135 . S
Co864 N867 2.121 . S
Co864 O872 2.055 . S
Co864 O875 2.039 . S
Co864 N878 2.140 . S
C865 O866 1.227 . S
C865 O875 1.265 1_554 S
O866 C865 1.227 . S
N867 Co864 2.121 . S
N867 C869 1.375 . S
N867 C870 1.313 . S
C868 C869 1.338 . S
C868 N871 1.377 . S
C868 H888 0.930 . S
C869 N867 1.375 . S
C869 C868 1.338 . S
C869 H873 0.931 . S
C870 N867 1.313 . S
C870 N871 1.344 . S
C870 H874 0.930 . S
N871 C868 1.377 . S
N871 C870 1.344 . S
O872 Co864 2.055 . S
O872 C876 1.253 . S
H873 C869 0.931 . S
H874 C870 0.930 . S
O875 Co864 2.039 . S
O875 C865 1.265 1_556 S
C876 O872 1.253 . S
C876 O877 1.227 . S
O877 C876 1.227 . S
N878 Co864 2.140 . S
N878 C881 1.346 . S
N878 C882 1.345 . S
C879 C880 1.387 . S
C879 C883 1.391 . S
C880 C879 1.387 . S
C880 C881 1.369 . S
C880 H889 0.929 . S
C881 N878 1.346 . S
C881 C880 1.369 . S
C881 H884 0.928 . S
C882 N878 1.345 . S
C882 C883 1.371 . S
C882 H885 0.931 . S
C883 C879 1.391 . S
C883 C882 1.371 . S
C883 H890 0.930 . S
H884 C881 0.928 . S
H885 C882 0.931 . S
H886 C862 0.930 . S
H887 C859 0.930 . S
H888 C868 0.930 . S
H889 C880 0.929 . S
H890 C883 0.930 . S
C891 C892 1.351 . S
C891 N894 1.368 . S
C891 H896 0.931 . S
C892 C891 1.351 . S
C892 N893 1.373 . S
C892 H920 0.930 . S
N893 C892 1.373 . S
N893 C895 1.340 . S
N894 C891 1.368 . S
N894 C895 1.321 . S
N894 Co897 2.135 . S
C895 N893 1.340 . S
C895 N894 1.321 . S
C895 H919 0.930 . S
H896 C891 0.931 . S
Co897 N894 2.135 . S
Co897 N900 2.121 . S
Co897 O905 2.055 . S
Co897 O908 2.039 . S
Co897 N911 2.140 . S
C898 O899 1.227 . S
C898 O908 1.265 1_554 S
O899 C898 1.227 . S
N900 Co897 2.121 . S
N900 C902 1.375 . S
N900 C903 1.313 . S
C901 C902 1.338 . S
C901 N904 1.377 . S
C901 H921 0.930 . S
C902 N900 1.375 . S
C902 C901 1.338 . S
C902 H906 0.931 . S
C903 N900 1.313 . S
C903 N904 1.344 . S
C903 H907 0.930 . S
N904 C901 1.377 . S
N904 C903 1.344 . S
O905 Co897 2.055 . S
O905 C909 1.253 . S
H906 C902 0.931 . S
H907 C903 0.930 . S
O908 Co897 2.039 . S
O908 C898 1.265 1_556 S
C909 O905 1.253 . S
C909 O910 1.227 . S
O910 C909 1.227 . S
N911 Co897 2.140 . S
N911 C914 1.346 . S
N911 C915 1.345 . S
C912 C913 1.387 . S
C912 C916 1.391 . S
C913 C912 1.387 . S
C913 C914 1.369 . S
C913 H922 0.929 . S
C914 N911 1.346 . S
C914 C913 1.369 . S
C914 H917 0.928 . S
C915 N911 1.345 . S
C915 C916 1.371 . S
C915 H918 0.931 . S
C916 C912 1.391 . S
C916 C915 1.371 . S
C916 H923 0.930 . S
H917 C914 0.928 . S
H918 C915 0.931 . S
H919 C895 0.930 . S
H920 C892 0.930 . S
H921 C901 0.930 . S
H922 C913 0.929 . S
H923 C916 0.930 . S
C924 C925 1.351 . S
C924 N927 1.368 . S
C924 H929 0.931 . S
C925 C924 1.351 . S
C925 N926 1.373 . S
C925 H953 0.930 . S
N926 C925 1.373 . S
N926 C928 1.340 . S
N927 C924 1.368 . S
N927 C928 1.321 . S
N927 Co930 2.135 . S
C928 N926 1.340 . S
C928 N927 1.321 . S
C928 H952 0.930 . S
H929 C924 0.931 . S
Co930 N927 2.135 . S
Co930 N933 2.121 . S
Co930 O938 2.055 . S
Co930 O941 2.039 . S
Co930 N944 2.140 . S
C931 O932 1.227 . S
C931 O941 1.265 . S
O932 C931 1.227 . S
N933 Co930 2.121 . S
N933 C935 1.375 . S
N933 C936 1.313 . S
C934 C935 1.338 . S
C934 N937 1.377 . S
C934 H954 0.930 . S
C935 N933 1.375 . S
C935 C934 1.338 . S
C935 H939 0.931 . S
C936 N933 1.313 . S
C936 N937 1.344 . S
C936 H940 0.930 . S
N937 C934 1.377 . S
N937 C936 1.344 . S
O938 Co930 2.055 . S
O938 C942 1.253 . S
H939 C935 0.931 . S
H940 C936 0.930 . S
O941 Co930 2.039 . S
O941 C931 1.265 . S
C942 O938 1.253 . S
C942 O943 1.227 . S
O943 C942 1.227 . S
N944 Co930 2.140 . S
N944 C947 1.346 . S
N944 C948 1.345 . S
C945 C946 1.387 . S
C945 C949 1.391 . S
C946 C945 1.387 . S
C946 C947 1.369 . S
C946 H955 0.929 . S
C947 N944 1.346 . S
C947 C946 1.369 . S
C947 H950 0.928 . S
C948 N944 1.345 . S
C948 C949 1.371 . S
C948 H951 0.931 . S
C949 C945 1.391 . S
C949 C948 1.371 . S
C949 H956 0.930 . S
H950 C947 0.928 . S
H951 C948 0.931 . S
H952 C928 0.930 . S
H953 C925 0.930 . S
H954 C934 0.930 . S
H955 C946 0.929 . S
H956 C949 0.930 . S
C957 C958 1.351 . S
C957 N960 1.368 . S
C957 H962 0.931 . S
C958 C957 1.351 . S
C958 N959 1.373 . S
C958 H986 0.930 . S
N959 C958 1.373 . S
N959 C961 1.340 . S
N960 C957 1.368 . S
N960 C961 1.321 . S
N960 Co963 2.135 . S
C961 N959 1.340 . S
C961 N960 1.321 . S
C961 H985 0.930 . S
H962 C957 0.931 . S
Co963 N960 2.135 . S
Co963 N966 2.121 . S
Co963 O971 2.055 . S
Co963 O974 2.039 . S
Co963 N977 2.140 . S
C964 O965 1.227 . S
C964 O974 1.265 . S
O965 C964 1.227 . S
N966 Co963 2.121 . S
N966 C968 1.375 . S
N966 C969 1.313 . S
C967 C968 1.338 . S
C967 N970 1.377 . S
C967 H987 0.930 . S
C968 N966 1.375 . S
C968 C967 1.338 . S
C968 H972 0.931 . S
C969 N966 1.313 . S
C969 N970 1.344 . S
C969 H973 0.930 . S
N970 C967 1.377 . S
N970 C969 1.344 . S
O971 Co963 2.055 . S
O971 C975 1.253 . S
H972 C968 0.931 . S
H973 C969 0.930 . S
O974 Co963 2.039 . S
O974 C964 1.265 . S
C975 O971 1.253 . S
C975 O976 1.227 . S
O976 C975 1.227 . S
N977 Co963 2.140 . S
N977 C980 1.346 . S
N977 C981 1.345 . S
C978 C979 1.387 . S
C978 C982 1.391 . S
C979 C978 1.387 . S
C979 C980 1.369 . S
C979 H988 0.929 . S
C980 N977 1.346 . S
C980 C979 1.369 . S
C980 H983 0.928 . S
C981 N977 1.345 . S
C981 C982 1.371 . S
C981 H984 0.931 . S
C982 C978 1.391 . S
C982 C981 1.371 . S
C982 H989 0.930 . S
H983 C980 0.928 . S
H984 C981 0.931 . S
H985 C961 0.930 . S
H986 C958 0.930 . S
H987 C967 0.930 . S
H988 C979 0.929 . S
H989 C982 0.930 . S
C990 C991 1.351 . S
C990 N993 1.368 . S
C990 H995 0.931 . S
C991 C990 1.351 . S
C991 N992 1.373 . S
C991 H1019 0.930 . S
N992 C991 1.373 . S
N992 C994 1.340 . S
N993 C990 1.368 . S
N993 C994 1.321 . S
N993 Co996 2.135 . S
C994 N992 1.340 . S
C994 N993 1.321 . S
C994 H1018 0.930 . S
H995 C990 0.931 . S
Co996 N993 2.135 . S
Co996 N999 2.121 . S
Co996 O1004 2.055 . S
Co996 O1007 2.039 . S
Co996 N1010 2.140 . S
C997 O998 1.227 . S
C997 O1007 1.265 1_556 S
O998 C997 1.227 . S
N999 Co996 2.121 . S
N999 C1001 1.375 . S
N999 C1002 1.313 . S
C1000 C1001 1.338 . S
C1000 N1003 1.377 . S
C1000 H1020 0.930 . S
C1001 N999 1.375 . S
C1001 C1000 1.338 . S
C1001 H1005 0.931 . S
C1002 N999 1.313 . S
C1002 N1003 1.344 . S
C1002 H1006 0.930 . S
N1003 C1000 1.377 . S
N1003 C1002 1.344 . S
O1004 Co996 2.055 . S
O1004 C1008 1.253 . S
H1005 C1001 0.931 . S
H1006 C1002 0.930 . S
O1007 Co996 2.039 . S
O1007 C997 1.265 1_554 S
C1008 O1004 1.253 . S
C1008 O1009 1.227 . S
O1009 C1008 1.227 . S
N1010 Co996 2.140 . S
N1010 C1013 1.346 . S
N1010 C1014 1.345 . S
C1011 C1012 1.387 . S
C1011 C1015 1.391 . S
C1012 C1011 1.387 . S
C1012 C1013 1.369 . S
C1012 H1021 0.929 . S
C1013 N1010 1.346 . S
C1013 C1012 1.369 . S
C1013 H1016 0.928 . S
C1014 N1010 1.345 . S
C1014 C1015 1.371 . S
C1014 H1017 0.931 . S
C1015 C1011 1.391 . S
C1015 C1014 1.371 . S
C1015 H1022 0.930 . S
H1016 C1013 0.928 . S
H1017 C1014 0.931 . S
H1018 C994 0.930 . S
H1019 C991 0.930 . S
H1020 C1000 0.930 . S
H1021 C1012 0.929 . S
H1022 C1015 0.930 . S
C1023 C1024 1.351 . S
C1023 N1026 1.368 . S
C1023 H1028 0.931 . S
C1024 C1023 1.351 . S
C1024 N1025 1.373 . S
C1024 H1052 0.930 . S
N1025 C1024 1.373 . S
N1025 C1027 1.340 . S
N1026 C1023 1.368 . S
N1026 C1027 1.321 . S
N1026 Co1029 2.135 . S
C1027 N1025 1.340 . S
C1027 N1026 1.321 . S
C1027 H1051 0.930 . S
H1028 C1023 0.931 . S
Co1029 N1026 2.135 . S
Co1029 N1032 2.121 . S
Co1029 O1037 2.055 . S
Co1029 O1040 2.039 . S
Co1029 N1043 2.140 . S
C1030 O1031 1.227 . S
C1030 O1040 1.265 1_556 S
O1031 C1030 1.227 . S
N1032 Co1029 2.121 . S
N1032 C1034 1.375 . S
N1032 C1035 1.313 . S
C1033 C1034 1.338 . S
C1033 N1036 1.377 . S
C1033 H1053 0.930 . S
C1034 N1032 1.375 . S
C1034 C1033 1.338 . S
C1034 H1038 0.931 . S
C1035 N1032 1.313 . S
C1035 N1036 1.344 . S
C1035 H1039 0.930 . S
N1036 C1033 1.377 . S
N1036 C1035 1.344 . S
O1037 Co1029 2.055 . S
O1037 C1041 1.253 . S
H1038 C1034 0.931 . S
H1039 C1035 0.930 . S
O1040 Co1029 2.039 . S
O1040 C1030 1.265 1_554 S
C1041 O1037 1.253 . S
C1041 O1042 1.227 . S
O1042 C1041 1.227 . S
N1043 Co1029 2.140 . S
N1043 C1046 1.346 . S
N1043 C1047 1.345 . S
C1044 C1045 1.387 . S
C1044 C1048 1.391 . S
C1045 C1044 1.387 . S
C1045 C1046 1.369 . S
C1045 H1054 0.929 . S
C1046 N1043 1.346 . S
C1046 C1045 1.369 . S
C1046 H1049 0.928 . S
C1047 N1043 1.345 . S
C1047 C1048 1.371 . S
C1047 H1050 0.931 . S
C1048 C1044 1.391 . S
C1048 C1047 1.371 . S
C1048 H1055 0.930 . S
H1049 C1046 0.928 . S
H1050 C1047 0.931 . S
H1051 C1027 0.930 . S
H1052 C1024 0.930 . S
H1053 C1033 0.930 . S
H1054 C1045 0.929 . S
H1055 C1048 0.930 . S
C1056 C1057 1.363 . S
C1056 C1062 1.379 . S
C1056 N1064 1.356 . S
C1057 C1056 1.363 . S
C1057 C1063 1.363 . S
C1058 C1059 1.363 . S
C1058 C1063 1.379 . S
C1058 N1065 1.356 . S
C1059 C1058 1.363 . S
C1059 C1062 1.363 . S
N1060 C1062 1.356 . S
N1060 H1072 0.984 . S
N1060 H1073 0.985 . S
N1061 C1063 1.356 . S
N1061 H1066 0.984 . S
N1061 H1067 0.985 . S
C1062 C1056 1.379 . S
C1062 C1059 1.363 . S
C1062 N1060 1.356 . S
C1063 C1057 1.363 . S
C1063 C1058 1.379 . S
C1063 N1061 1.356 . S
N1064 C1056 1.356 . S
N1064 H1070 0.984 . S
N1064 H1071 0.984 1_554 S
N1065 C1058 1.356 . S
N1065 H1068 0.984 . S
N1065 H1069 0.985 . S
H1066 N1061 0.984 . S
H1067 N1061 0.985 . S
H1068 N1065 0.984 . S
H1069 N1065 0.985 . S
H1070 N1064 0.984 . S
H1071 N1064 0.984 1_556 S
H1072 N1060 0.984 . S
H1073 N1060 0.985 . S
C1074 C1075 1.363 . S
C1074 C1080 1.379 . S
C1074 N1082 1.356 . S
C1075 C1074 1.363 . S
C1075 C1081 1.363 . S
C1076 C1077 1.363 . S
C1076 C1081 1.379 . S
C1076 N1083 1.356 . S
C1077 C1076 1.363 . S
C1077 C1080 1.363 . S
N1078 C1080 1.356 . S
N1078 H1090 0.984 . S
N1078 H1091 0.985 1_554 S
N1079 C1081 1.356 . S
N1079 H1084 0.984 . S
N1079 H1085 0.985 . S
C1080 C1074 1.379 . S
C1080 C1077 1.363 . S
C1080 N1078 1.356 . S
C1081 C1075 1.363 . S
C1081 C1076 1.379 . S
C1081 N1079 1.356 . S
N1082 C1074 1.356 . S
N1082 H1088 0.984 . S
N1082 H1089 0.984 . S
N1083 C1076 1.356 . S
N1083 H1086 0.984 . S
N1083 H1087 0.985 . S
H1084 N1079 0.984 . S
H1085 N1079 0.985 . S
H1086 N1083 0.984 . S
H1087 N1083 0.985 . S
H1088 N1082 0.984 . S
H1089 N1082 0.984 . S
H1090 N1078 0.984 . S
H1091 N1078 0.985 1_556 S
C1092 C1093 1.363 . S
C1092 C1098 1.379 . S
C1092 N1100 1.356 . S
C1093 C1092 1.363 . S
C1093 C1099 1.363 . S
C1094 C1095 1.363 . S
C1094 C1099 1.379 . S
C1094 N1101 1.356 . S
C1095 C1094 1.363 . S
C1095 C1098 1.363 . S
N1096 C1098 1.356 . S
N1096 H1108 0.984 . S
N1096 H1109 0.985 1_556 S
N1097 C1099 1.356 . S
N1097 H1102 0.984 . S
N1097 H1103 0.985 . S
C1098 C1092 1.379 . S
C1098 C1095 1.363 . S
C1098 N1096 1.356 . S
C1099 C1093 1.363 . S
C1099 C1094 1.379 . S
C1099 N1097 1.356 . S
N1100 C1092 1.356 . S
N1100 H1106 0.984 . S
N1100 H1107 0.984 . S
N1101 C1094 1.356 . S
N1101 H1104 0.984 . S
N1101 H1105 0.985 . S
H1102 N1097 0.984 . S
H1103 N1097 0.985 . S
H1104 N1101 0.984 . S
H1105 N1101 0.985 . S
H1106 N1100 0.984 . S
H1107 N1100 0.984 . S
H1108 N1096 0.984 . S
H1109 N1096 0.985 1_554 S
C1110 C1111 1.363 . S
C1110 C1116 1.379 . S
C1110 N1118 1.356 . S
C1111 C1110 1.363 . S
C1111 C1117 1.363 . S
C1112 C1113 1.363 . S
C1112 C1117 1.379 . S
C1112 N1119 1.356 . S
C1113 C1112 1.363 . S
C1113 C1116 1.363 . S
N1114 C1116 1.356 . S
N1114 H1126 0.984 . S
N1114 H1127 0.985 . S
N1115 C1117 1.356 . S
N1115 H1120 0.984 . S
N1115 H1121 0.985 . S
C1116 C1110 1.379 . S
C1116 C1113 1.363 . S
C1116 N1114 1.356 . S
C1117 C1111 1.363 . S
C1117 C1112 1.379 . S
C1117 N1115 1.356 . S
N1118 C1110 1.356 . S
N1118 H1124 0.984 . S
N1118 H1125 0.984 . S
N1119 C1112 1.356 . S
N1119 H1122 0.984 1_556 S
N1119 H1123 0.985 . S
H1120 N1115 0.984 . S
H1121 N1115 0.985 . S
H1122 N1119 0.984 1_554 S
H1123 N1119 0.985 . S
H1124 N1118 0.984 . S
H1125 N1118 0.984 . S
H1126 N1114 0.984 . S
H1127 N1114 0.985 . S
C1128 C1129 1.363 . S
C1128 C1134 1.379 . S
C1128 N1136 1.356 . S
C1129 C1128 1.363 . S
C1129 C1135 1.363 . S
C1130 C1131 1.363 . S
C1130 C1135 1.379 . S
C1130 N1137 1.356 . S
C1131 C1130 1.363 . S
C1131 C1134 1.363 . S
N1132 C1134 1.356 . S
N1132 H1144 0.984 . S
N1132 H1145 0.985 . S
N1133 C1135 1.356 . S
N1133 H1138 0.984 . S
N1133 H1139 0.985 . S
C1134 C1128 1.379 . S
C1134 C1131 1.363 . S
C1134 N1132 1.356 . S
C1135 C1129 1.363 . S
C1135 C1130 1.379 . S
C1135 N1133 1.356 . S
N1136 C1128 1.356 . S
N1136 H1142 0.984 . S
N1136 H1143 0.984 . S
N1137 C1130 1.356 . S
N1137 H1140 0.984 . S
N1137 H1141 0.985 . S
H1138 N1133 0.984 . S
H1139 N1133 0.985 . S
H1140 N1137 0.984 . S
H1141 N1137 0.985 . S
H1142 N1136 0.984 . S
H1143 N1136 0.984 . S
H1144 N1132 0.984 . S
H1145 N1132 0.985 . S
C1146 C1147 1.363 . S
C1146 C1152 1.379 . S
C1146 N1154 1.356 . S
C1147 C1146 1.363 . S
C1147 C1153 1.363 . S
C1148 C1149 1.363 . S
C1148 C1153 1.379 . S
C1148 N1155 1.356 . S
C1149 C1148 1.363 . S
C1149 C1152 1.363 . S
N1150 C1152 1.356 . S
N1150 H1162 0.984 . S
N1150 H1163 0.985 . S
N1151 C1153 1.356 . S
N1151 H1156 0.984 . S
N1151 H1157 0.985 . S
C1152 C1146 1.379 . S
C1152 C1149 1.363 . S
C1152 N1150 1.356 . S
C1153 C1147 1.363 . S
C1153 C1148 1.379 . S
C1153 N1151 1.356 . S
N1154 C1146 1.356 . S
N1154 H1160 0.984 . S
N1154 H1161 0.984 . S
N1155 C1148 1.356 . S
N1155 H1158 0.984 . S
N1155 H1159 0.985 . S
H1156 N1151 0.984 . S
H1157 N1151 0.985 . S
H1158 N1155 0.984 . S
H1159 N1155 0.985 . S
H1160 N1154 0.984 . S
H1161 N1154 0.984 . S
H1162 N1150 0.984 . S
H1163 N1150 0.985 . S
C1164 C1165 1.363 . S
C1164 C1170 1.379 . S
C1164 N1172 1.356 . S
C1165 C1164 1.363 . S
C1165 C1171 1.363 . S
C1166 C1167 1.363 . S
C1166 C1171 1.379 . S
C1166 N1173 1.356 . S
C1167 C1166 1.363 . S
C1167 C1170 1.363 . S
N1168 C1170 1.356 . S
N1168 H1180 0.984 . S
N1168 H1181 0.985 . S
N1169 C1171 1.356 . S
N1169 H1174 0.984 . S
N1169 H1175 0.985 . S
C1170 C1164 1.379 . S
C1170 C1167 1.363 . S
C1170 N1168 1.356 . S
C1171 C1165 1.363 . S
C1171 C1166 1.379 . S
C1171 N1169 1.356 . S
N1172 C1164 1.356 . S
N1172 H1178 0.984 . S
N1172 H1179 0.984 . S
N1173 C1166 1.356 . S
N1173 H1176 0.984 . S
N1173 H1177 0.985 . S
H1174 N1169 0.984 . S
H1175 N1169 0.985 . S
H1176 N1173 0.984 . S
H1177 N1173 0.985 . S
H1178 N1172 0.984 . S
H1179 N1172 0.984 . S
H1180 N1168 0.984 . S
H1181 N1168 0.985 . S
C1182 C1183 1.363 . S
C1182 C1188 1.379 . S
C1182 N1190 1.356 . S
C1183 C1182 1.363 . S
C1183 C1189 1.363 . S
C1184 C1185 1.363 . S
C1184 C1189 1.379 . S
C1184 N1191 1.356 . S
C1185 C1184 1.363 . S
C1185 C1188 1.363 . S
N1186 C1188 1.356 . S
N1186 H1198 0.984 . S
N1186 H1199 0.985 . S
N1187 C1189 1.356 . S
N1187 H1192 0.984 . S
N1187 H1193 0.985 . S
C1188 C1182 1.379 . S
C1188 C1185 1.363 . S
C1188 N1186 1.356 . S
C1189 C1183 1.363 . S
C1189 C1184 1.379 . S
C1189 N1187 1.356 . S
N1190 C1182 1.356 . S
N1190 H1196 0.984 . S
N1190 H1197 0.984 . S
N1191 C1184 1.356 . S
N1191 H1194 0.984 . S
N1191 H1195 0.985 . S
H1192 N1187 0.984 . S
H1193 N1187 0.985 . S
H1194 N1191 0.984 . S
H1195 N1191 0.985 . S
H1196 N1190 0.984 . S
H1197 N1190 0.984 . S
H1198 N1186 0.984 . S
H1199 N1186 0.985 . S
C1200 C1201 1.363 . S
C1200 C1206 1.379 . S
C1200 N1208 1.356 . S
C1201 C1200 1.363 . S
C1201 C1207 1.363 . S
C1202 C1203 1.363 . S
C1202 C1207 1.379 . S
C1202 N1209 1.356 . S
C1203 C1202 1.363 . S
C1203 C1206 1.363 . S
N1204 C1206 1.356 . S
N1204 H1216 0.984 . S
N1204 H1217 0.985 . S
N1205 C1207 1.356 . S
N1205 H1210 0.984 . S
N1205 H1211 0.985 . S
C1206 C1200 1.379 . S
C1206 C1203 1.363 . S
C1206 N1204 1.356 . S
C1207 C1201 1.363 . S
C1207 C1202 1.379 . S
C1207 N1205 1.356 . S
N1208 C1200 1.356 . S
N1208 H1214 0.984 . S
N1208 H1215 0.984 . S
N1209 C1202 1.356 . S
N1209 H1212 0.984 . S
N1209 H1213 0.985 . S
H1210 N1205 0.984 . S
H1211 N1205 0.985 . S
H1212 N1209 0.984 . S
H1213 N1209 0.985 . S
H1214 N1208 0.984 . S
H1215 N1208 0.984 . S
H1216 N1204 0.984 . S
H1217 N1204 0.985 . S
C1218 C1219 1.363 . S
C1218 C1224 1.379 . S
C1218 N1226 1.356 . S
C1219 C1218 1.363 . S
C1219 C1225 1.363 . S
C1220 C1221 1.363 . S
C1220 C1225 1.379 . S
C1220 N1227 1.356 . S
C1221 C1220 1.363 . S
C1221 C1224 1.363 . S
N1222 C1224 1.356 . S
N1222 H1234 0.984 . S
N1222 H1235 0.985 . S
N1223 C1225 1.356 . S
N1223 H1228 0.984 . S
N1223 H1229 0.985 . S
C1224 C1218 1.379 . S
C1224 C1221 1.363 . S
C1224 N1222 1.356 . S
C1225 C1219 1.363 . S
C1225 C1220 1.379 . S
C1225 N1223 1.356 . S
N1226 C1218 1.356 . S
N1226 H1232 0.984 . S
N1226 H1233 0.984 . S
N1227 C1220 1.356 . S
N1227 H1230 0.984 . S
N1227 H1231 0.985 . S
H1228 N1223 0.984 . S
H1229 N1223 0.985 . S
H1230 N1227 0.984 . S
H1231 N1227 0.985 . S
H1232 N1226 0.984 . S
H1233 N1226 0.984 . S
H1234 N1222 0.984 . S
H1235 N1222 0.985 . S
C1236 C1237 1.363 . S
C1236 C1242 1.379 . S
C1236 N1244 1.356 . S
C1237 C1236 1.363 . S
C1237 C1243 1.363 . S
C1238 C1239 1.363 . S
C1238 C1243 1.379 . S
C1238 N1245 1.356 . S
C1239 C1238 1.363 . S
C1239 C1242 1.363 . S
N1240 C1242 1.356 . S
N1240 H1252 0.984 . S
N1240 H1253 0.985 . S
N1241 C1243 1.356 . S
N1241 H1246 0.984 . S
N1241 H1247 0.985 . S
C1242 C1236 1.379 . S
C1242 C1239 1.363 . S
C1242 N1240 1.356 . S
C1243 C1237 1.363 . S
C1243 C1238 1.379 . S
C1243 N1241 1.356 . S
N1244 C1236 1.356 . S
N1244 H1250 0.984 . S
N1244 H1251 0.984 . S
N1245 C1238 1.356 . S
N1245 H1248 0.984 . S
N1245 H1249 0.985 . S
H1246 N1241 0.984 . S
H1247 N1241 0.985 . S
H1248 N1245 0.984 . S
H1249 N1245 0.985 . S
H1250 N1244 0.984 . S
H1251 N1244 0.984 . S
H1252 N1240 0.984 . S
H1253 N1240 0.985 . S
C1254 C1255 1.363 . S
C1254 C1260 1.379 . S
C1254 N1262 1.356 . S
C1255 C1254 1.363 . S
C1255 C1261 1.363 . S
C1256 C1257 1.363 . S
C1256 C1261 1.379 . S
C1256 N1263 1.356 . S
C1257 C1256 1.363 . S
C1257 C1260 1.363 . S
N1258 C1260 1.356 . S
N1258 H1270 0.984 . S
N1258 H1271 0.985 . S
N1259 C1261 1.356 . S
N1259 H1264 0.984 . S
N1259 H1265 0.985 . S
C1260 C1254 1.379 . S
C1260 C1257 1.363 . S
C1260 N1258 1.356 . S
C1261 C1255 1.363 . S
C1261 C1256 1.379 . S
C1261 N1259 1.356 . S
N1262 C1254 1.356 . S
N1262 H1268 0.984 . S
N1262 H1269 0.984 . S
N1263 C1256 1.356 . S
N1263 H1266 0.984 . S
N1263 H1267 0.985 . S
H1264 N1259 0.984 . S
H1265 N1259 0.985 . S
H1266 N1263 0.984 . S
H1267 N1263 0.985 . S
H1268 N1262 0.984 . S
H1269 N1262 0.984 . S
H1270 N1258 0.984 . S
H1271 N1258 0.985 . S
C1272 C1273 1.363 . S
C1272 C1278 1.379 . S
C1272 N1280 1.356 . S
C1273 C1272 1.363 . S
C1273 C1279 1.363 . S
C1274 C1275 1.363 . S
C1274 C1279 1.379 . S
C1274 N1281 1.356 . S
C1275 C1274 1.363 . S
C1275 C1278 1.363 . S
N1276 C1278 1.356 . S
N1276 H1288 0.984 . S
N1276 H1289 0.985 . S
N1277 C1279 1.356 . S
N1277 H1282 0.984 1_554 S
N1277 H1283 0.985 . S
C1278 C1272 1.379 . S
C1278 C1275 1.363 . S
C1278 N1276 1.356 . S
C1279 C1273 1.363 . S
C1279 C1274 1.379 . S
C1279 N1277 1.356 . S
N1280 C1272 1.356 . S
N1280 H1286 0.984 . S
N1280 H1287 0.984 . S
N1281 C1274 1.356 . S
N1281 H1284 0.984 . S
N1281 H1285 0.985 . S
H1282 N1277 0.984 1_556 S
H1283 N1277 0.985 . S
H1284 N1281 0.984 . S
H1285 N1281 0.985 . S
H1286 N1280 0.984 . S
H1287 N1280 0.984 . S
H1288 N1276 0.984 . S
H1289 N1276 0.985 . S
C1290 C1291 1.363 . S
C1290 C1296 1.379 . S
C1290 N1298 1.356 . S
C1291 C1290 1.363 . S
C1291 C1297 1.363 . S
C1292 C1293 1.363 . S
C1292 C1297 1.379 . S
C1292 N1299 1.356 . S
C1293 C1292 1.363 . S
C1293 C1296 1.363 . S
N1294 C1296 1.356 . S
N1294 H1306 0.984 . S
N1294 H1307 0.985 . S
N1295 C1297 1.356 . S
N1295 H1300 0.984 . S
N1295 H1301 0.985 . S
C1296 C1290 1.379 . S
C1296 C1293 1.363 . S
C1296 N1294 1.356 . S
C1297 C1291 1.363 . S
C1297 C1292 1.379 . S
C1297 N1295 1.356 . S
N1298 C1290 1.356 . S
N1298 H1304 0.984 . S
N1298 H1305 0.984 1_554 S
N1299 C1292 1.356 . S
N1299 H1302 0.984 . S
N1299 H1303 0.985 . S
H1300 N1295 0.984 . S
H1301 N1295 0.985 . S
H1302 N1299 0.984 . S
H1303 N1299 0.985 . S
H1304 N1298 0.984 . S
H1305 N1298 0.984 1_556 S
H1306 N1294 0.984 . S
H1307 N1294 0.985 . S
C1308 C1309 1.363 . S
C1308 C1314 1.379 . S
C1308 N1316 1.356 . S
C1309 C1308 1.363 . S
C1309 C1315 1.363 . S
C1310 C1311 1.363 . S
C1310 C1315 1.379 . S
C1310 N1317 1.356 . S
C1311 C1310 1.363 . S
C1311 C1314 1.363 . S
N1312 C1314 1.356 . S
N1312 H1324 0.984 . S
N1312 H1325 0.985 . S
N1313 C1315 1.356 . S
N1313 H1318 0.984 1_556 S
N1313 H1319 0.985 . S
C1314 C1308 1.379 . S
C1314 C1311 1.363 . S
C1314 N1312 1.356 . S
C1315 C1309 1.363 . S
C1315 C1310 1.379 . S
C1315 N1313 1.356 . S
N1316 C1308 1.356 . S
N1316 H1322 0.984 . S
N1316 H1323 0.984 . S
N1317 C1310 1.356 . S
N1317 H1320 0.984 . S
N1317 H1321 0.985 . S
H1318 N1313 0.984 1_554 S
H1319 N1313 0.985 . S
H1320 N1317 0.984 . S
H1321 N1317 0.985 . S
H1322 N1316 0.984 . S
H1323 N1316 0.984 . S
H1324 N1312 0.984 . S
H1325 N1312 0.985 . S
C1326 C1327 1.363 . S
C1326 C1332 1.379 . S
C1326 N1334 1.356 . S
C1327 C1326 1.363 . S
C1327 C1333 1.363 . S
C1328 C1329 1.363 . S
C1328 C1333 1.379 . S
C1328 N1335 1.356 . S
C1329 C1328 1.363 . S
C1329 C1332 1.363 . S
N1330 C1332 1.356 . S
N1330 H1342 0.984 . S
N1330 H1343 0.985 . S
N1331 C1333 1.356 . S
N1331 H1336 0.984 1_556 S
N1331 H1337 0.985 . S
C1332 C1326 1.379 . S
C1332 C1329 1.363 . S
C1332 N1330 1.356 . S
C1333 C1327 1.363 . S
C1333 C1328 1.379 . S
C1333 N1331 1.356 . S
N1334 C1326 1.356 . S
N1334 H1340 0.984 . S
N1334 H1341 0.984 . S
N1335 C1328 1.356 . S
N1335 H1338 0.984 . S
N1335 H1339 0.985 . S
H1336 N1331 0.984 1_554 S
H1337 N1331 0.985 . S
H1338 N1335 0.984 . S
H1339 N1335 0.985 . S
H1340 N1334 0.984 . S
H1341 N1334 0.984 . S
H1342 N1330 0.984 . S
H1343 N1330 0.985 . S
C1344 C1345 1.363 . S
C1344 C1350 1.379 . S
C1344 N1352 1.356 . S
C1345 C1344 1.363 . S
C1345 C1351 1.363 . S
C1346 C1347 1.363 . S
C1346 C1351 1.379 . S
C1346 N1353 1.356 . S
C1347 C1346 1.363 . S
C1347 C1350 1.363 . S
N1348 C1350 1.356 . S
N1348 H1360 0.984 . S
N1348 H1361 0.985 . S
N1349 C1351 1.356 . S
N1349 H1354 0.984 . S
N1349 H1355 0.985 . S
C1350 C1344 1.379 . S
C1350 C1347 1.363 . S
C1350 N1348 1.356 . S
C1351 C1345 1.363 . S
C1351 C1346 1.379 . S
C1351 N1349 1.356 . S
N1352 C1344 1.356 . S
N1352 H1358 0.984 . S
N1352 H1359 0.984 . S
N1353 C1346 1.356 . S
N1353 H1356 0.984 . S
N1353 H1357 0.985 . S
H1354 N1349 0.984 . S
H1355 N1349 0.985 . S
H1356 N1353 0.984 . S
H1357 N1353 0.985 . S
H1358 N1352 0.984 . S
H1359 N1352 0.984 . S
H1360 N1348 0.984 . S
H1361 N1348 0.985 . S
C1362 C1363 1.363 . S
C1362 C1368 1.379 . S
C1362 N1370 1.356 . S
C1363 C1362 1.363 . S
C1363 C1369 1.363 . S
C1364 C1365 1.363 . S
C1364 C1369 1.379 . S
C1364 N1371 1.356 . S
C1365 C1364 1.363 . S
C1365 C1368 1.363 . S
N1366 C1368 1.356 . S
N1366 H1378 0.984 . S
N1366 H1379 0.985 . S
N1367 C1369 1.356 . S
N1367 H1372 0.984 . S
N1367 H1373 0.985 . S
C1368 C1362 1.379 . S
C1368 C1365 1.363 . S
C1368 N1366 1.356 . S
C1369 C1363 1.363 . S
C1369 C1364 1.379 . S
C1369 N1367 1.356 . S
N1370 C1362 1.356 . S
N1370 H1376 0.984 . S
N1370 H1377 0.984 . S
N1371 C1364 1.356 . S
N1371 H1374 0.984 . S
N1371 H1375 0.985 . S
H1372 N1367 0.984 . S
H1373 N1367 0.985 . S
H1374 N1371 0.984 . S
H1375 N1371 0.985 . S
H1376 N1370 0.984 . S
H1377 N1370 0.984 . S
H1378 N1366 0.984 . S
H1379 N1366 0.985 . S
C1380 C1381 1.363 . S
C1380 C1386 1.379 . S
C1380 N1388 1.356 . S
C1381 C1380 1.363 . S
C1381 C1387 1.363 . S
C1382 C1383 1.363 . S
C1382 C1387 1.379 . S
C1382 N1389 1.356 . S
C1383 C1382 1.363 . S
C1383 C1386 1.363 . S
N1384 C1386 1.356 . S
N1384 H1396 0.984 . S
N1384 H1397 0.985 . S
N1385 C1387 1.356 . S
N1385 H1390 0.984 . S
N1385 H1391 0.985 . S
C1386 C1380 1.379 . S
C1386 C1383 1.363 . S
C1386 N1384 1.356 . S
C1387 C1381 1.363 . S
C1387 C1382 1.379 . S
C1387 N1385 1.356 . S
N1388 C1380 1.356 . S
N1388 H1394 0.984 . S
N1388 H1395 0.984 . S
N1389 C1382 1.356 . S
N1389 H1392 0.984 . S
N1389 H1393 0.985 . S
H1390 N1385 0.984 . S
H1391 N1385 0.985 . S
H1392 N1389 0.984 . S
H1393 N1389 0.985 . S
H1394 N1388 0.984 . S
H1395 N1388 0.984 . S
H1396 N1384 0.984 . S
H1397 N1384 0.985 . S
C1398 C1399 1.363 . S
C1398 C1404 1.379 . S
C1398 N1406 1.356 . S
C1399 C1398 1.363 . S
C1399 C1405 1.363 . S
C1400 C1401 1.363 . S
C1400 C1405 1.379 . S
C1400 N1407 1.356 . S
C1401 C1400 1.363 . S
C1401 C1404 1.363 . S
N1402 C1404 1.356 . S
N1402 H1414 0.984 . S
N1402 H1415 0.985 . S
N1403 C1405 1.356 . S
N1403 H1408 0.984 . S
N1403 H1409 0.985 . S
C1404 C1398 1.379 . S
C1404 C1401 1.363 . S
C1404 N1402 1.356 . S
C1405 C1399 1.363 . S
C1405 C1400 1.379 . S
C1405 N1403 1.356 . S
N1406 C1398 1.356 . S
N1406 H1412 0.984 . S
N1406 H1413 0.984 . S
N1407 C1400 1.356 . S
N1407 H1410 0.984 . S
N1407 H1411 0.985 . S
H1408 N1403 0.984 . S
H1409 N1403 0.985 . S
H1410 N1407 0.984 . S
H1411 N1407 0.985 . S
H1412 N1406 0.984 . S
H1413 N1406 0.984 . S
H1414 N1402 0.984 . S
H1415 N1402 0.985 . S
C1416 C1417 1.363 . S
C1416 C1422 1.379 . S
C1416 N1424 1.356 . S
C1417 C1416 1.363 . S
C1417 C1423 1.363 . S
C1418 C1419 1.363 . S
C1418 C1423 1.379 . S
C1418 N1425 1.356 . S
C1419 C1418 1.363 . S
C1419 C1422 1.363 . S
N1420 C1422 1.356 . S
N1420 H1432 0.984 . S
N1420 H1433 0.985 . S
N1421 C1423 1.356 . S
N1421 H1426 0.984 . S
N1421 H1427 0.985 . S
C1422 C1416 1.379 . S
C1422 C1419 1.363 . S
C1422 N1420 1.356 . S
C1423 C1417 1.363 . S
C1423 C1418 1.379 . S
C1423 N1421 1.356 . S
N1424 C1416 1.356 . S
N1424 H1430 0.984 . S
N1424 H1431 0.984 . S
N1425 C1418 1.356 . S
N1425 H1428 0.984 . S
N1425 H1429 0.985 . S
H1426 N1421 0.984 . S
H1427 N1421 0.985 . S
H1428 N1425 0.984 . S
H1429 N1425 0.985 . S
H1430 N1424 0.984 . S
H1431 N1424 0.984 . S
H1432 N1420 0.984 . S
H1433 N1420 0.985 . S
C1434 C1435 1.363 . S
C1434 C1440 1.379 . S
C1434 N1442 1.356 . S
C1435 C1434 1.363 . S
C1435 C1441 1.363 . S
C1436 C1437 1.363 . S
C1436 C1441 1.379 . S
C1436 N1443 1.356 . S
C1437 C1436 1.363 . S
C1437 C1440 1.363 . S
N1438 C1440 1.356 . S
N1438 H1450 0.984 . S
N1438 H1451 0.985 . S
N1439 C1441 1.356 . S
N1439 H1444 0.984 . S
N1439 H1445 0.985 . S
C1440 C1434 1.379 . S
C1440 C1437 1.363 . S
C1440 N1438 1.356 . S
C1441 C1435 1.363 . S
C1441 C1436 1.379 . S
C1441 N1439 1.356 . S
N1442 C1434 1.356 . S
N1442 H1448 0.984 . S
N1442 H1449 0.984 . S
N1443 C1436 1.356 . S
N1443 H1446 0.984 . S
N1443 H1447 0.985 . S
H1444 N1439 0.984 . S
H1445 N1439 0.985 . S
H1446 N1443 0.984 . S
H1447 N1443 0.985 . S
H1448 N1442 0.984 . S
H1449 N1442 0.984 . S
H1450 N1438 0.984 . S
H1451 N1438 0.985 . S
C1452 C1453 1.363 . S
C1452 C1458 1.379 . S
C1452 N1460 1.356 . S
C1453 C1452 1.363 . S
C1453 C1459 1.363 . S
C1454 C1455 1.363 . S
C1454 C1459 1.379 . S
C1454 N1461 1.356 . S
C1455 C1454 1.363 . S
C1455 C1458 1.363 . S
N1456 C1458 1.356 . S
N1456 H1468 0.984 . S
N1456 H1469 0.985 . S
N1457 C1459 1.356 . S
N1457 H1462 0.984 . S
N1457 H1463 0.985 . S
C1458 C1452 1.379 . S
C1458 C1455 1.363 . S
C1458 N1456 1.356 . S
C1459 C1453 1.363 . S
C1459 C1454 1.379 . S
C1459 N1457 1.356 . S
N1460 C1452 1.356 . S
N1460 H1466 0.984 . S
N1460 H1467 0.984 . S
N1461 C1454 1.356 . S
N1461 H1464 0.984 . S
N1461 H1465 0.985 . S
H1462 N1457 0.984 . S
H1463 N1457 0.985 . S
H1464 N1461 0.984 . S
H1465 N1461 0.985 . S
H1466 N1460 0.984 . S
H1467 N1460 0.984 . S
H1468 N1456 0.984 . S
H1469 N1456 0.985 . S
C1470 C1471 1.363 . S
C1470 C1476 1.379 . S
C1470 N1478 1.356 . S
C1471 C1470 1.363 . S
C1471 C1477 1.363 . S
C1472 C1473 1.363 . S
C1472 C1477 1.379 . S
C1472 N1479 1.356 . S
C1473 C1472 1.363 . S
C1473 C1476 1.363 . S
N1474 C1476 1.356 . S
N1474 H1486 0.984 . S
N1474 H1487 0.985 . S
N1475 C1477 1.356 . S
N1475 H1480 0.984 . S
N1475 H1481 0.985 . S
C1476 C1470 1.379 . S
C1476 C1473 1.363 . S
C1476 N1474 1.356 . S
C1477 C1471 1.363 . S
C1477 C1472 1.379 . S
C1477 N1475 1.356 . S
N1478 C1470 1.356 . S
N1478 H1484 0.984 . S
N1478 H1485 0.984 . S
N1479 C1472 1.356 . S
N1479 H1482 0.984 . S
N1479 H1483 0.985 . S
H1480 N1475 0.984 . S
H1481 N1475 0.985 . S
H1482 N1479 0.984 . S
H1483 N1479 0.985 . S
H1484 N1478 0.984 . S
H1485 N1478 0.984 . S
H1486 N1474 0.984 . S
H1487 N1474 0.985 . S
C1488 C1489 1.363 . S
C1488 C1494 1.379 . S
C1488 N1496 1.356 . S
C1489 C1488 1.363 . S
C1489 C1495 1.363 . S
C1490 C1491 1.363 . S
C1490 C1495 1.379 . S
C1490 N1497 1.356 . S
C1491 C1490 1.363 . S
C1491 C1494 1.363 . S
N1492 C1494 1.356 . S
N1492 H1504 0.984 . S
N1492 H1505 0.985 . S
N1493 C1495 1.356 . S
N1493 H1498 0.984 . S
N1493 H1499 0.985 . S
C1494 C1488 1.379 . S
C1494 C1491 1.363 . S
C1494 N1492 1.356 . S
C1495 C1489 1.363 . S
C1495 C1490 1.379 . S
C1495 N1493 1.356 . S
N1496 C1488 1.356 . S
N1496 H1502 0.984 . S
N1496 H1503 0.984 . S
N1497 C1490 1.356 . S
N1497 H1500 0.984 . S
N1497 H1501 0.985 . S
H1498 N1493 0.984 . S
H1499 N1493 0.985 . S
H1500 N1497 0.984 . S
H1501 N1497 0.985 . S
H1502 N1496 0.984 . S
H1503 N1496 0.984 . S
H1504 N1492 0.984 . S
H1505 N1492 0.985 . S
C1506 C1507 1.363 . S
C1506 C1512 1.379 . S
C1506 N1514 1.356 . S
C1507 C1506 1.363 . S
C1507 C1513 1.363 . S
C1508 C1509 1.363 . S
C1508 C1513 1.379 . S
C1508 N1515 1.356 . S
C1509 C1508 1.363 . S
C1509 C1512 1.363 . S
N1510 C1512 1.356 . S
N1510 H1522 0.984 . S
N1510 H1523 0.985 . S
N1511 C1513 1.356 . S
N1511 H1516 0.984 . S
N1511 H1517 0.985 . S
C1512 C1506 1.379 . S
C1512 C1509 1.363 . S
C1512 N1510 1.356 . S
C1513 C1507 1.363 . S
C1513 C1508 1.379 . S
C1513 N1511 1.356 . S
N1514 C1506 1.356 . S
N1514 H1520 0.984 . S
N1514 H1521 0.984 . S
N1515 C1508 1.356 . S
N1515 H1518 0.984 . S
N1515 H1519 0.985 . S
H1516 N1511 0.984 . S
H1517 N1511 0.985 . S
H1518 N1515 0.984 . S
H1519 N1515 0.985 . S
H1520 N1514 0.984 . S
H1521 N1514 0.984 . S
H1522 N1510 0.984 . S
H1523 N1510 0.985 . S
C1524 C1525 1.363 . S
C1524 C1530 1.379 . S
C1524 N1532 1.356 . S
C1525 C1524 1.363 . S
C1525 C1531 1.363 . S
C1526 C1527 1.363 . S
C1526 C1531 1.379 . S
C1526 N1533 1.356 . S
C1527 C1526 1.363 . S
C1527 C1530 1.363 . S
N1528 C1530 1.356 . S
N1528 H1540 0.984 . S
N1528 H1541 0.985 . S
N1529 C1531 1.356 . S
N1529 H1534 0.984 . S
N1529 H1535 0.985 . S
C1530 C1524 1.379 . S
C1530 C1527 1.363 . S
C1530 N1528 1.356 . S
C1531 C1525 1.363 . S
C1531 C1526 1.379 . S
C1531 N1529 1.356 . S
N1532 C1524 1.356 . S
N1532 H1538 0.984 . S
N1532 H1539 0.984 . S
N1533 C1526 1.356 . S
N1533 H1536 0.984 . S
N1533 H1537 0.985 . S
H1534 N1529 0.984 . S
H1535 N1529 0.985 . S
H1536 N1533 0.984 . S
H1537 N1533 0.985 . S
H1538 N1532 0.984 . S
H1539 N1532 0.984 . S
H1540 N1528 0.984 . S
H1541 N1528 0.985 . S
C1542 C1543 1.363 . S
C1542 C1548 1.379 . S
C1542 N1550 1.356 . S
C1543 C1542 1.363 . S
C1543 C1549 1.363 . S
C1544 C1545 1.363 . S
C1544 C1549 1.379 . S
C1544 N1551 1.356 . S
C1545 C1544 1.363 . S
C1545 C1548 1.363 . S
N1546 C1548 1.356 . S
N1546 H1558 0.984 . S
N1546 H1559 0.985 . S
N1547 C1549 1.356 . S
N1547 H1552 0.984 . S
N1547 H1553 0.985 . S
C1548 C1542 1.379 . S
C1548 C1545 1.363 . S
C1548 N1546 1.356 . S
C1549 C1543 1.363 . S
C1549 C1544 1.379 . S
C1549 N1547 1.356 . S
N1550 C1542 1.356 . S
N1550 H1556 0.984 . S
N1550 H1557 0.984 . S
N1551 C1544 1.356 . S
N1551 H1554 0.984 . S
N1551 H1555 0.985 . S
H1552 N1547 0.984 . S
H1553 N1547 0.985 . S
H1554 N1551 0.984 . S
H1555 N1551 0.985 . S
H1556 N1550 0.984 . S
H1557 N1550 0.984 . S
H1558 N1546 0.984 . S
H1559 N1546 0.985 . S
C1560 C1561 1.363 . S
C1560 C1566 1.379 . S
C1560 N1568 1.356 . S
C1561 C1560 1.363 . S
C1561 C1567 1.363 . S
C1562 C1563 1.363 . S
C1562 C1567 1.379 . S
C1562 N1569 1.356 . S
C1563 C1562 1.363 . S
C1563 C1566 1.363 . S
N1564 C1566 1.356 . S
N1564 H1576 0.984 . S
N1564 H1577 0.985 . S
N1565 C1567 1.356 . S
N1565 H1570 0.984 . S
N1565 H1571 0.985 . S
C1566 C1560 1.379 . S
C1566 C1563 1.363 . S
C1566 N1564 1.356 . S
C1567 C1561 1.363 . S
C1567 C1562 1.379 . S
C1567 N1565 1.356 . S
N1568 C1560 1.356 . S
N1568 H1574 0.984 . S
N1568 H1575 0.984 . S
N1569 C1562 1.356 . S
N1569 H1572 0.984 . S
N1569 H1573 0.985 . S
H1570 N1565 0.984 . S
H1571 N1565 0.985 . S
H1572 N1569 0.984 . S
H1573 N1569 0.985 . S
H1574 N1568 0.984 . S
H1575 N1568 0.984 . S
H1576 N1564 0.984 . S
H1577 N1564 0.985 . S
C1578 C1579 1.363 . S
C1578 C1584 1.379 . S
C1578 N1586 1.356 . S
C1579 C1578 1.363 . S
C1579 C1585 1.363 . S
C1580 C1581 1.363 . S
C1580 C1585 1.379 . S
C1580 N1587 1.356 . S
C1581 C1580 1.363 . S
C1581 C1584 1.363 . S
N1582 C1584 1.356 . S
N1582 H1594 0.984 . S
N1582 H1595 0.985 . S
N1583 C1585 1.356 . S
N1583 H1588 0.984 . S
N1583 H1589 0.985 . S
C1584 C1578 1.379 . S
C1584 C1581 1.363 . S
C1584 N1582 1.356 . S
C1585 C1579 1.363 . S
C1585 C1580 1.379 . S
C1585 N1583 1.356 . S
N1586 C1578 1.356 . S
N1586 H1592 0.984 . S
N1586 H1593 0.984 . S
N1587 C1580 1.356 . S
N1587 H1590 0.984 . S
N1587 H1591 0.985 . S
H1588 N1583 0.984 . S
H1589 N1583 0.985 . S
H1590 N1587 0.984 . S
H1591 N1587 0.985 . S
H1592 N1586 0.984 . S
H1593 N1586 0.984 . S
H1594 N1582 0.984 . S
H1595 N1582 0.985 . S
C1596 C1597 1.363 . S
C1596 C1602 1.379 . S
C1596 N1604 1.356 . S
C1597 C1596 1.363 . S
C1597 C1603 1.363 . S
C1598 C1599 1.363 . S
C1598 C1603 1.379 . S
C1598 N1605 1.356 . S
C1599 C1598 1.363 . S
C1599 C1602 1.363 . S
N1600 C1602 1.356 . S
N1600 H1612 0.984 . S
N1600 H1613 0.985 . S
N1601 C1603 1.356 . S
N1601 H1606 0.984 . S
N1601 H1607 0.985 . S
C1602 C1596 1.379 . S
C1602 C1599 1.363 . S
C1602 N1600 1.356 . S
C1603 C1597 1.363 . S
C1603 C1598 1.379 . S
C1603 N1601 1.356 . S
N1604 C1596 1.356 . S
N1604 H1610 0.984 . S
N1604 H1611 0.984 . S
N1605 C1598 1.356 . S
N1605 H1608 0.984 . S
N1605 H1609 0.985 . S
H1606 N1601 0.984 . S
H1607 N1601 0.985 . S
H1608 N1605 0.984 . S
H1609 N1605 0.985 . S
H1610 N1604 0.984 . S
H1611 N1604 0.984 . S
H1612 N1600 0.984 . S
H1613 N1600 0.985 . S
C1614 C1615 1.363 . S
C1614 C1620 1.379 . S
C1614 N1622 1.356 . S
C1615 C1614 1.363 . S
C1615 C1621 1.363 . S
C1616 C1617 1.363 . S
C1616 C1621 1.379 . S
C1616 N1623 1.356 . S
C1617 C1616 1.363 . S
C1617 C1620 1.363 . S
N1618 C1620 1.356 . S
N1618 H1630 0.984 . S
N1618 H1631 0.985 . S
N1619 C1621 1.356 . S
N1619 H1624 0.984 . S
N1619 H1625 0.985 . S
C1620 C1614 1.379 . S
C1620 C1617 1.363 . S
C1620 N1618 1.356 . S
C1621 C1615 1.363 . S
C1621 C1616 1.379 . S
C1621 N1619 1.356 . S
N1622 C1614 1.356 . S
N1622 H1628 0.984 . S
N1622 H1629 0.984 . S
N1623 C1616 1.356 . S
N1623 H1626 0.984 . S
N1623 H1627 0.985 . S
H1624 N1619 0.984 . S
H1625 N1619 0.985 . S
H1626 N1623 0.984 . S
H1627 N1623 0.985 . S
H1628 N1622 0.984 . S
H1629 N1622 0.984 . S
H1630 N1618 0.984 . S
H1631 N1618 0.985 . S
C1632 C1633 1.363 . S
C1632 C1638 1.379 . S
C1632 N1640 1.356 . S
C1633 C1632 1.363 . S
C1633 C1639 1.363 . S
C1634 C1635 1.363 . S
C1634 C1639 1.379 . S
C1634 N1641 1.356 . S
C1635 C1634 1.363 . S
C1635 C1638 1.363 . S
N1636 C1638 1.356 . S
N1636 H1648 0.984 . S
N1636 H1649 0.985 . S
N1637 C1639 1.356 . S
N1637 H1642 0.984 . S
N1637 H1643 0.985 . S
C1638 C1632 1.379 . S
C1638 C1635 1.363 . S
C1638 N1636 1.356 . S
C1639 C1633 1.363 . S
C1639 C1634 1.379 . S
C1639 N1637 1.356 . S
N1640 C1632 1.356 . S
N1640 H1646 0.984 . S
N1640 H1647 0.984 . S
N1641 C1634 1.356 . S
N1641 H1644 0.984 . S
N1641 H1645 0.985 . S
H1642 N1637 0.984 . S
H1643 N1637 0.985 . S
H1644 N1641 0.984 . S
H1645 N1641 0.985 . S
H1646 N1640 0.984 . S
H1647 N1640 0.984 . S
H1648 N1636 0.984 . S
H1649 N1636 0.985 . S
C1650 C1651 1.363 . S
C1650 C1656 1.379 . S
C1650 N1658 1.356 . S
C1651 C1650 1.363 . S
C1651 C1657 1.363 . S
C1652 C1653 1.363 . S
C1652 C1657 1.379 . S
C1652 N1659 1.356 . S
C1653 C1652 1.363 . S
C1653 C1656 1.363 . S
N1654 C1656 1.356 . S
N1654 H1666 0.984 . S
N1654 H1667 0.985 . S
N1655 C1657 1.356 . S
N1655 H1660 0.984 . S
N1655 H1661 0.985 . S
C1656 C1650 1.379 . S
C1656 C1653 1.363 . S
C1656 N1654 1.356 . S
C1657 C1651 1.363 . S
C1657 C1652 1.379 . S
C1657 N1655 1.356 . S
N1658 C1650 1.356 . S
N1658 H1664 0.984 . S
N1658 H1665 0.984 . S
N1659 C1652 1.356 . S
N1659 H1662 0.984 . S
N1659 H1663 0.985 . S
H1660 N1655 0.984 . S
H1661 N1655 0.985 . S
H1662 N1659 0.984 . S
H1663 N1659 0.985 . S
H1664 N1658 0.984 . S
H1665 N1658 0.984 . S
H1666 N1654 0.984 . S
H1667 N1654 0.985 . S
C1668 C1669 1.363 . S
C1668 C1674 1.379 . S
C1668 N1676 1.356 . S
C1669 C1668 1.363 . S
C1669 C1675 1.363 . S
C1670 C1671 1.363 . S
C1670 C1675 1.379 . S
C1670 N1677 1.356 . S
C1671 C1670 1.363 . S
C1671 C1674 1.363 . S
N1672 C1674 1.356 . S
N1672 H1684 0.984 . S
N1672 H1685 0.985 . S
N1673 C1675 1.356 . S
N1673 H1678 0.984 . S
N1673 H1679 0.985 . S
C1674 C1668 1.379 . S
C1674 C1671 1.363 . S
C1674 N1672 1.356 . S
C1675 C1669 1.363 . S
C1675 C1670 1.379 . S
C1675 N1673 1.356 . S
N1676 C1668 1.356 . S
N1676 H1682 0.984 . S
N1676 H1683 0.984 . S
N1677 C1670 1.356 . S
N1677 H1680 0.984 . S
N1677 H1681 0.985 . S
H1678 N1673 0.984 . S
H1679 N1673 0.985 . S
H1680 N1677 0.984 . S
H1681 N1677 0.985 . S
H1682 N1676 0.984 . S
H1683 N1676 0.984 . S
H1684 N1672 0.984 . S
H1685 N1672 0.985 . S
C1686 C1687 1.363 . S
C1686 C1692 1.379 . S
C1686 N1694 1.356 . S
C1687 C1686 1.363 . S
C1687 C1693 1.363 . S
C1688 C1689 1.363 . S
C1688 C1693 1.379 . S
C1688 N1695 1.356 . S
C1689 C1688 1.363 . S
C1689 C1692 1.363 . S
N1690 C1692 1.356 . S
N1690 H1702 0.984 . S
N1690 H1703 0.985 . S
N1691 C1693 1.356 . S
N1691 H1696 0.984 . S
N1691 H1697 0.985 . S
C1692 C1686 1.379 . S
C1692 C1689 1.363 . S
C1692 N1690 1.356 . S
C1693 C1687 1.363 . S
C1693 C1688 1.379 . S
C1693 N1691 1.356 . S
N1694 C1686 1.356 . S
N1694 H1700 0.984 . S
N1694 H1701 0.984 . S
N1695 C1688 1.356 . S
N1695 H1698 0.984 . S
N1695 H1699 0.985 . S
H1696 N1691 0.984 . S
H1697 N1691 0.985 . S
H1698 N1695 0.984 . S
H1699 N1695 0.985 . S
H1700 N1694 0.984 . S
H1701 N1694 0.984 . S
H1702 N1690 0.984 . S
H1703 N1690 0.985 . S
C1704 C1705 1.363 . S
C1704 C1710 1.379 . S
C1704 N1712 1.356 . S
C1705 C1704 1.363 . S
C1705 C1711 1.363 . S
C1706 C1707 1.363 . S
C1706 C1711 1.379 . S
C1706 N1713 1.356 . S
C1707 C1706 1.363 . S
C1707 C1710 1.363 . S
N1708 C1710 1.356 . S
N1708 H1720 0.984 1_556 S
N1708 H1721 0.985 . S
N1709 C1711 1.356 . S
N1709 H1714 0.984 . S
N1709 H1715 0.985 . S
C1710 C1704 1.379 . S
C1710 C1707 1.363 . S
C1710 N1708 1.356 . S
C1711 C1705 1.363 . S
C1711 C1706 1.379 . S
C1711 N1709 1.356 . S
N1712 C1704 1.356 . S
N1712 H1718 0.984 1_556 S
N1712 H1719 0.984 . S
N1713 C1706 1.356 . S
N1713 H1716 0.984 . S
N1713 H1717 0.985 . S
H1714 N1709 0.984 . S
H1715 N1709 0.985 . S
H1716 N1713 0.984 . S
H1717 N1713 0.985 . S
H1718 N1712 0.984 1_554 S
H1719 N1712 0.984 . S
H1720 N1708 0.984 1_554 S
H1721 N1708 0.985 . S
C1722 C1723 1.363 . S
C1722 C1728 1.379 . S
C1722 N1730 1.356 . S
C1723 C1722 1.363 . S
C1723 C1729 1.363 . S
C1724 C1725 1.363 . S
C1724 C1729 1.379 . S
C1724 N1731 1.356 . S
C1725 C1724 1.363 . S
C1725 C1728 1.363 . S
N1726 C1728 1.356 . S
N1726 H1738 0.984 . S
N1726 H1739 0.985 . S
N1727 C1729 1.356 . S
N1727 H1732 0.984 . S
N1727 H1733 0.985 . S
C1728 C1722 1.379 . S
C1728 C1725 1.363 . S
C1728 N1726 1.356 . S
C1729 C1723 1.363 . S
C1729 C1724 1.379 . S
C1729 N1727 1.356 . S
N1730 C1722 1.356 . S
N1730 H1736 0.984 . S
N1730 H1737 0.984 . S
N1731 C1724 1.356 . S
N1731 H1734 0.984 . S
N1731 H1735 0.985 . S
H1732 N1727 0.984 . S
H1733 N1727 0.985 . S
H1734 N1731 0.984 . S
H1735 N1731 0.985 . S
H1736 N1730 0.984 . S
H1737 N1730 0.984 . S
H1738 N1726 0.984 . S
H1739 N1726 0.985 . S
C1740 C1741 1.363 . S
C1740 C1746 1.379 . S
C1740 N1748 1.356 . S
C1741 C1740 1.363 . S
C1741 C1747 1.363 . S
C1742 C1743 1.363 . S
C1742 C1747 1.379 . S
C1742 N1749 1.356 . S
C1743 C1742 1.363 . S
C1743 C1746 1.363 . S
N1744 C1746 1.356 . S
N1744 H1756 0.984 . S
N1744 H1757 0.985 . S
N1745 C1747 1.356 . S
N1745 H1750 0.984 . S
N1745 H1751 0.985 1_554 S
C1746 C1740 1.379 . S
C1746 C1743 1.363 . S
C1746 N1744 1.356 . S
C1747 C1741 1.363 . S
C1747 C1742 1.379 . S
C1747 N1745 1.356 . S
N1748 C1740 1.356 . S
N1748 H1754 0.984 . S
N1748 H1755 0.984 . S
N1749 C1742 1.356 . S
N1749 H1752 0.984 . S
N1749 H1753 0.985 1_554 S
H1750 N1745 0.984 . S
H1751 N1745 0.985 1_556 S
H1752 N1749 0.984 . S
H1753 N1749 0.985 1_556 S
H1754 N1748 0.984 . S
H1755 N1748 0.984 . S
H1756 N1744 0.984 . S
H1757 N1744 0.985 . S
C1758 C1759 1.363 . S
C1758 C1764 1.379 . S
C1758 N1766 1.356 . S
C1759 C1758 1.363 . S
C1759 C1765 1.363 . S
C1760 C1761 1.363 . S
C1760 C1765 1.379 . S
C1760 N1767 1.356 . S
C1761 C1760 1.363 . S
C1761 C1764 1.363 . S
N1762 C1764 1.356 . S
N1762 H1774 0.984 . S
N1762 H1775 0.985 . S
N1763 C1765 1.356 . S
N1763 H1768 0.984 . S
N1763 H1769 0.985 . S
C1764 C1758 1.379 . S
C1764 C1761 1.363 . S
C1764 N1762 1.356 . S
C1765 C1759 1.363 . S
C1765 C1760 1.379 . S
C1765 N1763 1.356 . S
N1766 C1758 1.356 . S
N1766 H1772 0.984 . S
N1766 H1773 0.984 . S
N1767 C1760 1.356 . S
N1767 H1770 0.984 . S
N1767 H1771 0.985 . S
H1768 N1763 0.984 . S
H1769 N1763 0.985 . S
H1770 N1767 0.984 . S
H1771 N1767 0.985 . S
H1772 N1766 0.984 . S
H1773 N1766 0.984 . S
H1774 N1762 0.984 . S
H1775 N1762 0.985 . S
C1776 C1777 1.363 . S
C1776 C1782 1.379 . S
C1776 N1784 1.356 . S
C1777 C1776 1.363 . S
C1777 C1783 1.363 . S
C1778 C1779 1.363 . S
C1778 C1783 1.379 . S
C1778 N1785 1.356 . S
C1779 C1778 1.363 . S
C1779 C1782 1.363 . S
N1780 C1782 1.356 . S
N1780 H1792 0.984 . S
N1780 H1793 0.985 . S
N1781 C1783 1.356 . S
N1781 H1786 0.984 . S
N1781 H1787 0.985 1_556 S
C1782 C1776 1.379 . S
C1782 C1779 1.363 . S
C1782 N1780 1.356 . S
C1783 C1777 1.363 . S
C1783 C1778 1.379 . S
C1783 N1781 1.356 . S
N1784 C1776 1.356 . S
N1784 H1790 0.984 . S
N1784 H1791 0.984 . S
N1785 C1778 1.356 . S
N1785 H1788 0.984 . S
N1785 H1789 0.985 1_556 S
H1786 N1781 0.984 . S
H1787 N1781 0.985 1_554 S
H1788 N1785 0.984 . S
H1789 N1785 0.985 1_554 S
H1790 N1784 0.984 . S
H1791 N1784 0.984 . S
H1792 N1780 0.984 . S
H1793 N1780 0.985 . S
C1794 C1795 1.363 . S
C1794 C1800 1.379 . S
C1794 N1802 1.356 . S
C1795 C1794 1.363 . S
C1795 C1801 1.363 . S
C1796 C1797 1.363 . S
C1796 C1801 1.379 . S
C1796 N1803 1.356 . S
C1797 C1796 1.363 . S
C1797 C1800 1.363 . S
N1798 C1800 1.356 . S
N1798 H1810 0.984 . S
N1798 H1811 0.985 . S
N1799 C1801 1.356 . S
N1799 H1804 0.984 . S
N1799 H1805 0.985 . S
C1800 C1794 1.379 . S
C1800 C1797 1.363 . S
C1800 N1798 1.356 . S
C1801 C1795 1.363 . S
C1801 C1796 1.379 . S
C1801 N1799 1.356 . S
N1802 C1794 1.356 . S
N1802 H1808 0.984 . S
N1802 H1809 0.984 . S
N1803 C1796 1.356 . S
N1803 H1806 0.984 . S
N1803 H1807 0.985 . S
H1804 N1799 0.984 . S
H1805 N1799 0.985 . S
H1806 N1803 0.984 . S
H1807 N1803 0.985 . S
H1808 N1802 0.984 . S
H1809 N1802 0.984 . S
H1810 N1798 0.984 . S
H1811 N1798 0.985 . S
C1812 C1813 1.363 . S
C1812 C1818 1.379 . S
C1812 N1820 1.356 . S
C1813 C1812 1.363 . S
C1813 C1819 1.363 . S
C1814 C1815 1.363 . S
C1814 C1819 1.379 . S
C1814 N1821 1.356 . S
C1815 C1814 1.363 . S
C1815 C1818 1.363 . S
N1816 C1818 1.356 . S
N1816 H1828 0.984 1_554 S
N1816 H1829 0.985 . S
N1817 C1819 1.356 . S
N1817 H1822 0.984 . S
N1817 H1823 0.985 . S
C1818 C1812 1.379 . S
C1818 C1815 1.363 . S
C1818 N1816 1.356 . S
C1819 C1813 1.363 . S
C1819 C1814 1.379 . S
C1819 N1817 1.356 . S
N1820 C1812 1.356 . S
N1820 H1826 0.984 1_554 S
N1820 H1827 0.984 . S
N1821 C1814 1.356 . S
N1821 H1824 0.984 . S
N1821 H1825 0.985 . S
H1822 N1817 0.984 . S
H1823 N1817 0.985 . S
H1824 N1821 0.984 . S
H1825 N1821 0.985 . S
H1826 N1820 0.984 1_556 S
H1827 N1820 0.984 . S
H1828 N1816 0.984 1_556 S
H1829 N1816 0.985 . S
C1830 C1831 1.363 . S
C1830 C1836 1.379 . S
C1830 N1838 1.356 . S
C1831 C1830 1.363 . S
C1831 C1837 1.363 . S
C1832 C1833 1.363 . S
C1832 C1837 1.379 . S
C1832 N1839 1.356 . S
C1833 C1832 1.363 . S
C1833 C1836 1.363 . S
N1834 C1836 1.356 . S
N1834 H1846 0.984 . S
N1834 H1847 0.985 . S
N1835 C1837 1.356 . S
N1835 H1840 0.984 . S
N1835 H1841 0.985 . S
C1836 C1830 1.379 . S
C1836 C1833 1.363 . S
C1836 N1834 1.356 . S
C1837 C1831 1.363 . S
C1837 C1832 1.379 . S
C1837 N1835 1.356 . S
N1838 C1830 1.356 . S
N1838 H1844 0.984 . S
N1838 H1845 0.984 . S
N1839 C1832 1.356 . S
N1839 H1842 0.984 . S
N1839 H1843 0.985 . S
H1840 N1835 0.984 . S
H1841 N1835 0.985 . S
H1842 N1839 0.984 . S
H1843 N1839 0.985 . S
H1844 N1838 0.984 . S
H1845 N1838 0.984 . S
H1846 N1834 0.984 . S
H1847 N1834 0.985 . S
C1848 C1849 1.363 . S
C1848 C1854 1.379 . S
C1848 N1856 1.356 . S
C1849 C1848 1.363 . S
C1849 C1855 1.363 . S
C1850 C1851 1.363 . S
C1850 C1855 1.379 . S
C1850 N1857 1.356 . S
C1851 C1850 1.363 . S
C1851 C1854 1.363 . S
N1852 C1854 1.356 . S
N1852 H1864 0.984 . S
N1852 H1865 0.985 . S
N1853 C1855 1.356 . S
N1853 H1858 0.984 . S
N1853 H1859 0.985 . S
C1854 C1848 1.379 . S
C1854 C1851 1.363 . S
C1854 N1852 1.356 . S
C1855 C1849 1.363 . S
C1855 C1850 1.379 . S
C1855 N1853 1.356 . S
N1856 C1848 1.356 . S
N1856 H1862 0.984 . S
N1856 H1863 0.984 . S
N1857 C1850 1.356 . S
N1857 H1860 0.984 . S
N1857 H1861 0.985 . S
H1858 N1853 0.984 . S
H1859 N1853 0.985 . S
H1860 N1857 0.984 . S
H1861 N1857 0.985 . S
H1862 N1856 0.984 . S
H1863 N1856 0.984 . S
H1864 N1852 0.984 . S
H1865 N1852 0.985 . S
C1866 C1867 1.363 . S
C1866 C1872 1.379 . S
C1866 N1874 1.356 . S
C1867 C1866 1.363 . S
C1867 C1873 1.363 . S
C1868 C1869 1.363 . S
C1868 C1873 1.379 . S
C1868 N1875 1.356 . S
C1869 C1868 1.363 . S
C1869 C1872 1.363 . S
N1870 C1872 1.356 . S
N1870 H1882 0.984 . S
N1870 H1883 0.985 . S
N1871 C1873 1.356 . S
N1871 H1876 0.984 . S
N1871 H1877 0.985 . S
C1872 C1866 1.379 . S
C1872 C1869 1.363 . S
C1872 N1870 1.356 . S
C1873 C1867 1.363 . S
C1873 C1868 1.379 . S
C1873 N1871 1.356 . S
N1874 C1866 1.356 . S
N1874 H1880 0.984 . S
N1874 H1881 0.984 . S
N1875 C1868 1.356 . S
N1875 H1878 0.984 . S
N1875 H1879 0.985 . S
H1876 N1871 0.984 . S
H1877 N1871 0.985 . S
H1878 N1875 0.984 . S
H1879 N1875 0.985 . S
H1880 N1874 0.984 . S
H1881 N1874 0.984 . S
H1882 N1870 0.984 . S
H1883 N1870 0.985 . S
C1884 C1885 1.363 . S
C1884 C1890 1.379 . S
C1884 N1892 1.356 . S
C1885 C1884 1.363 . S
C1885 C1891 1.363 . S
C1886 C1887 1.363 . S
C1886 C1891 1.379 . S
C1886 N1893 1.356 . S
C1887 C1886 1.363 . S
C1887 C1890 1.363 . S
N1888 C1890 1.356 . S
N1888 H1900 0.984 . S
N1888 H1901 0.985 . S
N1889 C1891 1.356 . S
N1889 H1894 0.984 . S
N1889 H1895 0.985 . S
C1890 C1884 1.379 . S
C1890 C1887 1.363 . S
C1890 N1888 1.356 . S
C1891 C1885 1.363 . S
C1891 C1886 1.379 . S
C1891 N1889 1.356 . S
N1892 C1884 1.356 . S
N1892 H1898 0.984 . S
N1892 H1899 0.984 . S
N1893 C1886 1.356 . S
N1893 H1896 0.984 . S
N1893 H1897 0.985 . S
H1894 N1889 0.984 . S
H1895 N1889 0.985 . S
H1896 N1893 0.984 . S
H1897 N1893 0.985 . S
H1898 N1892 0.984 . S
H1899 N1892 0.984 . S
H1900 N1888 0.984 . S
H1901 N1888 0.985 . S
C1902 C1903 1.363 . S
C1902 C1908 1.379 . S
C1902 N1910 1.356 . S
C1903 C1902 1.363 . S
C1903 C1909 1.363 . S
C1904 C1905 1.363 . S
C1904 C1909 1.379 . S
C1904 N1911 1.356 . S
C1905 C1904 1.363 . S
C1905 C1908 1.363 . S
N1906 C1908 1.356 . S
N1906 H1918 0.984 . S
N1906 H1919 0.985 . S
N1907 C1909 1.356 . S
N1907 H1912 0.984 . S
N1907 H1913 0.985 . S
C1908 C1902 1.379 . S
C1908 C1905 1.363 . S
C1908 N1906 1.356 . S
C1909 C1903 1.363 . S
C1909 C1904 1.379 . S
C1909 N1907 1.356 . S
N1910 C1902 1.356 . S
N1910 H1916 0.984 . S
N1910 H1917 0.984 . S
N1911 C1904 1.356 . S
N1911 H1914 0.984 . S
N1911 H1915 0.985 . S
H1912 N1907 0.984 . S
H1913 N1907 0.985 . S
H1914 N1911 0.984 . S
H1915 N1911 0.985 . S
H1916 N1910 0.984 . S
H1917 N1910 0.984 . S
H1918 N1906 0.984 . S
H1919 N1906 0.985 . S
C1920 C1921 1.363 . S
C1920 C1926 1.379 . S
C1920 N1928 1.356 . S
C1921 C1920 1.363 . S
C1921 C1927 1.363 1_655 S
C1922 C1923 1.363 . S
C1922 C1927 1.379 . S
C1922 N1929 1.356 . S
C1923 C1922 1.363 . S
C1923 C1926 1.363 1_455 S
N1924 C1926 1.356 . S
N1924 H1936 0.984 . S
N1924 H1937 0.985 1_655 S
N1925 C1927 1.356 . S
N1925 H1930 0.984 1_455 S
N1925 H1931 0.985 . S
C1926 C1920 1.379 . S
C1926 C1923 1.363 1_655 S
C1926 N1924 1.356 . S
C1927 C1921 1.363 1_455 S
C1927 C1922 1.379 . S
C1927 N1925 1.356 . S
N1928 C1920 1.356 . S
N1928 H1934 0.984 . S
N1928 H1935 0.984 . S
N1929 C1922 1.356 . S
N1929 H1932 0.984 . S
N1929 H1933 0.985 . S
H1930 N1925 0.984 1_655 S
H1931 N1925 0.985 . S
H1932 N1929 0.984 . S
H1933 N1929 0.985 . S
H1934 N1928 0.984 . S
H1935 N1928 0.984 . S
H1936 N1924 0.984 . S
H1937 N1924 0.985 1_455 S
C1938 C1939 1.363 1_545 S
C1938 C1944 1.379 . S
C1938 N1946 1.356 . S
C1939 C1938 1.363 1_565 S
C1939 C1945 1.363 . S
C1940 C1941 1.363 1_565 S
C1940 C1945 1.379 . S
C1940 N1947 1.356 . S
C1941 C1940 1.363 1_545 S
C1941 C1944 1.363 . S
N1942 C1944 1.356 . S
N1942 H1954 0.984 . S
N1942 H1955 0.985 . S
N1943 C1945 1.356 . S
N1943 H1948 0.984 . S
N1943 H1949 0.985 . S
C1944 C1938 1.379 . S
C1944 C1941 1.363 . S
C1944 N1942 1.356 . S
C1945 C1939 1.363 . S
C1945 C1940 1.379 . S
C1945 N1943 1.356 . S
N1946 C1938 1.356 . S
N1946 H1952 0.984 . S
N1946 H1953 0.984 1_545 S
N1947 C1940 1.356 . S
N1947 H1950 0.984 1_565 S
N1947 H1951 0.985 . S
H1948 N1943 0.984 . S
H1949 N1943 0.985 . S
H1950 N1947 0.984 1_545 S
H1951 N1947 0.985 . S
H1952 N1946 0.984 . S
H1953 N1946 0.984 1_565 S
H1954 N1942 0.984 . S
H1955 N1942 0.985 . S
C1956 C1957 1.363 1_554 S
C1956 C1962 1.379 1_545 S
C1956 N1964 1.356 . S
C1957 C1956 1.363 1_556 S
C1957 C1963 1.363 1_455 S
C1958 C1959 1.363 1_556 S
C1958 C1963 1.379 1_565 S
C1958 N1965 1.356 . S
C1959 C1958 1.363 1_554 S
C1959 C1962 1.363 1_655 S
N1960 C1962 1.356 . S
N1960 H1972 0.984 . S
N1960 H1973 0.985 1_455 S
N1961 C1963 1.356 . S
N1961 H1966 0.984 1_655 S
N1961 H1967 0.985 . S
C1962 C1956 1.379 1_565 S
C1962 C1959 1.363 1_455 S
C1962 N1960 1.356 . S
C1963 C1957 1.363 1_655 S
C1963 C1958 1.379 1_545 S
C1963 N1961 1.356 . S
N1964 C1956 1.356 . S
N1964 H1970 0.984 . S
N1964 H1971 0.984 1_554 S
N1965 C1958 1.356 . S
N1965 H1968 0.984 1_556 S
N1965 H1969 0.985 . S
H1966 N1961 0.984 1_455 S
H1967 N1961 0.985 . S
H1968 N1965 0.984 1_554 S
H1969 N1965 0.985 . S
H1970 N1964 0.984 . S
H1971 N1964 0.984 1_556 S
H1972 N1960 0.984 . S
H1973 N1960 0.985 1_655 S
C1974 C1975 1.363 . S
C1974 C1980 1.379 1_554 S
C1974 N1982 1.356 . S
C1975 C1974 1.363 . S
C1975 C1981 1.363 . S
C1976 C1977 1.363 . S
C1976 C1981 1.379 1_556 S
C1976 N1983 1.356 . S
C1977 C1976 1.363 . S
C1977 C1980 1.363 . S
N1978 C1980 1.356 . S
N1978 H1990 0.984 . S
N1978 H1991 0.985 . S
N1979 C1981 1.356 . S
N1979 H1984 0.984 . S
N1979 H1985 0.985 . S
C1980 C1974 1.379 1_556 S
C1980 C1977 1.363 . S
C1980 N1978 1.356 . S
C1981 C1975 1.363 . S
C1981 C1976 1.379 1_554 S
C1981 N1979 1.356 . S
N1982 C1974 1.356 . S
N1982 H1988 0.984 . S
N1982 H1989 0.984 . S
N1983 C1976 1.356 . S
N1983 H1986 0.984 . S
N1983 H1987 0.985 . S
H1984 N1979 0.984 . S
H1985 N1979 0.985 . S
H1986 N1983 0.984 . S
H1987 N1983 0.985 . S
H1988 N1982 0.984 . S
H1989 N1982 0.984 . S
H1990 N1978 0.984 . S
H1991 N1978 0.985 . S
C1992 C1993 1.363 . S
C1992 C1998 1.379 . S
C1992 N2000 1.356 . S
C1993 C1992 1.363 . S
C1993 C1999 1.363 1_455 S
C1994 C1995 1.363 . S
C1994 C1999 1.379 . S
C1994 N2001 1.356 . S
C1995 C1994 1.363 . S
C1995 C1998 1.363 1_655 S
N1996 C1998 1.356 . S
N1996 H2008 0.984 . S
N1996 H2009 0.985 1_455 S
N1997 C1999 1.356 . S
N1997 H2002 0.984 1_655 S
N1997 H2003 0.985 . S
C1998 C1992 1.379 . S
C1998 C1995 1.363 1_455 S
C1998 N1996 1.356 . S
C1999 C1993 1.363 1_655 S
C1999 C1994 1.379 . S
C1999 N1997 1.356 . S
N2000 C1992 1.356 . S
N2000 H2006 0.984 . S
N2000 H2007 0.984 . S
N2001 C1994 1.356 . S
N2001 H2004 0.984 . S
N2001 H2005 0.985 . S
H2002 N1997 0.984 1_455 S
H2003 N1997 0.985 . S
H2004 N2001 0.984 . S
H2005 N2001 0.985 . S
H2006 N2000 0.984 . S
H2007 N2000 0.984 . S
H2008 N1996 0.984 . S
H2009 N1996 0.985 1_655 S
C2010 C2011 1.400 . S
C2010 C2016 1.342 1_545 S
C2010 N2018 1.373 . S
C2011 C2010 1.400 . S
C2011 C2017 1.363 . S
C2012 C2013 1.400 . S
C2012 C2017 1.342 1_565 S
C2012 N2019 1.373 . S
C2013 C2012 1.400 . S
C2013 C2016 1.363 . S
N2014 C2016 1.356 . S
N2014 H2026 0.984 . S
N2014 H2027 0.985 . S
N2015 C2017 1.356 . S
N2015 H2020 0.984 . S
N2015 H2021 0.985 . S
C2016 C2010 1.342 1_565 S
C2016 C2013 1.363 . S
C2016 N2014 1.356 . S
C2017 C2011 1.363 . S
C2017 C2012 1.342 1_545 S
C2017 N2015 1.356 . S
N2018 C2010 1.373 . S
N2018 H2024 0.986 1_545 S
N2018 H2025 0.984 . S
N2019 C2012 1.373 . S
N2019 H2022 0.984 . S
N2019 H2023 0.986 1_565 S
H2020 N2015 0.984 . S
H2021 N2015 0.985 . S
H2022 N2019 0.984 . S
H2023 N2019 0.986 1_545 S
H2024 N2018 0.986 1_565 S
H2025 N2018 0.984 . S
H2026 N2014 0.984 . S
H2027 N2014 0.985 . S
C2028 C2029 1.363 1_554 S
C2028 C2034 1.379 . S
C2028 N2036 1.356 . S
C2029 C2028 1.363 1_556 S
C2029 C2035 1.363 . S
C2030 C2031 1.363 1_556 S
C2030 C2035 1.379 . S
C2030 N2037 1.356 . S
C2031 C2030 1.363 1_554 S
C2031 C2034 1.363 . S
N2032 C2034 1.356 . S
N2032 H2044 0.984 . S
N2032 H2045 0.985 . S
N2033 C2035 1.356 . S
N2033 H2038 0.984 . S
N2033 H2039 0.985 . S
C2034 C2028 1.379 . S
C2034 C2031 1.363 . S
C2034 N2032 1.356 . S
C2035 C2029 1.363 . S
C2035 C2030 1.379 . S
C2035 N2033 1.356 . S
N2036 C2028 1.356 . S
N2036 H2042 0.984 . S
N2036 H2043 0.984 1_554 S
N2037 C2030 1.356 . S
N2037 H2040 0.984 1_556 S
N2037 H2041 0.985 . S
H2038 N2033 0.984 . S
H2039 N2033 0.985 . S
H2040 N2037 0.984 1_554 S
H2041 N2037 0.985 . S
H2042 N2036 0.984 . S
H2043 N2036 0.984 1_556 S
H2044 N2032 0.984 . S
H2045 N2032 0.985 . S
C2046 C2047 1.363 . S
C2046 C2052 1.379 . S
C2046 N2054 1.356 . S
C2047 C2046 1.363 . S
C2047 C2053 1.363 . S
C2048 C2049 1.363 . S
C2048 C2053 1.379 . S
C2048 N2055 1.356 . S
C2049 C2048 1.363 . S
C2049 C2052 1.363 . S
N2050 C2052 1.356 . S
N2050 H2062 0.984 . S
N2050 H2063 0.985 . S
N2051 C2053 1.356 . S
N2051 H2056 0.984 . S
N2051 H2057 0.985 . S
C2052 C2046 1.379 . S
C2052 C2049 1.363 . S
C2052 N2050 1.356 . S
C2053 C2047 1.363 . S
C2053 C2048 1.379 . S
C2053 N2051 1.356 . S
N2054 C2046 1.356 . S
N2054 H2060 0.984 . S
N2054 H2061 0.984 . S
N2055 C2048 1.356 . S
N2055 H2058 0.984 . S
N2055 H2059 0.985 . S
H2056 N2051 0.984 . S
H2057 N2051 0.985 . S
H2058 N2055 0.984 . S
H2059 N2055 0.985 . S
H2060 N2054 0.984 . S
H2061 N2054 0.984 . S
H2062 N2050 0.984 . S
H2063 N2050 0.985 . S
C2064 C2065 1.363 1_455 S
C2064 C2070 1.379 . S
C2064 N2072 1.356 . S
C2065 C2064 1.363 1_655 S
C2065 C2071 1.363 . S
C2066 C2067 1.363 1_655 S
C2066 C2071 1.379 . S
C2066 N2073 1.356 . S
C2067 C2066 1.363 1_455 S
C2067 C2070 1.363 . S
N2068 C2070 1.356 . S
N2068 H2080 0.984 . S
N2068 H2081 0.985 . S
N2069 C2071 1.356 . S
N2069 H2074 0.984 . S
N2069 H2075 0.985 . S
C2070 C2064 1.379 . S
C2070 C2067 1.363 . S
C2070 N2068 1.356 . S
C2071 C2065 1.363 . S
C2071 C2066 1.379 . S
C2071 N2069 1.356 . S
N2072 C2064 1.356 . S
N2072 H2078 0.984 . S
N2072 H2079 0.984 1_455 S
N2073 C2066 1.356 . S
N2073 H2076 0.984 1_655 S
N2073 H2077 0.985 . S
H2074 N2069 0.984 . S
H2075 N2069 0.985 . S
H2076 N2073 0.984 1_455 S
H2077 N2073 0.985 . S
H2078 N2072 0.984 . S
H2079 N2072 0.984 1_655 S
H2080 N2068 0.984 . S
H2081 N2068 0.985 . S
C2082 C2083 1.363 . S
C2082 C2088 1.379 . S
C2082 N2090 1.356 . S
C2083 C2082 1.363 . S
C2083 C2089 1.363 . S
C2084 C2085 1.363 . S
C2084 C2089 1.379 . S
C2084 N2091 1.356 . S
C2085 C2084 1.363 . S
C2085 C2088 1.363 . S
N2086 C2088 1.356 . S
N2086 H2098 0.984 . S
N2086 H2099 0.985 . S
N2087 C2089 1.356 . S
N2087 H2092 0.984 . S
N2087 H2093 0.985 . S
C2088 C2082 1.379 . S
C2088 C2085 1.363 . S
C2088 N2086 1.356 . S
C2089 C2083 1.363 . S
C2089 C2084 1.379 . S
C2089 N2087 1.356 . S
N2090 C2082 1.356 . S
N2090 H2096 0.984 . S
N2090 H2097 0.984 . S
N2091 C2084 1.356 . S
N2091 H2094 0.984 . S
N2091 H2095 0.985 . S
H2092 N2087 0.984 . S
H2093 N2087 0.985 . S
H2094 N2091 0.984 . S
H2095 N2091 0.985 . S
H2096 N2090 0.984 . S
H2097 N2090 0.984 . S
H2098 N2086 0.984 . S
H2099 N2086 0.985 . S
C2100 C2101 1.363 . S
C2100 C2106 1.379 . S
C2100 N2108 1.356 . S
C2101 C2100 1.363 . S
C2101 C2107 1.363 . S
C2102 C2103 1.363 . S
C2102 C2107 1.379 . S
C2102 N2109 1.356 . S
C2103 C2102 1.363 . S
C2103 C2106 1.363 . S
N2104 C2106 1.356 . S
N2104 H2116 0.984 . S
N2104 H2117 0.985 . S
N2105 C2107 1.356 . S
N2105 H2110 0.984 . S
N2105 H2111 0.985 . S
C2106 C2100 1.379 . S
C2106 C2103 1.363 . S
C2106 N2104 1.356 . S
C2107 C2101 1.363 . S
C2107 C2102 1.379 . S
C2107 N2105 1.356 . S
N2108 C2100 1.356 . S
N2108 H2114 0.984 . S
N2108 H2115 0.984 . S
N2109 C2102 1.356 . S
N2109 H2112 0.984 . S
N2109 H2113 0.985 . S
H2110 N2105 0.984 . S
H2111 N2105 0.985 . S
H2112 N2109 0.984 . S
H2113 N2109 0.985 . S
H2114 N2108 0.984 . S
H2115 N2108 0.984 . S
H2116 N2104 0.984 . S
H2117 N2104 0.985 . S
C2118 C2119 1.363 . S
C2118 C2124 1.379 . S
C2118 N2126 1.356 . S
C2119 C2118 1.363 . S
C2119 C2125 1.363 . S
C2120 C2121 1.363 . S
C2120 C2125 1.379 . S
C2120 N2127 1.356 . S
C2121 C2120 1.363 . S
C2121 C2124 1.363 . S
N2122 C2124 1.356 . S
N2122 H2134 0.984 . S
N2122 H2135 0.985 . S
N2123 C2125 1.356 . S
N2123 H2128 0.984 . S
N2123 H2129 0.985 . S
C2124 C2118 1.379 . S
C2124 C2121 1.363 . S
C2124 N2122 1.356 . S
C2125 C2119 1.363 . S
C2125 C2120 1.379 . S
C2125 N2123 1.356 . S
N2126 C2118 1.356 . S
N2126 H2132 0.984 . S
N2126 H2133 0.984 . S
N2127 C2120 1.356 . S
N2127 H2130 0.984 . S
N2127 H2131 0.985 . S
H2128 N2123 0.984 . S
H2129 N2123 0.985 . S
H2130 N2127 0.984 . S
H2131 N2127 0.985 . S
H2132 N2126 0.984 . S
H2133 N2126 0.984 . S
H2134 N2122 0.984 . S
H2135 N2122 0.985 . S
C2136 C2137 1.363 . S
C2136 C2142 1.379 . S
C2136 N2144 1.356 . S
C2137 C2136 1.363 . S
C2137 C2143 1.363 . S
C2138 C2139 1.363 . S
C2138 C2143 1.379 . S
C2138 N2145 1.356 . S
C2139 C2138 1.363 . S
C2139 C2142 1.363 . S
N2140 C2142 1.356 . S
N2140 H2152 0.984 . S
N2140 H2153 0.985 . S
N2141 C2143 1.356 . S
N2141 H2146 0.984 . S
N2141 H2147 0.985 . S
C2142 C2136 1.379 . S
C2142 C2139 1.363 . S
C2142 N2140 1.356 . S
C2143 C2137 1.363 . S
C2143 C2138 1.379 . S
C2143 N2141 1.356 . S
N2144 C2136 1.356 . S
N2144 H2150 0.984 . S
N2144 H2151 0.984 . S
N2145 C2138 1.356 . S
N2145 H2148 0.984 . S
N2145 H2149 0.985 . S
H2146 N2141 0.984 . S
H2147 N2141 0.985 . S
H2148 N2145 0.984 . S
H2149 N2145 0.985 . S
H2150 N2144 0.984 . S
H2151 N2144 0.984 . S
H2152 N2140 0.984 . S
H2153 N2140 0.985 . S
C2154 C2155 1.363 . S
C2154 C2160 1.379 . S
C2154 N2162 1.356 . S
C2155 C2154 1.363 . S
C2155 C2161 1.363 1_545 S
C2156 C2157 1.363 . S
C2156 C2161 1.379 . S
C2156 N2163 1.356 . S
C2157 C2156 1.363 . S
C2157 C2160 1.363 1_565 S
N2158 C2160 1.356 . S
N2158 H2170 0.984 . S
N2158 H2171 0.985 1_545 S
N2159 C2161 1.356 . S
N2159 H2164 0.984 1_565 S
N2159 H2165 0.985 . S
C2160 C2154 1.379 . S
C2160 C2157 1.363 1_545 S
C2160 N2158 1.356 . S
C2161 C2155 1.363 1_565 S
C2161 C2156 1.379 . S
C2161 N2159 1.356 . S
N2162 C2154 1.356 . S
N2162 H2168 0.984 . S
N2162 H2169 0.984 . S
N2163 C2156 1.356 . S
N2163 H2166 0.984 . S
N2163 H2167 0.985 . S
H2164 N2159 0.984 1_545 S
H2165 N2159 0.985 . S
H2166 N2163 0.984 . S
H2167 N2163 0.985 . S
H2168 N2162 0.984 . S
H2169 N2162 0.984 . S
H2170 N2158 0.984 . S
H2171 N2158 0.985 1_565 S
C2172 C2173 1.363 . S
C2172 C2178 1.379 . S
C2172 N2180 1.356 . S
C2173 C2172 1.363 . S
C2173 C2179 1.363 . S
C2174 C2175 1.363 . S
C2174 C2179 1.379 . S
C2174 N2181 1.356 . S
C2175 C2174 1.363 . S
C2175 C2178 1.363 . S
N2176 C2178 1.356 . S
N2176 H2188 0.984 . S
N2176 H2189 0.985 . S
N2177 C2179 1.356 . S
N2177 H2182 0.984 . S
N2177 H2183 0.985 . S
C2178 C2172 1.379 . S
C2178 C2175 1.363 . S
C2178 N2176 1.356 . S
C2179 C2173 1.363 . S
C2179 C2174 1.379 . S
C2179 N2177 1.356 . S
N2180 C2172 1.356 . S
N2180 H2186 0.984 . S
N2180 H2187 0.984 . S
N2181 C2174 1.356 . S
N2181 H2184 0.984 . S
N2181 H2185 0.985 . S
H2182 N2177 0.984 . S
H2183 N2177 0.985 . S
H2184 N2181 0.984 . S
H2185 N2181 0.985 . S
H2186 N2180 0.984 . S
H2187 N2180 0.984 . S
H2188 N2176 0.984 . S
H2189 N2176 0.985 . S
C2190 C2191 1.363 1_556 S
C2190 C2196 1.379 . S
C2190 N2198 1.356 . S
C2191 C2190 1.363 1_554 S
C2191 C2197 1.363 . S
C2192 C2193 1.363 1_554 S
C2192 C2197 1.379 . S
C2192 N2199 1.356 . S
C2193 C2192 1.363 1_556 S
C2193 C2196 1.363 . S
N2194 C2196 1.356 . S
N2194 H2206 0.984 . S
N2194 H2207 0.985 . S
N2195 C2197 1.356 . S
N2195 H2200 0.984 . S
N2195 H2201 0.985 . S
C2196 C2190 1.379 . S
C2196 C2193 1.363 . S
C2196 N2194 1.356 . S
C2197 C2191 1.363 . S
C2197 C2192 1.379 . S
C2197 N2195 1.356 . S
N2198 C2190 1.356 . S
N2198 H2204 0.984 . S
N2198 H2205 0.984 1_556 S
N2199 C2192 1.356 . S
N2199 H2202 0.984 1_554 S
N2199 H2203 0.985 . S
H2200 N2195 0.984 . S
H2201 N2195 0.985 . S
H2202 N2199 0.984 1_556 S
H2203 N2199 0.985 . S
H2204 N2198 0.984 . S
H2205 N2198 0.984 1_554 S
H2206 N2194 0.984 . S
H2207 N2194 0.985 . S
C2208 C2209 1.363 . S
C2208 C2214 1.379 . S
C2208 N2216 1.356 . S
C2209 C2208 1.363 . S
C2209 C2215 1.363 . S
C2210 C2211 1.363 . S
C2210 C2215 1.379 . S
C2210 N2217 1.356 . S
C2211 C2210 1.363 . S
C2211 C2214 1.363 . S
N2212 C2214 1.356 . S
N2212 H2224 0.984 . S
N2212 H2225 0.985 . S
N2213 C2215 1.356 . S
N2213 H2218 0.984 . S
N2213 H2219 0.985 . S
C2214 C2208 1.379 . S
C2214 C2211 1.363 . S
C2214 N2212 1.356 . S
C2215 C2209 1.363 . S
C2215 C2210 1.379 . S
C2215 N2213 1.356 . S
N2216 C2208 1.356 . S
N2216 H2222 0.984 . S
N2216 H2223 0.984 . S
N2217 C2210 1.356 . S
N2217 H2220 0.984 . S
N2217 H2221 0.985 . S
H2218 N2213 0.984 . S
H2219 N2213 0.985 . S
H2220 N2217 0.984 . S
H2221 N2217 0.985 . S
H2222 N2216 0.984 . S
H2223 N2216 0.984 . S
H2224 N2212 0.984 . S
H2225 N2212 0.985 . S
C2226 C2227 1.363 . S
C2226 C2232 1.379 . S
C2226 N2234 1.356 . S
C2227 C2226 1.363 . S
C2227 C2233 1.363 . S
C2228 C2229 1.363 . S
C2228 C2233 1.379 . S
C2228 N2235 1.356 . S
C2229 C2228 1.363 . S
C2229 C2232 1.363 . S
N2230 C2232 1.356 . S
N2230 H2242 0.984 . S
N2230 H2243 0.985 . S
N2231 C2233 1.356 . S
N2231 H2236 0.984 . S
N2231 H2237 0.985 . S
C2232 C2226 1.379 . S
C2232 C2229 1.363 . S
C2232 N2230 1.356 . S
C2233 C2227 1.363 . S
C2233 C2228 1.379 . S
C2233 N2231 1.356 . S
N2234 C2226 1.356 . S
N2234 H2240 0.984 . S
N2234 H2241 0.984 . S
N2235 C2228 1.356 . S
N2235 H2238 0.984 . S
N2235 H2239 0.985 . S
H2236 N2231 0.984 . S
H2237 N2231 0.985 . S
H2238 N2235 0.984 . S
H2239 N2235 0.985 . S
H2240 N2234 0.984 . S
H2241 N2234 0.984 . S
H2242 N2230 0.984 . S
H2243 N2230 0.985 . S
C2244 C2245 1.363 . S
C2244 C2250 1.379 . S
C2244 N2252 1.356 . S
C2245 C2244 1.363 . S
C2245 C2251 1.363 . S
C2246 C2247 1.363 . S
C2246 C2251 1.379 . S
C2246 N2253 1.356 . S
C2247 C2246 1.363 . S
C2247 C2250 1.363 . S
N2248 C2250 1.356 . S
N2248 H2260 0.984 . S
N2248 H2261 0.985 . S
N2249 C2251 1.356 . S
N2249 H2254 0.984 . S
N2249 H2255 0.985 . S
C2250 C2244 1.379 . S
C2250 C2247 1.363 . S
C2250 N2248 1.356 . S
C2251 C2245 1.363 . S
C2251 C2246 1.379 . S
C2251 N2249 1.356 . S
N2252 C2244 1.356 . S
N2252 H2258 0.984 . S
N2252 H2259 0.984 . S
N2253 C2246 1.356 . S
N2253 H2256 0.984 . S
N2253 H2257 0.985 . S
H2254 N2249 0.984 . S
H2255 N2249 0.985 . S
H2256 N2253 0.984 . S
H2257 N2253 0.985 . S
H2258 N2252 0.984 . S
H2259 N2252 0.984 . S
H2260 N2248 0.984 . S
H2261 N2248 0.985 . S
C2262 C2263 1.363 . S
C2262 C2268 1.379 . S
C2262 N2270 1.356 . S
C2263 C2262 1.363 . S
C2263 C2269 1.363 . S
C2264 C2265 1.363 . S
C2264 C2269 1.379 . S
C2264 N2271 1.356 . S
C2265 C2264 1.363 . S
C2265 C2268 1.363 . S
N2266 C2268 1.356 . S
N2266 H2278 0.984 . S
N2266 H2279 0.985 . S
N2267 C2269 1.356 . S
N2267 H2272 0.984 . S
N2267 H2273 0.985 . S
C2268 C2262 1.379 . S
C2268 C2265 1.363 . S
C2268 N2266 1.356 . S
C2269 C2263 1.363 . S
C2269 C2264 1.379 . S
C2269 N2267 1.356 . S
N2270 C2262 1.356 . S
N2270 H2276 0.984 . S
N2270 H2277 0.984 . S
N2271 C2264 1.356 . S
N2271 H2274 0.984 . S
N2271 H2275 0.985 . S
H2272 N2267 0.984 . S
H2273 N2267 0.985 . S
H2274 N2271 0.984 . S
H2275 N2271 0.985 . S
H2276 N2270 0.984 . S
H2277 N2270 0.984 . S
H2278 N2266 0.984 . S
H2279 N2266 0.985 . S
C2280 C2281 1.363 . S
C2280 C2286 1.379 . S
C2280 N2288 1.356 . S
C2281 C2280 1.363 . S
C2281 C2287 1.363 . S
C2282 C2283 1.363 . S
C2282 C2287 1.379 . S
C2282 N2289 1.356 . S
C2283 C2282 1.363 . S
C2283 C2286 1.363 . S
N2284 C2286 1.356 . S
N2284 H2296 0.984 . S
N2284 H2297 0.985 . S
N2285 C2287 1.356 . S
N2285 H2290 0.984 . S
N2285 H2291 0.985 . S
C2286 C2280 1.379 . S
C2286 C2283 1.363 . S
C2286 N2284 1.356 . S
C2287 C2281 1.363 . S
C2287 C2282 1.379 . S
C2287 N2285 1.356 . S
N2288 C2280 1.356 . S
N2288 H2294 0.984 . S
N2288 H2295 0.984 1_554 S
N2289 C2282 1.356 . S
N2289 H2292 0.984 . S
N2289 H2293 0.985 . S
H2290 N2285 0.984 . S
H2291 N2285 0.985 . S
H2292 N2289 0.984 . S
H2293 N2289 0.985 . S
H2294 N2288 0.984 . S
H2295 N2288 0.984 1_556 S
H2296 N2284 0.984 . S
H2297 N2284 0.985 . S
C2298 C2299 1.363 . S
C2298 C2304 1.379 . S
C2298 N2306 1.356 . S
C2299 C2298 1.363 . S
C2299 C2305 1.363 . S
C2300 C2301 1.363 . S
C2300 C2305 1.379 . S
C2300 N2307 1.356 . S
C2301 C2300 1.363 . S
C2301 C2304 1.363 . S
N2302 C2304 1.356 . S
N2302 H2314 0.984 . S
N2302 H2315 0.985 1_554 S
N2303 C2305 1.356 . S
N2303 H2308 0.984 . S
N2303 H2309 0.985 . S
C2304 C2298 1.379 . S
C2304 C2301 1.363 . S
C2304 N2302 1.356 . S
C2305 C2299 1.363 . S
C2305 C2300 1.379 . S
C2305 N2303 1.356 . S
N2306 C2298 1.356 . S
N2306 H2312 0.984 . S
N2306 H2313 0.984 . S
N2307 C2300 1.356 . S
N2307 H2310 0.984 . S
N2307 H2311 0.985 . S
H2308 N2303 0.984 . S
H2309 N2303 0.985 . S
H2310 N2307 0.984 . S
H2311 N2307 0.985 . S
H2312 N2306 0.984 . S
H2313 N2306 0.984 . S
H2314 N2302 0.984 . S
H2315 N2302 0.985 1_556 S
C2316 C2317 1.363 . S
C2316 C2322 1.379 . S
C2316 N2324 1.356 . S
C2317 C2316 1.363 . S
C2317 C2323 1.363 . S
C2318 C2319 1.363 . S
C2318 C2323 1.379 . S
C2318 N2325 1.356 . S
C2319 C2318 1.363 . S
C2319 C2322 1.363 . S
N2320 C2322 1.356 . S
N2320 H2332 0.984 . S
N2320 H2333 0.985 . S
N2321 C2323 1.356 . S
N2321 H2326 0.984 1_556 S
N2321 H2327 0.985 . S
C2322 C2316 1.379 . S
C2322 C2319 1.363 . S
C2322 N2320 1.356 . S
C2323 C2317 1.363 . S
C2323 C2318 1.379 . S
C2323 N2321 1.356 . S
N2324 C2316 1.356 . S
N2324 H2330 0.984 . S
N2324 H2331 0.984 . S
N2325 C2318 1.356 . S
N2325 H2328 0.984 . S
N2325 H2329 0.985 . S
H2326 N2321 0.984 1_554 S
H2327 N2321 0.985 . S
H2328 N2325 0.984 . S
H2329 N2325 0.985 . S
H2330 N2324 0.984 . S
H2331 N2324 0.984 . S
H2332 N2320 0.984 . S
H2333 N2320 0.985 . S
C2334 C2335 1.363 . S
C2334 C2340 1.379 . S
C2334 N2342 1.356 . S
C2335 C2334 1.363 . S
C2335 C2341 1.363 . S
C2336 C2337 1.363 . S
C2336 C2341 1.379 . S
C2336 N2343 1.356 . S
C2337 C2336 1.363 . S
C2337 C2340 1.363 . S
N2338 C2340 1.356 . S
N2338 H2350 0.984 . S
N2338 H2351 0.985 . S
N2339 C2341 1.356 . S
N2339 H2344 0.984 1_556 S
N2339 H2345 0.985 . S
C2340 C2334 1.379 . S
C2340 C2337 1.363 . S
C2340 N2338 1.356 . S
C2341 C2335 1.363 . S
C2341 C2336 1.379 . S
C2341 N2339 1.356 . S
N2342 C2334 1.356 . S
N2342 H2348 0.984 . S
N2342 H2349 0.984 . S
N2343 C2336 1.356 . S
N2343 H2346 0.984 . S
N2343 H2347 0.985 . S
H2344 N2339 0.984 1_554 S
H2345 N2339 0.985 . S
H2346 N2343 0.984 . S
H2347 N2343 0.985 . S
H2348 N2342 0.984 . S
H2349 N2342 0.984 . S
H2350 N2338 0.984 . S
H2351 N2338 0.985 . S
C2352 C2353 1.363 . S
C2352 C2358 1.379 . S
C2352 N2360 1.356 . S
C2353 C2352 1.363 . S
C2353 C2359 1.363 . S
C2354 C2355 1.363 . S
C2354 C2359 1.379 . S
C2354 N2361 1.356 . S
C2355 C2354 1.363 . S
C2355 C2358 1.363 . S
N2356 C2358 1.356 . S
N2356 H2368 0.984 . S
N2356 H2369 0.985 . S
N2357 C2359 1.356 . S
N2357 H2362 0.984 . S
N2357 H2363 0.985 . S
C2358 C2352 1.379 . S
C2358 C2355 1.363 . S
C2358 N2356 1.356 . S
C2359 C2353 1.363 . S
C2359 C2354 1.379 . S
C2359 N2357 1.356 . S
N2360 C2352 1.356 . S
N2360 H2366 0.984 . S
N2360 H2367 0.984 1_554 S
N2361 C2354 1.356 . S
N2361 H2364 0.984 . S
N2361 H2365 0.985 . S
H2362 N2357 0.984 . S
H2363 N2357 0.985 . S
H2364 N2361 0.984 . S
H2365 N2361 0.985 . S
H2366 N2360 0.984 . S
H2367 N2360 0.984 1_556 S
H2368 N2356 0.984 . S
H2369 N2356 0.985 . S
C2370 C2371 1.363 . S
C2370 C2376 1.379 . S
C2370 N2378 1.356 . S
C2371 C2370 1.363 . S
C2371 C2377 1.363 . S
C2372 C2373 1.363 . S
C2372 C2377 1.379 . S
C2372 N2379 1.356 . S
C2373 C2372 1.363 . S
C2373 C2376 1.363 . S
N2374 C2376 1.356 . S
N2374 H2386 0.984 . S
N2374 H2387 0.985 . S
N2375 C2377 1.356 . S
N2375 H2380 0.984 . S
N2375 H2381 0.985 . S
C2376 C2370 1.379 . S
C2376 C2373 1.363 . S
C2376 N2374 1.356 . S
C2377 C2371 1.363 . S
C2377 C2372 1.379 . S
C2377 N2375 1.356 . S
N2378 C2370 1.356 . S
N2378 H2384 0.984 . S
N2378 H2385 0.984 1_554 S
N2379 C2372 1.356 . S
N2379 H2382 0.984 . S
N2379 H2383 0.985 . S
H2380 N2375 0.984 . S
H2381 N2375 0.985 . S
H2382 N2379 0.984 . S
H2383 N2379 0.985 . S
H2384 N2378 0.984 . S
H2385 N2378 0.984 1_556 S
H2386 N2374 0.984 . S
H2387 N2374 0.985 . S
C2388 C2389 1.363 . S
C2388 C2394 1.379 . S
C2388 N2396 1.356 . S
C2389 C2388 1.363 . S
C2389 C2395 1.363 . S
C2390 C2391 1.363 . S
C2390 C2395 1.379 . S
C2390 N2397 1.356 . S
C2391 C2390 1.363 . S
C2391 C2394 1.363 . S
N2392 C2394 1.356 . S
N2392 H2404 0.984 . S
N2392 H2405 0.985 . S
N2393 C2395 1.356 . S
N2393 H2398 0.984 1_556 S
N2393 H2399 0.985 . S
C2394 C2388 1.379 . S
C2394 C2391 1.363 . S
C2394 N2392 1.356 . S
C2395 C2389 1.363 . S
C2395 C2390 1.379 . S
C2395 N2393 1.356 . S
N2396 C2388 1.356 . S
N2396 H2402 0.984 . S
N2396 H2403 0.984 . S
N2397 C2390 1.356 . S
N2397 H2400 0.984 . S
N2397 H2401 0.985 . S
H2398 N2393 0.984 1_554 S
H2399 N2393 0.985 . S
H2400 N2397 0.984 . S
H2401 N2397 0.985 . S
H2402 N2396 0.984 . S
H2403 N2396 0.984 . S
H2404 N2392 0.984 . S
H2405 N2392 0.985 . S
C2406 C2407 1.363 . S
C2406 C2412 1.379 . S
C2406 N2414 1.356 . S
C2407 C2406 1.363 . S
C2407 C2413 1.363 . S
C2408 C2409 1.363 . S
C2408 C2413 1.379 . S
C2408 N2415 1.356 . S
C2409 C2408 1.363 . S
C2409 C2412 1.363 . S
N2410 C2412 1.356 . S
N2410 H2422 0.984 . S
N2410 H2423 0.985 . S
N2411 C2413 1.356 . S
N2411 H2416 0.984 . S
N2411 H2417 0.985 . S
C2412 C2406 1.379 . S
C2412 C2409 1.363 . S
C2412 N2410 1.356 . S
C2413 C2407 1.363 . S
C2413 C2408 1.379 . S
C2413 N2411 1.356 . S
N2414 C2406 1.356 . S
N2414 H2420 0.984 . S
N2414 H2421 0.984 1_556 S
N2415 C2408 1.356 . S
N2415 H2418 0.984 . S
N2415 H2419 0.985 . S
H2416 N2411 0.984 . S
H2417 N2411 0.985 . S
H2418 N2415 0.984 . S
H2419 N2415 0.985 . S
H2420 N2414 0.984 . S
H2421 N2414 0.984 1_554 S
H2422 N2410 0.984 . S
H2423 N2410 0.985 . S
C2424 C2425 1.363 . S
C2424 C2430 1.379 . S
C2424 N2432 1.356 . S
C2425 C2424 1.363 . S
C2425 C2431 1.363 . S
C2426 C2427 1.363 . S
C2426 C2431 1.379 . S
C2426 N2433 1.356 . S
C2427 C2426 1.363 . S
C2427 C2430 1.363 . S
N2428 C2430 1.356 . S
N2428 H2440 0.984 . S
N2428 H2441 0.985 . S
N2429 C2431 1.356 . S
N2429 H2434 0.984 . S
N2429 H2435 0.985 . S
C2430 C2424 1.379 . S
C2430 C2427 1.363 . S
C2430 N2428 1.356 . S
C2431 C2425 1.363 . S
C2431 C2426 1.379 . S
C2431 N2429 1.356 . S
N2432 C2424 1.356 . S
N2432 H2438 0.984 . S
N2432 H2439 0.984 . S
N2433 C2426 1.356 . S
N2433 H2436 0.984 . S
N2433 H2437 0.985 . S
H2434 N2429 0.984 . S
H2435 N2429 0.985 . S
H2436 N2433 0.984 . S
H2437 N2433 0.985 . S
H2438 N2432 0.984 . S
H2439 N2432 0.984 . S
H2440 N2428 0.984 . S
H2441 N2428 0.985 . S
C2442 C2443 1.363 . S
C2442 C2448 1.379 . S
C2442 N2450 1.356 . S
C2443 C2442 1.363 . S
C2443 C2449 1.363 . S
C2444 C2445 1.363 . S
C2444 C2449 1.379 . S
C2444 N2451 1.356 . S
C2445 C2444 1.363 . S
C2445 C2448 1.363 . S
N2446 C2448 1.356 . S
N2446 H2458 0.984 . S
N2446 H2459 0.985 . S
N2447 C2449 1.356 . S
N2447 H2452 0.984 . S
N2447 H2453 0.985 . S
C2448 C2442 1.379 . S
C2448 C2445 1.363 . S
C2448 N2446 1.356 . S
C2449 C2443 1.363 . S
C2449 C2444 1.379 . S
C2449 N2447 1.356 . S
N2450 C2442 1.356 . S
N2450 H2456 0.984 . S
N2450 H2457 0.984 . S
N2451 C2444 1.356 . S
N2451 H2454 0.984 . S
N2451 H2455 0.985 . S
H2452 N2447 0.984 . S
H2453 N2447 0.985 . S
H2454 N2451 0.984 . S
H2455 N2451 0.985 . S
H2456 N2450 0.984 . S
H2457 N2450 0.984 . S
H2458 N2446 0.984 . S
H2459 N2446 0.985 . S
C2460 C2461 1.363 . S
C2460 C2466 1.379 . S
C2460 N2468 1.356 . S
C2461 C2460 1.363 . S
C2461 C2467 1.363 . S
C2462 C2463 1.363 . S
C2462 C2467 1.379 . S
C2462 N2469 1.356 . S
C2463 C2462 1.363 . S
C2463 C2466 1.363 . S
N2464 C2466 1.356 . S
N2464 H2476 0.984 . S
N2464 H2477 0.985 . S
N2465 C2467 1.356 . S
N2465 H2470 0.984 . S
N2465 H2471 0.985 . S
C2466 C2460 1.379 . S
C2466 C2463 1.363 . S
C2466 N2464 1.356 . S
C2467 C2461 1.363 . S
C2467 C2462 1.379 . S
C2467 N2465 1.356 . S
N2468 C2460 1.356 . S
N2468 H2474 0.984 . S
N2468 H2475 0.984 . S
N2469 C2462 1.356 . S
N2469 H2472 0.984 . S
N2469 H2473 0.985 . S
H2470 N2465 0.984 . S
H2471 N2465 0.985 . S
H2472 N2469 0.984 . S
H2473 N2469 0.985 . S
H2474 N2468 0.984 . S
H2475 N2468 0.984 . S
H2476 N2464 0.984 . S
H2477 N2464 0.985 . S
C2478 C2479 1.363 . S
C2478 C2484 1.379 . S
C2478 N2486 1.356 . S
C2479 C2478 1.363 . S
C2479 C2485 1.363 . S
C2480 C2481 1.363 . S
C2480 C2485 1.379 . S
C2480 N2487 1.356 . S
C2481 C2480 1.363 . S
C2481 C2484 1.363 . S
N2482 C2484 1.356 . S
N2482 H2494 0.984 . S
N2482 H2495 0.985 . S
N2483 C2485 1.356 . S
N2483 H2488 0.984 . S
N2483 H2489 0.985 . S
C2484 C2478 1.379 . S
C2484 C2481 1.363 . S
C2484 N2482 1.356 . S
C2485 C2479 1.363 . S
C2485 C2480 1.379 . S
C2485 N2483 1.356 . S
N2486 C2478 1.356 . S
N2486 H2492 0.984 . S
N2486 H2493 0.984 . S
N2487 C2480 1.356 . S
N2487 H2490 0.984 . S
N2487 H2491 0.985 . S
H2488 N2483 0.984 . S
H2489 N2483 0.985 . S
H2490 N2487 0.984 . S
H2491 N2487 0.985 . S
H2492 N2486 0.984 . S
H2493 N2486 0.984 . S
H2494 N2482 0.984 . S
H2495 N2482 0.985 . S
C1057 C106 1.172 . S
C1059 C7 1.172 . S
C1075 C40 1.171 . S
C1077 C73 1.171 . S
C1093 C139 1.172 . S
C1095 C238 1.172 . S
C1111 C172 1.171 . S
C1113 C205 1.171 . S
C1129 C370 1.172 . S
C1131 C271 1.172 . S
C1147 C304 1.172 . S
C1149 C337 1.172 . S
C1165 C502 1.172 . S
C1167 C403 1.172 . S
C1183 C436 1.172 . S
C1185 C469 1.172 . S
C1201 C535 1.172 . S
C1203 C634 1.172 . S
C1219 C601 1.171 . S
C1221 C568 1.171 . S
C1237 C766 1.172 . S
C1239 C667 1.172 . S
C1255 C733 1.171 . S
C1257 C700 1.171 . S
C1273 C898 1.172 . S
C1275 C799 1.172 . S
C1291 C865 1.172 . S
C1293 C832 1.172 . S
C1309 C1030 1.172 . S
C1311 C931 1.172 . S
C1327 C997 1.172 . S
C1329 C964 1.172 . S
C1345 C648 0.939 . S
C1347 C21 0.939 . S
C1363 C615 0.939 . S
C1365 C54 0.939 . S
C1381 C582 0.939 . S
C1383 C87 0.939 . S
C1399 C549 0.939 . S
C1401 C120 0.939 . S
C1417 C780 0.939 . S
C1419 C153 0.939 . S
C1435 C747 0.939 . S
C1437 C186 0.939 . S
C1453 C219 0.939 . S
C1455 C714 0.939 . S
C1471 C681 0.939 . S
C1473 C252 0.939 . S
C1489 C912 0.939 . S
C1491 C285 0.939 . S
C1507 C879 0.939 . S
C1509 C318 0.939 . S
C1525 C351 0.939 . S
C1527 C846 0.939 . S
C1543 C384 0.939 . S
C1545 C813 0.939 . S
C1561 C1044 0.939 . S
C1563 C417 0.939 . S
C1579 C1011 0.939 . S
C1581 C450 0.939 . S
C1597 C483 0.939 . S
C1599 C978 0.939 . S
C1615 C945 0.939 . S
C1617 C516 0.939 . S
C1633 N13 1.554 . S
C1635 N46 1.554 . S
C1651 N79 1.554 . S
C1653 N112 1.554 . S
C1669 N145 1.554 . S
C1671 N178 1.554 . S
C1687 N211 1.554 . S
C1689 N244 1.554 . S
C1705 N277 1.554 . S
C1707 N310 1.554 . S
C1723 N376 1.554 . S
C1725 N343 1.554 . S
C1741 N442 1.554 . S
C1743 N409 1.554 . S
C1759 N475 1.554 . S
C1761 N508 1.554 . S
C1777 N574 1.554 . S
C1779 N541 1.554 . S
C1795 N640 1.554 . S
C1797 N607 1.554 . S
C1813 N673 1.554 . S
C1815 N706 1.554 . S
C1831 N772 1.554 . S
C1833 N739 1.554 . S
C1849 N805 1.554 . S
C1851 N838 1.554 . S
C1867 N904 1.554 . S
C1869 N871 1.554 . S
C1885 N937 1.554 . S
C1887 N970 1.554 . S
C1903 N1003 1.554 . S
C1905 N1036 1.554 . S
C1921 N398 1.993 . S
C1923 N2 1.993 . S
C1939 N695 1.993 . S
C1941 N35 1.993 . S
C1957 N68 1.993 . S
C1959 N200 1.993 . S
C1975 N1025 1.993 . S
C1977 N101 1.993 . S
C1993 N266 1.993 . S
C1995 N134 1.993 . S
C2011 N563 1.993 . S
C2013 N167 1.993 . S
C2029 N893 1.993 . S
C2031 N233 1.993 . S
C2047 N299 1.993 . S
C2049 N959 1.993 . S
C2065 N464 1.993 . S
C2067 N332 1.993 . S
C2083 N761 1.993 . S
C2085 N365 1.993 . S
C2101 N431 1.993 . S
C2103 N827 1.993 . S
C2119 N497 1.993 . S
C2121 N629 1.993 . S
C2137 N926 1.993 . S
C2139 N530 1.993 . S
C2155 N596 1.993 . S
C2157 N728 1.993 . S
C2173 N662 1.993 . S
C2175 N794 1.993 . S
C2191 N992 1.993 . S
C2193 N860 1.993 . S
C2209 C18 1.460 . S
C2211 C117 1.460 . S
C2227 C51 1.461 . S
C2229 C84 1.461 . S
C2245 C249 1.460 . S
C2247 C150 1.460 . S
C2263 C183 1.461 . S
C2265 C216 1.461 . S
C2281 C282 1.460 1_554 S
C2283 C381 1.460 . S
C2299 C348 1.460 . S
C2301 C315 1.460 1_554 S
C2317 C414 1.460 1_556 S
C2319 C513 1.460 . S
C2335 C447 1.460 1_556 S
C2337 C480 1.460 . S
C2353 C546 1.460 1_554 S
C2355 C645 1.460 . S
C2371 C579 1.461 1_554 S
C2373 C612 1.461 . S
C2389 C678 1.460 1_556 S
C2391 C777 1.460 . S
C2407 C711 1.461 1_556 S
C2409 C744 1.461 . S
C2425 C810 1.460 . S
C2427 C909 1.460 . S
C2443 C876 1.460 . S
C2445 C843 1.460 . S
C2461 C942 1.460 . S
C2463 C1041 1.460 . S
C2479 C975 1.460 . S
C2481 C1008 1.460 . S
