# Generated by pormake.
# Topology snk, (6)-cn, num edge types: 1
# Building blocks:
#     Node 0, Type 0, BuildingBlock: BETDIP_clean_sbu_0, # of connection points: 6
#     Node 1, Type 0, BuildingBlock: BETDIP_clean_sbu_0, # of connection points: 6
#     Node 2, Type 0, BuildingBlock: BETDIP_clean_sbu_0, # of connection points: 6
#     Node 3, Type 0, BuildingBlock: BETDIP_clean_sbu_0, # of connection points: 6
#     Node 4, Type 0, BuildingBlock: BETDIP_clean_sbu_0, # of connection points: 6
#     Node 5, Type 0, BuildingBlock: BETDIP_clean_sbu_0, # of connection points: 6
#     Node 6, Type 0, BuildingBlock: BETDIP_clean_sbu_0, # of connection points: 6
#     Node 7, Type 0, BuildingBlock: BETDIP_clean_sbu_0, # of connection points: 6
#     Edge 8, Type (0, 0), BuildingBlock: EYOCIG_clean_linker_4, # of connection points: 2
#     Edge 9, Type (0, 0), BuildingBlock: EYOCIG_clean_linker_4, # of connection points: 2
#     Edge 10, Type (0, 0), BuildingBlock: EYOCIG_clean_linker_4, # of connection points: 2
#     Edge 11, Type (0, 0), BuildingBlock: EYOCIG_clean_linker_4, # of connection points: 2
#     Edge 12, Type (0, 0), BuildingBlock: EYOCIG_clean_linker_4, # of connection points: 2
#     Edge 13, Type (0, 0), BuildingBlock: EYOCIG_clean_linker_4, # of connection points: 2
#     Edge 14, Type (0, 0), BuildingBlock: EYOCIG_clean_linker_4, # of connection points: 2
#     Edge 15, Type (0, 0), BuildingBlock: EYOCIG_clean_linker_4, # of connection points: 2
#     Edge 16, Type (0, 0), BuildingBlock: EYOCIG_clean_linker_4, # of connection points: 2
#     Edge 17, Type (0, 0), BuildingBlock: EYOCIG_clean_linker_4, # of connection points: 2
#     Edge 18, Type (0, 0), BuildingBlock: EYOCIG_clean_linker_4, # of connection points: 2
#     Edge 19, Type (0, 0), BuildingBlock: EYOCIG_clean_linker_4, # of connection points: 2
#     Edge 20, Type (0, 0), BuildingBlock: EYOCIG_clean_linker_4, # of connection points: 2
#     Edge 21, Type (0, 0), BuildingBlock: EYOCIG_clean_linker_4, # of connection points: 2
#     Edge 22, Type (0, 0), BuildingBlock: EYOCIG_clean_linker_4, # of connection points: 2
#     Edge 23, Type (0, 0), BuildingBlock: EYOCIG_clean_linker_4, # of connection points: 2
#     Edge 24, Type (0, 0), BuildingBlock: EYOCIG_clean_linker_4, # of connection points: 2
#     Edge 25, Type (0, 0), BuildingBlock: EYOCIG_clean_linker_4, # of connection points: 2
#     Edge 26, Type (0, 0), BuildingBlock: EYOCIG_clean_linker_4, # of connection points: 2
#     Edge 27, Type (0, 0), BuildingBlock: EYOCIG_clean_linker_4, # of connection points: 2
#     Edge 28, Type (0, 0), BuildingBlock: EYOCIG_clean_linker_4, # of connection points: 2
#     Edge 29, Type (0, 0), BuildingBlock: EYOCIG_clean_linker_4, # of connection points: 2
#     Edge 30, Type (0, 0), BuildingBlock: EYOCIG_clean_linker_4, # of connection points: 2
#     Edge 31, Type (0, 0), BuildingBlock: EYOCIG_clean_linker_4, # of connection points: 2
# Relax obj value: 0.112
# Max RMSD: 0.187
# Mean RMSD: 0.148
data_MOF--net-snk--node1-BETDIP_clean_sbu_0--edge1-EYOCIG_clean_linker_4
_symmetry_space_group_name_H-M    P1
_symmetry_Int_Tables_number       1
_symmetry_cell_setting            triclinic
loop_
_symmetry_equiv_pos_as_xyz
'x, y, z'
_cell_length_a     28.617576
_cell_length_b     28.631801
_cell_length_c     22.177314
_cell_angle_alpha  95.211207
_cell_angle_beta   95.228126
_cell_angle_gamma 89.938597
loop_
_atom_site_label
_atom_site_type_symbol
_atom_site_fract_x
_atom_site_fract_y
_atom_site_fract_z
_atom_type_partial_charge
Tb0 Tb 1.00266 0.97906 0.4526 0.0
Tb1 Tb 0.01619 0.04024 0.5751 0.0
C2 C 0.98904 0.95185 0.34104 0.0
C3 C 0.99895 0.96733 0.2812 0.0
C4 C 0.98097 0.00949 0.26068 0.0
C5 C 0.98589 0.02026 0.20108 0.0
C6 C 1.00887 0.98921 0.16116 0.0
C7 C 0.02893 0.9484 0.18234 0.0
C8 C 0.02394 0.93753 0.24181 0.0
C9 C 0.06214 0.9477 0.53569 0.0
C10 C 0.0694 0.07069 0.46912 0.0
C11 C 0.02971 0.06729 0.6867 0.0
C12 C 0.01968 0.05156 0.74637 0.0
C13 C 0.03794 0.00951 0.76689 0.0
C14 C 0.03286 0.99853 0.82636 0.0
C15 C 1.00941 0.02925 0.86615 0.0
C16 C 0.98905 0.06992 0.84494 0.0
C17 C 0.99421 0.08101 0.78561 0.0
C18 C 0.95679 0.07156 0.49187 0.0
C19 C 0.94936 0.94867 0.55849 0.0
O20 O 0.95823 0.97566 0.37156 0.0
O21 O 0.02511 0.93916 0.37637 0.0
O22 O 0.05624 0.99004 0.52613 0.0
O23 O 0.03736 0.9207 0.49483 0.0
O24 O 0.04363 0.03957 0.43273 0.0
O25 O 0.06889 0.07464 0.5291 0.0
O26 O 0.06059 0.04359 0.65616 0.0
O27 O 0.99369 0.08007 0.65135 0.0
O28 O 0.96272 0.02928 0.50164 0.0
O29 O 0.9815 0.09861 0.53277 0.0
O30 O 0.97517 0.97974 0.5949 0.0
O31 O 0.94989 0.94473 0.49852 0.0
H32 H 0.96191 0.03347 0.28994 0.0
H33 H 0.97047 0.05215 0.18563 0.0
H34 H 0.0471 0.92413 0.15232 0.0
H35 H 0.03834 0.90495 0.2564 0.0
H36 H 0.05736 0.98578 0.73774 0.0
H37 H 0.04852 0.96675 0.84184 0.0
H38 H 0.97052 0.09393 0.87486 0.0
H39 H 0.97958 0.11349 0.77103 0.0
Tb40 Tb 0.2815 0.7512 0.70467 0.0
Tb41 Tb 0.23746 0.76792 0.82265 0.0
C42 C 0.29418 0.73242 0.59517 0.0
C43 C 0.28051 0.75095 0.53642 0.0
C44 C 0.2392 0.7349 0.50151 0.0
C45 C 0.23169 0.74383 0.44074 0.0
C46 C 0.26538 0.76862 0.4145 0.0
C47 C 0.30426 0.78863 0.45027 0.0
C48 C 0.31187 0.77978 0.51115 0.0
C49 C 0.32267 0.81507 0.78316 0.0
C50 C 0.19632 0.82355 0.71729 0.0
C51 C 0.22454 0.78666 0.93208 0.0
C52 C 0.238 0.76817 0.99089 0.0
C53 C 0.27926 0.78416 0.02595 0.0
C54 C 0.28653 0.77536 0.0868 0.0
C55 C 0.25265 0.75076 0.11293 0.0
C56 C 0.21381 0.73079 0.07703 0.0
C57 C 0.20644 0.73951 0.01609 0.0
C58 C 0.19642 0.70402 0.74392 0.0
C59 C 0.32275 0.69568 0.81012 0.0
O60 O 0.26106 0.71294 0.62171 0.0
O61 O 0.32334 0.75799 0.6335 0.0
O62 O 0.27931 0.80826 0.77286 0.0
O63 O 0.34511 0.78788 0.74606 0.0
O64 O 0.22142 0.79636 0.68114 0.0
O65 O 0.20076 0.82286 0.77692 0.0
O66 O 0.25778 0.80609 0.9057 0.0
O67 O 0.19545 0.7611 0.89364 0.0
O68 O 0.23973 0.7109 0.75458 0.0
O69 O 0.17388 0.7312 0.78092 0.0
O70 O 0.29759 0.72284 0.84624 0.0
O71 O 0.31832 0.69635 0.75047 0.0
H72 H 0.21421 0.71288 0.51977 0.0
H73 H 0.20136 0.72844 0.41321 0.0
H74 H 0.33043 0.80807 0.43021 0.0
H75 H 0.34382 0.79286 0.53711 0.0
H76 H 0.3044 0.80605 1.00776 0.0
H77 H 0.31683 0.79071 0.11443 0.0
H78 H 0.1875 0.71148 0.09702 0.0
H79 H 0.17452 0.72648 0.99001 0.0
Tb80 Tb 0.51793 0.98679 0.07323 0.0
Tb81 Tb 0.50176 0.03118 0.95529 0.0
C82 C 0.53668 0.97403 0.18272 0.0
C83 C 0.51811 0.98783 0.2414 0.0
C84 C 0.53417 0.02917 0.2762 0.0
C85 C 0.5251 0.03685 0.3369 0.0
C86 C 0.50015 1.00331 0.36317 0.0
C87 C 0.48014 0.9644 0.32749 0.0
C88 C 0.48914 0.95663 0.26669 0.0
C89 C 0.45367 0.94641 0.99463 0.0
C90 C 0.44642 0.0727 0.06083 0.0
C91 C 0.48318 0.04464 0.846 0.0
C92 C 0.50139 0.03112 0.78703 0.0
C93 C 0.48529 0.98985 0.75213 0.0
C94 C 0.49377 0.98257 0.69118 0.0
C95 C 0.51818 0.01646 0.66478 0.0
C96 C 0.53826 0.05532 0.70049 0.0
C97 C 0.52984 0.06269 0.76153 0.0
C98 C 0.56615 0.07125 0.03413 0.0
C99 C 0.57305 0.9451 0.96757 0.0
O100 O 0.55631 1.00705 0.15617 0.0
O101 O 0.51102 0.94496 0.14438 0.0
O102 O 0.46097 0.98968 1.00498 0.0
O103 O 0.48048 0.92367 0.03183 0.0
O104 O 0.47324 0.04718 0.09689 0.0
O105 O 0.44723 0.06845 1.00121 0.0
O106 O 0.46328 0.01161 0.87222 0.0
O107 O 0.50924 0.07322 0.88452 0.0
O108 O 0.55869 0.02808 0.02334 0.0
O109 O 0.53929 0.0942 0.99724 0.0
O110 O 0.54616 0.97057 0.93152 0.0
O111 O 0.57241 0.94947 0.02723 0.0
H112 H 0.55629 0.05406 0.25792 0.0
H113 H 0.54049 0.0672 0.36436 0.0
H114 H 0.46058 0.93835 0.34758 0.0
H115 H 0.47604 0.92466 0.24081 0.0
H116 H 0.46355 0.9647 0.77055 0.0
H117 H 0.47835 0.95225 0.66369 0.0
H118 H 0.55741 0.08162 0.68031 0.0
H119 H 0.54293 0.09463 0.78749 0.0
Tb120 Tb 0.28996 0.26628 0.32475 0.0
Tb121 Tb 0.22889 0.25249 0.20223 0.0
C122 C 0.31716 0.27996 0.43632 0.0
C123 C 0.30172 0.27 0.49617 0.0
C124 C 0.25961 0.28803 0.51682 0.0
C125 C 0.24891 0.28305 0.57644 0.0
C126 C 0.27999 0.25996 0.61624 0.0
C127 C 0.32074 0.23986 0.59492 0.0
C128 C 0.33154 0.24491 0.53545 0.0
C129 C 0.32171 0.20699 0.2418 0.0
C130 C 0.19849 0.19929 0.30821 0.0
C131 C 0.2019 0.23885 0.09061 0.0
C132 C 0.21767 0.24888 0.03095 0.0
C133 C 0.2598 0.23069 1.01055 0.0
C134 C 0.27085 0.23578 0.95111 0.0
C135 C 0.2401 0.25915 0.91124 0.0
C136 C 0.19936 0.27943 0.93232 0.0
C137 C 0.1882 0.27428 0.99163 0.0
C138 C 0.19721 0.31173 0.28532 0.0
C139 C 0.32024 0.31963 0.21886 0.0
O140 O 0.29323 0.31068 0.40577 0.0
O141 O 0.32994 0.24395 0.40102 0.0
O142 O 0.2793 0.21264 0.25126 0.0
O143 O 0.34855 0.23191 0.28269 0.0
O144 O 0.22953 0.22515 0.3446 0.0
O145 O 0.19459 0.19973 0.24822 0.0
O146 O 0.22565 0.20805 0.12123 0.0
O147 O 0.18904 0.27485 0.12588 0.0
O148 O 0.23955 0.30602 0.27563 0.0
O149 O 0.17029 0.28689 0.24441 0.0
O150 O 0.28928 0.29369 0.18244 0.0
O151 O 0.32412 0.31916 0.27883 0.0
H152 H 0.23563 0.30718 0.48765 0.0
H153 H 0.21706 0.29851 0.59199 0.0
H154 H 0.34501 0.22161 0.62485 0.0
H155 H 0.36409 0.23047 0.52078 0.0
H156 H 0.28354 0.21132 0.03977 0.0
H157 H 0.30269 0.22018 0.93573 0.0
H158 H 0.17533 0.29791 0.90234 0.0
H159 H 0.15567 0.28885 1.00613 0.0
Tb160 Tb 0.78142 0.25133 0.20478 0.0
Tb161 Tb 0.73723 0.26738 0.32283 0.0
C162 C 0.7943 0.23252 0.09536 0.0
C163 C 0.78094 0.25102 0.03653 0.0
C164 C 0.73959 0.23521 1.00152 0.0
C165 C 0.73241 0.24388 0.94063 0.0
C166 C 0.76647 0.26818 0.9144 0.0
C167 C 0.8054 0.28801 0.95024 0.0
C168 C 0.81267 0.27942 1.01123 0.0
C169 C 0.82152 0.31597 0.28304 0.0
C170 C 0.69521 0.32245 0.21725 0.0
C171 C 0.72436 0.28596 0.43229 0.0
C172 C 0.73818 0.26743 0.49098 0.0
C173 C 0.77956 0.28347 0.52575 0.0
C174 C 0.78722 0.27451 0.5865 0.0
C175 C 0.75361 0.2497 0.61284 0.0
C176 C 0.71467 0.22968 0.5772 0.0
C177 C 0.70691 0.23856 0.51635 0.0
C178 C 0.69722 0.20279 0.24431 0.0
C179 C 0.8234 0.19622 0.31031 0.0
O180 O 0.76097 0.21323 0.12174 0.0
O181 O 0.82347 0.258 0.1338 0.0
O182 O 0.7783 0.30834 0.27283 0.0
O183 O 0.84439 0.28924 0.24594 0.0
O184 O 0.72077 0.29574 0.18115 0.0
O185 O 0.69959 0.3217 0.27689 0.0
O186 O 0.75736 0.30571 0.40582 0.0
O187 O 0.69538 0.26023 0.3939 0.0
O188 O 0.7404 0.21046 0.25488 0.0
O189 O 0.67425 0.22951 0.28133 0.0
O190 O 0.79795 0.22305 0.34645 0.0
O191 O 0.8189 0.19691 0.25067 0.0
H192 H 0.71431 0.21352 0.01979 0.0
H193 H 0.70204 0.22864 0.91304 0.0
H194 H 0.83184 0.30709 0.93018 0.0
H195 H 0.84467 0.2923 0.03728 0.0
H196 H 0.8045 0.3055 0.50741 0.0
H197 H 0.81759 0.28991 0.61393 0.0
H198 H 0.68856 0.21023 0.59736 0.0
H199 H 0.67491 0.22549 0.49049 0.0
Tb200 Tb 0.79009 0.76636 0.82489 0.0
Tb201 Tb 0.72903 0.75235 0.70231 0.0
C202 C 0.81702 0.78022 0.9365 0.0
C203 C 0.80136 0.77023 0.99622 0.0
C204 C 0.75918 0.78829 0.01663 0.0
C205 C 0.74823 0.78326 0.07613 0.0
C206 C 0.77912 0.76008 0.11605 0.0
C207 C 0.81993 0.73994 0.09496 0.0
C208 C 0.83098 0.74503 0.0356 0.0
C209 C 0.82203 0.70721 0.74199 0.0
C210 C 0.69894 0.69894 0.80826 0.0
C211 C 0.70193 0.73864 0.59072 0.0
C212 C 0.71745 0.74874 0.53097 0.0
C213 C 0.75951 0.73063 0.51024 0.0
C214 C 0.77026 0.73576 0.45068 0.0
C215 C 0.73929 0.75912 0.41103 0.0
C216 C 0.69862 0.7793 0.43245 0.0
C217 C 0.68776 0.77409 0.49185 0.0
C218 C 0.69723 0.8115 0.78543 0.0
C219 C 0.82024 0.8197 0.71892 0.0
O220 O 0.79313 0.81087 0.9058 0.0
O221 O 0.83001 0.74422 0.90132 0.0
O222 O 0.7796 0.71274 0.75141 0.0
O223 O 0.84881 0.73216 0.78294 0.0
O224 O 0.72984 0.72495 0.84467 0.0
O225 O 0.69504 0.69938 0.74827 0.0
O226 O 0.72593 0.70797 0.62128 0.0
O227 O 0.68895 0.77456 0.62604 0.0
O228 O 0.73957 0.8059 0.77569 0.0
O229 O 0.67036 0.78656 0.74457 0.0
O230 O 0.78931 0.79371 0.68251 0.0
O231 O 0.82414 0.81927 0.7789 0.0
H232 H 0.73533 0.80751 0.98738 0.0
H233 H 0.71634 0.79875 0.09151 0.0
H234 H 0.84407 0.72162 0.12499 0.0
H235 H 0.86356 0.73056 0.0211 0.0
H236 H 0.78341 0.7113 0.5393 0.0
H237 H 0.80205 0.72023 0.43504 0.0
H238 H 0.67444 0.79775 0.40264 0.0
H239 H 0.65526 0.78859 0.50657 0.0
Tb240 Tb 0.50259 0.47888 0.9524 0.0
Tb241 Tb 0.51646 0.53999 0.0749 0.0
C242 C 0.48887 0.45185 0.8408 0.0
C243 C 0.49907 0.46736 0.78107 0.0
C244 C 0.48097 0.50939 0.7603 0.0
C245 C 0.48617 0.52016 0.70077 0.0
C246 C 0.50956 0.48923 0.66116 0.0
C247 C 0.52975 0.44857 0.68261 0.0
C248 C 0.52448 0.43769 0.742 0.0
C249 C 0.56182 0.44711 0.0354 0.0
C250 C 0.56988 0.57011 0.96896 0.0
C251 C 0.5302 0.56706 0.18648 0.0
C252 C 0.52036 0.5514 0.24626 0.0
C253 C 0.53837 0.5092 0.26662 0.0
C254 C 0.53344 0.49828 0.32617 0.0
C255 C 0.51043 0.52924 0.36619 0.0
C256 C 0.49036 0.57007 0.34514 0.0
C257 C 0.49534 0.58109 0.28575 0.0
C258 C 0.45717 0.57158 0.99169 0.0
C259 C 0.44925 0.4487 0.05837 0.0
O260 O 0.45822 0.4759 0.87133 0.0
O261 O 0.52475 0.43878 0.87615 0.0
O262 O 0.55621 0.4895 0.02592 0.0
O263 O 0.5369 0.42028 0.99448 0.0
O264 O 0.54398 0.53911 0.93258 0.0
O265 O 0.56935 0.57411 0.02893 0.0
O266 O 0.561 0.54334 0.15584 0.0
O267 O 0.4941 0.57981 0.15126 0.0
O268 O 0.46289 0.52929 1.0015 0.0
O269 O 0.48205 0.59852 0.03253 0.0
O270 O 0.47524 0.47963 0.09476 0.0
O271 O 0.44967 0.44481 0.99838 0.0
H272 H 0.46158 0.53327 0.7893 0.0
H273 H 0.47063 0.55194 0.68512 0.0
H274 H 0.54823 0.42441 0.65283 0.0
H275 H 0.53897 0.40521 0.75676 0.0
H276 H 0.55747 0.48531 0.23728 0.0
H277 H 0.54889 0.46636 0.34152 0.0
H278 H 0.47217 0.59426 0.37523 0.0
H279 H 0.48092 0.61369 0.27131 0.0
Tb280 Tb 0.01723 0.48731 0.57208 0.0
Tb281 Tb 1.00146 0.53189 0.45425 0.0
C282 C 0.03572 0.47386 0.68139 0.0
C283 C 0.01766 0.48764 0.74038 0.0
C284 C 0.03388 0.529 0.77501 0.0
C285 C 0.0255 0.53651 0.83598 0.0
C286 C 1.00109 0.50279 0.86267 0.0
C287 C 0.9809 0.46386 0.82722 0.0
C288 C 0.98921 0.45625 0.76616 0.0
C289 C 0.95281 0.44742 0.49325 0.0
C290 C 0.94628 0.57364 0.5598 0.0
C291 C 0.98306 0.54507 0.34483 0.0
C292 C 1.0016 0.53129 0.28613 0.0
C293 C 0.98545 0.49002 0.25123 0.0
C294 C 0.99446 0.48244 0.1905 0.0
C295 C 0.01944 0.516 0.16429 0.0
C296 C 0.03953 0.55483 0.20006 0.0
C297 C 0.0306 0.56251 0.2609 0.0
C298 C 0.0657 0.57187 0.53335 0.0
C299 C 0.07252 0.44562 0.46659 0.0
O300 O 0.05592 0.50665 0.65507 0.0
O301 O 1.0094 0.44546 0.64296 0.0
O302 O 0.96036 0.49062 0.50379 0.0
O303 O 0.97955 0.42444 0.53023 0.0
O304 O 0.97302 0.54804 0.59586 0.0
O305 O 0.94701 0.56933 0.50016 0.0
O306 O 0.96309 0.51213 0.37114 0.0
O307 O 1.00892 0.57383 0.38336 0.0
O308 O 0.05822 0.52868 0.52253 0.0
O309 O 0.03904 0.59484 0.49624 0.0
O310 O 0.04589 0.4713 0.43054 0.0
O311 O 0.07161 0.44977 0.5262 0.0
H312 H 0.05561 0.55403 0.75637 0.0
H313 H 0.04102 0.56688 0.86326 0.0
H314 H 0.96174 0.43769 0.84762 0.0
H315 H 0.97604 0.42426 0.74041 0.0
H316 H 0.96331 0.46512 0.26946 0.0
H317 H 0.979 0.45216 0.16297 0.0
H318 H 0.05911 0.58089 0.18002 0.0
H319 H 0.04375 0.59442 0.28685 0.0
C320 C 0.12044 0.12378 0.40859 0.0
C321 C 0.09848 0.10131 0.44019 0.0
C322 C 0.14523 0.14843 0.36873 0.0
C323 C 0.16779 0.1703 0.33715 0.0
C324 C 0.1144 0.91158 0.62342 0.0
C325 C 0.09143 0.93093 0.58493 0.0
C326 C 0.14151 0.8838 0.66253 0.0
C327 C 0.1658 0.8572 0.69039 0.0
C328 C 0.36517 0.87577 0.86649 0.0
C329 C 0.34433 0.84853 0.82904 0.0
C330 C 0.39339 0.90422 0.9105 0.0
C331 C 0.4204 0.92507 0.94824 0.0
C332 C 0.38629 0.12769 0.11556 0.0
C333 C 0.41287 0.10333 0.08776 0.0
C334 C 0.35833 0.15477 0.15447 0.0
C335 C 0.33874 0.1777 0.19276 0.0
C336 C 0.89818 0.89559 0.61884 0.0
C337 C 0.92022 0.91808 0.58736 0.0
C338 C 0.87335 0.87084 0.65854 0.0
C339 C 0.85083 0.84883 0.69002 0.0
C340 C 0.90503 0.10782 0.40388 0.0
C341 C 0.92773 0.08827 0.4424 0.0
C342 C 0.87818 0.13587 0.36488 0.0
C343 C 0.85391 0.16254 0.33712 0.0
C344 C 0.65573 0.14136 0.16119 0.0
C345 C 0.67629 0.16891 0.19848 0.0
C346 C 0.62736 0.11286 0.11748 0.0
C347 C 0.59994 0.09222 0.08009 0.0
C348 C 0.66085 0.8632 0.87339 0.0
C349 C 0.68033 0.84051 0.8348 0.0
C350 C 0.63302 0.89012 0.91261 0.0
C351 C 0.60654 0.91446 0.94058 0.0
C352 C 0.62113 0.62305 0.9085 0.0
C353 C 0.59908 0.60064 0.94004 0.0
C354 C 0.64592 0.64777 0.86871 0.0
C355 C 0.66838 0.66978 0.83717 0.0
C356 C 0.64026 0.38255 0.16246 0.0
C357 C 0.66458 0.35601 0.19037 0.0
C358 C 0.61341 0.41051 0.12331 0.0
C359 C 0.59077 0.43009 0.08476 0.0
C360 C 0.89167 0.40581 0.40979 0.0
C361 C 0.91907 0.42644 0.44722 0.0
C362 C 0.86327 0.37733 0.36606 0.0
C363 C 0.84263 0.34981 0.32882 0.0
C364 C 0.85863 0.65564 0.65408 0.0
C365 C 0.83911 0.67829 0.69267 0.0
C366 C 0.88643 0.62874 0.61481 0.0
C367 C 0.91285 0.60436 0.58678 0.0
C368 C 0.37331 0.37083 0.15851 0.0
C369 C 0.35082 0.34879 0.18998 0.0
C370 C 0.39809 0.39564 0.11879 0.0
C371 C 0.42011 0.41813 0.08729 0.0
C372 C 0.40483 0.60777 0.90405 0.0
C373 C 0.42782 0.58839 0.9425 0.0
C374 C 0.37768 0.63555 0.86496 0.0
C375 C 0.35334 0.6621 0.83707 0.0
C376 C 0.15425 0.64258 0.66126 0.0
C377 C 0.17497 0.67015 0.6984 0.0
C378 C 0.12609 0.61384 0.61751 0.0
C379 C 0.09908 0.59293 0.57982 0.0
C380 C 0.16066 0.36363 0.37297 0.0
C381 C 0.18029 0.34087 0.33458 0.0
C382 C 0.13264 0.39059 0.41191 0.0
C383 C 0.10606 0.41496 0.4397 0.0
C384 C 1.00865 0.0132 0.98242 0.0
C385 C 1.00891 0.02066 0.92954 0.0
C386 C 1.00948 1.00499 0.04477 0.0
C387 C 1.00928 0.99767 0.09771 0.0
C388 C 0.26047 0.76327 0.29544 0.0
C389 C 0.26385 0.76646 0.34986 0.0
C390 C 0.25722 0.75633 0.23198 0.0
C391 C 0.25398 0.75303 0.17757 0.0
C392 C 0.51221 0.01179 0.5457 0.0
C393 C 0.51567 0.01504 0.60012 0.0
C394 C 0.50526 1.00848 0.48224 0.0
C395 C 0.50217 1.00498 0.42782 0.0
C396 C 0.25616 0.25999 0.79499 0.0
C397 C 0.24876 0.25967 0.84787 0.0
C398 C 0.26431 0.25925 0.73263 0.0
C399 C 0.27161 0.25947 0.67969 0.0
C400 C 0.76199 0.26222 0.79535 0.0
C401 C 0.76519 0.26568 0.84976 0.0
C402 C 0.75871 0.25514 0.7319 0.0
C403 C 0.75524 0.2519 0.67749 0.0
C404 C 0.75506 0.76 0.2947 0.0
C405 C 0.74766 0.75974 0.34759 0.0
C406 C 0.76322 0.75926 0.23235 0.0
C407 C 0.77054 0.75959 0.17943 0.0
C408 C 0.51058 0.50488 0.54478 0.0
C409 C 0.5102 0.49762 0.59772 0.0
C410 C 0.50986 0.51312 0.48246 0.0
C411 C 0.50999 0.52067 0.42959 0.0
C412 C 1.00722 0.50775 0.98177 0.0
C413 C 1.00372 0.50441 0.92735 0.0
C414 C 0.01422 0.51104 0.04523 0.0
C415 C 0.01736 0.51445 0.09965 0.0
loop_
_geom_bond_atom_site_label_1
_geom_bond_atom_site_label_2
_geom_bond_distance
_geom_bond_site_symmetry_2
_ccdc_geom_bond_type
Tb0 C2 2.809 1_655 S
Tb0 O20 2.484 . S
Tb0 O21 2.440 1_655 S
Tb0 O22 2.658 1_655 S
Tb0 O23 2.409 1_655 S
Tb0 O24 2.378 1_665 S
Tb0 O28 2.325 1_565 S
Tb0 O31 2.341 . S
Tb1 C11 2.809 1_455 S
Tb1 O22 2.325 1_545 S
Tb1 O25 2.341 . S
Tb1 O26 2.484 . S
Tb1 O27 2.440 1_455 S
Tb1 O28 2.658 1_455 S
Tb1 O29 2.409 1_455 S
Tb1 O30 2.378 1_445 S
C2 Tb0 2.809 1_455 S
C2 C3 1.514 . S
C2 O20 1.248 1_455 S
C2 O21 1.266 . S
C3 C2 1.514 . S
C3 C4 1.359 1_455 S
C3 C8 1.348 . S
C4 C3 1.359 1_655 S
C4 C5 1.380 1_655 S
C4 H32 0.929 1_565 S
C5 C4 1.380 1_455 S
C5 C6 1.347 . S
C5 H33 0.931 1_465 S
C6 C5 1.347 . S
C6 C7 1.369 . S
C7 C6 1.369 . S
C7 C8 1.408 . S
C7 H34 0.930 . S
C8 C3 1.348 . S
C8 C7 1.408 . S
C8 H35 0.930 . S
C9 O22 1.281 . S
C9 O23 1.254 . S
C10 O24 1.236 . S
C10 O25 1.266 . S
C11 Tb1 2.809 1_655 S
C11 C12 1.514 . S
C11 O26 1.248 1_655 S
C11 O27 1.266 . S
C12 C11 1.514 . S
C12 C13 1.359 1_655 S
C12 C17 1.348 . S
C13 C12 1.359 1_455 S
C13 C14 1.380 1_455 S
C13 H36 0.929 1_545 S
C14 C13 1.380 1_655 S
C14 C15 1.347 . S
C14 H37 0.931 1_645 S
C15 C14 1.347 . S
C15 C16 1.369 . S
C16 C15 1.369 . S
C16 C17 1.408 . S
C16 H38 0.930 . S
C17 C12 1.348 . S
C17 C16 1.408 . S
C17 H39 0.930 . S
C18 O28 1.281 . S
C18 O29 1.254 . S
C19 O30 1.236 . S
C19 O31 1.266 . S
O20 Tb0 2.484 . S
O20 C2 1.248 1_655 S
O21 Tb0 2.440 1_455 S
O21 C2 1.266 . S
O22 Tb0 2.658 1_455 S
O22 Tb1 2.325 1_565 S
O22 C9 1.281 . S
O23 Tb0 2.409 1_455 S
O23 C9 1.254 . S
O24 Tb0 2.378 1_445 S
O24 C10 1.236 . S
O25 Tb1 2.341 . S
O25 C10 1.266 . S
O26 Tb1 2.484 . S
O26 C11 1.248 1_455 S
O27 Tb1 2.440 1_655 S
O27 C11 1.266 . S
O28 Tb0 2.325 1_545 S
O28 Tb1 2.658 1_655 S
O28 C18 1.281 . S
O29 Tb1 2.409 1_655 S
O29 C18 1.254 . S
O30 Tb1 2.378 1_665 S
O30 C19 1.236 . S
O31 Tb0 2.341 . S
O31 C19 1.266 . S
H32 C4 0.929 1_545 S
H33 C5 0.931 1_645 S
H34 C7 0.930 . S
H35 C8 0.930 . S
H36 C13 0.929 1_565 S
H37 C14 0.931 1_465 S
H38 C16 0.930 . S
H39 C17 0.930 . S
Tb40 C42 2.809 . S
Tb40 O60 2.484 . S
Tb40 O61 2.440 . S
Tb40 O62 2.658 . S
Tb40 O63 2.409 . S
Tb40 O64 2.378 . S
Tb40 O68 2.325 . S
Tb40 O71 2.341 . S
Tb41 C51 2.809 . S
Tb41 O62 2.325 . S
Tb41 O65 2.341 . S
Tb41 O66 2.484 . S
Tb41 O67 2.440 . S
Tb41 O68 2.658 . S
Tb41 O69 2.409 . S
Tb41 O70 2.378 . S
C42 Tb40 2.809 . S
C42 C43 1.514 . S
C42 O60 1.248 . S
C42 O61 1.266 . S
C43 C42 1.514 . S
C43 C44 1.359 . S
C43 C48 1.348 . S
C44 C43 1.359 . S
C44 C45 1.380 . S
C44 H72 0.929 . S
C45 C44 1.380 . S
C45 C46 1.347 . S
C45 H73 0.931 . S
C46 C45 1.347 . S
C46 C47 1.369 . S
C47 C46 1.369 . S
C47 C48 1.408 . S
C47 H74 0.930 . S
C48 C43 1.348 . S
C48 C47 1.408 . S
C48 H75 0.930 . S
C49 O62 1.281 . S
C49 O63 1.254 . S
C50 O64 1.236 . S
C50 O65 1.266 . S
C51 Tb41 2.809 . S
C51 C52 1.514 . S
C51 O66 1.248 . S
C51 O67 1.266 . S
C52 C51 1.514 . S
C52 C53 1.359 1_556 S
C52 C57 1.348 1_556 S
C53 C52 1.359 1_554 S
C53 C54 1.380 . S
C53 H76 0.929 . S
C54 C53 1.380 . S
C54 C55 1.347 . S
C54 H77 0.931 . S
C55 C54 1.347 . S
C55 C56 1.369 . S
C56 C55 1.369 . S
C56 C57 1.408 . S
C56 H78 0.930 . S
C57 C52 1.348 1_554 S
C57 C56 1.408 . S
C57 H79 0.930 1_554 S
C58 O68 1.281 . S
C58 O69 1.254 . S
C59 O70 1.236 . S
C59 O71 1.266 . S
O60 Tb40 2.484 . S
O60 C42 1.248 . S
O61 Tb40 2.440 . S
O61 C42 1.266 . S
O62 Tb40 2.658 . S
O62 Tb41 2.325 . S
O62 C49 1.281 . S
O63 Tb40 2.409 . S
O63 C49 1.254 . S
O64 Tb40 2.378 . S
O64 C50 1.236 . S
O65 Tb41 2.341 . S
O65 C50 1.266 . S
O66 Tb41 2.484 . S
O66 C51 1.248 . S
O67 Tb41 2.440 . S
O67 C51 1.266 . S
O68 Tb40 2.325 . S
O68 Tb41 2.658 . S
O68 C58 1.281 . S
O69 Tb41 2.409 . S
O69 C58 1.254 . S
O70 Tb41 2.378 . S
O70 C59 1.236 . S
O71 Tb40 2.341 . S
O71 C59 1.266 . S
H72 C44 0.929 . S
H73 C45 0.931 . S
H74 C47 0.930 . S
H75 C48 0.930 . S
H76 C53 0.929 . S
H77 C54 0.931 . S
H78 C56 0.930 . S
H79 C57 0.930 1_556 S
Tb80 C82 2.809 . S
Tb80 O100 2.484 1_565 S
Tb80 O101 2.440 . S
Tb80 O102 2.658 1_554 S
Tb80 O103 2.409 . S
Tb80 O104 2.378 1_565 S
Tb80 O108 2.325 1_565 S
Tb80 O111 2.341 1_554 S
Tb81 C91 2.809 . S
Tb81 O102 2.325 1_545 S
Tb81 O105 2.341 1_556 S
Tb81 O106 2.484 1_545 S
Tb81 O107 2.440 . S
Tb81 O108 2.658 1_556 S
Tb81 O109 2.409 . S
Tb81 O110 2.378 1_545 S
C82 Tb80 2.809 . S
C82 C83 1.514 . S
C82 O100 1.248 1_565 S
C82 O101 1.266 . S
C83 C82 1.514 . S
C83 C84 1.359 1_565 S
C83 C88 1.348 . S
C84 C83 1.359 1_545 S
C84 C85 1.380 . S
C84 H112 0.929 . S
C85 C84 1.380 . S
C85 C86 1.347 1_545 S
C85 H113 0.931 . S
C86 C85 1.347 1_565 S
C86 C87 1.369 . S
C87 C86 1.369 . S
C87 C88 1.408 . S
C87 H114 0.930 . S
C88 C83 1.348 . S
C88 C87 1.408 . S
C88 H115 0.930 . S
C89 O102 1.281 . S
C89 O103 1.254 1_556 S
C90 O104 1.236 . S
C90 O105 1.266 . S
C91 Tb81 2.809 . S
C91 C92 1.514 . S
C91 O106 1.248 1_545 S
C91 O107 1.266 . S
C92 C91 1.514 . S
C92 C93 1.359 1_545 S
C92 C97 1.348 . S
C93 C92 1.359 1_565 S
C93 C94 1.380 . S
C93 H116 0.929 . S
C94 C93 1.380 . S
C94 C95 1.347 1_565 S
C94 H117 0.931 . S
C95 C94 1.347 1_545 S
C95 C96 1.369 . S
C96 C95 1.369 . S
C96 C97 1.408 . S
C96 H118 0.930 . S
C97 C92 1.348 . S
C97 C96 1.408 . S
C97 H119 0.930 . S
C98 O108 1.281 . S
C98 O109 1.254 1_554 S
C99 O110 1.236 . S
C99 O111 1.266 . S
O100 Tb80 2.484 1_545 S
O100 C82 1.248 1_545 S
O101 Tb80 2.440 . S
O101 C82 1.266 . S
O102 Tb80 2.658 1_556 S
O102 Tb81 2.325 1_565 S
O102 C89 1.281 . S
O103 Tb80 2.409 . S
O103 C89 1.254 1_554 S
O104 Tb80 2.378 1_545 S
O104 C90 1.236 . S
O105 Tb81 2.341 1_554 S
O105 C90 1.266 . S
O106 Tb81 2.484 1_565 S
O106 C91 1.248 1_565 S
O107 Tb81 2.440 . S
O107 C91 1.266 . S
O108 Tb80 2.325 1_545 S
O108 Tb81 2.658 1_554 S
O108 C98 1.281 . S
O109 Tb81 2.409 . S
O109 C98 1.254 1_556 S
O110 Tb81 2.378 1_565 S
O110 C99 1.236 . S
O111 Tb80 2.341 1_556 S
O111 C99 1.266 . S
H112 C84 0.929 . S
H113 C85 0.931 . S
H114 C87 0.930 . S
H115 C88 0.930 . S
H116 C93 0.929 . S
H117 C94 0.931 . S
H118 C96 0.930 . S
H119 C97 0.930 . S
Tb120 C122 2.809 . S
Tb120 O140 2.484 . S
Tb120 O141 2.440 . S
Tb120 O142 2.658 . S
Tb120 O143 2.409 . S
Tb120 O144 2.378 . S
Tb120 O148 2.325 . S
Tb120 O151 2.341 . S
Tb121 C131 2.809 . S
Tb121 O142 2.325 . S
Tb121 O145 2.341 . S
Tb121 O146 2.484 . S
Tb121 O147 2.440 . S
Tb121 O148 2.658 . S
Tb121 O149 2.409 . S
Tb121 O150 2.378 . S
C122 Tb120 2.809 . S
C122 C123 1.514 . S
C122 O140 1.248 . S
C122 O141 1.266 . S
C123 C122 1.514 . S
C123 C124 1.359 . S
C123 C128 1.348 . S
C124 C123 1.359 . S
C124 C125 1.380 . S
C124 H152 0.929 . S
C125 C124 1.380 . S
C125 C126 1.347 . S
C125 H153 0.931 . S
C126 C125 1.347 . S
C126 C127 1.369 . S
C127 C126 1.369 . S
C127 C128 1.408 . S
C127 H154 0.930 . S
C128 C123 1.348 . S
C128 C127 1.408 . S
C128 H155 0.930 . S
C129 O142 1.281 . S
C129 O143 1.254 . S
C130 O144 1.236 . S
C130 O145 1.266 . S
C131 Tb121 2.809 . S
C131 C132 1.497 1_554 S
C131 O146 1.248 . S
C131 O147 1.266 . S
C132 C131 1.497 1_556 S
C132 C133 1.368 . S
C132 C137 1.355 . S
C133 C132 1.368 . S
C133 C134 1.380 . S
C133 H156 0.929 . S
C134 C133 1.380 . S
C134 C135 1.347 . S
C134 H157 0.931 . S
C135 C134 1.347 . S
C135 C136 1.369 . S
C136 C135 1.369 . S
C136 C137 1.408 . S
C136 H158 0.930 . S
C137 C132 1.355 . S
C137 C136 1.408 . S
C137 H159 0.930 . S
C138 O148 1.281 . S
C138 O149 1.254 . S
C139 O150 1.236 . S
C139 O151 1.266 . S
O140 Tb120 2.484 . S
O140 C122 1.248 . S
O141 Tb120 2.440 . S
O141 C122 1.266 . S
O142 Tb120 2.658 . S
O142 Tb121 2.325 . S
O142 C129 1.281 . S
O143 Tb120 2.409 . S
O143 C129 1.254 . S
O144 Tb120 2.378 . S
O144 C130 1.236 . S
O145 Tb121 2.341 . S
O145 C130 1.266 . S
O146 Tb121 2.484 . S
O146 C131 1.248 . S
O147 Tb121 2.440 . S
O147 C131 1.266 . S
O148 Tb120 2.325 . S
O148 Tb121 2.658 . S
O148 C138 1.281 . S
O149 Tb121 2.409 . S
O149 C138 1.254 . S
O150 Tb121 2.378 . S
O150 C139 1.236 . S
O151 Tb120 2.341 . S
O151 C139 1.266 . S
H152 C124 0.929 . S
H153 C125 0.931 . S
H154 C127 0.930 . S
H155 C128 0.930 . S
H156 C133 0.929 . S
H157 C134 0.931 . S
H158 C136 0.930 . S
H159 C137 0.930 . S
Tb160 C162 2.809 . S
Tb160 O180 2.484 . S
Tb160 O181 2.440 . S
Tb160 O182 2.658 . S
Tb160 O183 2.409 . S
Tb160 O184 2.378 . S
Tb160 O188 2.325 . S
Tb160 O191 2.341 . S
Tb161 C171 2.809 . S
Tb161 O182 2.325 . S
Tb161 O185 2.341 . S
Tb161 O186 2.484 . S
Tb161 O187 2.440 . S
Tb161 O188 2.658 . S
Tb161 O189 2.409 . S
Tb161 O190 2.378 . S
C162 Tb160 2.809 . S
C162 C163 1.514 . S
C162 O180 1.248 . S
C162 O181 1.266 . S
C163 C162 1.514 . S
C163 C164 1.359 1_554 S
C163 C168 1.348 1_554 S
C164 C163 1.359 1_556 S
C164 C165 1.380 . S
C164 H192 0.929 . S
C165 C164 1.380 . S
C165 C166 1.347 . S
C165 H193 0.931 . S
C166 C165 1.347 . S
C166 C167 1.369 . S
C167 C166 1.369 . S
C167 C168 1.408 . S
C167 H194 0.930 . S
C168 C163 1.348 1_556 S
C168 C167 1.408 . S
C168 H195 0.930 1_556 S
C169 O182 1.281 . S
C169 O183 1.254 . S
C170 O184 1.236 . S
C170 O185 1.266 . S
C171 Tb161 2.809 . S
C171 C172 1.514 . S
C171 O186 1.248 . S
C171 O187 1.266 . S
C172 C171 1.514 . S
C172 C173 1.359 . S
C172 C177 1.348 . S
C173 C172 1.359 . S
C173 C174 1.380 . S
C173 H196 0.929 . S
C174 C173 1.380 . S
C174 C175 1.347 . S
C174 H197 0.931 . S
C175 C174 1.347 . S
C175 C176 1.369 . S
C176 C175 1.369 . S
C176 C177 1.408 . S
C176 H198 0.930 . S
C177 C172 1.348 . S
C177 C176 1.408 . S
C177 H199 0.930 . S
C178 O188 1.281 . S
C178 O189 1.254 . S
C179 O190 1.236 . S
C179 O191 1.266 . S
O180 Tb160 2.484 . S
O180 C162 1.248 . S
O181 Tb160 2.440 . S
O181 C162 1.266 . S
O182 Tb160 2.658 . S
O182 Tb161 2.325 . S
O182 C169 1.281 . S
O183 Tb160 2.409 . S
O183 C169 1.254 . S
O184 Tb160 2.378 . S
O184 C170 1.236 . S
O185 Tb161 2.341 . S
O185 C170 1.266 . S
O186 Tb161 2.484 . S
O186 C171 1.248 . S
O187 Tb161 2.440 . S
O187 C171 1.266 . S
O188 Tb160 2.325 . S
O188 Tb161 2.658 . S
O188 C178 1.281 . S
O189 Tb161 2.409 . S
O189 C178 1.254 . S
O190 Tb161 2.378 . S
O190 C179 1.236 . S
O191 Tb160 2.341 . S
O191 C179 1.266 . S
H192 C164 0.929 . S
H193 C165 0.931 . S
H194 C167 0.930 . S
H195 C168 0.930 1_554 S
H196 C173 0.929 . S
H197 C174 0.931 . S
H198 C176 0.930 . S
H199 C177 0.930 . S
Tb200 C202 2.809 . S
Tb200 O220 2.484 . S
Tb200 O221 2.440 . S
Tb200 O222 2.658 . S
Tb200 O223 2.409 . S
Tb200 O224 2.378 . S
Tb200 O228 2.325 . S
Tb200 O231 2.341 . S
Tb201 C211 2.809 . S
Tb201 O222 2.325 . S
Tb201 O225 2.341 . S
Tb201 O226 2.484 . S
Tb201 O227 2.440 . S
Tb201 O228 2.658 . S
Tb201 O229 2.409 . S
Tb201 O230 2.378 . S
C202 Tb200 2.809 . S
C202 C203 1.514 1_556 S
C202 O220 1.248 . S
C202 O221 1.266 . S
C203 C202 1.514 1_554 S
C203 C204 1.359 . S
C203 C208 1.348 . S
C204 C203 1.359 . S
C204 C205 1.380 . S
C204 H232 0.929 . S
C205 C204 1.380 . S
C205 C206 1.347 . S
C205 H233 0.931 . S
C206 C205 1.347 . S
C206 C207 1.369 . S
C207 C206 1.369 . S
C207 C208 1.408 . S
C207 H234 0.930 . S
C208 C203 1.348 . S
C208 C207 1.408 . S
C208 H235 0.930 . S
C209 O222 1.281 . S
C209 O223 1.254 . S
C210 O224 1.236 . S
C210 O225 1.266 . S
C211 Tb201 2.809 . S
C211 C212 1.514 . S
C211 O226 1.248 . S
C211 O227 1.266 . S
C212 C211 1.514 . S
C212 C213 1.359 . S
C212 C217 1.348 . S
C213 C212 1.359 . S
C213 C214 1.380 . S
C213 H236 0.929 . S
C214 C213 1.380 . S
C214 C215 1.347 . S
C214 H237 0.931 . S
C215 C214 1.347 . S
C215 C216 1.369 . S
C216 C215 1.369 . S
C216 C217 1.408 . S
C216 H238 0.930 . S
C217 C212 1.348 . S
C217 C216 1.408 . S
C217 H239 0.930 . S
C218 O228 1.281 . S
C218 O229 1.254 . S
C219 O230 1.236 . S
C219 O231 1.266 . S
O220 Tb200 2.484 . S
O220 C202 1.248 . S
O221 Tb200 2.440 . S
O221 C202 1.266 . S
O222 Tb200 2.658 . S
O222 Tb201 2.325 . S
O222 C209 1.281 . S
O223 Tb200 2.409 . S
O223 C209 1.254 . S
O224 Tb200 2.378 . S
O224 C210 1.236 . S
O225 Tb201 2.341 . S
O225 C210 1.266 . S
O226 Tb201 2.484 . S
O226 C211 1.248 . S
O227 Tb201 2.440 . S
O227 C211 1.266 . S
O228 Tb200 2.325 . S
O228 Tb201 2.658 . S
O228 C218 1.281 . S
O229 Tb201 2.409 . S
O229 C218 1.254 . S
O230 Tb201 2.378 . S
O230 C219 1.236 . S
O231 Tb200 2.341 . S
O231 C219 1.266 . S
H232 C204 0.929 . S
H233 C205 0.931 . S
H234 C207 0.930 . S
H235 C208 0.930 . S
H236 C213 0.929 . S
H237 C214 0.931 . S
H238 C216 0.930 . S
H239 C217 0.930 . S
Tb240 C242 2.809 . S
Tb240 O260 2.484 . S
Tb240 O261 2.440 . S
Tb240 O262 2.658 1_556 S
Tb240 O263 2.409 . S
Tb240 O264 2.378 . S
Tb240 O268 2.325 . S
Tb240 O271 2.341 . S
Tb241 C251 2.809 . S
Tb241 O262 2.325 . S
Tb241 O265 2.341 . S
Tb241 O266 2.484 . S
Tb241 O267 2.440 . S
Tb241 O268 2.658 1_554 S
Tb241 O269 2.409 . S
Tb241 O270 2.378 . S
C242 Tb240 2.809 . S
C242 C243 1.514 . S
C242 O260 1.248 . S
C242 O261 1.266 . S
C243 C242 1.514 . S
C243 C244 1.359 . S
C243 C248 1.348 . S
C244 C243 1.359 . S
C244 C245 1.380 . S
C244 H272 0.929 . S
C245 C244 1.380 . S
C245 C246 1.347 . S
C245 H273 0.931 . S
C246 C245 1.347 . S
C246 C247 1.369 . S
C247 C246 1.369 . S
C247 C248 1.408 . S
C247 H274 0.930 . S
C248 C243 1.348 . S
C248 C247 1.408 . S
C248 H275 0.930 . S
C249 O262 1.281 . S
C249 O263 1.254 1_554 S
C250 O264 1.236 . S
C250 O265 1.266 1_556 S
C251 Tb241 2.809 . S
C251 C252 1.514 . S
C251 O266 1.248 . S
C251 O267 1.266 . S
C252 C251 1.514 . S
C252 C253 1.359 . S
C252 C257 1.348 . S
C253 C252 1.359 . S
C253 C254 1.380 . S
C253 H276 0.929 . S
C254 C253 1.380 . S
C254 C255 1.347 . S
C254 H277 0.931 . S
C255 C254 1.347 . S
C255 C256 1.369 . S
C256 C255 1.369 . S
C256 C257 1.408 . S
C256 H278 0.930 . S
C257 C252 1.348 . S
C257 C256 1.408 . S
C257 H279 0.930 . S
C258 O268 1.281 . S
C258 O269 1.254 1_556 S
C259 O270 1.236 . S
C259 O271 1.266 1_554 S
O260 Tb240 2.484 . S
O260 C242 1.248 . S
O261 Tb240 2.440 . S
O261 C242 1.266 . S
O262 Tb240 2.658 1_554 S
O262 Tb241 2.325 . S
O262 C249 1.281 . S
O263 Tb240 2.409 . S
O263 C249 1.254 1_556 S
O264 Tb240 2.378 . S
O264 C250 1.236 . S
O265 Tb241 2.341 . S
O265 C250 1.266 1_554 S
O266 Tb241 2.484 . S
O266 C251 1.248 . S
O267 Tb241 2.440 . S
O267 C251 1.266 . S
O268 Tb240 2.325 . S
O268 Tb241 2.658 1_556 S
O268 C258 1.281 . S
O269 Tb241 2.409 . S
O269 C258 1.254 1_554 S
O270 Tb241 2.378 . S
O270 C259 1.236 . S
O271 Tb240 2.341 . S
O271 C259 1.266 1_556 S
H272 C244 0.929 . S
H273 C245 0.931 . S
H274 C247 0.930 . S
H275 C248 0.930 . S
H276 C253 0.929 . S
H277 C254 0.931 . S
H278 C256 0.930 . S
H279 C257 0.930 . S
Tb280 C282 2.809 1_455 S
Tb280 O300 2.484 . S
Tb280 O301 2.440 1_455 S
Tb280 O302 2.658 1_455 S
Tb280 O303 2.409 1_455 S
Tb280 O304 2.378 1_455 S
Tb280 O308 2.325 . S
Tb280 O311 2.341 . S
Tb281 C291 2.809 1_655 S
Tb281 O302 2.325 . S
Tb281 O305 2.341 . S
Tb281 O306 2.484 . S
Tb281 O307 2.440 1_655 S
Tb281 O308 2.658 1_655 S
Tb281 O309 2.409 1_655 S
Tb281 O310 2.378 1_655 S
C282 Tb280 2.809 1_655 S
C282 C283 1.514 . S
C282 O300 1.248 1_655 S
C282 O301 1.266 . S
C283 C282 1.514 . S
C283 C284 1.359 1_655 S
C283 C288 1.348 . S
C284 C283 1.359 1_455 S
C284 C285 1.380 1_455 S
C284 H312 0.929 . S
C285 C284 1.380 1_655 S
C285 C286 1.347 . S
C285 H313 0.931 1_655 S
C286 C285 1.347 . S
C286 C287 1.369 . S
C287 C286 1.369 . S
C287 C288 1.408 . S
C287 H314 0.930 . S
C288 C283 1.348 . S
C288 C287 1.408 . S
C288 H315 0.930 . S
C289 O302 1.281 . S
C289 O303 1.254 . S
C290 O304 1.236 . S
C290 O305 1.266 . S
C291 Tb281 2.809 1_455 S
C291 C292 1.514 . S
C291 O306 1.248 1_455 S
C291 O307 1.266 . S
C292 C291 1.514 . S
C292 C293 1.359 1_455 S
C292 C297 1.348 . S
C293 C292 1.359 1_655 S
C293 C294 1.380 1_655 S
C293 H316 0.929 . S
C294 C293 1.380 1_455 S
C294 C295 1.347 . S
C294 H317 0.931 1_455 S
C295 C294 1.347 . S
C295 C296 1.369 . S
C296 C295 1.369 . S
C296 C297 1.408 . S
C296 H318 0.930 . S
C297 C292 1.348 . S
C297 C296 1.408 . S
C297 H319 0.930 . S
C298 O308 1.281 . S
C298 O309 1.254 . S
C299 O310 1.236 . S
C299 O311 1.266 . S
O300 Tb280 2.484 . S
O300 C282 1.248 1_455 S
O301 Tb280 2.440 1_655 S
O301 C282 1.266 . S
O302 Tb280 2.658 1_655 S
O302 Tb281 2.325 . S
O302 C289 1.281 . S
O303 Tb280 2.409 1_655 S
O303 C289 1.254 . S
O304 Tb280 2.378 1_655 S
O304 C290 1.236 . S
O305 Tb281 2.341 . S
O305 C290 1.266 . S
O306 Tb281 2.484 . S
O306 C291 1.248 1_655 S
O307 Tb281 2.440 1_455 S
O307 C291 1.266 . S
O308 Tb280 2.325 . S
O308 Tb281 2.658 1_455 S
O308 C298 1.281 . S
O309 Tb281 2.409 1_455 S
O309 C298 1.254 . S
O310 Tb281 2.378 1_455 S
O310 C299 1.236 . S
O311 Tb280 2.341 . S
O311 C299 1.266 . S
H312 C284 0.929 . S
H313 C285 0.931 1_455 S
H314 C287 0.930 . S
H315 C288 0.930 . S
H316 C293 0.929 . S
H317 C294 0.931 1_655 S
H318 C296 0.930 . S
H319 C297 0.930 . S
C320 C321 1.170 . S
C320 C322 1.380 . S
C321 C320 1.170 . S
C322 C320 1.380 . S
C322 C323 1.170 . S
C323 C322 1.170 . S
C324 C325 1.170 . S
C324 C326 1.380 . S
C325 C324 1.170 . S
C326 C324 1.380 . S
C326 C327 1.170 . S
C327 C326 1.170 . S
C328 C329 1.170 . S
C328 C330 1.380 . S
C329 C328 1.170 . S
C330 C328 1.380 . S
C330 C331 1.170 . S
C331 C330 1.170 . S
C332 C333 1.170 . S
C332 C334 1.380 . S
C333 C332 1.170 . S
C334 C332 1.380 . S
C334 C335 1.170 . S
C335 C334 1.170 . S
C336 C337 1.170 . S
C336 C338 1.380 . S
C337 C336 1.170 . S
C338 C336 1.380 . S
C338 C339 1.170 . S
C339 C338 1.170 . S
C340 C341 1.170 . S
C340 C342 1.380 . S
C341 C340 1.170 . S
C342 C340 1.380 . S
C342 C343 1.170 . S
C343 C342 1.170 . S
C344 C345 1.170 . S
C344 C346 1.380 . S
C345 C344 1.170 . S
C346 C344 1.380 . S
C346 C347 1.170 . S
C347 C346 1.170 . S
C348 C349 1.170 . S
C348 C350 1.380 . S
C349 C348 1.170 . S
C350 C348 1.380 . S
C350 C351 1.170 . S
C351 C350 1.170 . S
C352 C353 1.170 . S
C352 C354 1.380 . S
C353 C352 1.170 . S
C354 C352 1.380 . S
C354 C355 1.170 . S
C355 C354 1.170 . S
C356 C357 1.170 . S
C356 C358 1.380 . S
C357 C356 1.170 . S
C358 C356 1.380 . S
C358 C359 1.170 . S
C359 C358 1.170 . S
C360 C361 1.170 . S
C360 C362 1.380 . S
C361 C360 1.170 . S
C362 C360 1.380 . S
C362 C363 1.170 . S
C363 C362 1.170 . S
C364 C365 1.170 . S
C364 C366 1.380 . S
C365 C364 1.170 . S
C366 C364 1.380 . S
C366 C367 1.170 . S
C367 C366 1.170 . S
C368 C369 1.170 . S
C368 C370 1.380 . S
C369 C368 1.170 . S
C370 C368 1.380 . S
C370 C371 1.170 . S
C371 C370 1.170 . S
C372 C373 1.170 . S
C372 C374 1.380 . S
C373 C372 1.170 . S
C374 C372 1.380 . S
C374 C375 1.170 . S
C375 C374 1.170 . S
C376 C377 1.170 . S
C376 C378 1.380 . S
C377 C376 1.170 . S
C378 C376 1.380 . S
C378 C379 1.170 . S
C379 C378 1.170 . S
C380 C381 1.170 . S
C380 C382 1.380 . S
C381 C380 1.170 . S
C382 C380 1.380 . S
C382 C383 1.170 . S
C383 C382 1.170 . S
C384 C385 1.170 . S
C384 C386 1.380 1_646 S
C385 C384 1.170 . S
C386 C384 1.380 1_464 S
C386 C387 1.170 . S
C387 C386 1.170 . S
C388 C389 1.170 . S
C388 C390 1.380 . S
C389 C388 1.170 . S
C390 C388 1.380 . S
C390 C391 1.170 . S
C391 C390 1.170 . S
C392 C393 1.170 . S
C392 C394 1.380 . S
C393 C392 1.170 . S
C394 C392 1.380 . S
C394 C395 1.170 1_545 S
C395 C394 1.170 1_565 S
C396 C397 1.170 . S
C396 C398 1.380 . S
C397 C396 1.170 . S
C398 C396 1.380 . S
C398 C399 1.170 . S
C399 C398 1.170 . S
C400 C401 1.170 . S
C400 C402 1.380 . S
C401 C400 1.170 . S
C402 C400 1.380 . S
C402 C403 1.170 . S
C403 C402 1.170 . S
C404 C405 1.170 . S
C404 C406 1.380 . S
C405 C404 1.170 . S
C406 C404 1.380 . S
C406 C407 1.170 . S
C407 C406 1.170 . S
C408 C409 1.170 . S
C408 C410 1.380 . S
C409 C408 1.170 . S
C410 C408 1.380 . S
C410 C411 1.170 . S
C411 C410 1.170 . S
C412 C413 1.170 . S
C412 C414 1.380 1_656 S
C413 C412 1.170 . S
C414 C412 1.380 1_454 S
C414 C415 1.170 . S
C415 C414 1.170 . S
C321 C10 1.988 . S
C323 C130 1.987 . S
C325 C9 1.543 . S
C327 C50 1.558 . S
C329 C49 0.999 . S
C331 C89 0.999 . S
C333 C90 1.561 . S
C335 C129 1.545 . S
C337 C19 1.984 . S
C339 C219 1.985 . S
C341 C18 1.546 . S
C343 C179 1.557 . S
C345 C178 1.028 . S
C347 C98 1.039 . S
C349 C218 1.519 . S
C351 C99 1.570 . S
C353 C250 1.983 . S
C355 C210 1.983 . S
C357 C170 1.560 . S
C359 C249 1.529 . S
C361 C289 1.036 . S
C363 C169 1.036 . S
C365 C209 1.522 . S
C367 C290 1.570 . S
C369 C139 1.984 . S
C371 C259 1.983 . S
C373 C258 1.526 . S
C375 C59 1.563 . S
C377 C58 1.001 . S
C379 C298 1.003 . S
C381 C138 1.517 . S
C383 C299 1.568 . S
C385 C15 1.703 . S
C387 C6 1.693 . S
C389 C46 1.452 . S
C391 C55 1.431 . S
C393 C95 1.424 . S
C395 C86 1.456 . S
C397 C135 1.690 . S
C399 C126 1.708 . S
C401 C166 1.418 . S
C403 C175 1.446 . S
C405 C215 1.726 . S
C407 C206 1.686 . S
C409 C246 1.726 . S
C411 C255 1.686 . S
C413 C286 1.417 . S
C415 C295 1.457 . S
