# Generated by pormake.
# Topology wjh, (4)-cn, num edge types: 1
# Building blocks:
#     Node 0, Type 0, BuildingBlock: KUFVIS_clean_sbu_0, # of connection points: 4
#     Node 1, Type 0, BuildingBlock: KUFVIS_clean_sbu_0, # of connection points: 4
#     Node 2, Type 0, BuildingBlock: KUFVIS_clean_sbu_0, # of connection points: 4
#     Node 3, Type 0, BuildingBlock: KUFVIS_clean_sbu_0, # of connection points: 4
#     Node 4, Type 0, BuildingBlock: KUFVIS_clean_sbu_0, # of connection points: 4
#     Node 5, Type 0, BuildingBlock: KUFVIS_clean_sbu_0, # of connection points: 4
#     Node 6, Type 0, BuildingBlock: KUFVIS_clean_sbu_0, # of connection points: 4
#     Node 7, Type 0, BuildingBlock: KUFVIS_clean_sbu_0, # of connection points: 4
#     Node 8, Type 0, BuildingBlock: KUFVIS_clean_sbu_0, # of connection points: 4
#     Node 9, Type 0, BuildingBlock: KUFVIS_clean_sbu_0, # of connection points: 4
#     Node 10, Type 0, BuildingBlock: KUFVIS_clean_sbu_0, # of connection points: 4
#     Node 11, Type 0, BuildingBlock: KUFVIS_clean_sbu_0, # of connection points: 4
#     Edge 12, Type (0, 0), BuildingBlock: UVAHIK_clean_linker_0, # of connection points: 2
#     Edge 13, Type (0, 0), BuildingBlock: UVAHIK_clean_linker_0, # of connection points: 2
#     Edge 14, Type (0, 0), BuildingBlock: UVAHIK_clean_linker_0, # of connection points: 2
#     Edge 15, Type (0, 0), BuildingBlock: UVAHIK_clean_linker_0, # of connection points: 2
#     Edge 16, Type (0, 0), BuildingBlock: UVAHIK_clean_linker_0, # of connection points: 2
#     Edge 17, Type (0, 0), BuildingBlock: UVAHIK_clean_linker_0, # of connection points: 2
#     Edge 18, Type (0, 0), BuildingBlock: UVAHIK_clean_linker_0, # of connection points: 2
#     Edge 19, Type (0, 0), BuildingBlock: UVAHIK_clean_linker_0, # of connection points: 2
#     Edge 20, Type (0, 0), BuildingBlock: UVAHIK_clean_linker_0, # of connection points: 2
#     Edge 21, Type (0, 0), BuildingBlock: UVAHIK_clean_linker_0, # of connection points: 2
#     Edge 22, Type (0, 0), BuildingBlock: UVAHIK_clean_linker_0, # of connection points: 2
#     Edge 23, Type (0, 0), BuildingBlock: UVAHIK_clean_linker_0, # of connection points: 2
#     Edge 24, Type (0, 0), BuildingBlock: UVAHIK_clean_linker_0, # of connection points: 2
#     Edge 25, Type (0, 0), BuildingBlock: UVAHIK_clean_linker_0, # of connection points: 2
#     Edge 26, Type (0, 0), BuildingBlock: UVAHIK_clean_linker_0, # of connection points: 2
#     Edge 27, Type (0, 0), BuildingBlock: UVAHIK_clean_linker_0, # of connection points: 2
#     Edge 28, Type (0, 0), BuildingBlock: UVAHIK_clean_linker_0, # of connection points: 2
#     Edge 29, Type (0, 0), BuildingBlock: UVAHIK_clean_linker_0, # of connection points: 2
#     Edge 30, Type (0, 0), BuildingBlock: UVAHIK_clean_linker_0, # of connection points: 2
#     Edge 31, Type (0, 0), BuildingBlock: UVAHIK_clean_linker_0, # of connection points: 2
#     Edge 32, Type (0, 0), BuildingBlock: UVAHIK_clean_linker_0, # of connection points: 2
#     Edge 33, Type (0, 0), BuildingBlock: UVAHIK_clean_linker_0, # of connection points: 2
#     Edge 34, Type (0, 0), BuildingBlock: UVAHIK_clean_linker_0, # of connection points: 2
#     Edge 35, Type (0, 0), BuildingBlock: UVAHIK_clean_linker_0, # of connection points: 2
# Relax obj value: 0.091
# Max RMSD: 0.110
# Mean RMSD: 0.110
data_MOF--net-wjh--node1-KUFVIS_clean_sbu_0--edge1-UVAHIK_clean_linker_0
_symmetry_space_group_name_H-M    P1
_symmetry_Int_Tables_number       1
_symmetry_cell_setting            triclinic
loop_
_symmetry_equiv_pos_as_xyz
'x, y, z'
_cell_length_a     79.944935
_cell_length_b     79.93034
_cell_length_c     33.284019
_cell_angle_alpha  89.946732
_cell_angle_beta   90.018795
_cell_angle_gamma 119.98086
loop_
_atom_site_label
_atom_site_type_symbol
_atom_site_fract_x
_atom_site_fract_y
_atom_site_fract_z
_atom_type_partial_charge
Mn0 Mn 0.50927 0.1424 0.05679 0.0
Mn1 Mn 0.53294 0.11725 0.05934 0.0
C2 C 0.52063 0.13736 0.11659 0.0
C3 C 0.50875 0.17125 0.05292 0.0
C4 C 0.48951 0.09811 0.05505 0.0
O5 O 0.51716 0.14354 -0.00164 0.0
O6 O 0.53047 0.12454 0.00362 0.0
C7 C 0.57085 0.14951 0.03296 0.0
N8 N 0.56006 0.13546 0.06018 0.0
C9 C 0.5881 0.14373 0.10064 0.0
C10 C 0.59951 0.15821 0.07292 0.0
C11 C 0.59083 0.16114 0.03901 0.0
C12 C 0.56825 0.13265 0.09312 0.0
H13 H 0.5643 0.15187 0.00683 0.0
C14 C 0.52524 0.13471 0.98315 0.0
O15 O 0.49347 0.15479 0.04492 0.0
O16 O 0.52447 0.17097 0.06103 0.0
N17 N 0.53701 0.10933 0.11108 0.0
C18 C 0.52405 0.09485 0.13512 0.0
C19 C 0.53043 0.08992 0.17009 0.0
C20 C 0.55016 0.09975 0.17974 0.0
C21 C 0.5633 0.11446 0.1544 0.0
C22 C 0.55609 0.1186 0.11972 0.0
H23 H 0.50897 0.08713 0.12764 0.0
O24 O 0.50638 0.14075 0.11647 0.0
O25 O 0.52775 0.13682 0.08189 0.0
O26 O 0.48878 0.11362 0.05112 0.0
O27 O 0.50518 0.09772 0.0599 0.0
C28 C 0.58326 0.12526 0.16232 0.0
C29 C 0.59564 0.13997 0.13557 0.0
H30 H 0.61493 0.1672 0.07746 0.0
H31 H 0.59952 0.17233 0.01755 0.0
H32 H 0.52019 0.07852 0.18946 0.0
H33 H 0.55506 0.09587 0.20664 0.0
H34 H 0.58921 0.12249 0.18908 0.0
H35 H 0.61093 0.1483 0.14217 0.0
Mn36 Mn 0.36745 0.5121 0.21679 0.0
Mn37 Mn 0.4156 0.54072 0.22747 0.0
C38 C 0.3811 0.51936 0.28009 0.0
C39 C 0.33705 0.50922 0.21221 0.0
C40 C 0.39638 0.49869 0.20132 0.0
O41 O 0.37607 0.52496 0.1615 0.0
O42 O 0.40729 0.54612 0.17557 0.0
C43 C 0.41797 0.57883 0.2326 0.0
N44 N 0.4217 0.56535 0.24861 0.0
C45 C 0.43827 0.58588 0.30492 0.0
C46 C 0.43473 0.60005 0.28887 0.0
C47 C 0.42447 0.59647 0.25264 0.0
C48 C 0.4314 0.56857 0.28364 0.0
H49 H 0.41007 0.57612 0.20479 0.0
C50 C 0.39258 0.53931 0.15229 0.0
O51 O 0.33997 0.49553 0.19942 0.0
O52 O 0.35191 0.52478 0.22544 0.0
N53 N 0.42553 0.5371 0.27705 0.0
C54 C 0.4268 0.52154 0.28959 0.0
C55 C 0.43628 0.52258 0.32583 0.0
C56 C 0.44451 0.53965 0.34857 0.0
C57 C 0.44308 0.5555 0.33501 0.0
C58 C 0.43354 0.55365 0.29857 0.0
H59 H 0.42068 0.50844 0.27207 0.0
O60 O 0.3641 0.50445 0.27489 0.0
O61 O 0.38941 0.52957 0.24838 0.0
O62 O 0.37886 0.49458 0.20553 0.0
O63 O 0.41084 0.51561 0.20658 0.0
C64 C 0.45053 0.57298 0.35645 0.0
C65 C 0.44804 0.58812 0.34153 0.0
H66 H 0.43969 0.61366 0.30428 0.0
H67 H 0.42159 0.60729 0.24019 0.0
H68 H 0.4373 0.51028 0.33612 0.0
H69 H 0.45183 0.5404 0.37646 0.0
H70 H 0.45795 0.57483 0.38475 0.0
H71 H 0.45353 0.60136 0.35864 0.0
Mn72 Mn 0.85551 0.36541 0.38912 0.0
Mn73 Mn 0.87439 0.4136 0.38124 0.0
C74 C 0.86194 0.38398 0.44629 0.0
C75 C 0.82826 0.33473 0.39195 0.0
C76 C 0.89747 0.39317 0.36871 0.0
O77 O 0.85129 0.3693 0.32994 0.0
O78 O 0.86002 0.40093 0.33169 0.0
C79 C 0.83869 0.41611 0.37911 0.0
N80 N 0.85607 0.42119 0.39613 0.0
C81 C 0.85303 0.44259 0.44251 0.0
C82 C 0.83514 0.43769 0.42531 0.0
C83 C 0.8279 0.42432 0.3936 0.0
C84 C 0.86309 0.43389 0.42691 0.0
H85 H 0.83312 0.40589 0.35467 0.0
C86 C 0.85269 0.38453 0.31411 0.0
O87 O 0.845 0.33704 0.3819 0.0
O88 O 0.8273 0.35021 0.39836 0.0
N89 N 0.88853 0.42759 0.42775 0.0
C90 C 0.90537 0.42977 0.44277 0.0
C91 C 0.91414 0.44205 0.47572 0.0
C92 C 0.90567 0.45217 0.4925 0.0
C93 C 0.88846 0.44985 0.47625 0.0
C94 C 0.88032 0.43734 0.44356 0.0
H95 H 0.91205 0.42218 0.4298 0.0
O96 O 0.85991 0.36687 0.44849 0.0
O97 O 0.85976 0.38951 0.41101 0.0
O98 O 0.88444 0.37626 0.37923 0.0
O99 O 0.89465 0.40752 0.36608 0.0
C100 C 0.87895 0.45931 0.49149 0.0
C101 C 0.86118 0.45559 0.47481 0.0
H102 H 0.82678 0.44399 0.43639 0.0
H103 H 0.81406 0.42039 0.38029 0.0
H104 H 0.92743 0.44376 0.48807 0.0
H105 H 0.91246 0.46161 0.51795 0.0
H106 H 0.88499 0.46921 0.51654 0.0
H107 H 0.85381 0.46265 0.48737 0.0
Mn108 Mn 0.48738 0.85296 0.55292 0.0
Mn109 Mn 0.45982 0.8739 0.55896 0.0
C110 C 0.48037 0.86111 0.61474 0.0
C111 C 0.48925 0.82477 0.55236 0.0
C112 C 0.50186 0.89508 0.53258 0.0
O113 O 0.47465 0.84788 0.49733 0.0
O114 O 0.45406 0.85896 0.50864 0.0
C115 C 0.42122 0.83897 0.56644 0.0
N116 N 0.43505 0.85636 0.58102 0.0
C117 C 0.41489 0.85412 0.63683 0.0
C118 C 0.40037 0.83626 0.62221 0.0
C119 C 0.40359 0.82863 0.58695 0.0
C120 C 0.43217 0.86376 0.6151 0.0
H121 H 0.42367 0.83303 0.53941 0.0
C122 C 0.46057 0.85028 0.48688 0.0
O123 O 0.50327 0.84088 0.53826 0.0
O124 O 0.47395 0.82493 0.56447 0.0
N125 N 0.46388 0.88864 0.60694 0.0
C126 C 0.47975 0.90549 0.61827 0.0
C127 C 0.47911 0.91477 0.65355 0.0
C128 C 0.46213 0.90676 0.67661 0.0
C129 C 0.44595 0.88947 0.66425 0.0
C130 C 0.44741 0.88092 0.62872 0.0
H131 H 0.4928 0.91181 0.60054 0.0
O132 O 0.49496 0.85837 0.61096 0.0
O133 O 0.47034 0.8588 0.58256 0.0
O134 O 0.50554 0.8815 0.5391 0.0
O135 O 0.48514 0.89324 0.53691 0.0
C136 C 0.42852 0.88027 0.68608 0.0
C137 C 0.41304 0.86256 0.67248 0.0
H138 H 0.38677 0.82821 0.63801 0.0
H139 H 0.3925 0.8148 0.57563 0.0
H140 H 0.49167 0.92809 0.66292 0.0
H141 H 0.46172 0.91394 0.70385 0.0
H142 H 0.42697 0.88653 0.71369 0.0
H143 H 0.39984 0.85545 0.68991 0.0
Mn144 Mn 0.63305 0.48546 0.71815 0.0
Mn145 Mn 0.58464 0.4609 0.70794 0.0
C146 C 0.61357 0.47844 0.77415 0.0
C147 C 0.66176 0.48505 0.72704 0.0
C148 C 0.61007 0.5032 0.6855 0.0
O149 O 0.62883 0.47411 0.66143 0.0
O150 O 0.59646 0.45415 0.66316 0.0
C151 C 0.57627 0.42071 0.71964 0.0
N152 N 0.57344 0.43554 0.73037 0.0
C153 C 0.54985 0.41585 0.77997 0.0
C154 C 0.55239 0.40031 0.7692 0.0
C155 C 0.56573 0.40278 0.73903 0.0
C156 C 0.56077 0.43337 0.75959 0.0
H157 H 0.58651 0.42258 0.69651 0.0
C158 C 0.61305 0.46059 0.64678 0.0
O159 O 0.66171 0.49999 0.71169 0.0
O160 O 0.64513 0.47018 0.73551 0.0
N161 N 0.57153 0.46605 0.75007 0.0
C162 C 0.57191 0.48287 0.75909 0.0
C163 C 0.5601 0.48311 0.79001 0.0
C164 C 0.54786 0.46605 0.81102 0.0
C165 C 0.54761 0.44889 0.80101 0.0
C166 C 0.55974 0.44953 0.76999 0.0
H167 H 0.58118 0.49601 0.74293 0.0
O168 O 0.6315 0.49206 0.77554 0.0
O169 O 0.60778 0.46914 0.74047 0.0
O170 O 0.62591 0.50552 0.6996 0.0
O171 O 0.59443 0.48691 0.68461 0.0
C172 C 0.536 0.43124 0.82098 0.0
C173 C 0.53718 0.41475 0.8106 0.0
H174 H 0.54432 0.38647 0.78417 0.0
H175 H 0.56786 0.39089 0.73073 0.0
H176 H 0.56039 0.49642 0.79758 0.0
H177 H 0.53881 0.46631 0.83495 0.0
H178 H 0.52638 0.43029 0.84492 0.0
H179 H 0.52848 0.40137 0.82678 0.0
Mn180 Mn 0.14452 0.63294 0.88356 0.0
Mn181 Mn 0.11749 0.58427 0.87627 0.0
C182 C 0.13524 0.61391 0.94042 0.0
C183 C 0.17423 0.66134 0.88753 0.0
C184 C 0.10112 0.61095 0.86678 0.0
O185 O 0.14829 0.62809 0.82503 0.0
O186 O 0.13023 0.59547 0.82418 0.0
C187 C 0.14921 0.57575 0.86456 0.0
N188 N 0.1335 0.57317 0.88566 0.0
C189 C 0.13609 0.55123 0.93141 0.0
C190 C 0.15221 0.55355 0.90999 0.0
C191 C 0.15882 0.5659 0.87648 0.0
C192 C 0.12705 0.56136 0.91802 0.0
H193 H 0.15439 0.58529 0.8389 0.0
C194 C 0.14137 0.61177 0.80745 0.0
O195 O 0.15874 0.66149 0.87638 0.0
O196 O 0.17263 0.64461 0.89421 0.0
N197 N 0.10453 0.57153 0.92485 0.0
C198 C 0.08934 0.57156 0.94333 0.0
C199 C 0.0813 0.5603 0.97797 0.0
C200 C 0.08884 0.54901 0.99304 0.0
C201 C 0.1043 0.549 0.9732 0.0
C202 C 0.11162 0.56039 0.93861 0.0
H203 H 0.08343 0.58014 0.93183 0.0
O204 O 0.13981 0.6319 0.94271 0.0
O205 O 0.13612 0.60758 0.90505 0.0
O206 O 0.11681 0.62678 0.87234 0.0
O207 O 0.09975 0.59435 0.86742 0.0
C208 C 0.11296 0.53842 0.98681 0.0
C209 C 0.12887 0.53956 0.96597 0.0
H210 H 0.15974 0.54607 0.91921 0.0
H211 H 0.17133 0.56785 0.85994 0.0
H212 H 0.06935 0.56037 0.99307 0.0
H213 H 0.08272 0.54049 0.01998 0.0
H214 H 0.10769 0.52959 0.01361 0.0
H215 H 0.13558 0.53158 0.97706 0.0
Mn216 Mn 0.8627 0.49224 0.87054 0.0
Mn217 Mn 0.89146 0.4725 0.86596 0.0
C218 C 0.86894 0.48255 0.80976 0.0
C219 C 0.83239 0.48955 0.87581 0.0
C220 C 0.90664 0.51528 0.87683 0.0
O221 O 0.86303 0.48428 0.92895 0.0
O222 O 0.88111 0.47005 0.92078 0.0
C223 C 0.86225 0.4315 0.8801 0.0
N224 N 0.87638 0.44533 0.85674 0.0
C225 C 0.8743 0.42155 0.80965 0.0
C226 C 0.85976 0.40703 0.83326 0.0
C227 C 0.85365 0.41204 0.86855 0.0
C228 C 0.88225 0.44069 0.82257 0.0
H229 H 0.85761 0.4353 0.90737 0.0
C230 C 0.87102 0.47495 0.94239 0.0
O231 O 0.84806 0.50563 0.88398 0.0
O232 O 0.83429 0.47475 0.86722 0.0
N233 N 0.90227 0.47381 0.814 0.0
C234 C 0.91558 0.48963 0.79339 0.0
C235 C 0.92268 0.48717 0.75661 0.0
C236 C 0.91624 0.46849 0.74172 0.0
C237 C 0.90268 0.45243 0.76369 0.0
C238 C 0.89602 0.45577 0.80001 0.0
H239 H 0.9207 0.50402 0.80486 0.0
O240 O 0.86352 0.49536 0.81081 0.0
O241 O 0.87062 0.47588 0.84412 0.0
O242 O 0.8905 0.5148 0.87482 0.0
O243 O 0.90848 0.50036 0.8748 0.0
C244 C 0.89537 0.43324 0.75081 0.0
C245 C 0.8811 0.41781 0.77363 0.0
H246 H 0.85311 0.392 0.82448 0.0
H247 H 0.8424 0.40092 0.88687 0.0
H248 H 0.93314 0.49965 0.73983 0.0
H249 H 0.92173 0.46665 0.71331 0.0
H250 H 0.90037 0.4302 0.72299 0.0
H251 H 0.87531 0.40314 0.76297 0.0
Mn252 Mn 0.37036 0.86058 0.03405 0.0
Mn253 Mn 0.41907 0.88757 0.03468 0.0
C254 C 0.38756 0.86832 0.97477 0.0
C255 C 0.34205 0.83071 0.03485 0.0
C256 C 0.39273 0.90417 0.04768 0.0
O257 O 0.37718 0.85831 0.0923 0.0
O258 O 0.40976 0.87534 0.08779 0.0
C259 C 0.42856 0.8564 0.04376 0.0
N260 N 0.43009 0.87173 0.02277 0.0
C261 C 0.45074 0.86914 0.97358 0.0
C262 C 0.44947 0.85338 0.9948 0.0
C263 C 0.43829 0.84696 0.02999 0.0
C264 C 0.44077 0.87801 0.98883 0.0
H265 H 0.41996 0.8514 0.07078 0.0
C266 C 0.39408 0.86495 0.10726 0.0
O267 O 0.34207 0.8464 0.04499 0.0
O268 O 0.35861 0.83227 0.02645 0.0
N269 N 0.42984 0.90001 0.98446 0.0
C270 C 0.42867 0.91469 0.96633 0.0
C271 C 0.43861 0.92244 0.93015 0.0
C272 C 0.44973 0.91512 0.91315 0.0
C273 C 0.45082 0.90011 0.9325 0.0
C274 C 0.44071 0.89304 0.96863 0.0
H275 H 0.42017 0.92039 0.97929 0.0
O276 O 0.36952 0.86368 0.97449 0.0
O277 O 0.39491 0.86845 0.00955 0.0
O278 O 0.37674 0.88857 0.04268 0.0
O279 O 0.40918 0.90522 0.04641 0.0
C280 C 0.46126 0.89165 0.91701 0.0
C281 C 0.46118 0.87614 0.93748 0.0
H282 H 0.45687 0.846 0.98417 0.0
H283 H 0.43717 0.83475 0.04642 0.0
H284 H 0.43767 0.93401 0.91536 0.0
H285 H 0.45725 0.92104 0.88508 0.0
H286 H 0.46915 0.89675 0.88905 0.0
H287 H 0.46901 0.86956 0.92493 0.0
Mn288 Mn 0.51299 0.37229 0.1986 0.0
Mn289 Mn 0.53957 0.42052 0.21196 0.0
C290 C 0.52254 0.39268 0.14372 0.0
C291 C 0.51167 0.34273 0.1896 0.0
C292 C 0.49643 0.39697 0.2281 0.0
O293 O 0.52267 0.37498 0.25641 0.0
O294 O 0.54346 0.40719 0.25811 0.0
C295 C 0.57904 0.42615 0.20724 0.0
N296 N 0.5655 0.43038 0.19377 0.0
C297 C 0.58791 0.45362 0.14666 0.0
C298 C 0.60215 0.4496 0.16021 0.0
C299 C 0.59766 0.43575 0.19053 0.0
C300 C 0.56962 0.44362 0.16448 0.0
H301 H 0.57565 0.41552 0.23052 0.0
C302 C 0.53593 0.39023 0.27325 0.0
O303 O 0.49688 0.34359 0.20319 0.0
O304 O 0.52732 0.359 0.18288 0.0
N305 N 0.53727 0.43512 0.16884 0.0
C306 C 0.52156 0.43632 0.15716 0.0
C307 C 0.52339 0.44895 0.12592 0.0
C308 C 0.54138 0.46036 0.10732 0.0
C309 C 0.55738 0.45901 0.12009 0.0
C310 C 0.55469 0.44617 0.15136 0.0
H311 H 0.50771 0.42767 0.17141 0.0
O312 O 0.50826 0.37512 0.1407 0.0
O313 O 0.53106 0.39761 0.1784 0.0
O314 O 0.49366 0.38081 0.21482 0.0
O315 O 0.51308 0.41208 0.23072 0.0
C316 C 0.57582 0.46968 0.10258 0.0
C317 C 0.59106 0.46692 0.11571 0.0
H318 H 0.61651 0.45694 0.14731 0.0
H319 H 0.60854 0.4325 0.20101 0.0
H320 H 0.51097 0.44989 0.11622 0.0
H321 H 0.54272 0.47002 0.0831 0.0
H322 H 0.57837 0.47982 0.07852 0.0
H323 H 0.60507 0.47494 0.10145 0.0
Mn324 Mn 0.14196 0.50993 0.36413 0.0
Mn325 Mn 0.12211 0.53841 0.35939 0.0
C326 C 0.13367 0.51722 0.30264 0.0
C327 C 0.16994 0.5077 0.36359 0.0
C328 C 0.10043 0.49642 0.38673 0.0
O329 O 0.14744 0.52255 0.41988 0.0
O330 O 0.13807 0.54456 0.40853 0.0
C331 C 0.15743 0.5764 0.34794 0.0
N332 N 0.13951 0.56278 0.33544 0.0
C333 C 0.1411 0.58231 0.27887 0.0
C334 C 0.15941 0.59672 0.29164 0.0
C335 C 0.16766 0.5937 0.3262 0.0
C336 C 0.13156 0.56541 0.30188 0.0
H337 H 0.16393 0.57399 0.37403 0.0
C338 C 0.14615 0.5373 0.43009 0.0
O339 O 0.15385 0.49372 0.37789 0.0
O340 O 0.16987 0.52312 0.35196 0.0
N341 N 0.10652 0.53398 0.3125 0.0
C342 C 0.08948 0.51805 0.3024 0.0
C343 C 0.07979 0.51831 0.26742 0.0
C344 C 0.08762 0.53497 0.24334 0.0
C345 C 0.10511 0.55123 0.25445 0.0
C346 C 0.11407 0.55017 0.28977 0.0
H347 H 0.08331 0.50522 0.32081 0.0
O348 O 0.13616 0.50246 0.30603 0.0
O349 O 0.13635 0.52723 0.33499 0.0
O350 O 0.11348 0.4922 0.37854 0.0
O351 O 0.10284 0.51344 0.38333 0.0
C352 C 0.11418 0.56832 0.23146 0.0
C353 C 0.1322 0.58382 0.24359 0.0
H354 H 0.16741 0.61002 0.27479 0.0
H355 H 0.1819 0.60463 0.33593 0.0
H356 H 0.06631 0.50569 0.25901 0.0
H357 H 0.08017 0.53506 0.21622 0.0
H358 H 0.1076 0.56955 0.20401 0.0
H359 H 0.13922 0.59672 0.22519 0.0
Mn360 Mn 0.63042 0.14008 0.53723 0.0
Mn361 Mn 0.5822 0.12014 0.52766 0.0
C362 C 0.6164 0.13401 0.47423 0.0
C363 C 0.66061 0.16795 0.5413 0.0
C364 C 0.60198 0.09761 0.55226 0.0
O365 O 0.62197 0.14384 0.59312 0.0
O366 O 0.59062 0.13356 0.57973 0.0
C367 C 0.57948 0.15572 0.52395 0.0
N368 N 0.57581 0.13863 0.50745 0.0
C369 C 0.55904 0.1428 0.45175 0.0
C370 C 0.56247 0.16036 0.46836 0.0
C371 C 0.57282 0.16688 0.50452 0.0
C372 C 0.56608 0.13233 0.47242 0.0
H373 H 0.58749 0.16081 0.55166 0.0
C374 C 0.60541 0.14145 0.60278 0.0
O375 O 0.65813 0.1514 0.55359 0.0
O376 O 0.64544 0.16833 0.52907 0.0
N377 N 0.57225 0.10688 0.47784 0.0
C378 C 0.57117 0.09023 0.46463 0.0
C379 C 0.56171 0.08203 0.42827 0.0
C380 C 0.5533 0.09089 0.40611 0.0
C381 C 0.55453 0.10797 0.42038 0.0
C382 C 0.56409 0.11545 0.45686 0.0
H383 H 0.57742 0.08324 0.4817 0.0
O384 O 0.6335 0.13625 0.47866 0.0
O385 O 0.60823 0.13551 0.50652 0.0
O386 O 0.61943 0.11114 0.54774 0.0
O387 O 0.58736 0.09988 0.54763 0.0
C388 C 0.54681 0.11796 0.39966 0.0
C389 C 0.54919 0.13544 0.41518 0.0
H390 H 0.55738 0.16902 0.45343 0.0
H391 H 0.57565 0.18048 0.51738 0.0
H392 H 0.56083 0.06885 0.41742 0.0
H393 H 0.54601 0.0845 0.37809 0.0
H394 H 0.53925 0.11248 0.37147 0.0
H395 H 0.54352 0.14318 0.39856 0.0
Mn396 Mn 0.49316 0.62935 0.69751 0.0
Mn397 Mn 0.46644 0.5806 0.69919 0.0
C398 C 0.48141 0.61217 0.63865 0.0
C399 C 0.49494 0.65937 0.69834 0.0
C400 C 0.50995 0.60275 0.70963 0.0
O401 O 0.48474 0.62359 0.75637 0.0
O402 O 0.46582 0.59112 0.75243 0.0
C403 C 0.42774 0.57625 0.71067 0.0
N404 N 0.43994 0.5725 0.689 0.0
C405 C 0.41481 0.5531 0.64186 0.0
C406 C 0.40194 0.55667 0.6638 0.0
C407 C 0.40846 0.56834 0.69828 0.0
C408 C 0.43385 0.56137 0.65568 0.0
H409 H 0.43271 0.58523 0.73718 0.0
C410 C 0.47322 0.60708 0.77177 0.0
O411 O 0.50986 0.6577 0.70737 0.0
O412 O 0.47892 0.64357 0.69107 0.0
N413 N 0.46574 0.56854 0.64908 0.0
C414 C 0.48021 0.5673 0.63024 0.0
C415 C 0.4762 0.55646 0.59476 0.0
C416 C 0.45734 0.54688 0.57923 0.0
C417 C 0.44265 0.54825 0.5993 0.0
C418 C 0.44749 0.55915 0.63468 0.0
H419 H 0.49471 0.57455 0.64215 0.0
O420 O 0.49614 0.62954 0.63776 0.0
O421 O 0.47412 0.60542 0.67373 0.0
O422 O 0.51255 0.61974 0.70479 0.0
O423 O 0.49337 0.58748 0.70902 0.0
C424 C 0.42348 0.53948 0.58526 0.0
C425 C 0.40958 0.54195 0.60645 0.0
H426 H 0.38707 0.55065 0.65427 0.0
H427 H 0.39863 0.57123 0.71526 0.0
H428 H 0.48761 0.55548 0.57943 0.0
H429 H 0.45432 0.53859 0.55179 0.0
H430 H 0.41934 0.53104 0.55787 0.0
H431 H 0.39496 0.53539 0.59502 0.0
C432 C 0.52109 0.12805 0.18779 0.0
C433 C 0.53092 0.13892 0.15393 0.0
C434 C 0.53141 0.12884 0.22228 0.0
C435 C 0.55834 0.12264 0.27623 0.0
H436 H 0.60153 0.17032 0.31577 0.0
C437 C 0.60702 0.12275 0.40367 0.0
C438 C 0.6097 0.13576 0.4345 0.0
C439 C 0.59945 0.12415 0.36677 0.0
C440 C 0.58953 0.15688 0.30497 0.0
H441 H 0.55854 0.1607 0.13028 0.0
H442 H 0.57669 0.16195 0.19013 0.0
H443 H 0.58252 0.17128 0.25954 0.0
H444 H 0.60873 0.16148 0.45057 0.0
H445 H 0.59532 0.16387 0.38663 0.0
H446 H 0.56519 0.10829 0.32199 0.0
C447 C 0.56115 0.15264 0.19028 0.0
C448 C 0.5787 0.15742 0.27269 0.0
C449 C 0.55085 0.15176 0.15588 0.0
C450 C 0.60623 0.15101 0.42728 0.0
C451 C 0.59882 0.15251 0.39053 0.0
C452 C 0.56929 0.12209 0.30824 0.0
C453 C 0.55162 0.1408 0.22344 0.0
C454 C 0.5629 0.14032 0.25818 0.0
C455 C 0.59491 0.13883 0.36022 0.0
C456 C 0.58481 0.13923 0.32334 0.0
H457 H 0.5056 0.11843 0.18698 0.0
H458 H 0.52364 0.11989 0.24778 0.0
H459 H 0.54635 0.1092 0.26553 0.0
H460 H 0.61007 0.11114 0.40867 0.0
H461 H 0.59682 0.11358 0.34367 0.0
C462 C 0.39185 0.54556 0.32971 0.0
C463 C 0.38782 0.52685 0.32045 0.0
C464 C 0.39946 0.55356 0.36701 0.0
C465 C 0.42783 0.54884 0.44833 0.0
H466 H 0.41945 0.58794 0.49775 0.0
C467 C 0.4511 0.59825 0.59999 0.0
C468 C 0.47058 0.60336 0.60191 0.0
C469 C 0.44016 0.58898 0.56618 0.0
C470 C 0.42188 0.57696 0.48452 0.0
H471 H 0.38635 0.50084 0.34342 0.0
H472 H 0.39969 0.51477 0.40946 0.0
H473 H 0.39928 0.56926 0.44178 0.0
H474 H 0.49464 0.60479 0.5693 0.0
H475 H 0.4755 0.58857 0.50935 0.0
H476 H 0.45023 0.55635 0.49158 0.0
C477 C 0.39758 0.52353 0.38746 0.0
C478 C 0.41041 0.56635 0.45221 0.0
C479 C 0.38991 0.51553 0.34994 0.0
C480 C 0.47946 0.60045 0.56854 0.0
C481 C 0.46849 0.5911 0.53455 0.0
C482 C 0.43927 0.55942 0.48074 0.0
C483 C 0.40293 0.54284 0.39596 0.0
C484 C 0.41347 0.5524 0.43328 0.0
C485 C 0.44862 0.58491 0.53343 0.0
C486 C 0.43655 0.57374 0.4989 0.0
H487 H 0.38972 0.55427 0.30754 0.0
H488 H 0.40355 0.56849 0.37222 0.0
H489 H 0.43068 0.5383 0.43434 0.0
H490 H 0.4442 0.60097 0.62517 0.0
H491 H 0.42491 0.58435 0.56644 0.0
C492 C 0.87716 0.48309 0.73743 0.0
C493 C 0.86786 0.47265 0.7721 0.0
C494 C 0.87582 0.47333 0.7017 0.0
C495 C 0.86122 0.44919 0.6255 0.0
H496 H 0.86638 0.40349 0.63094 0.0
C497 C 0.84846 0.39962 0.4893 0.0
C498 C 0.86249 0.39427 0.48297 0.0
C499 C 0.84856 0.40907 0.52454 0.0
C500 C 0.86503 0.41629 0.62894 0.0
H501 H 0.84853 0.44427 0.79646 0.0
H502 H 0.84614 0.42715 0.73416 0.0
H503 H 0.86705 0.42021 0.69245 0.0
H504 H 0.88677 0.39323 0.50876 0.0
H505 H 0.88715 0.40998 0.5707 0.0
H506 H 0.85818 0.44464 0.56208 0.0
C507 C 0.85501 0.44274 0.73468 0.0
C508 C 0.86539 0.42585 0.66417 0.0
C509 C 0.8564 0.45249 0.77027 0.0
C510 C 0.87608 0.39762 0.51297 0.0
C511 C 0.8762 0.40707 0.5483 0.0
C512 C 0.8604 0.43935 0.59031 0.0
C513 C 0.86486 0.45304 0.70014 0.0
C514 C 0.86382 0.44259 0.66277 0.0
C515 C 0.86249 0.41297 0.55429 0.0
C516 C 0.86265 0.42301 0.59164 0.0
H517 H 0.88578 0.4987 0.73826 0.0
H518 H 0.88362 0.48162 0.67553 0.0
H519 H 0.85955 0.46181 0.62359 0.0
H520 H 0.83741 0.39646 0.46696 0.0
H521 H 0.83762 0.41313 0.5287 0.0
C522 C 0.45395 0.84669 0.66405 0.0
C523 C 0.47274 0.86115 0.65455 0.0
C524 C 0.44586 0.84686 0.70089 0.0
C525 C 0.43391 0.84546 0.7866 0.0
H526 H 0.44239 0.89502 0.82417 0.0
C527 C 0.40349 0.85398 0.93612 0.0
C528 C 0.39674 0.86709 0.93782 0.0
C529 C 0.4129 0.85287 0.902 0.0
C530 C 0.43976 0.88107 0.81377 0.0
H531 H 0.49867 0.88603 0.67661 0.0
H532 H 0.48452 0.88646 0.74186 0.0
H533 H 0.46002 0.89365 0.76565 0.0
H534 H 0.39282 0.88818 0.90475 0.0
H535 H 0.40937 0.88627 0.84418 0.0
H536 H 0.41322 0.83281 0.83379 0.0
C537 C 0.47583 0.87529 0.72037 0.0
C538 C 0.45009 0.88031 0.7807 0.0
C539 C 0.48395 0.87504 0.68332 0.0
C540 C 0.39837 0.87829 0.90409 0.0
C541 C 0.4079 0.87726 0.86976 0.0
C542 C 0.42357 0.84622 0.81951 0.0
C543 C 0.45655 0.8614 0.72915 0.0
C544 C 0.44709 0.86246 0.76649 0.0
C545 C 0.41548 0.8647 0.86867 0.0
C546 C 0.4263 0.86401 0.83331 0.0
H547 H 0.4453 0.83553 0.64244 0.0
H548 H 0.43094 0.83606 0.70642 0.0
H549 H 0.43145 0.83151 0.77672 0.0
H550 H 0.40185 0.84483 0.96163 0.0
H551 H 0.41867 0.84316 0.90226 0.0
C552 C 0.55036 0.41134 0.0985 0.0
C553 C 0.53084 0.40428 0.10747 0.0
C554 C 0.55827 0.42161 0.06311 0.0
C555 C 0.54571 0.42502 0.96086 0.0
H556 H 0.59486 0.47289 0.95851 0.0
C557 C 0.5946 0.45192 0.82194 0.0
C558 C 0.60239 0.47137 0.81129 0.0
C559 C 0.58446 0.44501 0.8578 0.0
C560 C 0.58102 0.45966 0.95876 0.0
H561 H 0.50385 0.4011 0.08605 0.0
H562 H 0.51766 0.41893 0.02328 0.0
H563 H 0.5798 0.4587 0.02299 0.0
H564 H 0.60706 0.49925 0.83027 0.0
H565 H 0.58934 0.48718 0.89384 0.0
H566 H 0.54755 0.42524 0.89685 0.0
C567 C 0.52694 0.41699 0.04422 0.0
C568 C 0.57244 0.45154 0.99558 0.0
C569 C 0.51907 0.40686 0.07991 0.0
C570 C 0.60074 0.48409 0.83775 0.0
C571 C 0.59069 0.47721 0.87391 0.0
C572 C 0.55449 0.43291 0.92412 0.0
C573 C 0.54662 0.42447 0.03563 0.0
C574 C 0.5548 0.43407 -0.00309 0.0
C575 C 0.58238 0.45758 0.88408 0.0
C576 C 0.57228 0.4502 0.92274 0.0
H577 H 0.55945 0.40874 0.11871 0.0
H578 H 0.57338 0.42684 0.05672 0.0
H579 H 0.53223 0.4114 0.96113 0.0
H580 H 0.59646 0.44208 0.80258 0.0
H581 H 0.57858 0.42991 0.86536 0.0
C582 C 0.14868 0.54371 0.25356 0.0
C583 C 0.13377 0.52512 0.26301 0.0
C584 C 0.14891 0.55196 0.21666 0.0
C585 C 0.11672 0.54891 0.1348 0.0
H586 H 0.16536 0.58382 0.083 0.0
C587 C 0.12289 0.60164 0.00927 0.0
C588 C 0.13485 0.60349 0.97684 0.0
C589 C 0.12264 0.59136 0.0435 0.0
C590 C 0.15162 0.57397 0.09677 0.0
H591 H 0.10832 0.49973 0.24091 0.0
H592 H 0.10861 0.51418 0.17549 0.0
H593 H 0.1651 0.56545 0.14125 0.0
H594 H 0.15713 0.59788 0.95542 0.0
H595 H 0.15646 0.5796 0.01446 0.0
H596 H 0.10322 0.55716 0.08947 0.0
C597 C 0.11985 0.5226 0.19709 0.0
C598 C 0.15149 0.56359 0.13046 0.0
C599 C 0.11969 0.5143 0.23423 0.0
C600 C 0.14736 0.59604 0.97979 0.0
C601 C 0.14714 0.58582 0.01379 0.0
C602 C 0.11682 0.55921 0.10079 0.0
C603 C 0.13434 0.54164 0.18821 0.0
C604 C 0.1341 0.55117 0.15023 0.0
C605 C 0.13463 0.58317 0.04588 0.0
C606 C 0.13431 0.572 0.08167 0.0
H607 H 0.15997 0.55204 0.27516 0.0
H608 H 0.16015 0.56671 0.21107 0.0
H609 H 0.10309 0.53959 0.14962 0.0
H610 H 0.11348 0.60775 0.00773 0.0
H611 H 0.11315 0.58993 0.06811 0.0
C612 C 0.49251 0.30716 0.17552 0.0
C613 C 0.51045 0.32423 0.17855 0.0
C614 C 0.49133 0.29029 0.16018 0.0
C615 C 0.51907 0.2745 0.09676 0.0
H616 H 0.48352 0.22369 0.13924 0.0
C617 C 0.52501 0.20692 0.06327 0.0
C618 C 0.50791 0.1892 0.05769 0.0
C619 C 0.5243 0.22345 0.07393 0.0
C620 C 0.49332 0.23776 0.12666 0.0
H621 H 0.54131 0.33678 0.1698 0.0
H622 H 0.53933 0.30736 0.14426 0.0
H623 H 0.48443 0.2521 0.16861 0.0
H624 H 0.47665 0.17508 0.05734 0.0
H625 H 0.47541 0.20404 0.07607 0.0
H626 H 0.52826 0.26017 0.05545 0.0
C627 C 0.52608 0.30706 0.15251 0.0
C628 C 0.49386 0.25406 0.14353 0.0
C629 C 0.52724 0.3239 0.16754 0.0
C630 C 0.49007 0.18854 0.06133 0.0
C631 C 0.48936 0.20506 0.0724 0.0
C632 C 0.5186 0.25824 0.08009 0.0
C633 C 0.50809 0.29015 0.14777 0.0
C634 C 0.50692 0.27266 0.1291 0.0
C635 C 0.50647 0.2226 0.07958 0.0
C636 C 0.50587 0.23971 0.09511 0.0
H637 H 0.4793 0.307 0.18357 0.0
H638 H 0.47722 0.27757 0.15677 0.0
H639 H 0.52897 0.28854 0.0842 0.0
H640 H 0.53898 0.2079 0.06073 0.0
H641 H 0.53773 0.2367 0.07951 0.0
C642 C 0.31547 0.52286 0.22336 0.0
C643 C 0.31752 0.50663 0.21685 0.0
C644 C 0.29776 0.52068 0.23526 0.0
C645 C 0.25423 0.4875 0.29076 0.0
H646 H 0.23678 0.52237 0.25483 0.0
C647 C 0.18513 0.48729 0.35032 0.0
C648 C 0.18694 0.5056 0.35509 0.0
C649 C 0.20028 0.48554 0.33354 0.0
C650 C 0.24154 0.51261 0.26543 0.0
H651 H 0.30244 0.47534 0.21604 0.0
H652 H 0.27129 0.47149 0.23701 0.0
H653 H 0.2636 0.52223 0.22059 0.0
H654 H 0.20649 0.53642 0.34922 0.0
H655 H 0.23289 0.5334 0.32102 0.0
H656 H 0.23229 0.47817 0.33617 0.0
C657 C 0.28348 0.48591 0.23299 0.0
C658 C 0.25685 0.51248 0.24567 0.0
C659 C 0.30123 0.48811 0.22058 0.0
C660 C 0.20458 0.5221 0.34553 0.0
C661 C 0.21966 0.52037 0.32899 0.0
C662 C 0.23884 0.48763 0.31061 0.0
C663 C 0.28169 0.5022 0.24126 0.0
C664 C 0.26369 0.50027 0.25866 0.0
C665 C 0.21744 0.50208 0.32135 0.0
C666 C 0.23267 0.50057 0.29877 0.0
H667 H 0.32777 0.53732 0.2208 0.0
H668 H 0.29695 0.53354 0.24171 0.0
H669 H 0.25928 0.47803 0.30169 0.0
H670 H 0.17164 0.47431 0.35723 0.0
H671 H 0.19818 0.47125 0.32816 0.0
C672 C 0.68138 0.20299 0.52717 0.0
C673 C 0.67992 0.18506 0.53532 0.0
C674 C 0.69852 0.21831 0.5124 0.0
C675 C 0.75059 0.23754 0.49653 0.0
H676 H 0.74189 0.26272 0.4057 0.0
C677 C 0.81347 0.29926 0.40636 0.0
C678 C 0.81136 0.31551 0.40017 0.0
C679 C 0.79785 0.28186 0.4201 0.0
C680 C 0.74458 0.25591 0.4311 0.0
H681 H 0.6957 0.16954 0.53712 0.0
H682 H 0.72588 0.19654 0.51122 0.0
H683 H 0.71451 0.23595 0.43901 0.0
H684 H 0.79109 0.32605 0.40181 0.0
H685 H 0.76402 0.2959 0.42536 0.0
H686 H 0.78075 0.25785 0.48882 0.0
C687 C 0.71368 0.19864 0.51629 0.0
C688 C 0.72889 0.24061 0.45029 0.0
C689 C 0.69644 0.18322 0.53125 0.0
C690 C 0.79318 0.31379 0.40623 0.0
C691 C 0.77762 0.29645 0.41961 0.0
C692 C 0.76637 0.25297 0.4773 0.0
C693 C 0.71462 0.21608 0.50524 0.0
C694 C 0.73165 0.23152 0.48377 0.0
C695 C 0.77982 0.28037 0.42742 0.0
C696 C 0.76348 0.26257 0.44488 0.0
H697 H 0.66897 0.20492 0.53039 0.0
H698 H 0.69896 0.23175 0.50521 0.0
H699 H 0.75315 0.23079 0.5222 0.0
H700 H 0.82734 0.30019 0.40213 0.0
H701 H 0.79994 0.26966 0.42549 0.0
C702 C 0.50955 0.80917 0.56207 0.0
C703 C 0.49126 0.80762 0.55987 0.0
C704 C 0.51148 0.79384 0.57719 0.0
C705 C 0.48563 0.7519 0.64472 0.0
H706 H 0.52053 0.73559 0.6033 0.0
C707 C 0.47945 0.67935 0.68663 0.0
C708 C 0.49636 0.67833 0.69157 0.0
C709 C 0.48041 0.69646 0.67397 0.0
C710 C 0.51095 0.7402 0.6156 0.0
H711 H 0.46058 0.78834 0.5688 0.0
H712 H 0.46388 0.76159 0.59405 0.0
H713 H 0.51899 0.76229 0.57091 0.0
H714 H 0.52762 0.69465 0.68851 0.0
H715 H 0.52931 0.72471 0.66638 0.0
H716 H 0.47736 0.72972 0.68898 0.0
C717 C 0.4768 0.77478 0.58537 0.0
C718 C 0.51002 0.75545 0.59696 0.0
C719 C 0.47489 0.79006 0.5705 0.0
C720 C 0.51434 0.69504 0.68516 0.0
C721 C 0.51531 0.71217 0.6721 0.0
C722 C 0.48653 0.7367 0.66325 0.0
C723 C 0.49515 0.77671 0.59026 0.0
C724 C 0.49707 0.76122 0.61086 0.0
C725 C 0.49831 0.71295 0.6657 0.0
C726 C 0.49895 0.73044 0.64853 0.0
H727 H 0.52244 0.82258 0.55428 0.0
H728 H 0.52582 0.79578 0.58053 0.0
H729 H 0.47588 0.75632 0.65692 0.0
H730 H 0.46537 0.66672 0.69124 0.0
H731 H 0.46704 0.69649 0.669 0.0
C732 C 0.69733 0.50302 0.74102 0.0
C733 C 0.67985 0.48544 0.73822 0.0
C734 C 0.71383 0.50353 0.75665 0.0
C735 C 0.73596 0.47358 0.77673 0.0
H736 H 0.76414 0.51107 0.86023 0.0
C737 C 0.79681 0.47106 0.86317 0.0
C738 C 0.81368 0.4888 0.87015 0.0
C739 C 0.77989 0.47053 0.85042 0.0
C740 C 0.75659 0.50064 0.83667 0.0
H741 H 0.66613 0.45453 0.74804 0.0
H742 H 0.69499 0.45539 0.77457 0.0
H743 H 0.73665 0.51086 0.82779 0.0
H744 H 0.82579 0.51986 0.87116 0.0
H745 H 0.79647 0.51899 0.84816 0.0
H746 H 0.75601 0.46357 0.78474 0.0
C747 C 0.69593 0.46878 0.76493 0.0
C748 C 0.74084 0.50054 0.81807 0.0
C749 C 0.67939 0.4683 0.7498 0.0
C750 C 0.81299 0.50594 0.86624 0.0
C751 C 0.79612 0.50543 0.85306 0.0
C752 C 0.7518 0.47379 0.795 0.0
C753 C 0.71322 0.48643 0.76923 0.0
C754 C 0.73034 0.48698 0.78799 0.0
C755 C 0.77951 0.48773 0.84389 0.0
C756 C 0.7623 0.48727 0.82534 0.0
H757 H 0.69809 0.51647 0.7325 0.0
H758 H 0.72704 0.51731 0.75923 0.0
H759 H 0.72826 0.46309 0.75334 0.0
H760 H 0.79686 0.45758 0.86616 0.0
H761 H 0.76724 0.45661 0.84472 0.0
C762 C 0.20912 0.67886 0.9069 0.0
C763 C 0.19229 0.67938 0.89716 0.0
C764 C 0.2254 0.69533 0.92158 0.0
C765 C 0.24745 0.74856 0.93369 0.0
H766 H 0.2754 0.74072 0.02009 0.0
C767 C 0.30624 0.81213 0.02479 0.0
C768 C 0.32389 0.81236 0.02781 0.0
C769 C 0.28965 0.79557 0.01139 0.0
C770 C 0.26778 0.74311 -0.00411 0.0
H771 H 0.17952 0.69773 0.8939 0.0
H772 H 0.20772 0.72633 0.92021 0.0
H773 H 0.24805 0.7129 0.98895 0.0
H774 H 0.33776 0.79512 0.02134 0.0
H775 H 0.30874 0.76614 -0.00139 0.0
H776 H 0.26709 0.77884 0.9412 0.0
C777 C 0.20854 0.71333 0.91595 0.0
C778 C 0.25217 0.72718 0.9778 0.0
C779 C 0.19232 0.6969 0.90089 0.0
C780 C 0.32437 0.79539 0.01933 0.0
C781 C 0.30775 0.77878 0.00637 0.0
C782 C 0.26294 0.7645 0.95206 0.0
C783 C 0.22516 0.71265 0.92726 0.0
C784 C 0.24186 0.72968 0.94629 0.0
C785 C 0.29034 0.77886 0.00124 0.0
C786 C 0.27332 0.76194 0.98322 0.0
H787 H 0.20958 0.66559 0.90415 0.0
H788 H 0.23809 0.69438 0.92902 0.0
H789 H 0.24006 0.75107 0.90917 0.0
H790 H 0.30542 0.825 0.03102 0.0
H791 H 0.27636 0.79595 0.00821 0.0
C792 C 0.61432 0.15026 0.67558 0.0
C793 C 0.60243 0.14788 0.64248 0.0
C794 C 0.60948 0.1539 0.71384 0.0
C795 C 0.57573 0.16629 0.76708 0.0
H796 H 0.57605 0.13213 0.84928 0.0
C797 C 0.54005 0.15671 0.9244 0.0
C798 C 0.53145 0.13806 0.94088 0.0
C799 C 0.55046 0.16086 0.88841 0.0
C800 C 0.57573 0.14167 0.82655 0.0
H801 H 0.577 0.14893 0.62306 0.0
H802 H 0.56853 0.15483 0.6888 0.0
H803 H 0.59313 0.13589 0.78661 0.0
H804 H 0.52563 0.10882 0.93151 0.0
H805 H 0.54285 0.11575 0.86796 0.0
H806 H 0.55726 0.17108 0.8061 0.0
C807 C 0.58163 0.15408 0.68576 0.0
C808 C 0.58588 0.14413 0.79088 0.0
C809 C 0.58639 0.15042 0.64792 0.0
C810 C 0.53221 0.12334 0.91945 0.0
C811 C 0.54234 0.12741 0.8834 0.0
C812 C 0.56541 0.16369 0.80264 0.0
C813 C 0.59277 0.15537 0.71943 0.0
C814 C 0.58548 0.15597 0.76016 0.0
C815 C 0.55225 0.14636 0.86825 0.0
C816 C 0.56478 0.15084 0.83223 0.0
H817 H 0.62683 0.14849 0.67227 0.0
H818 H 0.61849 0.15503 0.73917 0.0
H819 H 0.57543 0.17583 0.7443 0.0
H820 H 0.53991 0.16837 0.94071 0.0
H821 H 0.55789 0.17561 0.87756 0.0
C822 C 0.45873 0.61635 0.82797 0.0
C823 C 0.46698 0.60557 0.81376 0.0
C824 C 0.44826 0.61113 0.86406 0.0
C825 C 0.42158 0.56789 0.92837 0.0
H826 H 0.42389 0.60369 0.00947 0.0
C827 C 0.38342 0.53961 0.07983 0.0
C828 C 0.39561 0.54886 0.11268 0.0
C829 C 0.38823 0.54806 0.04154 0.0
C830 C 0.42301 0.59349 0.98699 0.0
H831 H 0.47214 0.58201 0.8269 0.0
H832 H 0.45475 0.57346 0.89035 0.0
H833 H 0.44202 0.61612 0.94705 0.0
H834 H 0.42154 0.57496 0.13165 0.0
H835 H 0.43 0.58925 0.06569 0.0
H836 H 0.40363 0.54529 0.96895 0.0
C837 C 0.45563 0.58543 0.87329 0.0
C838 C 0.4333 0.60064 0.95113 0.0
C839 C 0.46584 0.59049 0.83731 0.0
C840 C 0.41193 0.56724 0.10696 0.0
C841 C 0.41668 0.57563 0.06901 0.0
C842 C 0.41142 0.56076 0.96422 0.0
C843 C 0.44602 0.59513 0.88628 0.0
C844 C 0.43326 0.58789 0.92208 0.0
C845 C 0.40524 0.56593 0.03556 0.0
C846 C 0.41256 0.57347 0.99458 0.0
H847 H 0.45922 0.62787 0.80991 0.0
H848 H 0.44109 0.61894 0.87339 0.0
H849 H 0.42078 0.55766 0.90604 0.0
H850 H 0.37067 0.52552 0.08333 0.0
H851 H 0.37896 0.54032 0.01643 0.0
C852 C 0.88157 0.46412 0.0021 0.0
C853 C 0.86803 0.46818 0.98447 0.0
C854 C 0.87771 0.45443 0.03858 0.0
C855 C 0.83724 0.42082 0.10267 0.0
H856 H 0.87914 0.43079 0.17537 0.0
C857 C 0.83304 0.38966 0.26368 0.0
C858 C 0.84696 0.38436 0.27227 0.0
C859 C 0.83235 0.39678 0.22574 0.0
C860 C 0.86735 0.42772 0.15505 0.0
H861 H 0.84018 0.46617 0.99236 0.0
H862 H 0.83354 0.44949 0.05743 0.0
H863 H 0.88502 0.45257 0.11939 0.0
H864 H 0.87012 0.38093 0.24784 0.0
H865 H 0.86907 0.39355 0.18133 0.0
H866 H 0.81948 0.39622 0.13995 0.0
C867 C 0.84703 0.45354 0.04229 0.0
C868 C 0.87068 0.44022 0.12303 0.0
C869 C 0.85092 0.4633 0.00538 0.0
C870 C 0.85904 0.3846 0.24153 0.0
C871 C 0.85856 0.392 0.20376 0.0
C872 C 0.83382 0.40845 0.13536 0.0
C873 C 0.86026 0.44865 0.05884 0.0
C874 C 0.85581 0.43671 0.09583 0.0
C875 C 0.84586 0.39902 0.19629 0.0
C876 C 0.84899 0.4116 0.16122 0.0
H877 H 0.89495 0.46776 0.98686 0.0
H878 H 0.88815 0.45071 0.0499 0.0
H879 H 0.8255 0.4176 0.08213 0.0
H880 H 0.82378 0.38982 0.28726 0.0
H881 H 0.8225 0.40218 0.22073 0.0
C882 C 0.46042 0.83991 0.41523 0.0
C883 C 0.45109 0.84323 0.44741 0.0
C884 C 0.45217 0.83607 0.37673 0.0
C885 C 0.40729 0.8261 0.32052 0.0
H886 H 0.44399 0.859 0.23994 0.0
C887 C 0.3851 0.84067 0.16263 0.0
C888 C 0.39638 0.85967 0.14843 0.0
C889 C 0.39032 0.8349 0.19804 0.0
C890 C 0.43352 0.84977 0.26215 0.0
H891 H 0.42504 0.84346 0.46511 0.0
H892 H 0.41112 0.83732 0.39885 0.0
H893 H 0.4557 0.85381 0.30329 0.0
H894 H 0.42097 0.88783 0.1612 0.0
H895 H 0.42955 0.8781 0.22343 0.0
H896 H 0.38512 0.82324 0.28019 0.0
C897 C 0.42463 0.83746 0.40279 0.0
C898 C 0.44026 0.84649 0.29828 0.0
C899 C 0.43281 0.84127 0.44093 0.0
C900 C 0.41213 0.87305 0.17138 0.0
C901 C 0.41719 0.86739 0.20673 0.0
C902 C 0.40054 0.82955 0.28445 0.0
C903 C 0.43444 0.83541 0.3699 0.0
C904 C 0.42725 0.83521 0.32856 0.0
C905 C 0.40681 0.84809 0.21975 0.0
C906 C 0.41361 0.84205 0.25553 0.0
H907 H 0.47445 0.84117 0.41934 0.0
H908 H 0.45999 0.83429 0.3521 0.0
H909 H 0.39686 0.81698 0.34287 0.0
H910 H 0.37302 0.83004 0.14516 0.0
H911 H 0.38198 0.81995 0.20737 0.0
C912 C 0.61727 0.46217 0.57263 0.0
C913 C 0.61323 0.45164 0.60846 0.0
C914 C 0.61211 0.45251 0.5357 0.0
C915 C 0.57541 0.40507 0.49715 0.0
H916 H 0.60004 0.42671 0.39508 0.0
C917 C 0.53399 0.38802 0.34759 0.0
C918 C 0.54372 0.38877 0.31207 0.0
C919 C 0.5436 0.3919 0.38449 0.0
C920 C 0.59309 0.42022 0.42331 0.0
H921 H 0.6023 0.42321 0.63427 0.0
H922 H 0.59397 0.40637 0.56997 0.0
H923 H 0.61707 0.44147 0.45726 0.0
H924 H 0.57045 0.39297 0.28673 0.0
H925 H 0.58713 0.39919 0.35122 0.0
H926 H 0.55138 0.38392 0.46324 0.0
C927 C 0.60054 0.42195 0.5701 0.0
C928 C 0.60279 0.42885 0.45898 0.0
C929 C 0.60547 0.43158 0.60688 0.0
C930 C 0.5627 0.39223 0.31397 0.0
C931 C 0.57227 0.39598 0.35079 0.0
C932 C 0.56575 0.3964 0.46151 0.0
C933 C 0.60293 0.43219 0.5342 0.0
C934 C 0.59389 0.42165 0.49633 0.0
C935 C 0.56309 0.39662 0.3863 0.0
C936 C 0.57428 0.40413 0.42415 0.0
H937 H 0.62298 0.47764 0.57333 0.0
H938 H 0.61405 0.46086 0.50872 0.0
H939 H 0.56796 0.39924 0.52531 0.0
H940 H 0.51946 0.38576 0.34652 0.0
H941 H 0.53613 0.39247 0.41114 0.0
C942 C 0.14969 0.53626 0.5048 0.0
C943 C 0.154 0.54687 0.46892 0.0
C944 C 0.15325 0.54576 0.54192 0.0
C945 C 0.15487 0.58921 0.58097 0.0
H946 H 0.16985 0.57609 0.68169 0.0
C947 C 0.13319 0.60386 0.73577 0.0
C948 C 0.14717 0.61093 0.76616 0.0
C949 C 0.13735 0.59889 0.69843 0.0
C950 C 0.16589 0.58006 0.65363 0.0
H951 H 0.16716 0.57566 0.44356 0.0
H952 H 0.17383 0.59214 0.50775 0.0
H953 H 0.17218 0.56118 0.61909 0.0
H954 H 0.17634 0.61846 0.78212 0.0
H955 H 0.18367 0.60954 0.7165 0.0
H956 H 0.14808 0.60764 0.61538 0.0
C957 C 0.16719 0.57655 0.50752 0.0
C958 C 0.16705 0.57141 0.61796 0.0
C959 C 0.16345 0.56711 0.47072 0.0
C960 C 0.16555 0.61345 0.75856 0.0
C961 C 0.16962 0.60813 0.72138 0.0
C962 C 0.15354 0.59767 0.61651 0.0
C963 C 0.16129 0.56596 0.54343 0.0
C964 C 0.16141 0.57581 0.58129 0.0
C965 C 0.15542 0.60048 0.69124 0.0
C966 C 0.15881 0.59303 0.65324 0.0
H967 H 0.14229 0.52062 0.50412 0.0
H968 H 0.14853 0.53721 0.56916 0.0
H969 H 0.15013 0.5927 0.55331 0.0
H970 H 0.1188 0.60142 0.7415 0.0
H971 H 0.12608 0.59284 0.67588 0.0
C972 C 0.45777 0.07384 0.02472 0.0
C973 C 0.47131 0.07949 0.056 0.0
C974 C 0.4417 0.0551 0.02408 0.0
C975 C 0.4144 0.01093 0.08771 0.0
H976 H 0.41021 0.98308 0.98947 0.0
C977 C 0.40524 0.93589 0.08134 0.0
C978 C 0.39268 0.9224 0.05324 0.0
C979 C 0.40763 0.95439 0.08278 0.0
C980 C 0.41079 0.99069 0.01683 0.0
H981 H 0.47787 0.07074 0.1126 0.0
H982 H 0.45043 0.03838 0.11147 0.0
H983 H 0.42798 0.01834 0.98919 0.0
H984 H 0.3724 0.91731 0.00521 0.0
H985 H 0.37719 0.95021 0.00671 0.0
H986 H 0.39868 0.98321 0.11603 0.0
C987 C 0.45196 0.04813 0.08731 0.0
C988 C 0.42094 0.0109 0.01669 0.0
C989 C 0.46797 0.06663 0.08766 0.0
C990 C 0.38199 0.92746 0.02746 0.0
C991 C 0.38478 0.94622 0.02818 0.0
C992 C 0.40447 0.99077 0.08793 0.0
C993 C 0.43883 0.04193 0.05513 0.0
C994 C 0.42371 0.02121 0.05262 0.0
C995 C 0.39786 0.95991 0.05548 0.0
C996 C 0.40337 0.98051 0.05292 0.0
H997 H 0.46006 0.08359 1e-05 0.0
H998 H 0.4318 0.05077 -0.00105 0.0
H999 H 0.41588 0.01847 0.11568 0.0
H1000 H 0.41368 0.9323 0.10137 0.0
H1001 H 0.418 0.96475 0.10374 0.0
C1002 C 0.46381 0.39138 0.20897 0.0
C1003 C 0.47968 0.39961 0.23528 0.0
C1004 C 0.45079 0.39829 0.208 0.0
C1005 C 0.45282 0.44427 0.22807 0.0
H1006 H 0.39859 0.41714 0.199 0.0
C1007 C 0.38957 0.46488 0.21309 0.0
C1008 C 0.40076 0.48301 0.19473 0.0
C1009 C 0.3965 0.45188 0.21545 0.0
C1010 C 0.41371 0.42487 0.20726 0.0
H1011 H 0.49319 0.41984 0.28416 0.0
H1012 H 0.47009 0.43128 0.28376 0.0
H1013 H 0.41485 0.39874 0.21462 0.0
H1014 H 0.42689 0.50096 0.1609 0.0
H1015 H 0.43862 0.47815 0.16378 0.0
H1016 H 0.45187 0.47029 0.22132 0.0
C1017 C 0.46804 0.42005 0.2628 0.0
C1018 C 0.42303 0.41435 0.21603 0.0
C1019 C 0.48118 0.41338 0.26333 0.0
C1020 C 0.41808 0.48718 0.17565 0.0
C1021 C 0.42485 0.47417 0.1776 0.0
C1022 C 0.44359 0.45468 0.21931 0.0
C1023 C 0.45337 0.41339 0.23362 0.0
C1024 C 0.44273 0.42398 0.22654 0.0
C1025 C 0.41464 0.45681 0.19923 0.0
C1026 C 0.424 0.44518 0.20838 0.0
H1027 H 0.46242 0.38085 0.18678 0.0
H1028 H 0.43967 0.39285 0.18513 0.0
H1029 H 0.46807 0.45223 0.23521 0.0
H1030 H 0.37622 0.46135 0.22827 0.0
H1031 H 0.38828 0.43862 0.23228 0.0
C1032 C 0.0729 0.46285 0.37609 0.0
C1033 C 0.08063 0.48076 0.39574 0.0
C1034 C 0.05294 0.44997 0.3764 0.0
C1035 C 0.00886 0.45311 0.38415 0.0
H1036 H 0.98185 0.39715 0.37999 0.0
C1037 C 0.92518 0.38857 0.38834 0.0
C1038 C 0.91757 0.39739 0.36355 0.0
C1039 C 0.94519 0.396 0.39035 0.0
C1040 C 0.98922 0.41277 0.38123 0.0
H1041 H 0.07393 0.49838 0.43449 0.0
H1042 H 0.03935 0.4757 0.43638 0.0
H1043 H 0.01671 0.41511 0.39341 0.0
H1044 H 0.92458 0.41952 0.31853 0.0
H1045 H 0.95925 0.43199 0.32092 0.0
H1046 H 0.98166 0.45103 0.37275 0.0
C1047 C 0.0485 0.47183 0.41948 0.0
C1048 C 0.00917 0.42305 0.38871 0.0
C1049 C 0.06833 0.48477 0.41871 0.0
C1050 C 0.93009 0.41259 0.33827 0.0
C1051 C 0.94996 0.41982 0.33989 0.0
C1052 C 0.98909 0.44293 0.3767 0.0
C1053 C 0.04045 0.45475 0.39667 0.0
C1054 C 0.01919 0.44336 0.39036 0.0
C1055 C 0.95782 0.41224 0.36736 0.0
C1056 C 0.979 0.42266 0.37483 0.0
H1057 H 0.08205 0.45945 0.35791 0.0
H1058 H 0.04722 0.43695 0.35849 0.0
H1059 H 0.01611 0.46874 0.38437 0.0
H1060 H 0.91586 0.37691 0.40835 0.0
H1061 H 0.95079 0.38983 0.41181 0.0
C1062 C 0.51459 0.92695 0.49916 0.0
C1063 C 0.51784 0.91476 0.52427 0.0
C1064 C 0.52743 0.9468 0.499 0.0
C1065 C 0.57454 0.98648 0.53734 0.0
H1066 H 0.54541 0.01328 0.5427 0.0
C1067 C 0.5814 0.06485 0.58104 0.0
C1068 C 0.59782 0.07764 0.55895 0.0
C1069 C 0.57453 0.04503 0.57987 0.0
C1070 C 0.55381 0.00606 0.54179 0.0
H1071 H 0.53766 0.91347 0.56683 0.0
H1072 H 0.55993 0.94837 0.56746 0.0
H1073 H 0.52868 0.97892 0.53044 0.0
H1074 H 0.62072 0.07994 0.52044 0.0
H1075 H 0.6084 0.04509 0.51754 0.0
H1076 H 0.59969 0.01391 0.5499 0.0
C1077 C 0.54767 0.94257 0.54729 0.0
C1078 C 0.54423 0.98633 0.53391 0.0
C1079 C 0.53494 0.92257 0.5469 0.0
C1080 C 0.60809 0.07038 0.538 0.0
C1081 C 0.60101 0.05042 0.53631 0.0
C1082 C 0.58421 0.00639 0.54532 0.0
C1083 C 0.54355 0.95498 0.52471 0.0
C1084 C 0.5544 0.97624 0.53146 0.0
C1085 C 0.58367 0.03749 0.55586 0.0
C1086 C 0.57388 0.01635 0.54795 0.0
H1087 H 0.50157 0.92123 0.48122 0.0
H1088 H 0.52413 0.95587 0.48029 0.0
H1089 H 0.58281 0.97914 0.5356 0.0
H1090 H 0.57333 0.07011 0.59774 0.0
H1091 H 0.56146 0.03553 0.59628 0.0
C1092 C 0.61724 0.53685 0.69936 0.0
C1093 C 0.60848 0.52029 0.67501 0.0
C1094 C 0.61112 0.55049 0.69744 0.0
C1095 C 0.56574 0.54887 0.67561 0.0
H1096 H 0.59348 0.60367 0.69984 0.0
C1097 C 0.54332 0.61053 0.68934 0.0
C1098 C 0.52671 0.59981 0.71294 0.0
C1099 C 0.55684 0.60432 0.68498 0.0
C1100 C 0.58562 0.5884 0.69285 0.0
H1101 H 0.58829 0.50612 0.62634 0.0
H1102 H 0.5782 0.53022 0.6218 0.0
H1103 H 0.61155 0.5869 0.68502 0.0
H1104 H 0.5122 0.57556 0.75374 0.0
H1105 H 0.53582 0.56503 0.74681 0.0
H1106 H 0.53992 0.5501 0.68376 0.0
C1107 C 0.58926 0.53241 0.64337 0.0
C1108 C 0.59592 0.57881 0.68451 0.0
C1109 C 0.59512 0.51867 0.64573 0.0
C1110 C 0.52475 0.58395 0.73495 0.0
C1111 C 0.53822 0.57787 0.73084 0.0
C1112 C 0.55556 0.55835 0.68414 0.0
C1113 C 0.5963 0.54781 0.67085 0.0
C1114 C 0.58603 0.55888 0.67603 0.0
C1115 C 0.55387 0.5874 0.70432 0.0
C1116 C 0.56533 0.57811 0.69352 0.0
H1117 H 0.62748 0.53837 0.7224 0.0
H1118 H 0.61683 0.56217 0.71905 0.0
H1119 H 0.5576 0.53347 0.67003 0.0
H1120 H 0.5451 0.62276 0.6719 0.0
H1121 H 0.56881 0.61193 0.6644 0.0
C1122 C 0.07276 0.60927 0.89995 0.0
C1123 C 0.08304 0.61135 0.86452 0.0
C1124 C 0.05393 0.60599 0.89834 0.0
C1125 C 0.01239 0.58545 0.8288 0.0
H1126 H 0.98783 0.59452 0.9201 0.0
C1127 C 0.92978 0.54666 0.84543 0.0
C1128 C 0.92454 0.534 0.87827 0.0
C1129 C 0.94872 0.56206 0.84189 0.0
C1130 C 0.99454 0.59216 0.89411 0.0
H1131 H 0.08252 0.61277 0.79973 0.0
H1132 H 0.04975 0.60791 0.79658 0.0
H1133 H 0.02301 0.61198 0.91493 0.0
H1134 H 0.93424 0.52786 0.93413 0.0
H1135 H 0.96713 0.5553 0.92894 0.0
H1136 H 0.98381 0.56546 0.80842 0.0
C1137 C 0.05594 0.60826 0.82572 0.0
C1138 C 0.01469 0.60198 0.89126 0.0
C1139 C 0.07474 0.61125 0.8274 0.0
C1140 C 0.93798 0.53766 0.90888 0.0
C1141 C 0.95672 0.55333 0.90589 0.0
C1142 C 0.99227 0.57599 0.83124 0.0
C1143 C 0.04502 0.60491 0.86115 0.0
C1144 C 0.0239 0.59805 0.85955 0.0
C1145 C 0.96244 0.56521 0.87167 0.0
C1146 C 0.98322 0.57867 0.86472 0.0
H1147 H 0.07896 0.60919 0.92887 0.0
H1148 H 0.04604 0.60315 0.92629 0.0
H1149 H 0.01879 0.58178 0.80416 0.0
H1150 H 0.91967 0.54381 0.82115 0.0
H1151 H 0.95289 0.57097 0.81512 0.0
loop_
_geom_bond_atom_site_label_1
_geom_bond_atom_site_label_2
_geom_bond_distance
_geom_bond_site_symmetry_2
_ccdc_geom_bond_type
Mn0 O5 2.095 1_554 S
Mn0 O15 2.162 . S
Mn0 O16 2.297 . S
Mn0 O24 2.385 . S
Mn0 O25 2.209 . S
Mn0 O26 2.094 . S
Mn1 O6 2.143 . S
Mn1 N8 2.257 . S
Mn1 N17 2.282 . S
Mn1 O25 2.215 . S
Mn1 O27 2.117 . S
C2 O24 1.234 . S
C2 O25 1.283 . S
C3 O15 1.281 . S
C3 O16 1.236 . S
C4 O26 1.240 . S
C4 O27 1.264 . S
O5 Mn0 2.095 1_556 S
O5 C14 1.250 . S
O6 Mn1 2.143 . S
O6 C14 1.248 1_554 S
C7 N8 1.326 . S
C7 C11 1.460 . S
C7 H13 0.929 . S
N8 Mn1 2.257 . S
N8 C7 1.326 . S
N8 C12 1.362 . S
C9 C10 1.258 . S
C9 C12 1.431 . S
C9 C29 1.449 . S
C10 C9 1.258 . S
C10 C11 1.477 . S
C10 H30 0.931 . S
C11 C7 1.460 . S
C11 C10 1.477 . S
C11 H31 0.930 . S
C12 N8 1.362 . S
C12 C9 1.431 . S
C12 C22 1.476 . S
H13 C7 0.929 . S
C14 O5 1.250 . S
C14 O6 1.248 1_556 S
O15 Mn0 2.162 . S
O15 C3 1.281 . S
O16 Mn0 2.297 . S
O16 C3 1.236 . S
N17 Mn1 2.282 . S
N17 C18 1.328 . S
N17 C22 1.318 . S
C18 N17 1.328 . S
C18 C19 1.457 . S
C18 H23 0.929 . S
C19 C18 1.457 . S
C19 C20 1.291 . S
C19 H32 0.931 . S
C20 C19 1.291 . S
C20 C21 1.373 . S
C20 H33 0.929 . S
C21 C20 1.373 . S
C21 C22 1.396 . S
C21 C28 1.403 . S
C22 C12 1.476 . S
C22 N17 1.318 . S
C22 C21 1.396 . S
H23 C18 0.929 . S
O24 Mn0 2.385 . S
O24 C2 1.234 . S
O25 Mn0 2.209 . S
O25 Mn1 2.215 . S
O25 C2 1.283 . S
O26 Mn0 2.094 . S
O26 C4 1.240 . S
O27 Mn1 2.117 . S
O27 C4 1.264 . S
C28 C21 1.403 . S
C28 C29 1.399 . S
C28 H34 0.929 . S
C29 C9 1.449 . S
C29 C28 1.399 . S
C29 H35 0.930 . S
H30 C10 0.931 . S
H31 C11 0.930 . S
H32 C19 0.931 . S
H33 C20 0.929 . S
H34 C28 0.929 . S
H35 C29 0.930 . S
Mn36 O41 2.095 . S
Mn36 O51 2.162 . S
Mn36 O52 2.297 . S
Mn36 O60 2.385 . S
Mn36 O61 2.209 . S
Mn36 O62 2.094 . S
Mn37 O42 2.121 . S
Mn37 N44 2.257 . S
Mn37 N53 2.282 . S
Mn37 O61 2.215 . S
Mn37 O63 2.117 . S
C38 O60 1.234 . S
C38 O61 1.283 . S
C39 O51 1.281 . S
C39 O52 1.236 . S
C40 O62 1.240 . S
C40 O63 1.264 . S
O41 Mn36 2.095 . S
O41 C50 1.250 . S
O42 Mn37 2.121 . S
O42 C50 1.258 . S
C43 N44 1.326 . S
C43 C47 1.460 . S
C43 H49 0.929 . S
N44 Mn37 2.257 . S
N44 C43 1.326 . S
N44 C48 1.362 . S
C45 C46 1.258 . S
C45 C48 1.431 . S
C45 C65 1.449 . S
C46 C45 1.258 . S
C46 C47 1.477 . S
C46 H66 0.931 . S
C47 C43 1.460 . S
C47 C46 1.477 . S
C47 H67 0.930 . S
C48 N44 1.362 . S
C48 C45 1.431 . S
C48 C58 1.476 . S
H49 C43 0.929 . S
C50 O41 1.250 . S
C50 O42 1.258 . S
O51 Mn36 2.162 . S
O51 C39 1.281 . S
O52 Mn36 2.297 . S
O52 C39 1.236 . S
N53 Mn37 2.282 . S
N53 C54 1.328 . S
N53 C58 1.318 . S
C54 N53 1.328 . S
C54 C55 1.457 . S
C54 H59 0.929 . S
C55 C54 1.457 . S
C55 C56 1.291 . S
C55 H68 0.931 . S
C56 C55 1.291 . S
C56 C57 1.373 . S
C56 H69 0.929 . S
C57 C56 1.373 . S
C57 C58 1.396 . S
C57 C64 1.403 . S
C58 C48 1.476 . S
C58 N53 1.318 . S
C58 C57 1.396 . S
H59 C54 0.929 . S
O60 Mn36 2.385 . S
O60 C38 1.234 . S
O61 Mn36 2.209 . S
O61 Mn37 2.215 . S
O61 C38 1.283 . S
O62 Mn36 2.094 . S
O62 C40 1.240 . S
O63 Mn37 2.117 . S
O63 C40 1.264 . S
C64 C57 1.403 . S
C64 C65 1.399 . S
C64 H70 0.929 . S
C65 C45 1.449 . S
C65 C64 1.399 . S
C65 H71 0.930 . S
H66 C46 0.931 . S
H67 C47 0.930 . S
H68 C55 0.931 . S
H69 C56 0.929 . S
H70 C64 0.929 . S
H71 C65 0.930 . S
Mn72 O77 2.095 . S
Mn72 O87 2.162 . S
Mn72 O88 2.297 . S
Mn72 O96 2.385 . S
Mn72 O97 2.209 . S
Mn72 O98 2.094 . S
Mn73 O78 2.121 . S
Mn73 N80 2.257 . S
Mn73 N89 2.282 . S
Mn73 O97 2.215 . S
Mn73 O99 2.117 . S
C74 O96 1.234 . S
C74 O97 1.283 . S
C75 O87 1.281 . S
C75 O88 1.236 . S
C76 O98 1.240 . S
C76 O99 1.264 . S
O77 Mn72 2.095 . S
O77 C86 1.250 . S
O78 Mn73 2.121 . S
O78 C86 1.258 . S
C79 N80 1.326 . S
C79 C83 1.460 . S
C79 H85 0.929 . S
N80 Mn73 2.257 . S
N80 C79 1.326 . S
N80 C84 1.362 . S
C81 C82 1.258 . S
C81 C84 1.431 . S
C81 C101 1.449 . S
C82 C81 1.258 . S
C82 C83 1.477 . S
C82 H102 0.931 . S
C83 C79 1.460 . S
C83 C82 1.477 . S
C83 H103 0.930 . S
C84 N80 1.362 . S
C84 C81 1.431 . S
C84 C94 1.476 . S
H85 C79 0.929 . S
C86 O77 1.250 . S
C86 O78 1.258 . S
O87 Mn72 2.162 . S
O87 C75 1.281 . S
O88 Mn72 2.297 . S
O88 C75 1.236 . S
N89 Mn73 2.282 . S
N89 C90 1.328 . S
N89 C94 1.318 . S
C90 N89 1.328 . S
C90 C91 1.457 . S
C90 H95 0.929 . S
C91 C90 1.457 . S
C91 C92 1.291 . S
C91 H104 0.931 . S
C92 C91 1.291 . S
C92 C93 1.373 . S
C92 H105 0.929 . S
C93 C92 1.373 . S
C93 C94 1.396 . S
C93 C100 1.403 . S
C94 C84 1.476 . S
C94 N89 1.318 . S
C94 C93 1.396 . S
H95 C90 0.929 . S
O96 Mn72 2.385 . S
O96 C74 1.234 . S
O97 Mn72 2.209 . S
O97 Mn73 2.215 . S
O97 C74 1.283 . S
O98 Mn72 2.094 . S
O98 C76 1.240 . S
O99 Mn73 2.117 . S
O99 C76 1.264 . S
C100 C93 1.403 . S
C100 C101 1.399 . S
C100 H106 0.929 . S
C101 C81 1.449 . S
C101 C100 1.399 . S
C101 H107 0.930 . S
H102 C82 0.931 . S
H103 C83 0.930 . S
H104 C91 0.931 . S
H105 C92 0.929 . S
H106 C100 0.929 . S
H107 C101 0.930 . S
Mn108 O113 2.095 . S
Mn108 O123 2.162 . S
Mn108 O124 2.297 . S
Mn108 O132 2.385 . S
Mn108 O133 2.209 . S
Mn108 O134 2.094 . S
Mn109 O114 2.121 . S
Mn109 N116 2.257 . S
Mn109 N125 2.282 . S
Mn109 O133 2.215 . S
Mn109 O135 2.117 . S
C110 O132 1.234 . S
C110 O133 1.283 . S
C111 O123 1.281 . S
C111 O124 1.236 . S
C112 O134 1.240 . S
C112 O135 1.264 . S
O113 Mn108 2.095 . S
O113 C122 1.250 . S
O114 Mn109 2.121 . S
O114 C122 1.258 . S
C115 N116 1.326 . S
C115 C119 1.460 . S
C115 H121 0.929 . S
N116 Mn109 2.257 . S
N116 C115 1.326 . S
N116 C120 1.362 . S
C117 C118 1.258 . S
C117 C120 1.431 . S
C117 C137 1.449 . S
C118 C117 1.258 . S
C118 C119 1.477 . S
C118 H138 0.931 . S
C119 C115 1.460 . S
C119 C118 1.477 . S
C119 H139 0.930 . S
C120 N116 1.362 . S
C120 C117 1.431 . S
C120 C130 1.476 . S
H121 C115 0.929 . S
C122 O113 1.250 . S
C122 O114 1.258 . S
O123 Mn108 2.162 . S
O123 C111 1.281 . S
O124 Mn108 2.297 . S
O124 C111 1.236 . S
N125 Mn109 2.282 . S
N125 C126 1.328 . S
N125 C130 1.318 . S
C126 N125 1.328 . S
C126 C127 1.457 . S
C126 H131 0.929 . S
C127 C126 1.457 . S
C127 C128 1.291 . S
C127 H140 0.931 . S
C128 C127 1.291 . S
C128 C129 1.373 . S
C128 H141 0.929 . S
C129 C128 1.373 . S
C129 C130 1.396 . S
C129 C136 1.403 . S
C130 C120 1.476 . S
C130 N125 1.318 . S
C130 C129 1.396 . S
H131 C126 0.929 . S
O132 Mn108 2.385 . S
O132 C110 1.234 . S
O133 Mn108 2.209 . S
O133 Mn109 2.215 . S
O133 C110 1.283 . S
O134 Mn108 2.094 . S
O134 C112 1.240 . S
O135 Mn109 2.117 . S
O135 C112 1.264 . S
C136 C129 1.403 . S
C136 C137 1.399 . S
C136 H142 0.929 . S
C137 C117 1.449 . S
C137 C136 1.399 . S
C137 H143 0.930 . S
H138 C118 0.931 . S
H139 C119 0.930 . S
H140 C127 0.931 . S
H141 C128 0.929 . S
H142 C136 0.929 . S
H143 C137 0.930 . S
Mn144 O149 2.095 . S
Mn144 O159 2.162 . S
Mn144 O160 2.297 . S
Mn144 O168 2.385 . S
Mn144 O169 2.209 . S
Mn144 O170 2.094 . S
Mn145 O150 2.121 . S
Mn145 N152 2.257 . S
Mn145 N161 2.282 . S
Mn145 O169 2.215 . S
Mn145 O171 2.117 . S
C146 O168 1.234 . S
C146 O169 1.283 . S
C147 O159 1.281 . S
C147 O160 1.236 . S
C148 O170 1.240 . S
C148 O171 1.264 . S
O149 Mn144 2.095 . S
O149 C158 1.250 . S
O150 Mn145 2.121 . S
O150 C158 1.258 . S
C151 N152 1.326 . S
C151 C155 1.460 . S
C151 H157 0.929 . S
N152 Mn145 2.257 . S
N152 C151 1.326 . S
N152 C156 1.362 . S
C153 C154 1.258 . S
C153 C156 1.431 . S
C153 C173 1.449 . S
C154 C153 1.258 . S
C154 C155 1.477 . S
C154 H174 0.931 . S
C155 C151 1.460 . S
C155 C154 1.477 . S
C155 H175 0.930 . S
C156 N152 1.362 . S
C156 C153 1.431 . S
C156 C166 1.476 . S
H157 C151 0.929 . S
C158 O149 1.250 . S
C158 O150 1.258 . S
O159 Mn144 2.162 . S
O159 C147 1.281 . S
O160 Mn144 2.297 . S
O160 C147 1.236 . S
N161 Mn145 2.282 . S
N161 C162 1.328 . S
N161 C166 1.318 . S
C162 N161 1.328 . S
C162 C163 1.457 . S
C162 H167 0.929 . S
C163 C162 1.457 . S
C163 C164 1.291 . S
C163 H176 0.931 . S
C164 C163 1.291 . S
C164 C165 1.373 . S
C164 H177 0.929 . S
C165 C164 1.373 . S
C165 C166 1.396 . S
C165 C172 1.403 . S
C166 C156 1.476 . S
C166 N161 1.318 . S
C166 C165 1.396 . S
H167 C162 0.929 . S
O168 Mn144 2.385 . S
O168 C146 1.234 . S
O169 Mn144 2.209 . S
O169 Mn145 2.215 . S
O169 C146 1.283 . S
O170 Mn144 2.094 . S
O170 C148 1.240 . S
O171 Mn145 2.117 . S
O171 C148 1.264 . S
C172 C165 1.403 . S
C172 C173 1.399 . S
C172 H178 0.929 . S
C173 C153 1.449 . S
C173 C172 1.399 . S
C173 H179 0.930 . S
H174 C154 0.931 . S
H175 C155 0.930 . S
H176 C163 0.931 . S
H177 C164 0.929 . S
H178 C172 0.929 . S
H179 C173 0.930 . S
Mn180 O185 2.095 . S
Mn180 O195 2.162 . S
Mn180 O196 2.297 . S
Mn180 O204 2.385 . S
Mn180 O205 2.209 . S
Mn180 O206 2.094 . S
Mn181 O186 2.121 . S
Mn181 N188 2.257 . S
Mn181 N197 2.282 . S
Mn181 O205 2.215 . S
Mn181 O207 2.117 . S
C182 O204 1.234 . S
C182 O205 1.283 . S
C183 O195 1.281 . S
C183 O196 1.236 . S
C184 O206 1.240 . S
C184 O207 1.264 . S
O185 Mn180 2.095 . S
O185 C194 1.250 . S
O186 Mn181 2.121 . S
O186 C194 1.258 . S
C187 N188 1.326 . S
C187 C191 1.460 . S
C187 H193 0.929 . S
N188 Mn181 2.257 . S
N188 C187 1.326 . S
N188 C192 1.362 . S
C189 C190 1.258 . S
C189 C192 1.431 . S
C189 C209 1.449 . S
C190 C189 1.258 . S
C190 C191 1.477 . S
C190 H210 0.931 . S
C191 C187 1.460 . S
C191 C190 1.477 . S
C191 H211 0.930 . S
C192 N188 1.362 . S
C192 C189 1.431 . S
C192 C202 1.476 . S
H193 C187 0.929 . S
C194 O185 1.250 . S
C194 O186 1.258 . S
O195 Mn180 2.162 . S
O195 C183 1.281 . S
O196 Mn180 2.297 . S
O196 C183 1.236 . S
N197 Mn181 2.282 . S
N197 C198 1.328 . S
N197 C202 1.318 . S
C198 N197 1.328 . S
C198 C199 1.457 1_556 S
C198 H203 0.929 . S
C199 C198 1.457 1_554 S
C199 C200 1.291 . S
C199 H212 0.931 . S
C200 C199 1.291 . S
C200 C201 1.373 1_554 S
C200 H213 0.929 . S
C201 C200 1.373 1_556 S
C201 C202 1.396 . S
C201 C208 1.403 1_556 S
C202 C192 1.476 . S
C202 N197 1.318 . S
C202 C201 1.396 . S
H203 C198 0.929 . S
O204 Mn180 2.385 . S
O204 C182 1.234 . S
O205 Mn180 2.209 . S
O205 Mn181 2.215 . S
O205 C182 1.283 . S
O206 Mn180 2.094 . S
O206 C184 1.240 . S
O207 Mn181 2.117 . S
O207 C184 1.264 . S
C208 C201 1.403 1_554 S
C208 C209 1.399 1_554 S
C208 H214 0.929 . S
C209 C189 1.449 . S
C209 C208 1.399 1_556 S
C209 H215 0.930 . S
H210 C190 0.931 . S
H211 C191 0.930 . S
H212 C199 0.931 . S
H213 C200 0.929 . S
H214 C208 0.929 . S
H215 C209 0.930 . S
Mn216 O221 2.095 . S
Mn216 O231 2.162 . S
Mn216 O232 2.297 . S
Mn216 O240 2.385 . S
Mn216 O241 2.209 . S
Mn216 O242 2.094 . S
Mn217 O222 2.121 . S
Mn217 N224 2.257 . S
Mn217 N233 2.282 . S
Mn217 O241 2.215 . S
Mn217 O243 2.117 . S
C218 O240 1.234 . S
C218 O241 1.283 . S
C219 O231 1.281 . S
C219 O232 1.236 . S
C220 O242 1.240 . S
C220 O243 1.264 . S
O221 Mn216 2.095 . S
O221 C230 1.250 . S
O222 Mn217 2.121 . S
O222 C230 1.258 . S
C223 N224 1.326 . S
C223 C227 1.460 . S
C223 H229 0.929 . S
N224 Mn217 2.257 . S
N224 C223 1.326 . S
N224 C228 1.362 . S
C225 C226 1.258 . S
C225 C228 1.431 . S
C225 C245 1.449 . S
C226 C225 1.258 . S
C226 C227 1.477 . S
C226 H246 0.931 . S
C227 C223 1.460 . S
C227 C226 1.477 . S
C227 H247 0.930 . S
C228 N224 1.362 . S
C228 C225 1.431 . S
C228 C238 1.476 . S
H229 C223 0.929 . S
C230 O221 1.250 . S
C230 O222 1.258 . S
O231 Mn216 2.162 . S
O231 C219 1.281 . S
O232 Mn216 2.297 . S
O232 C219 1.236 . S
N233 Mn217 2.282 . S
N233 C234 1.328 . S
N233 C238 1.318 . S
C234 N233 1.328 . S
C234 C235 1.457 . S
C234 H239 0.929 . S
C235 C234 1.457 . S
C235 C236 1.291 . S
C235 H248 0.931 . S
C236 C235 1.291 . S
C236 C237 1.373 . S
C236 H249 0.929 . S
C237 C236 1.373 . S
C237 C238 1.396 . S
C237 C244 1.403 . S
C238 C228 1.476 . S
C238 N233 1.318 . S
C238 C237 1.396 . S
H239 C234 0.929 . S
O240 Mn216 2.385 . S
O240 C218 1.234 . S
O241 Mn216 2.209 . S
O241 Mn217 2.215 . S
O241 C218 1.283 . S
O242 Mn216 2.094 . S
O242 C220 1.240 . S
O243 Mn217 2.117 . S
O243 C220 1.264 . S
C244 C237 1.403 . S
C244 C245 1.399 . S
C244 H250 0.929 . S
C245 C225 1.449 . S
C245 C244 1.399 . S
C245 H251 0.930 . S
H246 C226 0.931 . S
H247 C227 0.930 . S
H248 C235 0.931 . S
H249 C236 0.929 . S
H250 C244 0.929 . S
H251 C245 0.930 . S
Mn252 O257 2.095 . S
Mn252 O267 2.162 . S
Mn252 O268 2.297 . S
Mn252 O276 2.385 1_554 S
Mn252 O277 2.209 . S
Mn252 O278 2.094 . S
Mn253 O258 2.121 . S
Mn253 N260 2.257 . S
Mn253 N269 2.282 1_554 S
Mn253 O277 2.215 . S
Mn253 O279 2.117 . S
C254 O276 1.234 . S
C254 O277 1.283 1_556 S
C255 O267 1.281 . S
C255 O268 1.236 . S
C256 O278 1.240 . S
C256 O279 1.264 . S
O257 Mn252 2.095 . S
O257 C266 1.250 . S
O258 Mn253 2.121 . S
O258 C266 1.258 . S
C259 N260 1.326 . S
C259 C263 1.460 . S
C259 H265 0.929 . S
N260 Mn253 2.257 . S
N260 C259 1.326 . S
N260 C264 1.362 1_554 S
C261 C262 1.258 1_556 S
C261 C264 1.431 . S
C261 C281 1.449 . S
C262 C261 1.258 1_554 S
C262 C263 1.477 . S
C262 H282 0.931 1_554 S
C263 C259 1.460 . S
C263 C262 1.477 . S
C263 H283 0.930 . S
C264 N260 1.362 1_556 S
C264 C261 1.431 . S
C264 C274 1.476 . S
H265 C259 0.929 . S
C266 O257 1.250 . S
C266 O258 1.258 . S
O267 Mn252 2.162 . S
O267 C255 1.281 . S
O268 Mn252 2.297 . S
O268 C255 1.236 . S
N269 Mn253 2.282 1_556 S
N269 C270 1.328 . S
N269 C274 1.318 . S
C270 N269 1.328 . S
C270 C271 1.457 . S
C270 H275 0.929 . S
C271 C270 1.457 . S
C271 C272 1.291 . S
C271 H284 0.931 . S
C272 C271 1.291 . S
C272 C273 1.373 . S
C272 H285 0.929 . S
C273 C272 1.373 . S
C273 C274 1.396 . S
C273 C280 1.403 . S
C274 C264 1.476 . S
C274 N269 1.318 . S
C274 C273 1.396 . S
H275 C270 0.929 . S
O276 Mn252 2.385 1_556 S
O276 C254 1.234 . S
O277 Mn252 2.209 . S
O277 Mn253 2.215 . S
O277 C254 1.283 1_554 S
O278 Mn252 2.094 . S
O278 C256 1.240 . S
O279 Mn253 2.117 . S
O279 C256 1.264 . S
C280 C273 1.403 . S
C280 C281 1.399 . S
C280 H286 0.929 . S
C281 C261 1.449 . S
C281 C280 1.399 . S
C281 H287 0.930 . S
H282 C262 0.931 1_556 S
H283 C263 0.930 . S
H284 C271 0.931 . S
H285 C272 0.929 . S
H286 C280 0.929 . S
H287 C281 0.930 . S
Mn288 O293 2.095 . S
Mn288 O303 2.162 . S
Mn288 O304 2.297 . S
Mn288 O312 2.385 . S
Mn288 O313 2.209 . S
Mn288 O314 2.094 . S
Mn289 O294 2.121 . S
Mn289 N296 2.257 . S
Mn289 N305 2.282 . S
Mn289 O313 2.215 . S
Mn289 O315 2.117 . S
C290 O312 1.234 . S
C290 O313 1.283 . S
C291 O303 1.281 . S
C291 O304 1.236 . S
C292 O314 1.240 . S
C292 O315 1.264 . S
O293 Mn288 2.095 . S
O293 C302 1.250 . S
O294 Mn289 2.121 . S
O294 C302 1.258 . S
C295 N296 1.326 . S
C295 C299 1.460 . S
C295 H301 0.929 . S
N296 Mn289 2.257 . S
N296 C295 1.326 . S
N296 C300 1.362 . S
C297 C298 1.258 . S
C297 C300 1.431 . S
C297 C317 1.449 . S
C298 C297 1.258 . S
C298 C299 1.477 . S
C298 H318 0.931 . S
C299 C295 1.460 . S
C299 C298 1.477 . S
C299 H319 0.930 . S
C300 N296 1.362 . S
C300 C297 1.431 . S
C300 C310 1.476 . S
H301 C295 0.929 . S
C302 O293 1.250 . S
C302 O294 1.258 . S
O303 Mn288 2.162 . S
O303 C291 1.281 . S
O304 Mn288 2.297 . S
O304 C291 1.236 . S
N305 Mn289 2.282 . S
N305 C306 1.328 . S
N305 C310 1.318 . S
C306 N305 1.328 . S
C306 C307 1.457 . S
C306 H311 0.929 . S
C307 C306 1.457 . S
C307 C308 1.291 . S
C307 H320 0.931 . S
C308 C307 1.291 . S
C308 C309 1.373 . S
C308 H321 0.929 . S
C309 C308 1.373 . S
C309 C310 1.396 . S
C309 C316 1.403 . S
C310 C300 1.476 . S
C310 N305 1.318 . S
C310 C309 1.396 . S
H311 C306 0.929 . S
O312 Mn288 2.385 . S
O312 C290 1.234 . S
O313 Mn288 2.209 . S
O313 Mn289 2.215 . S
O313 C290 1.283 . S
O314 Mn288 2.094 . S
O314 C292 1.240 . S
O315 Mn289 2.117 . S
O315 C292 1.264 . S
C316 C309 1.403 . S
C316 C317 1.399 . S
C316 H322 0.929 . S
C317 C297 1.449 . S
C317 C316 1.399 . S
C317 H323 0.930 . S
H318 C298 0.931 . S
H319 C299 0.930 . S
H320 C307 0.931 . S
H321 C308 0.929 . S
H322 C316 0.929 . S
H323 C317 0.930 . S
Mn324 O329 2.095 . S
Mn324 O339 2.162 . S
Mn324 O340 2.297 . S
Mn324 O348 2.385 . S
Mn324 O349 2.209 . S
Mn324 O350 2.094 . S
Mn325 O330 2.121 . S
Mn325 N332 2.257 . S
Mn325 N341 2.282 . S
Mn325 O349 2.215 . S
Mn325 O351 2.117 . S
C326 O348 1.234 . S
C326 O349 1.283 . S
C327 O339 1.281 . S
C327 O340 1.236 . S
C328 O350 1.240 . S
C328 O351 1.264 . S
O329 Mn324 2.095 . S
O329 C338 1.250 . S
O330 Mn325 2.121 . S
O330 C338 1.258 . S
C331 N332 1.326 . S
C331 C335 1.460 . S
C331 H337 0.929 . S
N332 Mn325 2.257 . S
N332 C331 1.326 . S
N332 C336 1.362 . S
C333 C334 1.258 . S
C333 C336 1.431 . S
C333 C353 1.449 . S
C334 C333 1.258 . S
C334 C335 1.477 . S
C334 H354 0.931 . S
C335 C331 1.460 . S
C335 C334 1.477 . S
C335 H355 0.930 . S
C336 N332 1.362 . S
C336 C333 1.431 . S
C336 C346 1.476 . S
H337 C331 0.929 . S
C338 O329 1.250 . S
C338 O330 1.258 . S
O339 Mn324 2.162 . S
O339 C327 1.281 . S
O340 Mn324 2.297 . S
O340 C327 1.236 . S
N341 Mn325 2.282 . S
N341 C342 1.328 . S
N341 C346 1.318 . S
C342 N341 1.328 . S
C342 C343 1.457 . S
C342 H347 0.929 . S
C343 C342 1.457 . S
C343 C344 1.291 . S
C343 H356 0.931 . S
C344 C343 1.291 . S
C344 C345 1.373 . S
C344 H357 0.929 . S
C345 C344 1.373 . S
C345 C346 1.396 . S
C345 C352 1.403 . S
C346 C336 1.476 . S
C346 N341 1.318 . S
C346 C345 1.396 . S
H347 C342 0.929 . S
O348 Mn324 2.385 . S
O348 C326 1.234 . S
O349 Mn324 2.209 . S
O349 Mn325 2.215 . S
O349 C326 1.283 . S
O350 Mn324 2.094 . S
O350 C328 1.240 . S
O351 Mn325 2.117 . S
O351 C328 1.264 . S
C352 C345 1.403 . S
C352 C353 1.399 . S
C352 H358 0.929 . S
C353 C333 1.449 . S
C353 C352 1.399 . S
C353 H359 0.930 . S
H354 C334 0.931 . S
H355 C335 0.930 . S
H356 C343 0.931 . S
H357 C344 0.929 . S
H358 C352 0.929 . S
H359 C353 0.930 . S
Mn360 O365 2.095 . S
Mn360 O375 2.162 . S
Mn360 O376 2.297 . S
Mn360 O384 2.385 . S
Mn360 O385 2.209 . S
Mn360 O386 2.094 . S
Mn361 O366 2.121 . S
Mn361 N368 2.257 . S
Mn361 N377 2.282 . S
Mn361 O385 2.215 . S
Mn361 O387 2.117 . S
C362 O384 1.234 . S
C362 O385 1.283 . S
C363 O375 1.281 . S
C363 O376 1.236 . S
C364 O386 1.240 . S
C364 O387 1.264 . S
O365 Mn360 2.095 . S
O365 C374 1.250 . S
O366 Mn361 2.121 . S
O366 C374 1.258 . S
C367 N368 1.326 . S
C367 C371 1.460 . S
C367 H373 0.929 . S
N368 Mn361 2.257 . S
N368 C367 1.326 . S
N368 C372 1.362 . S
C369 C370 1.258 . S
C369 C372 1.431 . S
C369 C389 1.449 . S
C370 C369 1.258 . S
C370 C371 1.477 . S
C370 H390 0.931 . S
C371 C367 1.460 . S
C371 C370 1.477 . S
C371 H391 0.930 . S
C372 N368 1.362 . S
C372 C369 1.431 . S
C372 C382 1.476 . S
H373 C367 0.929 . S
C374 O365 1.250 . S
C374 O366 1.258 . S
O375 Mn360 2.162 . S
O375 C363 1.281 . S
O376 Mn360 2.297 . S
O376 C363 1.236 . S
N377 Mn361 2.282 . S
N377 C378 1.328 . S
N377 C382 1.318 . S
C378 N377 1.328 . S
C378 C379 1.457 . S
C378 H383 0.929 . S
C379 C378 1.457 . S
C379 C380 1.291 . S
C379 H392 0.931 . S
C380 C379 1.291 . S
C380 C381 1.373 . S
C380 H393 0.929 . S
C381 C380 1.373 . S
C381 C382 1.396 . S
C381 C388 1.403 . S
C382 C372 1.476 . S
C382 N377 1.318 . S
C382 C381 1.396 . S
H383 C378 0.929 . S
O384 Mn360 2.385 . S
O384 C362 1.234 . S
O385 Mn360 2.209 . S
O385 Mn361 2.215 . S
O385 C362 1.283 . S
O386 Mn360 2.094 . S
O386 C364 1.240 . S
O387 Mn361 2.117 . S
O387 C364 1.264 . S
C388 C381 1.403 . S
C388 C389 1.399 . S
C388 H394 0.929 . S
C389 C369 1.449 . S
C389 C388 1.399 . S
C389 H395 0.930 . S
H390 C370 0.931 . S
H391 C371 0.930 . S
H392 C379 0.931 . S
H393 C380 0.929 . S
H394 C388 0.929 . S
H395 C389 0.930 . S
Mn396 O401 2.095 . S
Mn396 O411 2.162 . S
Mn396 O412 2.297 . S
Mn396 O420 2.385 . S
Mn396 O421 2.209 . S
Mn396 O422 2.094 . S
Mn397 O402 2.121 . S
Mn397 N404 2.257 . S
Mn397 N413 2.282 . S
Mn397 O421 2.215 . S
Mn397 O423 2.117 . S
C398 O420 1.234 . S
C398 O421 1.283 . S
C399 O411 1.281 . S
C399 O412 1.236 . S
C400 O422 1.240 . S
C400 O423 1.264 . S
O401 Mn396 2.095 . S
O401 C410 1.250 . S
O402 Mn397 2.121 . S
O402 C410 1.258 . S
C403 N404 1.326 . S
C403 C407 1.460 . S
C403 H409 0.929 . S
N404 Mn397 2.257 . S
N404 C403 1.326 . S
N404 C408 1.362 . S
C405 C406 1.258 . S
C405 C408 1.431 . S
C405 C425 1.449 . S
C406 C405 1.258 . S
C406 C407 1.477 . S
C406 H426 0.931 . S
C407 C403 1.460 . S
C407 C406 1.477 . S
C407 H427 0.930 . S
C408 N404 1.362 . S
C408 C405 1.431 . S
C408 C418 1.476 . S
H409 C403 0.929 . S
C410 O401 1.250 . S
C410 O402 1.258 . S
O411 Mn396 2.162 . S
O411 C399 1.281 . S
O412 Mn396 2.297 . S
O412 C399 1.236 . S
N413 Mn397 2.282 . S
N413 C414 1.328 . S
N413 C418 1.318 . S
C414 N413 1.328 . S
C414 C415 1.457 . S
C414 H419 0.929 . S
C415 C414 1.457 . S
C415 C416 1.291 . S
C415 H428 0.931 . S
C416 C415 1.291 . S
C416 C417 1.373 . S
C416 H429 0.929 . S
C417 C416 1.373 . S
C417 C418 1.396 . S
C417 C424 1.403 . S
C418 C408 1.476 . S
C418 N413 1.318 . S
C418 C417 1.396 . S
H419 C414 0.929 . S
O420 Mn396 2.385 . S
O420 C398 1.234 . S
O421 Mn396 2.209 . S
O421 Mn397 2.215 . S
O421 C398 1.283 . S
O422 Mn396 2.094 . S
O422 C400 1.240 . S
O423 Mn397 2.117 . S
O423 C400 1.264 . S
C424 C417 1.403 . S
C424 C425 1.399 . S
C424 H430 0.929 . S
C425 C405 1.449 . S
C425 C424 1.399 . S
C425 H431 0.930 . S
H426 C406 0.931 . S
H427 C407 0.930 . S
H428 C415 0.931 . S
H429 C416 0.929 . S
H430 C424 0.929 . S
H431 C425 0.930 . S
C432 C433 1.349 . S
C432 C434 1.327 . S
C432 H457 0.950 . S
C433 C432 1.349 . S
C433 C449 1.349 . S
C434 C432 1.327 . S
C434 C453 1.429 . S
C434 H458 0.950 . S
C435 C452 1.574 . S
C435 C454 1.368 . S
C435 H459 0.949 . S
H436 C440 0.949 . S
C437 C438 1.349 . S
C437 C439 1.327 . S
C437 H460 0.950 . S
C438 C437 1.349 . S
C438 C450 1.349 . S
C439 C437 1.327 . S
C439 C455 1.429 . S
C439 H461 0.950 . S
C440 H436 0.949 . S
C440 C448 1.574 . S
C440 C456 1.368 . S
H441 C449 0.950 . S
H442 C447 0.950 . S
H443 C448 0.949 . S
H444 C450 0.950 . S
H445 C451 0.950 . S
H446 C452 0.949 . S
C447 H442 0.950 . S
C447 C449 1.327 . S
C447 C453 1.429 . S
C448 C440 1.574 . S
C448 H443 0.949 . S
C448 C454 1.368 . S
C449 C433 1.349 . S
C449 H441 0.950 . S
C449 C447 1.327 . S
C450 C438 1.349 . S
C450 H444 0.950 . S
C450 C451 1.327 . S
C451 H445 0.950 . S
C451 C450 1.327 . S
C451 C455 1.429 . S
C452 C435 1.574 . S
C452 H446 0.949 . S
C452 C456 1.368 . S
C453 C434 1.429 . S
C453 C447 1.429 . S
C453 C454 1.523 . S
C454 C435 1.368 . S
C454 C448 1.368 . S
C454 C453 1.523 . S
C455 C439 1.429 . S
C455 C451 1.429 . S
C455 C456 1.523 . S
C456 C440 1.368 . S
C456 C452 1.368 . S
C456 C455 1.523 . S
H457 C432 0.950 . S
H458 C434 0.950 . S
H459 C435 0.949 . S
H460 C437 0.950 . S
H461 C439 0.950 . S
C462 C463 1.349 . S
C462 C464 1.327 . S
C462 H487 0.950 . S
C463 C462 1.349 . S
C463 C479 1.349 . S
C464 C462 1.327 . S
C464 C483 1.429 . S
C464 H488 0.950 . S
C465 C482 1.574 . S
C465 C484 1.368 . S
C465 H489 0.949 . S
H466 C470 0.949 . S
C467 C468 1.349 . S
C467 C469 1.327 . S
C467 H490 0.950 . S
C468 C467 1.349 . S
C468 C480 1.349 . S
C469 C467 1.327 . S
C469 C485 1.429 . S
C469 H491 0.950 . S
C470 H466 0.949 . S
C470 C478 1.574 . S
C470 C486 1.368 . S
H471 C479 0.950 . S
H472 C477 0.950 . S
H473 C478 0.949 . S
H474 C480 0.950 . S
H475 C481 0.950 . S
H476 C482 0.949 . S
C477 H472 0.950 . S
C477 C479 1.327 . S
C477 C483 1.429 . S
C478 C470 1.574 . S
C478 H473 0.949 . S
C478 C484 1.368 . S
C479 C463 1.349 . S
C479 H471 0.950 . S
C479 C477 1.327 . S
C480 C468 1.349 . S
C480 H474 0.950 . S
C480 C481 1.327 . S
C481 H475 0.950 . S
C481 C480 1.327 . S
C481 C485 1.429 . S
C482 C465 1.574 . S
C482 H476 0.949 . S
C482 C486 1.368 . S
C483 C464 1.429 . S
C483 C477 1.429 . S
C483 C484 1.523 . S
C484 C465 1.368 . S
C484 C478 1.368 . S
C484 C483 1.523 . S
C485 C469 1.429 . S
C485 C481 1.429 . S
C485 C486 1.523 . S
C486 C470 1.368 . S
C486 C482 1.368 . S
C486 C485 1.523 . S
H487 C462 0.950 . S
H488 C464 0.950 . S
H489 C465 0.949 . S
H490 C467 0.950 . S
H491 C469 0.950 . S
C492 C493 1.349 . S
C492 C494 1.327 . S
C492 H517 0.950 . S
C493 C492 1.349 . S
C493 C509 1.349 . S
C494 C492 1.327 . S
C494 C513 1.429 . S
C494 H518 0.950 . S
C495 C512 1.574 . S
C495 C514 1.368 . S
C495 H519 0.949 . S
H496 C500 0.949 . S
C497 C498 1.349 . S
C497 C499 1.327 . S
C497 H520 0.950 . S
C498 C497 1.349 . S
C498 C510 1.349 . S
C499 C497 1.327 . S
C499 C515 1.429 . S
C499 H521 0.950 . S
C500 H496 0.949 . S
C500 C508 1.574 . S
C500 C516 1.368 . S
H501 C509 0.950 . S
H502 C507 0.950 . S
H503 C508 0.949 . S
H504 C510 0.950 . S
H505 C511 0.950 . S
H506 C512 0.949 . S
C507 H502 0.950 . S
C507 C509 1.327 . S
C507 C513 1.429 . S
C508 C500 1.574 . S
C508 H503 0.949 . S
C508 C514 1.368 . S
C509 C493 1.349 . S
C509 H501 0.950 . S
C509 C507 1.327 . S
C510 C498 1.349 . S
C510 H504 0.950 . S
C510 C511 1.327 . S
C511 H505 0.950 . S
C511 C510 1.327 . S
C511 C515 1.429 . S
C512 C495 1.574 . S
C512 H506 0.949 . S
C512 C516 1.368 . S
C513 C494 1.429 . S
C513 C507 1.429 . S
C513 C514 1.523 . S
C514 C495 1.368 . S
C514 C508 1.368 . S
C514 C513 1.523 . S
C515 C499 1.429 . S
C515 C511 1.429 . S
C515 C516 1.523 . S
C516 C500 1.368 . S
C516 C512 1.368 . S
C516 C515 1.523 . S
H517 C492 0.950 . S
H518 C494 0.950 . S
H519 C495 0.949 . S
H520 C497 0.950 . S
H521 C499 0.950 . S
C522 C523 1.349 . S
C522 C524 1.327 . S
C522 H547 0.950 . S
C523 C522 1.349 . S
C523 C539 1.349 . S
C524 C522 1.327 . S
C524 C543 1.429 . S
C524 H548 0.950 . S
C525 C542 1.574 . S
C525 C544 1.368 . S
C525 H549 0.949 . S
H526 C530 0.949 . S
C527 C528 1.349 . S
C527 C529 1.327 . S
C527 H550 0.950 . S
C528 C527 1.349 . S
C528 C540 1.349 . S
C529 C527 1.327 . S
C529 C545 1.429 . S
C529 H551 0.950 . S
C530 H526 0.949 . S
C530 C538 1.574 . S
C530 C546 1.368 . S
H531 C539 0.950 . S
H532 C537 0.950 . S
H533 C538 0.949 . S
H534 C540 0.950 . S
H535 C541 0.950 . S
H536 C542 0.949 . S
C537 H532 0.950 . S
C537 C539 1.327 . S
C537 C543 1.429 . S
C538 C530 1.574 . S
C538 H533 0.949 . S
C538 C544 1.368 . S
C539 C523 1.349 . S
C539 H531 0.950 . S
C539 C537 1.327 . S
C540 C528 1.349 . S
C540 H534 0.950 . S
C540 C541 1.327 . S
C541 H535 0.950 . S
C541 C540 1.327 . S
C541 C545 1.429 . S
C542 C525 1.574 . S
C542 H536 0.949 . S
C542 C546 1.368 . S
C543 C524 1.429 . S
C543 C537 1.429 . S
C543 C544 1.523 . S
C544 C525 1.368 . S
C544 C538 1.368 . S
C544 C543 1.523 . S
C545 C529 1.429 . S
C545 C541 1.429 . S
C545 C546 1.523 . S
C546 C530 1.368 . S
C546 C542 1.368 . S
C546 C545 1.523 . S
H547 C522 0.950 . S
H548 C524 0.950 . S
H549 C525 0.949 . S
H550 C527 0.950 . S
H551 C529 0.950 . S
C552 C553 1.349 . S
C552 C554 1.327 . S
C552 H577 0.950 . S
C553 C552 1.349 . S
C553 C569 1.349 . S
C554 C552 1.327 . S
C554 C573 1.429 . S
C554 H578 0.950 . S
C555 C572 1.574 . S
C555 C574 1.368 . S
C555 H579 0.949 . S
H556 C560 0.949 . S
C557 C558 1.349 . S
C557 C559 1.327 . S
C557 H580 0.950 . S
C558 C557 1.349 . S
C558 C570 1.349 . S
C559 C557 1.327 . S
C559 C575 1.429 . S
C559 H581 0.950 . S
C560 H556 0.949 . S
C560 C568 1.574 1_556 S
C560 C576 1.368 . S
H561 C569 0.950 . S
H562 C567 0.950 . S
H563 C568 0.949 . S
H564 C570 0.950 . S
H565 C571 0.950 . S
H566 C572 0.949 . S
C567 H562 0.950 . S
C567 C569 1.327 . S
C567 C573 1.429 . S
C568 C560 1.574 1_554 S
C568 H563 0.949 . S
C568 C574 1.368 1_554 S
C569 C553 1.349 . S
C569 H561 0.950 . S
C569 C567 1.327 . S
C570 C558 1.349 . S
C570 H564 0.950 . S
C570 C571 1.327 . S
C571 H565 0.950 . S
C571 C570 1.327 . S
C571 C575 1.429 . S
C572 C555 1.574 . S
C572 H566 0.949 . S
C572 C576 1.368 . S
C573 C554 1.429 . S
C573 C567 1.429 . S
C573 C574 1.523 1_554 S
C574 C555 1.368 . S
C574 C568 1.368 1_556 S
C574 C573 1.523 1_556 S
C575 C559 1.429 . S
C575 C571 1.429 . S
C575 C576 1.523 . S
C576 C560 1.368 . S
C576 C572 1.368 . S
C576 C575 1.523 . S
H577 C552 0.950 . S
H578 C554 0.950 . S
H579 C555 0.949 . S
H580 C557 0.950 . S
H581 C559 0.950 . S
C582 C583 1.349 . S
C582 C584 1.327 . S
C582 H607 0.950 . S
C583 C582 1.349 . S
C583 C599 1.349 . S
C584 C582 1.327 . S
C584 C603 1.429 . S
C584 H608 0.950 . S
C585 C602 1.574 . S
C585 C604 1.368 . S
C585 H609 0.949 . S
H586 C590 0.949 . S
C587 C588 1.349 1_554 S
C587 C589 1.327 . S
C587 H610 0.950 1_554 S
C588 C587 1.349 1_556 S
C588 C600 1.349 . S
C589 C587 1.327 . S
C589 C605 1.429 . S
C589 H611 0.950 . S
C590 H586 0.949 . S
C590 C598 1.574 . S
C590 C606 1.368 . S
H591 C599 0.950 . S
H592 C597 0.950 . S
H593 C598 0.949 . S
H594 C600 0.950 . S
H595 C601 0.950 . S
H596 C602 0.949 . S
C597 H592 0.950 . S
C597 C599 1.327 . S
C597 C603 1.429 . S
C598 C590 1.574 . S
C598 H593 0.949 . S
C598 C604 1.368 . S
C599 C583 1.349 . S
C599 H591 0.950 . S
C599 C597 1.327 . S
C600 C588 1.349 . S
C600 H594 0.950 . S
C600 C601 1.327 1_556 S
C601 H595 0.950 . S
C601 C600 1.327 1_554 S
C601 C605 1.429 . S
C602 C585 1.574 . S
C602 H596 0.949 . S
C602 C606 1.368 . S
C603 C584 1.429 . S
C603 C597 1.429 . S
C603 C604 1.523 . S
C604 C585 1.368 . S
C604 C598 1.368 . S
C604 C603 1.523 . S
C605 C589 1.429 . S
C605 C601 1.429 . S
C605 C606 1.523 . S
C606 C590 1.368 . S
C606 C602 1.368 . S
C606 C605 1.523 . S
H607 C582 0.950 . S
H608 C584 0.950 . S
H609 C585 0.949 . S
H610 C587 0.950 1_556 S
H611 C589 0.950 . S
C612 C613 1.349 . S
C612 C614 1.327 . S
C612 H637 0.950 . S
C613 C612 1.349 . S
C613 C629 1.349 . S
C614 C612 1.327 . S
C614 C633 1.429 . S
C614 H638 0.950 . S
C615 C632 1.574 . S
C615 C634 1.368 . S
C615 H639 0.949 . S
H616 C620 0.949 . S
C617 C618 1.349 . S
C617 C619 1.327 . S
C617 H640 0.950 . S
C618 C617 1.349 . S
C618 C630 1.349 . S
C619 C617 1.327 . S
C619 C635 1.429 . S
C619 H641 0.950 . S
C620 H616 0.949 . S
C620 C628 1.574 . S
C620 C636 1.368 . S
H621 C629 0.950 . S
H622 C627 0.950 . S
H623 C628 0.949 . S
H624 C630 0.950 . S
H625 C631 0.950 . S
H626 C632 0.949 . S
C627 H622 0.950 . S
C627 C629 1.327 . S
C627 C633 1.429 . S
C628 C620 1.574 . S
C628 H623 0.949 . S
C628 C634 1.368 . S
C629 C613 1.349 . S
C629 H621 0.950 . S
C629 C627 1.327 . S
C630 C618 1.349 . S
C630 H624 0.950 . S
C630 C631 1.327 . S
C631 H625 0.950 . S
C631 C630 1.327 . S
C631 C635 1.429 . S
C632 C615 1.574 . S
C632 H626 0.949 . S
C632 C636 1.368 . S
C633 C614 1.429 . S
C633 C627 1.429 . S
C633 C634 1.523 . S
C634 C615 1.368 . S
C634 C628 1.368 . S
C634 C633 1.523 . S
C635 C619 1.429 . S
C635 C631 1.429 . S
C635 C636 1.523 . S
C636 C620 1.368 . S
C636 C632 1.368 . S
C636 C635 1.523 . S
H637 C612 0.950 . S
H638 C614 0.950 . S
H639 C615 0.949 . S
H640 C617 0.950 . S
H641 C619 0.950 . S
C642 C643 1.349 . S
C642 C644 1.327 . S
C642 H667 0.950 . S
C643 C642 1.349 . S
C643 C659 1.349 . S
C644 C642 1.327 . S
C644 C663 1.429 . S
C644 H668 0.950 . S
C645 C662 1.574 . S
C645 C664 1.368 . S
C645 H669 0.949 . S
H646 C650 0.949 . S
C647 C648 1.349 . S
C647 C649 1.327 . S
C647 H670 0.950 . S
C648 C647 1.349 . S
C648 C660 1.349 . S
C649 C647 1.327 . S
C649 C665 1.429 . S
C649 H671 0.950 . S
C650 H646 0.949 . S
C650 C658 1.574 . S
C650 C666 1.368 . S
H651 C659 0.950 . S
H652 C657 0.950 . S
H653 C658 0.949 . S
H654 C660 0.950 . S
H655 C661 0.950 . S
H656 C662 0.949 . S
C657 H652 0.950 . S
C657 C659 1.327 . S
C657 C663 1.429 . S
C658 C650 1.574 . S
C658 H653 0.949 . S
C658 C664 1.368 . S
C659 C643 1.349 . S
C659 H651 0.950 . S
C659 C657 1.327 . S
C660 C648 1.349 . S
C660 H654 0.950 . S
C660 C661 1.327 . S
C661 H655 0.950 . S
C661 C660 1.327 . S
C661 C665 1.429 . S
C662 C645 1.574 . S
C662 H656 0.949 . S
C662 C666 1.368 . S
C663 C644 1.429 . S
C663 C657 1.429 . S
C663 C664 1.523 . S
C664 C645 1.368 . S
C664 C658 1.368 . S
C664 C663 1.523 . S
C665 C649 1.429 . S
C665 C661 1.429 . S
C665 C666 1.523 . S
C666 C650 1.368 . S
C666 C662 1.368 . S
C666 C665 1.523 . S
H667 C642 0.950 . S
H668 C644 0.950 . S
H669 C645 0.949 . S
H670 C647 0.950 . S
H671 C649 0.950 . S
C672 C673 1.349 . S
C672 C674 1.327 . S
C672 H697 0.950 . S
C673 C672 1.349 . S
C673 C689 1.349 . S
C674 C672 1.327 . S
C674 C693 1.429 . S
C674 H698 0.950 . S
C675 C692 1.574 . S
C675 C694 1.368 . S
C675 H699 0.949 . S
H676 C680 0.949 . S
C677 C678 1.349 . S
C677 C679 1.327 . S
C677 H700 0.950 . S
C678 C677 1.349 . S
C678 C690 1.349 . S
C679 C677 1.327 . S
C679 C695 1.429 . S
C679 H701 0.950 . S
C680 H676 0.949 . S
C680 C688 1.574 . S
C680 C696 1.368 . S
H681 C689 0.950 . S
H682 C687 0.950 . S
H683 C688 0.949 . S
H684 C690 0.950 . S
H685 C691 0.950 . S
H686 C692 0.949 . S
C687 H682 0.950 . S
C687 C689 1.327 . S
C687 C693 1.429 . S
C688 C680 1.574 . S
C688 H683 0.949 . S
C688 C694 1.368 . S
C689 C673 1.349 . S
C689 H681 0.950 . S
C689 C687 1.327 . S
C690 C678 1.349 . S
C690 H684 0.950 . S
C690 C691 1.327 . S
C691 H685 0.950 . S
C691 C690 1.327 . S
C691 C695 1.429 . S
C692 C675 1.574 . S
C692 H686 0.949 . S
C692 C696 1.368 . S
C693 C674 1.429 . S
C693 C687 1.429 . S
C693 C694 1.523 . S
C694 C675 1.368 . S
C694 C688 1.368 . S
C694 C693 1.523 . S
C695 C679 1.429 . S
C695 C691 1.429 . S
C695 C696 1.523 . S
C696 C680 1.368 . S
C696 C692 1.368 . S
C696 C695 1.523 . S
H697 C672 0.950 . S
H698 C674 0.950 . S
H699 C675 0.949 . S
H700 C677 0.950 . S
H701 C679 0.950 . S
C702 C703 1.349 . S
C702 C704 1.327 . S
C702 H727 0.950 . S
C703 C702 1.349 . S
C703 C719 1.349 . S
C704 C702 1.327 . S
C704 C723 1.429 . S
C704 H728 0.950 . S
C705 C722 1.574 . S
C705 C724 1.368 . S
C705 H729 0.949 . S
H706 C710 0.949 . S
C707 C708 1.349 . S
C707 C709 1.327 . S
C707 H730 0.950 . S
C708 C707 1.349 . S
C708 C720 1.349 . S
C709 C707 1.327 . S
C709 C725 1.429 . S
C709 H731 0.950 . S
C710 H706 0.949 . S
C710 C718 1.574 . S
C710 C726 1.368 . S
H711 C719 0.950 . S
H712 C717 0.950 . S
H713 C718 0.949 . S
H714 C720 0.950 . S
H715 C721 0.950 . S
H716 C722 0.949 . S
C717 H712 0.950 . S
C717 C719 1.327 . S
C717 C723 1.429 . S
C718 C710 1.574 . S
C718 H713 0.949 . S
C718 C724 1.368 . S
C719 C703 1.349 . S
C719 H711 0.950 . S
C719 C717 1.327 . S
C720 C708 1.349 . S
C720 H714 0.950 . S
C720 C721 1.327 . S
C721 H715 0.950 . S
C721 C720 1.327 . S
C721 C725 1.429 . S
C722 C705 1.574 . S
C722 H716 0.949 . S
C722 C726 1.368 . S
C723 C704 1.429 . S
C723 C717 1.429 . S
C723 C724 1.523 . S
C724 C705 1.368 . S
C724 C718 1.368 . S
C724 C723 1.523 . S
C725 C709 1.429 . S
C725 C721 1.429 . S
C725 C726 1.523 . S
C726 C710 1.368 . S
C726 C722 1.368 . S
C726 C725 1.523 . S
H727 C702 0.950 . S
H728 C704 0.950 . S
H729 C705 0.949 . S
H730 C707 0.950 . S
H731 C709 0.950 . S
C732 C733 1.349 . S
C732 C734 1.327 . S
C732 H757 0.950 . S
C733 C732 1.349 . S
C733 C749 1.349 . S
C734 C732 1.327 . S
C734 C753 1.429 . S
C734 H758 0.950 . S
C735 C752 1.574 . S
C735 C754 1.368 . S
C735 H759 0.949 . S
H736 C740 0.949 . S
C737 C738 1.349 . S
C737 C739 1.327 . S
C737 H760 0.950 . S
C738 C737 1.349 . S
C738 C750 1.349 . S
C739 C737 1.327 . S
C739 C755 1.429 . S
C739 H761 0.950 . S
C740 H736 0.949 . S
C740 C748 1.574 . S
C740 C756 1.368 . S
H741 C749 0.950 . S
H742 C747 0.950 . S
H743 C748 0.949 . S
H744 C750 0.950 . S
H745 C751 0.950 . S
H746 C752 0.949 . S
C747 H742 0.950 . S
C747 C749 1.327 . S
C747 C753 1.429 . S
C748 C740 1.574 . S
C748 H743 0.949 . S
C748 C754 1.368 . S
C749 C733 1.349 . S
C749 H741 0.950 . S
C749 C747 1.327 . S
C750 C738 1.349 . S
C750 H744 0.950 . S
C750 C751 1.327 . S
C751 H745 0.950 . S
C751 C750 1.327 . S
C751 C755 1.429 . S
C752 C735 1.574 . S
C752 H746 0.949 . S
C752 C756 1.368 . S
C753 C734 1.429 . S
C753 C747 1.429 . S
C753 C754 1.523 . S
C754 C735 1.368 . S
C754 C748 1.368 . S
C754 C753 1.523 . S
C755 C739 1.429 . S
C755 C751 1.429 . S
C755 C756 1.523 . S
C756 C740 1.368 . S
C756 C752 1.368 . S
C756 C755 1.523 . S
H757 C732 0.950 . S
H758 C734 0.950 . S
H759 C735 0.949 . S
H760 C737 0.950 . S
H761 C739 0.950 . S
C762 C763 1.349 . S
C762 C764 1.327 . S
C762 H787 0.950 . S
C763 C762 1.349 . S
C763 C779 1.349 . S
C764 C762 1.327 . S
C764 C783 1.429 . S
C764 H788 0.950 . S
C765 C782 1.574 . S
C765 C784 1.368 . S
C765 H789 0.949 . S
H766 C770 0.949 1_554 S
C767 C768 1.349 1_556 S
C767 C769 1.327 . S
C767 H790 0.950 . S
C768 C767 1.349 1_554 S
C768 C780 1.349 . S
C769 C767 1.327 . S
C769 C785 1.429 . S
C769 H791 0.950 . S
C770 H766 0.949 1_556 S
C770 C778 1.574 . S
C770 C786 1.368 . S
H771 C779 0.950 . S
H772 C777 0.950 . S
H773 C778 0.949 . S
H774 C780 0.950 . S
H775 C781 0.950 . S
H776 C782 0.949 . S
C777 H772 0.950 . S
C777 C779 1.327 . S
C777 C783 1.429 . S
C778 C770 1.574 . S
C778 H773 0.949 . S
C778 C784 1.368 . S
C779 C763 1.349 . S
C779 H771 0.950 . S
C779 C777 1.327 . S
C780 C768 1.349 . S
C780 H774 0.950 . S
C780 C781 1.327 . S
C781 H775 0.950 . S
C781 C780 1.327 . S
C781 C785 1.429 1_554 S
C782 C765 1.574 . S
C782 H776 0.949 . S
C782 C786 1.368 . S
C783 C764 1.429 . S
C783 C777 1.429 . S
C783 C784 1.523 . S
C784 C765 1.368 . S
C784 C778 1.368 . S
C784 C783 1.523 . S
C785 C769 1.429 . S
C785 C781 1.429 1_556 S
C785 C786 1.523 . S
C786 C770 1.368 . S
C786 C782 1.368 . S
C786 C785 1.523 . S
H787 C762 0.950 . S
H788 C764 0.950 . S
H789 C765 0.949 . S
H790 C767 0.950 . S
H791 C769 0.950 . S
C792 C793 1.349 . S
C792 C794 1.327 . S
C792 H817 0.950 . S
C793 C792 1.349 . S
C793 C809 1.349 . S
C794 C792 1.327 . S
C794 C813 1.429 . S
C794 H818 0.950 . S
C795 C812 1.574 . S
C795 C814 1.368 . S
C795 H819 0.949 . S
H796 C800 0.949 . S
C797 C798 1.349 . S
C797 C799 1.327 . S
C797 H820 0.950 . S
C798 C797 1.349 . S
C798 C810 1.349 . S
C799 C797 1.327 . S
C799 C815 1.429 . S
C799 H821 0.950 . S
C800 H796 0.949 . S
C800 C808 1.574 . S
C800 C816 1.368 . S
H801 C809 0.950 . S
H802 C807 0.950 . S
H803 C808 0.949 . S
H804 C810 0.950 . S
H805 C811 0.950 . S
H806 C812 0.949 . S
C807 H802 0.950 . S
C807 C809 1.327 . S
C807 C813 1.429 . S
C808 C800 1.574 . S
C808 H803 0.949 . S
C808 C814 1.368 . S
C809 C793 1.349 . S
C809 H801 0.950 . S
C809 C807 1.327 . S
C810 C798 1.349 . S
C810 H804 0.950 . S
C810 C811 1.327 . S
C811 H805 0.950 . S
C811 C810 1.327 . S
C811 C815 1.429 . S
C812 C795 1.574 . S
C812 H806 0.949 . S
C812 C816 1.368 . S
C813 C794 1.429 . S
C813 C807 1.429 . S
C813 C814 1.523 . S
C814 C795 1.368 . S
C814 C808 1.368 . S
C814 C813 1.523 . S
C815 C799 1.429 . S
C815 C811 1.429 . S
C815 C816 1.523 . S
C816 C800 1.368 . S
C816 C812 1.368 . S
C816 C815 1.523 . S
H817 C792 0.950 . S
H818 C794 0.950 . S
H819 C795 0.949 . S
H820 C797 0.950 . S
H821 C799 0.950 . S
C822 C823 1.349 . S
C822 C824 1.327 . S
C822 H847 0.950 . S
C823 C822 1.349 . S
C823 C839 1.349 . S
C824 C822 1.327 . S
C824 C843 1.429 . S
C824 H848 0.950 . S
C825 C842 1.574 . S
C825 C844 1.368 . S
C825 H849 0.949 . S
H826 C830 0.949 1_554 S
C827 C828 1.349 . S
C827 C829 1.327 . S
C827 H850 0.950 . S
C828 C827 1.349 . S
C828 C840 1.349 . S
C829 C827 1.327 . S
C829 C845 1.429 . S
C829 H851 0.950 . S
C830 H826 0.949 1_556 S
C830 C838 1.574 . S
C830 C846 1.368 . S
H831 C839 0.950 . S
H832 C837 0.950 . S
H833 C838 0.949 . S
H834 C840 0.950 . S
H835 C841 0.950 . S
H836 C842 0.949 . S
C837 H832 0.950 . S
C837 C839 1.327 . S
C837 C843 1.429 . S
C838 C830 1.574 . S
C838 H833 0.949 . S
C838 C844 1.368 . S
C839 C823 1.349 . S
C839 H831 0.950 . S
C839 C837 1.327 . S
C840 C828 1.349 . S
C840 H834 0.950 . S
C840 C841 1.327 . S
C841 H835 0.950 . S
C841 C840 1.327 . S
C841 C845 1.429 . S
C842 C825 1.574 . S
C842 H836 0.949 . S
C842 C846 1.368 . S
C843 C824 1.429 . S
C843 C837 1.429 . S
C843 C844 1.523 . S
C844 C825 1.368 . S
C844 C838 1.368 . S
C844 C843 1.523 . S
C845 C829 1.429 . S
C845 C841 1.429 . S
C845 C846 1.523 1_554 S
C846 C830 1.368 . S
C846 C842 1.368 . S
C846 C845 1.523 1_556 S
H847 C822 0.950 . S
H848 C824 0.950 . S
H849 C825 0.949 . S
H850 C827 0.950 . S
H851 C829 0.950 . S
C852 C853 1.349 . S
C852 C854 1.327 1_556 S
C852 H877 0.950 . S
C853 C852 1.349 . S
C853 C869 1.349 1_556 S
C854 C852 1.327 1_554 S
C854 C873 1.429 . S
C854 H878 0.950 . S
C855 C872 1.574 . S
C855 C874 1.368 . S
C855 H879 0.949 . S
H856 C860 0.949 . S
C857 C858 1.349 . S
C857 C859 1.327 . S
C857 H880 0.950 . S
C858 C857 1.349 . S
C858 C870 1.349 . S
C859 C857 1.327 . S
C859 C875 1.429 . S
C859 H881 0.950 . S
C860 H856 0.949 . S
C860 C868 1.574 . S
C860 C876 1.368 . S
H861 C869 0.950 . S
H862 C867 0.950 . S
H863 C868 0.949 . S
H864 C870 0.950 . S
H865 C871 0.950 . S
H866 C872 0.949 . S
C867 H862 0.950 . S
C867 C869 1.327 . S
C867 C873 1.429 . S
C868 C860 1.574 . S
C868 H863 0.949 . S
C868 C874 1.368 . S
C869 C853 1.349 1_554 S
C869 H861 0.950 . S
C869 C867 1.327 . S
C870 C858 1.349 . S
C870 H864 0.950 . S
C870 C871 1.327 . S
C871 H865 0.950 . S
C871 C870 1.327 . S
C871 C875 1.429 . S
C872 C855 1.574 . S
C872 H866 0.949 . S
C872 C876 1.368 . S
C873 C854 1.429 . S
C873 C867 1.429 . S
C873 C874 1.523 . S
C874 C855 1.368 . S
C874 C868 1.368 . S
C874 C873 1.523 . S
C875 C859 1.429 . S
C875 C871 1.429 . S
C875 C876 1.523 . S
C876 C860 1.368 . S
C876 C872 1.368 . S
C876 C875 1.523 . S
H877 C852 0.950 . S
H878 C854 0.950 . S
H879 C855 0.949 . S
H880 C857 0.950 . S
H881 C859 0.950 . S
C882 C883 1.349 . S
C882 C884 1.327 . S
C882 H907 0.950 . S
C883 C882 1.349 . S
C883 C899 1.349 . S
C884 C882 1.327 . S
C884 C903 1.429 . S
C884 H908 0.950 . S
C885 C902 1.574 . S
C885 C904 1.368 . S
C885 H909 0.949 . S
H886 C890 0.949 . S
C887 C888 1.349 . S
C887 C889 1.327 . S
C887 H910 0.950 . S
C888 C887 1.349 . S
C888 C900 1.349 . S
C889 C887 1.327 . S
C889 C905 1.429 . S
C889 H911 0.950 . S
C890 H886 0.949 . S
C890 C898 1.574 . S
C890 C906 1.368 . S
H891 C899 0.950 . S
H892 C897 0.950 . S
H893 C898 0.949 . S
H894 C900 0.950 . S
H895 C901 0.950 . S
H896 C902 0.949 . S
C897 H892 0.950 . S
C897 C899 1.327 . S
C897 C903 1.429 . S
C898 C890 1.574 . S
C898 H893 0.949 . S
C898 C904 1.368 . S
C899 C883 1.349 . S
C899 H891 0.950 . S
C899 C897 1.327 . S
C900 C888 1.349 . S
C900 H894 0.950 . S
C900 C901 1.327 . S
C901 H895 0.950 . S
C901 C900 1.327 . S
C901 C905 1.429 . S
C902 C885 1.574 . S
C902 H896 0.949 . S
C902 C906 1.368 . S
C903 C884 1.429 . S
C903 C897 1.429 . S
C903 C904 1.523 . S
C904 C885 1.368 . S
C904 C898 1.368 . S
C904 C903 1.523 . S
C905 C889 1.429 . S
C905 C901 1.429 . S
C905 C906 1.523 . S
C906 C890 1.368 . S
C906 C902 1.368 . S
C906 C905 1.523 . S
H907 C882 0.950 . S
H908 C884 0.950 . S
H909 C885 0.949 . S
H910 C887 0.950 . S
H911 C889 0.950 . S
C912 C913 1.349 . S
C912 C914 1.327 . S
C912 H937 0.950 . S
C913 C912 1.349 . S
C913 C929 1.349 . S
C914 C912 1.327 . S
C914 C933 1.429 . S
C914 H938 0.950 . S
C915 C932 1.574 . S
C915 C934 1.368 . S
C915 H939 0.949 . S
H916 C920 0.949 . S
C917 C918 1.349 . S
C917 C919 1.327 . S
C917 H940 0.950 . S
C918 C917 1.349 . S
C918 C930 1.349 . S
C919 C917 1.327 . S
C919 C935 1.429 . S
C919 H941 0.950 . S
C920 H916 0.949 . S
C920 C928 1.574 . S
C920 C936 1.368 . S
H921 C929 0.950 . S
H922 C927 0.950 . S
H923 C928 0.949 . S
H924 C930 0.950 . S
H925 C931 0.950 . S
H926 C932 0.949 . S
C927 H922 0.950 . S
C927 C929 1.327 . S
C927 C933 1.429 . S
C928 C920 1.574 . S
C928 H923 0.949 . S
C928 C934 1.368 . S
C929 C913 1.349 . S
C929 H921 0.950 . S
C929 C927 1.327 . S
C930 C918 1.349 . S
C930 H924 0.950 . S
C930 C931 1.327 . S
C931 H925 0.950 . S
C931 C930 1.327 . S
C931 C935 1.429 . S
C932 C915 1.574 . S
C932 H926 0.949 . S
C932 C936 1.368 . S
C933 C914 1.429 . S
C933 C927 1.429 . S
C933 C934 1.523 . S
C934 C915 1.368 . S
C934 C928 1.368 . S
C934 C933 1.523 . S
C935 C919 1.429 . S
C935 C931 1.429 . S
C935 C936 1.523 . S
C936 C920 1.368 . S
C936 C932 1.368 . S
C936 C935 1.523 . S
H937 C912 0.950 . S
H938 C914 0.950 . S
H939 C915 0.949 . S
H940 C917 0.950 . S
H941 C919 0.950 . S
C942 C943 1.349 . S
C942 C944 1.327 . S
C942 H967 0.950 . S
C943 C942 1.349 . S
C943 C959 1.349 . S
C944 C942 1.327 . S
C944 C963 1.429 . S
C944 H968 0.950 . S
C945 C962 1.574 . S
C945 C964 1.368 . S
C945 H969 0.949 . S
H946 C950 0.949 . S
C947 C948 1.349 . S
C947 C949 1.327 . S
C947 H970 0.950 . S
C948 C947 1.349 . S
C948 C960 1.349 . S
C949 C947 1.327 . S
C949 C965 1.429 . S
C949 H971 0.950 . S
C950 H946 0.949 . S
C950 C958 1.574 . S
C950 C966 1.368 . S
H951 C959 0.950 . S
H952 C957 0.950 . S
H953 C958 0.949 . S
H954 C960 0.950 . S
H955 C961 0.950 . S
H956 C962 0.949 . S
C957 H952 0.950 . S
C957 C959 1.327 . S
C957 C963 1.429 . S
C958 C950 1.574 . S
C958 H953 0.949 . S
C958 C964 1.368 . S
C959 C943 1.349 . S
C959 H951 0.950 . S
C959 C957 1.327 . S
C960 C948 1.349 . S
C960 H954 0.950 . S
C960 C961 1.327 . S
C961 H955 0.950 . S
C961 C960 1.327 . S
C961 C965 1.429 . S
C962 C945 1.574 . S
C962 H956 0.949 . S
C962 C966 1.368 . S
C963 C944 1.429 . S
C963 C957 1.429 . S
C963 C964 1.523 . S
C964 C945 1.368 . S
C964 C958 1.368 . S
C964 C963 1.523 . S
C965 C949 1.429 . S
C965 C961 1.429 . S
C965 C966 1.523 . S
C966 C950 1.368 . S
C966 C962 1.368 . S
C966 C965 1.523 . S
H967 C942 0.950 . S
H968 C944 0.950 . S
H969 C945 0.949 . S
H970 C947 0.950 . S
H971 C949 0.950 . S
C972 C973 1.349 . S
C972 C974 1.327 . S
C972 H997 0.950 . S
C973 C972 1.349 . S
C973 C989 1.349 . S
C974 C972 1.327 . S
C974 C993 1.429 . S
C974 H998 0.950 1_554 S
C975 C992 1.574 1_545 S
C975 C994 1.368 . S
C975 H999 0.949 . S
H976 C980 0.949 1_556 S
C977 C978 1.349 . S
C977 C979 1.327 . S
C977 H1000 0.950 . S
C978 C977 1.349 . S
C978 C990 1.349 . S
C979 C977 1.327 . S
C979 C995 1.429 . S
C979 H1001 0.950 . S
C980 H976 0.949 1_554 S
C980 C988 1.574 1_565 S
C980 C996 1.368 . S
H981 C989 0.950 . S
H982 C987 0.950 . S
H983 C988 0.949 1_556 S
H984 C990 0.950 1_556 S
H985 C991 0.950 1_556 S
H986 C992 0.949 . S
C987 H982 0.950 . S
C987 C989 1.327 . S
C987 C993 1.429 . S
C988 C980 1.574 1_545 S
C988 H983 0.949 1_554 S
C988 C994 1.368 . S
C989 C973 1.349 . S
C989 H981 0.950 . S
C989 C987 1.327 . S
C990 C978 1.349 . S
C990 H984 0.950 1_554 S
C990 C991 1.327 . S
C991 H985 0.950 1_554 S
C991 C990 1.327 . S
C991 C995 1.429 . S
C992 C975 1.574 1_565 S
C992 H986 0.949 . S
C992 C996 1.368 . S
C993 C974 1.429 . S
C993 C987 1.429 . S
C993 C994 1.523 . S
C994 C975 1.368 . S
C994 C988 1.368 . S
C994 C993 1.523 . S
C995 C979 1.429 . S
C995 C991 1.429 . S
C995 C996 1.523 . S
C996 C980 1.368 . S
C996 C992 1.368 . S
C996 C995 1.523 . S
H997 C972 0.950 . S
H998 C974 0.950 1_556 S
H999 C975 0.949 . S
H1000 C977 0.950 . S
H1001 C979 0.950 . S
C1002 C1003 1.349 . S
C1002 C1004 1.327 . S
C1002 H1027 0.950 . S
C1003 C1002 1.349 . S
C1003 C1019 1.349 . S
C1004 C1002 1.327 . S
C1004 C1023 1.429 . S
C1004 H1028 0.950 . S
C1005 C1022 1.574 . S
C1005 C1024 1.368 . S
C1005 H1029 0.949 . S
H1006 C1010 0.949 . S
C1007 C1008 1.349 . S
C1007 C1009 1.327 . S
C1007 H1030 0.950 . S
C1008 C1007 1.349 . S
C1008 C1020 1.349 . S
C1009 C1007 1.327 . S
C1009 C1025 1.429 . S
C1009 H1031 0.950 . S
C1010 H1006 0.949 . S
C1010 C1018 1.574 . S
C1010 C1026 1.368 . S
H1011 C1019 0.950 . S
H1012 C1017 0.950 . S
H1013 C1018 0.949 . S
H1014 C1020 0.950 . S
H1015 C1021 0.950 . S
H1016 C1022 0.949 . S
C1017 H1012 0.950 . S
C1017 C1019 1.327 . S
C1017 C1023 1.429 . S
C1018 C1010 1.574 . S
C1018 H1013 0.949 . S
C1018 C1024 1.368 . S
C1019 C1003 1.349 . S
C1019 H1011 0.950 . S
C1019 C1017 1.327 . S
C1020 C1008 1.349 . S
C1020 H1014 0.950 . S
C1020 C1021 1.327 . S
C1021 H1015 0.950 . S
C1021 C1020 1.327 . S
C1021 C1025 1.429 . S
C1022 C1005 1.574 . S
C1022 H1016 0.949 . S
C1022 C1026 1.368 . S
C1023 C1004 1.429 . S
C1023 C1017 1.429 . S
C1023 C1024 1.523 . S
C1024 C1005 1.368 . S
C1024 C1018 1.368 . S
C1024 C1023 1.523 . S
C1025 C1009 1.429 . S
C1025 C1021 1.429 . S
C1025 C1026 1.523 . S
C1026 C1010 1.368 . S
C1026 C1022 1.368 . S
C1026 C1025 1.523 . S
H1027 C1002 0.950 . S
H1028 C1004 0.950 . S
H1029 C1005 0.949 . S
H1030 C1007 0.950 . S
H1031 C1009 0.950 . S
C1032 C1033 1.349 . S
C1032 C1034 1.327 . S
C1032 H1057 0.950 . S
C1033 C1032 1.349 . S
C1033 C1049 1.349 . S
C1034 C1032 1.327 . S
C1034 C1053 1.429 . S
C1034 H1058 0.950 . S
C1035 C1052 1.574 1_455 S
C1035 C1054 1.368 . S
C1035 H1059 0.949 . S
H1036 C1040 0.949 . S
C1037 C1038 1.349 . S
C1037 C1039 1.327 . S
C1037 H1060 0.950 . S
C1038 C1037 1.349 . S
C1038 C1050 1.349 . S
C1039 C1037 1.327 . S
C1039 C1055 1.429 . S
C1039 H1061 0.950 . S
C1040 H1036 0.949 . S
C1040 C1048 1.574 1_655 S
C1040 C1056 1.368 . S
H1041 C1049 0.950 . S
H1042 C1047 0.950 . S
H1043 C1048 0.949 . S
H1044 C1050 0.950 . S
H1045 C1051 0.950 . S
H1046 C1052 0.949 . S
C1047 H1042 0.950 . S
C1047 C1049 1.327 . S
C1047 C1053 1.429 . S
C1048 C1040 1.574 1_455 S
C1048 H1043 0.949 . S
C1048 C1054 1.368 . S
C1049 C1033 1.349 . S
C1049 H1041 0.950 . S
C1049 C1047 1.327 . S
C1050 C1038 1.349 . S
C1050 H1044 0.950 . S
C1050 C1051 1.327 . S
C1051 H1045 0.950 . S
C1051 C1050 1.327 . S
C1051 C1055 1.429 . S
C1052 C1035 1.574 1_655 S
C1052 H1046 0.949 . S
C1052 C1056 1.368 . S
C1053 C1034 1.429 . S
C1053 C1047 1.429 . S
C1053 C1054 1.523 . S
C1054 C1035 1.368 . S
C1054 C1048 1.368 . S
C1054 C1053 1.523 . S
C1055 C1039 1.429 . S
C1055 C1051 1.429 . S
C1055 C1056 1.523 . S
C1056 C1040 1.368 . S
C1056 C1052 1.368 . S
C1056 C1055 1.523 . S
H1057 C1032 0.950 . S
H1058 C1034 0.950 . S
H1059 C1035 0.949 . S
H1060 C1037 0.950 . S
H1061 C1039 0.950 . S
C1062 C1063 1.349 . S
C1062 C1064 1.327 . S
C1062 H1087 0.950 . S
C1063 C1062 1.349 . S
C1063 C1079 1.349 . S
C1064 C1062 1.327 . S
C1064 C1083 1.429 . S
C1064 H1088 0.950 . S
C1065 C1082 1.574 1_565 S
C1065 C1084 1.368 . S
C1065 H1089 0.949 . S
H1066 C1070 0.949 . S
C1067 C1068 1.349 . S
C1067 C1069 1.327 . S
C1067 H1090 0.950 . S
C1068 C1067 1.349 . S
C1068 C1080 1.349 . S
C1069 C1067 1.327 . S
C1069 C1085 1.429 . S
C1069 H1091 0.950 . S
C1070 H1066 0.949 . S
C1070 C1078 1.574 1_545 S
C1070 C1086 1.368 . S
H1071 C1079 0.950 . S
H1072 C1077 0.950 . S
H1073 C1078 0.949 . S
H1074 C1080 0.950 . S
H1075 C1081 0.950 . S
H1076 C1082 0.949 . S
C1077 H1072 0.950 . S
C1077 C1079 1.327 . S
C1077 C1083 1.429 . S
C1078 C1070 1.574 1_565 S
C1078 H1073 0.949 . S
C1078 C1084 1.368 . S
C1079 C1063 1.349 . S
C1079 H1071 0.950 . S
C1079 C1077 1.327 . S
C1080 C1068 1.349 . S
C1080 H1074 0.950 . S
C1080 C1081 1.327 . S
C1081 H1075 0.950 . S
C1081 C1080 1.327 . S
C1081 C1085 1.429 . S
C1082 C1065 1.574 1_545 S
C1082 H1076 0.949 . S
C1082 C1086 1.368 . S
C1083 C1064 1.429 . S
C1083 C1077 1.429 . S
C1083 C1084 1.523 . S
C1084 C1065 1.368 . S
C1084 C1078 1.368 . S
C1084 C1083 1.523 . S
C1085 C1069 1.429 . S
C1085 C1081 1.429 . S
C1085 C1086 1.523 . S
C1086 C1070 1.368 . S
C1086 C1082 1.368 . S
C1086 C1085 1.523 . S
H1087 C1062 0.950 . S
H1088 C1064 0.950 . S
H1089 C1065 0.949 . S
H1090 C1067 0.950 . S
H1091 C1069 0.950 . S
C1092 C1093 1.349 . S
C1092 C1094 1.327 . S
C1092 H1117 0.950 . S
C1093 C1092 1.349 . S
C1093 C1109 1.349 . S
C1094 C1092 1.327 . S
C1094 C1113 1.429 . S
C1094 H1118 0.950 . S
C1095 C1112 1.574 . S
C1095 C1114 1.368 . S
C1095 H1119 0.949 . S
H1096 C1100 0.949 . S
C1097 C1098 1.349 . S
C1097 C1099 1.327 . S
C1097 H1120 0.950 . S
C1098 C1097 1.349 . S
C1098 C1110 1.349 . S
C1099 C1097 1.327 . S
C1099 C1115 1.429 . S
C1099 H1121 0.950 . S
C1100 H1096 0.949 . S
C1100 C1108 1.574 . S
C1100 C1116 1.368 . S
H1101 C1109 0.950 . S
H1102 C1107 0.950 . S
H1103 C1108 0.949 . S
H1104 C1110 0.950 . S
H1105 C1111 0.950 . S
H1106 C1112 0.949 . S
C1107 H1102 0.950 . S
C1107 C1109 1.327 . S
C1107 C1113 1.429 . S
C1108 C1100 1.574 . S
C1108 H1103 0.949 . S
C1108 C1114 1.368 . S
C1109 C1093 1.349 . S
C1109 H1101 0.950 . S
C1109 C1107 1.327 . S
C1110 C1098 1.349 . S
C1110 H1104 0.950 . S
C1110 C1111 1.327 . S
C1111 H1105 0.950 . S
C1111 C1110 1.327 . S
C1111 C1115 1.429 . S
C1112 C1095 1.574 . S
C1112 H1106 0.949 . S
C1112 C1116 1.368 . S
C1113 C1094 1.429 . S
C1113 C1107 1.429 . S
C1113 C1114 1.523 . S
C1114 C1095 1.368 . S
C1114 C1108 1.368 . S
C1114 C1113 1.523 . S
C1115 C1099 1.429 . S
C1115 C1111 1.429 . S
C1115 C1116 1.523 . S
C1116 C1100 1.368 . S
C1116 C1112 1.368 . S
C1116 C1115 1.523 . S
H1117 C1092 0.950 . S
H1118 C1094 0.950 . S
H1119 C1095 0.949 . S
H1120 C1097 0.950 . S
H1121 C1099 0.950 . S
C1122 C1123 1.349 . S
C1122 C1124 1.327 . S
C1122 H1147 0.950 . S
C1123 C1122 1.349 . S
C1123 C1139 1.349 . S
C1124 C1122 1.327 . S
C1124 C1143 1.429 . S
C1124 H1148 0.950 . S
C1125 C1142 1.574 1_455 S
C1125 C1144 1.368 . S
C1125 H1149 0.949 . S
H1126 C1130 0.949 . S
C1127 C1128 1.349 . S
C1127 C1129 1.327 . S
C1127 H1150 0.950 . S
C1128 C1127 1.349 . S
C1128 C1140 1.349 . S
C1129 C1127 1.327 . S
C1129 C1145 1.429 . S
C1129 H1151 0.950 . S
C1130 H1126 0.949 . S
C1130 C1138 1.574 1_655 S
C1130 C1146 1.368 . S
H1131 C1139 0.950 . S
H1132 C1137 0.950 . S
H1133 C1138 0.949 . S
H1134 C1140 0.950 . S
H1135 C1141 0.950 . S
H1136 C1142 0.949 . S
C1137 H1132 0.950 . S
C1137 C1139 1.327 . S
C1137 C1143 1.429 . S
C1138 C1130 1.574 1_455 S
C1138 H1133 0.949 . S
C1138 C1144 1.368 . S
C1139 C1123 1.349 . S
C1139 H1131 0.950 . S
C1139 C1137 1.327 . S
C1140 C1128 1.349 . S
C1140 H1134 0.950 . S
C1140 C1141 1.327 . S
C1141 H1135 0.950 . S
C1141 C1140 1.327 . S
C1141 C1145 1.429 . S
C1142 C1125 1.574 1_655 S
C1142 H1136 0.949 . S
C1142 C1146 1.368 . S
C1143 C1124 1.429 . S
C1143 C1137 1.429 . S
C1143 C1144 1.523 . S
C1144 C1125 1.368 . S
C1144 C1138 1.368 . S
C1144 C1143 1.523 . S
C1145 C1129 1.429 . S
C1145 C1141 1.429 . S
C1145 C1146 1.523 . S
C1146 C1130 1.368 . S
C1146 C1142 1.368 . S
C1146 C1145 1.523 . S
H1147 C1122 0.950 . S
H1148 C1124 0.950 . S
H1149 C1125 0.949 . S
H1150 C1127 0.950 . S
H1151 C1129 0.950 . S
C433 C2 1.113 . S
C438 C362 1.113 . S
C463 C38 1.113 . S
C468 C398 1.113 . S
C493 C218 1.113 . S
C498 C74 1.113 . S
C523 C110 1.113 . S
C528 C254 1.113 . S
C553 C290 1.113 . S
C558 C146 1.113 . S
C583 C326 1.113 . S
C588 C182 1.113 . S
C613 C291 1.206 . S
C618 C3 1.206 . S
C643 C39 1.206 . S
C648 C327 1.206 . S
C673 C363 1.206 . S
C678 C75 1.206 . S
C703 C111 1.206 . S
C708 C399 1.206 . S
C733 C147 1.206 . S
C738 C219 1.206 . S
C763 C183 1.206 . S
C768 C255 1.206 . S
C793 C374 1.495 . S
C798 C14 1.495 . S
C823 C410 1.495 . S
C828 C50 1.495 . S
C853 C230 1.495 . S
C858 C86 1.495 . S
C883 C122 1.495 . S
C888 C266 1.495 . S
C913 C158 1.495 . S
C918 C302 1.495 . S
C943 C338 1.495 . S
C948 C194 1.495 . S
C973 C4 1.245 . S
C978 C256 1.245 . S
C1003 C292 1.245 . S
C1008 C40 1.245 . S
C1033 C328 1.245 . S
C1038 C76 1.245 . S
C1063 C112 1.245 . S
C1068 C364 1.245 . S
C1093 C148 1.245 . S
C1098 C400 1.245 . S
C1123 C184 1.245 . S
C1128 C220 1.245 . S
