# Generated by pormake.
# Topology smu, (6)-cn, num edge types: 1
# Building blocks:
#     Node 0, Type 0, BuildingBlock: JUFBIX_clean_sbu_0, # of connection points: 6
#     Node 1, Type 0, BuildingBlock: JUFBIX_clean_sbu_0, # of connection points: 6
#     Node 2, Type 0, BuildingBlock: JUFBIX_clean_sbu_0, # of connection points: 6
#     Node 3, Type 0, BuildingBlock: JUFBIX_clean_sbu_0, # of connection points: 6
#     Node 4, Type 0, BuildingBlock: JUFBIX_clean_sbu_0, # of connection points: 6
#     Node 5, Type 0, BuildingBlock: JUFBIX_clean_sbu_0, # of connection points: 6
#     Edge 6, Type (0, 0), BuildingBlock: KIFKEQ_clean_linker_1, # of connection points: 2
#     Edge 7, Type (0, 0), BuildingBlock: KIFKEQ_clean_linker_1, # of connection points: 2
#     Edge 8, Type (0, 0), BuildingBlock: KIFKEQ_clean_linker_1, # of connection points: 2
#     Edge 9, Type (0, 0), BuildingBlock: KIFKEQ_clean_linker_1, # of connection points: 2
#     Edge 10, Type (0, 0), BuildingBlock: KIFKEQ_clean_linker_1, # of connection points: 2
#     Edge 11, Type (0, 0), BuildingBlock: KIFKEQ_clean_linker_1, # of connection points: 2
#     Edge 12, Type (0, 0), BuildingBlock: KIFKEQ_clean_linker_1, # of connection points: 2
#     Edge 13, Type (0, 0), BuildingBlock: KIFKEQ_clean_linker_1, # of connection points: 2
#     Edge 14, Type (0, 0), BuildingBlock: KIFKEQ_clean_linker_1, # of connection points: 2
#     Edge 15, Type (0, 0), BuildingBlock: KIFKEQ_clean_linker_1, # of connection points: 2
#     Edge 16, Type (0, 0), BuildingBlock: KIFKEQ_clean_linker_1, # of connection points: 2
#     Edge 17, Type (0, 0), BuildingBlock: KIFKEQ_clean_linker_1, # of connection points: 2
#     Edge 18, Type (0, 0), BuildingBlock: KIFKEQ_clean_linker_1, # of connection points: 2
#     Edge 19, Type (0, 0), BuildingBlock: KIFKEQ_clean_linker_1, # of connection points: 2
#     Edge 20, Type (0, 0), BuildingBlock: KIFKEQ_clean_linker_1, # of connection points: 2
#     Edge 21, Type (0, 0), BuildingBlock: KIFKEQ_clean_linker_1, # of connection points: 2
#     Edge 22, Type (0, 0), BuildingBlock: KIFKEQ_clean_linker_1, # of connection points: 2
#     Edge 23, Type (0, 0), BuildingBlock: KIFKEQ_clean_linker_1, # of connection points: 2
# Relax obj value: 0.418
# Max RMSD: 0.302
# Mean RMSD: 0.301
data_MOF--net-smu--node1-JUFBIX_clean_sbu_0--edge1-KIFKEQ_clean_linker_1
_symmetry_space_group_name_H-M    P1
_symmetry_Int_Tables_number       1
_symmetry_cell_setting            triclinic
loop_
_symmetry_equiv_pos_as_xyz
'x, y, z'
_cell_length_a     31.785363
_cell_length_b     31.803506
_cell_length_c     28.40564
_cell_angle_alpha  91.658069
_cell_angle_beta   89.58988
_cell_angle_gamma 119.99767
loop_
_atom_site_label
_atom_site_type_symbol
_atom_site_fract_x
_atom_site_fract_y
_atom_site_fract_z
_atom_type_partial_charge
Co0 Co 0.33417 0.04866 0.28787 0.0
C1 C 0.37953 0.09881 0.20929 0.0
Co2 Co 0.39044 0.12459 0.3056 0.0
C3 C 0.23807 0.96854 0.28536 0.0
C4 C 0.28503 0.95126 0.24545 0.0
N5 N 0.28502 0.986 0.27379 0.0
N6 N 0.20841 0.92505 0.26444 0.0
C7 C 0.23782 0.91358 0.23969 0.0
H8 H 0.22555 0.98833 0.30741 0.0
H9 H 0.31679 0.95438 0.22799 0.0
C10 C 0.34271 0.06826 0.38363 0.0
N11 N 0.43795 0.18878 0.32014 0.0
C12 C 0.4418 0.23001 0.30342 0.0
C13 C 0.47417 0.20419 0.35207 0.0
N14 N 0.47873 0.27067 0.3239 0.0
C15 C 0.49927 0.25422 0.35436 0.0
C16 C 0.30156 0.11598 0.28963 0.0
O17 O 0.32003 0.03736 0.35096 0.0
O18 O 0.37621 0.11091 0.37298 0.0
O19 O 0.34508 0.14492 0.30158 0.0
O20 O 0.28779 0.07131 0.2823 0.0
O21 O 0.40345 0.13494 0.23788 0.0
H22 H 0.48149 0.18055 0.37285 0.0
H23 H 0.41702 0.22997 0.27749 0.0
O24 O 0.34759 0.05852 0.22479 0.0
O25 O 0.38268 0.02831 0.29302 0.0
O26 O 0.4361 0.10503 0.30931 0.0
C27 C 0.42624 0.06149 0.30287 0.0
H28 H 0.22584 0.8818 0.21675 0.0
H29 H 0.53041 0.27651 0.37678 0.0
Co30 Co 0.76265 0.65003 0.23878 0.0
C31 C 0.74281 0.69478 0.16526 0.0
Co32 Co 0.74585 0.707 0.26232 0.0
C33 C 0.81301 0.59551 0.24059 0.0
C34 C 0.76695 0.57633 0.17977 0.0
N35 N 0.77953 0.60364 0.21998 0.0
N36 N 0.82231 0.56493 0.21452 0.0
C37 C 0.7934 0.55276 0.17619 0.0
H38 H 0.83213 0.61365 0.27291 0.0
H39 H 0.7415 0.57498 0.15386 0.0
C40 C 0.76222 0.66479 0.33688 0.0
N41 N 0.73323 0.75586 0.28162 0.0
C42 C 0.75944 0.80272 0.26923 0.0
C43 C 0.70534 0.75599 0.31747 0.0
N44 N 0.75055 0.83267 0.29686 0.0
C45 C 0.71587 0.80305 0.32691 0.0
C46 C 0.66532 0.61268 0.25383 0.0
O47 O 0.76787 0.6382 0.30574 0.0
O48 O 0.75397 0.69762 0.3242 0.0
O49 O 0.67712 0.65634 0.26622 0.0
O50 O 0.69774 0.60335 0.23968 0.0
O51 O 0.73715 0.71744 0.19984 0.0
H52 H 0.6817 0.72456 0.33772 0.0
H53 H 0.78646 0.81475 0.24186 0.0
O54 O 0.75516 0.66299 0.1731 0.0
O55 O 0.82826 0.69637 0.23734 0.0
O56 O 0.81452 0.75478 0.25916 0.0
C57 C 0.84427 0.74079 0.24716 0.0
H58 H 0.79193 0.52893 0.14745 0.0
H59 H 0.70132 0.8146 0.35582 0.0
Co60 Co 0.99109 0.29675 0.28264 0.0
C61 C 0.9372 0.27644 0.20175 0.0
Co62 Co 0.91688 0.28245 0.29718 0.0
C63 C 0.07056 0.27861 0.28381 0.0
C64 C 0.08852 0.34123 0.24376 0.0
N65 N 0.05323 0.30759 0.27067 0.0
N66 N 0.11449 0.29198 0.26558 0.0
C67 C 0.12644 0.33179 0.24073 0.0
H68 H 0.05103 0.2474 0.30566 0.0
H69 H 0.08601 0.36944 0.22583 0.0
C70 C 0.97694 0.30676 0.37714 0.0
N71 N 0.85367 0.26847 0.30967 0.0
C72 C 0.8119 0.23078 0.29204 0.0
C73 C 0.83948 0.28837 0.3444 0.0
N74 N 0.77255 0.22598 0.31504 0.0
C75 C 0.78963 0.26202 0.34804 0.0
C76 C 0.92309 0.19906 0.29767 0.0
O77 O 1.00747 0.31128 0.34606 0.0
O78 O 0.93289 0.29158 0.36488 0.0
O79 O 0.89526 0.21658 0.30057 0.0
O80 O 0.96825 0.22786 0.29173 0.0
O81 O 0.90418 0.27516 0.22876 0.0
H82 H 0.86397 0.31839 0.36734 0.0
H83 H 0.81059 0.20536 0.26508 0.0
O84 O 0.97657 0.28336 0.21943 0.0
O85 O 1.01075 0.36504 0.27278 0.0
O86 O 0.93718 0.34791 0.2938 0.0
C87 C 0.97964 0.37864 0.28112 0.0
H88 H 0.15899 0.35108 0.21998 0.0
H89 H 0.7677 0.26772 0.37396 0.0
Co90 Co 0.1299 0.38419 0.79847 0.0
C91 C 0.06816 0.33999 0.87551 0.0
Co92 Co 0.05573 0.32533 0.77961 0.0
C93 C 0.23496 0.43876 0.79446 0.0
C94 C 0.20805 0.46088 0.85385 0.0
N95 N 0.19334 0.43173 0.81483 0.0
N96 N 0.27479 0.47035 0.81968 0.0
C97 C 0.25804 0.48437 0.85707 0.0
H98 H 0.23593 0.41897 0.7632 0.0
H99 H 0.18392 0.46334 0.8794 0.0
C100 C 0.11126 0.36574 0.70153 0.0
N101 N 0.9942 0.27578 0.76279 0.0
C102 C 0.97452 0.22908 0.77523 0.0
C103 C 0.96468 0.27521 0.72871 0.0
N104 N 0.93477 0.19881 0.74925 0.0
C105 C 0.92817 0.22802 0.72028 0.0
C106 C 0.06763 0.41893 0.78716 0.0
O107 O 0.14481 0.39411 0.73056 0.0
O108 O 0.07099 0.33364 0.71704 0.0
O109 O 0.03589 0.37463 0.77735 0.0
O110 O 0.11064 0.43005 0.79785 0.0
O111 O 0.03887 0.31565 0.84244 0.0
H112 H 0.97133 0.30645 0.70886 0.0
H113 H 0.99077 0.21743 0.80138 0.0
O114 O 0.11147 0.37273 0.86542 0.0
O115 O 0.15024 0.33877 0.79938 0.0
O116 O 0.07803 0.2786 0.78142 0.0
C117 C 0.12248 0.29395 0.79101 0.0
H118 H 0.28035 0.50921 0.88509 0.0
H119 H 0.90097 0.21613 0.69271 0.0
Co120 Co 0.28582 0.90983 0.79736 0.0
C121 C 0.31045 0.97179 0.87687 0.0
Co122 Co 0.30405 0.98478 0.78169 0.0
C123 C 0.23016 0.80445 0.79516 0.0
C124 C 0.2991 0.8317 0.82948 0.0
N125 N 0.27078 0.84621 0.80842 0.0
N126 N 0.23238 0.76473 0.8067 0.0
C127 C 0.27579 0.78169 0.8281 0.0
H128 H 0.20009 0.80313 0.77618 0.0
H129 H 0.33476 0.85591 0.84432 0.0
C130 C 0.2826 0.92908 0.70149 0.0
N131 N 0.31656 0.04691 0.77007 0.0
C132 C 0.28994 0.06626 0.78678 0.0
C133 C 0.34559 0.07793 0.73737 0.0
N134 N 0.29973 0.10713 0.76484 0.0
C135 C 0.33537 0.11513 0.73414 0.0
C136 C 0.3835 0.97046 0.78018 0.0
O137 O 0.27585 0.89496 0.72884 0.0
O138 O 0.29438 0.97047 0.71867 0.0
O139 O 0.37258 1.00359 0.77424 0.0
O140 O 0.3506 0.92815 0.79026 0.0
O141 O 0.31437 1.00072 0.84526 0.0
H142 H 0.36998 0.07205 0.71503 0.0
H143 H 0.26208 0.04931 0.8131 0.0
O144 O 0.29762 0.9278 0.86491 0.0
O145 O 0.22063 0.89088 0.80504 0.0
O146 O 0.23519 0.96356 0.7885 0.0
C147 C 0.20524 0.92012 0.79952 0.0
H148 H 0.28958 0.75945 0.8418 0.0
H149 H 0.35053 0.14379 0.70888 0.0
Co150 Co 0.654 0.74928 0.74324 0.0
C151 C 0.67647 0.75512 0.84023 0.0
Co152 Co 0.7137 0.73592 0.76148 0.0
C153 C 0.60172 0.80246 0.74384 0.0
C154 C 0.56673 0.73801 0.70011 0.0
N155 N 0.60487 0.76314 0.72951 0.0
N156 N 0.56348 0.80331 0.72413 0.0
C157 C 0.54126 0.76238 0.69683 0.0
H158 H 0.62798 0.83061 0.76731 0.0
H159 H 0.55846 0.70454 0.68155 0.0
C160 C 0.69472 0.72766 0.66539 0.0
N161 N 0.76439 0.72468 0.77414 0.0
C162 C 0.80877 0.75774 0.79109 0.0
C163 C 0.76876 0.68625 0.76002 0.0
N164 N 0.84125 0.74229 0.78683 0.0
C165 C 0.81588 0.69692 0.76778 0.0
C166 C 0.62022 0.65332 0.75985 0.0
O167 O 0.6631 0.74009 0.67572 0.0
O168 O 0.71887 0.72363 0.69832 0.0
O169 O 0.66461 0.66725 0.7698 0.0
O170 O 0.60885 0.68389 0.74631 0.0
O171 O 0.70963 0.74791 0.82446 0.0
H172 H 0.74055 0.65402 0.74214 0.0
H173 H 0.81761 0.79346 0.80432 0.0
O174 O 0.64635 0.75671 0.8116 0.0
O175 O 0.69869 0.81515 0.74027 0.0
O176 O 0.76018 0.80452 0.75365 0.0
C177 C 0.74387 0.83296 0.74589 0.0
H178 H 0.50884 0.75057 0.67579 0.0
H179 H 0.83088 0.67422 0.75706 0.0
H180 H 0.32448 0.93146 0.95682 0.0
H181 H 0.3253 0.05941 0.90824 0.0
H182 H 0.34948 0.97037 0.03561 0.0
H183 H 0.3514 0.09809 0.98501 0.0
H184 H 0.33746 0.12562 0.14338 0.0
H185 H 0.32136 0.09436 0.06217 0.0
H186 H 0.41715 0.03609 0.07993 0.0
H187 H 0.43216 0.06683 0.16164 0.0
C188 C 0.32979 0.96758 0.96285 0.0
C189 C 0.32269 0.99201 0.92605 0.0
C190 C 0.34471 0.99022 1.00779 0.0
C191 C 0.35268 0.03763 1.01677 0.0
C192 C 0.34515 0.06153 0.97988 0.0
C193 C 0.3303 0.03912 0.93549 0.0
C194 C 0.35704 0.10845 0.12904 0.0
C195 C 0.38737 0.10017 0.15821 0.0
C196 C 0.34728 0.08974 0.08266 0.0
C197 C 0.36742 0.06196 0.06447 0.0
C198 C 0.40031 0.05648 0.09289 0.0
C199 C 0.41002 0.07525 0.13929 0.0
H200 H 0.63792 0.70347 0.58402 0.0
H201 H 0.77512 0.72608 0.63672 0.0
H202 H 0.65577 0.67935 0.50652 0.0
H203 H 0.79199 0.70133 0.5611 0.0
H204 H 0.83072 0.7176 0.40239 0.0
H205 H 0.81311 0.73176 0.48299 0.0
H206 H 0.66547 0.61387 0.46573 0.0
H207 H 0.6837 0.59998 0.38469 0.0
C208 C 0.67183 0.70365 0.57908 0.0
C209 C 0.705 0.71688 0.61665 0.0
C210 C 0.68183 0.6892 0.53497 0.0
C211 C 0.72531 0.68811 0.5276 0.0
C212 C 0.75842 0.70201 0.56514 0.0
C213 C 0.74849 0.71615 0.60876 0.0
C214 C 0.7954 0.69287 0.41678 0.0
C215 C 0.75908 0.6567 0.38776 0.0
C216 C 0.78489 0.70152 0.46277 0.0
C217 C 0.73752 0.6745 0.48073 0.0
C218 C 0.70206 0.6359 0.4528 0.0
C219 C 0.71284 0.62701 0.40684 0.0
H220 H 0.93492 0.34304 0.14511 0.0
H221 H 0.94197 0.21128 0.14296 0.0
H222 H 0.96815 0.35991 0.0651 0.0
H223 H 0.97407 0.22716 0.06333 0.0
H224 H 0.99838 0.25353 0.90641 0.0
H225 H 0.95693 0.2352 0.98148 0.0
H226 H 0.05127 0.38315 0.03048 0.0
H227 H 0.09304 0.40187 0.95401 0.0
C228 C 0.94145 0.31662 0.1267 0.0
C229 C 0.93506 0.27543 0.14989 0.0
C230 C 0.96146 0.32674 0.08132 0.0
C231 C 0.97463 0.29534 0.05808 0.0
C232 C 0.9643 0.25212 0.07998 0.0
C233 C 0.94511 0.24252 0.12539 0.0
C234 C 1.0108 0.28222 0.93329 0.0
C235 C 0.04929 0.32917 0.92429 0.0
C236 C 0.98687 0.27162 0.97639 0.0
C237 C 1.00038 0.30771 1.01196 0.0
C238 C 0.0395 0.35468 1.0035 0.0
C239 C 0.06398 0.36526 0.96011 0.0
H240 H 0.40356 0.09445 0.46144 0.0
H241 H 0.25575 0.99927 0.41493 0.0
H242 H 0.38538 0.05074 0.53556 0.0
H243 H 0.23815 0.95491 0.48704 0.0
H244 H 0.2116 0.92145 0.64494 0.0
H245 H 0.22595 0.95797 0.56821 0.0
H246 H 0.36901 0.97354 0.56606 0.0
H247 H 0.35441 0.93773 0.64382 0.0
C248 C 0.36702 0.06503 0.46748 0.0
C249 C 0.33105 0.05067 0.43249 0.0
C250 C 0.35677 0.03921 0.50945 0.0
C251 C 0.31035 0.99861 0.51722 0.0
C252 C 0.27414 0.98593 0.48282 0.0
C253 C 0.28429 1.01157 0.4413 0.0
C254 C 0.24495 0.93001 0.62679 0.0
C255 C 0.28124 0.92529 0.64977 0.0
C256 C 0.2537 0.95191 0.58302 0.0
C257 C 0.29915 0.96981 0.56104 0.0
C258 C 0.334 0.96127 0.5823 0.0
C259 C 0.32511 0.93928 0.6262 0.0
H260 H 0.60777 0.68593 0.89518 0.0
H261 H 0.7408 0.82361 0.90054 0.0
H262 H 0.62306 0.67029 0.97562 0.0
H263 H 0.75563 0.80906 0.98096 0.0
H264 H 0.74953 0.77872 0.138 0.0
H265 H 0.72564 0.79628 0.06328 0.0
H266 H 0.68832 0.6535 1.00911 0.0
H267 H 0.71246 0.63564 0.08481 0.0
C268 C 0.63899 0.71384 0.9144 0.0
C269 C 0.67266 0.75632 0.89192 0.0
C270 C 0.6483 0.70452 0.96007 0.0
C271 C 0.69106 0.73802 0.98437 0.0
C272 C 0.72234 0.78247 0.96335 0.0
C273 C 0.71346 0.79127 0.91753 0.0
C274 C 0.73657 0.75102 0.11011 0.0
C275 C 0.73313 0.70577 0.11734 0.0
C276 C 0.7228 0.76117 0.06725 0.0
C277 C 0.70461 0.72621 0.03035 0.0
C278 C 0.70153 0.68097 0.03718 0.0
C279 C 0.71601 0.67096 0.08018 0.0
H280 H 0.94113 0.25694 0.45895 0.0
H281 H 0.05639 0.39044 0.40445 0.0
H282 H 0.98329 0.2773 0.53568 0.0
H283 H 0.09799 0.41117 0.48085 0.0
H284 H 0.12239 0.44093 0.64832 0.0
H285 H 0.08834 0.43015 0.56853 0.0
H286 H 0.06447 0.28412 0.56071 0.0
H287 H 0.0989 0.29524 0.63959 0.0
C288 C 0.97467 0.29116 0.4638 0.0
C289 C 0.99537 0.32221 0.42596 0.0
C290 C 0.99918 0.3026 0.5074 0.0
C291 C 0.04436 0.34564 0.51408 0.0
C292 C 0.06341 0.37787 0.47689 0.0
C293 C 0.03948 0.366 0.43324 0.0
C294 C 0.11243 0.40764 0.62842 0.0
C295 C 0.11418 0.36927 0.64983 0.0
C296 C 0.09197 0.40103 0.58314 0.0
C297 C 0.07236 0.35571 0.55896 0.0
C298 C 0.07814 0.31901 0.57885 0.0
C299 C 0.09901 0.32582 0.62356 0.0
H300 H 0.47704 0.07028 0.38079 0.0
H301 H 0.47135 0.04104 0.23138 0.0
H302 H 0.56318 0.09896 0.38185 0.0
H303 H 0.5581 0.06766 0.23205 0.0
H304 H 0.71379 0.20337 0.23947 0.0
H305 H 0.62684 0.1444 0.23557 0.0
H306 H 0.63479 0.09904 0.37589 0.0
H307 H 0.72082 0.16075 0.38016 0.0
C308 C 0.49385 0.06698 0.34861 0.0
C309 C 0.46746 0.05296 0.30616 0.0
C310 C 0.54372 0.08391 0.34897 0.0
C311 C 0.56855 0.087 0.30676 0.0
C312 C 0.54074 0.06723 0.26509 0.0
C313 C 0.49066 0.05066 0.26477 0.0
C314 C 0.69664 0.1802 0.26902 0.0
C315 C 0.72331 0.18678 0.31031 0.0
C316 C 0.64687 0.14596 0.26683 0.0
C317 C 0.62298 0.11685 0.30568 0.0
C318 C 0.65112 0.12145 0.34572 0.0
C319 C 0.70048 0.15653 0.34823 0.0
H320 H 0.61167 0.58623 0.33439 0.0
H321 H 0.61291 0.54124 0.19014 0.0
H322 H 0.55354 0.50202 0.35359 0.0
H323 H 0.55617 0.45764 0.20882 0.0
H324 H 0.4543 0.30655 0.24904 0.0
H325 H 0.48244 0.39122 0.23316 0.0
H326 H 0.5659 0.43472 0.36265 0.0
H327 H 0.53579 0.35031 0.37982 0.0
C328 C 0.59762 0.55874 0.30633 0.0
C329 C 0.61661 0.57024 0.26076 0.0
C330 C 0.56508 0.51025 0.31743 0.0
C331 C 0.55091 0.4725 0.28307 0.0
C332 C 0.5658 0.48526 0.23636 0.0
C333 C 0.59826 0.53347 0.22543 0.0
C334 C 0.47788 0.33392 0.27468 0.0
C335 C 0.49317 0.32095 0.31548 0.0
C336 C 0.49437 0.3828 0.26535 0.0
C337 C 0.52685 0.42027 0.29637 0.0
C338 C 0.54052 0.40719 0.33806 0.0
C339 C 0.52384 0.35839 0.34752 0.0
H340 H 0.98919 0.44985 0.34247 0.0
H341 H 0.98056 0.41215 0.19487 0.0
H342 H 0.96287 0.50794 0.32614 0.0
H343 H 0.94954 0.466 0.17821 0.0
H344 H 0.88625 0.56096 0.15403 0.0
H345 H 0.94319 0.53266 0.1697 0.0
H346 H 0.89082 0.50313 0.31293 0.0
H347 H 0.83725 0.53521 0.29741 0.0
C348 C 0.98349 0.45555 0.30618 0.0
C349 C 0.98737 0.42689 0.26984 0.0
C350 C 0.96682 0.48779 0.29677 0.0
C351 C 0.95169 0.49069 0.25097 0.0
C352 C 0.96049 0.46544 0.21403 0.0
C353 C 0.97868 0.43443 0.2234 0.0
C354 C 0.88759 0.54881 0.18891 0.0
C355 C 0.85722 0.54992 0.22446 0.0
C356 C 0.92008 0.53224 0.19803 0.0
C357 C 0.92203 0.51484 0.24266 0.0
C358 C 0.8919 0.51702 0.27837 0.0
C359 C 0.86052 0.53495 0.26952 0.0
H360 H 0.07584 0.46591 0.70749 0.0
H361 H 0.04877 0.46768 0.8561 0.0
H362 H 0.10746 0.55352 0.70616 0.0
H363 H 0.07897 0.55514 0.85461 0.0
H364 H 0.13536 0.72017 0.82133 0.0
H365 H 0.07651 0.63263 0.81061 0.0
H366 H 0.19128 0.60949 0.75812 0.0
H367 H 0.2498 0.69602 0.7704 0.0
C368 C 0.07339 0.48441 0.73912 0.0
C369 C 0.05911 0.45989 0.78173 0.0
C370 C 0.09217 0.53469 0.73851 0.0
C371 C 0.09607 0.56109 0.78038 0.0
C372 C 0.076 0.5356 0.82178 0.0
C373 C 0.0581 0.4854 0.82253 0.0
C374 C 0.14758 0.69621 0.80702 0.0
C375 C 0.197 0.71454 0.79682 0.0
C376 C 0.11409 0.64637 0.80093 0.0
C377 C 0.12931 0.61451 0.78304 0.0
C378 C 0.17843 0.63335 0.77132 0.0
C379 C 0.21196 0.68267 0.77865 0.0
H380 H 0.43895 0.96215 0.84582 0.0
H381 H 0.43343 0.98615 0.69816 0.0
H382 H 0.49416 0.93167 0.83 0.0
H383 H 0.49024 0.95683 0.68177 0.0
H384 H 0.50403 0.81873 0.6673 0.0
H385 H 0.47589 0.87612 0.68004 0.0
H386 H 0.56573 0.93304 0.80514 0.0
H387 H 0.59198 0.87356 0.79383 0.0
C388 C 0.45211 0.96375 0.81023 0.0
C389 C 0.43237 0.97706 0.77332 0.0
C390 C 0.48356 0.94577 0.80095 0.0
C391 C 0.49598 0.94052 0.75436 0.0
C392 C 0.48059 0.9592 0.71798 0.0
C393 C 0.44893 0.97718 0.72739 0.0
C394 C 0.51779 0.84314 0.69773 0.0
C395 C 0.54977 0.84041 0.72993 0.0
C396 C 0.50225 0.877 0.70458 0.0
C397 C 0.5184 0.90958 0.74369 0.0
C398 C 0.55196 0.90828 0.77488 0.0
C399 C 0.56735 0.87416 0.76817 0.0
H400 H 0.33995 0.47192 0.88108 0.0
H401 H 0.32198 0.49977 0.73746 0.0
H402 H 0.42537 0.49884 0.86689 0.0
H403 H 0.40798 0.53073 0.72343 0.0
H404 H 0.56042 0.58342 0.69692 0.0
H405 H 0.47527 0.52568 0.71135 0.0
H406 H 0.49923 0.56449 0.86006 0.0
H407 H 0.58483 0.61785 0.84524 0.0
C408 C 0.35468 0.48421 0.84644 0.0
C409 C 0.32465 0.48413 0.81041 0.0
C410 C 0.40386 0.50005 0.83819 0.0
C411 C 0.42483 0.5178 0.79398 0.0
C412 C 0.39392 0.51655 0.75771 0.0
C413 C 0.34444 0.49928 0.76569 0.0
C414 C 0.54781 0.57706 0.73296 0.0
C415 C 0.5793 0.60482 0.77005 0.0
C416 C 0.49846 0.54505 0.74128 0.0
C417 C 0.47893 0.54147 0.78674 0.0
C418 C 0.51187 0.56563 0.82443 0.0
C419 C 0.5615 0.59637 0.81613 0.0
H420 H 0.32623 0.19823 0.24504 0.0
H421 H 0.20625 0.08018 0.31502 0.0
H422 H 0.27939 0.23868 0.23644 0.0
H423 H 0.15958 0.12224 0.30939 0.0
H424 H 0.075 0.19462 0.26069 0.0
H425 H 0.1176 0.14882 0.26306 0.0
H426 H 0.25398 0.28361 0.28034 0.0
H427 H 0.21104 0.32894 0.2752 0.0
C428 C 0.28961 0.18106 0.25874 0.0
C429 C 0.26982 0.13634 0.28096 0.0
C430 C 0.26286 0.20453 0.25434 0.0
C431 C 0.21594 0.18456 0.2732 0.0
C432 C 0.19546 0.13875 0.29415 0.0
C433 C 0.22207 0.11457 0.29754 0.0
C434 C 0.11412 0.21424 0.26503 0.0
C435 C 0.13991 0.26528 0.26771 0.0
C436 C 0.13859 0.18802 0.26663 0.0
C437 C 0.18943 0.21224 0.27172 0.0
C438 C 0.215 0.26348 0.27512 0.0
C439 C 0.19054 0.28966 0.27252 0.0
H440 H 0.89955 0.82596 0.29818 0.0
H441 H 0.90859 0.7296 0.19358 0.0
H442 H 0.98853 0.87216 0.3037 0.0
H443 H 0.99653 0.77613 0.19768 0.0
H444 H 0.1468 0.82831 0.25554 0.0
H445 H 0.05831 0.78673 0.25109 0.0
H446 H 0.06327 0.9249 0.26427 0.0
H447 H 0.15147 0.96608 0.26971 0.0
C448 C 0.92057 0.81538 0.2757 0.0
C449 C 0.89727 0.77401 0.24584 0.0
C450 C 0.97147 0.84169 0.27884 0.0
C451 C 0.99973 0.82723 0.25181 0.0
C452 C 0.97606 0.78742 0.22012 0.0
C453 C 0.92557 0.76102 0.21741 0.0
C454 C 0.12888 0.84965 0.25749 0.0
C455 C 0.1561 0.90033 0.26312 0.0
C456 C 0.0782 0.82597 0.25476 0.0
C457 C 0.05356 0.85252 0.25695 0.0
C458 C 0.08088 0.90324 0.26309 0.0
C459 C 0.13152 0.92685 0.26622 0.0
H460 H 0.8272 0.13265 0.29496 0.0
H461 H 0.96825 0.14384 0.30254 0.0
H462 H 0.78821 0.04545 0.29533 0.0
H463 H 0.92836 0.05484 0.3048 0.0
H464 H 0.83832 0.89315 0.25662 0.0
H465 H 0.88192 0.98121 0.25823 0.0
H466 H 0.76972 0.98117 0.34497 0.0
H467 H 0.72445 0.89325 0.34085 0.0
C468 C 0.85009 0.1165 0.29734 0.0
C469 C 0.90105 0.1455 0.29905 0.0
C470 C 0.82746 0.06611 0.29791 0.0
C471 C 0.85488 0.04276 0.30081 0.0
C472 C 0.90604 0.07158 0.30231 0.0
C473 C 0.92895 0.12254 0.30129 0.0
C474 C 0.82228 0.91158 0.27548 0.0
C475 C 0.77708 0.88534 0.2981 0.0
C476 C 0.84798 0.96244 0.27705 0.0
C477 C 0.82943 0.9886 0.3015 0.0
C478 C 0.78485 0.96243 0.32498 0.0
C479 C 0.75895 0.91167 0.32303 0.0
H480 H 0.21071 0.31641 0.82517 0.0
H481 H 0.08332 0.19977 0.75597 0.0
H482 H 0.25143 0.26949 0.81837 0.0
H483 H 0.12502 0.15243 0.7486 0.0
H484 H 0.20482 0.06884 0.78839 0.0
H485 H 0.15909 0.11138 0.79578 0.0
H486 H 0.28591 0.24402 0.75416 0.0
H487 H 0.33218 0.20177 0.74829 0.0
C488 C 0.19124 0.28055 0.80854 0.0
C489 C 0.14384 0.26196 0.79068 0.0
C490 C 0.21486 0.2538 0.80436 0.0
C491 C 0.19187 0.20769 0.78215 0.0
C492 C 0.14367 0.18799 0.76587 0.0
C493 C 0.11979 0.21497 0.77009 0.0
C494 C 0.22321 0.10723 0.78141 0.0
C495 C 0.27251 0.13219 0.76848 0.0
C496 C 0.19669 0.13139 0.78497 0.0
C497 C 0.21891 0.18107 0.77584 0.0
C498 C 0.26793 0.20582 0.7621 0.0
C499 C 0.2944 0.18162 0.75839 0.0
H500 H 0.14842 0.95079 0.75633 0.0
H501 H 0.14338 0.84735 0.85456 0.0
H502 H 0.0594 0.90987 0.75652 0.0
H503 H 0.05547 0.80797 0.85643 0.0
H504 H 0.9037 0.7087 0.79912 0.0
H505 H 0.99156 0.75598 0.80497 0.0
H506 H 0.98576 0.88857 0.79852 0.0
H507 H 0.89792 0.84115 0.78989 0.0
C508 C 0.12833 0.92009 0.77876 0.0
C509 C 0.15268 0.90185 0.80491 0.0
C510 C 0.07736 0.89661 0.77897 0.0
C511 C 0.05007 0.85489 0.8058 0.0
C512 C 0.07502 0.83894 0.83421 0.0
C513 C 0.12553 0.86183 0.83346 0.0
C514 C 0.921 0.74787 0.79874 0.0
C515 C 0.89329 0.77077 0.79399 0.0
C516 C 0.97156 0.77518 0.8027 0.0
C517 C 0.99598 0.82629 0.80251 0.0
C518 C 0.96831 0.84933 0.79841 0.0
C519 C 0.91766 0.82196 0.79414 0.0
H520 H 0.96441 0.1392 0.7862 0.0
H521 H 0.84672 0.13767 0.70911 0.0
H522 H 0.92061 0.05116 0.78492 0.0
H523 H 0.80476 0.04984 0.70506 0.0
H524 H 0.71387 0.89856 0.75484 0.0
H525 H 0.76148 0.98582 0.75582 0.0
H526 H 0.89247 0.97776 0.73764 0.0
H527 H 0.84397 0.88865 0.73875 0.0
C528 C 0.92927 0.12046 0.76899 0.0
C529 C 0.90905 0.14623 0.74826 0.0
C530 C 0.90447 0.06963 0.76759 0.0
C531 C 0.85898 0.04317 0.74515 0.0
C532 C 0.83931 0.06888 0.72353 0.0
C533 C 0.86375 0.11957 0.7254 0.0
C534 C 0.75281 0.91505 0.75083 0.0
C535 C 0.77506 0.88647 0.74614 0.0
C536 C 0.78021 0.96543 0.75107 0.0
C537 C 0.83082 0.9891 0.74589 0.0
C538 C 0.85351 0.9607 0.74184 0.0
C539 C 0.82583 0.90973 0.74221 0.0
loop_
_geom_bond_atom_site_label_1
_geom_bond_atom_site_label_2
_geom_bond_distance
_geom_bond_site_symmetry_2
_ccdc_geom_bond_type
Co0 N5 2.057 1_545 S
Co0 O17 2.021 . S
Co0 O20 2.062 . S
Co0 O24 2.117 . S
Co0 O25 2.020 . S
C1 O21 1.259 . S
C1 O24 1.258 . S
Co2 N11 2.057 . S
Co2 O18 2.117 . S
Co2 O19 2.020 . S
Co2 O21 2.021 . S
Co2 O26 2.062 . S
C3 N5 1.316 . S
C3 N6 1.347 . S
C3 H8 0.931 . S
C4 N5 1.375 . S
C4 C7 1.350 . S
C4 H9 0.930 . S
N5 Co0 2.057 1_565 S
N5 C3 1.316 . S
N5 C4 1.375 . S
N6 C3 1.347 . S
N6 C7 1.373 . S
C7 C4 1.350 . S
C7 N6 1.373 . S
C7 H28 0.931 . S
H8 C3 0.931 . S
H9 C4 0.930 . S
C10 O17 1.259 . S
C10 O18 1.258 . S
N11 Co2 2.057 . S
N11 C12 1.316 . S
N11 C13 1.375 . S
C12 N11 1.316 . S
C12 N14 1.347 . S
C12 H23 0.931 . S
C13 N11 1.375 . S
C13 C15 1.350 . S
C13 H22 0.930 . S
N14 C12 1.347 . S
N14 C15 1.373 . S
C15 C13 1.350 . S
C15 N14 1.373 . S
C15 H29 0.931 . S
C16 O19 1.256 . S
C16 O20 1.255 . S
O17 Co0 2.021 . S
O17 C10 1.259 . S
O18 Co2 2.117 . S
O18 C10 1.258 . S
O19 Co2 2.020 . S
O19 C16 1.256 . S
O20 Co0 2.062 . S
O20 C16 1.255 . S
O21 C1 1.259 . S
O21 Co2 2.021 . S
H22 C13 0.930 . S
H23 C12 0.931 . S
O24 Co0 2.117 . S
O24 C1 1.258 . S
O25 Co0 2.020 . S
O25 C27 1.256 . S
O26 Co2 2.062 . S
O26 C27 1.255 . S
C27 O25 1.256 . S
C27 O26 1.255 . S
H28 C7 0.931 . S
H29 C15 0.931 . S
Co30 N35 2.057 . S
Co30 O47 2.021 . S
Co30 O50 2.062 . S
Co30 O54 2.117 . S
Co30 O55 2.020 . S
C31 O51 1.259 . S
C31 O54 1.258 . S
Co32 N41 2.057 . S
Co32 O48 2.117 . S
Co32 O49 2.020 . S
Co32 O51 2.021 . S
Co32 O56 2.062 . S
C33 N35 1.316 . S
C33 N36 1.347 . S
C33 H38 0.931 . S
C34 N35 1.375 . S
C34 C37 1.350 . S
C34 H39 0.930 . S
N35 Co30 2.057 . S
N35 C33 1.316 . S
N35 C34 1.375 . S
N36 C33 1.347 . S
N36 C37 1.373 . S
C37 C34 1.350 . S
C37 N36 1.373 . S
C37 H58 0.931 . S
H38 C33 0.931 . S
H39 C34 0.930 . S
C40 O47 1.259 . S
C40 O48 1.258 . S
N41 Co32 2.057 . S
N41 C42 1.316 . S
N41 C43 1.375 . S
C42 N41 1.316 . S
C42 N44 1.347 . S
C42 H53 0.931 . S
C43 N41 1.375 . S
C43 C45 1.350 . S
C43 H52 0.930 . S
N44 C42 1.347 . S
N44 C45 1.373 . S
C45 C43 1.350 . S
C45 N44 1.373 . S
C45 H59 0.931 . S
C46 O49 1.256 . S
C46 O50 1.255 . S
O47 Co30 2.021 . S
O47 C40 1.259 . S
O48 Co32 2.117 . S
O48 C40 1.258 . S
O49 Co32 2.020 . S
O49 C46 1.256 . S
O50 Co30 2.062 . S
O50 C46 1.255 . S
O51 C31 1.259 . S
O51 Co32 2.021 . S
H52 C43 0.930 . S
H53 C42 0.931 . S
O54 Co30 2.117 . S
O54 C31 1.258 . S
O55 Co30 2.020 . S
O55 C57 1.256 . S
O56 Co32 2.062 . S
O56 C57 1.255 . S
C57 O55 1.256 . S
C57 O56 1.255 . S
H58 C37 0.931 . S
H59 C45 0.931 . S
Co60 N65 2.057 1_655 S
Co60 O77 2.021 . S
Co60 O80 2.062 . S
Co60 O84 2.117 . S
Co60 O85 2.020 . S
C61 O81 1.259 . S
C61 O84 1.258 . S
Co62 N71 2.057 . S
Co62 O78 2.117 . S
Co62 O79 2.020 . S
Co62 O81 2.021 . S
Co62 O86 2.062 . S
C63 N65 1.316 . S
C63 N66 1.347 . S
C63 H68 0.931 . S
C64 N65 1.375 . S
C64 C67 1.350 . S
C64 H69 0.930 . S
N65 Co60 2.057 1_455 S
N65 C63 1.316 . S
N65 C64 1.375 . S
N66 C63 1.347 . S
N66 C67 1.373 . S
C67 C64 1.350 . S
C67 N66 1.373 . S
C67 H88 0.931 . S
H68 C63 0.931 . S
H69 C64 0.930 . S
C70 O77 1.259 . S
C70 O78 1.258 . S
N71 Co62 2.057 . S
N71 C72 1.316 . S
N71 C73 1.375 . S
C72 N71 1.316 . S
C72 N74 1.347 . S
C72 H83 0.931 . S
C73 N71 1.375 . S
C73 C75 1.350 . S
C73 H82 0.930 . S
N74 C72 1.347 . S
N74 C75 1.373 . S
C75 C73 1.350 . S
C75 N74 1.373 . S
C75 H89 0.931 . S
C76 O79 1.256 . S
C76 O80 1.255 . S
O77 Co60 2.021 . S
O77 C70 1.259 . S
O78 Co62 2.117 . S
O78 C70 1.258 . S
O79 Co62 2.020 . S
O79 C76 1.256 . S
O80 Co60 2.062 . S
O80 C76 1.255 . S
O81 C61 1.259 . S
O81 Co62 2.021 . S
H82 C73 0.930 . S
H83 C72 0.931 . S
O84 Co60 2.117 . S
O84 C61 1.258 . S
O85 Co60 2.020 . S
O85 C87 1.256 . S
O86 Co62 2.062 . S
O86 C87 1.255 . S
C87 O85 1.256 . S
C87 O86 1.255 . S
H88 C67 0.931 . S
H89 C75 0.931 . S
Co90 N95 2.057 . S
Co90 O107 2.021 . S
Co90 O110 2.062 . S
Co90 O114 2.117 . S
Co90 O115 2.020 . S
C91 O111 1.259 . S
C91 O114 1.258 . S
Co92 N101 2.057 1_455 S
Co92 O108 2.117 . S
Co92 O109 2.020 . S
Co92 O111 2.021 . S
Co92 O116 2.062 . S
C93 N95 1.316 . S
C93 N96 1.347 . S
C93 H98 0.931 . S
C94 N95 1.375 . S
C94 C97 1.350 . S
C94 H99 0.930 . S
N95 Co90 2.057 . S
N95 C93 1.316 . S
N95 C94 1.375 . S
N96 C93 1.347 . S
N96 C97 1.373 . S
C97 C94 1.350 . S
C97 N96 1.373 . S
C97 H118 0.931 . S
H98 C93 0.931 . S
H99 C94 0.930 . S
C100 O107 1.259 . S
C100 O108 1.258 . S
N101 Co92 2.057 1_655 S
N101 C102 1.316 . S
N101 C103 1.375 . S
C102 N101 1.316 . S
C102 N104 1.347 . S
C102 H113 0.931 . S
C103 N101 1.375 . S
C103 C105 1.350 . S
C103 H112 0.930 . S
N104 C102 1.347 . S
N104 C105 1.373 . S
C105 C103 1.350 . S
C105 N104 1.373 . S
C105 H119 0.931 . S
C106 O109 1.256 . S
C106 O110 1.255 . S
O107 Co90 2.021 . S
O107 C100 1.259 . S
O108 Co92 2.117 . S
O108 C100 1.258 . S
O109 Co92 2.020 . S
O109 C106 1.256 . S
O110 Co90 2.062 . S
O110 C106 1.255 . S
O111 C91 1.259 . S
O111 Co92 2.021 . S
H112 C103 0.930 . S
H113 C102 0.931 . S
O114 Co90 2.117 . S
O114 C91 1.258 . S
O115 Co90 2.020 . S
O115 C117 1.256 . S
O116 Co92 2.062 . S
O116 C117 1.255 . S
C117 O115 1.256 . S
C117 O116 1.255 . S
H118 C97 0.931 . S
H119 C105 0.931 . S
Co120 N125 2.057 . S
Co120 O137 2.021 . S
Co120 O140 2.062 . S
Co120 O144 2.117 . S
Co120 O145 2.020 . S
C121 O141 1.259 . S
C121 O144 1.258 . S
Co122 N131 2.057 1_565 S
Co122 O138 2.117 . S
Co122 O139 2.020 . S
Co122 O141 2.021 . S
Co122 O146 2.062 . S
C123 N125 1.316 . S
C123 N126 1.347 . S
C123 H128 0.931 . S
C124 N125 1.375 . S
C124 C127 1.350 . S
C124 H129 0.930 . S
N125 Co120 2.057 . S
N125 C123 1.316 . S
N125 C124 1.375 . S
N126 C123 1.347 . S
N126 C127 1.373 . S
C127 C124 1.350 . S
C127 N126 1.373 . S
C127 H148 0.931 . S
H128 C123 0.931 . S
H129 C124 0.930 . S
C130 O137 1.259 . S
C130 O138 1.258 . S
N131 Co122 2.057 1_545 S
N131 C132 1.316 . S
N131 C133 1.375 . S
C132 N131 1.316 . S
C132 N134 1.347 . S
C132 H143 0.931 . S
C133 N131 1.375 . S
C133 C135 1.350 . S
C133 H142 0.930 . S
N134 C132 1.347 . S
N134 C135 1.373 . S
C135 C133 1.350 . S
C135 N134 1.373 . S
C135 H149 0.931 . S
C136 O139 1.256 . S
C136 O140 1.255 . S
O137 Co120 2.021 . S
O137 C130 1.259 . S
O138 Co122 2.117 . S
O138 C130 1.258 . S
O139 Co122 2.020 . S
O139 C136 1.256 . S
O140 Co120 2.062 . S
O140 C136 1.255 . S
O141 C121 1.259 . S
O141 Co122 2.021 . S
H142 C133 0.930 . S
H143 C132 0.931 . S
O144 Co120 2.117 . S
O144 C121 1.258 . S
O145 Co120 2.020 . S
O145 C147 1.256 . S
O146 Co122 2.062 . S
O146 C147 1.255 . S
C147 O145 1.256 . S
C147 O146 1.255 . S
H148 C127 0.931 . S
H149 C135 0.931 . S
Co150 N155 2.057 . S
Co150 O167 2.021 . S
Co150 O170 2.062 . S
Co150 O174 2.117 . S
Co150 O175 2.020 . S
C151 O171 1.259 . S
C151 O174 1.258 . S
Co152 N161 2.057 . S
Co152 O168 2.117 . S
Co152 O169 2.020 . S
Co152 O171 2.021 . S
Co152 O176 2.062 . S
C153 N155 1.316 . S
C153 N156 1.347 . S
C153 H158 0.931 . S
C154 N155 1.375 . S
C154 C157 1.350 . S
C154 H159 0.930 . S
N155 Co150 2.057 . S
N155 C153 1.316 . S
N155 C154 1.375 . S
N156 C153 1.347 . S
N156 C157 1.373 . S
C157 C154 1.350 . S
C157 N156 1.373 . S
C157 H178 0.931 . S
H158 C153 0.931 . S
H159 C154 0.930 . S
C160 O167 1.259 . S
C160 O168 1.258 . S
N161 Co152 2.057 . S
N161 C162 1.316 . S
N161 C163 1.375 . S
C162 N161 1.316 . S
C162 N164 1.347 . S
C162 H173 0.931 . S
C163 N161 1.375 . S
C163 C165 1.350 . S
C163 H172 0.930 . S
N164 C162 1.347 . S
N164 C165 1.373 . S
C165 C163 1.350 . S
C165 N164 1.373 . S
C165 H179 0.931 . S
C166 O169 1.256 . S
C166 O170 1.255 . S
O167 Co150 2.021 . S
O167 C160 1.259 . S
O168 Co152 2.117 . S
O168 C160 1.258 . S
O169 Co152 2.020 . S
O169 C166 1.256 . S
O170 Co150 2.062 . S
O170 C166 1.255 . S
O171 C151 1.259 . S
O171 Co152 2.021 . S
H172 C163 0.930 . S
H173 C162 0.931 . S
O174 Co150 2.117 . S
O174 C151 1.258 . S
O175 Co150 2.020 . S
O175 C177 1.256 . S
O176 Co152 2.062 . S
O176 C177 1.255 . S
C177 O175 1.256 . S
C177 O176 1.255 . S
H178 C157 0.931 . S
H179 C165 0.931 . S
H180 C188 0.950 . S
H181 C193 0.950 . S
H182 C190 0.950 . S
H183 C192 0.950 . S
H184 C194 0.950 . S
H185 C196 0.950 . S
H186 C198 0.950 . S
H187 C199 0.950 . S
C188 H180 0.950 . S
C188 C189 1.386 . S
C188 C190 1.391 . S
C189 C188 1.386 . S
C189 C193 1.393 . S
C190 H182 0.950 . S
C190 C188 1.391 . S
C190 C191 1.400 . S
C191 C190 1.400 . S
C191 C192 1.398 . S
C191 C197 1.491 1_566 S
C192 H183 0.950 . S
C192 C191 1.398 . S
C192 C193 1.391 . S
C193 H181 0.950 . S
C193 C189 1.393 . S
C193 C192 1.391 . S
C194 H184 0.950 . S
C194 C195 1.386 . S
C194 C196 1.391 . S
C195 C194 1.386 . S
C195 C199 1.393 . S
C196 H185 0.950 . S
C196 C194 1.391 . S
C196 C197 1.400 . S
C197 C191 1.491 1_544 S
C197 C196 1.400 . S
C197 C198 1.398 . S
C198 H186 0.950 . S
C198 C197 1.398 . S
C198 C199 1.391 . S
C199 H187 0.950 . S
C199 C195 1.393 . S
C199 C198 1.391 . S
H200 C208 0.950 . S
H201 C213 0.950 . S
H202 C210 0.950 . S
H203 C212 0.950 . S
H204 C214 0.950 . S
H205 C216 0.950 . S
H206 C218 0.950 . S
H207 C219 0.950 . S
C208 H200 0.950 . S
C208 C209 1.386 . S
C208 C210 1.391 . S
C209 C208 1.386 . S
C209 C213 1.393 . S
C210 H202 0.950 . S
C210 C208 1.391 . S
C210 C211 1.400 . S
C211 C210 1.400 . S
C211 C212 1.398 . S
C211 C217 1.491 . S
C212 H203 0.950 . S
C212 C211 1.398 . S
C212 C213 1.391 . S
C213 H201 0.950 . S
C213 C209 1.393 . S
C213 C212 1.391 . S
C214 H204 0.950 . S
C214 C215 1.386 . S
C214 C216 1.391 . S
C215 C214 1.386 . S
C215 C219 1.393 . S
C216 H205 0.950 . S
C216 C214 1.391 . S
C216 C217 1.400 . S
C217 C211 1.491 . S
C217 C216 1.400 . S
C217 C218 1.398 . S
C218 H206 0.950 . S
C218 C217 1.398 . S
C218 C219 1.391 . S
C219 H207 0.950 . S
C219 C215 1.393 . S
C219 C218 1.391 . S
H220 C228 0.950 . S
H221 C233 0.950 . S
H222 C230 0.950 1_455 S
H223 C232 0.950 . S
H224 C234 0.950 . S
H225 C236 0.950 1_655 S
H226 C238 0.950 . S
H227 C239 0.950 . S
C228 H220 0.950 . S
C228 C229 1.386 . S
C228 C230 1.391 . S
C229 C228 1.386 . S
C229 C233 1.393 . S
C230 H222 0.950 1_655 S
C230 C228 1.391 . S
C230 C231 1.400 . S
C231 C230 1.400 . S
C231 C232 1.398 . S
C231 C237 1.491 1_654 S
C232 H223 0.950 . S
C232 C231 1.398 . S
C232 C233 1.391 . S
C233 H221 0.950 . S
C233 C229 1.393 . S
C233 C232 1.391 . S
C234 H224 0.950 . S
C234 C235 1.386 . S
C234 C236 1.391 . S
C235 C234 1.386 . S
C235 C239 1.393 . S
C236 H225 0.950 1_455 S
C236 C234 1.391 . S
C236 C237 1.400 . S
C237 C231 1.491 1_456 S
C237 C236 1.400 . S
C237 C238 1.398 . S
C238 H226 0.950 . S
C238 C237 1.398 . S
C238 C239 1.391 . S
C239 H227 0.950 . S
C239 C235 1.393 . S
C239 C238 1.391 . S
H240 C248 0.950 . S
H241 C253 0.950 . S
H242 C250 0.950 . S
H243 C252 0.950 . S
H244 C254 0.950 . S
H245 C256 0.950 . S
H246 C258 0.950 . S
H247 C259 0.950 . S
C248 H240 0.950 . S
C248 C249 1.386 . S
C248 C250 1.391 . S
C249 C248 1.386 . S
C249 C253 1.393 . S
C250 H242 0.950 . S
C250 C248 1.391 . S
C250 C251 1.400 . S
C251 C250 1.400 . S
C251 C252 1.398 . S
C251 C257 1.491 1_545 S
C252 H243 0.950 . S
C252 C251 1.398 . S
C252 C253 1.391 . S
C253 H241 0.950 . S
C253 C249 1.393 . S
C253 C252 1.391 . S
C254 H244 0.950 . S
C254 C255 1.386 . S
C254 C256 1.391 . S
C255 C254 1.386 . S
C255 C259 1.393 . S
C256 H245 0.950 . S
C256 C254 1.391 . S
C256 C257 1.400 . S
C257 C251 1.491 1_565 S
C257 C256 1.400 . S
C257 C258 1.398 . S
C258 H246 0.950 . S
C258 C257 1.398 . S
C258 C259 1.391 . S
C259 H247 0.950 . S
C259 C255 1.393 . S
C259 C258 1.391 . S
H260 C268 0.950 . S
H261 C273 0.950 . S
H262 C270 0.950 . S
H263 C272 0.950 . S
H264 C274 0.950 . S
H265 C276 0.950 . S
H266 C278 0.950 . S
H267 C279 0.950 . S
C268 H260 0.950 . S
C268 C269 1.386 . S
C268 C270 1.391 . S
C269 C268 1.386 . S
C269 C273 1.393 . S
C270 H262 0.950 . S
C270 C268 1.391 . S
C270 C271 1.400 . S
C271 C270 1.400 . S
C271 C272 1.398 . S
C271 C277 1.491 1_556 S
C272 H263 0.950 . S
C272 C271 1.398 . S
C272 C273 1.391 . S
C273 H261 0.950 . S
C273 C269 1.393 . S
C273 C272 1.391 . S
C274 H264 0.950 . S
C274 C275 1.386 . S
C274 C276 1.391 . S
C275 C274 1.386 . S
C275 C279 1.393 . S
C276 H265 0.950 . S
C276 C274 1.391 . S
C276 C277 1.400 . S
C277 C271 1.491 1_554 S
C277 C276 1.400 . S
C277 C278 1.398 . S
C278 H266 0.950 . S
C278 C277 1.398 . S
C278 C279 1.391 . S
C279 H267 0.950 . S
C279 C275 1.393 . S
C279 C278 1.391 . S
H280 C288 0.950 . S
H281 C293 0.950 . S
H282 C290 0.950 . S
H283 C292 0.950 . S
H284 C294 0.950 . S
H285 C296 0.950 . S
H286 C298 0.950 . S
H287 C299 0.950 . S
C288 H280 0.950 . S
C288 C289 1.386 . S
C288 C290 1.391 . S
C289 C288 1.386 . S
C289 C293 1.393 . S
C290 H282 0.950 . S
C290 C288 1.391 . S
C290 C291 1.400 . S
C291 C290 1.400 . S
C291 C292 1.398 1_655 S
C291 C297 1.491 1_655 S
C292 H283 0.950 . S
C292 C291 1.398 1_455 S
C292 C293 1.391 1_455 S
C293 H281 0.950 . S
C293 C289 1.393 . S
C293 C292 1.391 1_655 S
C294 H284 0.950 . S
C294 C295 1.386 . S
C294 C296 1.391 . S
C295 C294 1.386 . S
C295 C299 1.393 . S
C296 H285 0.950 . S
C296 C294 1.391 . S
C296 C297 1.400 . S
C297 C291 1.491 1_455 S
C297 C296 1.400 . S
C297 C298 1.398 1_455 S
C298 H286 0.950 . S
C298 C297 1.398 1_655 S
C298 C299 1.391 1_655 S
C299 H287 0.950 . S
C299 C295 1.393 . S
C299 C298 1.391 1_455 S
H300 C308 0.950 . S
H301 C313 0.950 . S
H302 C310 0.950 . S
H303 C312 0.950 . S
H304 C314 0.950 . S
H305 C316 0.950 . S
H306 C318 0.950 . S
H307 C319 0.950 . S
C308 H300 0.950 . S
C308 C309 1.386 . S
C308 C310 1.391 . S
C309 C308 1.386 . S
C309 C313 1.393 . S
C310 H302 0.950 . S
C310 C308 1.391 . S
C310 C311 1.400 . S
C311 C310 1.400 . S
C311 C312 1.398 . S
C311 C317 1.491 . S
C312 H303 0.950 . S
C312 C311 1.398 . S
C312 C313 1.391 . S
C313 H301 0.950 . S
C313 C309 1.393 . S
C313 C312 1.391 . S
C314 H304 0.950 . S
C314 C315 1.386 . S
C314 C316 1.391 . S
C315 C314 1.386 . S
C315 C319 1.393 . S
C316 H305 0.950 . S
C316 C314 1.391 . S
C316 C317 1.400 . S
C317 C311 1.491 . S
C317 C316 1.400 . S
C317 C318 1.398 . S
C318 H306 0.950 . S
C318 C317 1.398 . S
C318 C319 1.391 . S
C319 H307 0.950 . S
C319 C315 1.393 . S
C319 C318 1.391 . S
H320 C328 0.950 . S
H321 C333 0.950 . S
H322 C330 0.950 . S
H323 C332 0.950 . S
H324 C334 0.950 . S
H325 C336 0.950 . S
H326 C338 0.950 . S
H327 C339 0.950 . S
C328 H320 0.950 . S
C328 C329 1.386 . S
C328 C330 1.391 . S
C329 C328 1.386 . S
C329 C333 1.393 . S
C330 H322 0.950 . S
C330 C328 1.391 . S
C330 C331 1.400 . S
C331 C330 1.400 . S
C331 C332 1.398 . S
C331 C337 1.491 . S
C332 H323 0.950 . S
C332 C331 1.398 . S
C332 C333 1.391 . S
C333 H321 0.950 . S
C333 C329 1.393 . S
C333 C332 1.391 . S
C334 H324 0.950 . S
C334 C335 1.386 . S
C334 C336 1.391 . S
C335 C334 1.386 . S
C335 C339 1.393 . S
C336 H325 0.950 . S
C336 C334 1.391 . S
C336 C337 1.400 . S
C337 C331 1.491 . S
C337 C336 1.400 . S
C337 C338 1.398 . S
C338 H326 0.950 . S
C338 C337 1.398 . S
C338 C339 1.391 . S
C339 H327 0.950 . S
C339 C335 1.393 . S
C339 C338 1.391 . S
H340 C348 0.950 . S
H341 C353 0.950 . S
H342 C350 0.950 . S
H343 C352 0.950 . S
H344 C354 0.950 . S
H345 C356 0.950 . S
H346 C358 0.950 . S
H347 C359 0.950 . S
C348 H340 0.950 . S
C348 C349 1.386 . S
C348 C350 1.391 . S
C349 C348 1.386 . S
C349 C353 1.393 . S
C350 H342 0.950 . S
C350 C348 1.391 . S
C350 C351 1.400 . S
C351 C350 1.400 . S
C351 C352 1.398 . S
C351 C357 1.491 . S
C352 H343 0.950 . S
C352 C351 1.398 . S
C352 C353 1.391 . S
C353 H341 0.950 . S
C353 C349 1.393 . S
C353 C352 1.391 . S
C354 H344 0.950 . S
C354 C355 1.386 . S
C354 C356 1.391 . S
C355 C354 1.386 . S
C355 C359 1.393 . S
C356 H345 0.950 . S
C356 C354 1.391 . S
C356 C357 1.400 . S
C357 C351 1.491 . S
C357 C356 1.400 . S
C357 C358 1.398 . S
C358 H346 0.950 . S
C358 C357 1.398 . S
C358 C359 1.391 . S
C359 H347 0.950 . S
C359 C355 1.393 . S
C359 C358 1.391 . S
H360 C368 0.950 . S
H361 C373 0.950 . S
H362 C370 0.950 . S
H363 C372 0.950 . S
H364 C374 0.950 . S
H365 C376 0.950 . S
H366 C378 0.950 . S
H367 C379 0.950 . S
C368 H360 0.950 . S
C368 C369 1.386 . S
C368 C370 1.391 . S
C369 C368 1.386 . S
C369 C373 1.393 . S
C370 H362 0.950 . S
C370 C368 1.391 . S
C370 C371 1.400 . S
C371 C370 1.400 . S
C371 C372 1.398 . S
C371 C377 1.491 . S
C372 H363 0.950 . S
C372 C371 1.398 . S
C372 C373 1.391 . S
C373 H361 0.950 . S
C373 C369 1.393 . S
C373 C372 1.391 . S
C374 H364 0.950 . S
C374 C375 1.386 . S
C374 C376 1.391 . S
C375 C374 1.386 . S
C375 C379 1.393 . S
C376 H365 0.950 . S
C376 C374 1.391 . S
C376 C377 1.400 . S
C377 C371 1.491 . S
C377 C376 1.400 . S
C377 C378 1.398 . S
C378 H366 0.950 . S
C378 C377 1.398 . S
C378 C379 1.391 . S
C379 H367 0.950 . S
C379 C375 1.393 . S
C379 C378 1.391 . S
H380 C388 0.950 . S
H381 C393 0.950 . S
H382 C390 0.950 . S
H383 C392 0.950 . S
H384 C394 0.950 . S
H385 C396 0.950 . S
H386 C398 0.950 . S
H387 C399 0.950 . S
C388 H380 0.950 . S
C388 C389 1.386 . S
C388 C390 1.391 . S
C389 C388 1.386 . S
C389 C393 1.393 . S
C390 H382 0.950 . S
C390 C388 1.391 . S
C390 C391 1.400 . S
C391 C390 1.400 . S
C391 C392 1.398 . S
C391 C397 1.491 . S
C392 H383 0.950 . S
C392 C391 1.398 . S
C392 C393 1.391 . S
C393 H381 0.950 . S
C393 C389 1.393 . S
C393 C392 1.391 . S
C394 H384 0.950 . S
C394 C395 1.386 . S
C394 C396 1.391 . S
C395 C394 1.386 . S
C395 C399 1.393 . S
C396 H385 0.950 . S
C396 C394 1.391 . S
C396 C397 1.400 . S
C397 C391 1.491 . S
C397 C396 1.400 . S
C397 C398 1.398 . S
C398 H386 0.950 . S
C398 C397 1.398 . S
C398 C399 1.391 . S
C399 H387 0.950 . S
C399 C395 1.393 . S
C399 C398 1.391 . S
H400 C408 0.950 . S
H401 C413 0.950 . S
H402 C410 0.950 . S
H403 C412 0.950 . S
H404 C414 0.950 . S
H405 C416 0.950 . S
H406 C418 0.950 . S
H407 C419 0.950 . S
C408 H400 0.950 . S
C408 C409 1.386 . S
C408 C410 1.391 . S
C409 C408 1.386 . S
C409 C413 1.393 . S
C410 H402 0.950 . S
C410 C408 1.391 . S
C410 C411 1.400 . S
C411 C410 1.400 . S
C411 C412 1.398 . S
C411 C417 1.491 . S
C412 H403 0.950 . S
C412 C411 1.398 . S
C412 C413 1.391 . S
C413 H401 0.950 . S
C413 C409 1.393 . S
C413 C412 1.391 . S
C414 H404 0.950 . S
C414 C415 1.386 . S
C414 C416 1.391 . S
C415 C414 1.386 . S
C415 C419 1.393 . S
C416 H405 0.950 . S
C416 C414 1.391 . S
C416 C417 1.400 . S
C417 C411 1.491 . S
C417 C416 1.400 . S
C417 C418 1.398 . S
C418 H406 0.950 . S
C418 C417 1.398 . S
C418 C419 1.391 . S
C419 H407 0.950 . S
C419 C415 1.393 . S
C419 C418 1.391 . S
H420 C428 0.950 . S
H421 C433 0.950 . S
H422 C430 0.950 . S
H423 C432 0.950 . S
H424 C434 0.950 . S
H425 C436 0.950 . S
H426 C438 0.950 . S
H427 C439 0.950 . S
C428 H420 0.950 . S
C428 C429 1.386 . S
C428 C430 1.391 . S
C429 C428 1.386 . S
C429 C433 1.393 . S
C430 H422 0.950 . S
C430 C428 1.391 . S
C430 C431 1.400 . S
C431 C430 1.400 . S
C431 C432 1.398 . S
C431 C437 1.491 . S
C432 H423 0.950 . S
C432 C431 1.398 . S
C432 C433 1.391 . S
C433 H421 0.950 . S
C433 C429 1.393 . S
C433 C432 1.391 . S
C434 H424 0.950 . S
C434 C435 1.386 . S
C434 C436 1.391 . S
C435 C434 1.386 . S
C435 C439 1.393 . S
C436 H425 0.950 . S
C436 C434 1.391 . S
C436 C437 1.400 . S
C437 C431 1.491 . S
C437 C436 1.400 . S
C437 C438 1.398 . S
C438 H426 0.950 . S
C438 C437 1.398 . S
C438 C439 1.391 . S
C439 H427 0.950 . S
C439 C435 1.393 . S
C439 C438 1.391 . S
H440 C448 0.950 . S
H441 C453 0.950 . S
H442 C450 0.950 . S
H443 C452 0.950 . S
H444 C454 0.950 . S
H445 C456 0.950 . S
H446 C458 0.950 . S
H447 C459 0.950 . S
C448 H440 0.950 . S
C448 C449 1.386 . S
C448 C450 1.391 . S
C449 C448 1.386 . S
C449 C453 1.393 . S
C450 H442 0.950 . S
C450 C448 1.391 . S
C450 C451 1.400 . S
C451 C450 1.400 . S
C451 C452 1.398 . S
C451 C457 1.491 1_655 S
C452 H443 0.950 . S
C452 C451 1.398 . S
C452 C453 1.391 . S
C453 H441 0.950 . S
C453 C449 1.393 . S
C453 C452 1.391 . S
C454 H444 0.950 . S
C454 C455 1.386 . S
C454 C456 1.391 . S
C455 C454 1.386 . S
C455 C459 1.393 . S
C456 H445 0.950 . S
C456 C454 1.391 . S
C456 C457 1.400 . S
C457 C451 1.491 1_455 S
C457 C456 1.400 . S
C457 C458 1.398 . S
C458 H446 0.950 . S
C458 C457 1.398 . S
C458 C459 1.391 . S
C459 H447 0.950 . S
C459 C455 1.393 . S
C459 C458 1.391 . S
H460 C468 0.950 . S
H461 C473 0.950 . S
H462 C470 0.950 . S
H463 C472 0.950 . S
H464 C474 0.950 . S
H465 C476 0.950 . S
H466 C478 0.950 . S
H467 C479 0.950 . S
C468 H460 0.950 . S
C468 C469 1.386 . S
C468 C470 1.391 . S
C469 C468 1.386 . S
C469 C473 1.393 . S
C470 H462 0.950 . S
C470 C468 1.391 . S
C470 C471 1.400 . S
C471 C470 1.400 . S
C471 C472 1.398 . S
C471 C477 1.491 1_545 S
C472 H463 0.950 . S
C472 C471 1.398 . S
C472 C473 1.391 . S
C473 H461 0.950 . S
C473 C469 1.393 . S
C473 C472 1.391 . S
C474 H464 0.950 . S
C474 C475 1.386 . S
C474 C476 1.391 . S
C475 C474 1.386 . S
C475 C479 1.393 . S
C476 H465 0.950 . S
C476 C474 1.391 . S
C476 C477 1.400 . S
C477 C471 1.491 1_565 S
C477 C476 1.400 . S
C477 C478 1.398 . S
C478 H466 0.950 . S
C478 C477 1.398 . S
C478 C479 1.391 . S
C479 H467 0.950 . S
C479 C475 1.393 . S
C479 C478 1.391 . S
H480 C488 0.950 . S
H481 C493 0.950 . S
H482 C490 0.950 . S
H483 C492 0.950 . S
H484 C494 0.950 . S
H485 C496 0.950 . S
H486 C498 0.950 . S
H487 C499 0.950 . S
C488 H480 0.950 . S
C488 C489 1.386 . S
C488 C490 1.391 . S
C489 C488 1.386 . S
C489 C493 1.393 . S
C490 H482 0.950 . S
C490 C488 1.391 . S
C490 C491 1.400 . S
C491 C490 1.400 . S
C491 C492 1.398 . S
C491 C497 1.491 . S
C492 H483 0.950 . S
C492 C491 1.398 . S
C492 C493 1.391 . S
C493 H481 0.950 . S
C493 C489 1.393 . S
C493 C492 1.391 . S
C494 H484 0.950 . S
C494 C495 1.386 . S
C494 C496 1.391 . S
C495 C494 1.386 . S
C495 C499 1.393 . S
C496 H485 0.950 . S
C496 C494 1.391 . S
C496 C497 1.400 . S
C497 C491 1.491 . S
C497 C496 1.400 . S
C497 C498 1.398 . S
C498 H486 0.950 . S
C498 C497 1.398 . S
C498 C499 1.391 . S
C499 H487 0.950 . S
C499 C495 1.393 . S
C499 C498 1.391 . S
H500 C508 0.950 . S
H501 C513 0.950 . S
H502 C510 0.950 . S
H503 C512 0.950 . S
H504 C514 0.950 . S
H505 C516 0.950 . S
H506 C518 0.950 . S
H507 C519 0.950 . S
C508 H500 0.950 . S
C508 C509 1.386 . S
C508 C510 1.391 . S
C509 C508 1.386 . S
C509 C513 1.393 . S
C510 H502 0.950 . S
C510 C508 1.391 . S
C510 C511 1.400 . S
C511 C510 1.400 . S
C511 C512 1.398 . S
C511 C517 1.491 1_455 S
C512 H503 0.950 . S
C512 C511 1.398 . S
C512 C513 1.391 . S
C513 H501 0.950 . S
C513 C509 1.393 . S
C513 C512 1.391 . S
C514 H504 0.950 . S
C514 C515 1.386 . S
C514 C516 1.391 . S
C515 C514 1.386 . S
C515 C519 1.393 . S
C516 H505 0.950 . S
C516 C514 1.391 . S
C516 C517 1.400 . S
C517 C511 1.491 1_655 S
C517 C516 1.400 . S
C517 C518 1.398 . S
C518 H506 0.950 . S
C518 C517 1.398 . S
C518 C519 1.391 . S
C519 H507 0.950 . S
C519 C515 1.393 . S
C519 C518 1.391 . S
H520 C528 0.950 . S
H521 C533 0.950 . S
H522 C530 0.950 . S
H523 C532 0.950 . S
H524 C534 0.950 . S
H525 C536 0.950 . S
H526 C538 0.950 . S
H527 C539 0.950 . S
C528 H520 0.950 . S
C528 C529 1.386 . S
C528 C530 1.391 . S
C529 C528 1.386 . S
C529 C533 1.393 . S
C530 H522 0.950 . S
C530 C528 1.391 . S
C530 C531 1.400 . S
C531 C530 1.400 . S
C531 C532 1.398 . S
C531 C537 1.491 1_545 S
C532 H523 0.950 . S
C532 C531 1.398 . S
C532 C533 1.391 . S
C533 H521 0.950 . S
C533 C529 1.393 . S
C533 C532 1.391 . S
C534 H524 0.950 . S
C534 C535 1.386 . S
C534 C536 1.391 . S
C535 C534 1.386 . S
C535 C539 1.393 . S
C536 H525 0.950 . S
C536 C534 1.391 . S
C536 C537 1.400 . S
C537 C531 1.491 1_565 S
C537 C536 1.400 . S
C537 C538 1.398 . S
C538 H526 0.950 . S
C538 C537 1.398 . S
C538 C539 1.391 . S
C539 H527 0.950 . S
C539 C535 1.393 . S
C539 C538 1.391 . S
C189 C121 1.985 . S
C195 C1 2.061 . S
C209 C160 2.141 . S
C215 C40 2.143 . S
C229 C61 2.168 . S
C235 C91 2.087 . S
C249 C10 2.143 . S
C255 C130 2.217 . S
C269 C151 2.079 . S
C275 C31 2.079 . S
C289 C70 2.023 . S
C295 C100 2.099 . S
C309 C27 1.229 . S
C315 N74 1.214 . S
C329 C46 1.237 . S
C335 N14 1.244 . S
C349 C87 1.238 . S
C355 N36 1.223 . S
C369 C106 1.243 . S
C375 N126 1.226 . S
C389 C136 1.215 . S
C395 N156 1.222 . S
C409 N96 1.230 . S
C415 C166 1.219 . S
C429 C16 0.871 . S
C435 N66 0.874 . S
C449 C57 0.858 . S
C455 N6 0.831 . S
C469 C76 0.874 . S
C475 N44 0.847 . S
C489 C117 0.877 . S
C495 N134 0.852 . S
C509 C147 0.862 . S
C515 N164 0.859 . S
C529 N104 0.862 . S
C535 C177 0.862 . S
