# Generated by pormake.
# Topology gis, (4)-cn, num edge types: 1
# Building blocks:
#     Node 0, Type 0, BuildingBlock: NAHDIM_clean_sbu_0, # of connection points: 4
#     Node 1, Type 0, BuildingBlock: NAHDIM_clean_sbu_0, # of connection points: 4
#     Node 2, Type 0, BuildingBlock: NAHDIM_clean_sbu_0, # of connection points: 4
#     Node 3, Type 0, BuildingBlock: NAHDIM_clean_sbu_0, # of connection points: 4
#     Node 4, Type 0, BuildingBlock: NAHDIM_clean_sbu_0, # of connection points: 4
#     Node 5, Type 0, BuildingBlock: NAHDIM_clean_sbu_0, # of connection points: 4
#     Node 6, Type 0, BuildingBlock: NAHDIM_clean_sbu_0, # of connection points: 4
#     Node 7, Type 0, BuildingBlock: NAHDIM_clean_sbu_0, # of connection points: 4
#     Node 8, Type 0, BuildingBlock: NAHDIM_clean_sbu_0, # of connection points: 4
#     Node 9, Type 0, BuildingBlock: NAHDIM_clean_sbu_0, # of connection points: 4
#     Node 10, Type 0, BuildingBlock: NAHDIM_clean_sbu_0, # of connection points: 4
#     Node 11, Type 0, BuildingBlock: NAHDIM_clean_sbu_0, # of connection points: 4
#     Node 12, Type 0, BuildingBlock: NAHDIM_clean_sbu_0, # of connection points: 4
#     Node 13, Type 0, BuildingBlock: NAHDIM_clean_sbu_0, # of connection points: 4
#     Node 14, Type 0, BuildingBlock: NAHDIM_clean_sbu_0, # of connection points: 4
#     Node 15, Type 0, BuildingBlock: NAHDIM_clean_sbu_0, # of connection points: 4
#     Edge 16, Type (0, 0), BuildingBlock: EZIPEK_clean_linker_0, # of connection points: 2
#     Edge 17, Type (0, 0), BuildingBlock: EZIPEK_clean_linker_0, # of connection points: 2
#     Edge 18, Type (0, 0), BuildingBlock: EZIPEK_clean_linker_0, # of connection points: 2
#     Edge 19, Type (0, 0), BuildingBlock: EZIPEK_clean_linker_0, # of connection points: 2
#     Edge 20, Type (0, 0), BuildingBlock: EZIPEK_clean_linker_0, # of connection points: 2
#     Edge 21, Type (0, 0), BuildingBlock: EZIPEK_clean_linker_0, # of connection points: 2
#     Edge 22, Type (0, 0), BuildingBlock: EZIPEK_clean_linker_0, # of connection points: 2
#     Edge 23, Type (0, 0), BuildingBlock: EZIPEK_clean_linker_0, # of connection points: 2
#     Edge 24, Type (0, 0), BuildingBlock: EZIPEK_clean_linker_0, # of connection points: 2
#     Edge 25, Type (0, 0), BuildingBlock: EZIPEK_clean_linker_0, # of connection points: 2
#     Edge 26, Type (0, 0), BuildingBlock: EZIPEK_clean_linker_0, # of connection points: 2
#     Edge 27, Type (0, 0), BuildingBlock: EZIPEK_clean_linker_0, # of connection points: 2
#     Edge 28, Type (0, 0), BuildingBlock: EZIPEK_clean_linker_0, # of connection points: 2
#     Edge 29, Type (0, 0), BuildingBlock: EZIPEK_clean_linker_0, # of connection points: 2
#     Edge 30, Type (0, 0), BuildingBlock: EZIPEK_clean_linker_0, # of connection points: 2
#     Edge 31, Type (0, 0), BuildingBlock: EZIPEK_clean_linker_0, # of connection points: 2
#     Edge 32, Type (0, 0), BuildingBlock: EZIPEK_clean_linker_0, # of connection points: 2
#     Edge 33, Type (0, 0), BuildingBlock: EZIPEK_clean_linker_0, # of connection points: 2
#     Edge 34, Type (0, 0), BuildingBlock: EZIPEK_clean_linker_0, # of connection points: 2
#     Edge 35, Type (0, 0), BuildingBlock: EZIPEK_clean_linker_0, # of connection points: 2
#     Edge 36, Type (0, 0), BuildingBlock: EZIPEK_clean_linker_0, # of connection points: 2
#     Edge 37, Type (0, 0), BuildingBlock: EZIPEK_clean_linker_0, # of connection points: 2
#     Edge 38, Type (0, 0), BuildingBlock: EZIPEK_clean_linker_0, # of connection points: 2
#     Edge 39, Type (0, 0), BuildingBlock: EZIPEK_clean_linker_0, # of connection points: 2
#     Edge 40, Type (0, 0), BuildingBlock: EZIPEK_clean_linker_0, # of connection points: 2
#     Edge 41, Type (0, 0), BuildingBlock: EZIPEK_clean_linker_0, # of connection points: 2
#     Edge 42, Type (0, 0), BuildingBlock: EZIPEK_clean_linker_0, # of connection points: 2
#     Edge 43, Type (0, 0), BuildingBlock: EZIPEK_clean_linker_0, # of connection points: 2
#     Edge 44, Type (0, 0), BuildingBlock: EZIPEK_clean_linker_0, # of connection points: 2
#     Edge 45, Type (0, 0), BuildingBlock: EZIPEK_clean_linker_0, # of connection points: 2
#     Edge 46, Type (0, 0), BuildingBlock: EZIPEK_clean_linker_0, # of connection points: 2
#     Edge 47, Type (0, 0), BuildingBlock: EZIPEK_clean_linker_0, # of connection points: 2
# Relax obj value: 0.161
# Max RMSD: 0.165
# Mean RMSD: 0.149
data_MOF--net-gis--node1-NAHDIM_clean_sbu_0--edge1-EZIPEK_clean_linker_0
_symmetry_space_group_name_H-M    P1
_symmetry_Int_Tables_number       1
_symmetry_cell_setting            triclinic
loop_
_symmetry_equiv_pos_as_xyz
'x, y, z'
_cell_length_a     35.917446
_cell_length_b     33.342305
_cell_length_c     34.732365
_cell_angle_alpha  91.715262
_cell_angle_beta   91.165581
_cell_angle_gamma 89.985125
loop_
_atom_site_label
_atom_site_type_symbol
_atom_site_fract_x
_atom_site_fract_y
_atom_site_fract_z
_atom_type_partial_charge
C0 C 0.2239 0.53902 0.15509 0.0
O1 O 0.21318 0.51179 0.12911 0.0
O2 O 0.18405 0.56023 0.06197 0.0
Zn3 Zn 0.1796 0.5945 0.11015 0.0
O4 O 0.19138 0.65211 0.10047 0.0
C5 C 0.10587 0.56241 0.11644 0.0
O6 O 0.12103 0.53047 0.10022 0.0
O7 O 0.21318 0.57513 0.1524 0.0
C8 C 0.18473 0.67686 0.12796 0.0
O9 O 0.17246 0.66366 0.16061 0.0
C10 C 0.18883 0.57383 0.02867 0.0
O11 O 0.19359 0.61246 0.02441 0.0
O12 O 0.12607 0.5926 0.12566 0.0
C13 C 0.70197 0.9579 0.3096 0.0
O14 O 0.68928 0.9919 0.32419 0.0
O15 O 0.66942 0.95522 0.41057 0.0
Zn16 Zn 0.65701 0.91745 0.36619 0.0
O17 O 0.66169 0.85988 0.38114 0.0
C18 C 0.57961 0.9167 0.37251 0.0
O19 O 0.58979 0.89973 0.40467 0.0
O20 O 0.69189 0.92477 0.32308 0.0
C21 C 0.65469 0.83386 0.35455 0.0
O22 O 0.64489 0.84561 0.32005 0.0
C23 C 0.68108 0.94323 0.44301 0.0
O24 O 0.68732 0.90489 0.44782 0.0
O25 O 0.60419 0.92765 0.34928 0.0
C26 C 0.32002 0.45744 0.5449 0.0
O27 O 0.32554 0.48219 0.5746 0.0
O28 O 0.29747 0.42419 0.64011 0.0
Zn29 Zn 0.33451 0.4019 0.60258 0.0
O30 O 0.38663 0.42041 0.6159 0.0
C31 C 0.30645 0.31999 0.59523 0.0
O32 O 0.27516 0.3365 0.58357 0.0
O33 O 0.3213 0.41988 0.54968 0.0
C34 C 0.40566 0.40194 0.64099 0.0
O35 O 0.39042 0.37263 0.65952 0.0
C36 C 0.2921 0.40568 0.67089 0.0
O37 O 0.31158 0.37345 0.67838 0.0
O38 O 0.33459 0.34178 0.60358 0.0
C39 C 0.79241 0.01833 0.94254 0.0
O40 O 0.76726 0.01368 0.91481 0.0
O41 O 0.79335 0.06709 0.84994 0.0
Zn42 Zn 0.82476 0.08161 0.89651 0.0
O43 O 0.87837 0.07642 0.88314 0.0
C44 C 0.78787 0.159 0.90063 0.0
O45 O 0.75968 0.1396 0.88421 0.0
O46 O 0.81716 0.04534 0.94069 0.0
C47 C 0.89339 0.10187 0.8619 0.0
O48 O 0.87309 0.13033 0.8467 0.0
C49 C 0.7988 0.03619 0.82857 0.0
O50 O 0.8255 0.01091 0.83726 0.0
O51 O 0.81708 0.14001 0.91027 0.0
C52 C 0.18406 0.43051 0.78762 0.0
O53 O 0.19565 0.41277 0.81888 0.0
O54 O 0.13482 0.47035 0.87672 0.0
Zn55 Zn 0.11999 0.43346 0.83188 0.0
O56 O 0.12914 0.37563 0.84394 0.0
C57 C 0.0432 0.44405 0.84781 0.0
O58 O 0.0574 0.44789 0.88281 0.0
O59 O 0.1512 0.4446 0.78595 0.0
C60 C 0.11868 0.35868 0.87411 0.0
O61 O 0.10205 0.37962 0.90134 0.0
C62 C 0.16142 0.46326 0.90025 0.0
O63 O 0.18094 0.43015 0.8964 0.0
O64 O 0.06481 0.43871 0.81958 0.0
C65 C 0.80137 0.92657 0.18539 0.0
O66 O 0.78593 0.90502 0.15715 0.0
O67 O 0.84848 0.93295 0.09247 0.0
Zn68 Zn 0.86538 0.90895 0.14227 0.0
O69 O 0.85708 0.84917 0.14247 0.0
C70 C 0.94276 0.92197 0.12551 0.0
O71 O 0.93051 0.92004 0.08963 0.0
O72 O 0.83609 0.93363 0.18523 0.0
C73 C 0.87725 0.82486 0.12327 0.0
O74 O 0.90206 0.83881 0.09986 0.0
C75 C 0.8234 0.91764 0.0703 0.0
O76 O 0.80801 0.88327 0.07841 0.0
O77 O 0.91995 0.91942 0.1528 0.0
C78 C 0.31402 0.53452 0.39922 0.0
O79 O 0.28536 0.54068 0.37607 0.0
O80 O 0.32813 0.56471 0.29892 0.0
Zn81 Zn 0.35926 0.57967 0.3457 0.0
O82 O 0.41338 0.56966 0.33644 0.0
C83 C 0.34206 0.66267 0.33375 0.0
O84 O 0.33227 0.64907 0.29913 0.0
O85 O 0.34592 0.54788 0.39121 0.0
C86 C 0.43438 0.58049 0.36472 0.0
O87 O 0.41954 0.59599 0.39604 0.0
C88 C 0.32133 0.52925 0.28646 0.0
O89 O 0.33555 0.4984 0.30423 0.0
O90 O 0.35364 0.63845 0.35882 0.0
C91 C 0.70613 0.0358 0.69182 0.0
O92 O 0.71103 0.01415 0.66014 0.0
O93 O 0.66059 0.04313 0.60056 0.0
Zn94 Zn 0.65001 0.07793 0.64687 0.0
O95 O 0.6599 0.13551 0.63506 0.0
C96 C 0.57403 0.08553 0.63089 0.0
O97 O 0.58848 0.10307 0.60133 0.0
O98 O 0.68167 0.06332 0.69264 0.0
C99 C 0.64863 0.16195 0.65915 0.0
O100 O 0.63154 0.1508 0.69014 0.0
C101 C 0.68656 0.0492 0.57719 0.0
O102 O 0.70965 0.07935 0.58334 0.0
O103 O 0.59542 0.07154 0.65679 0.0
C104 C 0.75574 0.46019 0.82147 0.0
O105 O 0.75419 0.48093 0.85413 0.0
O106 O 0.79944 0.44311 0.91071 0.0
Zn107 Zn 0.80815 0.40908 0.8624 0.0
O108 O 0.79314 0.3516 0.87015 0.0
C109 C 0.88295 0.44007 0.85122 0.0
O110 O 0.86796 0.47458 0.8615 0.0
O111 O 0.77706 0.42988 0.8185 0.0
C112 C 0.80785 0.33055 0.89631 0.0
O113 O 0.83247 0.34672 0.9205 0.0
C114 C 0.82398 0.44666 0.93743 0.0
O115 O 0.85545 0.42697 0.93477 0.0
O116 O 0.86255 0.40896 0.84819 0.0
C117 C 0.28516 0.03674 0.6806 0.0
O118 O 0.28405 0.00399 0.65866 0.0
O119 O 0.32368 0.02713 0.58532 0.0
Zn120 Zn 0.33744 0.0697 0.62564 0.0
O121 O 0.3283 0.12483 0.60565 0.0
C122 C 0.41506 0.07103 0.61388 0.0
O123 O 0.40299 0.07689 0.57855 0.0
O124 O 0.30583 0.06587 0.67207 0.0
C125 C 0.32922 0.15389 0.63012 0.0
O126 O 0.33634 0.14695 0.66656 0.0
C127 C 0.31529 0.03673 0.55108 0.0
O128 O 0.31398 0.07474 0.54232 0.0
O129 O 0.39176 0.06578 0.64029 0.0
C130 C 0.71949 0.53739 0.32457 0.0
O131 O 0.71027 0.50443 0.34185 0.0
O132 O 0.68062 0.55013 0.42539 0.0
Zn133 Zn 0.67011 0.58178 0.378 0.0
O134 O 0.67178 0.64093 0.39037 0.0
C135 C 0.59294 0.57649 0.38375 0.0
O136 O 0.60254 0.58779 0.41911 0.0
O137 O 0.70632 0.57095 0.33581 0.0
C138 C 0.66788 0.66266 0.36114 0.0
O139 O 0.66458 0.64558 0.32668 0.0
C140 C 0.71233 0.53833 0.43726 0.0
O141 O 0.74244 0.54723 0.41851 0.0
O142 O 0.61801 0.56996 0.3591 0.0
C143 C 0.18592 -0.00086 0.06302 0.0
O144 O 0.18003 0.01663 0.09669 0.0
O145 O 0.20479 0.94982 0.15345 0.0
Zn146 Zn 0.17516 0.92998 0.10681 0.0
O147 O 0.11993 0.93526 0.11382 0.0
C148 C 0.18822 0.84918 0.12673 0.0
O149 O 0.18747 0.8657 0.16149 0.0
O150 O 0.18711 0.96113 0.0601 0.0
C151 C 0.10276 0.92632 0.14398 0.0
O152 O 0.12149 0.91484 0.17458 0.0
C153 C 0.19506 0.97693 0.17771 0.0
O154 O 0.16351 0.99621 0.17284 0.0
O155 O 0.18528 0.87116 0.09756 0.0
C156 C 0.80961 0.55364 0.19079 0.0
O157 O 0.79104 0.56291 0.15934 0.0
O158 O 0.854 0.5365 0.09741 0.0
Zn159 Zn 0.87095 0.57002 0.1434 0.0
O160 O 0.86077 0.62848 0.13419 0.0
C161 C 0.94515 0.56744 0.11963 0.0
O162 O 0.92788 0.57511 0.08695 0.0
O163 O 0.84496 0.55354 0.1909 0.0
C164 C 0.88223 0.65461 0.15015 0.0
O165 O 0.90924 0.64305 0.17334 0.0
C166 C 0.82938 0.54812 0.07348 0.0
O167 O 0.81227 0.58249 0.07945 0.0
O168 O 0.92624 0.56304 0.14971 0.0
C169 C 0.19339 0.07732 0.80981 0.0
O170 O 0.21137 0.08859 0.84157 0.0
O171 O 0.14421 0.07879 0.90166 0.0
Zn172 Zn 0.13021 0.10525 0.85189 0.0
O173 O 0.13979 0.16477 0.85417 0.0
C174 C 0.05343 0.09835 0.8701 0.0
O175 O 0.06737 0.1001 0.90531 0.0
O176 O 0.15821 0.08071 0.80769 0.0
C177 C 0.12965 0.18647 0.88275 0.0
O178 O 0.11549 0.16971 0.9128 0.0
C179 C 0.17067 0.08948 0.92456 0.0
O180 O 0.19177 0.12019 0.91669 0.0
O181 O 0.07508 0.09882 0.84166 0.0
C182 C 0.69451 0.44632 0.5721 0.0
O183 O 0.71909 0.43404 0.59764 0.0
O184 O 0.66556 0.43257 0.67089 0.0
Zn185 Zn 0.63945 0.41297 0.62242 0.0
O186 O 0.58463 0.42406 0.62415 0.0
C187 C 0.66227 0.33293 0.64277 0.0
O188 O 0.68051 0.35198 0.67087 0.0
O189 O 0.66003 0.44024 0.57684 0.0
C190 C 0.56579 0.41495 0.65316 0.0
O191 O 0.58286 0.40164 0.68404 0.0
C192 C 0.66507 0.46787 0.68549 0.0
O193 O 0.64592 0.49629 0.6688 0.0
O194 O 0.64456 0.35271 0.61757 0.0
C195 C 0.2984 0.97548 0.30397 0.0
O196 O 0.30607 4e-05 0.33332 0.0
O197 O 0.3316 0.94161 0.39554 0.0
Zn198 Zn 0.34347 0.91625 0.34421 0.0
O199 O 0.33224 0.85738 0.34275 0.0
C200 C 0.4207 0.92871 0.36321 0.0
O201 O 0.40734 0.93399 0.39788 0.0
O202 O 0.31216 0.94041 0.30262 0.0
C203 C 0.34926 0.83361 0.36487 0.0
O204 O 0.37278 0.84786 0.39125 0.0
C205 C 0.30358 0.93464 0.416 0.0
O206 O 0.27848 0.90817 0.40416 0.0
O207 O 0.39857 0.92222 0.33464 0.0
C208 C 0.15927 0.7837 0.10455 0.0
C209 C 0.18975 0.80496 0.12211 0.0
C210 C 0.21833 0.74165 0.14136 0.0
C211 C 0.18843 0.72046 0.12287 0.0
N212 N 0.13421 0.71994 0.08071 0.0
N213 N 0.25176 0.80464 0.14987 0.0
C214 C 0.16026 0.74109 0.10222 0.0
C215 C 0.22036 0.78402 0.13836 0.0
N216 N 0.12827 0.80401 0.09246 0.0
N217 N 0.2444 0.72129 0.16234 0.0
H218 H 0.25433 0.83563 0.14746 0.0
H219 H 0.27643 0.79086 0.15853 0.0
H220 H 0.24494 0.69005 0.16341 0.0
H221 H 0.26427 0.7353 0.18036 0.0
H222 H 0.10342 0.78998 0.08396 0.0
H223 H 0.12604 0.83517 0.09378 0.0
H224 H 0.11558 0.73321 0.06158 0.0
H225 H 0.13298 0.68869 0.07961 0.0
C226 C 0.4793 0.89031 0.34934 0.0
C227 C 0.46152 0.92736 0.35856 0.0
C228 C 0.52206 0.95893 0.37287 0.0
C229 C 0.53968 0.92197 0.36349 0.0
N230 N 0.53688 0.85536 0.33491 0.0
N231 N 0.46545 0.9987 0.37079 0.0
C232 C 0.5188 0.8886 0.34904 0.0
C233 C 0.48282 0.96228 0.36772 0.0
N234 N 0.45855 0.85626 0.34324 0.0
N235 N 0.54268 0.99024 0.38811 0.0
H236 H 0.43674 0.00205 0.36683 0.0
H237 H 0.47958 0.0259 0.37386 0.0
H238 H 0.57164 0.98927 0.39093 0.0
H239 H 0.53109 0.01631 0.39995 0.0
H240 H 0.4699 0.82758 0.34108 0.0
H241 H 0.42959 0.85621 0.34301 0.0
H242 H 0.52344 0.83157 0.32035 0.0
H243 H 0.56585 0.85306 0.33477 0.0
C244 C 0.33588 0.25362 0.58019 0.0
C245 C 0.30898 0.27629 0.60077 0.0
C246 C 0.2908 0.21629 0.63479 0.0
C247 C 0.32109 0.1952 0.61816 0.0
N248 N 0.37562 0.19491 0.57862 0.0
N249 N 0.26402 0.28094 0.65154 0.0
C250 C 0.34436 0.21401 0.59154 0.0
C251 C 0.28702 0.25807 0.62893 0.0
N252 N 0.35275 0.26971 0.54927 0.0
N253 N 0.26506 0.19616 0.65534 0.0
H254 H 0.26047 0.31171 0.64845 0.0
H255 H 0.25079 0.27006 0.67551 0.0
H256 H 0.2666 0.16539 0.65976 0.0
H257 H 0.24035 0.20909 0.66481 0.0
H258 H 0.36978 0.25327 0.53072 0.0
H259 H 0.34687 0.29853 0.53993 0.0
H260 H 0.39582 0.20889 0.56262 0.0
H261 H 0.38314 0.16607 0.58659 0.0
C262 C 0.99287 0.06821 0.84613 0.0
C263 C 0.01269 0.10078 0.86399 0.0
C264 C 0.95417 0.13483 0.87911 0.0
C265 C 0.93434 0.10308 0.85989 0.0
N266 N 0.9341 0.0435 0.81895 0.0
N267 N 0.01311 0.16898 0.88932 0.0
C268 C 0.95352 0.07093 0.84145 0.0
C269 C 0.99358 0.13532 0.87796 0.0
N270 N 0.01142 0.03401 0.83529 0.0
N271 N 0.93553 0.16337 0.90029 0.0
H272 H 0.04207 0.17051 0.88904 0.0
H273 H 0.00058 0.19652 0.89558 0.0
H274 H 0.90662 0.1642 0.90225 0.0
H275 H 0.94884 0.18435 0.91863 0.0
H276 H -0.00189 0.00758 0.82614 0.0
H277 H 0.04024 0.03103 0.83806 0.0
H278 H 0.94671 0.02162 0.80164 0.0
H279 H 0.90524 0.04478 0.81499 0.0
C280 C 0.14557 0.2976 0.90464 0.0
C281 C 0.12169 0.31462 0.87644 0.0
C282 C 0.10223 0.24749 0.85327 0.0
C283 C 0.12796 0.2305 0.87971 0.0
N284 N 0.17732 0.23814 0.92731 0.0
N285 N 0.07956 0.30665 0.82155 0.0
C286 C 0.15041 0.25523 0.90468 0.0
C287 C 0.10084 0.2898 0.84993 0.0
N288 N 0.16355 0.32198 0.93139 0.0
N289 N 0.07768 0.22328 0.8328 0.0
H290 H 0.07487 0.3374 0.81991 0.0
H291 H 0.06801 0.29036 0.79823 0.0
H292 H 0.0779 0.19207 0.83388 0.0
H293 H 0.05509 0.23398 0.81694 0.0
H294 H 0.17787 0.31147 0.95539 0.0
H295 H 0.16246 0.35322 0.93092 0.0
H296 H 0.1973 0.25441 0.94325 0.0
H297 H 0.18154 0.20721 0.92798 0.0
C298 C 0.00302 0.95989 0.1259 0.0
C299 C 0.98326 0.92435 0.13387 0.0
C300 C 0.04188 0.89007 0.14919 0.0
C301 C 0.06153 0.92624 0.14319 0.0
N302 N 0.06068 0.9975 0.13328 0.0
N303 N 0.98271 0.8578 0.15961 0.0
C304 C 0.04204 0.96174 0.13361 0.0
C305 C 0.00231 0.89025 0.14788 0.0
N306 N 0.98453 0.99177 0.11066 0.0
N307 N 0.06092 0.85488 0.15352 0.0
H308 H 0.95382 0.8556 0.15732 0.0
H309 H 0.99484 0.83425 0.17439 0.0
H310 H 0.08987 0.85297 0.15406 0.0
H311 H 0.04813 0.82684 0.15311 0.0
H312 H -0.0021 0.01655 0.09972 0.0
H313 H 0.95565 0.99253 0.10687 0.0
H314 H 0.04759 0.02511 0.13025 0.0
H315 H 0.08912 0.0001 0.13957 0.0
C316 C 0.36639 0.73067 0.31928 0.0
C317 C 0.34373 0.70639 0.34211 0.0
C318 C 0.32731 0.76528 0.3823 0.0
C319 C 0.34687 0.78993 0.35699 0.0
N320 N 0.38058 0.79724 0.29804 0.0
N321 N 0.29846 0.70066 0.39201 0.0
C322 C 0.36492 0.77299 0.32436 0.0
C323 C 0.32315 0.72365 0.3729 0.0
N324 N 0.39097 0.71324 0.29426 0.0
N325 N 0.31281 0.78164 0.4153 0.0
H326 H 0.29434 0.6702 0.38562 0.0
H327 H 0.2798 0.71232 0.41198 0.0
H328 H 0.31386 0.81229 0.4222 0.0
H329 H 0.30194 0.76461 0.43706 0.0
H330 H 0.41112 0.7293 0.28005 0.0
H331 H 0.39396 0.68226 0.29057 0.0
H332 H 0.39009 0.78666 0.27149 0.0
H333 H 0.38154 0.82839 0.30119 0.0
C334 C 0.51798 0.04824 0.60566 0.0
C335 C 0.53354 0.0781 0.63109 0.0
C336 C 0.4712 0.1022 0.64722 0.0
C337 C 0.45557 0.07156 0.6226 0.0
N338 N 0.46329 0.00971 0.586 0.0
N339 N 0.52588 0.12778 0.68209 0.0
C340 C 0.47877 0.04287 0.60402 0.0
C341 C 0.51039 0.10311 0.654 0.0
N342 N 0.54067 0.02545 0.58262 0.0
N343 N 0.44895 0.13181 0.66223 0.0
H344 H 0.55453 0.12956 0.68732 0.0
H345 H 0.51033 0.14382 0.7023 0.0
H346 H 0.42019 0.13256 0.65766 0.0
H347 H 0.45924 0.15741 0.67668 0.0
H348 H 0.53081 0.00686 0.56004 0.0
H349 H 0.56968 0.02678 0.58461 0.0
H350 H 0.47877 0.98576 0.57496 0.0
H351 H 0.43472 0.00423 0.58557 0.0
C352 C 0.78247 0.22743 0.93213 0.0
C353 C 0.78979 0.20316 0.89895 0.0
C354 C 0.81023 0.26213 0.86464 0.0
C355 C 0.80051 0.28688 0.89686 0.0
N356 N 0.77195 0.2945 0.95887 0.0
N357 N 0.80466 0.19738 0.83152 0.0
C358 C 0.78512 0.26992 0.93002 0.0
C359 C 0.80162 0.22057 0.86448 0.0
N360 N 0.77365 0.20978 0.96578 0.0
N361 N 0.8298 0.27778 0.83521 0.0
H362 H 0.79999 0.16649 0.83042 0.0
H363 H 0.80891 0.20918 0.80454 0.0
H364 H 0.83765 0.30785 0.83453 0.0
H365 H 0.8414 0.26034 0.81317 0.0
H366 H 0.77213 0.22535 0.99213 0.0
H367 H 0.77008 0.17886 0.96782 0.0
H368 H 0.75704 0.28424 0.98201 0.0
H369 H 0.77319 0.32572 0.95811 0.0
C370 C 0.6359 0.72643 0.3816 0.0
C371 C 0.66716 0.70685 0.36518 0.0
C372 C 0.69178 0.77114 0.3447 0.0
C373 C 0.66056 0.79076 0.36113 0.0
N374 N 0.60651 0.78919 0.40106 0.0
N375 N 0.72847 0.71016 0.33872 0.0
C376 C 0.63387 0.76905 0.38168 0.0
C377 C 0.69622 0.72915 0.34899 0.0
N378 N 0.60724 0.70419 0.39513 0.0
N379 N 0.71681 0.79262 0.32445 0.0
H380 H 0.73268 0.67946 0.34195 0.0
H381 H 0.75224 0.72504 0.33016 0.0
H382 H 0.71585 0.8238 0.32279 0.0
H383 H 0.73752 0.77957 0.3077 0.0
H384 H 0.58164 0.71622 0.40295 0.0
H385 H 0.60805 0.67302 0.39642 0.0
H386 H 0.58859 0.77568 0.41996 0.0
H387 H 0.60331 0.82023 0.40043 0.0
C388 C 0.877 0.71191 0.10455 0.0
C389 C 0.87732 0.69787 0.14279 0.0
C390 C 0.87934 0.7671 0.16819 0.0
C391 C 0.87556 0.78122 0.13011 0.0
N392 N 0.86223 0.76681 0.06274 0.0
N393 N 0.86882 0.71219 0.21057 0.0
C394 C 0.87178 0.75353 0.09845 0.0
C395 C 0.8754 0.72551 0.17449 0.0
N396 N 0.88366 0.68606 0.07417 0.0
N397 N 0.88892 0.79284 0.19816 0.0
H398 H 0.86458 0.68198 0.21618 0.0
H399 H 0.86355 0.73146 0.23401 0.0
H400 H 0.89408 0.82328 0.19487 0.0
H401 H 0.89571 0.78313 0.22566 0.0
H402 H 0.88769 0.6956 0.04627 0.0
H403 H 0.88873 0.65554 0.07723 0.0
H404 H 0.8555 0.74754 0.03946 0.0
H405 H 0.85732 0.79698 0.05734 0.0
C406 C 0.69111 0.26444 0.64218 0.0
C407 C 0.65869 0.28874 0.64344 0.0
C408 C 0.61985 0.2287 0.64744 0.0
C409 C 0.65242 0.20506 0.65136 0.0
N410 N 0.71936 0.20051 0.65695 0.0
N411 N 0.59257 0.29468 0.65417 0.0
C412 C 0.68821 0.22286 0.64968 0.0
C413 C 0.62307 0.27109 0.64766 0.0
N414 N 0.72446 0.28094 0.63288 0.0
N415 N 0.58586 0.21061 0.6425 0.0
H416 H 0.59374 0.32588 0.65591 0.0
H417 H 0.56676 0.2833 0.66158 0.0
H418 H 0.58248 0.17953 0.64147 0.0
H419 H 0.56162 0.22618 0.63552 0.0
H420 H 0.74832 0.26405 0.62766 0.0
H421 H 0.72747 0.31124 0.62689 0.0
H422 H 0.74589 0.21282 0.66045 0.0
H423 H 0.71841 0.16998 0.66258 0.0
C424 C 0.98107 0.46915 0.8237 0.0
C425 C 0.00239 0.43965 0.84268 0.0
C426 C 0.94554 0.4084 0.86535 0.0
C427 C 0.92383 0.43733 0.84557 0.0
N428 N 0.92072 0.488 0.79741 0.0
N429 N 0.00502 0.37478 0.87128 0.0
C430 C 0.94156 0.46556 0.82211 0.0
C431 C 0.98459 0.40721 0.86018 0.0
N432 N -0.00162 0.50139 0.80854 0.0
N433 N 0.9296 0.38365 0.89103 0.0
H434 H 0.03366 0.37269 0.86737 0.0
H435 H 0.99309 0.34832 0.88043 0.0
H436 H 0.9013 0.3832 0.89659 0.0
H437 H 0.94505 0.36577 0.90956 0.0
H438 H 0.98408 0.52624 0.79838 0.0
H439 H 0.02727 0.50456 0.80853 0.0
H440 H 0.93229 0.50636 0.77706 0.0
H441 H 0.89188 0.48508 0.79445 0.0
C442 C 0.5363 0.60145 0.34845 0.0
C443 C 0.55306 0.57293 0.37294 0.0
C444 C 0.49185 0.54565 0.38768 0.0
C445 C 0.47506 0.5745 0.36364 0.0
N446 N 0.48047 0.62437 0.31521 0.0
N447 N 0.5486 0.51251 0.40877 0.0
C448 C 0.49709 0.60042 0.34184 0.0
C449 C 0.53131 0.54332 0.39039 0.0
N450 N 0.55753 0.63104 0.33349 0.0
N451 N 0.46993 0.52106 0.40847 0.0
H452 H 0.57752 0.50986 0.41082 0.0
H453 H 0.53467 0.48781 0.41912 0.0
H454 H 0.441 0.52001 0.40517 0.0
H455 H 0.48009 0.5029 0.43016 0.0
H456 H 0.54652 0.65573 0.31958 0.0
H457 H 0.58638 0.63243 0.337 0.0
H458 H 0.49514 0.64078 0.2955 0.0
H459 H 0.4517 0.62563 0.31074 0.0
C460 C 0.508 0.38741 0.62067 0.0
C461 C 0.52468 0.41288 0.64968 0.0
C462 C 0.46294 0.43008 0.6743 0.0
C463 C 0.44643 0.40732 0.64333 0.0
N464 N 0.45243 0.36897 0.58371 0.0
N465 N 0.51856 0.46288 0.70074 0.0
C466 C 0.46874 0.3876 0.61539 0.0
C467 C 0.5023 0.43539 0.6757 0.0
N468 N 0.52943 0.36115 0.59971 0.0
N469 N 0.44103 0.44611 0.70257 0.0
H470 H 0.54725 0.46775 0.70229 0.0
H471 H 0.50359 0.48314 0.71775 0.0
H472 H 0.41203 0.44404 0.7016 0.0
H473 H 0.45157 0.45916 0.72813 0.0
H474 H 0.51839 0.33862 0.58147 0.0
H475 H 0.55824 0.35906 0.60312 0.0
H476 H 0.46738 0.35849 0.56007 0.0
H477 H 0.42367 0.36659 0.57953 0.0
C478 C 0.04512 0.59708 0.10285 0.0
C479 C 0.06488 0.56489 0.11971 0.0
C480 C 0.00577 0.53315 0.13548 0.0
C481 C 0.98633 0.56706 0.12166 0.0
N482 N 0.98822 0.63581 0.10176 0.0
N483 N 0.06439 0.50676 0.15945 0.0
C484 C 0.00623 0.60042 0.10824 0.0
C485 C 0.04531 0.53419 0.13824 0.0
N486 N 0.06288 0.62328 0.07985 0.0
N487 N 0.98673 0.49924 0.14427 0.0
H488 H 0.09331 0.50713 0.16285 0.0
H489 H 0.05136 0.48619 0.17672 0.0
H490 H 0.95782 0.49691 0.14198 0.0
H491 H -0.0002 0.47223 0.15045 0.0
H492 H 0.04879 0.64458 0.06374 0.0
H493 H 0.09104 0.62123 0.07349 0.0
H494 H 0.00216 0.66222 0.0957 0.0
H495 H 0.95989 0.63996 0.10652 0.0
C496 C 0.14612 0.53015 0.9886 0.0
C497 C 0.18206 0.54704 0.99465 0.0
C498 C 0.20387 0.51165 0.93651 0.0
C499 C 0.16907 0.49147 0.93309 0.0
N500 N 0.11001 0.47515 0.96061 0.0
N501 N 0.24662 0.55081 0.97754 0.0
C502 C 0.14096 0.49898 0.96042 0.0
C503 C 0.2114 0.53705 0.96942 0.0
N504 N 0.11659 0.54489 0.00882 0.0
N505 N 0.22912 0.50765 0.90773 0.0
H506 H 0.25294 0.56993 0.00109 0.0
H507 H 0.26997 0.54101 0.96267 0.0
H508 H 0.22456 0.48935 0.88321 0.0
H509 H 0.25323 0.52488 0.90659 0.0
H510 H 0.08911 0.53638 0.00287 0.0
H511 H 0.11904 0.56869 0.02888 0.0
H512 H 0.09043 0.47672 0.98233 0.0
H513 H 0.10593 0.45091 0.94137 0.0
C514 C 0.72086 0.97011 0.24168 0.0
C515 C 0.73012 0.95724 0.27922 0.0
C516 C 0.78733 0.92612 0.25576 0.0
C517 C 0.77872 0.93995 0.21836 0.0
N518 N 0.74243 0.98289 0.17746 0.0
N519 N 0.77633 0.93317 0.32417 0.0
C520 C 0.74705 0.96447 0.21187 0.0
C521 C 0.7648 0.93857 0.28693 0.0
N522 N 0.68639 0.98569 0.23399 0.0
N523 N 0.81545 0.89907 0.2612 0.0
H524 H 0.76062 0.94257 0.34774 0.0
H525 H 0.80292 0.92326 0.33172 0.0
H526 H 0.8322 0.88816 0.23909 0.0
H527 H 0.82003 0.88458 0.28703 0.0
H528 H 0.67647 0.99112 0.20625 0.0
H529 H 0.66656 0.99066 0.25511 0.0
H530 H 0.72185 0.00417 0.17229 0.0
H531 H 0.7614 0.97974 0.15521 0.0
C532 C 0.34015 0.46223 0.47644 0.0
C533 C 0.31504 0.47345 0.5059 0.0
C534 C 0.28651 0.52336 0.46414 0.0
C535 C 0.31043 0.51065 0.43413 0.0
N536 N 0.35232 0.4607 0.40816 0.0
N537 N 0.25856 0.50722 0.52469 0.0
C538 C 0.33475 0.47766 0.43917 0.0
C539 C 0.28635 0.50169 0.49876 0.0
N540 N 0.37057 0.43901 0.48446 0.0
N541 N 0.26556 0.55733 0.46063 0.0
H542 H 0.25726 0.49133 0.55006 0.0
H543 H 0.23497 0.52449 0.51927 0.0
H544 H 0.26504 0.57436 0.43595 0.0
H545 H 0.25101 0.57047 0.48337 0.0
H546 H 0.39184 0.43381 0.46498 0.0
H547 H 0.37663 0.42812 0.51169 0.0
H548 H 0.36762 0.43422 0.40954 0.0
H549 H 0.34826 0.47071 0.38021 0.0
C550 C 0.75955 0.06367 0.73111 0.0
C551 C 0.73277 0.0328 0.72451 0.0
C552 C 0.75169 0.00147 0.78481 0.0
C553 C 0.77845 0.03234 0.7913 0.0
N554 N 0.81436 0.08684 0.76713 0.0
N555 N 0.70753 0.96855 0.74036 0.0
C556 C 0.78428 0.06173 0.76337 0.0
C557 C 0.73034 0.00032 0.74981 0.0
N558 N 0.76098 0.09513 0.70675 0.0
N559 N 0.74548 0.97454 0.81291 0.0
H560 H 0.6906 0.96746 0.71559 0.0
H561 H 0.70724 0.94206 0.75545 0.0
H562 H 0.7611 0.97409 0.83854 0.0
H563 H 0.72352 0.95416 0.81204 0.0
H564 H 0.7763 0.12116 0.71272 0.0
H565 H 0.7453 0.09624 0.6812 0.0
H566 H 0.82237 0.1064 0.74602 0.0
H567 H 0.83356 0.08553 0.78999 0.0
C568 C 0.81181 0.45722 0.00762 0.0
C569 C 0.81808 0.4737 0.97116 0.0
C570 C 0.82891 0.53999 0.00139 0.0
C571 C 0.82197 0.52375 0.03789 0.0
N572 N 0.79823 0.46983 0.07505 0.0
N573 N 0.82313 0.53187 0.93197 0.0
C574 C 0.81077 0.48316 0.04079 0.0
C575 C 0.82326 0.51554 0.9676 0.0
N576 N 0.80753 0.41668 0.01055 0.0
N577 N 0.84347 0.57773 -0.00097 0.0
H578 H 0.81956 0.51479 0.90655 0.0
H579 H 0.82298 0.56266 0.92775 0.0
H580 H 0.84909 0.59646 0.02299 0.0
H581 H 0.85317 0.58927 0.97356 0.0
H582 H 0.80745 0.40221 0.03669 0.0
H583 H 0.80587 0.39711 0.98656 0.0
H584 H 0.7864 0.44166 0.07826 0.0
H585 H 0.79645 0.48839 0.09968 0.0
C586 C 0.21246 0.08737 0.74189 0.0
C587 C 0.21444 0.06431 0.77555 0.0
C588 C 0.26189 0.02096 0.74618 0.0
C589 C 0.25846 0.04292 0.71197 0.0
N590 N 0.22428 0.09017 0.67368 0.0
N591 N 0.23529 0.00488 0.80752 0.0
C592 C 0.23174 0.07399 0.70872 0.0
C593 C 0.23746 0.02975 0.77704 0.0
N594 N 0.194 0.12327 0.74221 0.0
N595 N 0.28948 0.99299 0.7498 0.0
H596 H 0.21756 0.01036 0.83051 0.0
H597 H 0.24856 0.97716 0.80849 0.0
H598 H 0.30744 0.98533 0.72753 0.0
H599 H 0.29622 0.97935 0.77559 0.0
H600 H 0.19537 0.14343 0.71994 0.0
H601 H 0.18013 0.13486 0.76615 0.0
H602 H 0.20247 0.1101 0.66878 0.0
H603 H 0.23753 0.08067 0.64854 0.0
C604 C 0.72391 0.47464 0.4724 0.0
C605 C 0.71485 0.5161 0.47339 0.0
C606 C 0.69782 0.51282 0.54114 0.0
C607 C 0.70602 0.47118 0.53992 0.0
N608 N 0.73425 0.41397 0.5082 0.0
N609 N 0.70214 0.57683 0.51 0.0
C610 C 0.72174 0.45264 0.50679 0.0
C611 C 0.70456 0.53587 0.50827 0.0
N612 N 0.73245 0.45586 0.43816 0.0
N613 N 0.68283 0.53005 0.57353 0.0
H614 H 0.70742 0.59454 0.48644 0.0
H615 H 0.69816 0.59359 0.53534 0.0
H616 H 0.67998 0.51475 0.59907 0.0
H617 H 0.67174 0.55889 0.57478 0.0
H618 H 0.73496 0.4249 0.43443 0.0
H619 H 0.73493 0.4711 0.41256 0.0
H620 H 0.74934 0.3999 0.48639 0.0
H621 H 0.73205 0.39676 0.53264 0.0
C622 C 0.28363 0.99415 0.23624 0.0
C623 C 0.27114 0.98648 0.27373 0.0
C624 C 0.20702 0.97905 0.24934 0.0
C625 C 0.21962 0.98588 0.21158 0.0
N626 N 0.26713 0.01064 0.17048 0.0
N627 N 0.22068 0.98198 0.31804 0.0
C628 C 0.25714 0.99689 0.20551 0.0
C629 C 0.23263 0.98273 0.28096 0.0
N630 N 0.32092 0.9976 0.22994 0.0
N631 N 0.17141 0.96615 0.25475 0.0
H632 H 0.23885 0.98359 0.3418 0.0
H633 H 0.19274 0.98343 0.32539 0.0
H634 H 0.15162 0.96298 0.23256 0.0
H635 H 0.16207 0.95577 0.28083 0.0
H636 H 0.33228 0.99822 0.20262 0.0
H637 H 0.34083 0.99802 0.25227 0.0
H638 H 0.29325 0.02249 0.16507 0.0
H639 H 0.24806 0.01371 0.14769 0.0
C640 C 0.65525 0.02444 0.51651 0.0
C641 C 0.68736 0.02502 0.5409 0.0
C642 C 0.71767 0.97643 0.49751 0.0
C643 C 0.68365 0.97186 0.47629 0.0
N644 N 0.61774 0.986 0.47033 0.0
N645 N 0.74789 0.99852 0.55752 0.0
C646 C 0.65179 0.99448 0.48694 0.0
C647 C 0.71842 0.00037 0.53212 0.0
N648 N 0.62846 0.05326 0.52094 0.0
N649 N 0.74945 0.95895 0.484 0.0
H650 H 0.74953 0.01579 0.58303 0.0
H651 H 0.76937 0.9777 0.55476 0.0
H652 H 0.75003 0.94163 0.4585 0.0
H653 H 0.77577 0.96456 0.49612 0.0
H654 H 0.60616 0.05651 0.50164 0.0
H655 H 0.63071 0.07664 0.54148 0.0
H656 H 0.59303 0.99877 0.48004 0.0
H657 H 0.61346 0.96321 0.44955 0.0
C658 C 0.27238 0.44059 0.73178 0.0
C659 C 0.26269 0.41878 0.69741 0.0
C660 C 0.19927 0.40915 0.71983 0.0
C661 C 0.20884 0.43121 0.75423 0.0
N662 N 0.25083 0.47599 0.7892 0.0
N663 N 0.21552 0.3907 0.65424 0.0
C664 C 0.24434 0.44952 0.75899 0.0
C665 C 0.22555 0.40605 0.68989 0.0
N666 N 0.30856 0.45181 0.73878 0.0
N667 N 0.16625 0.38874 0.7168 0.0
H668 H 0.2343 0.38723 0.63189 0.0
H669 H 0.18806 0.38472 0.64576 0.0
H670 H 0.14619 0.3898 0.73805 0.0
H671 H 0.15983 0.3682 0.69448 0.0
H672 H 0.31835 0.46355 0.76519 0.0
H673 H 0.32944 0.44739 0.71862 0.0
H674 H 0.27497 0.49311 0.79257 0.0
H675 H 0.23046 0.48365 0.80912 0.0
C676 C 0.82717 0.96129 0.97082 0.0
C677 C 0.7965 0.98807 0.97252 0.0
C678 C 0.77872 0.96132 0.03449 0.0
C679 C 0.81219 0.93864 0.03509 0.0
N680 N 0.86896 0.91695 0.00506 0.0
N681 N 0.74336 0.01517 0.00545 0.0
C682 C 0.83652 0.93841 0.00346 0.0
C683 C 0.77197 0.98814 0.00397 0.0
N684 N 0.84669 0.9571 0.93752 0.0
N685 N 0.75362 0.95731 0.06321 0.0
H686 H 0.73718 0.03448 0.98311 0.0
H687 H 0.72696 0.02017 0.02948 0.0
H688 H 0.75824 0.93886 0.08655 0.0
H689 H 0.72712 0.96992 0.06272 0.0
H690 H 0.86706 0.93537 0.93295 0.0
H691 H 0.84028 0.97315 0.91292 0.0
H692 H 0.89017 0.91949 0.98531 0.0
H693 H 0.87561 0.89784 0.02744 0.0
C694 C 0.23926 0.50764 0.21805 0.0
C695 C 0.25108 0.52902 0.18579 0.0
C696 C 0.31261 0.5393 0.21617 0.0
C697 C 0.29888 0.52361 0.2506 0.0
N698 N 0.24941 0.49337 0.28559 0.0
N699 N 0.29862 0.56489 0.15288 0.0
C700 C 0.2625 0.50716 0.25173 0.0
C701 C 0.28781 0.54448 0.18436 0.0
N702 N 0.20567 0.48831 0.21658 0.0
N703 N 0.34962 0.54837 0.21382 0.0
H704 H 0.28214 0.56684 0.12792 0.0
H705 H 0.32316 0.58139 0.15196 0.0
H706 H 0.36855 0.54424 0.23656 0.0
H707 H 0.36231 0.55649 0.18853 0.0
H708 H 0.19698 0.46886 0.23749 0.0
H709 H 0.18745 0.48929 0.19287 0.0
H710 H 0.22176 0.48557 0.28973 0.0
H711 H 0.26584 0.49177 0.31058 0.0
C712 C 0.27572 0.00623 0.49774 0.0
C713 C 0.30905 0.00552 0.52038 0.0
C714 C 0.3315 0.94881 0.48097 0.0
C715 C 0.30164 0.95454 0.45449 0.0
N716 N 0.24555 0.98958 0.43627 0.0
N717 N 0.3709 0.97875 0.53106 0.0
C718 C 0.27344 0.9831 0.4627 0.0
C719 C 0.33738 0.9771 0.51176 0.0
N720 N 0.24604 0.0284 0.51017 0.0
N721 N 0.35408 0.91602 0.47674 0.0
H722 H 0.37695 -0.00037 0.55315 0.0
H723 H 0.39392 0.96177 0.52288 0.0
H724 H 0.34993 0.89436 0.45477 0.0
H725 H 0.3742 0.90815 0.49717 0.0
H726 H 0.21983 0.02723 0.49681 0.0
H727 H 0.24661 0.04504 0.53611 0.0
H728 H 0.22691 0.01343 0.43845 0.0
H729 H 0.24238 0.97246 0.41083 0.0
C730 C 0.76182 0.51554 0.22638 0.0
C731 C 0.78933 0.54606 0.22646 0.0
C732 C 0.77696 0.56243 0.29411 0.0
C733 C 0.74563 0.53649 0.29216 0.0
N734 N 0.70509 0.49192 0.25452 0.0
N735 N 0.81908 0.60324 0.25864 0.0
C736 C 0.73734 0.51361 0.25792 0.0
C737 C 0.79612 0.57061 0.25994 0.0
N738 N 0.75959 0.48789 0.19656 0.0
N739 N 0.78884 0.57871 0.32879 0.0
H740 H 0.83288 0.61132 0.23392 0.0
H741 H 0.82162 0.6246 0.28105 0.0
H742 H 0.77597 0.57261 0.35462 0.0
H743 H 0.81364 0.59469 0.33246 0.0
H744 H 0.74256 0.46261 0.19679 0.0
H745 H 0.77745 0.48807 0.17325 0.0
H746 H 0.69569 0.47849 0.22865 0.0
H747 H 0.686 0.49009 0.27658 0.0
C748 C 0.149 0.04266 0.01942 0.0
C749 C 0.18298 0.02284 0.02791 0.0
C750 C 0.20903 0.04565 0.96767 0.0
C751 C 0.17615 0.06829 0.96102 0.0
N752 N 0.11857 0.09565 0.9849 0.0
N753 N 0.24731 0.00978 0.01365 0.0
C754 C 0.1472 0.06891 0.98817 0.0
C755 C 0.21363 0.02554 0.00303 0.0
N756 N 0.11787 0.03504 0.04008 0.0
N757 N 0.23508 0.04202 0.93964 0.0
H758 H 0.25149 0.99462 0.03923 0.0
H759 H 0.27171 0.01446 -0.00126 0.0
H760 H 0.23274 0.0564 0.91345 0.0
H761 H 0.25757 0.02236 0.94104 0.0
H762 H 0.09145 0.04532 0.03235 0.0
H763 H 0.11755 0.01515 0.06268 0.0
H764 H 0.09874 0.1003 0.00606 0.0
H765 H 0.11689 0.11621 0.96299 0.0
C766 C 0.72544 0.48331 0.71956 0.0
C767 C 0.68664 0.4761 0.7214 0.0
C768 C 0.69223 0.46407 0.79041 0.0
C769 C 0.73126 0.47037 0.78848 0.0
N770 N 0.78392 0.49498 0.75445 0.0
N771 N 0.63152 0.46941 0.75881 0.0
C772 C 0.74752 0.48291 0.75398 0.0
C773 C 0.66951 0.46994 0.75707 0.0
N774 N 0.74119 0.48916 0.68467 0.0
N775 N 0.67723 0.44996 0.82327 0.0
H776 H 0.61432 0.47324 0.73462 0.0
H777 H 0.61706 0.46878 0.78445 0.0
H778 H 0.69285 0.44527 0.84836 0.0
H779 H 0.6498 0.44025 0.82504 0.0
H780 H 0.76979 0.48963 0.68043 0.0
H781 H 0.7254 0.49198 0.65934 0.0
H782 H 0.79671 0.50786 0.73121 0.0
H783 H 0.80065 0.49524 0.77939 0.0
loop_
_geom_bond_atom_site_label_1
_geom_bond_atom_site_label_2
_geom_bond_distance
_geom_bond_site_symmetry_2
_ccdc_geom_bond_type
C0 O1 1.160 . S
C0 O7 1.185 . S
O1 C0 1.160 . S
O2 Zn3 1.899 . S
O2 C10 1.284 . S
Zn3 O2 1.899 . S
Zn3 O4 2.032 . S
Zn3 O7 2.086 . S
Zn3 O12 1.977 . S
O4 Zn3 2.032 . S
O4 C8 1.278 . S
C5 O6 1.203 . S
C5 O12 1.267 . S
O6 C5 1.203 . S
O7 C0 1.185 . S
O7 Zn3 2.086 . S
C8 O4 1.278 . S
C8 O9 1.211 . S
O9 C8 1.211 . S
C10 O2 1.284 . S
C10 O11 1.273 . S
O11 C10 1.273 . S
O12 Zn3 1.977 . S
O12 C5 1.267 . S
C13 O14 1.160 . S
C13 O20 1.185 . S
O14 C13 1.160 . S
O15 Zn16 1.899 . S
O15 C23 1.284 . S
Zn16 O15 1.899 . S
Zn16 O17 2.032 . S
Zn16 O20 2.086 . S
Zn16 O25 1.977 . S
O17 Zn16 2.032 . S
O17 C21 1.278 . S
C18 O19 1.203 . S
C18 O25 1.267 . S
O19 C18 1.203 . S
O20 C13 1.185 . S
O20 Zn16 2.086 . S
C21 O17 1.278 . S
C21 O22 1.211 . S
O22 C21 1.211 . S
C23 O15 1.284 . S
C23 O24 1.273 . S
O24 C23 1.273 . S
O25 Zn16 1.977 . S
O25 C18 1.267 . S
C26 O27 1.160 . S
C26 O33 1.185 . S
O27 C26 1.160 . S
O28 Zn29 1.899 . S
O28 C36 1.284 . S
Zn29 O28 1.899 . S
Zn29 O30 2.032 . S
Zn29 O33 2.086 . S
Zn29 O38 1.977 . S
O30 Zn29 2.032 . S
O30 C34 1.278 . S
C31 O32 1.203 . S
C31 O38 1.267 . S
O32 C31 1.203 . S
O33 C26 1.185 . S
O33 Zn29 2.086 . S
C34 O30 1.278 . S
C34 O35 1.211 . S
O35 C34 1.211 . S
C36 O28 1.284 . S
C36 O37 1.273 . S
O37 C36 1.273 . S
O38 Zn29 1.977 . S
O38 C31 1.267 . S
C39 O40 1.160 . S
C39 O46 1.185 . S
O40 C39 1.160 . S
O41 Zn42 1.899 . S
O41 C49 1.284 . S
Zn42 O41 1.899 . S
Zn42 O43 2.032 . S
Zn42 O46 2.086 . S
Zn42 O51 1.977 . S
O43 Zn42 2.032 . S
O43 C47 1.278 . S
C44 O45 1.203 . S
C44 O51 1.267 . S
O45 C44 1.203 . S
O46 C39 1.185 . S
O46 Zn42 2.086 . S
C47 O43 1.278 . S
C47 O48 1.211 . S
O48 C47 1.211 . S
C49 O41 1.284 . S
C49 O50 1.273 . S
O50 C49 1.273 . S
O51 Zn42 1.977 . S
O51 C44 1.267 . S
C52 O53 1.160 . S
C52 O59 1.185 . S
O53 C52 1.160 . S
O54 Zn55 1.899 . S
O54 C62 1.284 . S
Zn55 O54 1.899 . S
Zn55 O56 2.032 . S
Zn55 O59 2.086 . S
Zn55 O64 1.977 . S
O56 Zn55 2.032 . S
O56 C60 1.278 . S
C57 O58 1.203 . S
C57 O64 1.267 . S
O58 C57 1.203 . S
O59 C52 1.185 . S
O59 Zn55 2.086 . S
C60 O56 1.278 . S
C60 O61 1.211 . S
O61 C60 1.211 . S
C62 O54 1.284 . S
C62 O63 1.273 . S
O63 C62 1.273 . S
O64 Zn55 1.977 . S
O64 C57 1.267 . S
C65 O66 1.160 . S
C65 O72 1.185 . S
O66 C65 1.160 . S
O67 Zn68 1.899 . S
O67 C75 1.284 . S
Zn68 O67 1.899 . S
Zn68 O69 2.032 . S
Zn68 O72 2.086 . S
Zn68 O77 1.977 . S
O69 Zn68 2.032 . S
O69 C73 1.278 . S
C70 O71 1.203 . S
C70 O77 1.267 . S
O71 C70 1.203 . S
O72 C65 1.185 . S
O72 Zn68 2.086 . S
C73 O69 1.278 . S
C73 O74 1.211 . S
O74 C73 1.211 . S
C75 O67 1.284 . S
C75 O76 1.273 . S
O76 C75 1.273 . S
O77 Zn68 1.977 . S
O77 C70 1.267 . S
C78 O79 1.160 . S
C78 O85 1.185 . S
O79 C78 1.160 . S
O80 Zn81 1.899 . S
O80 C88 1.284 . S
Zn81 O80 1.899 . S
Zn81 O82 2.032 . S
Zn81 O85 2.086 . S
Zn81 O90 1.977 . S
O82 Zn81 2.032 . S
O82 C86 1.278 . S
C83 O84 1.203 . S
C83 O90 1.267 . S
O84 C83 1.203 . S
O85 C78 1.185 . S
O85 Zn81 2.086 . S
C86 O82 1.278 . S
C86 O87 1.211 . S
O87 C86 1.211 . S
C88 O80 1.284 . S
C88 O89 1.273 . S
O89 C88 1.273 . S
O90 Zn81 1.977 . S
O90 C83 1.267 . S
C91 O92 1.160 . S
C91 O98 1.185 . S
O92 C91 1.160 . S
O93 Zn94 1.899 . S
O93 C101 1.284 . S
Zn94 O93 1.899 . S
Zn94 O95 2.032 . S
Zn94 O98 2.086 . S
Zn94 O103 1.977 . S
O95 Zn94 2.032 . S
O95 C99 1.278 . S
C96 O97 1.203 . S
C96 O103 1.267 . S
O97 C96 1.203 . S
O98 C91 1.185 . S
O98 Zn94 2.086 . S
C99 O95 1.278 . S
C99 O100 1.211 . S
O100 C99 1.211 . S
C101 O93 1.284 . S
C101 O102 1.273 . S
O102 C101 1.273 . S
O103 Zn94 1.977 . S
O103 C96 1.267 . S
C104 O105 1.160 . S
C104 O111 1.185 . S
O105 C104 1.160 . S
O106 Zn107 1.899 . S
O106 C114 1.284 . S
Zn107 O106 1.899 . S
Zn107 O108 2.032 . S
Zn107 O111 2.086 . S
Zn107 O116 1.977 . S
O108 Zn107 2.032 . S
O108 C112 1.278 . S
C109 O110 1.203 . S
C109 O116 1.267 . S
O110 C109 1.203 . S
O111 C104 1.185 . S
O111 Zn107 2.086 . S
C112 O108 1.278 . S
C112 O113 1.211 . S
O113 C112 1.211 . S
C114 O106 1.284 . S
C114 O115 1.273 . S
O115 C114 1.273 . S
O116 Zn107 1.977 . S
O116 C109 1.267 . S
C117 O118 1.160 . S
C117 O124 1.185 . S
O118 C117 1.160 . S
O119 Zn120 1.899 . S
O119 C127 1.284 . S
Zn120 O119 1.899 . S
Zn120 O121 2.032 . S
Zn120 O124 2.086 . S
Zn120 O129 1.977 . S
O121 Zn120 2.032 . S
O121 C125 1.278 . S
C122 O123 1.203 . S
C122 O129 1.267 . S
O123 C122 1.203 . S
O124 C117 1.185 . S
O124 Zn120 2.086 . S
C125 O121 1.278 . S
C125 O126 1.211 . S
O126 C125 1.211 . S
C127 O119 1.284 . S
C127 O128 1.273 . S
O128 C127 1.273 . S
O129 Zn120 1.977 . S
O129 C122 1.267 . S
C130 O131 1.160 . S
C130 O137 1.185 . S
O131 C130 1.160 . S
O132 Zn133 1.899 . S
O132 C140 1.284 . S
Zn133 O132 1.899 . S
Zn133 O134 2.032 . S
Zn133 O137 2.086 . S
Zn133 O142 1.977 . S
O134 Zn133 2.032 . S
O134 C138 1.278 . S
C135 O136 1.203 . S
C135 O142 1.267 . S
O136 C135 1.203 . S
O137 C130 1.185 . S
O137 Zn133 2.086 . S
C138 O134 1.278 . S
C138 O139 1.211 . S
O139 C138 1.211 . S
C140 O132 1.284 . S
C140 O141 1.273 . S
O141 C140 1.273 . S
O142 Zn133 1.977 . S
O142 C135 1.267 . S
C143 O144 1.160 . S
C143 O150 1.185 . S
O144 C143 1.160 . S
O145 Zn146 1.899 . S
O145 C153 1.284 . S
Zn146 O145 1.899 . S
Zn146 O147 2.032 . S
Zn146 O150 2.086 . S
Zn146 O155 1.977 . S
O147 Zn146 2.032 . S
O147 C151 1.278 . S
C148 O149 1.203 . S
C148 O155 1.267 . S
O149 C148 1.203 . S
O150 C143 1.185 . S
O150 Zn146 2.086 . S
C151 O147 1.278 . S
C151 O152 1.211 . S
O152 C151 1.211 . S
C153 O145 1.284 . S
C153 O154 1.273 . S
O154 C153 1.273 . S
O155 Zn146 1.977 . S
O155 C148 1.267 . S
C156 O157 1.160 . S
C156 O163 1.185 . S
O157 C156 1.160 . S
O158 Zn159 1.899 . S
O158 C166 1.284 . S
Zn159 O158 1.899 . S
Zn159 O160 2.032 . S
Zn159 O163 2.086 . S
Zn159 O168 1.977 . S
O160 Zn159 2.032 . S
O160 C164 1.278 . S
C161 O162 1.203 . S
C161 O168 1.267 . S
O162 C161 1.203 . S
O163 C156 1.185 . S
O163 Zn159 2.086 . S
C164 O160 1.278 . S
C164 O165 1.211 . S
O165 C164 1.211 . S
C166 O158 1.284 . S
C166 O167 1.273 . S
O167 C166 1.273 . S
O168 Zn159 1.977 . S
O168 C161 1.267 . S
C169 O170 1.160 . S
C169 O176 1.185 . S
O170 C169 1.160 . S
O171 Zn172 1.899 . S
O171 C179 1.284 . S
Zn172 O171 1.899 . S
Zn172 O173 2.032 . S
Zn172 O176 2.086 . S
Zn172 O181 1.977 . S
O173 Zn172 2.032 . S
O173 C177 1.278 . S
C174 O175 1.203 . S
C174 O181 1.267 . S
O175 C174 1.203 . S
O176 C169 1.185 . S
O176 Zn172 2.086 . S
C177 O173 1.278 . S
C177 O178 1.211 . S
O178 C177 1.211 . S
C179 O171 1.284 . S
C179 O180 1.273 . S
O180 C179 1.273 . S
O181 Zn172 1.977 . S
O181 C174 1.267 . S
C182 O183 1.160 . S
C182 O189 1.185 . S
O183 C182 1.160 . S
O184 Zn185 1.899 . S
O184 C192 1.284 . S
Zn185 O184 1.899 . S
Zn185 O186 2.032 . S
Zn185 O189 2.086 . S
Zn185 O194 1.977 . S
O186 Zn185 2.032 . S
O186 C190 1.278 . S
C187 O188 1.203 . S
C187 O194 1.267 . S
O188 C187 1.203 . S
O189 C182 1.185 . S
O189 Zn185 2.086 . S
C190 O186 1.278 . S
C190 O191 1.211 . S
O191 C190 1.211 . S
C192 O184 1.284 . S
C192 O193 1.273 . S
O193 C192 1.273 . S
O194 Zn185 1.977 . S
O194 C187 1.267 . S
C195 O196 1.160 . S
C195 O202 1.185 . S
O196 C195 1.160 . S
O197 Zn198 1.899 . S
O197 C205 1.284 . S
Zn198 O197 1.899 . S
Zn198 O199 2.032 . S
Zn198 O202 2.086 . S
Zn198 O207 1.977 . S
O199 Zn198 2.032 . S
O199 C203 1.278 . S
C200 O201 1.203 . S
C200 O207 1.267 . S
O201 C200 1.203 . S
O202 C195 1.185 . S
O202 Zn198 2.086 . S
C203 O199 1.278 . S
C203 O204 1.211 . S
O204 C203 1.211 . S
C205 O197 1.284 . S
C205 O206 1.273 . S
O206 C205 1.273 . S
O207 Zn198 1.977 . S
O207 C200 1.267 . S
C208 C209 1.363 . S
C208 C214 1.379 . S
C208 N216 1.356 . S
C209 C208 1.363 . S
C209 C215 1.363 . S
C210 C211 1.363 . S
C210 C215 1.379 . S
C210 N217 1.356 . S
C211 C210 1.363 . S
C211 C214 1.363 . S
N212 C214 1.356 . S
N212 H224 0.984 . S
N212 H225 0.985 . S
N213 C215 1.356 . S
N213 H218 0.984 . S
N213 H219 0.985 . S
C214 C208 1.379 . S
C214 C211 1.363 . S
C214 N212 1.356 . S
C215 C209 1.363 . S
C215 C210 1.379 . S
C215 N213 1.356 . S
N216 C208 1.356 . S
N216 H222 0.984 . S
N216 H223 0.984 . S
N217 C210 1.356 . S
N217 H220 0.984 . S
N217 H221 0.985 . S
H218 N213 0.984 . S
H219 N213 0.985 . S
H220 N217 0.984 . S
H221 N217 0.985 . S
H222 N216 0.984 . S
H223 N216 0.984 . S
H224 N212 0.984 . S
H225 N212 0.985 . S
C226 C227 1.363 . S
C226 C232 1.379 . S
C226 N234 1.356 . S
C227 C226 1.363 . S
C227 C233 1.363 . S
C228 C229 1.363 . S
C228 C233 1.379 . S
C228 N235 1.356 . S
C229 C228 1.363 . S
C229 C232 1.363 . S
N230 C232 1.356 . S
N230 H242 0.984 . S
N230 H243 0.985 . S
N231 C233 1.365 . S
N231 H236 0.988 . S
N231 H237 0.972 1_565 S
C232 C226 1.379 . S
C232 C229 1.363 . S
C232 N230 1.356 . S
C233 C227 1.363 . S
C233 C228 1.379 . S
C233 N231 1.365 . S
N234 C226 1.356 . S
N234 H240 0.984 . S
N234 H241 0.984 . S
N235 C228 1.356 . S
N235 H238 0.984 . S
N235 H239 0.985 1_565 S
H236 N231 0.988 . S
H237 N231 0.972 1_545 S
H238 N235 0.984 . S
H239 N235 0.985 1_545 S
H240 N234 0.984 . S
H241 N234 0.984 . S
H242 N230 0.984 . S
H243 N230 0.985 . S
C244 C245 1.363 . S
C244 C250 1.379 . S
C244 N252 1.356 . S
C245 C244 1.363 . S
C245 C251 1.363 . S
C246 C247 1.363 . S
C246 C251 1.379 . S
C246 N253 1.356 . S
C247 C246 1.363 . S
C247 C250 1.363 . S
N248 C250 1.356 . S
N248 H260 0.984 . S
N248 H261 0.985 . S
N249 C251 1.356 . S
N249 H254 0.984 . S
N249 H255 0.985 . S
C250 C244 1.379 . S
C250 C247 1.363 . S
C250 N248 1.356 . S
C251 C245 1.363 . S
C251 C246 1.379 . S
C251 N249 1.356 . S
N252 C244 1.356 . S
N252 H258 0.984 . S
N252 H259 0.984 . S
N253 C246 1.356 . S
N253 H256 0.984 . S
N253 H257 0.985 . S
H254 N249 0.984 . S
H255 N249 0.985 . S
H256 N253 0.984 . S
H257 N253 0.985 . S
H258 N252 0.984 . S
H259 N252 0.984 . S
H260 N248 0.984 . S
H261 N248 0.985 . S
C262 C263 1.363 . S
C262 C268 1.379 1_455 S
C262 N270 1.356 . S
C263 C262 1.363 . S
C263 C269 1.363 . S
C264 C265 1.363 . S
C264 C269 1.379 1_655 S
C264 N271 1.356 . S
C265 C264 1.363 . S
C265 C268 1.363 . S
N266 C268 1.356 . S
N266 H278 0.984 1_545 S
N266 H279 0.985 . S
N267 C269 1.356 . S
N267 H272 0.984 . S
N267 H273 0.985 . S
C268 C262 1.379 1_655 S
C268 C265 1.363 . S
C268 N266 1.356 . S
C269 C263 1.363 . S
C269 C264 1.379 1_455 S
C269 N267 1.356 . S
N270 C262 1.356 . S
N270 H276 0.984 1_545 S
N270 H277 0.984 . S
N271 C264 1.356 . S
N271 H274 0.984 . S
N271 H275 0.985 . S
H272 N267 0.984 . S
H273 N267 0.985 . S
H274 N271 0.984 . S
H275 N271 0.985 . S
H276 N270 0.984 1_565 S
H277 N270 0.984 . S
H278 N266 0.984 1_565 S
H279 N266 0.985 . S
C280 C281 1.363 . S
C280 C286 1.379 . S
C280 N288 1.356 . S
C281 C280 1.363 . S
C281 C287 1.363 . S
C282 C283 1.363 . S
C282 C287 1.379 . S
C282 N289 1.356 . S
C283 C282 1.363 . S
C283 C286 1.363 . S
N284 C286 1.356 . S
N284 H296 0.984 . S
N284 H297 0.985 . S
N285 C287 1.356 . S
N285 H290 0.984 . S
N285 H291 0.985 . S
C286 C280 1.379 . S
C286 C283 1.363 . S
C286 N284 1.356 . S
C287 C281 1.363 . S
C287 C282 1.379 . S
C287 N285 1.356 . S
N288 C280 1.356 . S
N288 H294 0.984 . S
N288 H295 0.984 . S
N289 C282 1.356 . S
N289 H292 0.984 . S
N289 H293 0.985 . S
H290 N285 0.984 . S
H291 N285 0.985 . S
H292 N289 0.984 . S
H293 N289 0.985 . S
H294 N288 0.984 . S
H295 N288 0.984 . S
H296 N284 0.984 . S
H297 N284 0.985 . S
C298 C299 1.363 . S
C298 C304 1.379 1_655 S
C298 N306 1.356 . S
C299 C298 1.363 . S
C299 C305 1.363 . S
C300 C301 1.363 . S
C300 C305 1.379 1_455 S
C300 N307 1.356 . S
C301 C300 1.363 . S
C301 C304 1.363 . S
N302 C304 1.356 . S
N302 H314 0.984 1_565 S
N302 H315 0.985 . S
N303 C305 1.356 . S
N303 H308 0.984 . S
N303 H309 0.985 . S
C304 C298 1.379 1_455 S
C304 C301 1.363 . S
C304 N302 1.356 . S
C305 C299 1.363 . S
C305 C300 1.379 1_655 S
C305 N303 1.356 . S
N306 C298 1.356 . S
N306 H312 0.984 1_565 S
N306 H313 0.984 . S
N307 C300 1.356 . S
N307 H310 0.984 . S
N307 H311 0.985 . S
H308 N303 0.984 . S
H309 N303 0.985 . S
H310 N307 0.984 . S
H311 N307 0.985 . S
H312 N306 0.984 1_545 S
H313 N306 0.984 . S
H314 N302 0.984 1_545 S
H315 N302 0.985 . S
C316 C317 1.363 . S
C316 C322 1.379 . S
C316 N324 1.356 . S
C317 C316 1.363 . S
C317 C323 1.363 . S
C318 C319 1.363 . S
C318 C323 1.379 . S
C318 N325 1.356 . S
C319 C318 1.363 . S
C319 C322 1.363 . S
N320 C322 1.356 . S
N320 H332 0.984 . S
N320 H333 0.985 . S
N321 C323 1.356 . S
N321 H326 0.984 . S
N321 H327 0.985 . S
C322 C316 1.379 . S
C322 C319 1.363 . S
C322 N320 1.356 . S
C323 C317 1.363 . S
C323 C318 1.379 . S
C323 N321 1.356 . S
N324 C316 1.356 . S
N324 H330 0.984 . S
N324 H331 0.984 . S
N325 C318 1.356 . S
N325 H328 0.984 . S
N325 H329 0.985 . S
H326 N321 0.984 . S
H327 N321 0.985 . S
H328 N325 0.984 . S
H329 N325 0.985 . S
H330 N324 0.984 . S
H331 N324 0.984 . S
H332 N320 0.984 . S
H333 N320 0.985 . S
C334 C335 1.363 . S
C334 C340 1.379 . S
C334 N342 1.356 . S
C335 C334 1.363 . S
C335 C341 1.363 . S
C336 C337 1.363 . S
C336 C341 1.379 . S
C336 N343 1.356 . S
C337 C336 1.363 . S
C337 C340 1.363 . S
N338 C340 1.356 . S
N338 H350 0.984 1_545 S
N338 H351 0.985 . S
N339 C341 1.356 . S
N339 H344 0.984 . S
N339 H345 0.985 . S
C340 C334 1.379 . S
C340 C337 1.363 . S
C340 N338 1.356 . S
C341 C335 1.363 . S
C341 C336 1.379 . S
C341 N339 1.356 . S
N342 C334 1.356 . S
N342 H348 0.984 1_545 S
N342 H349 0.984 . S
N343 C336 1.356 . S
N343 H346 0.984 . S
N343 H347 0.985 . S
H344 N339 0.984 . S
H345 N339 0.985 . S
H346 N343 0.984 . S
H347 N343 0.985 . S
H348 N342 0.984 1_565 S
H349 N342 0.984 . S
H350 N338 0.984 1_565 S
H351 N338 0.985 . S
C352 C353 1.363 . S
C352 C358 1.379 . S
C352 N360 1.356 . S
C353 C352 1.363 . S
C353 C359 1.363 . S
C354 C355 1.363 . S
C354 C359 1.379 . S
C354 N361 1.356 . S
C355 C354 1.363 . S
C355 C358 1.363 . S
N356 C358 1.356 . S
N356 H368 0.984 . S
N356 H369 0.985 . S
N357 C359 1.356 . S
N357 H362 0.984 . S
N357 H363 0.985 . S
C358 C352 1.379 . S
C358 C355 1.363 . S
C358 N356 1.356 . S
C359 C353 1.363 . S
C359 C354 1.379 . S
C359 N357 1.356 . S
N360 C352 1.356 . S
N360 H366 0.984 . S
N360 H367 0.984 . S
N361 C354 1.356 . S
N361 H364 0.984 . S
N361 H365 0.985 . S
H362 N357 0.984 . S
H363 N357 0.985 . S
H364 N361 0.984 . S
H365 N361 0.985 . S
H366 N360 0.984 . S
H367 N360 0.984 . S
H368 N356 0.984 . S
H369 N356 0.985 . S
C370 C371 1.363 . S
C370 C376 1.379 . S
C370 N378 1.356 . S
C371 C370 1.363 . S
C371 C377 1.363 . S
C372 C373 1.363 . S
C372 C377 1.379 . S
C372 N379 1.356 . S
C373 C372 1.363 . S
C373 C376 1.363 . S
N374 C376 1.356 . S
N374 H386 0.984 . S
N374 H387 0.985 . S
N375 C377 1.356 . S
N375 H380 0.984 . S
N375 H381 0.985 . S
C376 C370 1.379 . S
C376 C373 1.363 . S
C376 N374 1.356 . S
C377 C371 1.363 . S
C377 C372 1.379 . S
C377 N375 1.356 . S
N378 C370 1.356 . S
N378 H384 0.984 . S
N378 H385 0.984 . S
N379 C372 1.356 . S
N379 H382 0.984 . S
N379 H383 0.985 . S
H380 N375 0.984 . S
H381 N375 0.985 . S
H382 N379 0.984 . S
H383 N379 0.985 . S
H384 N378 0.984 . S
H385 N378 0.984 . S
H386 N374 0.984 . S
H387 N374 0.985 . S
C388 C389 1.363 . S
C388 C394 1.379 . S
C388 N396 1.356 . S
C389 C388 1.363 . S
C389 C395 1.363 . S
C390 C391 1.363 . S
C390 C395 1.379 . S
C390 N397 1.356 . S
C391 C390 1.363 . S
C391 C394 1.363 . S
N392 C394 1.356 . S
N392 H404 0.984 . S
N392 H405 0.985 . S
N393 C395 1.356 . S
N393 H398 0.984 . S
N393 H399 0.985 . S
C394 C388 1.379 . S
C394 C391 1.363 . S
C394 N392 1.356 . S
C395 C389 1.363 . S
C395 C390 1.379 . S
C395 N393 1.356 . S
N396 C388 1.356 . S
N396 H402 0.984 . S
N396 H403 0.984 . S
N397 C390 1.356 . S
N397 H400 0.984 . S
N397 H401 0.985 . S
H398 N393 0.984 . S
H399 N393 0.985 . S
H400 N397 0.984 . S
H401 N397 0.985 . S
H402 N396 0.984 . S
H403 N396 0.984 . S
H404 N392 0.984 . S
H405 N392 0.985 . S
C406 C407 1.363 . S
C406 C412 1.379 . S
C406 N414 1.356 . S
C407 C406 1.363 . S
C407 C413 1.363 . S
C408 C409 1.363 . S
C408 C413 1.379 . S
C408 N415 1.356 . S
C409 C408 1.363 . S
C409 C412 1.363 . S
N410 C412 1.356 . S
N410 H422 0.984 . S
N410 H423 0.985 . S
N411 C413 1.356 . S
N411 H416 0.984 . S
N411 H417 0.985 . S
C412 C406 1.379 . S
C412 C409 1.363 . S
C412 N410 1.356 . S
C413 C407 1.363 . S
C413 C408 1.379 . S
C413 N411 1.356 . S
N414 C406 1.356 . S
N414 H420 0.984 . S
N414 H421 0.984 . S
N415 C408 1.356 . S
N415 H418 0.984 . S
N415 H419 0.985 . S
H416 N411 0.984 . S
H417 N411 0.985 . S
H418 N415 0.984 . S
H419 N415 0.985 . S
H420 N414 0.984 . S
H421 N414 0.984 . S
H422 N410 0.984 . S
H423 N410 0.985 . S
C424 C425 1.363 . S
C424 C430 1.379 1_455 S
C424 N432 1.356 . S
C425 C424 1.363 . S
C425 C431 1.363 . S
C426 C427 1.363 . S
C426 C431 1.379 1_655 S
C426 N433 1.356 . S
C427 C426 1.363 . S
C427 C430 1.363 . S
N428 C430 1.356 . S
N428 H440 0.984 . S
N428 H441 0.985 . S
N429 C431 1.356 . S
N429 H434 0.984 . S
N429 H435 0.985 . S
C430 C424 1.379 1_655 S
C430 C427 1.363 . S
C430 N428 1.356 . S
C431 C425 1.363 . S
C431 C426 1.379 1_455 S
C431 N429 1.356 . S
N432 C424 1.356 . S
N432 H438 0.984 . S
N432 H439 0.984 . S
N433 C426 1.356 . S
N433 H436 0.984 . S
N433 H437 0.985 . S
H434 N429 0.984 . S
H435 N429 0.985 . S
H436 N433 0.984 . S
H437 N433 0.985 . S
H438 N432 0.984 . S
H439 N432 0.984 . S
H440 N428 0.984 . S
H441 N428 0.985 . S
C442 C443 1.363 . S
C442 C448 1.379 . S
C442 N450 1.356 . S
C443 C442 1.363 . S
C443 C449 1.363 . S
C444 C445 1.363 . S
C444 C449 1.379 . S
C444 N451 1.356 . S
C445 C444 1.363 . S
C445 C448 1.363 . S
N446 C448 1.356 . S
N446 H458 0.984 . S
N446 H459 0.985 . S
N447 C449 1.356 . S
N447 H452 0.984 . S
N447 H453 0.985 . S
C448 C442 1.379 . S
C448 C445 1.363 . S
C448 N446 1.356 . S
C449 C443 1.363 . S
C449 C444 1.379 . S
C449 N447 1.356 . S
N450 C442 1.356 . S
N450 H456 0.984 . S
N450 H457 0.984 . S
N451 C444 1.356 . S
N451 H454 0.984 . S
N451 H455 0.985 . S
H452 N447 0.984 . S
H453 N447 0.985 . S
H454 N451 0.984 . S
H455 N451 0.985 . S
H456 N450 0.984 . S
H457 N450 0.984 . S
H458 N446 0.984 . S
H459 N446 0.985 . S
C460 C461 1.363 . S
C460 C466 1.379 . S
C460 N468 1.356 . S
C461 C460 1.363 . S
C461 C467 1.363 . S
C462 C463 1.363 . S
C462 C467 1.379 . S
C462 N469 1.356 . S
C463 C462 1.363 . S
C463 C466 1.363 . S
N464 C466 1.356 . S
N464 H476 0.984 . S
N464 H477 0.985 . S
N465 C467 1.356 . S
N465 H470 0.984 . S
N465 H471 0.985 . S
C466 C460 1.379 . S
C466 C463 1.363 . S
C466 N464 1.356 . S
C467 C461 1.363 . S
C467 C462 1.379 . S
C467 N465 1.356 . S
N468 C460 1.356 . S
N468 H474 0.984 . S
N468 H475 0.984 . S
N469 C462 1.356 . S
N469 H472 0.984 . S
N469 H473 0.985 . S
H470 N465 0.984 . S
H471 N465 0.985 . S
H472 N469 0.984 . S
H473 N469 0.985 . S
H474 N468 0.984 . S
H475 N468 0.984 . S
H476 N464 0.984 . S
H477 N464 0.985 . S
C478 C479 1.363 . S
C478 C484 1.379 1_455 S
C478 N486 1.356 . S
C479 C478 1.363 . S
C479 C485 1.363 . S
C480 C481 1.363 . S
C480 C485 1.379 1_655 S
C480 N487 1.356 . S
C481 C480 1.363 . S
C481 C484 1.363 . S
N482 C484 1.356 . S
N482 H494 0.984 . S
N482 H495 0.985 . S
N483 C485 1.356 . S
N483 H488 0.984 . S
N483 H489 0.985 . S
C484 C478 1.379 1_655 S
C484 C481 1.363 . S
C484 N482 1.356 . S
C485 C479 1.363 . S
C485 C480 1.379 1_455 S
C485 N483 1.356 . S
N486 C478 1.356 . S
N486 H492 0.984 . S
N486 H493 0.984 . S
N487 C480 1.356 . S
N487 H490 0.984 . S
N487 H491 0.985 . S
H488 N483 0.984 . S
H489 N483 0.985 . S
H490 N487 0.984 . S
H491 N487 0.985 . S
H492 N486 0.984 . S
H493 N486 0.984 . S
H494 N482 0.984 . S
H495 N482 0.985 . S
C496 C497 1.363 . S
C496 C502 1.379 1_554 S
C496 N504 1.356 . S
C497 C496 1.363 . S
C497 C503 1.363 . S
C498 C499 1.363 . S
C498 C503 1.379 1_556 S
C498 N505 1.356 . S
C499 C498 1.363 . S
C499 C502 1.363 . S
N500 C502 1.356 . S
N500 H512 0.984 . S
N500 H513 0.985 . S
N501 C503 1.356 . S
N501 H506 0.984 . S
N501 H507 0.985 . S
C502 C496 1.379 1_556 S
C502 C499 1.363 . S
C502 N500 1.356 . S
C503 C497 1.363 . S
C503 C498 1.379 1_554 S
C503 N501 1.356 . S
N504 C496 1.356 . S
N504 H510 0.984 . S
N504 H511 0.984 . S
N505 C498 1.356 . S
N505 H508 0.984 . S
N505 H509 0.985 . S
H506 N501 0.984 . S
H507 N501 0.985 . S
H508 N505 0.984 . S
H509 N505 0.985 . S
H510 N504 0.984 . S
H511 N504 0.984 . S
H512 N500 0.984 . S
H513 N500 0.985 . S
C514 C515 1.363 . S
C514 C520 1.379 . S
C514 N522 1.356 . S
C515 C514 1.363 . S
C515 C521 1.363 . S
C516 C517 1.363 . S
C516 C521 1.379 . S
C516 N523 1.356 . S
C517 C516 1.363 . S
C517 C520 1.363 . S
N518 C520 1.356 . S
N518 H530 0.984 1_565 S
N518 H531 0.985 . S
N519 C521 1.356 . S
N519 H524 0.984 . S
N519 H525 0.985 . S
C520 C514 1.379 . S
C520 C517 1.363 . S
C520 N518 1.356 . S
C521 C515 1.363 . S
C521 C516 1.379 . S
C521 N519 1.356 . S
N522 C514 1.356 . S
N522 H528 0.984 1_565 S
N522 H529 0.984 . S
N523 C516 1.356 . S
N523 H526 0.984 . S
N523 H527 0.985 . S
H524 N519 0.984 . S
H525 N519 0.985 . S
H526 N523 0.984 . S
H527 N523 0.985 . S
H528 N522 0.984 1_545 S
H529 N522 0.984 . S
H530 N518 0.984 1_545 S
H531 N518 0.985 . S
C532 C533 1.363 . S
C532 C538 1.379 . S
C532 N540 1.356 . S
C533 C532 1.363 . S
C533 C539 1.363 . S
C534 C535 1.363 . S
C534 C539 1.379 . S
C534 N541 1.356 . S
C535 C534 1.363 . S
C535 C538 1.363 . S
N536 C538 1.356 . S
N536 H548 0.984 . S
N536 H549 0.985 . S
N537 C539 1.356 . S
N537 H542 0.984 . S
N537 H543 0.985 . S
C538 C532 1.379 . S
C538 C535 1.363 . S
C538 N536 1.356 . S
C539 C533 1.363 . S
C539 C534 1.379 . S
C539 N537 1.356 . S
N540 C532 1.356 . S
N540 H546 0.984 . S
N540 H547 0.984 . S
N541 C534 1.356 . S
N541 H544 0.984 . S
N541 H545 0.985 . S
H542 N537 0.984 . S
H543 N537 0.985 . S
H544 N541 0.984 . S
H545 N541 0.985 . S
H546 N540 0.984 . S
H547 N540 0.984 . S
H548 N536 0.984 . S
H549 N536 0.985 . S
C550 C551 1.363 . S
C550 C556 1.379 . S
C550 N558 1.356 . S
C551 C550 1.363 . S
C551 C557 1.363 . S
C552 C553 1.363 . S
C552 C557 1.379 . S
C552 N559 1.356 . S
C553 C552 1.363 . S
C553 C556 1.363 . S
N554 C556 1.356 . S
N554 H566 0.984 . S
N554 H567 0.985 . S
N555 C557 1.356 . S
N555 H560 0.984 . S
N555 H561 0.985 1_545 S
C556 C550 1.379 . S
C556 C553 1.363 . S
C556 N554 1.356 . S
C557 C551 1.363 . S
C557 C552 1.379 . S
C557 N555 1.356 . S
N558 C550 1.356 . S
N558 H564 0.984 . S
N558 H565 0.984 . S
N559 C552 1.356 . S
N559 H562 0.984 . S
N559 H563 0.985 . S
H560 N555 0.984 . S
H561 N555 0.985 1_565 S
H562 N559 0.984 . S
H563 N559 0.985 . S
H564 N558 0.984 . S
H565 N558 0.984 . S
H566 N554 0.984 . S
H567 N554 0.985 . S
C568 C569 1.363 . S
C568 C574 1.379 1_556 S
C568 N576 1.356 . S
C569 C568 1.363 . S
C569 C575 1.363 . S
C570 C571 1.363 1_556 S
C570 C575 1.379 . S
C570 N577 1.356 1_556 S
C571 C570 1.363 1_554 S
C571 C574 1.363 . S
N572 C574 1.356 . S
N572 H584 0.984 . S
N572 H585 0.985 . S
N573 C575 1.356 . S
N573 H578 0.984 . S
N573 H579 0.985 . S
C574 C568 1.379 1_554 S
C574 C571 1.363 . S
C574 N572 1.356 . S
C575 C569 1.363 . S
C575 C570 1.379 . S
C575 N573 1.356 . S
N576 C568 1.356 . S
N576 H582 0.984 . S
N576 H583 0.984 . S
N577 C570 1.356 1_554 S
N577 H580 0.984 . S
N577 H581 0.985 1_554 S
H578 N573 0.984 . S
H579 N573 0.985 . S
H580 N577 0.984 . S
H581 N577 0.985 1_556 S
H582 N576 0.984 . S
H583 N576 0.984 . S
H584 N572 0.984 . S
H585 N572 0.985 . S
C586 C587 1.363 . S
C586 C592 1.379 . S
C586 N594 1.356 . S
C587 C586 1.363 . S
C587 C593 1.363 . S
C588 C589 1.363 . S
C588 C593 1.379 . S
C588 N595 1.356 . S
C589 C588 1.363 . S
C589 C592 1.363 . S
N590 C592 1.356 . S
N590 H602 0.984 . S
N590 H603 0.985 . S
N591 C593 1.356 . S
N591 H596 0.984 . S
N591 H597 0.966 1_545 S
C592 C586 1.379 . S
C592 C589 1.363 . S
C592 N590 1.356 . S
C593 C587 1.363 . S
C593 C588 1.379 . S
C593 N591 1.356 . S
N594 C586 1.356 . S
N594 H600 0.984 . S
N594 H601 0.984 . S
N595 C588 1.356 . S
N595 H598 0.984 . S
N595 H599 0.985 1_545 S
H596 N591 0.984 . S
H597 N591 0.966 1_565 S
H598 N595 0.984 . S
H599 N595 0.985 1_565 S
H600 N594 0.984 . S
H601 N594 0.984 . S
H602 N590 0.984 . S
H603 N590 0.985 . S
C604 C605 1.363 . S
C604 C610 1.379 . S
C604 N612 1.356 . S
C605 C604 1.363 . S
C605 C611 1.363 . S
C606 C607 1.363 . S
C606 C611 1.379 . S
C606 N613 1.356 . S
C607 C606 1.363 . S
C607 C610 1.363 . S
N608 C610 1.356 . S
N608 H620 0.984 . S
N608 H621 0.985 . S
N609 C611 1.356 . S
N609 H614 0.984 . S
N609 H615 0.985 . S
C610 C604 1.379 . S
C610 C607 1.363 . S
C610 N608 1.356 . S
C611 C605 1.363 . S
C611 C606 1.379 . S
C611 N609 1.356 . S
N612 C604 1.356 . S
N612 H618 0.984 . S
N612 H619 0.984 . S
N613 C606 1.356 . S
N613 H616 0.984 . S
N613 H617 0.985 . S
H614 N609 0.984 . S
H615 N609 0.985 . S
H616 N613 0.984 . S
H617 N613 0.985 . S
H618 N612 0.984 . S
H619 N612 0.984 . S
H620 N608 0.984 . S
H621 N608 0.985 . S
C622 C623 1.363 . S
C622 C628 1.379 . S
C622 N630 1.356 . S
C623 C622 1.363 . S
C623 C629 1.363 . S
C624 C625 1.363 . S
C624 C629 1.379 . S
C624 N631 1.356 . S
C625 C624 1.363 . S
C625 C628 1.363 . S
N626 C628 1.356 . S
N626 H638 0.984 1_565 S
N626 H639 0.985 . S
N627 C629 1.356 . S
N627 H632 0.984 . S
N627 H633 0.985 . S
C628 C622 1.379 . S
C628 C625 1.363 . S
C628 N626 1.356 . S
C629 C623 1.363 . S
C629 C624 1.379 . S
C629 N627 1.356 . S
N630 C622 1.356 . S
N630 H636 0.984 1_565 S
N630 H637 0.984 . S
N631 C624 1.356 . S
N631 H634 0.984 . S
N631 H635 0.985 . S
H632 N627 0.984 . S
H633 N627 0.985 . S
H634 N631 0.984 . S
H635 N631 0.985 . S
H636 N630 0.984 1_545 S
H637 N630 0.984 . S
H638 N626 0.984 1_545 S
H639 N626 0.985 . S
C640 C641 1.363 . S
C640 C646 1.379 . S
C640 N648 1.356 . S
C641 C640 1.363 . S
C641 C647 1.363 1_545 S
C642 C643 1.363 . S
C642 C647 1.379 . S
C642 N649 1.356 . S
C643 C642 1.363 . S
C643 C646 1.363 1_565 S
N644 C646 1.356 . S
N644 H656 0.984 . S
N644 H657 0.985 1_545 S
N645 C647 1.356 . S
N645 H650 0.984 1_565 S
N645 H651 0.985 . S
C646 C640 1.379 . S
C646 C643 1.363 1_545 S
C646 N644 1.356 . S
C647 C641 1.363 1_565 S
C647 C642 1.379 . S
C647 N645 1.356 . S
N648 C640 1.356 . S
N648 H654 0.984 . S
N648 H655 0.984 . S
N649 C642 1.356 . S
N649 H652 0.984 . S
N649 H653 0.985 . S
H650 N645 0.984 1_545 S
H651 N645 0.985 . S
H652 N649 0.984 . S
H653 N649 0.985 . S
H654 N648 0.984 . S
H655 N648 0.984 . S
H656 N644 0.984 . S
H657 N644 0.985 1_565 S
C658 C659 1.363 . S
C658 C664 1.379 . S
C658 N666 1.356 . S
C659 C658 1.363 . S
C659 C665 1.363 . S
C660 C661 1.363 . S
C660 C665 1.379 . S
C660 N667 1.356 . S
C661 C660 1.363 . S
C661 C664 1.363 . S
N662 C664 1.356 . S
N662 H674 0.984 . S
N662 H675 0.985 . S
N663 C665 1.356 . S
N663 H668 0.984 . S
N663 H669 0.985 . S
C664 C658 1.379 . S
C664 C661 1.363 . S
C664 N662 1.356 . S
C665 C659 1.363 . S
C665 C660 1.379 . S
C665 N663 1.356 . S
N666 C658 1.356 . S
N666 H672 0.984 . S
N666 H673 0.984 . S
N667 C660 1.356 . S
N667 H670 0.984 . S
N667 H671 0.985 . S
H668 N663 0.984 . S
H669 N663 0.985 . S
H670 N667 0.984 . S
H671 N667 0.985 . S
H672 N666 0.984 . S
H673 N666 0.984 . S
H674 N662 0.984 . S
H675 N662 0.985 . S
C676 C677 1.363 . S
C676 C682 1.379 1_546 S
C676 N684 1.356 . S
C677 C676 1.363 . S
C677 C683 1.363 . S
C678 C679 1.363 . S
C678 C683 1.379 1_564 S
C678 N685 1.356 . S
C679 C678 1.363 . S
C679 C682 1.363 . S
N680 C682 1.356 . S
N680 H692 0.984 . S
N680 H693 0.985 . S
N681 C683 1.356 . S
N681 H686 0.984 . S
N681 H687 0.985 . S
C682 C676 1.379 1_564 S
C682 C679 1.363 . S
C682 N680 1.356 . S
C683 C677 1.363 . S
C683 C678 1.379 1_546 S
C683 N681 1.356 . S
N684 C676 1.356 . S
N684 H690 0.984 . S
N684 H691 0.984 . S
N685 C678 1.356 . S
N685 H688 0.984 . S
N685 H689 0.985 . S
H686 N681 0.984 . S
H687 N681 0.985 . S
H688 N685 0.984 . S
H689 N685 0.985 . S
H690 N684 0.984 . S
H691 N684 0.984 . S
H692 N680 0.984 . S
H693 N680 0.985 . S
C694 C695 1.363 . S
C694 C700 1.379 . S
C694 N702 1.356 . S
C695 C694 1.363 . S
C695 C701 1.363 . S
C696 C697 1.363 . S
C696 C701 1.379 . S
C696 N703 1.356 . S
C697 C696 1.363 . S
C697 C700 1.363 . S
N698 C700 1.356 . S
N698 H710 0.984 . S
N698 H711 0.985 . S
N699 C701 1.356 . S
N699 H704 0.984 . S
N699 H705 0.985 . S
C700 C694 1.379 . S
C700 C697 1.363 . S
C700 N698 1.356 . S
C701 C695 1.363 . S
C701 C696 1.379 . S
C701 N699 1.356 . S
N702 C694 1.356 . S
N702 H708 0.984 . S
N702 H709 0.984 . S
N703 C696 1.356 . S
N703 H706 0.984 . S
N703 H707 0.985 . S
H704 N699 0.984 . S
H705 N699 0.985 . S
H706 N703 0.984 . S
H707 N703 0.985 . S
H708 N702 0.984 . S
H709 N702 0.984 . S
H710 N698 0.984 . S
H711 N698 0.985 . S
C712 C713 1.363 . S
C712 C718 1.379 . S
C712 N720 1.356 . S
C713 C712 1.363 . S
C713 C719 1.363 1_545 S
C714 C715 1.363 . S
C714 C719 1.379 . S
C714 N721 1.356 . S
C715 C714 1.363 . S
C715 C718 1.363 1_565 S
N716 C718 1.356 . S
N716 H728 0.984 . S
N716 H729 0.985 . S
N717 C719 1.356 . S
N717 H722 0.984 . S
N717 H723 0.985 . S
C718 C712 1.379 . S
C718 C715 1.363 1_545 S
C718 N716 1.356 . S
C719 C713 1.363 1_565 S
C719 C714 1.379 . S
C719 N717 1.356 . S
N720 C712 1.356 . S
N720 H726 0.984 . S
N720 H727 0.984 . S
N721 C714 1.356 . S
N721 H724 0.984 . S
N721 H725 0.985 . S
H722 N717 0.984 . S
H723 N717 0.985 . S
H724 N721 0.984 . S
H725 N721 0.985 . S
H726 N720 0.984 . S
H727 N720 0.984 . S
H728 N716 0.984 . S
H729 N716 0.985 . S
C730 C731 1.363 . S
C730 C736 1.379 . S
C730 N738 1.356 . S
C731 C730 1.363 . S
C731 C737 1.363 . S
C732 C733 1.363 . S
C732 C737 1.379 . S
C732 N739 1.356 . S
C733 C732 1.363 . S
C733 C736 1.363 . S
N734 C736 1.356 . S
N734 H746 0.984 . S
N734 H747 0.985 . S
N735 C737 1.356 . S
N735 H740 0.984 . S
N735 H741 0.985 . S
C736 C730 1.379 . S
C736 C733 1.363 . S
C736 N734 1.356 . S
C737 C731 1.363 . S
C737 C732 1.379 . S
C737 N735 1.356 . S
N738 C730 1.356 . S
N738 H744 0.984 . S
N738 H745 0.984 . S
N739 C732 1.356 . S
N739 H742 0.984 . S
N739 H743 0.985 . S
H740 N735 0.984 . S
H741 N735 0.985 . S
H742 N739 0.984 . S
H743 N739 0.985 . S
H744 N738 0.984 . S
H745 N738 0.984 . S
H746 N734 0.984 . S
H747 N734 0.985 . S
C748 C749 1.363 1_545 S
C748 C754 1.379 1_554 S
C748 N756 1.356 . S
C749 C748 1.363 1_565 S
C749 C755 1.363 1_554 S
C750 C751 1.363 1_565 S
C750 C755 1.379 . S
C750 N757 1.356 . S
C751 C750 1.363 1_545 S
C751 C754 1.363 . S
N752 C754 1.356 . S
N752 H764 0.984 . S
N752 H765 0.985 . S
N753 C755 1.356 1_554 S
N753 H758 0.984 . S
N753 H759 0.985 1_554 S
C754 C748 1.379 1_556 S
C754 C751 1.363 . S
C754 N752 1.356 . S
C755 C749 1.363 1_556 S
C755 C750 1.379 . S
C755 N753 1.356 1_556 S
N756 C748 1.356 . S
N756 H762 0.984 . S
N756 H763 0.984 1_545 S
N757 C750 1.356 . S
N757 H760 0.987 1_565 S
N757 H761 0.982 . S
H758 N753 0.984 . S
H759 N753 0.985 1_556 S
H760 N757 0.987 1_545 S
H761 N757 0.982 . S
H762 N756 0.984 . S
H763 N756 0.984 1_565 S
H764 N752 0.984 . S
H765 N752 0.985 . S
C766 C767 1.363 . S
C766 C772 1.379 . S
C766 N774 1.356 . S
C767 C766 1.363 . S
C767 C773 1.363 . S
C768 C769 1.363 . S
C768 C773 1.379 . S
C768 N775 1.356 . S
C769 C768 1.363 . S
C769 C772 1.363 . S
N770 C772 1.356 . S
N770 H782 0.984 . S
N770 H783 0.985 . S
N771 C773 1.356 . S
N771 H776 0.984 . S
N771 H777 0.985 . S
C772 C766 1.379 . S
C772 C769 1.363 . S
C772 N770 1.356 . S
C773 C767 1.363 . S
C773 C768 1.379 . S
C773 N771 1.356 . S
N774 C766 1.356 . S
N774 H780 0.984 . S
N774 H781 0.984 . S
N775 C768 1.356 . S
N775 H778 0.984 . S
N775 H779 0.985 . S
H776 N771 0.984 . S
H777 N771 0.985 . S
H778 N775 0.984 . S
H779 N775 0.985 . S
H780 N774 0.984 . S
H781 N774 0.984 . S
H782 N770 0.984 . S
H783 N770 0.985 . S
C209 C148 1.428 . S
C211 C8 1.419 . S
C227 C200 1.388 . S
C229 C18 1.400 . S
C245 C31 1.396 . S
C247 C125 1.382 . S
C263 C174 1.390 . S
C265 C47 1.391 . S
C281 C60 1.447 . S
C283 C177 1.461 . S
C299 C70 1.388 . S
C301 C151 1.390 . S
C317 C83 1.380 . S
C319 C203 1.375 . S
C335 C96 1.374 . S
C337 C122 1.373 . S
C353 C44 1.430 . S
C355 C112 1.431 . S
C371 C138 1.446 . S
C373 C21 1.441 . S
C389 C164 1.444 . S
C391 C73 1.451 . S
C407 C187 1.457 . S
C409 C99 1.444 . S
C425 C57 1.446 . S
C427 C109 1.442 . S
C443 C135 1.383 . S
C445 C86 1.386 . S
C461 C190 1.457 . S
C463 C34 1.457 . S
C479 C5 1.401 . S
C481 C161 1.398 . S
C497 C10 1.259 . S
C499 C62 1.261 . S
C515 C13 1.274 . S
C517 C65 1.270 . S
C533 C26 1.249 . S
C535 C78 1.249 . S
C551 C91 1.255 . S
C553 C49 1.253 . S
C569 C114 1.231 . S
C571 C166 1.234 . S
C587 C169 1.206 . S
C589 C117 1.211 . S
C605 C140 1.359 . S
C607 C182 1.363 . S
C623 C195 1.258 . S
C625 C153 1.258 . S
C641 C101 1.222 . S
C643 C23 1.227 . S
C659 C36 1.337 . S
C661 C52 1.325 . S
C677 C39 1.294 . S
C679 C75 1.294 . S
C695 C0 1.225 . S
C697 C88 1.225 . S
C713 C127 1.213 . S
C715 C205 1.208 . S
C731 C156 1.294 . S
C733 C130 1.292 . S
C749 C143 1.277 . S
C751 C179 1.277 . S
C767 C192 1.286 . S
C769 C104 1.276 . S
