# Generated by pormake.
# Topology cbo, (4)-cn, num edge types: 1
# Building blocks:
#     Node 0, Type 0, BuildingBlock: QUQFOY_clean_sbu_1, # of connection points: 4
#     Node 1, Type 0, BuildingBlock: QUQFOY_clean_sbu_1, # of connection points: 4
#     Node 2, Type 0, BuildingBlock: QUQFOY_clean_sbu_1, # of connection points: 4
#     Node 3, Type 0, BuildingBlock: QUQFOY_clean_sbu_1, # of connection points: 4
#     Node 4, Type 0, BuildingBlock: QUQFOY_clean_sbu_1, # of connection points: 4
#     Node 5, Type 0, BuildingBlock: QUQFOY_clean_sbu_1, # of connection points: 4
#     Node 6, Type 0, BuildingBlock: QUQFOY_clean_sbu_1, # of connection points: 4
#     Node 7, Type 0, BuildingBlock: QUQFOY_clean_sbu_1, # of connection points: 4
#     Node 8, Type 0, BuildingBlock: QUQFOY_clean_sbu_1, # of connection points: 4
#     Node 9, Type 0, BuildingBlock: QUQFOY_clean_sbu_1, # of connection points: 4
#     Node 10, Type 0, BuildingBlock: QUQFOY_clean_sbu_1, # of connection points: 4
#     Node 11, Type 0, BuildingBlock: QUQFOY_clean_sbu_1, # of connection points: 4
#     Node 12, Type 0, BuildingBlock: QUQFOY_clean_sbu_1, # of connection points: 4
#     Node 13, Type 0, BuildingBlock: QUQFOY_clean_sbu_1, # of connection points: 4
#     Node 14, Type 0, BuildingBlock: QUQFOY_clean_sbu_1, # of connection points: 4
#     Node 15, Type 0, BuildingBlock: QUQFOY_clean_sbu_1, # of connection points: 4
#     Node 16, Type 0, BuildingBlock: QUQFOY_clean_sbu_1, # of connection points: 4
#     Node 17, Type 0, BuildingBlock: QUQFOY_clean_sbu_1, # of connection points: 4
#     Node 18, Type 0, BuildingBlock: QUQFOY_clean_sbu_1, # of connection points: 4
#     Node 19, Type 0, BuildingBlock: QUQFOY_clean_sbu_1, # of connection points: 4
#     Node 20, Type 0, BuildingBlock: QUQFOY_clean_sbu_1, # of connection points: 4
#     Node 21, Type 0, BuildingBlock: QUQFOY_clean_sbu_1, # of connection points: 4
#     Node 22, Type 0, BuildingBlock: QUQFOY_clean_sbu_1, # of connection points: 4
#     Node 23, Type 0, BuildingBlock: QUQFOY_clean_sbu_1, # of connection points: 4
#     Edge 24, Type (0, 0), BuildingBlock: MIFKUJ_clean_linker_0, # of connection points: 2
#     Edge 25, Type (0, 0), BuildingBlock: MIFKUJ_clean_linker_0, # of connection points: 2
#     Edge 26, Type (0, 0), BuildingBlock: MIFKUJ_clean_linker_0, # of connection points: 2
#     Edge 27, Type (0, 0), BuildingBlock: MIFKUJ_clean_linker_0, # of connection points: 2
#     Edge 28, Type (0, 0), BuildingBlock: MIFKUJ_clean_linker_0, # of connection points: 2
#     Edge 29, Type (0, 0), BuildingBlock: MIFKUJ_clean_linker_0, # of connection points: 2
#     Edge 30, Type (0, 0), BuildingBlock: MIFKUJ_clean_linker_0, # of connection points: 2
#     Edge 31, Type (0, 0), BuildingBlock: MIFKUJ_clean_linker_0, # of connection points: 2
#     Edge 32, Type (0, 0), BuildingBlock: MIFKUJ_clean_linker_0, # of connection points: 2
#     Edge 33, Type (0, 0), BuildingBlock: MIFKUJ_clean_linker_0, # of connection points: 2
#     Edge 34, Type (0, 0), BuildingBlock: MIFKUJ_clean_linker_0, # of connection points: 2
#     Edge 35, Type (0, 0), BuildingBlock: MIFKUJ_clean_linker_0, # of connection points: 2
#     Edge 36, Type (0, 0), BuildingBlock: MIFKUJ_clean_linker_0, # of connection points: 2
#     Edge 37, Type (0, 0), BuildingBlock: MIFKUJ_clean_linker_0, # of connection points: 2
#     Edge 38, Type (0, 0), BuildingBlock: MIFKUJ_clean_linker_0, # of connection points: 2
#     Edge 39, Type (0, 0), BuildingBlock: MIFKUJ_clean_linker_0, # of connection points: 2
#     Edge 40, Type (0, 0), BuildingBlock: MIFKUJ_clean_linker_0, # of connection points: 2
#     Edge 41, Type (0, 0), BuildingBlock: MIFKUJ_clean_linker_0, # of connection points: 2
#     Edge 42, Type (0, 0), BuildingBlock: MIFKUJ_clean_linker_0, # of connection points: 2
#     Edge 43, Type (0, 0), BuildingBlock: MIFKUJ_clean_linker_0, # of connection points: 2
#     Edge 44, Type (0, 0), BuildingBlock: MIFKUJ_clean_linker_0, # of connection points: 2
#     Edge 45, Type (0, 0), BuildingBlock: MIFKUJ_clean_linker_0, # of connection points: 2
#     Edge 46, Type (0, 0), BuildingBlock: MIFKUJ_clean_linker_0, # of connection points: 2
#     Edge 47, Type (0, 0), BuildingBlock: MIFKUJ_clean_linker_0, # of connection points: 2
#     Edge 48, Type (0, 0), BuildingBlock: MIFKUJ_clean_linker_0, # of connection points: 2
#     Edge 49, Type (0, 0), BuildingBlock: MIFKUJ_clean_linker_0, # of connection points: 2
#     Edge 50, Type (0, 0), BuildingBlock: MIFKUJ_clean_linker_0, # of connection points: 2
#     Edge 51, Type (0, 0), BuildingBlock: MIFKUJ_clean_linker_0, # of connection points: 2
#     Edge 52, Type (0, 0), BuildingBlock: MIFKUJ_clean_linker_0, # of connection points: 2
#     Edge 53, Type (0, 0), BuildingBlock: MIFKUJ_clean_linker_0, # of connection points: 2
#     Edge 54, Type (0, 0), BuildingBlock: MIFKUJ_clean_linker_0, # of connection points: 2
#     Edge 55, Type (0, 0), BuildingBlock: MIFKUJ_clean_linker_0, # of connection points: 2
#     Edge 56, Type (0, 0), BuildingBlock: MIFKUJ_clean_linker_0, # of connection points: 2
#     Edge 57, Type (0, 0), BuildingBlock: MIFKUJ_clean_linker_0, # of connection points: 2
#     Edge 58, Type (0, 0), BuildingBlock: MIFKUJ_clean_linker_0, # of connection points: 2
#     Edge 59, Type (0, 0), BuildingBlock: MIFKUJ_clean_linker_0, # of connection points: 2
#     Edge 60, Type (0, 0), BuildingBlock: MIFKUJ_clean_linker_0, # of connection points: 2
#     Edge 61, Type (0, 0), BuildingBlock: MIFKUJ_clean_linker_0, # of connection points: 2
#     Edge 62, Type (0, 0), BuildingBlock: MIFKUJ_clean_linker_0, # of connection points: 2
#     Edge 63, Type (0, 0), BuildingBlock: MIFKUJ_clean_linker_0, # of connection points: 2
#     Edge 64, Type (0, 0), BuildingBlock: MIFKUJ_clean_linker_0, # of connection points: 2
#     Edge 65, Type (0, 0), BuildingBlock: MIFKUJ_clean_linker_0, # of connection points: 2
#     Edge 66, Type (0, 0), BuildingBlock: MIFKUJ_clean_linker_0, # of connection points: 2
#     Edge 67, Type (0, 0), BuildingBlock: MIFKUJ_clean_linker_0, # of connection points: 2
#     Edge 68, Type (0, 0), BuildingBlock: MIFKUJ_clean_linker_0, # of connection points: 2
#     Edge 69, Type (0, 0), BuildingBlock: MIFKUJ_clean_linker_0, # of connection points: 2
#     Edge 70, Type (0, 0), BuildingBlock: MIFKUJ_clean_linker_0, # of connection points: 2
#     Edge 71, Type (0, 0), BuildingBlock: MIFKUJ_clean_linker_0, # of connection points: 2
# Relax obj value: 0.100
# Max RMSD: 0.122
# Mean RMSD: 0.122
data_MOF--net-cbo--node1-QUQFOY_clean_sbu_1--edge1-MIFKUJ_clean_linker_0
_symmetry_space_group_name_H-M    P1
_symmetry_Int_Tables_number       1
_symmetry_cell_setting            triclinic
loop_
_symmetry_equiv_pos_as_xyz
'x, y, z'
_cell_length_a     69.331474
_cell_length_b     69.342849
_cell_length_c     69.341283
_cell_angle_alpha  89.995055
_cell_angle_beta   89.986851
_cell_angle_gamma 90.018507
loop_
_atom_site_label
_atom_site_type_symbol
_atom_site_fract_x
_atom_site_fract_y
_atom_site_fract_z
_atom_type_partial_charge
O0 O 0.1239 0.21044 0.32281 0.0
Cd1 Cd 0.12496 0.18279 0.33379 0.0
Cd2 Cd 0.14653 0.20116 0.36035 0.0
O3 O 0.1392 0.22615 0.34581 0.0
O4 O 0.10499 0.16944 0.31798 0.0
O5 O 0.10259 0.17265 0.34956 0.0
C6 C 0.09512 0.16688 0.3335 0.0
C7 C 0.14114 0.19704 0.39329 0.0
C8 C 0.13022 0.22615 0.32983 0.0
C9 C 0.16678 0.17179 0.3359 0.0
O10 O 0.1685 0.18519 0.34828 0.0
O11 O 0.15027 0.16759 0.32906 0.0
O12 O 0.1549 0.20789 0.38698 0.0
O13 O 0.12991 0.18899 0.38077 0.0
O14 O 0.38021 0.80683 0.8203 0.0
Cd15 Cd 0.37837 0.83212 0.83581 0.0
Cd16 Cd 0.35942 0.80897 0.85987 0.0
O17 O 0.36903 0.78682 0.84231 0.0
O18 O 0.39771 0.84934 0.82318 0.0
O19 O 0.40092 0.83849 0.85298 0.0
C20 C 0.40801 0.84795 0.83859 0.0
C21 C 0.36607 0.81103 0.89272 0.0
C22 C 0.3764 0.78976 0.82578 0.0
C23 C 0.33613 0.83962 0.84048 0.0
O24 O 0.33572 0.82398 0.85004 0.0
O25 O 0.35217 0.84654 0.8348 0.0
O26 O 0.35357 0.79887 0.88618 0.0
O27 O 0.37536 0.82155 0.88045 0.0
O28 O 0.62164 0.30525 0.68378 0.0
Cd29 Cd 0.62278 0.33161 0.67008 0.0
Cd30 Cd 0.64441 0.31088 0.64566 0.0
O31 O 0.63657 0.28732 0.66219 0.0
O32 O 0.60194 0.34661 0.68304 0.0
O33 O 0.60098 0.33876 0.65218 0.0
C34 C 0.59268 0.34653 0.66693 0.0
C35 C 0.6406 0.31161 0.61226 0.0
C36 C 0.62767 0.28888 0.67815 0.0
C37 C 0.66445 0.34231 0.66785 0.0
O38 O 0.66616 0.32778 0.65681 0.0
O39 O 0.64788 0.34737 0.6739 0.0
O40 O 0.65417 0.30172 0.62027 0.0
O41 O 0.6286 0.32059 0.62336 0.0
O42 O 0.88018 0.70788 0.17936 0.0
Cd43 Cd 0.87859 0.67966 0.17047 0.0
Cd44 Cd 0.85537 0.69603 0.14349 0.0
O45 O 0.86091 0.72158 0.15811 0.0
O46 O 0.89925 0.66751 0.18633 0.0
O47 O 0.90018 0.66821 0.15451 0.0
C48 C 0.90838 0.66371 0.17062 0.0
C49 C 0.86059 0.69301 0.11038 0.0
C50 C 0.87179 0.72279 0.17283 0.0
C51 C 0.83713 0.66683 0.16971 0.0
O52 O 0.83485 0.67812 0.15546 0.0
O53 O 0.85353 0.66511 0.17775 0.0
O54 O 0.84599 0.70239 0.11711 0.0
O55 O 0.87269 0.68577 0.12257 0.0
O56 O 0.32043 0.12236 0.19976 0.0
Cd57 Cd 0.33391 0.12274 0.17316 0.0
Cd58 Cd 0.35874 0.14373 0.19427 0.0
O59 O 0.34263 0.13588 0.21805 0.0
O60 O 0.31867 0.1029 0.15899 0.0
O61 O 0.3498 0.09969 0.16487 0.0
C62 C 0.33402 0.09249 0.15806 0.0
C63 C 0.39211 0.13984 0.19254 0.0
C64 C 0.32626 0.12781 0.21627 0.0
C65 C 0.3366 0.16436 0.16313 0.0
O66 O 0.34709 0.16573 0.17809 0.0
O67 O 0.33097 0.14792 0.15725 0.0
O68 O 0.38441 0.15329 0.20285 0.0
O69 O 0.38073 0.12799 0.18372 0.0
O70 O 0.18063 0.88112 0.7072 0.0
Cd71 Cd 0.16781 0.87901 0.68047 0.0
Cd72 Cd 0.14184 0.85969 0.70159 0.0
O73 O 0.15807 0.8679 0.72527 0.0
O74 O 0.18329 0.89783 0.6652 0.0
O75 O 0.15216 0.9016 0.67074 0.0
C76 C 0.16803 0.90832 0.66369 0.0
C77 C 0.10933 0.86715 0.69774 0.0
C78 C 0.17438 0.87615 0.72369 0.0
C79 C 0.16356 0.83676 0.67215 0.0
O80 O 0.1521 0.8363 0.68646 0.0
O81 O 0.17058 0.85274 0.66644 0.0
O82 O 0.11486 0.85408 0.7098 0.0
O83 O 0.12242 0.87656 0.68834 0.0
O84 O 0.81873 0.38024 0.80606 0.0
Cd85 Cd 0.83361 0.37821 0.83167 0.0
Cd86 Cd 0.85854 0.35975 0.80887 0.0
O87 O 0.84091 0.3687 0.78644 0.0
O88 O 0.82066 0.39764 0.84851 0.0
O89 O 0.8509 0.40041 0.83884 0.0
C90 C 0.83628 0.4077 0.84779 0.0
C91 C 0.89132 0.36685 0.81094 0.0
C92 C 0.82436 0.37615 0.78911 0.0
C93 C 0.83882 0.33608 0.83923 0.0
O94 O 0.84922 0.33599 0.82413 0.0
O95 O 0.83213 0.35189 0.84575 0.0
O96 O 0.88496 0.35415 0.7989 0.0
O97 O 0.87889 0.37614 0.82128 0.0
O98 O 0.68146 0.6216 0.29969 0.0
Cd99 Cd 0.6714 0.62228 0.32772 0.0
Cd100 Cd 0.64497 0.64569 0.31077 0.0
O101 O 0.65997 0.64038 0.2856 0.0
O102 O 0.68718 0.60157 0.33987 0.0
O103 O 0.65546 0.59996 0.33772 0.0
C104 C 0.67154 0.59194 0.34263 0.0
C105 C 0.61178 0.64086 0.3135 0.0
C106 C 0.675 0.62994 0.28472 0.0
C107 C 0.67003 0.66369 0.34101 0.0
O108 O 0.65693 0.6662 0.32845 0.0
O109 O 0.67727 0.64702 0.34363 0.0
O110 O 0.61877 0.65524 0.30396 0.0
O111 O 0.62377 0.62871 0.32101 0.0
O112 O 0.19176 0.31415 0.12796 0.0
Cd113 Cd 0.16786 0.33165 0.12721 0.0
Cd114 Cd 0.1927 0.35654 0.1409 0.0
O115 O 0.2133 0.33741 0.13042 0.0
O116 O 0.14971 0.31991 0.10809 0.0
O117 O 0.16433 0.34793 0.10355 0.0
C118 C 0.15329 0.33443 0.097 0.0
C119 C 0.19147 0.3893 0.13328 0.0
C120 C 0.20924 0.31967 0.12802 0.0
C121 C 0.16295 0.34095 0.16827 0.0
O122 O 0.17942 0.34886 0.16652 0.0
O123 O 0.15404 0.33496 0.15338 0.0
O124 O 0.20454 0.38257 0.1447 0.0
O125 O 0.17964 0.37722 0.12544 0.0
O126 O 0.70455 0.18228 0.87822 0.0
Cd127 Cd 0.6777 0.1695 0.87749 0.0
Cd128 Cd 0.69754 0.144 0.85625 0.0
O129 O 0.72172 0.15958 0.86413 0.0
O130 O 0.66358 0.18452 0.89749 0.0
O131 O 0.6692 0.15329 0.90018 0.0
C132 C 0.66248 0.16899 0.90762 0.0
C133 C 0.6952 0.11077 0.86079 0.0
C134 C 0.72074 0.17584 0.87254 0.0
C135 C 0.66691 0.16678 0.83586 0.0
O136 O 0.68126 0.1555 0.8342 0.0
O137 O 0.66198 0.17306 0.85239 0.0
O138 O 0.70587 0.11803 0.84737 0.0
O139 O 0.68629 0.12253 0.8722 0.0
O140 O 0.80645 0.8193 0.37996 0.0
Cd141 Cd 0.83185 0.83447 0.37715 0.0
Cd142 Cd 0.80785 0.85866 0.35944 0.0
O143 O 0.78588 0.84113 0.36955 0.0
O144 O 0.84904 0.82045 0.39547 0.0
O145 O 0.84047 0.85083 0.39965 0.0
C146 C 0.84914 0.83567 0.40612 0.0
C147 C 0.81079 0.89131 0.36667 0.0
C148 C 0.78921 0.8246 0.37675 0.0
C149 C 0.83741 0.83928 0.33465 0.0
O150 O 0.82189 0.84904 0.33507 0.0
O151 O 0.84499 0.83334 0.35029 0.0
O152 O 0.79803 0.88525 0.35453 0.0
O153 O 0.8214 0.87866 0.37533 0.0
O154 O 0.30027 0.68553 0.62622 0.0
Cd155 Cd 0.3271 0.67266 0.62554 0.0
Cd156 Cd 0.30866 0.64686 0.64782 0.0
O157 O 0.28422 0.66281 0.64164 0.0
O158 O 0.34102 0.68661 0.60459 0.0
O159 O 0.3336 0.65566 0.60283 0.0
C160 C 0.34096 0.6708 0.59484 0.0
C161 C 0.30981 0.61348 0.64373 0.0
C162 C 0.28455 0.67904 0.63309 0.0
C163 C 0.34045 0.66966 0.66645 0.0
O164 O 0.32648 0.65804 0.66882 0.0
O165 O 0.34415 0.67633 0.64977 0.0
O166 O 0.30059 0.62123 0.65791 0.0
O167 O 0.31787 0.62481 0.63131 0.0
O168 O 0.88121 0.79919 0.68057 0.0
Cd169 Cd 0.879 0.82598 0.66792 0.0
Cd170 Cd 0.85968 0.80493 0.64179 0.0
O171 O 0.86792 0.78124 0.65798 0.0
O172 O 0.89789 0.84116 0.68339 0.0
O173 O 0.90138 0.83603 0.65215 0.0
C174 C 0.9082 0.84296 0.66804 0.0
C175 C 0.86645 0.8079 0.60901 0.0
C176 C 0.8762 0.78274 0.67426 0.0
C177 C 0.83672 0.8342 0.66386 0.0
O178 O 0.83632 0.82008 0.65217 0.0
O179 O 0.85268 0.83985 0.67099 0.0
O180 O 0.85343 0.79609 0.61518 0.0
O181 O 0.87615 0.81765 0.6216 0.0
O182 O 0.62509 0.19952 0.18404 0.0
Cd183 Cd 0.62614 0.1736 0.16947 0.0
Cd184 Cd 0.6452 0.19493 0.14404 0.0
O185 O 0.63606 0.21798 0.16061 0.0
O186 O 0.60618 0.15724 0.18225 0.0
O187 O 0.60368 0.16741 0.15212 0.0
C188 C 0.59618 0.15843 0.16662 0.0
C189 C 0.63956 0.19285 0.111 0.0
C190 C 0.62909 0.21617 0.17748 0.0
C191 C 0.66805 0.16482 0.16473 0.0
O192 O 0.66868 0.17996 0.15441 0.0
O193 O 0.65193 0.15856 0.17092 0.0
O194 O 0.65207 0.20477 0.11792 0.0
O195 O 0.62968 0.18251 0.12297 0.0
O196 O 0.3776 0.69957 0.31895 0.0
Cd197 Cd 0.37776 0.67277 0.33182 0.0
Cd198 Cd 0.35492 0.69126 0.35697 0.0
O199 O 0.36138 0.71569 0.34103 0.0
O200 O 0.39944 0.65915 0.31872 0.0
O201 O 0.39954 0.66592 0.34985 0.0
C202 C 0.40838 0.65892 0.33501 0.0
C203 C 0.35871 0.69022 0.3904 0.0
C204 C 0.37046 0.7153 0.32509 0.0
C205 C 0.33677 0.65955 0.33357 0.0
O206 O 0.33421 0.67332 0.34539 0.0
O207 O 0.35357 0.65593 0.32714 0.0
O208 O 0.34453 0.69932 0.38251 0.0
O209 O 0.37124 0.68217 0.37919 0.0
O210 O 0.12216 0.299 0.82254 0.0
Cd211 Cd 0.12353 0.32614 0.83458 0.0
Cd212 Cd 0.14451 0.30612 0.86057 0.0
O213 O 0.13751 0.28193 0.84451 0.0
O214 O 0.10374 0.34013 0.81913 0.0
O215 O 0.10112 0.33579 0.85057 0.0
C216 C 0.09373 0.34205 0.83465 0.0
C217 C 0.13874 0.30824 0.89367 0.0
C218 C 0.12843 0.28289 0.82861 0.0
C219 C 0.16536 0.33655 0.83764 0.0
O220 O 0.16658 0.32282 0.84973 0.0
O221 O 0.14909 0.3411 0.83046 0.0
O222 O 0.15274 0.29803 0.88688 0.0
O223 O 0.12748 0.3168 0.8815 0.0
O224 O 0.6841 0.87715 0.8 0.0
Cd225 Cd 0.67114 0.87699 0.82676 0.0
Cd226 Cd 0.64467 0.8567 0.80729 0.0
O227 O 0.66099 0.86328 0.78314 0.0
O228 O 0.68507 0.8975 0.84128 0.0
O229 O 0.6541 0.8994 0.83398 0.0
C230 C 0.66926 0.90726 0.84146 0.0
C231 C 0.61147 0.86203 0.80883 0.0
C232 C 0.67751 0.87123 0.78395 0.0
C233 C 0.66674 0.83578 0.83828 0.0
O234 O 0.65498 0.8346 0.82428 0.0
O235 O 0.67418 0.85196 0.84272 0.0
O236 O 0.61861 0.84801 0.79889 0.0
O237 O 0.62333 0.87364 0.81732 0.0
O238 O 0.82264 0.12129 0.29901 0.0
Cd239 Cd 0.83519 0.12308 0.32588 0.0
Cd240 Cd 0.86098 0.14365 0.30539 0.0
O241 O 0.8448 0.13587 0.28152 0.0
O242 O 0.82004 0.10353 0.34057 0.0
O243 O 0.85135 0.10076 0.33541 0.0
C244 C 0.83558 0.09349 0.34217 0.0
C245 C 0.89388 0.1374 0.30806 0.0
C246 C 0.82878 0.12704 0.28274 0.0
C247 C 0.83864 0.16517 0.33553 0.0
O248 O 0.85039 0.16628 0.32148 0.0
O249 O 0.83163 0.14893 0.34048 0.0
O250 O 0.88746 0.15068 0.29671 0.0
O251 O 0.88148 0.12712 0.31747 0.0
O252 O 0.1832 0.62158 0.19346 0.0
Cd253 Cd 0.16768 0.62263 0.16812 0.0
Cd254 Cd 0.14332 0.64119 0.19139 0.0
O255 O 0.16125 0.63252 0.21364 0.0
O256 O 0.18185 0.60369 0.15175 0.0
O257 O 0.1516 0.59945 0.1608 0.0
C258 C 0.16677 0.59284 0.15223 0.0
C259 C 0.11047 0.63433 0.19015 0.0
C260 C 0.17794 0.62557 0.21055 0.0
C261 C 0.16198 0.66458 0.16021 0.0
O262 O 0.15245 0.66485 0.17587 0.0
O263 O 0.16814 0.64867 0.15343 0.0
O264 O 0.11723 0.64713 0.20186 0.0
O265 O 0.12256 0.62479 0.17964 0.0
O266 O 0.31653 0.37872 0.69909 0.0
Cd267 Cd 0.3304 0.37851 0.67282 0.0
Cd268 Cd 0.35656 0.35899 0.69313 0.0
O269 O 0.33987 0.36639 0.71681 0.0
O270 O 0.31723 0.39897 0.65748 0.0
O271 O 0.34771 0.401 0.66666 0.0
C272 C 0.33298 0.40882 0.65836 0.0
C273 C 0.38964 0.36492 0.69121 0.0
C274 C 0.32307 0.37366 0.71545 0.0
C275 C 0.33542 0.33715 0.66223 0.0
O276 O 0.34658 0.33628 0.67675 0.0
O277 O 0.32829 0.35325 0.65706 0.0
O278 O 0.38282 0.35138 0.70202 0.0
O279 O 0.3775 0.37574 0.68209 0.0
O280 O 0.80421 0.68409 0.87852 0.0
Cd281 Cd 0.83004 0.66941 0.87754 0.0
Cd282 Cd 0.80869 0.64438 0.85798 0.0
O283 O 0.78561 0.66115 0.86678 0.0
O284 O 0.84641 0.6819 0.89766 0.0
O285 O 0.83599 0.65183 0.89988 0.0
C286 C 0.84511 0.66618 0.90749 0.0
C287 C 0.81042 0.61126 0.86355 0.0
C288 C 0.78754 0.67786 0.8741 0.0
C289 C 0.83931 0.66521 0.83572 0.0
O290 O 0.82427 0.65475 0.83486 0.0
O291 O 0.84531 0.67135 0.85194 0.0
O292 O 0.79917 0.61831 0.8505 0.0
O293 O 0.82022 0.62318 0.87401 0.0
O294 O 0.29662 0.81915 0.1219 0.0
Cd295 Cd 0.32341 0.83179 0.12437 0.0
Cd296 Cd 0.30228 0.85779 0.14372 0.0
O297 O 0.27861 0.84165 0.13528 0.0
O298 O 0.33871 0.81678 0.10518 0.0
O299 O 0.33334 0.84804 0.10232 0.0
C300 C 0.34037 0.83235 0.09518 0.0
C301 C 0.30585 0.89044 0.13666 0.0
C302 C 0.28014 0.82543 0.12686 0.0
C303 C 0.33154 0.83575 0.16669 0.0
O304 O 0.31736 0.84738 0.16709 0.0
O305 O 0.33723 0.82866 0.15073 0.0
O306 O 0.29385 0.88462 0.14967 0.0
O307 O 0.31539 0.87758 0.12712 0.0
O308 O 0.20005 0.18397 0.62373 0.0
Cd309 Cd 0.17401 0.16967 0.6252 0.0
Cd310 Cd 0.19551 0.14422 0.64408 0.0
O311 O 0.21861 0.16073 0.63487 0.0
O312 O 0.15789 0.1827 0.60523 0.0
O313 O 0.16694 0.15221 0.60309 0.0
C314 C 0.15842 0.16691 0.59544 0.0
C315 C 0.19332 0.11116 0.63845 0.0
C316 C 0.21673 0.17752 0.62773 0.0
C317 C 0.16568 0.1652 0.66721 0.0
O318 O 0.18067 0.15465 0.66765 0.0
O319 O 0.15934 0.17152 0.65117 0.0
O320 O 0.2053 0.11807 0.65091 0.0
O321 O 0.18298 0.12314 0.62862 0.0
O322 O 0.70015 0.31564 0.37804 0.0
Cd323 Cd 0.67421 0.3301 0.37767 0.0
Cd324 Cd 0.69513 0.35608 0.35868 0.0
O325 O 0.71839 0.33908 0.36672 0.0
O326 O 0.6582 0.3173 0.39789 0.0
O327 O 0.66831 0.34747 0.40014 0.0
C328 C 0.65943 0.33299 0.40779 0.0
C329 C 0.69321 0.38897 0.36545 0.0
C330 C 0.7167 0.32214 0.37358 0.0
C331 C 0.66436 0.33566 0.33615 0.0
O332 O 0.67919 0.34645 0.33546 0.0
O333 O 0.65878 0.32869 0.35218 0.0
O334 O 0.70468 0.38248 0.35229 0.0
O335 O 0.6833 0.37663 0.37531 0.0
H336 H 0.13106 0.31959 0.17771 0.0
H337 H 0.12234 0.30735 0.20952 0.0
H338 H 0.16903 0.33966 0.23495 0.0
H339 H 0.17808 0.35172 0.20311 0.0
H340 H 0.17116 0.30331 0.24516 0.0
H341 H 0.1213 0.3503 0.2453 0.0
H342 H 0.09375 0.36881 0.23258 0.0
H343 H 0.05991 0.31703 0.22954 0.0
H344 H 0.08735 0.29814 0.24197 0.0
H345 H 0.14964 0.2603 0.33485 0.0
H346 H 0.15183 0.287 0.31182 0.0
H347 H 0.11047 0.25872 0.27497 0.0
H348 H 0.10807 0.23215 0.29788 0.0
H349 H 0.10602 0.29815 0.27435 0.0
H350 H 0.15755 0.25117 0.26828 0.0
H351 H 0.18505 0.2321 0.2803 0.0
H352 H 0.2157 0.2842 0.29381 0.0
H353 H 0.18821 0.30359 0.28215 0.0
C354 C 0.13922 0.32447 0.19011 0.0
C355 C 0.15539 0.33651 0.1878 0.0
C356 C 0.13415 0.31751 0.20834 0.0
C357 C 0.145 0.3226 0.22468 0.0
C358 C 0.16047 0.33549 0.22256 0.0
C359 C 0.1656 0.34241 0.20432 0.0
C360 C 0.14158 0.31275 0.24343 0.0
C361 C 0.157 0.30264 0.2518 0.0
C362 C 0.12304 0.31148 0.25192 0.0
C363 C 0.10645 0.32278 0.24446 0.0
C364 C 0.10804 0.34282 0.24178 0.0
C365 C 0.09242 0.35339 0.23465 0.0
C366 C 0.0751 0.3441 0.23022 0.0
C367 C 0.07334 0.32421 0.23297 0.0
C368 C 0.08891 0.31357 0.24009 0.0
C369 C 0.14065 0.26 0.32208 0.0
C370 C 0.12889 0.24396 0.31807 0.0
C371 C 0.14197 0.27524 0.30891 0.0
C372 C 0.13154 0.27469 0.29154 0.0
C373 C 0.11868 0.25943 0.28825 0.0
C374 C 0.11741 0.24419 0.30134 0.0
C375 C 0.13553 0.28864 0.27579 0.0
C376 C 0.12024 0.29933 0.26793 0.0
C377 C 0.15418 0.29045 0.26768 0.0
C378 C 0.17074 0.27881 0.27458 0.0
C379 C 0.17009 0.25855 0.27396 0.0
C380 C 0.18569 0.24769 0.28068 0.0
C381 C 0.20209 0.25693 0.28786 0.0
C382 C 0.20296 0.27706 0.28829 0.0
C383 C 0.18738 0.28799 0.28163 0.0
H384 H 0.21415 0.24849 0.29305 0.0
H385 H 0.06303 0.3523 0.2247 0.0
H386 H 0.39774 0.78981 0.79277 0.0
H387 H 0.3977 0.76561 0.76726 0.0
H388 H 0.36051 0.72932 0.80147 0.0
H389 H 0.36076 0.75341 0.82734 0.0
H390 H 0.38649 0.70788 0.77981 0.0
H391 H 0.34053 0.75853 0.76952 0.0
H392 H 0.32953 0.79219 0.76679 0.0
H393 H 0.36863 0.80149 0.71964 0.0
H394 H 0.38003 0.76787 0.72227 0.0
H395 H 0.33477 0.66018 0.70436 0.0
H396 H 0.34733 0.67698 0.73258 0.0
H397 H 0.38203 0.71321 0.69577 0.0
H398 H 0.3693 0.69668 0.66738 0.0
H399 H 0.35964 0.73405 0.71886 0.0
H400 H 0.40263 0.68072 0.72742 0.0
H401 H 0.41167 0.64648 0.73052 0.0
H402 H 0.37616 0.6413 0.78099 0.0
H403 H 0.36668 0.67546 0.77805 0.0
C404 C 0.38983 0.77654 0.79506 0.0
C405 C 0.37899 0.77367 0.81197 0.0
C406 C 0.38983 0.76271 0.78045 0.0
C407 C 0.37879 0.74585 0.78231 0.0
C408 C 0.36908 0.74226 0.79972 0.0
C409 C 0.3692 0.75607 0.81447 0.0
C410 C 0.37573 0.73315 0.76534 0.0
C411 C 0.38052 0.71351 0.7665 0.0
C412 C 0.36812 0.74057 0.74792 0.0
C413 C 0.36127 0.76077 0.74623 0.0
C414 C 0.34688 0.7678 0.75867 0.0
C415 C 0.34056 0.78687 0.75712 0.0
C416 C 0.34842 0.79901 0.74308 0.0
C417 C 0.36258 0.79208 0.73053 0.0
C418 C 0.36897 0.77301 0.73203 0.0
C419 C 0.3454 0.67144 0.70224 0.0
C420 C 0.35085 0.67722 0.68355 0.0
C421 C 0.35266 0.68097 0.71845 0.0
C422 C 0.36564 0.69636 0.71632 0.0
C423 C 0.37199 0.70139 0.69775 0.0
C424 C 0.36472 0.69189 0.68153 0.0
C425 C 0.37061 0.7087 0.73311 0.0
C426 C 0.36595 0.72836 0.732 0.0
C427 C 0.3781 0.70117 0.75056 0.0
C428 C 0.38383 0.68063 0.75241 0.0
C429 C 0.39663 0.67225 0.73909 0.0
C430 C 0.40185 0.65286 0.74084 0.0
C431 C 0.39446 0.64171 0.75592 0.0
C432 C 0.38186 0.64995 0.76931 0.0
C433 C 0.37658 0.66934 0.76762 0.0
H434 H 0.39852 0.6267 0.75724 0.0
H435 H 0.3435 0.81377 0.74188 0.0
H436 H 0.64608 0.25387 0.67593 0.0
H437 H 0.64743 0.22902 0.70099 0.0
H438 H 0.60684 0.26133 0.73532 0.0
H439 H 0.60559 0.28625 0.71056 0.0
H440 H 0.63906 0.25375 0.75492 0.0
H441 H 0.59486 0.21759 0.71574 0.0
H442 H 0.58322 0.20203 0.68596 0.0
H443 H 0.63311 0.16537 0.6852 0.0
H444 H 0.6452 0.18089 0.71484 0.0
H445 H 0.63601 0.19132 0.83366 0.0
H446 H 0.6241 0.20798 0.805 0.0
H447 H 0.66459 0.17663 0.7697 0.0
H448 H 0.67635 0.15962 0.7982 0.0
H449 H 0.63091 0.18281 0.75037 0.0
H450 H 0.67664 0.22009 0.7866 0.0
H451 H 0.69001 0.23568 0.81564 0.0
H452 H 0.63909 0.27056 0.82073 0.0
H453 H 0.62529 0.25496 0.79186 0.0
C454 C 0.6371 0.25546 0.68861 0.0
C455 C 0.6259 0.27215 0.69134 0.0
C456 C 0.63785 0.24121 0.70291 0.0
C457 C 0.62727 0.24335 0.72007 0.0
C458 C 0.6152 0.25943 0.72225 0.0
C459 C 0.6145 0.27367 0.70806 0.0
C460 C 0.63041 0.23016 0.73663 0.0
C461 C 0.63687 0.23828 0.75401 0.0
C462 C 0.62827 0.2099 0.73524 0.0
C463 C 0.62102 0.20054 0.71742 0.0
C464 C 0.60344 0.20632 0.70913 0.0
C465 C 0.59674 0.19748 0.6923 0.0
C466 C 0.60744 0.18275 0.68367 0.0
C467 C 0.62484 0.1768 0.69189 0.0
C468 C 0.63162 0.1856 0.70872 0.0
C469 C 0.64213 0.18766 0.81977 0.0
C470 C 0.65736 0.17435 0.81829 0.0
C471 C 0.63532 0.19722 0.80339 0.0
C472 C 0.64374 0.19382 0.78528 0.0
C473 C 0.65794 0.17953 0.78354 0.0
C474 C 0.6647 0.16987 0.79989 0.0
C475 C 0.63921 0.20651 0.76865 0.0
C476 C 0.63276 0.19832 0.75128 0.0
C477 C 0.64156 0.22675 0.76989 0.0
C478 C 0.64984 0.2362 0.78721 0.0
C479 C 0.66823 0.23098 0.79401 0.0
C480 C 0.67589 0.23983 0.81042 0.0
C481 C 0.66538 0.25406 0.82006 0.0
C482 C 0.6472 0.2595 0.81327 0.0
C483 C 0.63945 0.25067 0.79689 0.0
H484 H 0.67134 0.2609 0.83276 0.0
H485 H 0.60222 0.17593 0.67064 0.0
H486 H 0.89917 0.73249 0.19919 0.0
H487 H 0.89714 0.75788 0.22341 0.0
H488 H 0.84487 0.77901 0.19721 0.0
H489 H 0.84688 0.7536 0.17265 0.0
H490 H 0.86888 0.80883 0.21408 0.0
H491 H 0.83934 0.74823 0.23074 0.0
H492 H 0.83844 0.71285 0.23426 0.0
H493 H 0.88567 0.71534 0.27424 0.0
H494 H 0.88705 0.75074 0.2707 0.0
H495 H 0.82274 0.84613 0.29864 0.0
H496 H 0.83279 0.8314 0.26833 0.0
H497 H 0.88017 0.80351 0.29744 0.0
H498 H 0.86996 0.81788 0.32795 0.0
H499 H 0.85957 0.77821 0.27812 0.0
H500 H 0.88717 0.83979 0.26337 0.0
H501 H 0.88761 0.87513 0.25949 0.0
H502 H 0.84345 0.87127 0.21626 0.0
H503 H 0.84255 0.83591 0.22007 0.0
C504 C 0.8875 0.74283 0.19822 0.0
C505 C 0.87299 0.74083 0.18419 0.0
C506 C 0.88639 0.75736 0.21208 0.0
C507 C 0.87066 0.77007 0.21231 0.0
C508 C 0.8571 0.76929 0.19729 0.0
C509 C 0.85826 0.75476 0.18328 0.0
C510 C 0.86704 0.78205 0.22965 0.0
C511 C 0.86668 0.80221 0.22809 0.0
C512 C 0.86441 0.77335 0.24792 0.0
C513 C 0.86343 0.7521 0.2503 0.0
C514 C 0.84963 0.74121 0.24017 0.0
C515 C 0.84902 0.72117 0.24218 0.0
C516 C 0.86202 0.71185 0.25443 0.0
C517 C 0.87563 0.72258 0.26474 0.0
C518 C 0.87632 0.74263 0.26274 0.0
C519 C 0.83554 0.83717 0.29857 0.0
C520 C 0.84544 0.83305 0.31581 0.0
C521 C 0.84133 0.82883 0.28115 0.0
C522 C 0.85727 0.81637 0.28055 0.0
C523 C 0.86778 0.81305 0.29755 0.0
C524 C 0.86195 0.82131 0.315 0.0
C525 C 0.86168 0.80518 0.2628 0.0
C526 C 0.86199 0.785 0.26423 0.0
C527 C 0.86414 0.81394 0.24448 0.0
C528 C 0.86467 0.8352 0.24213 0.0
C529 C 0.87743 0.84648 0.25315 0.0
C530 C 0.87779 0.86652 0.25094 0.0
C531 C 0.86553 0.87544 0.23767 0.0
C532 C 0.85293 0.86434 0.22655 0.0
C533 C 0.8525 0.84429 0.22871 0.0
H534 H 0.86583 0.89096 0.23598 0.0
H535 H 0.86153 0.69632 0.25597 0.0
H536 H 0.3289 0.14598 0.25141 0.0
H537 H 0.30338 0.14888 0.27569 0.0
H538 H 0.26745 0.11034 0.24263 0.0
H539 H 0.29268 0.10749 0.21833 0.0
H540 H 0.24977 0.1441 0.24971 0.0
H541 H 0.2853 0.09721 0.28658 0.0
H542 H 0.31397 0.08392 0.30288 0.0
H543 H 0.31634 0.13349 0.3399 0.0
H544 H 0.28783 0.14723 0.32364 0.0
H545 H 0.16887 0.14244 0.30952 0.0
H546 H 0.19764 0.13057 0.29303 0.0
H547 H 0.23316 0.16841 0.32732 0.0
H548 H 0.20451 0.18011 0.34417 0.0
H549 H 0.25153 0.13449 0.32059 0.0
H550 H 0.21879 0.18259 0.28347 0.0
H551 H 0.19107 0.19785 0.26725 0.0
H552 H 0.18489 0.14836 0.23055 0.0
H553 H 0.21243 0.13268 0.24675 0.0
C554 C 0.31576 0.13775 0.24956 0.0
C555 C 0.31275 0.12668 0.23282 0.0
C556 C 0.30118 0.1394 0.26347 0.0
C557 C 0.28346 0.12989 0.26092 0.0
C558 C 0.28095 0.11789 0.24484 0.0
C559 C 0.29543 0.11628 0.23096 0.0
C560 C 0.26677 0.13405 0.2737 0.0
C561 C 0.25006 0.14163 0.26517 0.0
C562 C 0.26741 0.13159 0.29395 0.0
C563 C 0.28453 0.12333 0.30376 0.0
C564 C 0.29203 0.10536 0.29808 0.0
C565 C 0.30823 0.09773 0.30734 0.0
C566 C 0.317 0.10788 0.32238 0.0
C567 C 0.30955 0.12566 0.32823 0.0
C568 C 0.29336 0.13337 0.31901 0.0
C569 C 0.18281 0.14801 0.31381 0.0
C570 C 0.18432 0.16243 0.32799 0.0
C571 C 0.19926 0.14123 0.30434 0.0
C572 C 0.21751 0.14888 0.30869 0.0
C573 C 0.21923 0.16235 0.32368 0.0
C574 C 0.20279 0.16907 0.33325 0.0
C575 C 0.23447 0.14413 0.29648 0.0
C576 C 0.25123 0.1367 0.3051 0.0
C577 C 0.23406 0.14698 0.27628 0.0
C578 C 0.21753 0.15638 0.26646 0.0
C579 C 0.21142 0.1749 0.27204 0.0
C580 C 0.19576 0.18364 0.26284 0.0
C581 C 0.18619 0.17406 0.24792 0.0
C582 C 0.19229 0.15575 0.24213 0.0
C583 C 0.20793 0.14693 0.25131 0.0
H584 H 0.17406 0.18085 0.24081 0.0
H585 H 0.32954 0.10194 0.32953 0.0
H586 H 0.29943 0.8261 0.84596 0.0
H587 H 0.26997 0.83753 0.83045 0.0
H588 H 0.3015 0.8848 0.80512 0.0
H589 H 0.33117 0.87323 0.82022 0.0
H590 H 0.24772 0.86975 0.82873 0.0
H591 H 0.28736 0.88951 0.75828 0.0
H592 H 0.31763 0.88167 0.74127 0.0
H593 H 0.31918 0.82633 0.76897 0.0
H594 H 0.28874 0.83363 0.78578 0.0
H595 H 0.20451 0.90097 0.72767 0.0
H596 H 0.22954 0.90035 0.75238 0.0
H597 H 0.19933 0.85465 0.78194 0.0
H598 H 0.17389 0.85561 0.75748 0.0
H599 H 0.25239 0.87119 0.75737 0.0
H600 H 0.21394 0.85211 0.82911 0.0
H601 H 0.18346 0.85925 0.84601 0.0
H602 H 0.17863 0.91281 0.81531 0.0
H603 H 0.2092 0.90612 0.79842 0.0
C604 C 0.30008 0.83913 0.83737 0.0
C605 C 0.31777 0.84856 0.83407 0.0
C606 C 0.28316 0.84569 0.82857 0.0
C607 C 0.28359 0.86179 0.81633 0.0
C608 C 0.3009 0.87212 0.81424 0.0
C609 C 0.31786 0.86551 0.82292 0.0
C610 C 0.26653 0.86648 0.80424 0.0
C611 C 0.24866 0.87001 0.81312 0.0
C612 C 0.26783 0.86702 0.78388 0.0
C613 C 0.28591 0.86224 0.77347 0.0
C614 C 0.29412 0.87563 0.76065 0.0
C615 C 0.3113 0.87126 0.75103 0.0
C616 C 0.32036 0.85352 0.75406 0.0
C617 C 0.31218 0.84006 0.76663 0.0
C618 C 0.29496 0.8443 0.77621 0.0
C619 C 0.20294 0.89111 0.7397 0.0
C620 C 0.1873 0.87824 0.74056 0.0
C621 C 0.21729 0.89075 0.7538 0.0
C622 C 0.21641 0.87742 0.76902 0.0
C623 C 0.20024 0.86527 0.77052 0.0
C624 C 0.1857 0.86579 0.75649 0.0
C625 C 0.23345 0.87474 0.78178 0.0
C626 C 0.25138 0.87133 0.77299 0.0
C627 C 0.2321 0.87424 0.80216 0.0
C628 C 0.21378 0.87851 0.81236 0.0
C629 C 0.20641 0.86544 0.82602 0.0
C630 C 0.18911 0.86941 0.83559 0.0
C631 C 0.17908 0.88644 0.83169 0.0
C632 C 0.18637 0.89958 0.81826 0.0
C633 C 0.20367 0.89569 0.80866 0.0
H634 H 0.16569 0.88948 0.83911 0.0
H635 H 0.33369 0.85021 0.74666 0.0
H636 H 0.82602 0.35987 0.75302 0.0
H637 H 0.80037 0.35951 0.72873 0.0
H638 H 0.76606 0.39729 0.76431 0.0
H639 H 0.79138 0.39747 0.78869 0.0
H640 H 0.74649 0.36594 0.75491 0.0
H641 H 0.78516 0.41217 0.72069 0.0
H642 H 0.81472 0.42469 0.70537 0.0
H643 H 0.81497 0.37688 0.66601 0.0
H644 H 0.78554 0.36393 0.68127 0.0
H645 H 0.66681 0.37212 0.69374 0.0
H646 H 0.69565 0.38334 0.71062 0.0
H647 H 0.73072 0.34471 0.67679 0.0
H648 H 0.70207 0.33365 0.65959 0.0
H649 H 0.75003 0.37809 0.68449 0.0
H650 H 0.71432 0.3303 0.71975 0.0
H651 H 0.68547 0.31611 0.73497 0.0
H652 H 0.68081 0.36512 0.77253 0.0
H653 H 0.70951 0.37973 0.75733 0.0
C654 C 0.8132 0.36845 0.75546 0.0
C655 C 0.81066 0.37853 0.77288 0.0
C656 C 0.79855 0.36827 0.74154 0.0
C657 C 0.78125 0.37836 0.74471 0.0
C658 C 0.77922 0.38932 0.76159 0.0
C659 C 0.79374 0.3894 0.77552 0.0
C660 C 0.76448 0.3759 0.73159 0.0
C661 C 0.7472 0.369 0.73958 0.0
C662 C 0.76556 0.3792 0.71147 0.0
C663 C 0.78323 0.38699 0.70224 0.0
C664 C 0.7916 0.40424 0.70887 0.0
C665 C 0.80831 0.41143 0.70018 0.0
C666 C 0.81674 0.40156 0.68476 0.0
C667 C 0.80844 0.3845 0.67797 0.0
C668 C 0.79173 0.37724 0.68662 0.0
C669 C 0.68069 0.36631 0.68957 0.0
C670 C 0.68206 0.35175 0.67551 0.0
C671 C 0.69717 0.37271 0.69928 0.0
C672 C 0.71528 0.36456 0.69523 0.0
C673 C 0.7169 0.35113 0.68021 0.0
C674 C 0.70045 0.34477 0.67044 0.0
C675 C 0.73207 0.36847 0.70794 0.0
C676 C 0.74933 0.37537 0.69988 0.0
C677 C 0.73112 0.36499 0.72803 0.0
C678 C 0.71392 0.35621 0.73726 0.0
C679 C 0.70705 0.33812 0.73115 0.0
C680 C 0.69074 0.32999 0.73979 0.0
C681 C 0.68128 0.33974 0.75467 0.0
C682 C 0.68814 0.35761 0.76098 0.0
C683 C 0.70442 0.36582 0.75236 0.0
H684 H 0.66866 0.33342 0.76135 0.0
H685 H 0.82968 0.40716 0.67805 0.0
H686 H 0.83045 0.6597 0.20759 0.0
H687 H 0.80065 0.64838 0.2223 0.0
H688 H 0.77558 0.64059 0.1658 0.0
H689 H 0.80505 0.65344 0.15112 0.0
H690 H 0.75019 0.65506 0.18555 0.0
H691 H 0.78931 0.6011 0.19783 0.0
H692 H 0.81795 0.5826 0.20789 0.0
H693 H 0.81111 0.60292 0.26598 0.0
H694 H 0.78257 0.62177 0.25623 0.0
H695 H 0.69328 0.59901 0.26892 0.0
H696 H 0.71733 0.59946 0.24308 0.0
H697 H 0.7092 0.66095 0.23699 0.0
H698 H 0.68406 0.66006 0.26152 0.0
H699 H 0.74935 0.61283 0.2432 0.0
H700 H 0.72574 0.67984 0.19708 0.0
H701 H 0.69586 0.69336 0.18336 0.0
H702 H 0.66899 0.63762 0.18601 0.0
H703 H 0.69879 0.62369 0.1995 0.0
C704 C 0.8187 0.65526 0.1983 0.0
C705 C 0.82009 0.6573 0.17822 0.0
C706 C 0.80163 0.64865 0.20673 0.0
C707 C 0.78582 0.64319 0.19523 0.0
C708 C 0.78747 0.6447 0.17506 0.0
C709 C 0.80436 0.65191 0.16665 0.0
C710 C 0.76728 0.63719 0.2044 0.0
C711 C 0.74999 0.64564 0.19803 0.0
C712 C 0.7667 0.6243 0.22024 0.0
C713 C 0.78383 0.61293 0.22626 0.0
C714 C 0.79397 0.60172 0.21273 0.0
C715 C 0.81018 0.59116 0.21838 0.0
C716 C 0.81636 0.59161 0.23755 0.0
C717 C 0.8063 0.60259 0.25113 0.0
C718 C 0.79008 0.61318 0.24556 0.0
C719 C 0.69621 0.61244 0.2615 0.0
C720 C 0.68674 0.62945 0.26701 0.0
C721 C 0.71007 0.61277 0.24685 0.0
C722 C 0.7152 0.63023 0.23786 0.0
C723 C 0.70524 0.64714 0.24309 0.0
C724 C 0.69089 0.64667 0.25724 0.0
C725 C 0.7323 0.63122 0.22477 0.0
C726 C 0.74938 0.62188 0.23045 0.0
C727 C 0.73244 0.64247 0.2077 0.0
C728 C 0.7145 0.65074 0.19943 0.0
C729 C 0.71351 0.67043 0.19464 0.0
C730 C 0.69656 0.67818 0.18692 0.0
C731 C 0.68053 0.66637 0.18385 0.0
C732 C 0.68141 0.64677 0.18845 0.0
C733 C 0.69831 0.63895 0.19616 0.0
H734 H 0.66742 0.67239 0.17789 0.0
H735 H 0.82892 0.58343 0.24189 0.0
H736 H 0.33275 0.19944 0.18004 0.0
H737 H 0.31493 0.2271 0.16808 0.0
H738 H 0.3058 0.19791 0.11382 0.0
H739 H 0.32257 0.16945 0.1264 0.0
H740 H 0.3153 0.25263 0.14303 0.0
H741 H 0.26303 0.20957 0.09481 0.0
H742 H 0.25001 0.17658 0.09152 0.0
H743 H 0.25896 0.1667 0.152 0.0
H744 H 0.27182 0.19968 0.15566 0.0
H745 H 0.24575 0.32282 0.1127 0.0
H746 H 0.27084 0.29779 0.11207 0.0
H747 H 0.23261 0.2591 0.14251 0.0
H748 H 0.2074 0.28335 0.14184 0.0
H749 H 0.24942 0.23918 0.11874 0.0
H750 H 0.27239 0.28711 0.16396 0.0
H751 H 0.28293 0.31948 0.17435 0.0
H752 H 0.32817 0.31867 0.13204 0.0
H753 H 0.31774 0.28637 0.12127 0.0
C754 C 0.32718 0.19896 0.16545 0.0
C755 C 0.32883 0.18214 0.15426 0.0
C756 C 0.31702 0.21489 0.15856 0.0
C757 C 0.30857 0.21456 0.14016 0.0
C758 C 0.31163 0.19836 0.1283 0.0
C759 C 0.32133 0.18213 0.13543 0.0
C760 C 0.29528 0.23046 0.13436 0.0
C761 C 0.30092 0.24967 0.1376 0.0
C762 C 0.2764 0.22676 0.12746 0.0
C763 C 0.26862 0.20696 0.12542 0.0
C764 C 0.26219 0.20035 0.10739 0.0
C765 C 0.25484 0.18166 0.10547 0.0
C766 C 0.25374 0.16953 0.12153 0.0
C767 C 0.25989 0.17608 0.13956 0.0
C768 C 0.26722 0.19476 0.14156 0.0
C769 C 0.24277 0.30888 0.11908 0.0
C770 C 0.22463 0.30497 0.12723 0.0
C771 C 0.25713 0.29461 0.11885 0.0
C772 C 0.2538 0.27649 0.12743 0.0
C773 C 0.23561 0.27277 0.13557 0.0
C774 C 0.22117 0.28672 0.13526 0.0
C775 C 0.26902 0.26131 0.12844 0.0
C776 C 0.26385 0.24222 0.12397 0.0
C777 C 0.28792 0.26504 0.13528 0.0
C778 C 0.29413 0.28447 0.14164 0.0
C779 C 0.28449 0.29392 0.15678 0.0
C780 C 0.29046 0.31223 0.16275 0.0
C781 C 0.30616 0.32115 0.15381 0.0
C782 C 0.31597 0.31176 0.13891 0.0
C783 C 0.31004 0.29346 0.13287 0.0
H784 H 0.31077 0.33533 0.15845 0.0
H785 H 0.24806 0.15507 0.12001 0.0
H786 H 0.85227 0.29994 0.83082 0.0
H787 H 0.83846 0.26915 0.84096 0.0
H788 H 0.79742 0.29919 0.87677 0.0
H789 H 0.81138 0.33004 0.86703 0.0
H790 H 0.80863 0.26568 0.89352 0.0
H791 H 0.78603 0.28632 0.83075 0.0
H792 H 0.78998 0.29652 0.79689 0.0
H793 H 0.8186 0.24318 0.78384 0.0
H794 H 0.81504 0.23278 0.81771 0.0
H795 H 0.72385 0.20987 0.89201 0.0
H796 H 0.75017 0.23302 0.89059 0.0
H797 H 0.78315 0.19374 0.85538 0.0
H798 H 0.75656 0.17046 0.85644 0.0
H799 H 0.78106 0.22828 0.8391 0.0
H800 H 0.79789 0.2055 0.90154 0.0
H801 H 0.79228 0.19566 0.93524 0.0
H802 H 0.77323 0.25291 0.94914 0.0
H803 H 0.77847 0.26304 0.91545 0.0
C804 C 0.84055 0.30001 0.84115 0.0
C805 C 0.83275 0.31749 0.8479 0.0
C806 C 0.83265 0.28238 0.8469 0.0
C807 C 0.81665 0.28188 0.85931 0.0
C808 C 0.80972 0.29922 0.86712 0.0
C809 C 0.8177 0.31687 0.86149 0.0
C810 C 0.80595 0.26362 0.86267 0.0
C811 C 0.80256 0.25749 0.88166 0.0
C812 C 0.79841 0.25268 0.84715 0.0
C813 C 0.80048 0.25889 0.82679 0.0
C814 C 0.79329 0.27684 0.82068 0.0
C815 C 0.79544 0.28264 0.80149 0.0
C816 C 0.80459 0.27053 0.78824 0.0
C817 C 0.81156 0.25257 0.79413 0.0
C818 C 0.80948 0.24671 0.81332 0.0
C819 C 0.73682 0.20594 0.88423 0.0
C820 C 0.73802 0.18834 0.87421 0.0
C821 C 0.75196 0.21918 0.88356 0.0
C822 C 0.76873 0.2151 0.87299 0.0
C823 C 0.77036 0.19718 0.86366 0.0
C824 C 0.75517 0.18387 0.86434 0.0
C825 C 0.78343 0.23041 0.87001 0.0
C826 C 0.7875 0.23611 0.85103 0.0
C827 C 0.79146 0.24096 0.88555 0.0
C828 C 0.78849 0.235 0.90591 0.0
C829 C 0.7924 0.21597 0.91175 0.0
C830 C 0.7893 0.21034 0.93086 0.0
C831 C 0.78237 0.22364 0.94431 0.0
C832 C 0.7786 0.24262 0.9387 0.0
C833 C 0.78167 0.24833 0.9196 0.0
H834 H 0.77996 0.21925 0.9591 0.0
H835 H 0.80624 0.27505 0.77339 0.0
H836 H 0.7522 0.82587 0.36263 0.0
H837 H 0.72864 0.79952 0.3626 0.0
H838 H 0.76713 0.76501 0.3972 0.0
H839 H 0.79072 0.79107 0.39713 0.0
H840 H 0.75685 0.74672 0.36485 0.0
H841 H 0.72418 0.78132 0.4152 0.0
H842 H 0.70864 0.80952 0.43027 0.0
H843 H 0.66643 0.81088 0.38499 0.0
H844 H 0.68188 0.78284 0.36949 0.0
H845 H 0.69864 0.66448 0.36835 0.0
H846 H 0.71565 0.69287 0.38053 0.0
H847 H 0.67771 0.72979 0.34788 0.0
H848 H 0.66033 0.7016 0.33605 0.0
H849 H 0.68721 0.74677 0.38128 0.0
H850 H 0.72069 0.71569 0.32923 0.0
H851 H 0.73603 0.68851 0.31218 0.0
H852 H 0.77667 0.68202 0.35845 0.0
H853 H 0.76139 0.70902 0.3759 0.0
C854 C 0.75543 0.81285 0.37062 0.0
C855 C 0.77343 0.81048 0.37968 0.0
C856 C 0.74194 0.7978 0.37063 0.0
C857 C 0.74616 0.78025 0.37985 0.0
C858 C 0.76361 0.77837 0.3899 0.0
C859 C 0.77708 0.79331 0.38984 0.0
C860 C 0.73355 0.76313 0.37724 0.0
C861 C 0.74171 0.74663 0.36884 0.0
C862 C 0.71364 0.76323 0.38177 0.0
C863 C 0.7043 0.78007 0.39109 0.0
C864 C 0.71168 0.78772 0.40836 0.0
C865 C 0.70287 0.80366 0.417 0.0
C866 C 0.68659 0.81201 0.40857 0.0
C867 C 0.67906 0.80441 0.3915 0.0
C868 C 0.68782 0.78848 0.38279 0.0
C869 C 0.69366 0.67864 0.36407 0.0
C870 C 0.6783 0.68072 0.35098 0.0
C871 C 0.70344 0.69487 0.371 0.0
C872 C 0.69822 0.71344 0.36478 0.0
C873 C 0.68206 0.71562 0.35282 0.0
C874 C 0.67219 0.69943 0.346 0.0
C875 C 0.71063 0.73035 0.36915 0.0
C876 C 0.70243 0.74683 0.37763 0.0
C877 C 0.7305 0.7304 0.36446 0.0
C878 C 0.73976 0.71422 0.35397 0.0
C879 C 0.73281 0.70837 0.33583 0.0
C880 C 0.7415 0.69301 0.32609 0.0
C881 C 0.75727 0.6835 0.33426 0.0
C882 C 0.76442 0.68937 0.35216 0.0
C883 C 0.75576 0.7047 0.36198 0.0
H884 H 0.76399 0.67162 0.32669 0.0
H885 H 0.67978 0.82435 0.41528 0.0
H886 H 0.15223 0.80008 0.6814 0.0
H887 H 0.16707 0.76989 0.67099 0.0
H888 H 0.20528 0.80144 0.63337 0.0
H889 H 0.19041 0.83174 0.64354 0.0
H890 H 0.19353 0.76685 0.61727 0.0
H891 H 0.21986 0.78979 0.67774 0.0
H892 H 0.21791 0.80061 0.71157 0.0
H893 H 0.19254 0.74648 0.72777 0.0
H894 H 0.19409 0.73544 0.69396 0.0
H895 H 0.27959 0.71276 0.6134 0.0
H896 H 0.25308 0.7356 0.6164 0.0
H897 H 0.22349 0.69657 0.65478 0.0
H898 H 0.25019 0.67361 0.65204 0.0
H899 H 0.22638 0.73162 0.67018 0.0
H900 H 0.20496 0.70676 0.61014 0.0
H901 H 0.20752 0.69605 0.57634 0.0
H902 H 0.22393 0.75322 0.5591 0.0
H903 H 0.22175 0.76423 0.59284 0.0
C904 C 0.16355 0.80062 0.67064 0.0
C905 C 0.17031 0.81839 0.6635 0.0
C906 C 0.17203 0.78332 0.66473 0.0
C907 C 0.18749 0.78345 0.65166 0.0
C908 C 0.19339 0.80102 0.64352 0.0
C909 C 0.18491 0.81835 0.6494 0.0
C910 C 0.19868 0.76562 0.64785 0.0
C911 C 0.20079 0.75915 0.62879 0.0
C912 C 0.20772 0.7553 0.66297 0.0
C913 C 0.20687 0.76189 0.6833 0.0
C914 C 0.21372 0.78026 0.6885 0.0
C915 C 0.21271 0.78642 0.70767 0.0
C916 C 0.20505 0.77427 0.7218 0.0
C917 C 0.19843 0.7559 0.7168 0.0
C918 C 0.19937 0.74968 0.69764 0.0
C919 C 0.2673 0.70883 0.62223 0.0
C920 C 0.2671 0.69139 0.6326 0.0
C921 C 0.25207 0.72188 0.62382 0.0
C922 C 0.23622 0.71777 0.63573 0.0
C923 C 0.23556 0.70002 0.64548 0.0
C924 C 0.25081 0.68689 0.64384 0.0
C925 C 0.22152 0.73289 0.63952 0.0
C926 C 0.21882 0.73898 0.65863 0.0
C927 C 0.21199 0.74282 0.62442 0.0
C928 C 0.21331 0.73629 0.60407 0.0
C929 C 0.20926 0.71702 0.59917 0.0
C930 C 0.21062 0.7109 0.58001 0.0
C931 C 0.21592 0.72394 0.56558 0.0
C932 C 0.21983 0.74314 0.57029 0.0
C933 C 0.21851 0.74933 0.58943 0.0
H934 H 0.21696 0.71917 0.55076 0.0
H935 H 0.20428 0.77906 0.73663 0.0
H936 H 0.829 0.6566 0.79857 0.0
H937 H 0.84025 0.6723 0.76914 0.0
H938 H 0.88128 0.70531 0.80226 0.0
H939 H 0.86995 0.68986 0.83183 0.0
H940 H 0.85882 0.72805 0.7807 0.0
H941 H 0.89591 0.67061 0.76995 0.0
H942 H 0.90121 0.6356 0.76666 0.0
H943 H 0.86182 0.63379 0.71892 0.0
H944 H 0.85608 0.66875 0.72209 0.0
H945 H 0.89974 0.77914 0.70546 0.0
H946 H 0.89814 0.75456 0.73056 0.0
H947 H 0.85495 0.72382 0.69804 0.0
H948 H 0.8567 0.7483 0.67256 0.0
H949 H 0.87943 0.69899 0.71862 0.0
H950 H 0.84023 0.75468 0.73042 0.0
H951 H 0.83356 0.78949 0.73328 0.0
H952 H 0.87496 0.79401 0.77909 0.0
H953 H 0.88214 0.75926 0.77628 0.0
C954 C 0.8407 0.6669 0.79959 0.0
C955 C 0.84845 0.67209 0.81763 0.0
C956 C 0.84718 0.67581 0.78269 0.0
C957 C 0.86162 0.68998 0.78347 0.0
C958 C 0.87009 0.69443 0.80132 0.0
C959 C 0.86362 0.68555 0.81822 0.0
C960 C 0.86635 0.70166 0.76613 0.0
C961 C 0.86371 0.72168 0.76726 0.0
C962 C 0.87197 0.6933 0.74835 0.0
C963 C 0.87544 0.67229 0.74638 0.0
C964 C 0.88826 0.66272 0.75885 0.0
C965 C 0.89136 0.64289 0.75699 0.0
C966 C 0.88182 0.63247 0.74262 0.0
C967 C 0.86919 0.64188 0.73005 0.0
C968 C 0.86602 0.66171 0.73187 0.0
C969 C 0.89021 0.76693 0.7034 0.0
C970 C 0.87812 0.76582 0.68716 0.0
C971 C 0.88932 0.75289 0.71778 0.0
C972 C 0.87613 0.73761 0.71635 0.0
C973 C 0.86518 0.73556 0.69944 0.0
C974 C 0.86618 0.74957 0.68491 0.0
C975 C 0.87223 0.7253 0.73343 0.0
C976 C 0.87478 0.70526 0.73218 0.0
C977 C 0.86629 0.73355 0.75113 0.0
C978 C 0.86187 0.75441 0.753 0.0
C979 C 0.84802 0.76313 0.74101 0.0
C980 C 0.84413 0.78284 0.74263 0.0
C981 C 0.85386 0.79396 0.75633 0.0
C982 C 0.86746 0.78538 0.76847 0.0
C983 C 0.87144 0.76567 0.76687 0.0
H984 H 0.85082 0.80922 0.75757 0.0
H985 H 0.88424 0.61712 0.7412 0.0
H986 H 0.61127 0.21798 0.21256 0.0
H987 H 0.61237 0.24435 0.23578 0.0
H988 H 0.64399 0.27917 0.19505 0.0
H989 H 0.64307 0.25272 0.17168 0.0
H990 H 0.66209 0.27683 0.22937 0.0
H991 H 0.59859 0.29203 0.20822 0.0
H992 H 0.56472 0.2856 0.19949 0.0
H993 H 0.55305 0.26666 0.25728 0.0
H994 H 0.58691 0.27271 0.2663 0.0
H995 H 0.67118 0.34898 0.2996 0.0
H996 H 0.66014 0.3347 0.26935 0.0
H997 H 0.62601 0.29349 0.30109 0.0
H998 H 0.63664 0.30792 0.33141 0.0
H999 H 0.60808 0.30365 0.26791 0.0
H1000 H 0.67149 0.28253 0.28723 0.0
H1001 H 0.70538 0.28714 0.29681 0.0
H1002 H 0.71718 0.31521 0.24286 0.0
H1003 H 0.68319 0.31103 0.2331 0.0
C1004 C 0.61816 0.23136 0.20837 0.0
C1005 C 0.62722 0.23318 0.1903 0.0
C1006 C 0.61866 0.24649 0.22164 0.0
C1007 C 0.62818 0.26378 0.21713 0.0
C1008 C 0.63653 0.26596 0.19881 0.0
C1009 C 0.63595 0.25084 0.18545 0.0
C1010 C 0.63121 0.27856 0.23232 0.0
C1011 C 0.65024 0.2831 0.23745 0.0
C1012 C 0.61578 0.2863 0.24323 0.0
C1013 C 0.59535 0.28272 0.2379 0.0
C1014 C 0.58884 0.28636 0.21904 0.0
C1015 C 0.56963 0.28281 0.21404 0.0
C1016 C 0.55675 0.2757 0.22781 0.0
C1017 C 0.56304 0.27217 0.24663 0.0
C1018 C 0.58224 0.27569 0.2517 0.0
C1019 C 0.66101 0.33713 0.30017 0.0
C1020 C 0.65503 0.3294 0.31796 0.0
C1021 C 0.65474 0.32897 0.28284 0.0
C1022 C 0.64257 0.31277 0.28297 0.0
C1023 C 0.63546 0.30594 0.30064 0.0
C1024 C 0.64161 0.31418 0.31799 0.0
C1025 C 0.63893 0.30169 0.265 0.0
C1026 C 0.61985 0.29774 0.25947 0.0
C1027 C 0.65431 0.29428 0.25379 0.0
C1028 C 0.67477 0.29669 0.25954 0.0
C1029 C 0.68128 0.28982 0.27747 0.0
C1030 C 0.70052 0.29234 0.28293 0.0
C1031 C 0.71344 0.30152 0.27047 0.0
C1032 C 0.70715 0.30815 0.25251 0.0
C1033 C 0.68789 0.30571 0.24701 0.0
H1034 H 0.72833 0.30346 0.27471 0.0
H1035 H 0.54188 0.27296 0.22392 0.0
H1036 H 0.35319 0.75054 0.33082 0.0
H1037 H 0.35049 0.77694 0.30752 0.0
H1038 H 0.38603 0.74532 0.26743 0.0
H1039 H 0.38916 0.71918 0.29066 0.0
H1040 H 0.39369 0.78304 0.26505 0.0
H1041 H 0.33659 0.74267 0.26579 0.0
H1042 H 0.30843 0.72704 0.28092 0.0
H1043 H 0.28589 0.78245 0.29693 0.0
H1044 H 0.31407 0.79839 0.28209 0.0
H1045 H 0.35995 0.80874 0.17187 0.0
H1046 H 0.37036 0.79427 0.20224 0.0
H1047 H 0.33287 0.83274 0.23361 0.0
H1048 H 0.32221 0.84716 0.20331 0.0
H1049 H 0.3267 0.79624 0.24369 0.0
H1050 H 0.38191 0.83663 0.23749 0.0
H1051 H 0.40984 0.85146 0.22122 0.0
H1052 H 0.43588 0.79571 0.21438 0.0
H1053 H 0.40797 0.7805 0.23036 0.0
C1054 C 0.36075 0.74937 0.3172 0.0
C1055 C 0.37117 0.7326 0.31253 0.0
C1056 C 0.35913 0.76445 0.30386 0.0
C1057 C 0.36776 0.76295 0.28558 0.0
C1058 C 0.37919 0.74679 0.28141 0.0
C1059 C 0.38088 0.73179 0.29472 0.0
C1060 C 0.3636 0.77718 0.2701 0.0
C1061 C 0.37905 0.78593 0.26034 0.0
C1062 C 0.34449 0.78126 0.26419 0.0
C1063 C 0.32754 0.7717 0.27306 0.0
C1064 C 0.3257 0.7515 0.27267 0.0
C1065 C 0.30973 0.74259 0.28117 0.0
C1066 C 0.29541 0.75374 0.28994 0.0
C1067 C 0.29701 0.77383 0.29017 0.0
C1068 C 0.31298 0.78281 0.28172 0.0
C1069 C 0.35418 0.81439 0.18523 0.0
C1070 C 0.34013 0.82902 0.1851 0.0
C1071 C 0.36022 0.80616 0.20262 0.0
C1072 C 0.35244 0.81246 0.22024 0.0
C1073 C 0.33905 0.82763 0.22021 0.0
C1074 C 0.33301 0.83588 0.20284 0.0
C1075 C 0.3568 0.80193 0.23839 0.0
C1076 C 0.34135 0.79376 0.24862 0.0
C1077 C 0.37591 0.79832 0.2446 0.0
C1078 C 0.39277 0.80741 0.23502 0.0
C1079 C 0.39352 0.82751 0.23239 0.0
C1080 C 0.40937 0.83599 0.22324 0.0
C1081 C 0.42461 0.82453 0.21674 0.0
C1082 C 0.42406 0.80457 0.21941 0.0
C1083 C 0.40824 0.79601 0.22854 0.0
H1084 H 0.43687 0.83112 0.20966 0.0
H1085 H 0.28306 0.74682 0.29651 0.0
H1086 H 0.13342 0.18751 0.67206 0.0
H1087 H 0.12244 0.20288 0.70181 0.0
H1088 H 0.16749 0.17406 0.73355 0.0
H1089 H 0.17833 0.1583 0.70398 0.0
H1090 H 0.13512 0.17751 0.75543 0.0
H1091 H 0.17498 0.21877 0.71668 0.0
H1092 H 0.18494 0.2357 0.68702 0.0
H1093 H 0.13118 0.26642 0.68618 0.0
H1094 H 0.12079 0.24945 0.7157 0.0
H1095 H 0.14934 0.24925 0.82977 0.0
H1096 H 0.15097 0.22455 0.80455 0.0
H1097 H 0.10576 0.25354 0.77317 0.0
H1098 H 0.10423 0.2783 0.79806 0.0
H1099 H 0.13716 0.24892 0.75152 0.0
H1100 H 0.09887 0.20874 0.79303 0.0
H1101 H 0.09066 0.19193 0.82328 0.0
H1102 H 0.14339 0.15965 0.82004 0.0
H1103 H 0.15206 0.17646 0.7899 0.0
C1104 C 0.14077 0.18412 0.68542 0.0
C1105 C 0.15695 0.1719 0.68555 0.0
C1106 C 0.13449 0.19295 0.70242 0.0
C1107 C 0.14441 0.18993 0.71983 0.0
C1108 C 0.15967 0.17667 0.72028 0.0
C1109 C 0.16589 0.16773 0.7033 0.0
C1110 C 0.14016 0.20201 0.737 0.0
C1111 C 0.13566 0.19313 0.75465 0.0
C1112 C 0.14079 0.22238 0.73596 0.0
C1113 C 0.14703 0.23268 0.71826 0.0
C1114 C 0.16523 0.22903 0.71008 0.0
C1115 C 0.17096 0.23864 0.69331 0.0
C1116 C 0.15867 0.25209 0.68469 0.0
C1117 C 0.14066 0.25598 0.69285 0.0
C1118 C 0.13485 0.24637 0.70961 0.0
C1119 C 0.1394 0.25007 0.81776 0.0
C1120 C 0.12682 0.26586 0.81581 0.0
C1121 C 0.14033 0.23592 0.80335 0.0
C1122 C 0.12854 0.23724 0.78691 0.0
C1123 C 0.11508 0.25229 0.78565 0.0
C1124 C 0.11422 0.26643 0.79992 0.0
C1125 C 0.13173 0.22451 0.76998 0.0
C1126 C 0.13631 0.23331 0.75233 0.0
C1127 C 0.13139 0.20413 0.77118 0.0
C1128 C 0.12619 0.19399 0.78929 0.0
C1129 C 0.1088 0.19818 0.79885 0.0
C1130 C 0.10404 0.18862 0.81596 0.0
C1131 C 0.11652 0.17477 0.8236 0.0
C1132 C 0.13375 0.1704 0.81412 0.0
C1133 C 0.13858 0.17992 0.79701 0.0
H1134 H 0.11281 0.16739 0.83685 0.0
H1135 H 0.16313 0.25952 0.67171 0.0
H1136 H 0.7114 0.89081 0.7799 0.0
H1137 H 0.73464 0.88822 0.75371 0.0
H1138 H 0.6958 0.85082 0.72267 0.0
H1139 H 0.6724 0.85317 0.74907 0.0
H1140 H 0.73084 0.8351 0.72589 0.0
H1141 H 0.70658 0.89578 0.70533 0.0
H1142 H 0.69604 0.92957 0.70861 0.0
H1143 H 0.75308 0.94601 0.72625 0.0
H1144 H 0.76391 0.91227 0.72336 0.0
H1145 H 0.80009 0.82511 0.65224 0.0
H1146 H 0.76982 0.83522 0.66714 0.0
H1147 H 0.80116 0.8721 0.70619 0.0
H1148 H 0.83154 0.86223 0.69127 0.0
H1149 H 0.76676 0.8885 0.69455 0.0
H1150 H 0.78917 0.82755 0.72001 0.0
H1151 H 0.79994 0.79373 0.7177 0.0
H1152 H 0.74608 0.77802 0.69149 0.0
H1153 H 0.73508 0.81183 0.69341 0.0
C1154 C 0.70759 0.88229 0.76737 0.0
C1155 C 0.69007 0.87208 0.76666 0.0
C1156 C 0.72089 0.88093 0.75231 0.0
C1157 C 0.71695 0.86941 0.73615 0.0
C1158 C 0.69912 0.85983 0.73499 0.0
C1159 C 0.68574 0.86124 0.75006 0.0
C1160 C 0.73229 0.86584 0.72161 0.0
C1161 C 0.73835 0.84677 0.71865 0.0
C1162 C 0.74244 0.88108 0.71254 0.0
C1163 C 0.73603 0.90144 0.71424 0.0
C1164 C 0.71685 0.90657 0.71005 0.0
C1165 C 0.71083 0.92573 0.71181 0.0
C1166 C 0.72388 0.93992 0.71766 0.0
C1167 C 0.74299 0.935 0.72172 0.0
C1168 C 0.74909 0.91586 0.71999 0.0
C1169 C 0.80057 0.83565 0.66378 0.0
C1170 C 0.81831 0.84268 0.67072 0.0
C1171 C 0.78323 0.84137 0.67229 0.0
C1172 C 0.78327 0.85415 0.68798 0.0
C1173 C 0.80081 0.86217 0.69413 0.0
C1174 C 0.81819 0.85647 0.68561 0.0
C1175 C 0.76533 0.85782 0.69908 0.0
C1176 C 0.75891 0.87687 0.70148 0.0
C1177 C 0.75484 0.84258 0.70772 0.0
C1178 C 0.7614 0.82224 0.70663 0.0
C1179 C 0.77969 0.81691 0.71361 0.0
C1180 C 0.78582 0.79775 0.7124 0.0
C1181 C 0.77373 0.78375 0.7044 0.0
C1182 C 0.75545 0.78889 0.69765 0.0
C1183 C 0.74925 0.80804 0.69879 0.0
H1184 H 0.7785 0.76892 0.70348 0.0
H1185 H 0.71918 0.95475 0.71902 0.0
H1186 H 0.6725 0.13207 0.18642 0.0
H1187 H 0.70205 0.12059 0.2018 0.0
H1188 H 0.73433 0.16599 0.17412 0.0
H1189 H 0.70497 0.17733 0.15835 0.0
H1190 H 0.75599 0.13347 0.17717 0.0
H1191 H 0.71686 0.17267 0.21884 0.0
H1192 H 0.68701 0.18222 0.23568 0.0
H1193 H 0.68594 0.12784 0.26531 0.0
H1194 H 0.71566 0.11787 0.24842 0.0
H1195 H 0.82995 0.14749 0.24885 0.0
H1196 H 0.80476 0.14883 0.22414 0.0
H1197 H 0.77337 0.10391 0.25363 0.0
H1198 H 0.7982 0.10277 0.27849 0.0
H1199 H 0.75151 0.13457 0.24856 0.0
H1200 H 0.79357 0.09702 0.20836 0.0
H1201 H 0.82397 0.08913 0.19168 0.0
H1202 H 0.8206 0.14207 0.15973 0.0
H1203 H 0.7903 0.15042 0.17642 0.0
C1204 C 0.68593 0.13939 0.18328 0.0
C1205 C 0.68628 0.15581 0.17138 0.0
C1206 C 0.70282 0.13282 0.19211 0.0
C1207 C 0.72032 0.14269 0.18942 0.0
C1208 C 0.72099 0.15821 0.17647 0.0
C1209 C 0.70413 0.16471 0.16752 0.0
C1210 C 0.73736 0.13814 0.20159 0.0
C1211 C 0.75508 0.13378 0.19279 0.0
C1212 C 0.73615 0.13844 0.22196 0.0
C1213 C 0.71835 0.14444 0.23221 0.0
C1214 C 0.71017 0.1627 0.22884 0.0
C1215 C 0.6933 0.16819 0.23841 0.0
C1216 C 0.68456 0.15562 0.25151 0.0
C1217 C 0.69271 0.13755 0.25512 0.0
C1218 C 0.70957 0.13197 0.24557 0.0
C1219 C 0.81794 0.13755 0.24979 0.0
C1220 C 0.81596 0.12518 0.26575 0.0
C1221 C 0.80355 0.1383 0.23562 0.0
C1222 C 0.78711 0.12651 0.23705 0.0
C1223 C 0.78584 0.11323 0.25228 0.0
C1224 C 0.80008 0.11259 0.26648 0.0
C1225 C 0.7702 0.12955 0.22423 0.0
C1226 C 0.75246 0.1339 0.23295 0.0
C1227 C 0.77154 0.12942 0.20385 0.0
C1228 C 0.78974 0.12442 0.19377 0.0
C1229 C 0.79939 0.10706 0.1979 0.0
C1230 C 0.81658 0.10249 0.18841 0.0
C1231 C 0.82423 0.11511 0.17469 0.0
C1232 C 0.81467 0.13231 0.17038 0.0
C1233 C 0.79747 0.13696 0.17983 0.0
H1234 H 0.83755 0.11154 0.16736 0.0
H1235 H 0.67149 0.1599 0.25891 0.0
H1236 H 0.29887 0.66347 0.34404 0.0
H1237 H 0.27066 0.65196 0.32637 0.0
H1238 H 0.30775 0.62165 0.2867 0.0
H1239 H 0.33607 0.63317 0.30419 0.0
H1240 H 0.28395 0.64667 0.26867 0.0
H1241 H 0.27762 0.59705 0.31622 0.0
H1242 H 0.27513 0.58364 0.34905 0.0
H1243 H 0.22323 0.61601 0.35871 0.0
H1244 H 0.22556 0.62984 0.32602 0.0
H1245 H 0.21299 0.60785 0.20923 0.0
H1246 H 0.2385 0.60892 0.23335 0.0
H1247 H 0.20113 0.64035 0.27186 0.0
H1248 H 0.17528 0.63923 0.24772 0.0
H1249 H 0.22453 0.61379 0.29128 0.0
H1250 H 0.2318 0.66505 0.24551 0.0
H1251 H 0.23477 0.68045 0.2136 0.0
H1252 H 0.28517 0.64655 0.20155 0.0
H1253 H 0.28237 0.63078 0.23332 0.0
C1254 C 0.30105 0.65398 0.33183 0.0
C1255 C 0.31977 0.64944 0.3254 0.0
C1256 C 0.28486 0.64733 0.32179 0.0
C1257 C 0.28709 0.63598 0.30519 0.0
C1258 C 0.30571 0.63043 0.29946 0.0
C1259 C 0.3219 0.63701 0.30952 0.0
C1260 C 0.27035 0.63203 0.29245 0.0
C1261 C 0.27113 0.63911 0.27352 0.0
C1262 C 0.25331 0.6229 0.29903 0.0
C1263 C 0.25187 0.61463 0.31871 0.0
C1264 C 0.26577 0.60145 0.3254 0.0
C1265 C 0.26437 0.59374 0.34398 0.0
C1266 C 0.24906 0.599 0.35598 0.0
C1267 C 0.2351 0.61196 0.34941 0.0
C1268 C 0.23644 0.61972 0.33084 0.0
C1269 C 0.21003 0.61476 0.22292 0.0
C1270 C 0.19215 0.62369 0.22643 0.0
C1271 C 0.22467 0.61537 0.2367 0.0
C1272 C 0.22183 0.62502 0.25424 0.0
C1273 C 0.20363 0.63289 0.25836 0.0
C1274 C 0.18888 0.63226 0.24454 0.0
C1275 C 0.23837 0.62814 0.26746 0.0
C1276 C 0.23747 0.62113 0.28644 0.0
C1277 C 0.25534 0.6375 0.26104 0.0
C1278 C 0.25675 0.64659 0.24171 0.0
C1279 C 0.24338 0.66072 0.23596 0.0
C1280 C 0.24507 0.66955 0.21792 0.0
C1281 C 0.26013 0.66445 0.20554 0.0
C1282 C 0.2735 0.65047 0.21115 0.0
C1283 C 0.27188 0.64159 0.22917 0.0
H1284 H 0.26153 0.67139 0.19164 0.0
H1285 H 0.24799 0.59301 0.37035 0.0
H1286 H 0.28816 0.3916 0.71806 0.0
H1287 H 0.26488 0.38953 0.74427 0.0
H1288 H 0.30525 0.3561 0.77777 0.0
H1289 H 0.32867 0.35789 0.75136 0.0
H1290 H 0.27107 0.33865 0.77578 0.0
H1291 H 0.29233 0.40174 0.79196 0.0
H1292 H 0.30127 0.43568 0.78629 0.0
H1293 H 0.24359 0.44806 0.76747 0.0
H1294 H 0.23436 0.41412 0.77276 0.0
H1295 H 0.20234 0.33041 0.84998 0.0
H1296 H 0.23209 0.34109 0.83444 0.0
H1297 H 0.199 0.37353 0.79298 0.0
H1298 H 0.16911 0.3631 0.80855 0.0
H1299 H 0.23257 0.39236 0.80325 0.0
H1300 H 0.21317 0.32866 0.78242 0.0
H1301 H 0.20409 0.29461 0.78724 0.0
H1302 H 0.2587 0.28357 0.81428 0.0
H1303 H 0.26799 0.31765 0.80985 0.0
C1304 C 0.29227 0.38407 0.73111 0.0
C1305 C 0.31026 0.3748 0.73254 0.0
C1306 C 0.27895 0.38301 0.74617 0.0
C1307 C 0.28333 0.37277 0.76307 0.0
C1308 C 0.30157 0.36413 0.76488 0.0
C1309 C 0.31497 0.36521 0.74979 0.0
C1310 C 0.26812 0.36952 0.77782 0.0
C1311 C 0.26299 0.35043 0.78217 0.0
C1312 C 0.25724 0.38486 0.78579 0.0
C1313 C 0.26269 0.40533 0.78265 0.0
C1314 C 0.28158 0.41166 0.78648 0.0
C1315 C 0.2867 0.43091 0.78336 0.0
C1316 C 0.27301 0.44401 0.7765 0.0
C1317 C 0.25417 0.43789 0.77278 0.0
C1318 C 0.24898 0.41865 0.77587 0.0
C1319 C 0.20135 0.34012 0.83777 0.0
C1320 C 0.18329 0.34569 0.83035 0.0
C1321 C 0.2184 0.34617 0.82889 0.0
C1322 C 0.21774 0.35781 0.81235 0.0
C1323 C 0.19983 0.36449 0.8057 0.0
C1324 C 0.18274 0.35847 0.8146 0.0
C1325 C 0.23548 0.36154 0.80095 0.0
C1326 C 0.24097 0.38065 0.79716 0.0
C1327 C 0.24672 0.34624 0.79342 0.0
C1328 C 0.24117 0.32574 0.79602 0.0
C1329 C 0.22317 0.319 0.78954 0.0
C1330 C 0.218 0.2997 0.79217 0.0
C1331 C 0.23078 0.28695 0.80112 0.0
C1332 C 0.24879 0.29347 0.80739 0.0
C1333 C 0.25402 0.31278 0.80482 0.0
H1334 H 0.22675 0.272 0.80314 0.0
H1335 H 0.277 0.45891 0.77409 0.0
H1336 H 0.75033 0.67171 0.86193 0.0
H1337 H 0.72409 0.69532 0.86091 0.0
H1338 H 0.76058 0.73723 0.88887 0.0
H1339 H 0.78668 0.71375 0.89024 0.0
H1340 H 0.72376 0.74045 0.90132 0.0
H1341 H 0.75705 0.73556 0.83997 0.0
H1342 H 0.76904 0.71842 0.81119 0.0
H1343 H 0.71116 0.70191 0.79655 0.0
H1344 H 0.69887 0.71875 0.82541 0.0
H1345 H 0.6957 0.83179 0.86489 0.0
H1346 H 0.71032 0.80177 0.876 0.0
H1347 H 0.66783 0.76914 0.84437 0.0
H1348 H 0.65328 0.79909 0.83295 0.0
H1349 H 0.70293 0.75787 0.83514 0.0
H1350 H 0.66929 0.76807 0.89403 0.0
H1351 H 0.65785 0.78613 0.92243 0.0
H1352 H 0.71625 0.79353 0.94165 0.0
H1353 H 0.72808 0.77574 0.91321 0.0
C1354 C 0.75265 0.68584 0.86819 0.0
C1355 C 0.77071 0.69092 0.87593 0.0
C1356 C 0.73765 0.69932 0.86755 0.0
C1357 C 0.74049 0.71814 0.87453 0.0
C1358 C 0.75807 0.72282 0.88335 0.0
C1359 C 0.77303 0.70938 0.88403 0.0
C1360 C 0.72599 0.73352 0.87114 0.0
C1361 C 0.71919 0.74431 0.88687 0.0
C1362 C 0.7197 0.73828 0.85231 0.0
C1363 C 0.72708 0.72819 0.83495 0.0
C1364 C 0.74691 0.72814 0.83069 0.0
C1365 C 0.75375 0.7185 0.81435 0.0
C1366 C 0.74088 0.70902 0.80209 0.0
C1367 C 0.72112 0.70921 0.80609 0.0
C1368 C 0.71421 0.7188 0.82243 0.0
C1369 C 0.68918 0.81825 0.86064 0.0
C1370 C 0.67342 0.81787 0.84787 0.0
C1371 C 0.69752 0.80106 0.86708 0.0
C1372 C 0.69016 0.78316 0.86105 0.0
C1373 C 0.67378 0.78277 0.84917 0.0
C1374 C 0.66546 0.79993 0.84268 0.0
C1375 C 0.70084 0.76509 0.86531 0.0
C1376 C 0.70705 0.75381 0.84968 0.0
C1377 C 0.70661 0.75999 0.88422 0.0
C1378 C 0.69957 0.77067 0.90139 0.0
C1379 C 0.67971 0.77366 0.90423 0.0
C1380 C 0.67315 0.78383 0.92035 0.0
C1381 C 0.68632 0.791 0.93382 0.0
C1382 C 0.70607 0.78797 0.9312 0.0
C1383 C 0.71271 0.77782 0.9151 0.0
H1384 H 0.68122 0.79887 0.94629 0.0
H1385 H 0.7462 0.70157 0.78944 0.0
H1386 H 0.18237 0.66989 0.12673 0.0
H1387 H 0.19728 0.69979 0.1155 0.0
H1388 H 0.17056 0.73089 0.16226 0.0
H1389 H 0.15526 0.70119 0.17337 0.0
H1390 H 0.17378 0.75357 0.12989 0.0
H1391 H 0.21386 0.71211 0.16815 0.0
H1392 H 0.22916 0.68113 0.17632 0.0
H1393 H 0.26054 0.68216 0.12293 0.0
H1394 H 0.24486 0.71288 0.11412 0.0
H1395 H 0.24585 0.82644 0.14659 0.0
H1396 H 0.22098 0.80136 0.14703 0.0
H1397 H 0.25133 0.77045 0.10236 0.0
H1398 H 0.27639 0.79513 0.10222 0.0
H1399 H 0.24508 0.74793 0.13192 0.0
H1400 H 0.20608 0.79173 0.09502 0.0
H1401 H 0.19002 0.82264 0.08786 0.0
H1402 H 0.15732 0.81818 0.14026 0.0
H1403 H 0.17337 0.78737 0.14788 0.0
C1404 C 0.17927 0.68316 0.13437 0.0
C1405 C 0.16791 0.68305 0.15117 0.0
C1406 C 0.18781 0.70025 0.12792 0.0
C1407 C 0.18535 0.71749 0.13828 0.0
C1408 C 0.17272 0.71775 0.15408 0.0
C1409 C 0.16407 0.7007 0.16047 0.0
C1410 C 0.19783 0.73444 0.1343 0.0
C1411 C 0.18938 0.75242 0.13037 0.0
C1412 C 0.21818 0.73288 0.13489 0.0
C1413 C 0.22801 0.71468 0.14037 0.0
C1414 C 0.22391 0.70567 0.15808 0.0
C1415 C 0.23265 0.68815 0.16283 0.0
C1416 C 0.24584 0.67968 0.15017 0.0
C1417 C 0.2503 0.68872 0.13272 0.0
C1418 C 0.24145 0.70617 0.12781 0.0
C1419 C 0.24695 0.81454 0.13653 0.0
C1420 C 0.26318 0.81266 0.12451 0.0
C1421 C 0.23269 0.80022 0.13676 0.0
C1422 C 0.23428 0.78396 0.12474 0.0
C1423 C 0.24984 0.78277 0.11185 0.0
C1424 C 0.26415 0.79692 0.11177 0.0
C1425 C 0.22114 0.76716 0.1271 0.0
C1426 C 0.22951 0.74915 0.13103 0.0
C1427 C 0.20078 0.76882 0.12669 0.0
C1428 C 0.19105 0.78731 0.1221 0.0
C1429 C 0.19557 0.79741 0.10509 0.0
C1430 C 0.18645 0.8149 0.10094 0.0
C1431 C 0.17269 0.82239 0.11361 0.0
C1432 C 0.16799 0.81238 0.13046 0.0
C1433 C 0.17708 0.79488 0.13469 0.0
H1434 H 0.16565 0.83594 0.11037 0.0
H1435 H 0.25261 0.66611 0.15388 0.0
H1436 H 0.30669 0.33248 0.63551 0.0
H1437 H 0.29221 0.30211 0.62501 0.0
H1438 H 0.33499 0.27043 0.65717 0.0
H1439 H 0.34936 0.3007 0.66803 0.0
H1440 H 0.30267 0.26922 0.60619 0.0
H1441 H 0.31242 0.23337 0.68033 0.0
H1442 H 0.31749 0.24246 0.71437 0.0
H1443 H 0.28845 0.29628 0.70465 0.0
H1444 H 0.28298 0.28739 0.67065 0.0
H1445 H 0.25346 0.172 0.64143 0.0
H1446 H 0.27971 0.19563 0.64217 0.0
H1447 H 0.24427 0.23604 0.61086 0.0
H1448 H 0.21816 0.21256 0.60987 0.0
H1449 H 0.27765 0.22961 0.66029 0.0
H1450 H 0.27159 0.2672 0.58545 0.0
H1451 H 0.26529 0.25833 0.55159 0.0
H1452 H 0.28529 0.20077 0.56258 0.0
H1453 H 0.29198 0.20935 0.59643 0.0
C1454 C 0.31327 0.31907 0.64005 0.0
C1455 C 0.32899 0.31904 0.65288 0.0
C1456 C 0.30499 0.3017 0.63399 0.0
C1457 C 0.31229 0.28402 0.64061 0.0
C1458 C 0.32891 0.28392 0.65217 0.0
C1459 C 0.33712 0.30126 0.65833 0.0
C1460 C 0.30138 0.26594 0.63703 0.0
C1461 C 0.29714 0.26056 0.61798 0.0
C1462 C 0.29454 0.25439 0.65243 0.0
C1463 C 0.29753 0.25981 0.67291 0.0
C1464 C 0.30708 0.24712 0.68549 0.0
C1465 C 0.31003 0.25224 0.70477 0.0
C1466 C 0.30337 0.26997 0.71165 0.0
C1467 C 0.29367 0.28258 0.69929 0.0
C1468 C 0.29066 0.27752 0.68001 0.0
C1469 C 0.25142 0.18575 0.63432 0.0
C1470 C 0.23366 0.19043 0.62571 0.0
C1471 C 0.26642 0.19926 0.63481 0.0
C1472 C 0.26401 0.21758 0.6265 0.0
C1473 C 0.24661 0.22191 0.61711 0.0
C1474 C 0.23162 0.20848 0.61668 0.0
C1475 C 0.27866 0.23294 0.62941 0.0
C1476 C 0.28352 0.23793 0.64841 0.0
C1477 C 0.28593 0.24414 0.61395 0.0
C1478 C 0.28216 0.2389 0.59354 0.0
C1479 C 0.27475 0.25268 0.58063 0.0
C1480 C 0.27108 0.24769 0.56144 0.0
C1481 C 0.27484 0.22899 0.55495 0.0
C1482 C 0.28232 0.21524 0.56764 0.0
C1483 C 0.28602 0.22015 0.58684 0.0
H1484 H 0.27199 0.22516 0.54009 0.0
H1485 H 0.30568 0.27391 0.72658 0.0
H1486 H 0.75399 0.32927 0.36201 0.0
H1487 H 0.78061 0.3061 0.36038 0.0
H1488 H 0.74426 0.26247 0.38582 0.0
H1489 H 0.71786 0.2855 0.38789 0.0
H1490 H 0.78046 0.25924 0.39903 0.0
H1491 H 0.74955 0.26719 0.33634 0.0
H1492 H 0.73915 0.28594 0.30799 0.0
H1493 H 0.79777 0.30271 0.29711 0.0
H1494 H 0.80849 0.28423 0.32559 0.0
H1495 H 0.80908 0.16918 0.36141 0.0
H1496 H 0.7944 0.19912 0.37253 0.0
H1497 H 0.83752 0.23188 0.34185 0.0
H1498 H 0.85204 0.20195 0.33027 0.0
H1499 H 0.80344 0.24451 0.33291 0.0
H1500 H 0.83515 0.23173 0.39209 0.0
H1501 H 0.84581 0.21266 0.42014 0.0
H1502 H 0.78694 0.205 0.43777 0.0
H1503 H 0.77588 0.2238 0.40967 0.0
C1504 C 0.75177 0.31483 0.36757 0.0
C1505 C 0.73369 0.30919 0.37486 0.0
C1506 C 0.76699 0.30159 0.36656 0.0
C1507 C 0.76433 0.28244 0.37267 0.0
C1508 C 0.74666 0.27713 0.38097 0.0
C1509 C 0.73151 0.29034 0.38205 0.0
C1510 C 0.77919 0.26741 0.3691 0.0
C1511 C 0.78549 0.25597 0.38458 0.0
C1512 C 0.78623 0.26351 0.35034 0.0
C1513 C 0.77978 0.27455 0.33321 0.0
C1514 C 0.76019 0.27499 0.32798 0.0
C1515 C 0.75425 0.28555 0.31188 0.0
C1516 C 0.76777 0.29556 0.30078 0.0
C1517 C 0.7873 0.29499 0.30574 0.0
C1518 C 0.79332 0.28448 0.32186 0.0
C1519 C 0.8157 0.18273 0.35733 0.0
C1520 C 0.83167 0.18313 0.34482 0.0
C1521 C 0.80733 0.19989 0.3638 0.0
C1522 C 0.8149 0.21782 0.35813 0.0
C1523 C 0.8314 0.21824 0.34639 0.0
C1524 C 0.8397 0.20109 0.33981 0.0
C1525 C 0.8044 0.23594 0.36279 0.0
C1526 C 0.79884 0.24797 0.34747 0.0
C1527 C 0.79813 0.24037 0.38171 0.0
C1528 C 0.80468 0.22909 0.39868 0.0
C1529 C 0.82446 0.22587 0.40187 0.0
C1530 C 0.83058 0.21512 0.41779 0.0
C1531 C 0.81706 0.2076 0.43071 0.0
C1532 C 0.79739 0.21084 0.42775 0.0
C1533 C 0.79119 0.22157 0.41184 0.0
H1534 H 0.82183 0.19928 0.44303 0.0
H1535 H 0.76314 0.30373 0.28832 0.0
H1536 H 0.13978 0.19554 0.5759 0.0
H1537 H 0.13242 0.19674 0.54154 0.0
H1538 H 0.15347 0.13858 0.53485 0.0
H1539 H 0.16117 0.13738 0.56929 0.0
H1540 H 0.16961 0.16147 0.50921 0.0
H1541 H 0.10528 0.14914 0.52924 0.0
H1542 H 0.07561 0.1534 0.54838 0.0
H1543 H 0.06945 0.21103 0.52659 0.0
H1544 H 0.09924 0.20723 0.50753 0.0
H1545 H 0.11553 0.17282 0.4114 0.0
H1546 H 0.11463 0.16436 0.44574 0.0
H1547 H 0.16128 0.204 0.45675 0.0
H1548 H 0.16242 0.21237 0.42261 0.0
H1549 H 0.10892 0.18458 0.47915 0.0
H1550 H 0.19204 0.18419 0.48863 0.0
H1551 H 0.22115 0.17788 0.46916 0.0
H1552 H 0.18844 0.14112 0.43157 0.0
H1553 H 0.1592 0.14697 0.45096 0.0
C1554 C 0.14252 0.18285 0.56722 0.0
C1555 C 0.15115 0.16638 0.57534 0.0
C1556 C 0.13821 0.18353 0.54755 0.0
C1557 C 0.1423 0.16772 0.53558 0.0
C1558 C 0.15019 0.15096 0.54379 0.0
C1559 C 0.15451 0.15026 0.56351 0.0
C1560 C 0.14002 0.16944 0.51432 0.0
C1561 C 0.15628 0.16638 0.50266 0.0
C1562 C 0.12256 0.17559 0.50566 0.0
C1563 C 0.10458 0.17793 0.51704 0.0
C1564 C 0.09768 0.16278 0.52863 0.0
C1565 C 0.08082 0.1651 0.53945 0.0
C1566 C 0.07067 0.18249 0.53873 0.0
C1567 C 0.07733 0.19757 0.52714 0.0
C1568 C 0.09419 0.19533 0.5163 0.0
C1569 C 0.12548 0.17986 0.42117 0.0
C1570 C 0.13915 0.19316 0.41423 0.0
C1571 C 0.12493 0.17502 0.44079 0.0
C1572 C 0.1381 0.18331 0.45375 0.0
C1573 C 0.15121 0.19716 0.44695 0.0
C1574 C 0.15179 0.20198 0.42741 0.0
C1575 C 0.13867 0.17717 0.47427 0.0
C1576 C 0.12215 0.17946 0.48574 0.0
C1577 C 0.15581 0.17001 0.48276 0.0
C1578 C 0.1734 0.16615 0.47117 0.0
C1579 C 0.19108 0.17468 0.47627 0.0
C1580 C 0.2076 0.1712 0.46524 0.0
C1581 C 0.20663 0.15915 0.44911 0.0
C1582 C 0.18916 0.1505 0.44403 0.0
C1583 C 0.1726 0.15391 0.45502 0.0
H1584 H 0.21943 0.15649 0.44058 0.0
H1585 H 0.05762 0.18426 0.54712 0.0
H1586 H 0.35157 0.86259 0.07214 0.0
H1587 H 0.36164 0.86106 0.03828 0.0
H1588 H 0.35601 0.79906 0.03948 0.0
H1589 H 0.34702 0.80046 0.07336 0.0
H1590 H 0.38467 0.80684 0.01839 0.0
H1591 H 0.31973 0.83141 0.02135 0.0
H1592 H 0.2939 0.8538 0.03121 0.0
H1593 H 0.32386 0.90077 0.00413 0.0
H1594 H 0.34999 0.87868 0.99431 0.0
H1595 H 0.35631 0.78595 0.92144 0.0
H1596 H 0.35769 0.79153 0.95628 0.0
H1597 H 0.38218 0.84783 0.94644 0.0
H1598 H 0.38125 0.84219 0.91152 0.0
H1599 H 0.34787 0.84613 0.97128 0.0
H1600 H 0.41068 0.81765 0.9644 0.0
H1601 H 0.43379 0.79287 0.95365 0.0
H1602 H 0.4042 0.75019 0.9874 0.0
H1603 H 0.38073 0.77466 0.99813 0.0
C1604 C 0.35279 0.84864 0.06522 0.0
C1605 C 0.34842 0.83166 0.0754 0.0
C1606 C 0.3584 0.84777 0.04582 0.0
C1607 C 0.35919 0.82996 0.0361 0.0
C1608 C 0.35554 0.81299 0.04654 0.0
C1609 C 0.35034 0.81382 0.06597 0.0
C1610 C 0.36294 0.82883 0.01495 0.0
C1611 C 0.37652 0.8154 0.00814 0.0
C1612 C 0.35259 0.84016 0.00142 0.0
C1613 C 0.33691 0.85345 0.00731 0.0
C1614 C 0.32087 0.84654 0.01763 0.0
C1615 C 0.30617 0.85917 0.02319 0.0
C1616 C 0.30727 0.8787 0.01836 0.0
C1617 C 0.32305 0.88564 0.0079 0.0
C1618 C 0.3378 0.87308 0.00233 0.0
C1619 C 0.36225 0.79941 0.92669 0.0
C1620 C 0.36868 0.81363 0.91375 0.0
C1621 C 0.36306 0.80256 0.94659 0.0
C1622 C 0.37006 0.82008 0.9539 0.0
C1623 C 0.37677 0.8342 0.94105 0.0
C1624 C 0.37631 0.83092 0.92113 0.0
C1625 C 0.36925 0.82395 0.9749 0.0
C1626 C 0.35619 0.83785 0.98163 0.0
C1627 C 0.3797 0.81271 0.98831 0.0
C1628 C 0.39386 0.79798 0.98195 0.0
C1629 C 0.409 0.80295 0.96941 0.0
C1630 C 0.42219 0.78896 0.96334 0.0
C1631 C 0.42044 0.76995 0.96981 0.0
C1632 C 0.40553 0.76491 0.98239 0.0
C1633 C 0.39229 0.77884 0.98849 0.0
H1634 H 0.43067 0.75914 0.96509 0.0
H1635 H 0.29587 0.88846 0.02268 0.0
H1636 H 0.66982 0.35827 0.43617 0.0
H1637 H 0.66293 0.35551 0.47066 0.0
H1638 H 0.62622 0.3065 0.45946 0.0
H1639 H 0.63372 0.30872 0.42509 0.0
H1640 H 0.63412 0.35654 0.49454 0.0
H1641 H 0.63149 0.27305 0.49397 0.0
H1642 H 0.64405 0.24588 0.47471 0.0
H1643 H 0.69152 0.28086 0.45574 0.0
H1644 H 0.67938 0.30813 0.47507 0.0
H1645 H 0.61124 0.32649 0.59022 0.0
H1646 H 0.61075 0.33059 0.55511 0.0
H1647 H 0.66771 0.30573 0.55145 0.0
H1648 H 0.66791 0.30089 0.58622 0.0
H1649 H 0.64819 0.29269 0.52359 0.0
H1650 H 0.65849 0.35611 0.54924 0.0
H1651 H 0.65127 0.38472 0.56909 0.0
H1652 H 0.5976 0.39234 0.53914 0.0
H1653 H 0.60441 0.36361 0.51926 0.0
C1654 C 0.66003 0.3471 0.44103 0.0
C1655 C 0.65251 0.33355 0.42797 0.0
C1656 C 0.65608 0.34554 0.46076 0.0
C1657 C 0.6444 0.33052 0.46775 0.0
C1658 C 0.63568 0.31791 0.4545 0.0
C1659 C 0.63989 0.31925 0.43484 0.0
C1660 C 0.64256 0.32719 0.48888 0.0
C1661 C 0.63708 0.34255 0.50089 0.0
C1662 C 0.64685 0.30907 0.49729 0.0
C1663 C 0.65439 0.29268 0.48578 0.0
C1664 C 0.64463 0.27491 0.48573 0.0
C1665 C 0.65168 0.2595 0.4748 0.0
C1666 C 0.66853 0.26167 0.46395 0.0
C1667 C 0.67843 0.27922 0.46408 0.0
C1668 C 0.67146 0.29466 0.47501 0.0
C1669 C 0.62357 0.32177 0.58187 0.0
C1670 C 0.63961 0.31337 0.591 0.0
C1671 C 0.62334 0.32424 0.56182 0.0
C1672 C 0.63931 0.31874 0.55058 0.0
C1673 C 0.65517 0.31007 0.55971 0.0
C1674 C 0.65529 0.30733 0.57965 0.0
C1675 C 0.63979 0.32206 0.52935 0.0
C1676 C 0.64499 0.30665 0.51728 0.0
C1677 C 0.63598 0.34033 0.52101 0.0
C1678 C 0.63186 0.3576 0.53292 0.0
C1679 C 0.64508 0.36381 0.54699 0.0
C1680 C 0.64108 0.38006 0.55823 0.0
C1681 C 0.62396 0.39031 0.55542 0.0
C1682 C 0.61084 0.38436 0.54133 0.0
C1683 C 0.61477 0.36811 0.53006 0.0
H1684 H 0.62088 0.40289 0.56413 0.0
H1685 H 0.67395 0.24972 0.45548 0.0
H1686 H 0.88966 0.67417 0.09113 0.0
H1687 H 0.89229 0.6686 0.05629 0.0
H1688 H 0.83875 0.69901 0.04741 0.0
H1689 H 0.83625 0.70496 0.08193 0.0
H1690 H 0.87029 0.64938 0.03159 0.0
H1691 H 0.83888 0.72289 0.00582 0.0
H1692 H 0.83883 0.75695 0.01606 0.0
H1693 H 0.89166 0.74805 0.04711 0.0
H1694 H 0.89218 0.71401 0.03684 0.0
H1695 H 0.83212 0.6435 0.9369 0.0
H1696 H 0.83993 0.64655 0.97111 0.0
H1697 H 0.88234 0.69012 0.95758 0.0
H1698 H 0.87372 0.68786 0.92348 0.0
H1699 H 0.86247 0.70278 0.98465 0.0
H1700 H 0.8938 0.64243 0.9754 0.0
H1701 H 0.89723 0.60866 0.96479 0.0
H1702 H 0.85149 0.59166 0.00294 0.0
H1703 H 0.8476 0.62537 0.0136 0.0
C1704 C 0.87855 0.67981 0.08171 0.0
C1705 C 0.86281 0.69012 0.08931 0.0
C1706 C 0.88003 0.67653 0.06182 0.0
C1707 C 0.86584 0.68357 0.04918 0.0
C1708 C 0.85009 0.69376 0.05679 0.0
C1709 C 0.84865 0.6971 0.07659 0.0
C1710 C 0.86715 0.68007 0.02805 0.0
C1711 C 0.86871 0.66105 0.02128 0.0
C1712 C 0.86558 0.69532 0.01457 0.0
C1713 C 0.86547 0.71584 0.02067 0.0
C1714 C 0.85053 0.72822 0.01476 0.0
C1715 C 0.85042 0.74752 0.02058 0.0
C1716 C 0.86521 0.75465 0.03227 0.0
C1717 C 0.88018 0.74249 0.03811 0.0
C1718 C 0.88038 0.72319 0.03231 0.0
C1719 C 0.84339 0.65344 0.94121 0.0
C1720 C 0.85229 0.66547 0.92755 0.0
C1721 C 0.84793 0.65513 0.9608 0.0
C1722 C 0.86187 0.66849 0.96706 0.0
C1723 C 0.87146 0.67979 0.95322 0.0
C1724 C 0.8666 0.67842 0.93371 0.0
C1725 C 0.86515 0.67197 0.98804 0.0
C1726 C 0.86434 0.69105 0.99483 0.0
C1727 C 0.86794 0.6568 0.00146 0.0
C1728 C 0.87033 0.63646 0.99521 0.0
C1729 C 0.88439 0.63151 0.98145 0.0
C1730 C 0.88643 0.61237 0.97543 0.0
C1731 C 0.87457 0.59803 0.98316 0.0
C1732 C 0.86067 0.60279 0.99696 0.0
C1733 C 0.85857 0.6219 0.00302 0.0
H1734 H 0.87616 0.58323 0.97848 0.0
H1735 H 0.86509 0.76959 0.03677 0.0
H1736 H 0.41854 0.16685 0.20315 0.0
H1737 H 0.45317 0.16669 0.19736 0.0
H1738 H 0.44869 0.11034 0.17129 0.0
H1739 H 0.4137 0.1108 0.17637 0.0
H1740 H 0.48131 0.14688 0.2092 0.0
H1741 H 0.48368 0.10462 0.13721 0.0
H1742 H 0.46307 0.09859 0.10882 0.0
H1743 H 0.43357 0.15217 0.11847 0.0
H1744 H 0.45415 0.15862 0.14675 0.0
H1745 H 0.57929 0.13226 0.19068 0.0
H1746 H 0.54494 0.12487 0.19347 0.0
H1747 H 0.53292 0.16245 0.14535 0.0
H1748 H 0.56738 0.16922 0.14198 0.0
H1749 H 0.50871 0.13396 0.14438 0.0
H1750 H 0.52964 0.17813 0.19315 0.0
H1751 H 0.54971 0.18965 0.22016 0.0
H1752 H 0.5313 0.14165 0.25471 0.0
H1753 H 0.51131 0.1297 0.22779 0.0
C1754 C 0.42489 0.15437 0.19624 0.0
C1755 C 0.41334 0.13886 0.19016 0.0
C1756 C 0.44476 0.15428 0.19296 0.0
C1757 C 0.45362 0.13861 0.18368 0.0
C1758 C 0.44219 0.1228 0.17811 0.0
C1759 C 0.4222 0.12301 0.18114 0.0
C1760 C 0.47478 0.1391 0.17983 0.0
C1761 C 0.48726 0.14394 0.19503 0.0
C1762 C 0.48265 0.13564 0.16128 0.0
C1763 C 0.47029 0.13197 0.14422 0.0
C1764 C 0.47282 0.11513 0.13324 0.0
C1765 C 0.46114 0.11164 0.11717 0.0
C1766 C 0.44697 0.12495 0.11189 0.0
C1767 C 0.44449 0.14183 0.12262 0.0
C1768 C 0.45614 0.1454 0.13868 0.0
C1769 C 0.56936 0.13864 0.18045 0.0
C1770 C 0.576 0.15147 0.16623 0.0
C1771 C 0.5497 0.13449 0.18212 0.0
C1772 C 0.53623 0.1435 0.16996 0.0
C1773 C 0.54298 0.15538 0.15497 0.0
C1774 C 0.5627 0.15926 0.15307 0.0
C1775 C 0.51515 0.14176 0.17375 0.0
C1776 C 0.50273 0.13667 0.15858 0.0
C1777 C 0.5072 0.14574 0.19216 0.0
C1778 C 0.51915 0.15291 0.2084 0.0
C1779 C 0.52998 0.16996 0.20647 0.0
C1780 C 0.54132 0.17658 0.22176 0.0
C1781 C 0.54182 0.16636 0.23912 0.0
C1782 C 0.53093 0.14953 0.24124 0.0
C1783 C 0.51958 0.14283 0.22598 0.0
H1784 H 0.55061 0.1715 0.25095 0.0
H1785 H 0.43794 0.12222 0.09946 0.0
H1786 H 0.93215 0.85386 0.63836 0.0
H1787 H 0.96593 0.86405 0.64081 0.0
H1788 H 0.96279 0.85921 0.70281 0.0
H1789 H 0.92902 0.85008 0.70048 0.0
H1790 H 0.98402 0.88789 0.69528 0.0
H1791 H 0.9819 0.8225 0.67144 0.0
H1792 H 0.97274 0.79652 0.64892 0.0
H1793 H 1.00146 0.82608 0.60268 0.0
H1794 H 0.0106 0.85235 0.62491 0.0
H1795 H 0.0791 0.85794 0.72113 0.0
H1796 H 0.04466 0.85999 0.71363 0.0
H1797 H 0.05807 0.88444 0.65805 0.0
H1798 H 0.09263 0.88288 0.66565 0.0
H1799 H 0.03249 0.85022 0.65855 0.0
H1800 H 0.0388 0.91324 0.6865 0.0
H1801 H 0.04865 0.93662 0.71141 0.0
H1802 H 0.01254 0.90812 0.75289 0.0
H1803 H 0.00269 0.88439 0.7283 0.0
C1804 C 0.93863 0.85528 0.6525 0.0
C1805 C 0.92793 0.85107 0.66921 0.0
C1806 C 0.95798 0.86096 0.6539 0.0
C1807 C 0.96713 0.86202 0.67199 0.0
C1808 C 0.95618 0.85853 0.68867 0.0
C1809 C 0.9368 0.85324 0.68731 0.0
C1810 C 0.98823 0.86582 0.67378 0.0
C1811 C 0.99457 0.87957 0.68727 0.0
C1812 C 0.00215 0.85527 0.66313 0.0
C1813 C 0.99672 0.83949 0.64977 0.0
C1814 C 0.98614 0.82351 0.65644 0.0
C1815 C 0.98098 0.80873 0.64374 0.0
C1816 C 0.98646 0.80969 0.62437 0.0
C1817 C 0.99718 0.82539 0.61768 0.0
C1818 C 0.00237 0.84022 0.63032 0.0
C1819 C 0.07472 0.86402 0.70743 0.0
C1820 C 0.08855 0.87026 0.69398 0.0
C1821 C 0.05505 0.86521 0.70318 0.0
C1822 C 0.04886 0.87238 0.6853 0.0
C1823 C 0.0626 0.87891 0.67195 0.0
C1824 C 0.08229 0.87809 0.67635 0.0
C1825 C 0.02808 0.87191 0.68029 0.0
C1826 C 0.02187 0.85875 0.66625 0.0
C1827 C 0.01429 0.88264 0.69077 0.0
C1828 C 0.02012 0.89694 0.70558 0.0
C1829 C 0.03308 0.91186 0.70097 0.0
C1830 C 0.03864 0.9252 0.71503 0.0
C1831 C 0.03125 0.92384 0.73373 0.0
C1832 C 0.01826 0.90915 0.7384 0.0
C1833 C 0.01267 0.89577 0.7244 0.0
H1834 H 0.03558 0.93418 0.7446 0.0
H1835 H 0.98245 0.79823 0.61456 0.0
H1836 H 0.07035 0.35355 0.86455 0.0
H1837 H 0.03644 0.36337 0.86261 0.0
H1838 H 0.03799 0.35624 0.80077 0.0
H1839 H 0.0719 0.34746 0.80256 0.0
H1840 H 0.01708 0.38524 0.80775 0.0
H1841 H 0.01951 0.32085 0.83388 0.0
H1842 H 0.02905 0.29555 0.85699 0.0
H1843 H 0.00165 0.32674 0.90294 0.0
H1844 H 0.99214 0.35235 0.88012 0.0
H1845 H 0.92033 0.35684 0.78631 0.0
H1846 H 0.9551 0.35832 0.79229 0.0
H1847 H 0.9446 0.38367 0.84807 0.0
H1848 H 0.90974 0.38263 0.84204 0.0
H1849 H 0.96941 0.3495 0.84738 0.0
H1850 H 0.96305 0.41165 0.81744 0.0
H1851 H 0.95266 0.43427 0.79205 0.0
H1852 H 0.98681 0.40373 0.75039 0.0
H1853 H 0.99718 0.38074 0.77548 0.0
C1854 C 0.06349 0.35435 0.85055 0.0
C1855 C 0.07379 0.34966 0.83373 0.0
C1856 C 0.04406 0.35983 0.84944 0.0
C1857 C 0.03445 0.36019 0.83156 0.0
C1858 C 0.04498 0.35612 0.81475 0.0
C1859 C 0.06442 0.35103 0.81581 0.0
C1860 C 0.01332 0.36401 0.83018 0.0
C1861 C 0.0067 0.37732 0.81638 0.0
C1862 C 0.99964 0.35399 0.84162 0.0
C1863 C 0.00533 0.33862 0.85535 0.0
C1864 C 0.01564 0.32238 0.84894 0.0
C1865 C 0.02102 0.30797 0.86198 0.0
C1866 C 0.01602 0.30957 0.88143 0.0
C1867 C 0.00556 0.32555 0.88788 0.0
C1868 C 1.00017 0.34001 0.8749 0.0
C1869 C 0.92542 0.363 0.79973 0.0
C1870 C 0.91231 0.36962 0.8137 0.0
C1871 C 0.94528 0.36386 0.80311 0.0
C1872 C 0.95238 0.37112 0.82061 0.0
C1873 C 0.93937 0.37805 0.83447 0.0
C1874 C 0.91949 0.37753 0.83095 0.0
C1875 C 0.97335 0.37036 0.82475 0.0
C1876 C 0.97988 0.3576 0.83902 0.0
C1877 C 0.98691 0.38051 0.81343 0.0
C1878 C 0.98078 0.39438 0.79833 0.0
C1879 C 0.96822 0.40965 0.80284 0.0
C1880 C 0.96236 0.42256 0.7885 0.0
C1881 C 0.96904 0.42041 0.76962 0.0
C1882 C 0.98164 0.40537 0.76503 0.0
C1883 C 0.98753 0.39241 0.77931 0.0
H1884 H 0.96449 0.43042 0.75854 0.0
H1885 H 0.02019 0.2984 0.89151 0.0
H1886 H 0.42977 0.64262 0.30633 0.0
H1887 H 0.46413 0.63528 0.30664 0.0
H1888 H 0.46748 0.65271 0.36627 0.0
H1889 H 0.43298 0.6604 0.36598 0.0
H1890 H 0.49487 0.66961 0.34597 0.0
H1891 H 0.47307 0.60516 0.35333 0.0
H1892 H 0.45367 0.57619 0.34634 0.0
H1893 H 0.47846 0.57286 0.28969 0.0
H1894 H 0.49782 0.60198 0.29623 0.0
H1895 H 0.59225 0.61417 0.33532 0.0
H1896 H 0.55759 0.61354 0.34249 0.0
H1897 H 0.54909 0.66296 0.30571 0.0
H1898 H 0.58354 0.66384 0.29867 0.0
H1899 H 0.52506 0.60982 0.32077 0.0
H1900 H 0.51691 0.69298 0.32594 0.0
H1901 H 0.53655 0.72123 0.335 0.0
H1902 H 0.57183 0.6855 0.37123 0.0
H1903 H 0.55224 0.6571 0.36261 0.0
C1904 C 0.43771 0.64463 0.31962 0.0
C1905 C 0.42862 0.65216 0.33612 0.0
C1906 C 0.45738 0.64031 0.3198 0.0
C1907 C 0.46841 0.6433 0.33651 0.0
C1908 C 0.45926 0.65026 0.35321 0.0
C1909 C 0.43953 0.65458 0.35305 0.0
C1910 C 0.48969 0.64067 0.33593 0.0
C1911 C 0.50144 0.65647 0.34061 0.0
C1912 C 0.49836 0.62343 0.32923 0.0
C1913 C 0.48681 0.60585 0.32524 0.0
C1914 C 0.47429 0.59834 0.33933 0.0
C1915 C 0.46331 0.58187 0.33546 0.0
C1916 C 0.46481 0.57271 0.31757 0.0
C1917 C 0.47732 0.57998 0.30354 0.0
C1918 C 0.48832 0.59645 0.30733 0.0
C1919 C 0.58296 0.6248 0.32865 0.0
C1920 C 0.59069 0.63915 0.31654 0.0
C1921 C 0.56317 0.62441 0.33275 0.0
C1922 C 0.55081 0.6384 0.3249 0.0
C1923 C 0.5584 0.65224 0.31222 0.0
C1924 C 0.57812 0.65267 0.30815 0.0
C1925 C 0.53005 0.63898 0.33019 0.0
C1926 C 0.51844 0.62285 0.32636 0.0
C1927 C 0.5215 0.65581 0.33798 0.0
C1928 C 0.53318 0.67289 0.3435 0.0
C1929 C 0.5288 0.69117 0.33592 0.0
C1930 C 0.53993 0.70721 0.34096 0.0
C1931 C 0.55546 0.70516 0.35365 0.0
C1932 C 0.55984 0.68707 0.36136 0.0
C1933 C 0.54873 0.67099 0.35638 0.0
H1934 H 0.56407 0.71759 0.35752 0.0
H1935 H 0.4563 0.55997 0.3146 0.0
H1936 H 0.1594 0.4087 0.12123 0.0
H1937 H 0.15435 0.44356 0.12084 0.0
H1938 H 0.21347 0.45234 0.13833 0.0
H1939 H 0.21823 0.41745 0.1397 0.0
H1940 H 0.19256 0.47359 0.15908 0.0
H1941 H 0.19482 0.46299 0.09094 0.0
H1942 H 0.18597 0.44784 0.06 0.0
H1943 H 0.12758 0.46731 0.06678 0.0
H1944 H 0.13602 0.48237 0.09789 0.0
H1945 H 0.19865 0.5733 0.14028 0.0
H1946 H 0.20137 0.53893 0.13323 0.0
H1947 H 0.14004 0.53223 0.14077 0.0
H1948 H 0.13716 0.56675 0.14831 0.0
H1949 H 0.16083 0.51063 0.10671 0.0
H1950 H 0.16022 0.52045 0.17621 0.0
H1951 H 0.17106 0.53655 0.20601 0.0
H1952 H 0.22936 0.51903 0.19463 0.0
H1953 H 0.21889 0.50309 0.16457 0.0
C1954 C 0.1714 0.41808 0.1247 0.0
C1955 C 0.18922 0.41034 0.13051 0.0
C1956 C 0.16853 0.43806 0.1244 0.0
C1957 C 0.18357 0.45073 0.12938 0.0
C1958 C 0.20158 0.44295 0.1345 0.0
C1959 C 0.20434 0.42298 0.1352 0.0
C1960 C 0.18025 0.47195 0.13053 0.0
C1961 C 0.18585 0.48162 0.14745 0.0
C1962 C 0.17111 0.48257 0.11561 0.0
C1963 C 0.16602 0.47365 0.09684 0.0
C1964 C 0.18006 0.46392 0.0859 0.0
C1965 C 0.17512 0.45537 0.06832 0.0
C1966 C 0.15621 0.45656 0.06146 0.0
C1967 C 0.14222 0.46637 0.07213 0.0
C1968 C 0.14707 0.47494 0.08972 0.0
C1969 C 0.18564 0.56465 0.14011 0.0
C1970 C 0.16768 0.57276 0.14498 0.0
C1971 C 0.18725 0.545 0.13607 0.0
C1972 C 0.17093 0.53309 0.13655 0.0
C1973 C 0.15278 0.54126 0.14027 0.0
C1974 C 0.15118 0.56094 0.14462 0.0
C1975 C 0.17329 0.51192 0.13507 0.0
C1976 C 0.1675 0.50239 0.11821 0.0
C1977 C 0.18253 0.5014 0.14987 0.0
C1978 C 0.1888 0.51076 0.16805 0.0
C1979 C 0.17538 0.52019 0.17997 0.0
C1980 C 0.18145 0.52925 0.19693 0.0
C1981 C 0.2009 0.52886 0.20218 0.0
C1982 C 0.21431 0.51935 0.19053 0.0
C1983 C 0.20831 0.51028 0.17354 0.0
H1984 H 0.20558 0.53589 0.21531 0.0
H1985 H 0.15242 0.44991 0.04785 0.0
H1986 H 0.64021 0.93395 0.8385 0.0
H1987 H 0.64221 0.96848 0.84574 0.0
H1988 H 0.70016 0.96077 0.86698 0.0
H1989 H 0.69823 0.92634 0.85999 0.0
H1990 H 0.6808 0.98714 0.8885 0.0
H1991 H 0.69302 0.97429 0.82116 0.0
H1992 H 0.68533 0.9614 0.78891 0.0
H1993 H 0.63477 0.99706 0.78637 0.0
H1994 H 0.64204 0.00997 0.81874 0.0
H1995 H 0.71281 0.08298 0.8393 0.0
H1996 H 0.70673 0.04835 0.83962 0.0
H1997 H 0.66508 0.05586 0.88523 0.0
H1998 H 0.67128 0.09067 0.88517 0.0
H1999 H 0.67441 0.0297 0.83133 0.0
H2000 H 0.66449 0.01377 0.91246 0.0
H2001 H 0.67561 0.02609 0.94394 0.0
H2002 H 0.72743 0.04751 0.91762 0.0
H2003 H 0.71673 0.03511 0.88605 0.0
C2004 C 0.65323 0.93954 0.84507 0.0
C2005 C 0.66913 0.92743 0.84848 0.0
C2006 C 0.65437 0.95929 0.84914 0.0
C2007 C 0.67144 0.96724 0.85666 0.0
C2008 C 0.68686 0.95497 0.86117 0.0
C2009 C 0.68575 0.93528 0.85708 0.0
C2010 C 0.67398 0.98845 0.85823 0.0
C2011 C 0.67922 0.99649 0.87606 0.0
C2012 C 0.6723 1.00061 0.84192 0.0
C2013 C 0.66795 0.99292 0.82244 0.0
C2014 C 0.68018 0.97927 0.81378 0.0
C2015 C 0.67592 0.97197 0.79547 0.0
C2016 C 0.65954 0.97836 0.78562 0.0
C2017 C 0.64743 0.9921 0.79403 0.0
C2018 C 0.65161 0.99941 0.81235 0.0
C2019 C 0.70248 0.07729 0.84955 0.0
C2020 C 0.69252 0.08961 0.8622 0.0
C2021 C 0.69896 0.05747 0.84965 0.0
C2022 C 0.68544 0.04948 0.86242 0.0
C2023 C 0.6757 0.06167 0.87536 0.0
C2024 C 0.67925 0.08157 0.87529 0.0
C2025 C 0.68124 0.02847 0.86163 0.0
C2026 C 0.67569 0.02045 0.84389 0.0
C2027 C 0.68303 0.01632 0.87794 0.0
C2028 C 0.68969 0.02372 0.89686 0.0
C2029 C 0.67827 0.02108 0.91341 0.0
C2030 C 0.6845 0.02807 0.93126 0.0
C2031 C 0.70218 0.03765 0.93276 0.0
C2032 C 0.7137 0.04018 0.91642 0.0
C2033 C 0.70755 0.03319 0.89854 0.0
H2034 H 0.70697 0.04306 0.9466 0.0
H2035 H 0.65626 0.9727 0.77145 0.0
H2036 H 0.86574 0.06981 0.35226 0.0
H2037 H 0.8639 0.03588 0.36202 0.0
H2038 H 0.8018 0.03814 0.35809 0.0
H2039 H 0.80353 0.07205 0.34933 0.0
H2040 H 0.81013 0.01685 0.38659 0.0
H2041 H 0.83263 0.01974 0.32088 0.0
H2042 H 0.85438 0.02932 0.2944 0.0
H2043 H 0.90171 1.00109 0.32264 0.0
H2044 H 0.88027 0.99155 0.34941 0.0
H2045 H 0.78602 0.92071 0.35832 0.0
H2046 H 0.79249 0.95539 0.35988 0.0
H2047 H 0.84945 0.94396 0.38202 0.0
H2048 H 0.84294 0.90918 0.38091 0.0
H2049 H 0.84716 0.9692 0.34818 0.0
H2050 H 0.82069 0.96241 0.41184 0.0
H2051 H 0.79651 0.95203 0.43576 0.0
H2052 H 0.75358 0.98698 0.40802 0.0
H2053 H 0.77744 0.99735 0.38375 0.0
C2054 C 0.85171 0.0631 0.35377 0.0
C2055 C 0.83479 0.0736 0.34993 0.0
C2056 C 0.85066 0.04366 0.35921 0.0
C2057 C 0.83271 0.03424 0.36043 0.0
C2058 C 0.81583 0.04497 0.35729 0.0
C2059 C 0.81685 0.06442 0.35221 0.0
C2060 C 0.8313 0.0131 0.36411 0.0
C2061 C 0.81819 0.00647 0.3781 0.0
C2062 C 0.84201 0.99942 0.35331 0.0
C2063 C 0.85492 0.00515 0.33725 0.0
C2064 C 0.84771 0.01571 0.32151 0.0
C2065 C 0.85997 0.02111 0.30644 0.0
C2066 C 0.87943 0.01587 0.30687 0.0
C2067 C 0.88665 0.00518 0.32235 0.0
C2068 C 0.87445 0.99976 0.33747 0.0
C2069 C 0.79982 0.92558 0.36379 0.0
C2070 C 0.81397 0.91223 0.3695 0.0
C2071 C 0.80348 0.94538 0.3647 0.0
C2072 C 0.82143 0.9522 0.37108 0.0
C2073 C 0.83549 0.93895 0.37709 0.0
C2074 C 0.83171 0.91912 0.37653 0.0
C2075 C 0.82578 0.97312 0.37033 0.0
C2076 C 0.83938 0.97965 0.35686 0.0
C2077 C 0.81519 0.98668 0.38125 0.0
C2078 C 0.80083 0.98054 0.39588 0.0
C2079 C 0.80606 0.96776 0.41074 0.0
C2080 C 0.79241 0.9619 0.42438 0.0
C2081 C 0.77351 0.96881 0.42339 0.0
C2082 C 0.76822 0.98163 0.40877 0.0
C2083 C 0.78181 0.98752 0.39508 0.0
H2084 H 0.76297 0.96426 0.43397 0.0
H2085 H 0.8889 0.02006 0.29518 0.0
H2086 H 0.35905 0.43689 0.66778 0.0
H2087 H 0.35608 0.47153 0.66172 0.0
H2088 H 0.30494 0.46124 0.62779 0.0
H2089 H 0.30745 0.42672 0.63438 0.0
H2090 H 0.35526 0.49609 0.633 0.0
H2091 H 0.27175 0.49529 0.63671 0.0
H2092 H 0.24566 0.47574 0.65103 0.0
H2093 H 0.28425 0.45612 0.69531 0.0
H2094 H 0.31047 0.47574 0.68141 0.0
H2095 H 0.32299 0.5918 0.61329 0.0
H2096 H 0.32746 0.55675 0.61228 0.0
H2097 H 0.30676 0.55247 0.67084 0.0
H2098 H 0.30151 0.58716 0.67161 0.0
H2099 H 0.29254 0.5247 0.65217 0.0
H2100 H 0.35643 0.55061 0.65789 0.0
H2101 H 0.38432 0.5707 0.6487 0.0
H2102 H 0.38806 0.54123 0.59436 0.0
H2103 H 0.36002 0.52112 0.60314 0.0
C2104 C 0.34737 0.44198 0.65875 0.0
C2105 C 0.33334 0.42912 0.65177 0.0
C2106 C 0.34569 0.4618 0.65528 0.0
C2107 C 0.33004 0.46906 0.64466 0.0
C2108 C 0.31688 0.45604 0.63642 0.0
C2109 C 0.31838 0.43629 0.64013 0.0
C2110 C 0.32662 0.49022 0.64351 0.0
C2111 C 0.34151 0.50235 0.63708 0.0
C2112 C 0.30885 0.49849 0.64928 0.0
C2113 C 0.29311 0.48681 0.65787 0.0
C2114 C 0.27464 0.48684 0.64953 0.0
C2115 C 0.25983 0.47575 0.65758 0.0
C2116 C 0.26332 0.46464 0.67403 0.0
C2117 C 0.28159 0.46467 0.68253 0.0
C2118 C 0.29643 0.47576 0.67456 0.0
C2119 C 0.31927 0.58333 0.62588 0.0
C2120 C 0.31189 0.59226 0.64252 0.0
C2121 C 0.32196 0.56331 0.62534 0.0
C2122 C 0.31772 0.55191 0.64159 0.0
C2123 C 0.3101 0.56085 0.65809 0.0
C2124 C 0.30713 0.58075 0.65852 0.0
C2125 C 0.32117 0.53069 0.64164 0.0
C2126 C 0.30624 0.5185 0.64786 0.0
C2127 C 0.33915 0.52248 0.63639 0.0
C2128 C 0.35601 0.53452 0.63108 0.0
C2129 C 0.36312 0.54852 0.64392 0.0
C2130 C 0.37896 0.55989 0.6388 0.0
C2131 C 0.38792 0.55729 0.62093 0.0
C2132 C 0.38108 0.54326 0.60818 0.0
C2133 C 0.36523 0.53186 0.61323 0.0
H2134 H 0.40019 0.5661 0.61699 0.0
H2135 H 0.25185 0.45605 0.68022 0.0
H2136 H 0.86156 0.80391 0.42557 0.0
H2137 H 0.86865 0.8013 0.45994 0.0
H2138 H 0.86127 0.86265 0.46642 0.0
H2139 H 0.85367 0.86543 0.43192 0.0
H2140 H 0.89569 0.83956 0.48848 0.0
H2141 H 0.82595 0.84541 0.47845 0.0
H2142 H 0.79586 0.83655 0.46166 0.0
H2143 H 0.80398 0.77729 0.47772 0.0
H2144 H 0.8343 0.78578 0.49434 0.0
H2145 H 0.88105 0.83965 0.59073 0.0
H2146 H 0.88184 0.84586 0.55601 0.0
H2147 H 0.85941 0.78875 0.54533 0.0
H2148 H 0.85764 0.78295 0.58001 0.0
H2149 H 0.8406 0.8117 0.52473 0.0
H2150 H 0.90834 0.80382 0.53554 0.0
H2151 H 0.93988 0.80985 0.55083 0.0
H2152 H 0.93785 0.86896 0.53249 0.0
H2153 H 0.90616 0.86334 0.5173 0.0
C2154 C 0.86184 0.81696 0.43415 0.0
C2155 C 0.85691 0.83488 0.42601 0.0
C2156 C 0.86591 0.81541 0.4538 0.0
C2157 C 0.86542 0.83176 0.46565 0.0
C2158 C 0.86179 0.84989 0.45742 0.0
C2159 C 0.8574 0.85143 0.43775 0.0
C2160 C 0.86645 0.82939 0.48684 0.0
C2161 C 0.88361 0.83377 0.49657 0.0
C2162 C 0.85086 0.82125 0.49712 0.0
C2163 C 0.83247 0.8162 0.48745 0.0
C2164 C 0.8214 0.83047 0.47825 0.0
C2165 C 0.80429 0.82552 0.46879 0.0
C2166 C 0.79804 0.80636 0.46857 0.0
C2167 C 0.80885 0.79212 0.47787 0.0
C2168 C 0.82599 0.797 0.48732 0.0
C2169 C 0.87654 0.82835 0.58093 0.0
C2170 C 0.86925 0.81083 0.58807 0.0
C2171 C 0.87707 0.83188 0.56105 0.0
C2172 C 0.87083 0.81774 0.5479 0.0
C2173 C 0.8642 0.79997 0.55509 0.0
C2174 C 0.86327 0.79662 0.57494 0.0
C2175 C 0.87002 0.82173 0.52677 0.0
C2176 C 0.8528 0.81761 0.5169 0.0
C2177 C 0.88572 0.82979 0.51637 0.0
C2178 C 0.90478 0.8332 0.52546 0.0
C2179 C 0.91455 0.81814 0.5349 0.0
C2180 C 0.93246 0.82148 0.54352 0.0
C2181 C 0.94084 0.83979 0.54268 0.0
C2182 C 0.93133 0.85479 0.53316 0.0
C2183 C 0.9134 0.85153 0.52452 0.0
H2184 H 0.95471 0.84234 0.54937 0.0
H2185 H 0.7848 0.80256 0.46123 0.0
H2186 H 0.65323 0.20101 0.9283 0.0
H2187 H 0.64595 0.20307 0.96265 0.0
H2188 H 0.64838 0.14113 0.96718 0.0
H2189 H 0.65608 0.13887 0.93264 0.0
H2190 H 0.61573 0.1635 0.98879 0.0
H2191 H 0.68515 0.15855 0.98047 0.0
H2192 H 0.71604 0.16777 0.96542 0.0
H2193 H 0.70839 0.22611 0.98471 0.0
H2194 H 0.67728 0.21729 0.99961 0.0
H2195 H 0.62616 0.16132 0.09151 0.0
H2196 H 0.62689 0.15583 0.05667 0.0
H2197 H 0.64882 0.21349 0.04808 0.0
H2198 H 0.64906 0.21859 0.08292 0.0
H2199 H 0.66894 0.19101 0.02795 0.0
H2200 H 0.60064 0.19802 0.03597 0.0
H2201 H 0.56854 0.19128 0.04974 0.0
H2202 H 0.57214 0.1326 0.03032 0.0
H2203 H 0.60439 0.13892 0.01664 0.0
C2204 C 0.65192 0.18776 0.93646 0.0
C2205 C 0.65536 0.16976 0.92775 0.0
C2206 C 0.64775 0.18899 0.9561 0.0
C2207 C 0.64672 0.17227 0.9674 0.0
C2208 C 0.64907 0.15418 0.95862 0.0
C2209 C 0.65352 0.15293 0.93894 0.0
C2210 C 0.6449 0.17403 0.98859 0.0
C2211 C 0.6274 0.16921 0.9975 0.0
C2212 C 0.65998 0.18203 0.9997 0.0
C2213 C 0.67881 0.1873 0.99098 0.0
C2214 C 0.68998 0.17338 0.98135 0.0
C2215 C 0.70754 0.17853 0.97288 0.0
C2216 C 0.71416 0.19753 0.97406 0.0
C2217 C 0.70324 0.21141 0.98378 0.0
C2218 C 0.68565 0.20633 0.99226 0.0
C2219 C 0.63087 0.1729 0.08214 0.0
C2220 C 0.63759 0.19037 0.08991 0.0
C2221 C 0.63122 0.16978 0.06219 0.0
C2222 C 0.63777 0.18429 0.04961 0.0
C2223 C 0.64381 0.202 0.05741 0.0
C2224 C 0.64386 0.20495 0.07734 0.0
C2225 C 0.63955 0.18074 0.02847 0.0
C2226 C 0.65715 0.18521 0.01946 0.0
C2227 C 0.6244 0.17273 0.01727 0.0
C2228 C 0.60502 0.16889 0.02547 0.0
C2229 C 0.59466 0.18363 0.03477 0.0
C2230 C 0.57642 0.1799 0.04253 0.0
C2231 C 0.56833 0.16151 0.04095 0.0
C2232 C 0.57844 0.14683 0.03156 0.0
C2233 C 0.59669 0.15048 0.02378 0.0
H2234 H 0.55421 0.15865 0.04697 0.0
H2235 H 0.72775 0.20149 0.96749 0.0
H2236 H 0.3309 0.69893 0.41671 0.0
H2237 H 0.3321 0.69495 0.45157 0.0
H2238 H 0.39052 0.67391 0.44735 0.0
H2239 H 0.38912 0.67718 0.41215 0.0
H2240 H 0.372 0.65297 0.47218 0.0
H2241 H 0.37983 0.7206 0.46381 0.0
H2242 H 0.37251 0.75313 0.45144 0.0
H2243 H 0.31735 0.75176 0.47958 0.0
H2244 H 0.32423 0.71911 0.49191 0.0
H2245 H 0.36462 0.69691 0.57749 0.0
H2246 H 0.37281 0.69914 0.54333 0.0
H2247 H 0.34001 0.64743 0.5321 0.0
H2248 H 0.33245 0.64472 0.56645 0.0
H2249 H 0.35069 0.7059 0.51529 0.0
H2250 H 0.3544 0.62551 0.49122 0.0
H2251 H 0.36546 0.59426 0.50413 0.0
H2252 H 0.40481 0.62346 0.542 0.0
H2253 H 0.39418 0.65486 0.52914 0.0
C2254 C 0.34407 0.69356 0.42316 0.0
C2255 C 0.35998 0.6885 0.41166 0.0
C2256 C 0.34476 0.69135 0.44316 0.0
C2257 C 0.36152 0.68446 0.45221 0.0
C2258 C 0.37744 0.67931 0.44074 0.0
C2259 C 0.37666 0.68126 0.42064 0.0
C2260 C 0.36218 0.68241 0.47358 0.0
C2261 C 0.36744 0.66457 0.48162 0.0
C2262 C 0.35669 0.69767 0.48601 0.0
C2263 C 0.3525 0.71734 0.47867 0.0
C2264 C 0.36609 0.72719 0.46726 0.0
C2265 C 0.36202 0.74566 0.46027 0.0
C2266 C 0.34446 0.75449 0.46469 0.0
C2267 C 0.33094 0.74489 0.47616 0.0
C2268 C 0.33493 0.72641 0.48317 0.0
C2269 C 0.35946 0.6858 0.56779 0.0
C2270 C 0.34788 0.67065 0.57465 0.0
C2271 C 0.3641 0.68713 0.54823 0.0
C2272 C 0.35708 0.67346 0.53503 0.0
C2273 C 0.34594 0.65798 0.54196 0.0
C2274 C 0.34156 0.65647 0.56162 0.0
C2275 C 0.36012 0.67631 0.51394 0.0
C2276 C 0.35547 0.69432 0.50592 0.0
C2277 C 0.36672 0.66139 0.50165 0.0
C2278 C 0.37336 0.64255 0.50932 0.0
C2279 C 0.36548 0.62526 0.50224 0.0
C2280 C 0.37166 0.60752 0.50956 0.0
C2281 C 0.38579 0.60688 0.52392 0.0
C2282 C 0.39381 0.62398 0.53093 0.0
C2283 C 0.3877 0.64175 0.52365 0.0
H2284 H 0.39054 0.59313 0.52958 0.0
H2285 H 0.34134 0.76879 0.45927 0.0
H2286 H 0.16708 0.35608 0.06715 0.0
H2287 H 0.15939 0.3527 0.03299 0.0
H2288 H 0.11626 0.30997 0.04684 0.0
H2289 H 0.12459 0.31266 0.08099 0.0
H2290 H 0.13631 0.29695 0.01951 0.0
H2291 H 0.1051 0.35723 0.02912 0.0
H2292 H 0.1018 0.39089 0.04008 0.0
H2293 H 0.14752 0.40813 0.00202 0.0
H2294 H 0.15128 0.37452 0.99101 0.0
H2295 H 0.10982 0.3272 0.91303 0.0
H2296 H 0.10698 0.33216 0.94794 0.0
H2297 H 0.15989 0.30062 0.95669 0.0
H2298 H 0.16252 0.29519 0.9221 0.0
H2299 H 0.12862 0.35062 0.97286 0.0
H2300 H 0.16004 0.27704 0.9983 0.0
H2301 H 0.16027 0.24305 0.98783 0.0
H2302 H 0.10755 0.25195 0.95661 0.0
H2303 H 0.10685 0.28592 0.9671 0.0
C2304 C 0.1557 0.34622 0.06296 0.0
C2305 C 0.14646 0.33461 0.07677 0.0
C2306 C 0.15124 0.34435 0.04338 0.0
C2307 C 0.13709 0.33119 0.03722 0.0
C2308 C 0.12727 0.32018 0.05114 0.0
C2309 C 0.13198 0.32179 0.07069 0.0
C2310 C 0.1337 0.32776 0.01626 0.0
C2311 C 0.13448 0.30872 0.00937 0.0
C2312 C 0.13091 0.34301 0.00293 0.0
C2313 C 0.12854 0.36331 0.00933 0.0
C2314 C 0.11452 0.36817 0.02316 0.0
C2315 C 0.11256 0.38726 0.02937 0.0
C2316 C 0.12446 0.40164 0.02178 0.0
C2317 C 0.13831 0.39698 0.0079 0.0
C2318 C 0.14034 0.37791 0.00164 0.0
C2319 C 0.12073 0.32116 0.92244 0.0
C2320 C 0.13633 0.31068 0.91478 0.0
C2321 C 0.11913 0.32408 0.94238 0.0
C2322 C 0.13308 0.31657 0.95502 0.0
C2323 C 0.1487 0.3062 0.94734 0.0
C2324 C 0.15022 0.30316 0.92749 0.0
C2325 C 0.13175 0.3199 0.97619 0.0
C2326 C 0.13017 0.33889 0.98308 0.0
C2327 C 0.13329 0.30457 0.9896 0.0
C2328 C 0.13348 0.28408 0.98339 0.0
C2329 C 0.14844 0.27172 0.98929 0.0
C2330 C 0.14867 0.25246 0.98333 0.0
C2331 C 0.13396 0.24536 0.97152 0.0
C2332 C 0.11897 0.25749 0.9657 0.0
C2333 C 0.11866 0.27675 0.97163 0.0
H2334 H 0.13417 0.23045 0.96692 0.0
H2335 H 0.12294 0.4164 0.02663 0.0
H2336 H 0.59108 0.89224 0.82438 0.0
H2337 H 0.5562 0.89397 0.82995 0.0
H2338 H 0.54951 0.83716 0.8054 0.0
H2339 H 0.58401 0.83573 0.7991 0.0
H2340 H 0.5217 0.85752 0.79366 0.0
H2341 H 0.55001 0.84654 0.85585 0.0
H2342 H 0.57141 0.85324 0.88346 0.0
H2343 H 0.54349 0.9078 0.89227 0.0
H2344 H 0.52207 0.90152 0.86455 0.0
H2345 H 0.43717 0.8374 0.86292 0.0
H2346 H 0.47158 0.84398 0.85884 0.0
H2347 H 0.45883 0.88126 0.81067 0.0
H2348 H 0.42449 0.87411 0.81421 0.0
H2349 H 0.49616 0.87244 0.85882 0.0
H2350 H 0.49151 0.87502 0.77546 0.0
H2351 H 0.4706 0.86292 0.74931 0.0
H2352 H 0.45227 0.81594 0.78527 0.0
H2353 H 0.47326 0.82761 0.81151 0.0
C2354 C 0.58211 0.88021 0.82003 0.0
C2355 C 0.59032 0.86384 0.81131 0.0
C2356 C 0.56219 0.88115 0.82334 0.0
C2357 C 0.55017 0.86557 0.81837 0.0
C2358 C 0.55838 0.84941 0.80934 0.0
C2359 C 0.57817 0.84859 0.80577 0.0
C2360 C 0.52911 0.86578 0.82269 0.0
C2361 C 0.51616 0.86091 0.8079 0.0
C2362 C 0.52176 0.86985 0.84133 0.0
C2363 C 0.5346 0.87366 0.858 0.0
C2364 C 0.54854 0.86003 0.86359 0.0
C2365 C 0.56065 0.86374 0.87927 0.0
C2366 C 0.55885 0.88096 0.88958 0.0
C2367 C 0.54489 0.89448 0.88425 0.0
C2368 C 0.53276 0.89085 0.86856 0.0
C2369 C 0.44166 0.8473 0.8517 0.0
C2370 C 0.42815 0.85504 0.83872 0.0
C2371 C 0.46136 0.85107 0.84938 0.0
C2372 C 0.46787 0.86276 0.83416 0.0
C2373 C 0.45422 0.87179 0.82222 0.0
C2374 C 0.43457 0.86778 0.82432 0.0
C2375 C 0.48886 0.86413 0.82979 0.0
C2376 C 0.50174 0.8693 0.84454 0.0
C2377 C 0.49626 0.8596 0.81129 0.0
C2378 C 0.48377 0.85233 0.79551 0.0
C2379 C 0.48306 0.86208 0.77775 0.0
C2380 C 0.47119 0.85529 0.76292 0.0
C2381 C 0.46006 0.83871 0.76566 0.0
C2382 C 0.46084 0.82882 0.7832 0.0
C2383 C 0.47271 0.83552 0.79805 0.0
H2384 H 0.45087 0.8335 0.75417 0.0
H2385 H 0.56824 0.8838 0.90172 0.0
H2386 H 0.91232 0.12157 0.33913 0.0
H2387 H 0.94716 0.12137 0.34553 0.0
H2388 H 0.95758 0.14755 0.29011 0.0
H2389 H 0.92284 0.14825 0.28381 0.0
H2390 H 0.98366 0.11536 0.30127 0.0
H2391 H 0.95692 0.17617 0.32462 0.0
H2392 H 0.93455 0.19545 0.34443 0.0
H2393 H 0.95615 0.16837 0.39575 0.0
H2394 H 0.97847 0.14871 0.37618 0.0
H2395 H 0.0736 0.16077 0.30131 0.0
H2396 H 0.04015 0.15053 0.29932 0.0
H2397 H 0.03819 0.14413 0.36121 0.0
H2398 H 0.0717 0.15531 0.36336 0.0
H2399 H 0.00756 0.16152 0.35046 0.0
H2400 H 0.03756 0.10413 0.32885 0.0
H2401 H 0.05981 0.08369 0.31011 0.0
H2402 H 0.03238 0.10144 0.25752 0.0
H2403 H 0.01013 0.12221 0.2759 0.0
C2404 C 0.92207 0.12701 0.3282 0.0
C2405 C 0.91487 0.13499 0.311 0.0
C2406 C 0.94193 0.12693 0.3319 0.0
C2407 C 0.95488 0.1345 0.3183 0.0
C2408 C 0.94779 0.14161 0.30075 0.0
C2409 C 0.92796 0.14205 0.29721 0.0
C2410 C 0.97571 0.13625 0.32275 0.0
C2411 C 0.98897 0.12547 0.31196 0.0
C2412 C 0.98251 0.14893 0.33719 0.0
C2413 C 0.96917 0.1608 0.34893 0.0
C2414 C 0.95676 0.17419 0.34011 0.0
C2415 C 0.94412 0.18522 0.35129 0.0
C2416 C 0.94388 0.18309 0.37133 0.0
C2417 C 0.95632 0.16997 0.38023 0.0
C2418 C 0.96897 0.15889 0.3691 0.0
C2419 C 0.06618 0.15696 0.31452 0.0
C2420 C 0.07536 0.1588 0.3325 0.0
C2421 C 0.04701 0.15095 0.31335 0.0
C2422 C 0.03663 0.14615 0.33007 0.0
C2423 C 0.04587 0.14766 0.34807 0.0
C2424 C 0.06504 0.15399 0.34929 0.0
C2425 C 0.01582 0.14089 0.32867 0.0
C2426 C 0.00245 0.15106 0.34001 0.0
C2427 C 0.00894 0.12737 0.31493 0.0
C2428 C 0.02224 0.11483 0.30377 0.0
C2429 C 0.03635 0.10378 0.31328 0.0
C2430 C 0.04895 0.09211 0.30271 0.0
C2431 C 0.04753 0.09129 0.28263 0.0
C2432 C 0.03347 0.10209 0.27307 0.0
C2433 C 0.02083 0.11379 0.28356 0.0
H2434 H 0.05731 0.08225 0.27448 0.0
H2435 H 0.93409 0.19164 0.37997 0.0
H2436 H 0.08223 0.64562 0.2151 0.0
H2437 H 0.04735 0.64464 0.20998 0.0
H2438 H 0.05602 0.6171 0.15491 0.0
H2439 H 0.09103 0.61773 0.16007 0.0
H2440 H 0.03199 0.65085 0.15417 0.0
H2441 H 0.03728 0.59097 0.18831 0.0
H2442 H 0.04763 0.56972 0.21488 0.0
H2443 H 0.0156 0.60405 0.25526 0.0
H2444 H 0.00528 0.62567 0.22897 0.0
H2445 H 0.93019 0.64915 0.14086 0.0
H2446 H 0.96384 0.63835 0.14229 0.0
H2447 H 0.96513 0.65066 0.2033 0.0
H2448 H 0.9315 0.66052 0.20211 0.0
H2449 H 0.9844 0.61998 0.19778 0.0
H2450 H 0.98353 0.68236 0.16691 0.0
H2451 H 0.97412 0.70616 0.14221 0.0
H2452 H 0.99864 0.67041 0.09798 0.0
H2453 H 0.00799 0.64628 0.12243 0.0
C2454 C 0.07672 0.63908 0.20202 0.0
C2455 C 0.08938 0.63175 0.18798 0.0
C2456 C 0.05678 0.6385 0.19914 0.0
C2457 C 0.04912 0.63077 0.18208 0.0
C2458 C 0.06167 0.62309 0.16818 0.0
C2459 C 0.08164 0.62338 0.1712 0.0
C2460 C 0.02807 0.63187 0.17841 0.0
C2461 C 0.02153 0.64377 0.16342 0.0
C2462 C 0.01452 0.62306 0.19084 0.0
C2463 C 0.02062 0.61002 0.20667 0.0
C2464 C 0.03256 0.59408 0.20288 0.0
C2465 C 0.0384 0.58195 0.21789 0.0
C2466 C 0.0323 0.58555 0.23675 0.0
C2467 C 0.02032 0.60127 0.24064 0.0
C2468 C 0.01445 0.61346 0.22569 0.0
C2469 C 0.93763 0.64931 0.15459 0.0
C2470 C 0.9282 0.65575 0.17135 0.0
C2471 C 0.9569 0.64326 0.15539 0.0
C2472 C 0.96722 0.644 0.17285 0.0
C2473 C 0.95757 0.6499 0.18965 0.0
C2474 C 0.93829 0.6556 0.18893 0.0
C2475 C 0.9882 0.63937 0.17377 0.0
C2476 C 0.99478 0.62682 0.18827 0.0
C2477 C 0.00184 0.64794 0.16116 0.0
C2478 C 0.99623 0.66242 0.14646 0.0
C2479 C 0.98678 0.67951 0.1519 0.0
C2480 C 0.98148 0.69307 0.13795 0.0
C2481 C 0.98572 0.68977 0.11853 0.0
C2482 C 0.99532 0.67292 0.11302 0.0
C2483 C 1.00063 0.65931 0.12692 0.0
H2484 H 0.98161 0.70028 0.10775 0.0
H2485 H 0.03684 0.57614 0.24835 0.0
H2486 H 0.40881 0.39054 0.66788 0.0
H2487 H 0.44345 0.39121 0.66069 0.0
H2488 H 0.45269 0.34454 0.70073 0.0
H2489 H 0.41824 0.34367 0.70789 0.0
H2490 H 0.47635 0.39652 0.68223 0.0
H2491 H 0.48468 0.31332 0.68137 0.0
H2492 H 0.46499 0.28454 0.67431 0.0
H2493 H 0.42891 0.31803 0.63677 0.0
H2494 H 0.44854 0.34694 0.64337 0.0
H2495 H 0.57236 0.36452 0.6954 0.0
H2496 H 0.53801 0.37195 0.69584 0.0
H2497 H 0.53273 0.35183 0.63721 0.0
H2498 H 0.56721 0.34406 0.63675 0.0
H2499 H 0.50621 0.33564 0.65932 0.0
H2500 H 0.52741 0.39986 0.64819 0.0
H2501 H 0.54684 0.42919 0.65331 0.0
H2502 H 0.52365 0.43498 0.71044 0.0
H2503 H 0.50426 0.40552 0.70577 0.0
C2504 C 0.41826 0.38056 0.67531 0.0
C2505 C 0.41074 0.36695 0.68835 0.0
C2506 C 0.43804 0.38099 0.67119 0.0
C2507 C 0.45059 0.36772 0.67994 0.0
C2508 C 0.44322 0.3547 0.69357 0.0
C2509 C 0.42351 0.35428 0.6977 0.0
C2510 C 0.47128 0.3669 0.67441 0.0
C2511 C 0.4829 0.38325 0.67716 0.0
C2512 C 0.47973 0.34972 0.66732 0.0
C2513 C 0.468 0.33233 0.663 0.0
C2514 C 0.47261 0.31452 0.67153 0.0
C2515 C 0.46144 0.29819 0.66762 0.0
C2516 C 0.44568 0.29947 0.65514 0.0
C2517 C 0.44108 0.31707 0.64648 0.0
C2518 C 0.45221 0.33344 0.65032 0.0
C2519 C 0.56399 0.36197 0.68246 0.0
C2520 C 0.57253 0.35362 0.66605 0.0
C2521 C 0.54433 0.36632 0.68271 0.0
C2522 C 0.53276 0.36256 0.66653 0.0
C2523 C 0.54137 0.35487 0.64987 0.0
C2524 C 0.5611 0.35051 0.6496 0.0
C2525 C 0.51149 0.36509 0.66771 0.0
C2526 C 0.49971 0.34901 0.66419 0.0
C2527 C 0.50291 0.3826 0.67381 0.0
C2528 C 0.51447 0.40039 0.67666 0.0
C2529 C 0.52655 0.40731 0.6619 0.0
C2530 C 0.53754 0.42397 0.66471 0.0
C2531 C 0.53651 0.43393 0.6822 0.0
C2532 C 0.52444 0.42725 0.6969 0.0
C2533 C 0.51342 0.41059 0.69416 0.0
H2534 H 0.54503 0.44683 0.68435 0.0
H2535 H 0.43704 0.28681 0.65215 0.0
H2536 H 0.79119 0.58302 0.84405 0.0
H2537 H 0.79685 0.54832 0.84522 0.0
H2538 H 0.84103 0.55678 0.88819 0.0
H2539 H 0.83526 0.59162 0.8873 0.0
H2540 H 0.82841 0.52914 0.8357 0.0
H2541 H 0.8432 0.51579 0.91659 0.0
H2542 H 0.83395 0.52917 0.94825 0.0
H2543 H 0.78065 0.54971 0.92435 0.0
H2544 H 0.78947 0.53626 0.89263 0.0
H2545 H 0.8648 0.43473 0.84354 0.0
H2546 H 0.8625 0.46928 0.85042 0.0
H2547 H 0.8059 0.46076 0.87478 0.0
H2548 H 0.80814 0.42626 0.86814 0.0
H2549 H 0.82586 0.48842 0.89451 0.0
H2550 H 0.81007 0.47304 0.82849 0.0
H2551 H 0.81618 0.45909 0.79635 0.0
H2552 H 0.8658 0.49554 0.7896 0.0
H2553 H 0.86014 0.50951 0.82185 0.0
C2554 C 0.80198 0.57752 0.85392 0.0
C2555 C 0.81279 0.59011 0.86557 0.0
C2556 C 0.80525 0.55766 0.85451 0.0
C2557 C 0.81936 0.54991 0.86678 0.0
C2558 C 0.82993 0.56239 0.87874 0.0
C2559 C 0.82663 0.58231 0.87819 0.0
C2560 C 0.8234 0.52886 0.86638 0.0
C2561 C 0.82794 0.52029 0.84861 0.0
C2562 C 0.82267 0.51723 0.88315 0.0
C2563 C 0.81712 0.52521 0.9022 0.0
C2564 C 0.82949 0.52312 0.91811 0.0
C2565 C 0.82432 0.53072 0.93606 0.0
C2566 C 0.80676 0.54035 0.93829 0.0
C2567 C 0.79429 0.54233 0.92258 0.0
C2568 C 0.79938 0.53475 0.90461 0.0
C2569 C 0.85205 0.44014 0.85077 0.0
C2570 C 0.83656 0.42777 0.85509 0.0
C2571 C 0.85073 0.4599 0.85463 0.0
C2572 C 0.8339 0.46764 0.86284 0.0
C2573 C 0.819 0.45512 0.86841 0.0
C2574 C 0.82029 0.43539 0.86453 0.0
C2575 C 0.83091 0.48882 0.86386 0.0
C2576 C 0.82658 0.49738 0.8817 0.0
C2577 C 0.83145 0.50044 0.84709 0.0
C2578 C 0.83481 0.49216 0.82765 0.0
C2579 C 0.82237 0.47797 0.82021 0.0
C2580 C 0.82573 0.47008 0.80197 0.0
C2581 C 0.8414 0.47638 0.79096 0.0
C2582 C 0.8537 0.49064 0.79816 0.0
C2583 C 0.85041 0.49856 0.81641 0.0
H2584 H 0.84398 0.47026 0.77684 0.0
H2585 H 0.80279 0.54623 0.95219 0.0
H2586 H 0.33768 0.90777 0.12105 0.0
H2587 H 0.34473 0.94245 0.11971 0.0
H2588 H 0.28892 0.95479 0.14419 0.0
H2589 H 0.28196 0.92021 0.14602 0.0
H2590 H 0.30125 0.97922 0.11107 0.0
H2591 H 0.32284 0.95489 0.17355 0.0
H2592 H 0.34192 0.93311 0.1942 0.0
H2593 H 0.39412 0.95287 0.16733 0.0
H2594 H 0.37529 0.97458 0.14631 0.0
H2595 H 0.30169 0.0713 0.1517 0.0
H2596 H 0.2994 0.03744 0.14311 0.0
H2597 H 0.36145 0.03408 0.13908 0.0
H2598 H 0.36384 0.06805 0.14873 0.0
H2599 H 0.34975 0.00451 0.15722 0.0
H2600 H 0.33003 0.03206 0.09794 0.0
H2601 H 0.31218 0.05359 0.076 0.0
H2602 H 0.2587 0.02788 0.09375 0.0
H2603 H 0.27619 0.00637 0.11601 0.0
C2604 C 0.32682 0.91789 0.1259 0.0
C2605 C 0.30929 0.9113 0.13371 0.0
C2606 C 0.33089 0.93767 0.12516 0.0
C2607 C 0.31736 0.95113 0.1319 0.0
C2608 C 0.29952 0.94461 0.13889 0.0
C2609 C 0.2956 0.92486 0.13998 0.0
C2610 C 0.3221 0.97195 0.13282 0.0
C2611 C 0.31179 0.98485 0.12118 0.0
C2612 C 0.33636 0.97911 0.1455 0.0
C2613 C 0.34765 0.96615 0.1582 0.0
C2614 C 0.33837 0.95445 0.17192 0.0
C2615 C 0.34914 0.94215 0.18372 0.0
C2616 C 0.36922 0.94156 0.18203 0.0
C2617 C 0.37857 0.95331 0.16859 0.0
C2618 C 0.36786 0.96562 0.15674 0.0
C2619 C 0.31488 0.06348 0.14874 0.0
C2620 C 0.33296 0.07242 0.15082 0.0
C2621 C 0.31354 0.04406 0.14367 0.0
C2622 C 0.33022 0.03316 0.14001 0.0
C2623 C 0.34834 0.04215 0.14173 0.0
C2624 C 0.3497 0.06159 0.14718 0.0
C2625 C 0.32859 0.01214 0.13571 0.0
C2626 C 0.33946 0.99908 0.14677 0.0
C2627 C 0.31506 0.00483 0.1222 0.0
C2628 C 0.30444 0.01766 0.10874 0.0
C2629 C 0.31445 0.03107 0.09726 0.0
C2630 C 0.30439 0.04327 0.08475 0.0
C2631 C 0.28431 0.04213 0.0835 0.0
C2632 C 0.27425 0.02875 0.09473 0.0
C2633 C 0.28424 0.01653 0.10727 0.0
H2634 H 0.27655 0.05159 0.07381 0.0
H2635 H 0.37753 0.93203 0.19118 0.0
H2636 H 0.13853 0.9335 0.65541 0.0
H2637 H 0.14156 0.96779 0.64686 0.0
H2638 H 0.20348 0.96244 0.64697 0.0
H2639 H 0.20067 0.9283 0.65501 0.0
H2640 H 0.18504 0.99212 0.67288 0.0
H2641 H 0.18691 0.96833 0.60698 0.0
H2642 H 0.17372 0.95051 0.57919 0.0
H2643 H 0.12323 0.98635 0.57974 0.0
H2644 H 0.13601 0.00421 0.60775 0.0
H2645 H 0.21906 0.08304 0.64779 0.0
H2646 H 0.21368 0.04825 0.64813 0.0
H2647 H 0.15601 0.05682 0.62633 0.0
H2648 H 0.16173 0.09168 0.62505 0.0
H2649 H 0.1695 0.02538 0.61146 0.0
H2650 H 0.16558 0.04949 0.67556 0.0
H2651 H 0.17579 0.06728 0.70461 0.0
H2652 H 0.22574 0.03104 0.70965 0.0
H2653 H 0.21598 0.0132 0.68046 0.0
C2654 C 0.15277 0.93955 0.65322 0.0
C2655 C 0.16936 0.92819 0.65594 0.0
C2656 C 0.15446 0.95911 0.64833 0.0
C2657 C 0.17274 0.96757 0.64635 0.0
C2658 C 0.18926 0.95612 0.64843 0.0
C2659 C 0.18759 0.93659 0.65298 0.0
C2660 C 0.17488 0.98865 0.64379 0.0
C2661 C 0.18186 0.99941 0.6594 0.0
C2662 C 0.16995 0.99815 0.62646 0.0
C2663 C 0.16231 0.98745 0.60961 0.0
C2664 C 0.1729 0.97228 0.60132 0.0
C2665 C 0.16553 0.9622 0.58549 0.0
C2666 C 0.14762 0.96725 0.57774 0.0
C2667 C 0.13708 0.98243 0.58578 0.0
C2668 C 0.14439 0.99254 0.60162 0.0
C2669 C 0.20532 0.07749 0.64283 0.0
C2670 C 0.19075 0.09007 0.63656 0.0
C2671 C 0.2022 0.0576 0.64315 0.0
C2672 C 0.18422 0.04989 0.6378 0.0
C2673 C 0.16995 0.06238 0.63066 0.0
C2674 C 0.17323 0.08231 0.62994 0.0
C2675 C 0.18017 0.02895 0.64047 0.0
C2676 C 0.17268 0.0182 0.62498 0.0
C2677 C 0.18421 0.01945 0.65812 0.0
C2678 C 0.19013 0.03012 0.67572 0.0
C2679 C 0.17882 0.0454 0.68279 0.0
C2680 C 0.18451 0.05548 0.69929 0.0
C2681 C 0.20143 0.05032 0.70894 0.0
C2682 C 0.21266 0.03504 0.70214 0.0
C2683 C 0.20704 0.02492 0.68563 0.0
H2684 H 0.20581 0.05815 0.72172 0.0
H2685 H 0.14194 0.95944 0.56548 0.0
H2686 H 0.71759 0.41774 0.35423 0.0
H2687 H 0.71206 0.45255 0.35599 0.0
H2688 H 0.65732 0.44261 0.38378 0.0
H2689 H 0.66293 0.40768 0.38245 0.0
H2690 H 0.65676 0.46767 0.3498 0.0
H2691 H 0.68943 0.46054 0.41043 0.0
H2692 H 0.71563 0.44965 0.43185 0.0
H2693 H 0.75645 0.48323 0.39957 0.0
H2694 H 0.73054 0.4941 0.37777 0.0
H2695 H 0.64175 0.56901 0.35531 0.0
H2696 H 0.64347 0.53496 0.36469 0.0
H2697 H 0.70486 0.53528 0.35428 0.0
H2698 H 0.70335 0.56929 0.34588 0.0
H2699 H 0.69887 0.5145 0.38374 0.0
H2700 H 0.66973 0.51763 0.32068 0.0
H2701 H 0.64558 0.52767 0.29656 0.0
H2702 H 0.60072 0.50097 0.3299 0.0
H2703 H 0.62459 0.49097 0.35434 0.0
C2704 C 0.7045 0.42296 0.36096 0.0
C2705 C 0.6907 0.40998 0.36821 0.0
C2706 C 0.70137 0.44284 0.36198 0.0
C2707 C 0.68429 0.45012 0.37003 0.0
C2708 C 0.6706 0.43724 0.37754 0.0
C2709 C 0.67388 0.41733 0.37685 0.0
C2710 C 0.68042 0.47114 0.36957 0.0
C2711 C 0.66568 0.47796 0.35753 0.0
C2712 C 0.69244 0.48447 0.37923 0.0
C2713 C 0.70805 0.47802 0.39237 0.0
C2714 C 0.70402 0.46548 0.4078 0.0
C2715 C 0.71881 0.45933 0.42003 0.0
C2716 C 0.7377 0.46571 0.41705 0.0
C2717 C 0.74182 0.47829 0.40186 0.0
C2718 C 0.72707 0.48447 0.38957 0.0
C2719 C 0.65562 0.56184 0.35527 0.0
C2720 C 0.67239 0.57183 0.34979 0.0
C2721 C 0.65659 0.54234 0.3605 0.0
C2722 C 0.67426 0.53236 0.35986 0.0
C2723 C 0.69105 0.54256 0.35494 0.0
C2724 C 0.69015 0.56206 0.35007 0.0
C2725 C 0.67541 0.51121 0.36358 0.0
C2726 C 0.68969 0.50431 0.37622 0.0
C2727 C 0.66325 0.49777 0.3541 0.0
C2728 C 0.64889 0.50377 0.33944 0.0
C2729 C 0.65469 0.51403 0.32293 0.0
C2730 C 0.64106 0.51969 0.3092 0.0
C2731 C 0.62162 0.51502 0.31173 0.0
C2732 C 0.61577 0.50462 0.32798 0.0
C2733 C 0.62934 0.49895 0.34177 0.0
H2734 H 0.61109 0.51941 0.30108 0.0
H2735 H 0.74913 0.46093 0.42654 0.0
loop_
_geom_bond_atom_site_label_1
_geom_bond_atom_site_label_2
_geom_bond_distance
_geom_bond_site_symmetry_2
_ccdc_geom_bond_type
O0 Cd1 2.223 . S
O0 C8 1.315 . S
Cd1 O0 2.223 . S
Cd1 O4 2.297 . S
Cd1 O5 2.439 . S
Cd1 O11 2.240 . S
Cd2 O3 2.240 . S
Cd2 O10 2.223 . S
Cd2 O12 2.297 . S
Cd2 O13 2.439 . S
O3 Cd2 2.240 . S
O3 C8 1.279 . S
O4 Cd1 2.297 . S
O4 C6 1.247 . S
O5 Cd1 2.439 . S
O5 C6 1.208 . S
C6 O4 1.247 . S
C6 O5 1.208 . S
C7 O12 1.247 . S
C7 O13 1.208 . S
C8 O0 1.315 . S
C8 O3 1.279 . S
C9 O10 1.315 . S
C9 O11 1.279 . S
O10 Cd2 2.223 . S
O10 C9 1.315 . S
O11 Cd1 2.240 . S
O11 C9 1.279 . S
O12 Cd2 2.297 . S
O12 C7 1.247 . S
O13 Cd2 2.439 . S
O13 C7 1.208 . S
O14 Cd15 2.223 . S
O14 C22 1.315 . S
Cd15 O14 2.223 . S
Cd15 O18 2.297 . S
Cd15 O19 2.439 . S
Cd15 O25 2.240 . S
Cd16 O17 2.240 . S
Cd16 O24 2.223 . S
Cd16 O26 2.297 . S
Cd16 O27 2.439 . S
O17 Cd16 2.240 . S
O17 C22 1.279 . S
O18 Cd15 2.297 . S
O18 C20 1.247 . S
O19 Cd15 2.439 . S
O19 C20 1.208 . S
C20 O18 1.247 . S
C20 O19 1.208 . S
C21 O26 1.247 . S
C21 O27 1.208 . S
C22 O14 1.315 . S
C22 O17 1.279 . S
C23 O24 1.315 . S
C23 O25 1.279 . S
O24 Cd16 2.223 . S
O24 C23 1.315 . S
O25 Cd15 2.240 . S
O25 C23 1.279 . S
O26 Cd16 2.297 . S
O26 C21 1.247 . S
O27 Cd16 2.439 . S
O27 C21 1.208 . S
O28 Cd29 2.223 . S
O28 C36 1.315 . S
Cd29 O28 2.223 . S
Cd29 O32 2.297 . S
Cd29 O33 2.439 . S
Cd29 O39 2.240 . S
Cd30 O31 2.240 . S
Cd30 O38 2.223 . S
Cd30 O40 2.297 . S
Cd30 O41 2.439 . S
O31 Cd30 2.240 . S
O31 C36 1.279 . S
O32 Cd29 2.297 . S
O32 C34 1.247 . S
O33 Cd29 2.439 . S
O33 C34 1.208 . S
C34 O32 1.247 . S
C34 O33 1.208 . S
C35 O40 1.247 . S
C35 O41 1.208 . S
C36 O28 1.315 . S
C36 O31 1.279 . S
C37 O38 1.315 . S
C37 O39 1.279 . S
O38 Cd30 2.223 . S
O38 C37 1.315 . S
O39 Cd29 2.240 . S
O39 C37 1.279 . S
O40 Cd30 2.297 . S
O40 C35 1.247 . S
O41 Cd30 2.439 . S
O41 C35 1.208 . S
O42 Cd43 2.223 . S
O42 C50 1.315 . S
Cd43 O42 2.223 . S
Cd43 O46 2.297 . S
Cd43 O47 2.439 . S
Cd43 O53 2.240 . S
Cd44 O45 2.240 . S
Cd44 O52 2.223 . S
Cd44 O54 2.297 . S
Cd44 O55 2.439 . S
O45 Cd44 2.240 . S
O45 C50 1.279 . S
O46 Cd43 2.297 . S
O46 C48 1.247 . S
O47 Cd43 2.439 . S
O47 C48 1.208 . S
C48 O46 1.247 . S
C48 O47 1.208 . S
C49 O54 1.247 . S
C49 O55 1.208 . S
C50 O42 1.315 . S
C50 O45 1.279 . S
C51 O52 1.315 . S
C51 O53 1.279 . S
O52 Cd44 2.223 . S
O52 C51 1.315 . S
O53 Cd43 2.240 . S
O53 C51 1.279 . S
O54 Cd44 2.297 . S
O54 C49 1.247 . S
O55 Cd44 2.439 . S
O55 C49 1.208 . S
O56 Cd57 2.223 . S
O56 C64 1.315 . S
Cd57 O56 2.223 . S
Cd57 O60 2.297 . S
Cd57 O61 2.439 . S
Cd57 O67 2.240 . S
Cd58 O59 2.240 . S
Cd58 O66 2.223 . S
Cd58 O68 2.297 . S
Cd58 O69 2.439 . S
O59 Cd58 2.240 . S
O59 C64 1.279 . S
O60 Cd57 2.297 . S
O60 C62 1.247 . S
O61 Cd57 2.439 . S
O61 C62 1.208 . S
C62 O60 1.247 . S
C62 O61 1.208 . S
C63 O68 1.247 . S
C63 O69 1.208 . S
C64 O56 1.315 . S
C64 O59 1.279 . S
C65 O66 1.315 . S
C65 O67 1.279 . S
O66 Cd58 2.223 . S
O66 C65 1.315 . S
O67 Cd57 2.240 . S
O67 C65 1.279 . S
O68 Cd58 2.297 . S
O68 C63 1.247 . S
O69 Cd58 2.439 . S
O69 C63 1.208 . S
O70 Cd71 2.223 . S
O70 C78 1.315 . S
Cd71 O70 2.223 . S
Cd71 O74 2.297 . S
Cd71 O75 2.439 . S
Cd71 O81 2.240 . S
Cd72 O73 2.240 . S
Cd72 O80 2.223 . S
Cd72 O82 2.297 . S
Cd72 O83 2.439 . S
O73 Cd72 2.240 . S
O73 C78 1.279 . S
O74 Cd71 2.297 . S
O74 C76 1.247 . S
O75 Cd71 2.439 . S
O75 C76 1.208 . S
C76 O74 1.247 . S
C76 O75 1.208 . S
C77 O82 1.247 . S
C77 O83 1.208 . S
C78 O70 1.315 . S
C78 O73 1.279 . S
C79 O80 1.315 . S
C79 O81 1.279 . S
O80 Cd72 2.223 . S
O80 C79 1.315 . S
O81 Cd71 2.240 . S
O81 C79 1.279 . S
O82 Cd72 2.297 . S
O82 C77 1.247 . S
O83 Cd72 2.439 . S
O83 C77 1.208 . S
O84 Cd85 2.223 . S
O84 C92 1.315 . S
Cd85 O84 2.223 . S
Cd85 O88 2.297 . S
Cd85 O89 2.439 . S
Cd85 O95 2.240 . S
Cd86 O87 2.240 . S
Cd86 O94 2.223 . S
Cd86 O96 2.297 . S
Cd86 O97 2.439 . S
O87 Cd86 2.240 . S
O87 C92 1.279 . S
O88 Cd85 2.297 . S
O88 C90 1.247 . S
O89 Cd85 2.439 . S
O89 C90 1.208 . S
C90 O88 1.247 . S
C90 O89 1.208 . S
C91 O96 1.247 . S
C91 O97 1.208 . S
C92 O84 1.315 . S
C92 O87 1.279 . S
C93 O94 1.315 . S
C93 O95 1.279 . S
O94 Cd86 2.223 . S
O94 C93 1.315 . S
O95 Cd85 2.240 . S
O95 C93 1.279 . S
O96 Cd86 2.297 . S
O96 C91 1.247 . S
O97 Cd86 2.439 . S
O97 C91 1.208 . S
O98 Cd99 2.223 . S
O98 C106 1.315 . S
Cd99 O98 2.223 . S
Cd99 O102 2.297 . S
Cd99 O103 2.439 . S
Cd99 O109 2.240 . S
Cd100 O101 2.240 . S
Cd100 O108 2.223 . S
Cd100 O110 2.297 . S
Cd100 O111 2.439 . S
O101 Cd100 2.240 . S
O101 C106 1.279 . S
O102 Cd99 2.297 . S
O102 C104 1.247 . S
O103 Cd99 2.439 . S
O103 C104 1.208 . S
C104 O102 1.247 . S
C104 O103 1.208 . S
C105 O110 1.247 . S
C105 O111 1.208 . S
C106 O98 1.315 . S
C106 O101 1.279 . S
C107 O108 1.315 . S
C107 O109 1.279 . S
O108 Cd100 2.223 . S
O108 C107 1.315 . S
O109 Cd99 2.240 . S
O109 C107 1.279 . S
O110 Cd100 2.297 . S
O110 C105 1.247 . S
O111 Cd100 2.439 . S
O111 C105 1.208 . S
O112 Cd113 2.223 . S
O112 C120 1.315 . S
Cd113 O112 2.223 . S
Cd113 O116 2.297 . S
Cd113 O117 2.439 . S
Cd113 O123 2.240 . S
Cd114 O115 2.240 . S
Cd114 O122 2.223 . S
Cd114 O124 2.297 . S
Cd114 O125 2.439 . S
O115 Cd114 2.240 . S
O115 C120 1.279 . S
O116 Cd113 2.297 . S
O116 C118 1.247 . S
O117 Cd113 2.439 . S
O117 C118 1.208 . S
C118 O116 1.247 . S
C118 O117 1.208 . S
C119 O124 1.247 . S
C119 O125 1.208 . S
C120 O112 1.315 . S
C120 O115 1.279 . S
C121 O122 1.315 . S
C121 O123 1.279 . S
O122 Cd114 2.223 . S
O122 C121 1.315 . S
O123 Cd113 2.240 . S
O123 C121 1.279 . S
O124 Cd114 2.297 . S
O124 C119 1.247 . S
O125 Cd114 2.439 . S
O125 C119 1.208 . S
O126 Cd127 2.223 . S
O126 C134 1.315 . S
Cd127 O126 2.223 . S
Cd127 O130 2.297 . S
Cd127 O131 2.439 . S
Cd127 O137 2.240 . S
Cd128 O129 2.240 . S
Cd128 O136 2.223 . S
Cd128 O138 2.297 . S
Cd128 O139 2.439 . S
O129 Cd128 2.240 . S
O129 C134 1.279 . S
O130 Cd127 2.297 . S
O130 C132 1.247 . S
O131 Cd127 2.439 . S
O131 C132 1.208 . S
C132 O130 1.247 . S
C132 O131 1.208 . S
C133 O138 1.247 . S
C133 O139 1.208 . S
C134 O126 1.315 . S
C134 O129 1.279 . S
C135 O136 1.315 . S
C135 O137 1.279 . S
O136 Cd128 2.223 . S
O136 C135 1.315 . S
O137 Cd127 2.240 . S
O137 C135 1.279 . S
O138 Cd128 2.297 . S
O138 C133 1.247 . S
O139 Cd128 2.439 . S
O139 C133 1.208 . S
O140 Cd141 2.223 . S
O140 C148 1.315 . S
Cd141 O140 2.223 . S
Cd141 O144 2.297 . S
Cd141 O145 2.439 . S
Cd141 O151 2.240 . S
Cd142 O143 2.240 . S
Cd142 O150 2.223 . S
Cd142 O152 2.297 . S
Cd142 O153 2.439 . S
O143 Cd142 2.240 . S
O143 C148 1.279 . S
O144 Cd141 2.297 . S
O144 C146 1.247 . S
O145 Cd141 2.439 . S
O145 C146 1.208 . S
C146 O144 1.247 . S
C146 O145 1.208 . S
C147 O152 1.247 . S
C147 O153 1.208 . S
C148 O140 1.315 . S
C148 O143 1.279 . S
C149 O150 1.315 . S
C149 O151 1.279 . S
O150 Cd142 2.223 . S
O150 C149 1.315 . S
O151 Cd141 2.240 . S
O151 C149 1.279 . S
O152 Cd142 2.297 . S
O152 C147 1.247 . S
O153 Cd142 2.439 . S
O153 C147 1.208 . S
O154 Cd155 2.223 . S
O154 C162 1.315 . S
Cd155 O154 2.223 . S
Cd155 O158 2.297 . S
Cd155 O159 2.439 . S
Cd155 O165 2.240 . S
Cd156 O157 2.240 . S
Cd156 O164 2.223 . S
Cd156 O166 2.297 . S
Cd156 O167 2.439 . S
O157 Cd156 2.240 . S
O157 C162 1.279 . S
O158 Cd155 2.297 . S
O158 C160 1.247 . S
O159 Cd155 2.439 . S
O159 C160 1.208 . S
C160 O158 1.247 . S
C160 O159 1.208 . S
C161 O166 1.247 . S
C161 O167 1.208 . S
C162 O154 1.315 . S
C162 O157 1.279 . S
C163 O164 1.315 . S
C163 O165 1.279 . S
O164 Cd156 2.223 . S
O164 C163 1.315 . S
O165 Cd155 2.240 . S
O165 C163 1.279 . S
O166 Cd156 2.297 . S
O166 C161 1.247 . S
O167 Cd156 2.439 . S
O167 C161 1.208 . S
O168 Cd169 2.223 . S
O168 C176 1.315 . S
Cd169 O168 2.223 . S
Cd169 O172 2.297 . S
Cd169 O173 2.439 . S
Cd169 O179 2.240 . S
Cd170 O171 2.240 . S
Cd170 O178 2.223 . S
Cd170 O180 2.297 . S
Cd170 O181 2.439 . S
O171 Cd170 2.240 . S
O171 C176 1.279 . S
O172 Cd169 2.297 . S
O172 C174 1.247 . S
O173 Cd169 2.439 . S
O173 C174 1.208 . S
C174 O172 1.247 . S
C174 O173 1.208 . S
C175 O180 1.247 . S
C175 O181 1.208 . S
C176 O168 1.315 . S
C176 O171 1.279 . S
C177 O178 1.315 . S
C177 O179 1.279 . S
O178 Cd170 2.223 . S
O178 C177 1.315 . S
O179 Cd169 2.240 . S
O179 C177 1.279 . S
O180 Cd170 2.297 . S
O180 C175 1.247 . S
O181 Cd170 2.439 . S
O181 C175 1.208 . S
O182 Cd183 2.223 . S
O182 C190 1.315 . S
Cd183 O182 2.223 . S
Cd183 O186 2.297 . S
Cd183 O187 2.439 . S
Cd183 O193 2.240 . S
Cd184 O185 2.240 . S
Cd184 O192 2.223 . S
Cd184 O194 2.297 . S
Cd184 O195 2.439 . S
O185 Cd184 2.240 . S
O185 C190 1.279 . S
O186 Cd183 2.297 . S
O186 C188 1.247 . S
O187 Cd183 2.439 . S
O187 C188 1.208 . S
C188 O186 1.247 . S
C188 O187 1.208 . S
C189 O194 1.247 . S
C189 O195 1.208 . S
C190 O182 1.315 . S
C190 O185 1.279 . S
C191 O192 1.315 . S
C191 O193 1.279 . S
O192 Cd184 2.223 . S
O192 C191 1.315 . S
O193 Cd183 2.240 . S
O193 C191 1.279 . S
O194 Cd184 2.297 . S
O194 C189 1.247 . S
O195 Cd184 2.439 . S
O195 C189 1.208 . S
O196 Cd197 2.223 . S
O196 C204 1.315 . S
Cd197 O196 2.223 . S
Cd197 O200 2.297 . S
Cd197 O201 2.439 . S
Cd197 O207 2.240 . S
Cd198 O199 2.240 . S
Cd198 O206 2.223 . S
Cd198 O208 2.297 . S
Cd198 O209 2.439 . S
O199 Cd198 2.240 . S
O199 C204 1.279 . S
O200 Cd197 2.297 . S
O200 C202 1.247 . S
O201 Cd197 2.439 . S
O201 C202 1.208 . S
C202 O200 1.247 . S
C202 O201 1.208 . S
C203 O208 1.247 . S
C203 O209 1.208 . S
C204 O196 1.315 . S
C204 O199 1.279 . S
C205 O206 1.315 . S
C205 O207 1.279 . S
O206 Cd198 2.223 . S
O206 C205 1.315 . S
O207 Cd197 2.240 . S
O207 C205 1.279 . S
O208 Cd198 2.297 . S
O208 C203 1.247 . S
O209 Cd198 2.439 . S
O209 C203 1.208 . S
O210 Cd211 2.223 . S
O210 C218 1.315 . S
Cd211 O210 2.223 . S
Cd211 O214 2.297 . S
Cd211 O215 2.439 . S
Cd211 O221 2.240 . S
Cd212 O213 2.240 . S
Cd212 O220 2.223 . S
Cd212 O222 2.297 . S
Cd212 O223 2.439 . S
O213 Cd212 2.240 . S
O213 C218 1.279 . S
O214 Cd211 2.297 . S
O214 C216 1.247 . S
O215 Cd211 2.439 . S
O215 C216 1.208 . S
C216 O214 1.247 . S
C216 O215 1.208 . S
C217 O222 1.247 . S
C217 O223 1.208 . S
C218 O210 1.315 . S
C218 O213 1.279 . S
C219 O220 1.315 . S
C219 O221 1.279 . S
O220 Cd212 2.223 . S
O220 C219 1.315 . S
O221 Cd211 2.240 . S
O221 C219 1.279 . S
O222 Cd212 2.297 . S
O222 C217 1.247 . S
O223 Cd212 2.439 . S
O223 C217 1.208 . S
O224 Cd225 2.223 . S
O224 C232 1.315 . S
Cd225 O224 2.223 . S
Cd225 O228 2.297 . S
Cd225 O229 2.439 . S
Cd225 O235 2.240 . S
Cd226 O227 2.240 . S
Cd226 O234 2.223 . S
Cd226 O236 2.297 . S
Cd226 O237 2.439 . S
O227 Cd226 2.240 . S
O227 C232 1.279 . S
O228 Cd225 2.297 . S
O228 C230 1.247 . S
O229 Cd225 2.439 . S
O229 C230 1.208 . S
C230 O228 1.247 . S
C230 O229 1.208 . S
C231 O236 1.247 . S
C231 O237 1.208 . S
C232 O224 1.315 . S
C232 O227 1.279 . S
C233 O234 1.315 . S
C233 O235 1.279 . S
O234 Cd226 2.223 . S
O234 C233 1.315 . S
O235 Cd225 2.240 . S
O235 C233 1.279 . S
O236 Cd226 2.297 . S
O236 C231 1.247 . S
O237 Cd226 2.439 . S
O237 C231 1.208 . S
O238 Cd239 2.223 . S
O238 C246 1.315 . S
Cd239 O238 2.223 . S
Cd239 O242 2.297 . S
Cd239 O243 2.439 . S
Cd239 O249 2.240 . S
Cd240 O241 2.240 . S
Cd240 O248 2.223 . S
Cd240 O250 2.297 . S
Cd240 O251 2.439 . S
O241 Cd240 2.240 . S
O241 C246 1.279 . S
O242 Cd239 2.297 . S
O242 C244 1.247 . S
O243 Cd239 2.439 . S
O243 C244 1.208 . S
C244 O242 1.247 . S
C244 O243 1.208 . S
C245 O250 1.247 . S
C245 O251 1.208 . S
C246 O238 1.315 . S
C246 O241 1.279 . S
C247 O248 1.315 . S
C247 O249 1.279 . S
O248 Cd240 2.223 . S
O248 C247 1.315 . S
O249 Cd239 2.240 . S
O249 C247 1.279 . S
O250 Cd240 2.297 . S
O250 C245 1.247 . S
O251 Cd240 2.439 . S
O251 C245 1.208 . S
O252 Cd253 2.223 . S
O252 C260 1.315 . S
Cd253 O252 2.223 . S
Cd253 O256 2.297 . S
Cd253 O257 2.439 . S
Cd253 O263 2.240 . S
Cd254 O255 2.240 . S
Cd254 O262 2.223 . S
Cd254 O264 2.297 . S
Cd254 O265 2.439 . S
O255 Cd254 2.240 . S
O255 C260 1.279 . S
O256 Cd253 2.297 . S
O256 C258 1.247 . S
O257 Cd253 2.439 . S
O257 C258 1.208 . S
C258 O256 1.247 . S
C258 O257 1.208 . S
C259 O264 1.247 . S
C259 O265 1.208 . S
C260 O252 1.315 . S
C260 O255 1.279 . S
C261 O262 1.315 . S
C261 O263 1.279 . S
O262 Cd254 2.223 . S
O262 C261 1.315 . S
O263 Cd253 2.240 . S
O263 C261 1.279 . S
O264 Cd254 2.297 . S
O264 C259 1.247 . S
O265 Cd254 2.439 . S
O265 C259 1.208 . S
O266 Cd267 2.223 . S
O266 C274 1.315 . S
Cd267 O266 2.223 . S
Cd267 O270 2.297 . S
Cd267 O271 2.439 . S
Cd267 O277 2.240 . S
Cd268 O269 2.240 . S
Cd268 O276 2.223 . S
Cd268 O278 2.297 . S
Cd268 O279 2.439 . S
O269 Cd268 2.240 . S
O269 C274 1.279 . S
O270 Cd267 2.297 . S
O270 C272 1.247 . S
O271 Cd267 2.439 . S
O271 C272 1.208 . S
C272 O270 1.247 . S
C272 O271 1.208 . S
C273 O278 1.247 . S
C273 O279 1.208 . S
C274 O266 1.315 . S
C274 O269 1.279 . S
C275 O276 1.315 . S
C275 O277 1.279 . S
O276 Cd268 2.223 . S
O276 C275 1.315 . S
O277 Cd267 2.240 . S
O277 C275 1.279 . S
O278 Cd268 2.297 . S
O278 C273 1.247 . S
O279 Cd268 2.439 . S
O279 C273 1.208 . S
O280 Cd281 2.223 . S
O280 C288 1.315 . S
Cd281 O280 2.223 . S
Cd281 O284 2.297 . S
Cd281 O285 2.439 . S
Cd281 O291 2.240 . S
Cd282 O283 2.240 . S
Cd282 O290 2.223 . S
Cd282 O292 2.297 . S
Cd282 O293 2.439 . S
O283 Cd282 2.240 . S
O283 C288 1.279 . S
O284 Cd281 2.297 . S
O284 C286 1.247 . S
O285 Cd281 2.439 . S
O285 C286 1.208 . S
C286 O284 1.247 . S
C286 O285 1.208 . S
C287 O292 1.247 . S
C287 O293 1.208 . S
C288 O280 1.315 . S
C288 O283 1.279 . S
C289 O290 1.315 . S
C289 O291 1.279 . S
O290 Cd282 2.223 . S
O290 C289 1.315 . S
O291 Cd281 2.240 . S
O291 C289 1.279 . S
O292 Cd282 2.297 . S
O292 C287 1.247 . S
O293 Cd282 2.439 . S
O293 C287 1.208 . S
O294 Cd295 2.223 . S
O294 C302 1.315 . S
Cd295 O294 2.223 . S
Cd295 O298 2.297 . S
Cd295 O299 2.439 . S
Cd295 O305 2.240 . S
Cd296 O297 2.240 . S
Cd296 O304 2.223 . S
Cd296 O306 2.297 . S
Cd296 O307 2.439 . S
O297 Cd296 2.240 . S
O297 C302 1.279 . S
O298 Cd295 2.297 . S
O298 C300 1.247 . S
O299 Cd295 2.439 . S
O299 C300 1.208 . S
C300 O298 1.247 . S
C300 O299 1.208 . S
C301 O306 1.247 . S
C301 O307 1.208 . S
C302 O294 1.315 . S
C302 O297 1.279 . S
C303 O304 1.315 . S
C303 O305 1.279 . S
O304 Cd296 2.223 . S
O304 C303 1.315 . S
O305 Cd295 2.240 . S
O305 C303 1.279 . S
O306 Cd296 2.297 . S
O306 C301 1.247 . S
O307 Cd296 2.439 . S
O307 C301 1.208 . S
O308 Cd309 2.223 . S
O308 C316 1.315 . S
Cd309 O308 2.223 . S
Cd309 O312 2.297 . S
Cd309 O313 2.439 . S
Cd309 O319 2.240 . S
Cd310 O311 2.240 . S
Cd310 O318 2.223 . S
Cd310 O320 2.297 . S
Cd310 O321 2.439 . S
O311 Cd310 2.240 . S
O311 C316 1.279 . S
O312 Cd309 2.297 . S
O312 C314 1.247 . S
O313 Cd309 2.439 . S
O313 C314 1.208 . S
C314 O312 1.247 . S
C314 O313 1.208 . S
C315 O320 1.247 . S
C315 O321 1.208 . S
C316 O308 1.315 . S
C316 O311 1.279 . S
C317 O318 1.315 . S
C317 O319 1.279 . S
O318 Cd310 2.223 . S
O318 C317 1.315 . S
O319 Cd309 2.240 . S
O319 C317 1.279 . S
O320 Cd310 2.297 . S
O320 C315 1.247 . S
O321 Cd310 2.439 . S
O321 C315 1.208 . S
O322 Cd323 2.223 . S
O322 C330 1.315 . S
Cd323 O322 2.223 . S
Cd323 O326 2.297 . S
Cd323 O327 2.439 . S
Cd323 O333 2.240 . S
Cd324 O325 2.240 . S
Cd324 O332 2.223 . S
Cd324 O334 2.297 . S
Cd324 O335 2.439 . S
O325 Cd324 2.240 . S
O325 C330 1.279 . S
O326 Cd323 2.297 . S
O326 C328 1.247 . S
O327 Cd323 2.439 . S
O327 C328 1.208 . S
C328 O326 1.247 . S
C328 O327 1.208 . S
C329 O334 1.247 . S
C329 O335 1.208 . S
C330 O322 1.315 . S
C330 O325 1.279 . S
C331 O332 1.315 . S
C331 O333 1.279 . S
O332 Cd324 2.223 . S
O332 C331 1.315 . S
O333 Cd323 2.240 . S
O333 C331 1.279 . S
O334 Cd324 2.297 . S
O334 C329 1.247 . S
O335 Cd324 2.439 . S
O335 C329 1.208 . S
H336 C354 0.951 . S
H337 C356 0.951 . S
H338 C358 0.950 . S
H339 C359 0.950 . S
H340 C361 0.950 . S
H341 C364 0.950 . S
H342 C365 0.950 . S
H343 C367 0.950 . S
H344 C368 0.950 . S
H345 C369 0.951 . S
H346 C371 0.951 . S
H347 C373 0.950 . S
H348 C374 0.950 . S
H349 C376 0.950 . S
H350 C379 0.950 . S
H351 C380 0.950 . S
H352 C382 0.950 . S
H353 C383 0.950 . S
C354 H336 0.951 . S
C354 C355 1.366 . S
C354 C356 1.388 . S
C355 C354 1.366 . S
C355 C359 1.385 . S
C356 H337 0.951 . S
C356 C354 1.388 . S
C356 C357 1.366 . S
C357 C356 1.366 . S
C357 C358 1.414 . S
C357 C360 1.499 . S
C358 H338 0.950 . S
C358 C357 1.414 . S
C358 C359 1.374 . S
C359 H339 0.950 . S
C359 C355 1.385 . S
C359 C358 1.374 . S
C360 C357 1.499 . S
C360 C361 1.373 . S
C360 C362 1.389 . S
C361 H340 0.950 . S
C361 C360 1.373 . S
C361 C377 1.377 . S
C362 C360 1.389 . S
C362 C363 1.524 . S
C362 C376 1.377 . S
C363 C362 1.524 . S
C363 C364 1.397 . S
C363 C368 1.363 . S
C364 H341 0.950 . S
C364 C363 1.397 . S
C364 C365 1.334 . S
C365 H342 0.950 . S
C365 C364 1.334 . S
C365 C366 1.287 . S
C366 C365 1.287 . S
C366 C367 1.524 . S
C366 H385 0.913 . S
C367 H343 0.950 . S
C367 C366 1.524 . S
C367 C368 1.415 . S
C368 H344 0.950 . S
C368 C363 1.363 . S
C368 C367 1.415 . S
C369 H345 0.951 . S
C369 C370 1.366 . S
C369 C371 1.388 . S
C370 C369 1.366 . S
C370 C374 1.385 . S
C371 H346 0.951 . S
C371 C369 1.388 . S
C371 C372 1.366 . S
C372 C371 1.366 . S
C372 C373 1.414 . S
C372 C375 1.499 . S
C373 H347 0.950 . S
C373 C372 1.414 . S
C373 C374 1.374 . S
C374 H348 0.950 . S
C374 C370 1.385 . S
C374 C373 1.374 . S
C375 C372 1.499 . S
C375 C376 1.373 . S
C375 C377 1.389 . S
C376 H349 0.950 . S
C376 C362 1.377 . S
C376 C375 1.373 . S
C377 C361 1.377 . S
C377 C375 1.389 . S
C377 C378 1.524 . S
C378 C377 1.524 . S
C378 C379 1.397 . S
C378 C383 1.363 . S
C379 H350 0.950 . S
C379 C378 1.397 . S
C379 C380 1.334 . S
C380 H351 0.950 . S
C380 C379 1.334 . S
C380 C381 1.287 . S
C381 C380 1.287 . S
C381 C382 1.524 . S
C381 H384 0.999 . S
C382 H352 0.950 . S
C382 C381 1.524 . S
C382 C383 1.415 . S
C383 H353 0.950 . S
C383 C378 1.363 . S
C383 C382 1.415 . S
H384 C381 0.999 . S
H385 C366 0.913 . S
H386 C404 0.951 . S
H387 C406 0.951 . S
H388 C408 0.950 . S
H389 C409 0.950 . S
H390 C411 0.950 . S
H391 C414 0.950 . S
H392 C415 0.950 . S
H393 C417 0.950 . S
H394 C418 0.950 . S
H395 C419 0.951 . S
H396 C421 0.951 . S
H397 C423 0.950 . S
H398 C424 0.950 . S
H399 C426 0.950 . S
H400 C429 0.950 . S
H401 C430 0.950 . S
H402 C432 0.950 . S
H403 C433 0.950 . S
C404 H386 0.951 . S
C404 C405 1.366 . S
C404 C406 1.388 . S
C405 C404 1.366 . S
C405 C409 1.385 . S
C406 H387 0.951 . S
C406 C404 1.388 . S
C406 C407 1.366 . S
C407 C406 1.366 . S
C407 C408 1.414 . S
C407 C410 1.499 . S
C408 H388 0.950 . S
C408 C407 1.414 . S
C408 C409 1.374 . S
C409 H389 0.950 . S
C409 C405 1.385 . S
C409 C408 1.374 . S
C410 C407 1.499 . S
C410 C411 1.373 . S
C410 C412 1.389 . S
C411 H390 0.950 . S
C411 C410 1.373 . S
C411 C427 1.377 . S
C412 C410 1.389 . S
C412 C413 1.524 . S
C412 C426 1.377 . S
C413 C412 1.524 . S
C413 C414 1.397 . S
C413 C418 1.363 . S
C414 H391 0.950 . S
C414 C413 1.397 . S
C414 C415 1.334 . S
C415 H392 0.950 . S
C415 C414 1.334 . S
C415 C416 1.287 . S
C416 C415 1.287 . S
C416 C417 1.524 . S
C416 H435 0.913 . S
C417 H393 0.950 . S
C417 C416 1.524 . S
C417 C418 1.415 . S
C418 H394 0.950 . S
C418 C413 1.363 . S
C418 C417 1.415 . S
C419 H395 0.951 . S
C419 C420 1.366 . S
C419 C421 1.388 . S
C420 C419 1.366 . S
C420 C424 1.385 . S
C421 H396 0.951 . S
C421 C419 1.388 . S
C421 C422 1.366 . S
C422 C421 1.366 . S
C422 C423 1.414 . S
C422 C425 1.499 . S
C423 H397 0.950 . S
C423 C422 1.414 . S
C423 C424 1.374 . S
C424 H398 0.950 . S
C424 C420 1.385 . S
C424 C423 1.374 . S
C425 C422 1.499 . S
C425 C426 1.373 . S
C425 C427 1.389 . S
C426 H399 0.950 . S
C426 C412 1.377 . S
C426 C425 1.373 . S
C427 C411 1.377 . S
C427 C425 1.389 . S
C427 C428 1.524 . S
C428 C427 1.524 . S
C428 C429 1.397 . S
C428 C433 1.363 . S
C429 H400 0.950 . S
C429 C428 1.397 . S
C429 C430 1.334 . S
C430 H401 0.950 . S
C430 C429 1.334 . S
C430 C431 1.287 . S
C431 C430 1.287 . S
C431 C432 1.524 . S
C431 H434 0.999 . S
C432 H402 0.950 . S
C432 C431 1.524 . S
C432 C433 1.415 . S
C433 H403 0.950 . S
C433 C428 1.363 . S
C433 C432 1.415 . S
H434 C431 0.999 . S
H435 C416 0.913 . S
H436 C454 0.951 . S
H437 C456 0.951 . S
H438 C458 0.950 . S
H439 C459 0.950 . S
H440 C461 0.950 . S
H441 C464 0.950 . S
H442 C465 0.950 . S
H443 C467 0.950 . S
H444 C468 0.950 . S
H445 C469 0.951 . S
H446 C471 0.951 . S
H447 C473 0.950 . S
H448 C474 0.950 . S
H449 C476 0.950 . S
H450 C479 0.950 . S
H451 C480 0.950 . S
H452 C482 0.950 . S
H453 C483 0.950 . S
C454 H436 0.951 . S
C454 C455 1.366 . S
C454 C456 1.388 . S
C455 C454 1.366 . S
C455 C459 1.385 . S
C456 H437 0.951 . S
C456 C454 1.388 . S
C456 C457 1.366 . S
C457 C456 1.366 . S
C457 C458 1.414 . S
C457 C460 1.499 . S
C458 H438 0.950 . S
C458 C457 1.414 . S
C458 C459 1.374 . S
C459 H439 0.950 . S
C459 C455 1.385 . S
C459 C458 1.374 . S
C460 C457 1.499 . S
C460 C461 1.373 . S
C460 C462 1.389 . S
C461 H440 0.950 . S
C461 C460 1.373 . S
C461 C477 1.377 . S
C462 C460 1.389 . S
C462 C463 1.524 . S
C462 C476 1.377 . S
C463 C462 1.524 . S
C463 C464 1.397 . S
C463 C468 1.363 . S
C464 H441 0.950 . S
C464 C463 1.397 . S
C464 C465 1.334 . S
C465 H442 0.950 . S
C465 C464 1.334 . S
C465 C466 1.287 . S
C466 C465 1.287 . S
C466 C467 1.524 . S
C466 H485 0.913 . S
C467 H443 0.950 . S
C467 C466 1.524 . S
C467 C468 1.415 . S
C468 H444 0.950 . S
C468 C463 1.363 . S
C468 C467 1.415 . S
C469 H445 0.951 . S
C469 C470 1.366 . S
C469 C471 1.388 . S
C470 C469 1.366 . S
C470 C474 1.385 . S
C471 H446 0.951 . S
C471 C469 1.388 . S
C471 C472 1.366 . S
C472 C471 1.366 . S
C472 C473 1.414 . S
C472 C475 1.499 . S
C473 H447 0.950 . S
C473 C472 1.414 . S
C473 C474 1.374 . S
C474 H448 0.950 . S
C474 C470 1.385 . S
C474 C473 1.374 . S
C475 C472 1.499 . S
C475 C476 1.373 . S
C475 C477 1.389 . S
C476 H449 0.950 . S
C476 C462 1.377 . S
C476 C475 1.373 . S
C477 C461 1.377 . S
C477 C475 1.389 . S
C477 C478 1.524 . S
C478 C477 1.524 . S
C478 C479 1.397 . S
C478 C483 1.363 . S
C479 H450 0.950 . S
C479 C478 1.397 . S
C479 C480 1.334 . S
C480 H451 0.950 . S
C480 C479 1.334 . S
C480 C481 1.287 . S
C481 C480 1.287 . S
C481 C482 1.524 . S
C481 H484 0.999 . S
C482 H452 0.950 . S
C482 C481 1.524 . S
C482 C483 1.415 . S
C483 H453 0.950 . S
C483 C478 1.363 . S
C483 C482 1.415 . S
H484 C481 0.999 . S
H485 C466 0.913 . S
H486 C504 0.951 . S
H487 C506 0.951 . S
H488 C508 0.950 . S
H489 C509 0.950 . S
H490 C511 0.950 . S
H491 C514 0.950 . S
H492 C515 0.950 . S
H493 C517 0.950 . S
H494 C518 0.950 . S
H495 C519 0.951 . S
H496 C521 0.951 . S
H497 C523 0.950 . S
H498 C524 0.950 . S
H499 C526 0.950 . S
H500 C529 0.950 . S
H501 C530 0.950 . S
H502 C532 0.950 . S
H503 C533 0.950 . S
C504 H486 0.951 . S
C504 C505 1.366 . S
C504 C506 1.388 . S
C505 C504 1.366 . S
C505 C509 1.385 . S
C506 H487 0.951 . S
C506 C504 1.388 . S
C506 C507 1.366 . S
C507 C506 1.366 . S
C507 C508 1.414 . S
C507 C510 1.499 . S
C508 H488 0.950 . S
C508 C507 1.414 . S
C508 C509 1.374 . S
C509 H489 0.950 . S
C509 C505 1.385 . S
C509 C508 1.374 . S
C510 C507 1.499 . S
C510 C511 1.373 . S
C510 C512 1.389 . S
C511 H490 0.950 . S
C511 C510 1.373 . S
C511 C527 1.377 . S
C512 C510 1.389 . S
C512 C513 1.524 . S
C512 C526 1.377 . S
C513 C512 1.524 . S
C513 C514 1.397 . S
C513 C518 1.363 . S
C514 H491 0.950 . S
C514 C513 1.397 . S
C514 C515 1.334 . S
C515 H492 0.950 . S
C515 C514 1.334 . S
C515 C516 1.287 . S
C516 C515 1.287 . S
C516 C517 1.524 . S
C516 H535 0.913 . S
C517 H493 0.950 . S
C517 C516 1.524 . S
C517 C518 1.415 . S
C518 H494 0.950 . S
C518 C513 1.363 . S
C518 C517 1.415 . S
C519 H495 0.951 . S
C519 C520 1.366 . S
C519 C521 1.388 . S
C520 C519 1.366 . S
C520 C524 1.385 . S
C521 H496 0.951 . S
C521 C519 1.388 . S
C521 C522 1.366 . S
C522 C521 1.366 . S
C522 C523 1.414 . S
C522 C525 1.499 . S
C523 H497 0.950 . S
C523 C522 1.414 . S
C523 C524 1.374 . S
C524 H498 0.950 . S
C524 C520 1.385 . S
C524 C523 1.374 . S
C525 C522 1.499 . S
C525 C526 1.373 . S
C525 C527 1.389 . S
C526 H499 0.950 . S
C526 C512 1.377 . S
C526 C525 1.373 . S
C527 C511 1.377 . S
C527 C525 1.389 . S
C527 C528 1.524 . S
C528 C527 1.524 . S
C528 C529 1.397 . S
C528 C533 1.363 . S
C529 H500 0.950 . S
C529 C528 1.397 . S
C529 C530 1.334 . S
C530 H501 0.950 . S
C530 C529 1.334 . S
C530 C531 1.287 . S
C531 C530 1.287 . S
C531 C532 1.524 . S
C531 H534 0.999 . S
C532 H502 0.950 . S
C532 C531 1.524 . S
C532 C533 1.415 . S
C533 H503 0.950 . S
C533 C528 1.363 . S
C533 C532 1.415 . S
H534 C531 0.999 . S
H535 C516 0.913 . S
H536 C554 0.951 . S
H537 C556 0.951 . S
H538 C558 0.950 . S
H539 C559 0.950 . S
H540 C561 0.950 . S
H541 C564 0.950 . S
H542 C565 0.950 . S
H543 C567 0.950 . S
H544 C568 0.950 . S
H545 C569 0.951 . S
H546 C571 0.951 . S
H547 C573 0.950 . S
H548 C574 0.950 . S
H549 C576 0.950 . S
H550 C579 0.950 . S
H551 C580 0.950 . S
H552 C582 0.950 . S
H553 C583 0.950 . S
C554 H536 0.951 . S
C554 C555 1.366 . S
C554 C556 1.388 . S
C555 C554 1.366 . S
C555 C559 1.385 . S
C556 H537 0.951 . S
C556 C554 1.388 . S
C556 C557 1.366 . S
C557 C556 1.366 . S
C557 C558 1.414 . S
C557 C560 1.499 . S
C558 H538 0.950 . S
C558 C557 1.414 . S
C558 C559 1.374 . S
C559 H539 0.950 . S
C559 C555 1.385 . S
C559 C558 1.374 . S
C560 C557 1.499 . S
C560 C561 1.373 . S
C560 C562 1.389 . S
C561 H540 0.950 . S
C561 C560 1.373 . S
C561 C577 1.377 . S
C562 C560 1.389 . S
C562 C563 1.524 . S
C562 C576 1.377 . S
C563 C562 1.524 . S
C563 C564 1.397 . S
C563 C568 1.363 . S
C564 H541 0.950 . S
C564 C563 1.397 . S
C564 C565 1.334 . S
C565 H542 0.950 . S
C565 C564 1.334 . S
C565 C566 1.287 . S
C566 C565 1.287 . S
C566 C567 1.524 . S
C566 H585 0.913 . S
C567 H543 0.950 . S
C567 C566 1.524 . S
C567 C568 1.415 . S
C568 H544 0.950 . S
C568 C563 1.363 . S
C568 C567 1.415 . S
C569 H545 0.951 . S
C569 C570 1.366 . S
C569 C571 1.388 . S
C570 C569 1.366 . S
C570 C574 1.385 . S
C571 H546 0.951 . S
C571 C569 1.388 . S
C571 C572 1.366 . S
C572 C571 1.366 . S
C572 C573 1.414 . S
C572 C575 1.499 . S
C573 H547 0.950 . S
C573 C572 1.414 . S
C573 C574 1.374 . S
C574 H548 0.950 . S
C574 C570 1.385 . S
C574 C573 1.374 . S
C575 C572 1.499 . S
C575 C576 1.373 . S
C575 C577 1.389 . S
C576 H549 0.950 . S
C576 C562 1.377 . S
C576 C575 1.373 . S
C577 C561 1.377 . S
C577 C575 1.389 . S
C577 C578 1.524 . S
C578 C577 1.524 . S
C578 C579 1.397 . S
C578 C583 1.363 . S
C579 H550 0.950 . S
C579 C578 1.397 . S
C579 C580 1.334 . S
C580 H551 0.950 . S
C580 C579 1.334 . S
C580 C581 1.287 . S
C581 C580 1.287 . S
C581 C582 1.524 . S
C581 H584 0.999 . S
C582 H552 0.950 . S
C582 C581 1.524 . S
C582 C583 1.415 . S
C583 H553 0.950 . S
C583 C578 1.363 . S
C583 C582 1.415 . S
H584 C581 0.999 . S
H585 C566 0.913 . S
H586 C604 0.951 . S
H587 C606 0.951 . S
H588 C608 0.950 . S
H589 C609 0.950 . S
H590 C611 0.950 . S
H591 C614 0.950 . S
H592 C615 0.950 . S
H593 C617 0.950 . S
H594 C618 0.950 . S
H595 C619 0.951 . S
H596 C621 0.951 . S
H597 C623 0.950 . S
H598 C624 0.950 . S
H599 C626 0.950 . S
H600 C629 0.950 . S
H601 C630 0.950 . S
H602 C632 0.950 . S
H603 C633 0.950 . S
C604 H586 0.951 . S
C604 C605 1.366 . S
C604 C606 1.388 . S
C605 C604 1.366 . S
C605 C609 1.385 . S
C606 H587 0.951 . S
C606 C604 1.388 . S
C606 C607 1.366 . S
C607 C606 1.366 . S
C607 C608 1.414 . S
C607 C610 1.499 . S
C608 H588 0.950 . S
C608 C607 1.414 . S
C608 C609 1.374 . S
C609 H589 0.950 . S
C609 C605 1.385 . S
C609 C608 1.374 . S
C610 C607 1.499 . S
C610 C611 1.373 . S
C610 C612 1.389 . S
C611 H590 0.950 . S
C611 C610 1.373 . S
C611 C627 1.377 . S
C612 C610 1.389 . S
C612 C613 1.524 . S
C612 C626 1.377 . S
C613 C612 1.524 . S
C613 C614 1.397 . S
C613 C618 1.363 . S
C614 H591 0.950 . S
C614 C613 1.397 . S
C614 C615 1.334 . S
C615 H592 0.950 . S
C615 C614 1.334 . S
C615 C616 1.287 . S
C616 C615 1.287 . S
C616 C617 1.524 . S
C616 H635 0.913 . S
C617 H593 0.950 . S
C617 C616 1.524 . S
C617 C618 1.415 . S
C618 H594 0.950 . S
C618 C613 1.363 . S
C618 C617 1.415 . S
C619 H595 0.951 . S
C619 C620 1.366 . S
C619 C621 1.388 . S
C620 C619 1.366 . S
C620 C624 1.385 . S
C621 H596 0.951 . S
C621 C619 1.388 . S
C621 C622 1.366 . S
C622 C621 1.366 . S
C622 C623 1.414 . S
C622 C625 1.499 . S
C623 H597 0.950 . S
C623 C622 1.414 . S
C623 C624 1.374 . S
C624 H598 0.950 . S
C624 C620 1.385 . S
C624 C623 1.374 . S
C625 C622 1.499 . S
C625 C626 1.373 . S
C625 C627 1.389 . S
C626 H599 0.950 . S
C626 C612 1.377 . S
C626 C625 1.373 . S
C627 C611 1.377 . S
C627 C625 1.389 . S
C627 C628 1.524 . S
C628 C627 1.524 . S
C628 C629 1.397 . S
C628 C633 1.363 . S
C629 H600 0.950 . S
C629 C628 1.397 . S
C629 C630 1.334 . S
C630 H601 0.950 . S
C630 C629 1.334 . S
C630 C631 1.287 . S
C631 C630 1.287 . S
C631 C632 1.524 . S
C631 H634 0.999 . S
C632 H602 0.950 . S
C632 C631 1.524 . S
C632 C633 1.415 . S
C633 H603 0.950 . S
C633 C628 1.363 . S
C633 C632 1.415 . S
H634 C631 0.999 . S
H635 C616 0.913 . S
H636 C654 0.951 . S
H637 C656 0.951 . S
H638 C658 0.950 . S
H639 C659 0.950 . S
H640 C661 0.950 . S
H641 C664 0.950 . S
H642 C665 0.950 . S
H643 C667 0.950 . S
H644 C668 0.950 . S
H645 C669 0.951 . S
H646 C671 0.951 . S
H647 C673 0.950 . S
H648 C674 0.950 . S
H649 C676 0.950 . S
H650 C679 0.950 . S
H651 C680 0.950 . S
H652 C682 0.950 . S
H653 C683 0.950 . S
C654 H636 0.951 . S
C654 C655 1.366 . S
C654 C656 1.388 . S
C655 C654 1.366 . S
C655 C659 1.385 . S
C656 H637 0.951 . S
C656 C654 1.388 . S
C656 C657 1.366 . S
C657 C656 1.366 . S
C657 C658 1.414 . S
C657 C660 1.499 . S
C658 H638 0.950 . S
C658 C657 1.414 . S
C658 C659 1.374 . S
C659 H639 0.950 . S
C659 C655 1.385 . S
C659 C658 1.374 . S
C660 C657 1.499 . S
C660 C661 1.373 . S
C660 C662 1.389 . S
C661 H640 0.950 . S
C661 C660 1.373 . S
C661 C677 1.377 . S
C662 C660 1.389 . S
C662 C663 1.524 . S
C662 C676 1.377 . S
C663 C662 1.524 . S
C663 C664 1.397 . S
C663 C668 1.363 . S
C664 H641 0.950 . S
C664 C663 1.397 . S
C664 C665 1.334 . S
C665 H642 0.950 . S
C665 C664 1.334 . S
C665 C666 1.287 . S
C666 C665 1.287 . S
C666 C667 1.524 . S
C666 H685 0.913 . S
C667 H643 0.950 . S
C667 C666 1.524 . S
C667 C668 1.415 . S
C668 H644 0.950 . S
C668 C663 1.363 . S
C668 C667 1.415 . S
C669 H645 0.951 . S
C669 C670 1.366 . S
C669 C671 1.388 . S
C670 C669 1.366 . S
C670 C674 1.385 . S
C671 H646 0.951 . S
C671 C669 1.388 . S
C671 C672 1.366 . S
C672 C671 1.366 . S
C672 C673 1.414 . S
C672 C675 1.499 . S
C673 H647 0.950 . S
C673 C672 1.414 . S
C673 C674 1.374 . S
C674 H648 0.950 . S
C674 C670 1.385 . S
C674 C673 1.374 . S
C675 C672 1.499 . S
C675 C676 1.373 . S
C675 C677 1.389 . S
C676 H649 0.950 . S
C676 C662 1.377 . S
C676 C675 1.373 . S
C677 C661 1.377 . S
C677 C675 1.389 . S
C677 C678 1.524 . S
C678 C677 1.524 . S
C678 C679 1.397 . S
C678 C683 1.363 . S
C679 H650 0.950 . S
C679 C678 1.397 . S
C679 C680 1.334 . S
C680 H651 0.950 . S
C680 C679 1.334 . S
C680 C681 1.287 . S
C681 C680 1.287 . S
C681 C682 1.524 . S
C681 H684 0.999 . S
C682 H652 0.950 . S
C682 C681 1.524 . S
C682 C683 1.415 . S
C683 H653 0.950 . S
C683 C678 1.363 . S
C683 C682 1.415 . S
H684 C681 0.999 . S
H685 C666 0.913 . S
H686 C704 0.951 . S
H687 C706 0.951 . S
H688 C708 0.950 . S
H689 C709 0.950 . S
H690 C711 0.950 . S
H691 C714 0.950 . S
H692 C715 0.950 . S
H693 C717 0.950 . S
H694 C718 0.950 . S
H695 C719 0.951 . S
H696 C721 0.951 . S
H697 C723 0.950 . S
H698 C724 0.950 . S
H699 C726 0.950 . S
H700 C729 0.950 . S
H701 C730 0.950 . S
H702 C732 0.950 . S
H703 C733 0.950 . S
C704 H686 0.951 . S
C704 C705 1.366 . S
C704 C706 1.388 . S
C705 C704 1.366 . S
C705 C709 1.385 . S
C706 H687 0.951 . S
C706 C704 1.388 . S
C706 C707 1.366 . S
C707 C706 1.366 . S
C707 C708 1.414 . S
C707 C710 1.499 . S
C708 H688 0.950 . S
C708 C707 1.414 . S
C708 C709 1.374 . S
C709 H689 0.950 . S
C709 C705 1.385 . S
C709 C708 1.374 . S
C710 C707 1.499 . S
C710 C711 1.373 . S
C710 C712 1.389 . S
C711 H690 0.950 . S
C711 C710 1.373 . S
C711 C727 1.377 . S
C712 C710 1.389 . S
C712 C713 1.524 . S
C712 C726 1.377 . S
C713 C712 1.524 . S
C713 C714 1.397 . S
C713 C718 1.363 . S
C714 H691 0.950 . S
C714 C713 1.397 . S
C714 C715 1.334 . S
C715 H692 0.950 . S
C715 C714 1.334 . S
C715 C716 1.287 . S
C716 C715 1.287 . S
C716 C717 1.524 . S
C716 H735 0.913 . S
C717 H693 0.950 . S
C717 C716 1.524 . S
C717 C718 1.415 . S
C718 H694 0.950 . S
C718 C713 1.363 . S
C718 C717 1.415 . S
C719 H695 0.951 . S
C719 C720 1.366 . S
C719 C721 1.388 . S
C720 C719 1.366 . S
C720 C724 1.385 . S
C721 H696 0.951 . S
C721 C719 1.388 . S
C721 C722 1.366 . S
C722 C721 1.366 . S
C722 C723 1.414 . S
C722 C725 1.499 . S
C723 H697 0.950 . S
C723 C722 1.414 . S
C723 C724 1.374 . S
C724 H698 0.950 . S
C724 C720 1.385 . S
C724 C723 1.374 . S
C725 C722 1.499 . S
C725 C726 1.373 . S
C725 C727 1.389 . S
C726 H699 0.950 . S
C726 C712 1.377 . S
C726 C725 1.373 . S
C727 C711 1.377 . S
C727 C725 1.389 . S
C727 C728 1.524 . S
C728 C727 1.524 . S
C728 C729 1.397 . S
C728 C733 1.363 . S
C729 H700 0.950 . S
C729 C728 1.397 . S
C729 C730 1.334 . S
C730 H701 0.950 . S
C730 C729 1.334 . S
C730 C731 1.287 . S
C731 C730 1.287 . S
C731 C732 1.524 . S
C731 H734 0.999 . S
C732 H702 0.950 . S
C732 C731 1.524 . S
C732 C733 1.415 . S
C733 H703 0.950 . S
C733 C728 1.363 . S
C733 C732 1.415 . S
H734 C731 0.999 . S
H735 C716 0.913 . S
H736 C754 0.951 . S
H737 C756 0.951 . S
H738 C758 0.950 . S
H739 C759 0.950 . S
H740 C761 0.950 . S
H741 C764 0.950 . S
H742 C765 0.950 . S
H743 C767 0.950 . S
H744 C768 0.950 . S
H745 C769 0.951 . S
H746 C771 0.951 . S
H747 C773 0.950 . S
H748 C774 0.950 . S
H749 C776 0.950 . S
H750 C779 0.950 . S
H751 C780 0.950 . S
H752 C782 0.950 . S
H753 C783 0.950 . S
C754 H736 0.951 . S
C754 C755 1.366 . S
C754 C756 1.388 . S
C755 C754 1.366 . S
C755 C759 1.385 . S
C756 H737 0.951 . S
C756 C754 1.388 . S
C756 C757 1.366 . S
C757 C756 1.366 . S
C757 C758 1.414 . S
C757 C760 1.499 . S
C758 H738 0.950 . S
C758 C757 1.414 . S
C758 C759 1.374 . S
C759 H739 0.950 . S
C759 C755 1.385 . S
C759 C758 1.374 . S
C760 C757 1.499 . S
C760 C761 1.373 . S
C760 C762 1.389 . S
C761 H740 0.950 . S
C761 C760 1.373 . S
C761 C777 1.377 . S
C762 C760 1.389 . S
C762 C763 1.524 . S
C762 C776 1.377 . S
C763 C762 1.524 . S
C763 C764 1.397 . S
C763 C768 1.363 . S
C764 H741 0.950 . S
C764 C763 1.397 . S
C764 C765 1.334 . S
C765 H742 0.950 . S
C765 C764 1.334 . S
C765 C766 1.287 . S
C766 C765 1.287 . S
C766 C767 1.524 . S
C766 H785 0.913 . S
C767 H743 0.950 . S
C767 C766 1.524 . S
C767 C768 1.415 . S
C768 H744 0.950 . S
C768 C763 1.363 . S
C768 C767 1.415 . S
C769 H745 0.951 . S
C769 C770 1.366 . S
C769 C771 1.388 . S
C770 C769 1.366 . S
C770 C774 1.385 . S
C771 H746 0.951 . S
C771 C769 1.388 . S
C771 C772 1.366 . S
C772 C771 1.366 . S
C772 C773 1.414 . S
C772 C775 1.499 . S
C773 H747 0.950 . S
C773 C772 1.414 . S
C773 C774 1.374 . S
C774 H748 0.950 . S
C774 C770 1.385 . S
C774 C773 1.374 . S
C775 C772 1.499 . S
C775 C776 1.373 . S
C775 C777 1.389 . S
C776 H749 0.950 . S
C776 C762 1.377 . S
C776 C775 1.373 . S
C777 C761 1.377 . S
C777 C775 1.389 . S
C777 C778 1.524 . S
C778 C777 1.524 . S
C778 C779 1.397 . S
C778 C783 1.363 . S
C779 H750 0.950 . S
C779 C778 1.397 . S
C779 C780 1.334 . S
C780 H751 0.950 . S
C780 C779 1.334 . S
C780 C781 1.287 . S
C781 C780 1.287 . S
C781 C782 1.524 . S
C781 H784 0.999 . S
C782 H752 0.950 . S
C782 C781 1.524 . S
C782 C783 1.415 . S
C783 H753 0.950 . S
C783 C778 1.363 . S
C783 C782 1.415 . S
H784 C781 0.999 . S
H785 C766 0.913 . S
H786 C804 0.951 . S
H787 C806 0.951 . S
H788 C808 0.950 . S
H789 C809 0.950 . S
H790 C811 0.950 . S
H791 C814 0.950 . S
H792 C815 0.950 . S
H793 C817 0.950 . S
H794 C818 0.950 . S
H795 C819 0.951 . S
H796 C821 0.951 . S
H797 C823 0.950 . S
H798 C824 0.950 . S
H799 C826 0.950 . S
H800 C829 0.950 . S
H801 C830 0.950 . S
H802 C832 0.950 . S
H803 C833 0.950 . S
C804 H786 0.951 . S
C804 C805 1.366 . S
C804 C806 1.388 . S
C805 C804 1.366 . S
C805 C809 1.385 . S
C806 H787 0.951 . S
C806 C804 1.388 . S
C806 C807 1.366 . S
C807 C806 1.366 . S
C807 C808 1.414 . S
C807 C810 1.499 . S
C808 H788 0.950 . S
C808 C807 1.414 . S
C808 C809 1.374 . S
C809 H789 0.950 . S
C809 C805 1.385 . S
C809 C808 1.374 . S
C810 C807 1.499 . S
C810 C811 1.373 . S
C810 C812 1.389 . S
C811 H790 0.950 . S
C811 C810 1.373 . S
C811 C827 1.377 . S
C812 C810 1.389 . S
C812 C813 1.524 . S
C812 C826 1.377 . S
C813 C812 1.524 . S
C813 C814 1.397 . S
C813 C818 1.363 . S
C814 H791 0.950 . S
C814 C813 1.397 . S
C814 C815 1.334 . S
C815 H792 0.950 . S
C815 C814 1.334 . S
C815 C816 1.287 . S
C816 C815 1.287 . S
C816 C817 1.524 . S
C816 H835 0.913 . S
C817 H793 0.950 . S
C817 C816 1.524 . S
C817 C818 1.415 . S
C818 H794 0.950 . S
C818 C813 1.363 . S
C818 C817 1.415 . S
C819 H795 0.951 . S
C819 C820 1.366 . S
C819 C821 1.388 . S
C820 C819 1.366 . S
C820 C824 1.385 . S
C821 H796 0.951 . S
C821 C819 1.388 . S
C821 C822 1.366 . S
C822 C821 1.366 . S
C822 C823 1.414 . S
C822 C825 1.499 . S
C823 H797 0.950 . S
C823 C822 1.414 . S
C823 C824 1.374 . S
C824 H798 0.950 . S
C824 C820 1.385 . S
C824 C823 1.374 . S
C825 C822 1.499 . S
C825 C826 1.373 . S
C825 C827 1.389 . S
C826 H799 0.950 . S
C826 C812 1.377 . S
C826 C825 1.373 . S
C827 C811 1.377 . S
C827 C825 1.389 . S
C827 C828 1.524 . S
C828 C827 1.524 . S
C828 C829 1.397 . S
C828 C833 1.363 . S
C829 H800 0.950 . S
C829 C828 1.397 . S
C829 C830 1.334 . S
C830 H801 0.950 . S
C830 C829 1.334 . S
C830 C831 1.287 . S
C831 C830 1.287 . S
C831 C832 1.524 . S
C831 H834 0.999 . S
C832 H802 0.950 . S
C832 C831 1.524 . S
C832 C833 1.415 . S
C833 H803 0.950 . S
C833 C828 1.363 . S
C833 C832 1.415 . S
H834 C831 0.999 . S
H835 C816 0.913 . S
H836 C854 0.951 . S
H837 C856 0.951 . S
H838 C858 0.950 . S
H839 C859 0.950 . S
H840 C861 0.950 . S
H841 C864 0.950 . S
H842 C865 0.950 . S
H843 C867 0.950 . S
H844 C868 0.950 . S
H845 C869 0.951 . S
H846 C871 0.951 . S
H847 C873 0.950 . S
H848 C874 0.950 . S
H849 C876 0.950 . S
H850 C879 0.950 . S
H851 C880 0.950 . S
H852 C882 0.950 . S
H853 C883 0.950 . S
C854 H836 0.951 . S
C854 C855 1.366 . S
C854 C856 1.388 . S
C855 C854 1.366 . S
C855 C859 1.385 . S
C856 H837 0.951 . S
C856 C854 1.388 . S
C856 C857 1.366 . S
C857 C856 1.366 . S
C857 C858 1.414 . S
C857 C860 1.499 . S
C858 H838 0.950 . S
C858 C857 1.414 . S
C858 C859 1.374 . S
C859 H839 0.950 . S
C859 C855 1.385 . S
C859 C858 1.374 . S
C860 C857 1.499 . S
C860 C861 1.373 . S
C860 C862 1.389 . S
C861 H840 0.950 . S
C861 C860 1.373 . S
C861 C877 1.377 . S
C862 C860 1.389 . S
C862 C863 1.524 . S
C862 C876 1.377 . S
C863 C862 1.524 . S
C863 C864 1.397 . S
C863 C868 1.363 . S
C864 H841 0.950 . S
C864 C863 1.397 . S
C864 C865 1.334 . S
C865 H842 0.950 . S
C865 C864 1.334 . S
C865 C866 1.287 . S
C866 C865 1.287 . S
C866 C867 1.524 . S
C866 H885 0.913 . S
C867 H843 0.950 . S
C867 C866 1.524 . S
C867 C868 1.415 . S
C868 H844 0.950 . S
C868 C863 1.363 . S
C868 C867 1.415 . S
C869 H845 0.951 . S
C869 C870 1.366 . S
C869 C871 1.388 . S
C870 C869 1.366 . S
C870 C874 1.385 . S
C871 H846 0.951 . S
C871 C869 1.388 . S
C871 C872 1.366 . S
C872 C871 1.366 . S
C872 C873 1.414 . S
C872 C875 1.499 . S
C873 H847 0.950 . S
C873 C872 1.414 . S
C873 C874 1.374 . S
C874 H848 0.950 . S
C874 C870 1.385 . S
C874 C873 1.374 . S
C875 C872 1.499 . S
C875 C876 1.373 . S
C875 C877 1.389 . S
C876 H849 0.950 . S
C876 C862 1.377 . S
C876 C875 1.373 . S
C877 C861 1.377 . S
C877 C875 1.389 . S
C877 C878 1.524 . S
C878 C877 1.524 . S
C878 C879 1.397 . S
C878 C883 1.363 . S
C879 H850 0.950 . S
C879 C878 1.397 . S
C879 C880 1.334 . S
C880 H851 0.950 . S
C880 C879 1.334 . S
C880 C881 1.287 . S
C881 C880 1.287 . S
C881 C882 1.524 . S
C881 H884 0.999 . S
C882 H852 0.950 . S
C882 C881 1.524 . S
C882 C883 1.415 . S
C883 H853 0.950 . S
C883 C878 1.363 . S
C883 C882 1.415 . S
H884 C881 0.999 . S
H885 C866 0.913 . S
H886 C904 0.951 . S
H887 C906 0.951 . S
H888 C908 0.950 . S
H889 C909 0.950 . S
H890 C911 0.950 . S
H891 C914 0.950 . S
H892 C915 0.950 . S
H893 C917 0.950 . S
H894 C918 0.950 . S
H895 C919 0.951 . S
H896 C921 0.951 . S
H897 C923 0.950 . S
H898 C924 0.950 . S
H899 C926 0.950 . S
H900 C929 0.950 . S
H901 C930 0.950 . S
H902 C932 0.950 . S
H903 C933 0.950 . S
C904 H886 0.951 . S
C904 C905 1.366 . S
C904 C906 1.388 . S
C905 C904 1.366 . S
C905 C909 1.385 . S
C906 H887 0.951 . S
C906 C904 1.388 . S
C906 C907 1.366 . S
C907 C906 1.366 . S
C907 C908 1.414 . S
C907 C910 1.499 . S
C908 H888 0.950 . S
C908 C907 1.414 . S
C908 C909 1.374 . S
C909 H889 0.950 . S
C909 C905 1.385 . S
C909 C908 1.374 . S
C910 C907 1.499 . S
C910 C911 1.373 . S
C910 C912 1.389 . S
C911 H890 0.950 . S
C911 C910 1.373 . S
C911 C927 1.377 . S
C912 C910 1.389 . S
C912 C913 1.524 . S
C912 C926 1.377 . S
C913 C912 1.524 . S
C913 C914 1.397 . S
C913 C918 1.363 . S
C914 H891 0.950 . S
C914 C913 1.397 . S
C914 C915 1.334 . S
C915 H892 0.950 . S
C915 C914 1.334 . S
C915 C916 1.287 . S
C916 C915 1.287 . S
C916 C917 1.524 . S
C916 H935 0.913 . S
C917 H893 0.950 . S
C917 C916 1.524 . S
C917 C918 1.415 . S
C918 H894 0.950 . S
C918 C913 1.363 . S
C918 C917 1.415 . S
C919 H895 0.951 . S
C919 C920 1.366 . S
C919 C921 1.388 . S
C920 C919 1.366 . S
C920 C924 1.385 . S
C921 H896 0.951 . S
C921 C919 1.388 . S
C921 C922 1.366 . S
C922 C921 1.366 . S
C922 C923 1.414 . S
C922 C925 1.499 . S
C923 H897 0.950 . S
C923 C922 1.414 . S
C923 C924 1.374 . S
C924 H898 0.950 . S
C924 C920 1.385 . S
C924 C923 1.374 . S
C925 C922 1.499 . S
C925 C926 1.373 . S
C925 C927 1.389 . S
C926 H899 0.950 . S
C926 C912 1.377 . S
C926 C925 1.373 . S
C927 C911 1.377 . S
C927 C925 1.389 . S
C927 C928 1.524 . S
C928 C927 1.524 . S
C928 C929 1.397 . S
C928 C933 1.363 . S
C929 H900 0.950 . S
C929 C928 1.397 . S
C929 C930 1.334 . S
C930 H901 0.950 . S
C930 C929 1.334 . S
C930 C931 1.287 . S
C931 C930 1.287 . S
C931 C932 1.524 . S
C931 H934 0.999 . S
C932 H902 0.950 . S
C932 C931 1.524 . S
C932 C933 1.415 . S
C933 H903 0.950 . S
C933 C928 1.363 . S
C933 C932 1.415 . S
H934 C931 0.999 . S
H935 C916 0.913 . S
H936 C954 0.951 . S
H937 C956 0.951 . S
H938 C958 0.950 . S
H939 C959 0.950 . S
H940 C961 0.950 . S
H941 C964 0.950 . S
H942 C965 0.950 . S
H943 C967 0.950 . S
H944 C968 0.950 . S
H945 C969 0.951 . S
H946 C971 0.951 . S
H947 C973 0.950 . S
H948 C974 0.950 . S
H949 C976 0.950 . S
H950 C979 0.950 . S
H951 C980 0.950 . S
H952 C982 0.950 . S
H953 C983 0.950 . S
C954 H936 0.951 . S
C954 C955 1.366 . S
C954 C956 1.388 . S
C955 C954 1.366 . S
C955 C959 1.385 . S
C956 H937 0.951 . S
C956 C954 1.388 . S
C956 C957 1.366 . S
C957 C956 1.366 . S
C957 C958 1.414 . S
C957 C960 1.499 . S
C958 H938 0.950 . S
C958 C957 1.414 . S
C958 C959 1.374 . S
C959 H939 0.950 . S
C959 C955 1.385 . S
C959 C958 1.374 . S
C960 C957 1.499 . S
C960 C961 1.373 . S
C960 C962 1.389 . S
C961 H940 0.950 . S
C961 C960 1.373 . S
C961 C977 1.377 . S
C962 C960 1.389 . S
C962 C963 1.524 . S
C962 C976 1.377 . S
C963 C962 1.524 . S
C963 C964 1.397 . S
C963 C968 1.363 . S
C964 H941 0.950 . S
C964 C963 1.397 . S
C964 C965 1.334 . S
C965 H942 0.950 . S
C965 C964 1.334 . S
C965 C966 1.287 . S
C966 C965 1.287 . S
C966 C967 1.524 . S
C966 H985 0.913 . S
C967 H943 0.950 . S
C967 C966 1.524 . S
C967 C968 1.415 . S
C968 H944 0.950 . S
C968 C963 1.363 . S
C968 C967 1.415 . S
C969 H945 0.951 . S
C969 C970 1.366 . S
C969 C971 1.388 . S
C970 C969 1.366 . S
C970 C974 1.385 . S
C971 H946 0.951 . S
C971 C969 1.388 . S
C971 C972 1.366 . S
C972 C971 1.366 . S
C972 C973 1.414 . S
C972 C975 1.499 . S
C973 H947 0.950 . S
C973 C972 1.414 . S
C973 C974 1.374 . S
C974 H948 0.950 . S
C974 C970 1.385 . S
C974 C973 1.374 . S
C975 C972 1.499 . S
C975 C976 1.373 . S
C975 C977 1.389 . S
C976 H949 0.950 . S
C976 C962 1.377 . S
C976 C975 1.373 . S
C977 C961 1.377 . S
C977 C975 1.389 . S
C977 C978 1.524 . S
C978 C977 1.524 . S
C978 C979 1.397 . S
C978 C983 1.363 . S
C979 H950 0.950 . S
C979 C978 1.397 . S
C979 C980 1.334 . S
C980 H951 0.950 . S
C980 C979 1.334 . S
C980 C981 1.287 . S
C981 C980 1.287 . S
C981 C982 1.524 . S
C981 H984 0.999 . S
C982 H952 0.950 . S
C982 C981 1.524 . S
C982 C983 1.415 . S
C983 H953 0.950 . S
C983 C978 1.363 . S
C983 C982 1.415 . S
H984 C981 0.999 . S
H985 C966 0.913 . S
H986 C1004 0.951 . S
H987 C1006 0.951 . S
H988 C1008 0.950 . S
H989 C1009 0.950 . S
H990 C1011 0.950 . S
H991 C1014 0.950 . S
H992 C1015 0.950 . S
H993 C1017 0.950 . S
H994 C1018 0.950 . S
H995 C1019 0.951 . S
H996 C1021 0.951 . S
H997 C1023 0.950 . S
H998 C1024 0.950 . S
H999 C1026 0.950 . S
H1000 C1029 0.950 . S
H1001 C1030 0.950 . S
H1002 C1032 0.950 . S
H1003 C1033 0.950 . S
C1004 H986 0.951 . S
C1004 C1005 1.366 . S
C1004 C1006 1.388 . S
C1005 C1004 1.366 . S
C1005 C1009 1.385 . S
C1006 H987 0.951 . S
C1006 C1004 1.388 . S
C1006 C1007 1.366 . S
C1007 C1006 1.366 . S
C1007 C1008 1.414 . S
C1007 C1010 1.499 . S
C1008 H988 0.950 . S
C1008 C1007 1.414 . S
C1008 C1009 1.374 . S
C1009 H989 0.950 . S
C1009 C1005 1.385 . S
C1009 C1008 1.374 . S
C1010 C1007 1.499 . S
C1010 C1011 1.373 . S
C1010 C1012 1.389 . S
C1011 H990 0.950 . S
C1011 C1010 1.373 . S
C1011 C1027 1.377 . S
C1012 C1010 1.389 . S
C1012 C1013 1.524 . S
C1012 C1026 1.377 . S
C1013 C1012 1.524 . S
C1013 C1014 1.397 . S
C1013 C1018 1.363 . S
C1014 H991 0.950 . S
C1014 C1013 1.397 . S
C1014 C1015 1.334 . S
C1015 H992 0.950 . S
C1015 C1014 1.334 . S
C1015 C1016 1.287 . S
C1016 C1015 1.287 . S
C1016 C1017 1.524 . S
C1016 H1035 0.913 . S
C1017 H993 0.950 . S
C1017 C1016 1.524 . S
C1017 C1018 1.415 . S
C1018 H994 0.950 . S
C1018 C1013 1.363 . S
C1018 C1017 1.415 . S
C1019 H995 0.951 . S
C1019 C1020 1.366 . S
C1019 C1021 1.388 . S
C1020 C1019 1.366 . S
C1020 C1024 1.385 . S
C1021 H996 0.951 . S
C1021 C1019 1.388 . S
C1021 C1022 1.366 . S
C1022 C1021 1.366 . S
C1022 C1023 1.414 . S
C1022 C1025 1.499 . S
C1023 H997 0.950 . S
C1023 C1022 1.414 . S
C1023 C1024 1.374 . S
C1024 H998 0.950 . S
C1024 C1020 1.385 . S
C1024 C1023 1.374 . S
C1025 C1022 1.499 . S
C1025 C1026 1.373 . S
C1025 C1027 1.389 . S
C1026 H999 0.950 . S
C1026 C1012 1.377 . S
C1026 C1025 1.373 . S
C1027 C1011 1.377 . S
C1027 C1025 1.389 . S
C1027 C1028 1.524 . S
C1028 C1027 1.524 . S
C1028 C1029 1.397 . S
C1028 C1033 1.363 . S
C1029 H1000 0.950 . S
C1029 C1028 1.397 . S
C1029 C1030 1.334 . S
C1030 H1001 0.950 . S
C1030 C1029 1.334 . S
C1030 C1031 1.287 . S
C1031 C1030 1.287 . S
C1031 C1032 1.524 . S
C1031 H1034 0.999 . S
C1032 H1002 0.950 . S
C1032 C1031 1.524 . S
C1032 C1033 1.415 . S
C1033 H1003 0.950 . S
C1033 C1028 1.363 . S
C1033 C1032 1.415 . S
H1034 C1031 0.999 . S
H1035 C1016 0.913 . S
H1036 C1054 0.951 . S
H1037 C1056 0.951 . S
H1038 C1058 0.950 . S
H1039 C1059 0.950 . S
H1040 C1061 0.950 . S
H1041 C1064 0.950 . S
H1042 C1065 0.950 . S
H1043 C1067 0.950 . S
H1044 C1068 0.950 . S
H1045 C1069 0.951 . S
H1046 C1071 0.951 . S
H1047 C1073 0.950 . S
H1048 C1074 0.950 . S
H1049 C1076 0.950 . S
H1050 C1079 0.950 . S
H1051 C1080 0.950 . S
H1052 C1082 0.950 . S
H1053 C1083 0.950 . S
C1054 H1036 0.951 . S
C1054 C1055 1.366 . S
C1054 C1056 1.388 . S
C1055 C1054 1.366 . S
C1055 C1059 1.385 . S
C1056 H1037 0.951 . S
C1056 C1054 1.388 . S
C1056 C1057 1.366 . S
C1057 C1056 1.366 . S
C1057 C1058 1.414 . S
C1057 C1060 1.499 . S
C1058 H1038 0.950 . S
C1058 C1057 1.414 . S
C1058 C1059 1.374 . S
C1059 H1039 0.950 . S
C1059 C1055 1.385 . S
C1059 C1058 1.374 . S
C1060 C1057 1.499 . S
C1060 C1061 1.373 . S
C1060 C1062 1.389 . S
C1061 H1040 0.950 . S
C1061 C1060 1.373 . S
C1061 C1077 1.377 . S
C1062 C1060 1.389 . S
C1062 C1063 1.524 . S
C1062 C1076 1.377 . S
C1063 C1062 1.524 . S
C1063 C1064 1.397 . S
C1063 C1068 1.363 . S
C1064 H1041 0.950 . S
C1064 C1063 1.397 . S
C1064 C1065 1.334 . S
C1065 H1042 0.950 . S
C1065 C1064 1.334 . S
C1065 C1066 1.287 . S
C1066 C1065 1.287 . S
C1066 C1067 1.524 . S
C1066 H1085 0.913 . S
C1067 H1043 0.950 . S
C1067 C1066 1.524 . S
C1067 C1068 1.415 . S
C1068 H1044 0.950 . S
C1068 C1063 1.363 . S
C1068 C1067 1.415 . S
C1069 H1045 0.951 . S
C1069 C1070 1.366 . S
C1069 C1071 1.388 . S
C1070 C1069 1.366 . S
C1070 C1074 1.385 . S
C1071 H1046 0.951 . S
C1071 C1069 1.388 . S
C1071 C1072 1.366 . S
C1072 C1071 1.366 . S
C1072 C1073 1.414 . S
C1072 C1075 1.499 . S
C1073 H1047 0.950 . S
C1073 C1072 1.414 . S
C1073 C1074 1.374 . S
C1074 H1048 0.950 . S
C1074 C1070 1.385 . S
C1074 C1073 1.374 . S
C1075 C1072 1.499 . S
C1075 C1076 1.373 . S
C1075 C1077 1.389 . S
C1076 H1049 0.950 . S
C1076 C1062 1.377 . S
C1076 C1075 1.373 . S
C1077 C1061 1.377 . S
C1077 C1075 1.389 . S
C1077 C1078 1.524 . S
C1078 C1077 1.524 . S
C1078 C1079 1.397 . S
C1078 C1083 1.363 . S
C1079 H1050 0.950 . S
C1079 C1078 1.397 . S
C1079 C1080 1.334 . S
C1080 H1051 0.950 . S
C1080 C1079 1.334 . S
C1080 C1081 1.287 . S
C1081 C1080 1.287 . S
C1081 C1082 1.524 . S
C1081 H1084 0.999 . S
C1082 H1052 0.950 . S
C1082 C1081 1.524 . S
C1082 C1083 1.415 . S
C1083 H1053 0.950 . S
C1083 C1078 1.363 . S
C1083 C1082 1.415 . S
H1084 C1081 0.999 . S
H1085 C1066 0.913 . S
H1086 C1104 0.951 . S
H1087 C1106 0.951 . S
H1088 C1108 0.950 . S
H1089 C1109 0.950 . S
H1090 C1111 0.950 . S
H1091 C1114 0.950 . S
H1092 C1115 0.950 . S
H1093 C1117 0.950 . S
H1094 C1118 0.950 . S
H1095 C1119 0.951 . S
H1096 C1121 0.951 . S
H1097 C1123 0.950 . S
H1098 C1124 0.950 . S
H1099 C1126 0.950 . S
H1100 C1129 0.950 . S
H1101 C1130 0.950 . S
H1102 C1132 0.950 . S
H1103 C1133 0.950 . S
C1104 H1086 0.951 . S
C1104 C1105 1.366 . S
C1104 C1106 1.388 . S
C1105 C1104 1.366 . S
C1105 C1109 1.385 . S
C1106 H1087 0.951 . S
C1106 C1104 1.388 . S
C1106 C1107 1.366 . S
C1107 C1106 1.366 . S
C1107 C1108 1.414 . S
C1107 C1110 1.499 . S
C1108 H1088 0.950 . S
C1108 C1107 1.414 . S
C1108 C1109 1.374 . S
C1109 H1089 0.950 . S
C1109 C1105 1.385 . S
C1109 C1108 1.374 . S
C1110 C1107 1.499 . S
C1110 C1111 1.373 . S
C1110 C1112 1.389 . S
C1111 H1090 0.950 . S
C1111 C1110 1.373 . S
C1111 C1127 1.377 . S
C1112 C1110 1.389 . S
C1112 C1113 1.524 . S
C1112 C1126 1.377 . S
C1113 C1112 1.524 . S
C1113 C1114 1.397 . S
C1113 C1118 1.363 . S
C1114 H1091 0.950 . S
C1114 C1113 1.397 . S
C1114 C1115 1.334 . S
C1115 H1092 0.950 . S
C1115 C1114 1.334 . S
C1115 C1116 1.287 . S
C1116 C1115 1.287 . S
C1116 C1117 1.524 . S
C1116 H1135 0.913 . S
C1117 H1093 0.950 . S
C1117 C1116 1.524 . S
C1117 C1118 1.415 . S
C1118 H1094 0.950 . S
C1118 C1113 1.363 . S
C1118 C1117 1.415 . S
C1119 H1095 0.951 . S
C1119 C1120 1.366 . S
C1119 C1121 1.388 . S
C1120 C1119 1.366 . S
C1120 C1124 1.385 . S
C1121 H1096 0.951 . S
C1121 C1119 1.388 . S
C1121 C1122 1.366 . S
C1122 C1121 1.366 . S
C1122 C1123 1.414 . S
C1122 C1125 1.499 . S
C1123 H1097 0.950 . S
C1123 C1122 1.414 . S
C1123 C1124 1.374 . S
C1124 H1098 0.950 . S
C1124 C1120 1.385 . S
C1124 C1123 1.374 . S
C1125 C1122 1.499 . S
C1125 C1126 1.373 . S
C1125 C1127 1.389 . S
C1126 H1099 0.950 . S
C1126 C1112 1.377 . S
C1126 C1125 1.373 . S
C1127 C1111 1.377 . S
C1127 C1125 1.389 . S
C1127 C1128 1.524 . S
C1128 C1127 1.524 . S
C1128 C1129 1.397 . S
C1128 C1133 1.363 . S
C1129 H1100 0.950 . S
C1129 C1128 1.397 . S
C1129 C1130 1.334 . S
C1130 H1101 0.950 . S
C1130 C1129 1.334 . S
C1130 C1131 1.287 . S
C1131 C1130 1.287 . S
C1131 C1132 1.524 . S
C1131 H1134 0.999 . S
C1132 H1102 0.950 . S
C1132 C1131 1.524 . S
C1132 C1133 1.415 . S
C1133 H1103 0.950 . S
C1133 C1128 1.363 . S
C1133 C1132 1.415 . S
H1134 C1131 0.999 . S
H1135 C1116 0.913 . S
H1136 C1154 0.951 . S
H1137 C1156 0.951 . S
H1138 C1158 0.950 . S
H1139 C1159 0.950 . S
H1140 C1161 0.950 . S
H1141 C1164 0.950 . S
H1142 C1165 0.950 . S
H1143 C1167 0.950 . S
H1144 C1168 0.950 . S
H1145 C1169 0.951 . S
H1146 C1171 0.951 . S
H1147 C1173 0.950 . S
H1148 C1174 0.950 . S
H1149 C1176 0.950 . S
H1150 C1179 0.950 . S
H1151 C1180 0.950 . S
H1152 C1182 0.950 . S
H1153 C1183 0.950 . S
C1154 H1136 0.951 . S
C1154 C1155 1.366 . S
C1154 C1156 1.388 . S
C1155 C1154 1.366 . S
C1155 C1159 1.385 . S
C1156 H1137 0.951 . S
C1156 C1154 1.388 . S
C1156 C1157 1.366 . S
C1157 C1156 1.366 . S
C1157 C1158 1.414 . S
C1157 C1160 1.499 . S
C1158 H1138 0.950 . S
C1158 C1157 1.414 . S
C1158 C1159 1.374 . S
C1159 H1139 0.950 . S
C1159 C1155 1.385 . S
C1159 C1158 1.374 . S
C1160 C1157 1.499 . S
C1160 C1161 1.373 . S
C1160 C1162 1.389 . S
C1161 H1140 0.950 . S
C1161 C1160 1.373 . S
C1161 C1177 1.377 . S
C1162 C1160 1.389 . S
C1162 C1163 1.524 . S
C1162 C1176 1.377 . S
C1163 C1162 1.524 . S
C1163 C1164 1.397 . S
C1163 C1168 1.363 . S
C1164 H1141 0.950 . S
C1164 C1163 1.397 . S
C1164 C1165 1.334 . S
C1165 H1142 0.950 . S
C1165 C1164 1.334 . S
C1165 C1166 1.287 . S
C1166 C1165 1.287 . S
C1166 C1167 1.524 . S
C1166 H1185 0.913 . S
C1167 H1143 0.950 . S
C1167 C1166 1.524 . S
C1167 C1168 1.415 . S
C1168 H1144 0.950 . S
C1168 C1163 1.363 . S
C1168 C1167 1.415 . S
C1169 H1145 0.951 . S
C1169 C1170 1.366 . S
C1169 C1171 1.388 . S
C1170 C1169 1.366 . S
C1170 C1174 1.385 . S
C1171 H1146 0.951 . S
C1171 C1169 1.388 . S
C1171 C1172 1.366 . S
C1172 C1171 1.366 . S
C1172 C1173 1.414 . S
C1172 C1175 1.499 . S
C1173 H1147 0.950 . S
C1173 C1172 1.414 . S
C1173 C1174 1.374 . S
C1174 H1148 0.950 . S
C1174 C1170 1.385 . S
C1174 C1173 1.374 . S
C1175 C1172 1.499 . S
C1175 C1176 1.373 . S
C1175 C1177 1.389 . S
C1176 H1149 0.950 . S
C1176 C1162 1.377 . S
C1176 C1175 1.373 . S
C1177 C1161 1.377 . S
C1177 C1175 1.389 . S
C1177 C1178 1.524 . S
C1178 C1177 1.524 . S
C1178 C1179 1.397 . S
C1178 C1183 1.363 . S
C1179 H1150 0.950 . S
C1179 C1178 1.397 . S
C1179 C1180 1.334 . S
C1180 H1151 0.950 . S
C1180 C1179 1.334 . S
C1180 C1181 1.287 . S
C1181 C1180 1.287 . S
C1181 C1182 1.524 . S
C1181 H1184 0.999 . S
C1182 H1152 0.950 . S
C1182 C1181 1.524 . S
C1182 C1183 1.415 . S
C1183 H1153 0.950 . S
C1183 C1178 1.363 . S
C1183 C1182 1.415 . S
H1184 C1181 0.999 . S
H1185 C1166 0.913 . S
H1186 C1204 0.951 . S
H1187 C1206 0.951 . S
H1188 C1208 0.950 . S
H1189 C1209 0.950 . S
H1190 C1211 0.950 . S
H1191 C1214 0.950 . S
H1192 C1215 0.950 . S
H1193 C1217 0.950 . S
H1194 C1218 0.950 . S
H1195 C1219 0.951 . S
H1196 C1221 0.951 . S
H1197 C1223 0.950 . S
H1198 C1224 0.950 . S
H1199 C1226 0.950 . S
H1200 C1229 0.950 . S
H1201 C1230 0.950 . S
H1202 C1232 0.950 . S
H1203 C1233 0.950 . S
C1204 H1186 0.951 . S
C1204 C1205 1.366 . S
C1204 C1206 1.388 . S
C1205 C1204 1.366 . S
C1205 C1209 1.385 . S
C1206 H1187 0.951 . S
C1206 C1204 1.388 . S
C1206 C1207 1.366 . S
C1207 C1206 1.366 . S
C1207 C1208 1.414 . S
C1207 C1210 1.499 . S
C1208 H1188 0.950 . S
C1208 C1207 1.414 . S
C1208 C1209 1.374 . S
C1209 H1189 0.950 . S
C1209 C1205 1.385 . S
C1209 C1208 1.374 . S
C1210 C1207 1.499 . S
C1210 C1211 1.373 . S
C1210 C1212 1.389 . S
C1211 H1190 0.950 . S
C1211 C1210 1.373 . S
C1211 C1227 1.377 . S
C1212 C1210 1.389 . S
C1212 C1213 1.524 . S
C1212 C1226 1.377 . S
C1213 C1212 1.524 . S
C1213 C1214 1.397 . S
C1213 C1218 1.363 . S
C1214 H1191 0.950 . S
C1214 C1213 1.397 . S
C1214 C1215 1.334 . S
C1215 H1192 0.950 . S
C1215 C1214 1.334 . S
C1215 C1216 1.287 . S
C1216 C1215 1.287 . S
C1216 C1217 1.524 . S
C1216 H1235 0.913 . S
C1217 H1193 0.950 . S
C1217 C1216 1.524 . S
C1217 C1218 1.415 . S
C1218 H1194 0.950 . S
C1218 C1213 1.363 . S
C1218 C1217 1.415 . S
C1219 H1195 0.951 . S
C1219 C1220 1.366 . S
C1219 C1221 1.388 . S
C1220 C1219 1.366 . S
C1220 C1224 1.385 . S
C1221 H1196 0.951 . S
C1221 C1219 1.388 . S
C1221 C1222 1.366 . S
C1222 C1221 1.366 . S
C1222 C1223 1.414 . S
C1222 C1225 1.499 . S
C1223 H1197 0.950 . S
C1223 C1222 1.414 . S
C1223 C1224 1.374 . S
C1224 H1198 0.950 . S
C1224 C1220 1.385 . S
C1224 C1223 1.374 . S
C1225 C1222 1.499 . S
C1225 C1226 1.373 . S
C1225 C1227 1.389 . S
C1226 H1199 0.950 . S
C1226 C1212 1.377 . S
C1226 C1225 1.373 . S
C1227 C1211 1.377 . S
C1227 C1225 1.389 . S
C1227 C1228 1.524 . S
C1228 C1227 1.524 . S
C1228 C1229 1.397 . S
C1228 C1233 1.363 . S
C1229 H1200 0.950 . S
C1229 C1228 1.397 . S
C1229 C1230 1.334 . S
C1230 H1201 0.950 . S
C1230 C1229 1.334 . S
C1230 C1231 1.287 . S
C1231 C1230 1.287 . S
C1231 C1232 1.524 . S
C1231 H1234 0.999 . S
C1232 H1202 0.950 . S
C1232 C1231 1.524 . S
C1232 C1233 1.415 . S
C1233 H1203 0.950 . S
C1233 C1228 1.363 . S
C1233 C1232 1.415 . S
H1234 C1231 0.999 . S
H1235 C1216 0.913 . S
H1236 C1254 0.951 . S
H1237 C1256 0.951 . S
H1238 C1258 0.950 . S
H1239 C1259 0.950 . S
H1240 C1261 0.950 . S
H1241 C1264 0.950 . S
H1242 C1265 0.950 . S
H1243 C1267 0.950 . S
H1244 C1268 0.950 . S
H1245 C1269 0.951 . S
H1246 C1271 0.951 . S
H1247 C1273 0.950 . S
H1248 C1274 0.950 . S
H1249 C1276 0.950 . S
H1250 C1279 0.950 . S
H1251 C1280 0.950 . S
H1252 C1282 0.950 . S
H1253 C1283 0.950 . S
C1254 H1236 0.951 . S
C1254 C1255 1.366 . S
C1254 C1256 1.388 . S
C1255 C1254 1.366 . S
C1255 C1259 1.385 . S
C1256 H1237 0.951 . S
C1256 C1254 1.388 . S
C1256 C1257 1.366 . S
C1257 C1256 1.366 . S
C1257 C1258 1.414 . S
C1257 C1260 1.499 . S
C1258 H1238 0.950 . S
C1258 C1257 1.414 . S
C1258 C1259 1.374 . S
C1259 H1239 0.950 . S
C1259 C1255 1.385 . S
C1259 C1258 1.374 . S
C1260 C1257 1.499 . S
C1260 C1261 1.373 . S
C1260 C1262 1.389 . S
C1261 H1240 0.950 . S
C1261 C1260 1.373 . S
C1261 C1277 1.377 . S
C1262 C1260 1.389 . S
C1262 C1263 1.524 . S
C1262 C1276 1.377 . S
C1263 C1262 1.524 . S
C1263 C1264 1.397 . S
C1263 C1268 1.363 . S
C1264 H1241 0.950 . S
C1264 C1263 1.397 . S
C1264 C1265 1.334 . S
C1265 H1242 0.950 . S
C1265 C1264 1.334 . S
C1265 C1266 1.287 . S
C1266 C1265 1.287 . S
C1266 C1267 1.524 . S
C1266 H1285 0.913 . S
C1267 H1243 0.950 . S
C1267 C1266 1.524 . S
C1267 C1268 1.415 . S
C1268 H1244 0.950 . S
C1268 C1263 1.363 . S
C1268 C1267 1.415 . S
C1269 H1245 0.951 . S
C1269 C1270 1.366 . S
C1269 C1271 1.388 . S
C1270 C1269 1.366 . S
C1270 C1274 1.385 . S
C1271 H1246 0.951 . S
C1271 C1269 1.388 . S
C1271 C1272 1.366 . S
C1272 C1271 1.366 . S
C1272 C1273 1.414 . S
C1272 C1275 1.499 . S
C1273 H1247 0.950 . S
C1273 C1272 1.414 . S
C1273 C1274 1.374 . S
C1274 H1248 0.950 . S
C1274 C1270 1.385 . S
C1274 C1273 1.374 . S
C1275 C1272 1.499 . S
C1275 C1276 1.373 . S
C1275 C1277 1.389 . S
C1276 H1249 0.950 . S
C1276 C1262 1.377 . S
C1276 C1275 1.373 . S
C1277 C1261 1.377 . S
C1277 C1275 1.389 . S
C1277 C1278 1.524 . S
C1278 C1277 1.524 . S
C1278 C1279 1.397 . S
C1278 C1283 1.363 . S
C1279 H1250 0.950 . S
C1279 C1278 1.397 . S
C1279 C1280 1.334 . S
C1280 H1251 0.950 . S
C1280 C1279 1.334 . S
C1280 C1281 1.287 . S
C1281 C1280 1.287 . S
C1281 C1282 1.524 . S
C1281 H1284 0.999 . S
C1282 H1252 0.950 . S
C1282 C1281 1.524 . S
C1282 C1283 1.415 . S
C1283 H1253 0.950 . S
C1283 C1278 1.363 . S
C1283 C1282 1.415 . S
H1284 C1281 0.999 . S
H1285 C1266 0.913 . S
H1286 C1304 0.951 . S
H1287 C1306 0.951 . S
H1288 C1308 0.950 . S
H1289 C1309 0.950 . S
H1290 C1311 0.950 . S
H1291 C1314 0.950 . S
H1292 C1315 0.950 . S
H1293 C1317 0.950 . S
H1294 C1318 0.950 . S
H1295 C1319 0.951 . S
H1296 C1321 0.951 . S
H1297 C1323 0.950 . S
H1298 C1324 0.950 . S
H1299 C1326 0.950 . S
H1300 C1329 0.950 . S
H1301 C1330 0.950 . S
H1302 C1332 0.950 . S
H1303 C1333 0.950 . S
C1304 H1286 0.951 . S
C1304 C1305 1.366 . S
C1304 C1306 1.388 . S
C1305 C1304 1.366 . S
C1305 C1309 1.385 . S
C1306 H1287 0.951 . S
C1306 C1304 1.388 . S
C1306 C1307 1.366 . S
C1307 C1306 1.366 . S
C1307 C1308 1.414 . S
C1307 C1310 1.499 . S
C1308 H1288 0.950 . S
C1308 C1307 1.414 . S
C1308 C1309 1.374 . S
C1309 H1289 0.950 . S
C1309 C1305 1.385 . S
C1309 C1308 1.374 . S
C1310 C1307 1.499 . S
C1310 C1311 1.373 . S
C1310 C1312 1.389 . S
C1311 H1290 0.950 . S
C1311 C1310 1.373 . S
C1311 C1327 1.377 . S
C1312 C1310 1.389 . S
C1312 C1313 1.524 . S
C1312 C1326 1.377 . S
C1313 C1312 1.524 . S
C1313 C1314 1.397 . S
C1313 C1318 1.363 . S
C1314 H1291 0.950 . S
C1314 C1313 1.397 . S
C1314 C1315 1.334 . S
C1315 H1292 0.950 . S
C1315 C1314 1.334 . S
C1315 C1316 1.287 . S
C1316 C1315 1.287 . S
C1316 C1317 1.524 . S
C1316 H1335 0.913 . S
C1317 H1293 0.950 . S
C1317 C1316 1.524 . S
C1317 C1318 1.415 . S
C1318 H1294 0.950 . S
C1318 C1313 1.363 . S
C1318 C1317 1.415 . S
C1319 H1295 0.951 . S
C1319 C1320 1.366 . S
C1319 C1321 1.388 . S
C1320 C1319 1.366 . S
C1320 C1324 1.385 . S
C1321 H1296 0.951 . S
C1321 C1319 1.388 . S
C1321 C1322 1.366 . S
C1322 C1321 1.366 . S
C1322 C1323 1.414 . S
C1322 C1325 1.499 . S
C1323 H1297 0.950 . S
C1323 C1322 1.414 . S
C1323 C1324 1.374 . S
C1324 H1298 0.950 . S
C1324 C1320 1.385 . S
C1324 C1323 1.374 . S
C1325 C1322 1.499 . S
C1325 C1326 1.373 . S
C1325 C1327 1.389 . S
C1326 H1299 0.950 . S
C1326 C1312 1.377 . S
C1326 C1325 1.373 . S
C1327 C1311 1.377 . S
C1327 C1325 1.389 . S
C1327 C1328 1.524 . S
C1328 C1327 1.524 . S
C1328 C1329 1.397 . S
C1328 C1333 1.363 . S
C1329 H1300 0.950 . S
C1329 C1328 1.397 . S
C1329 C1330 1.334 . S
C1330 H1301 0.950 . S
C1330 C1329 1.334 . S
C1330 C1331 1.287 . S
C1331 C1330 1.287 . S
C1331 C1332 1.524 . S
C1331 H1334 0.999 . S
C1332 H1302 0.950 . S
C1332 C1331 1.524 . S
C1332 C1333 1.415 . S
C1333 H1303 0.950 . S
C1333 C1328 1.363 . S
C1333 C1332 1.415 . S
H1334 C1331 0.999 . S
H1335 C1316 0.913 . S
H1336 C1354 0.951 . S
H1337 C1356 0.951 . S
H1338 C1358 0.950 . S
H1339 C1359 0.950 . S
H1340 C1361 0.950 . S
H1341 C1364 0.950 . S
H1342 C1365 0.950 . S
H1343 C1367 0.950 . S
H1344 C1368 0.950 . S
H1345 C1369 0.951 . S
H1346 C1371 0.951 . S
H1347 C1373 0.950 . S
H1348 C1374 0.950 . S
H1349 C1376 0.950 . S
H1350 C1379 0.950 . S
H1351 C1380 0.950 . S
H1352 C1382 0.950 . S
H1353 C1383 0.950 . S
C1354 H1336 0.951 . S
C1354 C1355 1.366 . S
C1354 C1356 1.388 . S
C1355 C1354 1.366 . S
C1355 C1359 1.385 . S
C1356 H1337 0.951 . S
C1356 C1354 1.388 . S
C1356 C1357 1.366 . S
C1357 C1356 1.366 . S
C1357 C1358 1.414 . S
C1357 C1360 1.499 . S
C1358 H1338 0.950 . S
C1358 C1357 1.414 . S
C1358 C1359 1.374 . S
C1359 H1339 0.950 . S
C1359 C1355 1.385 . S
C1359 C1358 1.374 . S
C1360 C1357 1.499 . S
C1360 C1361 1.373 . S
C1360 C1362 1.389 . S
C1361 H1340 0.950 . S
C1361 C1360 1.373 . S
C1361 C1377 1.377 . S
C1362 C1360 1.389 . S
C1362 C1363 1.524 . S
C1362 C1376 1.377 . S
C1363 C1362 1.524 . S
C1363 C1364 1.397 . S
C1363 C1368 1.363 . S
C1364 H1341 0.950 . S
C1364 C1363 1.397 . S
C1364 C1365 1.334 . S
C1365 H1342 0.950 . S
C1365 C1364 1.334 . S
C1365 C1366 1.287 . S
C1366 C1365 1.287 . S
C1366 C1367 1.524 . S
C1366 H1385 0.913 . S
C1367 H1343 0.950 . S
C1367 C1366 1.524 . S
C1367 C1368 1.415 . S
C1368 H1344 0.950 . S
C1368 C1363 1.363 . S
C1368 C1367 1.415 . S
C1369 H1345 0.951 . S
C1369 C1370 1.366 . S
C1369 C1371 1.388 . S
C1370 C1369 1.366 . S
C1370 C1374 1.385 . S
C1371 H1346 0.951 . S
C1371 C1369 1.388 . S
C1371 C1372 1.366 . S
C1372 C1371 1.366 . S
C1372 C1373 1.414 . S
C1372 C1375 1.499 . S
C1373 H1347 0.950 . S
C1373 C1372 1.414 . S
C1373 C1374 1.374 . S
C1374 H1348 0.950 . S
C1374 C1370 1.385 . S
C1374 C1373 1.374 . S
C1375 C1372 1.499 . S
C1375 C1376 1.373 . S
C1375 C1377 1.389 . S
C1376 H1349 0.950 . S
C1376 C1362 1.377 . S
C1376 C1375 1.373 . S
C1377 C1361 1.377 . S
C1377 C1375 1.389 . S
C1377 C1378 1.524 . S
C1378 C1377 1.524 . S
C1378 C1379 1.397 . S
C1378 C1383 1.363 . S
C1379 H1350 0.950 . S
C1379 C1378 1.397 . S
C1379 C1380 1.334 . S
C1380 H1351 0.950 . S
C1380 C1379 1.334 . S
C1380 C1381 1.287 . S
C1381 C1380 1.287 . S
C1381 C1382 1.524 . S
C1381 H1384 0.999 . S
C1382 H1352 0.950 . S
C1382 C1381 1.524 . S
C1382 C1383 1.415 . S
C1383 H1353 0.950 . S
C1383 C1378 1.363 . S
C1383 C1382 1.415 . S
H1384 C1381 0.999 . S
H1385 C1366 0.913 . S
H1386 C1404 0.951 . S
H1387 C1406 0.951 . S
H1388 C1408 0.950 . S
H1389 C1409 0.950 . S
H1390 C1411 0.950 . S
H1391 C1414 0.950 . S
H1392 C1415 0.950 . S
H1393 C1417 0.950 . S
H1394 C1418 0.950 . S
H1395 C1419 0.951 . S
H1396 C1421 0.951 . S
H1397 C1423 0.950 . S
H1398 C1424 0.950 . S
H1399 C1426 0.950 . S
H1400 C1429 0.950 . S
H1401 C1430 0.950 . S
H1402 C1432 0.950 . S
H1403 C1433 0.950 . S
C1404 H1386 0.951 . S
C1404 C1405 1.366 . S
C1404 C1406 1.388 . S
C1405 C1404 1.366 . S
C1405 C1409 1.385 . S
C1406 H1387 0.951 . S
C1406 C1404 1.388 . S
C1406 C1407 1.366 . S
C1407 C1406 1.366 . S
C1407 C1408 1.414 . S
C1407 C1410 1.499 . S
C1408 H1388 0.950 . S
C1408 C1407 1.414 . S
C1408 C1409 1.374 . S
C1409 H1389 0.950 . S
C1409 C1405 1.385 . S
C1409 C1408 1.374 . S
C1410 C1407 1.499 . S
C1410 C1411 1.373 . S
C1410 C1412 1.389 . S
C1411 H1390 0.950 . S
C1411 C1410 1.373 . S
C1411 C1427 1.377 . S
C1412 C1410 1.389 . S
C1412 C1413 1.524 . S
C1412 C1426 1.377 . S
C1413 C1412 1.524 . S
C1413 C1414 1.397 . S
C1413 C1418 1.363 . S
C1414 H1391 0.950 . S
C1414 C1413 1.397 . S
C1414 C1415 1.334 . S
C1415 H1392 0.950 . S
C1415 C1414 1.334 . S
C1415 C1416 1.287 . S
C1416 C1415 1.287 . S
C1416 C1417 1.524 . S
C1416 H1435 0.913 . S
C1417 H1393 0.950 . S
C1417 C1416 1.524 . S
C1417 C1418 1.415 . S
C1418 H1394 0.950 . S
C1418 C1413 1.363 . S
C1418 C1417 1.415 . S
C1419 H1395 0.951 . S
C1419 C1420 1.366 . S
C1419 C1421 1.388 . S
C1420 C1419 1.366 . S
C1420 C1424 1.385 . S
C1421 H1396 0.951 . S
C1421 C1419 1.388 . S
C1421 C1422 1.366 . S
C1422 C1421 1.366 . S
C1422 C1423 1.414 . S
C1422 C1425 1.499 . S
C1423 H1397 0.950 . S
C1423 C1422 1.414 . S
C1423 C1424 1.374 . S
C1424 H1398 0.950 . S
C1424 C1420 1.385 . S
C1424 C1423 1.374 . S
C1425 C1422 1.499 . S
C1425 C1426 1.373 . S
C1425 C1427 1.389 . S
C1426 H1399 0.950 . S
C1426 C1412 1.377 . S
C1426 C1425 1.373 . S
C1427 C1411 1.377 . S
C1427 C1425 1.389 . S
C1427 C1428 1.524 . S
C1428 C1427 1.524 . S
C1428 C1429 1.397 . S
C1428 C1433 1.363 . S
C1429 H1400 0.950 . S
C1429 C1428 1.397 . S
C1429 C1430 1.334 . S
C1430 H1401 0.950 . S
C1430 C1429 1.334 . S
C1430 C1431 1.287 . S
C1431 C1430 1.287 . S
C1431 C1432 1.524 . S
C1431 H1434 0.999 . S
C1432 H1402 0.950 . S
C1432 C1431 1.524 . S
C1432 C1433 1.415 . S
C1433 H1403 0.950 . S
C1433 C1428 1.363 . S
C1433 C1432 1.415 . S
H1434 C1431 0.999 . S
H1435 C1416 0.913 . S
H1436 C1454 0.951 . S
H1437 C1456 0.951 . S
H1438 C1458 0.950 . S
H1439 C1459 0.950 . S
H1440 C1461 0.950 . S
H1441 C1464 0.950 . S
H1442 C1465 0.950 . S
H1443 C1467 0.950 . S
H1444 C1468 0.950 . S
H1445 C1469 0.951 . S
H1446 C1471 0.951 . S
H1447 C1473 0.950 . S
H1448 C1474 0.950 . S
H1449 C1476 0.950 . S
H1450 C1479 0.950 . S
H1451 C1480 0.950 . S
H1452 C1482 0.950 . S
H1453 C1483 0.950 . S
C1454 H1436 0.951 . S
C1454 C1455 1.366 . S
C1454 C1456 1.388 . S
C1455 C1454 1.366 . S
C1455 C1459 1.385 . S
C1456 H1437 0.951 . S
C1456 C1454 1.388 . S
C1456 C1457 1.366 . S
C1457 C1456 1.366 . S
C1457 C1458 1.414 . S
C1457 C1460 1.499 . S
C1458 H1438 0.950 . S
C1458 C1457 1.414 . S
C1458 C1459 1.374 . S
C1459 H1439 0.950 . S
C1459 C1455 1.385 . S
C1459 C1458 1.374 . S
C1460 C1457 1.499 . S
C1460 C1461 1.373 . S
C1460 C1462 1.389 . S
C1461 H1440 0.950 . S
C1461 C1460 1.373 . S
C1461 C1477 1.377 . S
C1462 C1460 1.389 . S
C1462 C1463 1.524 . S
C1462 C1476 1.377 . S
C1463 C1462 1.524 . S
C1463 C1464 1.397 . S
C1463 C1468 1.363 . S
C1464 H1441 0.950 . S
C1464 C1463 1.397 . S
C1464 C1465 1.334 . S
C1465 H1442 0.950 . S
C1465 C1464 1.334 . S
C1465 C1466 1.287 . S
C1466 C1465 1.287 . S
C1466 C1467 1.524 . S
C1466 H1485 0.913 . S
C1467 H1443 0.950 . S
C1467 C1466 1.524 . S
C1467 C1468 1.415 . S
C1468 H1444 0.950 . S
C1468 C1463 1.363 . S
C1468 C1467 1.415 . S
C1469 H1445 0.951 . S
C1469 C1470 1.366 . S
C1469 C1471 1.388 . S
C1470 C1469 1.366 . S
C1470 C1474 1.385 . S
C1471 H1446 0.951 . S
C1471 C1469 1.388 . S
C1471 C1472 1.366 . S
C1472 C1471 1.366 . S
C1472 C1473 1.414 . S
C1472 C1475 1.499 . S
C1473 H1447 0.950 . S
C1473 C1472 1.414 . S
C1473 C1474 1.374 . S
C1474 H1448 0.950 . S
C1474 C1470 1.385 . S
C1474 C1473 1.374 . S
C1475 C1472 1.499 . S
C1475 C1476 1.373 . S
C1475 C1477 1.389 . S
C1476 H1449 0.950 . S
C1476 C1462 1.377 . S
C1476 C1475 1.373 . S
C1477 C1461 1.377 . S
C1477 C1475 1.389 . S
C1477 C1478 1.524 . S
C1478 C1477 1.524 . S
C1478 C1479 1.397 . S
C1478 C1483 1.363 . S
C1479 H1450 0.950 . S
C1479 C1478 1.397 . S
C1479 C1480 1.334 . S
C1480 H1451 0.950 . S
C1480 C1479 1.334 . S
C1480 C1481 1.287 . S
C1481 C1480 1.287 . S
C1481 C1482 1.524 . S
C1481 H1484 0.999 . S
C1482 H1452 0.950 . S
C1482 C1481 1.524 . S
C1482 C1483 1.415 . S
C1483 H1453 0.950 . S
C1483 C1478 1.363 . S
C1483 C1482 1.415 . S
H1484 C1481 0.999 . S
H1485 C1466 0.913 . S
H1486 C1504 0.951 . S
H1487 C1506 0.951 . S
H1488 C1508 0.950 . S
H1489 C1509 0.950 . S
H1490 C1511 0.950 . S
H1491 C1514 0.950 . S
H1492 C1515 0.950 . S
H1493 C1517 0.950 . S
H1494 C1518 0.950 . S
H1495 C1519 0.951 . S
H1496 C1521 0.951 . S
H1497 C1523 0.950 . S
H1498 C1524 0.950 . S
H1499 C1526 0.950 . S
H1500 C1529 0.950 . S
H1501 C1530 0.950 . S
H1502 C1532 0.950 . S
H1503 C1533 0.950 . S
C1504 H1486 0.951 . S
C1504 C1505 1.366 . S
C1504 C1506 1.388 . S
C1505 C1504 1.366 . S
C1505 C1509 1.385 . S
C1506 H1487 0.951 . S
C1506 C1504 1.388 . S
C1506 C1507 1.366 . S
C1507 C1506 1.366 . S
C1507 C1508 1.414 . S
C1507 C1510 1.499 . S
C1508 H1488 0.950 . S
C1508 C1507 1.414 . S
C1508 C1509 1.374 . S
C1509 H1489 0.950 . S
C1509 C1505 1.385 . S
C1509 C1508 1.374 . S
C1510 C1507 1.499 . S
C1510 C1511 1.373 . S
C1510 C1512 1.389 . S
C1511 H1490 0.950 . S
C1511 C1510 1.373 . S
C1511 C1527 1.377 . S
C1512 C1510 1.389 . S
C1512 C1513 1.524 . S
C1512 C1526 1.377 . S
C1513 C1512 1.524 . S
C1513 C1514 1.397 . S
C1513 C1518 1.363 . S
C1514 H1491 0.950 . S
C1514 C1513 1.397 . S
C1514 C1515 1.334 . S
C1515 H1492 0.950 . S
C1515 C1514 1.334 . S
C1515 C1516 1.287 . S
C1516 C1515 1.287 . S
C1516 C1517 1.524 . S
C1516 H1535 0.913 . S
C1517 H1493 0.950 . S
C1517 C1516 1.524 . S
C1517 C1518 1.415 . S
C1518 H1494 0.950 . S
C1518 C1513 1.363 . S
C1518 C1517 1.415 . S
C1519 H1495 0.951 . S
C1519 C1520 1.366 . S
C1519 C1521 1.388 . S
C1520 C1519 1.366 . S
C1520 C1524 1.385 . S
C1521 H1496 0.951 . S
C1521 C1519 1.388 . S
C1521 C1522 1.366 . S
C1522 C1521 1.366 . S
C1522 C1523 1.414 . S
C1522 C1525 1.499 . S
C1523 H1497 0.950 . S
C1523 C1522 1.414 . S
C1523 C1524 1.374 . S
C1524 H1498 0.950 . S
C1524 C1520 1.385 . S
C1524 C1523 1.374 . S
C1525 C1522 1.499 . S
C1525 C1526 1.373 . S
C1525 C1527 1.389 . S
C1526 H1499 0.950 . S
C1526 C1512 1.377 . S
C1526 C1525 1.373 . S
C1527 C1511 1.377 . S
C1527 C1525 1.389 . S
C1527 C1528 1.524 . S
C1528 C1527 1.524 . S
C1528 C1529 1.397 . S
C1528 C1533 1.363 . S
C1529 H1500 0.950 . S
C1529 C1528 1.397 . S
C1529 C1530 1.334 . S
C1530 H1501 0.950 . S
C1530 C1529 1.334 . S
C1530 C1531 1.287 . S
C1531 C1530 1.287 . S
C1531 C1532 1.524 . S
C1531 H1534 0.999 . S
C1532 H1502 0.950 . S
C1532 C1531 1.524 . S
C1532 C1533 1.415 . S
C1533 H1503 0.950 . S
C1533 C1528 1.363 . S
C1533 C1532 1.415 . S
H1534 C1531 0.999 . S
H1535 C1516 0.913 . S
H1536 C1554 0.951 . S
H1537 C1556 0.951 . S
H1538 C1558 0.950 . S
H1539 C1559 0.950 . S
H1540 C1561 0.950 . S
H1541 C1564 0.950 . S
H1542 C1565 0.950 . S
H1543 C1567 0.950 . S
H1544 C1568 0.950 . S
H1545 C1569 0.951 . S
H1546 C1571 0.951 . S
H1547 C1573 0.950 . S
H1548 C1574 0.950 . S
H1549 C1576 0.950 . S
H1550 C1579 0.950 . S
H1551 C1580 0.950 . S
H1552 C1582 0.950 . S
H1553 C1583 0.950 . S
C1554 H1536 0.951 . S
C1554 C1555 1.366 . S
C1554 C1556 1.388 . S
C1555 C1554 1.366 . S
C1555 C1559 1.385 . S
C1556 H1537 0.951 . S
C1556 C1554 1.388 . S
C1556 C1557 1.366 . S
C1557 C1556 1.366 . S
C1557 C1558 1.414 . S
C1557 C1560 1.499 . S
C1558 H1538 0.950 . S
C1558 C1557 1.414 . S
C1558 C1559 1.374 . S
C1559 H1539 0.950 . S
C1559 C1555 1.385 . S
C1559 C1558 1.374 . S
C1560 C1557 1.499 . S
C1560 C1561 1.373 . S
C1560 C1562 1.389 . S
C1561 H1540 0.950 . S
C1561 C1560 1.373 . S
C1561 C1577 1.377 . S
C1562 C1560 1.389 . S
C1562 C1563 1.524 . S
C1562 C1576 1.377 . S
C1563 C1562 1.524 . S
C1563 C1564 1.397 . S
C1563 C1568 1.363 . S
C1564 H1541 0.950 . S
C1564 C1563 1.397 . S
C1564 C1565 1.334 . S
C1565 H1542 0.950 . S
C1565 C1564 1.334 . S
C1565 C1566 1.287 . S
C1566 C1565 1.287 . S
C1566 C1567 1.524 . S
C1566 H1585 0.913 . S
C1567 H1543 0.950 . S
C1567 C1566 1.524 . S
C1567 C1568 1.415 . S
C1568 H1544 0.950 . S
C1568 C1563 1.363 . S
C1568 C1567 1.415 . S
C1569 H1545 0.951 . S
C1569 C1570 1.366 . S
C1569 C1571 1.388 . S
C1570 C1569 1.366 . S
C1570 C1574 1.385 . S
C1571 H1546 0.951 . S
C1571 C1569 1.388 . S
C1571 C1572 1.366 . S
C1572 C1571 1.366 . S
C1572 C1573 1.414 . S
C1572 C1575 1.499 . S
C1573 H1547 0.950 . S
C1573 C1572 1.414 . S
C1573 C1574 1.374 . S
C1574 H1548 0.950 . S
C1574 C1570 1.385 . S
C1574 C1573 1.374 . S
C1575 C1572 1.499 . S
C1575 C1576 1.373 . S
C1575 C1577 1.389 . S
C1576 H1549 0.950 . S
C1576 C1562 1.377 . S
C1576 C1575 1.373 . S
C1577 C1561 1.377 . S
C1577 C1575 1.389 . S
C1577 C1578 1.524 . S
C1578 C1577 1.524 . S
C1578 C1579 1.397 . S
C1578 C1583 1.363 . S
C1579 H1550 0.950 . S
C1579 C1578 1.397 . S
C1579 C1580 1.334 . S
C1580 H1551 0.950 . S
C1580 C1579 1.334 . S
C1580 C1581 1.287 . S
C1581 C1580 1.287 . S
C1581 C1582 1.524 . S
C1581 H1584 0.999 . S
C1582 H1552 0.950 . S
C1582 C1581 1.524 . S
C1582 C1583 1.415 . S
C1583 H1553 0.950 . S
C1583 C1578 1.363 . S
C1583 C1582 1.415 . S
H1584 C1581 0.999 . S
H1585 C1566 0.913 . S
H1586 C1604 0.951 . S
H1587 C1606 0.951 . S
H1588 C1608 0.950 . S
H1589 C1609 0.950 . S
H1590 C1611 0.950 . S
H1591 C1614 0.950 . S
H1592 C1615 0.950 . S
H1593 C1617 0.952 . S
H1594 C1618 0.950 . S
H1595 C1619 0.951 . S
H1596 C1621 0.951 . S
H1597 C1623 0.950 . S
H1598 C1624 0.950 . S
H1599 C1626 0.950 . S
H1600 C1629 0.950 . S
H1601 C1630 0.950 . S
H1602 C1632 0.950 . S
H1603 C1633 0.950 . S
C1604 H1586 0.951 . S
C1604 C1605 1.366 . S
C1604 C1606 1.388 . S
C1605 C1604 1.366 . S
C1605 C1609 1.385 . S
C1606 H1587 0.951 . S
C1606 C1604 1.388 . S
C1606 C1607 1.366 . S
C1607 C1606 1.366 . S
C1607 C1608 1.414 . S
C1607 C1610 1.499 . S
C1608 H1588 0.950 . S
C1608 C1607 1.414 . S
C1608 C1609 1.374 . S
C1609 H1589 0.950 . S
C1609 C1605 1.385 . S
C1609 C1608 1.374 . S
C1610 C1607 1.499 . S
C1610 C1611 1.373 . S
C1610 C1612 1.388 1_554 S
C1611 H1590 0.950 . S
C1611 C1610 1.373 . S
C1611 C1627 1.377 1_554 S
C1612 C1610 1.388 1_556 S
C1612 C1613 1.524 1_556 S
C1612 C1626 1.379 . S
C1613 C1612 1.524 1_554 S
C1613 C1614 1.397 . S
C1613 C1618 1.363 1_554 S
C1614 H1591 0.950 . S
C1614 C1613 1.397 . S
C1614 C1615 1.334 . S
C1615 H1592 0.950 . S
C1615 C1614 1.334 . S
C1615 C1616 1.287 . S
C1616 C1615 1.287 . S
C1616 C1617 1.520 1_554 S
C1616 H1635 0.913 . S
C1617 H1593 0.952 . S
C1617 C1616 1.520 1_556 S
C1617 C1618 1.416 . S
C1618 H1594 0.950 . S
C1618 C1613 1.363 1_556 S
C1618 C1617 1.416 . S
C1619 H1595 0.951 . S
C1619 C1620 1.366 . S
C1619 C1621 1.388 . S
C1620 C1619 1.366 . S
C1620 C1624 1.385 . S
C1621 H1596 0.951 . S
C1621 C1619 1.388 . S
C1621 C1622 1.366 . S
C1622 C1621 1.366 . S
C1622 C1623 1.414 . S
C1622 C1625 1.499 . S
C1623 H1597 0.950 . S
C1623 C1622 1.414 . S
C1623 C1624 1.374 . S
C1624 H1598 0.950 . S
C1624 C1620 1.385 . S
C1624 C1623 1.374 . S
C1625 C1622 1.499 . S
C1625 C1626 1.373 . S
C1625 C1627 1.389 . S
C1626 H1599 0.950 . S
C1626 C1612 1.379 . S
C1626 C1625 1.373 . S
C1627 C1611 1.377 1_556 S
C1627 C1625 1.389 . S
C1627 C1628 1.524 . S
C1628 C1627 1.524 . S
C1628 C1629 1.397 . S
C1628 C1633 1.363 . S
C1629 H1600 0.950 . S
C1629 C1628 1.397 . S
C1629 C1630 1.334 . S
C1630 H1601 0.950 . S
C1630 C1629 1.334 . S
C1630 C1631 1.287 . S
C1631 C1630 1.287 . S
C1631 C1632 1.524 . S
C1631 H1634 0.999 . S
C1632 H1602 0.950 . S
C1632 C1631 1.524 . S
C1632 C1633 1.415 . S
C1633 H1603 0.950 . S
C1633 C1628 1.363 . S
C1633 C1632 1.415 . S
H1634 C1631 0.999 . S
H1635 C1616 0.913 . S
H1636 C1654 0.951 . S
H1637 C1656 0.951 . S
H1638 C1658 0.950 . S
H1639 C1659 0.950 . S
H1640 C1661 0.950 . S
H1641 C1664 0.950 . S
H1642 C1665 0.950 . S
H1643 C1667 0.950 . S
H1644 C1668 0.950 . S
H1645 C1669 0.951 . S
H1646 C1671 0.951 . S
H1647 C1673 0.950 . S
H1648 C1674 0.950 . S
H1649 C1676 0.950 . S
H1650 C1679 0.950 . S
H1651 C1680 0.950 . S
H1652 C1682 0.950 . S
H1653 C1683 0.950 . S
C1654 H1636 0.951 . S
C1654 C1655 1.366 . S
C1654 C1656 1.388 . S
C1655 C1654 1.366 . S
C1655 C1659 1.385 . S
C1656 H1637 0.951 . S
C1656 C1654 1.388 . S
C1656 C1657 1.366 . S
C1657 C1656 1.366 . S
C1657 C1658 1.414 . S
C1657 C1660 1.499 . S
C1658 H1638 0.950 . S
C1658 C1657 1.414 . S
C1658 C1659 1.374 . S
C1659 H1639 0.950 . S
C1659 C1655 1.385 . S
C1659 C1658 1.374 . S
C1660 C1657 1.499 . S
C1660 C1661 1.373 . S
C1660 C1662 1.389 . S
C1661 H1640 0.950 . S
C1661 C1660 1.373 . S
C1661 C1677 1.377 . S
C1662 C1660 1.389 . S
C1662 C1663 1.524 . S
C1662 C1676 1.377 . S
C1663 C1662 1.524 . S
C1663 C1664 1.397 . S
C1663 C1668 1.363 . S
C1664 H1641 0.950 . S
C1664 C1663 1.397 . S
C1664 C1665 1.334 . S
C1665 H1642 0.950 . S
C1665 C1664 1.334 . S
C1665 C1666 1.287 . S
C1666 C1665 1.287 . S
C1666 C1667 1.524 . S
C1666 H1685 0.913 . S
C1667 H1643 0.950 . S
C1667 C1666 1.524 . S
C1667 C1668 1.415 . S
C1668 H1644 0.950 . S
C1668 C1663 1.363 . S
C1668 C1667 1.415 . S
C1669 H1645 0.951 . S
C1669 C1670 1.366 . S
C1669 C1671 1.388 . S
C1670 C1669 1.366 . S
C1670 C1674 1.385 . S
C1671 H1646 0.951 . S
C1671 C1669 1.388 . S
C1671 C1672 1.366 . S
C1672 C1671 1.366 . S
C1672 C1673 1.414 . S
C1672 C1675 1.499 . S
C1673 H1647 0.950 . S
C1673 C1672 1.414 . S
C1673 C1674 1.374 . S
C1674 H1648 0.950 . S
C1674 C1670 1.385 . S
C1674 C1673 1.374 . S
C1675 C1672 1.499 . S
C1675 C1676 1.373 . S
C1675 C1677 1.389 . S
C1676 H1649 0.950 . S
C1676 C1662 1.377 . S
C1676 C1675 1.373 . S
C1677 C1661 1.377 . S
C1677 C1675 1.389 . S
C1677 C1678 1.524 . S
C1678 C1677 1.524 . S
C1678 C1679 1.397 . S
C1678 C1683 1.363 . S
C1679 H1650 0.950 . S
C1679 C1678 1.397 . S
C1679 C1680 1.334 . S
C1680 H1651 0.950 . S
C1680 C1679 1.334 . S
C1680 C1681 1.287 . S
C1681 C1680 1.287 . S
C1681 C1682 1.524 . S
C1681 H1684 0.999 . S
C1682 H1652 0.950 . S
C1682 C1681 1.524 . S
C1682 C1683 1.415 . S
C1683 H1653 0.950 . S
C1683 C1678 1.363 . S
C1683 C1682 1.415 . S
H1684 C1681 0.999 . S
H1685 C1666 0.913 . S
H1686 C1704 0.951 . S
H1687 C1706 0.951 . S
H1688 C1708 0.950 . S
H1689 C1709 0.950 . S
H1690 C1711 0.950 . S
H1691 C1714 0.950 . S
H1692 C1715 0.950 . S
H1693 C1717 0.950 . S
H1694 C1718 0.950 . S
H1695 C1719 0.951 . S
H1696 C1721 0.951 . S
H1697 C1723 0.950 . S
H1698 C1724 0.950 . S
H1699 C1726 0.950 . S
H1700 C1729 0.950 . S
H1701 C1730 0.950 . S
H1702 C1732 0.950 . S
H1703 C1733 0.950 . S
C1704 H1686 0.951 . S
C1704 C1705 1.366 . S
C1704 C1706 1.388 . S
C1705 C1704 1.366 . S
C1705 C1709 1.385 . S
C1706 H1687 0.951 . S
C1706 C1704 1.388 . S
C1706 C1707 1.366 . S
C1707 C1706 1.366 . S
C1707 C1708 1.414 . S
C1707 C1710 1.499 . S
C1708 H1688 0.950 . S
C1708 C1707 1.414 . S
C1708 C1709 1.374 . S
C1709 H1689 0.950 . S
C1709 C1705 1.385 . S
C1709 C1708 1.374 . S
C1710 C1707 1.499 . S
C1710 C1711 1.373 . S
C1710 C1712 1.389 . S
C1711 H1690 0.950 . S
C1711 C1710 1.373 . S
C1711 C1727 1.377 . S
C1712 C1710 1.389 . S
C1712 C1713 1.524 . S
C1712 C1726 1.377 1_554 S
C1713 C1712 1.524 . S
C1713 C1714 1.397 . S
C1713 C1718 1.363 1_554 S
C1714 H1691 0.950 . S
C1714 C1713 1.397 . S
C1714 C1715 1.334 . S
C1715 H1692 0.950 . S
C1715 C1714 1.334 . S
C1715 C1716 1.287 . S
C1716 C1715 1.287 . S
C1716 C1717 1.524 1_554 S
C1716 H1735 0.913 . S
C1717 H1693 0.950 . S
C1717 C1716 1.524 1_556 S
C1717 C1718 1.415 . S
C1718 H1694 0.950 . S
C1718 C1713 1.363 1_556 S
C1718 C1717 1.415 . S
C1719 H1695 0.951 . S
C1719 C1720 1.366 . S
C1719 C1721 1.388 . S
C1720 C1719 1.366 . S
C1720 C1724 1.385 . S
C1721 H1696 0.951 . S
C1721 C1719 1.388 . S
C1721 C1722 1.366 . S
C1722 C1721 1.366 . S
C1722 C1723 1.414 . S
C1722 C1725 1.499 . S
C1723 H1697 0.950 . S
C1723 C1722 1.414 . S
C1723 C1724 1.374 . S
C1724 H1698 0.950 . S
C1724 C1720 1.385 . S
C1724 C1723 1.374 . S
C1725 C1722 1.499 . S
C1725 C1726 1.373 . S
C1725 C1727 1.389 1_556 S
C1726 H1699 0.950 . S
C1726 C1712 1.377 1_556 S
C1726 C1725 1.373 . S
C1727 C1711 1.377 . S
C1727 C1725 1.389 1_554 S
C1727 C1728 1.524 . S
C1728 C1727 1.524 . S
C1728 C1729 1.397 1_554 S
C1728 C1733 1.363 . S
C1729 H1700 0.950 . S
C1729 C1728 1.397 1_556 S
C1729 C1730 1.334 . S
C1730 H1701 0.950 . S
C1730 C1729 1.334 . S
C1730 C1731 1.287 1_556 S
C1731 C1730 1.287 1_554 S
C1731 C1732 1.524 . S
C1731 H1734 0.999 . S
C1732 H1702 0.950 . S
C1732 C1731 1.524 . S
C1732 C1733 1.415 . S
C1733 H1703 0.950 . S
C1733 C1728 1.363 . S
C1733 C1732 1.415 . S
H1734 C1731 0.999 . S
H1735 C1716 0.913 . S
H1736 C1754 0.951 . S
H1737 C1756 0.951 . S
H1738 C1758 0.950 . S
H1739 C1759 0.950 . S
H1740 C1761 0.950 . S
H1741 C1764 0.950 . S
H1742 C1765 0.950 . S
H1743 C1767 0.950 . S
H1744 C1768 0.950 . S
H1745 C1769 0.951 . S
H1746 C1771 0.951 . S
H1747 C1773 0.950 . S
H1748 C1774 0.950 . S
H1749 C1776 0.950 . S
H1750 C1779 0.950 . S
H1751 C1780 0.950 . S
H1752 C1782 0.950 . S
H1753 C1783 0.950 . S
C1754 H1736 0.951 . S
C1754 C1755 1.366 . S
C1754 C1756 1.388 . S
C1755 C1754 1.366 . S
C1755 C1759 1.385 . S
C1756 H1737 0.951 . S
C1756 C1754 1.388 . S
C1756 C1757 1.366 . S
C1757 C1756 1.366 . S
C1757 C1758 1.414 . S
C1757 C1760 1.499 . S
C1758 H1738 0.950 . S
C1758 C1757 1.414 . S
C1758 C1759 1.374 . S
C1759 H1739 0.950 . S
C1759 C1755 1.385 . S
C1759 C1758 1.374 . S
C1760 C1757 1.499 . S
C1760 C1761 1.373 . S
C1760 C1762 1.389 . S
C1761 H1740 0.950 . S
C1761 C1760 1.373 . S
C1761 C1777 1.377 . S
C1762 C1760 1.389 . S
C1762 C1763 1.524 . S
C1762 C1776 1.377 . S
C1763 C1762 1.524 . S
C1763 C1764 1.397 . S
C1763 C1768 1.363 . S
C1764 H1741 0.950 . S
C1764 C1763 1.397 . S
C1764 C1765 1.334 . S
C1765 H1742 0.950 . S
C1765 C1764 1.334 . S
C1765 C1766 1.287 . S
C1766 C1765 1.287 . S
C1766 C1767 1.524 . S
C1766 H1785 0.913 . S
C1767 H1743 0.950 . S
C1767 C1766 1.524 . S
C1767 C1768 1.415 . S
C1768 H1744 0.950 . S
C1768 C1763 1.363 . S
C1768 C1767 1.415 . S
C1769 H1745 0.951 . S
C1769 C1770 1.366 . S
C1769 C1771 1.388 . S
C1770 C1769 1.366 . S
C1770 C1774 1.385 . S
C1771 H1746 0.951 . S
C1771 C1769 1.388 . S
C1771 C1772 1.366 . S
C1772 C1771 1.366 . S
C1772 C1773 1.414 . S
C1772 C1775 1.499 . S
C1773 H1747 0.950 . S
C1773 C1772 1.414 . S
C1773 C1774 1.374 . S
C1774 H1748 0.950 . S
C1774 C1770 1.385 . S
C1774 C1773 1.374 . S
C1775 C1772 1.499 . S
C1775 C1776 1.373 . S
C1775 C1777 1.389 . S
C1776 H1749 0.950 . S
C1776 C1762 1.377 . S
C1776 C1775 1.373 . S
C1777 C1761 1.377 . S
C1777 C1775 1.389 . S
C1777 C1778 1.524 . S
C1778 C1777 1.524 . S
C1778 C1779 1.397 . S
C1778 C1783 1.363 . S
C1779 H1750 0.950 . S
C1779 C1778 1.397 . S
C1779 C1780 1.334 . S
C1780 H1751 0.950 . S
C1780 C1779 1.334 . S
C1780 C1781 1.287 . S
C1781 C1780 1.287 . S
C1781 C1782 1.524 . S
C1781 H1784 0.999 . S
C1782 H1752 0.950 . S
C1782 C1781 1.524 . S
C1782 C1783 1.415 . S
C1783 H1753 0.950 . S
C1783 C1778 1.363 . S
C1783 C1782 1.415 . S
H1784 C1781 0.999 . S
H1785 C1766 0.913 . S
H1786 C1804 0.951 . S
H1787 C1806 0.951 . S
H1788 C1808 0.950 . S
H1789 C1809 0.950 . S
H1790 C1811 0.950 . S
H1791 C1814 0.950 . S
H1792 C1815 0.950 . S
H1793 C1817 0.950 . S
H1794 C1818 0.950 . S
H1795 C1819 0.951 . S
H1796 C1821 0.951 . S
H1797 C1823 0.950 . S
H1798 C1824 0.950 . S
H1799 C1826 0.950 . S
H1800 C1829 0.950 . S
H1801 C1830 0.950 . S
H1802 C1832 0.950 . S
H1803 C1833 0.950 . S
C1804 H1786 0.951 . S
C1804 C1805 1.366 . S
C1804 C1806 1.388 . S
C1805 C1804 1.366 . S
C1805 C1809 1.385 . S
C1806 H1787 0.951 . S
C1806 C1804 1.388 . S
C1806 C1807 1.366 . S
C1807 C1806 1.366 . S
C1807 C1808 1.414 . S
C1807 C1810 1.499 . S
C1808 H1788 0.950 . S
C1808 C1807 1.414 . S
C1808 C1809 1.374 . S
C1809 H1789 0.950 . S
C1809 C1805 1.385 . S
C1809 C1808 1.374 . S
C1810 C1807 1.499 . S
C1810 C1811 1.373 . S
C1810 C1812 1.389 1_655 S
C1811 H1790 0.950 . S
C1811 C1810 1.373 . S
C1811 C1827 1.377 1_655 S
C1812 C1810 1.389 1_455 S
C1812 C1813 1.524 . S
C1812 C1826 1.377 . S
C1813 C1812 1.524 . S
C1813 C1814 1.397 1_455 S
C1813 C1818 1.363 . S
C1814 H1791 0.950 . S
C1814 C1813 1.397 1_655 S
C1814 C1815 1.334 . S
C1815 H1792 0.950 . S
C1815 C1814 1.334 . S
C1815 C1816 1.287 1_655 S
C1816 C1815 1.287 1_455 S
C1816 C1817 1.524 . S
C1816 H1835 0.913 . S
C1817 H1793 0.950 . S
C1817 C1816 1.524 . S
C1817 C1818 1.415 . S
C1818 H1794 0.950 . S
C1818 C1813 1.363 . S
C1818 C1817 1.415 . S
C1819 H1795 0.951 . S
C1819 C1820 1.366 . S
C1819 C1821 1.388 . S
C1820 C1819 1.366 . S
C1820 C1824 1.385 . S
C1821 H1796 0.951 . S
C1821 C1819 1.388 . S
C1821 C1822 1.366 . S
C1822 C1821 1.366 . S
C1822 C1823 1.414 . S
C1822 C1825 1.499 . S
C1823 H1797 0.950 . S
C1823 C1822 1.414 . S
C1823 C1824 1.374 . S
C1824 H1798 0.950 . S
C1824 C1820 1.385 . S
C1824 C1823 1.374 . S
C1825 C1822 1.499 . S
C1825 C1826 1.373 . S
C1825 C1827 1.389 . S
C1826 H1799 0.950 . S
C1826 C1812 1.377 . S
C1826 C1825 1.373 . S
C1827 C1811 1.377 1_455 S
C1827 C1825 1.389 . S
C1827 C1828 1.524 . S
C1828 C1827 1.524 . S
C1828 C1829 1.397 . S
C1828 C1833 1.363 1_455 S
C1829 H1800 0.950 . S
C1829 C1828 1.397 . S
C1829 C1830 1.334 . S
C1830 H1801 0.950 . S
C1830 C1829 1.334 . S
C1830 C1831 1.287 . S
C1831 C1830 1.287 . S
C1831 C1832 1.524 1_455 S
C1831 H1834 0.999 . S
C1832 H1802 0.950 . S
C1832 C1831 1.524 1_655 S
C1832 C1833 1.415 . S
C1833 H1803 0.950 . S
C1833 C1828 1.363 1_655 S
C1833 C1832 1.415 . S
H1834 C1831 0.999 . S
H1835 C1816 0.913 . S
H1836 C1854 0.951 . S
H1837 C1856 0.951 . S
H1838 C1858 0.950 . S
H1839 C1859 0.950 . S
H1840 C1861 0.950 . S
H1841 C1864 0.950 . S
H1842 C1865 0.950 . S
H1843 C1867 0.950 . S
H1844 C1868 0.950 . S
H1845 C1869 0.951 . S
H1846 C1871 0.951 . S
H1847 C1873 0.950 . S
H1848 C1874 0.950 . S
H1849 C1876 0.950 . S
H1850 C1879 0.950 . S
H1851 C1880 0.950 . S
H1852 C1882 0.950 1_455 S
H1853 C1883 0.950 1_455 S
C1854 H1836 0.951 . S
C1854 C1855 1.366 . S
C1854 C1856 1.388 . S
C1855 C1854 1.366 . S
C1855 C1859 1.385 . S
C1856 H1837 0.951 . S
C1856 C1854 1.388 . S
C1856 C1857 1.366 . S
C1857 C1856 1.366 . S
C1857 C1858 1.414 . S
C1857 C1860 1.499 . S
C1858 H1838 0.950 . S
C1858 C1857 1.414 . S
C1858 C1859 1.374 . S
C1859 H1839 0.950 . S
C1859 C1855 1.385 . S
C1859 C1858 1.374 . S
C1860 C1857 1.499 . S
C1860 C1861 1.373 . S
C1860 C1862 1.389 1_455 S
C1861 H1840 0.950 . S
C1861 C1860 1.373 . S
C1861 C1877 1.377 1_455 S
C1862 C1860 1.389 1_655 S
C1862 C1863 1.525 . S
C1862 C1876 1.377 . S
C1863 C1862 1.525 . S
C1863 C1864 1.393 1_655 S
C1863 C1868 1.367 . S
C1864 H1841 0.950 . S
C1864 C1863 1.393 1_455 S
C1864 C1865 1.334 . S
C1865 H1842 0.950 . S
C1865 C1864 1.334 . S
C1865 C1866 1.290 . S
C1866 C1865 1.290 . S
C1866 C1867 1.521 1_455 S
C1866 H1885 0.914 . S
C1867 H1843 0.950 . S
C1867 C1866 1.521 1_655 S
C1867 C1868 1.415 . S
C1868 H1844 0.950 . S
C1868 C1863 1.367 . S
C1868 C1867 1.415 . S
C1869 H1845 0.951 . S
C1869 C1870 1.366 . S
C1869 C1871 1.388 . S
C1870 C1869 1.366 . S
C1870 C1874 1.385 . S
C1871 H1846 0.951 . S
C1871 C1869 1.388 . S
C1871 C1872 1.366 . S
C1872 C1871 1.366 . S
C1872 C1873 1.414 . S
C1872 C1875 1.499 . S
C1873 H1847 0.950 . S
C1873 C1872 1.414 . S
C1873 C1874 1.374 . S
C1874 H1848 0.950 . S
C1874 C1870 1.385 . S
C1874 C1873 1.374 . S
C1875 C1872 1.499 . S
C1875 C1876 1.373 . S
C1875 C1877 1.389 . S
C1876 H1849 0.950 . S
C1876 C1862 1.377 . S
C1876 C1875 1.373 . S
C1877 C1861 1.377 1_655 S
C1877 C1875 1.389 . S
C1877 C1878 1.524 . S
C1878 C1877 1.524 . S
C1878 C1879 1.397 . S
C1878 C1883 1.363 . S
C1879 H1850 0.950 . S
C1879 C1878 1.397 . S
C1879 C1880 1.334 . S
C1880 H1851 0.950 . S
C1880 C1879 1.334 . S
C1880 C1881 1.287 . S
C1881 C1880 1.287 . S
C1881 C1882 1.524 . S
C1881 H1884 0.999 . S
C1882 H1852 0.950 1_655 S
C1882 C1881 1.524 . S
C1882 C1883 1.415 . S
C1883 H1853 0.950 1_655 S
C1883 C1878 1.363 . S
C1883 C1882 1.415 . S
H1884 C1881 0.999 . S
H1885 C1866 0.914 . S
H1886 C1904 0.951 . S
H1887 C1906 0.951 . S
H1888 C1908 0.950 . S
H1889 C1909 0.950 . S
H1890 C1911 0.950 . S
H1891 C1914 0.950 . S
H1892 C1915 0.950 . S
H1893 C1917 0.950 . S
H1894 C1918 0.950 . S
H1895 C1919 0.951 . S
H1896 C1921 0.951 . S
H1897 C1923 0.950 . S
H1898 C1924 0.950 . S
H1899 C1926 0.950 . S
H1900 C1929 0.950 . S
H1901 C1930 0.950 . S
H1902 C1932 0.950 . S
H1903 C1933 0.950 . S
C1904 H1886 0.951 . S
C1904 C1905 1.366 . S
C1904 C1906 1.388 . S
C1905 C1904 1.366 . S
C1905 C1909 1.385 . S
C1906 H1887 0.951 . S
C1906 C1904 1.388 . S
C1906 C1907 1.366 . S
C1907 C1906 1.366 . S
C1907 C1908 1.414 . S
C1907 C1910 1.499 . S
C1908 H1888 0.950 . S
C1908 C1907 1.414 . S
C1908 C1909 1.374 . S
C1909 H1889 0.950 . S
C1909 C1905 1.385 . S
C1909 C1908 1.374 . S
C1910 C1907 1.499 . S
C1910 C1911 1.373 . S
C1910 C1912 1.389 . S
C1911 H1890 0.950 . S
C1911 C1910 1.373 . S
C1911 C1927 1.377 . S
C1912 C1910 1.389 . S
C1912 C1913 1.524 . S
C1912 C1926 1.377 . S
C1913 C1912 1.524 . S
C1913 C1914 1.397 . S
C1913 C1918 1.363 . S
C1914 H1891 0.950 . S
C1914 C1913 1.397 . S
C1914 C1915 1.334 . S
C1915 H1892 0.950 . S
C1915 C1914 1.334 . S
C1915 C1916 1.287 . S
C1916 C1915 1.287 . S
C1916 C1917 1.524 . S
C1916 H1935 0.913 . S
C1917 H1893 0.950 . S
C1917 C1916 1.524 . S
C1917 C1918 1.415 . S
C1918 H1894 0.950 . S
C1918 C1913 1.363 . S
C1918 C1917 1.415 . S
C1919 H1895 0.951 . S
C1919 C1920 1.366 . S
C1919 C1921 1.388 . S
C1920 C1919 1.366 . S
C1920 C1924 1.385 . S
C1921 H1896 0.951 . S
C1921 C1919 1.388 . S
C1921 C1922 1.366 . S
C1922 C1921 1.366 . S
C1922 C1923 1.414 . S
C1922 C1925 1.499 . S
C1923 H1897 0.950 . S
C1923 C1922 1.414 . S
C1923 C1924 1.374 . S
C1924 H1898 0.950 . S
C1924 C1920 1.385 . S
C1924 C1923 1.374 . S
C1925 C1922 1.499 . S
C1925 C1926 1.373 . S
C1925 C1927 1.389 . S
C1926 H1899 0.950 . S
C1926 C1912 1.377 . S
C1926 C1925 1.373 . S
C1927 C1911 1.377 . S
C1927 C1925 1.389 . S
C1927 C1928 1.524 . S
C1928 C1927 1.524 . S
C1928 C1929 1.397 . S
C1928 C1933 1.363 . S
C1929 H1900 0.950 . S
C1929 C1928 1.397 . S
C1929 C1930 1.334 . S
C1930 H1901 0.950 . S
C1930 C1929 1.334 . S
C1930 C1931 1.287 . S
C1931 C1930 1.287 . S
C1931 C1932 1.524 . S
C1931 H1934 0.999 . S
C1932 H1902 0.950 . S
C1932 C1931 1.524 . S
C1932 C1933 1.415 . S
C1933 H1903 0.950 . S
C1933 C1928 1.363 . S
C1933 C1932 1.415 . S
H1934 C1931 0.999 . S
H1935 C1916 0.913 . S
H1936 C1954 0.951 . S
H1937 C1956 0.951 . S
H1938 C1958 0.950 . S
H1939 C1959 0.950 . S
H1940 C1961 0.950 . S
H1941 C1964 0.950 . S
H1942 C1965 0.950 . S
H1943 C1967 0.950 . S
H1944 C1968 0.950 . S
H1945 C1969 0.951 . S
H1946 C1971 0.951 . S
H1947 C1973 0.950 . S
H1948 C1974 0.950 . S
H1949 C1976 0.950 . S
H1950 C1979 0.950 . S
H1951 C1980 0.950 . S
H1952 C1982 0.950 . S
H1953 C1983 0.950 . S
C1954 H1936 0.951 . S
C1954 C1955 1.366 . S
C1954 C1956 1.388 . S
C1955 C1954 1.366 . S
C1955 C1959 1.385 . S
C1956 H1937 0.951 . S
C1956 C1954 1.388 . S
C1956 C1957 1.366 . S
C1957 C1956 1.366 . S
C1957 C1958 1.414 . S
C1957 C1960 1.499 . S
C1958 H1938 0.950 . S
C1958 C1957 1.414 . S
C1958 C1959 1.374 . S
C1959 H1939 0.950 . S
C1959 C1955 1.385 . S
C1959 C1958 1.374 . S
C1960 C1957 1.499 . S
C1960 C1961 1.373 . S
C1960 C1962 1.389 . S
C1961 H1940 0.950 . S
C1961 C1960 1.373 . S
C1961 C1977 1.377 . S
C1962 C1960 1.389 . S
C1962 C1963 1.524 . S
C1962 C1976 1.377 . S
C1963 C1962 1.524 . S
C1963 C1964 1.397 . S
C1963 C1968 1.363 . S
C1964 H1941 0.950 . S
C1964 C1963 1.397 . S
C1964 C1965 1.334 . S
C1965 H1942 0.950 . S
C1965 C1964 1.334 . S
C1965 C1966 1.287 . S
C1966 C1965 1.287 . S
C1966 C1967 1.524 . S
C1966 H1985 0.913 . S
C1967 H1943 0.950 . S
C1967 C1966 1.524 . S
C1967 C1968 1.415 . S
C1968 H1944 0.950 . S
C1968 C1963 1.363 . S
C1968 C1967 1.415 . S
C1969 H1945 0.951 . S
C1969 C1970 1.366 . S
C1969 C1971 1.388 . S
C1970 C1969 1.366 . S
C1970 C1974 1.385 . S
C1971 H1946 0.951 . S
C1971 C1969 1.388 . S
C1971 C1972 1.366 . S
C1972 C1971 1.366 . S
C1972 C1973 1.414 . S
C1972 C1975 1.499 . S
C1973 H1947 0.950 . S
C1973 C1972 1.414 . S
C1973 C1974 1.374 . S
C1974 H1948 0.950 . S
C1974 C1970 1.385 . S
C1974 C1973 1.374 . S
C1975 C1972 1.499 . S
C1975 C1976 1.373 . S
C1975 C1977 1.389 . S
C1976 H1949 0.950 . S
C1976 C1962 1.377 . S
C1976 C1975 1.373 . S
C1977 C1961 1.377 . S
C1977 C1975 1.389 . S
C1977 C1978 1.524 . S
C1978 C1977 1.524 . S
C1978 C1979 1.397 . S
C1978 C1983 1.363 . S
C1979 H1950 0.950 . S
C1979 C1978 1.397 . S
C1979 C1980 1.334 . S
C1980 H1951 0.950 . S
C1980 C1979 1.334 . S
C1980 C1981 1.287 . S
C1981 C1980 1.287 . S
C1981 C1982 1.524 . S
C1981 H1984 0.999 . S
C1982 H1952 0.950 . S
C1982 C1981 1.524 . S
C1982 C1983 1.415 . S
C1983 H1953 0.950 . S
C1983 C1978 1.363 . S
C1983 C1982 1.415 . S
H1984 C1981 0.999 . S
H1985 C1966 0.913 . S
H1986 C2004 0.951 . S
H1987 C2006 0.951 . S
H1988 C2008 0.950 . S
H1989 C2009 0.950 . S
H1990 C2011 0.950 . S
H1991 C2014 0.950 . S
H1992 C2015 0.950 . S
H1993 C2017 0.950 . S
H1994 C2018 0.950 . S
H1995 C2019 0.951 . S
H1996 C2021 0.951 . S
H1997 C2023 0.950 . S
H1998 C2024 0.950 . S
H1999 C2026 0.950 . S
H2000 C2029 0.950 . S
H2001 C2030 0.950 . S
H2002 C2032 0.950 . S
H2003 C2033 0.950 . S
C2004 H1986 0.951 . S
C2004 C2005 1.366 . S
C2004 C2006 1.388 . S
C2005 C2004 1.366 . S
C2005 C2009 1.385 . S
C2006 H1987 0.951 . S
C2006 C2004 1.388 . S
C2006 C2007 1.366 . S
C2007 C2006 1.366 . S
C2007 C2008 1.414 . S
C2007 C2010 1.499 . S
C2008 H1988 0.950 . S
C2008 C2007 1.414 . S
C2008 C2009 1.374 . S
C2009 H1989 0.950 . S
C2009 C2005 1.385 . S
C2009 C2008 1.374 . S
C2010 C2007 1.499 . S
C2010 C2011 1.373 . S
C2010 C2012 1.389 1_565 S
C2011 H1990 0.950 . S
C2011 C2010 1.373 . S
C2011 C2027 1.377 1_565 S
C2012 C2010 1.389 1_545 S
C2012 C2013 1.525 . S
C2012 C2026 1.377 . S
C2013 C2012 1.525 . S
C2013 C2014 1.396 1_545 S
C2013 C2018 1.363 . S
C2014 H1991 0.950 . S
C2014 C2013 1.396 1_565 S
C2014 C2015 1.334 . S
C2015 H1992 0.950 . S
C2015 C2014 1.334 . S
C2015 C2016 1.287 . S
C2016 C2015 1.287 . S
C2016 C2017 1.524 1_565 S
C2016 H2035 0.913 . S
C2017 H1993 0.950 . S
C2017 C2016 1.524 1_545 S
C2017 C2018 1.415 . S
C2018 H1994 0.950 . S
C2018 C2013 1.363 . S
C2018 C2017 1.415 . S
C2019 H1995 0.951 . S
C2019 C2020 1.366 . S
C2019 C2021 1.388 . S
C2020 C2019 1.366 . S
C2020 C2024 1.385 . S
C2021 H1996 0.951 . S
C2021 C2019 1.388 . S
C2021 C2022 1.366 . S
C2022 C2021 1.366 . S
C2022 C2023 1.414 . S
C2022 C2025 1.499 . S
C2023 H1997 0.950 . S
C2023 C2022 1.414 . S
C2023 C2024 1.374 . S
C2024 H1998 0.950 . S
C2024 C2020 1.385 . S
C2024 C2023 1.374 . S
C2025 C2022 1.499 . S
C2025 C2026 1.373 . S
C2025 C2027 1.389 . S
C2026 H1999 0.950 . S
C2026 C2012 1.377 . S
C2026 C2025 1.373 . S
C2027 C2011 1.377 1_545 S
C2027 C2025 1.389 . S
C2027 C2028 1.524 . S
C2028 C2027 1.524 . S
C2028 C2029 1.397 . S
C2028 C2033 1.363 1_545 S
C2029 H2000 0.950 . S
C2029 C2028 1.397 . S
C2029 C2030 1.334 . S
C2030 H2001 0.950 . S
C2030 C2029 1.334 . S
C2030 C2031 1.287 . S
C2031 C2030 1.287 . S
C2031 C2032 1.524 1_545 S
C2031 H2034 0.999 . S
C2032 H2002 0.950 . S
C2032 C2031 1.524 1_565 S
C2032 C2033 1.415 . S
C2033 H2003 0.950 . S
C2033 C2028 1.363 1_565 S
C2033 C2032 1.415 . S
H2034 C2031 0.999 . S
H2035 C2016 0.913 . S
H2036 C2054 0.951 . S
H2037 C2056 0.951 . S
H2038 C2058 0.950 . S
H2039 C2059 0.950 . S
H2040 C2061 0.950 . S
H2041 C2064 0.950 . S
H2042 C2065 0.950 . S
H2043 C2067 0.950 . S
H2044 C2068 0.950 . S
H2045 C2069 0.951 . S
H2046 C2071 0.951 . S
H2047 C2073 0.950 . S
H2048 C2074 0.950 . S
H2049 C2076 0.950 . S
H2050 C2079 0.950 . S
H2051 C2080 0.950 . S
H2052 C2082 0.950 . S
H2053 C2083 0.950 . S
C2054 H2036 0.951 . S
C2054 C2055 1.366 . S
C2054 C2056 1.388 . S
C2055 C2054 1.366 . S
C2055 C2059 1.385 . S
C2056 H2037 0.951 . S
C2056 C2054 1.388 . S
C2056 C2057 1.366 . S
C2057 C2056 1.366 . S
C2057 C2058 1.414 . S
C2057 C2060 1.499 . S
C2058 H2038 0.950 . S
C2058 C2057 1.414 . S
C2058 C2059 1.374 . S
C2059 H2039 0.950 . S
C2059 C2055 1.385 . S
C2059 C2058 1.374 . S
C2060 C2057 1.499 . S
C2060 C2061 1.373 . S
C2060 C2062 1.389 1_545 S
C2061 H2040 0.950 . S
C2061 C2060 1.373 . S
C2061 C2077 1.377 1_545 S
C2062 C2060 1.389 1_565 S
C2062 C2063 1.524 . S
C2062 C2076 1.377 . S
C2063 C2062 1.524 . S
C2063 C2064 1.397 1_565 S
C2063 C2068 1.363 . S
C2064 H2041 0.950 . S
C2064 C2063 1.397 1_545 S
C2064 C2065 1.334 . S
C2065 H2042 0.950 . S
C2065 C2064 1.334 . S
C2065 C2066 1.287 1_545 S
C2066 C2065 1.287 1_565 S
C2066 C2067 1.524 . S
C2066 H2085 0.918 . S
C2067 H2043 0.950 . S
C2067 C2066 1.524 . S
C2067 C2068 1.415 . S
C2068 H2044 0.950 . S
C2068 C2063 1.363 . S
C2068 C2067 1.415 . S
C2069 H2045 0.951 . S
C2069 C2070 1.366 . S
C2069 C2071 1.388 . S
C2070 C2069 1.366 . S
C2070 C2074 1.385 . S
C2071 H2046 0.951 . S
C2071 C2069 1.388 . S
C2071 C2072 1.366 . S
C2072 C2071 1.366 . S
C2072 C2073 1.414 . S
C2072 C2075 1.499 . S
C2073 H2047 0.950 . S
C2073 C2072 1.414 . S
C2073 C2074 1.374 . S
C2074 H2048 0.950 . S
C2074 C2070 1.385 . S
C2074 C2073 1.374 . S
C2075 C2072 1.499 . S
C2075 C2076 1.373 . S
C2075 C2077 1.389 . S
C2076 H2049 0.950 . S
C2076 C2062 1.377 . S
C2076 C2075 1.373 . S
C2077 C2061 1.377 1_565 S
C2077 C2075 1.389 . S
C2077 C2078 1.524 . S
C2078 C2077 1.524 . S
C2078 C2079 1.397 . S
C2078 C2083 1.363 1_565 S
C2079 H2050 0.950 . S
C2079 C2078 1.397 . S
C2079 C2080 1.334 . S
C2080 H2051 0.950 . S
C2080 C2079 1.334 . S
C2080 C2081 1.287 . S
C2081 C2080 1.287 . S
C2081 C2082 1.524 1_565 S
C2081 H2084 0.999 . S
C2082 H2052 0.950 . S
C2082 C2081 1.524 1_545 S
C2082 C2083 1.415 . S
C2083 H2053 0.950 . S
C2083 C2078 1.363 1_545 S
C2083 C2082 1.415 . S
H2084 C2081 0.999 . S
H2085 C2066 0.918 . S
H2086 C2104 0.951 . S
H2087 C2106 0.951 . S
H2088 C2108 0.950 . S
H2089 C2109 0.950 . S
H2090 C2111 0.950 . S
H2091 C2114 0.950 . S
H2092 C2115 0.950 . S
H2093 C2117 0.950 . S
H2094 C2118 0.950 . S
H2095 C2119 0.951 . S
H2096 C2121 0.951 . S
H2097 C2123 0.950 . S
H2098 C2124 0.950 . S
H2099 C2126 0.950 . S
H2100 C2129 0.950 . S
H2101 C2130 0.950 . S
H2102 C2132 0.950 . S
H2103 C2133 0.950 . S
C2104 H2086 0.951 . S
C2104 C2105 1.366 . S
C2104 C2106 1.388 . S
C2105 C2104 1.366 . S
C2105 C2109 1.385 . S
C2106 H2087 0.951 . S
C2106 C2104 1.388 . S
C2106 C2107 1.366 . S
C2107 C2106 1.366 . S
C2107 C2108 1.414 . S
C2107 C2110 1.499 . S
C2108 H2088 0.950 . S
C2108 C2107 1.414 . S
C2108 C2109 1.374 . S
C2109 H2089 0.950 . S
C2109 C2105 1.385 . S
C2109 C2108 1.374 . S
C2110 C2107 1.499 . S
C2110 C2111 1.373 . S
C2110 C2112 1.389 . S
C2111 H2090 0.950 . S
C2111 C2110 1.373 . S
C2111 C2127 1.377 . S
C2112 C2110 1.389 . S
C2112 C2113 1.524 . S
C2112 C2126 1.377 . S
C2113 C2112 1.524 . S
C2113 C2114 1.397 . S
C2113 C2118 1.363 . S
C2114 H2091 0.950 . S
C2114 C2113 1.397 . S
C2114 C2115 1.334 . S
C2115 H2092 0.950 . S
C2115 C2114 1.334 . S
C2115 C2116 1.287 . S
C2116 C2115 1.287 . S
C2116 C2117 1.524 . S
C2116 H2135 0.913 . S
C2117 H2093 0.950 . S
C2117 C2116 1.524 . S
C2117 C2118 1.415 . S
C2118 H2094 0.950 . S
C2118 C2113 1.363 . S
C2118 C2117 1.415 . S
C2119 H2095 0.951 . S
C2119 C2120 1.366 . S
C2119 C2121 1.388 . S
C2120 C2119 1.366 . S
C2120 C2124 1.385 . S
C2121 H2096 0.951 . S
C2121 C2119 1.388 . S
C2121 C2122 1.366 . S
C2122 C2121 1.366 . S
C2122 C2123 1.414 . S
C2122 C2125 1.499 . S
C2123 H2097 0.950 . S
C2123 C2122 1.414 . S
C2123 C2124 1.374 . S
C2124 H2098 0.950 . S
C2124 C2120 1.385 . S
C2124 C2123 1.374 . S
C2125 C2122 1.499 . S
C2125 C2126 1.373 . S
C2125 C2127 1.389 . S
C2126 H2099 0.950 . S
C2126 C2112 1.377 . S
C2126 C2125 1.373 . S
C2127 C2111 1.377 . S
C2127 C2125 1.389 . S
C2127 C2128 1.524 . S
C2128 C2127 1.524 . S
C2128 C2129 1.397 . S
C2128 C2133 1.363 . S
C2129 H2100 0.950 . S
C2129 C2128 1.397 . S
C2129 C2130 1.334 . S
C2130 H2101 0.950 . S
C2130 C2129 1.334 . S
C2130 C2131 1.287 . S
C2131 C2130 1.287 . S
C2131 C2132 1.524 . S
C2131 H2134 0.999 . S
C2132 H2102 0.950 . S
C2132 C2131 1.524 . S
C2132 C2133 1.415 . S
C2133 H2103 0.950 . S
C2133 C2128 1.363 . S
C2133 C2132 1.415 . S
H2134 C2131 0.999 . S
H2135 C2116 0.913 . S
H2136 C2154 0.951 . S
H2137 C2156 0.951 . S
H2138 C2158 0.950 . S
H2139 C2159 0.950 . S
H2140 C2161 0.950 . S
H2141 C2164 0.950 . S
H2142 C2165 0.950 . S
H2143 C2167 0.950 . S
H2144 C2168 0.950 . S
H2145 C2169 0.951 . S
H2146 C2171 0.951 . S
H2147 C2173 0.950 . S
H2148 C2174 0.950 . S
H2149 C2176 0.950 . S
H2150 C2179 0.950 . S
H2151 C2180 0.950 . S
H2152 C2182 0.950 . S
H2153 C2183 0.950 . S
C2154 H2136 0.951 . S
C2154 C2155 1.366 . S
C2154 C2156 1.388 . S
C2155 C2154 1.366 . S
C2155 C2159 1.385 . S
C2156 H2137 0.951 . S
C2156 C2154 1.388 . S
C2156 C2157 1.366 . S
C2157 C2156 1.366 . S
C2157 C2158 1.414 . S
C2157 C2160 1.499 . S
C2158 H2138 0.950 . S
C2158 C2157 1.414 . S
C2158 C2159 1.374 . S
C2159 H2139 0.950 . S
C2159 C2155 1.385 . S
C2159 C2158 1.374 . S
C2160 C2157 1.499 . S
C2160 C2161 1.373 . S
C2160 C2162 1.389 . S
C2161 H2140 0.950 . S
C2161 C2160 1.373 . S
C2161 C2177 1.377 . S
C2162 C2160 1.389 . S
C2162 C2163 1.524 . S
C2162 C2176 1.377 . S
C2163 C2162 1.524 . S
C2163 C2164 1.397 . S
C2163 C2168 1.363 . S
C2164 H2141 0.950 . S
C2164 C2163 1.397 . S
C2164 C2165 1.334 . S
C2165 H2142 0.950 . S
C2165 C2164 1.334 . S
C2165 C2166 1.287 . S
C2166 C2165 1.287 . S
C2166 C2167 1.524 . S
C2166 H2185 0.913 . S
C2167 H2143 0.950 . S
C2167 C2166 1.524 . S
C2167 C2168 1.415 . S
C2168 H2144 0.950 . S
C2168 C2163 1.363 . S
C2168 C2167 1.415 . S
C2169 H2145 0.951 . S
C2169 C2170 1.366 . S
C2169 C2171 1.388 . S
C2170 C2169 1.366 . S
C2170 C2174 1.385 . S
C2171 H2146 0.951 . S
C2171 C2169 1.388 . S
C2171 C2172 1.366 . S
C2172 C2171 1.366 . S
C2172 C2173 1.414 . S
C2172 C2175 1.499 . S
C2173 H2147 0.950 . S
C2173 C2172 1.414 . S
C2173 C2174 1.374 . S
C2174 H2148 0.950 . S
C2174 C2170 1.385 . S
C2174 C2173 1.374 . S
C2175 C2172 1.499 . S
C2175 C2176 1.373 . S
C2175 C2177 1.389 . S
C2176 H2149 0.950 . S
C2176 C2162 1.377 . S
C2176 C2175 1.373 . S
C2177 C2161 1.377 . S
C2177 C2175 1.389 . S
C2177 C2178 1.524 . S
C2178 C2177 1.524 . S
C2178 C2179 1.397 . S
C2178 C2183 1.363 . S
C2179 H2150 0.950 . S
C2179 C2178 1.397 . S
C2179 C2180 1.334 . S
C2180 H2151 0.950 . S
C2180 C2179 1.334 . S
C2180 C2181 1.287 . S
C2181 C2180 1.287 . S
C2181 C2182 1.524 . S
C2181 H2184 0.999 . S
C2182 H2152 0.950 . S
C2182 C2181 1.524 . S
C2182 C2183 1.415 . S
C2183 H2153 0.950 . S
C2183 C2178 1.363 . S
C2183 C2182 1.415 . S
H2184 C2181 0.999 . S
H2185 C2166 0.913 . S
H2186 C2204 0.951 . S
H2187 C2206 0.951 . S
H2188 C2208 0.950 . S
H2189 C2209 0.950 . S
H2190 C2211 0.950 . S
H2191 C2214 0.950 . S
H2192 C2215 0.950 . S
H2193 C2217 0.950 . S
H2194 C2218 0.950 . S
H2195 C2219 0.951 . S
H2196 C2221 0.951 . S
H2197 C2223 0.950 . S
H2198 C2224 0.950 . S
H2199 C2226 0.950 . S
H2200 C2229 0.950 . S
H2201 C2230 0.950 . S
H2202 C2232 0.950 . S
H2203 C2233 0.950 . S
C2204 H2186 0.951 . S
C2204 C2205 1.366 . S
C2204 C2206 1.388 . S
C2205 C2204 1.366 . S
C2205 C2209 1.385 . S
C2206 H2187 0.951 . S
C2206 C2204 1.388 . S
C2206 C2207 1.366 . S
C2207 C2206 1.366 . S
C2207 C2208 1.414 . S
C2207 C2210 1.499 . S
C2208 H2188 0.950 . S
C2208 C2207 1.414 . S
C2208 C2209 1.374 . S
C2209 H2189 0.950 . S
C2209 C2205 1.385 . S
C2209 C2208 1.374 . S
C2210 C2207 1.499 . S
C2210 C2211 1.373 . S
C2210 C2212 1.389 . S
C2211 H2190 0.950 . S
C2211 C2210 1.373 . S
C2211 C2227 1.377 1_556 S
C2212 C2210 1.389 . S
C2212 C2213 1.524 . S
C2212 C2226 1.377 1_556 S
C2213 C2212 1.524 . S
C2213 C2214 1.397 . S
C2213 C2218 1.363 . S
C2214 H2191 0.950 . S
C2214 C2213 1.397 . S
C2214 C2215 1.334 . S
C2215 H2192 0.950 . S
C2215 C2214 1.334 . S
C2215 C2216 1.287 . S
C2216 C2215 1.287 . S
C2216 C2217 1.524 . S
C2216 H2235 0.913 . S
C2217 H2193 0.950 . S
C2217 C2216 1.524 . S
C2217 C2218 1.415 . S
C2218 H2194 0.950 . S
C2218 C2213 1.363 . S
C2218 C2217 1.415 . S
C2219 H2195 0.951 . S
C2219 C2220 1.366 . S
C2219 C2221 1.388 . S
C2220 C2219 1.366 . S
C2220 C2224 1.385 . S
C2221 H2196 0.951 . S
C2221 C2219 1.388 . S
C2221 C2222 1.366 . S
C2222 C2221 1.366 . S
C2222 C2223 1.414 . S
C2222 C2225 1.499 . S
C2223 H2197 0.950 . S
C2223 C2222 1.414 . S
C2223 C2224 1.374 . S
C2224 H2198 0.950 . S
C2224 C2220 1.385 . S
C2224 C2223 1.374 . S
C2225 C2222 1.499 . S
C2225 C2226 1.373 . S
C2225 C2227 1.389 . S
C2226 H2199 0.950 . S
C2226 C2212 1.377 1_554 S
C2226 C2225 1.373 . S
C2227 C2211 1.377 1_554 S
C2227 C2225 1.389 . S
C2227 C2228 1.524 . S
C2228 C2227 1.524 . S
C2228 C2229 1.397 . S
C2228 C2233 1.363 . S
C2229 H2200 0.950 . S
C2229 C2228 1.397 . S
C2229 C2230 1.334 . S
C2230 H2201 0.950 . S
C2230 C2229 1.334 . S
C2230 C2231 1.287 . S
C2231 C2230 1.287 . S
C2231 C2232 1.524 . S
C2231 H2234 0.999 . S
C2232 H2202 0.950 . S
C2232 C2231 1.524 . S
C2232 C2233 1.415 . S
C2233 H2203 0.950 . S
C2233 C2228 1.363 . S
C2233 C2232 1.415 . S
H2234 C2231 0.999 . S
H2235 C2216 0.913 . S
H2236 C2254 0.951 . S
H2237 C2256 0.951 . S
H2238 C2258 0.950 . S
H2239 C2259 0.950 . S
H2240 C2261 0.950 . S
H2241 C2264 0.950 . S
H2242 C2265 0.950 . S
H2243 C2267 0.950 . S
H2244 C2268 0.950 . S
H2245 C2269 0.951 . S
H2246 C2271 0.951 . S
H2247 C2273 0.950 . S
H2248 C2274 0.950 . S
H2249 C2276 0.950 . S
H2250 C2279 0.950 . S
H2251 C2280 0.950 . S
H2252 C2282 0.950 . S
H2253 C2283 0.950 . S
C2254 H2236 0.951 . S
C2254 C2255 1.366 . S
C2254 C2256 1.388 . S
C2255 C2254 1.366 . S
C2255 C2259 1.385 . S
C2256 H2237 0.951 . S
C2256 C2254 1.388 . S
C2256 C2257 1.366 . S
C2257 C2256 1.366 . S
C2257 C2258 1.414 . S
C2257 C2260 1.499 . S
C2258 H2238 0.950 . S
C2258 C2257 1.414 . S
C2258 C2259 1.374 . S
C2259 H2239 0.950 . S
C2259 C2255 1.385 . S
C2259 C2258 1.374 . S
C2260 C2257 1.499 . S
C2260 C2261 1.373 . S
C2260 C2262 1.389 . S
C2261 H2240 0.950 . S
C2261 C2260 1.373 . S
C2261 C2277 1.377 . S
C2262 C2260 1.389 . S
C2262 C2263 1.524 . S
C2262 C2276 1.377 . S
C2263 C2262 1.524 . S
C2263 C2264 1.397 . S
C2263 C2268 1.363 . S
C2264 H2241 0.950 . S
C2264 C2263 1.397 . S
C2264 C2265 1.334 . S
C2265 H2242 0.950 . S
C2265 C2264 1.334 . S
C2265 C2266 1.287 . S
C2266 C2265 1.287 . S
C2266 C2267 1.524 . S
C2266 H2285 0.913 . S
C2267 H2243 0.950 . S
C2267 C2266 1.524 . S
C2267 C2268 1.415 . S
C2268 H2244 0.950 . S
C2268 C2263 1.363 . S
C2268 C2267 1.415 . S
C2269 H2245 0.951 . S
C2269 C2270 1.366 . S
C2269 C2271 1.388 . S
C2270 C2269 1.366 . S
C2270 C2274 1.385 . S
C2271 H2246 0.951 . S
C2271 C2269 1.388 . S
C2271 C2272 1.366 . S
C2272 C2271 1.366 . S
C2272 C2273 1.414 . S
C2272 C2275 1.499 . S
C2273 H2247 0.950 . S
C2273 C2272 1.414 . S
C2273 C2274 1.374 . S
C2274 H2248 0.950 . S
C2274 C2270 1.385 . S
C2274 C2273 1.374 . S
C2275 C2272 1.499 . S
C2275 C2276 1.373 . S
C2275 C2277 1.389 . S
C2276 H2249 0.950 . S
C2276 C2262 1.377 . S
C2276 C2275 1.373 . S
C2277 C2261 1.377 . S
C2277 C2275 1.389 . S
C2277 C2278 1.524 . S
C2278 C2277 1.524 . S
C2278 C2279 1.397 . S
C2278 C2283 1.363 . S
C2279 H2250 0.950 . S
C2279 C2278 1.397 . S
C2279 C2280 1.334 . S
C2280 H2251 0.950 . S
C2280 C2279 1.334 . S
C2280 C2281 1.287 . S
C2281 C2280 1.287 . S
C2281 C2282 1.524 . S
C2281 H2284 0.999 . S
C2282 H2252 0.950 . S
C2282 C2281 1.524 . S
C2282 C2283 1.415 . S
C2283 H2253 0.950 . S
C2283 C2278 1.363 . S
C2283 C2282 1.415 . S
H2284 C2281 0.999 . S
H2285 C2266 0.913 . S
H2286 C2304 0.951 . S
H2287 C2306 0.951 . S
H2288 C2308 0.950 . S
H2289 C2309 0.950 . S
H2290 C2311 0.950 . S
H2291 C2314 0.950 . S
H2292 C2315 0.950 . S
H2293 C2317 0.950 . S
H2294 C2318 0.950 . S
H2295 C2319 0.951 . S
H2296 C2321 0.951 . S
H2297 C2323 0.950 . S
H2298 C2324 0.950 . S
H2299 C2326 0.950 . S
H2300 C2329 0.950 . S
H2301 C2330 0.950 . S
H2302 C2332 0.950 . S
H2303 C2333 0.950 . S
C2304 H2286 0.951 . S
C2304 C2305 1.366 . S
C2304 C2306 1.388 . S
C2305 C2304 1.366 . S
C2305 C2309 1.385 . S
C2306 H2287 0.951 . S
C2306 C2304 1.388 . S
C2306 C2307 1.366 . S
C2307 C2306 1.366 . S
C2307 C2308 1.414 . S
C2307 C2310 1.499 . S
C2308 H2288 0.950 . S
C2308 C2307 1.414 . S
C2308 C2309 1.374 . S
C2309 H2289 0.950 . S
C2309 C2305 1.385 . S
C2309 C2308 1.374 . S
C2310 C2307 1.499 . S
C2310 C2311 1.373 . S
C2310 C2312 1.389 1_554 S
C2311 H2290 0.950 . S
C2311 C2310 1.373 . S
C2311 C2327 1.377 1_554 S
C2312 C2310 1.389 1_556 S
C2312 C2313 1.524 . S
C2312 C2326 1.377 . S
C2313 C2312 1.524 . S
C2313 C2314 1.397 1_556 S
C2313 C2318 1.363 . S
C2314 H2291 0.950 . S
C2314 C2313 1.397 1_554 S
C2314 C2315 1.334 . S
C2315 H2292 0.950 . S
C2315 C2314 1.334 . S
C2315 C2316 1.312 . S
C2316 C2315 1.312 . S
C2316 C2317 1.499 1_554 S
C2316 H2335 0.918 . S
C2317 H2293 0.950 . S
C2317 C2316 1.499 1_556 S
C2317 C2318 1.415 . S
C2318 H2294 0.950 . S
C2318 C2313 1.363 . S
C2318 C2317 1.415 . S
C2319 H2295 0.951 . S
C2319 C2320 1.366 . S
C2319 C2321 1.388 . S
C2320 C2319 1.366 . S
C2320 C2324 1.385 . S
C2321 H2296 0.951 . S
C2321 C2319 1.388 . S
C2321 C2322 1.366 . S
C2322 C2321 1.366 . S
C2322 C2323 1.414 . S
C2322 C2325 1.499 . S
C2323 H2297 0.950 . S
C2323 C2322 1.414 . S
C2323 C2324 1.374 . S
C2324 H2298 0.950 . S
C2324 C2320 1.385 . S
C2324 C2323 1.374 . S
C2325 C2322 1.499 . S
C2325 C2326 1.373 . S
C2325 C2327 1.389 . S
C2326 H2299 0.950 . S
C2326 C2312 1.377 . S
C2326 C2325 1.373 . S
C2327 C2311 1.377 1_556 S
C2327 C2325 1.389 . S
C2327 C2328 1.524 . S
C2328 C2327 1.524 . S
C2328 C2329 1.397 . S
C2328 C2333 1.363 1_556 S
C2329 H2300 0.950 . S
C2329 C2328 1.397 . S
C2329 C2330 1.334 . S
C2330 H2301 0.950 . S
C2330 C2329 1.334 . S
C2330 C2331 1.287 . S
C2331 C2330 1.287 . S
C2331 C2332 1.524 1_556 S
C2331 H2334 0.999 . S
C2332 H2302 0.950 . S
C2332 C2331 1.524 1_554 S
C2332 C2333 1.415 . S
C2333 H2303 0.950 . S
C2333 C2328 1.363 1_554 S
C2333 C2332 1.415 . S
H2334 C2331 0.999 . S
H2335 C2316 0.918 . S
H2336 C2354 0.951 . S
H2337 C2356 0.951 . S
H2338 C2358 0.950 . S
H2339 C2359 0.950 . S
H2340 C2361 0.950 . S
H2341 C2364 0.950 . S
H2342 C2365 0.950 . S
H2343 C2367 0.950 . S
H2344 C2368 0.950 . S
H2345 C2369 0.951 . S
H2346 C2371 0.951 . S
H2347 C2373 0.950 . S
H2348 C2374 0.950 . S
H2349 C2376 0.950 . S
H2350 C2379 0.950 . S
H2351 C2380 0.950 . S
H2352 C2382 0.950 . S
H2353 C2383 0.950 . S
C2354 H2336 0.951 . S
C2354 C2355 1.366 . S
C2354 C2356 1.388 . S
C2355 C2354 1.366 . S
C2355 C2359 1.385 . S
C2356 H2337 0.951 . S
C2356 C2354 1.388 . S
C2356 C2357 1.366 . S
C2357 C2356 1.366 . S
C2357 C2358 1.414 . S
C2357 C2360 1.499 . S
C2358 H2338 0.950 . S
C2358 C2357 1.414 . S
C2358 C2359 1.374 . S
C2359 H2339 0.950 . S
C2359 C2355 1.385 . S
C2359 C2358 1.374 . S
C2360 C2357 1.499 . S
C2360 C2361 1.373 . S
C2360 C2362 1.389 . S
C2361 H2340 0.950 . S
C2361 C2360 1.373 . S
C2361 C2377 1.377 . S
C2362 C2360 1.389 . S
C2362 C2363 1.524 . S
C2362 C2376 1.377 . S
C2363 C2362 1.524 . S
C2363 C2364 1.397 . S
C2363 C2368 1.363 . S
C2364 H2341 0.950 . S
C2364 C2363 1.397 . S
C2364 C2365 1.334 . S
C2365 H2342 0.950 . S
C2365 C2364 1.334 . S
C2365 C2366 1.287 . S
C2366 C2365 1.287 . S
C2366 C2367 1.524 . S
C2366 H2385 0.913 . S
C2367 H2343 0.950 . S
C2367 C2366 1.524 . S
C2367 C2368 1.415 . S
C2368 H2344 0.950 . S
C2368 C2363 1.363 . S
C2368 C2367 1.415 . S
C2369 H2345 0.951 . S
C2369 C2370 1.366 . S
C2369 C2371 1.388 . S
C2370 C2369 1.366 . S
C2370 C2374 1.385 . S
C2371 H2346 0.951 . S
C2371 C2369 1.388 . S
C2371 C2372 1.366 . S
C2372 C2371 1.366 . S
C2372 C2373 1.414 . S
C2372 C2375 1.499 . S
C2373 H2347 0.950 . S
C2373 C2372 1.414 . S
C2373 C2374 1.374 . S
C2374 H2348 0.950 . S
C2374 C2370 1.385 . S
C2374 C2373 1.374 . S
C2375 C2372 1.499 . S
C2375 C2376 1.373 . S
C2375 C2377 1.389 . S
C2376 H2349 0.950 . S
C2376 C2362 1.377 . S
C2376 C2375 1.373 . S
C2377 C2361 1.377 . S
C2377 C2375 1.389 . S
C2377 C2378 1.524 . S
C2378 C2377 1.524 . S
C2378 C2379 1.397 . S
C2378 C2383 1.363 . S
C2379 H2350 0.950 . S
C2379 C2378 1.397 . S
C2379 C2380 1.334 . S
C2380 H2351 0.950 . S
C2380 C2379 1.334 . S
C2380 C2381 1.287 . S
C2381 C2380 1.287 . S
C2381 C2382 1.524 . S
C2381 H2384 0.999 . S
C2382 H2352 0.950 . S
C2382 C2381 1.524 . S
C2382 C2383 1.415 . S
C2383 H2353 0.950 . S
C2383 C2378 1.363 . S
C2383 C2382 1.415 . S
H2384 C2381 0.999 . S
H2385 C2366 0.913 . S
H2386 C2404 0.951 . S
H2387 C2406 0.951 . S
H2388 C2408 0.950 . S
H2389 C2409 0.950 . S
H2390 C2411 0.950 . S
H2391 C2414 0.950 . S
H2392 C2415 0.950 . S
H2393 C2417 0.950 . S
H2394 C2418 0.950 . S
H2395 C2419 0.951 . S
H2396 C2421 0.951 . S
H2397 C2423 0.950 . S
H2398 C2424 0.950 . S
H2399 C2426 0.951 1_455 S
H2400 C2429 0.950 . S
H2401 C2430 0.950 . S
H2402 C2432 0.950 . S
H2403 C2433 0.950 . S
C2404 H2386 0.951 . S
C2404 C2405 1.366 . S
C2404 C2406 1.388 . S
C2405 C2404 1.366 . S
C2405 C2409 1.385 . S
C2406 H2387 0.951 . S
C2406 C2404 1.388 . S
C2406 C2407 1.366 . S
C2407 C2406 1.366 . S
C2407 C2408 1.414 . S
C2407 C2410 1.499 . S
C2408 H2388 0.950 . S
C2408 C2407 1.414 . S
C2408 C2409 1.374 . S
C2409 H2389 0.950 . S
C2409 C2405 1.385 . S
C2409 C2408 1.374 . S
C2410 C2407 1.499 . S
C2410 C2411 1.373 . S
C2410 C2412 1.389 . S
C2411 H2390 0.950 . S
C2411 C2410 1.373 . S
C2411 C2427 1.377 1_655 S
C2412 C2410 1.389 . S
C2412 C2413 1.524 . S
C2412 C2426 1.377 . S
C2413 C2412 1.524 . S
C2413 C2414 1.397 . S
C2413 C2418 1.363 . S
C2414 H2391 0.950 . S
C2414 C2413 1.397 . S
C2414 C2415 1.334 . S
C2415 H2392 0.950 . S
C2415 C2414 1.334 . S
C2415 C2416 1.287 . S
C2416 C2415 1.287 . S
C2416 C2417 1.524 . S
C2416 H2435 0.913 . S
C2417 H2393 0.950 . S
C2417 C2416 1.524 . S
C2417 C2418 1.415 . S
C2418 H2394 0.950 . S
C2418 C2413 1.363 . S
C2418 C2417 1.415 . S
C2419 H2395 0.951 . S
C2419 C2420 1.366 . S
C2419 C2421 1.388 . S
C2420 C2419 1.366 . S
C2420 C2424 1.385 . S
C2421 H2396 0.951 . S
C2421 C2419 1.388 . S
C2421 C2422 1.366 . S
C2422 C2421 1.366 . S
C2422 C2423 1.414 . S
C2422 C2425 1.499 . S
C2423 H2397 0.950 . S
C2423 C2422 1.414 . S
C2423 C2424 1.374 . S
C2424 H2398 0.950 . S
C2424 C2420 1.385 . S
C2424 C2423 1.374 . S
C2425 C2422 1.499 . S
C2425 C2426 1.373 1_455 S
C2425 C2427 1.389 . S
C2426 H2399 0.951 1_655 S
C2426 C2412 1.377 . S
C2426 C2425 1.373 1_655 S
C2427 C2411 1.377 1_455 S
C2427 C2425 1.389 . S
C2427 C2428 1.524 . S
C2428 C2427 1.524 . S
C2428 C2429 1.397 . S
C2428 C2433 1.363 . S
C2429 H2400 0.950 . S
C2429 C2428 1.397 . S
C2429 C2430 1.334 . S
C2430 H2401 0.950 . S
C2430 C2429 1.334 . S
C2430 C2431 1.287 . S
C2431 C2430 1.287 . S
C2431 C2432 1.524 . S
C2431 H2434 0.999 . S
C2432 H2402 0.950 . S
C2432 C2431 1.524 . S
C2432 C2433 1.415 . S
C2433 H2403 0.950 . S
C2433 C2428 1.363 . S
C2433 C2432 1.415 . S
H2434 C2431 0.999 . S
H2435 C2416 0.913 . S
H2436 C2454 0.951 . S
H2437 C2456 0.951 . S
H2438 C2458 0.950 . S
H2439 C2459 0.950 . S
H2440 C2461 0.950 . S
H2441 C2464 0.950 . S
H2442 C2465 0.950 . S
H2443 C2467 0.950 . S
H2444 C2468 0.950 . S
H2445 C2469 0.951 . S
H2446 C2471 0.951 . S
H2447 C2473 0.950 . S
H2448 C2474 0.950 . S
H2449 C2476 0.950 . S
H2450 C2479 0.950 . S
H2451 C2480 0.950 . S
H2452 C2482 0.950 . S
H2453 C2483 0.962 . S
C2454 H2436 0.951 . S
C2454 C2455 1.366 . S
C2454 C2456 1.388 . S
C2455 C2454 1.366 . S
C2455 C2459 1.385 . S
C2456 H2437 0.951 . S
C2456 C2454 1.388 . S
C2456 C2457 1.366 . S
C2457 C2456 1.366 . S
C2457 C2458 1.414 . S
C2457 C2460 1.499 . S
C2458 H2438 0.950 . S
C2458 C2457 1.414 . S
C2458 C2459 1.374 . S
C2459 H2439 0.950 . S
C2459 C2455 1.385 . S
C2459 C2458 1.374 . S
C2460 C2457 1.499 . S
C2460 C2461 1.373 . S
C2460 C2462 1.389 . S
C2461 H2440 0.950 . S
C2461 C2460 1.373 . S
C2461 C2477 1.377 1_455 S
C2462 C2460 1.389 . S
C2462 C2463 1.524 . S
C2462 C2476 1.377 1_455 S
C2463 C2462 1.524 . S
C2463 C2464 1.397 . S
C2463 C2468 1.363 . S
C2464 H2441 0.950 . S
C2464 C2463 1.397 . S
C2464 C2465 1.334 . S
C2465 H2442 0.950 . S
C2465 C2464 1.334 . S
C2465 C2466 1.287 . S
C2466 C2465 1.287 . S
C2466 C2467 1.524 . S
C2466 H2485 0.913 . S
C2467 H2443 0.950 . S
C2467 C2466 1.524 . S
C2467 C2468 1.415 . S
C2468 H2444 0.950 . S
C2468 C2463 1.363 . S
C2468 C2467 1.415 . S
C2469 H2445 0.951 . S
C2469 C2470 1.366 . S
C2469 C2471 1.388 . S
C2470 C2469 1.366 . S
C2470 C2474 1.385 . S
C2471 H2446 0.951 . S
C2471 C2469 1.388 . S
C2471 C2472 1.366 . S
C2472 C2471 1.366 . S
C2472 C2473 1.414 . S
C2472 C2475 1.499 . S
C2473 H2447 0.950 . S
C2473 C2472 1.414 . S
C2473 C2474 1.374 . S
C2474 H2448 0.950 . S
C2474 C2470 1.385 . S
C2474 C2473 1.374 . S
C2475 C2472 1.499 . S
C2475 C2476 1.373 . S
C2475 C2477 1.389 . S
C2476 H2449 0.950 . S
C2476 C2462 1.377 1_655 S
C2476 C2475 1.373 . S
C2477 C2461 1.377 1_655 S
C2477 C2475 1.389 . S
C2477 C2478 1.524 . S
C2478 C2477 1.524 . S
C2478 C2479 1.397 . S
C2478 C2483 1.363 . S
C2479 H2450 0.950 . S
C2479 C2478 1.397 . S
C2479 C2480 1.334 . S
C2480 H2451 0.950 . S
C2480 C2479 1.334 . S
C2480 C2481 1.287 . S
C2481 C2480 1.287 . S
C2481 C2482 1.524 . S
C2481 H2484 0.999 . S
C2482 H2452 0.950 . S
C2482 C2481 1.524 . S
C2482 C2483 1.415 . S
C2483 H2453 0.962 . S
C2483 C2478 1.363 . S
C2483 C2482 1.415 . S
H2484 C2481 0.999 . S
H2485 C2466 0.913 . S
H2486 C2504 0.951 . S
H2487 C2506 0.951 . S
H2488 C2508 0.950 . S
H2489 C2509 0.950 . S
H2490 C2511 0.950 . S
H2491 C2514 0.950 . S
H2492 C2515 0.950 . S
H2493 C2517 0.950 . S
H2494 C2518 0.950 . S
H2495 C2519 0.951 . S
H2496 C2521 0.951 . S
H2497 C2523 0.950 . S
H2498 C2524 0.950 . S
H2499 C2526 0.950 . S
H2500 C2529 0.950 . S
H2501 C2530 0.950 . S
H2502 C2532 0.950 . S
H2503 C2533 0.950 . S
C2504 H2486 0.951 . S
C2504 C2505 1.366 . S
C2504 C2506 1.388 . S
C2505 C2504 1.366 . S
C2505 C2509 1.385 . S
C2506 H2487 0.951 . S
C2506 C2504 1.388 . S
C2506 C2507 1.366 . S
C2507 C2506 1.366 . S
C2507 C2508 1.414 . S
C2507 C2510 1.499 . S
C2508 H2488 0.950 . S
C2508 C2507 1.414 . S
C2508 C2509 1.374 . S
C2509 H2489 0.950 . S
C2509 C2505 1.385 . S
C2509 C2508 1.374 . S
C2510 C2507 1.499 . S
C2510 C2511 1.373 . S
C2510 C2512 1.389 . S
C2511 H2490 0.950 . S
C2511 C2510 1.373 . S
C2511 C2527 1.377 . S
C2512 C2510 1.389 . S
C2512 C2513 1.524 . S
C2512 C2526 1.377 . S
C2513 C2512 1.524 . S
C2513 C2514 1.397 . S
C2513 C2518 1.363 . S
C2514 H2491 0.950 . S
C2514 C2513 1.397 . S
C2514 C2515 1.334 . S
C2515 H2492 0.950 . S
C2515 C2514 1.334 . S
C2515 C2516 1.287 . S
C2516 C2515 1.287 . S
C2516 C2517 1.524 . S
C2516 H2535 0.913 . S
C2517 H2493 0.950 . S
C2517 C2516 1.524 . S
C2517 C2518 1.415 . S
C2518 H2494 0.950 . S
C2518 C2513 1.363 . S
C2518 C2517 1.415 . S
C2519 H2495 0.951 . S
C2519 C2520 1.366 . S
C2519 C2521 1.388 . S
C2520 C2519 1.366 . S
C2520 C2524 1.385 . S
C2521 H2496 0.951 . S
C2521 C2519 1.388 . S
C2521 C2522 1.366 . S
C2522 C2521 1.366 . S
C2522 C2523 1.414 . S
C2522 C2525 1.499 . S
C2523 H2497 0.950 . S
C2523 C2522 1.414 . S
C2523 C2524 1.374 . S
C2524 H2498 0.950 . S
C2524 C2520 1.385 . S
C2524 C2523 1.374 . S
C2525 C2522 1.499 . S
C2525 C2526 1.373 . S
C2525 C2527 1.389 . S
C2526 H2499 0.950 . S
C2526 C2512 1.377 . S
C2526 C2525 1.373 . S
C2527 C2511 1.377 . S
C2527 C2525 1.389 . S
C2527 C2528 1.524 . S
C2528 C2527 1.524 . S
C2528 C2529 1.397 . S
C2528 C2533 1.363 . S
C2529 H2500 0.950 . S
C2529 C2528 1.397 . S
C2529 C2530 1.334 . S
C2530 H2501 0.950 . S
C2530 C2529 1.334 . S
C2530 C2531 1.287 . S
C2531 C2530 1.287 . S
C2531 C2532 1.524 . S
C2531 H2534 0.999 . S
C2532 H2502 0.950 . S
C2532 C2531 1.524 . S
C2532 C2533 1.415 . S
C2533 H2503 0.950 . S
C2533 C2528 1.363 . S
C2533 C2532 1.415 . S
H2534 C2531 0.999 . S
H2535 C2516 0.913 . S
H2536 C2554 0.951 . S
H2537 C2556 0.951 . S
H2538 C2558 0.950 . S
H2539 C2559 0.950 . S
H2540 C2561 0.950 . S
H2541 C2564 0.950 . S
H2542 C2565 0.950 . S
H2543 C2567 0.950 . S
H2544 C2568 0.950 . S
H2545 C2569 0.951 . S
H2546 C2571 0.951 . S
H2547 C2573 0.950 . S
H2548 C2574 0.950 . S
H2549 C2576 0.950 . S
H2550 C2579 0.950 . S
H2551 C2580 0.950 . S
H2552 C2582 0.950 . S
H2553 C2583 0.950 . S
C2554 H2536 0.951 . S
C2554 C2555 1.366 . S
C2554 C2556 1.388 . S
C2555 C2554 1.366 . S
C2555 C2559 1.385 . S
C2556 H2537 0.951 . S
C2556 C2554 1.388 . S
C2556 C2557 1.366 . S
C2557 C2556 1.366 . S
C2557 C2558 1.414 . S
C2557 C2560 1.499 . S
C2558 H2538 0.950 . S
C2558 C2557 1.414 . S
C2558 C2559 1.374 . S
C2559 H2539 0.950 . S
C2559 C2555 1.385 . S
C2559 C2558 1.374 . S
C2560 C2557 1.499 . S
C2560 C2561 1.373 . S
C2560 C2562 1.389 . S
C2561 H2540 0.950 . S
C2561 C2560 1.373 . S
C2561 C2577 1.377 . S
C2562 C2560 1.389 . S
C2562 C2563 1.524 . S
C2562 C2576 1.377 . S
C2563 C2562 1.524 . S
C2563 C2564 1.397 . S
C2563 C2568 1.363 . S
C2564 H2541 0.950 . S
C2564 C2563 1.397 . S
C2564 C2565 1.334 . S
C2565 H2542 0.950 . S
C2565 C2564 1.334 . S
C2565 C2566 1.287 . S
C2566 C2565 1.287 . S
C2566 C2567 1.524 . S
C2566 H2585 0.913 . S
C2567 H2543 0.950 . S
C2567 C2566 1.524 . S
C2567 C2568 1.415 . S
C2568 H2544 0.950 . S
C2568 C2563 1.363 . S
C2568 C2567 1.415 . S
C2569 H2545 0.951 . S
C2569 C2570 1.366 . S
C2569 C2571 1.388 . S
C2570 C2569 1.366 . S
C2570 C2574 1.385 . S
C2571 H2546 0.951 . S
C2571 C2569 1.388 . S
C2571 C2572 1.366 . S
C2572 C2571 1.366 . S
C2572 C2573 1.414 . S
C2572 C2575 1.499 . S
C2573 H2547 0.950 . S
C2573 C2572 1.414 . S
C2573 C2574 1.374 . S
C2574 H2548 0.950 . S
C2574 C2570 1.385 . S
C2574 C2573 1.374 . S
C2575 C2572 1.499 . S
C2575 C2576 1.373 . S
C2575 C2577 1.389 . S
C2576 H2549 0.950 . S
C2576 C2562 1.377 . S
C2576 C2575 1.373 . S
C2577 C2561 1.377 . S
C2577 C2575 1.389 . S
C2577 C2578 1.524 . S
C2578 C2577 1.524 . S
C2578 C2579 1.397 . S
C2578 C2583 1.363 . S
C2579 H2550 0.950 . S
C2579 C2578 1.397 . S
C2579 C2580 1.334 . S
C2580 H2551 0.950 . S
C2580 C2579 1.334 . S
C2580 C2581 1.287 . S
C2581 C2580 1.287 . S
C2581 C2582 1.524 . S
C2581 H2584 0.999 . S
C2582 H2552 0.950 . S
C2582 C2581 1.524 . S
C2582 C2583 1.415 . S
C2583 H2553 0.950 . S
C2583 C2578 1.363 . S
C2583 C2582 1.415 . S
H2584 C2581 0.999 . S
H2585 C2566 0.913 . S
H2586 C2604 0.951 . S
H2587 C2606 0.951 . S
H2588 C2608 0.950 . S
H2589 C2609 0.950 . S
H2590 C2611 0.950 . S
H2591 C2614 0.950 . S
H2592 C2615 0.950 . S
H2593 C2617 0.950 . S
H2594 C2618 0.950 . S
H2595 C2619 0.951 . S
H2596 C2621 0.951 . S
H2597 C2623 0.950 . S
H2598 C2624 0.950 . S
H2599 C2626 0.948 1_545 S
H2600 C2629 0.950 . S
H2601 C2630 0.950 . S
H2602 C2632 0.950 . S
H2603 C2633 0.950 . S
C2604 H2586 0.951 . S
C2604 C2605 1.366 . S
C2604 C2606 1.388 . S
C2605 C2604 1.366 . S
C2605 C2609 1.385 . S
C2606 H2587 0.951 . S
C2606 C2604 1.388 . S
C2606 C2607 1.366 . S
C2607 C2606 1.366 . S
C2607 C2608 1.414 . S
C2607 C2610 1.499 . S
C2608 H2588 0.950 . S
C2608 C2607 1.414 . S
C2608 C2609 1.374 . S
C2609 H2589 0.950 . S
C2609 C2605 1.385 . S
C2609 C2608 1.374 . S
C2610 C2607 1.499 . S
C2610 C2611 1.373 . S
C2610 C2612 1.389 . S
C2611 H2590 0.950 . S
C2611 C2610 1.373 . S
C2611 C2627 1.377 1_565 S
C2612 C2610 1.389 . S
C2612 C2613 1.524 . S
C2612 C2626 1.389 . S
C2613 C2612 1.524 . S
C2613 C2614 1.397 . S
C2613 C2618 1.363 . S
C2614 H2591 0.950 . S
C2614 C2613 1.397 . S
C2614 C2615 1.334 . S
C2615 H2592 0.950 . S
C2615 C2614 1.334 . S
C2615 C2616 1.287 . S
C2616 C2615 1.287 . S
C2616 C2617 1.524 . S
C2616 H2635 0.913 . S
C2617 H2593 0.950 . S
C2617 C2616 1.524 . S
C2617 C2618 1.415 . S
C2618 H2594 0.950 . S
C2618 C2613 1.363 . S
C2618 C2617 1.415 . S
C2619 H2595 0.951 . S
C2619 C2620 1.366 . S
C2619 C2621 1.388 . S
C2620 C2619 1.366 . S
C2620 C2624 1.385 . S
C2621 H2596 0.951 . S
C2621 C2619 1.388 . S
C2621 C2622 1.366 . S
C2622 C2621 1.366 . S
C2622 C2623 1.414 . S
C2622 C2625 1.499 . S
C2623 H2597 0.950 . S
C2623 C2622 1.414 . S
C2623 C2624 1.374 . S
C2624 H2598 0.950 . S
C2624 C2620 1.385 . S
C2624 C2623 1.374 . S
C2625 C2622 1.499 . S
C2625 C2626 1.363 1_545 S
C2625 C2627 1.389 . S
C2626 H2599 0.948 1_565 S
C2626 C2612 1.389 . S
C2626 C2625 1.363 1_565 S
C2627 C2611 1.377 1_545 S
C2627 C2625 1.389 . S
C2627 C2628 1.524 . S
C2628 C2627 1.524 . S
C2628 C2629 1.397 . S
C2628 C2633 1.363 . S
C2629 H2600 0.950 . S
C2629 C2628 1.397 . S
C2629 C2630 1.334 . S
C2630 H2601 0.950 . S
C2630 C2629 1.334 . S
C2630 C2631 1.287 . S
C2631 C2630 1.287 . S
C2631 C2632 1.524 . S
C2631 H2634 0.999 . S
C2632 H2602 0.950 . S
C2632 C2631 1.524 . S
C2632 C2633 1.415 . S
C2633 H2603 0.950 . S
C2633 C2628 1.363 . S
C2633 C2632 1.415 . S
H2634 C2631 0.999 . S
H2635 C2616 0.913 . S
H2636 C2654 0.951 . S
H2637 C2656 0.951 . S
H2638 C2658 0.950 . S
H2639 C2659 0.950 . S
H2640 C2661 0.967 . S
H2641 C2664 0.950 . S
H2642 C2665 0.950 . S
H2643 C2667 0.950 . S
H2644 C2668 0.950 . S
H2645 C2669 0.951 . S
H2646 C2671 0.951 . S
H2647 C2673 0.950 . S
H2648 C2674 0.950 . S
H2649 C2676 0.950 . S
H2650 C2679 0.950 . S
H2651 C2680 0.950 . S
H2652 C2682 0.950 . S
H2653 C2683 0.950 . S
C2654 H2636 0.951 . S
C2654 C2655 1.366 . S
C2654 C2656 1.388 . S
C2655 C2654 1.366 . S
C2655 C2659 1.385 . S
C2656 H2637 0.951 . S
C2656 C2654 1.388 . S
C2656 C2657 1.366 . S
C2657 C2656 1.366 . S
C2657 C2658 1.414 . S
C2657 C2660 1.499 . S
C2658 H2638 0.950 . S
C2658 C2657 1.414 . S
C2658 C2659 1.374 . S
C2659 H2639 0.950 . S
C2659 C2655 1.385 . S
C2659 C2658 1.374 . S
C2660 C2657 1.499 . S
C2660 C2661 1.417 . S
C2660 C2662 1.389 . S
C2661 H2640 0.967 . S
C2661 C2660 1.417 . S
C2661 C2677 1.319 1_565 S
C2662 C2660 1.389 . S
C2662 C2663 1.524 . S
C2662 C2676 1.377 1_565 S
C2663 C2662 1.524 . S
C2663 C2664 1.397 . S
C2663 C2668 1.363 . S
C2664 H2641 0.950 . S
C2664 C2663 1.397 . S
C2664 C2665 1.334 . S
C2665 H2642 0.950 . S
C2665 C2664 1.334 . S
C2665 C2666 1.287 . S
C2666 C2665 1.287 . S
C2666 C2667 1.524 . S
C2666 H2685 0.913 . S
C2667 H2643 0.950 . S
C2667 C2666 1.524 . S
C2667 C2668 1.415 . S
C2668 H2644 0.950 . S
C2668 C2663 1.363 . S
C2668 C2667 1.415 . S
C2669 H2645 0.951 . S
C2669 C2670 1.366 . S
C2669 C2671 1.388 . S
C2670 C2669 1.366 . S
C2670 C2674 1.385 . S
C2671 H2646 0.951 . S
C2671 C2669 1.388 . S
C2671 C2672 1.366 . S
C2672 C2671 1.366 . S
C2672 C2673 1.414 . S
C2672 C2675 1.499 . S
C2673 H2647 0.950 . S
C2673 C2672 1.414 . S
C2673 C2674 1.374 . S
C2674 H2648 0.950 . S
C2674 C2670 1.385 . S
C2674 C2673 1.374 . S
C2675 C2672 1.499 . S
C2675 C2676 1.373 . S
C2675 C2677 1.389 . S
C2676 H2649 0.950 . S
C2676 C2662 1.377 1_545 S
C2676 C2675 1.373 . S
C2677 C2661 1.319 1_545 S
C2677 C2675 1.389 . S
C2677 C2678 1.524 . S
C2678 C2677 1.524 . S
C2678 C2679 1.397 . S
C2678 C2683 1.363 . S
C2679 H2650 0.950 . S
C2679 C2678 1.397 . S
C2679 C2680 1.334 . S
C2680 H2651 0.950 . S
C2680 C2679 1.334 . S
C2680 C2681 1.287 . S
C2681 C2680 1.287 . S
C2681 C2682 1.524 . S
C2681 H2684 0.999 . S
C2682 H2652 0.950 . S
C2682 C2681 1.524 . S
C2682 C2683 1.415 . S
C2683 H2653 0.950 . S
C2683 C2678 1.363 . S
C2683 C2682 1.415 . S
H2684 C2681 0.999 . S
H2685 C2666 0.913 . S
H2686 C2704 0.951 . S
H2687 C2706 0.951 . S
H2688 C2708 0.950 . S
H2689 C2709 0.950 . S
H2690 C2711 0.950 . S
H2691 C2714 0.950 . S
H2692 C2715 0.950 . S
H2693 C2717 0.950 . S
H2694 C2718 0.950 . S
H2695 C2719 0.951 . S
H2696 C2721 0.951 . S
H2697 C2723 0.950 . S
H2698 C2724 0.950 . S
H2699 C2726 0.950 . S
H2700 C2729 0.950 . S
H2701 C2730 0.950 . S
H2702 C2732 0.950 . S
H2703 C2733 0.950 . S
C2704 H2686 0.951 . S
C2704 C2705 1.366 . S
C2704 C2706 1.388 . S
C2705 C2704 1.366 . S
C2705 C2709 1.385 . S
C2706 H2687 0.951 . S
C2706 C2704 1.388 . S
C2706 C2707 1.366 . S
C2707 C2706 1.366 . S
C2707 C2708 1.414 . S
C2707 C2710 1.499 . S
C2708 H2688 0.950 . S
C2708 C2707 1.414 . S
C2708 C2709 1.374 . S
C2709 H2689 0.950 . S
C2709 C2705 1.385 . S
C2709 C2708 1.374 . S
C2710 C2707 1.499 . S
C2710 C2711 1.373 . S
C2710 C2712 1.389 . S
C2711 H2690 0.950 . S
C2711 C2710 1.373 . S
C2711 C2727 1.377 . S
C2712 C2710 1.389 . S
C2712 C2713 1.524 . S
C2712 C2726 1.377 . S
C2713 C2712 1.524 . S
C2713 C2714 1.397 . S
C2713 C2718 1.363 . S
C2714 H2691 0.950 . S
C2714 C2713 1.397 . S
C2714 C2715 1.334 . S
C2715 H2692 0.950 . S
C2715 C2714 1.334 . S
C2715 C2716 1.287 . S
C2716 C2715 1.287 . S
C2716 C2717 1.524 . S
C2716 H2735 0.913 . S
C2717 H2693 0.950 . S
C2717 C2716 1.524 . S
C2717 C2718 1.415 . S
C2718 H2694 0.950 . S
C2718 C2713 1.363 . S
C2718 C2717 1.415 . S
C2719 H2695 0.951 . S
C2719 C2720 1.366 . S
C2719 C2721 1.388 . S
C2720 C2719 1.366 . S
C2720 C2724 1.385 . S
C2721 H2696 0.951 . S
C2721 C2719 1.388 . S
C2721 C2722 1.366 . S
C2722 C2721 1.366 . S
C2722 C2723 1.414 . S
C2722 C2725 1.499 . S
C2723 H2697 0.950 . S
C2723 C2722 1.414 . S
C2723 C2724 1.374 . S
C2724 H2698 0.950 . S
C2724 C2720 1.385 . S
C2724 C2723 1.374 . S
C2725 C2722 1.499 . S
C2725 C2726 1.373 . S
C2725 C2727 1.389 . S
C2726 H2699 0.950 . S
C2726 C2712 1.377 . S
C2726 C2725 1.373 . S
C2727 C2711 1.377 . S
C2727 C2725 1.389 . S
C2727 C2728 1.524 . S
C2728 C2727 1.524 . S
C2728 C2729 1.397 . S
C2728 C2733 1.363 . S
C2729 H2700 0.950 . S
C2729 C2728 1.397 . S
C2729 C2730 1.334 . S
C2730 H2701 0.950 . S
C2730 C2729 1.334 . S
C2730 C2731 1.287 . S
C2731 C2730 1.287 . S
C2731 C2732 1.524 . S
C2731 H2734 0.999 . S
C2732 H2702 0.950 . S
C2732 C2731 1.524 . S
C2732 C2733 1.415 . S
C2733 H2703 0.950 . S
C2733 C2728 1.363 . S
C2733 C2732 1.415 . S
H2734 C2731 0.999 . S
H2735 C2716 0.913 . S
C355 C121 1.148 . S
C370 C8 1.117 . S
C405 C22 1.117 . S
C420 C163 1.148 . S
C455 C36 1.116 . S
C470 C135 1.148 . S
C505 C50 1.117 . S
C520 C149 1.148 . S
C555 C64 1.116 . S
C570 C9 1.148 . S
C605 C23 1.148 . S
C620 C78 1.116 . S
C655 C92 1.116 . S
C670 C37 1.148 . S
C705 C51 1.148 . S
C720 C106 1.116 . S
C755 C65 1.148 . S
C770 C120 1.116 . S
C805 C93 1.149 . S
C820 C134 1.117 . S
C855 C148 1.116 . S
C870 C107 1.148 . S
C905 C79 1.148 . S
C920 C162 1.116 . S
C955 C289 1.148 . S
C970 C176 1.117 . S
C1005 C190 1.117 . S
C1020 C331 1.148 . S
C1055 C204 1.116 . S
C1070 C303 1.148 . S
C1105 C317 1.148 . S
C1120 C218 1.116 . S
C1155 C232 1.116 . S
C1170 C177 1.148 . S
C1205 C191 1.148 . S
C1220 C246 1.116 . S
C1255 C205 1.148 . S
C1270 C260 1.117 . S
C1305 C274 1.116 . S
C1320 C219 1.148 . S
C1355 C288 1.117 . S
C1370 C233 1.148 . S
C1405 C261 1.148 . S
C1420 C302 1.116 . S
C1455 C275 1.149 . S
C1470 C316 1.117 . S
C1505 C330 1.117 . S
C1520 C247 1.148 . S
C1555 C314 1.513 . S
C1570 C7 1.552 . S
C1605 C300 1.512 . S
C1620 C21 1.552 . S
C1655 C328 1.513 . S
C1670 C35 1.551 . S
C1705 C49 1.552 . S
C1720 C286 1.512 . S
C1755 C63 1.552 . S
C1770 C188 1.513 . S
C1805 C174 1.512 . S
C1820 C77 1.551 . S
C1855 C216 1.512 . S
C1870 C91 1.552 . S
C1905 C202 1.513 . S
C1920 C105 1.552 . S
C1955 C119 1.551 . S
C1970 C258 1.512 . S
C2005 C230 1.512 . S
C2020 C133 1.551 . S
C2055 C244 1.512 . S
C2070 C147 1.551 . S
C2105 C272 1.513 . S
C2120 C161 1.552 . S
C2155 C146 1.512 . S
C2170 C175 1.551 . S
C2205 C132 1.513 . S
C2220 C189 1.551 . S
C2255 C203 1.552 . S
C2270 C160 1.512 . S
C2305 C118 1.512 . S
C2320 C217 1.552 . S
C2355 C231 1.552 . S
C2370 C20 1.513 . S
C2405 C245 1.552 . S
C2420 C6 1.513 . S
C2455 C259 1.552 . S
C2470 C48 1.512 . S
C2505 C273 1.552 . S
C2520 C34 1.513 . S
C2555 C287 1.551 . S
C2570 C90 1.512 . S
C2605 C301 1.552 . S
C2620 C62 1.513 . S
C2655 C76 1.513 . S
C2670 C315 1.552 . S
C2705 C329 1.552 . S
C2720 C104 1.512 . S
