# Generated by pormake.
# Topology yfm, (5)-cn, num edge types: 1
# Building blocks:
#     Node 0, Type 0, BuildingBlock: XOMCOT_clean_sbu_1, # of connection points: 5
#     Node 1, Type 0, BuildingBlock: XOMCOT_clean_sbu_1, # of connection points: 5
#     Node 2, Type 0, BuildingBlock: XOMCOT_clean_sbu_1, # of connection points: 5
#     Node 3, Type 0, BuildingBlock: XOMCOT_clean_sbu_1, # of connection points: 5
#     Node 4, Type 0, BuildingBlock: XOMCOT_clean_sbu_1, # of connection points: 5
#     Node 5, Type 0, BuildingBlock: XOMCOT_clean_sbu_1, # of connection points: 5
#     Node 6, Type 0, BuildingBlock: XOMCOT_clean_sbu_1, # of connection points: 5
#     Node 7, Type 0, BuildingBlock: XOMCOT_clean_sbu_1, # of connection points: 5
#     Node 8, Type 0, BuildingBlock: XOMCOT_clean_sbu_1, # of connection points: 5
#     Node 9, Type 0, BuildingBlock: XOMCOT_clean_sbu_1, # of connection points: 5
#     Node 10, Type 0, BuildingBlock: XOMCOT_clean_sbu_1, # of connection points: 5
#     Node 11, Type 0, BuildingBlock: XOMCOT_clean_sbu_1, # of connection points: 5
#     Node 12, Type 0, BuildingBlock: XOMCOT_clean_sbu_1, # of connection points: 5
#     Node 13, Type 0, BuildingBlock: XOMCOT_clean_sbu_1, # of connection points: 5
#     Node 14, Type 0, BuildingBlock: XOMCOT_clean_sbu_1, # of connection points: 5
#     Node 15, Type 0, BuildingBlock: XOMCOT_clean_sbu_1, # of connection points: 5
#     Node 16, Type 0, BuildingBlock: XOMCOT_clean_sbu_1, # of connection points: 5
#     Node 17, Type 0, BuildingBlock: XOMCOT_clean_sbu_1, # of connection points: 5
#     Node 18, Type 0, BuildingBlock: XOMCOT_clean_sbu_1, # of connection points: 5
#     Node 19, Type 0, BuildingBlock: XOMCOT_clean_sbu_1, # of connection points: 5
#     Node 20, Type 0, BuildingBlock: XOMCOT_clean_sbu_1, # of connection points: 5
#     Node 21, Type 0, BuildingBlock: XOMCOT_clean_sbu_1, # of connection points: 5
#     Node 22, Type 0, BuildingBlock: XOMCOT_clean_sbu_1, # of connection points: 5
#     Node 23, Type 0, BuildingBlock: XOMCOT_clean_sbu_1, # of connection points: 5
#     Node 24, Type 0, BuildingBlock: XOMCOT_clean_sbu_1, # of connection points: 5
#     Node 25, Type 0, BuildingBlock: XOMCOT_clean_sbu_1, # of connection points: 5
#     Node 26, Type 0, BuildingBlock: XOMCOT_clean_sbu_1, # of connection points: 5
#     Node 27, Type 0, BuildingBlock: XOMCOT_clean_sbu_1, # of connection points: 5
#     Node 28, Type 0, BuildingBlock: XOMCOT_clean_sbu_1, # of connection points: 5
#     Node 29, Type 0, BuildingBlock: XOMCOT_clean_sbu_1, # of connection points: 5
#     Node 30, Type 0, BuildingBlock: XOMCOT_clean_sbu_1, # of connection points: 5
#     Node 31, Type 0, BuildingBlock: XOMCOT_clean_sbu_1, # of connection points: 5
#     Edge 32, Type (0, 0), BuildingBlock: UVAHIK_clean_linker_0, # of connection points: 2
#     Edge 33, Type (0, 0), BuildingBlock: UVAHIK_clean_linker_0, # of connection points: 2
#     Edge 34, Type (0, 0), BuildingBlock: UVAHIK_clean_linker_0, # of connection points: 2
#     Edge 35, Type (0, 0), BuildingBlock: UVAHIK_clean_linker_0, # of connection points: 2
#     Edge 36, Type (0, 0), BuildingBlock: UVAHIK_clean_linker_0, # of connection points: 2
#     Edge 37, Type (0, 0), BuildingBlock: UVAHIK_clean_linker_0, # of connection points: 2
#     Edge 38, Type (0, 0), BuildingBlock: UVAHIK_clean_linker_0, # of connection points: 2
#     Edge 39, Type (0, 0), BuildingBlock: UVAHIK_clean_linker_0, # of connection points: 2
#     Edge 40, Type (0, 0), BuildingBlock: UVAHIK_clean_linker_0, # of connection points: 2
#     Edge 41, Type (0, 0), BuildingBlock: UVAHIK_clean_linker_0, # of connection points: 2
#     Edge 42, Type (0, 0), BuildingBlock: UVAHIK_clean_linker_0, # of connection points: 2
#     Edge 43, Type (0, 0), BuildingBlock: UVAHIK_clean_linker_0, # of connection points: 2
#     Edge 44, Type (0, 0), BuildingBlock: UVAHIK_clean_linker_0, # of connection points: 2
#     Edge 45, Type (0, 0), BuildingBlock: UVAHIK_clean_linker_0, # of connection points: 2
#     Edge 46, Type (0, 0), BuildingBlock: UVAHIK_clean_linker_0, # of connection points: 2
#     Edge 47, Type (0, 0), BuildingBlock: UVAHIK_clean_linker_0, # of connection points: 2
#     Edge 48, Type (0, 0), BuildingBlock: UVAHIK_clean_linker_0, # of connection points: 2
#     Edge 49, Type (0, 0), BuildingBlock: UVAHIK_clean_linker_0, # of connection points: 2
#     Edge 50, Type (0, 0), BuildingBlock: UVAHIK_clean_linker_0, # of connection points: 2
#     Edge 51, Type (0, 0), BuildingBlock: UVAHIK_clean_linker_0, # of connection points: 2
#     Edge 52, Type (0, 0), BuildingBlock: UVAHIK_clean_linker_0, # of connection points: 2
#     Edge 53, Type (0, 0), BuildingBlock: UVAHIK_clean_linker_0, # of connection points: 2
#     Edge 54, Type (0, 0), BuildingBlock: UVAHIK_clean_linker_0, # of connection points: 2
#     Edge 55, Type (0, 0), BuildingBlock: UVAHIK_clean_linker_0, # of connection points: 2
#     Edge 56, Type (0, 0), BuildingBlock: UVAHIK_clean_linker_0, # of connection points: 2
#     Edge 57, Type (0, 0), BuildingBlock: UVAHIK_clean_linker_0, # of connection points: 2
#     Edge 58, Type (0, 0), BuildingBlock: UVAHIK_clean_linker_0, # of connection points: 2
#     Edge 59, Type (0, 0), BuildingBlock: UVAHIK_clean_linker_0, # of connection points: 2
#     Edge 60, Type (0, 0), BuildingBlock: UVAHIK_clean_linker_0, # of connection points: 2
#     Edge 61, Type (0, 0), BuildingBlock: UVAHIK_clean_linker_0, # of connection points: 2
#     Edge 62, Type (0, 0), BuildingBlock: UVAHIK_clean_linker_0, # of connection points: 2
#     Edge 63, Type (0, 0), BuildingBlock: UVAHIK_clean_linker_0, # of connection points: 2
#     Edge 64, Type (0, 0), BuildingBlock: UVAHIK_clean_linker_0, # of connection points: 2
#     Edge 65, Type (0, 0), BuildingBlock: UVAHIK_clean_linker_0, # of connection points: 2
#     Edge 66, Type (0, 0), BuildingBlock: UVAHIK_clean_linker_0, # of connection points: 2
#     Edge 67, Type (0, 0), BuildingBlock: UVAHIK_clean_linker_0, # of connection points: 2
#     Edge 68, Type (0, 0), BuildingBlock: UVAHIK_clean_linker_0, # of connection points: 2
#     Edge 69, Type (0, 0), BuildingBlock: UVAHIK_clean_linker_0, # of connection points: 2
#     Edge 70, Type (0, 0), BuildingBlock: UVAHIK_clean_linker_0, # of connection points: 2
#     Edge 71, Type (0, 0), BuildingBlock: UVAHIK_clean_linker_0, # of connection points: 2
#     Edge 72, Type (0, 0), BuildingBlock: UVAHIK_clean_linker_0, # of connection points: 2
#     Edge 73, Type (0, 0), BuildingBlock: UVAHIK_clean_linker_0, # of connection points: 2
#     Edge 74, Type (0, 0), BuildingBlock: UVAHIK_clean_linker_0, # of connection points: 2
#     Edge 75, Type (0, 0), BuildingBlock: UVAHIK_clean_linker_0, # of connection points: 2
#     Edge 76, Type (0, 0), BuildingBlock: UVAHIK_clean_linker_0, # of connection points: 2
#     Edge 77, Type (0, 0), BuildingBlock: UVAHIK_clean_linker_0, # of connection points: 2
#     Edge 78, Type (0, 0), BuildingBlock: UVAHIK_clean_linker_0, # of connection points: 2
#     Edge 79, Type (0, 0), BuildingBlock: UVAHIK_clean_linker_0, # of connection points: 2
#     Edge 80, Type (0, 0), BuildingBlock: UVAHIK_clean_linker_0, # of connection points: 2
#     Edge 81, Type (0, 0), BuildingBlock: UVAHIK_clean_linker_0, # of connection points: 2
#     Edge 82, Type (0, 0), BuildingBlock: UVAHIK_clean_linker_0, # of connection points: 2
#     Edge 83, Type (0, 0), BuildingBlock: UVAHIK_clean_linker_0, # of connection points: 2
#     Edge 84, Type (0, 0), BuildingBlock: UVAHIK_clean_linker_0, # of connection points: 2
#     Edge 85, Type (0, 0), BuildingBlock: UVAHIK_clean_linker_0, # of connection points: 2
#     Edge 86, Type (0, 0), BuildingBlock: UVAHIK_clean_linker_0, # of connection points: 2
#     Edge 87, Type (0, 0), BuildingBlock: UVAHIK_clean_linker_0, # of connection points: 2
#     Edge 88, Type (0, 0), BuildingBlock: UVAHIK_clean_linker_0, # of connection points: 2
#     Edge 89, Type (0, 0), BuildingBlock: UVAHIK_clean_linker_0, # of connection points: 2
#     Edge 90, Type (0, 0), BuildingBlock: UVAHIK_clean_linker_0, # of connection points: 2
#     Edge 91, Type (0, 0), BuildingBlock: UVAHIK_clean_linker_0, # of connection points: 2
#     Edge 92, Type (0, 0), BuildingBlock: UVAHIK_clean_linker_0, # of connection points: 2
#     Edge 93, Type (0, 0), BuildingBlock: UVAHIK_clean_linker_0, # of connection points: 2
#     Edge 94, Type (0, 0), BuildingBlock: UVAHIK_clean_linker_0, # of connection points: 2
#     Edge 95, Type (0, 0), BuildingBlock: UVAHIK_clean_linker_0, # of connection points: 2
#     Edge 96, Type (0, 0), BuildingBlock: UVAHIK_clean_linker_0, # of connection points: 2
#     Edge 97, Type (0, 0), BuildingBlock: UVAHIK_clean_linker_0, # of connection points: 2
#     Edge 98, Type (0, 0), BuildingBlock: UVAHIK_clean_linker_0, # of connection points: 2
#     Edge 99, Type (0, 0), BuildingBlock: UVAHIK_clean_linker_0, # of connection points: 2
#     Edge 100, Type (0, 0), BuildingBlock: UVAHIK_clean_linker_0, # of connection points: 2
#     Edge 101, Type (0, 0), BuildingBlock: UVAHIK_clean_linker_0, # of connection points: 2
#     Edge 102, Type (0, 0), BuildingBlock: UVAHIK_clean_linker_0, # of connection points: 2
#     Edge 103, Type (0, 0), BuildingBlock: UVAHIK_clean_linker_0, # of connection points: 2
#     Edge 104, Type (0, 0), BuildingBlock: UVAHIK_clean_linker_0, # of connection points: 2
#     Edge 105, Type (0, 0), BuildingBlock: UVAHIK_clean_linker_0, # of connection points: 2
#     Edge 106, Type (0, 0), BuildingBlock: UVAHIK_clean_linker_0, # of connection points: 2
#     Edge 107, Type (0, 0), BuildingBlock: UVAHIK_clean_linker_0, # of connection points: 2
#     Edge 108, Type (0, 0), BuildingBlock: UVAHIK_clean_linker_0, # of connection points: 2
#     Edge 109, Type (0, 0), BuildingBlock: UVAHIK_clean_linker_0, # of connection points: 2
#     Edge 110, Type (0, 0), BuildingBlock: UVAHIK_clean_linker_0, # of connection points: 2
#     Edge 111, Type (0, 0), BuildingBlock: UVAHIK_clean_linker_0, # of connection points: 2
# Relax obj value: 0.613
# Max RMSD: 0.255
# Mean RMSD: 0.254
data_MOF--net-yfm--node1-XOMCOT_clean_sbu_1--edge1-UVAHIK_clean_linker_0
_symmetry_space_group_name_H-M    P1
_symmetry_Int_Tables_number       1
_symmetry_cell_setting            triclinic
loop_
_symmetry_equiv_pos_as_xyz
'x, y, z'
_cell_length_a     85.081453
_cell_length_b     84.765768
_cell_length_c     55.157669
_cell_angle_alpha  89.994206
_cell_angle_beta   89.999873
_cell_angle_gamma 89.996869
loop_
_atom_site_label
_atom_site_type_symbol
_atom_site_fract_x
_atom_site_fract_y
_atom_site_fract_z
_atom_type_partial_charge
C0 C 0.27835 0.12265 0.10161 0.0
C1 C 0.27798 0.12593 0.12597 0.0
N2 N 0.26929 0.13901 0.12925 0.0
N3 N 0.2701 0.13372 0.0895 0.0
C4 C 0.26465 0.14354 0.10691 0.0
H5 H 0.28391 0.11254 0.09334 0.0
Co6 Co 0.26719 0.13318 0.05609 0.0
C7 C 0.25528 0.16499 0.04259 0.0
O8 O 0.24569 0.15876 0.02661 0.0
N9 N 0.26459 0.13192 0.02151 0.0
C10 C 0.25591 0.12465 0.9849 0.0
C11 C 0.2518 0.1273 0.00868 0.0
C12 C 0.27614 0.13245 0.00457 0.0
N13 N 0.27135 0.12761 0.98242 0.0
O14 O 0.28931 0.13664 0.05272 0.0
H15 H 0.24024 0.12524 0.01606 0.0
H16 H 0.28814 0.1357 0.0084 0.0
O17 O 0.26395 0.15604 0.05558 0.0
C18 C 0.29743 0.12413 0.05009 0.0
O19 O 0.29004 0.11088 0.04518 0.0
N20 N 0.2459 0.12843 0.0615 0.0
C21 C 0.21883 0.1154 0.08169 0.0
C22 C 0.22132 0.13173 0.08231 0.0
C23 C 0.23493 0.13808 0.07193 0.0
C24 C 0.24337 0.11256 0.0602 0.0
C25 C 0.22975 0.10583 0.06976 0.0
H26 H 0.23713 0.1505 0.07425 0.0
H27 H 0.25245 0.105 0.05287 0.0
H28 H 0.25724 0.15366 0.10345 0.0
H29 H 0.28302 0.11882 0.14031 0.0
H30 H 0.24834 0.11977 0.97103 0.0
H31 H 0.21323 0.1394 0.09185 0.0
H32 H 0.22834 0.09312 0.06943 0.0
C33 C 0.13142 0.99344 0.35251 0.0
C34 C 0.12769 0.99116 0.37647 0.0
N35 N 0.11341 0.99741 0.38037 0.0
N36 N 0.11938 1.00083 0.34135 0.0
C37 C 0.10861 0.00335 0.35895 0.0
H38 H 0.14212 0.9897 0.34364 0.0
Co39 Co 0.11881 0.00492 0.30834 0.0
C40 C 0.08627 0.01444 0.30126 0.0
O41 O 0.09154 0.02763 0.29174 0.0
N42 N 0.11868 0.00903 0.27497 0.0
C43 C 0.11553 0.00714 0.23499 0.0
C44 C 0.11178 1.00057 0.25714 0.0
C45 C 0.12637 0.02071 0.26328 0.0
N46 N 0.1246 0.01985 0.23905 0.0
O47 O 0.11822 0.02698 0.31543 0.0
H48 H 0.10468 0.99015 0.26003 0.0
H49 H 0.13357 0.02948 0.27215 0.0
O50 O 0.09595 0.00391 0.30843 0.0
C51 C 0.1315 0.03305 0.32039 0.0
O52 O 0.14409 0.0241 0.31904 0.0
N53 N 0.12062 0.98325 0.3026 0.0
C54 C 0.13144 0.95308 0.31354 0.0
C55 C 0.11564 0.95719 0.31758 0.0
C56 C 0.11044 0.97242 0.31207 0.0
C57 C 0.13534 0.97888 0.29566 0.0
C58 C 0.14102 0.96382 0.30097 0.0
H59 H 0.09888 0.97594 0.31808 0.0
H60 H 0.14336 0.98771 0.28876 0.0
H61 H 0.0974 0.00908 0.35607 0.0
H62 H 0.1349 0.98543 0.39004 0.0
H63 H 0.11188 0.00294 0.21732 0.0
H64 H 0.10773 0.94917 0.32678 0.0
H65 H 0.1533 0.96131 0.29758 0.0
C66 C 0.23484 0.88501 0.59752 0.0
C67 C 0.23764 0.88302 0.62181 0.0
N68 N 0.24205 0.86796 0.62546 0.0
N69 N 0.23759 0.87132 0.58586 0.0
C70 C 0.24186 0.86103 0.60343 0.0
H71 H 0.23177 0.89596 0.58866 0.0
Co72 Co 0.23776 0.87062 0.55234 0.0
C73 C 0.249 0.83877 0.53845 0.0
O74 O 0.2573 0.84494 0.5208 0.0
N75 N 0.2376 0.8708 0.51752 0.0
C76 C 0.24351 0.8762 0.47891 0.0
C77 C 0.24927 0.87504 0.50212 0.0
C78 C 0.22492 0.86921 0.50277 0.0
N79 N 0.22809 0.87276 0.47938 0.0
O80 O 0.21567 0.86694 0.55334 0.0
H81 H 0.26124 0.87764 0.50722 0.0
H82 H 0.21332 0.86603 0.509 0.0
O83 O 0.24127 0.84773 0.55279 0.0
C84 C 0.20757 0.87952 0.55165 0.0
O85 O 0.21477 0.89268 0.54565 0.0
N86 N 0.25918 0.87569 0.55356 0.0
C87 C 0.28595 0.8903 0.57234 0.0
C88 C 0.28408 0.87386 0.57386 0.0
C89 C 0.27053 0.86675 0.56444 0.0
C90 C 0.26127 0.89152 0.55067 0.0
C91 C 0.27465 0.89903 0.5596 0.0
H92 H 0.26856 0.85442 0.56822 0.0
H93 H 0.25183 0.89856 0.54323 0.0
H94 H 0.24576 0.84908 0.60004 0.0
H95 H 0.23703 0.89204 0.63566 0.0
H96 H 0.24998 0.88028 0.46322 0.0
H97 H 0.2925 0.86669 0.58361 0.0
H98 H 0.27539 0.91176 0.5584 0.0
C99 C 0.37112 0.98413 0.84835 0.0
C100 C 0.37246 0.9832 0.87309 0.0
N101 N 0.38753 0.9861 0.87911 0.0
N102 N 0.38525 0.98758 0.83878 0.0
C103 C 0.39509 0.98874 0.85796 0.0
H104 H 0.36054 0.98226 0.83785 0.0
Co105 Co 0.388 0.98854 0.80564 0.0
C106 C 0.41904 0.0047 0.80052 0.0
O107 O 0.41297 0.015 0.78535 0.0
N108 N 0.38998 0.98856 0.77154 0.0
C109 C 0.39864 0.98214 0.73471 0.0
C110 C 0.40296 0.9863 0.75782 0.0
C111 C 0.37795 0.98528 0.75626 0.0
N112 N 0.38286 0.98117 0.73378 0.0
O113 O 0.39381 0.96687 0.80625 0.0
H114 H 0.41487 0.98577 0.76448 0.0
H115 H 0.36594 0.98403 0.76231 0.0
O116 O 0.41029 0.99397 0.80971 0.0
C117 C 0.38318 0.95661 0.80251 0.0
O118 O 0.36941 0.96131 0.79456 0.0
N119 N 0.38125 0.00988 0.80662 0.0
C120 C 0.36517 0.03707 0.82191 0.0
C121 C 0.38089 0.03446 0.82844 0.0
C122 C 0.38847 0.02063 0.82138 0.0
C123 C 0.36632 0.01272 0.79867 0.0
C124 C 0.35808 0.02623 0.80603 0.0
H125 H 0.39959 0.01806 0.82984 0.0
H126 H 0.3601 0.00377 0.78863 0.0
H127 H 0.40754 0.99114 0.85648 0.0
H128 H 0.36304 0.9807 0.88572 0.0
H129 H 0.40665 0.97883 0.72036 0.0
H130 H 0.38704 0.04249 0.84039 0.0
H131 H 0.34587 0.02744 0.80083 0.0
C132 C 0.26743 0.88688 0.89983 0.0
C133 C 0.26879 0.88515 0.8752 0.0
N134 N 0.26781 0.86966 0.86989 0.0
N135 N 0.26559 0.87258 0.91006 0.0
C136 C 0.26584 0.86225 0.89138 0.0
H137 H 0.2678 0.89786 0.90979 0.0
Co138 Co 0.26432 0.87033 0.94337 0.0
C139 C 0.24904 0.83889 0.94943 0.0
O140 O 0.23797 0.84498 0.96306 0.0
N141 N 0.26355 0.86878 0.97809 0.0
C142 C 0.25611 0.87093 0.01686 0.0
C143 C 0.25105 0.86925 0.9933 0.0
C144 C 0.27603 0.86998 0.99327 0.0
N145 N 0.27188 0.87162 0.01676 0.0
O146 O 0.28611 0.86508 0.94301 0.0
H147 H 0.23887 0.8695 0.98779 0.0
H148 H 0.28808 0.87026 0.9874 0.0
O149 O 0.25959 0.84781 0.94025 0.0
C150 C 0.29554 0.87672 0.94374 0.0
O151 O 0.29 0.89083 0.94866 0.0
N152 N 0.24314 0.87667 0.94162 0.0
C153 C 0.21583 0.89283 0.92779 0.0
C154 C 0.21911 0.87766 0.91879 0.0
C155 C 0.2328 0.86983 0.92585 0.0
C156 C 0.23999 0.89118 0.9511 0.0
C157 C 0.22624 0.89927 0.94495 0.0
H158 H 0.23575 0.85891 0.91685 0.0
H159 H 0.24862 0.89691 0.96249 0.0
H160 H 0.26485 0.8496 0.89346 0.0
H161 H 0.27018 0.89458 0.86216 0.0
H162 H 0.24868 0.87274 0.03255 0.0
H163 H 0.21184 0.87229 0.90497 0.0
H164 H 0.22424 0.91081 0.95274 0.0
C165 C 0.3671 0.00731 0.15529 0.0
C166 C 0.36891 0.00554 0.13075 0.0
N167 N 0.38439 0.00522 0.1258 0.0
N168 N 0.38137 0.00797 0.16583 0.0
C169 C 0.39176 0.00688 0.14734 0.0
H170 H 0.35608 0.00738 0.16507 0.0
Co171 Co 0.38333 0.00794 0.19931 0.0
C172 C 0.41583 0.99435 0.20536 0.0
O173 O 0.4107 0.98247 0.21835 0.0
N174 N 0.38448 0.0082 0.2339 0.0
C175 C 0.38312 1.00078 0.27271 0.0
C176 C 0.38621 0.99594 0.24942 0.0
C177 C 0.38033 0.02036 0.24858 0.0
N178 N 0.37929 0.01615 0.27214 0.0
O179 O 0.38729 0.03011 0.1978 0.0
H180 H 0.38807 0.98382 0.24425 0.0
H181 H 0.37684 0.03184 0.24211 0.0
O182 O 0.40613 0.00446 0.19688 0.0
C183 C 0.3748 0.03831 0.19611 0.0
O184 O 0.3612 0.03125 0.19938 0.0
N185 N 0.37812 0.98635 0.19901 0.0
C186 C 0.36232 0.95878 0.18562 0.0
C187 C 0.37765 0.96174 0.17738 0.0
C188 C 0.38529 0.97567 0.18407 0.0
C189 C 0.36361 0.98321 0.20833 0.0
C190 C 0.3556 0.96941 0.20214 0.0
H191 H 0.39625 0.97854 0.17525 0.0
H192 H 0.35768 0.99206 0.21908 0.0
H193 H 0.40438 0.00631 0.14968 0.0
H194 H 0.35958 0.0041 0.11758 0.0
H195 H 0.38278 0.9933 0.2886 0.0
H196 H 0.38317 0.95409 0.16415 0.0
H197 H 0.34382 0.96759 0.20905 0.0
C198 C 0.2281 0.11786 0.40548 0.0
C199 C 0.2265 0.11945 0.38081 0.0
N200 N 0.2316 0.13391 0.37458 0.0
N201 N 0.2341 0.13128 0.41475 0.0
C202 C 0.2361 0.1409 0.39543 0.0
H203 H 0.22497 0.10761 0.41611 0.0
Co204 Co 0.23654 0.13416 0.44788 0.0
C205 C 0.25433 0.16428 0.45059 0.0
O206 O 0.26494 0.1575 0.46443 0.0
N207 N 0.23786 0.13645 0.48199 0.0
C208 C 0.23288 0.14572 0.51909 0.0
C209 C 0.23695 0.14966 0.49572 0.0
C210 C 0.23397 0.12474 0.49757 0.0
N211 N 0.23071 0.13003 0.52012 0.0
O212 O 0.21502 0.14052 0.44913 0.0
H213 H 0.23707 0.16159 0.48893 0.0
H214 H 0.23191 0.11271 0.49191 0.0
O215 O 0.2426 0.15625 0.44293 0.0
C216 C 0.20518 0.12958 0.45353 0.0
O217 O 0.21055 0.11576 0.46037 0.0
N218 N 0.25763 0.12681 0.44527 0.0
C219 C 0.28447 0.10989 0.4309 0.0
C220 C 0.28088 0.12458 0.42058 0.0
C221 C 0.26748 0.13277 0.42791 0.0
C222 C 0.26131 0.11289 0.45631 0.0
C223 C 0.27477 0.1044 0.44973 0.0
H224 H 0.26446 0.14335 0.4181 0.0
H225 H 0.25327 0.10759 0.46897 0.0
H226 H 0.2406 0.15282 0.39654 0.0
H227 H 0.22221 0.11059 0.36832 0.0
H228 H 0.22982 0.15396 0.53333 0.0
H229 H 0.28766 0.12927 0.40561 0.0
H230 H 0.27706 0.09321 0.45852 0.0
C231 C 0.1307 0.00661 0.65594 0.0
C232 C 0.12777 0.00833 0.63164 0.0
N233 N 0.11299 0.00342 0.62731 0.0
N234 N 0.11775 1.00089 0.66694 0.0
C235 C 0.10718 0.9988 0.64894 0.0
H236 H 0.14151 0.00961 0.66516 0.0
Co237 Co 0.11634 0.99827 0.70023 0.0
C238 C 0.08349 0.99061 0.70823 0.0
O239 O 0.08846 0.97839 0.72072 0.0
N240 N 0.11549 0.99566 0.73395 0.0
C241 C 0.11188 0.99945 0.77352 0.0
C242 C 0.10861 0.0051 0.7506 0.0
C243 C 0.12272 0.98436 0.74713 0.0
N244 N 0.12065 0.98635 0.77114 0.0
O245 O 0.11493 0.97602 0.69519 0.0
H246 H 0.10189 0.01557 0.74636 0.0
H247 H 0.12983 0.97506 0.73946 0.0
O248 O 0.09347 1.00009 0.69889 0.0
C249 C 0.12813 0.96935 0.69176 0.0
O250 O 0.141 0.9778 0.69402 0.0
N251 N 0.11895 0.02003 0.70383 0.0
C252 C 0.13194 0.04841 0.68849 0.0
C253 C 0.11603 0.04501 0.68406 0.0
C254 C 0.10969 0.03068 0.69195 0.0
C255 C 0.1337 0.02405 0.71118 0.0
C256 C 0.14045 0.03826 0.70373 0.0
H257 H 0.09812 0.02738 0.68568 0.0
H258 H 0.14099 0.01532 0.72002 0.0
H259 H 0.09538 0.99437 0.65167 0.0
H260 H 0.13588 0.01273 0.61811 0.0
H261 H 0.10813 0.00456 0.79056 0.0
H262 H 0.10899 0.05265 0.67266 0.0
H263 H 0.15276 0.04034 0.70753 0.0
C264 C 0.73492 0.88165 0.903 0.0
C265 C 0.73776 0.88165 0.87852 0.0
N266 N 0.74176 0.8669 0.87189 0.0
N267 N 0.73725 0.86702 0.91178 0.0
C268 C 0.74119 0.85816 0.89233 0.0
H269 H 0.73195 0.89179 0.91399 0.0
Co270 Co 0.73665 0.86319 0.94469 0.0
C271 C 0.75345 0.83226 0.94899 0.0
O272 O 0.76343 0.83819 0.96473 0.0
N273 N 0.73521 0.86004 0.97852 0.0
C274 C 0.72817 0.85025 0.01446 0.0
C275 C 0.7327 0.8466 0.99117 0.0
C276 C 0.7317 0.87162 0.99452 0.0
N277 N 0.72743 0.86604 0.01648 0.0
O278 O 0.71523 0.85701 0.94121 0.0
H279 H 0.73255 0.83486 0.98361 0.0
H280 H 0.73045 0.88385 0.98942 0.0
O281 O 0.74278 0.84106 0.93979 0.0
C282 C 0.7049 0.8676 0.94491 0.0
O283 O 0.70933 0.88105 0.95455 0.0
N284 N 0.75768 0.87062 0.94659 0.0
C285 C 0.78306 0.88974 0.93285 0.0
C286 C 0.78215 0.87401 0.92516 0.0
C287 C 0.76929 0.86472 0.93196 0.0
C288 C 0.75907 0.88554 0.95563 0.0
C289 C 0.77172 0.89521 0.94925 0.0
H290 H 0.76788 0.85354 0.92292 0.0
H291 H 0.74949 0.89083 0.96538 0.0
H292 H 0.7445 0.84585 0.89329 0.0
H293 H 0.7373 0.89178 0.86659 0.0
H294 H 0.72465 0.84187 0.02824 0.0
H295 H 0.7904 0.86938 0.91201 0.0
H296 H 0.77192 0.90729 0.95562 0.0
C297 C 0.86658 0.98648 0.65838 0.0
C298 C 0.86762 0.98587 0.63359 0.0
N299 N 0.88276 0.98807 0.6273 0.0
N300 N 0.88097 0.98904 0.66769 0.0
C301 C 0.89066 0.99 0.64834 0.0
H302 H 0.85604 0.98491 0.6691 0.0
Co303 Co 0.8842 0.98912 0.70069 0.0
C304 C 0.91542 0.00458 0.70683 0.0
O305 O 0.90945 0.01401 0.72336 0.0
N306 N 0.88675 0.98823 0.73471 0.0
C307 C 0.89602 0.97962 0.77011 0.0
C308 C 0.89988 0.98402 0.74693 0.0
C309 C 0.87502 0.98587 0.75094 0.0
N310 N 0.88031 0.98049 0.77255 0.0
O311 O 0.88966 0.96736 0.69846 0.0
H312 H 0.91135 0.98233 0.73898 0.0
H313 H 0.86272 0.98601 0.74607 0.0
O314 O 0.90656 0.99448 0.69629 0.0
C315 C 0.8795 0.95692 0.7038 0.0
O316 O 0.86646 0.96126 0.71464 0.0
N317 N 0.87769 0.01055 0.70111 0.0
C318 C 0.86141 0.0374 0.68509 0.0
C319 C 0.87731 0.03519 0.67941 0.0
C320 C 0.88506 0.02155 0.68692 0.0
C321 C 0.86259 0.01315 0.70848 0.0
C322 C 0.85424 0.02652 0.70078 0.0
H323 H 0.89631 0.0192 0.67878 0.0
H324 H 0.85627 0.00401 0.71794 0.0
H325 H 0.90324 0.99162 0.6496 0.0
H326 H 0.85797 0.98401 0.62112 0.0
H327 H 0.90407 0.97483 0.7834 0.0
H328 H 0.88343 0.04328 0.66749 0.0
H329 H 0.8419 0.02753 0.7053 0.0
C330 C 0.76051 0.11663 0.40281 0.0
C331 C 0.76192 0.11876 0.37827 0.0
N332 N 0.76325 0.13433 0.37388 0.0
N333 N 0.76101 0.13077 0.41391 0.0
C334 C 0.76264 0.14141 0.39581 0.0
H335 H 0.75925 0.10547 0.41211 0.0
Co336 Co 0.76043 0.13243 0.44744 0.0
C337 C 0.74675 0.165 0.45277 0.0
O338 O 0.73412 0.15979 0.4638 0.0
N339 N 0.76034 0.13336 0.4821 0.0
C340 C 0.75326 0.1322 0.52107 0.0
C341 C 0.74831 0.13546 0.49781 0.0
C342 C 0.77246 0.12904 0.49658 0.0
N343 N 0.76851 0.12798 0.52027 0.0
O344 O 0.78266 0.13595 0.44659 0.0
H345 H 0.7363 0.13791 0.49277 0.0
H346 H 0.78396 0.12616 0.48988 0.0
O347 O 0.75728 0.15532 0.44552 0.0
C348 C 0.79031 0.12308 0.44481 0.0
O349 O 0.78264 0.10972 0.44745 0.0
N350 N 0.7388 0.12754 0.44637 0.0
C351 C 0.71156 0.11162 0.43168 0.0
C352 C 0.71525 0.12659 0.4223 0.0
C353 C 0.72892 0.13432 0.42982 0.0
C354 C 0.73492 0.11347 0.45675 0.0
C355 C 0.7212 0.10552 0.45012 0.0
H356 H 0.73237 0.14494 0.42039 0.0
H357 H 0.74314 0.10771 0.46882 0.0
H358 H 0.76363 0.15401 0.39861 0.0
H359 H 0.76177 0.10957 0.36463 0.0
H360 H 0.74585 0.13197 0.53701 0.0
H361 H 0.70846 0.13172 0.4077 0.0
H362 H 0.71878 0.09416 0.45828 0.0
C363 C 0.63005 0.02282 0.15016 0.0
C364 C 0.62773 0.02395 0.12563 0.0
N365 N 0.61284 0.01961 0.12073 0.0
N366 N 0.61668 0.01789 0.16079 0.0
C367 C 0.60635 0.01595 0.14238 0.0
H368 H 0.64088 0.02524 0.15971 0.0
Co369 Co 0.6157 0.01503 0.19401 0.0
C370 C 0.58407 1.00046 0.20204 0.0
O371 O 0.59019 0.98923 0.21537 0.0
N372 N 0.61558 0.01244 0.22861 0.0
C373 C 0.61976 0.00239 0.26553 0.0
C374 C 0.61695 0.99894 0.24159 0.0
C375 C 0.61748 0.02391 0.24556 0.0
N376 N 0.62033 0.01815 0.26799 0.0
O377 O 0.61091 0.03698 0.19672 0.0
H378 H 0.61695 0.98716 0.23414 0.0
H379 H 0.61798 0.03631 0.24152 0.0
O380 O 0.593 0.01081 0.19231 0.0
C381 C 0.62264 0.04625 0.19828 0.0
O382 O 0.63657 0.0403 0.20298 0.0
N383 N 0.6216 0.99391 0.18915 0.0
C384 C 0.63669 0.96719 0.17065 0.0
C385 C 0.62071 0.96997 0.1659 0.0
C386 C 0.61345 0.98352 0.17499 0.0
C387 C 0.63694 0.99106 0.1948 0.0
C388 C 0.64467 0.97769 0.186 0.0
H389 H 0.6017 0.98621 0.16891 0.0
H390 H 0.64352 0.9998 0.20489 0.0
H391 H 0.59439 0.01189 0.14473 0.0
H392 H 0.63648 0.02726 0.11233 0.0
H393 H 0.62208 0.99388 0.27971 0.0
H394 H 0.61409 0.96222 0.15411 0.0
H395 H 0.65708 0.97627 0.18974 0.0
C396 C 0.73498 0.12072 0.10128 0.0
C397 C 0.73675 0.12272 0.12579 0.0
N398 N 0.74099 0.13778 0.12987 0.0
N399 N 0.7382 0.1344 0.08991 0.0
C400 C 0.74167 0.14471 0.10786 0.0
H401 H 0.73241 0.10973 0.09215 0.0
Co402 Co 0.73993 0.13506 0.05646 0.0
C403 C 0.75467 0.16658 0.04702 0.0
O404 O 0.76577 0.16022 0.03375 0.0
N405 N 0.74146 0.13483 0.0218 0.0
C406 C 0.75064 0.13078 0.98436 0.0
C407 C 0.7546 0.13376 0.00802 0.0
C408 C 0.72966 0.13244 0.00564 0.0
N409 N 0.73491 0.12973 0.98289 0.0
O410 O 0.71809 0.14012 0.05517 0.0
H411 H 0.76652 0.13397 0.01473 0.0
H412 H 0.71744 0.13147 0.01054 0.0
O413 O 0.74442 0.15779 0.05726 0.0
C414 C 0.70879 0.12835 0.05532 0.0
O415 O 0.71458 0.11422 0.05126 0.0
N416 N 0.76101 0.12887 0.05985 0.0
C417 C 0.78745 0.11314 0.07759 0.0
C418 C 0.7853 0.12931 0.08197 0.0
C419 C 0.77189 0.13692 0.07324 0.0
C420 C 0.76334 0.11338 0.0543 0.0
C421 C 0.77656 0.10532 0.06275 0.0
H422 H 0.76968 0.14883 0.07917 0.0
H423 H 0.75426 0.10693 0.04479 0.0
H424 H 0.74577 0.15664 0.10484 0.0
H425 H 0.73572 0.11365 0.13953 0.0
H426 H 0.7588 0.12866 0.96967 0.0
H427 H 0.7934 0.13582 0.09334 0.0
H428 H 0.77753 0.09278 0.0593 0.0
C429 C 0.63508 0.98823 0.84701 0.0
C430 C 0.63324 0.98946 0.87165 0.0
N431 N 0.61777 0.99055 0.87645 0.0
N432 N 0.62086 0.98877 0.8363 0.0
C433 C 0.61045 0.98996 0.85476 0.0
H434 H 0.64613 0.98782 0.83732 0.0
Co435 Co 0.61893 0.99006 0.80286 0.0
C436 C 0.58727 0.00561 0.79813 0.0
O437 O 0.59313 0.01768 0.78636 0.0
N438 N 0.61774 0.991 0.76822 0.0
C439 C 0.61904 0.99956 0.72995 0.0
C440 C 0.61641 0.00379 0.75364 0.0
C441 C 0.62118 0.97915 0.75254 0.0
N442 N 0.62219 0.98403 0.72928 0.0
O443 O 0.61393 0.9681 0.80277 0.0
H444 H 0.61513 0.01581 0.7597 0.0
H445 H 0.62414 0.96732 0.75802 0.0
O446 O 0.59633 0.9946 0.80561 0.0
C447 C 0.6258 0.95896 0.8029 0.0
O448 O 0.63985 0.96498 0.79946 0.0
N449 N 0.62509 0.01142 0.80484 0.0
C450 C 0.64163 0.03834 0.81943 0.0
C451 C 0.62654 0.03517 0.82851 0.0
C452 C 0.6185 0.02165 0.82106 0.0
C453 C 0.63939 0.01468 0.79491 0.0
C454 C 0.64769 0.02824 0.8015 0.0
H455 H 0.60765 0.01872 0.83015 0.0
H456 H 0.64491 0.00617 0.78302 0.0
H457 H 0.59792 0.9915 0.85235 0.0
H458 H 0.64255 0.99015 0.88499 0.0
H459 H 0.6195 0.00752 0.71462 0.0
H460 H 0.62144 0.04229 0.84278 0.0
H461 H 0.65917 0.03024 0.79362 0.0
C462 C 0.76478 0.888 0.59444 0.0
C463 C 0.76646 0.88708 0.61915 0.0
N464 N 0.767 0.87172 0.62543 0.0
N465 N 0.76422 0.87332 0.5852 0.0
C466 C 0.76567 0.86359 0.60448 0.0
H467 H 0.76405 0.89868 0.58376 0.0
Co468 Co 0.76304 0.86961 0.55226 0.0
C469 C 0.74726 0.83804 0.55167 0.0
O470 O 0.73558 0.84345 0.53847 0.0
N471 N 0.76285 0.86666 0.51843 0.0
C472 C 0.76759 0.85742 0.48131 0.0
C473 C 0.76317 0.85351 0.50456 0.0
C474 C 0.76736 0.87828 0.50315 0.0
N475 N 0.77045 0.87302 0.48055 0.0
O476 O 0.78487 0.86466 0.55288 0.0
H477 H 0.76204 0.84158 0.51106 0.0
H478 H 0.76943 0.89027 0.50903 0.0
O479 O 0.75847 0.84725 0.55787 0.0
C480 C 0.79453 0.87604 0.5508 0.0
O481 O 0.78916 0.88994 0.54432 0.0
N482 N 0.74145 0.87546 0.55308 0.0
C483 C 0.71374 0.89138 0.56589 0.0
C484 C 0.71816 0.87741 0.57768 0.0
C485 C 0.73201 0.86972 0.57112 0.0
C486 C 0.73687 0.8885 0.54039 0.0
C487 C 0.72297 0.89649 0.54626 0.0
H488 H 0.73581 0.85994 0.58221 0.0
H489 H 0.74454 0.8936 0.52698 0.0
H490 H 0.76596 0.85086 0.60318 0.0
H491 H 0.76696 0.89695 0.63157 0.0
H492 H 0.77005 0.84917 0.46681 0.0
H493 H 0.71175 0.87309 0.59328 0.0
H494 H 0.72001 0.90712 0.53638 0.0
C495 C 0.86756 0.00935 0.34718 0.0
C496 C 0.86789 0.00744 0.37188 0.0
N497 N 0.88302 0.00729 0.37905 0.0
N498 N 0.8824 0.01022 0.3388 0.0
C499 C 0.89162 0.0092 0.35869 0.0
H500 H 0.85719 0.00949 0.33584 0.0
Co501 Co 0.88668 0.01089 0.30594 0.0
C502 C 0.91839 0.99592 0.30394 0.0
O503 O 0.91321 0.98505 0.28894 0.0
N504 N 0.89028 0.01239 0.27225 0.0
C505 C 0.90027 0.01919 0.23637 0.0
C506 C 0.90375 0.01464 0.25969 0.0
C507 C 0.87886 0.01607 0.25616 0.0
N508 N 0.88456 0.02022 0.23422 0.0
O509 O 0.89086 0.03291 0.30904 0.0
H510 H 0.91544 0.01462 0.26723 0.0
H511 H 0.86664 0.01728 0.26116 0.0
O512 O 0.90901 0.00654 0.31183 0.0
C513 C 0.87871 0.0415 0.30648 0.0
O514 O 0.86552 0.03474 0.29975 0.0
N515 N 0.88122 0.98917 0.30407 0.0
C516 C 0.86442 0.9617 0.31544 0.0
C517 C 0.87898 0.96483 0.32632 0.0
C518 C 0.8871 0.97863 0.32056 0.0
C519 C 0.86766 0.98568 0.29198 0.0
C520 C 0.85919 0.97195 0.29717 0.0
H521 H 0.8972 0.98159 0.33148 0.0
H522 H 0.86235 0.99423 0.28014 0.0
H523 H 0.90433 0.00895 0.35818 0.0
H524 H 0.85781 0.00593 0.38363 0.0
H525 H 0.90872 0.02251 0.22262 0.0
H526 H 0.88339 0.95752 0.34092 0.0
H527 H 0.84805 0.96999 0.28816 0.0
C528 C 0.76023 0.61994 0.59988 0.0
C529 C 0.75647 0.62129 0.62396 0.0
N530 N 0.75628 0.63673 0.62972 0.0
N531 N 0.7623 0.63445 0.59044 0.0
C532 C 0.75999 0.6445 0.60913 0.0
H533 H 0.76088 0.6091 0.58959 0.0
Co534 Co 0.76533 0.63742 0.55758 0.0
C535 C 0.77194 0.67111 0.55468 0.0
O536 O 0.78533 0.66751 0.5442 0.0
N537 N 0.7684 0.63977 0.52428 0.0
C538 C 0.76691 0.64645 0.48532 0.0
C539 C 0.76074 0.64897 0.50816 0.0
C540 C 0.77894 0.63171 0.51089 0.0
N541 N 0.77845 0.63563 0.48721 0.0
O542 O 0.78731 0.6397 0.56364 0.0
H543 H 0.75127 0.65695 0.51272 0.0
H544 H 0.78664 0.6228 0.51822 0.0
O545 O 0.76242 0.66017 0.56087 0.0
C546 C 0.79556 0.62726 0.56558 0.0
O547 O 0.78893 0.61349 0.56165 0.0
N548 N 0.74387 0.63397 0.55292 0.0
C549 C 0.71601 0.6198 0.56764 0.0
C550 C 0.71859 0.63594 0.57176 0.0
C551 C 0.73266 0.64287 0.56418 0.0
C552 C 0.74067 0.61892 0.54585 0.0
C553 C 0.72672 0.61156 0.55301 0.0
H554 H 0.73524 0.6547 0.57024 0.0
H555 H 0.74983 0.61192 0.53753 0.0
H556 H 0.76026 0.65722 0.60749 0.0
H557 H 0.75387 0.61168 0.63625 0.0
H558 H 0.7633 0.65222 0.46873 0.0
H559 H 0.7105 0.64276 0.58273 0.0
H560 H 0.72524 0.59908 0.54951 0.0
C561 C 0.63447 0.52472 0.84809 0.0
C562 C 0.63267 0.52593 0.87272 0.0
N563 N 0.61739 0.52361 0.87809 0.0
N564 N 0.62043 0.52163 0.8379 0.0
C565 C 0.61018 0.52103 0.85661 0.0
H566 H 0.64534 0.52593 0.8381 0.0
Co567 Co 0.61848 0.51973 0.80465 0.0
C568 C 0.58839 0.50231 0.79896 0.0
O569 O 0.59549 0.49181 0.78524 0.0
N570 N 0.61733 0.51882 0.77045 0.0
C571 C 0.60979 0.52408 0.73254 0.0
C572 C 0.60479 0.5201 0.75548 0.0
C573 C 0.62971 0.52248 0.75612 0.0
N574 N 0.62549 0.52585 0.73309 0.0
O575 O 0.61233 0.54133 0.8035 0.0
H576 H 0.59265 0.52013 0.7611 0.0
H577 H 0.64147 0.52424 0.76298 0.0
O578 O 0.59627 0.5138 0.80779 0.0
C579 C 0.62353 0.5511 0.8007 0.0
O580 O 0.63757 0.54557 0.79561 0.0
N581 N 0.62563 0.49854 0.80732 0.0
C582 C 0.64268 0.47293 0.82569 0.0
C583 C 0.62716 0.47564 0.83304 0.0
C584 C 0.61892 0.48856 0.82388 0.0
C585 C 0.64035 0.49538 0.79873 0.0
C586 C 0.64902 0.48253 0.80746 0.0
H587 H 0.60779 0.49136 0.83218 0.0
H588 H 0.6462 0.50368 0.78705 0.0
H589 H 0.59772 0.51884 0.85457 0.0
H590 H 0.64196 0.52801 0.88573 0.0
H591 H 0.6023 0.52722 0.71743 0.0
H592 H 0.62183 0.46854 0.84714 0.0
H593 H 0.66108 0.48104 0.80162 0.0
C594 C 0.73036 0.38176 0.10063 0.0
C595 C 0.72957 0.37953 0.12522 0.0
N596 N 0.73495 0.36494 0.13027 0.0
N597 N 0.73619 0.36867 0.09017 0.0
C598 C 0.73893 0.35857 0.10866 0.0
H599 H 0.72683 0.39223 0.09083 0.0
Co600 Co 0.73802 0.36738 0.05695 0.0
C601 C 0.75364 0.33651 0.04815 0.0
O602 O 0.76362 0.34331 0.03324 0.0
N603 N 0.73897 0.36683 0.02273 0.0
C604 C 0.73231 0.36027 0.98493 0.0
C605 C 0.73521 0.35469 0.00791 0.0
C606 C 0.73788 0.37968 0.00826 0.0
N607 N 0.73372 0.37607 0.98526 0.0
O608 O 0.71635 0.36162 0.05567 0.0
H609 H 0.73277 0.34278 0.0138 0.0
H610 H 0.73828 0.39161 0.01502 0.0
O611 O 0.74328 0.34486 0.05897 0.0
C612 C 0.70596 0.37151 0.04905 0.0
O613 O 0.71042 0.385 0.03958 0.0
N614 N 0.75923 0.37405 0.05994 0.0
C615 C 0.78632 0.38917 0.07747 0.0
C616 C 0.78392 0.37299 0.08122 0.0
C617 C 0.77018 0.36578 0.07296 0.0
C618 C 0.76169 0.38967 0.05527 0.0
C619 C 0.77519 0.39741 0.06359 0.0
H620 H 0.76787 0.35397 0.07915 0.0
H621 H 0.75246 0.39665 0.04732 0.0
H622 H 0.7435 0.34675 0.10636 0.0
H623 H 0.72553 0.38807 0.13842 0.0
H624 H 0.72769 0.35343 0.96997 0.0
H625 H 0.79211 0.36609 0.09188 0.0
H626 H 0.77618 0.41002 0.06088 0.0
C627 C 0.87232 0.49498 0.34664 0.0
C628 C 0.87388 0.49778 0.371 0.0
N629 N 0.88899 0.50139 0.37548 0.0
N630 N 0.88635 0.49693 0.33575 0.0
C631 C 0.89641 0.50072 0.35385 0.0
H632 H 0.8615 0.49233 0.33721 0.0
Co633 Co 0.88767 0.49639 0.3023 0.0
C634 C 0.92028 0.50637 0.29003 0.0
O635 O 0.91523 0.51483 0.27169 0.0
N636 N 0.88798 0.49555 0.2675 0.0
C637 C 0.88202 0.5012 0.22899 0.0
C638 C 0.88502 0.50736 0.25159 0.0
C639 C 0.88722 0.48239 0.25354 0.0
N640 N 0.88308 0.48539 0.23033 0.0
O641 O 0.89093 0.47421 0.30466 0.0
H642 H 0.88408 0.51971 0.25615 0.0
H643 H 0.8889 0.47061 0.26036 0.0
O644 O 0.91045 0.49915 0.30357 0.0
C645 C 0.87885 0.4654 0.30358 0.0
O646 O 0.86528 0.47156 0.29729 0.0
N647 N 0.8833 0.51805 0.30224 0.0
C648 C 0.86998 0.54616 0.31879 0.0
C649 C 0.88627 0.54362 0.32031 0.0
C650 C 0.89268 0.52936 0.3123 0.0
C651 C 0.86768 0.52083 0.29882 0.0
C652 C 0.86079 0.53484 0.30681 0.0
H653 H 0.90481 0.52696 0.31658 0.0
H654 H 0.86027 0.51149 0.2919 0.0
H655 H 0.90863 0.50378 0.35111 0.0
H656 H 0.86456 0.49756 0.38436 0.0
H657 H 0.87802 0.50782 0.2134 0.0
H658 H 0.89386 0.55206 0.32927 0.0
H659 H 0.84815 0.53606 0.30556 0.0
C660 C 0.76285 0.38294 0.40488 0.0
C661 C 0.76012 0.38118 0.38053 0.0
N662 N 0.76035 0.36567 0.37537 0.0
N663 N 0.76462 0.3686 0.41507 0.0
C664 C 0.76322 0.35824 0.39656 0.0
H665 H 0.76286 0.39394 0.41482 0.0
Co666 Co 0.76596 0.36633 0.44836 0.0
C667 C 0.77237 0.33277 0.45431 0.0
O668 O 0.78498 0.33681 0.46659 0.0
N669 N 0.76734 0.36474 0.48219 0.0
C670 C 0.76196 0.36053 0.52118 0.0
C671 C 0.75745 0.35737 0.49764 0.0
C672 C 0.77777 0.37216 0.49672 0.0
N673 N 0.77482 0.36978 0.52044 0.0
O674 O 0.78816 0.36404 0.44493 0.0
H675 H 0.74735 0.35048 0.49213 0.0
H676 H 0.78703 0.37975 0.49022 0.0
O677 O 0.76326 0.34345 0.44594 0.0
C678 C 0.79615 0.37667 0.44345 0.0
O679 O 0.78911 0.39025 0.44715 0.0
N680 N 0.74428 0.36981 0.45015 0.0
C681 C 0.71692 0.38352 0.43228 0.0
C682 C 0.72 0.36745 0.42843 0.0
C683 C 0.73377 0.36074 0.43766 0.0
C684 C 0.74056 0.38487 0.4566 0.0
C685 C 0.72684 0.39198 0.44791 0.0
H686 H 0.7368 0.34893 0.43203 0.0
H687 H 0.7492 0.39203 0.46589 0.0
H688 H 0.7634 0.34555 0.39871 0.0
H689 H 0.75776 0.39053 0.36766 0.0
H690 H 0.75619 0.35649 0.53753 0.0
H691 H 0.71254 0.36048 0.41665 0.0
H692 H 0.72496 0.40443 0.45122 0.0
C693 C 0.87077 0.51975 0.65449 0.0
C694 C 0.87186 0.52173 0.62985 0.0
N695 N 0.88707 0.52028 0.6234 0.0
N696 N 0.8852 0.51704 0.66358 0.0
C697 C 0.89496 0.51749 0.64424 0.0
H698 H 0.86015 0.5203 0.66524 0.0
Co699 Co 0.88841 0.51477 0.6966 0.0
C700 C 0.91892 0.49725 0.69748 0.0
O701 O 0.91261 0.48557 0.70975 0.0
N702 N 0.89092 0.51355 0.7306 0.0
C703 C 0.90017 0.51793 0.76781 0.0
C704 C 0.90407 0.514 0.74435 0.0
C705 C 0.87928 0.51741 0.74625 0.0
N706 N 0.88454 0.52028 0.76894 0.0
O707 O 0.89463 0.53637 0.69744 0.0
H708 H 0.91595 0.51328 0.73763 0.0
H709 H 0.86735 0.51975 0.7405 0.0
O710 O 0.91053 0.50913 0.6914 0.0
C711 C 0.88473 0.547 0.70303 0.0
O712 O 0.87096 0.54282 0.71157 0.0
N713 N 0.88139 0.49345 0.69426 0.0
C714 C 0.86485 0.46617 0.68036 0.0
C715 C 0.87888 0.47051 0.66875 0.0
C716 C 0.8869 0.4841 0.67589 0.0
C717 C 0.86814 0.48907 0.70647 0.0
C718 C 0.85987 0.47538 0.70012 0.0
H719 H 0.89691 0.48771 0.66523 0.0
H720 H 0.86314 0.49668 0.72004 0.0
H721 H 0.90756 0.51599 0.6454 0.0
H722 H 0.86216 0.52382 0.61757 0.0
H723 H 0.9084 0.52001 0.78242 0.0
H724 H 0.88314 0.46418 0.65303 0.0
H725 H 0.84924 0.47251 0.70995 0.0
C726 C 0.74178 0.6152 0.90255 0.0
C727 C 0.74092 0.61762 0.878 0.0
N728 N 0.73954 0.63322 0.87404 0.0
N729 N 0.74086 0.62919 0.91401 0.0
C730 C 0.73958 0.64004 0.89615 0.0
H731 H 0.74279 0.60392 0.91158 0.0
Co732 Co 0.74026 0.63061 0.94743 0.0
C733 C 0.73473 0.66432 0.95442 0.0
O734 O 0.72202 0.66053 0.96664 0.0
N735 N 0.73947 0.63135 0.98128 0.0
C736 C 0.74316 0.63621 0.02052 0.0
C737 C 0.74802 0.63981 0.99726 0.0
C738 C 0.72972 0.62262 0.99515 0.0
N739 N 0.73154 0.62543 0.01907 0.0
O740 O 0.718 0.63353 0.94535 0.0
H741 H 0.75715 0.64809 0.99232 0.0
H742 H 0.72157 0.6141 0.9879 0.0
O743 O 0.74361 0.65347 0.94598 0.0
C744 C 0.70993 0.62102 0.94269 0.0
O745 O 0.71717 0.60733 0.94348 0.0
N746 N 0.76181 0.62646 0.94816 0.0
C747 C 0.78945 0.6125 0.93139 0.0
C748 C 0.78662 0.62868 0.92781 0.0
C749 C 0.77265 0.63546 0.93624 0.0
C750 C 0.76509 0.61123 0.95413 0.0
C751 C 0.77887 0.60399 0.94594 0.0
H752 H 0.7699 0.6474 0.93088 0.0
H753 H 0.75617 0.60413 0.96287 0.0
H754 H 0.73826 0.65258 0.89923 0.0
H755 H 0.74131 0.60862 0.86408 0.0
H756 H 0.74764 0.64131 0.03713 0.0
H757 H 0.79457 0.63579 0.91705 0.0
H758 H 0.78039 0.59147 0.94905 0.0
C759 C 0.63218 0.48435 0.15065 0.0
C760 C 0.63088 0.48794 0.12648 0.0
N761 N 0.61581 0.49173 0.12192 0.0
N762 N 0.61804 0.48605 0.16131 0.0
C763 C 0.60818 0.49038 0.14327 0.0
H764 H 0.64287 0.48128 0.16016 0.0
Co765 Co 0.61604 0.48433 0.19453 0.0
C766 C 0.58505 0.49954 0.20496 0.0
O767 O 0.5914 0.50812 0.22224 0.0
N768 N 0.61483 0.4818 0.22855 0.0
C769 C 0.60727 0.47283 0.26475 0.0
C770 C 0.60229 0.47758 0.24218 0.0
C771 C 0.6273 0.47892 0.24316 0.0
N772 N 0.62305 0.47346 0.26523 0.0
O773 O 0.61015 0.46283 0.1904 0.0
H774 H 0.59041 0.47633 0.23557 0.0
H775 H 0.63935 0.47932 0.23705 0.0
O776 O 0.59366 0.49008 0.19271 0.0
C777 C 0.62073 0.4524 0.19327 0.0
O778 O 0.63443 0.45668 0.20207 0.0
N779 N 0.623 0.50555 0.19694 0.0
C780 C 0.63956 0.53257 0.18231 0.0
C781 C 0.62327 0.53142 0.17893 0.0
C782 C 0.61531 0.51772 0.18573 0.0
C783 C 0.63862 0.50701 0.2021 0.0
C784 C 0.64711 0.52041 0.19508 0.0
H785 H 0.60347 0.5164 0.17922 0.0
H786 H 0.64508 0.497 0.20886 0.0
H787 H 0.59592 0.49333 0.14589 0.0
H788 H 0.64033 0.48811 0.11333 0.0
H789 H 0.59996 0.46771 0.27876 0.0
H790 H 0.61685 0.54051 0.1693 0.0
H791 H 0.65972 0.52051 0.19765 0.0
C792 C 0.21956 0.37311 0.40325 0.0
C793 C 0.21965 0.37057 0.37866 0.0
N794 N 0.23087 0.35986 0.37372 0.0
N795 N 0.23053 0.36389 0.41376 0.0
C796 C 0.23733 0.35598 0.39525 0.0
H797 H 0.21192 0.38111 0.41294 0.0
Co798 Co 0.23339 0.36318 0.44698 0.0
C799 C 0.25138 0.33328 0.45538 0.0
O800 O 0.26067 0.34006 0.47131 0.0
N801 N 0.23539 0.36297 0.48094 0.0
C802 C 0.2296 0.35653 0.51906 0.0
C803 C 0.23212 0.35085 0.49604 0.0
C804 C 0.23453 0.37589 0.49526 0.0
N805 N 0.23082 0.37235 0.51847 0.0
O806 O 0.21255 0.35507 0.44982 0.0
H807 H 0.22979 0.33888 0.49032 0.0
H808 H 0.23483 0.38778 0.4883 0.0
O809 O 0.24084 0.34141 0.44458 0.0
C810 C 0.20138 0.36404 0.45655 0.0
O811 O 0.20489 0.3776 0.46673 0.0
N812 N 0.25357 0.37219 0.44273 0.0
C813 C 0.27852 0.39015 0.42429 0.0
C814 C 0.27885 0.37362 0.42329 0.0
C815 C 0.26619 0.36488 0.43223 0.0
C816 C 0.25334 0.38823 0.44459 0.0
C817 C 0.26575 0.39742 0.43582 0.0
H818 H 0.26617 0.35245 0.42848 0.0
H819 H 0.24283 0.39409 0.45085 0.0
H820 H 0.24664 0.3474 0.39742 0.0
H821 H 0.21229 0.37636 0.36535 0.0
H822 H 0.22535 0.3497 0.5343 0.0
H823 H 0.28841 0.36749 0.41437 0.0
H824 H 0.26474 0.41016 0.43636 0.0
C825 C 0.36887 0.48149 0.1518 0.0
C826 C 0.37036 0.48047 0.12709 0.0
N827 N 0.38571 0.48185 0.12144 0.0
N828 N 0.38318 0.48351 0.16173 0.0
C829 C 0.39327 0.48367 0.1428 0.0
H830 H 0.35803 0.48085 0.16201 0.0
Co831 Co 0.38574 0.48474 0.19494 0.0
C832 C 0.41618 0.50173 0.19978 0.0
O833 O 0.40947 0.51221 0.21399 0.0
N834 N 0.38752 0.48499 0.22911 0.0
C835 C 0.39561 0.48005 0.26683 0.0
C836 C 0.40028 0.4837 0.2436 0.0
C837 C 0.37534 0.48156 0.24398 0.0
N838 N 0.37986 0.47857 0.26701 0.0
O839 O 0.39149 0.463 0.1949 0.0
H840 H 0.41234 0.48378 0.23758 0.0
H841 H 0.36352 0.47961 0.2375 0.0
O842 O 0.408 0.49041 0.19108 0.0
C843 C 0.37992 0.4536 0.19712 0.0
O844 O 0.36605 0.45956 0.20215 0.0
N845 N 0.37889 0.5061 0.19357 0.0
C846 C 0.36173 0.53253 0.17813 0.0
C847 C 0.37682 0.52951 0.16899 0.0
C848 C 0.38513 0.51623 0.17679 0.0
C849 C 0.36466 0.50944 0.20375 0.0
C850 C 0.35602 0.52269 0.1966 0.0
H851 H 0.39586 0.51331 0.16737 0.0
H852 H 0.3591 0.50115 0.21572 0.0
H853 H 0.40587 0.48497 0.1446 0.0
H854 H 0.36085 0.47913 0.11423 0.0
H855 H 0.40334 0.47765 0.28195 0.0
H856 H 0.38164 0.5365 0.15434 0.0
H857 H 0.34449 0.52457 0.20438 0.0
C858 C 0.26276 0.62184 0.89912 0.0
C859 C 0.25984 0.6238 0.87484 0.0
N860 N 0.25906 0.63937 0.87024 0.0
N861 N 0.26361 0.6361 0.9098 0.0
C862 C 0.26152 0.64663 0.89167 0.0
H863 H 0.26359 0.61073 0.90867 0.0
Co864 Co 0.26518 0.63806 0.94308 0.0
C865 C 0.25207 0.66991 0.95304 0.0
O866 O 0.24303 0.66388 0.97 0.0
N867 N 0.26752 0.6393 0.97712 0.0
C868 C 0.27717 0.6467 0.01295 0.0
C869 C 0.27283 0.65169 0.99023 0.0
C870 C 0.26936 0.62682 0.99221 0.0
N871 N 0.27518 0.63098 0.01412 0.0
O872 O 0.28711 0.64195 0.93963 0.0
H873 H 0.27513 0.66334 0.98314 0.0
H874 H 0.26791 0.61473 0.98654 0.0
O875 O 0.26125 0.66089 0.94097 0.0
C876 C 0.29553 0.62963 0.94179 0.0
O877 O 0.28862 0.61634 0.9479 0.0
N878 N 0.24346 0.63297 0.94506 0.0
C879 C 0.21508 0.61867 0.9312 0.0
C880 C 0.21797 0.63464 0.92626 0.0
C881 C 0.23232 0.64141 0.9327 0.0
C882 C 0.24037 0.61774 0.95154 0.0
C883 C 0.22625 0.6104 0.94496 0.0
H884 H 0.23493 0.65284 0.92521 0.0
H885 H 0.24954 0.61054 0.95918 0.0
H886 H 0.26094 0.65928 0.89424 0.0
H887 H 0.25805 0.61451 0.86164 0.0
H888 H 0.28292 0.65384 0.0266 0.0
H889 H 0.20972 0.64158 0.91578 0.0
H890 H 0.22481 0.59795 0.94871 0.0
C891 C 0.13368 0.52376 0.65521 0.0
C892 C 0.13161 0.52447 0.63059 0.0
N893 N 0.11662 0.52054 0.62557 0.0
N894 N 0.12008 0.51947 0.66578 0.0
C895 C 0.10985 0.51749 0.64724 0.0
H896 H 0.14444 0.52623 0.66494 0.0
Co897 Co 0.11858 0.51807 0.6992 0.0
C898 C 0.0881 0.50152 0.70814 0.0
O899 O 0.09464 0.49196 0.72386 0.0
N900 N 0.11795 0.51717 0.73406 0.0
C901 C 0.12306 0.50977 0.7722 0.0
C902 C 0.12062 0.50468 0.74884 0.0
C903 C 0.11853 0.52967 0.74941 0.0
N904 N 0.12202 0.52559 0.77249 0.0
O905 O 0.11179 0.53952 0.69916 0.0
H906 H 0.12189 0.49258 0.74298 0.0
H907 H 0.11717 0.54174 0.7438 0.0
O908 O 0.09647 0.51169 0.69693 0.0
C909 C 0.12269 0.54978 0.69998 0.0
O910 O 0.13705 0.54524 0.70528 0.0
N911 N 0.12642 0.49745 0.6971 0.0
C912 C 0.14485 0.47222 0.68104 0.0
C913 C 0.12885 0.47323 0.67484 0.0
C914 C 0.11984 0.48599 0.68297 0.0
C915 C 0.1417 0.49627 0.70429 0.0
C916 C 0.151 0.48358 0.69696 0.0
H917 H 0.1081 0.4874 0.67588 0.0
H918 H 0.147 0.50579 0.71447 0.0
H919 H 0.09769 0.51409 0.64954 0.0
H920 H 0.14053 0.52741 0.61734 0.0
H921 H 0.12665 0.50245 0.78729 0.0
H922 H 0.12362 0.465 0.66219 0.0
H923 H 0.16318 0.48324 0.70262 0.0
C924 C 0.22662 0.62397 0.59956 0.0
C925 C 0.22562 0.62684 0.62396 0.0
N926 N 0.22952 0.64201 0.62794 0.0
N927 N 0.23104 0.63728 0.58812 0.0
C928 C 0.23282 0.64813 0.60588 0.0
H929 H 0.22433 0.61286 0.59063 0.0
Co930 Co 0.23306 0.63768 0.55477 0.0
C931 C 0.24862 0.66852 0.54484 0.0
O932 O 0.2595 0.6617 0.53161 0.0
N933 N 0.23465 0.63728 0.52008 0.0
C934 C 0.2425 0.63104 0.48261 0.0
C935 C 0.24731 0.63425 0.50593 0.0
C936 C 0.22242 0.63637 0.50439 0.0
N937 N 0.22673 0.63208 0.48174 0.0
O938 O 0.21135 0.64322 0.55332 0.0
H939 H 0.25928 0.63329 0.51226 0.0
H940 H 0.21036 0.63811 0.50954 0.0
O941 O 0.23806 0.6602 0.5552 0.0
C942 C 0.2018 0.63165 0.5531 0.0
O943 O 0.20729 0.61746 0.54861 0.0
N944 N 0.254 0.63105 0.55859 0.0
C945 C 0.27996 0.61495 0.57744 0.0
C946 C 0.27795 0.63116 0.58166 0.0
C947 C 0.26477 0.63894 0.5724 0.0
C948 C 0.25612 0.61546 0.55343 0.0
C949 C 0.26912 0.60723 0.56239 0.0
H950 H 0.2626 0.65088 0.57827 0.0
H951 H 0.24705 0.60909 0.54378 0.0
H952 H 0.23636 0.66022 0.60277 0.0
H953 H 0.22261 0.6183 0.63781 0.0
H954 H 0.24999 0.62698 0.46804 0.0
H955 H 0.28598 0.63759 0.59324 0.0
H956 H 0.26996 0.59467 0.55908 0.0
C957 C 0.13534 0.48868 0.35279 0.0
C958 C 0.13314 0.49193 0.3769 0.0
N959 N 0.11761 0.49333 0.38091 0.0
N960 N 0.12129 0.48817 0.34157 0.0
C961 C 0.1106 0.49092 0.35925 0.0
H962 H 0.14654 0.48738 0.34371 0.0
Co963 Co 0.12012 0.48633 0.3082 0.0
C964 C 0.08699 0.48107 0.29849 0.0
O965 O 0.0914 0.46882 0.28557 0.0
N966 N 0.11971 0.48451 0.27426 0.0
C967 C 0.11721 0.48965 0.23482 0.0
C968 C 0.11353 0.49466 0.25794 0.0
C969 C 0.12695 0.47343 0.26062 0.0
N970 N 0.12557 0.47623 0.23667 0.0
O971 O 0.11688 0.46418 0.31215 0.0
H972 H 0.10709 0.50524 0.26258 0.0
H973 H 0.13369 0.46376 0.26792 0.0
O974 O 0.09739 0.48965 0.30878 0.0
C975 C 0.12891 0.45538 0.31407 0.0
O976 O 0.14298 0.46155 0.31153 0.0
N977 N 0.12434 0.5079 0.30582 0.0
C978 C 0.13681 0.53709 0.31901 0.0
C979 C 0.12054 0.53425 0.32046 0.0
C980 C 0.11453 0.51948 0.31398 0.0
C981 C 0.13982 0.51096 0.30178 0.0
C982 C 0.14633 0.52548 0.30829 0.0
H983 H 0.10231 0.51704 0.31764 0.0
H984 H 0.14747 0.50152 0.29586 0.0
H985 H 0.09808 0.49195 0.35617 0.0
H986 H 0.14224 0.49349 0.3904 0.0
H987 H 0.11409 0.49545 0.218 0.0
H988 H 0.11267 0.54295 0.32813 0.0
H989 H 0.15894 0.52698 0.30696 0.0
C990 C 0.2784 0.38057 0.0999 0.0
C991 C 0.27891 0.37839 0.12456 0.0
N992 N 0.27399 0.36364 0.12941 0.0
N993 N 0.27324 0.36724 0.08924 0.0
C994 C 0.2707 0.35706 0.1077 0.0
H995 H 0.28141 0.39126 0.09028 0.0
Co996 Co 0.27131 0.36562 0.05587 0.0
C997 C 0.25518 0.33477 0.04937 0.0
O998 O 0.24454 0.34162 0.03566 0.0
N999 N 0.27039 0.36475 0.0216 0.0
C1000 C 0.27559 0.35769 0.98343 0.0
C1001 C 0.27226 0.35234 0.00644 0.0
C1002 C 0.27312 0.37744 0.00731 0.0
N1003 N 0.27636 0.37352 0.98411 0.0
O1004 O 0.29313 0.3604 0.05449 0.0
H1005 H 0.27305 0.34015 0.01191 0.0
H1006 H 0.27425 0.38929 0.01425 0.0
O1007 O 0.26629 0.34303 0.05849 0.0
C1008 C 0.30234 0.37205 0.05138 0.0
O1009 O 0.29619 0.38585 0.04615 0.0
N1010 N 0.24984 0.37191 0.05869 0.0
C1011 C 0.22239 0.38727 0.07461 0.0
C1012 C 0.22622 0.37206 0.08281 0.0
C1013 C 0.23991 0.36464 0.07469 0.0
C1014 C 0.24596 0.38641 0.04974 0.0
C1015 C 0.23219 0.3941 0.05699 0.0
H1016 H 0.24305 0.35358 0.08301 0.0
H1017 H 0.25406 0.39277 0.03845 0.0
H1018 H 0.26638 0.34515 0.1054 0.0
H1019 H 0.28207 0.38717 0.13797 0.0
H1020 H 0.27889 0.35043 0.9681 0.0
H1021 H 0.2194 0.3663 0.0968 0.0
H1022 H 0.22975 0.40571 0.04974 0.0
C1023 C 0.37115 0.51768 0.8468 0.0
C1024 C 0.37208 0.51478 0.87121 0.0
N1025 N 0.38722 0.51194 0.8768 0.0
N1026 N 0.3856 0.51652 0.83699 0.0
C1027 C 0.39526 0.51323 0.85579 0.0
H1028 H 0.36052 0.51975 0.83653 0.0
Co1029 Co 0.38825 0.51701 0.80372 0.0
C1030 C 0.41917 0.50159 0.79611 0.0
O1031 O 0.41265 0.4921 0.78015 0.0
N1032 N 0.39013 0.51835 0.76961 0.0
C1033 C 0.3985 0.52634 0.73332 0.0
C1034 C 0.40297 0.52204 0.75632 0.0
C1035 C 0.37798 0.52103 0.75426 0.0
N1036 N 0.3827 0.52594 0.73209 0.0
O1037 O 0.39327 0.53888 0.80604 0.0
H1038 H 0.41476 0.52327 0.76329 0.0
H1039 H 0.36587 0.52128 0.76007 0.0
O1040 O 0.41073 0.5119 0.80697 0.0
C1041 C 0.38147 0.54791 0.80319 0.0
O1042 O 0.36802 0.54157 0.79669 0.0
N1043 N 0.38199 0.49549 0.80291 0.0
C1044 C 0.36529 0.46923 0.81977 0.0
C1045 C 0.38117 0.47124 0.82559 0.0
C1046 C 0.38924 0.48449 0.81728 0.0
C1047 C 0.36691 0.49295 0.79539 0.0
C1048 C 0.35838 0.4798 0.8034 0.0
H1049 H 0.40062 0.48672 0.82512 0.0
H1050 H 0.36066 0.50203 0.78576 0.0
H1051 H 0.40768 0.51076 0.85395 0.0
H1052 H 0.36233 0.51428 0.88381 0.0
H1053 H 0.40628 0.53058 0.71926 0.0
H1054 H 0.38693 0.46338 0.83828 0.0
H1055 H 0.34603 0.47888 0.79885 0.0
C1056 C 0.13066 0.04656 0.22431 0.0
C1057 C 0.13156 0.03017 0.22139 0.0
C1058 C 0.138 0.05666 0.20778 0.0
C1059 C 0.15888 0.0571 0.14746 0.0
H1060 H 0.17453 0.09687 0.17213 0.0
C1061 C 0.19432 0.09922 0.08564 0.0
C1062 C 0.20635 0.10805 0.09646 0.0
C1063 C 0.18351 0.09097 0.10002 0.0
C1064 C 0.17049 0.08572 0.16489 0.0
H1065 H 0.1408 0.01134 0.19922 0.0
H1066 H 0.15454 0.02876 0.17114 0.0
H1067 H 0.15984 0.07968 0.19858 0.0
H1068 H 0.21677 0.11516 0.13048 0.0
H1069 H 0.19864 0.10021 0.15558 0.0
H1070 H 0.1707 0.06255 0.11439 0.0
C1071 C 0.14761 0.03405 0.18544 0.0
C1072 C 0.16167 0.07591 0.18005 0.0
C1073 C 0.13985 0.02399 0.20161 0.0
C1074 C 0.20738 0.10863 0.1218 0.0
C1075 C 0.19687 0.10009 0.13616 0.0
C1076 C 0.16808 0.06672 0.13249 0.0
C1077 C 0.14688 0.05059 0.1883 0.0
C1078 C 0.15577 0.06137 0.17167 0.0
C1079 C 0.1848 0.091 0.12554 0.0
C1080 C 0.17415 0.08115 0.14101 0.0
H1081 H 0.12416 0.05153 0.23938 0.0
H1082 H 0.13667 0.06924 0.2104 0.0
H1083 H 0.15432 0.04623 0.13995 0.0
H1084 H 0.19338 0.09859 0.06608 0.0
H1085 H 0.17424 0.08448 0.09103 0.0
C1086 C 0.15118 0.93082 0.31546 0.0
C1087 C 0.13862 0.93919 0.32598 0.0
C1088 C 0.15974 0.91981 0.32905 0.0
C1089 C 0.15986 0.89694 0.38684 0.0
H1090 H 0.20496 0.90309 0.3837 0.0
C1091 C 0.20151 0.88038 0.46529 0.0
C1092 C 0.21694 0.87548 0.46006 0.0
C1093 C 0.19132 0.88498 0.44669 0.0
C1094 C 0.19242 0.90093 0.38454 0.0
H1095 H 0.12496 0.94198 0.35898 0.0
H1096 H 0.13964 0.92275 0.38233 0.0
H1097 H 0.18803 0.91643 0.35468 0.0
H1098 H 0.23339 0.87072 0.431 0.0
H1099 H 0.21557 0.87861 0.39848 0.0
H1100 H 0.16425 0.88175 0.41713 0.0
C1101 C 0.14281 0.92455 0.36351 0.0
C1102 C 0.18269 0.90861 0.36784 0.0
C1103 C 0.13431 0.93558 0.35 0.0
C1104 C 0.22167 0.87464 0.43567 0.0
C1105 C 0.21146 0.8792 0.41704 0.0
C1106 C 0.1696 0.88922 0.40351 0.0
C1107 C 0.15591 0.91686 0.35345 0.0
C1108 C 0.16626 0.90699 0.36911 0.0
C1109 C 0.19626 0.88476 0.42235 0.0
C1110 C 0.18599 0.8914 0.40292 0.0
H1111 H 0.15471 0.93313 0.29694 0.0
H1112 H 0.16962 0.9139 0.32064 0.0
H1113 H 0.14726 0.89525 0.3881 0.0
H1114 H 0.19751 0.88144 0.48384 0.0
H1115 H 0.1798 0.8894 0.45156 0.0
C1116 C 0.30106 0.89432 0.61093 0.0
C1117 C 0.29822 0.89866 0.58671 0.0
C1118 C 0.31084 0.90346 0.62568 0.0
C1119 C 0.34157 0.93444 0.62484 0.0
H1120 H 0.32691 0.94245 0.69028 0.0
C1121 C 0.38055 0.96312 0.69851 0.0
C1122 C 0.37357 0.97369 0.71502 0.0
C1123 C 0.37142 0.95486 0.6817 0.0
C1124 C 0.3311 0.94047 0.67199 0.0
H1125 H 0.30399 0.91568 0.55876 0.0
H1126 H 0.32102 0.93169 0.58455 0.0
H1127 H 0.31139 0.92585 0.66329 0.0
H1128 H 0.35144 0.98422 0.72591 0.0
H1129 H 0.33549 0.96972 0.6966 0.0
H1130 H 0.36121 0.94922 0.6335 0.0
C1131 C 0.31572 0.92117 0.59211 0.0
C1132 C 0.32231 0.93076 0.65661 0.0
C1133 C 0.30588 0.91205 0.57736 0.0
C1134 C 0.35721 0.97604 0.71377 0.0
C1135 C 0.34806 0.96771 0.69697 0.0
C1136 C 0.3504 0.94412 0.64026 0.0
C1137 C 0.31805 0.91718 0.61661 0.0
C1138 C 0.32747 0.92755 0.63288 0.0
C1139 C 0.35504 0.95687 0.68092 0.0
C1140 C 0.3453 0.9472 0.66407 0.0
H1141 H 0.29518 0.88422 0.61886 0.0
H1142 H 0.31256 0.89991 0.64436 0.0
H1143 H 0.34592 0.93217 0.60672 0.0
H1144 H 0.39301 0.96071 0.69902 0.0
H1145 H 0.37718 0.94645 0.66988 0.0
C1146 C 0.35899 0.05377 0.8584 0.0
C1147 C 0.35583 0.04979 0.83407 0.0
C1148 C 0.34999 0.06504 0.8705 0.0
C1149 C 0.31098 0.08229 0.87293 0.0
H1150 H 0.33121 0.11288 0.91489 0.0
C1151 C 0.27507 0.12175 0.93868 0.0
C1152 C 0.28122 0.12295 0.9623 0.0
C1153 C 0.28416 0.11549 0.91977 0.0
C1154 C 0.32534 0.10438 0.90337 0.0
H1155 H 0.34049 0.0548 0.80358 0.0
H1156 H 0.32439 0.07423 0.8252 0.0
H1157 H 0.34709 0.09683 0.8876 0.0
H1158 H 0.30193 0.11855 0.98429 0.0
H1159 H 0.3176 0.10774 0.95171 0.0
H1160 H 0.2893 0.08928 0.8895 0.0
C1161 C 0.33405 0.06861 0.83463 0.0
C1162 C 0.33445 0.09523 0.88765 0.0
C1163 C 0.34325 0.05744 0.8223 0.0
C1164 C 0.29684 0.11818 0.96633 0.0
C1165 C 0.30588 0.11192 0.94752 0.0
C1166 C 0.30185 0.09137 0.88883 0.0
C1167 C 0.33737 0.07252 0.85887 0.0
C1168 C 0.32743 0.0838 0.87272 0.0
C1169 C 0.29962 0.11026 0.92405 0.0
C1170 C 0.30897 0.10223 0.90475 0.0
H1171 H 0.36813 0.04783 0.86854 0.0
H1172 H 0.35262 0.06752 0.88934 0.0
H1173 H 0.30525 0.0735 0.86175 0.0
H1174 H 0.26315 0.12544 0.93488 0.0
H1175 H 0.27902 0.1146 0.90187 0.0
C1176 C 0.18915 0.89525 0.90785 0.0
C1177 C 0.20279 0.90248 0.91717 0.0
C1178 C 0.17808 0.90402 0.89479 0.0
C1179 C 0.16227 0.94321 0.88315 0.0
H1180 H 0.15767 0.92968 0.81642 0.0
C1181 C 0.1345 0.98363 0.81023 0.0
C1182 C 0.12722 0.97671 0.79005 0.0
C1183 C 0.14208 0.97422 0.82751 0.0
C1184 C 0.15841 0.9335 0.8351 0.0
H1185 H 0.21491 0.92499 0.92059 0.0
H1186 H 0.19519 0.94023 0.89898 0.0
H1187 H 0.17298 0.91379 0.84447 0.0
H1188 H 0.12134 0.95467 0.77263 0.0
H1189 H 0.13367 0.93812 0.80335 0.0
H1190 H 0.14744 0.96271 0.87418 0.0
C1191 C 0.19325 0.92772 0.90167 0.0
C1192 C 0.16731 0.92439 0.85113 0.0
C1193 C 0.20451 0.91892 0.91424 0.0
C1194 C 0.12707 0.96023 0.78793 0.0
C1195 C 0.13428 0.9508 0.80548 0.0
C1196 C 0.15304 0.95217 0.86726 0.0
C1197 C 0.18017 0.92028 0.89129 0.0
C1198 C 0.1695 0.92926 0.87518 0.0
C1199 C 0.14223 0.95764 0.82529 0.0
C1200 C 0.15117 0.94759 0.84285 0.0
H1201 H 0.18714 0.88273 0.91014 0.0
H1202 H 0.16798 0.89805 0.88708 0.0
H1203 H 0.16377 0.94717 0.90168 0.0
H1204 H 0.13487 0.99634 0.81207 0.0
H1205 H 0.14825 0.98005 0.84214 0.0
C1206 C 0.29592 0.8847 0.03214 0.0
C1207 C 0.28196 0.87628 0.03662 0.0
C1208 C 0.30501 0.89044 0.05127 0.0
C1209 C 0.30176 0.90237 0.11531 0.0
H1210 H 0.34701 0.90628 0.10951 0.0
C1211 C 0.33709 0.94921 0.16732 0.0
C1212 C 0.35267 0.94608 0.17432 0.0
C1213 C 0.32849 0.93818 0.15398 0.0
C1214 C 0.33442 0.90508 0.11172 0.0
H1215 H 0.26699 0.86685 0.06489 0.0
H1216 H 0.28297 0.87681 0.09842 0.0
H1217 H 0.33248 0.89094 0.07973 0.0
H1218 H 0.37118 0.92851 0.17366 0.0
H1219 H 0.3561 0.90912 0.15051 0.0
H1220 H 0.30372 0.9165 0.14733 0.0
C1221 C 0.28672 0.87915 0.08001 0.0
C1222 C 0.32604 0.89644 0.09441 0.0
C1223 C 0.27757 0.87341 0.06081 0.0
C1224 C 0.35925 0.93136 0.16837 0.0
C1225 C 0.35062 0.92027 0.15504 0.0
C1226 C 0.31015 0.91096 0.13269 0.0
C1227 C 0.30046 0.88793 0.07547 0.0
C1228 C 0.30956 0.89532 0.09561 0.0
C1229 C 0.33522 0.92367 0.14728 0.0
C1230 C 0.32655 0.91277 0.13077 0.0
H1231 H 0.29955 0.88747 0.01384 0.0
H1232 H 0.31531 0.89742 0.04699 0.0
H1233 H 0.28908 0.90186 0.11679 0.0
H1234 H 0.33172 0.96054 0.17107 0.0
H1235 H 0.31681 0.94138 0.14797 0.0
C1236 C 0.2948 0.08325 0.41829 0.0
C1237 C 0.29696 0.09968 0.41998 0.0
C1238 C 0.30532 0.07388 0.40518 0.0
C1239 C 0.34442 0.07401 0.37378 0.0
H1240 H 0.32513 0.04038 0.33656 0.0
C1241 C 0.37398 0.04178 0.29214 0.0
C1242 C 0.37233 0.02528 0.29146 0.0
C1243 C 0.36615 0.05072 0.30978 0.0
C1244 C 0.33073 0.04962 0.34702 0.0
H1245 H 0.31267 0.11886 0.41028 0.0
H1246 H 0.33049 0.10269 0.38645 0.0
H1247 H 0.3091 0.05607 0.36386 0.0
H1248 H 0.36125 0.00524 0.30897 0.0
H1249 H 0.34758 0.0208 0.33955 0.0
H1250 H 0.36598 0.06776 0.35591 0.0
C1251 C 0.32077 0.09697 0.39558 0.0
C1252 C 0.32155 0.0586 0.36284 0.0
C1253 C 0.31037 0.10632 0.40903 0.0
C1254 C 0.36294 0.01789 0.30911 0.0
C1255 C 0.35497 0.02682 0.32651 0.0
C1256 C 0.35357 0.06512 0.35764 0.0
C1257 C 0.31818 0.08066 0.39297 0.0
C1258 C 0.32824 0.0709 0.37656 0.0
C1259 C 0.35632 0.04334 0.32685 0.0
C1260 C 0.34681 0.0528 0.34416 0.0
H1261 H 0.2846 0.0776 0.42615 0.0
H1262 H 0.30311 0.06132 0.40419 0.0
H1263 H 0.35007 0.08322 0.3842 0.0
H1264 H 0.3812 0.04777 0.27886 0.0
H1265 H 0.36735 0.06344 0.30954 0.0
C1266 C 0.13774 0.06111 0.64857 0.0
C1267 C 0.1404 0.06041 0.67371 0.0
C1268 C 0.14724 0.07037 0.63364 0.0
C1269 C 0.18686 0.0885 0.63163 0.0
H1270 H 0.17058 0.10703 0.57246 0.0
C1271 C 0.22407 0.12578 0.56331 0.0
C1272 C 0.22207 0.12182 0.53875 0.0
C1273 C 0.21449 0.11901 0.58117 0.0
C1274 C 0.17531 0.10186 0.58888 0.0
H1275 H 0.15482 0.06943 0.70296 0.0
H1276 H 0.17124 0.086 0.67691 0.0
H1277 H 0.15249 0.09531 0.60155 0.0
H1278 H 0.2084 0.10763 0.51372 0.0
H1279 H 0.19175 0.09586 0.54477 0.0
H1280 H 0.20972 0.09529 0.61881 0.0
C1281 C 0.16196 0.07909 0.66869 0.0
C1282 C 0.16495 0.0951 0.60556 0.0
C1283 C 0.15248 0.06969 0.68366 0.0
C1284 C 0.21046 0.11075 0.53248 0.0
C1285 C 0.20076 0.10416 0.55024 0.0
C1286 C 0.19723 0.09546 0.61502 0.0
C1287 C 0.15967 0.0793 0.64339 0.0
C1288 C 0.17059 0.08802 0.62694 0.0
C1289 C 0.20253 0.10836 0.57473 0.0
C1290 C 0.19157 0.10192 0.59324 0.0
H1291 H 0.12883 0.0538 0.64016 0.0
H1292 H 0.14526 0.06991 0.61427 0.0
H1293 H 0.1917 0.08301 0.6477 0.0
H1294 H 0.23291 0.1343 0.5686 0.0
H1295 H 0.21609 0.12248 0.59991 0.0
C1296 C 0.87688 0.96035 0.80465 0.0
C1297 C 0.87103 0.97334 0.79156 0.0
C1298 C 0.86762 0.95274 0.82198 0.0
C1299 C 0.82609 0.94682 0.83994 0.0
H1300 H 0.84488 0.92852 0.89753 0.0
C1301 C 0.78869 0.91571 0.91284 0.0
C1302 C 0.79413 0.90092 0.92086 0.0
C1303 C 0.79832 0.92558 0.89902 0.0
C1304 C 0.83948 0.93349 0.88146 0.0
H1305 H 0.85092 0.98868 0.7869 0.0
H1306 H 0.83475 0.97554 0.81753 0.0
H1307 H 0.86098 0.94429 0.87009 0.0
H1308 H 0.81419 0.88518 0.92123 0.0
H1309 H 0.83109 0.90249 0.89708 0.0
H1310 H 0.80459 0.93601 0.85137 0.0
C1311 C 0.84645 0.97107 0.81405 0.0
C1312 C 0.84871 0.94252 0.86568 0.0
C1313 C 0.85572 0.97866 0.79655 0.0
C1314 C 0.80964 0.89648 0.91532 0.0
C1315 C 0.81934 0.90643 0.9016 0.0
C1316 C 0.81685 0.93789 0.85581 0.0
C1317 C 0.85224 0.9579 0.82685 0.0
C1318 C 0.84218 0.94917 0.84454 0.0
C1319 C 0.81368 0.92098 0.89291 0.0
C1320 C 0.82346 0.931 0.87665 0.0
H1321 H 0.88845 0.95566 0.80097 0.0
H1322 H 0.8724 0.94246 0.83101 0.0
H1323 H 0.82068 0.95149 0.82367 0.0
H1324 H 0.77673 0.91943 0.91639 0.0
H1325 H 0.79366 0.93677 0.89284 0.0
C1326 C 0.79177 0.11291 0.53469 0.0
C1327 C 0.77802 0.12158 0.53979 0.0
C1328 C 0.80068 0.10625 0.5533 0.0
C1329 C 0.79834 0.09128 0.61543 0.0
H1330 H 0.84381 0.09251 0.61099 0.0
C1331 C 0.83957 0.05777 0.68288 0.0
C1332 C 0.852 0.04951 0.67177 0.0
C1333 C 0.83047 0.06854 0.66952 0.0
C1334 C 0.83112 0.092 0.61249 0.0
H1335 H 0.76316 0.13002 0.56908 0.0
H1336 H 0.77867 0.11805 0.60155 0.0
H1337 H 0.82803 0.1078 0.58261 0.0
H1338 H 0.86404 0.04574 0.63751 0.0
H1339 H 0.8485 0.06443 0.61469 0.0
H1340 H 0.80149 0.07503 0.64489 0.0
C1341 C 0.78243 0.1165 0.58294 0.0
C1342 C 0.82208 0.10078 0.59622 0.0
C1343 C 0.77354 0.12335 0.56426 0.0
C1344 C 0.85499 0.05224 0.64702 0.0
C1345 C 0.846 0.06297 0.63382 0.0
C1346 C 0.80742 0.08241 0.63173 0.0
C1347 C 0.79613 0.10789 0.57763 0.0
C1348 C 0.80559 0.1002 0.59705 0.0
C1349 C 0.83363 0.07129 0.64482 0.0
C1350 C 0.82392 0.08232 0.62999 0.0
H1351 H 0.7956 0.11084 0.5163 0.0
H1352 H 0.811 0.09943 0.54852 0.0
H1353 H 0.78565 0.09054 0.61648 0.0
H1354 H 0.83692 0.05596 0.70187 0.0
H1355 H 0.82103 0.07479 0.67856 0.0
C1356 C 0.68576 0.10826 0.40925 0.0
C1357 C 0.69928 0.10159 0.41987 0.0
C1358 C 0.67552 0.09903 0.39528 0.0
C1359 C 0.67581 0.06185 0.35985 0.0
H1360 H 0.63073 0.06813 0.35612 0.0
C1361 C 0.637 0.0199 0.30468 0.0
C1362 C 0.62631 0.02693 0.2885 0.0
C1363 C 0.64439 0.02884 0.32263 0.0
C1364 C 0.64332 0.06631 0.35692 0.0
H1365 H 0.7121 0.0796 0.42457 0.0
H1366 H 0.69397 0.06357 0.40158 0.0
H1367 H 0.64636 0.08396 0.3844 0.0
H1368 H 0.61433 0.04875 0.2796 0.0
H1369 H 0.62735 0.06443 0.31096 0.0
H1370 H 0.67284 0.04423 0.33252 0.0
C1371 C 0.69148 0.07605 0.40342 0.0
C1372 C 0.65229 0.07539 0.37307 0.0
C1373 C 0.70178 0.08527 0.4171 0.0
C1374 C 0.62264 0.043 0.29154 0.0
C1375 C 0.63 0.05196 0.30964 0.0
C1376 C 0.66687 0.05273 0.34393 0.0
C1377 C 0.67847 0.08285 0.3917 0.0
C1378 C 0.66867 0.07323 0.37481 0.0
C1379 C 0.64127 0.04505 0.32498 0.0
C1380 C 0.65052 0.0548 0.3423 0.0
H1381 H 0.68327 0.12072 0.41122 0.0
H1382 H 0.66563 0.10471 0.38653 0.0
H1383 H 0.68842 0.06012 0.36009 0.0
H1384 H 0.64026 0.00762 0.30287 0.0
H1385 H 0.65285 0.02312 0.33439 0.0
C1386 C 0.70876 0.86847 0.05085 0.0
C1387 C 0.72038 0.87511 0.03583 0.0
C1388 C 0.70071 0.87779 0.06771 0.0
C1389 C 0.68948 0.91915 0.07781 0.0
H1390 H 0.67621 0.90432 0.1411 0.0
C1391 C 0.64256 0.95223 0.13248 0.0
C1392 C 0.64547 0.95471 0.15729 0.0
C1393 C 0.65182 0.94181 0.11906 0.0
C1394 C 0.67991 0.90866 0.12354 0.0
H1395 H 0.73329 0.89652 0.0279 0.0
H1396 H 0.71928 0.91277 0.05731 0.0
H1397 H 0.69321 0.88773 0.11596 0.0
H1398 H 0.6601 0.94766 0.1876 0.0
H1399 H 0.67642 0.9295 0.16403 0.0
H1400 H 0.67634 0.94008 0.08531 0.0
C1401 C 0.71617 0.90042 0.05569 0.0
C1402 C 0.68954 0.89911 0.10906 0.0
C1403 C 0.72421 0.89112 0.03885 0.0
C1404 C 0.65761 0.94611 0.1685 0.0
C1405 C 0.66688 0.93562 0.15504 0.0
C1406 C 0.67984 0.92864 0.09219 0.0
C1407 C 0.70408 0.89396 0.06996 0.0
C1408 C 0.6944 0.90424 0.08598 0.0
C1409 C 0.66428 0.93359 0.13005 0.0
C1410 C 0.67483 0.92347 0.11515 0.0
H1411 H 0.70536 0.85624 0.04889 0.0
H1412 H 0.69137 0.87245 0.07824 0.0
H1413 H 0.69282 0.9234 0.06002 0.0
H1414 H 0.63349 0.9588 0.12311 0.0
H1415 H 0.64934 0.94034 0.09993 0.0
C1416 C 0.80768 0.09144 0.08012 0.0
C1417 C 0.79959 0.10404 0.09108 0.0
C1418 C 0.81772 0.08183 0.09379 0.0
C1419 C 0.82394 0.06901 0.15685 0.0
H1420 H 0.8643 0.05399 0.13378 0.0
C1421 C 0.85973 0.02387 0.2116 0.0
C1422 C 0.87576 0.02735 0.21469 0.0
C1423 C 0.85074 0.03201 0.19445 0.0
C1424 C 0.85306 0.05811 0.14047 0.0
H1425 H 0.79593 0.11649 0.12501 0.0
H1426 H 0.81364 0.10004 0.14856 0.0
H1427 H 0.8485 0.07143 0.10815 0.0
H1428 H 0.89498 0.04183 0.20148 0.0
H1429 H 0.87934 0.05595 0.17163 0.0
H1430 H 0.82855 0.05606 0.18932 0.0
C1431 C 0.81211 0.09747 0.12946 0.0
C1432 C 0.84397 0.068 0.12573 0.0
C1433 C 0.80214 0.10707 0.11584 0.0
C1434 C 0.88273 0.03869 0.19947 0.0
C1435 C 0.87374 0.04682 0.18231 0.0
C1436 C 0.83297 0.05912 0.17151 0.0
C1437 C 0.81979 0.08456 0.11874 0.0
C1438 C 0.82938 0.07369 0.13388 0.0
C1439 C 0.85757 0.04381 0.17996 0.0
C1440 C 0.84769 0.05363 0.1636 0.0
H1441 H 0.80604 0.08884 0.06106 0.0
H1442 H 0.82344 0.07195 0.08502 0.0
H1443 H 0.81265 0.073 0.16354 0.0
H1444 H 0.85406 0.01501 0.2227 0.0
H1445 H 0.83837 0.02919 0.19277 0.0
C1446 C 0.64518 0.06446 0.84102 0.0
C1447 C 0.65173 0.05065 0.83103 0.0
C1448 C 0.65434 0.07471 0.85507 0.0
C1449 C 0.6908 0.07397 0.89185 0.0
H1450 H 0.68506 0.11931 0.8951 0.0
C1451 C 0.73282 0.11286 0.94646 0.0
C1452 C 0.7259 0.12352 0.96285 0.0
C1453 C 0.72379 0.10544 0.92869 0.0
C1454 C 0.68671 0.10664 0.89442 0.0
H1455 H 0.67345 0.03735 0.82734 0.0
H1456 H 0.68942 0.05553 0.85039 0.0
H1457 H 0.66951 0.10375 0.86634 0.0
H1458 H 0.70418 0.13531 0.97249 0.0
H1459 H 0.68833 0.12226 0.94126 0.0
H1460 H 0.70804 0.07683 0.91968 0.0
C1461 C 0.67707 0.05822 0.84808 0.0
C1462 C 0.6778 0.09772 0.87801 0.0
C1463 C 0.6679 0.04789 0.83435 0.0
C1464 C 0.70982 0.12705 0.96031 0.0
C1465 C 0.70078 0.11968 0.94233 0.0
C1466 C 0.69977 0.08287 0.90798 0.0
C1467 C 0.67033 0.07148 0.8593 0.0
C1468 C 0.67979 0.08125 0.87644 0.0
C1469 C 0.70762 0.10852 0.92671 0.0
C1470 C 0.69789 0.0993 0.90941 0.0
H1471 H 0.63285 0.06718 0.83855 0.0
H1472 H 0.64872 0.0848 0.86341 0.0
H1473 H 0.69237 0.06129 0.89177 0.0
H1474 H 0.74509 0.1097 0.94795 0.0
H1475 H 0.72943 0.09703 0.91673 0.0
C1476 C 0.62658 0.95873 0.70777 0.0
C1477 C 0.62847 0.9752 0.70909 0.0
C1478 C 0.63387 0.95002 0.68933 0.0
C1479 C 0.66832 0.95171 0.64969 0.0
H1480 H 0.64833 0.91767 0.6143 0.0
C1481 C 0.7027 0.91801 0.57683 0.0
C1482 C 0.70101 0.9015 0.5763 0.0
C1483 C 0.69224 0.9274 0.59003 0.0
C1484 C 0.65415 0.92704 0.62416 0.0
H1485 H 0.63934 0.9954 0.69168 0.0
H1486 H 0.65195 0.98026 0.65964 0.0
H1487 H 0.63308 0.93304 0.64355 0.0
H1488 H 0.68611 0.88213 0.58791 0.0
H1489 H 0.66834 0.89839 0.61175 0.0
H1490 H 0.68947 0.94551 0.63126 0.0
C1491 C 0.64485 0.97408 0.67289 0.0
C1492 C 0.64538 0.93586 0.64089 0.0
C1493 C 0.63747 0.98278 0.69114 0.0
C1494 C 0.68801 0.89476 0.58826 0.0
C1495 C 0.67766 0.90414 0.60174 0.0
C1496 C 0.6771 0.94282 0.63323 0.0
C1497 C 0.64335 0.95758 0.67198 0.0
C1498 C 0.65238 0.9483 0.65381 0.0
C1499 C 0.6799 0.92056 0.60338 0.0
C1500 C 0.67017 0.93036 0.62019 0.0
H1501 H 0.61963 0.95256 0.72119 0.0
H1502 H 0.63255 0.93731 0.68918 0.0
H1503 H 0.67414 0.96102 0.6597 0.0
H1504 H 0.71257 0.92373 0.56811 0.0
H1505 H 0.69413 0.94003 0.59029 0.0
C1506 C 0.77675 0.87688 0.43709 0.0
C1507 C 0.77854 0.8814 0.46147 0.0
C1508 C 0.78551 0.88425 0.41879 0.0
C1509 C 0.82232 0.90642 0.40974 0.0
H1510 H 0.8036 0.91982 0.34904 0.0
C1511 C 0.85988 0.93521 0.33513 0.0
C1512 C 0.85381 0.94944 0.3259 0.0
C1513 C 0.85036 0.92504 0.34869 0.0
C1514 C 0.809 0.9161 0.36588 0.0
H1515 H 0.79099 0.89728 0.48563 0.0
H1516 H 0.80601 0.9102 0.45385 0.0
H1517 H 0.78744 0.90634 0.37934 0.0
H1518 H 0.83269 0.96372 0.32302 0.0
H1519 H 0.81616 0.94592 0.34625 0.0
H1520 H 0.84375 0.9165 0.39671 0.0
C1521 C 0.79791 0.9009 0.44885 0.0
C1522 C 0.79977 0.90829 0.38315 0.0
C1523 C 0.78911 0.89363 0.46706 0.0
C1524 C 0.83776 0.95276 0.32941 0.0
C1525 C 0.82824 0.94256 0.34286 0.0
C1526 C 0.83155 0.91411 0.39246 0.0
C1527 C 0.79636 0.89619 0.42454 0.0
C1528 C 0.80627 0.90361 0.40546 0.0
C1529 C 0.83453 0.92881 0.35326 0.0
C1530 C 0.82497 0.91925 0.37045 0.0
H1531 H 0.76866 0.86755 0.43221 0.0
H1532 H 0.78408 0.88033 0.40024 0.0
H1533 H 0.82774 0.90276 0.4266 0.0
H1534 H 0.87212 0.93216 0.33249 0.0
H1535 H 0.85549 0.91439 0.35611 0.0
C1536 C 0.63181 0.53167 0.69017 0.0
C1537 C 0.63491 0.53372 0.715 0.0
C1538 C 0.64032 0.54012 0.6727 0.0
C1539 C 0.67675 0.56427 0.66518 0.0
H1540 H 0.65531 0.5807 0.60848 0.0
C1541 C 0.70342 0.61362 0.60743 0.0
C1542 C 0.70424 0.61099 0.58229 0.0
C1543 C 0.69431 0.6039 0.62224 0.0
C1544 C 0.66146 0.57608 0.62414 0.0
H1545 H 0.64916 0.54657 0.74092 0.0
H1546 H 0.66373 0.56138 0.71081 0.0
H1547 H 0.64107 0.56382 0.63699 0.0
H1548 H 0.69565 0.59639 0.55289 0.0
H1549 H 0.67936 0.57948 0.57891 0.0
H1550 H 0.69696 0.57693 0.65271 0.0
C1551 C 0.65512 0.5529 0.7046 0.0
C1552 C 0.65334 0.56634 0.64044 0.0
C1553 C 0.64673 0.54437 0.72197 0.0
C1554 C 0.69521 0.59873 0.57218 0.0
C1555 C 0.68589 0.58909 0.58704 0.0
C1556 C 0.68475 0.57413 0.64909 0.0
C1557 C 0.65204 0.55094 0.6797 0.0
C1558 C 0.66084 0.56046 0.66137 0.0
C1559 C 0.68567 0.59135 0.61229 0.0
C1560 C 0.67716 0.5803 0.62857 0.0
H1561 H 0.62278 0.52352 0.68431 0.0
H1562 H 0.63774 0.53812 0.65373 0.0
H1563 H 0.68307 0.55967 0.68068 0.0
H1564 H 0.71045 0.62274 0.61591 0.0
H1565 H 0.69425 0.60601 0.64161 0.0
C1566 C 0.66347 0.45169 0.82813 0.0
C1567 C 0.65289 0.46198 0.8397 0.0
C1568 C 0.67368 0.44222 0.84184 0.0
C1569 C 0.69329 0.44099 0.901 0.0
H1570 H 0.69635 0.39577 0.89168 0.0
C1571 C 0.71958 0.40049 0.97397 0.0
C1572 C 0.72761 0.3867 0.96711 0.0
C1573 C 0.71219 0.40992 0.95662 0.0
C1574 C 0.69591 0.40843 0.89427 0.0
H1575 H 0.64491 0.47056 0.87465 0.0
H1576 H 0.66266 0.45417 0.89837 0.0
H1577 H 0.68009 0.41152 0.86429 0.0
H1578 H 0.73458 0.37231 0.93654 0.0
H1579 H 0.72197 0.38901 0.90602 0.0
H1580 H 0.70908 0.43809 0.93079 0.0
C1581 C 0.66303 0.45333 0.87878 0.0
C1582 C 0.68653 0.41742 0.87859 0.0
C1583 C 0.65272 0.46257 0.86517 0.0
C1584 C 0.72842 0.38282 0.94236 0.0
C1585 C 0.72111 0.39235 0.92492 0.0
C1586 C 0.70278 0.43207 0.91646 0.0
C1587 C 0.6737 0.44314 0.8673 0.0
C1588 C 0.68485 0.43374 0.88217 0.0
C1589 C 0.71271 0.40593 0.93186 0.0
C1590 C 0.70394 0.4156 0.9137 0.0
H1591 H 0.66388 0.45102 0.80853 0.0
H1592 H 0.68182 0.43448 0.83254 0.0
H1593 H 0.69243 0.4536 0.90393 0.0
H1594 H 0.71837 0.40366 0.99287 0.0
H1595 H 0.70558 0.42006 0.96281 0.0
C1596 C 0.87098 0.45955 0.22052 0.0
C1597 C 0.87701 0.4742 0.21284 0.0
C1598 C 0.86306 0.44967 0.20436 0.0
C1599 C 0.85478 0.44167 0.13944 0.0
H1600 H 0.81618 0.4242 0.16545 0.0
C1601 C 0.80671 0.41086 0.08043 0.0
C1602 C 0.79902 0.39776 0.09073 0.0
C1603 C 0.81749 0.41972 0.09404 0.0
C1604 C 0.82702 0.42877 0.15793 0.0
H1605 H 0.8802 0.48933 0.18152 0.0
H1606 H 0.8661 0.47215 0.15336 0.0
H1607 H 0.83296 0.44014 0.19124 0.0
H1608 H 0.79692 0.38372 0.12354 0.0
H1609 H 0.81594 0.39871 0.14668 0.0
H1610 H 0.84866 0.43029 0.10597 0.0
C1611 C 0.86758 0.46835 0.17197 0.0
C1612 C 0.83667 0.43794 0.17277 0.0
C1613 C 0.87555 0.47827 0.18818 0.0
C1614 C 0.80274 0.39352 0.11472 0.0
C1615 C 0.8135 0.40231 0.12822 0.0
C1616 C 0.84509 0.43244 0.12452 0.0
C1617 C 0.86085 0.45413 0.18005 0.0
C1618 C 0.85073 0.44441 0.16382 0.0
C1619 C 0.82079 0.41571 0.11827 0.0
C1620 C 0.83114 0.42577 0.13367 0.0
H1621 H 0.87167 0.45593 0.23928 0.0
H1622 H 0.8583 0.43866 0.2111 0.0
H1623 H 0.86556 0.44645 0.13201 0.0
H1624 H 0.80424 0.4144 0.06196 0.0
H1625 H 0.82284 0.43 0.08582 0.0
C1626 C 0.80345 0.62376 0.47379 0.0
C1627 C 0.78829 0.62927 0.46828 0.0
C1628 C 0.81268 0.61653 0.45609 0.0
C1629 C 0.81779 0.6108 0.39009 0.0
H1630 H 0.83917 0.57272 0.41086 0.0
C1631 C 0.84852 0.56645 0.32451 0.0
C1632 C 0.8623 0.55903 0.33291 0.0
C1633 C 0.83999 0.57661 0.33962 0.0
C1634 C 0.8335 0.58346 0.4048 0.0
H1635 H 0.77116 0.63201 0.43952 0.0
H1636 H 0.78733 0.61927 0.40841 0.0
H1637 H 0.82323 0.58733 0.43962 0.0
H1638 H 0.87813 0.55709 0.36367 0.0
H1639 H 0.86367 0.57513 0.38943 0.0
H1640 H 0.82809 0.60675 0.35511 0.0
C1641 C 0.79207 0.62065 0.42651 0.0
C1642 C 0.82432 0.59183 0.42131 0.0
C1643 C 0.78281 0.62793 0.44431 0.0
C1644 C 0.86774 0.5627 0.35633 0.0
C1645 C 0.85927 0.57287 0.37133 0.0
C1646 C 0.82705 0.60238 0.37349 0.0
C1647 C 0.807 0.61459 0.43235 0.0
C1648 C 0.81645 0.60567 0.41427 0.0
C1649 C 0.84505 0.57957 0.36347 0.0
C1650 C 0.83512 0.58868 0.38074 0.0
H1651 H 0.80821 0.62497 0.49189 0.0
H1652 H 0.82427 0.61236 0.46106 0.0
H1653 H 0.81194 0.62146 0.38414 0.0
H1654 H 0.84407 0.56403 0.30649 0.0
H1655 H 0.82907 0.58157 0.33299 0.0
C1656 C 0.64621 0.45735 0.27618 0.0
C1657 C 0.63301 0.46618 0.2832 0.0
C1658 C 0.65505 0.44909 0.29338 0.0
C1659 C 0.6528 0.43323 0.35649 0.0
H1660 H 0.69745 0.42678 0.3466 0.0
C1661 C 0.69528 0.40357 0.42653 0.0
C1662 C 0.70536 0.39204 0.41683 0.0
C1663 C 0.68579 0.41275 0.41122 0.0
C1664 C 0.68496 0.42843 0.34954 0.0
H1665 H 0.61897 0.47364 0.3138 0.0
H1666 H 0.63473 0.45974 0.3441 0.0
H1667 H 0.68281 0.44338 0.31855 0.0
H1668 H 0.71343 0.38116 0.38347 0.0
H1669 H 0.69701 0.39719 0.35692 0.0
H1670 H 0.65523 0.41848 0.38795 0.0
C1671 C 0.63804 0.45878 0.32521 0.0
C1672 C 0.67652 0.4379 0.33338 0.0
C1673 C 0.62906 0.46686 0.30791 0.0
C1674 C 0.70558 0.38974 0.39158 0.0
C1675 C 0.69633 0.39905 0.37632 0.0
C1676 C 0.66133 0.42394 0.37289 0.0
C1677 C 0.65107 0.4496 0.31817 0.0
C1678 C 0.66025 0.44026 0.33636 0.0
C1679 C 0.68648 0.41079 0.38592 0.0
C1680 C 0.67746 0.42126 0.36936 0.0
H1681 H 0.64936 0.4563 0.25723 0.0
H1682 H 0.66475 0.44192 0.28705 0.0
H1683 H 0.64027 0.43453 0.3593 0.0
H1684 H 0.69493 0.40565 0.4459 0.0
H1685 H 0.67834 0.42176 0.4191 0.0
C1686 C 0.83826 0.45452 0.67057 0.0
C1687 C 0.85477 0.45331 0.67009 0.0
C1688 C 0.82884 0.44363 0.65823 0.0
C1689 C 0.8301 0.40515 0.62413 0.0
H1690 H 0.79302 0.4224 0.593 0.0
C1691 C 0.7996 0.37832 0.53957 0.0
C1692 C 0.78317 0.37673 0.54048 0.0
C1693 C 0.80771 0.38601 0.5582 0.0
C1694 C 0.80324 0.41737 0.60181 0.0
H1695 H 0.87411 0.43881 0.65731 0.0
H1696 H 0.85788 0.42055 0.63466 0.0
H1697 H 0.80831 0.43886 0.62034 0.0
H1698 H 0.76235 0.38182 0.56159 0.0
H1699 H 0.77651 0.39572 0.59399 0.0
H1700 H 0.82536 0.38393 0.60415 0.0
C1701 C 0.85209 0.42973 0.64497 0.0
C1702 C 0.81201 0.42677 0.61767 0.0
C1703 C 0.86149 0.44044 0.65773 0.0
C1704 C 0.77502 0.38279 0.56058 0.0
C1705 C 0.78309 0.39079 0.57898 0.0
C1706 C 0.82149 0.39586 0.60786 0.0
C1707 C 0.83562 0.43134 0.64459 0.0
C1708 C 0.82567 0.42087 0.62896 0.0
C1709 C 0.79951 0.39255 0.57788 0.0
C1710 C 0.80804 0.40193 0.59643 0.0
H1711 H 0.83251 0.46427 0.67961 0.0
H1712 H 0.81622 0.4451 0.65901 0.0
H1713 H 0.8403 0.39998 0.63277 0.0
H1714 H 0.80615 0.37369 0.52431 0.0
H1715 H 0.82035 0.38729 0.55682 0.0
C1716 C 0.85939 0.52583 0.78998 0.0
C1717 C 0.87578 0.52773 0.78831 0.0
C1718 C 0.85067 0.53427 0.80715 0.0
C1719 C 0.85397 0.55811 0.86371 0.0
H1720 H 0.81474 0.5762 0.84125 0.0
C1721 C 0.80986 0.59097 0.92692 0.0
C1722 C 0.8018 0.60402 0.91718 0.0
C1723 C 0.81973 0.58173 0.91232 0.0
C1724 C 0.82573 0.57136 0.8478 0.0
H1725 H 0.89581 0.53988 0.80399 0.0
H1726 H 0.88064 0.55453 0.83381 0.0
H1727 H 0.83 0.55951 0.81421 0.0
H1728 H 0.79825 0.61772 0.88436 0.0
H1729 H 0.81573 0.60202 0.85932 0.0
H1730 H 0.84979 0.57031 0.89717 0.0
C1731 C 0.87453 0.54636 0.82203 0.0
C1732 C 0.83439 0.56158 0.83237 0.0
C1733 C 0.88326 0.53791 0.80487 0.0
C1734 C 0.80438 0.60794 0.8927 0.0
C1735 C 0.81423 0.59874 0.87816 0.0
C1736 C 0.84527 0.56791 0.87919 0.0
C1737 C 0.85808 0.54487 0.82313 0.0
C1738 C 0.84865 0.55485 0.84006 0.0
C1739 C 0.82176 0.5853 0.88759 0.0
C1740 C 0.83108 0.57475 0.87137 0.0
H1741 H 0.85328 0.51792 0.7778 0.0
H1742 H 0.83806 0.53257 0.80778 0.0
H1743 H 0.86483 0.55303 0.87032 0.0
H1744 H 0.80826 0.58766 0.94572 0.0
H1745 H 0.8253 0.57146 0.9202 0.0
C1746 C 0.66266 0.5514 0.17955 0.0
C1747 C 0.64883 0.54504 0.1695 0.0
C1748 C 0.67188 0.56211 0.16633 0.0
C1749 C 0.67045 0.58929 0.11359 0.0
H1750 H 0.71532 0.58188 0.10912 0.0
C1751 C 0.70715 0.61311 0.03438 0.0
C1752 C 0.72255 0.61846 0.03857 0.0
C1753 C 0.69851 0.60589 0.05282 0.0
C1754 C 0.70286 0.58431 0.11047 0.0
H1755 H 0.63415 0.54488 0.13723 0.0
H1756 H 0.64989 0.56362 0.11473 0.0
H1757 H 0.6995 0.56633 0.13737 0.0
H1758 H 0.74086 0.62054 0.06569 0.0
H1759 H 0.72566 0.60801 0.09813 0.0
H1760 H 0.67368 0.60703 0.08648 0.0
C1761 C 0.65351 0.56058 0.13297 0.0
C1762 C 0.69378 0.57539 0.12668 0.0
C1763 C 0.6444 0.54984 0.14603 0.0
C1764 C 0.72901 0.61662 0.06188 0.0
C1765 C 0.72035 0.60932 0.0804 0.0
C1766 C 0.6795 0.59821 0.09749 0.0
C1767 C 0.66742 0.56677 0.14283 0.0
C1768 C 0.67741 0.57752 0.12798 0.0
C1769 C 0.70498 0.60383 0.07606 0.0
C1770 C 0.69576 0.59557 0.09525 0.0
H1771 H 0.66642 0.54806 0.19759 0.0
H1772 H 0.6825 0.56674 0.17449 0.0
H1773 H 0.65791 0.59145 0.11449 0.0
H1774 H 0.70168 0.61453 0.0168 0.0
H1775 H 0.68681 0.60165 0.04867 0.0
C1776 C 0.3538 0.47493 0.28623 0.0
C1777 C 0.37011 0.47218 0.28611 0.0
C1778 C 0.34408 0.46746 0.30315 0.0
C1779 C 0.3438 0.44562 0.36146 0.0
H1780 H 0.30608 0.42654 0.33506 0.0
C1781 C 0.29627 0.41387 0.42015 0.0
C1782 C 0.29027 0.39969 0.41066 0.0
C1783 C 0.3064 0.42332 0.40631 0.0
C1784 C 0.31659 0.43175 0.34272 0.0
H1785 H 0.38896 0.45972 0.3045 0.0
H1786 H 0.37203 0.44683 0.33404 0.0
H1787 H 0.32288 0.44241 0.30895 0.0
H1788 H 0.2902 0.3844 0.37909 0.0
H1789 H 0.30792 0.4007 0.35524 0.0
H1790 H 0.33756 0.43465 0.39519 0.0
C1791 C 0.36678 0.45485 0.32108 0.0
C1792 C 0.32613 0.44101 0.32781 0.0
C1793 C 0.37651 0.46228 0.30409 0.0
C1794 C 0.29478 0.3951 0.38716 0.0
C1795 C 0.30478 0.40456 0.37333 0.0
C1796 C 0.33416 0.43642 0.37646 0.0
C1797 C 0.35042 0.4571 0.32049 0.0
C1798 C 0.33992 0.44796 0.33692 0.0
C1799 C 0.31057 0.41887 0.38259 0.0
C1800 C 0.32055 0.42922 0.36716 0.0
H1801 H 0.3485 0.48272 0.27301 0.0
H1802 H 0.33155 0.46968 0.30249 0.0
H1803 H 0.35428 0.45091 0.36907 0.0
H1804 H 0.29305 0.41771 0.4382 0.0
H1805 H 0.31061 0.43431 0.41392 0.0
C1806 C 0.35736 0.55845 0.1565 0.0
C1807 C 0.35128 0.54432 0.16607 0.0
C1808 C 0.34792 0.56841 0.14239 0.0
C1809 C 0.3123 0.56696 0.10391 0.0
H1810 H 0.31645 0.61249 0.10399 0.0
C1811 C 0.28757 0.60584 0.02683 0.0
C1812 C 0.2814 0.62074 0.03273 0.0
C1813 C 0.29496 0.5966 0.04449 0.0
C1814 C 0.31499 0.5998 0.1039 0.0
H1815 H 0.33022 0.52992 0.16868 0.0
H1816 H 0.31374 0.54749 0.14502 0.0
H1817 H 0.33123 0.59682 0.13325 0.0
H1818 H 0.27766 0.63733 0.06203 0.0
H1819 H 0.29038 0.62113 0.09296 0.0
H1820 H 0.29594 0.56991 0.07481 0.0
C1821 C 0.3259 0.55074 0.148 0.0
C1822 C 0.32363 0.5908 0.12051 0.0
C1823 C 0.33533 0.54077 0.16198 0.0
C1824 C 0.28244 0.62598 0.05687 0.0
C1825 C 0.28979 0.61672 0.07456 0.0
C1826 C 0.30365 0.57595 0.08736 0.0
C1827 C 0.33215 0.5645 0.13753 0.0
C1828 C 0.32248 0.57424 0.12063 0.0
C1829 C 0.29634 0.60199 0.06853 0.0
C1830 C 0.30497 0.59248 0.08698 0.0
H1831 H 0.36953 0.56166 0.15945 0.0
H1832 H 0.35317 0.57886 0.13454 0.0
H1833 H 0.31125 0.55424 0.1032 0.0
H1834 H 0.28728 0.60154 0.00837 0.0
H1835 H 0.30007 0.58545 0.03906 0.0
C1836 C 0.19399 0.59757 0.93034 0.0
C1837 C 0.20182 0.61023 0.91905 0.0
C1838 C 0.18257 0.58886 0.91776 0.0
C1839 C 0.15665 0.59016 0.8635 0.0
H1840 H 0.16025 0.54458 0.86465 0.0
C1841 C 0.13323 0.55102 0.78652 0.0
C1842 C 0.12712 0.53597 0.79181 0.0
C1843 C 0.13975 0.56038 0.80477 0.0
C1844 C 0.15885 0.55727 0.86444 0.0
H1845 H 0.20375 0.62341 0.88537 0.0
H1846 H 0.18382 0.60857 0.86392 0.0
H1847 H 0.17631 0.56044 0.89202 0.0
H1848 H 0.12252 0.51939 0.8209 0.0
H1849 H 0.13397 0.53578 0.85279 0.0
H1850 H 0.13949 0.58705 0.83555 0.0
C1851 C 0.18627 0.60551 0.88261 0.0
C1852 C 0.16808 0.56637 0.88015 0.0
C1853 C 0.1977 0.6141 0.89505 0.0
C1854 C 0.12728 0.5308 0.81608 0.0
C1855 C 0.13387 0.54019 0.83436 0.0
C1856 C 0.14742 0.58108 0.84785 0.0
C1857 C 0.17866 0.59268 0.89367 0.0
C1858 C 0.16738 0.58294 0.87942 0.0
C1859 C 0.14039 0.55501 0.82886 0.0
C1860 C 0.14868 0.56453 0.84767 0.0
H1861 H 0.19677 0.59429 0.94882 0.0
H1862 H 0.17684 0.57911 0.92685 0.0
H1863 H 0.15561 0.60289 0.8628 0.0
H1864 H 0.13366 0.55538 0.76812 0.0
H1865 H 0.1449 0.5716 0.79974 0.0
C1866 C 0.1502 0.44564 0.66186 0.0
C1867 C 0.15547 0.46075 0.66859 0.0
C1868 C 0.15971 0.43567 0.64787 0.0
C1869 C 0.19311 0.43774 0.60489 0.0
H1870 H 0.19313 0.39222 0.61145 0.0
C1871 C 0.21718 0.39701 0.53011 0.0
C1872 C 0.22494 0.38302 0.53676 0.0
C1873 C 0.20999 0.40649 0.54759 0.0
C1874 C 0.19343 0.40493 0.60955 0.0
H1875 H 0.17518 0.47699 0.66605 0.0
H1876 H 0.19185 0.45947 0.64285 0.0
H1877 H 0.17835 0.40827 0.64025 0.0
H1878 H 0.23163 0.36832 0.56717 0.0
H1879 H 0.21923 0.38501 0.59787 0.0
H1880 H 0.20835 0.43448 0.57449 0.0
C1881 C 0.18024 0.4554 0.64791 0.0
C1882 C 0.18477 0.41413 0.62589 0.0
C1883 C 0.17072 0.46538 0.66167 0.0
C1884 C 0.22566 0.37897 0.56146 0.0
C1885 C 0.21848 0.38849 0.57902 0.0
C1886 C 0.20179 0.42858 0.58866 0.0
C1887 C 0.17476 0.44056 0.64034 0.0
C1888 C 0.18441 0.43066 0.62366 0.0
C1889 C 0.21038 0.40228 0.57226 0.0
C1890 C 0.20194 0.41204 0.59059 0.0
H1891 H 0.13861 0.44158 0.66703 0.0
H1892 H 0.15505 0.42436 0.64227 0.0
H1893 H 0.19297 0.45041 0.60233 0.0
H1894 H 0.21604 0.40036 0.51126 0.0
H1895 H 0.20362 0.41685 0.54162 0.0
C1896 C 0.37883 0.54426 0.69749 0.0
C1897 C 0.37289 0.53268 0.71334 0.0
C1898 C 0.36901 0.55181 0.68082 0.0
C1899 C 0.32747 0.56208 0.67165 0.0
H1900 H 0.34141 0.57419 0.60732 0.0
C1901 C 0.29454 0.60883 0.61584 0.0
C1902 C 0.29199 0.60576 0.59109 0.0
C1903 C 0.30467 0.59936 0.62947 0.0
C1904 C 0.3373 0.5708 0.62516 0.0
H1905 H 0.35199 0.51949 0.72307 0.0
H1906 H 0.33481 0.53273 0.69404 0.0
H1907 H 0.35829 0.5577 0.63272 0.0
H1908 H 0.29849 0.59052 0.56115 0.0
H1909 H 0.31616 0.57389 0.58506 0.0
H1910 H 0.3065 0.57511 0.66414 0.0
C1911 C 0.34707 0.53611 0.69483 0.0
C1912 C 0.34702 0.56146 0.63979 0.0
C1913 C 0.35692 0.52852 0.71147 0.0
C1914 C 0.30013 0.59317 0.58019 0.0
C1915 C 0.31033 0.5837 0.59385 0.0
C1916 C 0.3178 0.57145 0.65708 0.0
C1917 C 0.35295 0.54803 0.67955 0.0
C1918 C 0.34227 0.55709 0.6633 0.0
C1919 C 0.31252 0.58655 0.61875 0.0
C1920 C 0.32266 0.57607 0.63376 0.0
H1921 H 0.39096 0.548 0.6985 0.0
H1922 H 0.37389 0.56107 0.66958 0.0
H1923 H 0.3235 0.55908 0.68973 0.0
H1924 H 0.28831 0.61825 0.62498 0.0
H1925 H 0.30626 0.60203 0.64852 0.0
C1926 C 0.22204 0.62423 0.43884 0.0
C1927 C 0.21651 0.62623 0.46273 0.0
C1928 C 0.21274 0.61671 0.42129 0.0
C1929 C 0.18038 0.58791 0.41793 0.0
H1930 H 0.17764 0.59982 0.35019 0.0
C1931 C 0.13823 0.55548 0.35462 0.0
C1932 C 0.14409 0.55076 0.33189 0.0
C1933 C 0.14633 0.56645 0.36875 0.0
C1934 C 0.17838 0.5963 0.36902 0.0
H1935 H 0.19632 0.62227 0.48622 0.0
H1936 H 0.18023 0.6098 0.45578 0.0
H1937 H 0.19335 0.61582 0.37821 0.0
H1938 H 0.16268 0.55478 0.30568 0.0
H1939 H 0.17704 0.57371 0.3307 0.0
H1940 H 0.1657 0.56834 0.40897 0.0
C1941 C 0.19188 0.61374 0.4507 0.0
C1942 C 0.18738 0.60545 0.38506 0.0
C1943 C 0.20113 0.62117 0.46818 0.0
C1944 C 0.15791 0.55797 0.3232 0.0
C1945 C 0.16608 0.56894 0.33746 0.0
C1946 C 0.17145 0.5788 0.402 0.0
C1947 C 0.1977 0.61102 0.42724 0.0
C1948 C 0.18837 0.60141 0.40976 0.0
C1949 C 0.16061 0.57295 0.36073 0.0
C1950 C 0.17021 0.58292 0.37738 0.0
H1951 H 0.2337 0.62813 0.43382 0.0
H1952 H 0.21758 0.6148 0.40337 0.0
H1953 H 0.1812 0.58419 0.43667 0.0
H1954 H 0.12778 0.5501 0.36219 0.0
H1955 H 0.1416 0.5695 0.38637 0.0
C1956 C 0.13269 0.45062 0.21863 0.0
C1957 C 0.13258 0.46715 0.21745 0.0
C1958 C 0.14033 0.44172 0.20083 0.0
C1959 C 0.15969 0.4448 0.13963 0.0
H1960 H 0.17981 0.40608 0.16056 0.0
C1961 C 0.21088 0.41295 0.08968 0.0
C1962 C 0.20945 0.3965 0.08639 0.0
C1963 C 0.19974 0.42137 0.10311 0.0
C1964 C 0.17411 0.41678 0.1544 0.0
H1965 H 0.14027 0.48738 0.19678 0.0
H1966 H 0.1543 0.47202 0.16627 0.0
H1967 H 0.1642 0.42117 0.18925 0.0
H1968 H 0.19441 0.37635 0.09384 0.0
H1969 H 0.17545 0.391 0.11826 0.0
H1970 H 0.17058 0.44066 0.10507 0.0
C1971 C 0.14804 0.46576 0.18038 0.0
C1972 C 0.16504 0.42545 0.17081 0.0
C1973 C 0.14006 0.47463 0.19792 0.0
C1974 C 0.19621 0.38888 0.09634 0.0
C1975 C 0.18525 0.39727 0.11022 0.0
C1976 C 0.16906 0.43627 0.12337 0.0
C1977 C 0.14843 0.44914 0.18167 0.0
C1978 C 0.15769 0.43963 0.16374 0.0
C1979 C 0.18704 0.41355 0.114 0.0
C1980 C 0.17637 0.4222 0.13063 0.0
H1981 H 0.12683 0.44458 0.23338 0.0
H1982 H 0.1399 0.42899 0.20224 0.0
H1983 H 0.15402 0.45544 0.13321 0.0
H1984 H 0.22098 0.41931 0.08288 0.0
H1985 H 0.20147 0.43389 0.10596 0.0
C1986 C 0.28098 0.38017 0.94093 0.0
C1987 C 0.283 0.38362 0.96567 0.0
C1988 C 0.28821 0.38948 0.92312 0.0
C1989 C 0.30799 0.42838 0.9144 0.0
H1990 H 0.32734 0.40809 0.85888 0.0
C1991 C 0.35679 0.45804 0.85952 0.0
C1992 C 0.35542 0.45817 0.83411 0.0
C1993 C 0.3468 0.4488 0.87366 0.0
C1994 C 0.32183 0.41392 0.87415 0.0
H1995 H 0.29452 0.3994 0.99102 0.0
H1996 H 0.30715 0.4154 0.9603 0.0
H1997 H 0.31169 0.39242 0.88727 0.0
H1998 H 0.34258 0.44854 0.80361 0.0
H1999 H 0.32516 0.43198 0.82854 0.0
H2000 H 0.31863 0.44974 0.90178 0.0
C2001 C 0.29963 0.40583 0.95445 0.0
C2002 C 0.31282 0.40498 0.89039 0.0
C2003 C 0.29234 0.39662 0.97217 0.0
C2004 C 0.34394 0.44861 0.82313 0.0
C2005 C 0.33403 0.43914 0.83736 0.0
C2006 C 0.31711 0.43724 0.89836 0.0
C2007 C 0.29771 0.40239 0.92967 0.0
C2008 C 0.30604 0.41204 0.91102 0.0
C2009 C 0.33523 0.43935 0.8628 0.0
C2010 C 0.32437 0.43007 0.87832 0.0
H2011 H 0.2738 0.37027 0.93539 0.0
H2012 H 0.28632 0.38657 0.90423 0.0
H2013 H 0.30263 0.43433 0.92967 0.0
H2014 H 0.36531 0.46549 0.8686 0.0
H2015 H 0.3481 0.4491 0.89319 0.0
C2016 C 0.24699 0.14694 0.34255 0.0
C2017 C 0.23295 0.13997 0.35037 0.0
C2018 C 0.24909 0.15083 0.31812 0.0
C2019 C 0.23294 0.14022 0.25751 0.0
H2020 H 0.26296 0.17157 0.23568 0.0
C2021 C 0.24818 0.14801 0.1565 0.0
C2022 C 0.26418 0.14505 0.15224 0.0
C2023 C 0.24285 0.15111 0.18002 0.0
C2024 C 0.25444 0.16288 0.24156 0.0
H2025 H 0.20968 0.13259 0.33957 0.0
H2026 H 0.21283 0.14022 0.29719 0.0
H2027 H 0.25573 0.1704 0.27851 0.0
H2028 H 0.28725 0.14393 0.16856 0.0
H2029 H 0.27803 0.14984 0.20964 0.0
H2030 H 0.23164 0.13283 0.22045 0.0
C2031 C 0.22259 0.14204 0.30946 0.0
C2032 C 0.25038 0.16207 0.26613 0.0
C2033 C 0.22068 0.13779 0.33375 0.0
C2034 C 0.27488 0.14622 0.17152 0.0
C2035 C 0.26961 0.14965 0.19491 0.0
C2036 C 0.23674 0.14127 0.23294 0.0
C2037 C 0.23702 0.14813 0.30108 0.0
C2038 C 0.23989 0.15044 0.27458 0.0
C2039 C 0.2535 0.15164 0.1995 0.0
C2040 C 0.2478 0.15234 0.22483 0.0
H2041 H 0.25664 0.14857 0.35511 0.0
H2042 H 0.26045 0.15525 0.3125 0.0
H2043 H 0.22508 0.13087 0.26313 0.0
H2044 H 0.23973 0.14698 0.14191 0.0
H2045 H 0.23036 0.15258 0.18315 0.0
C2046 C 0.10145 0.98336 0.41447 0.0
C2047 C 0.10531 0.9976 0.40309 0.0
C2048 C 0.09606 0.98327 0.43837 0.0
C2049 C 0.0849 0.00977 0.49038 0.0
H2050 H 0.10426 0.97636 0.528 0.0
C2051 C 0.10745 0.01576 0.58797 0.0
C2052 C 0.10541 0.00312 0.60409 0.0
C2053 C 0.10205 0.01471 0.56415 0.0
C2054 C 0.09847 0.98559 0.51776 0.0
H2055 H 0.10618 0.0229 0.40686 0.0
H2056 H 0.09754 0.02293 0.44909 0.0
H2057 H 0.10485 0.97506 0.48415 0.0
H2058 H 0.09557 0.97978 0.60854 0.0
H2059 H 0.08645 0.97767 0.56636 0.0
H2060 H 0.07975 0.02084 0.52447 0.0
C2061 C 0.09803 0.01178 0.43957 0.0
C2062 C 0.09874 0.98485 0.4925 0.0
C2063 C 0.10306 0.01184 0.41542 0.0
C2064 C 0.09719 0.98968 0.59638 0.0
C2065 C 0.09204 0.98847 0.57234 0.0
C2066 C 0.08489 0.01063 0.51572 0.0
C2067 C 0.09492 0.99743 0.45163 0.0
C2068 C 0.09234 0.99714 0.4784 0.0
C2069 C 0.09475 1.00086 0.55589 0.0
C2070 C 0.09202 0.99872 0.52959 0.0
H2071 H 0.10312 0.97228 0.40503 0.0
H2072 H 0.09336 0.97203 0.44671 0.0
H2073 H 0.07952 0.01927 0.48023 0.0
H2074 H 0.11368 0.02627 0.59366 0.0
H2075 H 0.10444 0.02436 0.55181 0.0
C2076 C 0.24152 0.84768 0.65756 0.0
C2077 C 0.24781 0.86162 0.64787 0.0
C2078 C 0.24565 0.84285 0.68103 0.0
C2079 C 0.27476 0.84904 0.73008 0.0
H2080 H 0.23926 0.84584 0.77386 0.0
C2081 C 0.27756 0.87005 0.82791 0.0
C2082 C 0.26839 0.86289 0.84597 0.0
C2083 C 0.27682 0.86484 0.80397 0.0
C2084 C 0.24935 0.84627 0.76192 0.0
H2085 H 0.26395 0.88089 0.65401 0.0
H2086 H 0.27145 0.87239 0.69466 0.0
H2087 H 0.23486 0.84544 0.73016 0.0
H2088 H 0.25181 0.84413 0.85338 0.0
H2089 H 0.25049 0.83489 0.81126 0.0
H2090 H 0.28921 0.85051 0.76174 0.0
C2091 C 0.26328 0.8652 0.68442 0.0
C2092 C 0.24682 0.84606 0.73685 0.0
C2093 C 0.25893 0.87015 0.66128 0.0
C2094 C 0.25902 0.84984 0.8398 0.0
C2095 C 0.25819 0.84465 0.81569 0.0
C2096 C 0.27731 0.84915 0.7551 0.0
C2097 C 0.25641 0.85172 0.69481 0.0
C2098 C 0.25943 0.84813 0.72073 0.0
C2099 C 0.26686 0.85231 0.79742 0.0
C2100 C 0.26457 0.8485 0.77132 0.0
H2101 H 0.23288 0.84101 0.64743 0.0
H2102 H 0.2402 0.83241 0.68863 0.0
H2103 H 0.28473 0.85042 0.71803 0.0
H2104 H 0.28505 0.87999 0.83221 0.0
H2105 H 0.28352 0.87117 0.79041 0.0
C2106 C 0.40541 0.99728 0.91006 0.0
C2107 C 0.39388 0.98626 0.90328 0.0
C2108 C 0.41017 0.9985 0.93432 0.0
C2109 C 0.40839 0.97773 0.99378 0.0
H2110 H 0.4051 0.01976 0.02111 0.0
C2111 C 0.38466 0.98981 0.08821 0.0
C2112 C 0.39124 0.00171 0.10263 0.0
C2113 C 0.39016 0.98716 0.06478 0.0
C2114 C 0.40646 0.00799 0.01374 0.0
H2115 H 0.37905 0.96726 0.91609 0.0
H2116 H 0.3872 0.96937 0.95818 0.0
H2117 H 0.40557 0.01638 0.97714 0.0
H2118 H 0.409 0.01991 0.1044 0.0
H2119 H 0.41852 0.01555 0.06271 0.0
H2120 H 0.40829 0.9693 0.03037 0.0
C2121 C 0.39264 0.97709 0.94496 0.0
C2122 C 0.40673 0.00604 0.98854 0.0
C2123 C 0.38781 0.97599 0.92088 0.0
C2124 C 0.40382 0.01064 0.09352 0.0
C2125 C 0.40918 0.00819 0.06976 0.0
C2126 C 0.40805 0.97967 0.01891 0.0
C2127 C 0.40364 0.98855 0.9521 0.0
C2128 C 0.407 0.99084 0.97831 0.0
C2129 C 0.40226 0.9965 0.0551 0.0
C2130 C 0.40641 0.99477 0.02911 0.0
H2131 H 0.41023 0.00537 0.89681 0.0
H2132 H 0.41872 0.00741 0.93926 0.0
H2133 H 0.40895 0.96589 0.98645 0.0
H2134 H 0.37503 0.9827 0.09498 0.0
H2135 H 0.38445 0.97821 0.05386 0.0
C2136 C 0.77612 0.87413 0.66762 0.0
C2137 C 0.76813 0.86556 0.64968 0.0
C2138 C 0.77583 0.8692 0.69172 0.0
C2139 C 0.75064 0.84766 0.73379 0.0
H2140 H 0.78486 0.85655 0.77818 0.0
C2141 C 0.74263 0.84764 0.83828 0.0
C2142 C 0.74723 0.86213 0.84838 0.0
C2143 C 0.74709 0.84371 0.81457 0.0
C2144 C 0.77525 0.85386 0.76598 0.0
H2145 H 0.75417 0.84467 0.64271 0.0
H2146 H 0.75371 0.83594 0.68503 0.0
H2147 H 0.78963 0.85704 0.73456 0.0
H2148 H 0.76073 0.88342 0.84246 0.0
H2149 H 0.76863 0.87657 0.80134 0.0
H2150 H 0.73614 0.84508 0.76531 0.0
C2151 C 0.7601 0.84657 0.6804 0.0
C2152 C 0.77795 0.85419 0.74103 0.0
C2153 C 0.76046 0.85149 0.65617 0.0
C2154 C 0.75689 0.87228 0.83491 0.0
C2155 C 0.76155 0.86826 0.8115 0.0
C2156 C 0.74796 0.84724 0.7588 0.0
C2157 C 0.76754 0.85555 0.69851 0.0
C2158 C 0.76552 0.85177 0.72464 0.0
C2159 C 0.7565 0.85407 0.80092 0.0
C2160 C 0.76009 0.85099 0.77507 0.0
H2161 H 0.78232 0.88489 0.66309 0.0
H2162 H 0.78153 0.87653 0.70519 0.0
H2163 H 0.74078 0.84584 0.72169 0.0
H2164 H 0.73517 0.83967 0.8484 0.0
H2165 H 0.74304 0.8327 0.8068 0.0
C2166 C 0.88079 0.99277 0.41742 0.0
C2167 C 0.88861 0.00396 0.40308 0.0
C2168 C 0.88556 0.98994 0.44117 0.0
C2169 C 0.90286 0.0094 0.49277 0.0
H2170 H 0.90241 0.96712 0.51968 0.0
C2171 C 0.90118 0.9983 0.59633 0.0
C2172 C 0.88894 0.98805 0.60303 0.0
C2173 C 0.90595 0.99933 0.57205 0.0
C2174 C 0.90267 0.979 0.51245 0.0
H2175 H 0.90775 0.02075 0.40201 0.0
H2176 H 0.91598 0.01607 0.44421 0.0
H2177 H 0.90205 0.97073 0.4758 0.0
H2178 H 0.87282 0.97018 0.59008 0.0
H2179 H 0.88096 0.97201 0.54797 0.0
H2180 H 0.90251 0.01769 0.52945 0.0
C2181 C 0.90622 0.00942 0.43683 0.0
C2182 C 0.90249 0.98105 0.48736 0.0
C2183 C 0.90157 0.01205 0.41278 0.0
C2184 C 0.88212 0.97833 0.58534 0.0
C2185 C 0.88695 0.97925 0.56125 0.0
C2186 C 0.90296 0.00734 0.51795 0.0
C2187 C 0.89818 0.99837 0.45126 0.0
C2188 C 0.90193 0.99627 0.4773 0.0
C2189 C 0.8987 0.98996 0.55421 0.0
C2190 C 0.90218 0.99212 0.52803 0.0
H2191 H 0.87089 0.98625 0.41024 0.0
H2192 H 0.87901 0.98151 0.45194 0.0
H2193 H 0.90236 0.02126 0.48549 0.0
H2194 H 0.90659 0.00594 0.60965 0.0
H2195 H 0.91508 0.00765 0.56717 0.0
C2196 C 0.77343 0.13382 0.33223 0.0
C2197 C 0.76474 0.14148 0.35035 0.0
C2198 C 0.77332 0.13942 0.30848 0.0
C2199 C 0.74751 0.15991 0.26654 0.0
H2200 H 0.783 0.15423 0.22329 0.0
C2201 C 0.74042 0.1581 0.16195 0.0
C2202 C 0.74643 0.14394 0.15259 0.0
C2203 C 0.74444 0.16294 0.18548 0.0
C2204 C 0.77301 0.15605 0.23515 0.0
H2205 H 0.74968 0.1614 0.35821 0.0
H2206 H 0.74934 0.17125 0.31628 0.0
H2207 H 0.78713 0.15387 0.26708 0.0
H2208 H 0.76197 0.12426 0.1594 0.0
H2209 H 0.76922 0.13273 0.20012 0.0
H2210 H 0.73329 0.1613 0.23452 0.0
C2211 C 0.75625 0.16088 0.32056 0.0
C2212 C 0.77536 0.15581 0.2602 0.0
C2213 C 0.75652 0.15534 0.34452 0.0
C2214 C 0.75713 0.13516 0.16642 0.0
C2215 C 0.76136 0.1401 0.1896 0.0
C2216 C 0.74516 0.16021 0.24142 0.0
C2217 C 0.76443 0.15278 0.30219 0.0
C2218 C 0.76254 0.15698 0.27617 0.0
C2219 C 0.75482 0.15385 0.19963 0.0
C2220 C 0.7578 0.15754 0.22552 0.0
H2221 H 0.77998 0.1232 0.33634 0.0
H2222 H 0.77959 0.13275 0.29479 0.0
H2223 H 0.73736 0.16076 0.27833 0.0
H2224 H 0.73212 0.16499 0.15149 0.0
H2225 H 0.73923 0.17359 0.19279 0.0
C2226 C 0.61754 0.00674 0.91326 0.0
C2227 C 0.61102 0.99447 0.89951 0.0
C2228 C 0.61186 0.01005 0.9364 0.0
C2229 C 0.5958 0.99111 0.98883 0.0
H2230 H 0.59011 0.03405 0.01144 0.0
C2231 C 0.59575 0.0059 0.0911 0.0
C2232 C 0.60605 0.01829 0.09691 0.0
C2233 C 0.59108 0.00342 0.06701 0.0
C2234 C 0.59161 0.02197 0.00545 0.0
H2235 H 0.59332 0.97619 0.89865 0.0
H2236 H 0.58358 0.98162 0.93998 0.0
H2237 H 0.59177 0.02875 0.96803 0.0
H2238 H 0.61861 0.03843 0.08253 0.0
H2239 H 0.61075 0.03408 0.04079 0.0
H2240 H 0.59681 0.98443 0.02622 0.0
C2241 C 0.59295 0.9888 0.93256 0.0
C2242 C 0.59248 0.01895 0.98061 0.0
C2243 C 0.59844 0.98573 0.90904 0.0
C2244 C 0.61082 0.02867 0.07851 0.0
C2245 C 0.60613 0.02626 0.05459 0.0
C2246 C 0.5951 0.99415 0.01375 0.0
C2247 C 0.5997 1.00096 0.94647 0.0
C2248 C 0.59519 0.00358 0.9721 0.0
C2249 C 0.59652 0.01339 0.04839 0.0
C2250 C 0.59366 0.00971 0.02236 0.0
H2251 H 0.62717 0.01367 0.90611 0.0
H2252 H 0.6174 0.01935 0.9468 0.0
H2253 H 0.59798 0.97916 0.98273 0.0
H2254 H 0.59194 0.99769 0.10495 0.0
H2255 H 0.58356 0.99347 0.06288 0.0
C2256 C 0.76005 0.65631 0.66243 0.0
C2257 C 0.75199 0.64327 0.65282 0.0
C2258 C 0.75691 0.66147 0.68609 0.0
C2259 C 0.72829 0.65748 0.73676 0.0
H2260 H 0.7651 0.65851 0.77817 0.0
C2261 C 0.72884 0.63353 0.83276 0.0
C2262 C 0.73804 0.64066 0.85077 0.0
C2263 C 0.72874 0.63948 0.80922 0.0
C2264 C 0.75469 0.65869 0.76686 0.0
H2265 H 0.73367 0.62611 0.65952 0.0
H2266 H 0.72819 0.63497 0.70058 0.0
H2267 H 0.76831 0.65895 0.73422 0.0
H2268 H 0.75388 0.65993 0.85877 0.0
H2269 H 0.75402 0.67029 0.81708 0.0
H2270 H 0.71473 0.6562 0.7694 0.0
C2271 C 0.73693 0.64127 0.69007 0.0
C2272 C 0.75653 0.65894 0.74166 0.0
C2273 C 0.74019 0.63604 0.66667 0.0
C2274 C 0.74666 0.6543 0.84511 0.0
C2275 C 0.74678 0.66015 0.82133 0.0
C2276 C 0.72646 0.65719 0.76191 0.0
C2277 C 0.74547 0.65382 0.70028 0.0
C2278 C 0.74338 0.65758 0.72638 0.0
C2279 C 0.73801 0.65261 0.80307 0.0
C2280 C 0.73968 0.65704 0.77718 0.0
H2281 H 0.7692 0.66205 0.65204 0.0
H2282 H 0.76364 0.67119 0.69347 0.0
H2283 H 0.71792 0.65674 0.72543 0.0
H2284 H 0.72201 0.62308 0.8368 0.0
H2285 H 0.72203 0.63327 0.79554 0.0
C2286 C 0.59832 0.51292 0.9078 0.0
C2287 C 0.6107 0.52325 0.90207 0.0
C2288 C 0.59328 0.51124 0.93187 0.0
C2289 C 0.59704 0.52918 0.99355 0.0
H2290 H 0.59494 0.48586 0.01587 0.0
C2291 C 0.61834 0.50893 0.0864 0.0
C2292 C 0.60981 0.49755 0.09931 0.0
C2293 C 0.61354 0.5136 0.06333 0.0
C2294 C 0.59512 0.49803 0.00989 0.0
H2295 H 0.62671 0.54069 0.91666 0.0
H2296 H 0.61824 0.53761 0.95837 0.0
H2297 H 0.59521 0.4914 0.97247 0.0
H2298 H 0.58939 0.48239 0.09883 0.0
H2299 H 0.58111 0.49023 0.05772 0.0
H2300 H 0.59805 0.53569 0.03105 0.0
C2301 C 0.61228 0.53084 0.94449 0.0
C2302 C 0.59526 0.50123 0.985 0.0
C2303 C 0.61732 0.53246 0.92058 0.0
C2304 C 0.59607 0.49123 0.08912 0.0
C2305 C 0.59141 0.49567 0.0657 0.0
C2306 C 0.59705 0.52597 0.01839 0.0
C2307 C 0.60045 0.51996 0.95057 0.0
C2308 C 0.59687 0.51681 0.97655 0.0
C2309 C 0.60023 0.50678 0.05251 0.0
C2310 C 0.59669 0.51034 0.02677 0.0
H2311 H 0.59302 0.50565 0.8939 0.0
H2312 H 0.58404 0.50286 0.9359 0.0
H2313 H 0.59789 0.54134 0.98767 0.0
H2314 H 0.62892 0.514 0.09406 0.0
H2315 H 0.62068 0.52204 0.05352 0.0
C2316 C 0.76621 0.34704 0.34216 0.0
C2317 C 0.7566 0.35876 0.35234 0.0
C2318 C 0.76353 0.34183 0.31839 0.0
C2319 C 0.73392 0.34123 0.26931 0.0
H2320 H 0.769 0.34818 0.22574 0.0
C2321 C 0.72561 0.36227 0.17229 0.0
C2322 C 0.7363 0.35804 0.15403 0.0
C2323 C 0.72774 0.35711 0.19604 0.0
C2324 C 0.75915 0.34575 0.2376 0.0
H2325 H 0.73621 0.37352 0.34666 0.0
H2326 H 0.73128 0.36428 0.30547 0.0
H2327 H 0.77338 0.3482 0.26946 0.0
H2328 H 0.75725 0.34449 0.1461 0.0
H2329 H 0.76102 0.33533 0.18789 0.0
H2330 H 0.71957 0.33937 0.2376 0.0
C2331 C 0.74094 0.35916 0.31558 0.0
C2332 C 0.76167 0.34578 0.26267 0.0
C2333 C 0.74381 0.36456 0.33902 0.0
C2334 C 0.74881 0.34789 0.15982 0.0
C2335 C 0.75102 0.34276 0.18375 0.0
C2336 C 0.73142 0.34107 0.24429 0.0
C2337 C 0.75096 0.34801 0.3048 0.0
C2338 C 0.74896 0.34421 0.27875 0.0
C2339 C 0.74065 0.34756 0.20221 0.0
C2340 C 0.74388 0.34407 0.22817 0.0
H2341 H 0.77617 0.3425 0.35219 0.0
H2342 H 0.77142 0.33323 0.31047 0.0
H2343 H 0.72395 0.33975 0.28133 0.0
H2344 H 0.71573 0.36989 0.16828 0.0
H2345 H 0.71963 0.36123 0.20978 0.0
C2346 C 0.88583 0.53073 0.58176 0.0
C2347 C 0.89322 0.52112 0.59909 0.0
C2348 C 0.89062 0.53045 0.55758 0.0
C2349 C 0.90867 0.504 0.51322 0.0
H2350 H 0.90524 0.54092 0.47203 0.0
C2351 C 0.9086 0.4994 0.40837 0.0
C2352 C 0.89512 0.50643 0.39845 0.0
C2353 C 0.91302 0.50268 0.43235 0.0
C2354 C 0.90638 0.53052 0.48331 0.0
H2355 H 0.91183 0.5041 0.60483 0.0
H2356 H 0.92031 0.50361 0.56235 0.0
H2357 H 0.90474 0.544 0.51601 0.0
H2358 H 0.87631 0.52305 0.40484 0.0
H2359 H 0.88408 0.52904 0.44637 0.0
H2360 H 0.90969 0.49049 0.48042 0.0
C2361 C 0.91072 0.51131 0.56754 0.0
C2362 C 0.90604 0.53227 0.50849 0.0
C2363 C 0.90597 0.51167 0.59187 0.0
C2364 C 0.8867 0.51746 0.41224 0.0
C2365 C 0.89124 0.52095 0.43592 0.0
C2366 C 0.90908 0.50226 0.48799 0.0
C2367 C 0.90293 0.52052 0.55004 0.0
C2368 C 0.90653 0.51897 0.52373 0.0
C2369 C 0.9042 0.51332 0.44649 0.0
C2370 C 0.90731 0.51545 0.47278 0.0
H2371 H 0.87612 0.53828 0.58684 0.0
H2372 H 0.8842 0.53756 0.54462 0.0
H2373 H 0.90898 0.4935 0.5244 0.0
H2374 H 0.91518 0.4908 0.39799 0.0
H2375 H 0.92309 0.49666 0.44003 0.0
C2376 C 0.28111 0.36085 0.17245 0.0
C2377 C 0.27101 0.35724 0.15309 0.0
C2378 C 0.27716 0.35655 0.19612 0.0
C2379 C 0.24276 0.35254 0.23317 0.0
H2380 H 0.27091 0.33513 0.28153 0.0
C2381 C 0.22395 0.3508 0.3328 0.0
C2382 C 0.23544 0.35455 0.35006 0.0
C2383 C 0.22821 0.34732 0.30895 0.0
C2384 C 0.26294 0.34014 0.26833 0.0
H2385 H 0.2492 0.34585 0.14304 0.0
H2386 H 0.24208 0.33858 0.18465 0.0
H2387 H 0.27897 0.33581 0.239 0.0
H2388 H 0.26035 0.35723 0.35643 0.0
H2389 H 0.26791 0.35195 0.31451 0.0
H2390 H 0.22716 0.35794 0.26218 0.0
C2391 C 0.25312 0.34459 0.18141 0.0
C2392 C 0.26753 0.34041 0.24396 0.0
C2393 C 0.25722 0.34864 0.15766 0.0
C2394 C 0.25133 0.35423 0.34337 0.0
C2395 C 0.25561 0.35112 0.31935 0.0
C2396 C 0.23829 0.35256 0.2575 0.0
C2397 C 0.2629 0.3488 0.20089 0.0
C2398 C 0.25753 0.34677 0.22623 0.0
C2399 C 0.24406 0.34795 0.30166 0.0
C2400 C 0.24838 0.34654 0.27552 0.0
H2401 H 0.29184 0.3674 0.1693 0.0
H2402 H 0.28484 0.36005 0.21083 0.0
H2403 H 0.23494 0.35777 0.2199 0.0
H2404 H 0.21163 0.3508 0.33775 0.0
H2405 H 0.219 0.34447 0.29615 0.0
C2406 C 0.38434 0.49529 0.9129 0.0
C2407 C 0.39296 0.50653 0.89981 0.0
C2408 C 0.38907 0.49077 0.93607 0.0
C2409 C 0.408 0.50634 0.98928 0.0
H2410 H 0.4042 0.46319 0.01192 0.0
C2411 C 0.40506 0.49165 0.09149 0.0
C2412 C 0.39222 0.48194 0.09736 0.0
C2413 C 0.41003 0.49312 0.06737 0.0
C2414 C 0.40537 0.4753 0.0059 0.0
H2415 H 0.41348 0.52156 0.90012 0.0
H2416 H 0.42166 0.51395 0.94136 0.0
H2417 H 0.40405 0.46868 0.96849 0.0
H2418 H 0.37525 0.46537 0.08298 0.0
H2419 H 0.38367 0.46803 0.04114 0.0
H2420 H 0.40829 0.51309 0.02667 0.0
C2421 C 0.41131 0.50855 0.93348 0.0
C2422 C 0.40534 0.47842 0.98105 0.0
C2423 C 0.4067 0.51286 0.90998 0.0
C2424 C 0.38503 0.47311 0.07893 0.0
C2425 C 0.39002 0.47449 0.05497 0.0
C2426 C 0.40792 0.50323 0.01419 0.0
C2427 C 0.40243 0.49756 0.9468 0.0
C2428 C 0.40602 0.49402 0.97253 0.0
C2429 C 0.40235 0.48477 0.04877 0.0
C2430 C 0.40594 0.48773 0.02278 0.0
H2431 H 0.37379 0.49013 0.90527 0.0
H2432 H 0.38188 0.48242 0.94598 0.0
H2433 H 0.40845 0.51849 0.98321 0.0
H2434 H 0.41079 0.49863 0.10536 0.0
H2435 H 0.41964 0.50106 0.0632 0.0
C2436 C 0.22028 0.64497 0.66988 0.0
C2437 C 0.2306 0.64948 0.65129 0.0
C2438 C 0.22254 0.65029 0.69352 0.0
C2439 C 0.25443 0.66236 0.73364 0.0
H2440 H 0.22002 0.66593 0.77943 0.0
C2441 C 0.26343 0.65903 0.8379 0.0
C2442 C 0.25475 0.64643 0.84755 0.0
C2443 C 0.26011 0.66469 0.81456 0.0
C2444 C 0.22976 0.66517 0.76683 0.0
H2445 H 0.25087 0.66381 0.64251 0.0
H2446 H 0.25486 0.67328 0.6841 0.0
H2447 H 0.21465 0.66718 0.736 0.0
H2448 H 0.23535 0.63046 0.8414 0.0
H2449 H 0.22928 0.6405 0.801 0.0
H2450 H 0.26943 0.65975 0.76462 0.0
C2451 C 0.24508 0.66549 0.68034 0.0
C2452 C 0.2267 0.66581 0.74198 0.0
C2453 C 0.24273 0.6602 0.65653 0.0
C2454 C 0.24225 0.64011 0.83416 0.0
C2455 C 0.23871 0.64595 0.81119 0.0
C2456 C 0.2575 0.66188 0.75855 0.0
C2457 C 0.23521 0.66028 0.69922 0.0
C2458 C 0.2389 0.66362 0.72508 0.0
C2459 C 0.24779 0.65808 0.80094 0.0
C2460 C 0.2451 0.66254 0.77531 0.0
H2461 H 0.21072 0.63688 0.66626 0.0
H2462 H 0.21482 0.64584 0.70754 0.0
H2463 H 0.2641 0.66054 0.72117 0.0
H2464 H 0.27316 0.66401 0.84799 0.0
H2465 H 0.26729 0.67403 0.80701 0.0
C2466 C 0.11688 0.51059 0.41653 0.0
C2467 C 0.11052 0.49794 0.40343 0.0
C2468 C 0.11154 0.51401 0.43983 0.0
C2469 C 0.09672 0.49434 0.49305 0.0
H2470 H 0.09315 0.53708 0.5175 0.0
C2471 C 0.09883 0.50776 0.59591 0.0
C2472 C 0.10978 0.51958 0.60173 0.0
C2473 C 0.09381 0.50573 0.57188 0.0
C2474 C 0.09406 0.52506 0.51099 0.0
H2475 H 0.0933 0.4792 0.40383 0.0
H2476 H 0.08408 0.48492 0.44529 0.0
H2477 H 0.09346 0.53242 0.47385 0.0
H2478 H 0.12321 0.53917 0.58743 0.0
H2479 H 0.11469 0.53562 0.54579 0.0
H2480 H 0.09834 0.48705 0.53013 0.0
C2481 C 0.09309 0.49229 0.43731 0.0
C2482 C 0.09417 0.52241 0.486 0.0
C2483 C 0.09827 0.48907 0.41366 0.0
C2484 C 0.11493 0.52983 0.5834 0.0
C2485 C 0.10987 0.5279 0.55955 0.0
C2486 C 0.09671 0.49701 0.5181 0.0
C2487 C 0.09987 0.50467 0.45074 0.0
C2488 C 0.09613 0.50709 0.47677 0.0
C2489 C 0.09952 0.51562 0.55334 0.0
C2490 C 0.09604 0.51248 0.52733 0.0
H2491 H 0.12631 0.51759 0.40888 0.0
H2492 H 0.11713 0.52349 0.44978 0.0
H2493 H 0.09834 0.48242 0.48646 0.0
H2494 H 0.09471 0.49967 0.6097 0.0
H2495 H 0.08574 0.49622 0.56772 0.0
C2496 C 0.38752 0.06014 0.17246 0.0
C2497 C 0.37504 0.05465 0.18685 0.0
C2498 C 0.38586 0.07405 0.15892 0.0
C2499 C 0.35799 0.10763 0.14695 0.0
H2500 H 0.36752 0.09843 0.07975 0.0
C2501 C 0.32264 0.10959 0.05454 0.0
C2502 C 0.31395 0.12343 0.05834 0.0
C2503 C 0.33625 0.10666 0.06787 0.0
C2504 C 0.36484 0.10129 0.09843 0.0
H2505 H 0.35176 0.06012 0.20033 0.0
H2506 H 0.34876 0.084 0.17683 0.0
H2507 H 0.37995 0.08309 0.11158 0.0
H2508 H 0.31373 0.14598 0.0769 0.0
H2509 H 0.33778 0.14105 0.09985 0.0
H2510 H 0.3416 0.12461 0.13382 0.0
C2511 C 0.35989 0.07784 0.17585 0.0
C2512 C 0.37217 0.09261 0.11679 0.0
C2513 C 0.36153 0.064 0.18923 0.0
C2514 C 0.32012 0.13512 0.07371 0.0
C2515 C 0.33383 0.13222 0.08704 0.0
C2516 C 0.35048 0.11613 0.1286 0.0
C2517 C 0.37173 0.0827 0.15967 0.0
C2518 C 0.36807 0.09501 0.14122 0.0
C2519 C 0.34157 0.11758 0.08528 0.0
C2520 C 0.35308 0.11238 0.10407 0.0
H2521 H 0.3981 0.05316 0.1703 0.0
H2522 H 0.39531 0.07756 0.14692 0.0
H2523 H 0.35493 0.11013 0.16562 0.0
H2524 H 0.31827 0.10042 0.04262 0.0
H2525 H 0.34173 0.09521 0.06595 0.0
C2526 C 0.1199 0.05817 0.33678 0.0
C2527 C 0.13296 0.04963 0.32832 0.0
C2528 C 0.1219 0.0732 0.34695 0.0
C2529 C 0.15164 0.10524 0.35528 0.0
H2530 H 0.13434 0.10817 0.42009 0.0
C2531 C 0.17815 0.1188 0.451 0.0
C2532 C 0.18899 0.13041 0.444 0.0
C2533 C 0.16509 0.11555 0.43658 0.0
C2534 C 0.13917 0.10768 0.40194 0.0
H2535 H 0.15814 0.05047 0.32247 0.0
H2536 H 0.16165 0.07634 0.34018 0.0
H2537 H 0.12384 0.08877 0.39187 0.0
H2538 H 0.19348 0.14932 0.41846 0.0
H2539 H 0.17041 0.14391 0.39351 0.0
H2540 H 0.16807 0.12285 0.36595 0.0
C2541 C 0.14983 0.07167 0.3389 0.0
C2542 C 0.13301 0.09665 0.38563 0.0
C2543 C 0.14786 0.0567 0.32898 0.0
C2544 C 0.18539 0.14019 0.4242 0.0
C2545 C 0.17224 0.13696 0.40975 0.0
C2546 C 0.15792 0.1161 0.37163 0.0
C2547 C 0.13696 0.07998 0.34853 0.0
C2548 C 0.13988 0.09464 0.36266 0.0
C2549 C 0.16257 0.12387 0.41484 0.0
C2550 C 0.15244 0.11673 0.3957 0.0
H2551 H 0.10825 0.053 0.33645 0.0
H2552 H 0.11174 0.07933 0.35413 0.0
H2553 H 0.15688 0.10428 0.33744 0.0
H2554 H 0.18054 0.11121 0.46638 0.0
H2555 H 0.15801 0.10539 0.44129 0.0
C2556 C 0.18557 0.86903 0.5772 0.0
C2557 C 0.19125 0.88026 0.56064 0.0
C2558 C 0.17194 0.87209 0.59065 0.0
C2559 C 0.15569 0.88986 0.63103 0.0
H2560 H 0.12439 0.92052 0.61137 0.0
C2561 C 0.14363 0.94498 0.68453 0.0
C2562 C 0.12922 0.95295 0.68296 0.0
C2563 C 0.14585 0.93069 0.67255 0.0
C2564 C 0.13271 0.91166 0.61733 0.0
H2565 H 0.18619 0.90253 0.54301 0.0
H2566 H 0.16279 0.908 0.56643 0.0
H2567 H 0.13689 0.90398 0.58095 0.0
H2568 H 0.10542 0.95171 0.66907 0.0
H2569 H 0.10933 0.9266 0.64785 0.0
H2570 H 0.15189 0.89792 0.6673 0.0
C2571 C 0.16862 0.89679 0.56922 0.0
C2572 C 0.14003 0.90229 0.5998 0.0
C2573 C 0.18219 0.89374 0.55587 0.0
C2574 C 0.11667 0.9458 0.67055 0.0
C2575 C 0.11893 0.93148 0.65832 0.0
C2576 C 0.14825 0.8991 0.64856 0.0
C2577 C 0.16378 0.88642 0.58769 0.0
C2578 C 0.15238 0.89207 0.60627 0.0
C2579 C 0.13372 0.92403 0.65857 0.0
C2580 C 0.13748 0.91086 0.64171 0.0
H2581 H 0.19227 0.85847 0.58115 0.0
H2582 H 0.16837 0.86372 0.60441 0.0
H2583 H 0.16507 0.88209 0.63682 0.0
H2584 H 0.15348 0.95015 0.69411 0.0
H2585 H 0.15746 0.92546 0.67293 0.0
C2586 C 0.37372 0.92898 0.80718 0.0
C2587 C 0.38441 0.94085 0.81376 0.0
C2588 C 0.37136 0.91596 0.82226 0.0
C2589 C 0.36922 0.91095 0.88607 0.0
H2590 H 0.35531 0.86867 0.87019 0.0
C2591 C 0.32405 0.88249 0.94702 0.0
C2592 C 0.31165 0.8753 0.93455 0.0
C2593 C 0.33848 0.88491 0.93551 0.0
C2594 C 0.35908 0.88046 0.87499 0.0
H2595 H 0.40226 0.94758 0.83988 0.0
H2596 H 0.39793 0.92494 0.86642 0.0
H2597 H 0.37157 0.8833 0.84143 0.0
H2598 H 0.3046 0.86415 0.90102 0.0
H2599 H 0.32923 0.86925 0.88028 0.0
H2600 H 0.35563 0.9091 0.91819 0.0
C2601 C 0.39141 0.9257 0.84958 0.0
C2602 C 0.36855 0.88875 0.85857 0.0
C2603 C 0.39393 0.93862 0.83431 0.0
C2604 C 0.31414 0.86955 0.91106 0.0
C2605 C 0.32837 0.87247 0.89921 0.0
C2606 C 0.35954 0.90284 0.90219 0.0
C2607 C 0.37952 0.91471 0.84433 0.0
C2608 C 0.37321 0.9043 0.8636 0.0
C2609 C 0.3405 0.88089 0.91089 0.0
C2610 C 0.35375 0.88772 0.89647 0.0
H2611 H 0.3663 0.93037 0.79136 0.0
H2612 H 0.36206 0.90774 0.81778 0.0
H2613 H 0.37243 0.923 0.89034 0.0
H2614 H 0.32233 0.88694 0.96525 0.0
H2615 H 0.34769 0.89086 0.94551 0.0
C2616 C 0.61876 0.93976 0.83495 0.0
C2617 C 0.62459 0.94265 0.81161 0.0
C2618 C 0.62202 0.92547 0.84658 0.0
C2619 C 0.65324 0.89509 0.8437 0.0
H2620 H 0.63305 0.88102 0.90287 0.0
C2621 C 0.68805 0.85845 0.91056 0.0
C2622 C 0.6896 0.86695 0.93231 0.0
C2623 C 0.67562 0.8617 0.89472 0.0
C2624 C 0.6387 0.88465 0.88618 0.0
H2625 H 0.63687 0.93257 0.78102 0.0
H2626 H 0.64144 0.90711 0.80036 0.0
H2627 H 0.61863 0.89786 0.87461 0.0
H2628 H 0.67842 0.884 0.95593 0.0
H2629 H 0.65665 0.8895 0.92851 0.0
H2630 H 0.67339 0.88221 0.85551 0.0
C2631 C 0.6351 0.91605 0.81039 0.0
C2632 C 0.63052 0.89443 0.87005 0.0
C2633 C 0.63229 0.93054 0.79909 0.0
C2634 C 0.67755 0.87735 0.93921 0.0
C2635 C 0.66503 0.88044 0.92354 0.0
C2636 C 0.66126 0.88511 0.85953 0.0
C2637 C 0.63093 0.91368 0.83486 0.0
C2638 C 0.63794 0.9004 0.84911 0.0
C2639 C 0.66444 0.87332 0.90055 0.0
C2640 C 0.65435 0.88033 0.88143 0.0
H2641 H 0.613 0.94908 0.84505 0.0
H2642 H 0.61866 0.92431 0.86541 0.0
H2643 H 0.65961 0.89952 0.82815 0.0
H2644 H 0.69718 0.85038 0.90472 0.0
H2645 H 0.67537 0.85596 0.87718 0.0
C2646 C 0.87254 0.9284 0.70222 0.0
C2647 C 0.87982 0.9415 0.69151 0.0
C2648 C 0.86898 0.91506 0.68835 0.0
C2649 C 0.87104 0.89864 0.62464 0.0
H2650 H 0.82869 0.88528 0.64038 0.0
C2651 C 0.82162 0.88648 0.55669 0.0
C2652 C 0.81015 0.87515 0.56237 0.0
C2653 C 0.83452 0.88877 0.57195 0.0
C2654 C 0.84066 0.88853 0.63591 0.0
H2655 H 0.89004 0.95062 0.65839 0.0
H2656 H 0.88313 0.92792 0.63391 0.0
H2657 H 0.84354 0.90028 0.66964 0.0
H2658 H 0.80389 0.85637 0.58728 0.0
H2659 H 0.82633 0.86057 0.61418 0.0
H2660 H 0.86726 0.88798 0.58979 0.0
C2661 C 0.8806 0.92746 0.65312 0.0
C2662 C 0.8493 0.89715 0.65283 0.0
C2663 C 0.88457 0.94059 0.66718 0.0
C2664 C 0.81257 0.86516 0.58236 0.0
C2665 C 0.82536 0.86761 0.59785 0.0
C2666 C 0.86223 0.89024 0.6075 0.0
C2667 C 0.87207 0.91481 0.66325 0.0
C2668 C 0.86442 0.90284 0.64717 0.0
C2669 C 0.83605 0.87992 0.59337 0.0
C2670 C 0.84677 0.88554 0.61274 0.0
H2671 H 0.86885 0.92881 0.72101 0.0
H2672 H 0.86295 0.90536 0.69709 0.0
H2673 H 0.88278 0.90241 0.61976 0.0
H2674 H 0.82004 0.89432 0.54136 0.0
H2675 H 0.8425 0.8984 0.5681 0.0
C2676 C 0.86498 0.06721 0.31082 0.0
C2677 C 0.87818 0.05784 0.31584 0.0
C2678 C 0.86208 0.08089 0.3241 0.0
C2679 C 0.86942 0.09489 0.38575 0.0
H2680 H 0.83887 0.12595 0.36491 0.0
C2681 C 0.81559 0.10877 0.4407 0.0
C2682 C 0.80692 0.12264 0.43708 0.0
C2683 C 0.82984 0.10646 0.4288 0.0
C2684 C 0.84769 0.11772 0.37122 0.0
H2685 H 0.89964 0.05635 0.3369 0.0
H2686 H 0.89475 0.08052 0.3599 0.0
H2687 H 0.85496 0.1126 0.33496 0.0
H2688 H 0.80699 0.14562 0.41991 0.0
H2689 H 0.83215 0.14168 0.39915 0.0
H2690 H 0.86204 0.0999 0.42198 0.0
C2691 C 0.88641 0.07707 0.34606 0.0
C2692 C 0.8568 0.10985 0.35393 0.0
C2693 C 0.88929 0.06329 0.33273 0.0
C2694 C 0.81344 0.13479 0.42299 0.0
C2695 C 0.82778 0.13246 0.41095 0.0
C2696 C 0.86053 0.10297 0.40306 0.0
C2697 C 0.87236 0.08562 0.34274 0.0
C2698 C 0.86694 0.09752 0.36085 0.0
C2699 C 0.83582 0.11798 0.41291 0.0
C2700 C 0.84875 0.11364 0.39589 0.0
H2701 H 0.85628 0.06342 0.29772 0.0
H2702 H 0.85107 0.08695 0.32099 0.0
H2703 H 0.87717 0.0856 0.39195 0.0
H2704 H 0.8109 0.09924 0.45162 0.0
H2705 H 0.83548 0.09507 0.43067 0.0
C2706 C 0.61641 0.06452 0.16465 0.0
C2707 C 0.6218 0.06231 0.18841 0.0
C2708 C 0.6203 0.07823 0.15192 0.0
C2709 C 0.65233 0.10794 0.15383 0.0
H2710 H 0.63477 0.11874 0.09114 0.0
C2711 C 0.69006 0.14008 0.08504 0.0
C2712 C 0.69288 0.12967 0.0657 0.0
C2713 C 0.67688 0.138 0.09988 0.0
C2714 C 0.63967 0.11607 0.1088 0.0
H2715 H 0.63378 0.0732 0.21861 0.0
H2716 H 0.6393 0.0978 0.19737 0.0
H2717 H 0.61882 0.10415 0.12036 0.0
H2718 H 0.68341 0.11017 0.045 0.0
H2719 H 0.6602 0.10682 0.07047 0.0
H2720 H 0.6732 0.11968 0.14209 0.0
C2721 C 0.63294 0.08866 0.18781 0.0
C2722 C 0.63062 0.10754 0.1255 0.0
C2723 C 0.62956 0.07468 0.20022 0.0
C2724 C 0.68148 0.11833 0.05982 0.0
C2725 C 0.66817 0.11647 0.07434 0.0
C2726 C 0.66116 0.11677 0.13743 0.0
C2727 C 0.62935 0.0902 0.16295 0.0
C2728 C 0.63713 0.10262 0.14779 0.0
C2729 C 0.6662 0.12571 0.09526 0.0
C2730 C 0.6552 0.1203 0.11436 0.0
H2731 H 0.61057 0.05501 0.15508 0.0
H2732 H 0.61733 0.07871 0.13287 0.0
H2733 H 0.65805 0.10432 0.17043 0.0
H2734 H 0.69874 0.14883 0.0901 0.0
H2735 H 0.67562 0.14526 0.11592 0.0
C2736 C 0.82226 0.61575 0.57028 0.0
C2737 C 0.81157 0.62786 0.57565 0.0
C2738 C 0.83619 0.61429 0.58346 0.0
C2739 C 0.847 0.61788 0.64474 0.0
H2740 H 0.88791 0.60366 0.6229 0.0
C2741 C 0.88021 0.57595 0.70507 0.0
C2742 C 0.88628 0.56289 0.69264 0.0
C2743 C 0.87712 0.59001 0.6927 0.0
C2744 C 0.87654 0.60754 0.6294 0.0
H2745 H 0.80744 0.64858 0.59776 0.0
H2746 H 0.83161 0.64563 0.62155 0.0
H2747 H 0.87051 0.61747 0.5948 0.0
H2748 H 0.89511 0.55452 0.65817 0.0
H2749 H 0.88884 0.57838 0.63625 0.0
H2750 H 0.85187 0.60658 0.67822 0.0
C2751 C 0.82933 0.63749 0.60682 0.0
C2752 C 0.86668 0.61562 0.61332 0.0
C2753 C 0.81554 0.63917 0.59323 0.0
C2754 C 0.89054 0.56451 0.66822 0.0
C2755 C 0.88695 0.57834 0.65563 0.0
C2756 C 0.85664 0.60948 0.6606 0.0
C2757 C 0.83949 0.62471 0.60259 0.0
C2758 C 0.85158 0.62027 0.62061 0.0
C2759 C 0.87934 0.59099 0.6674 0.0
C2760 C 0.87126 0.60348 0.65283 0.0
H2761 H 0.81948 0.60693 0.55672 0.0
H2762 H 0.84372 0.60423 0.58001 0.0
H2763 H 0.83534 0.6212 0.65078 0.0
H2764 H 0.87694 0.57497 0.724 0.0
H2765 H 0.87194 0.59967 0.70272 0.0
C2766 C 0.68675 0.63524 0.92482 0.0
C2767 C 0.69325 0.62163 0.9354 0.0
C2768 C 0.67204 0.63457 0.91343 0.0
C2769 C 0.63812 0.60719 0.90129 0.0
H2770 H 0.6427 0.62247 0.8355 0.0
C2771 C 0.6106 0.57161 0.82665 0.0
C2772 C 0.6222 0.56746 0.80968 0.0
C2773 C 0.61244 0.58514 0.84098 0.0
C2774 C 0.64111 0.61818 0.85383 0.0
H2775 H 0.68886 0.59715 0.94448 0.0
H2776 H 0.66362 0.59586 0.92456 0.0
H2777 H 0.6595 0.63295 0.86718 0.0
H2778 H 0.6435 0.57528 0.79186 0.0
H2779 H 0.64697 0.59836 0.81686 0.0
H2780 H 0.62116 0.59104 0.88755 0.0
C2781 C 0.6696 0.60713 0.92501 0.0
C2782 C 0.65063 0.62439 0.87216 0.0
C2783 C 0.68423 0.60779 0.93625 0.0
C2784 C 0.6345 0.57806 0.8051 0.0
C2785 C 0.63639 0.59147 0.81942 0.0
C2786 C 0.62885 0.60075 0.88289 0.0
C2787 C 0.66356 0.6203 0.91257 0.0
C2788 C 0.65003 0.61811 0.89575 0.0
C2789 C 0.62595 0.59463 0.83863 0.0
C2790 C 0.63107 0.60535 0.8586 0.0
H2791 H 0.69343 0.6461 0.924 0.0
H2792 H 0.66766 0.64499 0.9043 0.0
H2793 H 0.63694 0.60251 0.91947 0.0
H2794 H 0.60088 0.56374 0.83042 0.0
H2795 H 0.60391 0.58744 0.8551 0.0
C2796 C 0.60982 0.43522 0.16052 0.0
C2797 C 0.6194 0.43694 0.18112 0.0
C2798 C 0.61201 0.42243 0.14485 0.0
C2799 C 0.63339 0.40703 0.10771 0.0
H2800 H 0.64627 0.36437 0.12331 0.0
C2801 C 0.67734 0.37735 0.04601 0.0
C2802 C 0.68982 0.37021 0.05846 0.0
C2803 C 0.66302 0.38005 0.05772 0.0
C2804 C 0.64276 0.37626 0.11858 0.0
H2805 H 0.63733 0.42576 0.20307 0.0
H2806 H 0.641 0.40338 0.17596 0.0
H2807 H 0.63066 0.37944 0.15239 0.0
H2808 H 0.69683 0.35916 0.09217 0.0
H2809 H 0.6724 0.36462 0.11303 0.0
H2810 H 0.64661 0.40477 0.07527 0.0
C2811 C 0.6319 0.41189 0.17175 0.0
C2812 C 0.63368 0.38481 0.13519 0.0
C2813 C 0.62988 0.42477 0.18722 0.0
C2814 C 0.68734 0.3646 0.08208 0.0
C2815 C 0.6732 0.36772 0.09404 0.0
C2816 C 0.64268 0.39865 0.09137 0.0
C2817 C 0.62362 0.41106 0.14974 0.0
C2818 C 0.62944 0.4005 0.13028 0.0
C2819 C 0.66112 0.37623 0.08242 0.0
C2820 C 0.64811 0.38337 0.097 0.0
H2821 H 0.60165 0.44442 0.15534 0.0
H2822 H 0.6054 0.42201 0.12807 0.0
H2823 H 0.63049 0.41917 0.10351 0.0
H2824 H 0.67896 0.38165 0.02768 0.0
H2825 H 0.65382 0.38606 0.0478 0.0
C2826 C 0.8848 0.44672 0.33681 0.0
C2827 C 0.87926 0.44929 0.31324 0.0
C2828 C 0.88148 0.43257 0.34874 0.0
C2829 C 0.87289 0.40214 0.37329 0.0
H2830 H 0.8308 0.38833 0.35689 0.0
C2831 C 0.81553 0.36622 0.41363 0.0
C2832 C 0.81198 0.3766 0.43272 0.0
C2833 C 0.82857 0.36905 0.39881 0.0
C2834 C 0.84273 0.39171 0.36144 0.0
H2835 H 0.86752 0.43878 0.2825 0.0
H2836 H 0.86292 0.41349 0.30235 0.0
H2837 H 0.84492 0.40506 0.3291 0.0
H2838 H 0.82003 0.3969 0.45304 0.0
H2839 H 0.84307 0.40154 0.42764 0.0
H2840 H 0.86956 0.39006 0.40715 0.0
C2841 C 0.86896 0.42262 0.3124 0.0
C2842 C 0.85097 0.40134 0.34537 0.0
C2843 C 0.87177 0.43701 0.30082 0.0
C2844 C 0.82254 0.38876 0.43838 0.0
C2845 C 0.83576 0.39135 0.42394 0.0
C2846 C 0.86442 0.39284 0.38969 0.0
C2847 C 0.87288 0.42054 0.33706 0.0
C2848 C 0.86592 0.4073 0.35147 0.0
C2849 C 0.83841 0.38204 0.40329 0.0
C2850 C 0.84905 0.38803 0.38421 0.0
H2851 H 0.89048 0.45616 0.34678 0.0
H2852 H 0.88463 0.43171 0.36769 0.0
H2853 H 0.88457 0.40596 0.37839 0.0
H2854 H 0.80749 0.35683 0.40879 0.0
H2855 H 0.83037 0.36176 0.38291 0.0
C2856 C 0.18407 0.35294 0.42419 0.0
C2857 C 0.18575 0.36226 0.44514 0.0
C2858 C 0.17163 0.35567 0.40819 0.0
C2859 C 0.15922 0.37912 0.37178 0.0
H2860 H 0.11686 0.39403 0.3836 0.0
C2861 C 0.12066 0.43624 0.34549 0.0
C2862 C 0.12748 0.43913 0.32283 0.0
C2863 C 0.12279 0.42166 0.35687 0.0
C2864 C 0.12869 0.38999 0.37995 0.0
H2865 H 0.17441 0.37979 0.46775 0.0
H2866 H 0.15268 0.38445 0.43998 0.0
H2867 H 0.12944 0.37643 0.41283 0.0
H2868 H 0.14037 0.42891 0.29297 0.0
H2869 H 0.14301 0.40299 0.31174 0.0
H2870 H 0.15944 0.39372 0.34057 0.0
C2871 C 0.16102 0.37521 0.43569 0.0
C2872 C 0.1358 0.37975 0.39661 0.0
C2873 C 0.17354 0.3726 0.45157 0.0
C2874 C 0.13513 0.42687 0.3106 0.0
C2875 C 0.13678 0.41211 0.32156 0.0
C2876 C 0.15229 0.38956 0.35547 0.0
C2877 C 0.16059 0.36758 0.41308 0.0
C2878 C 0.15135 0.3747 0.39309 0.0
C2879 C 0.1315 0.40958 0.34549 0.0
C2880 C 0.13716 0.39571 0.35979 0.0
H2881 H 0.1932 0.34476 0.41878 0.0
H2882 H 0.17145 0.34949 0.391 0.0
H2883 H 0.17131 0.37565 0.36871 0.0
H2884 H 0.11484 0.44566 0.35529 0.0
H2885 H 0.11863 0.42041 0.3753 0.0
C2886 C 0.3286 0.38454 0.05571 0.0
C2887 C 0.31884 0.37146 0.05978 0.0
C2888 C 0.34235 0.38654 0.06909 0.0
C2889 C 0.37078 0.39063 0.10008 0.0
H2890 H 0.36092 0.38145 0.16714 0.0
C2891 C 0.39316 0.43212 0.17326 0.0
C2892 C 0.38086 0.43712 0.18843 0.0
C2893 C 0.39176 0.41809 0.15997 0.0
C2894 C 0.36392 0.38413 0.14851 0.0
H2895 H 0.31687 0.34915 0.07876 0.0
H2896 H 0.34124 0.35235 0.10163 0.0
H2897 H 0.34699 0.36774 0.13526 0.0
H2898 H 0.35835 0.43052 0.20376 0.0
H2899 H 0.35565 0.40663 0.18046 0.0
H2900 H 0.38628 0.40841 0.11332 0.0
C2901 C 0.33798 0.3614 0.08872 0.0
C2902 C 0.35608 0.37601 0.13006 0.0
C2903 C 0.32408 0.35946 0.0754 0.0
C2904 C 0.36796 0.42709 0.19198 0.0
C2905 C 0.3665 0.4132 0.17867 0.0
C2906 C 0.37831 0.39905 0.11852 0.0
C2907 C 0.34681 0.37542 0.08677 0.0
C2908 C 0.35864 0.37992 0.10557 0.0
C2909 C 0.378 0.40887 0.16155 0.0
C2910 C 0.37419 0.39663 0.14296 0.0
H2911 H 0.325 0.3939 0.04355 0.0
H2912 H 0.34863 0.39755 0.06694 0.0
H2913 H 0.37359 0.3935 0.08145 0.0
H2914 H 0.40333 0.43956 0.17028 0.0
H2915 H 0.40104 0.41497 0.14744 0.0
C2916 C 0.393 0.56962 0.82859 0.0
C2917 C 0.38158 0.56436 0.81203 0.0
C2918 C 0.39063 0.5836 0.84167 0.0
C2919 C 0.36169 0.61697 0.84984 0.0
H2920 H 0.36731 0.60698 0.9178 0.0
C2921 C 0.31827 0.64139 0.91894 0.0
C2922 C 0.31204 0.62928 0.93347 0.0
C2923 C 0.3326 0.63924 0.90684 0.0
C2924 C 0.36567 0.61004 0.89891 0.0
H2925 H 0.35977 0.57049 0.79408 0.0
H2926 H 0.35543 0.59433 0.81696 0.0
H2927 H 0.38216 0.59261 0.88757 0.0
H2928 H 0.31668 0.60617 0.94871 0.0
H2929 H 0.34113 0.60224 0.92744 0.0
H2930 H 0.34384 0.63307 0.86103 0.0
C2931 C 0.36628 0.58798 0.82002 0.0
C2932 C 0.37442 0.60194 0.88146 0.0
C2933 C 0.36868 0.57412 0.80696 0.0
C2934 C 0.32105 0.61566 0.93741 0.0
C2935 C 0.33527 0.61349 0.92533 0.0
C2936 C 0.35268 0.62483 0.86726 0.0
C2937 C 0.3768 0.59251 0.83845 0.0
C2938 C 0.37177 0.60456 0.8566 0.0
C2939 C 0.34093 0.62495 0.90905 0.0
C2940 C 0.35382 0.62069 0.8919 0.0
H2941 H 0.40315 0.56239 0.83274 0.0
H2942 H 0.39918 0.5869 0.8553 0.0
H2943 H 0.35977 0.61976 0.83091 0.0
H2944 H 0.31163 0.65209 0.91571 0.0
H2945 H 0.33674 0.64846 0.89484 0.0
C2946 C 0.18316 0.644 0.58236 0.0
C2947 C 0.18592 0.63322 0.56348 0.0
C2948 C 0.17004 0.64219 0.59741 0.0
C2949 C 0.15499 0.62188 0.63635 0.0
H2950 H 0.11344 0.60626 0.62053 0.0
C2951 C 0.11484 0.56689 0.66574 0.0
C2952 C 0.12042 0.56553 0.68955 0.0
C2953 C 0.11738 0.58076 0.65261 0.0
C2954 C 0.12502 0.61053 0.62534 0.0
H2955 H 0.17632 0.61341 0.54362 0.0
H2956 H 0.15332 0.61042 0.56955 0.0
H2957 H 0.12828 0.62124 0.5904 0.0
H2958 H 0.13126 0.57791 0.71943 0.0
H2959 H 0.13445 0.60265 0.69739 0.0
H2960 H 0.1528 0.60998 0.67 0.0
C2961 C 0.16125 0.62018 0.57291 0.0
C2962 C 0.13342 0.61927 0.60811 0.0
C2963 C 0.17447 0.62182 0.55813 0.0
C2964 C 0.12693 0.57875 0.70099 0.0
C2965 C 0.12896 0.59282 0.68817 0.0
C2966 C 0.14679 0.6129 0.65331 0.0
C2967 C 0.15941 0.62975 0.59352 0.0
C2968 C 0.14874 0.62448 0.61316 0.0
C2969 C 0.12524 0.59367 0.66328 0.0
C2970 C 0.13196 0.60645 0.6477 0.0
H2971 H 0.19185 0.65285 0.58696 0.0
H2972 H 0.16886 0.64974 0.61314 0.0
H2973 H 0.16686 0.62556 0.64069 0.0
H2974 H 0.10997 0.55673 0.65647 0.0
H2975 H 0.1144 0.58071 0.63355 0.0
C2976 C 0.26622 0.18955 0.06202 0.0
C2977 C 0.25535 0.18234 0.04631 0.0
C2978 C 0.26629 0.20597 0.0651 0.0
C2979 C 0.24121 0.24132 0.05761 0.0
H2980 H 0.28058 0.26428 0.05494 0.0
C2981 C 0.24333 0.3083 0.04088 0.0
C2982 C 0.25489 0.31738 0.05255 0.0
C2983 C 0.24338 0.29186 0.04273 0.0
C2984 C 0.26949 0.25806 0.05614 0.0
H2985 H 0.23596 0.18679 0.02168 0.0
H2986 H 0.23608 0.21526 0.02707 0.0
H2987 H 0.28075 0.23548 0.05352 0.0
H2988 H 0.27543 0.31625 0.07579 0.0
H2989 H 0.2754 0.2875 0.07927 0.0
H2990 H 0.22991 0.2638 0.06009 0.0
C2991 C 0.24449 0.20826 0.03715 0.0
C2992 C 0.2696 0.24154 0.05529 0.0
C2993 C 0.24449 0.19191 0.03394 0.0
C2994 C 0.26638 0.30961 0.06649 0.0
C2995 C 0.26641 0.29311 0.06837 0.0
C2996 C 0.2411 0.2578 0.05857 0.0
C2997 C 0.25539 0.21551 0.05272 0.0
C2998 C 0.25543 0.23299 0.05558 0.0
C2999 C 0.25496 0.28401 0.05637 0.0
C3000 C 0.25522 0.26642 0.05741 0.0
H3001 H 0.27473 0.18253 0.07186 0.0
H3002 H 0.27476 0.21119 0.07736 0.0
H3003 H 0.2301 0.23509 0.05835 0.0
H3004 H 0.23433 0.31385 0.02992 0.0
H3005 H 0.23452 0.28527 0.03291 0.0
C3006 C 0.94217 0.01154 0.31588 0.0
C3007 C 0.93546 0.99711 0.30875 0.0
C3008 C 0.9585 0.01314 0.31756 0.0
C3009 C 0.99566 0.99181 0.32446 0.0
H3010 H 0.01336 0.02581 0.2862 0.0
C3011 C 0.06268 0.99694 0.30655 0.0
C3012 C 0.06914 0.01211 0.30408 0.0
C3013 C 0.04638 0.99492 0.3085 0.0
C3014 C 0.0087 0.01643 0.29741 0.0
H3015 H 0.94054 0.97285 0.29904 0.0
H3016 H 0.96907 0.97559 0.30258 0.0
H3017 H 0.985 0.02282 0.28876 0.0
H3018 H 0.06367 0.03706 0.30268 0.0
H3019 H 0.03551 0.03366 0.30714 0.0
H3020 H 0.0193 0.98558 0.33363 0.0
C3021 C 0.96169 0.98566 0.3066 0.0
C3022 C 0.9924 0.0147 0.29875 0.0
C3023 C 0.94537 0.98413 0.30448 0.0
C3024 C 0.05904 0.0252 0.30419 0.0
C3025 C 0.04282 0.02322 0.30659 0.0
C3026 C 0.01201 0.99369 0.32348 0.0
C3027 C 0.96841 1.00028 0.3126 0.0
C3028 C 0.98572 0.00235 0.31219 0.0
C3029 C 0.0362 0.00804 0.30844 0.0
C3030 C 0.01877 0.00601 0.30985 0.0
H3031 H 0.93485 0.02177 0.31923 0.0
H3032 H 0.9634 0.02451 0.32239 0.0
H3033 H 0.99078 0.98222 0.33502 0.0
H3034 H 0.07018 0.98662 0.30644 0.0
H3035 H 0.04178 0.98303 0.30954 0.0
C3036 C 0.26301 0.69422 0.54525 0.0
C3037 C 0.2489 0.68585 0.54803 0.0
C3038 C 0.26326 0.71066 0.54698 0.0
C3039 C 0.23891 0.7458 0.5648 0.0
H3040 H 0.26848 0.76732 0.52288 0.0
C3041 C 0.25231 0.81173 0.52143 0.0
C3042 C 0.24866 0.82139 0.54131 0.0
C3043 C 0.25218 0.79533 0.52364 0.0
C3044 C 0.25996 0.76158 0.53449 0.0
H3045 H 0.22397 0.68811 0.55518 0.0
H3046 H 0.22418 0.71686 0.55696 0.0
H3047 H 0.2681 0.73886 0.52382 0.0
H3048 H 0.24197 0.82142 0.5792 0.0
H3049 H 0.24241 0.79271 0.58346 0.0
H3050 H 0.23013 0.76867 0.57424 0.0
C3051 C 0.23522 0.71078 0.55421 0.0
C3052 C 0.25997 0.74512 0.53543 0.0
C3053 C 0.23505 0.69426 0.55303 0.0
C3054 C 0.2448 0.81427 0.56353 0.0
C3055 C 0.24496 0.79778 0.5659 0.0
C3056 C 0.23871 0.76233 0.56352 0.0
C3057 C 0.24932 0.71926 0.55092 0.0
C3058 C 0.24944 0.73693 0.55056 0.0
C3059 C 0.24873 0.78806 0.54597 0.0
C3060 C 0.24918 0.77047 0.5482 0.0
H3061 H 0.27393 0.68804 0.54176 0.0
H3062 H 0.27445 0.71661 0.54509 0.0
H3063 H 0.23077 0.74003 0.57699 0.0
H3064 H 0.25509 0.81684 0.50394 0.0
H3065 H 0.25466 0.78837 0.50764 0.0
C3066 C 0.44557 0.01718 0.79656 0.0
C3067 C 0.43616 0.00486 0.80548 0.0
C3068 C 0.46184 0.01698 0.79991 0.0
C3069 C 0.49488 0.98989 0.80967 0.0
H3070 H 0.51765 0.0285 0.82337 0.0
C3071 C 0.56315 0.99226 0.81502 0.0
C3072 C 0.57012 0.00508 0.80293 0.0
C3073 C 0.54685 0.99183 0.81877 0.0
C3074 C 0.51148 0.01762 0.81941 0.0
H3075 H 0.43647 0.98278 0.82538 0.0
H3076 H 0.46497 0.98243 0.83116 0.0
H3077 H 0.48901 0.02859 0.82385 0.0
H3078 H 0.5654 0.02756 0.78551 0.0
H3079 H 0.53722 0.02673 0.7918 0.0
H3080 H 0.51739 0.97902 0.80461 0.0
C3081 C 0.45971 0.9922 0.82145 0.0
C3082 C 0.49506 0.01768 0.81971 0.0
C3083 C 0.44338 0.99245 0.81825 0.0
C3084 C 0.56048 0.01751 0.79495 0.0
C3085 C 0.54427 0.0171 0.79873 0.0
C3086 C 0.51134 0.98984 0.80931 0.0
C3087 C 0.46914 0.00442 0.81217 0.0
C3088 C 0.48656 0.0039 0.81435 0.0
C3089 C 0.53722 0.00426 0.81062 0.0
C3090 C 0.51983 0.0038 0.81365 0.0
H3091 H 0.4404 0.02693 0.78666 0.0
H3092 H 0.46876 0.02648 0.79226 0.0
H3093 H 0.48868 0.97911 0.80527 0.0
H3094 H 0.57025 0.98251 0.82145 0.0
H3095 H 0.54179 0.98182 0.82815 0.0
C3096 C 0.23763 0.812 0.95551 0.0
C3097 C 0.24924 0.82163 0.94505 0.0
C3098 C 0.238 0.79566 0.95247 0.0
C3099 C 0.26492 0.76279 0.93875 0.0
H3100 H 0.22596 0.73934 0.93292 0.0
C3101 C 0.26275 0.69429 0.93289 0.0
C3102 C 0.25168 0.68712 0.94829 0.0
C3103 C 0.26258 0.71066 0.92925 0.0
C3104 C 0.23693 0.74572 0.93461 0.0
H3105 H 0.27024 0.82159 0.92275 0.0
H3106 H 0.27083 0.79295 0.91727 0.0
H3107 H 0.22543 0.76807 0.9319 0.0
H3108 H 0.23159 0.69148 0.97158 0.0
H3109 H 0.23129 0.71987 0.9652 0.0
H3110 H 0.27637 0.74034 0.94176 0.0
C3111 C 0.26152 0.79809 0.92807 0.0
C3112 C 0.23664 0.76219 0.93407 0.0
C3113 C 0.26114 0.81451 0.93111 0.0
C3114 C 0.2403 0.69661 0.95962 0.0
C3115 C 0.24005 0.71289 0.95583 0.0
C3116 C 0.26521 0.74627 0.9392 0.0
C3117 C 0.24998 0.78846 0.93882 0.0
C3118 C 0.25058 0.77095 0.93669 0.0
C3119 C 0.25123 0.72013 0.94073 0.0
C3120 C 0.25118 0.73757 0.93767 0.0
H3121 H 0.22831 0.81703 0.96642 0.0
H3122 H 0.22908 0.78863 0.96137 0.0
H3123 H 0.27585 0.76915 0.94104 0.0
H3124 H 0.27166 0.68731 0.92387 0.0
H3125 H 0.27128 0.71589 0.91739 0.0
C3126 C 0.55754 0.98813 0.20646 0.0
C3127 C 0.56683 1.00063 0.19783 0.0
C3128 C 0.54127 0.98819 0.20323 0.0
C3129 C 0.50751 0.01443 0.19387 0.0
H3130 H 0.48625 0.97515 0.17886 0.0
C3131 C 0.43924 0.00892 0.18835 0.0
C3132 C 0.43293 0.99574 0.20044 0.0
C3133 C 0.4555 0.01022 0.1846 0.0
C3134 C 0.49199 0.98621 0.18316 0.0
H3135 H 0.56625 0.02303 0.17884 0.0
H3136 H 0.53765 0.02317 0.17329 0.0
H3137 H 0.51485 0.9762 0.17834 0.0
H3138 H 0.43883 0.97352 0.21778 0.0
H3139 H 0.46693 0.97581 0.21135 0.0
H3140 H 0.48455 0.02431 0.19926 0.0
C3141 C 0.54305 0.01333 0.18263 0.0
C3142 C 0.50839 0.98682 0.18284 0.0
C3143 C 0.55943 0.01321 0.18572 0.0
C3144 C 0.44322 0.98384 0.20837 0.0
C3145 C 0.45938 0.98509 0.20453 0.0
C3146 C 0.49104 0.01382 0.1942 0.0
C3147 C 0.5338 1.00079 0.19135 0.0
C3148 C 0.51637 1.00081 0.18879 0.0
C3149 C 0.46576 0.99829 0.19266 0.0
C3150 C 0.4831 0.99959 0.18945 0.0
H3151 H 0.56279 0.97824 0.2159 0.0
H3152 H 0.5345 0.97847 0.21054 0.0
H3153 H 0.51329 0.02537 0.19867 0.0
H3154 H 0.43164 0.0183 0.18199 0.0
H3155 H 0.46004 0.0205 0.17528 0.0
C3156 C 0.24359 0.18915 0.43212 0.0
C3157 C 0.25511 0.1815 0.44613 0.0
C3158 C 0.24378 0.20557 0.42947 0.0
C3159 C 0.26912 0.24101 0.4377 0.0
H3160 H 0.22932 0.26286 0.44431 0.0
C3161 C 0.26451 0.30714 0.46186 0.0
C3162 C 0.25277 0.31615 0.45048 0.0
C3163 C 0.26529 0.29082 0.45832 0.0
C3164 C 0.24051 0.25695 0.44207 0.0
H3165 H 0.27609 0.18511 0.4678 0.0
H3166 H 0.27628 0.21364 0.46349 0.0
H3167 H 0.22979 0.23414 0.44326 0.0
H3168 H 0.23287 0.31511 0.42591 0.0
H3169 H 0.23425 0.28663 0.41975 0.0
H3170 H 0.27985 0.26387 0.43713 0.0
C3171 C 0.26721 0.20699 0.45425 0.0
C3172 C 0.24078 0.24046 0.44142 0.0
C3173 C 0.26704 0.19059 0.45686 0.0
C3174 C 0.24203 0.30852 0.43505 0.0
C3175 C 0.24276 0.29219 0.4316 0.0
C3176 C 0.26885 0.2575 0.43844 0.0
C3177 C 0.25548 0.21472 0.44078 0.0
C3178 C 0.25511 0.23227 0.43954 0.0
C3179 C 0.25431 0.28313 0.44338 0.0
C3180 C 0.25455 0.26566 0.44092 0.0
H3181 H 0.23429 0.18248 0.42349 0.0
H3182 H 0.2347 0.21111 0.41867 0.0
H3183 H 0.28034 0.2351 0.4358 0.0
H3184 H 0.27297 0.31263 0.47385 0.0
H3185 H 0.27422 0.28417 0.46786 0.0
C3186 C 0.06047 0.00548 0.69069 0.0
C3187 C 0.06635 0.99307 0.705 0.0
C3188 C 0.04422 0.00745 0.68762 0.0
C3189 C 0.00645 0.98569 0.6932 0.0
H3190 H 0.98784 0.02734 0.69705 0.0
C3191 C 0.94245 0.01497 0.71524 0.0
C3192 C 0.93258 0.00485 0.70198 0.0
C3193 C 0.95875 0.01443 0.71221 0.0
C3194 C 0.99285 0.01562 0.69598 0.0
H3195 H 0.05971 0.97312 0.72744 0.0
H3196 H 0.03161 0.97666 0.72235 0.0
H3197 H 0.01637 0.02448 0.6988 0.0
H3198 H 0.93211 0.98663 0.67439 0.0
H3199 H 0.96057 0.98581 0.66887 0.0
H3200 H 0.983 0.97673 0.69139 0.0
C3201 C 0.03948 0.98472 0.71312 0.0
C3202 C 0.00923 0.01399 0.69671 0.0
C3203 C 0.05564 0.98276 0.71619 0.0
C3204 C 0.93937 0.99452 0.68501 0.0
C3205 C 0.9557 0.994 0.68195 0.0
C3206 C 0.99011 0.9873 0.69249 0.0
C3207 C 0.03353 0.99703 0.69872 0.0
C3208 C 0.01622 0.99897 0.69579 0.0
C3209 C 0.96563 0.00377 0.6958 0.0
C3210 C 0.98307 0.00226 0.69427 0.0
H3211 H 0.0684 0.01361 0.68176 0.0
H3212 H 0.04004 0.017 0.67628 0.0
H3213 H 0.01144 0.97395 0.69204 0.0
H3214 H 0.93764 0.02308 0.72848 0.0
H3215 H 0.96599 0.02199 0.72343 0.0
C3216 C 0.73962 0.80745 0.93649 0.0
C3217 C 0.75338 0.81504 0.94434 0.0
C3218 C 0.73906 0.791 0.93452 0.0
C3219 C 0.76003 0.7548 0.95594 0.0
H3220 H 0.73127 0.73426 0.9115 0.0
C3221 C 0.75376 0.68641 0.94599 0.0
C3222 C 0.7383 0.68119 0.95011 0.0
C3223 C 0.75692 0.70254 0.94296 0.0
C3224 C 0.7394 0.73986 0.92393 0.0
H3225 H 0.77759 0.8114 0.95511 0.0
H3226 H 0.77692 0.78282 0.95054 0.0
H3227 H 0.73475 0.76278 0.90951 0.0
H3228 H 0.71402 0.68867 0.95348 0.0
H3229 H 0.71951 0.71665 0.94745 0.0
H3230 H 0.76481 0.73165 0.96993 0.0
C3231 C 0.76631 0.78943 0.9468 0.0
C3232 C 0.74132 0.75624 0.92299 0.0
C3233 C 0.76676 0.80587 0.94922 0.0
C3234 C 0.72607 0.69233 0.95049 0.0
C3235 C 0.72918 0.70834 0.9469 0.0
C3236 C 0.75834 0.73837 0.95653 0.0
C3237 C 0.75235 0.78169 0.9399 0.0
C3238 C 0.7514 0.76404 0.93935 0.0
C3239 C 0.74463 0.71364 0.94333 0.0
C3240 C 0.74777 0.73079 0.94086 0.0
H3241 H 0.72906 0.81417 0.93278 0.0
H3242 H 0.72799 0.78561 0.92959 0.0
H3243 H 0.76771 0.76024 0.96916 0.0
H3244 H 0.76342 0.67809 0.94565 0.0
H3245 H 0.76894 0.70635 0.94022 0.0
C3246 C 0.76366 0.18875 0.44479 0.0
C3247 C 0.74874 0.18221 0.44902 0.0
C3248 C 0.76556 0.20512 0.44288 0.0
C3249 C 0.74505 0.24291 0.4579 0.0
H3250 H 0.77817 0.26104 0.4185 0.0
C3251 C 0.75364 0.31054 0.44523 0.0
C3252 C 0.76893 0.31581 0.45049 0.0
C3253 C 0.75049 0.29437 0.44293 0.0
C3254 C 0.76886 0.25612 0.42957 0.0
H3255 H 0.72402 0.18767 0.45347 0.0
H3256 H 0.72718 0.21603 0.44911 0.0
H3257 H 0.77385 0.23259 0.4179 0.0
H3258 H 0.79298 0.3083 0.45666 0.0
H3259 H 0.78753 0.28022 0.45209 0.0
H3260 H 0.73998 0.26659 0.46918 0.0
C3261 C 0.73756 0.20867 0.44819 0.0
C3262 C 0.76644 0.23978 0.42939 0.0
C3263 C 0.73571 0.19235 0.45051 0.0
C3264 C 0.78105 0.30463 0.45273 0.0
C3265 C 0.77797 0.28854 0.44996 0.0
C3266 C 0.74732 0.25926 0.45774 0.0
C3267 C 0.75255 0.21536 0.44474 0.0
C3268 C 0.75463 0.23289 0.44383 0.0
C3269 C 0.76264 0.28321 0.4453 0.0
C3270 C 0.75939 0.26601 0.44385 0.0
H3271 H 0.77395 0.18125 0.44368 0.0
H3272 H 0.77734 0.20973 0.44062 0.0
H3273 H 0.73604 0.23814 0.46965 0.0
H3274 H 0.74406 0.31888 0.44345 0.0
H3275 H 0.73857 0.29057 0.43925 0.0
C3276 C 0.74244 0.19146 0.06357 0.0
C3277 C 0.75426 0.18397 0.04994 0.0
C3278 C 0.74187 0.20797 0.06508 0.0
C3279 C 0.75505 0.2434 0.03184 0.0
H3280 H 0.74701 0.26578 0.09188 0.0
C3281 C 0.76522 0.31004 0.03902 0.0
C3282 C 0.75386 0.31912 0.05113 0.0
C3283 C 0.7649 0.29359 0.04031 0.0
C3284 C 0.7491 0.25969 0.07492 0.0
H3285 H 0.775 0.18799 0.02784 0.0
H3286 H 0.77405 0.21653 0.03064 0.0
H3287 H 0.74685 0.23688 0.0915 0.0
H3288 H 0.7335 0.31802 0.07475 0.0
H3289 H 0.73286 0.28921 0.07683 0.0
H3290 H 0.75731 0.26603 0.01519 0.0
C3291 C 0.76506 0.20973 0.03982 0.0
C3292 C 0.749 0.24315 0.07471 0.0
C3293 C 0.76565 0.19332 0.03835 0.0
C3294 C 0.74241 0.31137 0.06516 0.0
C3295 C 0.74209 0.29486 0.06645 0.0
C3296 C 0.75514 0.25985 0.03205 0.0
C3297 C 0.75306 0.21729 0.05291 0.0
C3298 C 0.75221 0.23482 0.05321 0.0
C3299 C 0.75318 0.28578 0.0537 0.0
C3300 C 0.75239 0.26823 0.05363 0.0
H3301 H 0.73351 0.1846 0.07276 0.0
H3302 H 0.73244 0.21345 0.07525 0.0
H3303 H 0.7572 0.23736 0.01485 0.0
H3304 H 0.77429 0.3156 0.02822 0.0
H3305 H 0.77383 0.28698 0.03069 0.0
C3306 C 0.76262 0.81409 0.56379 0.0
C3307 C 0.74826 0.82096 0.55701 0.0
C3308 C 0.76387 0.79775 0.56683 0.0
C3309 C 0.74374 0.76042 0.54956 0.0
H3310 H 0.77388 0.74218 0.59424 0.0
C3311 C 0.7523 0.6928 0.56167 0.0
C3312 C 0.76796 0.6879 0.55875 0.0
C3313 C 0.7487 0.70886 0.56414 0.0
C3314 C 0.76539 0.74713 0.58172 0.0
H3315 H 0.72375 0.81617 0.54923 0.0
H3316 H 0.72574 0.78779 0.55541 0.0
H3317 H 0.7695 0.77062 0.59431 0.0
H3318 H 0.79216 0.69587 0.55695 0.0
H3319 H 0.7859 0.72376 0.56177 0.0
H3320 H 0.73961 0.73679 0.53722 0.0
C3321 C 0.73621 0.7949 0.55759 0.0
C3322 C 0.76294 0.76344 0.58161 0.0
C3323 C 0.73503 0.81121 0.55421 0.0
C3324 C 0.77997 0.69928 0.55905 0.0
C3325 C 0.7764 0.71525 0.56197 0.0
C3326 C 0.74603 0.74408 0.54995 0.0
C3327 C 0.75072 0.78789 0.56352 0.0
C3328 C 0.75232 0.77037 0.56519 0.0
C3329 C 0.76074 0.72022 0.56426 0.0
C3330 C 0.75709 0.73731 0.5657 0.0
H3331 H 0.77307 0.82126 0.56597 0.0
H3332 H 0.7753 0.79286 0.57099 0.0
H3333 H 0.73565 0.76525 0.53637 0.0
H3334 H 0.7428 0.68429 0.56145 0.0
H3335 H 0.73652 0.7124 0.56595 0.0
C3336 C 0.56301 0.51329 0.81521 0.0
C3337 C 0.57111 0.50153 0.80225 0.0
C3338 C 0.54657 0.51304 0.8167 0.0
C3339 C 0.51212 0.49758 0.78385 0.0
H3340 H 0.48908 0.50781 0.84243 0.0
C3341 C 0.44536 0.48904 0.78894 0.0
C3342 C 0.4364 0.50096 0.80002 0.0
C3343 C 0.46171 0.48893 0.79098 0.0
C3344 C 0.49534 0.50508 0.82587 0.0
H3345 H 0.56829 0.47996 0.78151 0.0
H3346 H 0.53977 0.47948 0.78428 0.0
H3347 H 0.51784 0.50795 0.84289 0.0
H3348 H 0.43762 0.52186 0.82262 0.0
H3349 H 0.46628 0.52178 0.82593 0.0
H3350 H 0.48978 0.49485 0.76669 0.0
C3351 C 0.54606 0.48905 0.79293 0.0
C3352 C 0.51182 0.50515 0.82614 0.0
C3353 C 0.56245 0.48928 0.79147 0.0
C3354 C 0.44418 0.51252 0.81384 0.0
C3355 C 0.4606 0.51243 0.81582 0.0
C3356 C 0.49571 0.49754 0.78356 0.0
C3357 C 0.53789 0.50105 0.80521 0.0
C3358 C 0.52039 0.50127 0.80516 0.0
C3359 C 0.46958 0.50077 0.80406 0.0
C3360 C 0.48709 0.50116 0.80459 0.0
H3361 H 0.56933 0.52288 0.82378 0.0
H3362 H 0.54063 0.5225 0.8262 0.0
H3363 H 0.51833 0.4949 0.76721 0.0
H3364 H 0.43976 0.47985 0.77837 0.0
H3365 H 0.46821 0.47957 0.78214 0.0
C3366 C 0.05884 0.47457 0.29027 0.0
C3367 C 0.07 0.48466 0.30091 0.0
C3368 C 0.04279 0.47768 0.29234 0.0
C3369 C 0.01432 0.50952 0.30299 0.0
H3370 H 0.98551 0.47459 0.31241 0.0
C3371 C 0.94316 0.49603 0.31415 0.0
C3372 C 0.93739 0.50535 0.29502 0.0
C3373 C 0.95936 0.49448 0.31793 0.0
C3374 C 0.99336 0.48453 0.31008 0.0
H3375 H 0.07296 0.50599 0.32215 0.0
H3376 H 0.04477 0.51146 0.32571 0.0
H3377 H 0.01373 0.46993 0.31388 0.0
H3378 H 0.94418 0.52067 0.26528 0.0
H3379 H 0.97232 0.51784 0.27174 0.0
H3380 H 0.9939 0.5241 0.29908 0.0
C3381 C 0.04854 0.50115 0.31567 0.0
C3382 C 0.00956 0.48182 0.31065 0.0
C3383 C 0.06468 0.49799 0.3137 0.0
C3384 C 0.94819 0.51339 0.28018 0.0
C3385 C 0.96436 0.51186 0.284 0.0
C3386 C 0.99809 0.51222 0.30234 0.0
C3387 C 0.03741 0.49098 0.30506 0.0
C3388 C 0.02024 0.49422 0.30669 0.0
C3389 C 0.97017 0.50224 0.30274 0.0
C3390 C 0.98741 0.49971 0.30551 0.0
H3391 H 0.06247 0.46422 0.28023 0.0
H3392 H 0.03458 0.46975 0.28358 0.0
H3393 H 0.02222 0.51932 0.29976 0.0
H3394 H 0.93517 0.48975 0.32601 0.0
H3395 H 0.96343 0.48713 0.33272 0.0
C3396 C 0.06392 0.50697 0.68313 0.0
C3397 C 0.07089 0.50069 0.70412 0.0
C3398 C 0.04761 0.50611 0.67972 0.0
C3399 C 0.01212 0.51048 0.6821 0.0
H3400 H 0.98916 0.47592 0.71136 0.0
C3401 C 0.94436 0.51174 0.69222 0.0
C3402 C 0.9361 0.49742 0.69335 0.0
C3403 C 0.9608 0.51185 0.69095 0.0
C3404 C 0.99529 0.48555 0.70262 0.0
H3405 H 0.06615 0.48896 0.73826 0.0
H3406 H 0.0379 0.48813 0.73301 0.0
H3407 H 0.01751 0.47613 0.71313 0.0
H3408 H 0.93845 0.472 0.6926 0.0
H3409 H 0.96695 0.47209 0.68892 0.0
H3410 H 0.98987 0.51946 0.67049 0.0
C3411 C 0.04492 0.49314 0.71856 0.0
C3412 C 0.01169 0.48584 0.7041 0.0
C3413 C 0.0612 0.49372 0.72171 0.0
C3414 C 0.94453 0.48322 0.69204 0.0
C3415 C 0.96093 0.48331 0.69017 0.0
C3416 C 0.9957 0.51003 0.68019 0.0
C3417 C 0.03784 0.49921 0.69745 0.0
C3418 C 0.02037 0.49845 0.69428 0.0
C3419 C 0.96938 0.49762 0.69023 0.0
C3420 C 0.98699 0.49767 0.69075 0.0
H3421 H 0.07109 0.51238 0.6692 0.0
H3422 H 0.04272 0.51072 0.66305 0.0
H3423 H 0.01828 0.52048 0.67445 0.0
H3424 H 0.93817 0.52288 0.69339 0.0
H3425 H 0.96675 0.52313 0.69142 0.0
C3426 C 0.44257 0.5139 0.20737 0.0
C3427 C 0.43344 0.50228 0.19587 0.0
C3428 C 0.45892 0.51395 0.20505 0.0
C3429 C 0.49239 0.48771 0.19069 0.0
H3430 H 0.51553 0.5271 0.18883 0.0
C3431 C 0.56046 0.48993 0.18437 0.0
C3432 C 0.56789 0.50048 0.20039 0.0
C3433 C 0.54414 0.49039 0.18111 0.0
C3434 C 0.50925 0.516 0.18946 0.0
H3435 H 0.43439 0.48181 0.17231 0.0
H3436 H 0.46297 0.48203 0.16798 0.0
H3437 H 0.4869 0.5275 0.18756 0.0
H3438 H 0.56397 0.51999 0.22512 0.0
H3439 H 0.53561 0.52078 0.21941 0.0
H3440 H 0.51479 0.47623 0.19277 0.0
C3441 C 0.45746 0.49097 0.17915 0.0
C3442 C 0.49281 0.51622 0.18877 0.0
C3443 C 0.44106 0.4909 0.18151 0.0
C3444 C 0.55866 0.51168 0.21265 0.0
C3445 C 0.54238 0.5122 0.20926 0.0
C3446 C 0.50884 0.48749 0.19127 0.0
C3447 C 0.46662 0.50241 0.19108 0.0
C3448 C 0.48415 0.50209 0.18978 0.0
C3449 C 0.53489 0.50148 0.19362 0.0
C3450 C 0.51746 0.50164 0.19106 0.0
H3451 H 0.43712 0.52282 0.21863 0.0
H3452 H 0.46556 0.5228 0.21482 0.0
H3453 H 0.48614 0.47661 0.19182 0.0
H3454 H 0.56722 0.48117 0.1746 0.0
H3455 H 0.53874 0.48206 0.16875 0.0
loop_
_geom_bond_atom_site_label_1
_geom_bond_atom_site_label_2
_geom_bond_distance
_geom_bond_site_symmetry_2
_ccdc_geom_bond_type
C0 C1 1.351 . S
C0 N3 1.368 . S
C0 H5 0.931 . S
C1 C0 1.351 . S
C1 N2 1.373 . S
C1 H29 0.930 . S
N2 C1 1.373 . S
N2 C4 1.340 . S
N3 C0 1.368 . S
N3 C4 1.321 . S
N3 Co6 2.135 . S
C4 N2 1.340 . S
C4 N3 1.321 . S
C4 H28 0.930 . S
H5 C0 0.931 . S
Co6 N3 2.135 . S
Co6 N9 2.121 . S
Co6 O14 2.055 . S
Co6 O17 2.039 . S
Co6 N20 2.140 . S
C7 O8 1.227 . S
C7 O17 1.265 . S
O8 C7 1.227 . S
N9 Co6 2.121 . S
N9 C11 1.375 . S
N9 C12 1.313 . S
C10 C11 1.338 . S
C10 N13 1.377 . S
C10 H30 0.930 1_554 S
C11 N9 1.375 . S
C11 C10 1.338 . S
C11 H15 0.931 . S
C12 N9 1.313 . S
C12 N13 1.344 . S
C12 H16 0.930 . S
N13 C10 1.377 . S
N13 C12 1.344 . S
O14 Co6 2.055 . S
O14 C18 1.253 . S
H15 C11 0.931 . S
H16 C12 0.930 . S
O17 Co6 2.039 . S
O17 C7 1.265 . S
C18 O14 1.253 . S
C18 O19 1.227 . S
O19 C18 1.227 . S
N20 Co6 2.140 . S
N20 C23 1.346 . S
N20 C24 1.345 . S
C21 C22 1.387 . S
C21 C25 1.391 . S
C22 C21 1.387 . S
C22 C23 1.369 . S
C22 H31 0.929 . S
C23 N20 1.346 . S
C23 C22 1.369 . S
C23 H26 0.928 . S
C24 N20 1.345 . S
C24 C25 1.371 . S
C24 H27 0.931 . S
C25 C21 1.391 . S
C25 C24 1.371 . S
C25 H32 0.930 . S
H26 C23 0.928 . S
H27 C24 0.931 . S
H28 C4 0.930 . S
H29 C1 0.930 . S
H30 C10 0.930 1_556 S
H31 C22 0.929 . S
H32 C25 0.930 . S
C33 C34 1.351 . S
C33 N36 1.368 . S
C33 H38 0.931 . S
C34 C33 1.351 . S
C34 N35 1.373 . S
C34 H62 0.930 . S
N35 C34 1.373 . S
N35 C37 1.340 . S
N36 C33 1.368 . S
N36 C37 1.321 . S
N36 Co39 2.135 . S
C37 N35 1.340 . S
C37 N36 1.321 . S
C37 H61 0.930 . S
H38 C33 0.931 . S
Co39 N36 2.135 . S
Co39 N42 2.121 . S
Co39 O47 2.055 . S
Co39 O50 2.039 . S
Co39 N53 2.140 1_545 S
C40 O41 1.227 . S
C40 O50 1.265 1_565 S
O41 C40 1.227 . S
N42 Co39 2.121 . S
N42 C44 1.375 1_545 S
N42 C45 1.313 . S
C43 C44 1.338 . S
C43 N46 1.377 1_565 S
C43 H63 0.930 . S
C44 N42 1.375 1_565 S
C44 C43 1.338 . S
C44 H48 0.931 . S
C45 N42 1.313 . S
C45 N46 1.344 . S
C45 H49 0.930 . S
N46 C43 1.377 1_545 S
N46 C45 1.344 . S
O47 Co39 2.055 . S
O47 C51 1.253 . S
H48 C44 0.931 . S
H49 C45 0.930 . S
O50 Co39 2.039 . S
O50 C40 1.265 1_545 S
C51 O47 1.253 . S
C51 O52 1.227 . S
O52 C51 1.227 . S
N53 Co39 2.140 1_565 S
N53 C56 1.346 . S
N53 C57 1.345 . S
C54 C55 1.387 . S
C54 C58 1.391 . S
C55 C54 1.387 . S
C55 C56 1.369 . S
C55 H64 0.929 . S
C56 N53 1.346 . S
C56 C55 1.369 . S
C56 H59 0.928 . S
C57 N53 1.345 . S
C57 C58 1.371 . S
C57 H60 0.931 . S
C58 C54 1.391 . S
C58 C57 1.371 . S
C58 H65 0.930 . S
H59 C56 0.928 . S
H60 C57 0.931 . S
H61 C37 0.930 . S
H62 C34 0.930 . S
H63 C43 0.930 . S
H64 C55 0.929 . S
H65 C58 0.930 . S
C66 C67 1.351 . S
C66 N69 1.368 . S
C66 H71 0.931 . S
C67 C66 1.351 . S
C67 N68 1.373 . S
C67 H95 0.930 . S
N68 C67 1.373 . S
N68 C70 1.340 . S
N69 C66 1.368 . S
N69 C70 1.321 . S
N69 Co72 2.135 . S
C70 N68 1.340 . S
C70 N69 1.321 . S
C70 H94 0.930 . S
H71 C66 0.931 . S
Co72 N69 2.135 . S
Co72 N75 2.121 . S
Co72 O80 2.055 . S
Co72 O83 2.039 . S
Co72 N86 2.140 . S
C73 O74 1.227 . S
C73 O83 1.265 . S
O74 C73 1.227 . S
N75 Co72 2.121 . S
N75 C77 1.375 . S
N75 C78 1.313 . S
C76 C77 1.338 . S
C76 N79 1.377 . S
C76 H96 0.930 . S
C77 N75 1.375 . S
C77 C76 1.338 . S
C77 H81 0.931 . S
C78 N75 1.313 . S
C78 N79 1.344 . S
C78 H82 0.930 . S
N79 C76 1.377 . S
N79 C78 1.344 . S
O80 Co72 2.055 . S
O80 C84 1.253 . S
H81 C77 0.931 . S
H82 C78 0.930 . S
O83 Co72 2.039 . S
O83 C73 1.265 . S
C84 O80 1.253 . S
C84 O85 1.227 . S
O85 C84 1.227 . S
N86 Co72 2.140 . S
N86 C89 1.346 . S
N86 C90 1.345 . S
C87 C88 1.387 . S
C87 C91 1.391 . S
C88 C87 1.387 . S
C88 C89 1.369 . S
C88 H97 0.929 . S
C89 N86 1.346 . S
C89 C88 1.369 . S
C89 H92 0.928 . S
C90 N86 1.345 . S
C90 C91 1.371 . S
C90 H93 0.931 . S
C91 C87 1.391 . S
C91 C90 1.371 . S
C91 H98 0.930 . S
H92 C89 0.928 . S
H93 C90 0.931 . S
H94 C70 0.930 . S
H95 C67 0.930 . S
H96 C76 0.930 . S
H97 C88 0.929 . S
H98 C91 0.930 . S
C99 C100 1.351 . S
C99 N102 1.368 . S
C99 H104 0.931 . S
C100 C99 1.351 . S
C100 N101 1.373 . S
C100 H128 0.930 . S
N101 C100 1.373 . S
N101 C103 1.340 . S
N102 C99 1.368 . S
N102 C103 1.321 . S
N102 Co105 2.135 . S
C103 N101 1.340 . S
C103 N102 1.321 . S
C103 H127 0.930 . S
H104 C99 0.931 . S
Co105 N102 2.135 . S
Co105 N108 2.121 . S
Co105 O113 2.055 . S
Co105 O116 2.039 . S
Co105 N119 2.140 1_565 S
C106 O107 1.227 . S
C106 O116 1.265 1_545 S
O107 C106 1.227 . S
N108 Co105 2.121 . S
N108 C110 1.375 1_565 S
N108 C111 1.313 . S
C109 C110 1.338 . S
C109 N112 1.377 1_545 S
C109 H129 0.930 . S
C110 N108 1.375 1_545 S
C110 C109 1.338 . S
C110 H114 0.931 . S
C111 N108 1.313 . S
C111 N112 1.344 . S
C111 H115 0.930 . S
N112 C109 1.377 1_565 S
N112 C111 1.344 . S
O113 Co105 2.055 . S
O113 C117 1.253 . S
H114 C110 0.931 . S
H115 C111 0.930 . S
O116 Co105 2.039 . S
O116 C106 1.265 1_565 S
C117 O113 1.253 . S
C117 O118 1.227 . S
O118 C117 1.227 . S
N119 Co105 2.140 1_545 S
N119 C122 1.346 . S
N119 C123 1.345 . S
C120 C121 1.387 . S
C120 C124 1.391 . S
C121 C120 1.387 . S
C121 C122 1.369 . S
C121 H130 0.929 . S
C122 N119 1.346 . S
C122 C121 1.369 . S
C122 H125 0.928 . S
C123 N119 1.345 . S
C123 C124 1.371 . S
C123 H126 0.931 . S
C124 C120 1.391 . S
C124 C123 1.371 . S
C124 H131 0.930 . S
H125 C122 0.928 . S
H126 C123 0.931 . S
H127 C103 0.930 . S
H128 C100 0.930 . S
H129 C109 0.930 . S
H130 C121 0.929 . S
H131 C124 0.930 . S
C132 C133 1.351 . S
C132 N135 1.368 . S
C132 H137 0.931 . S
C133 C132 1.351 . S
C133 N134 1.373 . S
C133 H161 0.930 . S
N134 C133 1.373 . S
N134 C136 1.340 . S
N135 C132 1.368 . S
N135 C136 1.321 . S
N135 Co138 2.135 . S
C136 N134 1.340 . S
C136 N135 1.321 . S
C136 H160 0.930 . S
H137 C132 0.931 . S
Co138 N135 2.135 . S
Co138 N141 2.121 . S
Co138 O146 2.055 . S
Co138 O149 2.039 . S
Co138 N152 2.140 . S
C139 O140 1.227 . S
C139 O149 1.265 . S
O140 C139 1.227 . S
N141 Co138 2.121 . S
N141 C143 1.375 . S
N141 C144 1.313 . S
C142 C143 1.338 . S
C142 N145 1.377 . S
C142 H162 0.930 1_556 S
C143 N141 1.375 . S
C143 C142 1.338 . S
C143 H147 0.931 . S
C144 N141 1.313 . S
C144 N145 1.344 . S
C144 H148 0.930 . S
N145 C142 1.377 . S
N145 C144 1.344 . S
O146 Co138 2.055 . S
O146 C150 1.253 . S
H147 C143 0.931 . S
H148 C144 0.930 . S
O149 Co138 2.039 . S
O149 C139 1.265 . S
C150 O146 1.253 . S
C150 O151 1.227 . S
O151 C150 1.227 . S
N152 Co138 2.140 . S
N152 C155 1.346 . S
N152 C156 1.345 . S
C153 C154 1.387 . S
C153 C157 1.391 . S
C154 C153 1.387 . S
C154 C155 1.369 . S
C154 H163 0.929 . S
C155 N152 1.346 . S
C155 C154 1.369 . S
C155 H158 0.928 . S
C156 N152 1.345 . S
C156 C157 1.371 . S
C156 H159 0.931 . S
C157 C153 1.391 . S
C157 C156 1.371 . S
C157 H164 0.930 . S
H158 C155 0.928 . S
H159 C156 0.931 . S
H160 C136 0.930 . S
H161 C133 0.930 . S
H162 C142 0.930 1_554 S
H163 C154 0.929 . S
H164 C157 0.930 . S
C165 C166 1.351 . S
C165 N168 1.368 . S
C165 H170 0.931 . S
C166 C165 1.351 . S
C166 N167 1.373 . S
C166 H194 0.930 . S
N167 C166 1.373 . S
N167 C169 1.340 . S
N168 C165 1.368 . S
N168 C169 1.321 . S
N168 Co171 2.135 . S
C169 N167 1.340 . S
C169 N168 1.321 . S
C169 H193 0.930 . S
H170 C165 0.931 . S
Co171 N168 2.135 . S
Co171 N174 2.121 . S
Co171 O179 2.055 . S
Co171 O182 2.039 . S
Co171 N185 2.140 1_545 S
C172 O173 1.227 . S
C172 O182 1.265 1_565 S
O173 C172 1.227 . S
N174 Co171 2.121 . S
N174 C176 1.375 1_545 S
N174 C177 1.313 . S
C175 C176 1.338 . S
C175 N178 1.377 1_565 S
C175 H195 0.930 . S
C176 N174 1.375 1_565 S
C176 C175 1.338 . S
C176 H180 0.931 . S
C177 N174 1.313 . S
C177 N178 1.344 . S
C177 H181 0.930 . S
N178 C175 1.377 1_545 S
N178 C177 1.344 . S
O179 Co171 2.055 . S
O179 C183 1.253 . S
H180 C176 0.931 . S
H181 C177 0.930 . S
O182 Co171 2.039 . S
O182 C172 1.265 1_545 S
C183 O179 1.253 . S
C183 O184 1.227 . S
O184 C183 1.227 . S
N185 Co171 2.140 1_565 S
N185 C188 1.346 . S
N185 C189 1.345 . S
C186 C187 1.387 . S
C186 C190 1.391 . S
C187 C186 1.387 . S
C187 C188 1.369 . S
C187 H196 0.929 . S
C188 N185 1.346 . S
C188 C187 1.369 . S
C188 H191 0.928 . S
C189 N185 1.345 . S
C189 C190 1.371 . S
C189 H192 0.931 . S
C190 C186 1.391 . S
C190 C189 1.371 . S
C190 H197 0.930 . S
H191 C188 0.928 . S
H192 C189 0.931 . S
H193 C169 0.930 . S
H194 C166 0.930 . S
H195 C175 0.930 . S
H196 C187 0.929 . S
H197 C190 0.930 . S
C198 C199 1.351 . S
C198 N201 1.368 . S
C198 H203 0.931 . S
C199 C198 1.351 . S
C199 N200 1.373 . S
C199 H227 0.930 . S
N200 C199 1.373 . S
N200 C202 1.340 . S
N201 C198 1.368 . S
N201 C202 1.321 . S
N201 Co204 2.135 . S
C202 N200 1.340 . S
C202 N201 1.321 . S
C202 H226 0.930 . S
H203 C198 0.931 . S
Co204 N201 2.135 . S
Co204 N207 2.121 . S
Co204 O212 2.055 . S
Co204 O215 2.039 . S
Co204 N218 2.140 . S
C205 O206 1.227 . S
C205 O215 1.265 . S
O206 C205 1.227 . S
N207 Co204 2.121 . S
N207 C209 1.375 . S
N207 C210 1.313 . S
C208 C209 1.338 . S
C208 N211 1.377 . S
C208 H228 0.930 . S
C209 N207 1.375 . S
C209 C208 1.338 . S
C209 H213 0.931 . S
C210 N207 1.313 . S
C210 N211 1.344 . S
C210 H214 0.930 . S
N211 C208 1.377 . S
N211 C210 1.344 . S
O212 Co204 2.055 . S
O212 C216 1.253 . S
H213 C209 0.931 . S
H214 C210 0.930 . S
O215 Co204 2.039 . S
O215 C205 1.265 . S
C216 O212 1.253 . S
C216 O217 1.227 . S
O217 C216 1.227 . S
N218 Co204 2.140 . S
N218 C221 1.346 . S
N218 C222 1.345 . S
C219 C220 1.387 . S
C219 C223 1.391 . S
C220 C219 1.387 . S
C220 C221 1.369 . S
C220 H229 0.929 . S
C221 N218 1.346 . S
C221 C220 1.369 . S
C221 H224 0.928 . S
C222 N218 1.345 . S
C222 C223 1.371 . S
C222 H225 0.931 . S
C223 C219 1.391 . S
C223 C222 1.371 . S
C223 H230 0.930 . S
H224 C221 0.928 . S
H225 C222 0.931 . S
H226 C202 0.930 . S
H227 C199 0.930 . S
H228 C208 0.930 . S
H229 C220 0.929 . S
H230 C223 0.930 . S
C231 C232 1.351 . S
C231 N234 1.368 . S
C231 H236 0.931 . S
C232 C231 1.351 . S
C232 N233 1.373 . S
C232 H260 0.930 . S
N233 C232 1.373 . S
N233 C235 1.340 . S
N234 C231 1.368 . S
N234 C235 1.321 . S
N234 Co237 2.135 . S
C235 N233 1.340 . S
C235 N234 1.321 . S
C235 H259 0.930 . S
H236 C231 0.931 . S
Co237 N234 2.135 . S
Co237 N240 2.121 . S
Co237 O245 2.055 . S
Co237 O248 2.039 . S
Co237 N251 2.140 1_565 S
C238 O239 1.227 . S
C238 O248 1.265 1_545 S
O239 C238 1.227 . S
N240 Co237 2.121 . S
N240 C242 1.375 1_565 S
N240 C243 1.313 . S
C241 C242 1.338 . S
C241 N244 1.377 1_545 S
C241 H261 0.930 . S
C242 N240 1.375 1_545 S
C242 C241 1.338 . S
C242 H246 0.931 . S
C243 N240 1.313 . S
C243 N244 1.344 . S
C243 H247 0.930 . S
N244 C241 1.377 1_565 S
N244 C243 1.344 . S
O245 Co237 2.055 . S
O245 C249 1.253 . S
H246 C242 0.931 . S
H247 C243 0.930 . S
O248 Co237 2.039 . S
O248 C238 1.265 1_565 S
C249 O245 1.253 . S
C249 O250 1.227 . S
O250 C249 1.227 . S
N251 Co237 2.140 1_545 S
N251 C254 1.346 . S
N251 C255 1.345 . S
C252 C253 1.387 . S
C252 C256 1.391 . S
C253 C252 1.387 . S
C253 C254 1.369 . S
C253 H262 0.929 . S
C254 N251 1.346 . S
C254 C253 1.369 . S
C254 H257 0.928 . S
C255 N251 1.345 . S
C255 C256 1.371 . S
C255 H258 0.931 . S
C256 C252 1.391 . S
C256 C255 1.371 . S
C256 H263 0.930 . S
H257 C254 0.928 . S
H258 C255 0.931 . S
H259 C235 0.930 . S
H260 C232 0.930 . S
H261 C241 0.930 . S
H262 C253 0.929 . S
H263 C256 0.930 . S
C264 C265 1.351 . S
C264 N267 1.368 . S
C264 H269 0.931 . S
C265 C264 1.351 . S
C265 N266 1.373 . S
C265 H293 0.930 . S
N266 C265 1.373 . S
N266 C268 1.340 . S
N267 C264 1.368 . S
N267 C268 1.321 . S
N267 Co270 2.135 . S
C268 N266 1.340 . S
C268 N267 1.321 . S
C268 H292 0.930 . S
H269 C264 0.931 . S
Co270 N267 2.135 . S
Co270 N273 2.121 . S
Co270 O278 2.055 . S
Co270 O281 2.039 . S
Co270 N284 2.140 . S
C271 O272 1.227 . S
C271 O281 1.265 . S
O272 C271 1.227 . S
N273 Co270 2.121 . S
N273 C275 1.375 . S
N273 C276 1.313 . S
C274 C275 1.338 . S
C274 N277 1.377 . S
C274 H294 0.930 1_556 S
C275 N273 1.375 . S
C275 C274 1.338 . S
C275 H279 0.931 . S
C276 N273 1.313 . S
C276 N277 1.344 . S
C276 H280 0.930 . S
N277 C274 1.377 . S
N277 C276 1.344 . S
O278 Co270 2.055 . S
O278 C282 1.253 . S
H279 C275 0.931 . S
H280 C276 0.930 . S
O281 Co270 2.039 . S
O281 C271 1.265 . S
C282 O278 1.253 . S
C282 O283 1.227 . S
O283 C282 1.227 . S
N284 Co270 2.140 . S
N284 C287 1.346 . S
N284 C288 1.345 . S
C285 C286 1.387 . S
C285 C289 1.391 . S
C286 C285 1.387 . S
C286 C287 1.369 . S
C286 H295 0.929 . S
C287 N284 1.346 . S
C287 C286 1.369 . S
C287 H290 0.928 . S
C288 N284 1.345 . S
C288 C289 1.371 . S
C288 H291 0.931 . S
C289 C285 1.391 . S
C289 C288 1.371 . S
C289 H296 0.930 . S
H290 C287 0.928 . S
H291 C288 0.931 . S
H292 C268 0.930 . S
H293 C265 0.930 . S
H294 C274 0.930 1_554 S
H295 C286 0.929 . S
H296 C289 0.930 . S
C297 C298 1.351 . S
C297 N300 1.368 . S
C297 H302 0.931 . S
C298 C297 1.351 . S
C298 N299 1.373 . S
C298 H326 0.930 . S
N299 C298 1.373 . S
N299 C301 1.340 . S
N300 C297 1.368 . S
N300 C301 1.321 . S
N300 Co303 2.135 . S
C301 N299 1.340 . S
C301 N300 1.321 . S
C301 H325 0.930 . S
H302 C297 0.931 . S
Co303 N300 2.135 . S
Co303 N306 2.121 . S
Co303 O311 2.055 . S
Co303 O314 2.039 . S
Co303 N317 2.140 1_565 S
C304 O305 1.227 . S
C304 O314 1.265 1_545 S
O305 C304 1.227 . S
N306 Co303 2.121 . S
N306 C308 1.375 1_565 S
N306 C309 1.313 . S
C307 C308 1.338 . S
C307 N310 1.377 1_545 S
C307 H327 0.930 . S
C308 N306 1.375 1_545 S
C308 C307 1.338 . S
C308 H312 0.931 . S
C309 N306 1.313 . S
C309 N310 1.344 . S
C309 H313 0.930 . S
N310 C307 1.377 1_565 S
N310 C309 1.344 . S
O311 Co303 2.055 . S
O311 C315 1.253 . S
H312 C308 0.931 . S
H313 C309 0.930 . S
O314 Co303 2.039 . S
O314 C304 1.265 1_565 S
C315 O311 1.253 . S
C315 O316 1.227 . S
O316 C315 1.227 . S
N317 Co303 2.140 1_545 S
N317 C320 1.346 . S
N317 C321 1.345 . S
C318 C319 1.387 . S
C318 C322 1.391 . S
C319 C318 1.387 . S
C319 C320 1.369 . S
C319 H328 0.929 . S
C320 N317 1.346 . S
C320 C319 1.369 . S
C320 H323 0.928 . S
C321 N317 1.345 . S
C321 C322 1.371 . S
C321 H324 0.931 . S
C322 C318 1.391 . S
C322 C321 1.371 . S
C322 H329 0.930 . S
H323 C320 0.928 . S
H324 C321 0.931 . S
H325 C301 0.930 . S
H326 C298 0.930 . S
H327 C307 0.930 . S
H328 C319 0.929 . S
H329 C322 0.930 . S
C330 C331 1.351 . S
C330 N333 1.368 . S
C330 H335 0.931 . S
C331 C330 1.351 . S
C331 N332 1.373 . S
C331 H359 0.930 . S
N332 C331 1.373 . S
N332 C334 1.340 . S
N333 C330 1.368 . S
N333 C334 1.321 . S
N333 Co336 2.135 . S
C334 N332 1.340 . S
C334 N333 1.321 . S
C334 H358 0.930 . S
H335 C330 0.931 . S
Co336 N333 2.135 . S
Co336 N339 2.121 . S
Co336 O344 2.055 . S
Co336 O347 2.039 . S
Co336 N350 2.140 . S
C337 O338 1.227 . S
C337 O347 1.265 . S
O338 C337 1.227 . S
N339 Co336 2.121 . S
N339 C341 1.375 . S
N339 C342 1.313 . S
C340 C341 1.338 . S
C340 N343 1.377 . S
C340 H360 0.930 . S
C341 N339 1.375 . S
C341 C340 1.338 . S
C341 H345 0.931 . S
C342 N339 1.313 . S
C342 N343 1.344 . S
C342 H346 0.930 . S
N343 C340 1.377 . S
N343 C342 1.344 . S
O344 Co336 2.055 . S
O344 C348 1.253 . S
H345 C341 0.931 . S
H346 C342 0.930 . S
O347 Co336 2.039 . S
O347 C337 1.265 . S
C348 O344 1.253 . S
C348 O349 1.227 . S
O349 C348 1.227 . S
N350 Co336 2.140 . S
N350 C353 1.346 . S
N350 C354 1.345 . S
C351 C352 1.387 . S
C351 C355 1.391 . S
C352 C351 1.387 . S
C352 C353 1.369 . S
C352 H361 0.929 . S
C353 N350 1.346 . S
C353 C352 1.369 . S
C353 H356 0.928 . S
C354 N350 1.345 . S
C354 C355 1.371 . S
C354 H357 0.931 . S
C355 C351 1.391 . S
C355 C354 1.371 . S
C355 H362 0.930 . S
H356 C353 0.928 . S
H357 C354 0.931 . S
H358 C334 0.930 . S
H359 C331 0.930 . S
H360 C340 0.930 . S
H361 C352 0.929 . S
H362 C355 0.930 . S
C363 C364 1.351 . S
C363 N366 1.368 . S
C363 H368 0.931 . S
C364 C363 1.351 . S
C364 N365 1.373 . S
C364 H392 0.930 . S
N365 C364 1.373 . S
N365 C367 1.340 . S
N366 C363 1.368 . S
N366 C367 1.321 . S
N366 Co369 2.135 . S
C367 N365 1.340 . S
C367 N366 1.321 . S
C367 H391 0.930 . S
H368 C363 0.931 . S
Co369 N366 2.135 . S
Co369 N372 2.121 . S
Co369 O377 2.055 . S
Co369 O380 2.039 . S
Co369 N383 2.140 1_545 S
C370 O371 1.227 . S
C370 O380 1.265 1_565 S
O371 C370 1.227 . S
N372 Co369 2.121 . S
N372 C374 1.375 1_545 S
N372 C375 1.313 . S
C373 C374 1.338 . S
C373 N376 1.377 1_565 S
C373 H393 0.930 . S
C374 N372 1.375 1_565 S
C374 C373 1.338 . S
C374 H378 0.931 . S
C375 N372 1.313 . S
C375 N376 1.344 . S
C375 H379 0.930 . S
N376 C373 1.377 1_545 S
N376 C375 1.344 . S
O377 Co369 2.055 . S
O377 C381 1.253 . S
H378 C374 0.931 . S
H379 C375 0.930 . S
O380 Co369 2.039 . S
O380 C370 1.265 1_545 S
C381 O377 1.253 . S
C381 O382 1.227 . S
O382 C381 1.227 . S
N383 Co369 2.140 1_565 S
N383 C386 1.346 . S
N383 C387 1.345 . S
C384 C385 1.387 . S
C384 C388 1.391 . S
C385 C384 1.387 . S
C385 C386 1.369 . S
C385 H394 0.929 . S
C386 N383 1.346 . S
C386 C385 1.369 . S
C386 H389 0.928 . S
C387 N383 1.345 . S
C387 C388 1.371 . S
C387 H390 0.931 . S
C388 C384 1.391 . S
C388 C387 1.371 . S
C388 H395 0.930 . S
H389 C386 0.928 . S
H390 C387 0.931 . S
H391 C367 0.930 . S
H392 C364 0.930 . S
H393 C373 0.930 . S
H394 C385 0.929 . S
H395 C388 0.930 . S
C396 C397 1.351 . S
C396 N399 1.368 . S
C396 H401 0.931 . S
C397 C396 1.351 . S
C397 N398 1.373 . S
C397 H425 0.930 . S
N398 C397 1.373 . S
N398 C400 1.340 . S
N399 C396 1.368 . S
N399 C400 1.321 . S
N399 Co402 2.135 . S
C400 N398 1.340 . S
C400 N399 1.321 . S
C400 H424 0.930 . S
H401 C396 0.931 . S
Co402 N399 2.135 . S
Co402 N405 2.121 . S
Co402 O410 2.055 . S
Co402 O413 2.039 . S
Co402 N416 2.140 . S
C403 O404 1.227 . S
C403 O413 1.265 . S
O404 C403 1.227 . S
N405 Co402 2.121 . S
N405 C407 1.375 . S
N405 C408 1.313 . S
C406 C407 1.338 . S
C406 N409 1.377 . S
C406 H426 0.930 1_554 S
C407 N405 1.375 . S
C407 C406 1.338 . S
C407 H411 0.931 . S
C408 N405 1.313 . S
C408 N409 1.344 . S
C408 H412 0.930 . S
N409 C406 1.377 . S
N409 C408 1.344 . S
O410 Co402 2.055 . S
O410 C414 1.253 . S
H411 C407 0.931 . S
H412 C408 0.930 . S
O413 Co402 2.039 . S
O413 C403 1.265 . S
C414 O410 1.253 . S
C414 O415 1.227 . S
O415 C414 1.227 . S
N416 Co402 2.140 . S
N416 C419 1.346 . S
N416 C420 1.345 . S
C417 C418 1.387 . S
C417 C421 1.391 . S
C418 C417 1.387 . S
C418 C419 1.369 . S
C418 H427 0.929 . S
C419 N416 1.346 . S
C419 C418 1.369 . S
C419 H422 0.928 . S
C420 N416 1.345 . S
C420 C421 1.371 . S
C420 H423 0.931 . S
C421 C417 1.391 . S
C421 C420 1.371 . S
C421 H428 0.930 . S
H422 C419 0.928 . S
H423 C420 0.931 . S
H424 C400 0.930 . S
H425 C397 0.930 . S
H426 C406 0.930 1_556 S
H427 C418 0.929 . S
H428 C421 0.930 . S
C429 C430 1.351 . S
C429 N432 1.368 . S
C429 H434 0.931 . S
C430 C429 1.351 . S
C430 N431 1.373 . S
C430 H458 0.930 . S
N431 C430 1.373 . S
N431 C433 1.340 . S
N432 C429 1.368 . S
N432 C433 1.321 . S
N432 Co435 2.135 . S
C433 N431 1.340 . S
C433 N432 1.321 . S
C433 H457 0.930 . S
H434 C429 0.931 . S
Co435 N432 2.135 . S
Co435 N438 2.121 . S
Co435 O443 2.055 . S
Co435 O446 2.039 . S
Co435 N449 2.140 1_565 S
C436 O437 1.227 . S
C436 O446 1.265 1_545 S
O437 C436 1.227 . S
N438 Co435 2.121 . S
N438 C440 1.375 1_565 S
N438 C441 1.313 . S
C439 C440 1.338 . S
C439 N442 1.377 1_545 S
C439 H459 0.930 . S
C440 N438 1.375 1_545 S
C440 C439 1.338 . S
C440 H444 0.931 . S
C441 N438 1.313 . S
C441 N442 1.344 . S
C441 H445 0.930 . S
N442 C439 1.377 1_565 S
N442 C441 1.344 . S
O443 Co435 2.055 . S
O443 C447 1.253 . S
H444 C440 0.931 . S
H445 C441 0.930 . S
O446 Co435 2.039 . S
O446 C436 1.265 1_565 S
C447 O443 1.253 . S
C447 O448 1.227 . S
O448 C447 1.227 . S
N449 Co435 2.140 1_545 S
N449 C452 1.346 . S
N449 C453 1.345 . S
C450 C451 1.387 . S
C450 C454 1.391 . S
C451 C450 1.387 . S
C451 C452 1.369 . S
C451 H460 0.929 . S
C452 N449 1.346 . S
C452 C451 1.369 . S
C452 H455 0.928 . S
C453 N449 1.345 . S
C453 C454 1.371 . S
C453 H456 0.931 . S
C454 C450 1.391 . S
C454 C453 1.371 . S
C454 H461 0.930 . S
H455 C452 0.928 . S
H456 C453 0.931 . S
H457 C433 0.930 . S
H458 C430 0.930 . S
H459 C439 0.930 . S
H460 C451 0.929 . S
H461 C454 0.930 . S
C462 C463 1.351 . S
C462 N465 1.368 . S
C462 H467 0.931 . S
C463 C462 1.351 . S
C463 N464 1.373 . S
C463 H491 0.930 . S
N464 C463 1.373 . S
N464 C466 1.340 . S
N465 C462 1.368 . S
N465 C466 1.321 . S
N465 Co468 2.135 . S
C466 N464 1.340 . S
C466 N465 1.321 . S
C466 H490 0.930 . S
H467 C462 0.931 . S
Co468 N465 2.135 . S
Co468 N471 2.121 . S
Co468 O476 2.055 . S
Co468 O479 2.039 . S
Co468 N482 2.140 . S
C469 O470 1.227 . S
C469 O479 1.265 . S
O470 C469 1.227 . S
N471 Co468 2.121 . S
N471 C473 1.375 . S
N471 C474 1.313 . S
C472 C473 1.338 . S
C472 N475 1.377 . S
C472 H492 0.930 . S
C473 N471 1.375 . S
C473 C472 1.338 . S
C473 H477 0.931 . S
C474 N471 1.313 . S
C474 N475 1.344 . S
C474 H478 0.930 . S
N475 C472 1.377 . S
N475 C474 1.344 . S
O476 Co468 2.055 . S
O476 C480 1.253 . S
H477 C473 0.931 . S
H478 C474 0.930 . S
O479 Co468 2.039 . S
O479 C469 1.265 . S
C480 O476 1.253 . S
C480 O481 1.227 . S
O481 C480 1.227 . S
N482 Co468 2.140 . S
N482 C485 1.346 . S
N482 C486 1.345 . S
C483 C484 1.387 . S
C483 C487 1.391 . S
C484 C483 1.387 . S
C484 C485 1.369 . S
C484 H493 0.929 . S
C485 N482 1.346 . S
C485 C484 1.369 . S
C485 H488 0.928 . S
C486 N482 1.345 . S
C486 C487 1.371 . S
C486 H489 0.931 . S
C487 C483 1.391 . S
C487 C486 1.371 . S
C487 H494 0.930 . S
H488 C485 0.928 . S
H489 C486 0.931 . S
H490 C466 0.930 . S
H491 C463 0.930 . S
H492 C472 0.930 . S
H493 C484 0.929 . S
H494 C487 0.930 . S
C495 C496 1.351 . S
C495 N498 1.368 . S
C495 H500 0.931 . S
C496 C495 1.351 . S
C496 N497 1.373 . S
C496 H524 0.930 . S
N497 C496 1.373 . S
N497 C499 1.340 . S
N498 C495 1.368 . S
N498 C499 1.321 . S
N498 Co501 2.135 . S
C499 N497 1.340 . S
C499 N498 1.321 . S
C499 H523 0.930 . S
H500 C495 0.931 . S
Co501 N498 2.135 . S
Co501 N504 2.121 . S
Co501 O509 2.055 . S
Co501 O512 2.039 . S
Co501 N515 2.140 1_545 S
C502 O503 1.227 . S
C502 O512 1.265 1_565 S
O503 C502 1.227 . S
N504 Co501 2.121 . S
N504 C506 1.375 1_545 S
N504 C507 1.313 . S
C505 C506 1.338 . S
C505 N508 1.377 1_565 S
C505 H525 0.930 . S
C506 N504 1.375 1_565 S
C506 C505 1.338 . S
C506 H510 0.931 . S
C507 N504 1.313 . S
C507 N508 1.344 . S
C507 H511 0.930 . S
N508 C505 1.377 1_545 S
N508 C507 1.344 . S
O509 Co501 2.055 . S
O509 C513 1.253 . S
H510 C506 0.931 . S
H511 C507 0.930 . S
O512 Co501 2.039 . S
O512 C502 1.265 1_545 S
C513 O509 1.253 . S
C513 O514 1.227 . S
O514 C513 1.227 . S
N515 Co501 2.140 1_565 S
N515 C518 1.346 . S
N515 C519 1.345 . S
C516 C517 1.387 . S
C516 C520 1.391 . S
C517 C516 1.387 . S
C517 C518 1.369 . S
C517 H526 0.929 . S
C518 N515 1.346 . S
C518 C517 1.369 . S
C518 H521 0.928 . S
C519 N515 1.345 . S
C519 C520 1.371 . S
C519 H522 0.931 . S
C520 C516 1.391 . S
C520 C519 1.371 . S
C520 H527 0.930 . S
H521 C518 0.928 . S
H522 C519 0.931 . S
H523 C499 0.930 . S
H524 C496 0.930 . S
H525 C505 0.930 . S
H526 C517 0.929 . S
H527 C520 0.930 . S
C528 C529 1.351 . S
C528 N531 1.368 . S
C528 H533 0.931 . S
C529 C528 1.351 . S
C529 N530 1.373 . S
C529 H557 0.930 . S
N530 C529 1.373 . S
N530 C532 1.340 . S
N531 C528 1.368 . S
N531 C532 1.321 . S
N531 Co534 2.135 . S
C532 N530 1.340 . S
C532 N531 1.321 . S
C532 H556 0.930 . S
H533 C528 0.931 . S
Co534 N531 2.135 . S
Co534 N537 2.121 . S
Co534 O542 2.055 . S
Co534 O545 2.039 . S
Co534 N548 2.140 . S
C535 O536 1.227 . S
C535 O545 1.265 . S
O536 C535 1.227 . S
N537 Co534 2.121 . S
N537 C539 1.375 . S
N537 C540 1.313 . S
C538 C539 1.338 . S
C538 N541 1.377 . S
C538 H558 0.930 . S
C539 N537 1.375 . S
C539 C538 1.338 . S
C539 H543 0.931 . S
C540 N537 1.313 . S
C540 N541 1.344 . S
C540 H544 0.930 . S
N541 C538 1.377 . S
N541 C540 1.344 . S
O542 Co534 2.055 . S
O542 C546 1.253 . S
H543 C539 0.931 . S
H544 C540 0.930 . S
O545 Co534 2.039 . S
O545 C535 1.265 . S
C546 O542 1.253 . S
C546 O547 1.227 . S
O547 C546 1.227 . S
N548 Co534 2.140 . S
N548 C551 1.346 . S
N548 C552 1.345 . S
C549 C550 1.387 . S
C549 C553 1.391 . S
C550 C549 1.387 . S
C550 C551 1.369 . S
C550 H559 0.929 . S
C551 N548 1.346 . S
C551 C550 1.369 . S
C551 H554 0.928 . S
C552 N548 1.345 . S
C552 C553 1.371 . S
C552 H555 0.931 . S
C553 C549 1.391 . S
C553 C552 1.371 . S
C553 H560 0.930 . S
H554 C551 0.928 . S
H555 C552 0.931 . S
H556 C532 0.930 . S
H557 C529 0.930 . S
H558 C538 0.930 . S
H559 C550 0.929 . S
H560 C553 0.930 . S
C561 C562 1.351 . S
C561 N564 1.368 . S
C561 H566 0.931 . S
C562 C561 1.351 . S
C562 N563 1.373 . S
C562 H590 0.930 . S
N563 C562 1.373 . S
N563 C565 1.340 . S
N564 C561 1.368 . S
N564 C565 1.321 . S
N564 Co567 2.135 . S
C565 N563 1.340 . S
C565 N564 1.321 . S
C565 H589 0.930 . S
H566 C561 0.931 . S
Co567 N564 2.135 . S
Co567 N570 2.121 . S
Co567 O575 2.055 . S
Co567 O578 2.039 . S
Co567 N581 2.140 . S
C568 O569 1.227 . S
C568 O578 1.265 . S
O569 C568 1.227 . S
N570 Co567 2.121 . S
N570 C572 1.375 . S
N570 C573 1.313 . S
C571 C572 1.338 . S
C571 N574 1.377 . S
C571 H591 0.930 . S
C572 N570 1.375 . S
C572 C571 1.338 . S
C572 H576 0.931 . S
C573 N570 1.313 . S
C573 N574 1.344 . S
C573 H577 0.930 . S
N574 C571 1.377 . S
N574 C573 1.344 . S
O575 Co567 2.055 . S
O575 C579 1.253 . S
H576 C572 0.931 . S
H577 C573 0.930 . S
O578 Co567 2.039 . S
O578 C568 1.265 . S
C579 O575 1.253 . S
C579 O580 1.227 . S
O580 C579 1.227 . S
N581 Co567 2.140 . S
N581 C584 1.346 . S
N581 C585 1.345 . S
C582 C583 1.387 . S
C582 C586 1.391 . S
C583 C582 1.387 . S
C583 C584 1.369 . S
C583 H592 0.929 . S
C584 N581 1.346 . S
C584 C583 1.369 . S
C584 H587 0.928 . S
C585 N581 1.345 . S
C585 C586 1.371 . S
C585 H588 0.931 . S
C586 C582 1.391 . S
C586 C585 1.371 . S
C586 H593 0.930 . S
H587 C584 0.928 . S
H588 C585 0.931 . S
H589 C565 0.930 . S
H590 C562 0.930 . S
H591 C571 0.930 . S
H592 C583 0.929 . S
H593 C586 0.930 . S
C594 C595 1.351 . S
C594 N597 1.368 . S
C594 H599 0.931 . S
C595 C594 1.351 . S
C595 N596 1.373 . S
C595 H623 0.930 . S
N596 C595 1.373 . S
N596 C598 1.340 . S
N597 C594 1.368 . S
N597 C598 1.321 . S
N597 Co600 2.135 . S
C598 N596 1.340 . S
C598 N597 1.321 . S
C598 H622 0.930 . S
H599 C594 0.931 . S
Co600 N597 2.135 . S
Co600 N603 2.121 . S
Co600 O608 2.055 . S
Co600 O611 2.039 . S
Co600 N614 2.140 . S
C601 O602 1.227 . S
C601 O611 1.265 . S
O602 C601 1.227 . S
N603 Co600 2.121 . S
N603 C605 1.375 . S
N603 C606 1.313 . S
C604 C605 1.338 . S
C604 N607 1.377 . S
C604 H624 0.930 1_554 S
C605 N603 1.375 . S
C605 C604 1.338 . S
C605 H609 0.931 . S
C606 N603 1.313 . S
C606 N607 1.344 . S
C606 H610 0.930 . S
N607 C604 1.377 . S
N607 C606 1.344 . S
O608 Co600 2.055 . S
O608 C612 1.253 . S
H609 C605 0.931 . S
H610 C606 0.930 . S
O611 Co600 2.039 . S
O611 C601 1.265 . S
C612 O608 1.253 . S
C612 O613 1.227 . S
O613 C612 1.227 . S
N614 Co600 2.140 . S
N614 C617 1.346 . S
N614 C618 1.345 . S
C615 C616 1.387 . S
C615 C619 1.391 . S
C616 C615 1.387 . S
C616 C617 1.369 . S
C616 H625 0.929 . S
C617 N614 1.346 . S
C617 C616 1.369 . S
C617 H620 0.928 . S
C618 N614 1.345 . S
C618 C619 1.371 . S
C618 H621 0.931 . S
C619 C615 1.391 . S
C619 C618 1.371 . S
C619 H626 0.930 . S
H620 C617 0.928 . S
H621 C618 0.931 . S
H622 C598 0.930 . S
H623 C595 0.930 . S
H624 C604 0.930 1_556 S
H625 C616 0.929 . S
H626 C619 0.930 . S
C627 C628 1.351 . S
C627 N630 1.368 . S
C627 H632 0.931 . S
C628 C627 1.351 . S
C628 N629 1.373 . S
C628 H656 0.930 . S
N629 C628 1.373 . S
N629 C631 1.340 . S
N630 C627 1.368 . S
N630 C631 1.321 . S
N630 Co633 2.135 . S
C631 N629 1.340 . S
C631 N630 1.321 . S
C631 H655 0.930 . S
H632 C627 0.931 . S
Co633 N630 2.135 . S
Co633 N636 2.121 . S
Co633 O641 2.055 . S
Co633 O644 2.039 . S
Co633 N647 2.140 . S
C634 O635 1.227 . S
C634 O644 1.265 . S
O635 C634 1.227 . S
N636 Co633 2.121 . S
N636 C638 1.375 . S
N636 C639 1.313 . S
C637 C638 1.338 . S
C637 N640 1.377 . S
C637 H657 0.930 . S
C638 N636 1.375 . S
C638 C637 1.338 . S
C638 H642 0.931 . S
C639 N636 1.313 . S
C639 N640 1.344 . S
C639 H643 0.930 . S
N640 C637 1.377 . S
N640 C639 1.344 . S
O641 Co633 2.055 . S
O641 C645 1.253 . S
H642 C638 0.931 . S
H643 C639 0.930 . S
O644 Co633 2.039 . S
O644 C634 1.265 . S
C645 O641 1.253 . S
C645 O646 1.227 . S
O646 C645 1.227 . S
N647 Co633 2.140 . S
N647 C650 1.346 . S
N647 C651 1.345 . S
C648 C649 1.387 . S
C648 C652 1.391 . S
C649 C648 1.387 . S
C649 C650 1.369 . S
C649 H658 0.929 . S
C650 N647 1.346 . S
C650 C649 1.369 . S
C650 H653 0.928 . S
C651 N647 1.345 . S
C651 C652 1.371 . S
C651 H654 0.931 . S
C652 C648 1.391 . S
C652 C651 1.371 . S
C652 H659 0.930 . S
H653 C650 0.928 . S
H654 C651 0.931 . S
H655 C631 0.930 . S
H656 C628 0.930 . S
H657 C637 0.930 . S
H658 C649 0.929 . S
H659 C652 0.930 . S
C660 C661 1.351 . S
C660 N663 1.368 . S
C660 H665 0.931 . S
C661 C660 1.351 . S
C661 N662 1.373 . S
C661 H689 0.930 . S
N662 C661 1.373 . S
N662 C664 1.340 . S
N663 C660 1.368 . S
N663 C664 1.321 . S
N663 Co666 2.135 . S
C664 N662 1.340 . S
C664 N663 1.321 . S
C664 H688 0.930 . S
H665 C660 0.931 . S
Co666 N663 2.135 . S
Co666 N669 2.121 . S
Co666 O674 2.055 . S
Co666 O677 2.039 . S
Co666 N680 2.140 . S
C667 O668 1.227 . S
C667 O677 1.265 . S
O668 C667 1.227 . S
N669 Co666 2.121 . S
N669 C671 1.375 . S
N669 C672 1.313 . S
C670 C671 1.338 . S
C670 N673 1.377 . S
C670 H690 0.930 . S
C671 N669 1.375 . S
C671 C670 1.338 . S
C671 H675 0.931 . S
C672 N669 1.313 . S
C672 N673 1.344 . S
C672 H676 0.930 . S
N673 C670 1.377 . S
N673 C672 1.344 . S
O674 Co666 2.055 . S
O674 C678 1.253 . S
H675 C671 0.931 . S
H676 C672 0.930 . S
O677 Co666 2.039 . S
O677 C667 1.265 . S
C678 O674 1.253 . S
C678 O679 1.227 . S
O679 C678 1.227 . S
N680 Co666 2.140 . S
N680 C683 1.346 . S
N680 C684 1.345 . S
C681 C682 1.387 . S
C681 C685 1.391 . S
C682 C681 1.387 . S
C682 C683 1.369 . S
C682 H691 0.929 . S
C683 N680 1.346 . S
C683 C682 1.369 . S
C683 H686 0.928 . S
C684 N680 1.345 . S
C684 C685 1.371 . S
C684 H687 0.931 . S
C685 C681 1.391 . S
C685 C684 1.371 . S
C685 H692 0.930 . S
H686 C683 0.928 . S
H687 C684 0.931 . S
H688 C664 0.930 . S
H689 C661 0.930 . S
H690 C670 0.930 . S
H691 C682 0.929 . S
H692 C685 0.930 . S
C693 C694 1.351 . S
C693 N696 1.368 . S
C693 H698 0.931 . S
C694 C693 1.351 . S
C694 N695 1.373 . S
C694 H722 0.930 . S
N695 C694 1.373 . S
N695 C697 1.340 . S
N696 C693 1.368 . S
N696 C697 1.321 . S
N696 Co699 2.135 . S
C697 N695 1.340 . S
C697 N696 1.321 . S
C697 H721 0.930 . S
H698 C693 0.931 . S
Co699 N696 2.135 . S
Co699 N702 2.121 . S
Co699 O707 2.055 . S
Co699 O710 2.039 . S
Co699 N713 2.140 . S
C700 O701 1.227 . S
C700 O710 1.265 . S
O701 C700 1.227 . S
N702 Co699 2.121 . S
N702 C704 1.375 . S
N702 C705 1.313 . S
C703 C704 1.338 . S
C703 N706 1.377 . S
C703 H723 0.930 . S
C704 N702 1.375 . S
C704 C703 1.338 . S
C704 H708 0.931 . S
C705 N702 1.313 . S
C705 N706 1.344 . S
C705 H709 0.930 . S
N706 C703 1.377 . S
N706 C705 1.344 . S
O707 Co699 2.055 . S
O707 C711 1.253 . S
H708 C704 0.931 . S
H709 C705 0.930 . S
O710 Co699 2.039 . S
O710 C700 1.265 . S
C711 O707 1.253 . S
C711 O712 1.227 . S
O712 C711 1.227 . S
N713 Co699 2.140 . S
N713 C716 1.346 . S
N713 C717 1.345 . S
C714 C715 1.387 . S
C714 C718 1.391 . S
C715 C714 1.387 . S
C715 C716 1.369 . S
C715 H724 0.929 . S
C716 N713 1.346 . S
C716 C715 1.369 . S
C716 H719 0.928 . S
C717 N713 1.345 . S
C717 C718 1.371 . S
C717 H720 0.931 . S
C718 C714 1.391 . S
C718 C717 1.371 . S
C718 H725 0.930 . S
H719 C716 0.928 . S
H720 C717 0.931 . S
H721 C697 0.930 . S
H722 C694 0.930 . S
H723 C703 0.930 . S
H724 C715 0.929 . S
H725 C718 0.930 . S
C726 C727 1.351 . S
C726 N729 1.368 . S
C726 H731 0.931 . S
C727 C726 1.351 . S
C727 N728 1.373 . S
C727 H755 0.930 . S
N728 C727 1.373 . S
N728 C730 1.340 . S
N729 C726 1.368 . S
N729 C730 1.321 . S
N729 Co732 2.135 . S
C730 N728 1.340 . S
C730 N729 1.321 . S
C730 H754 0.930 . S
H731 C726 0.931 . S
Co732 N729 2.135 . S
Co732 N735 2.121 . S
Co732 O740 2.055 . S
Co732 O743 2.039 . S
Co732 N746 2.140 . S
C733 O734 1.227 . S
C733 O743 1.265 . S
O734 C733 1.227 . S
N735 Co732 2.121 . S
N735 C737 1.375 . S
N735 C738 1.313 . S
C736 C737 1.338 . S
C736 N739 1.377 . S
C736 H756 0.930 1_556 S
C737 N735 1.375 . S
C737 C736 1.338 . S
C737 H741 0.931 . S
C738 N735 1.313 . S
C738 N739 1.344 . S
C738 H742 0.930 . S
N739 C736 1.377 . S
N739 C738 1.344 . S
O740 Co732 2.055 . S
O740 C744 1.253 . S
H741 C737 0.931 . S
H742 C738 0.930 . S
O743 Co732 2.039 . S
O743 C733 1.265 . S
C744 O740 1.253 . S
C744 O745 1.227 . S
O745 C744 1.227 . S
N746 Co732 2.140 . S
N746 C749 1.346 . S
N746 C750 1.345 . S
C747 C748 1.387 . S
C747 C751 1.391 . S
C748 C747 1.387 . S
C748 C749 1.369 . S
C748 H757 0.929 . S
C749 N746 1.346 . S
C749 C748 1.369 . S
C749 H752 0.928 . S
C750 N746 1.345 . S
C750 C751 1.371 . S
C750 H753 0.931 . S
C751 C747 1.391 . S
C751 C750 1.371 . S
C751 H758 0.930 . S
H752 C749 0.928 . S
H753 C750 0.931 . S
H754 C730 0.930 . S
H755 C727 0.930 . S
H756 C736 0.930 1_554 S
H757 C748 0.929 . S
H758 C751 0.930 . S
C759 C760 1.351 . S
C759 N762 1.368 . S
C759 H764 0.931 . S
C760 C759 1.351 . S
C760 N761 1.373 . S
C760 H788 0.930 . S
N761 C760 1.373 . S
N761 C763 1.340 . S
N762 C759 1.368 . S
N762 C763 1.321 . S
N762 Co765 2.135 . S
C763 N761 1.340 . S
C763 N762 1.321 . S
C763 H787 0.930 . S
H764 C759 0.931 . S
Co765 N762 2.135 . S
Co765 N768 2.121 . S
Co765 O773 2.055 . S
Co765 O776 2.039 . S
Co765 N779 2.140 . S
C766 O767 1.227 . S
C766 O776 1.265 . S
O767 C766 1.227 . S
N768 Co765 2.121 . S
N768 C770 1.375 . S
N768 C771 1.313 . S
C769 C770 1.338 . S
C769 N772 1.377 . S
C769 H789 0.930 . S
C770 N768 1.375 . S
C770 C769 1.338 . S
C770 H774 0.931 . S
C771 N768 1.313 . S
C771 N772 1.344 . S
C771 H775 0.930 . S
N772 C769 1.377 . S
N772 C771 1.344 . S
O773 Co765 2.055 . S
O773 C777 1.253 . S
H774 C770 0.931 . S
H775 C771 0.930 . S
O776 Co765 2.039 . S
O776 C766 1.265 . S
C777 O773 1.253 . S
C777 O778 1.227 . S
O778 C777 1.227 . S
N779 Co765 2.140 . S
N779 C782 1.346 . S
N779 C783 1.345 . S
C780 C781 1.387 . S
C780 C784 1.391 . S
C781 C780 1.387 . S
C781 C782 1.369 . S
C781 H790 0.929 . S
C782 N779 1.346 . S
C782 C781 1.369 . S
C782 H785 0.928 . S
C783 N779 1.345 . S
C783 C784 1.371 . S
C783 H786 0.931 . S
C784 C780 1.391 . S
C784 C783 1.371 . S
C784 H791 0.930 . S
H785 C782 0.928 . S
H786 C783 0.931 . S
H787 C763 0.930 . S
H788 C760 0.930 . S
H789 C769 0.930 . S
H790 C781 0.929 . S
H791 C784 0.930 . S
C792 C793 1.351 . S
C792 N795 1.368 . S
C792 H797 0.931 . S
C793 C792 1.351 . S
C793 N794 1.373 . S
C793 H821 0.930 . S
N794 C793 1.373 . S
N794 C796 1.340 . S
N795 C792 1.368 . S
N795 C796 1.321 . S
N795 Co798 2.135 . S
C796 N794 1.340 . S
C796 N795 1.321 . S
C796 H820 0.930 . S
H797 C792 0.931 . S
Co798 N795 2.135 . S
Co798 N801 2.121 . S
Co798 O806 2.055 . S
Co798 O809 2.039 . S
Co798 N812 2.140 . S
C799 O800 1.227 . S
C799 O809 1.265 . S
O800 C799 1.227 . S
N801 Co798 2.121 . S
N801 C803 1.375 . S
N801 C804 1.313 . S
C802 C803 1.338 . S
C802 N805 1.377 . S
C802 H822 0.930 . S
C803 N801 1.375 . S
C803 C802 1.338 . S
C803 H807 0.931 . S
C804 N801 1.313 . S
C804 N805 1.344 . S
C804 H808 0.930 . S
N805 C802 1.377 . S
N805 C804 1.344 . S
O806 Co798 2.055 . S
O806 C810 1.253 . S
H807 C803 0.931 . S
H808 C804 0.930 . S
O809 Co798 2.039 . S
O809 C799 1.265 . S
C810 O806 1.253 . S
C810 O811 1.227 . S
O811 C810 1.227 . S
N812 Co798 2.140 . S
N812 C815 1.346 . S
N812 C816 1.345 . S
C813 C814 1.387 . S
C813 C817 1.391 . S
C814 C813 1.387 . S
C814 C815 1.369 . S
C814 H823 0.929 . S
C815 N812 1.346 . S
C815 C814 1.369 . S
C815 H818 0.928 . S
C816 N812 1.345 . S
C816 C817 1.371 . S
C816 H819 0.931 . S
C817 C813 1.391 . S
C817 C816 1.371 . S
C817 H824 0.930 . S
H818 C815 0.928 . S
H819 C816 0.931 . S
H820 C796 0.930 . S
H821 C793 0.930 . S
H822 C802 0.930 . S
H823 C814 0.929 . S
H824 C817 0.930 . S
C825 C826 1.351 . S
C825 N828 1.368 . S
C825 H830 0.931 . S
C826 C825 1.351 . S
C826 N827 1.373 . S
C826 H854 0.930 . S
N827 C826 1.373 . S
N827 C829 1.340 . S
N828 C825 1.368 . S
N828 C829 1.321 . S
N828 Co831 2.135 . S
C829 N827 1.340 . S
C829 N828 1.321 . S
C829 H853 0.930 . S
H830 C825 0.931 . S
Co831 N828 2.135 . S
Co831 N834 2.121 . S
Co831 O839 2.055 . S
Co831 O842 2.039 . S
Co831 N845 2.140 . S
C832 O833 1.227 . S
C832 O842 1.265 . S
O833 C832 1.227 . S
N834 Co831 2.121 . S
N834 C836 1.375 . S
N834 C837 1.313 . S
C835 C836 1.338 . S
C835 N838 1.377 . S
C835 H855 0.930 . S
C836 N834 1.375 . S
C836 C835 1.338 . S
C836 H840 0.931 . S
C837 N834 1.313 . S
C837 N838 1.344 . S
C837 H841 0.930 . S
N838 C835 1.377 . S
N838 C837 1.344 . S
O839 Co831 2.055 . S
O839 C843 1.253 . S
H840 C836 0.931 . S
H841 C837 0.930 . S
O842 Co831 2.039 . S
O842 C832 1.265 . S
C843 O839 1.253 . S
C843 O844 1.227 . S
O844 C843 1.227 . S
N845 Co831 2.140 . S
N845 C848 1.346 . S
N845 C849 1.345 . S
C846 C847 1.387 . S
C846 C850 1.391 . S
C847 C846 1.387 . S
C847 C848 1.369 . S
C847 H856 0.929 . S
C848 N845 1.346 . S
C848 C847 1.369 . S
C848 H851 0.928 . S
C849 N845 1.345 . S
C849 C850 1.371 . S
C849 H852 0.931 . S
C850 C846 1.391 . S
C850 C849 1.371 . S
C850 H857 0.930 . S
H851 C848 0.928 . S
H852 C849 0.931 . S
H853 C829 0.930 . S
H854 C826 0.930 . S
H855 C835 0.930 . S
H856 C847 0.929 . S
H857 C850 0.930 . S
C858 C859 1.351 . S
C858 N861 1.368 . S
C858 H863 0.931 . S
C859 C858 1.351 . S
C859 N860 1.373 . S
C859 H887 0.930 . S
N860 C859 1.373 . S
N860 C862 1.340 . S
N861 C858 1.368 . S
N861 C862 1.321 . S
N861 Co864 2.135 . S
C862 N860 1.340 . S
C862 N861 1.321 . S
C862 H886 0.930 . S
H863 C858 0.931 . S
Co864 N861 2.135 . S
Co864 N867 2.121 . S
Co864 O872 2.055 . S
Co864 O875 2.039 . S
Co864 N878 2.140 . S
C865 O866 1.227 . S
C865 O875 1.265 . S
O866 C865 1.227 . S
N867 Co864 2.121 . S
N867 C869 1.375 . S
N867 C870 1.313 . S
C868 C869 1.338 . S
C868 N871 1.377 . S
C868 H888 0.930 1_556 S
C869 N867 1.375 . S
C869 C868 1.338 . S
C869 H873 0.931 . S
C870 N867 1.313 . S
C870 N871 1.344 . S
C870 H874 0.930 . S
N871 C868 1.377 . S
N871 C870 1.344 . S
O872 Co864 2.055 . S
O872 C876 1.253 . S
H873 C869 0.931 . S
H874 C870 0.930 . S
O875 Co864 2.039 . S
O875 C865 1.265 . S
C876 O872 1.253 . S
C876 O877 1.227 . S
O877 C876 1.227 . S
N878 Co864 2.140 . S
N878 C881 1.346 . S
N878 C882 1.345 . S
C879 C880 1.387 . S
C879 C883 1.391 . S
C880 C879 1.387 . S
C880 C881 1.369 . S
C880 H889 0.929 . S
C881 N878 1.346 . S
C881 C880 1.369 . S
C881 H884 0.928 . S
C882 N878 1.345 . S
C882 C883 1.371 . S
C882 H885 0.931 . S
C883 C879 1.391 . S
C883 C882 1.371 . S
C883 H890 0.930 . S
H884 C881 0.928 . S
H885 C882 0.931 . S
H886 C862 0.930 . S
H887 C859 0.930 . S
H888 C868 0.930 1_554 S
H889 C880 0.929 . S
H890 C883 0.930 . S
C891 C892 1.351 . S
C891 N894 1.368 . S
C891 H896 0.931 . S
C892 C891 1.351 . S
C892 N893 1.373 . S
C892 H920 0.930 . S
N893 C892 1.373 . S
N893 C895 1.340 . S
N894 C891 1.368 . S
N894 C895 1.321 . S
N894 Co897 2.135 . S
C895 N893 1.340 . S
C895 N894 1.321 . S
C895 H919 0.930 . S
H896 C891 0.931 . S
Co897 N894 2.135 . S
Co897 N900 2.121 . S
Co897 O905 2.055 . S
Co897 O908 2.039 . S
Co897 N911 2.140 . S
C898 O899 1.227 . S
C898 O908 1.265 . S
O899 C898 1.227 . S
N900 Co897 2.121 . S
N900 C902 1.375 . S
N900 C903 1.313 . S
C901 C902 1.338 . S
C901 N904 1.377 . S
C901 H921 0.930 . S
C902 N900 1.375 . S
C902 C901 1.338 . S
C902 H906 0.931 . S
C903 N900 1.313 . S
C903 N904 1.344 . S
C903 H907 0.930 . S
N904 C901 1.377 . S
N904 C903 1.344 . S
O905 Co897 2.055 . S
O905 C909 1.253 . S
H906 C902 0.931 . S
H907 C903 0.930 . S
O908 Co897 2.039 . S
O908 C898 1.265 . S
C909 O905 1.253 . S
C909 O910 1.227 . S
O910 C909 1.227 . S
N911 Co897 2.140 . S
N911 C914 1.346 . S
N911 C915 1.345 . S
C912 C913 1.387 . S
C912 C916 1.391 . S
C913 C912 1.387 . S
C913 C914 1.369 . S
C913 H922 0.929 . S
C914 N911 1.346 . S
C914 C913 1.369 . S
C914 H917 0.928 . S
C915 N911 1.345 . S
C915 C916 1.371 . S
C915 H918 0.931 . S
C916 C912 1.391 . S
C916 C915 1.371 . S
C916 H923 0.930 . S
H917 C914 0.928 . S
H918 C915 0.931 . S
H919 C895 0.930 . S
H920 C892 0.930 . S
H921 C901 0.930 . S
H922 C913 0.929 . S
H923 C916 0.930 . S
C924 C925 1.351 . S
C924 N927 1.368 . S
C924 H929 0.931 . S
C925 C924 1.351 . S
C925 N926 1.373 . S
C925 H953 0.930 . S
N926 C925 1.373 . S
N926 C928 1.340 . S
N927 C924 1.368 . S
N927 C928 1.321 . S
N927 Co930 2.135 . S
C928 N926 1.340 . S
C928 N927 1.321 . S
C928 H952 0.930 . S
H929 C924 0.931 . S
Co930 N927 2.135 . S
Co930 N933 2.121 . S
Co930 O938 2.055 . S
Co930 O941 2.039 . S
Co930 N944 2.140 . S
C931 O932 1.227 . S
C931 O941 1.265 . S
O932 C931 1.227 . S
N933 Co930 2.121 . S
N933 C935 1.375 . S
N933 C936 1.313 . S
C934 C935 1.338 . S
C934 N937 1.377 . S
C934 H954 0.930 . S
C935 N933 1.375 . S
C935 C934 1.338 . S
C935 H939 0.931 . S
C936 N933 1.313 . S
C936 N937 1.344 . S
C936 H940 0.930 . S
N937 C934 1.377 . S
N937 C936 1.344 . S
O938 Co930 2.055 . S
O938 C942 1.253 . S
H939 C935 0.931 . S
H940 C936 0.930 . S
O941 Co930 2.039 . S
O941 C931 1.265 . S
C942 O938 1.253 . S
C942 O943 1.227 . S
O943 C942 1.227 . S
N944 Co930 2.140 . S
N944 C947 1.346 . S
N944 C948 1.345 . S
C945 C946 1.387 . S
C945 C949 1.391 . S
C946 C945 1.387 . S
C946 C947 1.369 . S
C946 H955 0.929 . S
C947 N944 1.346 . S
C947 C946 1.369 . S
C947 H950 0.928 . S
C948 N944 1.345 . S
C948 C949 1.371 . S
C948 H951 0.931 . S
C949 C945 1.391 . S
C949 C948 1.371 . S
C949 H956 0.930 . S
H950 C947 0.928 . S
H951 C948 0.931 . S
H952 C928 0.930 . S
H953 C925 0.930 . S
H954 C934 0.930 . S
H955 C946 0.929 . S
H956 C949 0.930 . S
C957 C958 1.351 . S
C957 N960 1.368 . S
C957 H962 0.931 . S
C958 C957 1.351 . S
C958 N959 1.373 . S
C958 H986 0.930 . S
N959 C958 1.373 . S
N959 C961 1.340 . S
N960 C957 1.368 . S
N960 C961 1.321 . S
N960 Co963 2.135 . S
C961 N959 1.340 . S
C961 N960 1.321 . S
C961 H985 0.930 . S
H962 C957 0.931 . S
Co963 N960 2.135 . S
Co963 N966 2.121 . S
Co963 O971 2.055 . S
Co963 O974 2.039 . S
Co963 N977 2.140 . S
C964 O965 1.227 . S
C964 O974 1.265 . S
O965 C964 1.227 . S
N966 Co963 2.121 . S
N966 C968 1.375 . S
N966 C969 1.313 . S
C967 C968 1.338 . S
C967 N970 1.377 . S
C967 H987 0.930 . S
C968 N966 1.375 . S
C968 C967 1.338 . S
C968 H972 0.931 . S
C969 N966 1.313 . S
C969 N970 1.344 . S
C969 H973 0.930 . S
N970 C967 1.377 . S
N970 C969 1.344 . S
O971 Co963 2.055 . S
O971 C975 1.253 . S
H972 C968 0.931 . S
H973 C969 0.930 . S
O974 Co963 2.039 . S
O974 C964 1.265 . S
C975 O971 1.253 . S
C975 O976 1.227 . S
O976 C975 1.227 . S
N977 Co963 2.140 . S
N977 C980 1.346 . S
N977 C981 1.345 . S
C978 C979 1.387 . S
C978 C982 1.391 . S
C979 C978 1.387 . S
C979 C980 1.369 . S
C979 H988 0.929 . S
C980 N977 1.346 . S
C980 C979 1.369 . S
C980 H983 0.928 . S
C981 N977 1.345 . S
C981 C982 1.371 . S
C981 H984 0.931 . S
C982 C978 1.391 . S
C982 C981 1.371 . S
C982 H989 0.930 . S
H983 C980 0.928 . S
H984 C981 0.931 . S
H985 C961 0.930 . S
H986 C958 0.930 . S
H987 C967 0.930 . S
H988 C979 0.929 . S
H989 C982 0.930 . S
C990 C991 1.351 . S
C990 N993 1.368 . S
C990 H995 0.931 . S
C991 C990 1.351 . S
C991 N992 1.373 . S
C991 H1019 0.930 . S
N992 C991 1.373 . S
N992 C994 1.340 . S
N993 C990 1.368 . S
N993 C994 1.321 . S
N993 Co996 2.135 . S
C994 N992 1.340 . S
C994 N993 1.321 . S
C994 H1018 0.930 . S
H995 C990 0.931 . S
Co996 N993 2.135 . S
Co996 N999 2.121 . S
Co996 O1004 2.055 . S
Co996 O1007 2.039 . S
Co996 N1010 2.140 . S
C997 O998 1.227 . S
C997 O1007 1.265 . S
O998 C997 1.227 . S
N999 Co996 2.121 . S
N999 C1001 1.375 . S
N999 C1002 1.313 . S
C1000 C1001 1.338 . S
C1000 N1003 1.377 . S
C1000 H1020 0.930 1_554 S
C1001 N999 1.375 . S
C1001 C1000 1.338 . S
C1001 H1005 0.931 . S
C1002 N999 1.313 . S
C1002 N1003 1.344 . S
C1002 H1006 0.930 . S
N1003 C1000 1.377 . S
N1003 C1002 1.344 . S
O1004 Co996 2.055 . S
O1004 C1008 1.253 . S
H1005 C1001 0.931 . S
H1006 C1002 0.930 . S
O1007 Co996 2.039 . S
O1007 C997 1.265 . S
C1008 O1004 1.253 . S
C1008 O1009 1.227 . S
O1009 C1008 1.227 . S
N1010 Co996 2.140 . S
N1010 C1013 1.346 . S
N1010 C1014 1.345 . S
C1011 C1012 1.387 . S
C1011 C1015 1.391 . S
C1012 C1011 1.387 . S
C1012 C1013 1.369 . S
C1012 H1021 0.929 . S
C1013 N1010 1.346 . S
C1013 C1012 1.369 . S
C1013 H1016 0.928 . S
C1014 N1010 1.345 . S
C1014 C1015 1.371 . S
C1014 H1017 0.931 . S
C1015 C1011 1.391 . S
C1015 C1014 1.371 . S
C1015 H1022 0.930 . S
H1016 C1013 0.928 . S
H1017 C1014 0.931 . S
H1018 C994 0.930 . S
H1019 C991 0.930 . S
H1020 C1000 0.930 1_556 S
H1021 C1012 0.929 . S
H1022 C1015 0.930 . S
C1023 C1024 1.351 . S
C1023 N1026 1.368 . S
C1023 H1028 0.931 . S
C1024 C1023 1.351 . S
C1024 N1025 1.373 . S
C1024 H1052 0.930 . S
N1025 C1024 1.373 . S
N1025 C1027 1.340 . S
N1026 C1023 1.368 . S
N1026 C1027 1.321 . S
N1026 Co1029 2.135 . S
C1027 N1025 1.340 . S
C1027 N1026 1.321 . S
C1027 H1051 0.930 . S
H1028 C1023 0.931 . S
Co1029 N1026 2.135 . S
Co1029 N1032 2.121 . S
Co1029 O1037 2.055 . S
Co1029 O1040 2.039 . S
Co1029 N1043 2.140 . S
C1030 O1031 1.227 . S
C1030 O1040 1.265 . S
O1031 C1030 1.227 . S
N1032 Co1029 2.121 . S
N1032 C1034 1.375 . S
N1032 C1035 1.313 . S
C1033 C1034 1.338 . S
C1033 N1036 1.377 . S
C1033 H1053 0.930 . S
C1034 N1032 1.375 . S
C1034 C1033 1.338 . S
C1034 H1038 0.931 . S
C1035 N1032 1.313 . S
C1035 N1036 1.344 . S
C1035 H1039 0.930 . S
N1036 C1033 1.377 . S
N1036 C1035 1.344 . S
O1037 Co1029 2.055 . S
O1037 C1041 1.253 . S
H1038 C1034 0.931 . S
H1039 C1035 0.930 . S
O1040 Co1029 2.039 . S
O1040 C1030 1.265 . S
C1041 O1037 1.253 . S
C1041 O1042 1.227 . S
O1042 C1041 1.227 . S
N1043 Co1029 2.140 . S
N1043 C1046 1.346 . S
N1043 C1047 1.345 . S
C1044 C1045 1.387 . S
C1044 C1048 1.391 . S
C1045 C1044 1.387 . S
C1045 C1046 1.369 . S
C1045 H1054 0.929 . S
C1046 N1043 1.346 . S
C1046 C1045 1.369 . S
C1046 H1049 0.928 . S
C1047 N1043 1.345 . S
C1047 C1048 1.371 . S
C1047 H1050 0.931 . S
C1048 C1044 1.391 . S
C1048 C1047 1.371 . S
C1048 H1055 0.930 . S
H1049 C1046 0.928 . S
H1050 C1047 0.931 . S
H1051 C1027 0.930 . S
H1052 C1024 0.930 . S
H1053 C1033 0.930 . S
H1054 C1045 0.929 . S
H1055 C1048 0.930 . S
C1056 C1057 1.349 . S
C1056 C1058 1.327 . S
C1056 H1081 0.950 . S
C1057 C1056 1.349 . S
C1057 C1073 1.349 . S
C1058 C1056 1.327 . S
C1058 C1077 1.429 . S
C1058 H1082 0.950 . S
C1059 C1076 1.574 . S
C1059 C1078 1.368 . S
C1059 H1083 0.949 . S
H1060 C1064 0.949 . S
C1061 C1062 1.349 . S
C1061 C1063 1.327 . S
C1061 H1084 0.950 . S
C1062 C1061 1.349 . S
C1062 C1074 1.349 . S
C1063 C1061 1.327 . S
C1063 C1079 1.429 . S
C1063 H1085 0.950 . S
C1064 H1060 0.949 . S
C1064 C1072 1.574 . S
C1064 C1080 1.368 . S
H1065 C1073 0.950 . S
H1066 C1071 0.950 . S
H1067 C1072 0.949 . S
H1068 C1074 0.950 . S
H1069 C1075 0.950 . S
H1070 C1076 0.949 . S
C1071 H1066 0.950 . S
C1071 C1073 1.327 . S
C1071 C1077 1.429 . S
C1072 C1064 1.574 . S
C1072 H1067 0.949 . S
C1072 C1078 1.368 . S
C1073 C1057 1.349 . S
C1073 H1065 0.950 . S
C1073 C1071 1.327 . S
C1074 C1062 1.349 . S
C1074 H1068 0.950 . S
C1074 C1075 1.327 . S
C1075 H1069 0.950 . S
C1075 C1074 1.327 . S
C1075 C1079 1.429 . S
C1076 C1059 1.574 . S
C1076 H1070 0.949 . S
C1076 C1080 1.368 . S
C1077 C1058 1.429 . S
C1077 C1071 1.429 . S
C1077 C1078 1.523 . S
C1078 C1059 1.368 . S
C1078 C1072 1.368 . S
C1078 C1077 1.523 . S
C1079 C1063 1.429 . S
C1079 C1075 1.429 . S
C1079 C1080 1.523 . S
C1080 C1064 1.368 . S
C1080 C1076 1.368 . S
C1080 C1079 1.523 . S
H1081 C1056 0.950 . S
H1082 C1058 0.950 . S
H1083 C1059 0.949 . S
H1084 C1061 0.950 . S
H1085 C1063 0.950 . S
C1086 C1087 1.349 . S
C1086 C1088 1.327 . S
C1086 H1111 0.950 . S
C1087 C1086 1.349 . S
C1087 C1103 1.349 . S
C1088 C1086 1.327 . S
C1088 C1107 1.429 . S
C1088 H1112 0.950 . S
C1089 C1106 1.574 . S
C1089 C1108 1.368 . S
C1089 H1113 0.949 . S
H1090 C1094 0.949 . S
C1091 C1092 1.349 . S
C1091 C1093 1.327 . S
C1091 H1114 0.950 . S
C1092 C1091 1.349 . S
C1092 C1104 1.349 . S
C1093 C1091 1.327 . S
C1093 C1109 1.429 . S
C1093 H1115 0.950 . S
C1094 H1090 0.949 . S
C1094 C1102 1.574 . S
C1094 C1110 1.368 . S
H1095 C1103 0.950 . S
H1096 C1101 0.950 . S
H1097 C1102 0.949 . S
H1098 C1104 0.950 . S
H1099 C1105 0.950 . S
H1100 C1106 0.949 . S
C1101 H1096 0.950 . S
C1101 C1103 1.327 . S
C1101 C1107 1.429 . S
C1102 C1094 1.574 . S
C1102 H1097 0.949 . S
C1102 C1108 1.368 . S
C1103 C1087 1.349 . S
C1103 H1095 0.950 . S
C1103 C1101 1.327 . S
C1104 C1092 1.349 . S
C1104 H1098 0.950 . S
C1104 C1105 1.327 . S
C1105 H1099 0.950 . S
C1105 C1104 1.327 . S
C1105 C1109 1.429 . S
C1106 C1089 1.574 . S
C1106 H1100 0.949 . S
C1106 C1110 1.368 . S
C1107 C1088 1.429 . S
C1107 C1101 1.429 . S
C1107 C1108 1.523 . S
C1108 C1089 1.368 . S
C1108 C1102 1.368 . S
C1108 C1107 1.523 . S
C1109 C1093 1.429 . S
C1109 C1105 1.429 . S
C1109 C1110 1.523 . S
C1110 C1094 1.368 . S
C1110 C1106 1.368 . S
C1110 C1109 1.523 . S
H1111 C1086 0.950 . S
H1112 C1088 0.950 . S
H1113 C1089 0.949 . S
H1114 C1091 0.950 . S
H1115 C1093 0.950 . S
C1116 C1117 1.349 . S
C1116 C1118 1.327 . S
C1116 H1141 0.950 . S
C1117 C1116 1.349 . S
C1117 C1133 1.349 . S
C1118 C1116 1.327 . S
C1118 C1137 1.429 . S
C1118 H1142 0.950 . S
C1119 C1136 1.574 . S
C1119 C1138 1.368 . S
C1119 H1143 0.949 . S
H1120 C1124 0.949 . S
C1121 C1122 1.349 . S
C1121 C1123 1.327 . S
C1121 H1144 0.950 . S
C1122 C1121 1.349 . S
C1122 C1134 1.349 . S
C1123 C1121 1.327 . S
C1123 C1139 1.429 . S
C1123 H1145 0.950 . S
C1124 H1120 0.949 . S
C1124 C1132 1.574 . S
C1124 C1140 1.368 . S
H1125 C1133 0.950 . S
H1126 C1131 0.950 . S
H1127 C1132 0.949 . S
H1128 C1134 0.950 . S
H1129 C1135 0.950 . S
H1130 C1136 0.949 . S
C1131 H1126 0.950 . S
C1131 C1133 1.327 . S
C1131 C1137 1.429 . S
C1132 C1124 1.574 . S
C1132 H1127 0.949 . S
C1132 C1138 1.368 . S
C1133 C1117 1.349 . S
C1133 H1125 0.950 . S
C1133 C1131 1.327 . S
C1134 C1122 1.349 . S
C1134 H1128 0.950 . S
C1134 C1135 1.327 . S
C1135 H1129 0.950 . S
C1135 C1134 1.327 . S
C1135 C1139 1.429 . S
C1136 C1119 1.574 . S
C1136 H1130 0.949 . S
C1136 C1140 1.368 . S
C1137 C1118 1.429 . S
C1137 C1131 1.429 . S
C1137 C1138 1.523 . S
C1138 C1119 1.368 . S
C1138 C1132 1.368 . S
C1138 C1137 1.523 . S
C1139 C1123 1.429 . S
C1139 C1135 1.429 . S
C1139 C1140 1.523 . S
C1140 C1124 1.368 . S
C1140 C1136 1.368 . S
C1140 C1139 1.523 . S
H1141 C1116 0.950 . S
H1142 C1118 0.950 . S
H1143 C1119 0.949 . S
H1144 C1121 0.950 . S
H1145 C1123 0.950 . S
C1146 C1147 1.349 . S
C1146 C1148 1.327 . S
C1146 H1171 0.950 . S
C1147 C1146 1.349 . S
C1147 C1163 1.349 . S
C1148 C1146 1.327 . S
C1148 C1167 1.429 . S
C1148 H1172 0.950 . S
C1149 C1166 1.574 . S
C1149 C1168 1.368 . S
C1149 H1173 0.949 . S
H1150 C1154 0.949 . S
C1151 C1152 1.349 . S
C1151 C1153 1.327 . S
C1151 H1174 0.950 . S
C1152 C1151 1.349 . S
C1152 C1164 1.349 . S
C1153 C1151 1.327 . S
C1153 C1169 1.429 . S
C1153 H1175 0.950 . S
C1154 H1150 0.949 . S
C1154 C1162 1.574 . S
C1154 C1170 1.368 . S
H1155 C1163 0.950 . S
H1156 C1161 0.950 . S
H1157 C1162 0.949 . S
H1158 C1164 0.950 1_554 S
H1159 C1165 0.950 . S
H1160 C1166 0.949 . S
C1161 H1156 0.950 . S
C1161 C1163 1.327 . S
C1161 C1167 1.429 . S
C1162 C1154 1.574 . S
C1162 H1157 0.949 . S
C1162 C1168 1.368 . S
C1163 C1147 1.349 . S
C1163 H1155 0.950 . S
C1163 C1161 1.327 . S
C1164 C1152 1.349 . S
C1164 H1158 0.950 1_556 S
C1164 C1165 1.327 . S
C1165 H1159 0.950 . S
C1165 C1164 1.327 . S
C1165 C1169 1.429 . S
C1166 C1149 1.574 . S
C1166 H1160 0.949 . S
C1166 C1170 1.368 . S
C1167 C1148 1.429 . S
C1167 C1161 1.429 . S
C1167 C1168 1.523 . S
C1168 C1149 1.368 . S
C1168 C1162 1.368 . S
C1168 C1167 1.523 . S
C1169 C1153 1.429 . S
C1169 C1165 1.429 . S
C1169 C1170 1.523 . S
C1170 C1154 1.368 . S
C1170 C1166 1.368 . S
C1170 C1169 1.523 . S
H1171 C1146 0.950 . S
H1172 C1148 0.950 . S
H1173 C1149 0.949 . S
H1174 C1151 0.950 . S
H1175 C1153 0.950 . S
C1176 C1177 1.349 . S
C1176 C1178 1.327 . S
C1176 H1201 0.950 . S
C1177 C1176 1.349 . S
C1177 C1193 1.349 . S
C1178 C1176 1.327 . S
C1178 C1197 1.429 . S
C1178 H1202 0.950 . S
C1179 C1196 1.574 . S
C1179 C1198 1.368 . S
C1179 H1203 0.949 . S
H1180 C1184 0.949 . S
C1181 C1182 1.349 . S
C1181 C1183 1.327 . S
C1181 H1204 0.950 . S
C1182 C1181 1.349 . S
C1182 C1194 1.349 . S
C1183 C1181 1.327 . S
C1183 C1199 1.429 . S
C1183 H1205 0.950 . S
C1184 H1180 0.949 . S
C1184 C1192 1.574 . S
C1184 C1200 1.368 . S
H1185 C1193 0.950 . S
H1186 C1191 0.950 . S
H1187 C1192 0.949 . S
H1188 C1194 0.950 . S
H1189 C1195 0.950 . S
H1190 C1196 0.949 . S
C1191 H1186 0.950 . S
C1191 C1193 1.327 . S
C1191 C1197 1.429 . S
C1192 C1184 1.574 . S
C1192 H1187 0.949 . S
C1192 C1198 1.368 . S
C1193 C1177 1.349 . S
C1193 H1185 0.950 . S
C1193 C1191 1.327 . S
C1194 C1182 1.349 . S
C1194 H1188 0.950 . S
C1194 C1195 1.327 . S
C1195 H1189 0.950 . S
C1195 C1194 1.327 . S
C1195 C1199 1.429 . S
C1196 C1179 1.574 . S
C1196 H1190 0.949 . S
C1196 C1200 1.368 . S
C1197 C1178 1.429 . S
C1197 C1191 1.429 . S
C1197 C1198 1.523 . S
C1198 C1179 1.368 . S
C1198 C1192 1.368 . S
C1198 C1197 1.523 . S
C1199 C1183 1.429 . S
C1199 C1195 1.429 . S
C1199 C1200 1.523 . S
C1200 C1184 1.368 . S
C1200 C1196 1.368 . S
C1200 C1199 1.523 . S
H1201 C1176 0.950 . S
H1202 C1178 0.950 . S
H1203 C1179 0.949 . S
H1204 C1181 0.950 . S
H1205 C1183 0.950 . S
C1206 C1207 1.349 . S
C1206 C1208 1.327 . S
C1206 H1231 0.975 . S
C1207 C1206 1.349 . S
C1207 C1223 1.349 . S
C1208 C1206 1.327 . S
C1208 C1227 1.429 . S
C1208 H1232 0.950 . S
C1209 C1226 1.574 . S
C1209 C1228 1.368 . S
C1209 H1233 0.949 . S
H1210 C1214 0.949 . S
C1211 C1212 1.349 . S
C1211 C1213 1.327 . S
C1211 H1234 0.950 . S
C1212 C1211 1.349 . S
C1212 C1224 1.349 . S
C1213 C1211 1.327 . S
C1213 C1229 1.429 . S
C1213 H1235 0.950 . S
C1214 H1210 0.949 . S
C1214 C1222 1.574 . S
C1214 C1230 1.368 . S
H1215 C1223 0.950 . S
H1216 C1221 0.950 . S
H1217 C1222 0.949 . S
H1218 C1224 0.950 . S
H1219 C1225 0.950 . S
H1220 C1226 0.949 . S
C1221 H1216 0.950 . S
C1221 C1223 1.327 . S
C1221 C1227 1.429 . S
C1222 C1214 1.574 . S
C1222 H1217 0.949 . S
C1222 C1228 1.368 . S
C1223 C1207 1.349 . S
C1223 H1215 0.950 . S
C1223 C1221 1.327 . S
C1224 C1212 1.349 . S
C1224 H1218 0.950 . S
C1224 C1225 1.327 . S
C1225 H1219 0.950 . S
C1225 C1224 1.327 . S
C1225 C1229 1.429 . S
C1226 C1209 1.574 . S
C1226 H1220 0.949 . S
C1226 C1230 1.368 . S
C1227 C1208 1.429 . S
C1227 C1221 1.429 . S
C1227 C1228 1.523 . S
C1228 C1209 1.368 . S
C1228 C1222 1.368 . S
C1228 C1227 1.523 . S
C1229 C1213 1.429 . S
C1229 C1225 1.429 . S
C1229 C1230 1.523 . S
C1230 C1214 1.368 . S
C1230 C1226 1.368 . S
C1230 C1229 1.523 . S
H1231 C1206 0.975 . S
H1232 C1208 0.950 . S
H1233 C1209 0.949 . S
H1234 C1211 0.950 . S
H1235 C1213 0.950 . S
C1236 C1237 1.349 . S
C1236 C1238 1.327 . S
C1236 H1261 0.950 . S
C1237 C1236 1.349 . S
C1237 C1253 1.349 . S
C1238 C1236 1.327 . S
C1238 C1257 1.429 . S
C1238 H1262 0.950 . S
C1239 C1256 1.574 . S
C1239 C1258 1.368 . S
C1239 H1263 0.949 . S
H1240 C1244 0.949 . S
C1241 C1242 1.349 . S
C1241 C1243 1.327 . S
C1241 H1264 0.950 . S
C1242 C1241 1.349 . S
C1242 C1254 1.349 . S
C1243 C1241 1.327 . S
C1243 C1259 1.429 . S
C1243 H1265 0.950 . S
C1244 H1240 0.949 . S
C1244 C1252 1.574 . S
C1244 C1260 1.368 . S
H1245 C1253 0.950 . S
H1246 C1251 0.950 . S
H1247 C1252 0.949 . S
H1248 C1254 0.950 . S
H1249 C1255 0.950 . S
H1250 C1256 0.949 . S
C1251 H1246 0.950 . S
C1251 C1253 1.327 . S
C1251 C1257 1.429 . S
C1252 C1244 1.574 . S
C1252 H1247 0.949 . S
C1252 C1258 1.368 . S
C1253 C1237 1.349 . S
C1253 H1245 0.950 . S
C1253 C1251 1.327 . S
C1254 C1242 1.349 . S
C1254 H1248 0.950 . S
C1254 C1255 1.327 . S
C1255 H1249 0.950 . S
C1255 C1254 1.327 . S
C1255 C1259 1.429 . S
C1256 C1239 1.574 . S
C1256 H1250 0.949 . S
C1256 C1260 1.368 . S
C1257 C1238 1.429 . S
C1257 C1251 1.429 . S
C1257 C1258 1.523 . S
C1258 C1239 1.368 . S
C1258 C1252 1.368 . S
C1258 C1257 1.523 . S
C1259 C1243 1.429 . S
C1259 C1255 1.429 . S
C1259 C1260 1.523 . S
C1260 C1244 1.368 . S
C1260 C1256 1.368 . S
C1260 C1259 1.523 . S
H1261 C1236 0.950 . S
H1262 C1238 0.950 . S
H1263 C1239 0.949 . S
H1264 C1241 0.950 . S
H1265 C1243 0.950 . S
C1266 C1267 1.349 . S
C1266 C1268 1.327 . S
C1266 H1291 0.950 . S
C1267 C1266 1.349 . S
C1267 C1283 1.349 . S
C1268 C1266 1.327 . S
C1268 C1287 1.429 . S
C1268 H1292 0.950 . S
C1269 C1286 1.574 . S
C1269 C1288 1.368 . S
C1269 H1293 0.949 . S
H1270 C1274 0.949 . S
C1271 C1272 1.349 . S
C1271 C1273 1.327 . S
C1271 H1294 0.950 . S
C1272 C1271 1.349 . S
C1272 C1284 1.349 . S
C1273 C1271 1.327 . S
C1273 C1289 1.429 . S
C1273 H1295 0.950 . S
C1274 H1270 0.949 . S
C1274 C1282 1.574 . S
C1274 C1290 1.368 . S
H1275 C1283 0.950 . S
H1276 C1281 0.950 . S
H1277 C1282 0.949 . S
H1278 C1284 0.950 . S
H1279 C1285 0.950 . S
H1280 C1286 0.949 . S
C1281 H1276 0.950 . S
C1281 C1283 1.327 . S
C1281 C1287 1.429 . S
C1282 C1274 1.574 . S
C1282 H1277 0.949 . S
C1282 C1288 1.368 . S
C1283 C1267 1.349 . S
C1283 H1275 0.950 . S
C1283 C1281 1.327 . S
C1284 C1272 1.349 . S
C1284 H1278 0.950 . S
C1284 C1285 1.327 . S
C1285 H1279 0.950 . S
C1285 C1284 1.327 . S
C1285 C1289 1.429 . S
C1286 C1269 1.574 . S
C1286 H1280 0.949 . S
C1286 C1290 1.368 . S
C1287 C1268 1.429 . S
C1287 C1281 1.429 . S
C1287 C1288 1.523 . S
C1288 C1269 1.368 . S
C1288 C1282 1.368 . S
C1288 C1287 1.523 . S
C1289 C1273 1.429 . S
C1289 C1285 1.429 . S
C1289 C1290 1.523 . S
C1290 C1274 1.368 . S
C1290 C1286 1.368 . S
C1290 C1289 1.523 . S
H1291 C1266 0.950 . S
H1292 C1268 0.950 . S
H1293 C1269 0.949 . S
H1294 C1271 0.950 . S
H1295 C1273 0.950 . S
C1296 C1297 1.349 . S
C1296 C1298 1.327 . S
C1296 H1321 0.950 . S
C1297 C1296 1.349 . S
C1297 C1313 1.349 . S
C1298 C1296 1.327 . S
C1298 C1317 1.429 . S
C1298 H1322 0.950 . S
C1299 C1316 1.574 . S
C1299 C1318 1.368 . S
C1299 H1323 0.949 . S
H1300 C1304 0.949 . S
C1301 C1302 1.349 . S
C1301 C1303 1.327 . S
C1301 H1324 0.950 . S
C1302 C1301 1.349 . S
C1302 C1314 1.349 . S
C1303 C1301 1.327 . S
C1303 C1319 1.429 . S
C1303 H1325 0.950 . S
C1304 H1300 0.949 . S
C1304 C1312 1.574 . S
C1304 C1320 1.368 . S
H1305 C1313 0.950 . S
H1306 C1311 0.950 . S
H1307 C1312 0.949 . S
H1308 C1314 0.950 . S
H1309 C1315 0.950 . S
H1310 C1316 0.949 . S
C1311 H1306 0.950 . S
C1311 C1313 1.327 . S
C1311 C1317 1.429 . S
C1312 C1304 1.574 . S
C1312 H1307 0.949 . S
C1312 C1318 1.368 . S
C1313 C1297 1.349 . S
C1313 H1305 0.950 . S
C1313 C1311 1.327 . S
C1314 C1302 1.349 . S
C1314 H1308 0.950 . S
C1314 C1315 1.327 . S
C1315 H1309 0.950 . S
C1315 C1314 1.327 . S
C1315 C1319 1.429 . S
C1316 C1299 1.574 . S
C1316 H1310 0.949 . S
C1316 C1320 1.368 . S
C1317 C1298 1.429 . S
C1317 C1311 1.429 . S
C1317 C1318 1.523 . S
C1318 C1299 1.368 . S
C1318 C1312 1.368 . S
C1318 C1317 1.523 . S
C1319 C1303 1.429 . S
C1319 C1315 1.429 . S
C1319 C1320 1.523 . S
C1320 C1304 1.368 . S
C1320 C1316 1.368 . S
C1320 C1319 1.523 . S
H1321 C1296 0.950 . S
H1322 C1298 0.950 . S
H1323 C1299 0.949 . S
H1324 C1301 0.950 . S
H1325 C1303 0.950 . S
C1326 C1327 1.349 . S
C1326 C1328 1.327 . S
C1326 H1351 0.950 . S
C1327 C1326 1.349 . S
C1327 C1343 1.349 . S
C1328 C1326 1.327 . S
C1328 C1347 1.429 . S
C1328 H1352 0.950 . S
C1329 C1346 1.574 . S
C1329 C1348 1.368 . S
C1329 H1353 0.949 . S
H1330 C1334 0.949 . S
C1331 C1332 1.349 . S
C1331 C1333 1.327 . S
C1331 H1354 0.950 . S
C1332 C1331 1.349 . S
C1332 C1344 1.349 . S
C1333 C1331 1.327 . S
C1333 C1349 1.429 . S
C1333 H1355 0.950 . S
C1334 H1330 0.949 . S
C1334 C1342 1.574 . S
C1334 C1350 1.368 . S
H1335 C1343 0.950 . S
H1336 C1341 0.950 . S
H1337 C1342 0.949 . S
H1338 C1344 0.950 . S
H1339 C1345 0.950 . S
H1340 C1346 0.949 . S
C1341 H1336 0.950 . S
C1341 C1343 1.327 . S
C1341 C1347 1.429 . S
C1342 C1334 1.574 . S
C1342 H1337 0.949 . S
C1342 C1348 1.368 . S
C1343 C1327 1.349 . S
C1343 H1335 0.950 . S
C1343 C1341 1.327 . S
C1344 C1332 1.349 . S
C1344 H1338 0.950 . S
C1344 C1345 1.327 . S
C1345 H1339 0.950 . S
C1345 C1344 1.327 . S
C1345 C1349 1.429 . S
C1346 C1329 1.574 . S
C1346 H1340 0.949 . S
C1346 C1350 1.368 . S
C1347 C1328 1.429 . S
C1347 C1341 1.429 . S
C1347 C1348 1.523 . S
C1348 C1329 1.368 . S
C1348 C1342 1.368 . S
C1348 C1347 1.523 . S
C1349 C1333 1.429 . S
C1349 C1345 1.429 . S
C1349 C1350 1.523 . S
C1350 C1334 1.368 . S
C1350 C1346 1.368 . S
C1350 C1349 1.523 . S
H1351 C1326 0.950 . S
H1352 C1328 0.950 . S
H1353 C1329 0.949 . S
H1354 C1331 0.950 . S
H1355 C1333 0.950 . S
C1356 C1357 1.349 . S
C1356 C1358 1.327 . S
C1356 H1381 0.950 . S
C1357 C1356 1.349 . S
C1357 C1373 1.349 . S
C1358 C1356 1.327 . S
C1358 C1377 1.429 . S
C1358 H1382 0.950 . S
C1359 C1376 1.574 . S
C1359 C1378 1.368 . S
C1359 H1383 0.949 . S
H1360 C1364 0.949 . S
C1361 C1362 1.349 . S
C1361 C1363 1.327 . S
C1361 H1384 0.950 . S
C1362 C1361 1.349 . S
C1362 C1374 1.349 . S
C1363 C1361 1.327 . S
C1363 C1379 1.429 . S
C1363 H1385 0.950 . S
C1364 H1360 0.949 . S
C1364 C1372 1.574 . S
C1364 C1380 1.368 . S
H1365 C1373 0.950 . S
H1366 C1371 0.950 . S
H1367 C1372 0.949 . S
H1368 C1374 0.950 . S
H1369 C1375 0.950 . S
H1370 C1376 0.949 . S
C1371 H1366 0.950 . S
C1371 C1373 1.327 . S
C1371 C1377 1.429 . S
C1372 C1364 1.574 . S
C1372 H1367 0.949 . S
C1372 C1378 1.368 . S
C1373 C1357 1.349 . S
C1373 H1365 0.950 . S
C1373 C1371 1.327 . S
C1374 C1362 1.349 . S
C1374 H1368 0.950 . S
C1374 C1375 1.327 . S
C1375 H1369 0.950 . S
C1375 C1374 1.327 . S
C1375 C1379 1.429 . S
C1376 C1359 1.574 . S
C1376 H1370 0.949 . S
C1376 C1380 1.368 . S
C1377 C1358 1.429 . S
C1377 C1371 1.429 . S
C1377 C1378 1.523 . S
C1378 C1359 1.368 . S
C1378 C1372 1.368 . S
C1378 C1377 1.523 . S
C1379 C1363 1.429 . S
C1379 C1375 1.429 . S
C1379 C1380 1.523 . S
C1380 C1364 1.368 . S
C1380 C1376 1.368 . S
C1380 C1379 1.523 . S
H1381 C1356 0.950 . S
H1382 C1358 0.950 . S
H1383 C1359 0.949 . S
H1384 C1361 0.950 . S
H1385 C1363 0.950 . S
C1386 C1387 1.349 . S
C1386 C1388 1.327 . S
C1386 H1411 0.950 . S
C1387 C1386 1.349 . S
C1387 C1403 1.349 . S
C1388 C1386 1.327 . S
C1388 C1407 1.429 . S
C1388 H1412 0.950 . S
C1389 C1406 1.574 . S
C1389 C1408 1.368 . S
C1389 H1413 0.949 . S
H1390 C1394 0.949 . S
C1391 C1392 1.349 . S
C1391 C1393 1.327 . S
C1391 H1414 0.950 . S
C1392 C1391 1.349 . S
C1392 C1404 1.349 . S
C1393 C1391 1.327 . S
C1393 C1409 1.429 . S
C1393 H1415 0.950 . S
C1394 H1390 0.949 . S
C1394 C1402 1.574 . S
C1394 C1410 1.368 . S
H1395 C1403 0.950 1_556 S
H1396 C1401 0.950 . S
H1397 C1402 0.949 . S
H1398 C1404 0.950 . S
H1399 C1405 0.950 . S
H1400 C1406 0.949 . S
C1401 H1396 0.950 . S
C1401 C1403 1.327 . S
C1401 C1407 1.429 . S
C1402 C1394 1.574 . S
C1402 H1397 0.949 . S
C1402 C1408 1.368 . S
C1403 C1387 1.349 . S
C1403 H1395 0.950 1_554 S
C1403 C1401 1.327 . S
C1404 C1392 1.349 . S
C1404 H1398 0.950 . S
C1404 C1405 1.327 . S
C1405 H1399 0.950 . S
C1405 C1404 1.327 . S
C1405 C1409 1.429 . S
C1406 C1389 1.574 . S
C1406 H1400 0.949 . S
C1406 C1410 1.368 . S
C1407 C1388 1.429 . S
C1407 C1401 1.429 . S
C1407 C1408 1.523 . S
C1408 C1389 1.368 . S
C1408 C1402 1.368 . S
C1408 C1407 1.523 . S
C1409 C1393 1.429 . S
C1409 C1405 1.429 . S
C1409 C1410 1.523 . S
C1410 C1394 1.368 . S
C1410 C1406 1.368 . S
C1410 C1409 1.523 . S
H1411 C1386 0.950 . S
H1412 C1388 0.950 . S
H1413 C1389 0.949 . S
H1414 C1391 0.950 . S
H1415 C1393 0.950 . S
C1416 C1417 1.349 . S
C1416 C1418 1.327 . S
C1416 H1441 0.950 . S
C1417 C1416 1.349 . S
C1417 C1433 1.349 . S
C1418 C1416 1.327 . S
C1418 C1437 1.429 . S
C1418 H1442 0.950 . S
C1419 C1436 1.574 . S
C1419 C1438 1.368 . S
C1419 H1443 0.949 . S
H1420 C1424 0.949 . S
C1421 C1422 1.349 . S
C1421 C1423 1.327 . S
C1421 H1444 0.950 . S
C1422 C1421 1.349 . S
C1422 C1434 1.349 . S
C1423 C1421 1.327 . S
C1423 C1439 1.429 . S
C1423 H1445 0.950 . S
C1424 H1420 0.949 . S
C1424 C1432 1.574 . S
C1424 C1440 1.368 . S
H1425 C1433 0.950 . S
H1426 C1431 0.950 . S
H1427 C1432 0.949 . S
H1428 C1434 0.950 . S
H1429 C1435 0.950 . S
H1430 C1436 0.949 . S
C1431 H1426 0.950 . S
C1431 C1433 1.327 . S
C1431 C1437 1.429 . S
C1432 C1424 1.574 . S
C1432 H1427 0.949 . S
C1432 C1438 1.368 . S
C1433 C1417 1.349 . S
C1433 H1425 0.950 . S
C1433 C1431 1.327 . S
C1434 C1422 1.349 . S
C1434 H1428 0.950 . S
C1434 C1435 1.327 . S
C1435 H1429 0.950 . S
C1435 C1434 1.327 . S
C1435 C1439 1.429 . S
C1436 C1419 1.574 . S
C1436 H1430 0.949 . S
C1436 C1440 1.368 . S
C1437 C1418 1.429 . S
C1437 C1431 1.429 . S
C1437 C1438 1.523 . S
C1438 C1419 1.368 . S
C1438 C1432 1.368 . S
C1438 C1437 1.523 . S
C1439 C1423 1.429 . S
C1439 C1435 1.429 . S
C1439 C1440 1.523 . S
C1440 C1424 1.368 . S
C1440 C1436 1.368 . S
C1440 C1439 1.523 . S
H1441 C1416 0.950 . S
H1442 C1418 0.950 . S
H1443 C1419 0.949 . S
H1444 C1421 0.950 . S
H1445 C1423 0.950 . S
C1446 C1447 1.349 . S
C1446 C1448 1.327 . S
C1446 H1471 0.950 . S
C1447 C1446 1.349 . S
C1447 C1463 1.349 . S
C1448 C1446 1.327 . S
C1448 C1467 1.429 . S
C1448 H1472 0.950 . S
C1449 C1466 1.574 . S
C1449 C1468 1.368 . S
C1449 H1473 0.949 . S
H1450 C1454 0.949 . S
C1451 C1452 1.349 . S
C1451 C1453 1.327 . S
C1451 H1474 0.950 . S
C1452 C1451 1.349 . S
C1452 C1464 1.349 . S
C1453 C1451 1.327 . S
C1453 C1469 1.429 . S
C1453 H1475 0.950 . S
C1454 H1450 0.949 . S
C1454 C1462 1.574 . S
C1454 C1470 1.368 . S
H1455 C1463 0.950 . S
H1456 C1461 0.950 . S
H1457 C1462 0.949 . S
H1458 C1464 0.950 . S
H1459 C1465 0.950 . S
H1460 C1466 0.949 . S
C1461 H1456 0.950 . S
C1461 C1463 1.327 . S
C1461 C1467 1.429 . S
C1462 C1454 1.574 . S
C1462 H1457 0.949 . S
C1462 C1468 1.368 . S
C1463 C1447 1.349 . S
C1463 H1455 0.950 . S
C1463 C1461 1.327 . S
C1464 C1452 1.349 . S
C1464 H1458 0.950 . S
C1464 C1465 1.327 . S
C1465 H1459 0.950 . S
C1465 C1464 1.327 . S
C1465 C1469 1.429 . S
C1466 C1449 1.574 . S
C1466 H1460 0.949 . S
C1466 C1470 1.368 . S
C1467 C1448 1.429 . S
C1467 C1461 1.429 . S
C1467 C1468 1.523 . S
C1468 C1449 1.368 . S
C1468 C1462 1.368 . S
C1468 C1467 1.523 . S
C1469 C1453 1.429 . S
C1469 C1465 1.429 . S
C1469 C1470 1.523 . S
C1470 C1454 1.368 . S
C1470 C1466 1.368 . S
C1470 C1469 1.523 . S
H1471 C1446 0.950 . S
H1472 C1448 0.950 . S
H1473 C1449 0.949 . S
H1474 C1451 0.950 . S
H1475 C1453 0.950 . S
C1476 C1477 1.349 . S
C1476 C1478 1.327 . S
C1476 H1501 0.950 . S
C1477 C1476 1.349 . S
C1477 C1493 1.349 . S
C1478 C1476 1.327 . S
C1478 C1497 1.429 . S
C1478 H1502 0.950 . S
C1479 C1496 1.574 . S
C1479 C1498 1.368 . S
C1479 H1503 0.949 . S
H1480 C1484 0.949 . S
C1481 C1482 1.349 . S
C1481 C1483 1.327 . S
C1481 H1504 0.950 . S
C1482 C1481 1.349 . S
C1482 C1494 1.349 . S
C1483 C1481 1.327 . S
C1483 C1499 1.429 . S
C1483 H1505 0.950 . S
C1484 H1480 0.949 . S
C1484 C1492 1.574 . S
C1484 C1500 1.368 . S
H1485 C1493 0.950 . S
H1486 C1491 0.950 . S
H1487 C1492 0.949 . S
H1488 C1494 0.950 . S
H1489 C1495 0.950 . S
H1490 C1496 0.949 . S
C1491 H1486 0.950 . S
C1491 C1493 1.327 . S
C1491 C1497 1.429 . S
C1492 C1484 1.574 . S
C1492 H1487 0.949 . S
C1492 C1498 1.368 . S
C1493 C1477 1.349 . S
C1493 H1485 0.950 . S
C1493 C1491 1.327 . S
C1494 C1482 1.349 . S
C1494 H1488 0.950 . S
C1494 C1495 1.327 . S
C1495 H1489 0.950 . S
C1495 C1494 1.327 . S
C1495 C1499 1.429 . S
C1496 C1479 1.574 . S
C1496 H1490 0.949 . S
C1496 C1500 1.368 . S
C1497 C1478 1.429 . S
C1497 C1491 1.429 . S
C1497 C1498 1.523 . S
C1498 C1479 1.368 . S
C1498 C1492 1.368 . S
C1498 C1497 1.523 . S
C1499 C1483 1.429 . S
C1499 C1495 1.429 . S
C1499 C1500 1.523 . S
C1500 C1484 1.368 . S
C1500 C1496 1.368 . S
C1500 C1499 1.523 . S
H1501 C1476 0.950 . S
H1502 C1478 0.950 . S
H1503 C1479 0.949 . S
H1504 C1481 0.950 . S
H1505 C1483 0.950 . S
C1506 C1507 1.349 . S
C1506 C1508 1.327 . S
C1506 H1531 0.950 . S
C1507 C1506 1.349 . S
C1507 C1523 1.349 . S
C1508 C1506 1.327 . S
C1508 C1527 1.429 . S
C1508 H1532 0.950 . S
C1509 C1526 1.574 . S
C1509 C1528 1.368 . S
C1509 H1533 0.949 . S
H1510 C1514 0.949 . S
C1511 C1512 1.349 . S
C1511 C1513 1.327 . S
C1511 H1534 0.950 . S
C1512 C1511 1.349 . S
C1512 C1524 1.349 . S
C1513 C1511 1.327 . S
C1513 C1529 1.429 . S
C1513 H1535 0.950 . S
C1514 H1510 0.949 . S
C1514 C1522 1.574 . S
C1514 C1530 1.368 . S
H1515 C1523 0.950 . S
H1516 C1521 0.950 . S
H1517 C1522 0.949 . S
H1518 C1524 0.950 . S
H1519 C1525 0.950 . S
H1520 C1526 0.949 . S
C1521 H1516 0.950 . S
C1521 C1523 1.327 . S
C1521 C1527 1.429 . S
C1522 C1514 1.574 . S
C1522 H1517 0.949 . S
C1522 C1528 1.368 . S
C1523 C1507 1.349 . S
C1523 H1515 0.950 . S
C1523 C1521 1.327 . S
C1524 C1512 1.349 . S
C1524 H1518 0.950 . S
C1524 C1525 1.327 . S
C1525 H1519 0.950 . S
C1525 C1524 1.327 . S
C1525 C1529 1.429 . S
C1526 C1509 1.574 . S
C1526 H1520 0.949 . S
C1526 C1530 1.368 . S
C1527 C1508 1.429 . S
C1527 C1521 1.429 . S
C1527 C1528 1.523 . S
C1528 C1509 1.368 . S
C1528 C1522 1.368 . S
C1528 C1527 1.523 . S
C1529 C1513 1.429 . S
C1529 C1525 1.429 . S
C1529 C1530 1.523 . S
C1530 C1514 1.368 . S
C1530 C1526 1.368 . S
C1530 C1529 1.523 . S
H1531 C1506 0.950 . S
H1532 C1508 0.950 . S
H1533 C1509 0.949 . S
H1534 C1511 0.950 . S
H1535 C1513 0.950 . S
C1536 C1537 1.349 . S
C1536 C1538 1.327 . S
C1536 H1561 0.950 . S
C1537 C1536 1.349 . S
C1537 C1553 1.349 . S
C1538 C1536 1.327 . S
C1538 C1557 1.429 . S
C1538 H1562 0.950 . S
C1539 C1556 1.574 . S
C1539 C1558 1.368 . S
C1539 H1563 0.949 . S
H1540 C1544 0.949 . S
C1541 C1542 1.349 . S
C1541 C1543 1.327 . S
C1541 H1564 0.950 . S
C1542 C1541 1.349 . S
C1542 C1554 1.349 . S
C1543 C1541 1.327 . S
C1543 C1559 1.429 . S
C1543 H1565 0.950 . S
C1544 H1540 0.949 . S
C1544 C1552 1.574 . S
C1544 C1560 1.368 . S
H1545 C1553 0.950 . S
H1546 C1551 0.950 . S
H1547 C1552 0.949 . S
H1548 C1554 0.950 . S
H1549 C1555 0.950 . S
H1550 C1556 0.949 . S
C1551 H1546 0.950 . S
C1551 C1553 1.327 . S
C1551 C1557 1.429 . S
C1552 C1544 1.574 . S
C1552 H1547 0.949 . S
C1552 C1558 1.368 . S
C1553 C1537 1.349 . S
C1553 H1545 0.950 . S
C1553 C1551 1.327 . S
C1554 C1542 1.349 . S
C1554 H1548 0.950 . S
C1554 C1555 1.327 . S
C1555 H1549 0.950 . S
C1555 C1554 1.327 . S
C1555 C1559 1.429 . S
C1556 C1539 1.574 . S
C1556 H1550 0.949 . S
C1556 C1560 1.368 . S
C1557 C1538 1.429 . S
C1557 C1551 1.429 . S
C1557 C1558 1.523 . S
C1558 C1539 1.368 . S
C1558 C1552 1.368 . S
C1558 C1557 1.523 . S
C1559 C1543 1.429 . S
C1559 C1555 1.429 . S
C1559 C1560 1.523 . S
C1560 C1544 1.368 . S
C1560 C1556 1.368 . S
C1560 C1559 1.523 . S
H1561 C1536 0.950 . S
H1562 C1538 0.950 . S
H1563 C1539 0.949 . S
H1564 C1541 0.950 . S
H1565 C1543 0.950 . S
C1566 C1567 1.349 . S
C1566 C1568 1.327 . S
C1566 H1591 0.950 . S
C1567 C1566 1.349 . S
C1567 C1583 1.349 . S
C1568 C1566 1.327 . S
C1568 C1587 1.429 . S
C1568 H1592 0.950 . S
C1569 C1586 1.574 . S
C1569 C1588 1.368 . S
C1569 H1593 0.949 . S
H1570 C1574 0.949 . S
C1571 C1572 1.349 . S
C1571 C1573 1.327 . S
C1571 H1594 0.950 1_556 S
C1572 C1571 1.349 . S
C1572 C1584 1.349 . S
C1573 C1571 1.327 . S
C1573 C1589 1.429 . S
C1573 H1595 0.950 . S
C1574 H1570 0.949 . S
C1574 C1582 1.574 . S
C1574 C1590 1.368 . S
H1575 C1583 0.950 . S
H1576 C1581 0.950 . S
H1577 C1582 0.949 . S
H1578 C1584 0.950 . S
H1579 C1585 0.950 . S
H1580 C1586 0.949 . S
C1581 H1576 0.950 . S
C1581 C1583 1.327 . S
C1581 C1587 1.429 . S
C1582 C1574 1.574 . S
C1582 H1577 0.949 . S
C1582 C1588 1.368 . S
C1583 C1567 1.349 . S
C1583 H1575 0.950 . S
C1583 C1581 1.327 . S
C1584 C1572 1.349 . S
C1584 H1578 0.950 . S
C1584 C1585 1.327 . S
C1585 H1579 0.950 . S
C1585 C1584 1.327 . S
C1585 C1589 1.429 . S
C1586 C1569 1.574 . S
C1586 H1580 0.949 . S
C1586 C1590 1.368 . S
C1587 C1568 1.429 . S
C1587 C1581 1.429 . S
C1587 C1588 1.523 . S
C1588 C1569 1.368 . S
C1588 C1582 1.368 . S
C1588 C1587 1.523 . S
C1589 C1573 1.429 . S
C1589 C1585 1.429 . S
C1589 C1590 1.523 . S
C1590 C1574 1.368 . S
C1590 C1586 1.368 . S
C1590 C1589 1.523 . S
H1591 C1566 0.950 . S
H1592 C1568 0.950 . S
H1593 C1569 0.949 . S
H1594 C1571 0.950 1_554 S
H1595 C1573 0.950 . S
C1596 C1597 1.349 . S
C1596 C1598 1.327 . S
C1596 H1621 0.950 . S
C1597 C1596 1.349 . S
C1597 C1613 1.349 . S
C1598 C1596 1.327 . S
C1598 C1617 1.429 . S
C1598 H1622 0.950 . S
C1599 C1616 1.574 . S
C1599 C1618 1.368 . S
C1599 H1623 0.949 . S
H1600 C1604 0.949 . S
C1601 C1602 1.349 . S
C1601 C1603 1.327 . S
C1601 H1624 0.950 . S
C1602 C1601 1.349 . S
C1602 C1614 1.349 . S
C1603 C1601 1.327 . S
C1603 C1619 1.429 . S
C1603 H1625 0.950 . S
C1604 H1600 0.949 . S
C1604 C1612 1.574 . S
C1604 C1620 1.368 . S
H1605 C1613 0.950 . S
H1606 C1611 0.950 . S
H1607 C1612 0.949 . S
H1608 C1614 0.950 . S
H1609 C1615 0.950 . S
H1610 C1616 0.949 . S
C1611 H1606 0.950 . S
C1611 C1613 1.327 . S
C1611 C1617 1.429 . S
C1612 C1604 1.574 . S
C1612 H1607 0.949 . S
C1612 C1618 1.368 . S
C1613 C1597 1.349 . S
C1613 H1605 0.950 . S
C1613 C1611 1.327 . S
C1614 C1602 1.349 . S
C1614 H1608 0.950 . S
C1614 C1615 1.327 . S
C1615 H1609 0.950 . S
C1615 C1614 1.327 . S
C1615 C1619 1.429 . S
C1616 C1599 1.574 . S
C1616 H1610 0.949 . S
C1616 C1620 1.368 . S
C1617 C1598 1.429 . S
C1617 C1611 1.429 . S
C1617 C1618 1.523 . S
C1618 C1599 1.368 . S
C1618 C1612 1.368 . S
C1618 C1617 1.523 . S
C1619 C1603 1.429 . S
C1619 C1615 1.429 . S
C1619 C1620 1.523 . S
C1620 C1604 1.368 . S
C1620 C1616 1.368 . S
C1620 C1619 1.523 . S
H1621 C1596 0.950 . S
H1622 C1598 0.950 . S
H1623 C1599 0.949 . S
H1624 C1601 0.950 . S
H1625 C1603 0.950 . S
C1626 C1627 1.349 . S
C1626 C1628 1.327 . S
C1626 H1651 0.950 . S
C1627 C1626 1.349 . S
C1627 C1643 1.349 . S
C1628 C1626 1.327 . S
C1628 C1647 1.429 . S
C1628 H1652 0.950 . S
C1629 C1646 1.574 . S
C1629 C1648 1.368 . S
C1629 H1653 0.949 . S
H1630 C1634 0.949 . S
C1631 C1632 1.349 . S
C1631 C1633 1.327 . S
C1631 H1654 0.950 . S
C1632 C1631 1.349 . S
C1632 C1644 1.349 . S
C1633 C1631 1.327 . S
C1633 C1649 1.429 . S
C1633 H1655 0.950 . S
C1634 H1630 0.949 . S
C1634 C1642 1.574 . S
C1634 C1650 1.368 . S
H1635 C1643 0.950 . S
H1636 C1641 0.950 . S
H1637 C1642 0.949 . S
H1638 C1644 0.950 . S
H1639 C1645 0.950 . S
H1640 C1646 0.949 . S
C1641 H1636 0.950 . S
C1641 C1643 1.327 . S
C1641 C1647 1.429 . S
C1642 C1634 1.574 . S
C1642 H1637 0.949 . S
C1642 C1648 1.368 . S
C1643 C1627 1.349 . S
C1643 H1635 0.950 . S
C1643 C1641 1.327 . S
C1644 C1632 1.349 . S
C1644 H1638 0.950 . S
C1644 C1645 1.327 . S
C1645 H1639 0.950 . S
C1645 C1644 1.327 . S
C1645 C1649 1.429 . S
C1646 C1629 1.574 . S
C1646 H1640 0.949 . S
C1646 C1650 1.368 . S
C1647 C1628 1.429 . S
C1647 C1641 1.429 . S
C1647 C1648 1.523 . S
C1648 C1629 1.368 . S
C1648 C1642 1.368 . S
C1648 C1647 1.523 . S
C1649 C1633 1.429 . S
C1649 C1645 1.429 . S
C1649 C1650 1.523 . S
C1650 C1634 1.368 . S
C1650 C1646 1.368 . S
C1650 C1649 1.523 . S
H1651 C1626 0.950 . S
H1652 C1628 0.950 . S
H1653 C1629 0.949 . S
H1654 C1631 0.950 . S
H1655 C1633 0.950 . S
C1656 C1657 1.349 . S
C1656 C1658 1.327 . S
C1656 H1681 0.950 . S
C1657 C1656 1.349 . S
C1657 C1673 1.349 . S
C1658 C1656 1.327 . S
C1658 C1677 1.429 . S
C1658 H1682 0.950 . S
C1659 C1676 1.574 . S
C1659 C1678 1.368 . S
C1659 H1683 0.949 . S
H1660 C1664 0.949 . S
C1661 C1662 1.349 . S
C1661 C1663 1.327 . S
C1661 H1684 0.950 . S
C1662 C1661 1.349 . S
C1662 C1674 1.349 . S
C1663 C1661 1.327 . S
C1663 C1679 1.429 . S
C1663 H1685 0.950 . S
C1664 H1660 0.949 . S
C1664 C1672 1.574 . S
C1664 C1680 1.368 . S
H1665 C1673 0.950 . S
H1666 C1671 0.950 . S
H1667 C1672 0.949 . S
H1668 C1674 0.950 . S
H1669 C1675 0.950 . S
H1670 C1676 0.949 . S
C1671 H1666 0.950 . S
C1671 C1673 1.327 . S
C1671 C1677 1.429 . S
C1672 C1664 1.574 . S
C1672 H1667 0.949 . S
C1672 C1678 1.368 . S
C1673 C1657 1.349 . S
C1673 H1665 0.950 . S
C1673 C1671 1.327 . S
C1674 C1662 1.349 . S
C1674 H1668 0.950 . S
C1674 C1675 1.327 . S
C1675 H1669 0.950 . S
C1675 C1674 1.327 . S
C1675 C1679 1.429 . S
C1676 C1659 1.574 . S
C1676 H1670 0.949 . S
C1676 C1680 1.368 . S
C1677 C1658 1.429 . S
C1677 C1671 1.429 . S
C1677 C1678 1.523 . S
C1678 C1659 1.368 . S
C1678 C1672 1.368 . S
C1678 C1677 1.523 . S
C1679 C1663 1.429 . S
C1679 C1675 1.429 . S
C1679 C1680 1.523 . S
C1680 C1664 1.368 . S
C1680 C1676 1.368 . S
C1680 C1679 1.523 . S
H1681 C1656 0.950 . S
H1682 C1658 0.950 . S
H1683 C1659 0.949 . S
H1684 C1661 0.950 . S
H1685 C1663 0.950 . S
C1686 C1687 1.349 . S
C1686 C1688 1.327 . S
C1686 H1711 0.950 . S
C1687 C1686 1.349 . S
C1687 C1703 1.349 . S
C1688 C1686 1.327 . S
C1688 C1707 1.429 . S
C1688 H1712 0.950 . S
C1689 C1706 1.574 . S
C1689 C1708 1.368 . S
C1689 H1713 0.949 . S
H1690 C1694 0.949 . S
C1691 C1692 1.349 . S
C1691 C1693 1.327 . S
C1691 H1714 0.950 . S
C1692 C1691 1.349 . S
C1692 C1704 1.349 . S
C1693 C1691 1.327 . S
C1693 C1709 1.429 . S
C1693 H1715 0.950 . S
C1694 H1690 0.949 . S
C1694 C1702 1.574 . S
C1694 C1710 1.368 . S
H1695 C1703 0.950 . S
H1696 C1701 0.950 . S
H1697 C1702 0.949 . S
H1698 C1704 0.950 . S
H1699 C1705 0.950 . S
H1700 C1706 0.949 . S
C1701 H1696 0.950 . S
C1701 C1703 1.327 . S
C1701 C1707 1.429 . S
C1702 C1694 1.574 . S
C1702 H1697 0.949 . S
C1702 C1708 1.368 . S
C1703 C1687 1.349 . S
C1703 H1695 0.950 . S
C1703 C1701 1.327 . S
C1704 C1692 1.349 . S
C1704 H1698 0.950 . S
C1704 C1705 1.327 . S
C1705 H1699 0.950 . S
C1705 C1704 1.327 . S
C1705 C1709 1.429 . S
C1706 C1689 1.574 . S
C1706 H1700 0.949 . S
C1706 C1710 1.368 . S
C1707 C1688 1.429 . S
C1707 C1701 1.429 . S
C1707 C1708 1.523 . S
C1708 C1689 1.368 . S
C1708 C1702 1.368 . S
C1708 C1707 1.523 . S
C1709 C1693 1.429 . S
C1709 C1705 1.429 . S
C1709 C1710 1.523 . S
C1710 C1694 1.368 . S
C1710 C1706 1.368 . S
C1710 C1709 1.523 . S
H1711 C1686 0.950 . S
H1712 C1688 0.950 . S
H1713 C1689 0.949 . S
H1714 C1691 0.950 . S
H1715 C1693 0.950 . S
C1716 C1717 1.349 . S
C1716 C1718 1.327 . S
C1716 H1741 0.950 . S
C1717 C1716 1.349 . S
C1717 C1733 1.349 . S
C1718 C1716 1.327 . S
C1718 C1737 1.429 . S
C1718 H1742 0.950 . S
C1719 C1736 1.574 . S
C1719 C1738 1.368 . S
C1719 H1743 0.949 . S
H1720 C1724 0.949 . S
C1721 C1722 1.349 . S
C1721 C1723 1.327 . S
C1721 H1744 0.950 . S
C1722 C1721 1.349 . S
C1722 C1734 1.349 . S
C1723 C1721 1.327 . S
C1723 C1739 1.429 . S
C1723 H1745 0.950 . S
C1724 H1720 0.949 . S
C1724 C1732 1.574 . S
C1724 C1740 1.368 . S
H1725 C1733 0.950 . S
H1726 C1731 0.950 . S
H1727 C1732 0.949 . S
H1728 C1734 0.950 . S
H1729 C1735 0.950 . S
H1730 C1736 0.949 . S
C1731 H1726 0.950 . S
C1731 C1733 1.327 . S
C1731 C1737 1.429 . S
C1732 C1724 1.574 . S
C1732 H1727 0.949 . S
C1732 C1738 1.368 . S
C1733 C1717 1.349 . S
C1733 H1725 0.950 . S
C1733 C1731 1.327 . S
C1734 C1722 1.349 . S
C1734 H1728 0.950 . S
C1734 C1735 1.327 . S
C1735 H1729 0.950 . S
C1735 C1734 1.327 . S
C1735 C1739 1.429 . S
C1736 C1719 1.574 . S
C1736 H1730 0.949 . S
C1736 C1740 1.368 . S
C1737 C1718 1.429 . S
C1737 C1731 1.429 . S
C1737 C1738 1.523 . S
C1738 C1719 1.368 . S
C1738 C1732 1.368 . S
C1738 C1737 1.523 . S
C1739 C1723 1.429 . S
C1739 C1735 1.429 . S
C1739 C1740 1.523 . S
C1740 C1724 1.368 . S
C1740 C1736 1.368 . S
C1740 C1739 1.523 . S
H1741 C1716 0.950 . S
H1742 C1718 0.950 . S
H1743 C1719 0.949 . S
H1744 C1721 0.950 . S
H1745 C1723 0.950 . S
C1746 C1747 1.349 . S
C1746 C1748 1.327 . S
C1746 H1771 0.950 . S
C1747 C1746 1.349 . S
C1747 C1763 1.349 . S
C1748 C1746 1.327 . S
C1748 C1767 1.429 . S
C1748 H1772 0.950 . S
C1749 C1766 1.574 . S
C1749 C1768 1.368 . S
C1749 H1773 0.949 . S
H1750 C1754 0.949 . S
C1751 C1752 1.349 . S
C1751 C1753 1.327 . S
C1751 H1774 0.950 1_554 S
C1752 C1751 1.349 . S
C1752 C1764 1.349 . S
C1753 C1751 1.327 . S
C1753 C1769 1.429 . S
C1753 H1775 0.950 . S
C1754 H1750 0.949 . S
C1754 C1762 1.574 . S
C1754 C1770 1.368 . S
H1755 C1763 0.950 . S
H1756 C1761 0.950 . S
H1757 C1762 0.949 . S
H1758 C1764 0.950 . S
H1759 C1765 0.950 . S
H1760 C1766 0.949 . S
C1761 H1756 0.950 . S
C1761 C1763 1.327 . S
C1761 C1767 1.429 . S
C1762 C1754 1.574 . S
C1762 H1757 0.949 . S
C1762 C1768 1.368 . S
C1763 C1747 1.349 . S
C1763 H1755 0.950 . S
C1763 C1761 1.327 . S
C1764 C1752 1.349 . S
C1764 H1758 0.950 . S
C1764 C1765 1.327 . S
C1765 H1759 0.950 . S
C1765 C1764 1.327 . S
C1765 C1769 1.429 . S
C1766 C1749 1.574 . S
C1766 H1760 0.949 . S
C1766 C1770 1.368 . S
C1767 C1748 1.429 . S
C1767 C1761 1.429 . S
C1767 C1768 1.523 . S
C1768 C1749 1.368 . S
C1768 C1762 1.368 . S
C1768 C1767 1.523 . S
C1769 C1753 1.429 . S
C1769 C1765 1.429 . S
C1769 C1770 1.523 . S
C1770 C1754 1.368 . S
C1770 C1766 1.368 . S
C1770 C1769 1.523 . S
H1771 C1746 0.950 . S
H1772 C1748 0.950 . S
H1773 C1749 0.949 . S
H1774 C1751 0.950 1_556 S
H1775 C1753 0.950 . S
C1776 C1777 1.349 . S
C1776 C1778 1.327 . S
C1776 H1801 0.950 . S
C1777 C1776 1.349 . S
C1777 C1793 1.349 . S
C1778 C1776 1.327 . S
C1778 C1797 1.429 . S
C1778 H1802 0.950 . S
C1779 C1796 1.574 . S
C1779 C1798 1.368 . S
C1779 H1803 0.949 . S
H1780 C1784 0.949 . S
C1781 C1782 1.349 . S
C1781 C1783 1.327 . S
C1781 H1804 0.950 . S
C1782 C1781 1.349 . S
C1782 C1794 1.349 . S
C1783 C1781 1.327 . S
C1783 C1799 1.429 . S
C1783 H1805 0.950 . S
C1784 H1780 0.949 . S
C1784 C1792 1.574 . S
C1784 C1800 1.368 . S
H1785 C1793 0.950 . S
H1786 C1791 0.950 . S
H1787 C1792 0.949 . S
H1788 C1794 0.950 . S
H1789 C1795 0.950 . S
H1790 C1796 0.949 . S
C1791 H1786 0.950 . S
C1791 C1793 1.327 . S
C1791 C1797 1.429 . S
C1792 C1784 1.574 . S
C1792 H1787 0.949 . S
C1792 C1798 1.368 . S
C1793 C1777 1.349 . S
C1793 H1785 0.950 . S
C1793 C1791 1.327 . S
C1794 C1782 1.349 . S
C1794 H1788 0.950 . S
C1794 C1795 1.327 . S
C1795 H1789 0.950 . S
C1795 C1794 1.327 . S
C1795 C1799 1.429 . S
C1796 C1779 1.574 . S
C1796 H1790 0.949 . S
C1796 C1800 1.368 . S
C1797 C1778 1.429 . S
C1797 C1791 1.429 . S
C1797 C1798 1.523 . S
C1798 C1779 1.368 . S
C1798 C1792 1.368 . S
C1798 C1797 1.523 . S
C1799 C1783 1.429 . S
C1799 C1795 1.429 . S
C1799 C1800 1.523 . S
C1800 C1784 1.368 . S
C1800 C1796 1.368 . S
C1800 C1799 1.523 . S
H1801 C1776 0.950 . S
H1802 C1778 0.950 . S
H1803 C1779 0.949 . S
H1804 C1781 0.950 . S
H1805 C1783 0.950 . S
C1806 C1807 1.349 . S
C1806 C1808 1.327 . S
C1806 H1831 0.950 . S
C1807 C1806 1.349 . S
C1807 C1823 1.349 . S
C1808 C1806 1.327 . S
C1808 C1827 1.429 . S
C1808 H1832 0.950 . S
C1809 C1826 1.574 . S
C1809 C1828 1.368 . S
C1809 H1833 0.949 . S
H1810 C1814 0.949 . S
C1811 C1812 1.349 . S
C1811 C1813 1.327 . S
C1811 H1834 0.950 . S
C1812 C1811 1.349 . S
C1812 C1824 1.349 . S
C1813 C1811 1.327 . S
C1813 C1829 1.429 . S
C1813 H1835 0.950 . S
C1814 H1810 0.949 . S
C1814 C1822 1.574 . S
C1814 C1830 1.368 . S
H1815 C1823 0.950 . S
H1816 C1821 0.950 . S
H1817 C1822 0.949 . S
H1818 C1824 0.950 . S
H1819 C1825 0.950 . S
H1820 C1826 0.949 . S
C1821 H1816 0.950 . S
C1821 C1823 1.327 . S
C1821 C1827 1.429 . S
C1822 C1814 1.574 . S
C1822 H1817 0.949 . S
C1822 C1828 1.368 . S
C1823 C1807 1.349 . S
C1823 H1815 0.950 . S
C1823 C1821 1.327 . S
C1824 C1812 1.349 . S
C1824 H1818 0.950 . S
C1824 C1825 1.327 . S
C1825 H1819 0.950 . S
C1825 C1824 1.327 . S
C1825 C1829 1.429 . S
C1826 C1809 1.574 . S
C1826 H1820 0.949 . S
C1826 C1830 1.368 . S
C1827 C1808 1.429 . S
C1827 C1821 1.429 . S
C1827 C1828 1.523 . S
C1828 C1809 1.368 . S
C1828 C1822 1.368 . S
C1828 C1827 1.523 . S
C1829 C1813 1.429 . S
C1829 C1825 1.429 . S
C1829 C1830 1.523 . S
C1830 C1814 1.368 . S
C1830 C1826 1.368 . S
C1830 C1829 1.523 . S
H1831 C1806 0.950 . S
H1832 C1808 0.950 . S
H1833 C1809 0.949 . S
H1834 C1811 0.950 . S
H1835 C1813 0.950 . S
C1836 C1837 1.349 . S
C1836 C1838 1.327 . S
C1836 H1861 0.950 . S
C1837 C1836 1.349 . S
C1837 C1853 1.349 . S
C1838 C1836 1.327 . S
C1838 C1857 1.429 . S
C1838 H1862 0.950 . S
C1839 C1856 1.574 . S
C1839 C1858 1.368 . S
C1839 H1863 0.949 . S
H1840 C1844 0.949 . S
C1841 C1842 1.349 . S
C1841 C1843 1.327 . S
C1841 H1864 0.950 . S
C1842 C1841 1.349 . S
C1842 C1854 1.349 . S
C1843 C1841 1.327 . S
C1843 C1859 1.429 . S
C1843 H1865 0.950 . S
C1844 H1840 0.949 . S
C1844 C1852 1.574 . S
C1844 C1860 1.368 . S
H1845 C1853 0.950 . S
H1846 C1851 0.950 . S
H1847 C1852 0.949 . S
H1848 C1854 0.950 . S
H1849 C1855 0.950 . S
H1850 C1856 0.949 . S
C1851 H1846 0.950 . S
C1851 C1853 1.327 . S
C1851 C1857 1.429 . S
C1852 C1844 1.574 . S
C1852 H1847 0.949 . S
C1852 C1858 1.368 . S
C1853 C1837 1.349 . S
C1853 H1845 0.950 . S
C1853 C1851 1.327 . S
C1854 C1842 1.349 . S
C1854 H1848 0.950 . S
C1854 C1855 1.327 . S
C1855 H1849 0.950 . S
C1855 C1854 1.327 . S
C1855 C1859 1.429 . S
C1856 C1839 1.574 . S
C1856 H1850 0.949 . S
C1856 C1860 1.368 . S
C1857 C1838 1.429 . S
C1857 C1851 1.429 . S
C1857 C1858 1.523 . S
C1858 C1839 1.368 . S
C1858 C1852 1.368 . S
C1858 C1857 1.523 . S
C1859 C1843 1.429 . S
C1859 C1855 1.429 . S
C1859 C1860 1.523 . S
C1860 C1844 1.368 . S
C1860 C1856 1.368 . S
C1860 C1859 1.523 . S
H1861 C1836 0.950 . S
H1862 C1838 0.950 . S
H1863 C1839 0.949 . S
H1864 C1841 0.950 . S
H1865 C1843 0.950 . S
C1866 C1867 1.349 . S
C1866 C1868 1.327 . S
C1866 H1891 0.950 . S
C1867 C1866 1.349 . S
C1867 C1883 1.349 . S
C1868 C1866 1.327 . S
C1868 C1887 1.429 . S
C1868 H1892 0.950 . S
C1869 C1886 1.574 . S
C1869 C1888 1.368 . S
C1869 H1893 0.949 . S
H1870 C1874 0.949 . S
C1871 C1872 1.349 . S
C1871 C1873 1.327 . S
C1871 H1894 0.950 . S
C1872 C1871 1.349 . S
C1872 C1884 1.349 . S
C1873 C1871 1.327 . S
C1873 C1889 1.429 . S
C1873 H1895 0.950 . S
C1874 H1870 0.949 . S
C1874 C1882 1.574 . S
C1874 C1890 1.368 . S
H1875 C1883 0.950 . S
H1876 C1881 0.950 . S
H1877 C1882 0.949 . S
H1878 C1884 0.950 . S
H1879 C1885 0.950 . S
H1880 C1886 0.949 . S
C1881 H1876 0.950 . S
C1881 C1883 1.327 . S
C1881 C1887 1.429 . S
C1882 C1874 1.574 . S
C1882 H1877 0.949 . S
C1882 C1888 1.368 . S
C1883 C1867 1.349 . S
C1883 H1875 0.950 . S
C1883 C1881 1.327 . S
C1884 C1872 1.349 . S
C1884 H1878 0.950 . S
C1884 C1885 1.327 . S
C1885 H1879 0.950 . S
C1885 C1884 1.327 . S
C1885 C1889 1.429 . S
C1886 C1869 1.574 . S
C1886 H1880 0.949 . S
C1886 C1890 1.368 . S
C1887 C1868 1.429 . S
C1887 C1881 1.429 . S
C1887 C1888 1.523 . S
C1888 C1869 1.368 . S
C1888 C1882 1.368 . S
C1888 C1887 1.523 . S
C1889 C1873 1.429 . S
C1889 C1885 1.429 . S
C1889 C1890 1.523 . S
C1890 C1874 1.368 . S
C1890 C1886 1.368 . S
C1890 C1889 1.523 . S
H1891 C1866 0.950 . S
H1892 C1868 0.950 . S
H1893 C1869 0.949 . S
H1894 C1871 0.950 . S
H1895 C1873 0.950 . S
C1896 C1897 1.349 . S
C1896 C1898 1.327 . S
C1896 H1921 0.950 . S
C1897 C1896 1.349 . S
C1897 C1913 1.349 . S
C1898 C1896 1.327 . S
C1898 C1917 1.429 . S
C1898 H1922 0.950 . S
C1899 C1916 1.574 . S
C1899 C1918 1.368 . S
C1899 H1923 0.949 . S
H1900 C1904 0.949 . S
C1901 C1902 1.349 . S
C1901 C1903 1.327 . S
C1901 H1924 0.950 . S
C1902 C1901 1.349 . S
C1902 C1914 1.349 . S
C1903 C1901 1.327 . S
C1903 C1919 1.429 . S
C1903 H1925 0.950 . S
C1904 H1900 0.949 . S
C1904 C1912 1.574 . S
C1904 C1920 1.368 . S
H1905 C1913 0.950 . S
H1906 C1911 0.950 . S
H1907 C1912 0.949 . S
H1908 C1914 0.950 . S
H1909 C1915 0.950 . S
H1910 C1916 0.949 . S
C1911 H1906 0.950 . S
C1911 C1913 1.327 . S
C1911 C1917 1.429 . S
C1912 C1904 1.574 . S
C1912 H1907 0.949 . S
C1912 C1918 1.368 . S
C1913 C1897 1.349 . S
C1913 H1905 0.950 . S
C1913 C1911 1.327 . S
C1914 C1902 1.349 . S
C1914 H1908 0.950 . S
C1914 C1915 1.327 . S
C1915 H1909 0.950 . S
C1915 C1914 1.327 . S
C1915 C1919 1.429 . S
C1916 C1899 1.574 . S
C1916 H1910 0.949 . S
C1916 C1920 1.368 . S
C1917 C1898 1.429 . S
C1917 C1911 1.429 . S
C1917 C1918 1.523 . S
C1918 C1899 1.368 . S
C1918 C1912 1.368 . S
C1918 C1917 1.523 . S
C1919 C1903 1.429 . S
C1919 C1915 1.429 . S
C1919 C1920 1.523 . S
C1920 C1904 1.368 . S
C1920 C1916 1.368 . S
C1920 C1919 1.523 . S
H1921 C1896 0.950 . S
H1922 C1898 0.950 . S
H1923 C1899 0.949 . S
H1924 C1901 0.950 . S
H1925 C1903 0.950 . S
C1926 C1927 1.349 . S
C1926 C1928 1.327 . S
C1926 H1951 0.950 . S
C1927 C1926 1.349 . S
C1927 C1943 1.349 . S
C1928 C1926 1.327 . S
C1928 C1947 1.429 . S
C1928 H1952 0.950 . S
C1929 C1946 1.574 . S
C1929 C1948 1.368 . S
C1929 H1953 0.949 . S
H1930 C1934 0.949 . S
C1931 C1932 1.349 . S
C1931 C1933 1.327 . S
C1931 H1954 0.950 . S
C1932 C1931 1.349 . S
C1932 C1944 1.349 . S
C1933 C1931 1.327 . S
C1933 C1949 1.429 . S
C1933 H1955 0.950 . S
C1934 H1930 0.949 . S
C1934 C1942 1.574 . S
C1934 C1950 1.368 . S
H1935 C1943 0.950 . S
H1936 C1941 0.950 . S
H1937 C1942 0.949 . S
H1938 C1944 0.950 . S
H1939 C1945 0.950 . S
H1940 C1946 0.949 . S
C1941 H1936 0.950 . S
C1941 C1943 1.327 . S
C1941 C1947 1.429 . S
C1942 C1934 1.574 . S
C1942 H1937 0.949 . S
C1942 C1948 1.368 . S
C1943 C1927 1.349 . S
C1943 H1935 0.950 . S
C1943 C1941 1.327 . S
C1944 C1932 1.349 . S
C1944 H1938 0.950 . S
C1944 C1945 1.327 . S
C1945 H1939 0.950 . S
C1945 C1944 1.327 . S
C1945 C1949 1.429 . S
C1946 C1929 1.574 . S
C1946 H1940 0.949 . S
C1946 C1950 1.368 . S
C1947 C1928 1.429 . S
C1947 C1941 1.429 . S
C1947 C1948 1.523 . S
C1948 C1929 1.368 . S
C1948 C1942 1.368 . S
C1948 C1947 1.523 . S
C1949 C1933 1.429 . S
C1949 C1945 1.429 . S
C1949 C1950 1.523 . S
C1950 C1934 1.368 . S
C1950 C1946 1.368 . S
C1950 C1949 1.523 . S
H1951 C1926 0.950 . S
H1952 C1928 0.950 . S
H1953 C1929 0.949 . S
H1954 C1931 0.950 . S
H1955 C1933 0.950 . S
C1956 C1957 1.349 . S
C1956 C1958 1.327 . S
C1956 H1981 0.950 . S
C1957 C1956 1.349 . S
C1957 C1973 1.349 . S
C1958 C1956 1.327 . S
C1958 C1977 1.429 . S
C1958 H1982 0.950 . S
C1959 C1976 1.574 . S
C1959 C1978 1.368 . S
C1959 H1983 0.949 . S
H1960 C1964 0.949 . S
C1961 C1962 1.349 . S
C1961 C1963 1.327 . S
C1961 H1984 0.950 . S
C1962 C1961 1.349 . S
C1962 C1974 1.349 . S
C1963 C1961 1.327 . S
C1963 C1979 1.429 . S
C1963 H1985 0.950 . S
C1964 H1960 0.949 . S
C1964 C1972 1.574 . S
C1964 C1980 1.368 . S
H1965 C1973 0.950 . S
H1966 C1971 0.950 . S
H1967 C1972 0.949 . S
H1968 C1974 0.950 . S
H1969 C1975 0.950 . S
H1970 C1976 0.949 . S
C1971 H1966 0.950 . S
C1971 C1973 1.327 . S
C1971 C1977 1.429 . S
C1972 C1964 1.574 . S
C1972 H1967 0.949 . S
C1972 C1978 1.368 . S
C1973 C1957 1.349 . S
C1973 H1965 0.950 . S
C1973 C1971 1.327 . S
C1974 C1962 1.349 . S
C1974 H1968 0.950 . S
C1974 C1975 1.327 . S
C1975 H1969 0.950 . S
C1975 C1974 1.327 . S
C1975 C1979 1.429 . S
C1976 C1959 1.574 . S
C1976 H1970 0.949 . S
C1976 C1980 1.368 . S
C1977 C1958 1.429 . S
C1977 C1971 1.429 . S
C1977 C1978 1.523 . S
C1978 C1959 1.368 . S
C1978 C1972 1.368 . S
C1978 C1977 1.523 . S
C1979 C1963 1.429 . S
C1979 C1975 1.429 . S
C1979 C1980 1.523 . S
C1980 C1964 1.368 . S
C1980 C1976 1.368 . S
C1980 C1979 1.523 . S
H1981 C1956 0.950 . S
H1982 C1958 0.950 . S
H1983 C1959 0.949 . S
H1984 C1961 0.950 . S
H1985 C1963 0.950 . S
C1986 C1987 1.349 . S
C1986 C1988 1.327 . S
C1986 H2011 0.950 . S
C1987 C1986 1.349 . S
C1987 C2003 1.349 . S
C1988 C1986 1.327 . S
C1988 C2007 1.429 . S
C1988 H2012 0.950 . S
C1989 C2006 1.574 . S
C1989 C2008 1.368 . S
C1989 H2013 0.949 . S
H1990 C1994 0.949 . S
C1991 C1992 1.349 . S
C1991 C1993 1.327 . S
C1991 H2014 0.950 . S
C1992 C1991 1.349 . S
C1992 C2004 1.349 . S
C1993 C1991 1.327 . S
C1993 C2009 1.429 . S
C1993 H2015 0.950 . S
C1994 H1990 0.949 . S
C1994 C2002 1.574 . S
C1994 C2010 1.368 . S
H1995 C2003 0.962 . S
H1996 C2001 0.950 . S
H1997 C2002 0.949 . S
H1998 C2004 0.950 . S
H1999 C2005 0.950 . S
H2000 C2006 0.949 . S
C2001 H1996 0.950 . S
C2001 C2003 1.327 . S
C2001 C2007 1.429 . S
C2002 C1994 1.574 . S
C2002 H1997 0.949 . S
C2002 C2008 1.368 . S
C2003 C1987 1.349 . S
C2003 H1995 0.962 . S
C2003 C2001 1.327 . S
C2004 C1992 1.349 . S
C2004 H1998 0.950 . S
C2004 C2005 1.327 . S
C2005 H1999 0.950 . S
C2005 C2004 1.327 . S
C2005 C2009 1.429 . S
C2006 C1989 1.574 . S
C2006 H2000 0.949 . S
C2006 C2010 1.368 . S
C2007 C1988 1.429 . S
C2007 C2001 1.429 . S
C2007 C2008 1.523 . S
C2008 C1989 1.368 . S
C2008 C2002 1.368 . S
C2008 C2007 1.523 . S
C2009 C1993 1.429 . S
C2009 C2005 1.429 . S
C2009 C2010 1.523 . S
C2010 C1994 1.368 . S
C2010 C2006 1.368 . S
C2010 C2009 1.523 . S
H2011 C1986 0.950 . S
H2012 C1988 0.950 . S
H2013 C1989 0.949 . S
H2014 C1991 0.950 . S
H2015 C1993 0.950 . S
C2016 C2017 1.349 . S
C2016 C2018 1.327 . S
C2016 H2041 0.950 . S
C2017 C2016 1.349 . S
C2017 C2033 1.349 . S
C2018 C2016 1.327 . S
C2018 C2037 1.429 . S
C2018 H2042 0.950 . S
C2019 C2036 1.574 . S
C2019 C2038 1.368 . S
C2019 H2043 0.949 . S
H2020 C2024 0.949 . S
C2021 C2022 1.349 . S
C2021 C2023 1.327 . S
C2021 H2044 0.950 . S
C2022 C2021 1.349 . S
C2022 C2034 1.349 . S
C2023 C2021 1.327 . S
C2023 C2039 1.429 . S
C2023 H2045 0.950 . S
C2024 H2020 0.949 . S
C2024 C2032 1.574 . S
C2024 C2040 1.368 . S
H2025 C2033 0.950 . S
H2026 C2031 0.950 . S
H2027 C2032 0.949 . S
H2028 C2034 0.950 . S
H2029 C2035 0.950 . S
H2030 C2036 0.949 . S
C2031 H2026 0.950 . S
C2031 C2033 1.327 . S
C2031 C2037 1.429 . S
C2032 C2024 1.574 . S
C2032 H2027 0.949 . S
C2032 C2038 1.368 . S
C2033 C2017 1.349 . S
C2033 H2025 0.950 . S
C2033 C2031 1.327 . S
C2034 C2022 1.349 . S
C2034 H2028 0.950 . S
C2034 C2035 1.327 . S
C2035 H2029 0.950 . S
C2035 C2034 1.327 . S
C2035 C2039 1.429 . S
C2036 C2019 1.574 . S
C2036 H2030 0.949 . S
C2036 C2040 1.368 . S
C2037 C2018 1.429 . S
C2037 C2031 1.429 . S
C2037 C2038 1.523 . S
C2038 C2019 1.368 . S
C2038 C2032 1.368 . S
C2038 C2037 1.523 . S
C2039 C2023 1.429 . S
C2039 C2035 1.429 . S
C2039 C2040 1.523 . S
C2040 C2024 1.368 . S
C2040 C2036 1.368 . S
C2040 C2039 1.523 . S
H2041 C2016 0.950 . S
H2042 C2018 0.950 . S
H2043 C2019 0.949 . S
H2044 C2021 0.950 . S
H2045 C2023 0.950 . S
C2046 C2047 1.349 1_565 S
C2046 C2048 1.327 . S
C2046 H2071 0.950 . S
C2047 C2046 1.349 1_545 S
C2047 C2063 1.349 . S
C2048 C2046 1.327 . S
C2048 C2067 1.380 1_565 S
C2048 H2072 0.950 . S
C2049 C2066 1.574 . S
C2049 C2068 1.387 . S
C2049 H2073 0.949 . S
H2050 C2054 0.949 . S
C2051 C2052 1.349 1_545 S
C2051 C2053 1.327 . S
C2051 H2074 0.950 . S
C2052 C2051 1.349 1_565 S
C2052 C2064 1.349 . S
C2053 C2051 1.327 . S
C2053 C2069 1.429 1_545 S
C2053 H2075 0.950 . S
C2054 H2050 0.949 . S
C2054 C2062 1.574 . S
C2054 C2070 1.400 . S
H2055 C2063 0.950 . S
H2056 C2061 0.950 . S
H2057 C2062 0.949 . S
H2058 C2064 0.950 . S
H2059 C2065 0.950 . S
H2060 C2066 0.949 . S
C2061 H2056 0.950 . S
C2061 C2063 1.327 . S
C2061 C2067 1.481 . S
C2062 C2054 1.574 . S
C2062 H2057 0.949 . S
C2062 C2068 1.349 1_565 S
C2063 C2047 1.349 . S
C2063 H2055 0.950 . S
C2063 C2061 1.327 . S
C2064 C2052 1.349 . S
C2064 H2058 0.950 . S
C2064 C2065 1.327 . S
C2065 H2059 0.950 . S
C2065 C2064 1.327 . S
C2065 C2069 1.429 . S
C2066 C2049 1.574 . S
C2066 H2060 0.949 . S
C2066 C2070 1.336 1_545 S
C2067 C2048 1.380 1_545 S
C2067 C2061 1.481 . S
C2067 C2068 1.522 . S
C2068 C2049 1.387 . S
C2068 C2062 1.349 1_545 S
C2068 C2067 1.522 . S
C2069 C2053 1.429 1_565 S
C2069 C2065 1.429 . S
C2069 C2070 1.525 . S
C2070 C2054 1.400 . S
C2070 C2066 1.336 1_565 S
C2070 C2069 1.525 . S
H2071 C2046 0.950 . S
H2072 C2048 0.950 . S
H2073 C2049 0.949 . S
H2074 C2051 0.950 . S
H2075 C2053 0.950 . S
C2076 C2077 1.349 . S
C2076 C2078 1.327 . S
C2076 H2101 0.950 . S
C2077 C2076 1.349 . S
C2077 C2093 1.349 . S
C2078 C2076 1.327 . S
C2078 C2097 1.429 . S
C2078 H2102 0.950 . S
C2079 C2096 1.574 . S
C2079 C2098 1.368 . S
C2079 H2103 0.949 . S
H2080 C2084 0.949 . S
C2081 C2082 1.349 . S
C2081 C2083 1.327 . S
C2081 H2104 0.950 . S
C2082 C2081 1.349 . S
C2082 C2094 1.349 . S
C2083 C2081 1.327 . S
C2083 C2099 1.429 . S
C2083 H2105 0.950 . S
C2084 H2080 0.949 . S
C2084 C2092 1.574 . S
C2084 C2100 1.368 . S
H2085 C2093 0.950 . S
H2086 C2091 0.950 . S
H2087 C2092 0.949 . S
H2088 C2094 0.950 . S
H2089 C2095 0.950 . S
H2090 C2096 0.949 . S
C2091 H2086 0.950 . S
C2091 C2093 1.327 . S
C2091 C2097 1.429 . S
C2092 C2084 1.574 . S
C2092 H2087 0.949 . S
C2092 C2098 1.368 . S
C2093 C2077 1.349 . S
C2093 H2085 0.950 . S
C2093 C2091 1.327 . S
C2094 C2082 1.349 . S
C2094 H2088 0.950 . S
C2094 C2095 1.327 . S
C2095 H2089 0.950 . S
C2095 C2094 1.327 . S
C2095 C2099 1.429 . S
C2096 C2079 1.574 . S
C2096 H2090 0.949 . S
C2096 C2100 1.368 . S
C2097 C2078 1.429 . S
C2097 C2091 1.429 . S
C2097 C2098 1.523 . S
C2098 C2079 1.368 . S
C2098 C2092 1.368 . S
C2098 C2097 1.523 . S
C2099 C2083 1.429 . S
C2099 C2095 1.429 . S
C2099 C2100 1.523 . S
C2100 C2084 1.368 . S
C2100 C2096 1.368 . S
C2100 C2099 1.523 . S
H2101 C2076 0.950 . S
H2102 C2078 0.950 . S
H2103 C2079 0.949 . S
H2104 C2081 0.950 . S
H2105 C2083 0.950 . S
C2106 C2107 1.349 1_545 S
C2106 C2108 1.327 . S
C2106 H2131 0.950 . S
C2107 C2106 1.349 1_565 S
C2107 C2123 1.349 . S
C2108 C2106 1.327 . S
C2108 C2127 1.382 1_545 S
C2108 H2132 0.950 . S
C2109 C2126 1.574 1_556 S
C2109 C2128 1.386 . S
C2109 H2133 0.949 . S
H2110 C2114 0.949 . S
C2111 C2112 1.349 1_565 S
C2111 C2113 1.327 . S
C2111 H2134 0.950 . S
C2112 C2111 1.349 1_545 S
C2112 C2124 1.349 . S
C2113 C2111 1.327 . S
C2113 C2129 1.429 1_565 S
C2113 H2135 0.950 . S
C2114 H2110 0.949 . S
C2114 C2122 1.574 1_554 S
C2114 C2130 1.399 . S
H2115 C2123 0.950 . S
H2116 C2121 0.950 . S
H2117 C2122 0.949 . S
H2118 C2124 0.950 . S
H2119 C2125 0.950 . S
H2120 C2126 0.949 . S
C2121 H2116 0.950 . S
C2121 C2123 1.327 . S
C2121 C2127 1.479 . S
C2122 C2114 1.574 1_556 S
C2122 H2117 0.949 . S
C2122 C2128 1.350 1_545 S
C2123 C2107 1.349 . S
C2123 H2115 0.950 . S
C2123 C2121 1.327 . S
C2124 C2112 1.349 . S
C2124 H2118 0.950 . S
C2124 C2125 1.327 . S
C2125 H2119 0.950 . S
C2125 C2124 1.327 . S
C2125 C2129 1.429 . S
C2126 C2109 1.574 1_554 S
C2126 H2120 0.949 . S
C2126 C2130 1.337 1_565 S
C2127 C2108 1.382 1_565 S
C2127 C2121 1.479 . S
C2127 C2128 1.522 . S
C2128 C2109 1.386 . S
C2128 C2122 1.350 1_565 S
C2128 C2127 1.522 . S
C2129 C2113 1.429 1_545 S
C2129 C2125 1.429 . S
C2129 C2130 1.525 . S
C2130 C2114 1.399 . S
C2130 C2126 1.337 1_545 S
C2130 C2129 1.525 . S
H2131 C2106 0.950 . S
H2132 C2108 0.950 . S
H2133 C2109 0.949 . S
H2134 C2111 0.950 . S
H2135 C2113 0.950 . S
C2136 C2137 1.349 . S
C2136 C2138 1.327 . S
C2136 H2161 0.950 . S
C2137 C2136 1.349 . S
C2137 C2153 1.349 . S
C2138 C2136 1.327 . S
C2138 C2157 1.429 . S
C2138 H2162 0.950 . S
C2139 C2156 1.574 . S
C2139 C2158 1.368 . S
C2139 H2163 0.949 . S
H2140 C2144 0.949 . S
C2141 C2142 1.349 . S
C2141 C2143 1.327 . S
C2141 H2164 0.950 . S
C2142 C2141 1.349 . S
C2142 C2154 1.349 . S
C2143 C2141 1.327 . S
C2143 C2159 1.429 . S
C2143 H2165 0.950 . S
C2144 H2140 0.949 . S
C2144 C2152 1.574 . S
C2144 C2160 1.368 . S
H2145 C2153 0.950 . S
H2146 C2151 0.950 . S
H2147 C2152 0.949 . S
H2148 C2154 0.950 . S
H2149 C2155 0.950 . S
H2150 C2156 0.949 . S
C2151 H2146 0.950 . S
C2151 C2153 1.327 . S
C2151 C2157 1.429 . S
C2152 C2144 1.574 . S
C2152 H2147 0.949 . S
C2152 C2158 1.368 . S
C2153 C2137 1.349 . S
C2153 H2145 0.950 . S
C2153 C2151 1.327 . S
C2154 C2142 1.349 . S
C2154 H2148 0.950 . S
C2154 C2155 1.327 . S
C2155 H2149 0.950 . S
C2155 C2154 1.327 . S
C2155 C2159 1.429 . S
C2156 C2139 1.574 . S
C2156 H2150 0.949 . S
C2156 C2160 1.368 . S
C2157 C2138 1.429 . S
C2157 C2151 1.429 . S
C2157 C2158 1.523 . S
C2158 C2139 1.368 . S
C2158 C2152 1.368 . S
C2158 C2157 1.523 . S
C2159 C2143 1.429 . S
C2159 C2155 1.429 . S
C2159 C2160 1.523 . S
C2160 C2144 1.368 . S
C2160 C2156 1.368 . S
C2160 C2159 1.523 . S
H2161 C2136 0.950 . S
H2162 C2138 0.950 . S
H2163 C2139 0.949 . S
H2164 C2141 0.950 . S
H2165 C2143 0.950 . S
C2166 C2167 1.349 1_565 S
C2166 C2168 1.327 . S
C2166 H2191 0.950 . S
C2167 C2166 1.349 1_545 S
C2167 C2183 1.349 . S
C2168 C2166 1.327 . S
C2168 C2187 1.380 1_565 S
C2168 H2192 0.950 . S
C2169 C2186 1.574 . S
C2169 C2188 1.387 . S
C2169 H2193 0.949 . S
H2170 C2174 0.949 . S
C2171 C2172 1.349 1_545 S
C2171 C2173 1.327 . S
C2171 H2194 0.950 . S
C2172 C2171 1.349 1_565 S
C2172 C2184 1.349 . S
C2173 C2171 1.327 . S
C2173 C2189 1.429 1_545 S
C2173 H2195 0.950 . S
C2174 H2170 0.949 . S
C2174 C2182 1.574 . S
C2174 C2190 1.400 . S
H2175 C2183 0.950 . S
H2176 C2181 0.950 . S
H2177 C2182 0.949 . S
H2178 C2184 0.950 . S
H2179 C2185 0.950 . S
H2180 C2186 0.949 . S
C2181 H2176 0.950 . S
C2181 C2183 1.327 . S
C2181 C2187 1.481 . S
C2182 C2174 1.574 . S
C2182 H2177 0.949 . S
C2182 C2188 1.349 1_565 S
C2183 C2167 1.349 . S
C2183 H2175 0.950 . S
C2183 C2181 1.327 . S
C2184 C2172 1.349 . S
C2184 H2178 0.950 . S
C2184 C2185 1.327 . S
C2185 H2179 0.950 . S
C2185 C2184 1.327 . S
C2185 C2189 1.429 . S
C2186 C2169 1.574 . S
C2186 H2180 0.949 . S
C2186 C2190 1.336 1_545 S
C2187 C2168 1.380 1_545 S
C2187 C2181 1.481 . S
C2187 C2188 1.522 . S
C2188 C2169 1.387 . S
C2188 C2182 1.349 1_545 S
C2188 C2187 1.522 . S
C2189 C2173 1.429 1_565 S
C2189 C2185 1.429 . S
C2189 C2190 1.525 . S
C2190 C2174 1.400 . S
C2190 C2186 1.336 1_565 S
C2190 C2189 1.525 . S
H2191 C2166 0.950 . S
H2192 C2168 0.950 . S
H2193 C2169 0.949 . S
H2194 C2171 0.950 . S
H2195 C2173 0.950 . S
C2196 C2197 1.349 . S
C2196 C2198 1.327 . S
C2196 H2221 0.950 . S
C2197 C2196 1.349 . S
C2197 C2213 1.349 . S
C2198 C2196 1.327 . S
C2198 C2217 1.429 . S
C2198 H2222 0.950 . S
C2199 C2216 1.574 . S
C2199 C2218 1.368 . S
C2199 H2223 0.949 . S
H2200 C2204 0.949 . S
C2201 C2202 1.349 . S
C2201 C2203 1.327 . S
C2201 H2224 0.950 . S
C2202 C2201 1.349 . S
C2202 C2214 1.349 . S
C2203 C2201 1.327 . S
C2203 C2219 1.429 . S
C2203 H2225 0.950 . S
C2204 H2200 0.949 . S
C2204 C2212 1.574 . S
C2204 C2220 1.368 . S
H2205 C2213 0.950 . S
H2206 C2211 0.950 . S
H2207 C2212 0.949 . S
H2208 C2214 0.950 . S
H2209 C2215 0.950 . S
H2210 C2216 0.949 . S
C2211 H2206 0.950 . S
C2211 C2213 1.327 . S
C2211 C2217 1.429 . S
C2212 C2204 1.574 . S
C2212 H2207 0.949 . S
C2212 C2218 1.368 . S
C2213 C2197 1.349 . S
C2213 H2205 0.950 . S
C2213 C2211 1.327 . S
C2214 C2202 1.349 . S
C2214 H2208 0.950 . S
C2214 C2215 1.327 . S
C2215 H2209 0.950 . S
C2215 C2214 1.327 . S
C2215 C2219 1.429 . S
C2216 C2199 1.574 . S
C2216 H2210 0.949 . S
C2216 C2220 1.368 . S
C2217 C2198 1.429 . S
C2217 C2211 1.429 . S
C2217 C2218 1.523 . S
C2218 C2199 1.368 . S
C2218 C2212 1.368 . S
C2218 C2217 1.523 . S
C2219 C2203 1.429 . S
C2219 C2215 1.429 . S
C2219 C2220 1.523 . S
C2220 C2204 1.368 . S
C2220 C2216 1.368 . S
C2220 C2219 1.523 . S
H2221 C2196 0.950 . S
H2222 C2198 0.950 . S
H2223 C2199 0.949 . S
H2224 C2201 0.950 . S
H2225 C2203 0.950 . S
C2226 C2227 1.349 1_545 S
C2226 C2228 1.327 . S
C2226 H2251 0.950 . S
C2227 C2226 1.349 1_565 S
C2227 C2243 1.349 . S
C2228 C2226 1.327 . S
C2228 C2247 1.382 1_545 S
C2228 H2252 0.950 . S
C2229 C2246 1.574 1_556 S
C2229 C2248 1.386 . S
C2229 H2253 0.949 . S
H2230 C2234 0.949 . S
C2231 C2232 1.349 1_565 S
C2231 C2233 1.327 . S
C2231 H2254 0.950 . S
C2232 C2231 1.349 1_545 S
C2232 C2244 1.349 . S
C2233 C2231 1.327 . S
C2233 C2249 1.429 1_565 S
C2233 H2255 0.950 . S
C2234 H2230 0.949 . S
C2234 C2242 1.574 1_554 S
C2234 C2250 1.399 . S
H2235 C2243 0.950 . S
H2236 C2241 0.950 . S
H2237 C2242 0.949 . S
H2238 C2244 0.950 . S
H2239 C2245 0.950 . S
H2240 C2246 0.949 . S
C2241 H2236 0.950 . S
C2241 C2243 1.327 . S
C2241 C2247 1.480 . S
C2242 C2234 1.574 1_556 S
C2242 H2237 0.949 . S
C2242 C2248 1.350 1_545 S
C2243 C2227 1.349 . S
C2243 H2235 0.950 . S
C2243 C2241 1.327 . S
C2244 C2232 1.349 . S
C2244 H2238 0.950 . S
C2244 C2245 1.327 . S
C2245 H2239 0.950 . S
C2245 C2244 1.327 . S
C2245 C2249 1.429 . S
C2246 C2229 1.574 1_554 S
C2246 H2240 0.949 . S
C2246 C2250 1.337 1_565 S
C2247 C2228 1.382 1_565 S
C2247 C2241 1.480 . S
C2247 C2248 1.522 . S
C2248 C2229 1.386 . S
C2248 C2242 1.350 1_565 S
C2248 C2247 1.522 . S
C2249 C2233 1.429 1_545 S
C2249 C2245 1.429 . S
C2249 C2250 1.525 . S
C2250 C2234 1.399 . S
C2250 C2246 1.337 1_545 S
C2250 C2249 1.525 . S
H2251 C2226 0.950 . S
H2252 C2228 0.950 . S
H2253 C2229 0.949 . S
H2254 C2231 0.950 . S
H2255 C2233 0.950 . S
C2256 C2257 1.349 . S
C2256 C2258 1.327 . S
C2256 H2281 0.950 . S
C2257 C2256 1.349 . S
C2257 C2273 1.349 . S
C2258 C2256 1.327 . S
C2258 C2277 1.429 . S
C2258 H2282 0.950 . S
C2259 C2276 1.574 . S
C2259 C2278 1.368 . S
C2259 H2283 0.949 . S
H2260 C2264 0.949 . S
C2261 C2262 1.349 . S
C2261 C2263 1.327 . S
C2261 H2284 0.950 . S
C2262 C2261 1.349 . S
C2262 C2274 1.349 . S
C2263 C2261 1.327 . S
C2263 C2279 1.429 . S
C2263 H2285 0.950 . S
C2264 H2260 0.949 . S
C2264 C2272 1.574 . S
C2264 C2280 1.368 . S
H2265 C2273 0.950 . S
H2266 C2271 0.950 . S
H2267 C2272 0.949 . S
H2268 C2274 0.950 . S
H2269 C2275 0.950 . S
H2270 C2276 0.949 . S
C2271 H2266 0.950 . S
C2271 C2273 1.327 . S
C2271 C2277 1.429 . S
C2272 C2264 1.574 . S
C2272 H2267 0.949 . S
C2272 C2278 1.368 . S
C2273 C2257 1.349 . S
C2273 H2265 0.950 . S
C2273 C2271 1.327 . S
C2274 C2262 1.349 . S
C2274 H2268 0.950 . S
C2274 C2275 1.327 . S
C2275 H2269 0.950 . S
C2275 C2274 1.327 . S
C2275 C2279 1.429 . S
C2276 C2259 1.574 . S
C2276 H2270 0.949 . S
C2276 C2280 1.368 . S
C2277 C2258 1.429 . S
C2277 C2271 1.429 . S
C2277 C2278 1.523 . S
C2278 C2259 1.368 . S
C2278 C2272 1.368 . S
C2278 C2277 1.523 . S
C2279 C2263 1.429 . S
C2279 C2275 1.429 . S
C2279 C2280 1.523 . S
C2280 C2264 1.368 . S
C2280 C2276 1.368 . S
C2280 C2279 1.523 . S
H2281 C2256 0.950 . S
H2282 C2258 0.950 . S
H2283 C2259 0.949 . S
H2284 C2261 0.950 . S
H2285 C2263 0.950 . S
C2286 C2287 1.349 . S
C2286 C2288 1.327 . S
C2286 H2311 0.950 . S
C2287 C2286 1.349 . S
C2287 C2303 1.349 . S
C2288 C2286 1.327 . S
C2288 C2307 1.429 . S
C2288 H2312 0.950 . S
C2289 C2306 1.574 1_556 S
C2289 C2308 1.368 . S
C2289 H2313 0.949 . S
H2290 C2294 0.949 . S
C2291 C2292 1.349 . S
C2291 C2293 1.327 . S
C2291 H2314 0.950 . S
C2292 C2291 1.349 . S
C2292 C2304 1.349 . S
C2293 C2291 1.327 . S
C2293 C2309 1.429 . S
C2293 H2315 0.950 . S
C2294 H2290 0.949 . S
C2294 C2302 1.574 1_554 S
C2294 C2310 1.368 . S
H2295 C2303 0.950 . S
H2296 C2301 0.950 . S
H2297 C2302 0.949 . S
H2298 C2304 0.950 . S
H2299 C2305 0.950 . S
H2300 C2306 0.949 . S
C2301 H2296 0.950 . S
C2301 C2303 1.327 . S
C2301 C2307 1.429 . S
C2302 C2294 1.574 1_556 S
C2302 H2297 0.949 . S
C2302 C2308 1.368 . S
C2303 C2287 1.349 . S
C2303 H2295 0.950 . S
C2303 C2301 1.327 . S
C2304 C2292 1.349 . S
C2304 H2298 0.950 . S
C2304 C2305 1.327 . S
C2305 H2299 0.950 . S
C2305 C2304 1.327 . S
C2305 C2309 1.429 . S
C2306 C2289 1.574 1_554 S
C2306 H2300 0.949 . S
C2306 C2310 1.368 . S
C2307 C2288 1.429 . S
C2307 C2301 1.429 . S
C2307 C2308 1.523 . S
C2308 C2289 1.368 . S
C2308 C2302 1.368 . S
C2308 C2307 1.523 . S
C2309 C2293 1.429 . S
C2309 C2305 1.429 . S
C2309 C2310 1.523 . S
C2310 C2294 1.368 . S
C2310 C2306 1.368 . S
C2310 C2309 1.523 . S
H2311 C2286 0.950 . S
H2312 C2288 0.950 . S
H2313 C2289 0.949 . S
H2314 C2291 0.950 . S
H2315 C2293 0.950 . S
C2316 C2317 1.349 . S
C2316 C2318 1.327 . S
C2316 H2341 0.950 . S
C2317 C2316 1.349 . S
C2317 C2333 1.349 . S
C2318 C2316 1.327 . S
C2318 C2337 1.429 . S
C2318 H2342 0.950 . S
C2319 C2336 1.574 . S
C2319 C2338 1.368 . S
C2319 H2343 0.949 . S
H2320 C2324 0.949 . S
C2321 C2322 1.349 . S
C2321 C2323 1.327 . S
C2321 H2344 0.950 . S
C2322 C2321 1.349 . S
C2322 C2334 1.349 . S
C2323 C2321 1.327 . S
C2323 C2339 1.429 . S
C2323 H2345 0.950 . S
C2324 H2320 0.949 . S
C2324 C2332 1.574 . S
C2324 C2340 1.368 . S
H2325 C2333 0.950 . S
H2326 C2331 0.950 . S
H2327 C2332 0.949 . S
H2328 C2334 0.950 . S
H2329 C2335 0.950 . S
H2330 C2336 0.949 . S
C2331 H2326 0.950 . S
C2331 C2333 1.327 . S
C2331 C2337 1.429 . S
C2332 C2324 1.574 . S
C2332 H2327 0.949 . S
C2332 C2338 1.368 . S
C2333 C2317 1.349 . S
C2333 H2325 0.950 . S
C2333 C2331 1.327 . S
C2334 C2322 1.349 . S
C2334 H2328 0.950 . S
C2334 C2335 1.327 . S
C2335 H2329 0.950 . S
C2335 C2334 1.327 . S
C2335 C2339 1.429 . S
C2336 C2319 1.574 . S
C2336 H2330 0.949 . S
C2336 C2340 1.368 . S
C2337 C2318 1.429 . S
C2337 C2331 1.429 . S
C2337 C2338 1.523 . S
C2338 C2319 1.368 . S
C2338 C2332 1.368 . S
C2338 C2337 1.523 . S
C2339 C2323 1.429 . S
C2339 C2335 1.429 . S
C2339 C2340 1.523 . S
C2340 C2324 1.368 . S
C2340 C2336 1.368 . S
C2340 C2339 1.523 . S
H2341 C2316 0.950 . S
H2342 C2318 0.950 . S
H2343 C2319 0.949 . S
H2344 C2321 0.950 . S
H2345 C2323 0.950 . S
C2346 C2347 1.349 . S
C2346 C2348 1.327 . S
C2346 H2371 0.950 . S
C2347 C2346 1.349 . S
C2347 C2363 1.349 . S
C2348 C2346 1.327 . S
C2348 C2367 1.429 . S
C2348 H2372 0.950 . S
C2349 C2366 1.574 . S
C2349 C2368 1.368 . S
C2349 H2373 0.949 . S
H2350 C2354 0.949 . S
C2351 C2352 1.349 . S
C2351 C2353 1.327 . S
C2351 H2374 0.950 . S
C2352 C2351 1.349 . S
C2352 C2364 1.349 . S
C2353 C2351 1.327 . S
C2353 C2369 1.429 . S
C2353 H2375 0.950 . S
C2354 H2350 0.949 . S
C2354 C2362 1.574 . S
C2354 C2370 1.368 . S
H2355 C2363 0.950 . S
H2356 C2361 0.950 . S
H2357 C2362 0.949 . S
H2358 C2364 0.950 . S
H2359 C2365 0.950 . S
H2360 C2366 0.949 . S
C2361 H2356 0.950 . S
C2361 C2363 1.327 . S
C2361 C2367 1.429 . S
C2362 C2354 1.574 . S
C2362 H2357 0.949 . S
C2362 C2368 1.368 . S
C2363 C2347 1.349 . S
C2363 H2355 0.950 . S
C2363 C2361 1.327 . S
C2364 C2352 1.349 . S
C2364 H2358 0.950 . S
C2364 C2365 1.327 . S
C2365 H2359 0.950 . S
C2365 C2364 1.327 . S
C2365 C2369 1.429 . S
C2366 C2349 1.574 . S
C2366 H2360 0.949 . S
C2366 C2370 1.368 . S
C2367 C2348 1.429 . S
C2367 C2361 1.429 . S
C2367 C2368 1.523 . S
C2368 C2349 1.368 . S
C2368 C2362 1.368 . S
C2368 C2367 1.523 . S
C2369 C2353 1.429 . S
C2369 C2365 1.429 . S
C2369 C2370 1.523 . S
C2370 C2354 1.368 . S
C2370 C2366 1.368 . S
C2370 C2369 1.523 . S
H2371 C2346 0.950 . S
H2372 C2348 0.950 . S
H2373 C2349 0.949 . S
H2374 C2351 0.950 . S
H2375 C2353 0.950 . S
C2376 C2377 1.349 . S
C2376 C2378 1.327 . S
C2376 H2401 0.950 . S
C2377 C2376 1.349 . S
C2377 C2393 1.349 . S
C2378 C2376 1.327 . S
C2378 C2397 1.429 . S
C2378 H2402 0.950 . S
C2379 C2396 1.574 . S
C2379 C2398 1.368 . S
C2379 H2403 0.949 . S
H2380 C2384 0.949 . S
C2381 C2382 1.349 . S
C2381 C2383 1.327 . S
C2381 H2404 0.950 . S
C2382 C2381 1.349 . S
C2382 C2394 1.349 . S
C2383 C2381 1.327 . S
C2383 C2399 1.429 . S
C2383 H2405 0.950 . S
C2384 H2380 0.949 . S
C2384 C2392 1.574 . S
C2384 C2400 1.368 . S
H2385 C2393 0.950 . S
H2386 C2391 0.950 . S
H2387 C2392 0.949 . S
H2388 C2394 0.950 . S
H2389 C2395 0.950 . S
H2390 C2396 0.949 . S
C2391 H2386 0.950 . S
C2391 C2393 1.327 . S
C2391 C2397 1.429 . S
C2392 C2384 1.574 . S
C2392 H2387 0.949 . S
C2392 C2398 1.368 . S
C2393 C2377 1.349 . S
C2393 H2385 0.950 . S
C2393 C2391 1.327 . S
C2394 C2382 1.349 . S
C2394 H2388 0.950 . S
C2394 C2395 1.327 . S
C2395 H2389 0.950 . S
C2395 C2394 1.327 . S
C2395 C2399 1.429 . S
C2396 C2379 1.574 . S
C2396 H2390 0.949 . S
C2396 C2400 1.368 . S
C2397 C2378 1.429 . S
C2397 C2391 1.429 . S
C2397 C2398 1.523 . S
C2398 C2379 1.368 . S
C2398 C2392 1.368 . S
C2398 C2397 1.523 . S
C2399 C2383 1.429 . S
C2399 C2395 1.429 . S
C2399 C2400 1.523 . S
C2400 C2384 1.368 . S
C2400 C2396 1.368 . S
C2400 C2399 1.523 . S
H2401 C2376 0.950 . S
H2402 C2378 0.950 . S
H2403 C2379 0.949 . S
H2404 C2381 0.950 . S
H2405 C2383 0.950 . S
C2406 C2407 1.349 . S
C2406 C2408 1.327 . S
C2406 H2431 0.950 . S
C2407 C2406 1.349 . S
C2407 C2423 1.349 . S
C2408 C2406 1.327 . S
C2408 C2427 1.429 . S
C2408 H2432 0.950 . S
C2409 C2426 1.574 1_556 S
C2409 C2428 1.368 . S
C2409 H2433 0.949 . S
H2410 C2414 0.949 . S
C2411 C2412 1.349 . S
C2411 C2413 1.327 . S
C2411 H2434 0.950 . S
C2412 C2411 1.349 . S
C2412 C2424 1.349 . S
C2413 C2411 1.327 . S
C2413 C2429 1.429 . S
C2413 H2435 0.950 . S
C2414 H2410 0.949 . S
C2414 C2422 1.574 1_554 S
C2414 C2430 1.368 . S
H2415 C2423 0.950 . S
H2416 C2421 0.950 . S
H2417 C2422 0.949 . S
H2418 C2424 0.950 . S
H2419 C2425 0.950 . S
H2420 C2426 0.949 . S
C2421 H2416 0.950 . S
C2421 C2423 1.327 . S
C2421 C2427 1.429 . S
C2422 C2414 1.574 1_556 S
C2422 H2417 0.949 . S
C2422 C2428 1.368 . S
C2423 C2407 1.349 . S
C2423 H2415 0.950 . S
C2423 C2421 1.327 . S
C2424 C2412 1.349 . S
C2424 H2418 0.950 . S
C2424 C2425 1.327 . S
C2425 H2419 0.950 . S
C2425 C2424 1.327 . S
C2425 C2429 1.429 . S
C2426 C2409 1.574 1_554 S
C2426 H2420 0.949 . S
C2426 C2430 1.368 . S
C2427 C2408 1.429 . S
C2427 C2421 1.429 . S
C2427 C2428 1.523 . S
C2428 C2409 1.368 . S
C2428 C2422 1.368 . S
C2428 C2427 1.523 . S
C2429 C2413 1.429 . S
C2429 C2425 1.429 . S
C2429 C2430 1.523 . S
C2430 C2414 1.368 . S
C2430 C2426 1.368 . S
C2430 C2429 1.523 . S
H2431 C2406 0.950 . S
H2432 C2408 0.950 . S
H2433 C2409 0.949 . S
H2434 C2411 0.950 . S
H2435 C2413 0.950 . S
C2436 C2437 1.349 . S
C2436 C2438 1.327 . S
C2436 H2461 0.950 . S
C2437 C2436 1.349 . S
C2437 C2453 1.349 . S
C2438 C2436 1.327 . S
C2438 C2457 1.429 . S
C2438 H2462 0.950 . S
C2439 C2456 1.574 . S
C2439 C2458 1.368 . S
C2439 H2463 0.949 . S
H2440 C2444 0.949 . S
C2441 C2442 1.349 . S
C2441 C2443 1.327 . S
C2441 H2464 0.950 . S
C2442 C2441 1.349 . S
C2442 C2454 1.349 . S
C2443 C2441 1.327 . S
C2443 C2459 1.429 . S
C2443 H2465 0.950 . S
C2444 H2440 0.949 . S
C2444 C2452 1.574 . S
C2444 C2460 1.368 . S
H2445 C2453 0.950 . S
H2446 C2451 0.950 . S
H2447 C2452 0.949 . S
H2448 C2454 0.950 . S
H2449 C2455 0.950 . S
H2450 C2456 0.949 . S
C2451 H2446 0.950 . S
C2451 C2453 1.327 . S
C2451 C2457 1.429 . S
C2452 C2444 1.574 . S
C2452 H2447 0.949 . S
C2452 C2458 1.368 . S
C2453 C2437 1.349 . S
C2453 H2445 0.950 . S
C2453 C2451 1.327 . S
C2454 C2442 1.349 . S
C2454 H2448 0.950 . S
C2454 C2455 1.327 . S
C2455 H2449 0.950 . S
C2455 C2454 1.327 . S
C2455 C2459 1.429 . S
C2456 C2439 1.574 . S
C2456 H2450 0.949 . S
C2456 C2460 1.368 . S
C2457 C2438 1.429 . S
C2457 C2451 1.429 . S
C2457 C2458 1.523 . S
C2458 C2439 1.368 . S
C2458 C2452 1.368 . S
C2458 C2457 1.523 . S
C2459 C2443 1.429 . S
C2459 C2455 1.429 . S
C2459 C2460 1.523 . S
C2460 C2444 1.368 . S
C2460 C2456 1.368 . S
C2460 C2459 1.523 . S
H2461 C2436 0.950 . S
H2462 C2438 0.950 . S
H2463 C2439 0.949 . S
H2464 C2441 0.950 . S
H2465 C2443 0.950 . S
C2466 C2467 1.349 . S
C2466 C2468 1.327 . S
C2466 H2491 0.950 . S
C2467 C2466 1.349 . S
C2467 C2483 1.349 . S
C2468 C2466 1.327 . S
C2468 C2487 1.429 . S
C2468 H2492 0.950 . S
C2469 C2486 1.574 . S
C2469 C2488 1.368 . S
C2469 H2493 0.949 . S
H2470 C2474 0.949 . S
C2471 C2472 1.349 . S
C2471 C2473 1.327 . S
C2471 H2494 0.950 . S
C2472 C2471 1.349 . S
C2472 C2484 1.349 . S
C2473 C2471 1.327 . S
C2473 C2489 1.429 . S
C2473 H2495 0.950 . S
C2474 H2470 0.949 . S
C2474 C2482 1.574 . S
C2474 C2490 1.368 . S
H2475 C2483 0.950 . S
H2476 C2481 0.950 . S
H2477 C2482 0.949 . S
H2478 C2484 0.950 . S
H2479 C2485 0.950 . S
H2480 C2486 0.949 . S
C2481 H2476 0.950 . S
C2481 C2483 1.327 . S
C2481 C2487 1.429 . S
C2482 C2474 1.574 . S
C2482 H2477 0.949 . S
C2482 C2488 1.368 . S
C2483 C2467 1.349 . S
C2483 H2475 0.950 . S
C2483 C2481 1.327 . S
C2484 C2472 1.349 . S
C2484 H2478 0.950 . S
C2484 C2485 1.327 . S
C2485 H2479 0.950 . S
C2485 C2484 1.327 . S
C2485 C2489 1.429 . S
C2486 C2469 1.574 . S
C2486 H2480 0.949 . S
C2486 C2490 1.368 . S
C2487 C2468 1.429 . S
C2487 C2481 1.429 . S
C2487 C2488 1.523 . S
C2488 C2469 1.368 . S
C2488 C2482 1.368 . S
C2488 C2487 1.523 . S
C2489 C2473 1.429 . S
C2489 C2485 1.429 . S
C2489 C2490 1.523 . S
C2490 C2474 1.368 . S
C2490 C2486 1.368 . S
C2490 C2489 1.523 . S
H2491 C2466 0.950 . S
H2492 C2468 0.950 . S
H2493 C2469 0.949 . S
H2494 C2471 0.950 . S
H2495 C2473 0.950 . S
C2496 C2497 1.349 . S
C2496 C2498 1.327 . S
C2496 H2521 0.950 . S
C2497 C2496 1.349 . S
C2497 C2513 1.349 . S
C2498 C2496 1.327 . S
C2498 C2517 1.429 . S
C2498 H2522 0.950 . S
C2499 C2516 1.574 . S
C2499 C2518 1.368 . S
C2499 H2523 0.949 . S
H2500 C2504 0.949 . S
C2501 C2502 1.349 . S
C2501 C2503 1.327 . S
C2501 H2524 0.950 . S
C2502 C2501 1.349 . S
C2502 C2514 1.349 . S
C2503 C2501 1.327 . S
C2503 C2519 1.429 . S
C2503 H2525 0.950 . S
C2504 H2500 0.949 . S
C2504 C2512 1.574 . S
C2504 C2520 1.368 . S
H2505 C2513 0.950 . S
H2506 C2511 0.950 . S
H2507 C2512 0.949 . S
H2508 C2514 0.950 . S
H2509 C2515 0.950 . S
H2510 C2516 0.949 . S
C2511 H2506 0.950 . S
C2511 C2513 1.327 . S
C2511 C2517 1.429 . S
C2512 C2504 1.574 . S
C2512 H2507 0.949 . S
C2512 C2518 1.368 . S
C2513 C2497 1.349 . S
C2513 H2505 0.950 . S
C2513 C2511 1.327 . S
C2514 C2502 1.349 . S
C2514 H2508 0.950 . S
C2514 C2515 1.327 . S
C2515 H2509 0.950 . S
C2515 C2514 1.327 . S
C2515 C2519 1.429 . S
C2516 C2499 1.574 . S
C2516 H2510 0.949 . S
C2516 C2520 1.368 . S
C2517 C2498 1.429 . S
C2517 C2511 1.429 . S
C2517 C2518 1.523 . S
C2518 C2499 1.368 . S
C2518 C2512 1.368 . S
C2518 C2517 1.523 . S
C2519 C2503 1.429 . S
C2519 C2515 1.429 . S
C2519 C2520 1.523 . S
C2520 C2504 1.368 . S
C2520 C2516 1.368 . S
C2520 C2519 1.523 . S
H2521 C2496 0.950 . S
H2522 C2498 0.950 . S
H2523 C2499 0.949 . S
H2524 C2501 0.950 . S
H2525 C2503 0.950 . S
C2526 C2527 1.349 . S
C2526 C2528 1.327 . S
C2526 H2551 0.950 . S
C2527 C2526 1.349 . S
C2527 C2543 1.349 . S
C2528 C2526 1.327 . S
C2528 C2547 1.429 . S
C2528 H2552 0.950 . S
C2529 C2546 1.574 . S
C2529 C2548 1.368 . S
C2529 H2553 0.949 . S
H2530 C2534 0.949 . S
C2531 C2532 1.349 . S
C2531 C2533 1.327 . S
C2531 H2554 0.950 . S
C2532 C2531 1.349 . S
C2532 C2544 1.349 . S
C2533 C2531 1.327 . S
C2533 C2549 1.429 . S
C2533 H2555 0.950 . S
C2534 H2530 0.949 . S
C2534 C2542 1.574 . S
C2534 C2550 1.368 . S
H2535 C2543 0.950 . S
H2536 C2541 0.950 . S
H2537 C2542 0.949 . S
H2538 C2544 0.950 . S
H2539 C2545 0.950 . S
H2540 C2546 0.949 . S
C2541 H2536 0.950 . S
C2541 C2543 1.327 . S
C2541 C2547 1.429 . S
C2542 C2534 1.574 . S
C2542 H2537 0.949 . S
C2542 C2548 1.368 . S
C2543 C2527 1.349 . S
C2543 H2535 0.950 . S
C2543 C2541 1.327 . S
C2544 C2532 1.349 . S
C2544 H2538 0.950 . S
C2544 C2545 1.327 . S
C2545 H2539 0.950 . S
C2545 C2544 1.327 . S
C2545 C2549 1.429 . S
C2546 C2529 1.574 . S
C2546 H2540 0.949 . S
C2546 C2550 1.368 . S
C2547 C2528 1.429 . S
C2547 C2541 1.429 . S
C2547 C2548 1.523 . S
C2548 C2529 1.368 . S
C2548 C2542 1.368 . S
C2548 C2547 1.523 . S
C2549 C2533 1.429 . S
C2549 C2545 1.429 . S
C2549 C2550 1.523 . S
C2550 C2534 1.368 . S
C2550 C2546 1.368 . S
C2550 C2549 1.523 . S
H2551 C2526 0.950 . S
H2552 C2528 0.950 . S
H2553 C2529 0.949 . S
H2554 C2531 0.950 . S
H2555 C2533 0.950 . S
C2556 C2557 1.349 . S
C2556 C2558 1.327 . S
C2556 H2581 0.950 . S
C2557 C2556 1.349 . S
C2557 C2573 1.349 . S
C2558 C2556 1.327 . S
C2558 C2577 1.429 . S
C2558 H2582 0.950 . S
C2559 C2576 1.574 . S
C2559 C2578 1.368 . S
C2559 H2583 0.949 . S
H2560 C2564 0.949 . S
C2561 C2562 1.349 . S
C2561 C2563 1.327 . S
C2561 H2584 0.950 . S
C2562 C2561 1.349 . S
C2562 C2574 1.349 . S
C2563 C2561 1.327 . S
C2563 C2579 1.429 . S
C2563 H2585 0.950 . S
C2564 H2560 0.949 . S
C2564 C2572 1.574 . S
C2564 C2580 1.368 . S
H2565 C2573 0.950 . S
H2566 C2571 0.950 . S
H2567 C2572 0.949 . S
H2568 C2574 0.950 . S
H2569 C2575 0.950 . S
H2570 C2576 0.949 . S
C2571 H2566 0.950 . S
C2571 C2573 1.327 . S
C2571 C2577 1.429 . S
C2572 C2564 1.574 . S
C2572 H2567 0.949 . S
C2572 C2578 1.368 . S
C2573 C2557 1.349 . S
C2573 H2565 0.950 . S
C2573 C2571 1.327 . S
C2574 C2562 1.349 . S
C2574 H2568 0.950 . S
C2574 C2575 1.327 . S
C2575 H2569 0.950 . S
C2575 C2574 1.327 . S
C2575 C2579 1.429 . S
C2576 C2559 1.574 . S
C2576 H2570 0.949 . S
C2576 C2580 1.368 . S
C2577 C2558 1.429 . S
C2577 C2571 1.429 . S
C2577 C2578 1.523 . S
C2578 C2559 1.368 . S
C2578 C2572 1.368 . S
C2578 C2577 1.523 . S
C2579 C2563 1.429 . S
C2579 C2575 1.429 . S
C2579 C2580 1.523 . S
C2580 C2564 1.368 . S
C2580 C2576 1.368 . S
C2580 C2579 1.523 . S
H2581 C2556 0.950 . S
H2582 C2558 0.950 . S
H2583 C2559 0.949 . S
H2584 C2561 0.950 . S
H2585 C2563 0.950 . S
C2586 C2587 1.349 . S
C2586 C2588 1.327 . S
C2586 H2611 0.950 . S
C2587 C2586 1.349 . S
C2587 C2603 1.349 . S
C2588 C2586 1.327 . S
C2588 C2607 1.429 . S
C2588 H2612 0.950 . S
C2589 C2606 1.574 . S
C2589 C2608 1.368 . S
C2589 H2613 0.949 . S
H2590 C2594 0.949 . S
C2591 C2592 1.349 . S
C2591 C2593 1.327 . S
C2591 H2614 0.950 . S
C2592 C2591 1.349 . S
C2592 C2604 1.349 . S
C2593 C2591 1.327 . S
C2593 C2609 1.429 . S
C2593 H2615 0.950 . S
C2594 H2590 0.949 . S
C2594 C2602 1.574 . S
C2594 C2610 1.368 . S
H2595 C2603 0.950 . S
H2596 C2601 0.950 . S
H2597 C2602 0.949 . S
H2598 C2604 0.950 . S
H2599 C2605 0.950 . S
H2600 C2606 0.949 . S
C2601 H2596 0.950 . S
C2601 C2603 1.327 . S
C2601 C2607 1.429 . S
C2602 C2594 1.574 . S
C2602 H2597 0.949 . S
C2602 C2608 1.368 . S
C2603 C2587 1.349 . S
C2603 H2595 0.950 . S
C2603 C2601 1.327 . S
C2604 C2592 1.349 . S
C2604 H2598 0.950 . S
C2604 C2605 1.327 . S
C2605 H2599 0.950 . S
C2605 C2604 1.327 . S
C2605 C2609 1.429 . S
C2606 C2589 1.574 . S
C2606 H2600 0.949 . S
C2606 C2610 1.368 . S
C2607 C2588 1.429 . S
C2607 C2601 1.429 . S
C2607 C2608 1.523 . S
C2608 C2589 1.368 . S
C2608 C2602 1.368 . S
C2608 C2607 1.523 . S
C2609 C2593 1.429 . S
C2609 C2605 1.429 . S
C2609 C2610 1.523 . S
C2610 C2594 1.368 . S
C2610 C2606 1.368 . S
C2610 C2609 1.523 . S
H2611 C2586 0.950 . S
H2612 C2588 0.950 . S
H2613 C2589 0.949 . S
H2614 C2591 0.950 . S
H2615 C2593 0.950 . S
C2616 C2617 1.349 . S
C2616 C2618 1.327 . S
C2616 H2641 0.950 . S
C2617 C2616 1.349 . S
C2617 C2633 1.349 . S
C2618 C2616 1.327 . S
C2618 C2637 1.429 . S
C2618 H2642 0.950 . S
C2619 C2636 1.574 . S
C2619 C2638 1.368 . S
C2619 H2643 0.949 . S
H2620 C2624 0.949 . S
C2621 C2622 1.349 . S
C2621 C2623 1.327 . S
C2621 H2644 0.950 . S
C2622 C2621 1.349 . S
C2622 C2634 1.349 . S
C2623 C2621 1.327 . S
C2623 C2639 1.429 . S
C2623 H2645 0.950 . S
C2624 H2620 0.949 . S
C2624 C2632 1.574 . S
C2624 C2640 1.368 . S
H2625 C2633 0.950 . S
H2626 C2631 0.950 . S
H2627 C2632 0.949 . S
H2628 C2634 0.950 . S
H2629 C2635 0.950 . S
H2630 C2636 0.949 . S
C2631 H2626 0.950 . S
C2631 C2633 1.327 . S
C2631 C2637 1.429 . S
C2632 C2624 1.574 . S
C2632 H2627 0.949 . S
C2632 C2638 1.368 . S
C2633 C2617 1.349 . S
C2633 H2625 0.950 . S
C2633 C2631 1.327 . S
C2634 C2622 1.349 . S
C2634 H2628 0.950 . S
C2634 C2635 1.327 . S
C2635 H2629 0.950 . S
C2635 C2634 1.327 . S
C2635 C2639 1.429 . S
C2636 C2619 1.574 . S
C2636 H2630 0.949 . S
C2636 C2640 1.368 . S
C2637 C2618 1.429 . S
C2637 C2631 1.429 . S
C2637 C2638 1.523 . S
C2638 C2619 1.368 . S
C2638 C2632 1.368 . S
C2638 C2637 1.523 . S
C2639 C2623 1.429 . S
C2639 C2635 1.429 . S
C2639 C2640 1.523 . S
C2640 C2624 1.368 . S
C2640 C2636 1.368 . S
C2640 C2639 1.523 . S
H2641 C2616 0.950 . S
H2642 C2618 0.950 . S
H2643 C2619 0.949 . S
H2644 C2621 0.950 . S
H2645 C2623 0.950 . S
C2646 C2647 1.349 . S
C2646 C2648 1.327 . S
C2646 H2671 0.950 . S
C2647 C2646 1.349 . S
C2647 C2663 1.349 . S
C2648 C2646 1.327 . S
C2648 C2667 1.429 . S
C2648 H2672 0.950 . S
C2649 C2666 1.574 . S
C2649 C2668 1.368 . S
C2649 H2673 0.949 . S
H2650 C2654 0.949 . S
C2651 C2652 1.349 . S
C2651 C2653 1.327 . S
C2651 H2674 0.950 . S
C2652 C2651 1.349 . S
C2652 C2664 1.349 . S
C2653 C2651 1.327 . S
C2653 C2669 1.429 . S
C2653 H2675 0.950 . S
C2654 H2650 0.949 . S
C2654 C2662 1.574 . S
C2654 C2670 1.368 . S
H2655 C2663 0.950 . S
H2656 C2661 0.950 . S
H2657 C2662 0.949 . S
H2658 C2664 0.950 . S
H2659 C2665 0.950 . S
H2660 C2666 0.949 . S
C2661 H2656 0.950 . S
C2661 C2663 1.327 . S
C2661 C2667 1.429 . S
C2662 C2654 1.574 . S
C2662 H2657 0.949 . S
C2662 C2668 1.368 . S
C2663 C2647 1.349 . S
C2663 H2655 0.950 . S
C2663 C2661 1.327 . S
C2664 C2652 1.349 . S
C2664 H2658 0.950 . S
C2664 C2665 1.327 . S
C2665 H2659 0.950 . S
C2665 C2664 1.327 . S
C2665 C2669 1.429 . S
C2666 C2649 1.574 . S
C2666 H2660 0.949 . S
C2666 C2670 1.368 . S
C2667 C2648 1.429 . S
C2667 C2661 1.429 . S
C2667 C2668 1.523 . S
C2668 C2649 1.368 . S
C2668 C2662 1.368 . S
C2668 C2667 1.523 . S
C2669 C2653 1.429 . S
C2669 C2665 1.429 . S
C2669 C2670 1.523 . S
C2670 C2654 1.368 . S
C2670 C2666 1.368 . S
C2670 C2669 1.523 . S
H2671 C2646 0.950 . S
H2672 C2648 0.950 . S
H2673 C2649 0.949 . S
H2674 C2651 0.950 . S
H2675 C2653 0.950 . S
C2676 C2677 1.349 . S
C2676 C2678 1.327 . S
C2676 H2701 0.950 . S
C2677 C2676 1.349 . S
C2677 C2693 1.349 . S
C2678 C2676 1.327 . S
C2678 C2697 1.429 . S
C2678 H2702 0.950 . S
C2679 C2696 1.574 . S
C2679 C2698 1.368 . S
C2679 H2703 0.949 . S
H2680 C2684 0.949 . S
C2681 C2682 1.349 . S
C2681 C2683 1.327 . S
C2681 H2704 0.950 . S
C2682 C2681 1.349 . S
C2682 C2694 1.349 . S
C2683 C2681 1.327 . S
C2683 C2699 1.429 . S
C2683 H2705 0.950 . S
C2684 H2680 0.949 . S
C2684 C2692 1.574 . S
C2684 C2700 1.368 . S
H2685 C2693 0.950 . S
H2686 C2691 0.950 . S
H2687 C2692 0.949 . S
H2688 C2694 0.950 . S
H2689 C2695 0.950 . S
H2690 C2696 0.949 . S
C2691 H2686 0.950 . S
C2691 C2693 1.327 . S
C2691 C2697 1.429 . S
C2692 C2684 1.574 . S
C2692 H2687 0.949 . S
C2692 C2698 1.368 . S
C2693 C2677 1.349 . S
C2693 H2685 0.950 . S
C2693 C2691 1.327 . S
C2694 C2682 1.349 . S
C2694 H2688 0.950 . S
C2694 C2695 1.327 . S
C2695 H2689 0.950 . S
C2695 C2694 1.327 . S
C2695 C2699 1.429 . S
C2696 C2679 1.574 . S
C2696 H2690 0.949 . S
C2696 C2700 1.368 . S
C2697 C2678 1.429 . S
C2697 C2691 1.429 . S
C2697 C2698 1.523 . S
C2698 C2679 1.368 . S
C2698 C2692 1.368 . S
C2698 C2697 1.523 . S
C2699 C2683 1.429 . S
C2699 C2695 1.429 . S
C2699 C2700 1.523 . S
C2700 C2684 1.368 . S
C2700 C2696 1.368 . S
C2700 C2699 1.523 . S
H2701 C2676 0.950 . S
H2702 C2678 0.950 . S
H2703 C2679 0.949 . S
H2704 C2681 0.950 . S
H2705 C2683 0.950 . S
C2706 C2707 1.349 . S
C2706 C2708 1.327 . S
C2706 H2731 0.950 . S
C2707 C2706 1.349 . S
C2707 C2723 1.349 . S
C2708 C2706 1.327 . S
C2708 C2727 1.429 . S
C2708 H2732 0.950 . S
C2709 C2726 1.574 . S
C2709 C2728 1.368 . S
C2709 H2733 0.949 . S
H2710 C2714 0.949 . S
C2711 C2712 1.349 . S
C2711 C2713 1.327 . S
C2711 H2734 0.950 . S
C2712 C2711 1.349 . S
C2712 C2724 1.349 . S
C2713 C2711 1.327 . S
C2713 C2729 1.429 . S
C2713 H2735 0.950 . S
C2714 H2710 0.949 . S
C2714 C2722 1.574 . S
C2714 C2730 1.368 . S
H2715 C2723 0.950 . S
H2716 C2721 0.950 . S
H2717 C2722 0.949 . S
H2718 C2724 0.950 . S
H2719 C2725 0.950 . S
H2720 C2726 0.949 . S
C2721 H2716 0.950 . S
C2721 C2723 1.327 . S
C2721 C2727 1.429 . S
C2722 C2714 1.574 . S
C2722 H2717 0.949 . S
C2722 C2728 1.368 . S
C2723 C2707 1.349 . S
C2723 H2715 0.950 . S
C2723 C2721 1.327 . S
C2724 C2712 1.349 . S
C2724 H2718 0.950 . S
C2724 C2725 1.327 . S
C2725 H2719 0.950 . S
C2725 C2724 1.327 . S
C2725 C2729 1.429 . S
C2726 C2709 1.574 . S
C2726 H2720 0.949 . S
C2726 C2730 1.368 . S
C2727 C2708 1.429 . S
C2727 C2721 1.429 . S
C2727 C2728 1.523 . S
C2728 C2709 1.368 . S
C2728 C2722 1.368 . S
C2728 C2727 1.523 . S
C2729 C2713 1.429 . S
C2729 C2725 1.429 . S
C2729 C2730 1.523 . S
C2730 C2714 1.368 . S
C2730 C2726 1.368 . S
C2730 C2729 1.523 . S
H2731 C2706 0.950 . S
H2732 C2708 0.950 . S
H2733 C2709 0.949 . S
H2734 C2711 0.950 . S
H2735 C2713 0.950 . S
C2736 C2737 1.349 . S
C2736 C2738 1.327 . S
C2736 H2761 0.950 . S
C2737 C2736 1.349 . S
C2737 C2753 1.349 . S
C2738 C2736 1.327 . S
C2738 C2757 1.429 . S
C2738 H2762 0.950 . S
C2739 C2756 1.574 . S
C2739 C2758 1.368 . S
C2739 H2763 0.949 . S
H2740 C2744 0.949 . S
C2741 C2742 1.349 . S
C2741 C2743 1.327 . S
C2741 H2764 0.950 . S
C2742 C2741 1.349 . S
C2742 C2754 1.349 . S
C2743 C2741 1.327 . S
C2743 C2759 1.429 . S
C2743 H2765 0.950 . S
C2744 H2740 0.949 . S
C2744 C2752 1.574 . S
C2744 C2760 1.368 . S
H2745 C2753 0.950 . S
H2746 C2751 0.950 . S
H2747 C2752 0.949 . S
H2748 C2754 0.950 . S
H2749 C2755 0.950 . S
H2750 C2756 0.949 . S
C2751 H2746 0.950 . S
C2751 C2753 1.327 . S
C2751 C2757 1.429 . S
C2752 C2744 1.574 . S
C2752 H2747 0.949 . S
C2752 C2758 1.368 . S
C2753 C2737 1.349 . S
C2753 H2745 0.950 . S
C2753 C2751 1.327 . S
C2754 C2742 1.349 . S
C2754 H2748 0.950 . S
C2754 C2755 1.327 . S
C2755 H2749 0.950 . S
C2755 C2754 1.327 . S
C2755 C2759 1.429 . S
C2756 C2739 1.574 . S
C2756 H2750 0.949 . S
C2756 C2760 1.368 . S
C2757 C2738 1.429 . S
C2757 C2751 1.429 . S
C2757 C2758 1.523 . S
C2758 C2739 1.368 . S
C2758 C2752 1.368 . S
C2758 C2757 1.523 . S
C2759 C2743 1.429 . S
C2759 C2755 1.429 . S
C2759 C2760 1.523 . S
C2760 C2744 1.368 . S
C2760 C2756 1.368 . S
C2760 C2759 1.523 . S
H2761 C2736 0.950 . S
H2762 C2738 0.950 . S
H2763 C2739 0.949 . S
H2764 C2741 0.950 . S
H2765 C2743 0.950 . S
C2766 C2767 1.349 . S
C2766 C2768 1.327 . S
C2766 H2791 0.950 . S
C2767 C2766 1.349 . S
C2767 C2783 1.349 . S
C2768 C2766 1.327 . S
C2768 C2787 1.429 . S
C2768 H2792 0.950 . S
C2769 C2786 1.574 . S
C2769 C2788 1.368 . S
C2769 H2793 0.949 . S
H2770 C2774 0.949 . S
C2771 C2772 1.349 . S
C2771 C2773 1.327 . S
C2771 H2794 0.950 . S
C2772 C2771 1.349 . S
C2772 C2784 1.349 . S
C2773 C2771 1.327 . S
C2773 C2789 1.429 . S
C2773 H2795 0.950 . S
C2774 H2770 0.949 . S
C2774 C2782 1.574 . S
C2774 C2790 1.368 . S
H2775 C2783 0.950 . S
H2776 C2781 0.950 . S
H2777 C2782 0.949 . S
H2778 C2784 0.950 . S
H2779 C2785 0.950 . S
H2780 C2786 0.949 . S
C2781 H2776 0.950 . S
C2781 C2783 1.327 . S
C2781 C2787 1.429 . S
C2782 C2774 1.574 . S
C2782 H2777 0.949 . S
C2782 C2788 1.368 . S
C2783 C2767 1.349 . S
C2783 H2775 0.950 . S
C2783 C2781 1.327 . S
C2784 C2772 1.349 . S
C2784 H2778 0.950 . S
C2784 C2785 1.327 . S
C2785 H2779 0.950 . S
C2785 C2784 1.327 . S
C2785 C2789 1.429 . S
C2786 C2769 1.574 . S
C2786 H2780 0.949 . S
C2786 C2790 1.368 . S
C2787 C2768 1.429 . S
C2787 C2781 1.429 . S
C2787 C2788 1.523 . S
C2788 C2769 1.368 . S
C2788 C2782 1.368 . S
C2788 C2787 1.523 . S
C2789 C2773 1.429 . S
C2789 C2785 1.429 . S
C2789 C2790 1.523 . S
C2790 C2774 1.368 . S
C2790 C2786 1.368 . S
C2790 C2789 1.523 . S
H2791 C2766 0.950 . S
H2792 C2768 0.950 . S
H2793 C2769 0.949 . S
H2794 C2771 0.950 . S
H2795 C2773 0.950 . S
C2796 C2797 1.349 . S
C2796 C2798 1.327 . S
C2796 H2821 0.950 . S
C2797 C2796 1.349 . S
C2797 C2813 1.349 . S
C2798 C2796 1.327 . S
C2798 C2817 1.429 . S
C2798 H2822 0.950 . S
C2799 C2816 1.574 . S
C2799 C2818 1.368 . S
C2799 H2823 0.949 . S
H2800 C2804 0.949 . S
C2801 C2802 1.349 . S
C2801 C2803 1.327 . S
C2801 H2824 0.950 . S
C2802 C2801 1.349 . S
C2802 C2814 1.349 . S
C2803 C2801 1.327 . S
C2803 C2819 1.429 . S
C2803 H2825 0.950 . S
C2804 H2800 0.949 . S
C2804 C2812 1.574 . S
C2804 C2820 1.368 . S
H2805 C2813 0.950 . S
H2806 C2811 0.950 . S
H2807 C2812 0.949 . S
H2808 C2814 0.950 . S
H2809 C2815 0.950 . S
H2810 C2816 0.949 . S
C2811 H2806 0.950 . S
C2811 C2813 1.327 . S
C2811 C2817 1.429 . S
C2812 C2804 1.574 . S
C2812 H2807 0.949 . S
C2812 C2818 1.368 . S
C2813 C2797 1.349 . S
C2813 H2805 0.950 . S
C2813 C2811 1.327 . S
C2814 C2802 1.349 . S
C2814 H2808 0.950 . S
C2814 C2815 1.327 . S
C2815 H2809 0.950 . S
C2815 C2814 1.327 . S
C2815 C2819 1.429 . S
C2816 C2799 1.574 . S
C2816 H2810 0.949 . S
C2816 C2820 1.368 . S
C2817 C2798 1.429 . S
C2817 C2811 1.429 . S
C2817 C2818 1.523 . S
C2818 C2799 1.368 . S
C2818 C2812 1.368 . S
C2818 C2817 1.523 . S
C2819 C2803 1.429 . S
C2819 C2815 1.429 . S
C2819 C2820 1.523 . S
C2820 C2804 1.368 . S
C2820 C2816 1.368 . S
C2820 C2819 1.523 . S
H2821 C2796 0.950 . S
H2822 C2798 0.950 . S
H2823 C2799 0.949 . S
H2824 C2801 0.950 . S
H2825 C2803 0.950 . S
C2826 C2827 1.349 . S
C2826 C2828 1.327 . S
C2826 H2851 0.950 . S
C2827 C2826 1.349 . S
C2827 C2843 1.349 . S
C2828 C2826 1.327 . S
C2828 C2847 1.429 . S
C2828 H2852 0.950 . S
C2829 C2846 1.574 . S
C2829 C2848 1.368 . S
C2829 H2853 0.949 . S
H2830 C2834 0.949 . S
C2831 C2832 1.349 . S
C2831 C2833 1.327 . S
C2831 H2854 0.950 . S
C2832 C2831 1.349 . S
C2832 C2844 1.349 . S
C2833 C2831 1.327 . S
C2833 C2849 1.429 . S
C2833 H2855 0.950 . S
C2834 H2830 0.949 . S
C2834 C2842 1.574 . S
C2834 C2850 1.368 . S
H2835 C2843 0.950 . S
H2836 C2841 0.950 . S
H2837 C2842 0.949 . S
H2838 C2844 0.950 . S
H2839 C2845 0.950 . S
H2840 C2846 0.949 . S
C2841 H2836 0.950 . S
C2841 C2843 1.327 . S
C2841 C2847 1.429 . S
C2842 C2834 1.574 . S
C2842 H2837 0.949 . S
C2842 C2848 1.368 . S
C2843 C2827 1.349 . S
C2843 H2835 0.950 . S
C2843 C2841 1.327 . S
C2844 C2832 1.349 . S
C2844 H2838 0.950 . S
C2844 C2845 1.327 . S
C2845 H2839 0.950 . S
C2845 C2844 1.327 . S
C2845 C2849 1.429 . S
C2846 C2829 1.574 . S
C2846 H2840 0.949 . S
C2846 C2850 1.368 . S
C2847 C2828 1.429 . S
C2847 C2841 1.429 . S
C2847 C2848 1.523 . S
C2848 C2829 1.368 . S
C2848 C2842 1.368 . S
C2848 C2847 1.523 . S
C2849 C2833 1.429 . S
C2849 C2845 1.429 . S
C2849 C2850 1.523 . S
C2850 C2834 1.368 . S
C2850 C2846 1.368 . S
C2850 C2849 1.523 . S
H2851 C2826 0.950 . S
H2852 C2828 0.950 . S
H2853 C2829 0.949 . S
H2854 C2831 0.950 . S
H2855 C2833 0.950 . S
C2856 C2857 1.349 . S
C2856 C2858 1.327 . S
C2856 H2881 0.950 . S
C2857 C2856 1.349 . S
C2857 C2873 1.349 . S
C2858 C2856 1.327 . S
C2858 C2877 1.429 . S
C2858 H2882 0.950 . S
C2859 C2876 1.574 . S
C2859 C2878 1.368 . S
C2859 H2883 0.949 . S
H2860 C2864 0.949 . S
C2861 C2862 1.349 . S
C2861 C2863 1.327 . S
C2861 H2884 0.950 . S
C2862 C2861 1.349 . S
C2862 C2874 1.349 . S
C2863 C2861 1.327 . S
C2863 C2879 1.429 . S
C2863 H2885 0.950 . S
C2864 H2860 0.949 . S
C2864 C2872 1.574 . S
C2864 C2880 1.368 . S
H2865 C2873 0.950 . S
H2866 C2871 0.950 . S
H2867 C2872 0.949 . S
H2868 C2874 0.950 . S
H2869 C2875 0.950 . S
H2870 C2876 0.949 . S
C2871 H2866 0.950 . S
C2871 C2873 1.327 . S
C2871 C2877 1.429 . S
C2872 C2864 1.574 . S
C2872 H2867 0.949 . S
C2872 C2878 1.368 . S
C2873 C2857 1.349 . S
C2873 H2865 0.950 . S
C2873 C2871 1.327 . S
C2874 C2862 1.349 . S
C2874 H2868 0.950 . S
C2874 C2875 1.327 . S
C2875 H2869 0.950 . S
C2875 C2874 1.327 . S
C2875 C2879 1.429 . S
C2876 C2859 1.574 . S
C2876 H2870 0.949 . S
C2876 C2880 1.368 . S
C2877 C2858 1.429 . S
C2877 C2871 1.429 . S
C2877 C2878 1.523 . S
C2878 C2859 1.368 . S
C2878 C2872 1.368 . S
C2878 C2877 1.523 . S
C2879 C2863 1.429 . S
C2879 C2875 1.429 . S
C2879 C2880 1.523 . S
C2880 C2864 1.368 . S
C2880 C2876 1.368 . S
C2880 C2879 1.523 . S
H2881 C2856 0.950 . S
H2882 C2858 0.950 . S
H2883 C2859 0.949 . S
H2884 C2861 0.950 . S
H2885 C2863 0.950 . S
C2886 C2887 1.349 . S
C2886 C2888 1.327 . S
C2886 H2911 0.950 . S
C2887 C2886 1.349 . S
C2887 C2903 1.349 . S
C2888 C2886 1.327 . S
C2888 C2907 1.429 . S
C2888 H2912 0.950 . S
C2889 C2906 1.574 . S
C2889 C2908 1.368 . S
C2889 H2913 0.949 . S
H2890 C2894 0.949 . S
C2891 C2892 1.349 . S
C2891 C2893 1.327 . S
C2891 H2914 0.950 . S
C2892 C2891 1.349 . S
C2892 C2904 1.349 . S
C2893 C2891 1.327 . S
C2893 C2909 1.429 . S
C2893 H2915 0.950 . S
C2894 H2890 0.949 . S
C2894 C2902 1.574 . S
C2894 C2910 1.368 . S
H2895 C2903 0.950 . S
H2896 C2901 0.950 . S
H2897 C2902 0.949 . S
H2898 C2904 0.950 . S
H2899 C2905 0.950 . S
H2900 C2906 0.949 . S
C2901 H2896 0.950 . S
C2901 C2903 1.327 . S
C2901 C2907 1.429 . S
C2902 C2894 1.574 . S
C2902 H2897 0.949 . S
C2902 C2908 1.368 . S
C2903 C2887 1.349 . S
C2903 H2895 0.950 . S
C2903 C2901 1.327 . S
C2904 C2892 1.349 . S
C2904 H2898 0.950 . S
C2904 C2905 1.327 . S
C2905 H2899 0.950 . S
C2905 C2904 1.327 . S
C2905 C2909 1.429 . S
C2906 C2889 1.574 . S
C2906 H2900 0.949 . S
C2906 C2910 1.368 . S
C2907 C2888 1.429 . S
C2907 C2901 1.429 . S
C2907 C2908 1.523 . S
C2908 C2889 1.368 . S
C2908 C2902 1.368 . S
C2908 C2907 1.523 . S
C2909 C2893 1.429 . S
C2909 C2905 1.429 . S
C2909 C2910 1.523 . S
C2910 C2894 1.368 . S
C2910 C2906 1.368 . S
C2910 C2909 1.523 . S
H2911 C2886 0.950 . S
H2912 C2888 0.950 . S
H2913 C2889 0.949 . S
H2914 C2891 0.950 . S
H2915 C2893 0.950 . S
C2916 C2917 1.349 . S
C2916 C2918 1.327 . S
C2916 H2941 0.950 . S
C2917 C2916 1.349 . S
C2917 C2933 1.349 . S
C2918 C2916 1.327 . S
C2918 C2937 1.429 . S
C2918 H2942 0.950 . S
C2919 C2936 1.574 . S
C2919 C2938 1.368 . S
C2919 H2943 0.949 . S
H2920 C2924 0.949 . S
C2921 C2922 1.349 . S
C2921 C2923 1.327 . S
C2921 H2944 0.950 . S
C2922 C2921 1.349 . S
C2922 C2934 1.349 . S
C2923 C2921 1.327 . S
C2923 C2939 1.429 . S
C2923 H2945 0.950 . S
C2924 H2920 0.949 . S
C2924 C2932 1.574 . S
C2924 C2940 1.368 . S
H2925 C2933 0.950 . S
H2926 C2931 0.950 . S
H2927 C2932 0.949 . S
H2928 C2934 0.950 . S
H2929 C2935 0.950 . S
H2930 C2936 0.949 . S
C2931 H2926 0.950 . S
C2931 C2933 1.327 . S
C2931 C2937 1.429 . S
C2932 C2924 1.574 . S
C2932 H2927 0.949 . S
C2932 C2938 1.368 . S
C2933 C2917 1.349 . S
C2933 H2925 0.950 . S
C2933 C2931 1.327 . S
C2934 C2922 1.349 . S
C2934 H2928 0.950 . S
C2934 C2935 1.327 . S
C2935 H2929 0.950 . S
C2935 C2934 1.327 . S
C2935 C2939 1.429 . S
C2936 C2919 1.574 . S
C2936 H2930 0.949 . S
C2936 C2940 1.368 . S
C2937 C2918 1.429 . S
C2937 C2931 1.429 . S
C2937 C2938 1.523 . S
C2938 C2919 1.368 . S
C2938 C2932 1.368 . S
C2938 C2937 1.523 . S
C2939 C2923 1.429 . S
C2939 C2935 1.429 . S
C2939 C2940 1.523 . S
C2940 C2924 1.368 . S
C2940 C2936 1.368 . S
C2940 C2939 1.523 . S
H2941 C2916 0.950 . S
H2942 C2918 0.950 . S
H2943 C2919 0.949 . S
H2944 C2921 0.950 . S
H2945 C2923 0.950 . S
C2946 C2947 1.349 . S
C2946 C2948 1.327 . S
C2946 H2971 0.950 . S
C2947 C2946 1.349 . S
C2947 C2963 1.349 . S
C2948 C2946 1.327 . S
C2948 C2967 1.429 . S
C2948 H2972 0.950 . S
C2949 C2966 1.574 . S
C2949 C2968 1.368 . S
C2949 H2973 0.949 . S
H2950 C2954 0.949 . S
C2951 C2952 1.349 . S
C2951 C2953 1.327 . S
C2951 H2974 0.950 . S
C2952 C2951 1.349 . S
C2952 C2964 1.349 . S
C2953 C2951 1.327 . S
C2953 C2969 1.429 . S
C2953 H2975 0.950 . S
C2954 H2950 0.949 . S
C2954 C2962 1.574 . S
C2954 C2970 1.368 . S
H2955 C2963 0.950 . S
H2956 C2961 0.950 . S
H2957 C2962 0.949 . S
H2958 C2964 0.950 . S
H2959 C2965 0.950 . S
H2960 C2966 0.949 . S
C2961 H2956 0.950 . S
C2961 C2963 1.327 . S
C2961 C2967 1.429 . S
C2962 C2954 1.574 . S
C2962 H2957 0.949 . S
C2962 C2968 1.368 . S
C2963 C2947 1.349 . S
C2963 H2955 0.950 . S
C2963 C2961 1.327 . S
C2964 C2952 1.349 . S
C2964 H2958 0.950 . S
C2964 C2965 1.327 . S
C2965 H2959 0.950 . S
C2965 C2964 1.327 . S
C2965 C2969 1.429 . S
C2966 C2949 1.574 . S
C2966 H2960 0.949 . S
C2966 C2970 1.368 . S
C2967 C2948 1.429 . S
C2967 C2961 1.429 . S
C2967 C2968 1.523 . S
C2968 C2949 1.368 . S
C2968 C2962 1.368 . S
C2968 C2967 1.523 . S
C2969 C2953 1.429 . S
C2969 C2965 1.429 . S
C2969 C2970 1.523 . S
C2970 C2954 1.368 . S
C2970 C2966 1.368 . S
C2970 C2969 1.523 . S
H2971 C2946 0.950 . S
H2972 C2948 0.950 . S
H2973 C2949 0.949 . S
H2974 C2951 0.950 . S
H2975 C2953 0.950 . S
C2976 C2977 1.349 . S
C2976 C2978 1.327 . S
C2976 H3001 0.950 . S
C2977 C2976 1.349 . S
C2977 C2993 1.349 . S
C2978 C2976 1.327 . S
C2978 C2997 1.429 . S
C2978 H3002 0.950 . S
C2979 C2996 1.574 . S
C2979 C2998 1.368 . S
C2979 H3003 0.949 . S
H2980 C2984 0.949 . S
C2981 C2982 1.349 . S
C2981 C2983 1.327 . S
C2981 H3004 0.950 . S
C2982 C2981 1.349 . S
C2982 C2994 1.349 . S
C2983 C2981 1.327 . S
C2983 C2999 1.429 . S
C2983 H3005 0.950 . S
C2984 H2980 0.949 . S
C2984 C2992 1.574 . S
C2984 C3000 1.368 . S
H2985 C2993 0.950 . S
H2986 C2991 0.950 . S
H2987 C2992 0.949 . S
H2988 C2994 0.950 . S
H2989 C2995 0.950 . S
H2990 C2996 0.949 . S
C2991 H2986 0.950 . S
C2991 C2993 1.327 . S
C2991 C2997 1.429 . S
C2992 C2984 1.574 . S
C2992 H2987 0.949 . S
C2992 C2998 1.368 . S
C2993 C2977 1.349 . S
C2993 H2985 0.950 . S
C2993 C2991 1.327 . S
C2994 C2982 1.349 . S
C2994 H2988 0.950 . S
C2994 C2995 1.327 . S
C2995 H2989 0.950 . S
C2995 C2994 1.327 . S
C2995 C2999 1.429 . S
C2996 C2979 1.574 . S
C2996 H2990 0.949 . S
C2996 C3000 1.368 . S
C2997 C2978 1.429 . S
C2997 C2991 1.429 . S
C2997 C2998 1.523 . S
C2998 C2979 1.368 . S
C2998 C2992 1.368 . S
C2998 C2997 1.523 . S
C2999 C2983 1.429 . S
C2999 C2995 1.429 . S
C2999 C3000 1.523 . S
C3000 C2984 1.368 . S
C3000 C2996 1.368 . S
C3000 C2999 1.523 . S
H3001 C2976 0.950 . S
H3002 C2978 0.950 . S
H3003 C2979 0.949 . S
H3004 C2981 0.950 . S
H3005 C2983 0.950 . S
C3006 C3007 1.349 . S
C3006 C3008 1.327 . S
C3006 H3031 0.950 . S
C3007 C3006 1.349 . S
C3007 C3023 1.349 . S
C3008 C3006 1.327 . S
C3008 C3027 1.429 . S
C3008 H3032 0.950 . S
C3009 C3026 1.574 1_655 S
C3009 C3028 1.368 . S
C3009 H3033 0.949 . S
H3010 C3014 0.949 . S
C3011 C3012 1.349 . S
C3011 C3013 1.327 . S
C3011 H3034 0.950 . S
C3012 C3011 1.349 . S
C3012 C3024 1.349 . S
C3013 C3011 1.327 . S
C3013 C3029 1.429 . S
C3013 H3035 0.950 . S
C3014 H3010 0.949 . S
C3014 C3022 1.574 1_455 S
C3014 C3030 1.368 . S
H3015 C3023 0.950 . S
H3016 C3021 0.950 . S
H3017 C3022 0.949 . S
H3018 C3024 0.950 . S
H3019 C3025 0.950 . S
H3020 C3026 0.949 . S
C3021 H3016 0.950 . S
C3021 C3023 1.327 . S
C3021 C3027 1.429 . S
C3022 C3014 1.574 1_655 S
C3022 H3017 0.949 . S
C3022 C3028 1.368 . S
C3023 C3007 1.349 . S
C3023 H3015 0.950 . S
C3023 C3021 1.327 . S
C3024 C3012 1.349 . S
C3024 H3018 0.950 . S
C3024 C3025 1.327 . S
C3025 H3019 0.950 . S
C3025 C3024 1.327 . S
C3025 C3029 1.429 . S
C3026 C3009 1.574 1_455 S
C3026 H3020 0.949 . S
C3026 C3030 1.368 . S
C3027 C3008 1.429 . S
C3027 C3021 1.429 . S
C3027 C3028 1.523 . S
C3028 C3009 1.368 . S
C3028 C3022 1.368 . S
C3028 C3027 1.523 . S
C3029 C3013 1.429 . S
C3029 C3025 1.429 . S
C3029 C3030 1.523 . S
C3030 C3014 1.368 . S
C3030 C3026 1.368 . S
C3030 C3029 1.523 . S
H3031 C3006 0.950 . S
H3032 C3008 0.950 . S
H3033 C3009 0.949 . S
H3034 C3011 0.950 . S
H3035 C3013 0.950 . S
C3036 C3037 1.349 . S
C3036 C3038 1.327 . S
C3036 H3061 0.950 . S
C3037 C3036 1.349 . S
C3037 C3053 1.349 . S
C3038 C3036 1.327 . S
C3038 C3057 1.429 . S
C3038 H3062 0.950 . S
C3039 C3056 1.574 . S
C3039 C3058 1.368 . S
C3039 H3063 0.949 . S
H3040 C3044 0.949 . S
C3041 C3042 1.349 . S
C3041 C3043 1.327 . S
C3041 H3064 0.950 . S
C3042 C3041 1.349 . S
C3042 C3054 1.349 . S
C3043 C3041 1.327 . S
C3043 C3059 1.429 . S
C3043 H3065 0.950 . S
C3044 H3040 0.949 . S
C3044 C3052 1.574 . S
C3044 C3060 1.368 . S
H3045 C3053 0.950 . S
H3046 C3051 0.950 . S
H3047 C3052 0.949 . S
H3048 C3054 0.950 . S
H3049 C3055 0.950 . S
H3050 C3056 0.949 . S
C3051 H3046 0.950 . S
C3051 C3053 1.327 . S
C3051 C3057 1.429 . S
C3052 C3044 1.574 . S
C3052 H3047 0.949 . S
C3052 C3058 1.368 . S
C3053 C3037 1.349 . S
C3053 H3045 0.950 . S
C3053 C3051 1.327 . S
C3054 C3042 1.349 . S
C3054 H3048 0.950 . S
C3054 C3055 1.327 . S
C3055 H3049 0.950 . S
C3055 C3054 1.327 . S
C3055 C3059 1.429 . S
C3056 C3039 1.574 . S
C3056 H3050 0.949 . S
C3056 C3060 1.368 . S
C3057 C3038 1.429 . S
C3057 C3051 1.429 . S
C3057 C3058 1.523 . S
C3058 C3039 1.368 . S
C3058 C3052 1.368 . S
C3058 C3057 1.523 . S
C3059 C3043 1.429 . S
C3059 C3055 1.429 . S
C3059 C3060 1.523 . S
C3060 C3044 1.368 . S
C3060 C3056 1.368 . S
C3060 C3059 1.523 . S
H3061 C3036 0.950 . S
H3062 C3038 0.950 . S
H3063 C3039 0.949 . S
H3064 C3041 0.950 . S
H3065 C3043 0.950 . S
C3066 C3067 1.349 . S
C3066 C3068 1.327 . S
C3066 H3091 0.950 . S
C3067 C3066 1.349 . S
C3067 C3083 1.349 1_545 S
C3068 C3066 1.327 . S
C3068 C3087 1.429 . S
C3068 H3092 0.950 . S
C3069 C3086 1.574 . S
C3069 C3088 1.368 1_565 S
C3069 H3093 0.949 . S
H3070 C3074 0.949 . S
C3071 C3072 1.349 1_565 S
C3071 C3073 1.327 . S
C3071 H3094 0.950 . S
C3072 C3071 1.349 1_545 S
C3072 C3084 1.349 . S
C3073 C3071 1.327 . S
C3073 C3089 1.429 1_565 S
C3073 H3095 0.950 . S
C3074 H3070 0.949 . S
C3074 C3082 1.574 . S
C3074 C3090 1.368 . S
H3075 C3083 0.950 . S
H3076 C3081 0.950 . S
H3077 C3082 0.949 . S
H3078 C3084 0.950 . S
H3079 C3085 0.950 . S
H3080 C3086 0.949 . S
C3081 H3076 0.950 . S
C3081 C3083 1.327 . S
C3081 C3087 1.429 1_565 S
C3082 C3074 1.574 . S
C3082 H3077 0.949 . S
C3082 C3088 1.368 . S
C3083 C3067 1.349 1_565 S
C3083 H3075 0.950 . S
C3083 C3081 1.327 . S
C3084 C3072 1.349 . S
C3084 H3078 0.950 . S
C3084 C3085 1.327 . S
C3085 H3079 0.950 . S
C3085 C3084 1.327 . S
C3085 C3089 1.429 . S
C3086 C3069 1.574 . S
C3086 H3080 0.949 . S
C3086 C3090 1.368 1_565 S
C3087 C3068 1.429 . S
C3087 C3081 1.429 1_545 S
C3087 C3088 1.523 . S
C3088 C3069 1.368 1_545 S
C3088 C3082 1.368 . S
C3088 C3087 1.523 . S
C3089 C3073 1.429 1_545 S
C3089 C3085 1.429 . S
C3089 C3090 1.523 . S
C3090 C3074 1.368 . S
C3090 C3086 1.368 1_545 S
C3090 C3089 1.523 . S
H3091 C3066 0.950 . S
H3092 C3068 0.950 . S
H3093 C3069 0.949 . S
H3094 C3071 0.950 . S
H3095 C3073 0.950 . S
C3096 C3097 1.349 . S
C3096 C3098 1.327 . S
C3096 H3121 0.950 . S
C3097 C3096 1.349 . S
C3097 C3113 1.349 . S
C3098 C3096 1.327 . S
C3098 C3117 1.429 . S
C3098 H3122 0.950 . S
C3099 C3116 1.574 . S
C3099 C3118 1.368 . S
C3099 H3123 0.949 . S
H3100 C3104 0.949 . S
C3101 C3102 1.349 . S
C3101 C3103 1.327 . S
C3101 H3124 0.950 . S
C3102 C3101 1.349 . S
C3102 C3114 1.349 . S
C3103 C3101 1.327 . S
C3103 C3119 1.429 . S
C3103 H3125 0.950 . S
C3104 H3100 0.949 . S
C3104 C3112 1.574 . S
C3104 C3120 1.368 . S
H3105 C3113 0.950 . S
H3106 C3111 0.950 . S
H3107 C3112 0.949 . S
H3108 C3114 0.950 . S
H3109 C3115 0.950 . S
H3110 C3116 0.949 . S
C3111 H3106 0.950 . S
C3111 C3113 1.327 . S
C3111 C3117 1.429 . S
C3112 C3104 1.574 . S
C3112 H3107 0.949 . S
C3112 C3118 1.368 . S
C3113 C3097 1.349 . S
C3113 H3105 0.950 . S
C3113 C3111 1.327 . S
C3114 C3102 1.349 . S
C3114 H3108 0.950 . S
C3114 C3115 1.327 . S
C3115 H3109 0.950 . S
C3115 C3114 1.327 . S
C3115 C3119 1.429 . S
C3116 C3099 1.574 . S
C3116 H3110 0.949 . S
C3116 C3120 1.368 . S
C3117 C3098 1.429 . S
C3117 C3111 1.429 . S
C3117 C3118 1.523 . S
C3118 C3099 1.368 . S
C3118 C3112 1.368 . S
C3118 C3117 1.523 . S
C3119 C3103 1.429 . S
C3119 C3115 1.429 . S
C3119 C3120 1.523 . S
C3120 C3104 1.368 . S
C3120 C3116 1.368 . S
C3120 C3119 1.523 . S
H3121 C3096 0.950 . S
H3122 C3098 0.950 . S
H3123 C3099 0.949 . S
H3124 C3101 0.950 . S
H3125 C3103 0.950 . S
C3126 C3127 1.349 . S
C3126 C3128 1.327 . S
C3126 H3151 0.950 . S
C3127 C3126 1.349 . S
C3127 C3143 1.349 1_565 S
C3128 C3126 1.327 . S
C3128 C3147 1.429 . S
C3128 H3152 0.950 . S
C3129 C3146 1.574 . S
C3129 C3148 1.368 1_545 S
C3129 H3153 0.949 . S
H3130 C3134 0.949 . S
C3131 C3132 1.349 1_545 S
C3131 C3133 1.327 . S
C3131 H3154 0.950 . S
C3132 C3131 1.349 1_565 S
C3132 C3144 1.349 . S
C3133 C3131 1.327 . S
C3133 C3149 1.429 1_545 S
C3133 H3155 0.950 . S
C3134 H3130 0.949 . S
C3134 C3142 1.574 . S
C3134 C3150 1.368 . S
H3135 C3143 0.950 . S
H3136 C3141 0.950 . S
H3137 C3142 0.949 . S
H3138 C3144 0.950 . S
H3139 C3145 0.950 . S
H3140 C3146 0.949 . S
C3141 H3136 0.950 . S
C3141 C3143 1.327 . S
C3141 C3147 1.429 1_545 S
C3142 C3134 1.574 . S
C3142 H3137 0.949 . S
C3142 C3148 1.368 . S
C3143 C3127 1.349 1_545 S
C3143 H3135 0.950 . S
C3143 C3141 1.327 . S
C3144 C3132 1.349 . S
C3144 H3138 0.950 . S
C3144 C3145 1.327 . S
C3145 H3139 0.950 . S
C3145 C3144 1.327 . S
C3145 C3149 1.429 . S
C3146 C3129 1.574 . S
C3146 H3140 0.949 . S
C3146 C3150 1.368 1_545 S
C3147 C3128 1.429 . S
C3147 C3141 1.429 1_565 S
C3147 C3148 1.523 . S
C3148 C3129 1.368 1_565 S
C3148 C3142 1.368 . S
C3148 C3147 1.523 . S
C3149 C3133 1.429 1_565 S
C3149 C3145 1.429 . S
C3149 C3150 1.523 . S
C3150 C3134 1.368 . S
C3150 C3146 1.368 1_565 S
C3150 C3149 1.523 . S
H3151 C3126 0.950 . S
H3152 C3128 0.950 . S
H3153 C3129 0.949 . S
H3154 C3131 0.950 . S
H3155 C3133 0.950 . S
C3156 C3157 1.349 . S
C3156 C3158 1.327 . S
C3156 H3181 0.950 . S
C3157 C3156 1.349 . S
C3157 C3173 1.349 . S
C3158 C3156 1.327 . S
C3158 C3177 1.429 . S
C3158 H3182 0.950 . S
C3159 C3176 1.574 . S
C3159 C3178 1.368 . S
C3159 H3183 0.949 . S
H3160 C3164 0.949 . S
C3161 C3162 1.349 . S
C3161 C3163 1.327 . S
C3161 H3184 0.950 . S
C3162 C3161 1.349 . S
C3162 C3174 1.349 . S
C3163 C3161 1.327 . S
C3163 C3179 1.429 . S
C3163 H3185 0.950 . S
C3164 H3160 0.949 . S
C3164 C3172 1.574 . S
C3164 C3180 1.368 . S
H3165 C3173 0.950 . S
H3166 C3171 0.950 . S
H3167 C3172 0.949 . S
H3168 C3174 0.950 . S
H3169 C3175 0.950 . S
H3170 C3176 0.949 . S
C3171 H3166 0.950 . S
C3171 C3173 1.327 . S
C3171 C3177 1.429 . S
C3172 C3164 1.574 . S
C3172 H3167 0.949 . S
C3172 C3178 1.368 . S
C3173 C3157 1.349 . S
C3173 H3165 0.950 . S
C3173 C3171 1.327 . S
C3174 C3162 1.349 . S
C3174 H3168 0.950 . S
C3174 C3175 1.327 . S
C3175 H3169 0.950 . S
C3175 C3174 1.327 . S
C3175 C3179 1.429 . S
C3176 C3159 1.574 . S
C3176 H3170 0.949 . S
C3176 C3180 1.368 . S
C3177 C3158 1.429 . S
C3177 C3171 1.429 . S
C3177 C3178 1.523 . S
C3178 C3159 1.368 . S
C3178 C3172 1.368 . S
C3178 C3177 1.523 . S
C3179 C3163 1.429 . S
C3179 C3175 1.429 . S
C3179 C3180 1.523 . S
C3180 C3164 1.368 . S
C3180 C3176 1.368 . S
C3180 C3179 1.523 . S
H3181 C3156 0.950 . S
H3182 C3158 0.950 . S
H3183 C3159 0.949 . S
H3184 C3161 0.950 . S
H3185 C3163 0.950 . S
C3186 C3187 1.349 . S
C3186 C3188 1.327 . S
C3186 H3211 0.950 . S
C3187 C3186 1.349 . S
C3187 C3203 1.349 1_545 S
C3188 C3186 1.327 . S
C3188 C3207 1.429 . S
C3188 H3212 0.950 . S
C3189 C3206 1.574 1_455 S
C3189 C3208 1.368 1_565 S
C3189 H3213 0.949 . S
H3190 C3194 0.949 . S
C3191 C3192 1.349 1_565 S
C3191 C3193 1.327 . S
C3191 H3214 0.950 . S
C3192 C3191 1.349 1_545 S
C3192 C3204 1.349 . S
C3193 C3191 1.327 . S
C3193 C3209 1.429 1_565 S
C3193 H3215 0.950 . S
C3194 H3190 0.949 . S
C3194 C3202 1.574 1_655 S
C3194 C3210 1.368 . S
H3195 C3203 0.950 . S
H3196 C3201 0.950 . S
H3197 C3202 0.949 . S
H3198 C3204 0.950 . S
H3199 C3205 0.950 . S
H3200 C3206 0.949 . S
C3201 H3196 0.950 . S
C3201 C3203 1.327 . S
C3201 C3207 1.429 1_565 S
C3202 C3194 1.574 1_455 S
C3202 H3197 0.949 . S
C3202 C3208 1.368 . S
C3203 C3187 1.349 1_565 S
C3203 H3195 0.950 . S
C3203 C3201 1.327 . S
C3204 C3192 1.349 . S
C3204 H3198 0.950 . S
C3204 C3205 1.327 . S
C3205 H3199 0.950 . S
C3205 C3204 1.327 . S
C3205 C3209 1.429 . S
C3206 C3189 1.574 1_655 S
C3206 H3200 0.949 . S
C3206 C3210 1.368 1_565 S
C3207 C3188 1.429 . S
C3207 C3201 1.429 1_545 S
C3207 C3208 1.523 . S
C3208 C3189 1.368 1_545 S
C3208 C3202 1.368 . S
C3208 C3207 1.523 . S
C3209 C3193 1.429 1_545 S
C3209 C3205 1.429 . S
C3209 C3210 1.523 . S
C3210 C3194 1.368 . S
C3210 C3206 1.368 1_545 S
C3210 C3209 1.523 . S
H3211 C3186 0.950 . S
H3212 C3188 0.950 . S
H3213 C3189 0.949 . S
H3214 C3191 0.950 . S
H3215 C3193 0.950 . S
C3216 C3217 1.349 . S
C3216 C3218 1.327 . S
C3216 H3241 0.950 . S
C3217 C3216 1.349 . S
C3217 C3233 1.349 . S
C3218 C3216 1.327 . S
C3218 C3237 1.429 . S
C3218 H3242 0.950 . S
C3219 C3236 1.574 . S
C3219 C3238 1.368 . S
C3219 H3243 0.949 . S
H3220 C3224 0.949 . S
C3221 C3222 1.349 . S
C3221 C3223 1.327 . S
C3221 H3244 0.950 . S
C3222 C3221 1.349 . S
C3222 C3234 1.349 . S
C3223 C3221 1.327 . S
C3223 C3239 1.429 . S
C3223 H3245 0.950 . S
C3224 H3220 0.949 . S
C3224 C3232 1.574 . S
C3224 C3240 1.368 . S
H3225 C3233 0.950 . S
H3226 C3231 0.950 . S
H3227 C3232 0.949 . S
H3228 C3234 0.950 . S
H3229 C3235 0.950 . S
H3230 C3236 0.949 . S
C3231 H3226 0.950 . S
C3231 C3233 1.327 . S
C3231 C3237 1.429 . S
C3232 C3224 1.574 . S
C3232 H3227 0.949 . S
C3232 C3238 1.368 . S
C3233 C3217 1.349 . S
C3233 H3225 0.950 . S
C3233 C3231 1.327 . S
C3234 C3222 1.349 . S
C3234 H3228 0.950 . S
C3234 C3235 1.327 . S
C3235 H3229 0.950 . S
C3235 C3234 1.327 . S
C3235 C3239 1.429 . S
C3236 C3219 1.574 . S
C3236 H3230 0.949 . S
C3236 C3240 1.368 . S
C3237 C3218 1.429 . S
C3237 C3231 1.429 . S
C3237 C3238 1.523 . S
C3238 C3219 1.368 . S
C3238 C3232 1.368 . S
C3238 C3237 1.523 . S
C3239 C3223 1.429 . S
C3239 C3235 1.429 . S
C3239 C3240 1.523 . S
C3240 C3224 1.368 . S
C3240 C3236 1.368 . S
C3240 C3239 1.523 . S
H3241 C3216 0.950 . S
H3242 C3218 0.950 . S
H3243 C3219 0.949 . S
H3244 C3221 0.950 . S
H3245 C3223 0.950 . S
C3246 C3247 1.349 . S
C3246 C3248 1.327 . S
C3246 H3271 0.950 . S
C3247 C3246 1.349 . S
C3247 C3263 1.349 . S
C3248 C3246 1.327 . S
C3248 C3267 1.429 . S
C3248 H3272 0.950 . S
C3249 C3266 1.574 . S
C3249 C3268 1.368 . S
C3249 H3273 0.949 . S
H3250 C3254 0.949 . S
C3251 C3252 1.349 . S
C3251 C3253 1.327 . S
C3251 H3274 0.950 . S
C3252 C3251 1.349 . S
C3252 C3264 1.349 . S
C3253 C3251 1.327 . S
C3253 C3269 1.429 . S
C3253 H3275 0.950 . S
C3254 H3250 0.949 . S
C3254 C3262 1.574 . S
C3254 C3270 1.368 . S
H3255 C3263 0.950 . S
H3256 C3261 0.950 . S
H3257 C3262 0.949 . S
H3258 C3264 0.950 . S
H3259 C3265 0.950 . S
H3260 C3266 0.949 . S
C3261 H3256 0.950 . S
C3261 C3263 1.327 . S
C3261 C3267 1.429 . S
C3262 C3254 1.574 . S
C3262 H3257 0.949 . S
C3262 C3268 1.368 . S
C3263 C3247 1.349 . S
C3263 H3255 0.950 . S
C3263 C3261 1.327 . S
C3264 C3252 1.349 . S
C3264 H3258 0.950 . S
C3264 C3265 1.327 . S
C3265 H3259 0.950 . S
C3265 C3264 1.327 . S
C3265 C3269 1.429 . S
C3266 C3249 1.574 . S
C3266 H3260 0.949 . S
C3266 C3270 1.368 . S
C3267 C3248 1.429 . S
C3267 C3261 1.429 . S
C3267 C3268 1.523 . S
C3268 C3249 1.368 . S
C3268 C3262 1.368 . S
C3268 C3267 1.523 . S
C3269 C3253 1.429 . S
C3269 C3265 1.429 . S
C3269 C3270 1.523 . S
C3270 C3254 1.368 . S
C3270 C3266 1.368 . S
C3270 C3269 1.523 . S
H3271 C3246 0.950 . S
H3272 C3248 0.950 . S
H3273 C3249 0.949 . S
H3274 C3251 0.950 . S
H3275 C3253 0.950 . S
C3276 C3277 1.349 . S
C3276 C3278 1.327 . S
C3276 H3301 0.950 . S
C3277 C3276 1.349 . S
C3277 C3293 1.349 . S
C3278 C3276 1.327 . S
C3278 C3297 1.429 . S
C3278 H3302 0.950 . S
C3279 C3296 1.574 . S
C3279 C3298 1.368 . S
C3279 H3303 0.949 . S
H3280 C3284 0.949 . S
C3281 C3282 1.349 . S
C3281 C3283 1.327 . S
C3281 H3304 0.950 . S
C3282 C3281 1.349 . S
C3282 C3294 1.349 . S
C3283 C3281 1.327 . S
C3283 C3299 1.429 . S
C3283 H3305 0.950 . S
C3284 H3280 0.949 . S
C3284 C3292 1.574 . S
C3284 C3300 1.368 . S
H3285 C3293 0.950 . S
H3286 C3291 0.950 . S
H3287 C3292 0.949 . S
H3288 C3294 0.950 . S
H3289 C3295 0.950 . S
H3290 C3296 0.949 . S
C3291 H3286 0.950 . S
C3291 C3293 1.327 . S
C3291 C3297 1.429 . S
C3292 C3284 1.574 . S
C3292 H3287 0.949 . S
C3292 C3298 1.368 . S
C3293 C3277 1.349 . S
C3293 H3285 0.950 . S
C3293 C3291 1.327 . S
C3294 C3282 1.349 . S
C3294 H3288 0.950 . S
C3294 C3295 1.327 . S
C3295 H3289 0.950 . S
C3295 C3294 1.327 . S
C3295 C3299 1.429 . S
C3296 C3279 1.574 . S
C3296 H3290 0.949 . S
C3296 C3300 1.368 . S
C3297 C3278 1.429 . S
C3297 C3291 1.429 . S
C3297 C3298 1.523 . S
C3298 C3279 1.368 . S
C3298 C3292 1.368 . S
C3298 C3297 1.523 . S
C3299 C3283 1.429 . S
C3299 C3295 1.429 . S
C3299 C3300 1.523 . S
C3300 C3284 1.368 . S
C3300 C3296 1.368 . S
C3300 C3299 1.523 . S
H3301 C3276 0.950 . S
H3302 C3278 0.950 . S
H3303 C3279 0.949 . S
H3304 C3281 0.950 . S
H3305 C3283 0.950 . S
C3306 C3307 1.349 . S
C3306 C3308 1.327 . S
C3306 H3331 0.950 . S
C3307 C3306 1.349 . S
C3307 C3323 1.349 . S
C3308 C3306 1.327 . S
C3308 C3327 1.429 . S
C3308 H3332 0.950 . S
C3309 C3326 1.574 . S
C3309 C3328 1.368 . S
C3309 H3333 0.949 . S
H3310 C3314 0.949 . S
C3311 C3312 1.349 . S
C3311 C3313 1.327 . S
C3311 H3334 0.950 . S
C3312 C3311 1.349 . S
C3312 C3324 1.349 . S
C3313 C3311 1.327 . S
C3313 C3329 1.429 . S
C3313 H3335 0.950 . S
C3314 H3310 0.949 . S
C3314 C3322 1.574 . S
C3314 C3330 1.368 . S
H3315 C3323 0.950 . S
H3316 C3321 0.950 . S
H3317 C3322 0.949 . S
H3318 C3324 0.950 . S
H3319 C3325 0.950 . S
H3320 C3326 0.949 . S
C3321 H3316 0.950 . S
C3321 C3323 1.327 . S
C3321 C3327 1.429 . S
C3322 C3314 1.574 . S
C3322 H3317 0.949 . S
C3322 C3328 1.368 . S
C3323 C3307 1.349 . S
C3323 H3315 0.950 . S
C3323 C3321 1.327 . S
C3324 C3312 1.349 . S
C3324 H3318 0.950 . S
C3324 C3325 1.327 . S
C3325 H3319 0.950 . S
C3325 C3324 1.327 . S
C3325 C3329 1.429 . S
C3326 C3309 1.574 . S
C3326 H3320 0.949 . S
C3326 C3330 1.368 . S
C3327 C3308 1.429 . S
C3327 C3321 1.429 . S
C3327 C3328 1.523 . S
C3328 C3309 1.368 . S
C3328 C3322 1.368 . S
C3328 C3327 1.523 . S
C3329 C3313 1.429 . S
C3329 C3325 1.429 . S
C3329 C3330 1.523 . S
C3330 C3314 1.368 . S
C3330 C3326 1.368 . S
C3330 C3329 1.523 . S
H3331 C3306 0.950 . S
H3332 C3308 0.950 . S
H3333 C3309 0.949 . S
H3334 C3311 0.950 . S
H3335 C3313 0.950 . S
C3336 C3337 1.349 . S
C3336 C3338 1.327 . S
C3336 H3361 0.950 . S
C3337 C3336 1.349 . S
C3337 C3353 1.349 . S
C3338 C3336 1.327 . S
C3338 C3357 1.429 . S
C3338 H3362 0.950 . S
C3339 C3356 1.574 . S
C3339 C3358 1.368 . S
C3339 H3363 0.949 . S
H3340 C3344 0.949 . S
C3341 C3342 1.349 . S
C3341 C3343 1.327 . S
C3341 H3364 0.950 . S
C3342 C3341 1.349 . S
C3342 C3354 1.349 . S
C3343 C3341 1.327 . S
C3343 C3359 1.429 . S
C3343 H3365 0.950 . S
C3344 H3340 0.949 . S
C3344 C3352 1.574 . S
C3344 C3360 1.368 . S
H3345 C3353 0.950 . S
H3346 C3351 0.950 . S
H3347 C3352 0.949 . S
H3348 C3354 0.950 . S
H3349 C3355 0.950 . S
H3350 C3356 0.949 . S
C3351 H3346 0.950 . S
C3351 C3353 1.327 . S
C3351 C3357 1.429 . S
C3352 C3344 1.574 . S
C3352 H3347 0.949 . S
C3352 C3358 1.368 . S
C3353 C3337 1.349 . S
C3353 H3345 0.950 . S
C3353 C3351 1.327 . S
C3354 C3342 1.349 . S
C3354 H3348 0.950 . S
C3354 C3355 1.327 . S
C3355 H3349 0.950 . S
C3355 C3354 1.327 . S
C3355 C3359 1.429 . S
C3356 C3339 1.574 . S
C3356 H3350 0.949 . S
C3356 C3360 1.368 . S
C3357 C3338 1.429 . S
C3357 C3351 1.429 . S
C3357 C3358 1.523 . S
C3358 C3339 1.368 . S
C3358 C3352 1.368 . S
C3358 C3357 1.523 . S
C3359 C3343 1.429 . S
C3359 C3355 1.429 . S
C3359 C3360 1.523 . S
C3360 C3344 1.368 . S
C3360 C3356 1.368 . S
C3360 C3359 1.523 . S
H3361 C3336 0.950 . S
H3362 C3338 0.950 . S
H3363 C3339 0.949 . S
H3364 C3341 0.950 . S
H3365 C3343 0.950 . S
C3366 C3367 1.349 . S
C3366 C3368 1.327 . S
C3366 H3391 0.950 . S
C3367 C3366 1.349 . S
C3367 C3383 1.349 . S
C3368 C3366 1.327 . S
C3368 C3387 1.429 . S
C3368 H3392 0.950 . S
C3369 C3386 1.574 1_455 S
C3369 C3388 1.368 . S
C3369 H3393 0.949 . S
H3370 C3374 0.949 . S
C3371 C3372 1.349 . S
C3371 C3373 1.327 . S
C3371 H3394 0.950 . S
C3372 C3371 1.349 . S
C3372 C3384 1.349 . S
C3373 C3371 1.327 . S
C3373 C3389 1.429 . S
C3373 H3395 0.950 . S
C3374 H3370 0.949 . S
C3374 C3382 1.574 1_655 S
C3374 C3390 1.368 . S
H3375 C3383 0.950 . S
H3376 C3381 0.950 . S
H3377 C3382 0.949 . S
H3378 C3384 0.950 . S
H3379 C3385 0.950 . S
H3380 C3386 0.949 . S
C3381 H3376 0.950 . S
C3381 C3383 1.327 . S
C3381 C3387 1.429 . S
C3382 C3374 1.574 1_455 S
C3382 H3377 0.949 . S
C3382 C3388 1.368 . S
C3383 C3367 1.349 . S
C3383 H3375 0.950 . S
C3383 C3381 1.327 . S
C3384 C3372 1.349 . S
C3384 H3378 0.950 . S
C3384 C3385 1.327 . S
C3385 H3379 0.950 . S
C3385 C3384 1.327 . S
C3385 C3389 1.429 . S
C3386 C3369 1.574 1_655 S
C3386 H3380 0.949 . S
C3386 C3390 1.368 . S
C3387 C3368 1.429 . S
C3387 C3381 1.429 . S
C3387 C3388 1.523 . S
C3388 C3369 1.368 . S
C3388 C3382 1.368 . S
C3388 C3387 1.523 . S
C3389 C3373 1.429 . S
C3389 C3385 1.429 . S
C3389 C3390 1.523 . S
C3390 C3374 1.368 . S
C3390 C3386 1.368 . S
C3390 C3389 1.523 . S
H3391 C3366 0.950 . S
H3392 C3368 0.950 . S
H3393 C3369 0.949 . S
H3394 C3371 0.950 . S
H3395 C3373 0.950 . S
C3396 C3397 1.349 . S
C3396 C3398 1.327 . S
C3396 H3421 0.950 . S
C3397 C3396 1.349 . S
C3397 C3413 1.349 . S
C3398 C3396 1.327 . S
C3398 C3417 1.429 . S
C3398 H3422 0.950 . S
C3399 C3416 1.574 1_455 S
C3399 C3418 1.368 . S
C3399 H3423 0.949 . S
H3400 C3404 0.949 . S
C3401 C3402 1.349 . S
C3401 C3403 1.327 . S
C3401 H3424 0.950 . S
C3402 C3401 1.349 . S
C3402 C3414 1.349 . S
C3403 C3401 1.327 . S
C3403 C3419 1.429 . S
C3403 H3425 0.950 . S
C3404 H3400 0.949 . S
C3404 C3412 1.574 1_655 S
C3404 C3420 1.368 . S
H3405 C3413 0.950 . S
H3406 C3411 0.950 . S
H3407 C3412 0.949 . S
H3408 C3414 0.950 . S
H3409 C3415 0.950 . S
H3410 C3416 0.949 . S
C3411 H3406 0.950 . S
C3411 C3413 1.327 . S
C3411 C3417 1.429 . S
C3412 C3404 1.574 1_455 S
C3412 H3407 0.949 . S
C3412 C3418 1.368 . S
C3413 C3397 1.349 . S
C3413 H3405 0.950 . S
C3413 C3411 1.327 . S
C3414 C3402 1.349 . S
C3414 H3408 0.950 . S
C3414 C3415 1.327 . S
C3415 H3409 0.950 . S
C3415 C3414 1.327 . S
C3415 C3419 1.429 . S
C3416 C3399 1.574 1_655 S
C3416 H3410 0.949 . S
C3416 C3420 1.368 . S
C3417 C3398 1.429 . S
C3417 C3411 1.429 . S
C3417 C3418 1.523 . S
C3418 C3399 1.368 . S
C3418 C3412 1.368 . S
C3418 C3417 1.523 . S
C3419 C3403 1.429 . S
C3419 C3415 1.429 . S
C3419 C3420 1.523 . S
C3420 C3404 1.368 . S
C3420 C3416 1.368 . S
C3420 C3419 1.523 . S
H3421 C3396 0.950 . S
H3422 C3398 0.950 . S
H3423 C3399 0.949 . S
H3424 C3401 0.950 . S
H3425 C3403 0.950 . S
C3426 C3427 1.349 . S
C3426 C3428 1.327 . S
C3426 H3451 0.950 . S
C3427 C3426 1.349 . S
C3427 C3443 1.349 . S
C3428 C3426 1.327 . S
C3428 C3447 1.429 . S
C3428 H3452 0.950 . S
C3429 C3446 1.574 . S
C3429 C3448 1.368 . S
C3429 H3453 0.949 . S
H3430 C3434 0.949 . S
C3431 C3432 1.349 . S
C3431 C3433 1.327 . S
C3431 H3454 0.950 . S
C3432 C3431 1.349 . S
C3432 C3444 1.349 . S
C3433 C3431 1.327 . S
C3433 C3449 1.429 . S
C3433 H3455 0.950 . S
C3434 H3430 0.949 . S
C3434 C3442 1.574 . S
C3434 C3450 1.368 . S
H3435 C3443 0.950 . S
H3436 C3441 0.950 . S
H3437 C3442 0.949 . S
H3438 C3444 0.950 . S
H3439 C3445 0.950 . S
H3440 C3446 0.949 . S
C3441 H3436 0.950 . S
C3441 C3443 1.327 . S
C3441 C3447 1.429 . S
C3442 C3434 1.574 . S
C3442 H3437 0.949 . S
C3442 C3448 1.368 . S
C3443 C3427 1.349 . S
C3443 H3435 0.950 . S
C3443 C3441 1.327 . S
C3444 C3432 1.349 . S
C3444 H3438 0.950 . S
C3444 C3445 1.327 . S
C3445 H3439 0.950 . S
C3445 C3444 1.327 . S
C3445 C3449 1.429 . S
C3446 C3429 1.574 . S
C3446 H3440 0.949 . S
C3446 C3450 1.368 . S
C3447 C3428 1.429 . S
C3447 C3441 1.429 . S
C3447 C3448 1.523 . S
C3448 C3429 1.368 . S
C3448 C3442 1.368 . S
C3448 C3447 1.523 . S
C3449 C3433 1.429 . S
C3449 C3445 1.429 . S
C3449 C3450 1.523 . S
C3450 C3434 1.368 . S
C3450 C3446 1.368 . S
C3450 C3449 1.523 . S
H3451 C3426 0.950 . S
H3452 C3428 0.950 . S
H3453 C3429 0.949 . S
H3454 C3431 0.950 . S
H3455 C3433 0.950 . S
C1057 N46 2.032 . S
C1062 C21 1.958 . S
C1087 C54 1.725 . S
C1092 N79 1.803 . S
C1117 C87 1.953 . S
C1122 N112 2.037 . S
C1147 C120 1.725 . S
C1152 N13 1.804 1_556 S
C1177 C153 1.953 . S
C1182 N244 2.037 . S
C1207 N145 1.808 1_554 S
C1212 C186 1.719 . S
C1237 C219 1.953 . S
C1242 N178 2.037 . S
C1267 C252 1.725 . S
C1272 N211 1.803 . S
C1297 N310 2.032 . S
C1302 C285 1.958 . S
C1327 N343 1.808 . S
C1332 C318 1.719 . S
C1357 C351 1.953 . S
C1362 N376 2.037 . S
C1387 N277 1.808 1_554 S
C1392 C384 1.719 . S
C1417 C417 1.953 . S
C1422 N508 2.037 . S
C1447 C450 1.725 . S
C1452 N409 1.804 1_556 S
C1477 N442 2.032 . S
C1482 C483 1.958 . S
C1507 N475 1.808 . S
C1512 C516 1.719 . S
C1537 N574 1.955 . S
C1542 C549 1.874 . S
C1567 C582 1.886 . S
C1572 N607 1.967 1_556 S
C1597 N640 1.956 . S
C1602 C615 1.875 . S
C1627 N541 1.968 . S
C1632 C648 1.886 . S
C1657 N772 1.955 . S
C1662 C681 1.874 . S
C1687 C714 1.886 . S
C1692 N673 1.968 . S
C1717 N706 1.956 . S
C1722 C747 1.875 . S
C1747 C780 1.886 . S
C1752 N739 1.967 1_554 S
C1777 N838 1.955 . S
C1782 C813 1.874 . S
C1807 C846 1.886 . S
C1812 N871 1.967 1_554 S
C1837 C879 1.875 . S
C1842 N904 1.956 . S
C1867 C912 1.886 . S
C1872 N805 1.968 . S
C1897 N1036 1.955 . S
C1902 C945 1.874 . S
C1927 N937 1.968 . S
C1932 C978 1.886 . S
C1957 N970 1.956 . S
C1962 C1011 1.875 . S
C1987 N1003 1.967 1_556 S
C1992 C1044 1.886 . S
C2017 N200 0.561 . S
C2022 N2 0.561 . S
C2047 N35 0.538 . S
C2052 N233 0.531 . S
C2077 N68 0.561 . S
C2082 N134 0.561 . S
C2107 N101 0.538 . S
C2112 N167 0.531 . S
C2137 N464 0.561 . S
C2142 N266 0.561 . S
C2167 N497 0.538 . S
C2172 N299 0.531 . S
C2197 N332 0.561 . S
C2202 N398 0.561 . S
C2227 N431 0.538 . S
C2232 N365 0.531 . S
C2257 N530 0.533 . S
C2262 N728 0.534 . S
C2287 N563 0.529 . S
C2292 N761 0.529 . S
C2317 N662 0.533 . S
C2322 N596 0.534 . S
C2347 N695 0.529 . S
C2352 N629 0.529 . S
C2377 N992 0.534 . S
C2382 N794 0.533 . S
C2407 N1025 0.529 . S
C2412 N827 0.529 . S
C2437 N926 0.533 . S
C2442 N860 0.534 . S
C2467 N959 0.529 . S
C2472 N893 0.529 . S
C2497 C183 0.373 . S
C2502 C18 0.380 . S
C2527 C51 0.373 . S
C2532 C216 0.380 . S
C2557 C84 0.379 . S
C2562 C249 0.381 . S
C2587 C117 0.373 . S
C2592 C150 0.380 . S
C2617 C447 0.373 . S
C2622 C282 0.380 . S
C2647 C315 0.373 . S
C2652 C480 0.380 . S
C2677 C513 0.373 . S
C2682 C348 0.380 . S
C2707 C381 0.373 . S
C2712 C414 0.380 . S
C2737 C546 0.311 . S
C2742 C711 0.312 . S
C2767 C744 0.311 . S
C2772 C579 0.312 . S
C2797 C777 0.312 . S
C2802 C612 0.311 . S
C2827 C645 0.312 . S
C2832 C678 0.311 . S
C2857 C810 0.311 . S
C2862 C975 0.312 . S
C2887 C1008 0.311 . S
C2892 C843 0.312 . S
C2917 C1041 0.312 . S
C2922 C876 0.311 . S
C2947 C942 0.311 . S
C2952 C909 0.312 . S
C2977 C7 0.735 . S
C2982 C997 0.736 . S
C3007 C502 0.729 . S
C3012 C40 0.729 . S
C3037 C931 0.735 . S
C3042 C73 0.735 . S
C3067 C106 0.730 . S
C3072 C436 0.730 . S
C3097 C139 0.735 . S
C3102 C865 0.736 . S
C3127 C370 0.730 . S
C3132 C172 0.730 . S
C3157 C205 0.735 . S
C3162 C799 0.735 . S
C3187 C238 0.729 . S
C3192 C304 0.729 . S
C3217 C271 0.735 . S
C3222 C733 0.736 . S
C3247 C337 0.735 . S
C3252 C667 0.735 . S
C3277 C403 0.735 . S
C3282 C601 0.736 . S
C3307 C469 0.735 . S
C3312 C535 0.735 . S
C3337 C568 0.715 . S
C3342 C1030 0.715 . S
C3367 C964 0.715 . S
C3372 C634 0.715 . S
C3397 C898 0.715 . S
C3402 C700 0.715 . S
C3427 C832 0.715 . S
C3432 C766 0.715 . S
