# Generated by pormake.
# Topology sod, (4)-cn, num edge types: 1
# Building blocks:
#     Node 0, Type 0, BuildingBlock: CEKHIL_clean_sbu_0, # of connection points: 4
#     Node 1, Type 0, BuildingBlock: CEKHIL_clean_sbu_0, # of connection points: 4
#     Node 2, Type 0, BuildingBlock: CEKHIL_clean_sbu_0, # of connection points: 4
#     Node 3, Type 0, BuildingBlock: CEKHIL_clean_sbu_0, # of connection points: 4
#     Node 4, Type 0, BuildingBlock: CEKHIL_clean_sbu_0, # of connection points: 4
#     Node 5, Type 0, BuildingBlock: CEKHIL_clean_sbu_0, # of connection points: 4
#     Node 6, Type 0, BuildingBlock: CEKHIL_clean_sbu_0, # of connection points: 4
#     Node 7, Type 0, BuildingBlock: CEKHIL_clean_sbu_0, # of connection points: 4
#     Node 8, Type 0, BuildingBlock: CEKHIL_clean_sbu_0, # of connection points: 4
#     Node 9, Type 0, BuildingBlock: CEKHIL_clean_sbu_0, # of connection points: 4
#     Node 10, Type 0, BuildingBlock: CEKHIL_clean_sbu_0, # of connection points: 4
#     Node 11, Type 0, BuildingBlock: CEKHIL_clean_sbu_0, # of connection points: 4
#     Edge 12, Type (0, 0), BuildingBlock: KIFKEQ_clean_linker_1, # of connection points: 2
#     Edge 13, Type (0, 0), BuildingBlock: KIFKEQ_clean_linker_1, # of connection points: 2
#     Edge 14, Type (0, 0), BuildingBlock: KIFKEQ_clean_linker_1, # of connection points: 2
#     Edge 15, Type (0, 0), BuildingBlock: KIFKEQ_clean_linker_1, # of connection points: 2
#     Edge 16, Type (0, 0), BuildingBlock: KIFKEQ_clean_linker_1, # of connection points: 2
#     Edge 17, Type (0, 0), BuildingBlock: KIFKEQ_clean_linker_1, # of connection points: 2
#     Edge 18, Type (0, 0), BuildingBlock: KIFKEQ_clean_linker_1, # of connection points: 2
#     Edge 19, Type (0, 0), BuildingBlock: KIFKEQ_clean_linker_1, # of connection points: 2
#     Edge 20, Type (0, 0), BuildingBlock: KIFKEQ_clean_linker_1, # of connection points: 2
#     Edge 21, Type (0, 0), BuildingBlock: KIFKEQ_clean_linker_1, # of connection points: 2
#     Edge 22, Type (0, 0), BuildingBlock: KIFKEQ_clean_linker_1, # of connection points: 2
#     Edge 23, Type (0, 0), BuildingBlock: KIFKEQ_clean_linker_1, # of connection points: 2
#     Edge 24, Type (0, 0), BuildingBlock: KIFKEQ_clean_linker_1, # of connection points: 2
#     Edge 25, Type (0, 0), BuildingBlock: KIFKEQ_clean_linker_1, # of connection points: 2
#     Edge 26, Type (0, 0), BuildingBlock: KIFKEQ_clean_linker_1, # of connection points: 2
#     Edge 27, Type (0, 0), BuildingBlock: KIFKEQ_clean_linker_1, # of connection points: 2
#     Edge 28, Type (0, 0), BuildingBlock: KIFKEQ_clean_linker_1, # of connection points: 2
#     Edge 29, Type (0, 0), BuildingBlock: KIFKEQ_clean_linker_1, # of connection points: 2
#     Edge 30, Type (0, 0), BuildingBlock: KIFKEQ_clean_linker_1, # of connection points: 2
#     Edge 31, Type (0, 0), BuildingBlock: KIFKEQ_clean_linker_1, # of connection points: 2
#     Edge 32, Type (0, 0), BuildingBlock: KIFKEQ_clean_linker_1, # of connection points: 2
#     Edge 33, Type (0, 0), BuildingBlock: KIFKEQ_clean_linker_1, # of connection points: 2
#     Edge 34, Type (0, 0), BuildingBlock: KIFKEQ_clean_linker_1, # of connection points: 2
#     Edge 35, Type (0, 0), BuildingBlock: KIFKEQ_clean_linker_1, # of connection points: 2
# Relax obj value: 0.139
# Max RMSD: 0.179
# Mean RMSD: 0.169
data_MOF--net-sod--node1-CEKHIL_clean_sbu_0--edge1-KIFKEQ_clean_linker_1
_symmetry_space_group_name_H-M    P1
_symmetry_Int_Tables_number       1
_symmetry_cell_setting            triclinic
loop_
_symmetry_equiv_pos_as_xyz
'x, y, z'
_cell_length_a     42.39216
_cell_length_b     42.69875
_cell_length_c     42.525062
_cell_angle_alpha  91.936319
_cell_angle_beta   89.946074
_cell_angle_gamma 91.047309
loop_
_atom_site_label
_atom_site_type_symbol
_atom_site_fract_x
_atom_site_fract_y
_atom_site_fract_z
_atom_type_partial_charge
Co0 Co 0.01153 0.26736 0.50886 0.0
O1 O 0.98651 0.29784 0.48769 0.0
O2 O 0.03759 0.29046 0.48026 0.0
C3 C 0.97679 0.22679 0.50377 0.0
O4 O 0.04547 0.23763 0.52322 0.0
Co5 Co 0.99119 0.23403 0.56972 0.0
O6 O 0.02593 0.20519 0.55915 0.0
C7 C 0.01126 0.30079 0.57292 0.0
C8 C 0.01243 0.3056 0.47325 0.0
C9 C 0.04746 0.21315 0.53994 0.0
O10 O 0.02086 0.29934 0.54413 0.0
O11 O 0.99719 0.27803 0.58627 0.0
O12 O 0.99501 0.23385 0.48027 0.0
O13 O 0.97849 0.24562 0.52801 0.0
Co14 Co 0.76038 0.01507 0.51261 0.0
O15 O 0.79282 0.9936 0.48831 0.0
O16 O 0.78229 0.98683 0.5387 0.0
C17 C 0.72164 0.01078 0.47613 0.0
O18 O 0.72881 0.02889 0.54613 0.0
Co19 Co 0.72603 0.07556 0.49522 0.0
O20 O 0.69566 0.06476 0.52889 0.0
C21 C 0.79438 0.07662 0.50951 0.0
C22 C 0.7993 0.97967 0.51428 0.0
C23 C 0.70352 0.04488 0.54898 0.0
O24 O 0.79165 0.05027 0.52337 0.0
O25 O 0.77153 0.08883 0.49488 0.0
O26 O 0.72754 0.98705 0.49361 0.0
O27 O 0.74016 0.03472 0.48011 0.0
Co28 Co 0.9984 0.77299 0.53044 0.0
O29 O 0.97451 0.73949 0.54997 0.0
O30 O 0.02427 0.75254 0.56021 0.0
C31 C 0.96085 0.81 0.53397 0.0
O32 O 0.0316 0.80564 0.51842 0.0
Co33 Co 0.98118 0.80671 0.46964 0.0
O34 O 0.01189 0.83948 0.48476 0.0
C35 C 0.00454 0.74156 0.46591 0.0
C36 C 1.00014 0.73451 0.56581 0.0
C37 C 0.03299 0.83164 0.50405 0.0
O38 O 0.01164 0.74267 0.49541 0.0
O39 O 0.99083 0.76383 0.4522 0.0
O40 O 0.97809 0.8043 0.55837 0.0
O41 O 0.96536 0.79208 0.50946 0.0
Co42 Co 0.26632 0.02701 0.51438 0.0
O43 O 0.23449 0.04816 0.4907 0.0
O44 O 0.24611 0.058 0.54085 0.0
C45 C 0.30463 0.0286 0.47775 0.0
O46 O 0.29791 0.01312 0.547 0.0
Co47 Co 0.29586 0.9638 0.49467 0.0
O48 O 0.32759 0.97397 0.52787 0.0
C49 C 0.23052 0.96493 0.51847 0.0
C50 C 0.22905 0.06427 0.51661 0.0
C51 C 0.32176 0.99506 0.54883 0.0
O52 O 0.23367 0.99427 0.52607 0.0
O53 O 0.2519 0.94899 0.50439 0.0
O54 O 0.29968 0.05292 0.49624 0.0
O55 O 0.2852 0.00521 0.48049 0.0
Co56 Co 0.51998 0.02967 0.26996 0.0
O57 O 0.54365 0.05031 0.23718 0.0
O58 O 0.49434 0.06031 0.25071 0.0
C59 C 0.55818 0.03147 0.30702 0.0
O60 O 0.48743 0.0163 0.30238 0.0
Co61 Co 0.53735 0.96759 0.30113 0.0
O62 O 0.50838 0.98223 0.33504 0.0
C63 C 0.51128 0.96661 0.23631 0.0
C64 C 0.51827 0.06634 0.23275 0.0
C65 C 0.48712 1.00155 0.32824 0.0
O66 O 0.50551 0.99612 0.23824 0.0
O67 O 0.52489 0.95175 0.25798 0.0
O68 O 0.54118 0.05604 0.30256 0.0
O69 O 0.55304 0.00797 0.28783 0.0
Co70 Co 0.02333 0.50641 0.26951 0.0
O71 O 0.04818 0.48641 0.30115 0.0
O72 O 0.99825 0.47488 0.28973 0.0
C73 C 0.06008 0.50616 0.2309 0.0
O74 O 0.98995 0.51892 0.23792 0.0
Co75 Co 0.04063 0.57016 0.24021 0.0
O76 O 0.00715 0.55889 0.20913 0.0
C77 C 0.01643 0.56865 0.30527 0.0
C78 C 0.02292 0.46969 0.30669 0.0
C79 C 0.98712 0.53716 0.21462 0.0
O80 O 0.00966 0.53918 0.30209 0.0
O81 O 0.03043 0.58447 0.28421 0.0
O82 O 0.04338 0.48092 0.236 0.0
O83 O 0.0559 0.52924 0.25068 0.0
Co84 Co 0.52333 0.0079 0.77271 0.0
O85 O 0.54735 0.98951 0.806 0.0
O86 O 0.49842 0.97604 0.79254 0.0
C87 C 0.56167 0.00763 0.73568 0.0
O88 O 0.49082 0.01859 0.73947 0.0
Co89 Co 0.54009 0.07099 0.74178 0.0
O90 O 0.50781 0.05816 0.71004 0.0
C91 C 0.51409 0.07083 0.80633 0.0
C92 C 0.52248 0.97192 0.81068 0.0
C93 C 0.48819 0.03609 0.71557 0.0
O94 O 0.50782 0.04119 0.80391 0.0
O95 O 0.52842 0.08615 0.7851 0.0
O96 O 0.54534 0.98215 0.74072 0.0
O97 O 0.55604 0.03108 0.75457 0.0
Co98 Co 0.02151 0.53462 0.76874 0.0
O99 O 0.04447 0.55511 0.7355 0.0
O100 O 0.99618 0.56666 0.7513 0.0
C101 C 0.06132 0.53403 0.80401 0.0
O102 O 0.99001 0.52152 0.80227 0.0
Co103 Co 0.03846 0.47071 0.7965 0.0
O104 O 0.00787 0.4819 0.83016 0.0
C105 C 0.01076 0.47312 0.73276 0.0
C106 C 0.01947 0.57198 0.73227 0.0
C107 C 0.98812 0.50345 0.82583 0.0
O108 O 0.00464 0.50243 0.73669 0.0
O109 O 0.02557 0.45726 0.75282 0.0
O110 O 0.04492 0.5593 0.80125 0.0
O111 O 0.05457 0.51134 0.78434 0.0
Co112 Co 0.25954 0.51151 0.00952 0.0
O113 O 0.29359 0.49023 0.9875 0.0
O114 O 0.28155 0.48543 0.03777 0.0
C115 C 0.22253 0.50306 0.97218 0.0
O116 O 0.22647 0.52585 0.04122 0.0
Co117 Co 0.22339 0.56894 0.98755 0.0
O118 O 0.19256 0.5595 0.02131 0.0
C119 C 0.29111 0.57415 0.0044 0.0
C120 C 0.29952 0.47754 0.01425 0.0
C121 C 0.20063 0.54109 0.04269 0.0
O122 O 0.28907 0.54835 0.01927 0.0
O123 O 0.26827 0.58456 0.98833 0.0
O124 O 0.2285 0.48111 0.99174 0.0
O125 O 0.23967 0.52816 0.9748 0.0
Co126 Co 0.49819 0.27167 0.03527 0.0
O127 O 0.47489 0.23756 0.05424 0.0
O128 O 0.5241 0.25194 0.0656 0.0
C129 C 0.45948 0.30742 0.03799 0.0
O130 O 0.53043 0.30543 0.02388 0.0
Co131 Co 0.48057 0.30453 0.97401 0.0
O132 O 0.51203 0.33721 0.98757 0.0
C133 C 0.50594 0.24017 0.97103 0.0
C134 C 0.50035 0.23316 0.07052 0.0
C135 C 0.53245 0.33059 0.00812 0.0
O136 O 0.51279 0.24166 1.00058 0.0
O137 O 0.49167 0.26186 0.95698 0.0
O138 O 0.47668 0.30256 0.06266 0.0
O139 O 0.46488 0.28946 0.01373 0.0
Co140 Co 0.76484 0.52478 0.01109 0.0
O141 O 0.73146 0.54237 0.98654 0.0
O142 O 0.74334 0.55639 0.03582 0.0
C143 C 0.8029 0.52619 0.97399 0.0
O144 O 0.79773 0.51434 0.04404 0.0
Co145 Co 0.79713 0.46197 0.99365 0.0
O146 O 0.82767 0.47428 0.02727 0.0
C147 C 0.7315 0.46178 0.01699 0.0
C148 C 0.72566 0.56 0.01135 0.0
C149 C 0.82161 0.49645 0.04702 0.0
O150 O 0.73418 0.49107 0.02514 0.0
O151 O 0.75312 0.44675 1.00223 0.0
O152 O 0.79644 0.55133 0.99075 0.0
O153 O 0.78462 0.50223 0.97835 0.0
Co154 Co 0.51016 0.7652 0.00801 0.0
O155 O 0.48608 0.79772 0.9889 0.0
O156 O 0.53636 0.7881 0.97942 0.0
C157 C 0.4734 0.72648 1.00224 0.0
O158 O 0.54325 0.73367 0.02048 0.0
Co159 Co 0.49028 0.72956 0.06754 0.0
O160 O 0.52129 0.6984 0.05214 0.0
C161 C 0.51294 0.79568 0.07321 0.0
C162 C 0.51183 0.80477 0.9738 0.0
C163 C 0.54342 0.70715 0.03401 0.0
O164 O 0.52156 0.79536 0.04413 0.0
O165 O 0.49879 0.7726 0.08599 0.0
O166 O 0.49151 0.73353 0.97866 0.0
O167 O 0.47668 0.74414 0.02721 0.0
H168 H 0.06226 0.34352 0.45909 0.0
H169 H 0.9652 0.32336 0.43448 0.0
H170 H 0.06476 0.38411 0.42041 0.0
H171 H 0.96807 0.36211 0.39384 0.0
H172 H 0.97166 0.45108 0.34003 0.0
H173 H 0.96901 0.4132 0.3813 0.0
H174 H 0.06864 0.39571 0.36892 0.0
H175 H 0.07139 0.43565 0.32938 0.0
C176 C 0.04152 0.34762 0.44506 0.0
C177 C 0.01351 0.3304 0.44982 0.0
C178 C 0.04298 0.37074 0.42254 0.0
C179 C 0.0167 0.37665 0.40347 0.0
C180 C 0.98869 0.35906 0.4083 0.0
C181 C 0.987 0.33656 0.4315 0.0
C182 C 0.99299 0.43917 0.34632 0.0
C183 C 0.02174 0.44631 0.33156 0.0
C184 C 0.99148 0.41712 0.36987 0.0
C185 C 0.01854 0.40087 0.37872 0.0
C186 C 0.04732 0.408 0.36355 0.0
C187 C 0.04896 0.43076 0.3406 0.0
H188 H 0.70444 0.06125 0.44401 0.0
H189 H 0.6772 0.96492 0.45926 0.0
H190 H 0.66217 0.06565 0.40659 0.0
H191 H 0.63388 0.96955 0.42136 0.0
H192 H 0.59336 0.98115 0.3205 0.0
H193 H 0.62899 0.97507 0.36446 0.0
H194 H 0.60569 0.06763 0.40043 0.0
H195 H 0.57017 0.07396 0.3558 0.0
C196 C 0.68914 0.04099 0.43968 0.0
C197 C 0.6943 0.01263 0.45465 0.0
C198 C 0.66461 0.04368 0.41828 0.0
C199 C 0.64445 0.01808 0.41105 0.0
C200 C 0.64916 0.9897 0.42634 0.0
C201 C 0.67385 0.98703 0.44807 0.0
C202 C 0.59566 1.00022 0.33784 0.0
C203 C 0.57914 0.02822 0.3345 0.0
C204 C 0.61589 0.99654 0.36327 0.0
C205 C 0.62022 0.02079 0.38602 0.0
C206 C 0.60313 0.04859 0.38309 0.0
C207 C 0.5828 0.05227 0.35757 0.0
H208 H 0.9758 0.61603 0.31058 0.0
H209 H 0.04014 0.56195 0.36427 0.0
H210 H 0.97308 0.65498 0.35366 0.0
H211 H 0.0383 0.60168 0.4075 0.0
H212 H 0.00581 0.68013 0.48399 0.0
H213 H 0.00546 0.63317 0.4487 0.0
H214 H 0.01621 0.69224 0.36879 0.0
H215 H 0.01619 0.73845 0.40345 0.0
C216 C 0.9886 0.6121 0.3321 0.0
C217 C 0.00803 0.58612 0.33432 0.0
C218 C 0.98739 0.63452 0.35661 0.0
C219 C 0.00617 0.63179 0.38359 0.0
C220 C 0.02365 0.60441 0.38696 0.0
C221 C 0.02459 0.58165 0.36237 0.0
C222 C 0.00873 0.68287 0.45891 0.0
C223 C 0.01058 0.71295 0.4464 0.0
C224 C 0.00835 0.65607 0.43876 0.0
C225 C 0.0098 0.65912 0.40594 0.0
C226 C 0.01394 0.68914 0.39388 0.0
C227 C 0.0142 0.71565 0.41379 0.0
H228 H 0.30868 0.99185 0.4248 0.0
H229 H 0.36117 0.0607 0.48126 0.0
H230 H 0.35325 0.98707 0.38856 0.0
H231 H 0.40631 0.05515 0.44523 0.0
H232 H 0.48681 0.99465 0.39193 0.0
H233 H 0.44287 1.00372 0.42849 0.0
H234 H 0.38374 0.02871 0.35109 0.0
H235 H 0.4277 0.02046 0.31459 0.0
C236 C 0.32979 0.00594 0.42945 0.0
C237 C 0.33152 0.0267 0.45575 0.0
C238 C 0.35518 1.00326 0.40868 0.0
C239 C 0.38307 0.02073 0.41421 0.0
C240 C 0.38499 0.0414 0.4406 0.0
C241 C 0.35921 0.04467 0.46103 0.0
C242 C 0.46444 1.00211 0.38275 0.0
C243 C 0.46062 0.00668 0.35039 0.0
C244 C 0.43946 0.00752 0.40367 0.0
C245 C 0.41009 0.01693 0.39249 0.0
C246 C 0.40622 0.02143 0.3602 0.0
C247 C 0.43135 0.01672 0.33938 0.0
H248 H 0.06299 0.58709 0.68726 0.0
H249 H 0.96972 0.60965 0.721 0.0
H250 H 0.0577 0.62492 0.64584 0.0
H251 H 0.96467 0.64781 0.6801 0.0
H252 H 0.95418 0.69262 0.58427 0.0
H253 H 0.95885 0.65233 0.62356 0.0
H254 H 0.05591 0.68085 0.63999 0.0
H255 H 0.05145 0.72038 0.60059 0.0
C256 C 0.04145 0.60023 0.68595 0.0
C257 C 0.01685 0.59542 0.7075 0.0
C258 C 0.03842 0.62199 0.66226 0.0
C259 C 0.01072 0.63944 0.65958 0.0
C260 C 0.98612 0.6345 0.68113 0.0
C261 C 0.98916 0.61278 0.70479 0.0
C262 C 0.9765 0.69016 0.59623 0.0
C263 C 1.0024 0.70972 0.58928 0.0
C264 C 0.97916 0.66719 0.61886 0.0
C265 C 0.0078 0.66328 0.63495 0.0
C266 C 0.03366 0.68281 0.62777 0.0
C267 C 0.031 0.70568 0.60527 0.0
H268 H 0.45088 0.98318 0.70883 0.0
H269 H 0.46555 0.07528 0.67165 0.0
H270 H 0.4089 0.97251 0.67031 0.0
H271 H 0.42356 0.06458 0.63339 0.0
H272 H 0.32594 0.04539 0.59024 0.0
H273 H 0.36441 0.05494 0.63227 0.0
H274 H 0.40612 0.96532 0.61054 0.0
H275 H 0.36773 0.95567 0.56832 0.0
C276 C 0.445 1.00124 0.69265 0.0
C277 C 0.46163 0.03009 0.69332 0.0
C278 C 0.42109 0.99503 0.67049 0.0
C279 C 0.41296 0.0177 0.64885 0.0
C280 C 0.42912 0.04675 0.64995 0.0
C281 C 0.4533 0.0528 0.67177 0.0
C282 C 0.3431 0.02754 0.59456 0.0
C283 C 0.34376 0.99977 0.5758 0.0
C284 C 0.36524 0.03314 0.61853 0.0
C285 C 0.38833 0.01094 0.62461 0.0
C286 C 0.38846 0.98277 0.60653 0.0
C287 C 0.36656 0.97733 0.58225 0.0
H288 H 0.00841 0.36178 0.5539 0.0
H289 H 0.02165 0.30581 0.63539 0.0
H290 H 1.00362 0.40888 0.5886 0.0
H291 H 0.01733 0.35217 0.6695 0.0
H292 H 0.97134 0.42329 0.72656 0.0
H293 H 0.97093 0.3846 0.6831 0.0
H294 H 0.03352 0.44408 0.63031 0.0
H295 H 0.03298 0.48344 0.67385 0.0
C296 C 0.01104 0.35969 0.57907 0.0
C297 C 0.015 0.33014 0.59204 0.0
C298 C 0.00808 0.38652 0.59888 0.0
C299 C 0.00904 0.38397 0.63177 0.0
C300 C 0.01533 0.35473 0.64431 0.0
C301 C 0.01813 0.32819 0.62475 0.0
C302 C 0.98384 0.42865 0.7051 0.0
C303 C 1.00205 0.45622 0.70334 0.0
C304 C 0.984 0.4064 0.6804 0.0
C305 C 1.00296 0.41097 0.65372 0.0
C306 C 0.0188 0.43992 0.65063 0.0
C307 C 0.01833 0.46248 0.67539 0.0
H308 H 0.59077 0.06128 0.71785 0.0
H309 H 0.57961 0.9632 0.69096 0.0
H310 H 0.62405 0.06937 0.67229 0.0
H311 H 0.61354 0.97145 0.64496 0.0
H312 H 0.70603 0.99681 0.58981 0.0
H313 H 0.67096 0.98638 0.63391 0.0
H314 H 0.61798 0.06869 0.6137 0.0
H315 H 0.653 0.07927 0.56953 0.0
C316 C 0.59536 0.04137 0.70216 0.0
C317 C 0.5824 0.01157 0.70799 0.0
C318 C 0.61435 0.04612 0.67592 0.0
C319 C 0.62122 0.02114 0.65493 0.0
C320 C 0.60868 0.99113 0.66085 0.0
C321 C 0.58924 0.98642 0.68708 0.0
C322 C 0.68698 0.0128 0.59478 0.0
C323 C 0.68253 0.03909 0.57623 0.0
C324 C 0.66671 0.00659 0.61988 0.0
C325 C 0.64174 0.02669 0.62725 0.0
C326 C 0.63721 0.05291 0.60871 0.0
C327 C 0.65725 0.05895 0.5834 0.0
H328 H 0.42154 0.31942 0.98878 0.0
H329 H 0.44723 0.35474 0.08182 0.0
H330 H 0.38505 0.36192 0.98352 0.0
H331 H 0.4108 0.39818 0.07626 0.0
H332 H 0.3421 0.45631 0.97018 0.0
H333 H 0.38285 0.41734 0.97683 0.0
H334 H 0.35478 0.40787 0.07381 0.0
H335 H 0.31476 0.44725 0.06737 0.0
C336 C 0.41955 0.33644 0.00812 0.0
C337 C 0.43731 0.33366 0.03578 0.0
C338 C 0.39875 0.36104 0.00495 0.0
C339 C 0.3951 0.3837 0.02932 0.0
C340 C 0.41285 0.38098 0.0571 0.0
C341 C 0.43377 0.35618 0.0603 0.0
C342 C 0.3448 0.44604 0.99294 0.0
C343 C 0.32508 0.45477 0.01816 0.0
C344 C 0.36805 0.42359 0.99676 0.0
C345 C 0.37204 0.40931 0.02586 0.0
C346 C 0.3527 0.41861 0.05121 0.0
C347 C 0.32954 0.44105 0.04741 0.0
H348 H 0.30865 0.61742 0.96221 0.0
H349 H 0.34209 0.57175 0.0447 0.0
H350 H 0.35662 0.64894 0.96086 0.0
H351 H 0.39078 0.6038 0.04322 0.0
H352 H 0.44247 0.70265 0.05228 0.0
H353 H 0.40256 0.66116 0.05228 0.0
H354 H 0.41445 0.64648 0.95203 0.0
H355 H 0.45476 0.68843 0.95198 0.0
C356 C 0.32629 0.61403 0.98012 0.0
C357 C 0.32125 0.59233 0.00391 0.0
C358 C 0.35406 0.63188 0.97902 0.0
C359 C 0.37756 0.62878 1.0018 0.0
C360 C 0.37297 0.60672 0.02537 0.0
C361 C 0.34515 0.58842 0.02625 0.0
C362 C 0.43698 0.69035 0.03023 0.0
C363 C 0.45155 0.69906 1.00201 0.0
C364 C 0.41424 0.66632 0.03034 0.0
C365 C 0.40527 0.6506 1.00219 0.0
C366 C 0.42074 0.65841 0.97409 0.0
C367 C 0.44381 0.68234 0.97402 0.0
H368 H 0.54579 0.38658 0.98043 0.0
H369 H 0.58172 0.32339 0.04863 0.0
H370 H 0.5926 0.42016 0.98789 0.0
H371 H 0.62812 0.35716 0.05626 0.0
H372 H 0.72329 0.39889 0.02207 0.0
H373 H 0.67392 0.36923 0.02354 0.0
H374 H 0.62214 0.45546 0.02615 0.0
H375 H 0.672 0.48544 0.0244 0.0
C376 C 0.56349 0.37994 0.99718 0.0
C377 C 0.56008 0.35202 0.01362 0.0
C378 C 0.59019 0.39937 1.00166 0.0
C379 C 0.61413 0.39128 0.02259 0.0
C380 C 0.61028 0.36386 0.03968 0.0
C381 C 0.58361 0.34451 0.03529 0.0
C382 C 0.70143 0.41162 0.02343 0.0
C383 C 0.70157 0.44453 0.02299 0.0
C384 C 0.67308 0.39458 0.02444 0.0
C385 C 0.64407 0.40996 0.02482 0.0
C386 C 0.64414 0.44295 0.02557 0.0
C387 C 0.67266 0.46011 0.02489 0.0
H388 H 0.67223 0.55906 0.97538 0.0
H389 H 0.72073 0.61219 0.04944 0.0
H390 H 0.62807 0.5954 0.97925 0.0
H391 H 0.67704 0.64887 0.0526 0.0
H392 H 0.60437 0.72351 0.01966 0.0
H393 H 0.64926 0.68855 0.0123 0.0
H394 H 0.58831 0.60866 0.0283 0.0
H395 H 0.54362 0.64347 0.03651 0.0
C396 C 0.6736 0.57869 0.99217 0.0
C397 C 0.69982 0.58279 0.01217 0.0
C398 C 0.64836 0.59935 0.99444 0.0
C399 C 0.64929 0.62487 0.01619 0.0
C400 C 0.67589 0.62946 0.03554 0.0
C401 C 0.70075 0.60841 0.0338 0.0
C402 C 0.60057 0.69848 0.02156 0.0
C403 C 0.57054 0.68622 0.02886 0.0
C404 C 0.62622 0.67856 0.01741 0.0
C405 C 0.6221 0.64599 0.01965 0.0
C406 C 0.59199 0.63368 0.02627 0.0
C407 C 0.56653 0.65362 0.03117 0.0
H408 H 0.56229 0.82269 0.93838 0.0
H409 H 0.465 0.8447 0.95774 0.0
H410 H 0.56492 0.86362 0.89993 0.0
H411 H 0.46782 0.88627 0.9197 0.0
H412 H 0.47382 0.93177 0.82369 0.0
H413 H 0.47135 0.89244 0.86373 0.0
H414 H 0.56532 0.91966 0.89453 0.0
H415 H 0.56804 0.95867 0.85381 0.0
C416 C 0.54149 0.83643 0.93459 0.0
C417 C 0.51338 0.83035 0.95107 0.0
C418 C 0.54308 0.86009 0.91266 0.0
C419 C 0.5166 0.87833 0.90665 0.0
C420 C 0.48855 0.87242 0.9234 0.0
C421 C 0.48696 0.84869 0.94534 0.0
C422 C 0.49399 0.92942 0.839 0.0
C423 C 0.52119 0.94833 0.83548 0.0
C424 C 0.49246 0.90698 0.86216 0.0
C425 C 0.51809 0.90285 0.88248 0.0
C426 C 0.54527 0.92191 0.87906 0.0
C427 C 0.5468 0.94439 0.85581 0.0
H428 H 0.15873 0.49958 0.98146 0.0
H429 H 0.23046 0.5052 0.90985 0.0
H430 H 0.11778 0.50744 0.94143 0.0
H431 H 0.19001 0.51239 0.87002 0.0
H432 H 0.10645 0.49037 0.80464 0.0
H433 H 0.14343 0.47973 0.84645 0.0
H434 H 0.10476 0.55512 0.90365 0.0
H435 H 0.06743 0.56616 0.8612 0.0
C436 C 0.16553 0.5015 0.95702 0.0
C437 C 0.19748 0.50101 0.94837 0.0
C438 C 0.14229 0.50649 0.93431 0.0
C439 C 0.15081 0.51057 0.90269 0.0
C440 C 0.18276 0.50907 0.89414 0.0
C441 C 0.20586 0.50473 0.91682 0.0
C442 C 0.10578 0.5048 0.82608 0.0
C443 C 0.08419 0.52927 0.82957 0.0
C444 C 0.12696 0.49863 0.85001 0.0
C445 C 0.12687 0.51649 0.87828 0.0
C446 C 0.10507 0.54082 0.88213 0.0
C447 C 0.08402 0.54736 0.85779 0.0
H448 H 0.52925 0.05892 0.86732 0.0
H449 H 0.48219 0.12464 0.80944 0.0
H450 H 0.52943 0.09767 0.91154 0.0
H451 H 0.48144 0.16269 0.85329 0.0
H452 H 0.52718 0.23783 0.91128 0.0
H453 H 0.52687 0.1927 0.87495 0.0
H454 H 0.4979 0.13288 0.95004 0.0
H455 H 0.49902 0.17857 0.98698 0.0
C456 C 0.51783 0.08115 0.86452 0.0
C457 C 0.50578 0.08899 0.83509 0.0
C458 C 0.51813 0.10336 0.88968 0.0
C459 C 0.50631 0.13354 0.88555 0.0
C460 C 0.4916 0.14 0.85692 0.0
C461 C 0.49163 0.11811 0.83192 0.0
C462 C 0.52143 0.21495 0.92022 0.0
C463 C 0.51289 0.2117 0.95181 0.0
C464 C 0.52089 0.18913 0.89936 0.0
C465 C 0.51131 0.15941 0.90942 0.0
C466 C 0.5051 0.15556 0.94159 0.0
C467 C 0.50593 0.18161 0.96272 0.0
H468 H 0.9453 0.55081 0.82886 0.0
H469 H 0.97121 0.46595 0.87434 0.0
H470 H 0.90141 0.55729 0.86552 0.0
H471 H 0.92748 0.47269 0.91104 0.0
H472 H 0.82396 0.47417 0.94258 0.0
H473 H 0.86928 0.46965 0.90775 0.0
H474 H 0.89019 0.5684 0.92268 0.0
H475 H 0.84443 0.57301 0.95772 0.0
C476 C 0.94172 0.53356 0.84668 0.0
C477 C 0.96173 0.50772 0.84847 0.0
C478 C 0.91669 0.53745 0.86783 0.0
C479 C 0.91094 0.51547 0.89111 0.0
C480 C 0.9311 0.48984 0.89312 0.0
C481 C 0.95625 0.48605 0.87214 0.0
C482 C 0.83821 0.49496 0.93855 0.0
C483 C 0.83063 0.52396 0.95296 0.0
C484 C 0.86432 0.4923 0.9187 0.0
C485 C 0.88341 0.51862 0.91257 0.0
C486 C 0.87578 0.54774 0.92682 0.0
C487 C 0.8497 0.55036 0.94696 0.0
H488 H 0.46801 0.10265 0.22004 0.0
H489 H 0.56341 0.08389 0.1901 0.0
H490 H 0.46374 0.142 0.18032 0.0
H491 H 0.55891 0.12303 0.14971 0.0
H492 H 0.45542 0.18922 0.08608 0.0
H493 H 0.46013 0.14783 0.12407 0.0
H494 H 0.55549 0.17923 0.14512 0.0
H495 H 0.55099 0.21999 0.10686 0.0
C496 C 0.48807 0.10682 0.20485 0.0
C497 C 0.51611 0.09015 0.20829 0.0
C498 C 0.48551 0.12926 0.18187 0.0
C499 C 0.5109 0.13566 0.16168 0.0
C500 C 0.53898 0.11893 0.16508 0.0
C501 C 0.54155 0.09641 0.18813 0.0
C502 C 0.47737 0.18721 0.09879 0.0
C503 C 0.50277 0.20794 0.09347 0.0
C504 C 0.48007 0.16358 0.12067 0.0
C505 C 0.50823 0.16016 0.1377 0.0
C506 C 0.53364 0.18084 0.13215 0.0
C507 C 0.53094 0.2044 0.11034 0.0
H508 H 0.96567 0.57683 0.17039 0.0
H509 H 0.94737 0.48595 0.2091 0.0
H510 H 0.9235 0.56701 0.13211 0.0
H511 H 0.90522 0.47624 0.1707 0.0
H512 H 0.86605 0.45711 0.0692 0.0
H513 H 0.90365 0.46745 0.11181 0.0
H514 H 0.86433 0.55903 0.12872 0.0
H515 H 0.82653 0.54877 0.08605 0.0
C516 C 0.95253 0.55486 0.17091 0.0
C517 C 0.96003 0.53214 0.19279 0.0
C518 C 0.92823 0.54933 0.14907 0.0
C519 C 0.91111 0.52082 0.14834 0.0
C520 C 0.91819 0.49833 0.17054 0.0
C521 C 0.94224 0.50399 0.19264 0.0
C522 C 0.86524 0.4794 0.08209 0.0
C523 C 0.84328 0.50214 0.07411 0.0
C524 C 0.88668 0.48523 0.10664 0.0
C525 C 0.88696 0.51406 0.12359 0.0
C526 C 0.86481 0.53668 0.11592 0.0
C527 C 0.84306 0.53071 0.09159 0.0
H528 H 0.52539 0.79873 0.13545 0.0
H529 H 0.50939 0.85714 0.0563 0.0
H530 H 0.52178 0.84407 0.17108 0.0
H531 H 0.50503 0.90308 0.09248 0.0
H532 H 0.53169 0.97756 0.17677 0.0
H533 H 0.53336 0.9383 0.13319 0.0
H534 H 0.47662 0.87504 0.1879 0.0
H535 H 0.47613 0.91359 0.23141 0.0
C536 C 0.52147 0.82144 0.12566 0.0
C537 C 0.51737 0.82438 0.09318 0.0
C538 C 0.51903 0.84739 0.1461 0.0
C539 C 0.51202 0.87697 0.13468 0.0
C540 C 0.51012 0.88049 0.10196 0.0
C541 C 0.51282 0.85431 0.08128 0.0
C542 C 0.5187 0.95563 0.17884 0.0
C543 C 0.50385 0.94836 0.20729 0.0
C544 C 0.5198 0.93314 0.15404 0.0
C545 C 0.50593 0.90327 0.15753 0.0
C546 C 0.48839 0.89748 0.18489 0.0
C547 C 0.4877 0.91964 0.20964 0.0
H548 H 0.20281 0.49402 0.08452 0.0
H549 H 0.14991 0.57595 0.06216 0.0
H550 H 0.1676 0.48452 0.12865 0.0
H551 H 0.11471 0.56635 0.10657 0.0
H552 H 0.08814 0.55998 0.21186 0.0
H553 H 0.12062 0.56785 0.16562 0.0
H554 H 0.11011 0.46968 0.13931 0.0
H555 H 0.07698 0.46171 0.18588 0.0
C556 C 0.18374 0.5101 0.08904 0.0
C557 C 0.17935 0.53594 0.06987 0.0
C558 C 0.16338 0.50441 0.11418 0.0
C559 C 0.13837 0.52462 0.12102 0.0
C560 C 0.13392 0.55046 0.10193 0.0
C561 C 0.15405 0.55594 0.07649 0.0
C562 C 0.09252 0.54 0.19622 0.0
C563 C 0.07988 0.51018 0.20254 0.0
C564 C 0.11104 0.54462 0.16959 0.0
C565 C 0.11778 0.51946 0.14875 0.0
C566 C 0.10536 0.4895 0.15507 0.0
C567 C 0.08637 0.48494 0.18163 0.0
H568 H 0.82039 0.93832 0.46891 0.0
H569 H 0.8354 0.96935 0.56534 0.0
H570 H 0.85947 0.89787 0.4747 0.0
H571 H 0.87636 0.9308 0.57077 0.0
H572 H 0.92684 0.83821 0.58166 0.0
H573 H 0.88815 0.87952 0.57697 0.0
H574 H 0.91078 0.88548 0.47802 0.0
H575 H 0.94673 0.84281 0.48243 0.0
C576 C 0.83263 0.93685 0.49115 0.0
C577 C 0.82488 0.95685 0.51665 0.0
C578 C 0.8553 0.91376 0.49456 0.0
C579 C 0.87152 0.91077 0.5233 0.0
C580 C 0.86412 0.93158 0.54851 0.0
C581 C 0.8408 0.954 0.54533 0.0
C582 C 0.92343 0.84854 0.55902 0.0
C583 C 0.93972 0.83712 0.53244 0.0
C584 C 0.90136 0.87242 0.55624 0.0
C585 C 0.89577 0.88599 0.52693 0.0
C586 C 0.9133 0.87521 0.50078 0.0
C587 C 0.93446 0.85082 0.50339 0.0
H588 H 0.9481 0.20183 0.55452 0.0
H589 H 0.95846 0.18808 0.45396 0.0
H590 H 0.90883 0.15976 0.55522 0.0
H591 H 0.91879 0.14558 0.4547 0.0
H592 H 0.81245 0.11929 0.46713 0.0
H593 H 0.86122 0.14931 0.46484 0.0
H594 H 0.89604 0.10231 0.54582 0.0
H595 H 0.8464 0.07169 0.54825 0.0
C596 C 0.94239 0.18945 0.53257 0.0
C597 C 0.95609 0.19855 0.50407 0.0
C598 C 0.92004 0.16509 0.53308 0.0
C599 C 0.9106 0.14945 0.50504 0.0
C600 C 0.92548 0.15743 0.47668 0.0
C601 C 0.94818 0.18168 0.47622 0.0
C602 C 0.83042 0.11511 0.48451 0.0
C603 C 0.82527 0.09339 0.50825 0.0
C604 C 0.85865 0.13209 0.48285 0.0
C605 C 0.88257 0.12809 0.50499 0.0
C606 C 0.87791 0.10588 0.52843 0.0
C607 C 0.84957 0.08841 0.52986 0.0
H608 H 0.09384 0.81445 0.51086 0.0
H609 H 0.03478 0.89548 0.50895 0.0
H610 H 0.14018 0.84813 0.51764 0.0
H611 H 0.0807 0.92961 0.51859 0.0
H612 H 0.17289 0.9834 0.49974 0.0
H613 H 0.12438 0.95207 0.49801 0.0
H614 H 0.17086 0.87957 0.54861 0.0
H615 H 0.21992 0.91001 0.54735 0.0
C616 C 0.09083 0.8396 0.51247 0.0
C617 C 0.06086 0.85241 0.50917 0.0
C618 C 0.11741 0.85908 0.51677 0.0
C619 C 0.11462 0.89197 0.51897 0.0
C620 C 0.08425 0.90461 0.51636 0.0
C621 C 0.05778 0.88507 0.51103 0.0
C622 C 0.17238 0.96093 0.51088 0.0
C623 C 0.19997 0.94899 0.52364 0.0
C624 C 0.14449 0.94286 0.51003 0.0
C625 C 0.14338 0.91273 0.52272 0.0
C626 C 0.17075 0.90198 0.53748 0.0
C627 C 0.19885 0.91961 0.53732 0.0
H628 H 0.0654 0.16629 0.57795 0.0
H629 H 0.09301 0.21417 0.494 0.0
H630 H 0.11007 0.13173 0.57134 0.0
H631 H 0.138 0.17945 0.48756 0.0
H632 H 0.19067 0.08466 0.46982 0.0
H633 H 0.14785 0.12224 0.4751 0.0
H634 H 0.16836 0.13494 0.5742 0.0
H635 H 0.2108 0.09749 0.56905 0.0
C636 C 0.08108 0.16959 0.55815 0.0
C637 C 0.0756 0.19311 0.53655 0.0
C638 C 0.1068 0.14983 0.55446 0.0
C639 C 0.1276 0.15289 0.52896 0.0
C640 C 0.12224 0.17639 0.50732 0.0
C641 C 0.0966 0.19642 0.51117 0.0
C642 C 0.1861 0.09562 0.49267 0.0
C643 C 0.20402 0.08798 0.51903 0.0
C644 C 0.16171 0.11724 0.49566 0.0
C645 C 0.15463 0.13141 0.52511 0.0
C646 C 0.17295 0.12411 0.55129 0.0
C647 C 0.19738 0.10273 0.54828 0.0
loop_
_geom_bond_atom_site_label_1
_geom_bond_atom_site_label_2
_geom_bond_distance
_geom_bond_site_symmetry_2
_ccdc_geom_bond_type
Co0 O1 2.216 1_455 S
Co0 O2 2.091 . S
Co0 O4 2.004 . S
Co0 O10 2.021 . S
Co0 O12 2.137 1_455 S
Co0 O13 2.244 1_455 S
O1 Co0 2.216 1_655 S
O1 C8 1.247 . S
O2 Co0 2.091 . S
O2 C8 1.261 1_455 S
C3 O12 1.247 . S
C3 O13 1.272 . S
O4 Co0 2.004 . S
O4 C9 1.259 . S
Co5 O6 2.061 1_655 S
Co5 O11 2.052 . S
Co5 O13 2.135 . S
O6 Co5 2.061 1_455 S
O6 C9 1.235 . S
C7 O10 1.238 . S
C7 O11 1.241 1_455 S
C8 O1 1.247 . S
C8 O2 1.261 1_655 S
C9 O4 1.259 . S
C9 O6 1.235 . S
O10 Co0 2.021 . S
O10 C7 1.238 . S
O11 Co5 2.052 . S
O11 C7 1.241 1_655 S
O12 Co0 2.137 1_655 S
O12 C3 1.247 . S
O13 Co0 2.244 1_655 S
O13 C3 1.272 . S
O13 Co5 2.135 . S
Co14 O15 2.207 1_545 S
Co14 O16 2.068 1_545 S
Co14 O18 2.006 . S
Co14 O24 2.040 . S
Co14 O26 2.125 1_545 S
Co14 O27 2.259 . S
O15 Co14 2.207 1_565 S
O15 C22 1.247 . S
O16 Co14 2.068 1_565 S
O16 C22 1.261 . S
C17 O26 1.247 1_545 S
C17 O27 1.272 . S
O18 Co14 2.006 . S
O18 C23 1.259 . S
Co19 O20 2.061 . S
Co19 O25 2.052 . S
Co19 O27 2.135 . S
O20 Co19 2.061 . S
O20 C23 1.235 . S
C21 O24 1.238 . S
C21 O25 1.241 . S
C22 O15 1.247 . S
C22 O16 1.261 . S
C23 O18 1.259 . S
C23 O20 1.235 . S
O24 Co14 2.040 . S
O24 C21 1.238 . S
O25 Co19 2.052 . S
O25 C21 1.241 . S
O26 Co14 2.125 1_565 S
O26 C17 1.247 1_565 S
O27 Co14 2.259 . S
O27 C17 1.272 . S
O27 Co19 2.135 . S
Co28 O29 2.216 1_455 S
Co28 O30 2.091 . S
Co28 O32 2.004 . S
Co28 O38 2.021 . S
Co28 O40 2.137 1_455 S
Co28 O41 2.244 1_455 S
O29 Co28 2.216 1_655 S
O29 C36 1.247 1_655 S
O30 Co28 2.091 . S
O30 C36 1.261 . S
C31 O40 1.247 . S
C31 O41 1.272 . S
O32 Co28 2.004 . S
O32 C37 1.259 . S
Co33 O34 2.063 1_655 S
Co33 O39 2.052 1_655 S
Co33 O41 2.134 . S
O34 Co33 2.063 1_455 S
O34 C37 1.235 . S
C35 O38 1.238 . S
C35 O39 1.241 . S
C36 O29 1.247 1_455 S
C36 O30 1.261 . S
C37 O32 1.259 . S
C37 O34 1.235 . S
O38 Co28 2.021 . S
O38 C35 1.238 . S
O39 Co33 2.052 1_455 S
O39 C35 1.241 . S
O40 Co28 2.137 1_655 S
O40 C31 1.247 . S
O41 Co28 2.244 1_655 S
O41 C31 1.272 . S
O41 Co33 2.134 . S
Co42 O43 2.216 . S
Co42 O44 2.091 . S
Co42 O46 2.004 . S
Co42 O52 2.021 1_545 S
Co42 O54 2.137 . S
Co42 O55 2.244 . S
O43 Co42 2.216 . S
O43 C50 1.247 . S
O44 Co42 2.091 . S
O44 C50 1.261 . S
C45 O54 1.247 . S
C45 O55 1.272 . S
O46 Co42 2.004 . S
O46 C51 1.259 . S
Co47 O48 2.061 . S
Co47 O53 2.052 . S
Co47 O55 2.135 1_565 S
O48 Co47 2.061 . S
O48 C51 1.235 1_565 S
C49 O52 1.238 . S
C49 O53 1.241 . S
C50 O43 1.247 . S
C50 O44 1.261 . S
C51 O46 1.259 . S
C51 O48 1.235 1_545 S
O52 Co42 2.021 1_565 S
O52 C49 1.238 . S
O53 Co47 2.052 . S
O53 C49 1.241 . S
O54 Co42 2.137 . S
O54 C45 1.247 . S
O55 Co42 2.244 . S
O55 C45 1.272 . S
O55 Co47 2.135 1_545 S
Co56 O57 2.216 . S
Co56 O58 2.091 . S
Co56 O60 2.004 . S
Co56 O66 2.021 1_545 S
Co56 O68 2.137 . S
Co56 O69 2.244 1_545 S
O57 Co56 2.216 . S
O57 C64 1.247 . S
O58 Co56 2.091 . S
O58 C64 1.261 . S
C59 O68 1.247 . S
C59 O69 1.272 1_545 S
O60 Co56 2.004 . S
O60 C65 1.262 1_545 S
Co61 O62 2.061 . S
Co61 O67 2.052 . S
Co61 O69 2.135 . S
O62 Co61 2.061 . S
O62 C65 1.232 . S
C63 O66 1.238 . S
C63 O67 1.241 . S
C64 O57 1.247 . S
C64 O58 1.261 . S
C65 O60 1.262 1_565 S
C65 O62 1.232 . S
O66 Co56 2.021 1_565 S
O66 C63 1.238 . S
O67 Co61 2.052 . S
O67 C63 1.241 . S
O68 Co56 2.137 . S
O68 C59 1.247 . S
O69 Co56 2.244 1_565 S
O69 C59 1.272 1_565 S
O69 Co61 2.135 . S
Co70 O71 2.216 . S
Co70 O72 2.091 1_455 S
Co70 O74 2.004 1_455 S
Co70 O80 2.021 1_455 S
Co70 O82 2.137 . S
Co70 O83 2.244 . S
O71 Co70 2.216 . S
O71 C78 1.247 . S
O72 Co70 2.091 1_655 S
O72 C78 1.261 1_655 S
C73 O82 1.247 . S
C73 O83 1.272 . S
O74 Co70 2.004 1_655 S
O74 C79 1.259 . S
Co75 O76 2.061 1_455 S
Co75 O81 2.052 . S
Co75 O83 2.135 . S
O76 Co75 2.061 1_655 S
O76 C79 1.235 . S
C77 O80 1.238 1_455 S
C77 O81 1.241 . S
C78 O71 1.247 . S
C78 O72 1.261 1_455 S
C79 O74 1.259 . S
C79 O76 1.235 . S
O80 Co70 2.021 1_655 S
O80 C77 1.238 1_655 S
O81 Co75 2.052 . S
O81 C77 1.241 . S
O82 Co70 2.137 . S
O82 C73 1.247 . S
O83 Co70 2.244 . S
O83 C73 1.272 . S
O83 Co75 2.135 . S
Co84 O85 2.216 1_545 S
Co84 O86 2.091 1_545 S
Co84 O88 2.004 . S
Co84 O94 2.021 . S
Co84 O96 2.137 1_545 S
Co84 O97 2.244 . S
O85 Co84 2.216 1_565 S
O85 C92 1.247 . S
O86 Co84 2.091 1_565 S
O86 C92 1.261 . S
C87 O96 1.247 1_545 S
C87 O97 1.272 . S
O88 Co84 2.004 . S
O88 C93 1.259 . S
Co89 O90 2.061 . S
Co89 O95 2.052 . S
Co89 O97 2.135 . S
O90 Co89 2.061 . S
O90 C93 1.235 . S
C91 O94 1.238 . S
C91 O95 1.241 . S
C92 O85 1.247 . S
C92 O86 1.261 . S
C93 O88 1.259 . S
C93 O90 1.235 . S
O94 Co84 2.021 . S
O94 C91 1.238 . S
O95 Co89 2.052 . S
O95 C91 1.241 . S
O96 Co84 2.137 1_565 S
O96 C87 1.247 1_565 S
O97 Co84 2.244 . S
O97 C87 1.272 . S
O97 Co89 2.135 . S
Co98 O99 2.216 . S
Co98 O100 2.091 1_455 S
Co98 O102 2.004 1_455 S
Co98 O108 2.021 1_455 S
Co98 O110 2.137 . S
Co98 O111 2.244 . S
O99 Co98 2.216 . S
O99 C106 1.247 . S
O100 Co98 2.091 1_655 S
O100 C106 1.261 1_655 S
C101 O110 1.247 . S
C101 O111 1.272 . S
O102 Co98 2.004 1_655 S
O102 C107 1.259 . S
Co103 O104 2.061 1_455 S
Co103 O109 2.052 . S
Co103 O111 2.135 . S
O104 Co103 2.061 1_655 S
O104 C107 1.235 . S
C105 O108 1.239 1_455 S
C105 O109 1.239 . S
C106 O99 1.247 . S
C106 O100 1.261 1_455 S
C107 O102 1.259 . S
C107 O104 1.235 . S
O108 Co98 2.021 1_655 S
O108 C105 1.239 1_655 S
O109 Co103 2.052 . S
O109 C105 1.239 . S
O110 Co98 2.137 . S
O110 C101 1.247 . S
O111 Co98 2.244 . S
O111 C101 1.272 . S
O111 Co103 2.135 . S
Co112 O113 2.216 1_554 S
Co112 O114 2.091 . S
Co112 O116 2.004 . S
Co112 O122 2.021 . S
Co112 O124 2.137 1_554 S
Co112 O125 2.244 1_554 S
O113 Co112 2.216 1_556 S
O113 C120 1.247 1_556 S
O114 Co112 2.091 . S
O114 C120 1.261 . S
C115 O124 1.247 . S
C115 O125 1.272 . S
O116 Co112 2.004 . S
O116 C121 1.259 . S
Co117 O118 2.061 . S
Co117 O123 2.052 . S
Co117 O125 2.135 1_554 S
O118 Co117 2.061 . S
O118 C121 1.235 . S
C119 O122 1.238 . S
C119 O123 1.241 . S
C120 O113 1.247 1_554 S
C120 O114 1.261 . S
C121 O116 1.259 . S
C121 O118 1.235 . S
O122 Co112 2.021 . S
O122 C119 1.238 . S
O123 Co117 2.052 . S
O123 C119 1.241 . S
O124 Co112 2.137 1_556 S
O124 C115 1.247 . S
O125 Co112 2.244 1_556 S
O125 C115 1.272 . S
O125 Co117 2.135 1_556 S
Co126 O127 2.216 . S
Co126 O128 2.091 . S
Co126 O130 2.004 . S
Co126 O136 2.021 1_554 S
Co126 O138 2.137 . S
Co126 O139 2.244 1_554 S
O127 Co126 2.216 . S
O127 C134 1.247 . S
O128 Co126 2.091 . S
O128 C134 1.261 . S
C129 O138 1.247 . S
C129 O139 1.272 1_554 S
O130 Co126 2.004 . S
O130 C135 1.259 1_554 S
Co131 O132 2.061 . S
Co131 O137 2.052 . S
Co131 O139 2.135 . S
O132 Co131 2.061 . S
O132 C135 1.235 . S
C133 O136 1.238 . S
C133 O137 1.241 . S
C134 O127 1.247 . S
C134 O128 1.261 . S
C135 O130 1.259 1_556 S
C135 O132 1.235 . S
O136 Co126 2.021 1_556 S
O136 C133 1.238 . S
O137 Co131 2.052 . S
O137 C133 1.241 . S
O138 Co126 2.137 . S
O138 C129 1.247 . S
O139 Co126 2.244 1_556 S
O139 C129 1.272 1_556 S
O139 Co131 2.135 . S
Co140 O141 2.216 1_554 S
Co140 O142 2.091 . S
Co140 O144 2.004 . S
Co140 O150 2.021 . S
Co140 O152 2.137 1_554 S
Co140 O153 2.244 1_554 S
O141 Co140 2.216 1_556 S
O141 C148 1.247 1_556 S
O142 Co140 2.091 . S
O142 C148 1.261 . S
C143 O152 1.247 . S
C143 O153 1.272 . S
O144 Co140 2.004 . S
O144 C149 1.259 . S
Co145 O146 2.060 1_556 S
Co145 O151 2.052 1_556 S
Co145 O153 2.135 . S
O146 Co145 2.060 1_554 S
O146 C149 1.235 . S
C147 O150 1.238 . S
C147 O151 1.241 . S
C148 O141 1.247 1_554 S
C148 O142 1.261 . S
C149 O144 1.259 . S
C149 O146 1.235 . S
O150 Co140 2.021 . S
O150 C147 1.238 . S
O151 Co145 2.052 1_554 S
O151 C147 1.241 . S
O152 Co140 2.137 1_556 S
O152 C143 1.247 . S
O153 Co140 2.244 1_556 S
O153 C143 1.272 . S
O153 Co145 2.135 . S
Co154 O155 2.216 1_554 S
Co154 O156 2.091 1_554 S
Co154 O158 2.004 . S
Co154 O164 2.021 . S
Co154 O166 2.137 1_554 S
Co154 O167 2.244 . S
O155 Co154 2.216 1_556 S
O155 C162 1.247 . S
O156 Co154 2.091 1_556 S
O156 C162 1.261 . S
C157 O166 1.247 1_554 S
C157 O167 1.272 . S
O158 Co154 2.004 . S
O158 C163 1.259 . S
Co159 O160 2.061 . S
Co159 O165 2.052 . S
Co159 O167 2.135 . S
O160 Co159 2.061 . S
O160 C163 1.235 . S
C161 O164 1.238 . S
C161 O165 1.241 . S
C162 O155 1.247 . S
C162 O156 1.261 . S
C163 O158 1.259 . S
C163 O160 1.235 . S
O164 Co154 2.021 . S
O164 C161 1.238 . S
O165 Co159 2.052 . S
O165 C161 1.241 . S
O166 Co154 2.137 1_556 S
O166 C157 1.247 1_556 S
O167 Co154 2.244 . S
O167 C157 1.272 . S
O167 Co159 2.135 . S
H168 C176 0.950 . S
H169 C181 0.950 . S
H170 C178 0.950 . S
H171 C180 0.950 . S
H172 C182 0.951 . S
H173 C184 0.950 . S
H174 C186 0.950 . S
H175 C187 0.950 . S
C176 H168 0.950 . S
C176 C177 1.386 1_455 S
C176 C178 1.391 . S
C177 C176 1.386 1_655 S
C177 C181 1.393 . S
C178 H170 0.950 . S
C178 C176 1.391 . S
C178 C179 1.400 . S
C179 C178 1.400 . S
C179 C180 1.398 1_455 S
C179 C185 1.491 . S
C180 H171 0.950 . S
C180 C179 1.398 1_655 S
C180 C181 1.391 . S
C181 H169 0.950 . S
C181 C177 1.393 . S
C181 C180 1.391 . S
C182 H172 0.951 . S
C182 C183 1.383 1_655 S
C182 C184 1.392 . S
C183 C182 1.383 1_455 S
C183 C187 1.393 . S
C184 H173 0.950 . S
C184 C182 1.392 . S
C184 C185 1.400 1_655 S
C185 C179 1.491 . S
C185 C184 1.400 1_455 S
C185 C186 1.398 . S
C186 H174 0.950 . S
C186 C185 1.398 . S
C186 C187 1.391 . S
C187 H175 0.950 . S
C187 C183 1.393 . S
C187 C186 1.391 . S
H188 C196 0.950 . S
H189 C201 0.950 . S
H190 C198 0.950 . S
H191 C200 0.950 . S
H192 C202 0.950 . S
H193 C204 0.950 . S
H194 C206 0.950 . S
H195 C207 0.950 . S
C196 H188 0.950 . S
C196 C197 1.386 . S
C196 C198 1.391 . S
C197 C196 1.386 . S
C197 C201 1.393 1_545 S
C198 H190 0.950 . S
C198 C196 1.391 . S
C198 C199 1.400 . S
C199 C198 1.400 . S
C199 C200 1.398 1_545 S
C199 C205 1.491 . S
C200 H191 0.950 . S
C200 C199 1.398 1_565 S
C200 C201 1.391 . S
C201 H189 0.950 . S
C201 C197 1.393 1_565 S
C201 C200 1.391 . S
C202 H192 0.950 . S
C202 C203 1.386 1_565 S
C202 C204 1.391 . S
C203 C202 1.386 1_545 S
C203 C207 1.393 . S
C204 H193 0.950 . S
C204 C202 1.391 . S
C204 C205 1.400 1_565 S
C205 C199 1.491 . S
C205 C204 1.400 1_545 S
C205 C206 1.398 . S
C206 H194 0.950 . S
C206 C205 1.398 . S
C206 C207 1.391 . S
C207 H195 0.950 . S
C207 C203 1.393 . S
C207 C206 1.391 . S
H208 C216 0.950 . S
H209 C221 0.950 . S
H210 C218 0.950 . S
H211 C220 0.950 . S
H212 C222 0.950 . S
H213 C224 0.950 . S
H214 C226 0.952 1_655 S
H215 C227 0.950 1_655 S
C216 H208 0.950 . S
C216 C217 1.379 1_655 S
C216 C218 1.391 . S
C217 C216 1.379 1_455 S
C217 C221 1.401 . S
C218 H210 0.950 . S
C218 C216 1.391 . S
C218 C219 1.400 1_655 S
C219 C218 1.400 1_455 S
C219 C220 1.398 . S
C219 C225 1.491 . S
C220 H211 0.950 . S
C220 C219 1.398 . S
C220 C221 1.391 . S
C221 H209 0.950 . S
C221 C217 1.401 . S
C221 C220 1.391 . S
C222 H212 0.950 . S
C222 C223 1.386 . S
C222 C224 1.391 . S
C223 C222 1.386 . S
C223 C227 1.393 . S
C224 H213 0.950 . S
C224 C222 1.391 . S
C224 C225 1.400 . S
C225 C219 1.491 . S
C225 C224 1.400 . S
C225 C226 1.397 . S
C226 H214 0.952 1_455 S
C226 C225 1.397 . S
C226 C227 1.390 . S
C227 H215 0.950 1_455 S
C227 C223 1.393 . S
C227 C226 1.390 . S
H228 C236 0.950 . S
H229 C241 0.950 . S
H230 C238 0.950 . S
H231 C240 0.950 . S
H232 C242 0.950 . S
H233 C244 0.951 . S
H234 C246 0.950 . S
H235 C247 0.950 . S
C236 H228 0.950 . S
C236 C237 1.386 . S
C236 C238 1.391 . S
C237 C236 1.386 . S
C237 C241 1.393 . S
C238 H230 0.950 . S
C238 C236 1.391 . S
C238 C239 1.400 . S
C239 C238 1.400 . S
C239 C240 1.398 . S
C239 C245 1.491 . S
C240 H231 0.950 . S
C240 C239 1.398 . S
C240 C241 1.391 . S
C241 H229 0.950 . S
C241 C237 1.393 . S
C241 C240 1.391 . S
C242 H232 0.950 . S
C242 C243 1.386 1_565 S
C242 C244 1.391 1_565 S
C243 C242 1.386 1_545 S
C243 C247 1.393 . S
C244 H233 0.951 . S
C244 C242 1.391 1_545 S
C244 C245 1.400 . S
C245 C239 1.491 . S
C245 C244 1.400 . S
C245 C246 1.398 . S
C246 H234 0.950 . S
C246 C245 1.398 . S
C246 C247 1.391 . S
C247 H235 0.950 . S
C247 C243 1.393 . S
C247 C246 1.391 . S
H248 C256 0.950 . S
H249 C261 0.950 . S
H250 C258 0.950 . S
H251 C260 0.950 . S
H252 C262 0.950 . S
H253 C264 0.950 . S
H254 C266 0.950 . S
H255 C267 0.950 . S
C256 H248 0.950 . S
C256 C257 1.386 . S
C256 C258 1.391 . S
C257 C256 1.386 . S
C257 C261 1.393 1_455 S
C258 H250 0.950 . S
C258 C256 1.391 . S
C258 C259 1.400 . S
C259 C258 1.400 . S
C259 C260 1.398 1_455 S
C259 C265 1.491 . S
C260 H251 0.950 . S
C260 C259 1.398 1_655 S
C260 C261 1.391 . S
C261 H249 0.950 . S
C261 C257 1.393 1_655 S
C261 C260 1.391 . S
C262 H252 0.950 . S
C262 C263 1.366 1_655 S
C262 C264 1.391 . S
C263 C262 1.366 1_455 S
C263 C267 1.417 . S
C264 H253 0.950 . S
C264 C262 1.391 . S
C264 C265 1.400 1_655 S
C265 C259 1.491 . S
C265 C264 1.400 1_455 S
C265 C266 1.398 . S
C266 H254 0.950 . S
C266 C265 1.398 . S
C266 C267 1.391 . S
C267 H255 0.950 . S
C267 C263 1.417 . S
C267 C266 1.391 . S
H268 C276 0.950 1_565 S
H269 C281 0.950 . S
H270 C278 0.947 1_565 S
H271 C280 0.950 . S
H272 C282 0.950 . S
H273 C284 0.950 . S
H274 C286 0.950 . S
H275 C287 0.950 . S
C276 H268 0.950 1_545 S
C276 C277 1.386 . S
C276 C278 1.392 . S
C277 C276 1.386 . S
C277 C281 1.393 . S
C278 H270 0.947 1_545 S
C278 C276 1.392 . S
C278 C279 1.403 . S
C279 C278 1.403 . S
C279 C280 1.398 . S
C279 C285 1.491 . S
C280 H271 0.950 . S
C280 C279 1.398 . S
C280 C281 1.391 . S
C281 H269 0.950 . S
C281 C277 1.393 . S
C281 C280 1.391 . S
C282 H272 0.950 . S
C282 C283 1.386 . S
C282 C284 1.391 . S
C283 C282 1.386 . S
C283 C287 1.393 1_545 S
C284 H273 0.950 . S
C284 C282 1.391 . S
C284 C285 1.400 . S
C285 C279 1.491 . S
C285 C284 1.400 . S
C285 C286 1.398 1_545 S
C286 H274 0.950 . S
C286 C285 1.398 1_565 S
C286 C287 1.391 . S
C287 H275 0.950 . S
C287 C283 1.393 1_565 S
C287 C286 1.391 . S
H288 C296 0.950 . S
H289 C301 0.950 . S
H290 C298 0.950 . S
H291 C300 0.950 . S
H292 C302 0.950 . S
H293 C304 0.950 . S
H294 C306 0.950 . S
H295 C307 0.950 . S
C296 H288 0.950 . S
C296 C297 1.386 . S
C296 C298 1.391 . S
C297 C296 1.386 . S
C297 C301 1.393 . S
C298 H290 0.950 . S
C298 C296 1.391 . S
C298 C299 1.400 . S
C299 C298 1.400 . S
C299 C300 1.398 . S
C299 C305 1.491 . S
C300 H291 0.950 . S
C300 C299 1.398 . S
C300 C301 1.391 . S
C301 H289 0.950 . S
C301 C297 1.393 . S
C301 C300 1.391 . S
C302 H292 0.950 . S
C302 C303 1.386 . S
C302 C304 1.391 1_655 S
C303 C302 1.386 . S
C303 C307 1.390 1_655 S
C304 H293 0.950 . S
C304 C302 1.391 1_455 S
C304 C305 1.400 . S
C305 C299 1.491 . S
C305 C304 1.400 . S
C305 C306 1.398 . S
C306 H294 0.950 . S
C306 C305 1.398 . S
C306 C307 1.391 . S
C307 H295 0.950 . S
C307 C303 1.390 1_455 S
C307 C306 1.391 . S
H308 C316 0.950 . S
H309 C321 0.950 . S
H310 C318 0.950 . S
H311 C320 0.950 . S
H312 C322 0.950 1_565 S
H313 C324 0.939 1_565 S
H314 C326 0.950 . S
H315 C327 0.950 . S
C316 H308 0.950 . S
C316 C317 1.386 . S
C316 C318 1.391 . S
C317 C316 1.386 . S
C317 C321 1.393 1_545 S
C318 H310 0.950 . S
C318 C316 1.391 . S
C318 C319 1.400 . S
C319 C318 1.400 . S
C319 C320 1.398 1_545 S
C319 C325 1.491 . S
C320 H311 0.950 . S
C320 C319 1.398 1_565 S
C320 C321 1.391 . S
C321 H309 0.950 . S
C321 C317 1.393 1_565 S
C321 C320 1.391 . S
C322 H312 0.950 1_545 S
C322 C323 1.386 . S
C322 C324 1.393 . S
C323 C322 1.386 . S
C323 C327 1.393 . S
C324 H313 0.939 1_545 S
C324 C322 1.393 . S
C324 C325 1.409 . S
C325 C319 1.491 . S
C325 C324 1.409 . S
C325 C326 1.398 . S
C326 H314 0.950 . S
C326 C325 1.398 . S
C326 C327 1.391 . S
C327 H315 0.950 . S
C327 C323 1.393 . S
C327 C326 1.391 . S
H328 C336 0.950 . S
H329 C341 0.950 . S
H330 C338 0.950 . S
H331 C340 0.950 . S
H332 C342 0.950 . S
H333 C344 0.950 . S
H334 C346 0.950 . S
H335 C347 0.950 . S
C336 H328 0.950 . S
C336 C337 1.386 . S
C336 C338 1.391 . S
C337 C336 1.386 . S
C337 C341 1.393 . S
C338 H330 0.950 . S
C338 C336 1.391 . S
C338 C339 1.400 . S
C339 C338 1.400 . S
C339 C340 1.398 . S
C339 C345 1.491 . S
C340 H331 0.950 . S
C340 C339 1.398 . S
C340 C341 1.391 . S
C341 H329 0.950 . S
C341 C337 1.393 . S
C341 C340 1.391 . S
C342 H332 0.950 . S
C342 C343 1.385 . S
C342 C344 1.391 . S
C343 C342 1.385 . S
C343 C347 1.394 1_556 S
C344 H333 0.950 . S
C344 C342 1.391 . S
C344 C345 1.400 1_556 S
C345 C339 1.491 . S
C345 C344 1.400 1_554 S
C345 C346 1.398 . S
C346 H334 0.950 . S
C346 C345 1.398 . S
C346 C347 1.391 . S
C347 H335 0.950 . S
C347 C343 1.394 1_554 S
C347 C346 1.391 . S
H348 C356 0.962 . S
H349 C361 0.950 . S
H350 C358 0.950 . S
H351 C360 0.950 . S
H352 C362 0.950 . S
H353 C364 0.950 . S
H354 C366 0.950 . S
H355 C367 0.950 . S
C356 H348 0.962 . S
C356 C357 1.371 1_556 S
C356 C358 1.394 . S
C357 C356 1.371 1_554 S
C357 C361 1.393 . S
C358 H350 0.950 . S
C358 C356 1.394 . S
C358 C359 1.400 1_556 S
C359 C358 1.400 1_554 S
C359 C360 1.398 . S
C359 C365 1.491 . S
C360 H351 0.950 . S
C360 C359 1.398 . S
C360 C361 1.391 . S
C361 H349 0.950 . S
C361 C357 1.393 . S
C361 C360 1.391 . S
C362 H352 0.950 . S
C362 C363 1.386 . S
C362 C364 1.391 . S
C363 C362 1.386 . S
C363 C367 1.393 1_554 S
C364 H353 0.950 . S
C364 C362 1.391 . S
C364 C365 1.400 . S
C365 C359 1.491 . S
C365 C364 1.400 . S
C365 C366 1.398 1_554 S
C366 H354 0.950 . S
C366 C365 1.398 1_556 S
C366 C367 1.391 . S
C367 H355 0.950 . S
C367 C363 1.393 1_556 S
C367 C366 1.391 . S
H368 C376 0.950 . S
H369 C381 0.950 . S
H370 C378 0.950 . S
H371 C380 0.950 . S
H372 C382 0.950 . S
H373 C384 0.950 . S
H374 C386 0.950 . S
H375 C387 0.950 . S
C376 H368 0.950 . S
C376 C377 1.386 1_556 S
C376 C378 1.391 . S
C377 C376 1.386 1_554 S
C377 C381 1.393 . S
C378 H370 0.950 . S
C378 C376 1.391 . S
C378 C379 1.400 1_556 S
C379 C378 1.400 1_554 S
C379 C380 1.398 . S
C379 C385 1.491 . S
C380 H371 0.950 . S
C380 C379 1.398 . S
C380 C381 1.391 . S
C381 H369 0.950 . S
C381 C377 1.393 . S
C381 C380 1.391 . S
C382 H372 0.950 . S
C382 C383 1.386 . S
C382 C384 1.391 . S
C383 C382 1.386 . S
C383 C387 1.393 1_554 S
C384 H373 0.950 . S
C384 C382 1.391 . S
C384 C385 1.400 . S
C385 C379 1.491 . S
C385 C384 1.400 . S
C385 C386 1.398 1_554 S
C386 H374 0.950 . S
C386 C385 1.398 1_556 S
C386 C387 1.391 . S
C387 H375 0.950 . S
C387 C383 1.393 1_556 S
C387 C386 1.391 . S
H388 C396 0.950 . S
H389 C401 0.950 . S
H390 C398 0.948 1_556 S
H391 C400 0.950 . S
H392 C402 0.950 . S
H393 C404 0.950 . S
H394 C406 0.950 1_556 S
H395 C407 0.950 . S
C396 H388 0.950 . S
C396 C397 1.386 1_556 S
C396 C398 1.391 1_556 S
C397 C396 1.386 1_554 S
C397 C401 1.393 . S
C398 H390 0.948 1_554 S
C398 C396 1.391 1_554 S
C398 C399 1.403 . S
C399 C398 1.403 . S
C399 C400 1.398 . S
C399 C405 1.491 . S
C400 H391 0.950 . S
C400 C399 1.398 . S
C400 C401 1.391 . S
C401 H389 0.950 . S
C401 C397 1.393 . S
C401 C400 1.391 . S
C402 H392 0.950 . S
C402 C403 1.386 . S
C402 C404 1.391 . S
C403 C402 1.386 . S
C403 C407 1.393 . S
C404 H393 0.950 . S
C404 C402 1.391 . S
C404 C405 1.400 . S
C405 C399 1.491 . S
C405 C404 1.400 . S
C405 C406 1.398 . S
C406 H394 0.950 1_554 S
C406 C405 1.398 . S
C406 C407 1.391 . S
C407 H395 0.950 . S
C407 C403 1.393 . S
C407 C406 1.391 . S
H408 C416 0.950 . S
H409 C421 0.950 . S
H410 C418 0.950 . S
H411 C420 0.950 . S
H412 C422 0.950 . S
H413 C424 0.950 . S
H414 C426 0.950 . S
H415 C427 0.950 . S
C416 H408 0.950 . S
C416 C417 1.386 . S
C416 C418 1.391 . S
C417 C416 1.386 . S
C417 C421 1.393 . S
C418 H410 0.950 . S
C418 C416 1.391 . S
C418 C419 1.400 . S
C419 C418 1.400 . S
C419 C420 1.398 . S
C419 C425 1.491 . S
C420 H411 0.950 . S
C420 C419 1.398 . S
C420 C421 1.391 . S
C421 H409 0.950 . S
C421 C417 1.393 . S
C421 C420 1.391 . S
C422 H412 0.950 . S
C422 C423 1.386 . S
C422 C424 1.391 . S
C423 C422 1.386 . S
C423 C427 1.393 . S
C424 H413 0.950 . S
C424 C422 1.391 . S
C424 C425 1.400 . S
C425 C419 1.491 . S
C425 C424 1.400 . S
C425 C426 1.398 . S
C426 H414 0.950 . S
C426 C425 1.398 . S
C426 C427 1.391 . S
C427 H415 0.950 . S
C427 C423 1.393 . S
C427 C426 1.391 . S
H428 C436 0.950 . S
H429 C441 0.950 . S
H430 C438 0.950 . S
H431 C440 0.950 . S
H432 C442 0.950 . S
H433 C444 0.950 . S
H434 C446 0.950 . S
H435 C447 0.950 . S
C436 H428 0.950 . S
C436 C437 1.386 . S
C436 C438 1.391 . S
C437 C436 1.386 . S
C437 C441 1.393 . S
C438 H430 0.950 . S
C438 C436 1.391 . S
C438 C439 1.400 . S
C439 C438 1.400 . S
C439 C440 1.398 . S
C439 C445 1.491 . S
C440 H431 0.950 . S
C440 C439 1.398 . S
C440 C441 1.391 . S
C441 H429 0.950 . S
C441 C437 1.393 . S
C441 C440 1.391 . S
C442 H432 0.950 . S
C442 C443 1.386 . S
C442 C444 1.391 . S
C443 C442 1.386 . S
C443 C447 1.393 . S
C444 H433 0.950 . S
C444 C442 1.391 . S
C444 C445 1.400 . S
C445 C439 1.491 . S
C445 C444 1.400 . S
C445 C446 1.398 . S
C446 H434 0.950 . S
C446 C445 1.398 . S
C446 C447 1.391 . S
C447 H435 0.950 . S
C447 C443 1.393 . S
C447 C446 1.391 . S
H448 C456 0.950 . S
H449 C461 0.950 . S
H450 C458 0.950 . S
H451 C460 0.950 . S
H452 C462 0.950 . S
H453 C464 0.950 . S
H454 C466 0.950 . S
H455 C467 0.950 . S
C456 H448 0.950 . S
C456 C457 1.386 . S
C456 C458 1.391 . S
C457 C456 1.386 . S
C457 C461 1.393 . S
C458 H450 0.950 . S
C458 C456 1.391 . S
C458 C459 1.400 . S
C459 C458 1.400 . S
C459 C460 1.398 . S
C459 C465 1.491 . S
C460 H451 0.950 . S
C460 C459 1.398 . S
C460 C461 1.391 . S
C461 H449 0.950 . S
C461 C457 1.393 . S
C461 C460 1.391 . S
C462 H452 0.950 . S
C462 C463 1.386 . S
C462 C464 1.391 . S
C463 C462 1.386 . S
C463 C467 1.393 . S
C464 H453 0.950 . S
C464 C462 1.391 . S
C464 C465 1.400 . S
C465 C459 1.491 . S
C465 C464 1.400 . S
C465 C466 1.398 . S
C466 H454 0.950 . S
C466 C465 1.398 . S
C466 C467 1.391 . S
C467 H455 0.950 . S
C467 C463 1.393 . S
C467 C466 1.391 . S
H468 C476 0.950 . S
H469 C481 0.950 . S
H470 C478 0.950 . S
H471 C480 0.950 . S
H472 C482 0.950 . S
H473 C484 0.950 . S
H474 C486 0.950 . S
H475 C487 0.950 . S
C476 H468 0.950 . S
C476 C477 1.386 . S
C476 C478 1.391 . S
C477 C476 1.386 . S
C477 C481 1.393 . S
C478 H470 0.950 . S
C478 C476 1.391 . S
C478 C479 1.400 . S
C479 C478 1.400 . S
C479 C480 1.398 . S
C479 C485 1.491 . S
C480 H471 0.950 . S
C480 C479 1.398 . S
C480 C481 1.391 . S
C481 H469 0.950 . S
C481 C477 1.393 . S
C481 C480 1.391 . S
C482 H472 0.950 . S
C482 C483 1.386 . S
C482 C484 1.391 . S
C483 C482 1.386 . S
C483 C487 1.393 . S
C484 H473 0.950 . S
C484 C482 1.391 . S
C484 C485 1.400 . S
C485 C479 1.491 . S
C485 C484 1.400 . S
C485 C486 1.398 . S
C486 H474 0.950 . S
C486 C485 1.398 . S
C486 C487 1.391 . S
C487 H475 0.950 . S
C487 C483 1.393 . S
C487 C486 1.391 . S
H488 C496 0.950 . S
H489 C501 0.950 . S
H490 C498 0.950 . S
H491 C500 0.950 . S
H492 C502 0.950 . S
H493 C504 0.950 . S
H494 C506 0.950 . S
H495 C507 0.950 . S
C496 H488 0.950 . S
C496 C497 1.386 . S
C496 C498 1.391 . S
C497 C496 1.386 . S
C497 C501 1.393 . S
C498 H490 0.950 . S
C498 C496 1.391 . S
C498 C499 1.400 . S
C499 C498 1.400 . S
C499 C500 1.398 . S
C499 C505 1.491 . S
C500 H491 0.950 . S
C500 C499 1.398 . S
C500 C501 1.391 . S
C501 H489 0.950 . S
C501 C497 1.393 . S
C501 C500 1.391 . S
C502 H492 0.950 . S
C502 C503 1.386 . S
C502 C504 1.391 . S
C503 C502 1.386 . S
C503 C507 1.393 . S
C504 H493 0.950 . S
C504 C502 1.391 . S
C504 C505 1.400 . S
C505 C499 1.491 . S
C505 C504 1.400 . S
C505 C506 1.398 . S
C506 H494 0.950 . S
C506 C505 1.398 . S
C506 C507 1.391 . S
C507 H495 0.950 . S
C507 C503 1.393 . S
C507 C506 1.391 . S
H508 C516 0.950 . S
H509 C521 0.950 . S
H510 C518 0.950 . S
H511 C520 0.950 . S
H512 C522 0.950 . S
H513 C524 0.950 . S
H514 C526 0.950 . S
H515 C527 0.950 . S
C516 H508 0.950 . S
C516 C517 1.386 . S
C516 C518 1.391 . S
C517 C516 1.386 . S
C517 C521 1.393 . S
C518 H510 0.950 . S
C518 C516 1.391 . S
C518 C519 1.400 . S
C519 C518 1.400 . S
C519 C520 1.398 . S
C519 C525 1.491 . S
C520 H511 0.950 . S
C520 C519 1.398 . S
C520 C521 1.391 . S
C521 H509 0.950 . S
C521 C517 1.393 . S
C521 C520 1.391 . S
C522 H512 0.950 . S
C522 C523 1.386 . S
C522 C524 1.391 . S
C523 C522 1.386 . S
C523 C527 1.393 . S
C524 H513 0.950 . S
C524 C522 1.391 . S
C524 C525 1.400 . S
C525 C519 1.491 . S
C525 C524 1.400 . S
C525 C526 1.398 . S
C526 H514 0.950 . S
C526 C525 1.398 . S
C526 C527 1.391 . S
C527 H515 0.950 . S
C527 C523 1.393 . S
C527 C526 1.391 . S
H528 C536 0.950 . S
H529 C541 0.950 . S
H530 C538 0.950 . S
H531 C540 0.950 . S
H532 C542 0.950 . S
H533 C544 0.950 . S
H534 C546 0.950 . S
H535 C547 0.950 . S
C536 H528 0.950 . S
C536 C537 1.386 . S
C536 C538 1.391 . S
C537 C536 1.386 . S
C537 C541 1.393 . S
C538 H530 0.950 . S
C538 C536 1.391 . S
C538 C539 1.400 . S
C539 C538 1.400 . S
C539 C540 1.398 . S
C539 C545 1.491 . S
C540 H531 0.950 . S
C540 C539 1.398 . S
C540 C541 1.391 . S
C541 H529 0.950 . S
C541 C537 1.393 . S
C541 C540 1.391 . S
C542 H532 0.950 . S
C542 C543 1.386 . S
C542 C544 1.391 . S
C543 C542 1.386 . S
C543 C547 1.393 . S
C544 H533 0.950 . S
C544 C542 1.391 . S
C544 C545 1.400 . S
C545 C539 1.491 . S
C545 C544 1.400 . S
C545 C546 1.398 . S
C546 H534 0.950 . S
C546 C545 1.398 . S
C546 C547 1.391 . S
C547 H535 0.950 . S
C547 C543 1.393 . S
C547 C546 1.391 . S
H548 C556 0.950 . S
H549 C561 0.950 . S
H550 C558 0.950 . S
H551 C560 0.950 . S
H552 C562 0.950 . S
H553 C564 0.950 . S
H554 C566 0.950 . S
H555 C567 0.950 . S
C556 H548 0.950 . S
C556 C557 1.386 . S
C556 C558 1.391 . S
C557 C556 1.386 . S
C557 C561 1.393 . S
C558 H550 0.950 . S
C558 C556 1.391 . S
C558 C559 1.400 . S
C559 C558 1.400 . S
C559 C560 1.398 . S
C559 C565 1.491 . S
C560 H551 0.950 . S
C560 C559 1.398 . S
C560 C561 1.391 . S
C561 H549 0.950 . S
C561 C557 1.393 . S
C561 C560 1.391 . S
C562 H552 0.950 . S
C562 C563 1.386 . S
C562 C564 1.391 . S
C563 C562 1.386 . S
C563 C567 1.393 . S
C564 H553 0.950 . S
C564 C562 1.391 . S
C564 C565 1.400 . S
C565 C559 1.491 . S
C565 C564 1.400 . S
C565 C566 1.398 . S
C566 H554 0.950 . S
C566 C565 1.398 . S
C566 C567 1.391 . S
C567 H555 0.950 . S
C567 C563 1.393 . S
C567 C566 1.391 . S
H568 C576 0.950 . S
H569 C581 0.950 . S
H570 C578 0.950 . S
H571 C580 0.950 . S
H572 C582 0.950 . S
H573 C584 0.950 . S
H574 C586 0.950 . S
H575 C587 0.950 . S
C576 H568 0.950 . S
C576 C577 1.386 . S
C576 C578 1.391 . S
C577 C576 1.386 . S
C577 C581 1.393 . S
C578 H570 0.950 . S
C578 C576 1.391 . S
C578 C579 1.400 . S
C579 C578 1.400 . S
C579 C580 1.398 . S
C579 C585 1.491 . S
C580 H571 0.950 . S
C580 C579 1.398 . S
C580 C581 1.391 . S
C581 H569 0.950 . S
C581 C577 1.393 . S
C581 C580 1.391 . S
C582 H572 0.950 . S
C582 C583 1.386 . S
C582 C584 1.391 . S
C583 C582 1.386 . S
C583 C587 1.393 . S
C584 H573 0.950 . S
C584 C582 1.391 . S
C584 C585 1.400 . S
C585 C579 1.491 . S
C585 C584 1.400 . S
C585 C586 1.398 . S
C586 H574 0.950 . S
C586 C585 1.398 . S
C586 C587 1.391 . S
C587 H575 0.950 . S
C587 C583 1.393 . S
C587 C586 1.391 . S
H588 C596 0.950 . S
H589 C601 0.950 . S
H590 C598 0.950 . S
H591 C600 0.950 . S
H592 C602 0.950 . S
H593 C604 0.950 . S
H594 C606 0.950 . S
H595 C607 0.950 . S
C596 H588 0.950 . S
C596 C597 1.386 . S
C596 C598 1.391 . S
C597 C596 1.386 . S
C597 C601 1.393 . S
C598 H590 0.950 . S
C598 C596 1.391 . S
C598 C599 1.400 . S
C599 C598 1.400 . S
C599 C600 1.398 . S
C599 C605 1.491 . S
C600 H591 0.950 . S
C600 C599 1.398 . S
C600 C601 1.391 . S
C601 H589 0.950 . S
C601 C597 1.393 . S
C601 C600 1.391 . S
C602 H592 0.950 . S
C602 C603 1.386 . S
C602 C604 1.391 . S
C603 C602 1.386 . S
C603 C607 1.393 . S
C604 H593 0.950 . S
C604 C602 1.391 . S
C604 C605 1.400 . S
C605 C599 1.491 . S
C605 C604 1.400 . S
C605 C606 1.398 . S
C606 H594 0.950 . S
C606 C605 1.398 . S
C606 C607 1.391 . S
C607 H595 0.950 . S
C607 C603 1.393 . S
C607 C606 1.391 . S
H608 C616 0.950 . S
H609 C621 0.950 . S
H610 C618 0.950 . S
H611 C620 0.950 . S
H612 C622 0.950 . S
H613 C624 0.950 . S
H614 C626 0.950 . S
H615 C627 0.950 . S
C616 H608 0.950 . S
C616 C617 1.386 . S
C616 C618 1.391 . S
C617 C616 1.386 . S
C617 C621 1.393 . S
C618 H610 0.950 . S
C618 C616 1.391 . S
C618 C619 1.400 . S
C619 C618 1.400 . S
C619 C620 1.398 . S
C619 C625 1.491 . S
C620 H611 0.950 . S
C620 C619 1.398 . S
C620 C621 1.391 . S
C621 H609 0.950 . S
C621 C617 1.393 . S
C621 C620 1.391 . S
C622 H612 0.950 . S
C622 C623 1.386 . S
C622 C624 1.391 . S
C623 C622 1.386 . S
C623 C627 1.393 . S
C624 H613 0.950 . S
C624 C622 1.391 . S
C624 C625 1.400 . S
C625 C619 1.491 . S
C625 C624 1.400 . S
C625 C626 1.398 . S
C626 H614 0.950 . S
C626 C625 1.398 . S
C626 C627 1.391 . S
C627 H615 0.950 . S
C627 C623 1.393 . S
C627 C626 1.391 . S
H628 C636 0.950 . S
H629 C641 0.950 . S
H630 C638 0.950 . S
H631 C640 0.950 . S
H632 C642 0.950 . S
H633 C644 0.950 . S
H634 C646 0.950 . S
H635 C647 0.950 . S
C636 H628 0.950 . S
C636 C637 1.386 . S
C636 C638 1.391 . S
C637 C636 1.386 . S
C637 C641 1.393 . S
C638 H630 0.950 . S
C638 C636 1.391 . S
C638 C639 1.400 . S
C639 C638 1.400 . S
C639 C640 1.398 . S
C639 C645 1.491 . S
C640 H631 0.950 . S
C640 C639 1.398 . S
C640 C641 1.391 . S
C641 H629 0.950 . S
C641 C637 1.393 . S
C641 C640 1.391 . S
C642 H632 0.950 . S
C642 C643 1.386 . S
C642 C644 1.391 . S
C643 C642 1.386 . S
C643 C647 1.393 . S
C644 H633 0.950 . S
C644 C642 1.391 . S
C644 C645 1.400 . S
C645 C639 1.491 . S
C645 C644 1.400 . S
C645 C646 1.398 . S
C646 H634 0.950 . S
C646 C645 1.398 . S
C646 C647 1.391 . S
C647 H635 0.950 . S
C647 C643 1.393 . S
C647 C646 1.391 . S
C177 C8 1.462 . S
C183 C78 1.465 . S
C197 C17 1.538 . S
C203 C59 1.536 . S
C217 C77 1.386 . S
C223 C35 1.373 . S
C237 C45 1.445 . S
C243 C65 1.442 1_545 S
C257 C106 1.509 . S
C263 C36 1.510 . S
C277 C93 1.379 . S
C283 C51 1.369 . S
C297 C7 1.403 . S
C303 C105 1.403 1_655 S
C317 C87 1.479 . S
C323 C23 1.468 . S
C337 C129 1.533 . S
C343 C120 1.524 1_556 S
C357 C119 1.455 . S
C363 C157 1.487 . S
C377 C135 1.378 1_554 S
C383 C147 1.355 . S
C397 C148 1.413 . S
C403 C163 1.426 . S
C417 C162 1.467 . S
C423 C92 1.470 . S
C437 C115 1.535 . S
C443 C101 1.535 . S
C457 C91 1.368 . S
C463 C133 1.364 . S
C477 C107 1.444 . S
C483 C143 1.440 . S
C497 C64 1.513 . S
C503 C134 1.514 . S
C517 C79 1.370 . S
C523 C149 1.381 . S
C537 C161 1.414 . S
C543 C63 1.420 . S
C557 C121 1.477 . S
C563 C73 1.475 . S
C577 C22 1.524 . S
C583 C31 1.535 . S
C597 C3 1.487 . S
C603 C21 1.457 . S
C617 C37 1.384 . S
C623 C49 1.368 . S
C637 C9 1.422 . S
C643 C50 1.424 . S
