# Generated by pormake.
# Topology lcs, (4)-cn, num edge types: 1
# Building blocks:
#     Node 0, Type 0, BuildingBlock: AZAVOO_clean_sbu_0, # of connection points: 4
#     Node 1, Type 0, BuildingBlock: AZAVOO_clean_sbu_0, # of connection points: 4
#     Node 2, Type 0, BuildingBlock: AZAVOO_clean_sbu_0, # of connection points: 4
#     Node 3, Type 0, BuildingBlock: AZAVOO_clean_sbu_0, # of connection points: 4
#     Node 4, Type 0, BuildingBlock: AZAVOO_clean_sbu_0, # of connection points: 4
#     Node 5, Type 0, BuildingBlock: AZAVOO_clean_sbu_0, # of connection points: 4
#     Node 6, Type 0, BuildingBlock: AZAVOO_clean_sbu_0, # of connection points: 4
#     Node 7, Type 0, BuildingBlock: AZAVOO_clean_sbu_0, # of connection points: 4
#     Node 8, Type 0, BuildingBlock: AZAVOO_clean_sbu_0, # of connection points: 4
#     Node 9, Type 0, BuildingBlock: AZAVOO_clean_sbu_0, # of connection points: 4
#     Node 10, Type 0, BuildingBlock: AZAVOO_clean_sbu_0, # of connection points: 4
#     Node 11, Type 0, BuildingBlock: AZAVOO_clean_sbu_0, # of connection points: 4
#     Node 12, Type 0, BuildingBlock: AZAVOO_clean_sbu_0, # of connection points: 4
#     Node 13, Type 0, BuildingBlock: AZAVOO_clean_sbu_0, # of connection points: 4
#     Node 14, Type 0, BuildingBlock: AZAVOO_clean_sbu_0, # of connection points: 4
#     Node 15, Type 0, BuildingBlock: AZAVOO_clean_sbu_0, # of connection points: 4
#     Node 16, Type 0, BuildingBlock: AZAVOO_clean_sbu_0, # of connection points: 4
#     Node 17, Type 0, BuildingBlock: AZAVOO_clean_sbu_0, # of connection points: 4
#     Node 18, Type 0, BuildingBlock: AZAVOO_clean_sbu_0, # of connection points: 4
#     Node 19, Type 0, BuildingBlock: AZAVOO_clean_sbu_0, # of connection points: 4
#     Node 20, Type 0, BuildingBlock: AZAVOO_clean_sbu_0, # of connection points: 4
#     Node 21, Type 0, BuildingBlock: AZAVOO_clean_sbu_0, # of connection points: 4
#     Node 22, Type 0, BuildingBlock: AZAVOO_clean_sbu_0, # of connection points: 4
#     Node 23, Type 0, BuildingBlock: AZAVOO_clean_sbu_0, # of connection points: 4
#     Edge 24, Type (0, 0), None
#     Edge 25, Type (0, 0), None
#     Edge 26, Type (0, 0), None
#     Edge 27, Type (0, 0), None
#     Edge 28, Type (0, 0), None
#     Edge 29, Type (0, 0), None
#     Edge 30, Type (0, 0), None
#     Edge 31, Type (0, 0), None
#     Edge 32, Type (0, 0), None
#     Edge 33, Type (0, 0), None
#     Edge 34, Type (0, 0), None
#     Edge 35, Type (0, 0), None
#     Edge 36, Type (0, 0), None
#     Edge 37, Type (0, 0), None
#     Edge 38, Type (0, 0), None
#     Edge 39, Type (0, 0), None
#     Edge 40, Type (0, 0), None
#     Edge 41, Type (0, 0), None
#     Edge 42, Type (0, 0), None
#     Edge 43, Type (0, 0), None
#     Edge 44, Type (0, 0), None
#     Edge 45, Type (0, 0), None
#     Edge 46, Type (0, 0), None
#     Edge 47, Type (0, 0), None
#     Edge 48, Type (0, 0), None
#     Edge 49, Type (0, 0), None
#     Edge 50, Type (0, 0), None
#     Edge 51, Type (0, 0), None
#     Edge 52, Type (0, 0), None
#     Edge 53, Type (0, 0), None
#     Edge 54, Type (0, 0), None
#     Edge 55, Type (0, 0), None
#     Edge 56, Type (0, 0), None
#     Edge 57, Type (0, 0), None
#     Edge 58, Type (0, 0), None
#     Edge 59, Type (0, 0), None
#     Edge 60, Type (0, 0), None
#     Edge 61, Type (0, 0), None
#     Edge 62, Type (0, 0), None
#     Edge 63, Type (0, 0), None
#     Edge 64, Type (0, 0), None
#     Edge 65, Type (0, 0), None
#     Edge 66, Type (0, 0), None
#     Edge 67, Type (0, 0), None
#     Edge 68, Type (0, 0), None
#     Edge 69, Type (0, 0), None
#     Edge 70, Type (0, 0), None
#     Edge 71, Type (0, 0), None
# Relax obj value: 0.154
# Max RMSD: 0.202
# Mean RMSD: 0.182
data_MOF--net-lcs--node1-AZAVOO_clean_sbu_0--edge1-none
_symmetry_space_group_name_H-M    P1
_symmetry_Int_Tables_number       1
_symmetry_cell_setting            triclinic
loop_
_symmetry_equiv_pos_as_xyz
'x, y, z'
_cell_length_a     22.775105
_cell_length_b     21.503012
_cell_length_c     21.503111
_cell_angle_alpha  96.968763
_cell_angle_beta   96.406178
_cell_angle_gamma 96.405899
loop_
_atom_site_label
_atom_site_type_symbol
_atom_site_fract_x
_atom_site_fract_y
_atom_site_fract_z
_atom_type_partial_charge
Mg0 Mg 0.02714 0.29979 0.46931 0.0
O1 O -0.00782 0.20973 0.4036 0.0
O2 O 0.91361 0.22769 0.33975 0.0
Mg3 Mg 0.8991 0.33186 0.36275 0.0
C4 C 0.94892 0.19055 0.36043 0.0
C5 C 0.1233 0.20486 0.50843 0.0
O6 O 0.08062 0.17388 0.53304 0.0
O7 O 0.07001 0.35325 0.39389 0.0
O8 O 0.98766 0.37492 0.33836 0.0
O9 O 0.9529 0.26759 0.53055 0.0
O10 O 0.94305 0.33073 0.45875 0.0
C11 C 0.04415 0.38042 0.35068 0.0
C12 C 0.91899 0.29934 0.49784 0.0
O13 O 0.11436 0.25555 0.48594 0.0
Mg14 Mg 0.98615 0.7586 0.55322 0.0
O15 O 0.03173 0.84094 0.63381 0.0
O16 O 0.96035 0.84812 0.69742 0.0
Mg17 Mg 0.87675 0.78019 0.66525 0.0
C18 C 0.01214 0.86586 0.68365 0.0
C19 C 0.11962 0.75003 0.49941 0.0
O20 O 0.14624 0.72302 0.45439 0.0
O21 O 0.00368 0.687 0.62092 0.0
O22 O 0.93381 0.70256 0.68493 0.0
O23 O 0.94232 0.82723 0.49822 0.0
O24 O 0.90448 0.77945 0.57271 0.0
C25 C 0.97711 0.67446 0.66805 0.0
C26 C 0.89998 0.81877 0.5329 0.0
O27 O 0.06397 0.73565 0.49835 0.0
Mg28 Mg 0.52713 0.79978 0.9693 0.0
O29 O 0.49219 0.70971 0.90361 0.0
O30 O 0.41362 0.72765 0.83974 0.0
Mg31 Mg 0.39909 0.83182 0.86272 0.0
C32 C 0.44893 0.69052 0.86044 0.0
C33 C 0.62329 0.70485 0.0084 0.0
O34 O 0.5806 0.67384 0.03297 0.0
O35 O 0.57001 0.85323 0.89388 0.0
O36 O 0.48766 0.87489 0.83833 0.0
O37 O 0.45288 0.7676 0.03054 0.0
O38 O 0.44304 0.83073 0.95872 0.0
C39 C 0.54416 0.88039 0.85066 0.0
C40 C 0.41897 0.79934 0.99782 0.0
O41 O 0.61436 0.75557 0.98595 0.0
Mg42 Mg 0.48609 0.25851 0.05327 0.0
O43 O 0.53172 0.34087 0.13382 0.0
O44 O 0.46035 0.3481 0.19745 0.0
Mg45 Mg 0.37672 0.28019 0.16532 0.0
C46 C 0.51214 0.36581 0.18366 0.0
C47 C 0.61952 0.24988 0.9994 0.0
O48 O 0.64612 0.22279 0.95441 0.0
O49 O 0.5036 0.18694 0.12098 0.0
O50 O 0.43376 0.20254 0.18501 0.0
O51 O 0.44228 0.32716 0.99824 0.0
O52 O 0.40444 0.27942 0.07277 0.0
C53 C 0.47704 0.17442 0.16812 0.0
C54 C 0.39994 0.31872 0.03295 0.0
O55 O 0.56388 0.23548 0.9984 0.0
Mg56 Mg 0.00729 0.77871 0.23019 0.0
O57 O 0.93329 0.72675 0.14973 0.0
O58 O 0.92192 0.79782 0.08301 0.0
Mg59 Mg 0.98107 0.89109 0.11875 0.0
C60 C 0.90868 0.74308 0.09868 0.0
C61 C 0.04063 0.63788 0.26388 0.0
O62 O 0.04254 0.5982 0.30559 0.0
O63 O 0.08213 0.77107 0.16715 0.0
O64 O 0.06432 0.84144 0.10108 0.0
O65 O 0.94087 0.81681 0.28535 0.0
O66 O 0.98373 0.86918 0.21665 0.0
C67 C 0.09503 0.79984 0.12094 0.0
C68 C 0.94646 0.86676 0.25759 0.0
O69 O 0.01715 0.68812 0.27607 0.0
Mg70 Mg 0.52133 0.801 0.37354 0.0
O71 O 0.48925 0.80725 0.2715 0.0
O72 O 0.56328 0.84812 0.22708 0.0
Mg73 Mg 0.62767 0.78277 0.26326 0.0
C74 C 0.51158 0.85047 0.24293 0.0
C75 C 0.42533 0.76919 0.44572 0.0
O76 O 0.47182 0.74301 0.46644 0.0
O77 O 0.51025 0.69578 0.35091 0.0
O78 O 0.5688 0.68952 0.27423 0.0
O79 O 0.55902 0.89971 0.39344 0.0
O80 O 0.6113 0.82324 0.36009 0.0
C81 C 0.53287 0.66374 0.30828 0.0
C82 C 0.60937 0.88197 0.3806 0.0
O83 O 0.42841 0.80048 0.39975 0.0
Mg84 Mg 0.50732 0.27867 0.73021 0.0
O85 O 0.4333 0.22671 0.64976 0.0
O86 O 0.42193 0.29778 0.58303 0.0
Mg87 Mg 0.48107 0.39105 0.61877 0.0
C88 C 0.40869 0.24303 0.59871 0.0
C89 C 0.54066 0.13784 0.76388 0.0
O90 O 0.54258 0.09817 0.80559 0.0
O91 O 0.58214 0.27104 0.66715 0.0
O92 O 0.56433 0.34141 0.60109 0.0
O93 O 0.44092 0.31677 0.78538 0.0
O94 O 0.48375 0.36914 0.71667 0.0
C95 C 0.59504 0.29981 0.62094 0.0
C96 C 0.4465 0.36673 0.75762 0.0
O97 O 0.51719 0.18809 0.77609 0.0
Mg98 Mg 0.02132 0.30102 0.87355 0.0
O99 O -0.01073 0.30729 0.7715 0.0
O100 O 0.06332 0.34814 0.7271 0.0
Mg101 Mg 0.12769 0.28278 0.7633 0.0
C102 C 0.01161 0.3505 0.74293 0.0
C103 C 0.92531 0.26923 0.94571 0.0
O104 O 0.97179 0.24305 0.96644 0.0
O105 O 0.01023 0.19581 0.85092 0.0
O106 O 0.0688 0.18954 0.77425 0.0
O107 O 0.05903 0.39974 0.89345 0.0
O108 O 0.1113 0.32326 0.86011 0.0
C109 C 0.03286 0.16377 0.8083 0.0
C110 C 0.10937 0.38199 0.88062 0.0
O111 O 0.9284 0.30051 0.89973 0.0
Mg112 Mg 0.45547 0.018 0.28251 0.0
O113 O 0.38753 0.99114 0.1949 0.0
O114 O 0.33164 0.90247 0.2066 0.0
Mg115 Mg 0.36844 0.86892 0.29916 0.0
C116 C 0.34517 0.94721 0.17469 0.0
C117 C 0.49171 0.12171 0.20115 0.0
O118 O 0.51726 0.07626 0.17295 0.0
O119 O 0.38664 0.04941 0.3472 0.0
O120 O 0.34587 0.95381 0.36246 0.0
O121 O 0.51681 0.96111 0.232 0.0
O122 O 0.45484 0.92301 0.29419 0.0
C123 C 0.35263 0.01386 0.37521 0.0
C124 C 0.49258 0.91315 0.2551 0.0
O125 O 0.46814 0.1138 0.2509 0.0
Mg126 Mg 0.26562 0.06701 0.51856 0.0
O127 O 0.33965 0.14745 0.57051 0.0
O128 O 0.35103 0.21417 0.49943 0.0
Mg129 Mg 0.29187 0.17844 0.40617 0.0
C130 C 0.36426 0.1985 0.55417 0.0
C131 C 0.23228 0.03335 0.65939 0.0
O132 O 0.23035 0.99165 0.69907 0.0
O133 O 0.19081 0.13009 0.5262 0.0
O134 O 0.20863 0.19614 0.45582 0.0
O135 O 0.332 0.01181 0.48046 0.0
O136 O 0.28918 0.08054 0.42809 0.0
C137 C 0.17792 0.1763 0.49743 0.0
C138 C 0.32641 0.03957 0.4305 0.0
O139 O 0.25574 0.02114 0.60914 0.0
Mg140 Mg 0.14149 0.03514 0.78701 0.0
O141 O 0.09863 0.94352 0.72124 0.0
O142 O 0.02727 0.92596 0.78335 0.0
Mg143 Mg 0.04583 0.97425 0.88643 0.0
C144 C 0.04871 0.91468 0.73104 0.0
C145 C 0.20547 0.09125 0.6721 0.0
O146 O 0.22209 0.14049 0.64499 0.0
O147 O 0.05105 0.0646 0.76437 0.0
O148 O 0.03108 0.07438 0.86195 0.0
O149 O 0.22343 1.00036 0.82654 0.0
O150 O 0.13949 0.98315 0.86694 0.0
C151 C 0.03079 0.09544 0.80903 0.0
C152 C 0.19557 0.97817 0.8697 0.0
O153 O 0.17036 0.09711 0.71363 0.0
Mg154 Mg 0.24581 0.82795 0.99747 0.0
O155 O 0.28076 0.89366 0.08753 0.0
O156 O 0.35933 0.95753 0.06957 0.0
Mg157 Mg 0.37385 0.93453 0.96541 0.0
C158 C 0.324 0.93685 0.1067 0.0
C159 C 0.14965 0.78884 0.09239 0.0
O160 O 0.19233 0.76425 0.1234 0.0
O161 O 0.20293 0.90337 0.94401 0.0
O162 O 0.28528 0.95892 0.92235 0.0
O163 O 0.32006 0.76672 0.02966 0.0
O164 O 0.32991 0.83853 0.96653 0.0
C165 C 0.22879 0.94659 0.91686 0.0
C166 C 0.35397 0.79944 0.99792 0.0
O167 O 0.15859 0.81131 0.04169 0.0
Mg168 Mg 0.25158 0.42376 0.99627 0.0
O169 O 0.28374 0.52578 0.99003 0.0
O170 O 0.20975 0.57028 0.94919 0.0
Mg171 Mg 0.14537 0.53417 0.01457 0.0
C172 C 0.26144 0.55438 0.94682 0.0
C173 C 0.34755 0.35152 0.02806 0.0
O174 O 0.30108 0.33082 0.05427 0.0
O175 O 0.26269 0.44637 0.10149 0.0
O176 O 0.20423 0.52313 0.10779 0.0
O177 O 0.21387 0.40391 0.89756 0.0
O178 O 0.16162 0.43731 0.97408 0.0
C179 C 0.24012 0.48902 0.13355 0.0
C180 C 0.16355 0.4168 0.91535 0.0
O181 O 0.34446 0.39748 0.99676 0.0
Mg182 Mg 0.78675 0.24402 0.03867 0.0
O183 O 0.74117 0.16343 0.95634 0.0
O184 O 0.81256 0.09983 0.94915 0.0
Mg185 Mg 0.89617 0.13201 0.01708 0.0
C186 C 0.76077 0.11359 0.93141 0.0
C187 C 0.65328 0.29783 0.04725 0.0
O188 O 0.62666 0.34285 0.07427 0.0
O189 O 0.76924 0.17632 0.11028 0.0
O190 O 0.83911 0.11233 0.09471 0.0
O191 O 0.83056 0.29902 0.97002 0.0
O192 O 0.86842 0.22454 0.01781 0.0
C193 C 0.79582 0.1292 0.12282 0.0
C194 C 0.87291 0.26434 0.97849 0.0
O195 O 0.70893 0.29888 0.06163 0.0
Mg196 Mg 0.13146 0.51027 0.26214 0.0
O197 O 0.17429 0.57602 0.35378 0.0
O198 O 0.24564 0.5139 0.37134 0.0
Mg199 Mg 0.22711 0.41083 0.32303 0.0
C200 C 0.2242 0.56621 0.38263 0.0
C201 C 0.06749 0.62518 0.20601 0.0
O202 O 0.05088 0.65229 0.15675 0.0
O203 O 0.22191 0.53292 0.23272 0.0
O204 O 0.24188 0.43533 0.22292 0.0
O205 O 0.0495 0.47073 0.2969 0.0
O206 O 0.13344 0.43033 0.31411 0.0
C207 C 0.24218 0.48827 0.20187 0.0
C208 C 0.07737 0.42757 0.3191 0.0
O209 O 0.1026 0.58365 0.20018 0.0
Mg210 Mg 0.75158 0.92376 0.49624 0.0
O211 O 0.78371 0.02579 0.49 0.0
O212 O 0.70971 0.07028 0.44917 0.0
Mg213 Mg 0.64534 0.03414 0.51455 0.0
C214 C 0.7614 0.05439 0.4468 0.0
C215 C 0.84758 0.85154 0.52801 0.0
O216 O 0.80111 0.83083 0.55423 0.0
O217 O 0.7627 0.94636 0.60146 0.0
O218 O 0.70421 0.02311 0.60777 0.0
O219 O 0.71386 0.90391 0.39753 0.0
O220 O 0.66161 0.93729 0.47406 0.0
C221 C 0.74012 0.98901 0.63352 0.0
C222 C 0.66354 0.91678 0.41532 0.0
O223 O 0.84447 0.89751 0.49672 0.0
Mg224 Mg 0.81744 0.01479 0.27923 0.0
O225 O 0.88541 0.10238 0.30609 0.0
O226 O 0.94132 0.09064 0.39476 0.0
Mg227 Mg 0.90449 0.99808 0.42829 0.0
C228 C 0.9278 0.12254 0.35001 0.0
C229 C 0.78116 0.09617 0.17553 0.0
O230 O 0.75559 0.12435 0.22097 0.0
O231 O 0.88624 0.95008 0.24779 0.0
O232 O 0.92705 0.9348 0.34337 0.0
O233 O 0.75614 0.06532 0.33615 0.0
O234 O 0.8181 1.0031 0.37422 0.0
C235 C 0.92027 0.92207 0.28332 0.0
C236 C 0.78038 0.04221 0.38411 0.0
O237 O 0.80475 0.04643 0.18344 0.0
Mg238 Mg 0.28681 0.74399 0.53875 0.0
O239 O 0.24118 0.66342 0.4564 0.0
O240 O 0.31256 0.59982 0.44918 0.0
Mg241 Mg 0.39619 0.63195 0.51708 0.0
C242 C 0.26077 0.61359 0.43146 0.0
C243 C 0.15338 0.79786 0.54738 0.0
O244 O 0.12678 0.84285 0.57448 0.0
O245 O 0.26931 0.67628 0.61033 0.0
O246 O 0.33916 0.61226 0.59473 0.0
O247 O 0.3306 0.799 0.47009 0.0
O248 O 0.36846 0.72449 0.51784 0.0
C249 C 0.29588 0.62914 0.62285 0.0
C250 C 0.37294 0.7643 0.47852 0.0
O251 O 0.20902 0.79885 0.56179 0.0
Mg252 Mg 0.31747 0.51474 0.77926 0.0
O253 O 0.38543 0.60234 0.8061 0.0
O254 O 0.44134 0.59062 0.89477 0.0
Mg255 Mg 0.40453 0.49806 0.92831 0.0
C256 C 0.42782 0.62251 0.85002 0.0
C257 C 0.28121 0.59611 0.67556 0.0
O258 O 0.25566 0.62431 0.72101 0.0
O259 O 0.38628 0.45004 0.74782 0.0
O260 O 0.42709 0.43477 0.8434 0.0
O261 O 0.25617 0.56528 0.83617 0.0
O262 O 0.31813 0.50307 0.87425 0.0
C263 C 0.42031 0.42203 0.78335 0.0
C264 C 0.28041 0.54218 0.88413 0.0
O265 O 0.30479 0.54636 0.68346 0.0
Mg266 Mg 0.63146 0.01024 0.76211 0.0
O267 O 0.67429 0.076 0.85375 0.0
O268 O 0.74565 0.0139 0.87131 0.0
Mg269 Mg 0.72712 0.91082 0.82301 0.0
C270 C 0.72421 0.0662 0.88259 0.0
C271 C 0.56749 0.12514 0.706 0.0
O272 O 0.55087 0.15225 0.65674 0.0
O273 O 0.72192 0.0329 0.7327 0.0
O274 O 0.74189 0.93531 0.72289 0.0
O275 O 0.54951 0.97069 0.79686 0.0
O276 O 0.63345 0.9303 0.8141 0.0
C277 C 0.74218 0.98825 0.70184 0.0
C278 C 0.57738 0.92754 0.81907 0.0
O279 O 0.6026 0.08361 0.70014 0.0
Mg280 Mg 0.76564 0.56704 0.01851 0.0
O281 O 0.83964 0.64749 0.07047 0.0
O282 O 0.85102 0.71422 0.99941 0.0
Mg283 Mg 0.79186 0.67849 0.90614 0.0
C284 C 0.86426 0.69855 0.05414 0.0
C285 C 0.73231 0.53334 0.15934 0.0
O286 O 0.73039 0.49163 0.19901 0.0
O287 O 0.6908 0.63009 0.02616 0.0
O288 O 0.70862 0.69617 0.9558 0.0
O289 O 0.83205 0.51188 0.98041 0.0
O290 O 0.7892 0.58059 0.92804 0.0
C291 C 0.67791 0.67631 0.9974 0.0
C292 C 0.82646 0.53965 0.93045 0.0
O293 O 0.75578 0.52115 0.10909 0.0
Mg294 Mg 0.95551 0.51804 0.78246 0.0
O295 O 0.88756 0.49117 0.69485 0.0
O296 O 0.83167 0.4025 0.70657 0.0
Mg297 Mg 0.86848 0.36898 0.79914 0.0
C298 C 0.8452 0.44724 0.67466 0.0
C299 C -0.00822 0.62175 0.70107 0.0
O300 O 0.01734 0.5763 0.67289 0.0
O301 O 0.88669 0.54947 0.84714 0.0
O302 O 0.84589 0.45388 0.86242 0.0
O303 O 0.01685 0.46113 0.73196 0.0
O304 O 0.95487 0.42306 0.79416 0.0
C305 C 0.85266 0.51393 0.87515 0.0
C306 C -0.00739 0.41318 0.75507 0.0
O307 O 0.96819 0.61383 0.75082 0.0
Mg308 Mg 0.74583 0.32794 0.49747 0.0
O309 O 0.78078 0.39367 0.58751 0.0
O310 O 0.85935 0.45753 0.56953 0.0
Mg311 Mg 0.87387 0.4345 0.46537 0.0
C312 C 0.82402 0.43687 0.60666 0.0
C313 C 0.64966 0.28881 0.59239 0.0
O314 O 0.69233 0.26419 0.62337 0.0
O315 O 0.70295 0.40334 0.44398 0.0
O316 O 0.7853 0.45887 0.4223 0.0
O317 O 0.82008 0.26671 0.52968 0.0
O318 O 0.82992 0.3385 0.46652 0.0
C319 C 0.7288 0.44655 0.41681 0.0
C320 C 0.85399 0.29943 0.49793 0.0
O321 O 0.65861 0.31131 0.5417 0.0
Mg322 Mg 0.6415 0.5351 0.28697 0.0
O323 O 0.59863 0.44348 0.22121 0.0
O324 O 0.5273 0.42593 0.28335 0.0
Mg325 Mg 0.54586 0.47423 0.38643 0.0
C326 C 0.54872 0.41464 0.23104 0.0
C327 C 0.70547 0.59122 0.17205 0.0
O328 O 0.72208 0.64048 0.14494 0.0
O329 O 0.55107 0.56458 0.26435 0.0
O330 O 0.53111 0.57435 0.36194 0.0
O331 O 0.72345 0.50031 0.32648 0.0
O332 O 0.63952 0.48312 0.3669 0.0
C333 C 0.53081 0.59542 0.30902 0.0
C334 C 0.69559 0.47813 0.36965 0.0
O335 O 0.67036 0.59707 0.21359 0.0
loop_
_geom_bond_atom_site_label_1
_geom_bond_atom_site_label_2
_geom_bond_distance
_geom_bond_site_symmetry_2
_ccdc_geom_bond_type
Mg0 O1 2.028 . S
Mg0 O7 1.986 . S
Mg0 O9 2.114 1_455 S
Mg0 O10 2.251 1_455 S
Mg0 O13 2.010 . S
O1 Mg0 2.028 . S
O1 C4 1.250 1_455 S
O2 Mg3 2.028 . S
O2 C4 1.248 . S
Mg3 O2 2.028 . S
Mg3 O8 2.032 . S
Mg3 O10 2.079 . S
C4 O1 1.250 1_655 S
C4 O2 1.248 . S
C5 O6 1.264 . S
C5 O13 1.249 . S
O6 C5 1.264 . S
O7 Mg0 1.986 . S
O7 C11 1.246 . S
O8 Mg3 2.032 . S
O8 C11 1.259 1_655 S
O9 Mg0 2.114 1_655 S
O9 C12 1.252 . S
O10 Mg0 2.251 1_655 S
O10 Mg3 2.079 . S
O10 C12 1.273 . S
C11 O7 1.246 . S
C11 O8 1.259 1_455 S
C12 O9 1.252 . S
C12 O10 1.273 . S
O13 Mg0 2.010 . S
O13 C5 1.249 . S
Mg14 O15 2.028 . S
Mg14 O21 1.986 . S
Mg14 O23 2.114 1_455 S
Mg14 O24 2.251 1_455 S
Mg14 O27 2.010 . S
O15 Mg14 2.028 . S
O15 C18 1.250 . S
O16 Mg17 2.028 1_455 S
O16 C18 1.248 . S
Mg17 O16 2.028 1_655 S
Mg17 O22 2.032 . S
Mg17 O24 2.079 . S
C18 O15 1.250 . S
C18 O16 1.248 . S
C19 O20 1.264 . S
C19 O27 1.249 . S
O20 C19 1.264 . S
O21 Mg14 1.986 . S
O21 C25 1.246 1_455 S
O22 Mg17 2.032 . S
O22 C25 1.259 . S
O23 Mg14 2.114 1_655 S
O23 C26 1.252 . S
O24 Mg14 2.251 1_655 S
O24 Mg17 2.079 . S
O24 C26 1.273 . S
C25 O21 1.246 1_655 S
C25 O22 1.259 . S
C26 O23 1.252 . S
C26 O24 1.273 . S
O27 Mg14 2.010 . S
O27 C19 1.249 . S
Mg28 O29 2.028 . S
Mg28 O35 1.986 . S
Mg28 O37 2.114 . S
Mg28 O38 2.251 . S
Mg28 O41 2.010 . S
O29 Mg28 2.028 . S
O29 C32 1.250 . S
O30 Mg31 2.028 . S
O30 C32 1.248 . S
Mg31 O30 2.028 . S
Mg31 O36 2.032 . S
Mg31 O38 2.079 . S
C32 O29 1.250 . S
C32 O30 1.248 . S
C33 O34 1.264 . S
C33 O41 1.249 1_554 S
O34 C33 1.264 . S
O35 Mg28 1.986 . S
O35 C39 1.246 . S
O36 Mg31 2.032 . S
O36 C39 1.259 . S
O37 Mg28 2.114 . S
O37 C40 1.252 . S
O38 Mg28 2.251 . S
O38 Mg31 2.079 . S
O38 C40 1.273 . S
C39 O35 1.246 . S
C39 O36 1.259 . S
C40 O37 1.252 . S
C40 O38 1.273 . S
O41 Mg28 2.010 . S
O41 C33 1.249 1_556 S
Mg42 O43 2.028 . S
Mg42 O49 1.986 . S
Mg42 O51 2.114 . S
Mg42 O52 2.251 . S
Mg42 O55 2.010 . S
O43 Mg42 2.028 . S
O43 C46 1.250 . S
O44 Mg45 2.028 . S
O44 C46 1.248 . S
Mg45 O44 2.028 . S
Mg45 O50 2.032 . S
Mg45 O52 2.079 . S
C46 O43 1.250 . S
C46 O44 1.248 . S
C47 O48 1.264 1_554 S
C47 O55 1.249 . S
O48 C47 1.264 1_556 S
O49 Mg42 1.986 . S
O49 C53 1.246 . S
O50 Mg45 2.032 . S
O50 C53 1.259 . S
O51 Mg42 2.114 . S
O51 C54 1.252 . S
O52 Mg42 2.251 . S
O52 Mg45 2.079 . S
O52 C54 1.273 . S
C53 O49 1.246 . S
C53 O50 1.259 . S
C54 O51 1.252 . S
C54 O52 1.273 . S
O55 Mg42 2.010 . S
O55 C47 1.249 . S
Mg56 O57 2.028 1_455 S
Mg56 O63 1.986 . S
Mg56 O65 2.114 1_455 S
Mg56 O66 2.251 1_455 S
Mg56 O69 2.010 . S
O57 Mg56 2.028 1_655 S
O57 C60 1.250 . S
O58 Mg59 2.028 . S
O58 C60 1.248 . S
Mg59 O58 2.028 . S
Mg59 O64 2.032 1_655 S
Mg59 O66 2.079 . S
C60 O57 1.250 . S
C60 O58 1.248 . S
C61 O62 1.264 . S
C61 O69 1.249 . S
O62 C61 1.264 . S
O63 Mg56 1.986 . S
O63 C67 1.246 . S
O64 Mg59 2.032 1_455 S
O64 C67 1.259 . S
O65 Mg56 2.114 1_655 S
O65 C68 1.252 . S
O66 Mg56 2.251 1_655 S
O66 Mg59 2.079 . S
O66 C68 1.273 . S
C67 O63 1.246 . S
C67 O64 1.259 . S
C68 O65 1.252 . S
C68 O66 1.273 . S
O69 Mg56 2.010 . S
O69 C61 1.249 . S
Mg70 O71 2.028 . S
Mg70 O77 1.986 . S
Mg70 O79 2.114 . S
Mg70 O80 2.251 . S
Mg70 O83 2.010 . S
O71 Mg70 2.028 . S
O71 C74 1.250 . S
O72 Mg73 2.028 . S
O72 C74 1.248 . S
Mg73 O72 2.028 . S
Mg73 O78 2.032 . S
Mg73 O80 2.079 . S
C74 O71 1.250 . S
C74 O72 1.248 . S
C75 O76 1.264 . S
C75 O83 1.249 . S
O76 C75 1.264 . S
O77 Mg70 1.986 . S
O77 C81 1.246 . S
O78 Mg73 2.032 . S
O78 C81 1.259 . S
O79 Mg70 2.114 . S
O79 C82 1.252 . S
O80 Mg70 2.251 . S
O80 Mg73 2.079 . S
O80 C82 1.273 . S
C81 O77 1.246 . S
C81 O78 1.259 . S
C82 O79 1.252 . S
C82 O80 1.273 . S
O83 Mg70 2.010 . S
O83 C75 1.249 . S
Mg84 O85 2.028 . S
Mg84 O91 1.986 . S
Mg84 O93 2.114 . S
Mg84 O94 2.251 . S
Mg84 O97 2.010 . S
O85 Mg84 2.028 . S
O85 C88 1.250 . S
O86 Mg87 2.028 . S
O86 C88 1.248 . S
Mg87 O86 2.028 . S
Mg87 O92 2.032 . S
Mg87 O94 2.079 . S
C88 O85 1.250 . S
C88 O86 1.248 . S
C89 O90 1.264 . S
C89 O97 1.249 . S
O90 C89 1.264 . S
O91 Mg84 1.986 . S
O91 C95 1.246 . S
O92 Mg87 2.032 . S
O92 C95 1.259 . S
O93 Mg84 2.114 . S
O93 C96 1.252 . S
O94 Mg84 2.251 . S
O94 Mg87 2.079 . S
O94 C96 1.273 . S
C95 O91 1.246 . S
C95 O92 1.259 . S
C96 O93 1.252 . S
C96 O94 1.273 . S
O97 Mg84 2.010 . S
O97 C89 1.249 . S
Mg98 O99 2.028 1_455 S
Mg98 O105 1.986 . S
Mg98 O107 2.114 . S
Mg98 O108 2.251 . S
Mg98 O111 2.010 1_455 S
O99 Mg98 2.028 1_655 S
O99 C102 1.250 . S
O100 Mg101 2.028 . S
O100 C102 1.248 1_455 S
Mg101 O100 2.028 . S
Mg101 O106 2.032 . S
Mg101 O108 2.079 . S
C102 O99 1.250 . S
C102 O100 1.248 1_655 S
C103 O104 1.264 1_556 S
C103 O111 1.249 . S
O104 C103 1.264 1_554 S
O105 Mg98 1.986 . S
O105 C109 1.246 . S
O106 Mg101 2.032 . S
O106 C109 1.259 . S
O107 Mg98 2.114 . S
O107 C110 1.252 . S
O108 Mg98 2.251 . S
O108 Mg101 2.079 . S
O108 C110 1.273 . S
C109 O105 1.246 . S
C109 O106 1.259 . S
C110 O107 1.252 . S
C110 O108 1.273 . S
O111 Mg98 2.010 1_655 S
O111 C103 1.249 . S
Mg112 O113 2.028 1_545 S
Mg112 O119 1.986 . S
Mg112 O121 2.114 1_545 S
Mg112 O122 2.251 1_545 S
Mg112 O125 2.010 . S
O113 Mg112 2.028 1_565 S
O113 C116 1.250 . S
O114 Mg115 2.028 . S
O114 C116 1.248 . S
Mg115 O114 2.028 . S
Mg115 O120 2.032 . S
Mg115 O122 2.079 . S
C116 O113 1.250 . S
C116 O114 1.248 . S
C117 O118 1.264 . S
C117 O125 1.249 . S
O118 C117 1.264 . S
O119 Mg112 1.986 . S
O119 C123 1.246 . S
O120 Mg115 2.032 . S
O120 C123 1.259 1_565 S
O121 Mg112 2.114 1_565 S
O121 C124 1.252 . S
O122 Mg112 2.251 1_565 S
O122 Mg115 2.079 . S
O122 C124 1.273 . S
C123 O119 1.246 . S
C123 O120 1.259 1_545 S
C124 O121 1.252 . S
C124 O122 1.273 . S
O125 Mg112 2.010 . S
O125 C117 1.249 . S
Mg126 O127 2.028 . S
Mg126 O133 1.986 . S
Mg126 O135 2.114 . S
Mg126 O136 2.251 . S
Mg126 O139 2.010 . S
O127 Mg126 2.028 . S
O127 C130 1.250 . S
O128 Mg129 2.028 . S
O128 C130 1.248 . S
Mg129 O128 2.028 . S
Mg129 O134 2.032 . S
Mg129 O136 2.079 . S
C130 O127 1.250 . S
C130 O128 1.248 . S
C131 O132 1.264 1_545 S
C131 O139 1.249 . S
O132 C131 1.264 1_565 S
O133 Mg126 1.986 . S
O133 C137 1.246 . S
O134 Mg129 2.032 . S
O134 C137 1.259 . S
O135 Mg126 2.114 . S
O135 C138 1.252 . S
O136 Mg126 2.251 . S
O136 Mg129 2.079 . S
O136 C138 1.273 . S
C137 O133 1.246 . S
C137 O134 1.259 . S
C138 O135 1.252 . S
C138 O136 1.273 . S
O139 Mg126 2.010 . S
O139 C131 1.249 . S
Mg140 O141 2.028 1_545 S
Mg140 O147 1.986 . S
Mg140 O149 2.114 1_545 S
Mg140 O150 2.251 1_545 S
Mg140 O153 2.010 . S
O141 Mg140 2.028 1_565 S
O141 C144 1.250 . S
O142 Mg143 2.028 . S
O142 C144 1.248 . S
Mg143 O142 2.028 . S
Mg143 O148 2.032 1_565 S
Mg143 O150 2.079 . S
C144 O141 1.250 . S
C144 O142 1.248 . S
C145 O146 1.264 . S
C145 O153 1.249 . S
O146 C145 1.264 . S
O147 Mg140 1.986 . S
O147 C151 1.246 . S
O148 Mg143 2.032 1_545 S
O148 C151 1.259 . S
O149 Mg140 2.114 1_565 S
O149 C152 1.252 . S
O150 Mg140 2.251 1_565 S
O150 Mg143 2.079 . S
O150 C152 1.273 . S
C151 O147 1.246 . S
C151 O148 1.259 . S
C152 O149 1.252 . S
C152 O150 1.273 . S
O153 Mg140 2.010 . S
O153 C145 1.249 . S
Mg154 O155 2.028 1_556 S
Mg154 O161 1.986 . S
Mg154 O163 2.114 1_556 S
Mg154 O164 2.251 . S
Mg154 O167 2.010 1_556 S
O155 Mg154 2.028 1_554 S
O155 C158 1.250 . S
O156 Mg157 2.028 1_554 S
O156 C158 1.248 . S
Mg157 O156 2.028 1_556 S
Mg157 O162 2.032 . S
Mg157 O164 2.079 . S
C158 O155 1.250 . S
C158 O156 1.248 . S
C159 O160 1.264 . S
C159 O167 1.249 . S
O160 C159 1.264 . S
O161 Mg154 1.986 . S
O161 C165 1.246 . S
O162 Mg157 2.032 . S
O162 C165 1.259 . S
O163 Mg154 2.114 1_554 S
O163 C166 1.252 1_554 S
O164 Mg154 2.251 . S
O164 Mg157 2.079 . S
O164 C166 1.273 . S
C165 O161 1.246 . S
C165 O162 1.259 . S
C166 O163 1.252 1_556 S
C166 O164 1.273 . S
O167 Mg154 2.010 1_554 S
O167 C159 1.249 . S
Mg168 O169 2.028 1_554 S
Mg168 O175 1.986 . S
Mg168 O177 2.114 1_554 S
Mg168 O178 2.251 1_554 S
Mg168 O181 2.010 . S
O169 Mg168 2.028 1_556 S
O169 C172 1.250 . S
O170 Mg171 2.028 . S
O170 C172 1.248 . S
Mg171 O170 2.028 . S
Mg171 O176 2.032 1_556 S
Mg171 O178 2.079 . S
C172 O169 1.250 . S
C172 O170 1.248 . S
C173 O174 1.264 . S
C173 O181 1.249 . S
O174 C173 1.264 . S
O175 Mg168 1.986 . S
O175 C179 1.246 . S
O176 Mg171 2.032 1_554 S
O176 C179 1.259 . S
O177 Mg168 2.114 1_556 S
O177 C180 1.252 . S
O178 Mg168 2.251 1_556 S
O178 Mg171 2.079 . S
O178 C180 1.273 . S
C179 O175 1.246 . S
C179 O176 1.259 . S
C180 O177 1.252 . S
C180 O178 1.273 . S
O181 Mg168 2.010 . S
O181 C173 1.249 . S
Mg182 O183 2.028 1_554 S
Mg182 O189 1.986 . S
Mg182 O191 2.114 1_554 S
Mg182 O192 2.251 1_554 S
Mg182 O195 2.010 . S
O183 Mg182 2.028 1_556 S
O183 C186 1.250 . S
O184 Mg185 2.028 . S
O184 C186 1.248 . S
Mg185 O184 2.028 . S
Mg185 O190 2.032 1_556 S
Mg185 O192 2.079 . S
C186 O183 1.250 . S
C186 O184 1.248 . S
C187 O188 1.264 . S
C187 O195 1.249 . S
O188 C187 1.264 . S
O189 Mg182 1.986 . S
O189 C193 1.246 . S
O190 Mg185 2.032 1_554 S
O190 C193 1.259 . S
O191 Mg182 2.114 1_556 S
O191 C194 1.252 . S
O192 Mg182 2.251 1_556 S
O192 Mg185 2.079 . S
O192 C194 1.273 . S
C193 O189 1.246 . S
C193 O190 1.259 . S
C194 O191 1.252 . S
C194 O192 1.273 . S
O195 Mg182 2.010 . S
O195 C187 1.249 . S
Mg196 O197 2.028 . S
Mg196 O203 1.986 . S
Mg196 O205 2.114 . S
Mg196 O206 2.251 . S
Mg196 O209 2.010 . S
O197 Mg196 2.028 . S
O197 C200 1.250 . S
O198 Mg199 2.028 . S
O198 C200 1.248 . S
Mg199 O198 2.028 . S
Mg199 O204 2.032 . S
Mg199 O206 2.079 . S
C200 O197 1.250 . S
C200 O198 1.248 . S
C201 O202 1.264 1_455 S
C201 O209 1.249 . S
O202 C201 1.264 1_655 S
O203 Mg196 1.986 . S
O203 C207 1.246 . S
O204 Mg199 2.032 . S
O204 C207 1.259 . S
O205 Mg196 2.114 . S
O205 C208 1.252 . S
O206 Mg196 2.251 . S
O206 Mg199 2.079 . S
O206 C208 1.273 . S
C207 O203 1.246 . S
C207 O204 1.259 . S
C208 O205 1.252 . S
C208 O206 1.273 . S
O209 Mg196 2.010 . S
O209 C201 1.249 . S
Mg210 O211 2.028 . S
Mg210 O217 1.986 . S
Mg210 O219 2.114 . S
Mg210 O220 2.251 . S
Mg210 O223 2.010 . S
O211 Mg210 2.028 . S
O211 C214 1.250 . S
O212 Mg213 2.029 . S
O212 C214 1.248 1_545 S
Mg213 O212 2.029 . S
Mg213 O218 2.034 . S
Mg213 O220 2.062 1_545 S
C214 O211 1.250 . S
C214 O212 1.248 1_565 S
C215 O216 1.264 . S
C215 O223 1.249 . S
O216 C215 1.264 . S
O217 Mg210 1.986 . S
O217 C221 1.246 1_565 S
O218 Mg213 2.034 . S
O218 C221 1.259 . S
O219 Mg210 2.114 . S
O219 C222 1.252 . S
O220 Mg210 2.251 . S
O220 Mg213 2.062 1_565 S
O220 C222 1.273 . S
C221 O217 1.246 1_545 S
C221 O218 1.259 . S
C222 O219 1.252 . S
C222 O220 1.273 . S
O223 Mg210 2.010 . S
O223 C215 1.249 . S
Mg224 O225 2.028 . S
Mg224 O231 1.986 1_545 S
Mg224 O233 2.114 . S
Mg224 O234 2.251 1_545 S
Mg224 O237 2.010 . S
O225 Mg224 2.028 . S
O225 C228 1.250 . S
O226 Mg227 2.028 1_545 S
O226 C228 1.248 . S
Mg227 O226 2.028 1_565 S
Mg227 O232 2.032 . S
Mg227 O234 2.079 . S
C228 O225 1.250 . S
C228 O226 1.248 . S
C229 O230 1.264 . S
C229 O237 1.249 . S
O230 C229 1.264 . S
O231 Mg224 1.986 1_565 S
O231 C235 1.246 . S
O232 Mg227 2.032 . S
O232 C235 1.259 . S
O233 Mg224 2.114 . S
O233 C236 1.252 1_545 S
O234 Mg224 2.251 1_565 S
O234 Mg227 2.079 . S
O234 C236 1.273 . S
C235 O231 1.246 . S
C235 O232 1.259 . S
C236 O233 1.252 1_565 S
C236 O234 1.273 . S
O237 Mg224 2.010 . S
O237 C229 1.249 . S
Mg238 O239 2.028 . S
Mg238 O245 1.986 . S
Mg238 O247 2.114 . S
Mg238 O248 2.251 . S
Mg238 O251 2.010 . S
O239 Mg238 2.028 . S
O239 C242 1.250 . S
O240 Mg241 2.028 . S
O240 C242 1.248 . S
Mg241 O240 2.028 . S
Mg241 O246 2.032 . S
Mg241 O248 2.079 . S
C242 O239 1.250 . S
C242 O240 1.248 . S
C243 O244 1.264 . S
C243 O251 1.249 . S
O244 C243 1.264 . S
O245 Mg238 1.986 . S
O245 C249 1.246 . S
O246 Mg241 2.032 . S
O246 C249 1.259 . S
O247 Mg238 2.114 . S
O247 C250 1.252 . S
O248 Mg238 2.251 . S
O248 Mg241 2.079 . S
O248 C250 1.273 . S
C249 O245 1.246 . S
C249 O246 1.259 . S
C250 O247 1.252 . S
C250 O248 1.273 . S
O251 Mg238 2.010 . S
O251 C243 1.249 . S
Mg252 O253 2.028 . S
Mg252 O259 1.986 . S
Mg252 O261 2.114 . S
Mg252 O262 2.251 . S
Mg252 O265 2.010 . S
O253 Mg252 2.028 . S
O253 C256 1.250 . S
O254 Mg255 2.028 . S
O254 C256 1.248 . S
Mg255 O254 2.028 . S
Mg255 O260 2.032 . S
Mg255 O262 2.079 . S
C256 O253 1.250 . S
C256 O254 1.248 . S
C257 O258 1.264 . S
C257 O265 1.249 . S
O258 C257 1.264 . S
O259 Mg252 1.986 . S
O259 C263 1.246 . S
O260 Mg255 2.032 . S
O260 C263 1.259 . S
O261 Mg252 2.114 . S
O261 C264 1.252 . S
O262 Mg252 2.251 . S
O262 Mg255 2.079 . S
O262 C264 1.273 . S
C263 O259 1.246 . S
C263 O260 1.259 . S
C264 O261 1.252 . S
C264 O262 1.273 . S
O265 Mg252 2.010 . S
O265 C257 1.249 . S
Mg266 O267 2.028 . S
Mg266 O273 1.986 . S
Mg266 O275 2.114 1_545 S
Mg266 O276 2.251 1_545 S
Mg266 O279 2.010 . S
O267 Mg266 2.028 . S
O267 C270 1.250 . S
O268 Mg269 2.028 1_545 S
O268 C270 1.248 . S
Mg269 O268 2.028 1_565 S
Mg269 O274 2.032 . S
Mg269 O276 2.079 . S
C270 O267 1.250 . S
C270 O268 1.248 . S
C271 O272 1.264 . S
C271 O279 1.249 . S
O272 C271 1.264 . S
O273 Mg266 1.986 . S
O273 C277 1.246 1_545 S
O274 Mg269 2.032 . S
O274 C277 1.259 . S
O275 Mg266 2.114 1_565 S
O275 C278 1.252 . S
O276 Mg266 2.251 1_565 S
O276 Mg269 2.079 . S
O276 C278 1.273 . S
C277 O273 1.246 1_565 S
C277 O274 1.259 . S
C278 O275 1.252 . S
C278 O276 1.273 . S
O279 Mg266 2.010 . S
O279 C271 1.249 . S
Mg280 O281 2.038 . S
Mg280 O287 1.984 1_554 S
Mg280 O289 2.108 1_554 S
Mg280 O290 2.235 1_554 S
Mg280 O293 2.025 . S
O281 Mg280 2.038 . S
O281 C284 1.250 . S
O282 Mg283 2.028 1_554 S
O282 C284 1.248 . S
Mg283 O282 2.028 1_556 S
Mg283 O288 2.032 . S
Mg283 O290 2.079 . S
C284 O281 1.250 . S
C284 O282 1.248 . S
C285 O286 1.264 . S
C285 O293 1.249 . S
O286 C285 1.264 . S
O287 Mg280 1.984 1_556 S
O287 C291 1.246 . S
O288 Mg283 2.032 . S
O288 C291 1.259 . S
O289 Mg280 2.108 1_556 S
O289 C292 1.252 . S
O290 Mg280 2.235 1_556 S
O290 Mg283 2.079 . S
O290 C292 1.273 . S
C291 O287 1.246 . S
C291 O288 1.259 . S
C292 O289 1.252 . S
C292 O290 1.273 . S
O293 Mg280 2.025 . S
O293 C285 1.249 . S
Mg294 O295 2.028 . S
Mg294 O301 1.986 . S
Mg294 O303 2.114 . S
Mg294 O304 2.251 . S
Mg294 O307 2.010 . S
O295 Mg294 2.028 . S
O295 C298 1.250 . S
O296 Mg297 2.028 . S
O296 C298 1.248 . S
Mg297 O296 2.028 . S
Mg297 O302 2.032 . S
Mg297 O304 2.079 . S
C298 O295 1.250 . S
C298 O296 1.248 . S
C299 O300 1.264 . S
C299 O307 1.249 1_455 S
O300 C299 1.264 . S
O301 Mg294 1.986 . S
O301 C305 1.246 . S
O302 Mg297 2.032 . S
O302 C305 1.259 . S
O303 Mg294 2.114 . S
O303 C306 1.252 . S
O304 Mg294 2.251 . S
O304 Mg297 2.079 . S
O304 C306 1.273 . S
C305 O301 1.246 . S
C305 O302 1.259 . S
C306 O303 1.252 . S
C306 O304 1.273 . S
O307 Mg294 2.010 . S
O307 C299 1.249 1_655 S
Mg308 O309 2.028 . S
Mg308 O315 1.986 . S
Mg308 O317 2.114 . S
Mg308 O318 2.251 . S
Mg308 O321 2.010 . S
O309 Mg308 2.028 . S
O309 C312 1.250 . S
O310 Mg311 2.028 . S
O310 C312 1.248 . S
Mg311 O310 2.028 . S
Mg311 O316 2.032 . S
Mg311 O318 2.079 . S
C312 O309 1.250 . S
C312 O310 1.248 . S
C313 O314 1.264 . S
C313 O321 1.249 . S
O314 C313 1.264 . S
O315 Mg308 1.986 . S
O315 C319 1.246 . S
O316 Mg311 2.032 . S
O316 C319 1.259 . S
O317 Mg308 2.114 . S
O317 C320 1.252 . S
O318 Mg308 2.251 . S
O318 Mg311 2.079 . S
O318 C320 1.273 . S
C319 O315 1.246 . S
C319 O316 1.259 . S
C320 O317 1.252 . S
C320 O318 1.273 . S
O321 Mg308 2.010 . S
O321 C313 1.249 . S
Mg322 O323 2.028 . S
Mg322 O329 1.986 . S
Mg322 O331 2.114 . S
Mg322 O332 2.251 . S
Mg322 O335 2.010 . S
O323 Mg322 2.028 . S
O323 C326 1.250 . S
O324 Mg325 2.028 . S
O324 C326 1.248 . S
Mg325 O324 2.028 . S
Mg325 O330 2.032 . S
Mg325 O332 2.079 . S
C326 O323 1.250 . S
C326 O324 1.248 . S
C327 O328 1.264 . S
C327 O335 1.249 . S
O328 C327 1.264 . S
O329 Mg322 1.986 . S
O329 C333 1.246 . S
O330 Mg325 2.032 . S
O330 C333 1.259 . S
O331 Mg322 2.114 . S
O331 C334 1.252 . S
O332 Mg322 2.251 . S
O332 Mg325 2.079 . S
O332 C334 1.273 . S
C333 O329 1.246 . S
C333 O330 1.259 . S
C334 O331 1.252 . S
C334 O332 1.273 . S
O335 Mg322 2.010 . S
O335 C327 1.249 . S
C208 C11 1.489 . S
C26 C215 1.287 . S
C256 C32 1.910 . S
C47 C187 2.025 . S
C201 C61 1.845 . S
C82 C222 1.420 . S
C96 C263 1.489 . S
C103 C194 1.287 . S
C138 C123 1.489 . S
C145 C131 1.845 . S
C152 C165 1.489 . S
C158 C116 1.910 . S
C173 C54 1.287 . S
C68 C235 1.489 . S
C243 C19 2.025 . S
C25 C299 1.756 1_655 S
C137 C5 1.794 . S
C326 C46 1.309 . S
C166 C40 1.733 . S
C306 C102 1.726 . S
C130 C88 1.491 . S
C81 C333 2.162 . S
C67 C159 1.794 . S
C221 C277 2.162 1_545 S
C236 C214 1.726 . S
C193 C229 1.756 . S
C270 C186 1.309 . S
C33 C291 1.794 1_554 S
C151 C109 2.162 . S
C12 C320 1.733 . S
C278 C39 1.489 . S
C4 C228 1.910 . S
C271 C89 1.845 . S
C180 C110 1.420 . S
C75 C250 1.287 . S
C305 C292 1.489 . S
C327 C285 1.845 . S
C319 C334 1.489 . S
C298 C312 1.910 . S
C117 C53 1.756 . S
C18 C144 1.309 . S
C74 C124 1.726 . S
C284 C60 1.491 . S
C95 C313 1.794 . S
C179 C207 2.162 . S
C264 C172 1.726 . S
C249 C257 1.756 . S
C200 C242 1.309 . S
