# Generated by pormake.
# Topology wgp, (5)-cn, num edge types: 1
# Building blocks:
#     Node 0, Type 0, BuildingBlock: XOMCOT_clean_sbu_1, # of connection points: 5
#     Node 1, Type 0, BuildingBlock: XOMCOT_clean_sbu_1, # of connection points: 5
#     Node 2, Type 0, BuildingBlock: XOMCOT_clean_sbu_1, # of connection points: 5
#     Node 3, Type 0, BuildingBlock: XOMCOT_clean_sbu_1, # of connection points: 5
#     Node 4, Type 0, BuildingBlock: XOMCOT_clean_sbu_1, # of connection points: 5
#     Node 5, Type 0, BuildingBlock: XOMCOT_clean_sbu_1, # of connection points: 5
#     Node 6, Type 0, BuildingBlock: XOMCOT_clean_sbu_1, # of connection points: 5
#     Node 7, Type 0, BuildingBlock: XOMCOT_clean_sbu_1, # of connection points: 5
#     Node 8, Type 0, BuildingBlock: XOMCOT_clean_sbu_1, # of connection points: 5
#     Node 9, Type 0, BuildingBlock: XOMCOT_clean_sbu_1, # of connection points: 5
#     Node 10, Type 0, BuildingBlock: XOMCOT_clean_sbu_1, # of connection points: 5
#     Node 11, Type 0, BuildingBlock: XOMCOT_clean_sbu_1, # of connection points: 5
#     Node 12, Type 0, BuildingBlock: XOMCOT_clean_sbu_1, # of connection points: 5
#     Node 13, Type 0, BuildingBlock: XOMCOT_clean_sbu_1, # of connection points: 5
#     Node 14, Type 0, BuildingBlock: XOMCOT_clean_sbu_1, # of connection points: 5
#     Node 15, Type 0, BuildingBlock: XOMCOT_clean_sbu_1, # of connection points: 5
#     Node 16, Type 0, BuildingBlock: XOMCOT_clean_sbu_1, # of connection points: 5
#     Node 17, Type 0, BuildingBlock: XOMCOT_clean_sbu_1, # of connection points: 5
#     Node 18, Type 0, BuildingBlock: XOMCOT_clean_sbu_1, # of connection points: 5
#     Node 19, Type 0, BuildingBlock: XOMCOT_clean_sbu_1, # of connection points: 5
#     Node 20, Type 0, BuildingBlock: XOMCOT_clean_sbu_1, # of connection points: 5
#     Node 21, Type 0, BuildingBlock: XOMCOT_clean_sbu_1, # of connection points: 5
#     Node 22, Type 0, BuildingBlock: XOMCOT_clean_sbu_1, # of connection points: 5
#     Node 23, Type 0, BuildingBlock: XOMCOT_clean_sbu_1, # of connection points: 5
#     Node 24, Type 0, BuildingBlock: XOMCOT_clean_sbu_1, # of connection points: 5
#     Node 25, Type 0, BuildingBlock: XOMCOT_clean_sbu_1, # of connection points: 5
#     Node 26, Type 0, BuildingBlock: XOMCOT_clean_sbu_1, # of connection points: 5
#     Node 27, Type 0, BuildingBlock: XOMCOT_clean_sbu_1, # of connection points: 5
#     Node 28, Type 0, BuildingBlock: XOMCOT_clean_sbu_1, # of connection points: 5
#     Node 29, Type 0, BuildingBlock: XOMCOT_clean_sbu_1, # of connection points: 5
#     Node 30, Type 0, BuildingBlock: XOMCOT_clean_sbu_1, # of connection points: 5
#     Node 31, Type 0, BuildingBlock: XOMCOT_clean_sbu_1, # of connection points: 5
#     Edge 32, Type (0, 0), BuildingBlock: TEMPAE_clean_linker_10, # of connection points: 2
#     Edge 33, Type (0, 0), BuildingBlock: TEMPAE_clean_linker_10, # of connection points: 2
#     Edge 34, Type (0, 0), BuildingBlock: TEMPAE_clean_linker_10, # of connection points: 2
#     Edge 35, Type (0, 0), BuildingBlock: TEMPAE_clean_linker_10, # of connection points: 2
#     Edge 36, Type (0, 0), BuildingBlock: TEMPAE_clean_linker_10, # of connection points: 2
#     Edge 37, Type (0, 0), BuildingBlock: TEMPAE_clean_linker_10, # of connection points: 2
#     Edge 38, Type (0, 0), BuildingBlock: TEMPAE_clean_linker_10, # of connection points: 2
#     Edge 39, Type (0, 0), BuildingBlock: TEMPAE_clean_linker_10, # of connection points: 2
#     Edge 40, Type (0, 0), BuildingBlock: TEMPAE_clean_linker_10, # of connection points: 2
#     Edge 41, Type (0, 0), BuildingBlock: TEMPAE_clean_linker_10, # of connection points: 2
#     Edge 42, Type (0, 0), BuildingBlock: TEMPAE_clean_linker_10, # of connection points: 2
#     Edge 43, Type (0, 0), BuildingBlock: TEMPAE_clean_linker_10, # of connection points: 2
#     Edge 44, Type (0, 0), BuildingBlock: TEMPAE_clean_linker_10, # of connection points: 2
#     Edge 45, Type (0, 0), BuildingBlock: TEMPAE_clean_linker_10, # of connection points: 2
#     Edge 46, Type (0, 0), BuildingBlock: TEMPAE_clean_linker_10, # of connection points: 2
#     Edge 47, Type (0, 0), BuildingBlock: TEMPAE_clean_linker_10, # of connection points: 2
#     Edge 48, Type (0, 0), BuildingBlock: TEMPAE_clean_linker_10, # of connection points: 2
#     Edge 49, Type (0, 0), BuildingBlock: TEMPAE_clean_linker_10, # of connection points: 2
#     Edge 50, Type (0, 0), BuildingBlock: TEMPAE_clean_linker_10, # of connection points: 2
#     Edge 51, Type (0, 0), BuildingBlock: TEMPAE_clean_linker_10, # of connection points: 2
#     Edge 52, Type (0, 0), BuildingBlock: TEMPAE_clean_linker_10, # of connection points: 2
#     Edge 53, Type (0, 0), BuildingBlock: TEMPAE_clean_linker_10, # of connection points: 2
#     Edge 54, Type (0, 0), BuildingBlock: TEMPAE_clean_linker_10, # of connection points: 2
#     Edge 55, Type (0, 0), BuildingBlock: TEMPAE_clean_linker_10, # of connection points: 2
#     Edge 56, Type (0, 0), BuildingBlock: TEMPAE_clean_linker_10, # of connection points: 2
#     Edge 57, Type (0, 0), BuildingBlock: TEMPAE_clean_linker_10, # of connection points: 2
#     Edge 58, Type (0, 0), BuildingBlock: TEMPAE_clean_linker_10, # of connection points: 2
#     Edge 59, Type (0, 0), BuildingBlock: TEMPAE_clean_linker_10, # of connection points: 2
#     Edge 60, Type (0, 0), BuildingBlock: TEMPAE_clean_linker_10, # of connection points: 2
#     Edge 61, Type (0, 0), BuildingBlock: TEMPAE_clean_linker_10, # of connection points: 2
#     Edge 62, Type (0, 0), BuildingBlock: TEMPAE_clean_linker_10, # of connection points: 2
#     Edge 63, Type (0, 0), BuildingBlock: TEMPAE_clean_linker_10, # of connection points: 2
#     Edge 64, Type (0, 0), BuildingBlock: TEMPAE_clean_linker_10, # of connection points: 2
#     Edge 65, Type (0, 0), BuildingBlock: TEMPAE_clean_linker_10, # of connection points: 2
#     Edge 66, Type (0, 0), BuildingBlock: TEMPAE_clean_linker_10, # of connection points: 2
#     Edge 67, Type (0, 0), BuildingBlock: TEMPAE_clean_linker_10, # of connection points: 2
#     Edge 68, Type (0, 0), BuildingBlock: TEMPAE_clean_linker_10, # of connection points: 2
#     Edge 69, Type (0, 0), BuildingBlock: TEMPAE_clean_linker_10, # of connection points: 2
#     Edge 70, Type (0, 0), BuildingBlock: TEMPAE_clean_linker_10, # of connection points: 2
#     Edge 71, Type (0, 0), BuildingBlock: TEMPAE_clean_linker_10, # of connection points: 2
#     Edge 72, Type (0, 0), BuildingBlock: TEMPAE_clean_linker_10, # of connection points: 2
#     Edge 73, Type (0, 0), BuildingBlock: TEMPAE_clean_linker_10, # of connection points: 2
#     Edge 74, Type (0, 0), BuildingBlock: TEMPAE_clean_linker_10, # of connection points: 2
#     Edge 75, Type (0, 0), BuildingBlock: TEMPAE_clean_linker_10, # of connection points: 2
#     Edge 76, Type (0, 0), BuildingBlock: TEMPAE_clean_linker_10, # of connection points: 2
#     Edge 77, Type (0, 0), BuildingBlock: TEMPAE_clean_linker_10, # of connection points: 2
#     Edge 78, Type (0, 0), BuildingBlock: TEMPAE_clean_linker_10, # of connection points: 2
#     Edge 79, Type (0, 0), BuildingBlock: TEMPAE_clean_linker_10, # of connection points: 2
#     Edge 80, Type (0, 0), BuildingBlock: TEMPAE_clean_linker_10, # of connection points: 2
#     Edge 81, Type (0, 0), BuildingBlock: TEMPAE_clean_linker_10, # of connection points: 2
#     Edge 82, Type (0, 0), BuildingBlock: TEMPAE_clean_linker_10, # of connection points: 2
#     Edge 83, Type (0, 0), BuildingBlock: TEMPAE_clean_linker_10, # of connection points: 2
#     Edge 84, Type (0, 0), BuildingBlock: TEMPAE_clean_linker_10, # of connection points: 2
#     Edge 85, Type (0, 0), BuildingBlock: TEMPAE_clean_linker_10, # of connection points: 2
#     Edge 86, Type (0, 0), BuildingBlock: TEMPAE_clean_linker_10, # of connection points: 2
#     Edge 87, Type (0, 0), BuildingBlock: TEMPAE_clean_linker_10, # of connection points: 2
#     Edge 88, Type (0, 0), BuildingBlock: TEMPAE_clean_linker_10, # of connection points: 2
#     Edge 89, Type (0, 0), BuildingBlock: TEMPAE_clean_linker_10, # of connection points: 2
#     Edge 90, Type (0, 0), BuildingBlock: TEMPAE_clean_linker_10, # of connection points: 2
#     Edge 91, Type (0, 0), BuildingBlock: TEMPAE_clean_linker_10, # of connection points: 2
#     Edge 92, Type (0, 0), BuildingBlock: TEMPAE_clean_linker_10, # of connection points: 2
#     Edge 93, Type (0, 0), BuildingBlock: TEMPAE_clean_linker_10, # of connection points: 2
#     Edge 94, Type (0, 0), BuildingBlock: TEMPAE_clean_linker_10, # of connection points: 2
#     Edge 95, Type (0, 0), BuildingBlock: TEMPAE_clean_linker_10, # of connection points: 2
#     Edge 96, Type (0, 0), BuildingBlock: TEMPAE_clean_linker_10, # of connection points: 2
#     Edge 97, Type (0, 0), BuildingBlock: TEMPAE_clean_linker_10, # of connection points: 2
#     Edge 98, Type (0, 0), BuildingBlock: TEMPAE_clean_linker_10, # of connection points: 2
#     Edge 99, Type (0, 0), BuildingBlock: TEMPAE_clean_linker_10, # of connection points: 2
#     Edge 100, Type (0, 0), BuildingBlock: TEMPAE_clean_linker_10, # of connection points: 2
#     Edge 101, Type (0, 0), BuildingBlock: TEMPAE_clean_linker_10, # of connection points: 2
#     Edge 102, Type (0, 0), BuildingBlock: TEMPAE_clean_linker_10, # of connection points: 2
#     Edge 103, Type (0, 0), BuildingBlock: TEMPAE_clean_linker_10, # of connection points: 2
#     Edge 104, Type (0, 0), BuildingBlock: TEMPAE_clean_linker_10, # of connection points: 2
#     Edge 105, Type (0, 0), BuildingBlock: TEMPAE_clean_linker_10, # of connection points: 2
#     Edge 106, Type (0, 0), BuildingBlock: TEMPAE_clean_linker_10, # of connection points: 2
#     Edge 107, Type (0, 0), BuildingBlock: TEMPAE_clean_linker_10, # of connection points: 2
#     Edge 108, Type (0, 0), BuildingBlock: TEMPAE_clean_linker_10, # of connection points: 2
#     Edge 109, Type (0, 0), BuildingBlock: TEMPAE_clean_linker_10, # of connection points: 2
#     Edge 110, Type (0, 0), BuildingBlock: TEMPAE_clean_linker_10, # of connection points: 2
#     Edge 111, Type (0, 0), BuildingBlock: TEMPAE_clean_linker_10, # of connection points: 2
# Relax obj value: 0.162
# Max RMSD: 0.158
# Mean RMSD: 0.158
data_MOF--net-wgp--node1-XOMCOT_clean_sbu_1--edge1-TEMPAE_clean_linker_10
_symmetry_space_group_name_H-M    P1
_symmetry_Int_Tables_number       1
_symmetry_cell_setting            triclinic
loop_
_symmetry_equiv_pos_as_xyz
'x, y, z'
_cell_length_a     35.848192
_cell_length_b     35.845984
_cell_length_c     105.21196
_cell_angle_alpha  90.025198
_cell_angle_beta   90.024632
_cell_angle_gamma 90.020322
loop_
_atom_site_label
_atom_site_type_symbol
_atom_site_fract_x
_atom_site_fract_y
_atom_site_fract_z
_atom_type_partial_charge
C0 C 0.23586 0.23809 0.09259 0.0
C1 C 0.23319 0.27603 0.09412 0.0
N2 N 0.22364 0.29143 0.0829 0.0
N3 N 0.22776 0.22897 0.08048 0.0
C4 C 0.22044 0.26218 0.07477 0.0
H5 H 0.24507 0.21866 0.09977 0.0
Co6 Co 0.23378 0.18023 0.074 0.0
C7 C 0.1906 0.17856 0.05019 0.0
O8 O 0.1721 0.14903 0.05407 0.0
N9 N 0.24091 0.13086 0.06746 0.0
C10 C 0.2576 0.08532 0.05417 0.0
C11 C 0.25621 0.12322 0.05601 0.0
C12 C 0.23382 0.09663 0.07248 0.0
N13 N 0.24352 0.06849 0.06454 0.0
O14 O 0.1864 0.16667 0.08092 0.0
H15 H 0.2658 0.14401 0.04932 0.0
H16 H 0.22143 0.09207 0.08169 0.0
O17 O 0.21266 0.19503 0.05785 0.0
C18 C 0.19354 0.15399 0.09198 0.0
O19 O 0.2286 0.15148 0.09555 0.0
N20 N 0.28093 0.19321 0.06851 0.0
C21 C 0.35416 0.21352 0.06384 0.0
C22 C 0.32509 0.22949 0.05683 0.0
C23 C 0.28851 0.21924 0.05942 0.0
C24 C 0.30882 0.17684 0.07525 0.0
C25 C 0.34582 0.18651 0.07305 0.0
H26 H 0.26651 0.23339 0.05445 0.0
H27 H 0.3021 0.15691 0.08262 0.0
H28 H 0.21407 0.26502 0.06477 0.0
H29 H 0.23993 0.29122 0.10271 0.0
H30 H 0.26869 0.07123 0.04589 0.0
H31 H 0.33046 0.25045 0.04964 0.0
H32 H 0.36746 0.17411 0.07886 0.0
C33 C 0.01243 0.04521 0.33762 0.0
C34 C 0.97453 0.05011 0.33718 0.0
N35 N 0.96003 0.02482 0.32911 0.0
N36 N 0.02229 0.01704 0.32981 0.0
C37 C 0.98959 0.00485 0.32481 0.0
H38 H 0.03166 0.06123 0.34336 0.0
Co39 Co 0.07226 1.00204 0.3274 0.0
C40 C 0.07932 0.98202 0.30012 0.0
O41 O 0.1142 0.99306 0.30058 0.0
N42 N 0.12296 0.9865 0.32541 0.0
C43 C 0.17075 0.94748 0.32265 0.0
C44 C 0.13264 0.95063 0.32319 0.0
C45 C 0.15629 0.00456 0.32622 0.0
N46 N 0.18577 0.98142 0.32457 0.0
O47 O 0.0617 0.9551 0.33532 0.0
H48 H 0.1131 0.92801 0.3218 0.0
H49 H 0.15936 0.03394 0.32813 0.0
O50 O 0.05916 0.98323 0.31018 0.0
C51 C 0.06131 0.96037 0.34732 0.0
O52 O 0.0641 0.99473 0.35157 0.0
N53 N 0.0825 0.04964 0.32118 0.0
C54 C 0.07531 0.12656 0.31934 0.0
C55 C 0.06179 0.10337 0.30967 0.0
C56 C 0.06529 0.06492 0.31085 0.0
C57 C 0.09806 0.07198 0.33022 0.0
C58 C 0.09544 0.11061 0.32937 0.0
H59 H 0.04999 0.04804 0.30429 0.0
H60 H 0.10904 0.0597 0.33883 0.0
H61 H 0.98753 0.98223 0.31803 0.0
H62 H 0.95876 0.07046 0.34256 0.0
H63 H 0.18616 0.9221 0.32079 0.0
H64 H 0.04508 0.11443 0.30196 0.0
H65 H 0.10621 0.1276 0.33706 0.0
C66 C 0.23618 0.77865 0.5862 0.0
C67 C 0.23726 0.74051 0.5872 0.0
N68 N 0.25707 0.7269 0.57738 0.0
N69 N 0.25532 0.78959 0.57582 0.0
C70 C 0.26799 0.75724 0.57062 0.0
H71 H 0.22029 0.79713 0.59225 0.0
Co72 Co 0.25216 0.83933 0.57 0.0
C73 C 0.29787 0.84173 0.54645 0.0
O74 O 0.31595 0.8715 0.55036 0.0
N75 N 0.24752 0.88942 0.56432 0.0
C76 C 0.23473 0.93793 0.55183 0.0
C77 C 0.23502 0.89972 0.55272 0.0
C78 C 0.25372 0.92222 0.57043 0.0
N79 N 0.24648 0.9522 0.56297 0.0
O80 O 0.29911 0.85053 0.57775 0.0
H81 H 0.22651 0.88057 0.54532 0.0
H82 H 0.26354 0.92423 0.58013 0.0
O83 O 0.27503 0.82564 0.55393 0.0
C84 C 0.29352 0.85726 0.58949 0.0
O85 O 0.25922 0.85715 0.59385 0.0
N86 N 0.20546 0.82846 0.56351 0.0
C87 C 0.13333 0.80489 0.55855 0.0
C88 C 0.16321 0.79112 0.55139 0.0
C89 C 0.1992 0.80279 0.55417 0.0
C90 C 0.17665 0.84369 0.57012 0.0
C91 C 0.14016 0.83229 0.56779 0.0
H92 H 0.22188 0.78928 0.54934 0.0
H93 H 0.18234 0.86324 0.57772 0.0
H94 H 0.28253 0.75568 0.56162 0.0
H95 H 0.22329 0.72388 0.59434 0.0
H96 H 0.22586 0.95403 0.54367 0.0
H97 H 0.15905 0.77011 0.54412 0.0
H98 H 0.11791 0.84316 0.57368 0.0
C99 C 0.46665 0.02294 0.83792 0.0
C100 C 0.50395 0.03079 0.83783 0.0
N101 N 0.51757 0.02358 0.82616 0.0
N102 N 0.45571 0.01107 0.82635 0.0
C103 C 0.48759 0.01172 0.81932 0.0
H104 H 0.44923 0.02325 0.84628 0.0
Co105 Co 0.40751 0.99011 0.8247 0.0
C106 C 0.38543 0.98859 0.7979 0.0
O107 O 0.37068 0.95589 0.80045 0.0
N108 N 0.35811 0.96887 0.82408 0.0
C109 C 0.30906 0.93185 0.82721 0.0
C110 C 0.34717 0.93452 0.82781 0.0
C111 C 0.32545 0.98658 0.82134 0.0
N112 N 0.295 0.96459 0.82312 0.0
O113 O 0.38638 0.03575 0.83084 0.0
H114 H 0.36508 0.91265 0.83123 0.0
H115 H 0.32424 0.01533 0.81827 0.0
O116 O 0.40287 0.0065 0.80669 0.0
C117 C 0.37535 0.0311 0.84225 0.0
O118 O 0.37811 0.99787 0.84743 0.0
N119 N 0.43012 0.9451 0.82004 0.0
C120 C 0.47205 0.8805 0.81772 0.0
C121 C 0.46854 0.90475 0.80742 0.0
C122 C 0.44768 0.93723 0.8088 0.0
C123 C 0.43533 0.92267 0.83033 0.0
C124 C 0.45528 0.88954 0.8293 0.0
H125 H 0.44779 0.95664 0.80101 0.0
H126 H 0.42406 0.93085 0.83946 0.0
H127 H 0.48925 1.00216 0.80959 0.0
H128 H 0.52026 0.03849 0.84608 0.0
H129 H 0.2931 0.90775 0.83014 0.0
H130 H 0.48225 0.89891 0.79847 0.0
H131 H 0.45852 0.87173 0.83754 0.0
C132 C 0.24092 0.75243 0.41111 0.0
C133 C 0.23449 0.71478 0.41022 0.0
N134 N 0.23168 0.70071 0.42203 0.0
N135 N 0.24184 0.76278 0.42343 0.0
C136 C 0.2359 0.73045 0.4299 0.0
H137 H 0.24659 0.7707 0.40319 0.0
Co138 Co 0.25636 0.81165 0.42829 0.0
C139 C 0.22601 0.82353 0.45398 0.0
O140 O 0.20715 0.85266 0.44997 0.0
N141 N 0.2718 0.86129 0.433 0.0
C142 C 0.30293 0.90723 0.44271 0.0
C143 C 0.29765 0.86928 0.44198 0.0
C144 C 0.26129 0.89547 0.42863 0.0
N145 N 0.27997 0.92374 0.43432 0.0
O146 O 0.20769 0.82933 0.4238 0.0
H147 H 0.31189 0.84876 0.44774 0.0
H148 H 0.24064 0.90003 0.42134 0.0
O149 O 0.243 0.80294 0.44596 0.0
C150 C 0.20967 0.83996 0.41225 0.0
O151 O 0.2424 0.83995 0.40662 0.0
N152 N 0.30412 0.79373 0.43138 0.0
C153 C 0.3755 0.76415 0.43303 0.0
C154 C 0.34725 0.7518 0.44118 0.0
C155 C 0.31178 0.76693 0.44021 0.0
C156 C 0.33104 0.80596 0.42327 0.0
C157 C 0.36721 0.79183 0.42402 0.0
H158 H 0.29038 0.75594 0.44631 0.0
H159 H 0.32423 0.82657 0.41613 0.0
H160 H 0.23575 0.72841 0.44015 0.0
H161 H 0.23412 0.69859 0.40153 0.0
H162 H 0.32176 0.92166 0.44909 0.0
H163 H 0.35209 0.72976 0.44802 0.0
H164 H 0.38832 0.80234 0.41759 0.0
C165 C 0.49209 0.96611 0.69057 0.0
C166 C 0.52991 0.96023 0.6919 0.0
N167 N 0.54841 0.98651 0.68521 0.0
N168 N 0.48637 0.99605 0.6831 0.0
C169 C 0.52122 0.00767 0.6799 0.0
H170 H 0.47016 0.94997 0.69499 0.0
Co171 Co 0.43991 0.01808 0.67887 0.0
C172 C 0.40087 0.02886 0.70318 0.0
O173 O 0.38927 0.06097 0.69863 0.0
N174 N 0.39262 0.03957 0.6743 0.0
C175 C 0.34694 0.07452 0.66619 0.0
C176 C 0.38488 0.07085 0.66763 0.0
C177 C 0.35833 0.02442 0.67652 0.0
N178 N 0.33001 0.04534 0.6718 0.0
O179 O 0.42184 0.97181 0.6724 0.0
H180 H 0.405 0.09012 0.66383 0.0
H181 H 0.3543 0.99828 0.68149 0.0
O182 O 0.42093 0.00749 0.69617 0.0
C183 C 0.43596 0.96514 0.66151 0.0
O184 O 0.46301 0.98674 0.6574 0.0
N185 N 0.45978 0.06385 0.68408 0.0
C186 C 0.50255 0.12686 0.68857 0.0
C187 C 0.49247 0.10372 0.69864 0.0
C188 C 0.47206 0.07151 0.69614 0.0
C189 C 0.47103 0.08548 0.67416 0.0
C190 C 0.49202 0.11755 0.6762 0.0
H191 H 0.46848 0.05186 0.70379 0.0
H192 H 0.46556 0.07652 0.66452 0.0
H193 H 0.52654 0.03141 0.67383 0.0
H194 H 0.54267 0.93884 0.6977 0.0
H195 H 0.33293 0.09733 0.66143 0.0
H196 H 0.50176 0.10962 0.70824 0.0
H197 H 0.50071 0.13443 0.66818 0.0
C198 C 0.22609 0.22714 0.91583 0.0
C199 C 0.22927 0.26484 0.91387 0.0
N200 N 0.24525 0.28041 0.9242 0.0
N201 N 0.24035 0.21837 0.92729 0.0
C202 C 0.2521 0.25143 0.93215 0.0
H203 H 0.21299 0.2075 0.90944 0.0
Co204 Co 0.23773 0.16982 0.93413 0.0
C205 C 0.27496 0.17619 0.95923 0.0
O206 O 0.29855 0.14936 0.95644 0.0
N207 N 0.23456 0.12078 0.94097 0.0
C208 C 0.21974 0.07442 0.95412 0.0
C209 C 0.21822 0.11222 0.95217 0.0
C210 C 0.24545 0.08728 0.93623 0.0
N211 N 0.23691 0.05858 0.9441 0.0
O212 O 0.28756 0.16103 0.92857 0.0
H213 H 0.20547 0.13228 0.95851 0.0
H214 H 0.25948 0.08389 0.92721 0.0
O215 O 0.25268 0.18806 0.95071 0.0
C216 C 0.28247 0.15112 0.91706 0.0
O217 O 0.2482 0.14602 0.91298 0.0
N218 N 0.18822 0.17815 0.93825 0.0
C219 C 0.11286 0.19132 0.94181 0.0
C220 C 0.13946 0.21483 0.94735 0.0
C221 C 0.17707 0.20804 0.9453 0.0
C222 C 0.16278 0.15508 0.9327 0.0
C223 C 0.12474 0.16101 0.93444 0.0
H224 H 0.19705 0.22789 0.94885 0.0
H225 H 0.17211 0.13238 0.92672 0.0
H226 H 0.26362 0.25447 0.9416 0.0
H227 H 0.21983 0.27961 0.9055 0.0
H228 H 0.20822 0.05969 0.96219 0.0
H229 H 0.13126 0.23933 0.9527 0.0
H230 H 0.10485 0.14256 0.9299 0.0
C231 C 0.01773 0.95359 0.17225 0.0
C232 C 0.97949 0.95225 0.17163 0.0
N233 N 0.96572 0.97839 0.1795 0.0
N234 N 0.02825 0.98072 0.1804 0.0
C235 C 0.99577 0.99526 0.18477 0.0
H236 H 0.03675 0.93657 0.16678 0.0
Co237 Co 0.07823 0.99505 0.18288 0.0
C238 C 0.08446 0.01852 0.20988 0.0
O239 O 0.11936 0.00746 0.20974 0.0
N240 N 0.1291 0.01016 0.18483 0.0
C241 C 0.17692 0.04938 0.18714 0.0
C242 C 0.13884 0.0462 0.18666 0.0
C243 C 0.16241 0.99204 0.18411 0.0
N244 N 0.19197 0.0153 0.18557 0.0
O245 O 0.06837 0.0411 0.17429 0.0
H246 H 0.11936 0.06904 0.18766 0.0
H247 H 0.16531 0.96242 0.18263 0.0
O248 O 0.06478 0.01621 0.19972 0.0
C249 C 0.06861 0.03439 0.16239 0.0
O250 O 0.07362 0.99982 0.15861 0.0
N251 N 0.08737 0.94805 0.18987 0.0
C252 C 0.07807 0.8716 0.19314 0.0
C253 C 0.06447 0.89678 0.2022 0.0
C254 C 0.06905 0.93485 0.20031 0.0
C255 C 0.10298 0.92386 0.18141 0.0
C256 C 0.09936 0.88544 0.183 0.0
H257 H 0.05359 0.95303 0.20638 0.0
H258 H 0.11488 0.9344 0.17268 0.0
H259 H 0.99413 0.01866 0.19125 0.0
H260 H 0.96298 0.9338 0.16573 0.0
H261 H 0.19229 0.07516 0.18828 0.0
H262 H 0.0468 0.88763 0.20994 0.0
H263 H 0.11038 0.86697 0.17578 0.0
C264 C 0.72628 0.77944 0.91675 0.0
C265 C 0.7254 0.74117 0.91603 0.0
N266 N 0.73918 0.72722 0.92694 0.0
N267 N 0.74086 0.78986 0.92801 0.0
C268 C 0.74834 0.75731 0.93408 0.0
H269 H 0.71684 0.79858 0.90949 0.0
Co270 Co 0.74785 0.84011 0.93238 0.0
C271 C 0.76688 0.8425 0.95964 0.0
O272 O 0.74706 0.87325 0.96021 0.0
N273 N 0.75603 0.89165 0.93628 0.0
C274 C 0.79014 0.94157 0.94123 0.0
C275 C 0.79038 0.90371 0.93966 0.0
C276 C 0.73544 0.9235 0.93564 0.0
N277 N 0.75559 0.95428 0.93875 0.0
O278 O 0.79472 0.83967 0.92352 0.0
H279 H 0.81446 0.8859 0.94087 0.0
H280 H 0.70646 0.92445 0.93289 0.0
O281 O 0.77073 0.82547 0.94896 0.0
C282 C 0.78728 0.85427 0.91275 0.0
O283 O 0.75262 0.86415 0.91043 0.0
N284 N 0.69997 0.8401 0.93947 0.0
C285 C 0.625 0.82334 0.94351 0.0
C286 C 0.65264 0.80819 0.95133 0.0
C287 C 0.68984 0.81631 0.949 0.0
C288 C 0.67335 0.85599 0.93197 0.0
C289 C 0.63557 0.84845 0.93394 0.0
H290 H 0.71013 0.80001 0.95395 0.0
H291 H 0.68156 0.87195 0.92372 0.0
H292 H 0.76068 0.75556 0.94344 0.0
H293 H 0.71496 0.72479 0.90814 0.0
H294 H 0.8141 0.95856 0.94362 0.0
H295 H 0.64601 0.78734 0.95844 0.0
H296 H 0.61508 0.86029 0.92754 0.0
C297 C 0.99539 0.99019 0.66501 0.0
C298 C 0.03302 0.99038 0.66258 0.0
N299 N 0.05043 0.01012 0.67175 0.0
N300 N 0.98835 0.00992 0.67563 0.0
C301 C 0.0225 0.0223 0.67945 0.0
H302 H 0.97451 0.9752 0.65962 0.0
Co303 Co 0.93987 0.01053 0.6829 0.0
C304 C 0.94786 0.05801 0.70586 0.0
O305 O 0.92183 0.08112 0.70195 0.0
N306 N 0.89048 0.01052 0.69002 0.0
C307 C 0.8442 1.00144 0.70383 0.0
C308 C 0.88218 1.00136 0.70214 0.0
C309 C 0.85648 0.0155 0.68448 0.0
N310 N 0.82774 0.01036 0.69272 0.0
O311 O 0.93077 0.05776 0.6751 0.0
H312 H 0.90247 0.99357 0.70927 0.0
H313 H 0.85271 0.02221 0.67455 0.0
O314 O 0.95909 0.03232 0.69843 0.0
C315 C 0.91769 0.05085 0.66408 0.0
O316 O 0.9131 0.01583 0.66072 0.0
N317 N 0.94851 0.96319 0.68974 0.0
C318 C 0.96166 0.89151 0.699 0.0
C319 C 0.98754 0.92032 0.70098 0.0
C320 C 0.98025 0.95584 0.69642 0.0
C321 C 0.92331 0.93557 0.68739 0.0
C322 C 0.92879 0.89978 0.69226 0.0
H323 H 1.00091 0.97717 0.69798 0.0
H324 H 0.8987 0.94133 0.68178 0.0
H325 H 0.02704 0.03785 0.68813 0.0
H326 H 0.04651 0.97631 0.65473 0.0
H327 H 0.82987 0.99388 0.7125 0.0
H328 H 0.01407 0.91555 0.7056 0.0
H329 H 0.90761 0.87887 0.69055 0.0
C330 C 0.77587 0.2189 0.41672 0.0
C331 C 0.77887 0.25634 0.41416 0.0
N332 N 0.76049 0.27563 0.42324 0.0
N333 N 0.75564 0.2141 0.42735 0.0
C334 C 0.74603 0.24909 0.431 0.0
H335 H 0.78802 0.19643 0.41125 0.0
Co336 Co 0.74607 0.16666 0.43412 0.0
C337 C 0.73373 0.17713 0.46134 0.0
O338 O 0.75469 0.14733 0.46266 0.0
N339 N 0.73452 0.11748 0.44014 0.0
C340 C 0.69991 0.07148 0.44823 0.0
C341 C 0.70349 0.10934 0.44691 0.0
C342 C 0.74773 0.08336 0.43672 0.0
N343 N 0.72775 0.05493 0.44178 0.0
O344 O 0.69905 0.167 0.42559 0.0
H345 H 0.68362 0.12968 0.45032 0.0
H346 H 0.76925 0.07904 0.42971 0.0
O347 O 0.72558 0.18912 0.45014 0.0
C348 C 0.70425 0.14955 0.41518 0.0
O349 O 0.73732 0.13527 0.41288 0.0
N350 N 0.79462 0.1668 0.44154 0.0
C351 C 0.86739 0.17364 0.45103 0.0
C352 C 0.8411 0.20202 0.4528 0.0
C353 C 0.80537 0.19808 0.44801 0.0
C354 C 0.82024 0.13952 0.43921 0.0
C355 C 0.85636 0.14176 0.44421 0.0
H356 H 0.78664 0.22116 0.44921 0.0
H357 H 0.81381 0.11674 0.43299 0.0
H358 H 0.73009 0.25491 0.4395 0.0
H359 H 0.79371 0.26817 0.40618 0.0
H360 H 0.67779 0.05734 0.4533 0.0
H361 H 0.84819 0.22823 0.45729 0.0
H362 H 0.87563 0.11921 0.44233 0.0
C363 C 0.52122 0.9956 0.16123 0.0
C364 C 0.48325 0.99296 0.15982 0.0
N365 N 0.46771 0.98893 0.17139 0.0
N366 N 0.53018 0.99293 0.17364 0.0
C367 C 0.49687 0.98848 0.17961 0.0
H368 H 0.54079 1.00105 0.15366 0.0
Co369 Co 0.57868 1.00231 0.17986 0.0
C370 C 0.58146 0.96756 0.20522 0.0
O371 O 0.61165 0.94909 0.20197 0.0
N372 N 0.62779 0.01269 0.18619 0.0
C373 C 0.67313 0.03847 0.19783 0.0
C374 C 0.63524 0.03562 0.1961 0.0
C375 C 0.66208 1.00139 0.18225 0.0
N376 N 0.68995 0.01684 0.18913 0.0
O377 O 0.59359 0.9532 0.17467 0.0
H378 H 0.61438 0.0496 0.20179 0.0
H379 H 0.66703 0.9827 0.1744 0.0
O380 O 0.56423 0.98664 0.19684 0.0
C381 C 0.60641 0.95799 0.16346 0.0
O382 O 0.60853 0.99218 0.15899 0.0
N383 N 0.56453 0.05089 0.18337 0.0
C384 C 0.54486 0.12534 0.18552 0.0
C385 C 0.52843 0.09853 0.19341 0.0
C386 C 0.53847 0.0613 0.19211 0.0
C387 C 0.58072 0.07653 0.17559 0.0
C388 C 0.57149 0.11411 0.17656 0.0
H389 H 0.52453 0.041 0.19791 0.0
H390 H 0.60069 0.06755 0.16851 0.0
H391 H 0.49377 0.98727 0.18983 0.0
H392 H 0.46819 0.99504 0.15093 0.0
H393 H 0.68727 0.05487 0.20501 0.0
H394 H 0.50773 0.10622 0.20044 0.0
H395 H 0.58426 0.13398 0.17015 0.0
C396 C 0.71191 0.23776 0.58591 0.0
C397 C 0.70681 0.27565 0.58541 0.0
N398 N 0.73325 0.29046 0.57785 0.0
N399 N 0.74137 0.2282 0.57865 0.0
C400 C 0.75408 0.26104 0.57391 0.0
H401 H 0.69525 0.21834 0.59134 0.0
Co402 Co 0.75777 0.17854 0.57667 0.0
C403 C 0.77968 0.17102 0.54961 0.0
O404 O 0.77091 0.13551 0.55021 0.0
N405 N 0.77478 0.12806 0.57512 0.0
C406 C 0.8149 0.08094 0.57275 0.0
C407 C 0.81103 0.11901 0.57334 0.0
C408 C 0.75731 0.09437 0.57574 0.0
N409 N 0.78105 0.06533 0.57424 0.0
O410 O 0.80382 0.19077 0.5849 0.0
H411 H 0.83345 0.13894 0.57228 0.0
H412 H 0.72774 0.09067 0.57701 0.0
O413 O 0.77738 0.19132 0.55962 0.0
C414 C 0.79796 0.19182 0.59684 0.0
O415 O 0.76344 0.18857 0.6009 0.0
N416 N 0.711 0.16672 0.56999 0.0
C417 C 0.63444 0.16508 0.56582 0.0
C418 C 0.65837 0.18133 0.55689 0.0
C419 C 0.69648 0.18243 0.55925 0.0
C420 C 0.68817 0.14981 0.57858 0.0
C421 C 0.64987 0.1478 0.57654 0.0
H422 H 0.71315 0.19949 0.55313 0.0
H423 H 0.69948 0.14026 0.58754 0.0
H424 H 0.77785 0.26328 0.56762 0.0
H425 H 0.6856 0.29118 0.59047 0.0
H426 H 0.84082 0.06593 0.57149 0.0
H427 H 0.64757 0.19647 0.54877 0.0
H428 H 0.6323 0.13535 0.58376 0.0
C429 C 0.51579 0.00698 0.34047 0.0
C430 C 0.47805 0.00963 0.34237 0.0
N431 N 0.46185 0.02007 0.33138 0.0
N432 N 0.52396 0.01606 0.32836 0.0
C433 C 0.49037 0.02386 0.323 0.0
H434 H 0.53579 0.99712 0.34737 0.0
Co435 Co 0.57259 0.01101 0.32179 0.0
C436 C 0.57037 0.04852 0.29678 0.0
O437 O 0.59745 0.07104 0.30026 0.0
N438 N 0.6218 0.00495 0.31536 0.0
C439 C 0.66828 0.98717 0.30268 0.0
C440 C 0.63027 0.98838 0.30418 0.0
C441 C 0.65552 0.01299 0.32056 0.0
N442 N 0.68427 0.00263 0.31299 0.0
O443 O 0.58347 0.06094 0.32705 0.0
H444 H 0.61 0.97722 0.29758 0.0
H445 H 0.65914 0.02612 0.32972 0.0
O446 O 0.55624 0.02636 0.30494 0.0
C447 C 0.59454 0.05855 0.33853 0.0
O448 O 0.59899 0.02537 0.3436 0.0
N449 N 0.56211 0.96181 0.31787 0.0
C450 C 0.54513 0.88687 0.31501 0.0
C451 C 0.52523 0.91399 0.30825 0.0
C452 C 0.53374 0.9514 0.31 0.0
C453 C 0.58212 0.9359 0.32441 0.0
C454 C 0.5742 0.89808 0.32308 0.0
H455 H 0.51635 0.97187 0.30545 0.0
H456 H 0.60368 0.94479 0.33094 0.0
H457 H 0.4867 0.03091 0.31308 0.0
H458 H 0.46344 1.00228 0.35102 0.0
H459 H 0.683 0.97488 0.29473 0.0
H460 H 0.50256 0.90648 0.30194 0.0
H461 H 0.58967 0.87801 0.32868 0.0
C462 C 0.80962 0.75813 0.0841 0.0
C463 C 0.80902 0.72088 0.08692 0.0
N464 N 0.7748 0.70722 0.08432 0.0
N465 N 0.77644 0.76861 0.07923 0.0
C466 C 0.75513 0.73735 0.08019 0.0
H467 H 0.83352 0.77632 0.08511 0.0
Co468 Co 0.76912 0.81851 0.07323 0.0
C469 C 0.73398 0.77505 0.05045 0.0
O470 O 0.73468 0.74118 0.05508 0.0
N471 N 0.76292 0.8685 0.06773 0.0
C472 C 0.76505 0.91827 0.0551 0.0
C473 C 0.7656 0.88 0.05553 0.0
C474 C 0.76037 0.90061 0.07455 0.0
N475 N 0.76181 0.93133 0.06703 0.0
O476 O 0.72326 0.82168 0.08255 0.0
H477 H 0.76975 0.86182 0.04745 0.0
H478 H 0.75953 0.9015 0.08483 0.0
O479 O 0.74448 0.80271 0.05726 0.0
C480 C 0.73044 0.82344 0.09442 0.0
O481 O 0.76546 0.82222 0.0981 0.0
N482 N 0.81527 0.81636 0.06474 0.0
C483 C 0.88647 0.80925 0.05445 0.0
C484 C 0.85861 0.78314 0.05166 0.0
C485 C 0.82349 0.78703 0.05698 0.0
C486 C 0.84173 0.84256 0.06743 0.0
C487 C 0.87755 0.83972 0.06227 0.0
H488 H 0.80404 0.76456 0.05575 0.0
H489 H 0.83547 0.86507 0.07393 0.0
H490 H 0.7258 0.73672 0.07782 0.0
H491 H 0.8329 0.7051 0.09013 0.0
H492 H 0.76778 0.93532 0.04665 0.0
H493 H 0.86452 0.75825 0.04617 0.0
H494 H 0.89838 0.86035 0.06477 0.0
C495 C 0.96899 0.05079 0.83346 0.0
C496 C 0.00726 0.05184 0.83404 0.0
N497 N 0.02089 0.02506 0.82637 0.0
N498 N 0.95817 0.02333 0.82549 0.0
C499 C 0.99057 0.0082 0.82124 0.0
H500 H 0.95016 0.06818 0.83887 0.0
Co501 Co 0.90797 0.00878 0.8231 0.0
C502 C 0.90041 0.99178 0.79563 0.0
O503 O 0.86485 1.00017 0.79637 0.0
N504 N 0.85691 0.99319 0.82108 0.0
C505 C 0.80931 0.95331 0.819 0.0
C506 C 0.84739 0.9569 0.81952 0.0
C507 C 0.82338 0.01115 0.82123 0.0
N508 N 0.79419 0.98741 0.82003 0.0
O509 O 0.91904 0.96104 0.83054 0.0
H510 H 0.86692 0.93411 0.81863 0.0
H511 H 0.81987 0.04086 0.82232 0.0
O512 O 0.92054 0.99205 0.80571 0.0
C513 C 0.92034 0.96521 0.84258 0.0
O514 O 0.9174 0.99911 0.84722 0.0
N515 N 0.89748 0.05699 0.81738 0.0
C516 C 0.89764 0.13436 0.81511 0.0
C517 C 0.914 0.11199 0.80572 0.0
C518 C 0.91416 0.07338 0.80714 0.0
C519 C 0.88043 0.07832 0.82638 0.0
C520 C 0.8795 0.11703 0.82532 0.0
H521 H 0.93105 0.05751 0.80069 0.0
H522 H 0.86978 0.06531 0.83492 0.0
H523 H 0.99191 0.98426 0.81498 0.0
H524 H 0.02387 0.07047 0.83984 0.0
H525 H 0.79385 0.92759 0.81781 0.0
H526 H 0.92963 0.12424 0.79796 0.0
H527 H 0.86688 0.13332 0.83285 0.0
C528 C 0.76053 0.73254 0.59273 0.0
C529 C 0.76079 0.77022 0.595 0.0
N530 N 0.75157 0.78816 0.58418 0.0
N531 N 0.75072 0.7261 0.58057 0.0
C532 C 0.745 0.76062 0.57561 0.0
H533 H 0.7687 0.71127 0.59944 0.0
Co534 Co 0.7528 0.67812 0.57327 0.0
C535 C 0.71114 0.68662 0.54907 0.0
O536 O 0.68721 0.66067 0.55243 0.0
N537 N 0.75574 0.62941 0.566 0.0
C538 C 0.7699 0.58388 0.55239 0.0
C539 C 0.76942 0.62178 0.55432 0.0
C540 C 0.74856 0.59525 0.57103 0.0
N541 N 0.7568 0.56704 0.56292 0.0
O542 O 0.70335 0.66854 0.57925 0.0
H543 H 0.77946 0.64251 0.54768 0.0
H544 H 0.73775 0.59087 0.58048 0.0
O545 O 0.73577 0.69735 0.55701 0.0
C546 C 0.70737 0.65419 0.59025 0.0
O547 O 0.74134 0.64815 0.59448 0.0
N548 N 0.80185 0.68691 0.56861 0.0
C549 C 0.87677 0.69902 0.56373 0.0
C550 C 0.84965 0.72178 0.55817 0.0
C551 C 0.81232 0.71558 0.56088 0.0
C552 C 0.82785 0.66455 0.57418 0.0
C553 C 0.8657 0.67005 0.57183 0.0
H554 H 0.79214 0.73483 0.55716 0.0
H555 H 0.81908 0.64266 0.58059 0.0
H556 H 0.73834 0.76557 0.56572 0.0
H557 H 0.76821 0.78329 0.60391 0.0
H558 H 0.78031 0.56984 0.54401 0.0
H559 H 0.85731 0.74526 0.55223 0.0
H560 H 0.88608 0.65225 0.57641 0.0
C561 C 0.51932 0.53858 0.83806 0.0
C562 C 0.48111 0.53909 0.83904 0.0
N563 N 0.4669 0.515 0.83049 0.0
N564 N 0.52951 0.51418 0.82895 0.0
C565 C 0.49687 0.50027 0.82444 0.0
H566 H 0.53861 0.55479 0.84372 0.0
Co567 Co 0.57974 0.50329 0.82507 0.0
C568 C 0.58292 0.4972 0.79734 0.0
O569 O 0.61369 0.51698 0.79811 0.0
N570 N 0.63087 0.49079 0.82153 0.0
C571 C 0.67803 0.4564 0.814 0.0
C572 C 0.63998 0.45911 0.81524 0.0
C573 C 0.66461 0.50579 0.82461 0.0
N574 N 0.69346 0.48572 0.81993 0.0
O575 O 0.57336 0.45426 0.83184 0.0
H576 H 0.62001 0.43908 0.81165 0.0
H577 H 0.66868 0.53067 0.83017 0.0
O578 O 0.56523 0.48814 0.8075 0.0
C579 C 0.57704 0.45913 0.84378 0.0
O580 O 0.58375 0.49294 0.84804 0.0
N581 N 0.58571 0.55301 0.81992 0.0
C582 C 0.58624 0.63003 0.8162 0.0
C583 C 0.56235 0.60703 0.80913 0.0
C584 C 0.56199 0.56884 0.81133 0.0
C585 C 0.60761 0.57511 0.82735 0.0
C586 C 0.60944 0.6135 0.82534 0.0
H587 H 0.5405 0.55243 0.80686 0.0
H588 H 0.62147 0.5635 0.83554 0.0
H589 H 0.49512 0.47914 0.81711 0.0
H590 H 0.46497 0.55602 0.84555 0.0
H591 H 0.69327 0.43428 0.8093 0.0
H592 H 0.54202 0.61856 0.8026 0.0
H593 H 0.62736 0.63018 0.83137 0.0
C594 C 0.74423 0.25913 0.09548 0.0
C595 C 0.74868 0.2212 0.09658 0.0
N596 N 0.75632 0.20719 0.08501 0.0
N597 N 0.74956 0.26958 0.0833 0.0
C598 C 0.75683 0.23706 0.0771 0.0
H599 H 0.73625 0.27767 0.1031 0.0
Co600 Co 0.74302 0.31949 0.0777 0.0
C601 C 0.77902 0.3203 0.05223 0.0
O602 O 0.80295 0.34602 0.05581 0.0
N603 N 0.73583 0.36998 0.07216 0.0
C604 C 0.72016 0.41841 0.05992 0.0
C605 C 0.72089 0.38016 0.06086 0.0
C606 C 0.74266 0.40302 0.07808 0.0
N607 N 0.7337 0.43274 0.07077 0.0
O608 O 0.793 0.33083 0.08279 0.0
H609 H 0.71083 0.36093 0.05372 0.0
H610 H 0.75424 0.40566 0.08749 0.0
O611 O 0.75712 0.30599 0.06044 0.0
C612 C 0.7898 0.34208 0.09424 0.0
O613 O 0.75629 0.34348 0.09929 0.0
N614 N 0.69375 0.30906 0.07395 0.0
C615 C 0.61857 0.29691 0.06967 0.0
C616 C 0.64535 0.27537 0.06337 0.0
C617 C 0.6829 0.2816 0.06577 0.0
C618 C 0.6681 0.32961 0.08043 0.0
C619 C 0.63015 0.3242 0.07835 0.0
H620 H 0.70309 0.26384 0.06123 0.0
H621 H 0.67723 0.35042 0.0872 0.0
H622 H 0.76169 0.23508 0.06698 0.0
H623 H 0.74496 0.20489 0.10515 0.0
H624 H 0.70994 0.43452 0.05194 0.0
H625 H 0.63732 0.2532 0.05692 0.0
H626 H 0.61012 0.34111 0.08347 0.0
C627 C 0.98716 0.49385 0.3428 0.0
C628 C 0.02522 0.4954 0.34428 0.0
N629 N 0.0405 0.50549 0.33311 0.0
N630 N 0.97817 0.50314 0.33078 0.0
C631 C 0.01137 0.5102 0.32507 0.0
H632 H 0.9672 0.48593 0.35001 0.0
Co633 Co 0.92842 0.50355 0.32516 0.0
C634 C 0.92989 0.50491 0.29745 0.0
O635 O 0.90332 0.47976 0.29825 0.0
N636 N 0.87698 0.50562 0.31998 0.0
C637 C 0.82669 0.5338 0.31203 0.0
C638 C 0.86451 0.53572 0.31352 0.0
C639 C 0.84524 0.48616 0.32263 0.0
N640 N 0.81423 0.50261 0.31773 0.0
O641 O 0.92391 0.55363 0.33118 0.0
H642 H 0.8819 0.55859 0.31038 0.0
H643 H 0.84443 0.4612 0.32834 0.0
O644 O 0.94377 0.51912 0.30765 0.0
C645 C 0.90808 0.5499 0.34195 0.0
O646 O 0.89898 0.51618 0.34577 0.0
N647 N 0.93375 0.45303 0.32083 0.0
C648 C 0.95626 0.37891 0.3203 0.0
C649 C 0.97319 0.40508 0.3124 0.0
C650 C 0.9623 0.44201 0.31307 0.0
C651 C 0.91642 0.42761 0.32845 0.0
C652 C 0.9268 0.39 0.32817 0.0
H653 H 0.97937 0.46198 0.30814 0.0
H654 H 0.89709 0.4369 0.33564 0.0
H655 H 0.01423 0.5184 0.31522 0.0
H656 H 0.04058 0.48864 0.35284 0.0
H657 H 0.80952 0.55497 0.30762 0.0
H658 H 0.99661 0.39754 0.30641 0.0
H659 H 0.91406 0.37051 0.33473 0.0
C660 C 0.73256 0.28348 0.91746 0.0
C661 C 0.73061 0.24556 0.91585 0.0
N662 N 0.72551 0.22962 0.9273 0.0
N663 N 0.72844 0.29194 0.92986 0.0
C664 C 0.72395 0.25837 0.93566 0.0
H665 H 0.73863 0.30338 0.91005 0.0
Co666 Co 0.73653 0.34034 0.93624 0.0
C667 C 0.69762 0.34369 0.96093 0.0
O668 O 0.68118 0.37502 0.95767 0.0
N669 N 0.74593 0.38956 0.94255 0.0
C670 C 0.7695 0.43522 0.95456 0.0
C671 C 0.76567 0.39728 0.9532 0.0
C672 C 0.73778 0.42376 0.93771 0.0
N673 N 0.75195 0.4519 0.9448 0.0
O674 O 0.68856 0.35473 0.93002 0.0
H675 H 0.77694 0.37656 0.9596 0.0
H676 H 0.72266 0.42839 0.92898 0.0
O677 O 0.71698 0.32609 0.95273 0.0
C678 C 0.6938 0.36731 0.91883 0.0
O679 O 0.72818 0.37123 0.9147 0.0
N680 N 0.78414 0.32592 0.94099 0.0
C681 C 0.85621 0.29919 0.94361 0.0
C682 C 0.82842 0.28853 0.9522 0.0
C683 C 0.7924 0.30191 0.95065 0.0
C684 C 0.81108 0.3378 0.93284 0.0
C685 C 0.84753 0.3248 0.93399 0.0
H686 H 0.77122 0.2915 0.95691 0.0
H687 H 0.80378 0.35629 0.92511 0.0
H688 H 0.72203 0.25483 0.94585 0.0
H689 H 0.73399 0.23075 0.90696 0.0
H690 H 0.78403 0.44946 0.96217 0.0
H691 H 0.83418 0.26908 0.95983 0.0
H692 H 0.86819 0.33334 0.92707 0.0
C693 C 0.98756 0.54676 0.17015 0.0
C694 C 0.02582 0.5473 0.17021 0.0
N695 N 0.03779 0.52182 0.17864 0.0
N696 N 0.9752 0.52077 0.17841 0.0
C697 C 0.00663 0.50611 0.18356 0.0
H698 H 0.96976 0.56387 0.16425 0.0
Co699 Co 0.92418 0.50987 0.18016 0.0
C700 C 0.91243 0.48504 0.20655 0.0
O701 O 0.87926 0.50046 0.20593 0.0
N702 N 0.87226 0.49842 0.18125 0.0
C703 C 0.82204 0.46187 0.18241 0.0
C704 C 0.86021 0.46288 0.18258 0.0
C705 C 0.84022 0.5186 0.18024 0.0
N706 N 0.80928 0.49686 0.1809 0.0
O707 O 0.93136 0.46424 0.17102 0.0
H708 H 0.87815 0.4389 0.18379 0.0
H709 H 0.83926 0.54841 0.17881 0.0
O710 O 0.93367 0.48531 0.19674 0.0
C711 C 0.93241 0.47043 0.1591 0.0
O712 O 0.93094 0.50515 0.15515 0.0
N713 N 0.91825 0.55646 0.188 0.0
C714 C 0.93772 0.63011 0.19258 0.0
C715 C 0.94662 0.6025 0.20139 0.0
C716 C 0.93738 0.56575 0.1988 0.0
C717 C 0.90618 0.58371 0.17994 0.0
C718 C 0.91546 0.62105 0.1821 0.0
H719 H 0.95066 0.54515 0.2046 0.0
H720 H 0.8937 0.57606 0.17095 0.0
H721 H 0.00678 0.48372 0.19046 0.0
H722 H 0.0436 0.56495 0.16446 0.0
H723 H 0.80493 0.43718 0.18345 0.0
H724 H 0.96453 0.60862 0.20944 0.0
H725 H 0.90897 0.64178 0.17495 0.0
C726 C 0.71611 0.72616 0.42103 0.0
C727 C 0.71299 0.76422 0.42073 0.0
N728 N 0.73891 0.77883 0.42853 0.0
N729 N 0.74386 0.71634 0.42902 0.0
C730 C 0.75721 0.74919 0.43355 0.0
H731 H 0.69973 0.70682 0.41547 0.0
Co732 Co 0.75912 0.66644 0.43109 0.0
C733 C 0.77562 0.65657 0.45842 0.0
O734 O 0.76424 0.62192 0.45727 0.0
N735 N 0.77508 0.61587 0.43264 0.0
C736 C 0.8141 0.56841 0.436 0.0
C737 C 0.81064 0.6065 0.43552 0.0
C738 C 0.75767 0.58241 0.43116 0.0
N739 N 0.78075 0.5532 0.43327 0.0
O740 O 0.80668 0.67827 0.42379 0.0
H741 H 0.83274 0.62625 0.43745 0.0
H742 H 0.72858 0.57903 0.42884 0.0
O743 O 0.77648 0.67781 0.4486 0.0
C744 C 0.80338 0.68219 0.4118 0.0
O745 O 0.76988 0.68051 0.40677 0.0
N746 N 0.71108 0.65534 0.43692 0.0
C747 C 0.63418 0.66041 0.43913 0.0
C748 C 0.65724 0.6743 0.44872 0.0
C749 C 0.69564 0.6722 0.44731 0.0
C750 C 0.68878 0.63964 0.42787 0.0
C751 C 0.65005 0.64132 0.42888 0.0
H752 H 0.71211 0.68836 0.45378 0.0
H753 H 0.70101 0.62945 0.41914 0.0
H754 H 0.78058 0.75137 0.44003 0.0
H755 H 0.6932 0.78002 0.41512 0.0
H756 H 0.83939 0.55307 0.43807 0.0
H757 H 0.64572 0.69005 0.45659 0.0
H758 H 0.63293 0.63137 0.4211 0.0
C759 C 0.53054 0.45459 0.67066 0.0
C760 C 0.49251 0.45062 0.67116 0.0
N761 N 0.47827 0.47866 0.67818 0.0
N762 N 0.54078 0.48496 0.67737 0.0
C763 C 0.50824 0.49925 0.6818 0.0
H764 H 0.5495 0.43685 0.66544 0.0
Co765 Co 0.59039 0.50224 0.67871 0.0
C766 C 0.60137 0.52048 0.70577 0.0
O767 O 0.63608 0.50934 0.70456 0.0
N768 N 0.64057 0.52052 0.67973 0.0
C769 C 0.68606 0.5621 0.68267 0.0
C770 C 0.64821 0.55654 0.68248 0.0
C771 C 0.67488 0.50492 0.67811 0.0
N772 N 0.70309 0.52961 0.67991 0.0
O773 O 0.57619 0.54868 0.67108 0.0
H774 H 0.62744 0.57751 0.6846 0.0
H775 H 0.67954 0.47617 0.67562 0.0
O776 O 0.57967 0.52029 0.69608 0.0
C777 C 0.57101 0.54419 0.65918 0.0
O778 O 0.57163 0.51011 0.65458 0.0
N779 N 0.60417 0.45528 0.68479 0.0
C780 C 0.61127 0.37876 0.68822 0.0
C781 C 0.59444 0.40083 0.69758 0.0
C782 C 0.59039 0.439 0.69555 0.0
C783 C 0.62121 0.43417 0.67573 0.0
C784 C 0.62578 0.39595 0.67735 0.0
H785 H 0.57305 0.4543 0.70206 0.0
H786 H 0.6288 0.44669 0.66674 0.0
H787 H 0.50662 0.5243 0.68752 0.0
H788 H 0.47652 0.42922 0.66636 0.0
H789 H 0.69982 0.58808 0.685 0.0
H790 H 0.58132 0.38826 0.70581 0.0
H791 H 0.6381 0.37963 0.66977 0.0
C792 C 0.21483 0.25103 0.41691 0.0
C793 C 0.2194 0.21348 0.41482 0.0
N794 N 0.24442 0.20035 0.42324 0.0
N795 N 0.23725 0.26216 0.42649 0.0
C796 C 0.25485 0.23041 0.43024 0.0
H797 H 0.19527 0.26895 0.41202 0.0
Co798 Co 0.23612 0.31183 0.43271 0.0
C799 C 0.28481 0.28896 0.45694 0.0
O800 O 0.31528 0.26924 0.45532 0.0
N801 N 0.23438 0.36166 0.43874 0.0
C802 C 0.22264 0.40994 0.45142 0.0
C803 C 0.2247 0.37179 0.45064 0.0
C804 C 0.2381 0.39451 0.43242 0.0
N805 N 0.23092 0.42441 0.43996 0.0
O806 O 0.28032 0.32309 0.42329 0.0
H807 H 0.21757 0.35252 0.45814 0.0
H808 H 0.24437 0.39645 0.42238 0.0
O809 O 0.26534 0.29811 0.44731 0.0
C810 C 0.27427 0.32665 0.41143 0.0
O811 O 0.23996 0.32416 0.40716 0.0
N812 N 0.19205 0.30068 0.44129 0.0
C813 C 0.12212 0.27944 0.45042 0.0
C814 C 0.1543 0.25873 0.4534 0.0
C815 C 0.18899 0.27024 0.44897 0.0
C816 C 0.16154 0.32157 0.43839 0.0
C817 C 0.12661 0.31229 0.44324 0.0
H818 H 0.21302 0.2532 0.45108 0.0
H819 H 0.1642 0.3453 0.43211 0.0
H820 H 0.27418 0.22903 0.43811 0.0
H821 H 0.20418 0.19673 0.408 0.0
H822 H 0.21499 0.42583 0.45977 0.0
H823 H 0.15302 0.2327 0.45856 0.0
H824 H 0.10339 0.33034 0.44098 0.0
C825 C 0.4804 0.52455 0.16413 0.0
C826 C 0.51795 0.53029 0.16253 0.0
N827 N 0.53367 0.53535 0.17403 0.0
N828 N 0.47186 0.52625 0.17659 0.0
C829 C 0.50504 0.53293 0.18241 0.0
H830 H 0.46094 0.51769 0.15665 0.0
Co831 Co 0.42392 0.51468 0.18287 0.0
C832 C 0.42115 0.54634 0.20867 0.0
O833 O 0.39146 0.56575 0.20553 0.0
N834 N 0.37534 0.50219 0.18919 0.0
C835 C 0.33121 0.4744 0.2008 0.0
C836 C 0.36894 0.479 0.1991 0.0
C837 C 0.34058 0.51168 0.18517 0.0
N838 N 0.31339 0.49502 0.19203 0.0
O839 O 0.40764 0.56406 0.17853 0.0
H840 H 0.39048 0.46593 0.20476 0.0
H841 H 0.33488 0.52976 0.17721 0.0
O842 O 0.43848 0.52806 0.20011 0.0
C843 C 0.39488 0.56013 0.16727 0.0
O844 O 0.39355 0.52639 0.16238 0.0
N845 N 0.43941 0.46609 0.18551 0.0
C846 C 0.46106 0.39199 0.18643 0.0
C847 C 0.47877 0.41858 0.1941 0.0
C848 C 0.4677 0.45569 0.19341 0.0
C849 C 0.42216 0.44072 0.17789 0.0
C850 C 0.43232 0.40332 0.17827 0.0
H851 H 0.48277 0.47603 0.1989 0.0
H852 H 0.40047 0.44973 0.17143 0.0
H853 H 0.50841 0.53478 0.19261 0.0
H854 H 0.53284 0.52861 0.1536 0.0
H855 H 0.31788 0.45739 0.20798 0.0
H856 H 0.50175 0.41099 0.20027 0.0
H857 H 0.41795 0.38352 0.17223 0.0
C858 C 0.30657 0.73142 0.92551 0.0
C859 C 0.3093 0.76955 0.92564 0.0
N860 N 0.281 0.78334 0.93262 0.0
N861 N 0.27681 0.72071 0.93244 0.0
C862 C 0.26147 0.75308 0.93659 0.0
H863 H 0.32514 0.71259 0.92058 0.0
Co864 Co 0.26394 0.67019 0.93469 0.0
C865 C 0.23749 0.66254 0.96114 0.0
O866 O 0.25266 0.6292 0.96098 0.0
N867 N 0.25031 0.61903 0.93635 0.0
C868 C 0.2113 0.57113 0.93879 0.0
C869 C 0.21429 0.60914 0.93816 0.0
C870 C 0.26863 0.58585 0.93557 0.0
N871 N 0.24543 0.55633 0.9372 0.0
O872 O 0.22001 0.67741 0.92458 0.0
H873 H 0.19139 0.62856 0.93915 0.0
H874 H 0.29823 0.58305 0.93396 0.0
O875 O 0.23802 0.6825 0.95098 0.0
C876 C 0.23027 0.67527 0.91298 0.0
O877 O 0.26609 0.67205 0.91056 0.0
N878 N 0.30946 0.66358 0.94326 0.0
C879 C 0.38334 0.68277 0.94769 0.0
C880 C 0.35557 0.69366 0.9562 0.0
C881 C 0.31872 0.68461 0.95365 0.0
C882 C 0.33682 0.64908 0.93572 0.0
C883 C 0.37424 0.65824 0.93781 0.0
H884 H 0.29815 0.69965 0.95896 0.0
H885 H 0.32939 0.63515 0.92697 0.0
H886 H 0.23681 0.75443 0.9425 0.0
H887 H 0.33023 0.78592 0.92075 0.0
H888 H 0.18575 0.55549 0.94009 0.0
H889 H 0.36168 0.713 0.96385 0.0
H890 H 0.39502 0.64994 0.93089 0.0
C891 C 0.03421 0.53812 0.66712 0.0
C892 C 0.99674 0.53499 0.66467 0.0
N893 N 0.98134 0.51314 0.67365 0.0
N894 N 0.04294 0.51799 0.67752 0.0
C895 C 0.00996 0.50304 0.68134 0.0
H896 H 0.05364 0.55536 0.66191 0.0
Co897 Co 0.09158 0.51804 0.6845 0.0
C898 C 0.08773 0.46948 0.70725 0.0
O899 O 0.11505 0.44842 0.70303 0.0
N900 N 0.1408 0.51862 0.69131 0.0
C901 C 0.18804 0.52774 0.7047 0.0
C902 C 0.15005 0.52936 0.70321 0.0
C903 C 0.17403 0.51083 0.68572 0.0
N904 N 0.20333 0.51599 0.6937 0.0
O905 O 0.10153 0.47177 0.67596 0.0
H906 H 0.13037 0.53855 0.71035 0.0
H907 H 0.17676 0.50151 0.676 0.0
O908 O 0.07395 0.49438 0.69999 0.0
C909 C 0.11004 0.48129 0.66463 0.0
O910 O 0.11358 0.517 0.66208 0.0
N911 N 0.08192 0.56451 0.69182 0.0
C912 C 0.06542 0.63609 0.70055 0.0
C913 C 0.04116 0.60611 0.7029 0.0
C914 C 0.05015 0.57064 0.69862 0.0
C915 C 0.10578 0.59311 0.68927 0.0
C916 C 0.09872 0.62885 0.69391 0.0
H917 H 0.0305 0.54844 0.70031 0.0
H918 H 0.13041 0.58823 0.68357 0.0
H919 H 0.00671 0.4862 0.6898 0.0
H920 H 0.98159 0.54933 0.65723 0.0
H921 H 0.20319 0.53559 0.71318 0.0
H922 H 0.01444 0.60987 0.7075 0.0
H923 H 0.11891 0.65056 0.69202 0.0
C924 C 0.20248 0.7388 0.08725 0.0
C925 C 0.19812 0.77682 0.08739 0.0
N926 N 0.22007 0.79159 0.07834 0.0
N927 N 0.22676 0.72901 0.07801 0.0
C928 C 0.2374 0.76212 0.07285 0.0
H929 H 0.18888 0.71962 0.09365 0.0
Co930 Co 0.24107 0.67904 0.07429 0.0
C931 C 0.2904 0.7061 0.05155 0.0
O932 O 0.32476 0.70587 0.05588 0.0
N933 N 0.25533 0.62968 0.07079 0.0
C934 C 0.29084 0.58079 0.06609 0.0
C935 C 0.28905 0.61904 0.06644 0.0
C936 C 0.23702 0.5972 0.07306 0.0
N937 N 0.25817 0.56691 0.07029 0.0
O938 O 0.28599 0.6858 0.08392 0.0
H939 H 0.31155 0.63782 0.06409 0.0
H940 H 0.20931 0.59582 0.07712 0.0
O941 O 0.26351 0.69605 0.05866 0.0
C942 C 0.27836 0.68181 0.09567 0.0
O943 O 0.24375 0.67466 0.09895 0.0
N944 N 0.19612 0.67143 0.06569 0.0
C945 C 0.12634 0.68129 0.05509 0.0
C946 C 0.15746 0.67644 0.04724 0.0
C947 C 0.19226 0.6704 0.05278 0.0
C948 C 0.16551 0.66996 0.0733 0.0
C949 C 0.13012 0.6754 0.0682 0.0
H950 H 0.21607 0.66684 0.04665 0.0
H951 H 0.16882 0.66734 0.08346 0.0
H952 H 0.2572 0.76479 0.06516 0.0
H953 H 0.18066 0.79252 0.09387 0.0
H954 H 0.31465 0.56442 0.06312 0.0
H955 H 0.1552 0.67927 0.03702 0.0
H956 H 0.10654 0.67814 0.07457 0.0
C957 C 0.02263 0.54365 0.83676 0.0
C958 C 0.9848 0.54981 0.83626 0.0
N959 N 0.96992 0.52619 0.82773 0.0
N960 N 0.03207 0.51642 0.82847 0.0
C961 C 0.99906 0.50659 0.82303 0.0
H962 H 0.04153 0.55733 0.84323 0.0
Co963 Co 0.08015 0.49424 0.82671 0.0
C964 C 0.09743 0.52782 0.80104 0.0
O965 O 0.1233 0.55095 0.80504 0.0
N966 N 0.12837 0.47201 0.82509 0.0
C967 C 0.17492 0.43147 0.82728 0.0
C968 C 0.13702 0.43642 0.82801 0.0
C969 C 0.16198 0.48819 0.82276 0.0
N970 N 0.19105 0.46413 0.82403 0.0
O971 O 0.10309 0.54005 0.83206 0.0
H972 H 0.11728 0.41551 0.83109 0.0
H973 H 0.16511 0.51753 0.82077 0.0
O974 O 0.08014 0.50727 0.80893 0.0
C975 C 0.11338 0.53493 0.84355 0.0
O976 O 0.10732 0.50221 0.84879 0.0
N977 N 0.05772 0.4489 0.82271 0.0
C978 C 0.01732 0.38417 0.81869 0.0
C979 C 0.04036 0.39832 0.80909 0.0
C980 C 0.06052 0.43095 0.8113 0.0
C981 C 0.03729 0.43411 0.83239 0.0
C982 C 0.0162 0.40203 0.8305 0.0
H983 H 0.07839 0.44156 0.80387 0.0
H984 H 0.0364 0.44819 0.84148 0.0
H985 H 0.99612 0.48459 0.81605 0.0
H986 H 0.96915 0.56879 0.84223 0.0
H987 H 0.18927 0.4059 0.82965 0.0
H988 H 0.04232 0.38456 0.79994 0.0
H989 H 0.99932 0.39117 0.8382 0.0
C990 C 0.28231 0.27965 0.59038 0.0
C991 C 0.28036 0.24163 0.59176 0.0
N992 N 0.26258 0.22735 0.5816 0.0
N993 N 0.26582 0.28979 0.5794 0.0
C994 C 0.2535 0.25717 0.5743 0.0
H995 H 0.29743 0.29838 0.59657 0.0
Co996 Co 0.27263 0.33832 0.57276 0.0
C997 C 0.22608 0.33928 0.54901 0.0
O998 O 0.20642 0.36854 0.5524 0.0
N999 N 0.28052 0.38753 0.56622 0.0
C1000 C 0.29643 0.4332 0.55287 0.0
C1001 C 0.29512 0.39526 0.55467 0.0
C1002 C 0.27378 0.42177 0.57132 0.0
N1003 N 0.28299 0.45 0.56335 0.0
O1004 O 0.22698 0.35372 0.58064 0.0
H1005 H 0.30441 0.37456 0.54793 0.0
H1006 H 0.26182 0.42624 0.58062 0.0
O1007 O 0.24906 0.32473 0.55681 0.0
C1008 C 0.23673 0.36456 0.59172 0.0
O1009 O 0.27248 0.36494 0.59451 0.0
N1010 N 0.31834 0.32275 0.56631 0.0
C1011 C 0.38712 0.28968 0.56219 0.0
C1012 C 0.35545 0.27655 0.55588 0.0
C1013 C 0.32123 0.29305 0.55824 0.0
C1014 C 0.3492 0.33735 0.57199 0.0
C1015 C 0.38417 0.32126 0.57 0.0
H1016 H 0.29691 0.27998 0.55419 0.0
H1017 H 0.34627 0.36007 0.57869 0.0
H1018 H 0.24121 0.25488 0.56493 0.0
H1019 H 0.29284 0.22549 0.59935 0.0
H1020 H 0.30697 0.44736 0.54453 0.0
H1021 H 0.35674 0.25233 0.54973 0.0
H1022 H 0.4081 0.33185 0.57516 0.0
C1023 C 0.48667 0.49857 0.34344 0.0
C1024 C 0.5246 0.49562 0.34486 0.0
N1025 N 0.53931 0.48427 0.33374 0.0
N1026 N 0.47699 0.48902 0.3315 0.0
C1027 C 0.50981 0.48004 0.3258 0.0
H1028 H 0.46767 0.5095 0.35049 0.0
Co1029 Co 0.42844 0.49803 0.3253 0.0
C1030 C 0.42566 0.46207 0.3001 0.0
O1031 O 0.39671 0.44219 0.30368 0.0
N1032 N 0.37938 0.50826 0.31921 0.0
C1033 C 0.33361 0.53134 0.3072 0.0
C1034 C 0.37152 0.52694 0.30837 0.0
C1035 C 0.34542 0.50189 0.32448 0.0
N1036 N 0.31712 0.51555 0.31735 0.0
O1037 O 0.41374 0.44894 0.3304 0.0
H1038 H 0.39219 0.53724 0.30176 0.0
H1039 H 0.34133 0.48875 0.33358 0.0
O1040 O 0.44253 0.48226 0.30827 0.0
C1041 C 0.40293 0.4517 0.34191 0.0
O1042 O 0.40208 0.4848 0.34725 0.0
N1043 N 0.44242 0.54642 0.32161 0.0
C1044 C 0.46275 0.62038 0.31876 0.0
C1045 C 0.48071 0.59258 0.31171 0.0
C1046 C 0.4704 0.55557 0.3134 0.0
C1047 C 0.42485 0.57304 0.32862 0.0
C1048 C 0.43445 0.61042 0.32728 0.0
H1049 H 0.4859 0.53435 0.30847 0.0
H1050 H 0.40352 0.56504 0.33535 0.0
H1051 H 0.51245 0.47346 0.3158 0.0
H1052 H 0.54039 0.50298 0.35326 0.0
H1053 H 0.31927 0.54506 0.29945 0.0
H1054 H 0.50341 0.59926 0.30531 0.0
H1055 H 0.42009 0.63127 0.3329 0.0
C1056 C 0.17329 0.10819 0.10794 0.0
C1057 C 0.16471 0.13962 0.10063 0.0
C1058 C 0.15003 0.09662 0.11782 0.0
C1059 C 0.11738 0.11732 0.1206 0.0
C1060 C 0.10774 0.14841 0.11294 0.0
C1061 C 0.13159 0.15918 0.10294 0.0
C1062 C 0.16113 0.06276 0.12552 0.0
C1063 C 0.07331 0.17122 0.11565 0.0
C1064 C 0.05618 0.05612 0.14055 0.0
C1065 C 0.07006 0.06399 0.15271 0.0
C1066 C 0.06778 0.07674 0.12997 0.0
C1067 C 0.09417 0.10566 0.13162 0.0
C1068 C 0.10455 0.11671 0.14409 0.0
C1069 C 0.09227 0.09564 0.15456 0.0
C1070 C 0.05556 0.06428 0.1169 0.0
C1071 C 0.13217 0.14782 0.14626 0.0
H1072 H 0.1989 0.093 0.10609 0.0
H1073 H 0.12533 0.18385 0.09737 0.0
H1074 H 0.16608 0.07092 0.13555 0.0
H1075 H 0.1383 0.04186 0.12545 0.0
H1076 H 0.18683 0.04923 0.12183 0.0
H1077 H 0.06655 0.19049 0.10771 0.0
H1078 H 0.04892 0.1529 0.11744 0.0
H1079 H 0.07793 0.18804 0.12437 0.0
H1080 H 0.03866 0.03178 0.13916 0.0
H1081 H 0.1031 0.10171 0.16396 0.0
H1082 H 0.07794 0.04711 0.11256 0.0
H1083 H 0.05064 0.08857 0.1106 0.0
H1084 H 0.02973 0.04719 0.11731 0.0
H1085 H 0.16071 0.13757 0.14413 0.0
H1086 H 0.13163 0.1578 0.15626 0.0
H1087 H 0.12639 0.17165 0.13984 0.0
C1088 C 0.05489 0.93553 0.36911 0.0
C1089 C 0.0668 0.92994 0.35656 0.0
C1090 C 0.07049 0.91523 0.37917 0.0
C1091 C 0.0988 0.88885 0.37658 0.0
C1092 C 0.10749 0.87985 0.36378 0.0
C1093 C 0.09127 0.90056 0.35386 0.0
C1094 C 0.05998 0.92544 0.39261 0.0
C1095 C 0.13711 0.85144 0.36061 0.0
C1096 C 0.1827 0.8881 0.39838 0.0
C1097 C 0.17767 0.85501 0.4052 0.0
C1098 C 0.15651 0.89986 0.38939 0.0
C1099 C 0.12468 0.87751 0.38696 0.0
C1100 C 0.11864 0.8447 0.3942 0.0
C1101 C 0.14529 0.83385 0.40334 0.0
C1102 C 0.16382 0.93552 0.38213 0.0
C1103 C 0.08526 0.82004 0.39182 0.0
H1104 H 0.0357 0.95811 0.37119 0.0
H1105 H 0.10063 0.89621 0.34418 0.0
H1106 H 0.05816 0.90025 0.3987 0.0
H1107 H 0.08184 0.94386 0.39668 0.0
H1108 H 0.03292 0.94051 0.393 0.0
H1109 H 0.13562 0.84258 0.35051 0.0
H1110 H 0.16505 0.86378 0.36235 0.0
H1111 H 0.13442 0.82648 0.36678 0.0
H1112 H 0.20798 0.90424 0.39979 0.0
H1113 H 0.14192 0.8078 0.40844 0.0
H1114 H 0.1395 0.95451 0.38292 0.0
H1115 H 0.16784 0.92913 0.37191 0.0
H1116 H 0.18895 0.95048 0.38564 0.0
H1117 H 0.05946 0.83689 0.39087 0.0
H1118 H 0.08131 0.79927 0.39954 0.0
H1119 H 0.08925 0.80478 0.38275 0.0
C1120 C 0.33723 0.90321 0.59878 0.0
C1121 C 0.3236 0.86671 0.59836 0.0
C1122 C 0.35767 0.91586 0.60933 0.0
C1123 C 0.36483 0.89116 0.61958 0.0
C1124 C 0.35286 0.85359 0.6188 0.0
C1125 C 0.33186 0.84197 0.60825 0.0
C1126 C 0.36956 0.95624 0.60986 0.0
C1127 C 0.3605 0.82623 0.62938 0.0
C1128 C 0.43942 0.92358 0.64267 0.0
C1129 C 0.41794 0.93969 0.65236 0.0
C1130 C 0.42251 0.90596 0.63225 0.0
C1131 C 0.38315 0.90523 0.63136 0.0
C1132 C 0.36129 0.91999 0.64141 0.0
C1133 C 0.37902 0.93673 0.65189 0.0
C1134 C 0.44678 0.88977 0.6219 0.0
C1135 C 0.31921 0.92015 0.64076 0.0
H1136 H 0.3298 0.92251 0.59126 0.0
H1137 H 0.32043 0.81395 0.60799 0.0
H1138 H 0.35491 0.9705 0.61778 0.0
H1139 H 0.39992 0.95828 0.61177 0.0
H1140 H 0.36329 0.97134 0.60089 0.0
H1141 H 0.35307 0.7972 0.62667 0.0
H1142 H 0.3904 0.82704 0.63211 0.0
H1143 H 0.34405 0.83407 0.6379 0.0
H1144 H 0.46956 0.92596 0.64303 0.0
H1145 H 0.36236 0.94972 0.65926 0.0
H1146 H 0.44408 0.90686 0.61316 0.0
H1147 H 0.43755 0.86106 0.61951 0.0
H1148 H 0.47667 0.88894 0.62468 0.0
H1149 H 0.30999 0.93778 0.63268 0.0
H1150 H 0.30631 0.93105 0.64961 0.0
H1151 H 0.30859 0.89154 0.63901 0.0
C1152 C 0.32994 0.06043 0.85652 0.0
C1153 C 0.36458 0.06212 0.85049 0.0
C1154 C 0.32263 0.082 0.86732 0.0
C1155 C 0.35114 0.10508 0.87238 0.0
C1156 C 0.38553 0.10851 0.86587 0.0
C1157 C 0.3918 0.087 0.8549 0.0
C1158 C 0.28518 0.07812 0.87378 0.0
C1159 C 0.41665 0.13253 0.87099 0.0
C1160 C 0.31071 0.16983 0.89689 0.0
C1161 C 0.31254 0.14734 0.90776 0.0
C1162 C 0.3269 0.15831 0.88543 0.0
C1163 C 0.34509 0.12337 0.8849 0.0
C1164 C 0.35074 0.10271 0.89625 0.0
C1165 C 0.33411 0.11492 0.9076 0.0
C1166 C 0.32034 0.18128 0.87362 0.0
C1167 C 0.37057 0.06559 0.89611 0.0
H1168 H 0.30928 0.04058 0.85318 0.0
H1169 H 0.41896 0.08747 0.85037 0.0
H1170 H 0.28879 0.06417 0.88311 0.0
H1171 H 0.27288 0.10602 0.87559 0.0
H1172 H 0.26515 0.06153 0.86803 0.0
H1173 H 0.43877 0.13733 0.86378 0.0
H1174 H 0.40588 0.1599 0.87427 0.0
H1175 H 0.42945 0.11849 0.87932 0.0
H1176 H 0.29345 0.19469 0.89704 0.0
H1177 H 0.33479 0.09723 0.91596 0.0
H1178 H 0.29724 0.16869 0.86805 0.0
H1179 H 0.34547 0.1816 0.86748 0.0
H1180 H 0.31258 0.21048 0.87598 0.0
H1181 H 0.35195 0.04415 0.89189 0.0
H1182 H 0.37837 0.05641 0.90584 0.0
H1183 H 0.39611 0.06703 0.89018 0.0
C1184 C 0.93189 0.93827 0.86381 0.0
C1185 C 0.91702 0.93383 0.85158 0.0
C1186 C 0.91834 0.91741 0.87409 0.0
C1187 C 0.88899 0.89169 0.87206 0.0
C1188 C 0.8775 0.88355 0.85945 0.0
C1189 C 0.89172 0.90481 0.84929 0.0
C1190 C 0.93186 0.92676 0.88729 0.0
C1191 C 0.84685 0.85576 0.85684 0.0
C1192 C 0.84647 0.84088 0.90061 0.0
C1193 C 0.81605 0.86412 0.9033 0.0
C1194 C 0.87072 0.84913 0.89041 0.0
C1195 C 0.86441 0.88151 0.88295 0.0
C1196 C 0.83436 0.90553 0.886 0.0
C1197 C 0.8106 0.89641 0.89605 0.0
C1198 C 0.90213 0.82264 0.88737 0.0
C1199 C 0.82685 0.94084 0.87855 0.0
H1200 H 0.95173 0.96054 0.86557 0.0
H1201 H 0.88011 0.90129 0.83986 0.0
H1202 H 0.91144 0.94562 0.89194 0.0
H1203 H 0.93421 0.90129 0.89322 0.0
H1204 H 0.95936 0.94106 0.88709 0.0
H1205 H 0.84672 0.84676 0.84673 0.0
H1206 H 0.84982 0.83084 0.863 0.0
H1207 H 0.81947 0.86878 0.85898 0.0
H1208 H 0.85043 0.81567 0.90613 0.0
H1209 H 0.78728 0.91464 0.8982 0.0
H1210 H 0.92849 0.83809 0.88569 0.0
H1211 H 0.89542 0.80732 0.87849 0.0
H1212 H 0.90668 0.80198 0.89508 0.0
H1213 H 0.85174 0.95923 0.87877 0.0
H1214 H 0.80269 0.95674 0.88234 0.0
H1215 H 0.82111 0.9339 0.86846 0.0
C1216 C 0.92433 0.11402 0.65393 0.0
C1217 C 0.90502 0.08027 0.65531 0.0
C1218 C 0.91399 0.13969 0.6444 0.0
C1219 C 0.88337 0.13142 0.63633 0.0
C1220 C 0.86323 0.0978 0.63805 0.0
C1221 C 0.8745 0.07264 0.64743 0.0
C1222 C 0.93645 0.17492 0.64271 0.0
C1223 C 0.82981 0.08809 0.62991 0.0
C1224 C 0.82095 0.19792 0.6189 0.0
C1225 C 0.82817 0.18771 0.60627 0.0
C1226 C 0.84198 0.18316 0.62892 0.0
C1227 C 0.87099 0.15764 0.62621 0.0
C1228 C 0.88154 0.15122 0.6134 0.0
C1229 C 0.85987 0.16635 0.60352 0.0
C1230 C 0.8298 0.19104 0.64239 0.0
C1231 C 0.91288 0.12487 0.61012 0.0
H1232 H 0.94824 0.11965 0.65994 0.0
H1233 H 0.85937 0.04664 0.64857 0.0
H1234 H 0.95225 0.17329 0.63366 0.0
H1235 H 0.91785 0.19957 0.64206 0.0
H1236 H 0.95656 0.1793 0.65061 0.0
H1237 H 0.81675 0.06122 0.63273 0.0
H1238 H 0.80843 0.11037 0.63063 0.0
H1239 H 0.83827 0.08607 0.6198 0.0
H1240 H 0.79669 0.21487 0.62103 0.0
H1241 H 0.86565 0.15846 0.59377 0.0
H1242 H 0.8542 0.19453 0.64876 0.0
H1243 H 0.81327 0.16705 0.64597 0.0
H1244 H 0.81217 0.21647 0.64298 0.0
H1245 H 0.93674 0.1286 0.61672 0.0
H1246 H 0.92275 0.12898 0.60021 0.0
H1247 H 0.90292 0.09568 0.61108 0.0
C1248 C 0.63752 0.10426 0.34803 0.0
C1249 C 0.60109 0.09097 0.3467 0.0
C1250 C 0.6487 0.1225 0.35921 0.0
C1251 C 0.62279 0.12698 0.36929 0.0
C1252 C 0.58492 0.11734 0.36734 0.0
C1253 C 0.57456 0.09915 0.35605 0.0
C1254 C 0.68928 0.13267 0.36082 0.0
C1255 C 0.55632 0.12193 0.37773 0.0
C1256 C 0.66848 0.10842 0.40104 0.0
C1257 C 0.67507 0.1445 0.40554 0.0
C1258 C 0.6493 0.10244 0.38964 0.0
C1259 C 0.63694 0.13348 0.38243 0.0
C1260 C 0.64142 0.17002 0.38736 0.0
C1261 C 0.66052 0.17514 0.39895 0.0
C1262 C 0.64469 0.0629 0.38489 0.0
C1263 C 0.6286 0.20375 0.38001 0.0
H1264 H 0.65815 0.09709 0.34089 0.0
H1265 H 0.54653 0.08806 0.3551 0.0
H1266 H 0.69215 0.16022 0.36552 0.0
H1267 H 0.70308 0.11164 0.36697 0.0
H1268 H 0.70418 0.13345 0.35156 0.0
H1269 H 0.52744 0.12095 0.37391 0.0
H1270 H 0.55952 0.09897 0.38472 0.0
H1271 H 0.56037 0.14865 0.38288 0.0
H1272 H 0.68019 0.08486 0.40614 0.0
H1273 H 0.66642 0.2031 0.40233 0.0
H1274 H 0.66199 0.05872 0.37626 0.0
H1275 H 0.61523 0.05759 0.38221 0.0
H1276 H 0.65317 0.04193 0.39211 0.0
H1277 H 0.6485 0.20926 0.37216 0.0
H1278 H 0.62723 0.22901 0.38611 0.0
H1279 H 0.60078 0.19888 0.37569 0.0
C1280 C 0.60154 0.89649 0.15225 0.0
C1281 C 0.62248 0.92789 0.15569 0.0
C1282 C 0.61373 0.87283 0.14237 0.0
C1283 C 0.64757 0.88094 0.13595 0.0
C1284 C 0.6696 0.91157 0.13995 0.0
C1285 C 0.65663 0.93471 0.14968 0.0
C1286 C 0.58952 0.84048 0.13837 0.0
C1287 C 0.7062 0.92103 0.13357 0.0
C1288 C 0.70687 0.81594 0.11638 0.0
C1289 C 0.70162 0.83045 0.10414 0.0
C1290 C 0.68633 0.82937 0.12675 0.0
C1291 C 0.66034 0.8585 0.12484 0.0
C1292 C 0.65248 0.87082 0.1123 0.0
C1293 C 0.67318 0.85645 0.10203 0.0
C1294 C 0.6953 0.81505 0.13989 0.0
C1295 C 0.62493 0.9018 0.10985 0.0
H1296 H 0.57471 0.89175 0.15672 0.0
H1297 H 0.67264 0.95924 0.15228 0.0
H1298 H 0.57642 0.84686 0.12907 0.0
H1299 H 0.6065 0.81487 0.13712 0.0
H1300 H 0.56705 0.83476 0.14538 0.0
H1301 H 0.72057 0.94492 0.13819 0.0
H1302 H 0.72515 0.89658 0.13379 0.0
H1303 H 0.70122 0.92817 0.12345 0.0
H1304 H 0.72873 0.79555 0.11799 0.0
H1305 H 0.66927 0.86785 0.09258 0.0
H1306 H 0.66949 0.81126 0.14555 0.0
H1307 H 0.71298 0.83576 0.14492 0.0
H1308 H 0.71061 0.78812 0.13955 0.0
H1309 H 0.59913 0.89752 0.11548 0.0
H1310 H 0.61741 0.90385 0.09963 0.0
H1311 H 0.63733 0.92877 0.11286 0.0
C1312 C 0.67935 0.60871 0.60487 0.0
C1313 C 0.67594 0.64238 0.59827 0.0
C1314 C 0.65457 0.59928 0.61459 0.0
C1315 C 0.6257 0.62443 0.61793 0.0
C1316 C 0.62094 0.6578 0.61087 0.0
C1317 C 0.64622 0.6664 0.60103 0.0
C1318 C 0.66043 0.56299 0.62165 0.0
C1319 C 0.59061 0.68531 0.61414 0.0
C1320 C 0.55788 0.57104 0.63802 0.0
C1321 C 0.57429 0.57516 0.65003 0.0
C1322 C 0.5712 0.59105 0.62752 0.0
C1323 C 0.60189 0.6154 0.6291 0.0
C1324 C 0.61509 0.62339 0.64153 0.0
C1325 C 0.601 0.60313 0.65191 0.0
C1326 C 0.55573 0.58225 0.61452 0.0
C1327 C 0.64735 0.64969 0.64366 0.0
H1328 H 0.70242 0.59019 0.6027 0.0
H1329 H 0.64405 0.69277 0.59604 0.0
H1330 H 0.66738 0.56882 0.63173 0.0
H1331 H 0.63446 0.54616 0.62152 0.0
H1332 H 0.68327 0.54598 0.61748 0.0
H1333 H 0.58582 0.70557 0.60632 0.0
H1334 H 0.56401 0.6708 0.61628 0.0
H1335 H 0.59885 0.7011 0.62277 0.0
H1336 H 0.53692 0.5496 0.63658 0.0
H1337 H 0.61378 0.60639 0.66119 0.0
H1338 H 0.57447 0.5621 0.60968 0.0
H1339 H 0.55425 0.60771 0.60855 0.0
H1340 H 0.52748 0.5696 0.61511 0.0
H1341 H 0.67373 0.63552 0.64098 0.0
H1342 H 0.64947 0.65841 0.65377 0.0
H1343 H 0.64455 0.67489 0.63762 0.0
C1344 C 0.6376 0.34969 0.90622 0.0
C1345 C 0.66331 0.37683 0.91011 0.0
C1346 C 0.61557 0.35529 0.89529 0.0
C1347 C 0.61956 0.38875 0.88825 0.0
C1348 C 0.64384 0.4171 0.89272 0.0
C1349 C 0.66556 0.41061 0.90354 0.0
C1350 C 0.59007 0.32445 0.89086 0.0
C1351 C 0.64863 0.45354 0.88568 0.0
C1352 C 0.60844 0.40411 0.85304 0.0
C1353 C 0.57811 0.42861 0.85305 0.0
C1354 C 0.61989 0.38675 0.86437 0.0
C1355 C 0.60039 0.39426 0.87583 0.0
C1356 C 0.56681 0.41491 0.87541 0.0
C1357 C 0.55625 0.43216 0.86401 0.0
C1358 C 0.65557 0.36444 0.86437 0.0
C1359 C 0.54476 0.42303 0.8873 0.0
H1360 H 0.63664 0.32316 0.91116 0.0
H1361 H 0.68583 0.43132 0.90653 0.0
H1362 H 0.56332 0.33583 0.88724 0.0
H1363 H 0.6036 0.3092 0.88293 0.0
H1364 H 0.5841 0.3042 0.89859 0.0
H1365 H 0.66709 0.47334 0.89084 0.0
H1366 H 0.66085 0.44818 0.87617 0.0
H1367 H 0.62116 0.46712 0.88422 0.0
H1368 H 0.62566 0.4019 0.8446 0.0
H1369 H 0.53294 0.45146 0.86399 0.0
H1370 H 0.65287 0.33945 0.87051 0.0
H1371 H 0.67851 0.38185 0.86826 0.0
H1372 H 0.66346 0.35541 0.85463 0.0
H1373 H 0.54346 0.39813 0.89355 0.0
H1374 H 0.51589 0.43215 0.88505 0.0
H1375 H 0.5587 0.4457 0.8927 0.0
C1376 C 0.81397 0.39021 0.10868 0.0
C1377 C 0.8209 0.35794 0.10158 0.0
C1378 C 0.83974 0.40339 0.11755 0.0
C1379 C 0.87326 0.38338 0.11957 0.0
C1380 C 0.88119 0.35141 0.11209 0.0
C1381 C 0.85481 0.33908 0.10307 0.0
C1382 C 0.8303 0.43812 0.12507 0.0
C1383 C 0.91647 0.32925 0.11405 0.0
C1384 C 0.93842 0.44718 0.13703 0.0
C1385 C 0.92764 0.44045 0.14963 0.0
C1386 C 0.92448 0.42539 0.12704 0.0
C1387 C 0.89894 0.39642 0.12976 0.0
C1388 C 0.89166 0.38663 0.14258 0.0
C1389 C 0.90621 0.40884 0.15243 0.0
C1390 C 0.93345 0.43649 0.11355 0.0
C1391 C 0.86501 0.35553 0.14588 0.0
H1392 H 0.78765 0.40475 0.10754 0.0
H1393 H 0.8598 0.31373 0.09771 0.0
H1394 H 0.8278 0.43112 0.1353 0.0
H1395 H 0.85291 0.45907 0.1241 0.0
H1396 H 0.80373 0.45112 0.12192 0.0
H1397 H 0.92161 0.30952 0.1061 0.0
H1398 H 0.94095 0.34797 0.11505 0.0
H1399 H 0.91409 0.31296 0.12298 0.0
H1400 H 0.95551 0.47133 0.13487 0.0
H1401 H 0.89792 0.40346 0.16216 0.0
H1402 H 0.90991 0.45299 0.10962 0.0
H1403 H 0.93712 0.41156 0.10743 0.0
H1404 H 0.9591 0.45383 0.11304 0.0
H1405 H 0.83594 0.36525 0.14438 0.0
H1406 H 0.86794 0.3467 0.15595 0.0
H1407 H 0.8696 0.33103 0.13963 0.0
C1408 C 0.86403 0.58018 0.3565 0.0
C1409 C 0.89836 0.58145 0.35022 0.0
C1410 C 0.8561 0.60441 0.36654 0.0
C1411 C 0.8834 0.63057 0.37048 0.0
C1412 C 0.91748 0.63342 0.36371 0.0
C1413 C 0.92461 0.60867 0.35357 0.0
C1414 C 0.81903 0.60064 0.37329 0.0
C1415 C 0.9472 0.66095 0.36758 0.0
C1416 C 0.8333 0.6983 0.39143 0.0
C1417 C 0.83534 0.67952 0.40308 0.0
C1418 C 0.85357 0.68579 0.38087 0.0
C1419 C 0.87576 0.65336 0.38202 0.0
C1420 C 0.88193 0.63761 0.39421 0.0
C1421 C 0.86161 0.65104 0.40468 0.0
C1422 C 0.84702 0.7041 0.36816 0.0
C1423 C 0.90589 0.60339 0.39589 0.0
H1424 H 0.84378 0.55905 0.35385 0.0
H1425 H 0.95143 0.60916 0.34882 0.0
H1426 H 0.82367 0.59214 0.3833 0.0
H1427 H 0.8043 0.62784 0.3734 0.0
H1428 H 0.80053 0.57969 0.36872 0.0
H1429 H 0.96758 0.66578 0.3598 0.0
H1430 H 0.93479 0.68806 0.37041 0.0
H1431 H 0.96255 0.6498 0.37591 0.0
H1432 H 0.8131 0.72056 0.39024 0.0
H1433 H 0.86312 0.63641 0.41368 0.0
H1434 H 0.82584 0.68787 0.36279 0.0
H1435 H 0.87298 0.7046 0.36242 0.0
H1436 H 0.83655 0.73309 0.36926 0.0
H1437 H 0.89022 0.57848 0.39258 0.0
H1438 H 0.91371 0.59904 0.406 0.0
H1439 H 0.93166 0.60551 0.3901 0.0
C1440 C 0.32441 0.36819 0.40341 0.0
C1441 C 0.30415 0.33504 0.40235 0.0
C1442 C 0.34549 0.38144 0.3931 0.0
C1443 C 0.34675 0.36046 0.38165 0.0
C1444 C 0.32916 0.32518 0.38108 0.0
C1445 C 0.30745 0.31319 0.39138 0.0
C1446 C 0.36342 0.41944 0.39405 0.0
C1447 C 0.33068 0.30149 0.36923 0.0
C1448 C 0.34999 0.41995 0.352 0.0
C1449 C 0.38811 0.42024 0.34922 0.0
C1450 C 0.33601 0.39916 0.36219 0.0
C1451 C 0.3609 0.37807 0.36979 0.0
C1452 C 0.39915 0.37618 0.36647 0.0
C1453 C 0.41243 0.39768 0.35623 0.0
C1454 C 0.295 0.40207 0.36537 0.0
C1455 C 0.4264 0.35354 0.3742 0.0
H1456 H 0.3213 0.3852 0.41187 0.0
H1457 H 0.29159 0.2875 0.39063 0.0
H1458 H 0.39251 0.41855 0.39049 0.0
H1459 H 0.34779 0.43948 0.38802 0.0
H1460 H 0.3636 0.43015 0.40397 0.0
H1461 H 0.32169 0.27234 0.37111 0.0
H1462 H 0.31195 0.31354 0.36191 0.0
H1463 H 0.35932 0.3011 0.36524 0.0
H1464 H 0.33135 0.43799 0.34673 0.0
H1465 H 0.44211 0.39882 0.35427 0.0
H1466 H 0.29156 0.41595 0.37473 0.0
H1467 H 0.28244 0.37388 0.36612 0.0
H1468 H 0.2792 0.41823 0.35814 0.0
H1469 H 0.43165 0.36776 0.38339 0.0
H1470 H 0.4535 0.35005 0.36922 0.0
H1471 H 0.41474 0.32557 0.37636 0.0
C1472 C 0.40083 0.62177 0.15628 0.0
C1473 C 0.37922 0.59076 0.15966 0.0
C1474 C 0.3898 0.64507 0.14615 0.0
C1475 C 0.35666 0.63679 0.13933 0.0
C1476 C 0.33373 0.60683 0.14334 0.0
C1477 C 0.34538 0.58425 0.15342 0.0
C1478 C 0.41474 0.67696 0.14227 0.0
C1479 C 0.29791 0.59706 0.13652 0.0
C1480 C 0.29978 0.69696 0.11738 0.0
C1481 C 0.30711 0.68003 0.10564 0.0
C1482 C 0.31935 0.68644 0.12835 0.0
C1483 C 0.34608 0.65753 0.12759 0.0
C1484 C 0.35621 0.64309 0.1155 0.0
C1485 C 0.33667 0.65476 0.1046 0.0
C1486 C 0.30835 0.70331 0.14095 0.0
C1487 C 0.38458 0.61224 0.11425 0.0
H1488 H 0.42743 0.62629 0.16095 0.0
H1489 H 0.32888 0.56002 0.15597 0.0
H1490 H 0.43081 0.66885 0.13369 0.0
H1491 H 0.39807 0.70201 0.1398 0.0
H1492 H 0.43485 0.68439 0.1499 0.0
H1493 H 0.2827 0.57376 0.14117 0.0
H1494 H 0.27917 0.62165 0.13616 0.0
H1495 H 0.30415 0.58886 0.12657 0.0
H1496 H 0.27685 0.71657 0.11815 0.0
H1497 H 0.342 0.64137 0.09553 0.0
H1498 H 0.33319 0.70787 0.14705 0.0
H1499 H 0.28945 0.68384 0.14603 0.0
H1500 H 0.29354 0.73028 0.13969 0.0
H1501 H 0.39364 0.60832 0.10424 0.0
H1502 H 0.37215 0.58569 0.11765 0.0
H1503 H 0.40943 0.6181 0.1202 0.0
C1504 C 0.11432 0.5998 0.85243 0.0
C1505 C 0.13037 0.56429 0.85143 0.0
C1506 C 0.12584 0.62467 0.86205 0.0
C1507 C 0.15438 0.61377 0.87062 0.0
C1508 C 0.17185 0.5786 0.86913 0.0
C1509 C 0.15936 0.55424 0.85964 0.0
C1510 C 0.10632 0.66172 0.86342 0.0
C1511 C 0.20303 0.56608 0.87781 0.0
C1512 C 0.21572 0.67747 0.89 0.0
C1513 C 0.20391 0.66915 0.90239 0.0
C1514 C 0.19746 0.66247 0.87939 0.0
C1515 C 0.16659 0.63852 0.88122 0.0
C1516 C 0.15216 0.6332 0.89365 0.0
C1517 C 0.17107 0.64863 0.90414 0.0
C1518 C 0.21378 0.66905 0.86635 0.0
C1519 C 0.11894 0.60828 0.89597 0.0
H1520 H 0.09145 0.60727 0.84619 0.0
H1521 H 0.17166 0.52669 0.85885 0.0
H1522 H 0.08928 0.66156 0.87222 0.0
H1523 H 0.12691 0.68467 0.86435 0.0
H1524 H 0.08771 0.66774 0.85522 0.0
H1525 H 0.21459 0.53851 0.87502 0.0
H1526 H 0.22601 0.58683 0.87771 0.0
H1527 H 0.19267 0.5641 0.88772 0.0
H1528 H 0.24097 0.69365 0.88861 0.0
H1529 H 0.16194 0.64199 0.9137 0.0
H1530 H 0.19146 0.6743 0.85927 0.0
H1531 H 0.22915 0.64374 0.86327 0.0
H1532 H 0.23345 0.69301 0.86628 0.0
H1533 H 0.09673 0.6137 0.88887 0.0
H1534 H 0.10725 0.61222 0.90566 0.0
H1535 H 0.12753 0.57868 0.89496 0.0
C1536 C 0.17538 0.36231 0.60331 0.0
C1537 C 0.21031 0.37883 0.6013 0.0
C1538 C 0.15314 0.37309 0.61375 0.0
C1539 C 0.1661 0.40126 0.62214 0.0
C1540 C 0.20094 0.41859 0.61984 0.0
C1541 C 0.22257 0.40701 0.60952 0.0
C1542 C 0.11632 0.35381 0.61599 0.0
C1543 C 0.21561 0.44937 0.62832 0.0
C1544 C 0.10677 0.46555 0.64184 0.0
C1545 C 0.11628 0.45451 0.6542 0.0
C1546 C 0.11978 0.44602 0.63122 0.0
C1547 C 0.14307 0.41465 0.633 0.0
C1548 C 0.14979 0.40121 0.64549 0.0
C1549 C 0.13621 0.42139 0.65602 0.0
C1550 C 0.11181 0.46144 0.61814 0.0
C1551 C 0.17414 0.36758 0.64778 0.0
H1552 H 0.16619 0.34009 0.59706 0.0
H1553 H 0.24954 0.41992 0.60793 0.0
H1554 H 0.11727 0.33863 0.62517 0.0
H1555 H 0.09352 0.37462 0.61668 0.0
H1556 H 0.10945 0.33365 0.60831 0.0
H1557 H 0.24324 0.45992 0.62517 0.0
H1558 H 0.19572 0.47308 0.62842 0.0
H1559 H 0.21829 0.43912 0.63822 0.0
H1560 H 0.09084 0.49095 0.64044 0.0
H1561 H 0.14356 0.41285 0.66559 0.0
H1562 H 0.10471 0.43874 0.6114 0.0
H1563 H 0.13715 0.47562 0.61447 0.0
H1564 H 0.08859 0.48196 0.61825 0.0
H1565 H 0.16757 0.3451 0.64088 0.0
H1566 H 0.17082 0.35654 0.65758 0.0
H1567 H 0.2038 0.37546 0.6464 0.0
C1568 C 0.28522 0.16702 0.98271 0.0
C1569 C 0.26598 0.18461 0.97276 0.0
C1570 C 0.27245 0.16961 0.99534 0.0
C1571 C 0.23915 0.18943 0.99803 0.0
C1572 C 0.22052 0.20845 0.98813 0.0
C1573 C 0.23462 0.20647 0.97573 0.0
C1574 C 0.29386 0.15001 0.00573 0.0
C1575 C 0.18451 0.22925 0.99049 0.0
C1576 C 0.18648 0.15751 0.02749 0.0
C1577 C 0.19637 0.18501 0.03637 0.0
C1578 C 0.19913 0.15936 0.01485 0.0
C1579 C 0.22291 0.18894 0.01108 0.0
C1580 C 0.23144 0.21771 0.01981 0.0
C1581 C 0.2173 0.21583 0.03224 0.0
C1582 C 0.18819 0.12886 0.00568 0.0
C1583 C 0.25706 0.24949 0.01625 0.0
H1584 H 0.30959 0.15025 0.9806 0.0
H1585 H 0.21985 0.22083 0.96828 0.0
H1586 H 0.29912 0.16942 0.01376 0.0
H1587 H 0.27707 0.12646 0.00948 0.0
H1588 H 0.321 0.13892 1.00231 0.0
H1589 H 0.17409 0.24359 0.98183 0.0
H1590 H 0.16279 0.20942 0.99379 0.0
H1591 H 0.18832 0.25028 0.99811 0.0
H1592 H 0.17021 0.13364 0.03052 0.0
H1593 H 0.22393 0.23791 0.03887 0.0
H1594 H 0.21318 0.11234 1.00304 0.0
H1595 H 0.17683 0.14115 0.9968 0.0
H1596 H 0.16702 0.10967 0.00976 0.0
H1597 H 0.28504 0.23832 0.01383 0.0
H1598 H 0.26024 0.27011 0.02407 0.0
H1599 H 0.24642 0.26411 0.00771 0.0
C1600 C 0.08281 0.9597 0.2779 0.0
C1601 C 0.06253 0.97825 0.28734 0.0
C1602 C 0.07557 0.96603 0.26498 0.0
C1603 C 0.04891 0.99329 0.26143 0.0
C1604 C 0.02595 0.0095 0.2709 0.0
C1605 C 0.03222 1.0007 0.28377 0.0
C1606 C 0.09901 0.94608 0.25519 0.0
C1607 C 0.99774 0.03924 0.26766 0.0
C1608 C 0.08744 0.04022 0.23219 0.0
C1609 C 0.06689 0.02305 0.22251 0.0
C1610 C 0.0787 0.03421 0.24502 0.0
C1611 C 0.05003 0.00867 0.24824 0.0
C1612 C 0.0269 0.99407 0.23851 0.0
C1613 C 0.03485 0.0026 0.22573 0.0
C1614 C 0.10254 0.0525 0.25508 0.0
C1615 C 0.99655 0.96612 0.24134 0.0
H1616 H 0.10598 0.94196 0.28063 0.0
H1617 H 0.01566 0.01433 0.291 0.0
H1618 H 0.08167 0.93751 0.24695 0.0
H1619 H 0.12104 0.96517 0.25165 0.0
H1620 H 0.11276 0.92095 0.25922 0.0
H1621 H 0.97656 0.04242 0.27529 0.0
H1622 H 0.01245 0.0663 0.26655 0.0
H1623 H 0.98332 0.03315 0.25857 0.0
H1624 H 0.1119 0.05652 0.22974 0.0
H1625 H 0.01807 0.99013 0.2183 0.0
H1626 H 0.12297 0.03199 0.25881 0.0
H1627 H 0.08512 0.06209 0.26316 0.0
H1628 H 0.11825 0.07672 0.25124 0.0
H1629 H 0.00906 0.93781 0.24166 0.0
H1630 H 0.97478 0.96623 0.23382 0.0
H1631 H 0.98316 0.97138 0.25067 0.0
C1632 C 0.30379 0.86111 0.5236 0.0
C1633 C 0.2943 0.83383 0.53261 0.0
C1634 C 0.29364 0.85716 0.51075 0.0
C1635 C 0.27311 0.82539 0.5068 0.0
C1636 C 0.26502 0.79696 0.51572 0.0
C1637 C 0.2762 0.80128 0.52844 0.0
C1638 C 0.30362 0.88772 0.50148 0.0
C1639 C 0.24318 0.76267 0.51194 0.0
C1640 C 0.21344 0.83733 0.47702 0.0
C1641 C 0.23565 0.82035 0.4677 0.0
C1642 C 0.22476 0.8382 0.48984 0.0
C1643 C 0.25947 0.82234 0.49341 0.0
C1644 C 0.28168 0.80463 0.48408 0.0
C1645 C 0.26945 0.80374 0.47141 0.0
C1646 C 0.19996 0.85685 0.49953 0.0
C1647 C 0.31913 0.7879 0.48739 0.0
H1648 H 0.31771 0.88639 0.52668 0.0
H1649 H 0.26965 0.77957 0.53523 0.0
H1650 H 0.31794 0.8758 0.49306 0.0
H1651 H 0.27783 0.90152 0.49805 0.0
H1652 H 0.32198 0.90922 0.50582 0.0
H1653 H 0.24013 0.74259 0.51992 0.0
H1654 H 0.21494 0.77097 0.50868 0.0
H1655 H 0.25703 0.74831 0.50389 0.0
H1656 H 0.18743 0.85043 0.47426 0.0
H1657 H 0.28743 0.7915 0.46432 0.0
H1658 H 0.21431 0.88165 0.50353 0.0
H1659 H 0.19433 0.83751 0.50754 0.0
H1660 H 0.17292 0.8659 0.4954 0.0
H1661 H 0.33825 0.81019 0.49073 0.0
H1662 H 0.33223 0.77358 0.47915 0.0
H1663 H 0.31614 0.76757 0.49526 0.0
C1664 C 0.41501 0.02261 0.77951 0.0
C1665 C 0.38657 0.9999 0.78438 0.0
C1666 C 0.41848 0.02828 0.7663 0.0
C1667 C 0.39294 0.01081 0.75787 0.0
C1668 C 0.36361 0.98886 0.76282 0.0
C1669 C 0.36074 0.98384 0.77597 0.0
C1670 C 0.44989 0.0522 0.76134 0.0
C1671 C 0.33563 0.96992 0.75422 0.0
C1672 C 0.37696 0.0475 0.72452 0.0
C1673 C 0.39762 0.02238 0.71707 0.0
C1674 C 0.37611 0.04464 0.73779 0.0
C1675 C 0.39611 0.0157 0.74386 0.0
C1676 C 0.41678 0.98995 0.73643 0.0
C1677 C 0.41736 0.99363 0.72311 0.0
C1678 C 0.35359 0.07255 0.74534 0.0
C1679 C 0.43813 0.95845 0.74257 0.0
H1680 H 0.43524 0.03479 0.78596 0.0
H1681 H 0.3385 0.96645 0.77967 0.0
H1682 H 0.46859 0.03515 0.75527 0.0
H1683 H 0.43858 0.07492 0.7553 0.0
H1684 H 0.46665 0.06478 0.76912 0.0
H1685 H 0.31435 0.9539 0.75962 0.0
H1686 H 0.3211 0.99095 0.74828 0.0
H1687 H 0.35022 0.95053 0.74767 0.0
H1688 H 0.36163 0.06989 0.71997 0.0
H1689 H 0.43367 0.97431 0.71746 0.0
H1690 H 0.37151 0.08624 0.75257 0.0
H1691 H 0.33085 0.05804 0.7505 0.0
H1692 H 0.34102 0.09446 0.73922 0.0
H1693 H 0.45807 0.96971 0.74966 0.0
H1694 H 0.45382 0.94153 0.73552 0.0
H1695 H 0.41856 0.93986 0.74773 0.0
C1696 C 0.78862 0.84608 0.9819 0.0
C1697 C 0.77499 0.82419 0.9719 0.0
C1698 C 0.78505 0.83445 0.99458 0.0
C1699 C 0.76538 0.80116 0.99733 0.0
C1700 C 0.75369 0.77775 0.98722 0.0
C1701 C 0.75991 0.78899 0.97459 0.0
C1702 C 0.80037 0.85898 0.00502 0.0
C1703 C 0.73147 0.74268 0.98966 0.0
C1704 C 0.76841 0.7605 0.03064 0.0
C1705 C 0.73866 0.77902 0.03658 0.0
C1706 C 0.77777 0.76777 0.01794 0.0
C1707 C 0.75521 0.79221 0.01073 0.0
C1708 C 0.72381 0.80945 0.0165 0.0
C1709 C 0.71665 0.80362 0.02951 0.0
C1710 C 0.81285 0.7508 0.01248 0.0
C1711 C 0.69809 0.83445 0.00899 0.0
H1712 H 0.80037 0.8733 0.97984 0.0
H1713 H 0.74984 0.77163 0.96691 0.0
H1714 H 0.77719 0.87412 0.00971 0.0
H1715 H 0.81453 0.84191 0.01238 0.0
H1716 H 0.82046 0.8799 1.0013 0.0
H1717 H 0.72781 0.72568 0.98091 0.0
H1718 H 0.74496 0.72521 0.99703 0.0
H1719 H 0.70346 0.75047 0.99329 0.0
H1720 H 0.78561 0.74154 0.03611 0.0
H1721 H 0.69382 0.81808 0.03414 0.0
H1722 H 0.8322 0.77334 0.00949 0.0
H1723 H 0.80625 0.73411 0.0039 0.0
H1724 H 0.82752 0.73263 0.01942 0.0
H1725 H 0.71271 0.86073 0.00653 0.0
H1726 H 0.67242 0.84159 0.01438 0.0
H1727 H 0.68995 0.82071 0.99995 0.0
C1728 C 0.95299 0.00967 0.7811 0.0
C1729 C 0.91782 0.9932 0.78286 0.0
C1730 C 0.96468 0.02129 0.76895 0.0
C1731 C 0.94129 0.01485 0.75831 0.0
C1732 C 0.90754 0.99484 0.75993 0.0
C1733 C 0.89601 0.98477 0.77219 0.0
C1734 C 1.00058 0.04297 0.76771 0.0
C1735 C 0.88248 0.98588 0.74878 0.0
C1736 C 0.93585 0.07511 0.7287 0.0
C1737 C 0.95426 0.0527 0.71975 0.0
C1738 C 0.93421 0.06468 0.74158 0.0
C1739 C 0.95049 0.03056 0.74555 0.0
C1740 C 0.97146 0.00934 0.73678 0.0
C1741 C 0.97376 0.02111 0.72409 0.0
C1742 C 0.91278 0.0889 0.75077 0.0
C1743 C 0.98873 0.97247 0.74048 0.0
H1744 H 0.97015 0.01611 0.7893 0.0
H1745 H 0.86899 0.9717 0.77348 0.0
H1746 H 0.0168 0.03356 0.75933 0.0
H1747 H 0.99394 0.07291 0.76627 0.0
H1748 H 0.01832 0.04038 0.77632 0.0
H1749 H 0.85943 0.96671 0.75145 0.0
H1750 H 0.87012 0.012 0.74501 0.0
H1751 H 0.89881 0.97289 0.74099 0.0
H1752 H 0.92106 0.0998 0.72555 0.0
H1753 H 0.98884 0.00395 0.71742 0.0
H1754 H 0.9286 0.09233 0.75977 0.0
H1755 H 0.88586 0.07528 0.75313 0.0
H1756 H 0.90681 0.11692 0.74675 0.0
H1757 H 0.00427 0.97501 0.74955 0.0
H1758 H 0.00794 0.96169 0.73305 0.0
H1759 H 0.96628 0.95158 0.74196 0.0
C1760 C 0.7621 0.22182 0.53433 0.0
C1761 C 0.78066 0.18809 0.5368 0.0
C1762 C 0.75133 0.23134 0.52186 0.0
C1763 C 0.76093 0.20739 0.51166 0.0
C1764 C 0.78382 0.17589 0.51402 0.0
C1765 C 0.79288 0.16636 0.52656 0.0
C1766 C 0.72683 0.26502 0.51985 0.0
C1767 C 0.79631 0.15043 0.50339 0.0
C1768 C 0.70532 0.18338 0.48246 0.0
C1769 C 0.72758 0.19912 0.47295 0.0
C1770 C 0.71283 0.19015 0.49536 0.0
C1771 C 0.74422 0.21207 0.49877 0.0
C1772 C 0.76378 0.23171 0.4892 0.0
C1773 C 0.75474 0.22545 0.47638 0.0
C1774 C 0.69012 0.16994 0.50528 0.0
C1775 C 0.7975 0.25523 0.4923 0.0
H1776 H 0.75302 0.23912 0.54218 0.0
H1777 H 0.80769 0.14054 0.52841 0.0
H1778 H 0.73356 0.27938 0.5108 0.0
H1779 H 0.6973 0.25582 0.51932 0.0
H1780 H 0.72945 0.28525 0.5278 0.0
H1781 H 0.81778 0.13016 0.50659 0.0
H1782 H 0.772 0.13456 0.49971 0.0
H1783 H 0.8079 0.16693 0.49539 0.0
H1784 H 0.68459 0.16267 0.47986 0.0
H1785 H 0.77215 0.23776 0.46913 0.0
H1786 H 0.68489 0.18822 0.5136 0.0
H1787 H 0.70584 0.14518 0.50865 0.0
H1788 H 0.66293 0.16029 0.50141 0.0
H1789 H 0.79375 0.27061 0.50135 0.0
H1790 H 0.80358 0.27553 0.48459 0.0
H1791 H 0.82213 0.23674 0.49338 0.0
C1792 C 0.54148 0.01053 0.27928 0.0
C1793 C 0.56417 0.04058 0.28302 0.0
C1794 C 0.54121 0.99745 0.2667 0.0
C1795 C 0.56317 0.01568 0.25743 0.0
C1796 C 0.58407 0.0477 0.26089 0.0
C1797 C 0.58463 0.05954 0.27366 0.0
C1798 C 0.51895 0.9629 0.26351 0.0
C1799 C 0.60697 0.06864 0.2512 0.0
C1800 C 0.59833 0.96299 0.22835 0.0
C1801 C 0.57338 0.97482 0.21889 0.0
C1802 C 0.59455 0.9751 0.24101 0.0
C1803 C 0.56562 1.00029 0.24426 0.0
C1804 C 0.5395 0.01115 0.23489 0.0
C1805 C 0.54325 0.99764 0.22241 0.0
C1806 C 0.62226 0.96182 0.25083 0.0
C1807 C 0.5085 0.03828 0.23789 0.0
H1808 H 0.52498 0.99602 0.28627 0.0
H1809 H 0.60211 0.08291 0.27635 0.0
H1810 H 0.50006 0.96834 0.25537 0.0
H1811 H 0.53818 0.94019 0.2606 0.0
H1812 H 0.50201 0.95295 0.27168 0.0
H1813 H 0.61882 0.09487 0.25513 0.0
H1814 H 0.63027 0.05078 0.24787 0.0
H1815 H 0.58963 0.07554 0.24278 0.0
H1816 H 0.62159 0.94519 0.22581 0.0
H1817 H 0.52305 0.00594 0.21535 0.0
H1818 H 0.60739 0.95023 0.25919 0.0
H1819 H 0.63925 0.9857 0.25422 0.0
H1820 H 0.64135 0.94013 0.24701 0.0
H1821 H 0.49123 0.02764 0.24584 0.0
H1822 H 0.49011 0.04347 0.22957 0.0
H1823 H 0.52061 0.06528 0.241 0.0
C1824 C 0.69539 0.67767 0.52596 0.0
C1825 C 0.71723 0.69496 0.53533 0.0
C1826 C 0.70595 0.67875 0.51308 0.0
C1827 C 0.73961 0.69674 0.50952 0.0
C1828 C 0.76028 0.71644 0.51879 0.0
C1829 C 0.7484 0.71592 0.53149 0.0
C1830 C 0.68233 0.65854 0.5034 0.0
C1831 C 0.79659 0.73553 0.51551 0.0
C1832 C 0.7857 0.64881 0.48156 0.0
C1833 C 0.776 0.67225 0.47143 0.0
C1834 C 0.77618 0.65787 0.49411 0.0
C1835 C 0.75543 0.6907 0.49657 0.0
C1836 C 0.74798 0.7159 0.4865 0.0
C1837 C 0.75911 0.70672 0.47405 0.0
C1838 C 0.78625 0.63098 0.50461 0.0
C1839 C 0.72552 0.75094 0.48865 0.0
H1840 H 0.67097 0.6618 0.52872 0.0
H1841 H 0.76497 0.73031 0.53849 0.0
H1842 H 0.67824 0.67614 0.49484 0.0
H1843 H 0.69681 0.63269 0.50034 0.0
H1844 H 0.65458 0.65075 0.50727 0.0
H1845 H 0.80687 0.75346 0.52338 0.0
H1846 H 0.8181 0.71409 0.51346 0.0
H1847 H 0.79349 0.75285 0.50684 0.0
H1848 H 0.79903 0.62228 0.47958 0.0
H1849 H 0.75173 0.72512 0.46628 0.0
H1850 H 0.76065 0.61697 0.50813 0.0
H1851 H 0.79886 0.64614 0.51275 0.0
H1852 H 0.80613 0.6092 0.50137 0.0
H1853 H 0.69571 0.74333 0.48982 0.0
H1854 H 0.72786 0.77058 0.48052 0.0
H1855 H 0.73444 0.76546 0.49745 0.0
C1856 C 0.61003 0.53563 0.72853 0.0
C1857 C 0.58637 0.52335 0.71881 0.0
C1858 C 0.60072 0.53046 0.74133 0.0
C1859 C 0.56717 0.51176 0.74452 0.0
C1860 C 0.54203 0.50124 0.73476 0.0
C1861 C 0.55176 0.50758 0.72197 0.0
C1862 C 0.6279 0.54321 0.75142 0.0
C1863 C 0.50617 0.48103 0.73774 0.0
C1864 C 0.58086 0.46562 0.77647 0.0
C1865 C 0.56654 0.49289 0.78461 0.0
C1866 C 0.57744 0.46927 0.76321 0.0
C1867 C 0.56027 0.50154 0.75806 0.0
C1868 C 0.54279 0.52736 0.7663 0.0
C1869 C 0.54609 0.52264 0.77949 0.0
C1870 C 0.59567 0.44057 0.75476 0.0
C1871 C 0.52445 0.56227 0.76128 0.0
H1872 H 0.63674 0.54791 0.72609 0.0
H1873 H 0.53347 0.49776 0.71447 0.0
H1874 H 0.61332 0.56008 0.75873 0.0
H1875 H 0.6401 0.51858 0.75627 0.0
H1876 H 0.65104 0.56013 0.7474 0.0
H1877 H 0.48702 0.48036 0.72944 0.0
H1878 H 0.51266 0.45188 0.74051 0.0
H1879 H 0.49158 0.49425 0.74588 0.0
H1880 H 0.59733 0.44303 0.78041 0.0
H1881 H 0.53562 0.54426 0.78571 0.0
H1882 H 0.6223 0.45194 0.75102 0.0
H1883 H 0.57756 0.434 0.7465 0.0
H1884 H 0.60184 0.41435 0.75998 0.0
H1885 H 0.54634 0.58265 0.75855 0.0
H1886 H 0.50619 0.57551 0.76852 0.0
H1887 H 0.50763 0.55619 0.75267 0.0
C1888 C 0.69681 0.3618 0.98398 0.0
C1889 C 0.70355 0.33477 0.9746 0.0
C1890 C 0.70891 0.35656 0.99657 0.0
C1891 C 0.72885 0.3238 0.99985 0.0
C1892 C 0.73432 0.29573 0.99057 0.0
C1893 C 0.72093 0.30123 0.97816 0.0
C1894 C 0.70139 0.38667 0.00628 0.0
C1895 C 0.75561 0.26051 0.99362 0.0
C1896 C 0.79148 0.33266 0.02903 0.0
C1897 C 0.76942 0.31615 0.0385 0.0
C1898 C 0.77935 0.33395 0.01629 0.0
C1899 C 0.74396 0.3191 0.01298 0.0
C1900 C 0.72221 0.30131 0.0224 0.0
C1901 C 0.73541 0.29963 0.03493 0.0
C1902 C 0.80384 0.35232 0.00645 0.0
C1903 C 0.68403 0.28572 0.0194 0.0
H1904 H 0.68334 0.38777 0.98139 0.0
H1905 H 0.72515 0.27962 0.97112 0.0
H1906 H 0.68769 0.37455 0.01478 0.0
H1907 H 0.72814 0.39916 0.00945 0.0
H1908 H 0.68337 0.40923 1.00245 0.0
H1909 H 0.75709 0.24117 0.98538 0.0
H1910 H 0.78445 0.26771 0.99658 0.0
H1911 H 0.74236 0.24571 1.0017 0.0
H1912 H 0.8178 0.34547 0.03162 0.0
H1913 H 0.71792 0.28692 0.04204 0.0
H1914 H 0.79033 0.37825 1.00301 0.0
H1915 H 0.80738 0.33363 0.99813 0.0
H1916 H 0.83182 0.35951 0.01028 0.0
H1917 H 0.66519 0.30871 0.01645 0.0
H1918 H 0.67132 0.27123 0.02766 0.0
H1919 H 0.68566 0.26584 0.01134 0.0
C1920 C 0.93845 0.53735 0.27685 0.0
C1921 C 0.94826 0.50826 0.28502 0.0
C1922 C 0.94254 0.53332 0.26361 0.0
C1923 C 0.95608 0.49917 0.25857 0.0
C1924 C 0.9698 0.47151 0.26691 0.0
C1925 C 0.96557 0.47636 0.28004 0.0
C1926 C 0.92841 0.56388 0.25502 0.0
C1927 C 0.98445 0.43472 0.26202 0.0
C1928 C 0.9029 0.46951 0.22919 0.0
C1929 C 0.92773 0.47878 0.21943 0.0
C1930 C 0.91271 0.47424 0.24197 0.0
C1931 C 0.94813 0.48927 0.24508 0.0
C1932 C 0.97446 0.49595 0.23531 0.0
C1933 C 0.96412 0.49002 0.22255 0.0
C1934 C 0.88416 0.4653 0.25209 0.0
C1935 C 0.01244 0.512 0.2382 0.0
H1936 H 0.92439 0.56167 0.28067 0.0
H1937 H 0.97241 0.45338 0.28629 0.0
H1938 H 0.94756 0.56797 0.24685 0.0
H1939 H 0.90073 0.55585 0.25116 0.0
H1940 H 0.92535 0.59077 0.26018 0.0
H1941 H 1.00084 0.41972 0.26938 0.0
H1942 H 0.96059 0.41678 0.25921 0.0
H1943 H 1.00221 0.43878 0.2535 0.0
H1944 H 0.87487 0.46051 0.2268 0.0
H1945 H 0.98356 0.49708 0.21504 0.0
H1946 H 0.87501 0.49143 0.25681 0.0
H1947 H 0.89657 0.44709 0.25949 0.0
H1948 H 0.85916 0.45112 0.24813 0.0
H1949 H 0.00952 0.54221 0.24029 0.0
H1950 H 0.0319 0.50876 0.23005 0.0
H1951 H 0.0249 0.49864 0.24671 0.0
C1952 C 0.20045 0.33315 0.52671 0.0
C1953 C 0.23015 0.32976 0.53531 0.0
C1954 C 0.20564 0.32593 0.51363 0.0
C1955 C 0.24151 0.3159 0.50905 0.0
C1956 C 0.27149 0.31266 0.51771 0.0
C1957 C 0.26539 0.31957 0.53063 0.0
C1958 C 0.17294 0.32928 0.50469 0.0
C1959 C 0.3104 0.30276 0.51331 0.0
C1960 C 0.25859 0.26684 0.4775 0.0
C1961 C 0.27115 0.29632 0.46991 0.0
C1962 C 0.2471 0.27307 0.4901 0.0
C1963 C 0.24852 0.30963 0.49522 0.0
C1964 C 0.26065 0.33958 0.48745 0.0
C1965 C 0.27211 0.33246 0.4749 0.0
C1966 C 0.23472 0.24034 0.49808 0.0
C1967 C 0.26301 0.3789 0.49252 0.0
H1968 H 0.17324 0.34139 0.53021 0.0
H1969 H 0.28892 0.31847 0.53699 0.0
H1970 H 0.17865 0.35113 0.49748 0.0
H1971 H 0.16887 0.30263 0.49949 0.0
H1972 H 0.14668 0.3364 0.50974 0.0
H1973 H 0.33052 0.3007 0.52131 0.0
H1974 H 0.31006 0.27571 0.50819 0.0
H1975 H 0.32065 0.32419 0.50655 0.0
H1976 H 0.25811 0.23884 0.4736 0.0
H1977 H 0.28256 0.35507 0.46906 0.0
H1978 H 0.20747 0.24642 0.50262 0.0
H1979 H 0.25519 0.23545 0.50581 0.0
H1980 H 0.23211 0.21433 0.4924 0.0
H1981 H 0.2363 0.38696 0.49708 0.0
H1982 H 0.26958 0.39946 0.48495 0.0
H1983 H 0.28504 0.38047 0.49992 0.0
C1984 C 0.45429 0.50968 0.22564 0.0
C1985 C 0.42836 0.53741 0.2223 0.0
C1986 C 0.45679 0.49601 0.23812 0.0
C1987 C 0.43355 0.51115 0.24768 0.0
C1988 C 0.40885 0.54066 0.24458 0.0
C1989 C 0.40632 0.5532 0.23193 0.0
C1990 C 0.48323 0.46428 0.24095 0.0
C1991 C 0.38426 0.55825 0.25456 0.0
C1992 C 0.40786 0.45469 0.2771 0.0
C1993 C 0.43173 0.46991 0.28633 0.0
C1994 C 0.40907 0.46692 0.2644 0.0
C1995 C 0.43431 0.49552 0.26084 0.0
C1996 C 0.45949 0.50988 0.26997 0.0
C1997 C 0.45829 0.49647 0.28251 0.0
C1998 C 0.38243 0.45012 0.25487 0.0
C1999 C 0.48661 0.54062 0.26665 0.0
H2000 H 0.47185 0.49753 0.21842 0.0
H2001 H 0.38628 0.57471 0.22953 0.0
H2002 H 0.50229 0.47195 0.24883 0.0
H2003 H 0.46713 0.43949 0.24409 0.0
H2004 H 0.50024 0.45634 0.23255 0.0
H2005 H 0.36852 0.58259 0.25083 0.0
H2006 H 0.36401 0.53735 0.25815 0.0
H2007 H 0.40135 0.56752 0.26278 0.0
H2008 H 0.38731 0.43405 0.27987 0.0
H2009 H 0.47741 0.50794 0.2894 0.0
H2010 H 0.39788 0.44046 0.24634 0.0
H2011 H 0.36223 0.47161 0.25168 0.0
H2012 H 0.36661 0.4262 0.25887 0.0
H2013 H 0.50415 0.53223 0.25845 0.0
H2014 H 0.50517 0.54795 0.27474 0.0
H2015 H 0.47098 0.56596 0.26377 0.0
C2016 C 0.24721 0.7268 0.03428 0.0
C2017 C 0.28229 0.71296 0.03791 0.0
C2018 C 0.23555 0.72602 0.02153 0.0
C2019 C 0.25978 0.71152 0.01214 0.0
C2020 C 0.29645 0.70059 0.01562 0.0
C2021 C 0.30728 0.70145 0.02848 0.0
C2022 C 0.1964 0.73824 0.01828 0.0
C2023 C 0.32337 0.68536 0.00588 0.0
C2024 C 0.2241 0.65562 0.98412 0.0
C2025 C 0.23173 0.67942 0.97387 0.0
C2026 C 0.23064 0.66681 0.99669 0.0
C2027 C 0.24546 0.70273 0.99913 0.0
C2028 C 0.24976 0.72822 0.98893 0.0
C2029 C 0.24242 0.71638 0.97639 0.0
C2030 C 0.22464 0.63893 0.00727 0.0
C2031 C 0.26509 0.76689 0.99109 0.0
H2032 H 0.22807 0.73655 0.04154 0.0
H2033 H 0.33445 0.69087 0.03121 0.0
H2034 H 0.19651 0.7566 0.0098 0.0
H2035 H 0.17923 0.71343 0.01592 0.0
H2036 H 0.18284 0.75325 0.02628 0.0
H2037 H 0.35197 0.68208 0.0098 0.0
H2038 H 0.31349 0.65769 1.00255 0.0
H2039 H 0.32464 0.70401 0.99748 0.0
H2040 H 0.21545 0.62714 0.98224 0.0
H2041 H 0.24824 0.73506 0.96853 0.0
H2042 H 0.20869 0.65178 0.01517 0.0
H2043 H 0.25205 0.63008 0.01114 0.0
H2044 H 0.20944 0.61371 0.00396 0.0
H2045 H 0.25274 0.77971 0.99972 0.0
H2046 H 0.25984 0.78545 0.98283 0.0
H2047 H 0.29567 0.76512 0.9926 0.0
C2048 C 0.06181 0.49879 0.78304 0.0
C2049 C 0.09171 0.52104 0.78722 0.0
C2050 C 0.05798 0.48872 0.7702 0.0
C2051 C 0.08459 0.50126 0.76123 0.0
C2052 C 0.11427 0.52454 0.76531 0.0
C2053 C 0.11747 0.53416 0.77823 0.0
C2054 C 0.02582 0.46405 0.76627 0.0
C2055 C 0.14308 0.53878 0.75603 0.0
C2056 C 0.10051 0.45024 0.72986 0.0
C2057 C 0.08156 0.47326 0.72122 0.0
C2058 C 0.1004 0.45809 0.74299 0.0
C2059 C 0.08151 0.49013 0.74757 0.0
C2060 C 0.06102 0.5125 0.73899 0.0
C2061 C 0.06082 0.50346 0.726 0.0
C2062 C 0.1218 0.43295 0.75188 0.0
C2063 C 0.0408 0.54715 0.74339 0.0
H2064 H 0.04154 0.48871 0.78987 0.0
H2065 H 0.14074 0.55118 0.78134 0.0
H2066 H 0.00901 0.47804 0.75881 0.0
H2067 H 0.03663 0.43774 0.76211 0.0
H2068 H 0.00724 0.45703 0.77437 0.0
H2069 H 0.16383 0.55744 0.76063 0.0
H2070 H 0.15809 0.51493 0.75167 0.0
H2071 H 0.12923 0.55427 0.74821 0.0
H2072 H 0.11653 0.42678 0.72635 0.0
H2073 H 0.04572 0.52131 0.71954 0.0
H2074 H 0.10391 0.42449 0.75999 0.0
H2075 H 0.14602 0.4483 0.75586 0.0
H2076 H 0.13218 0.40744 0.74704 0.0
H2077 H 0.0214 0.54028 0.75126 0.0
H2078 H 0.02473 0.56063 0.73562 0.0
H2079 H 0.06126 0.56763 0.74714 0.0
C2080 C 0.19275 0.85452 0.07651 0.0
C2081 C 0.22381 0.83088 0.07551 0.0
C2082 C 0.19591 0.8932 0.07463 0.0
C2083 C 0.23118 0.90897 0.07183 0.0
C2084 C 0.26267 0.88521 0.07066 0.0
C2085 C 0.25854 0.8464 0.07239 0.0
C2086 C 0.16144 0.9172 0.07569 0.0
C2087 C 0.30083 0.90089 0.06781 0.0
C2088 C 0.23356 0.00482 0.05613 0.0
C2089 C 0.23981 0.02868 0.06651 0.0
C2090 C 0.23085 0.96597 0.05772 0.0
C2091 C 0.23484 0.95027 0.07 0.0
C2092 C 0.24114 0.97418 0.08053 0.0
C2093 C 0.24328 0.01307 0.07868 0.0
C2094 C 0.22332 0.94175 0.04626 0.0
C2095 C 0.24586 0.95862 0.09377 0.0
H2096 H 0.16576 0.8426 0.07874 0.0
H2097 H 0.28266 0.82832 0.07172 0.0
H2098 H 0.16497 0.93781 0.08346 0.0
H2099 H 0.15724 0.93312 0.06676 0.0
H2100 H 0.13593 0.90051 0.0776 0.0
H2101 H 0.3225 0.87881 0.06725 0.0
H2102 H 0.30031 0.9163 0.05868 0.0
H2103 H 0.30891 0.9211 0.07532 0.0
H2104 H 0.23025 0.01665 0.04673 0.0
H2105 H 0.24846 0.03123 0.08672 0.0
H2106 H 0.19701 0.92596 0.04764 0.0
H2107 H 0.24602 0.92101 0.04509 0.0
H2108 H 0.221 0.95826 0.03736 0.0
H2109 H 0.22031 0.94333 0.09663 0.0
H2110 H 0.2515 0.98077 0.10091 0.0
H2111 H 0.26925 0.93835 0.09392 0.0
C2112 C 0.39782 0.03116 0.33911 0.0
C2113 C 0.42204 0.02172 0.32913 0.0
C2114 C 0.35896 0.0279 0.33783 0.0
C2115 C 0.3436 0.01503 0.32624 0.0
C2116 C 0.36773 0.00729 0.31588 0.0
C2117 C 0.40668 0.01072 0.31744 0.0
C2118 C 0.33446 0.03655 0.34913 0.0
C2119 C 0.35253 0.99362 0.30334 0.0
C2120 C 0.25118 0.96314 0.32868 0.0
C2121 C 0.22518 0.99035 0.32498 0.0
C2122 C 0.28961 0.97072 0.32893 0.0
C2123 C 0.30276 0.00652 0.32541 0.0
C2124 C 0.27676 0.03423 0.32167 0.0
C2125 C 0.2383 0.02586 0.32153 0.0
C2126 C 0.31616 0.9404 0.33313 0.0
C2127 C 0.2896 0.0727 0.31784 0.0
H2128 H 0.40942 0.04029 0.3481 0.0
H2129 H 0.4251 0.00311 0.30971 0.0
H2130 H 0.31189 0.05609 0.34638 0.0
H2131 H 0.32099 0.01053 0.35254 0.0
H2132 H 0.35043 0.04899 0.35713 0.0
H2133 H 0.37435 0.99259 0.29585 0.0
H2134 H 0.34081 0.96519 0.30455 0.0
H2135 H 0.32952 0.01193 0.30006 0.0
H2136 H 0.24142 0.93587 0.33159 0.0
H2137 H 0.21857 0.04697 0.31854 0.0
H2138 H 0.33139 0.94947 0.34178 0.0
H2139 H 0.33724 0.93517 0.32562 0.0
H2140 H 0.30158 0.91377 0.33525 0.0
H2141 H 0.3044 0.0862 0.32588 0.0
H2142 H 0.26605 0.09089 0.31489 0.0
H2143 H 0.30972 0.07067 0.30985 0.0
C2144 C 0.22763 0.17284 0.57328 0.0
C2145 C 0.26026 0.18815 0.57844 0.0
C2146 C 0.22464 0.13414 0.57099 0.0
C2147 C 0.25534 0.11034 0.57365 0.0
C2148 C 0.28866 0.12597 0.57855 0.0
C2149 C 0.29057 0.16449 0.58097 0.0
C2150 C 0.18848 0.11862 0.5659 0.0
C2151 C 0.32245 0.10204 0.5812 0.0
C2152 C 0.24126 0.00521 0.57806 0.0
C2153 C 0.25008 0.99146 0.56594 0.0
C2154 C 0.24231 0.04382 0.58067 0.0
C2155 C 0.25315 0.06926 0.57101 0.0
C2156 C 0.2629 0.05533 0.55886 0.0
C2157 C 0.26097 0.01678 0.55647 0.0
C2158 C 0.23135 0.05746 0.59371 0.0
C2159 C 0.27557 0.08113 0.54837 0.0
H2160 H 0.20417 0.19104 0.57137 0.0
H2161 H 0.31608 0.17631 0.58476 0.0
H2162 H 0.19337 0.10478 0.55662 0.0
H2163 H 0.17748 0.09712 0.57249 0.0
H2164 H 0.16694 0.14058 0.56461 0.0
H2165 H 0.34651 0.11862 0.58474 0.0
H2166 H 0.31551 0.08048 0.58837 0.0
H2167 H 0.33106 0.08724 0.57241 0.0
H2168 H 0.23253 0.98585 0.58538 0.0
H2169 H 0.26834 0.0063 0.54714 0.0
H2170 H 0.20795 0.0776 0.59292 0.0
H2171 H 0.25506 0.07244 0.59817 0.0
H2172 H 0.22273 0.03431 0.60009 0.0
H2173 H 0.25336 0.10169 0.5462 0.0
H2174 H 0.28265 0.06585 0.53951 0.0
H2175 H 0.30047 0.09708 0.55151 0.0
C2176 C 0.24348 0.01118 0.82107 0.0
C2177 C 0.25561 0.97393 0.8219 0.0
C2178 C 0.20514 0.02018 0.82072 0.0
C2179 C 0.17803 0.99142 0.82146 0.0
C2180 C 0.19001 0.95386 0.822 0.0
C2181 C 0.22835 0.94563 0.82202 0.0
C2182 C 0.19362 0.06059 0.81988 0.0
C2183 C 0.1623 0.92223 0.82302 0.0
C2184 C 0.08308 0.01472 0.83573 0.0
C2185 C 0.0598 0.01528 0.82501 0.0
C2186 C 0.12139 0.00698 0.83468 0.0
C2187 C 0.13727 1.00043 0.82255 0.0
C2188 C 0.11389 1.00114 0.81166 0.0
C2189 C 0.07532 0.00805 0.81304 0.0
C2190 C 0.14481 0.00545 0.84661 0.0
C2191 C 0.12973 0.99512 0.79853 0.0
H2192 H 0.26378 0.03351 0.82097 0.0
H2193 H 0.23674 0.91669 0.82229 0.0
H2194 H 0.17273 0.0644 0.8122 0.0
H2195 H 0.18026 0.06925 0.82892 0.0
H2196 H 0.21771 0.07933 0.81803 0.0
H2197 H 0.17603 0.89445 0.82305 0.0
H2198 H 0.14592 0.92519 0.83191 0.0
H2199 H 0.14229 0.92324 0.81498 0.0
H2200 H 0.07107 0.01997 0.84501 0.0
H2201 H 0.05743 0.00888 0.80474 0.0
H2202 H 0.16745 0.02649 0.84611 0.0
H2203 H 0.15821 0.97766 0.84745 0.0
H2204 H 0.12813 0.0107 0.85533 0.0
H2205 H 0.15221 0.01571 0.79668 0.0
H2206 H 0.10817 0.99781 0.791 0.0
H2207 H 0.14243 0.96698 0.79787 0.0
C2208 C 0.25729 0.14563 0.43699 0.0
C2209 C 0.25437 0.16151 0.42485 0.0
C2210 C 0.26241 0.10684 0.43855 0.0
C2211 C 0.26542 0.08342 0.4277 0.0
C2212 C 0.26402 0.09968 0.41544 0.0
C2213 C 0.25813 0.13831 0.41418 0.0
C2214 C 0.26332 0.09074 0.45179 0.0
C2215 C 0.2681 0.07618 0.40361 0.0
C2216 C 0.30792 0.9865 0.43219 0.0
C2217 C 0.27629 0.96341 0.43213 0.0
C2218 C 0.30489 0.02537 0.43055 0.0
C2219 C 0.26922 0.04191 0.42915 0.0
C2220 C 0.23714 0.01865 0.42905 0.0
C2221 C 0.24111 0.9797 0.43036 0.0
C2222 C 0.33993 0.04873 0.43027 0.0
C2223 C 0.19854 0.035 0.42776 0.0
H2224 H 0.25397 0.16333 0.44527 0.0
H2225 H 0.25621 0.15052 0.40478 0.0
H2226 H 0.23981 0.07091 0.45301 0.0
H2227 H 0.28948 0.07481 0.45327 0.0
H2228 H 0.26131 0.11263 0.45924 0.0
H2229 H 0.26914 0.09337 0.39483 0.0
H2230 H 0.29389 0.05915 0.40416 0.0
H2231 H 0.24426 0.05657 0.40284 0.0
H2232 H 0.33519 0.97396 0.4334 0.0
H2233 H 0.2166 0.962 0.4304 0.0
H2234 H 0.33963 0.06905 0.43822 0.0
H2235 H 0.34114 0.06498 0.4213 0.0
H2236 H 0.36559 0.03151 0.43102 0.0
H2237 H 0.19359 0.05552 0.43548 0.0
H2238 H 0.17641 0.01333 0.42816 0.0
H2239 H 0.19604 0.05018 0.41862 0.0
C2240 C 0.11489 0.98725 0.66805 0.0
C2241 C 0.09061 0.01407 0.67325 0.0
C2242 C 0.15389 0.99141 0.66858 0.0
C2243 C 0.16963 0.0231 0.67457 0.0
C2244 C 0.14545 0.04971 0.68025 0.0
C2245 C 0.10632 0.04488 0.67954 0.0
C2246 C 0.17828 0.96221 0.66241 0.0
C2247 C 0.16092 0.08386 0.68677 0.0
C2248 C 0.27403 0.0194 0.68274 0.0
C2249 C 0.29003 0.03882 0.6725 0.0
C2250 C 0.23497 0.01459 0.68368 0.0
C2251 C 0.21116 0.02929 0.67413 0.0
C2252 C 0.22725 0.0486 0.66374 0.0
C2253 C 0.26621 0.05309 0.66306 0.0
C2254 C 0.21914 0.99381 0.69492 0.0
C2255 C 0.20329 0.06431 0.65322 0.0
H2256 H 0.10342 0.96276 0.66347 0.0
H2257 H 0.08805 0.06578 0.6836 0.0
H2258 H 0.1942 0.97489 0.65447 0.0
H2259 H 0.1989 0.95139 0.66936 0.0
H2260 H 0.16188 0.93836 0.65863 0.0
H2261 H 0.13881 0.1006 0.69147 0.0
H2262 H 0.18191 0.07564 0.694 0.0
H2263 H 0.17535 0.10174 0.6797 0.0
H2264 H 0.29199 0.00857 0.69015 0.0
H2265 H 0.27811 0.06755 0.655 0.0
H2266 H 0.20372 0.96879 0.69161 0.0
H2267 H 0.19891 0.01176 0.70005 0.0
H2268 H 0.24114 0.9848 0.7017 0.0
H2269 H 0.18784 0.04142 0.64845 0.0
H2270 H 0.21993 0.07944 0.64596 0.0
H2271 H 0.18228 0.08376 0.65722 0.0
C2272 C 0.23742 0.83613 0.93617 0.0
C2273 C 0.27391 0.82247 0.93498 0.0
C2274 C 0.23054 0.87467 0.93751 0.0
C2275 C 0.26087 0.90011 0.93776 0.0
C2276 C 0.29775 0.8863 0.93682 0.0
C2277 C 0.30377 0.84781 0.93546 0.0
C2278 C 0.1908 0.88825 0.93849 0.0
C2279 C 0.33097 0.91222 0.93723 0.0
C2280 C 0.24548 0.00326 0.93017 0.0
C2281 C 0.24381 0.01909 0.94236 0.0
C2282 C 0.25058 0.96456 0.92851 0.0
C2283 C 0.25431 0.9411 0.93929 0.0
C2284 C 0.25304 0.95701 0.9516 0.0
C2285 C 0.24785 0.99564 0.95297 0.0
C2286 C 0.25183 0.94874 0.91522 0.0
C2287 C 0.2574 0.93323 0.96335 0.0
H2288 H 0.21423 0.8168 0.93572 0.0
H2289 H 0.33208 0.83746 0.93478 0.0
H2290 H 0.18685 0.90378 0.94751 0.0
H2291 H 0.18472 0.90789 0.93061 0.0
H2292 H 0.17032 0.86501 0.93813 0.0
H2293 H 0.35787 0.89702 0.93642 0.0
H2294 H 0.32916 0.93273 0.92936 0.0
H2295 H 0.33098 0.9282 0.94626 0.0
H2296 H 0.24208 0.021 0.92192 0.0
H2297 H 0.24734 0.00758 0.96242 0.0
H2298 H 0.2297 0.92735 0.91406 0.0
H2299 H 0.27898 0.93468 0.91359 0.0
H2300 H 0.24801 0.97055 0.90784 0.0
H2301 H 0.23572 0.91114 0.9635 0.0
H2302 H 0.25519 0.94979 0.97225 0.0
H2303 H 0.28492 0.91908 0.96322 0.0
C2304 C 0.24498 0.97606 0.17815 0.0
C2305 C 0.23151 0.00673 0.18509 0.0
C2306 C 0.28362 0.96987 0.1767 0.0
C2307 C 0.30951 0.99498 0.18226 0.0
C2308 C 0.29607 0.02504 0.18969 0.0
C2309 C 0.25745 0.03036 0.19106 0.0
C2310 C 0.29672 0.9373 0.16878 0.0
C2311 C 0.32247 0.05264 0.19576 0.0
C2312 C 0.41349 0.97153 0.18491 0.0
C2313 C 0.42816 0.98992 0.17424 0.0
C2314 C 0.37487 0.97219 0.18753 0.0
C2315 C 0.35036 0.99209 0.1794 0.0
C2316 C 0.36513 0.01085 0.16868 0.0
C2317 C 0.40362 0.00951 0.16625 0.0
C2318 C 0.36026 0.95165 0.19901 0.0
C2319 C 0.34031 0.03293 0.15984 0.0
H2320 H 0.2254 0.95765 0.17345 0.0
H2321 H 0.24756 0.05357 0.19671 0.0
H2322 H 0.30963 0.94775 0.15989 0.0
H2323 H 0.31838 0.92127 0.17397 0.0
H2324 H 0.27351 0.91816 0.16624 0.0
H2325 H 0.30775 0.07305 0.20192 0.0
H2326 H 0.34364 0.03783 0.20156 0.0
H2327 H 0.33764 0.06822 0.18825 0.0
H2328 H 0.43216 0.9562 0.19109 0.0
H2329 H 0.4146 0.02456 0.15816 0.0
H2330 H 0.33858 0.93131 0.19607 0.0
H2331 H 0.34685 0.9716 0.20565 0.0
H2332 H 0.38266 0.93654 0.20418 0.0
H2333 H 0.31801 0.01475 0.15596 0.0
H2334 H 0.35601 0.04531 0.15178 0.0
H2335 H 0.32648 0.05578 0.16517 0.0
C2336 C 0.71663 0.00649 0.93061 0.0
C2337 C 0.74453 0.99315 0.93879 0.0
C2338 C 0.70942 0.04506 0.92952 0.0
C2339 C 0.73078 0.0709 0.93672 0.0
C2340 C 0.75758 0.05739 0.94545 0.0
C2341 C 0.76382 0.01886 0.94645 0.0
C2342 C 0.68023 0.05826 0.92023 0.0
C2343 C 0.78125 0.08372 0.95325 0.0
C2344 C 0.74992 0.16676 0.92268 0.0
C2345 C 0.7267 0.19004 0.92992 0.0
C2346 C 0.75108 0.1281 0.92473 0.0
C2347 C 0.72818 0.11192 0.9342 0.0
C2348 C 0.70458 0.13521 0.94157 0.0
C2349 C 0.70438 0.17408 0.93942 0.0
C2350 C 0.77734 0.10463 0.91684 0.0
C2351 C 0.67948 0.11902 0.95166 0.0
H2352 H 0.70156 0.987 0.92465 0.0
H2353 H 0.7847 0.00889 0.95306 0.0
H2354 H 0.66174 0.07923 0.92476 0.0
H2355 H 0.69402 0.07203 0.91204 0.0
H2356 H 0.66285 0.03492 0.91658 0.0
H2357 H 0.79888 0.06878 0.96028 0.0
H2358 H 0.79977 0.09995 0.94685 0.0
H2359 H 0.7634 0.10398 0.95839 0.0
H2360 H 0.76778 0.17895 0.9155 0.0
H2361 H 0.68628 0.19193 0.94498 0.0
H2362 H 0.76152 0.08265 0.91173 0.0
H2363 H 0.79772 0.09039 0.92312 0.0
H2364 H 0.79297 0.12145 0.90975 0.0
H2365 H 0.6611 0.09742 0.94743 0.0
H2366 H 0.66183 0.14061 0.95626 0.0
H2367 H 0.6965 0.10512 0.95909 0.0
C2368 C 0.76281 0.01808 0.70045 0.0
C2369 C 0.78774 0.01163 0.69036 0.0
C2370 C 0.72391 0.01615 0.69875 0.0
C2371 C 0.70895 0.00787 0.68661 0.0
C2372 C 0.73379 0.00284 0.67624 0.0
C2373 C 0.77278 0.00472 0.67823 0.0
C2374 C 0.69879 0.02183 0.71011 0.0
C2375 C 0.71918 0.99431 0.66311 0.0
C2376 C 0.61287 0.96158 0.68682 0.0
C2377 C 0.58864 0.9917 0.68459 0.0
C2378 C 0.65187 0.96633 0.68712 0.0
C2379 C 0.66757 1.00213 0.68508 0.0
C2380 C 0.64342 0.03253 0.68244 0.0
C2381 C 0.60438 0.027 0.68225 0.0
C2382 C 0.67626 0.93305 0.69 0.0
C2383 C 0.65873 0.07119 0.6802 0.0
H2384 H 0.77373 0.02436 0.7098 0.0
H2385 H 0.7915 0.99958 0.67035 0.0
H2386 H 0.67796 0.04391 0.70808 0.0
H2387 H 0.68317 0.99575 0.7121 0.0
H2388 H 0.7146 0.02975 0.71879 0.0
H2389 H 0.74167 0.99437 0.65585 0.0
H2390 H 0.70561 0.96649 0.66309 0.0
H2391 H 0.69768 0.01504 0.66034 0.0
H2392 H 0.60133 0.93408 0.68841 0.0
H2393 H 0.58619 0.05064 0.68063 0.0
H2394 H 0.69138 0.93769 0.69907 0.0
H2395 H 0.69754 0.92954 0.68244 0.0
H2396 H 0.65997 0.90679 0.6908 0.0
H2397 H 0.67103 0.0821 0.68913 0.0
H2398 H 0.63685 0.09096 0.67694 0.0
H2399 H 0.68133 0.07037 0.673 0.0
C2400 C 0.70293 0.99047 0.44124 0.0
C2401 C 0.73313 0.0152 0.44002 0.0
C2402 C 0.70757 0.95181 0.43985 0.0
C2403 C 0.7433 0.93713 0.43706 0.0
C2404 C 0.774 0.96178 0.43581 0.0
C2405 C 0.76857 1.00049 0.43731 0.0
C2406 C 0.67395 0.92668 0.44116 0.0
C2407 C 0.8125 0.94727 0.43278 0.0
C2408 C 0.75364 0.83233 0.4426 0.0
C2409 C 0.74529 0.81819 0.43051 0.0
C2410 C 0.75472 0.87113 0.44482 0.0
C2411 C 0.74762 0.89623 0.43467 0.0
C2412 C 0.74122 0.88193 0.42232 0.0
C2413 C 0.74009 0.84322 0.42042 0.0
C2414 C 0.76157 0.88522 0.45813 0.0
C2415 C 0.73377 0.90749 0.41119 0.0
H2416 H 0.67531 1.00133 0.44309 0.0
H2417 H 0.79217 0.0192 0.43648 0.0
H2418 H 0.66845 0.91233 0.432 0.0
H2419 H 0.67938 0.9048 0.44838 0.0
H2420 H 0.64845 0.94226 0.44395 0.0
H2421 H 0.83373 0.96985 0.43258 0.0
H2422 H 0.82099 0.92618 0.43993 0.0
H2423 H 0.81227 0.93317 0.42339 0.0
H2424 H 0.75752 0.81308 0.45043 0.0
H2425 H 0.73432 0.83239 0.411 0.0
H2426 H 0.73566 0.89806 0.46189 0.0
H2427 H 0.7834 0.90716 0.45809 0.0
H2428 H 0.77028 0.86253 0.46468 0.0
H2429 H 0.70685 0.92216 0.41263 0.0
H2430 H 0.73244 0.89212 0.40203 0.0
H2431 H 0.75583 0.9291 0.41051 0.0
C2432 C 0.9039 0.99138 0.1704 0.0
C2433 C 0.92683 0.98726 0.1811 0.0
C2434 C 0.86535 0.99731 0.17165 0.0
C2435 C 0.84904 0.99801 0.18391 0.0
C2436 C 0.8722 0.99403 0.19477 0.0
C2437 C 0.91096 0.98927 0.19324 0.0
C2438 C 0.84205 0.0026 0.15982 0.0
C2439 C 0.85588 0.9937 0.20799 0.0
C2440 C 0.75352 0.04289 0.18825 0.0
C2441 C 0.7296 0.01203 0.1875 0.0
C2442 C 0.79234 0.03879 0.18698 0.0
C2443 C 0.80778 0.00276 0.1853 0.0
C2444 C 0.78368 0.9714 0.18464 0.0
C2445 C 0.74482 0.97651 0.18555 0.0
C2446 C 0.81677 0.0731 0.18728 0.0
C2447 C 0.79897 0.93242 0.18314 0.0
H2448 H 0.91635 0.99 0.16103 0.0
H2449 H 0.92874 0.98563 0.20148 0.0
H2450 H 0.82162 0.97952 0.15893 0.0
H2451 H 0.82594 0.02896 0.1605 0.0
H2452 H 0.85931 0.00342 0.15106 0.0
H2453 H 0.87756 0.99005 0.21544 0.0
H2454 H 0.84074 0.02012 0.20983 0.0
H2455 H 0.83531 0.97068 0.20883 0.0
H2456 H 0.74166 0.0704 0.18964 0.0
H2457 H 0.72631 0.95264 0.18508 0.0
H2458 H 0.83328 0.0749 0.17838 0.0
H2459 H 0.83686 0.07122 0.19527 0.0
H2460 H 0.80033 0.09918 0.18836 0.0
H2461 H 0.8142 0.92999 0.17401 0.0
H2462 H 0.77668 0.91089 0.18337 0.0
H2463 H 0.81923 0.92646 0.19086 0.0
C2464 C 0.73282 0.84505 0.57218 0.0
C2465 C 0.75303 0.82815 0.58207 0.0
C2466 C 0.73443 0.88394 0.57015 0.0
C2467 C 0.75678 0.90655 0.57819 0.0
C2468 C 0.77718 0.88966 0.58816 0.0
C2469 C 0.7752 0.8509 0.58992 0.0
C2470 C 0.71235 0.90086 0.55939 0.0
C2471 C 0.80157 0.91251 0.59692 0.0
C2472 C 0.79518 1.0006 0.56764 0.0
C2473 C 0.77263 0.0258 0.57437 0.0
C2474 C 0.78933 0.96189 0.56837 0.0
C2475 C 0.76013 0.94772 0.57604 0.0
C2476 C 0.73635 0.973 0.58251 0.0
C2477 C 0.74283 0.0117 0.58158 0.0
C2478 C 0.81529 0.93608 0.56127 0.0
C2479 C 0.70501 0.95913 0.59083 0.0
H2480 H 0.71547 0.82795 0.56609 0.0
H2481 H 0.79175 0.83841 0.59739 0.0
H2482 H 0.69304 0.92241 0.56313 0.0
H2483 H 0.73148 0.91498 0.55264 0.0
H2484 H 0.69587 0.87968 0.55411 0.0
H2485 H 0.81476 0.89532 0.60447 0.0
H2486 H 0.82394 0.92637 0.59137 0.0
H2487 H 0.78485 0.93478 0.60152 0.0
H2488 H 0.81777 0.01117 0.56183 0.0
H2489 H 0.72537 0.03081 0.58688 0.0
H2490 H 0.79905 0.91608 0.55542 0.0
H2491 H 0.83191 0.91953 0.56815 0.0
H2492 H 0.83481 0.95148 0.55497 0.0
H2493 H 0.68744 0.93889 0.58555 0.0
H2494 H 0.68702 0.9822 0.59431 0.0
H2495 H 0.71677 0.94426 0.59917 0.0
C2496 C 0.74877 0.01015 0.3051 0.0
C2497 C 0.72391 0.00616 0.31532 0.0
C2498 C 0.78749 0.01233 0.30705 0.0
C2499 C 0.80199 0.01031 0.31955 0.0
C2500 C 0.77709 0.00641 0.32994 0.0
C2501 C 0.73836 0.00458 0.32771 0.0
C2502 C 0.81286 0.01715 0.29571 0.0
C2503 C 0.79139 0.00404 0.34341 0.0
C2504 C 0.90512 0.98575 0.32367 0.0
C2505 C 0.92093 0.0209 0.32599 0.0
C2506 C 0.86644 0.98178 0.32162 0.0
C2507 C 0.8431 0.01375 0.32174 0.0
C2508 C 0.85914 0.04934 0.32378 0.0
C2509 C 0.89769 0.05242 0.32591 0.0
C2510 C 0.85042 0.94333 0.31951 0.0
C2511 C 0.83555 0.08424 0.32379 0.0
H2512 H 0.73786 0.01201 0.29552 0.0
H2513 H 0.71944 1.00113 0.33564 0.0
H2514 H 0.82886 0.04351 0.29664 0.0
H2515 H 0.8334 0.99403 0.29534 0.0
H2516 H 0.79723 0.01777 0.2866 0.0
H2517 H 0.76853 1.00014 0.35041 0.0
H2518 H 0.81124 0.98044 0.3443 0.0
H2519 H 0.80684 0.02987 0.34586 0.0
H2520 H 0.92284 0.96129 0.32382 0.0
H2521 H 0.90977 0.07973 0.32748 0.0
H2522 H 0.83579 0.94219 0.31023 0.0
H2523 H 0.82947 0.93708 0.32698 0.0
H2524 H 0.87221 0.9213 0.31968 0.0
H2525 H 0.82068 0.08695 0.31459 0.0
H2526 H 0.85238 0.10986 0.32537 0.0
H2527 H 0.81405 0.08244 0.33134 0.0
C2528 C 0.78914 0.99414 0.06489 0.0
C2529 C 0.76311 0.97025 0.07062 0.0
C2530 C 0.78913 0.03273 0.06731 0.0
C2531 C 0.76175 0.04826 0.07545 0.0
C2532 C 0.73556 0.02416 0.0814 0.0
C2533 C 0.73687 0.98537 0.07904 0.0
C2534 C 0.81833 0.05694 0.06107 0.0
C2535 C 0.7055 0.03947 0.08996 0.0
C2536 C 0.77914 0.14409 0.09024 0.0
C2537 C 0.75971 0.16796 0.082 0.0
C2538 C 0.78034 0.10532 0.08815 0.0
C2539 C 0.7608 0.08964 0.07773 0.0
C2540 C 0.74114 0.11367 0.06934 0.0
C2541 C 0.74122 0.15256 0.07149 0.0
C2542 C 0.80257 0.08114 0.09713 0.0
C2543 C 0.71938 0.0982 0.05825 0.0
H2544 H 0.80964 0.98245 0.05845 0.0
H2545 H 0.71651 0.967 0.08338 0.0
H2546 H 0.80475 0.07731 0.05463 0.0
H2547 H 0.83369 0.07312 0.06838 0.0
H2548 H 0.83873 0.04036 0.05548 0.0
H2549 H 0.68721 0.01718 0.09384 0.0
H2550 H 0.71822 0.05488 0.09802 0.0
H2551 H 0.68801 0.05961 0.08461 0.0
H2552 H 0.79354 0.15595 0.09834 0.0
H2553 H 0.72569 0.17084 0.06522 0.0
H2554 H 0.82367 0.06495 0.09174 0.0
H2555 H 0.78391 0.06077 0.10187 0.0
H2556 H 0.81709 0.09774 0.10456 0.0
H2557 H 0.73835 0.08307 0.05171 0.0
H2558 H 0.70477 0.12038 0.0528 0.0
H2559 H 0.69841 0.0778 0.0617 0.0
C2560 C 0.73982 0.02419 0.81263 0.0
C2561 C 0.75476 0.99562 0.82017 0.0
C2562 C 0.70094 0.03026 0.81206 0.0
C2563 C 0.67657 0.00796 0.8195 0.0
C2564 C 0.6918 0.97953 0.82729 0.0
C2565 C 0.73053 0.97342 0.82739 0.0
C2566 C 0.68588 0.06017 0.80338 0.0
C2567 C 0.66725 0.9558 0.8357 0.0
C2568 C 0.58208 0.04546 0.82989 0.0
C2569 C 0.55695 0.0233 0.82292 0.0
C2570 C 0.62086 0.04146 0.82861 0.0
C2571 C 0.6354 0.01545 0.81979 0.0
C2572 C 0.61034 0.99473 0.81207 0.0
C2573 C 0.57144 0.99862 0.8138 0.0
C2574 C 0.64622 0.0637 0.83723 0.0
C2575 C 0.6246 0.96731 0.80234 0.0
H2576 H 0.75852 0.041 0.80692 0.0
H2577 H 0.74212 0.95146 0.83326 0.0
H2578 H 0.6652 0.0479 0.79673 0.0
H2579 H 0.67115 0.08175 0.80902 0.0
H2580 H 0.70825 0.0739 0.79777 0.0
H2581 H 0.68351 0.93521 0.84132 0.0
H2582 H 0.65145 0.97385 0.84237 0.0
H2583 H 0.64656 0.9405 0.82984 0.0
H2584 H 0.57139 0.06533 0.83673 0.0
H2585 H 0.55254 0.98124 0.80837 0.0
H2586 H 0.66708 0.07931 0.83156 0.0
H2587 H 0.66181 0.04444 0.84355 0.0
H2588 H 0.6306 0.08383 0.84324 0.0
H2589 H 0.64715 0.98009 0.79657 0.0
H2590 H 0.60212 0.95753 0.79587 0.0
H2591 H 0.63662 0.94268 0.80723 0.0
C2592 C 0.77293 0.34528 0.57272 0.0
C2593 C 0.7376 0.3297 0.57493 0.0
C2594 C 0.77728 0.38398 0.57076 0.0
C2595 C 0.74555 0.40764 0.57091 0.0
C2596 C 0.70981 0.39187 0.57287 0.0
C2597 C 0.70631 0.35328 0.57484 0.0
C2598 C 0.81588 0.39966 0.5687 0.0
C2599 C 0.67514 0.41582 0.57296 0.0
C2600 C 0.75573 0.51212 0.57734 0.0
C2601 C 0.7537 0.52719 0.56504 0.0
C2602 C 0.75371 0.47331 0.57939 0.0
C2603 C 0.7494 0.44883 0.56889 0.0
C2604 C 0.74721 0.46387 0.55648 0.0
C2605 C 0.74935 0.50269 0.55471 0.0
C2606 C 0.75612 0.45847 0.59279 0.0
C2607 C 0.74216 0.43895 0.54503 0.0
H2608 H 0.79725 0.32738 0.57286 0.0
H2609 H 0.67884 0.34147 0.57628 0.0
H2610 H 0.81708 0.41467 0.55949 0.0
H2611 H 0.82244 0.42021 0.57627 0.0
H2612 H 0.83766 0.37762 0.56874 0.0
H2613 H 0.64937 0.39922 0.57452 0.0
H2614 H 0.67724 0.43715 0.58057 0.0
H2615 H 0.6725 0.4309 0.5638 0.0
H2616 H 0.75951 0.5306 0.58539 0.0
H2617 H 0.7471 0.51392 0.54519 0.0
H2618 H 0.77958 0.43841 0.59357 0.0
H2619 H 0.73019 0.4431 0.59519 0.0
H2620 H 0.76024 0.48102 0.5999 0.0
H2621 H 0.76494 0.41805 0.54461 0.0
H2622 H 0.74192 0.45489 0.53597 0.0
H2623 H 0.71552 0.42337 0.54583 0.0
C2624 C 0.7552 0.49288 0.81 0.0
C2625 C 0.73283 0.4934 0.82091 0.0
C2626 C 0.79395 0.49863 0.81075 0.0
C2627 C 0.81103 0.50377 0.82277 0.0
C2628 C 0.78847 0.50401 0.83386 0.0
C2629 C 0.74953 0.49945 0.83277 0.0
C2630 C 0.81658 0.49937 0.79865 0.0
C2631 C 0.80555 0.50829 0.84689 0.0
C2632 C 0.91568 0.48414 0.82514 0.0
C2633 C 0.93056 0.52031 0.8256 0.0
C2634 C 0.87685 0.47829 0.82439 0.0
C2635 C 0.85238 0.50935 0.8237 0.0
C2636 C 0.86749 0.54589 0.82381 0.0
C2637 C 0.90627 0.55088 0.82494 0.0
C2638 C 0.862 0.43889 0.8246 0.0
C2639 C 0.8427 0.57978 0.82275 0.0
H2640 H 0.74212 0.48831 0.80084 0.0
H2641 H 0.73219 0.49935 0.8412 0.0
H2642 H 0.83245 0.52589 0.79803 0.0
H2643 H 0.83721 0.47632 0.79871 0.0
H2644 H 0.79888 0.49659 0.79004 0.0
H2645 H 0.78437 0.50673 0.85458 0.0
H2646 H 0.82662 0.48608 0.84846 0.0
H2647 H 0.82024 0.53544 0.84761 0.0
H2648 H 0.93437 0.46047 0.82585 0.0
H2649 H 0.91779 0.57881 0.82527 0.0
H2650 H 0.84816 0.43245 0.81543 0.0
H2651 H 0.8407 0.43588 0.83218 0.0
H2652 H 0.88439 0.41802 0.82623 0.0
H2653 H 0.82541 0.57789 0.81402 0.0
H2654 H 0.85892 0.60618 0.82246 0.0
H2655 H 0.82333 0.58093 0.83096 0.0
C2656 C 0.78804 0.64089 0.08965 0.0
C2657 C 0.76431 0.66792 0.08424 0.0
C2658 C 0.78162 0.60249 0.08808 0.0
C2659 C 0.74977 0.59015 0.08134 0.0
C2660 C 0.72427 0.61696 0.07657 0.0
C2661 C 0.73203 0.6554 0.07792 0.0
C2662 C 0.81004 0.57511 0.09313 0.0
C2663 C 0.68932 0.60505 0.06967 0.0
C2664 C 0.75491 0.49563 0.06475 0.0
C2665 C 0.73823 0.47185 0.07365 0.0
C2666 C 0.75892 0.53401 0.06717 0.0
C2667 C 0.74473 0.54938 0.07861 0.0
C2668 C 0.7273 0.52546 0.08757 0.0
C2669 C 0.72487 0.48685 0.08508 0.0
C2670 C 0.77891 0.55801 0.05754 0.0
C2671 C 0.71079 0.54073 0.09969 0.0
H2672 H 0.81248 0.64948 0.09489 0.0
H2673 H 0.7132 0.67544 0.07369 0.0
H2674 H 0.79649 0.55466 0.09954 0.0
H2675 H 0.82237 0.55918 0.08512 0.0
H2676 H 0.83296 0.58909 0.09841 0.0
H2677 H 0.67007 0.62881 0.06796 0.0
H2678 H 0.69683 0.5926 0.06037 0.0
H2679 H 0.67437 0.58334 0.0752 0.0
H2680 H 0.76541 0.4839 0.05596 0.0
H2681 H 0.7116 0.46847 0.09189 0.0
H2682 H 0.80311 0.572 0.06208 0.0
H2683 H 0.75999 0.58019 0.05402 0.0
H2684 H 0.78906 0.54162 0.04927 0.0
H2685 H 0.73298 0.55346 0.10562 0.0
H2686 H 0.69652 0.51883 0.10536 0.0
H2687 H 0.69041 0.56308 0.09743 0.0
C2688 C 0.7624 0.47181 0.32955 0.0
C2689 C 0.77525 0.49232 0.31905 0.0
C2690 C 0.72387 0.46607 0.33156 0.0
C2691 C 0.6975 0.48155 0.32298 0.0
C2692 C 0.71044 0.50072 0.31209 0.0
C2693 C 0.74893 0.5054 0.3102 0.0
C2694 C 0.71131 0.44485 0.34318 0.0
C2695 C 0.6836 0.51814 0.30275 0.0
C2696 C 0.59394 0.45488 0.32325 0.0
C2697 C 0.57867 0.4834 0.33074 0.0
C2698 C 0.63271 0.45316 0.32093 0.0
C2699 C 0.65659 0.48114 0.32595 0.0
C2700 C 0.64103 0.51029 0.33333 0.0
C2701 C 0.60249 0.51087 0.3357 0.0
C2702 C 0.64819 0.42131 0.31318 0.0
C2703 C 0.66503 0.54131 0.33861 0.0
H2704 H 0.78227 0.46153 0.33646 0.0
H2705 H 0.75839 0.52034 0.30186 0.0
H2706 H 0.69829 0.46439 0.35004 0.0
H2707 H 0.68991 0.42382 0.34057 0.0
H2708 H 0.73487 0.43048 0.34799 0.0
H2709 H 0.69807 0.53018 0.29436 0.0
H2710 H 0.6631 0.49718 0.29939 0.0
H2711 H 0.6677 0.54071 0.30752 0.0
H2712 H 0.57564 0.43351 0.31948 0.0
H2713 H 0.59076 0.5333 0.34132 0.0
H2714 H 0.67002 0.40649 0.3187 0.0
H2715 H 0.66165 0.4322 0.30444 0.0
H2716 H 0.62628 0.40098 0.31039 0.0
H2717 H 0.68714 0.52956 0.3448 0.0
H2718 H 0.64865 0.56185 0.3442 0.0
H2719 H 0.67912 0.55623 0.33071 0.0
C2720 C 0.71801 0.50777 0.93717 0.0
C2721 C 0.75023 0.49153 0.94232 0.0
C2722 C 0.7158 0.54656 0.93511 0.0
C2723 C 0.74688 0.56959 0.93799 0.0
C2724 C 0.77964 0.55317 0.94303 0.0
C2725 C 0.78076 0.5145 0.94524 0.0
C2726 C 0.68013 0.56293 0.92992 0.0
C2727 C 0.81378 0.57637 0.94591 0.0
C2728 C 0.75378 0.66262 0.92063 0.0
C2729 C 0.74294 0.68815 0.93003 0.0
C2730 C 0.75568 0.62417 0.92315 0.0
C2731 C 0.74568 0.61062 0.93533 0.0
C2732 C 0.73485 0.63633 0.94491 0.0
C2733 C 0.73405 0.67485 0.94219 0.0
C2734 C 0.76836 0.59804 0.91275 0.0
C2735 C 0.72336 0.62308 0.95794 0.0
H2736 H 0.69426 0.49018 0.93501 0.0
H2737 H 0.8059 0.50202 0.94906 0.0
H2738 H 0.66965 0.58493 0.93643 0.0
H2739 H 0.68552 0.57632 0.9206 0.0
H2740 H 0.65799 0.54154 0.92867 0.0
H2741 H 0.83708 0.55936 0.94976 0.0
H2742 H 0.82346 0.59054 0.93713 0.0
H2743 H 0.80681 0.59844 0.95291 0.0
H2744 H 0.76105 0.67289 0.91127 0.0
H2745 H 0.7253 0.69449 0.94942 0.0
H2746 H 0.74572 0.57811 0.91039 0.0
H2747 H 0.79259 0.58142 0.91607 0.0
H2748 H 0.77643 0.61314 0.90395 0.0
H2749 H 0.6992 0.60386 0.95711 0.0
H2750 H 0.71559 0.64652 0.96432 0.0
H2751 H 0.74642 0.60717 0.96241 0.0
C2752 C 0.74472 0.48267 0.17442 0.0
C2753 C 0.77041 0.50738 0.17995 0.0
C2754 C 0.7064 0.49057 0.17415 0.0
C2755 C 0.69301 0.52416 0.17957 0.0
C2756 C 0.7188 0.54968 0.18498 0.0
C2757 C 0.75726 0.54107 0.18506 0.0
C2758 C 0.68019 0.46274 0.16809 0.0
C2759 C 0.70569 0.58575 0.19086 0.0
C2760 C 0.59737 0.55276 0.1673 0.0
C2761 C 0.57338 0.53753 0.17649 0.0
C2762 C 0.63633 0.55035 0.16851 0.0
C2763 C 0.65204 0.53241 0.17923 0.0
C2764 C 0.62807 0.51885 0.18892 0.0
C2765 C 0.58905 0.52155 0.18744 0.0
C2766 C 0.66062 0.56521 0.15794 0.0
C2767 C 0.64359 0.49965 0.20054 0.0
H2768 H 0.7547 0.45692 0.17024 0.0
H2769 H 0.77689 0.56016 0.18942 0.0
H2770 H 0.65933 0.45315 0.17516 0.0
H2771 H 0.66467 0.47615 0.16019 0.0
H2772 H 0.69507 0.43796 0.16429 0.0
H2773 H 0.72919 0.6029 0.19451 0.0
H2774 H 0.68992 0.60235 0.18377 0.0
H2775 H 0.68636 0.5797 0.19884 0.0
H2776 H 0.58556 0.56576 0.15892 0.0
H2777 H 0.57087 0.50949 0.19456 0.0
H2778 H 0.67425 0.5416 0.15294 0.0
H2779 H 0.68307 0.58316 0.16185 0.0
H2780 H 0.64442 0.58157 0.15087 0.0
H2781 H 0.65586 0.47243 0.19775 0.0
H2782 H 0.62182 0.49456 0.20785 0.0
H2783 H 0.66625 0.5166 0.20482 0.0
C2784 C 0.78494 0.33872 0.41823 0.0
C2785 C 0.75935 0.31592 0.42474 0.0
C2786 C 0.78501 0.37764 0.4197 0.0
C2787 C 0.7592 0.39466 0.42806 0.0
C2788 C 0.73309 0.37212 0.43463 0.0
C2789 C 0.73336 0.33312 0.43286 0.0
C2790 C 0.81336 0.40052 0.41248 0.0
C2791 C 0.70527 0.38918 0.44369 0.0
C2792 C 0.79113 0.48875 0.44072 0.0
C2793 C 0.7723 0.51379 0.43273 0.0
C2794 C 0.78581 0.45006 0.43967 0.0
C2795 C 0.76118 0.43581 0.43033 0.0
C2796 C 0.74102 0.46098 0.42252 0.0
C2797 C 0.74667 0.49969 0.42386 0.0
C2798 C 0.80762 0.42438 0.44829 0.0
C2799 C 0.71474 0.44697 0.41238 0.0
H2800 H 0.8057 0.32628 0.41211 0.0
H2801 H 0.71316 0.31622 0.43788 0.0
H2802 H 0.79918 0.42281 0.40699 0.0
H2803 H 0.83264 0.41436 0.41926 0.0
H2804 H 0.83013 0.38334 0.40581 0.0
H2805 H 0.68593 0.3681 0.44775 0.0
H2806 H 0.72023 0.40313 0.45162 0.0
H2807 H 0.68864 0.41088 0.43876 0.0
H2808 H 0.81041 0.49949 0.44775 0.0
H2809 H 0.73219 0.51885 0.41761 0.0
H2810 H 0.82775 0.40791 0.44258 0.0
H2811 H 0.78859 0.40431 0.45302 0.0
H2812 H 0.82333 0.43988 0.45571 0.0
H2813 H 0.73086 0.43223 0.40491 0.0
H2814 H 0.69878 0.46997 0.40785 0.0
H2815 H 0.69476 0.4266 0.41646 0.0
C2816 C 0.76766 0.55325 0.67735 0.0
C2817 C 0.74306 0.5232 0.67921 0.0
C2818 C 0.80649 0.54812 0.67703 0.0
C2819 C 0.82159 0.51185 0.67839 0.0
C2820 C 0.79711 0.48121 0.68014 0.0
C2821 C 0.75822 0.48723 0.68058 0.0
C2822 C 0.83139 0.58167 0.67513 0.0
C2823 C 0.81203 0.44205 0.68149 0.0
C2824 C 0.91903 0.50239 0.66446 0.0
C2825 C 0.94179 0.5068 0.67521 0.0
C2826 C 0.87995 0.50185 0.66546 0.0
C2827 C 0.86294 0.50631 0.67751 0.0
C2828 C 0.8858 0.50906 0.68849 0.0
C2829 C 0.92498 0.50904 0.68722 0.0
C2830 C 0.85689 0.49837 0.6535 0.0
C2831 C 0.8689 0.51419 0.70151 0.0
H2832 H 0.75662 0.58105 0.676 0.0
H2833 H 0.73982 0.46375 0.68215 0.0
H2834 H 0.85196 0.58357 0.68299 0.0
H2835 H 0.84731 0.57866 0.66615 0.0
H2836 H 0.81539 0.60818 0.67474 0.0
H2837 H 0.78945 0.42118 0.68281 0.0
H2838 H 0.82833 0.43441 0.67291 0.0
H2839 H 0.83129 0.4405 0.68973 0.0
H2840 H 0.93196 0.50032 0.65518 0.0
H2841 H 0.94242 0.51286 0.69553 0.0
H2842 H 0.84243 0.52515 0.6516 0.0
H2843 H 0.83511 0.47666 0.6547 0.0
H2844 H 0.87417 0.49121 0.64509 0.0
H2845 H 0.85536 0.54198 0.70206 0.0
H2846 H 0.89009 0.51223 0.70918 0.0
H2847 H 0.84696 0.49295 0.70322 0.0
C2848 C 0.24981 0.64636 0.43531 0.0
C2849 C 0.22952 0.66138 0.42512 0.0
C2850 C 0.25076 0.6075 0.4375 0.0
C2851 C 0.23053 0.58303 0.42941 0.0
C2852 C 0.20943 0.59823 0.41928 0.0
C2853 C 0.20937 0.63702 0.41723 0.0
C2854 C 0.27388 0.59255 0.44835 0.0
C2855 C 0.18686 0.5735 0.41056 0.0
C2856 C 0.25572 0.47907 0.42813 0.0
C2857 C 0.22988 0.46364 0.43665 0.0
C2858 C 0.25647 0.51783 0.42571 0.0
C2859 C 0.23034 0.5417 0.43179 0.0
C2860 C 0.20355 0.52598 0.4401 0.0
C2861 C 0.2038 0.48738 0.44247 0.0
C2862 C 0.28565 0.53335 0.41684 0.0
C2863 C 0.1746 0.54999 0.44657 0.0
H2864 H 0.26592 0.6649 0.44132 0.0
H2865 H 0.19346 0.64845 0.40939 0.0
H2866 H 0.25581 0.5771 0.45509 0.0
H2867 H 0.29488 0.57253 0.44467 0.0
H2868 H 0.28858 0.61504 0.45362 0.0
H2869 H 0.17175 0.58966 0.40317 0.0
H2870 H 0.2054 0.5531 0.40577 0.0
H2871 H 0.16623 0.55734 0.41616 0.0
H2872 H 0.27605 0.46096 0.42366 0.0
H2873 H 0.18331 0.47562 0.44888 0.0
H2874 H 0.30335 0.55378 0.42199 0.0
H2875 H 0.27208 0.54848 0.40889 0.0
H2876 H 0.30386 0.51121 0.41283 0.0
H2877 H 0.18848 0.57105 0.45268 0.0
H2878 H 0.15515 0.53339 0.45253 0.0
H2879 H 0.15811 0.56539 0.43935 0.0
C2880 C 0.09068 0.51507 0.19348 0.0
C2881 C 0.07627 0.51306 0.18113 0.0
C2882 C 0.12933 0.51173 0.19569 0.0
C2883 C 0.15386 0.50525 0.18533 0.0
C2884 C 0.13899 0.50165 0.17291 0.0
C2885 C 0.1005 0.50615 0.17096 0.0
C2886 C 0.14406 0.51656 0.20903 0.0
C2887 C 0.1638 0.49368 0.16164 0.0
C2888 C 0.25685 0.53186 0.18714 0.0
C2889 C 0.27354 0.49772 0.19027 0.0
C2890 C 0.21788 0.53493 0.18584 0.0
C2891 C 0.1951 0.50285 0.18735 0.0
C2892 C 0.21197 0.46821 0.19032 0.0
C2893 C 0.25086 0.46618 0.19189 0.0
C2894 C 0.20105 0.57255 0.1829 0.0
C2895 C 0.18899 0.43311 0.19163 0.0
H2896 H 0.07188 0.52096 0.20129 0.0
H2897 H 0.08916 0.50462 0.16142 0.0
H2898 H 0.16068 0.49183 0.21185 0.0
H2899 H 0.16295 0.54107 0.20939 0.0
H2900 H 0.12134 0.52065 0.21607 0.0
H2901 H 0.14757 0.48917 0.15277 0.0
H2902 H 0.1832 0.51736 0.1601 0.0
H2903 H 0.18103 0.46855 0.16348 0.0
H2904 H 0.27429 0.55632 0.186 0.0
H2905 H 0.26375 0.43966 0.19415 0.0
H2906 H 0.17967 0.57967 0.19013 0.0
H2907 H 0.1868 0.57166 0.17354 0.0
H2908 H 0.22232 0.59508 0.18267 0.0
H2909 H 0.16773 0.4367 0.19918 0.0
H2910 H 0.20634 0.40837 0.19395 0.0
H2911 H 0.17382 0.42758 0.18262 0.0
C2912 C 0.2769 0.33315 0.93523 0.0
C2913 C 0.25021 0.32 0.92652 0.0
C2914 C 0.28134 0.37168 0.93755 0.0
C2915 C 0.25851 0.39774 0.93104 0.0
C2916 C 0.23182 0.38464 0.92219 0.0
C2917 C 0.22793 0.34617 0.92009 0.0
C2918 C 0.31008 0.38452 0.94707 0.0
C2919 C 0.20659 0.41125 0.91511 0.0
C2920 C 0.23319 0.49243 0.94469 0.0
C2921 C 0.25365 0.51688 0.93695 0.0
C2922 C 0.23619 0.4536 0.94335 0.0
C2923 C 0.26029 0.43854 0.93402 0.0
C2924 C 0.28272 0.46301 0.92666 0.0
C2925 C 0.27922 0.50195 0.92824 0.0
C2926 C 0.21183 0.42879 0.95146 0.0
C2927 C 0.30878 0.44815 0.91661 0.0
H2928 H 0.29447 0.31335 0.94018 0.0
H2929 H 0.20662 0.33664 0.91357 0.0
H2930 H 0.32905 0.40523 0.94264 0.0
H2931 H 0.29605 0.3986 0.95515 0.0
H2932 H 0.327 0.36103 0.95084 0.0
H2933 H 0.18859 0.39676 0.90806 0.0
H2934 H 0.1884 0.42623 0.92194 0.0
H2935 H 0.22346 0.43254 0.91005 0.0
H2936 H 0.21389 0.50384 0.95159 0.0
H2937 H 0.29497 0.52069 0.9222 0.0
H2938 H 0.22869 0.40634 0.95588 0.0
H2939 H 0.19042 0.41519 0.94541 0.0
H2940 H 0.19738 0.44457 0.9591 0.0
H2941 H 0.32595 0.42505 0.92048 0.0
H2942 H 0.32762 0.47015 0.91285 0.0
H2943 H 0.29224 0.43667 0.90859 0.0
C2944 C 0.42512 0.52106 0.68291 0.0
C2945 C 0.43904 0.48501 0.68074 0.0
C2946 C 0.38664 0.52731 0.68477 0.0
C2947 C 0.36142 0.49681 0.68448 0.0
C2948 C 0.37539 0.46038 0.68242 0.0
C2949 C 0.41384 0.45496 0.68063 0.0
C2950 C 0.37292 0.56657 0.68699 0.0
C2951 C 0.3497 0.42698 0.68214 0.0
C2952 C 0.26767 0.50427 0.70132 0.0
C2953 C 0.2428 0.51078 0.69122 0.0
C2954 C 0.30619 0.50031 0.69927 0.0
C2955 C 0.32059 0.50256 0.68677 0.0
C2956 C 0.29575 0.5088 0.67649 0.0
C2957 C 0.25722 0.51285 0.67883 0.0
C2958 C 0.33147 0.49339 0.71051 0.0
C2959 C 0.3099 0.51114 0.663 0.0
H2960 H 0.44417 0.54451 0.68291 0.0
H2961 H 0.42421 0.42691 0.67922 0.0
H2962 H 0.35223 0.57422 0.6796 0.0
H2963 H 0.35856 0.56828 0.69631 0.0
H2964 H 0.39595 0.58731 0.68685 0.0
H2965 H 0.36484 0.40058 0.68016 0.0
H2966 H 0.33514 0.42423 0.69139 0.0
H2967 H 0.32798 0.43085 0.67474 0.0
H2968 H 0.257 0.5018 0.7109 0.0
H2969 H 0.23851 0.51817 0.67096 0.0
H2970 H 0.35356 0.51504 0.71091 0.0
H2971 H 0.34559 0.46603 0.70943 0.0
H2972 H 0.31608 0.4935 0.71967 0.0
H2973 H 0.33087 0.53378 0.6622 0.0
H2974 H 0.28714 0.51648 0.65607 0.0
H2975 H 0.32403 0.48471 0.66038 0.0
C2976 C 0.23059 0.34525 0.06813 0.0
C2977 C 0.22189 0.33111 0.08022 0.0
C2978 C 0.23307 0.38403 0.06595 0.0
C2979 C 0.22692 0.40937 0.0761 0.0
C2980 C 0.21662 0.39526 0.08817 0.0
C2981 C 0.21402 0.35652 0.09004 0.0
C2982 C 0.24383 0.39782 0.05291 0.0
C2983 C 0.20996 0.42103 0.0993 0.0
C2984 C 0.27786 0.50268 0.07548 0.0
C2985 C 0.24952 0.52779 0.07207 0.0
C2986 C 0.27082 0.46431 0.07676 0.0
C2987 C 0.23449 0.45026 0.07449 0.0
C2988 C 0.2056 0.47545 0.0711 0.0
C2989 C 0.21339 0.51395 0.07003 0.0
C2990 C 0.30238 0.4388 0.08062 0.0
C2991 C 0.16658 0.46164 0.0685 0.0
H2992 H 0.23694 0.32607 0.06048 0.0
H2993 H 0.2065 0.34606 0.09934 0.0
H2994 H 0.22441 0.42007 0.04975 0.0
H2995 H 0.27219 0.41019 0.05327 0.0
H2996 H 0.24376 0.37509 0.04573 0.0
H2997 H 0.19972 0.40589 0.10782 0.0
H2998 H 0.23634 0.43546 0.10181 0.0
H2999 H 0.18934 0.44282 0.09674 0.0
H3000 H 0.30569 0.51317 0.07729 0.0
H3001 H 0.19145 0.53313 0.06731 0.0
H3002 H 0.30669 0.41706 0.07326 0.0
H3003 H 0.29522 0.42428 0.08961 0.0
H3004 H 0.32904 0.45408 0.08202 0.0
H3005 H 0.1671 0.44079 0.0607 0.0
H3006 H 0.14733 0.4846 0.06581 0.0
H3007 H 0.1553 0.44742 0.07703 0.0
C3008 C 0.41293 0.50027 0.81657 0.0
C3009 C 0.42776 0.5066 0.82872 0.0
C3010 C 0.37433 0.49438 0.81481 0.0
C3011 C 0.35009 0.49405 0.82548 0.0
C3012 C 0.36516 0.49981 0.83777 0.0
C3013 C 0.4036 0.50624 0.83922 0.0
C3014 C 0.35939 0.48895 0.80153 0.0
C3015 C 0.3407 0.49892 0.84945 0.0
C3016 C 0.24467 0.50865 0.82271 0.0
C3017 C 0.23096 0.47189 0.8234 0.0
C3018 C 0.2833 0.51622 0.82287 0.0
C3019 C 0.30917 0.48649 0.82395 0.0
C3020 C 0.29573 0.44941 0.82436 0.0
C3021 C 0.25711 0.44259 0.82392 0.0
C3022 C 0.29644 0.55619 0.82221 0.0
C3023 C 0.32214 0.41681 0.82568 0.0
H3024 H 0.4314 0.50091 0.80843 0.0
H3025 H 0.41496 0.51064 0.84864 0.0
H3026 H 0.34563 0.46133 0.80073 0.0
H3027 H 0.33793 0.5104 0.79945 0.0
H3028 H 0.38166 0.49076 0.79421 0.0
H3029 H 0.35676 0.50375 0.85834 0.0
H3030 H 0.31868 0.52054 0.84872 0.0
H3031 H 0.3265 0.47149 0.85016 0.0
H3032 H 0.22541 0.53181 0.82227 0.0
H3033 H 0.24767 0.41399 0.82416 0.0
H3034 H 0.3177 0.55936 0.81462 0.0
H3035 H 0.30989 0.56409 0.83132 0.0
H3036 H 0.2732 0.57593 0.82033 0.0
H3037 H 0.34312 0.41727 0.81793 0.0
H3038 H 0.30744 0.38953 0.82544 0.0
H3039 H 0.33755 0.41901 0.8348 0.0
C3040 C 0.27116 0.51342 0.555 0.0
C3041 C 0.27908 0.48983 0.5653 0.0
C3042 C 0.26811 0.55229 0.55655 0.0
C3043 C 0.27362 0.56837 0.56871 0.0
C3044 C 0.28173 0.54473 0.57918 0.0
C3045 C 0.28401 0.50577 0.57737 0.0
C3046 C 0.25847 0.57612 0.54519 0.0
C3047 C 0.28819 0.56063 0.59228 0.0
C3048 C 0.29549 0.67301 0.57049 0.0
C3049 C 0.26107 0.68778 0.57429 0.0
C3050 C 0.30015 0.63421 0.56873 0.0
C3051 C 0.26943 0.60972 0.57053 0.0
C3052 C 0.23435 0.62483 0.57396 0.0
C3053 C 0.23073 0.66346 0.5759 0.0
C3054 C 0.33813 0.61931 0.56523 0.0
C3055 C 0.20056 0.60015 0.57567 0.0
H3056 H 0.26675 0.50133 0.54568 0.0
H3057 H 0.29046 0.48782 0.58536 0.0
H3058 H 0.23211 0.59145 0.547 0.0
H3059 H 0.28058 0.59725 0.54359 0.0
H3060 H 0.25512 0.55938 0.53637 0.0
H3061 H 0.29551 0.53876 0.59933 0.0
H3062 H 0.31103 0.58151 0.59197 0.0
H3063 H 0.26275 0.5753 0.5956 0.0
H3064 H 0.31901 0.69169 0.56934 0.0
H3065 H 0.20396 0.67484 0.57869 0.0
H3066 H 0.33653 0.60361 0.55616 0.0
H3067 H 0.34781 0.59951 0.57264 0.0
H3068 H 0.35918 0.64186 0.56421 0.0
H3069 H 0.19551 0.58371 0.5669 0.0
H3070 H 0.175 0.61638 0.5779 0.0
H3071 H 0.20557 0.57999 0.58348 0.0
C3072 C 0.1042 0.52259 0.33981 0.0
C3073 C 0.07994 0.50858 0.33049 0.0
C3074 C 0.14295 0.52389 0.33782 0.0
C3075 C 0.15809 0.51019 0.32629 0.0
C3076 C 0.13369 0.49605 0.31681 0.0
C3077 C 0.09488 0.49576 0.31898 0.0
C3078 C 0.16769 0.53999 0.34806 0.0
C3079 C 0.14866 0.48068 0.30447 0.0
C3080 C 0.25436 0.5438 0.31603 0.0
C3081 C 0.27753 0.51444 0.31997 0.0
C3082 C 0.21563 0.54281 0.31808 0.0
C3083 C 0.19934 0.51144 0.32409 0.0
C3084 C 0.22259 0.48172 0.32816 0.0
C3085 C 0.26142 0.48373 0.32615 0.0
C3086 C 0.19215 0.57552 0.31386 0.0
C3087 C 0.2064 0.44759 0.33449 0.0
H3088 H 0.09271 0.53281 0.34867 0.0
H3089 H 0.07627 0.48446 0.31183 0.0
H3090 H 0.18781 0.5186 0.35137 0.0
H3091 H 0.18417 0.56359 0.34418 0.0
H3092 H 0.1515 0.55011 0.35638 0.0
H3093 H 0.12615 0.47011 0.29817 0.0
H3094 H 0.16439 0.50263 0.29933 0.0
H3095 H 0.16843 0.45757 0.30645 0.0
H3096 H 0.26667 0.56787 0.31144 0.0
H3097 H 0.2791 0.46083 0.32913 0.0
H3098 H 0.17683 0.58724 0.3221 0.0
H3099 H 0.17103 0.56616 0.30684 0.0
H3100 H 0.20914 0.59805 0.3095 0.0
H3101 H 0.19141 0.45571 0.34329 0.0
H3102 H 0.22813 0.42675 0.33699 0.0
H3103 H 0.18573 0.43423 0.32809 0.0
C3104 C 0.55513 0.2851 0.07818 0.0
C3105 C 0.57873 0.28922 0.06769 0.0
C3106 C 0.51796 0.27448 0.07655 0.0
C3107 C 0.50434 0.26799 0.06412 0.0
C3108 C 0.52769 0.27329 0.05346 0.0
C3109 C 0.56482 0.28381 0.05538 0.0
C3110 C 0.49367 0.26894 0.08813 0.0
C3111 C 0.51374 0.26691 0.04009 0.0
C3112 C 0.42259 0.2021 0.06264 0.0
C3113 C 0.39267 0.22716 0.06235 0.0
C3114 C 0.45936 0.21506 0.06273 0.0
C3115 C 0.46607 0.25393 0.06242 0.0
C3116 C 0.43607 0.27931 0.0615 0.0
C3117 C 0.39958 0.2656 0.06155 0.0
C3118 C 0.4909 0.18727 0.06373 0.0
C3119 C 0.44242 0.32096 0.0611 0.0
H3120 H 0.56611 0.28886 0.0877 0.0
H3121 H 0.58315 0.28742 0.04728 0.0
H3122 H 0.4679 0.28588 0.08731 0.0
H3123 H 0.48505 0.23927 0.08879 0.0
H3124 H 0.50821 0.27673 0.09708 0.0
H3125 H 0.53486 0.27455 0.03282 0.0
H3126 H 0.50631 0.23709 0.03882 0.0
H3127 H 0.48807 0.28344 0.03837 0.0
H3128 H 0.41721 0.17236 0.06308 0.0
H3129 H 0.37647 0.28509 0.0615 0.0
H3130 H 0.50545 0.19091 0.07296 0.0
H3131 H 0.51169 0.19222 0.05611 0.0
H3132 H 0.48097 0.15797 0.06305 0.0
H3133 H 0.4534 0.33056 0.0704 0.0
H3134 H 0.41638 0.33659 0.059 0.0
H3135 H 0.46357 0.32807 0.05379 0.0
C3136 C 0.01162 0.33915 0.32382 0.0
C3137 C 0.97325 0.3418 0.32145 0.0
C3138 C 0.02949 0.30459 0.32396 0.0
C3139 C 0.00835 0.27204 0.32164 0.0
C3140 C 0.96934 0.27442 0.3196 0.0
C3141 C 0.9521 0.30951 0.3196 0.0
C3142 C 0.07103 0.30298 0.32635 0.0
C3143 C 0.94611 0.24006 0.31709 0.0
C3144 C 0.05959 0.18751 0.30915 0.0
C3145 C 0.06227 0.16556 0.32013 0.0
C3146 C 0.0421 0.2224 0.30951 0.0
C3147 C 0.02734 0.23557 0.32115 0.0
C3148 C 0.03098 0.21412 0.33234 0.0
C3149 C 0.04822 0.17922 0.33167 0.0
C3150 C 0.0387 0.24479 0.29741 0.0
C3151 C 0.01583 0.22761 0.34493 0.0
H3152 H 0.02775 0.36433 0.32544 0.0
H3153 H 0.92243 0.31186 0.31776 0.0
H3154 H 0.07708 0.28423 0.33448 0.0
H3155 H 0.0854 0.29123 0.31791 0.0
H3156 H 0.08307 0.3309 0.32841 0.0
H3157 H 0.91599 0.24668 0.31603 0.0
H3158 H 0.9559 0.22616 0.30828 0.0
H3159 H 0.94947 0.2198 0.32498 0.0
H3160 H 0.0705 0.17703 0.30023 0.0
H3161 H 0.04933 0.16199 0.34013 0.0
H3162 H 0.05202 0.27249 0.29865 0.0
H3163 H 0.00883 0.24973 0.29521 0.0
H3164 H 0.05182 0.23057 0.28917 0.0
H3165 H 0.02761 0.2554 0.34726 0.0
H3166 H 0.02233 0.20813 0.35283 0.0
H3167 H 0.98511 0.23085 0.3443 0.0
C3168 C 0.06388 0.80973 0.55815 0.0
C3169 C 0.09607 0.78775 0.55737 0.0
C3170 C 0.02854 0.7932 0.55835 0.0
C3171 C 0.02557 0.75389 0.55761 0.0
C3172 C 0.05784 0.73165 0.55632 0.0
C3173 C 0.0928 0.74886 0.55632 0.0
C3174 C 0.9945 0.81767 0.55978 0.0
C3175 C 0.05552 0.68964 0.55545 0.0
C3176 C 0.93945 0.71254 0.57257 0.0
C3177 C 0.91638 0.70813 0.56195 0.0
C3178 C 0.97562 0.72654 0.57124 0.0
C3179 C 0.98879 0.73599 0.55898 0.0
C3180 C 0.96621 0.72995 0.54816 0.0
C3181 C 0.93004 0.71617 0.54979 0.0
C3182 C 0.99906 0.73283 0.58298 0.0
C3183 C 0.97975 0.73928 0.53495 0.0
H3184 H 0.06637 0.8398 0.55882 0.0
H3185 H 0.11763 0.73165 0.55597 0.0
H3186 H 0.97438 0.81201 0.552 0.0
H3187 H 0.98022 0.81116 0.56887 0.0
H3188 H 1.00158 0.84784 0.55969 0.0
H3189 H 0.083 0.67674 0.55332 0.0
H3190 H 0.04514 0.67813 0.56457 0.0
H3191 H 0.03542 0.68129 0.54794 0.0
H3192 H 0.92859 0.70677 0.58199 0.0
H3193 H 0.91206 0.71247 0.54159 0.0
H3194 H 0.00451 0.7631 0.58418 0.0
H3195 H 0.02648 0.71883 0.58197 0.0
H3196 H 0.98529 0.72226 0.59173 0.0
H3197 H 0.9839 0.76985 0.5341 0.0
H3198 H 0.95977 0.73023 0.52748 0.0
H3199 H 0.00711 0.72584 0.53313 0.0
C3200 C 0.53193 0.84786 0.81355 0.0
C3201 C 0.49393 0.84618 0.81653 0.0
C3202 C 0.55328 0.81519 0.8129 0.0
C3203 C 0.53573 0.78039 0.81501 0.0
C3204 C 0.49707 0.77871 0.81775 0.0
C3205 C 0.47669 0.81181 0.81862 0.0
C3206 C 0.59459 0.81791 0.81027 0.0
C3207 C 0.47726 0.74201 0.81985 0.0
C3208 C 0.57304 0.68799 0.80375 0.0
C3209 C 0.58213 0.67111 0.81538 0.0
C3210 C 0.56019 0.72483 0.80331 0.0
C3211 C 0.55748 0.74543 0.81473 0.0
C3212 C 0.57043 0.72996 0.82627 0.0
C3213 C 0.58215 0.69276 0.8265 0.0
C3214 C 0.54627 0.74035 0.79084 0.0
C3215 C 0.56878 0.75153 0.8386 0.0
H3216 H 0.54503 0.87478 0.81204 0.0
H3217 H 0.44717 0.81091 0.82086 0.0
H3218 H 0.61043 0.80702 0.81854 0.0
H3219 H 0.6021 0.80044 0.80196 0.0
H3220 H 0.60362 0.84706 0.80842 0.0
H3221 H 0.44675 0.74561 0.82123 0.0
H3222 H 0.48184 0.72323 0.81161 0.0
H3223 H 0.48884 0.72791 0.82837 0.0
H3224 H 0.57387 0.6717 0.79507 0.0
H3225 H 0.58876 0.68011 0.83557 0.0
H3226 H 0.55627 0.76932 0.78942 0.0
H3227 H 0.51532 0.7412 0.79098 0.0
H3228 H 0.55524 0.72308 0.78262 0.0
H3229 H 0.57855 0.78061 0.83721 0.0
H3230 H 0.58592 0.73827 0.84614 0.0
H3231 H 0.53947 0.75281 0.84196 0.0
C3232 C 0.58811 0.71148 0.43877 0.0
C3233 C 0.59532 0.6731 0.43844 0.0
C3234 C 0.55182 0.72503 0.4376 0.0
C3235 C 0.52211 0.69946 0.43618 0.0
C3236 C 0.52918 0.6606 0.43582 0.0
C3237 C 0.56602 0.6478 0.43682 0.0
C3238 C 0.54533 0.76671 0.43782 0.0
C3239 C 0.49788 0.63271 0.43447 0.0
C3240 C 0.42843 0.73818 0.44563 0.0
C3241 C 0.41303 0.74725 0.43377 0.0
C3242 C 0.46335 0.72111 0.44651 0.0
C3243 C 0.48365 0.71377 0.43528 0.0
C3244 C 0.46839 0.72281 0.42327 0.0
C3245 C 0.43303 0.73921 0.42265 0.0
C3246 C 0.47887 0.71167 0.45947 0.0
C3247 C 0.48974 0.71588 0.41112 0.0
H3248 H 0.61109 0.73099 0.43972 0.0
H3249 H 0.57195 0.61816 0.43648 0.0
H3250 H 0.53088 0.77555 0.429 0.0
H3251 H 0.52701 0.77419 0.44592 0.0
H3252 H 0.57174 0.78274 0.43869 0.0
H3253 H 0.50815 0.60347 0.43437 0.0
H3254 H 0.47792 0.63597 0.44245 0.0
H3255 H 0.48222 0.63798 0.42556 0.0
H3256 H 0.41335 0.74484 0.45426 0.0
H3257 H 0.42096 0.74553 0.41346 0.0
H3258 H 0.50379 0.7291 0.46143 0.0
H3259 H 0.48791 0.68208 0.45975 0.0
H3260 H 0.4582 0.71635 0.46718 0.0
H3261 H 0.51579 0.7326 0.41114 0.0
H3262 H 0.47329 0.72329 0.40254 0.0
H3263 H 0.49794 0.68611 0.41047 0.0
C3264 C 0.50823 0.19204 0.69577 0.0
C3265 C 0.52509 0.16014 0.69083 0.0
C3266 C 0.52793 0.22564 0.69641 0.0
C3267 C 0.56543 0.22677 0.69216 0.0
C3268 C 0.58325 0.19379 0.68795 0.0
C3269 C 0.56257 0.16074 0.68717 0.0
C3270 C 0.50782 0.26038 0.70079 0.0
C3271 C 0.62338 0.19386 0.68362 0.0
C3272 C 0.59049 0.3199 0.67815 0.0
C3273 C 0.60659 0.33794 0.68861 0.0
C3274 C 0.57886 0.28282 0.67898 0.0
C3275 C 0.58384 0.2633 0.69054 0.0
C3276 C 0.60244 0.28049 0.70086 0.0
C3277 C 0.6133 0.31794 0.69982 0.0
C3278 C 0.55869 0.26556 0.66781 0.0
C3279 C 0.6089 0.26006 0.7132 0.0
H3280 H 0.4791 0.19106 0.69855 0.0
H3281 H 0.57531 0.13561 0.68341 0.0
H3282 H 0.52421 0.27489 0.70824 0.0
H3283 H 0.50475 0.27995 0.69268 0.0
H3284 H 0.47963 0.25413 0.70462 0.0
H3285 H 0.63484 0.16514 0.68287 0.0
H3286 H 0.62534 0.20724 0.67414 0.0
H3287 H 0.64101 0.21024 0.69026 0.0
H3288 H 0.58466 0.33554 0.66955 0.0
H3289 H 0.62585 0.33197 0.70789 0.0
H3290 H 0.52907 0.26057 0.67037 0.0
H3291 H 0.57114 0.23817 0.66537 0.0
H3292 H 0.55949 0.28364 0.65924 0.0
H3293 H 0.5821 0.2573 0.71838 0.0
H3294 H 0.629 0.27499 0.71943 0.0
H3295 H 0.61952 0.23148 0.71137 0.0
C3296 C 0.89622 0.24296 0.94611 0.0
C3297 C 0.89329 0.28156 0.94417 0.0
C3298 C 0.93103 0.22544 0.94626 0.0
C3299 C 0.96344 0.24709 0.94432 0.0
C3300 C 0.96074 0.28608 0.94243 0.0
C3301 C 0.92556 0.30292 0.9424 0.0
C3302 C 0.93308 0.18377 0.94829 0.0
C3303 C 0.99494 0.3099 0.94031 0.0
C3304 C 0.05802 0.21199 0.95446 0.0
C3305 C 0.07307 0.20087 0.94277 0.0
C3306 C 0.0217 0.22599 0.95519 0.0
C3307 C 1.00028 0.22891 0.94395 0.0
C3308 C 0.01477 0.21627 0.93222 0.0
C3309 C 0.05115 0.20232 0.93177 0.0
C3310 C 0.0068 0.23895 0.96787 0.0
C3311 C 0.99254 0.21908 0.92005 0.0
H3312 H 0.87121 0.22629 0.94724 0.0
H3313 H 0.92326 0.3328 0.94102 0.0
H3314 H 0.9452 0.17018 0.93977 0.0
H3315 H 0.95172 0.17736 0.95642 0.0
H3316 H 0.90526 0.17127 0.95017 0.0
H3317 H 0.98795 0.3399 0.93914 0.0
H3318 H 0.0144 0.30697 0.94845 0.0
H3319 H 0.00993 0.30032 0.93168 0.0
H3320 H 0.07503 0.21053 0.96297 0.0
H3321 H 0.06303 0.19418 0.92271 0.0
H3322 H 0.97938 0.22579 0.96982 0.0
H3323 H 1.00234 0.26958 0.96764 0.0
H3324 H 0.0261 0.23234 0.97582 0.0
H3325 H 0.96482 0.20578 0.92124 0.0
H3326 H 0.00699 0.2057 0.9119 0.0
H3327 H 0.98767 0.24887 0.91771 0.0
C3328 C 0.99803 0.66325 0.19229 0.0
C3329 C 0.95901 0.66509 0.19282 0.0
C3330 C 0.01961 0.69567 0.19238 0.0
C3331 C 1.00162 0.73063 0.19313 0.0
C3332 C 0.96214 0.73267 0.19366 0.0
C3333 C 0.94114 0.69965 0.19336 0.0
C3334 C 0.06158 0.6925 0.19152 0.0
C3335 C 0.94219 0.76966 0.19457 0.0
C3336 C 0.0575 0.81375 0.20448 0.0
C3337 C 0.06383 0.8328 0.19304 0.0
C3338 C 0.03743 0.78023 0.20466 0.0
C3339 C 0.02419 0.76512 0.19309 0.0
C3340 C 0.03222 0.78305 0.18145 0.0
C3341 C 0.05163 0.81689 0.18157 0.0
C3342 C 0.0292 0.76174 0.21724 0.0
C3343 C 0.01914 0.76721 0.1689 0.0
H3344 H 0.01164 0.63629 0.19165 0.0
H3345 H 0.91093 0.70073 0.19371 0.0
H3346 H 0.07176 0.70745 0.18297 0.0
H3347 H 0.07475 0.70588 0.19991 0.0
H3348 H 0.0711 0.66304 0.19101 0.0
H3349 H 0.91145 0.7663 0.19526 0.0
H3350 H 0.95217 0.78524 0.20303 0.0
H3351 H 0.94861 0.78691 0.1861 0.0
H3352 H 0.06719 0.8257 0.21335 0.0
H3353 H 0.05559 0.83171 0.1727 0.0
H3354 H 0.03953 0.73258 0.2172 0.0
H3355 H 0.99859 0.7606 0.21877 0.0
H3356 H 0.04216 0.77675 0.22536 0.0
H3357 H 0.02822 0.73775 0.16794 0.0
H3358 H 0.02996 0.78326 0.16066 0.0
H3359 H 0.98822 0.76744 0.16853 0.0
C3360 C 0.41736 0.74287 0.94723 0.0
C3361 C 0.41868 0.70375 0.94743 0.0
C3362 C 0.44999 0.76404 0.94654 0.0
C3363 C 0.48476 0.7456 0.94608 0.0
C3364 C 0.48635 0.70608 0.94623 0.0
C3365 C 0.45307 0.6855 0.94679 0.0
C3366 C 0.4472 0.80611 0.94618 0.0
C3367 C 0.52313 0.68564 0.94581 0.0
C3368 C 0.56829 0.79736 0.93298 0.0
C3369 C 0.5867 0.80807 0.94417 0.0
C3370 C 0.53469 0.77749 0.93346 0.0
C3371 C 0.51946 0.76783 0.94542 0.0
C3372 C 0.53725 0.77952 0.95674 0.0
C3373 C 0.57058 0.79976 0.95597 0.0
C3374 C 0.51608 0.76588 0.9212 0.0
C3375 C 0.52165 0.76974 0.96964 0.0
H3376 H 0.39058 0.75695 0.94737 0.0
H3377 H 0.45388 0.65527 0.94684 0.0
H3378 H 0.46251 0.81833 0.95435 0.0
H3379 H 0.46043 0.81692 0.93739 0.0
H3380 H 0.41785 0.81601 0.9465 0.0
H3381 H 0.51952 0.65487 0.94614 0.0
H3382 H 0.5384 0.69298 0.93699 0.0
H3383 H 0.54082 0.69434 0.95394 0.0
H3384 H 0.58094 0.80303 0.92383 0.0
H3385 H 0.58461 0.80825 0.96463 0.0
H3386 H 0.48669 0.77553 0.92105 0.0
H3387 H 0.51562 0.735 0.92049 0.0
H3388 H 0.53059 0.77721 0.91271 0.0
H3389 H 0.49277 0.78052 0.97056 0.0
H3390 H 0.53874 0.7813 0.97753 0.0
H3391 H 0.52029 0.73897 0.97071 0.0
C3392 C 0.06542 0.70501 0.6963 0.0
C3393 C 0.05394 0.67484 0.70387 0.0
C3394 C 0.05051 0.74063 0.69808 0.0
C3395 C 0.02194 0.74588 0.70716 0.0
C3396 C 0.01142 0.71633 0.71527 0.0
C3397 C 0.02844 0.68145 0.71379 0.0
C3398 C 0.06374 0.77211 0.68966 0.0
C3399 C 0.98022 0.72057 0.7248 0.0
C3400 C 0.99558 0.8462 0.7131 0.0
C3401 C 0.97103 0.85271 0.7029 0.0
C3402 C 0.01146 0.811 0.71503 0.0
C3403 C 1.00069 0.78115 0.70708 0.0
C3404 C 0.97261 0.78638 0.69781 0.0
C3405 C 0.95881 0.82226 0.6956 0.0
C3406 C 0.04207 0.80674 0.72479 0.0
C3407 C 0.95908 0.7546 0.68957 0.0
H3408 H 0.08464 0.7008 0.68851 0.0
H3409 H 0.02037 0.65902 0.7201 0.0
H3410 H 0.04214 0.77837 0.68241 0.0
H3411 H 0.0683 0.79784 0.69532 0.0
H3412 H 0.09008 0.76505 0.68464 0.0
H3413 H 0.97987 0.69741 0.73181 0.0
H3414 H 0.98232 0.74741 0.72999 0.0
H3415 H 0.95315 0.7206 0.71967 0.0
H3416 H 0.00402 0.86899 0.71922 0.0
H3417 H 0.94008 0.82643 0.68766 0.0
H3418 H 0.06938 0.80554 0.71983 0.0
H3419 H 0.03896 0.78042 0.73021 0.0
H3420 H 0.04271 0.83046 0.73158 0.0
H3421 H 0.98061 0.74781 0.68236 0.0
H3422 H 0.93281 0.76171 0.68451 0.0
H3423 H 0.95429 0.7292 0.69537 0.0
C3424 C 0.91505 0.20444 0.46501 0.0
C3425 C 0.90684 0.18022 0.45486 0.0
C3426 C 0.95074 0.21964 0.46648 0.0
C3427 C 0.97947 0.20827 0.45816 0.0
C3428 C 0.9727 0.17989 0.4491 0.0
C3429 C 0.93626 0.16685 0.44733 0.0
C3430 C 0.95644 0.25065 0.47602 0.0
C3431 C 0.00328 0.16557 0.44052 0.0
C3432 C 0.05316 0.27432 0.44615 0.0
C3433 C 0.08419 0.26492 0.45369 0.0
C3434 C 0.01828 0.25799 0.44822 0.0
C3435 C 0.01464 0.22974 0.4575 0.0
C3436 C 0.04516 0.22062 0.46538 0.0
C3437 C 0.0792 0.2392 0.46366 0.0
C3438 C 0.98571 0.26989 0.44003 0.0
C3439 C 0.04271 0.18964 0.47507 0.0
H3440 H 0.893 0.21364 0.47131 0.0
H3441 H 0.93078 0.14812 0.43948 0.0
H3442 H 0.98355 0.24787 0.48099 0.0
H3443 H 0.95673 0.27776 0.47092 0.0
H3444 H 0.93378 0.25147 0.48321 0.0
H3445 H 0.99548 0.13874 0.43594 0.0
H3446 H 0.00886 0.18628 0.43293 0.0
H3447 H 0.02954 0.16152 0.44594 0.0
H3448 H 0.05596 0.29334 0.43824 0.0
H3449 H 0.1021 0.23249 0.46995 0.0
H3450 H 0.96047 0.27434 0.44594 0.0
H3451 H 0.97917 0.24762 0.43305 0.0
H3452 H 0.99166 0.29599 0.43471 0.0
H3453 H 0.01642 0.19128 0.48058 0.0
H3454 H 0.06662 0.19003 0.48179 0.0
H3455 H 0.04269 0.16242 0.47004 0.0
C3456 C 0.49502 0.17339 0.18699 0.0
C3457 C 0.53304 0.16461 0.18626 0.0
C3458 C 0.48319 0.21051 0.18734 0.0
C3459 C 0.5101 0.23931 0.18693 0.0
C3460 C 0.54854 0.23066 0.18631 0.0
C3461 C 0.55959 0.19326 0.18597 0.0
C3462 C 0.44193 0.2189 0.18795 0.0
C3463 C 0.57789 0.26088 0.18587 0.0
C3464 C 0.47843 0.3335 0.17515 0.0
C3465 C 0.47349 0.35283 0.1866 0.0
C3466 C 0.49051 0.29645 0.17513 0.0
C3467 C 0.49788 0.27856 0.18684 0.0
C3468 C 0.49313 0.29795 0.19843 0.0
C3469 C 0.4809 0.33499 0.19817 0.0
C3470 C 0.49539 0.27645 0.16259 0.0
C3471 C 0.50072 0.2795 0.21107 0.0
H3472 H 0.47446 0.1512 0.18701 0.0
H3473 H 0.58901 0.18638 0.18554 0.0
H3474 H 0.43577 0.23669 0.19632 0.0
H3475 H 0.43334 0.23472 0.17937 0.0
H3476 H 0.42473 0.19318 0.18857 0.0
H3477 H 0.60664 0.24935 0.18564 0.0
H3478 H 0.57372 0.27852 0.17733 0.0
H3479 H 0.57521 0.27931 0.1943 0.0
H3480 H 0.47329 0.34753 0.1662 0.0
H3481 H 0.47674 0.34989 0.20703 0.0
H3482 H 0.47723 0.2514 0.16228 0.0
H3483 H 0.52462 0.26672 0.1616 0.0
H3484 H 0.48851 0.2945 0.15434 0.0
H3485 H 0.48222 0.25493 0.21226 0.0
H3486 H 0.49625 0.29875 0.2192 0.0
H3487 H 0.52989 0.26921 0.21139 0.0
C3488 C 0.57554 0.18588 0.57605 0.0
C3489 C 0.59406 0.17302 0.56515 0.0
C3490 C 0.53984 0.20124 0.57522 0.0
C3491 C 0.52252 0.2041 0.56319 0.0
C3492 C 0.53993 0.18905 0.55228 0.0
C3493 C 0.57558 0.17346 0.55341 0.0
C3494 C 0.52181 0.21673 0.58708 0.0
C3495 C 0.52199 0.19153 0.53933 0.0
C3496 C 0.42034 0.22897 0.56331 0.0
C3497 C 0.42184 0.2678 0.56169 0.0
C3498 C 0.45291 0.2076 0.56344 0.0
C3499 C 0.48766 0.22563 0.56196 0.0
C3500 C 0.48934 0.26474 0.56011 0.0
C3501 C 0.45627 0.28546 0.56004 0.0
C3502 C 0.45022 0.166 0.56556 0.0
C3503 C 0.52612 0.28477 0.55849 0.0
H3504 H 0.58985 0.18628 0.58512 0.0
H3505 H 0.58973 0.1632 0.545 0.0
H3506 H 0.52092 0.24762 0.58652 0.0
H3507 H 0.49262 0.20674 0.58792 0.0
H3508 H 0.5372 0.20876 0.59584 0.0
H3509 H 0.53731 0.17498 0.53209 0.0
H3510 H 0.4927 0.18159 0.53972 0.0
H3511 H 0.52135 0.22109 0.53621 0.0
H3512 H 0.39369 0.21538 0.56484 0.0
H3513 H 0.45727 0.31544 0.55873 0.0
H3514 H 0.46334 0.15868 0.57478 0.0
H3515 H 0.46566 0.15081 0.55804 0.0
H3516 H 0.42087 0.15602 0.56565 0.0
H3517 H 0.54307 0.28176 0.56726 0.0
H3518 H 0.5224 0.31497 0.5565 0.0
H3519 H 0.54221 0.27208 0.55059 0.0
C3520 C 0.56046 0.819 0.31404 0.0
C3521 C 0.53366 0.84741 0.31437 0.0
C3522 C 0.54969 0.78148 0.31418 0.0
C3523 C 0.51129 0.77249 0.31457 0.0
C3524 C 0.4841 0.80101 0.31458 0.0
C3525 C 0.49565 0.8382 0.31457 0.0
C3526 C 0.5793 0.75153 0.31422 0.0
C3527 C 0.44288 0.79226 0.31495 0.0
C3528 C 0.48024 0.67535 0.30562 0.0
C3529 C 0.47482 0.6594 0.31763 0.0
C3530 C 0.49241 0.71225 0.30446 0.0
C3531 C 0.49943 0.73327 0.31557 0.0
C3532 C 0.49421 0.71721 0.32772 0.0
C3533 C 0.48184 0.68036 0.3286 0.0
C3534 C 0.49741 0.72884 0.29137 0.0
C3535 C 0.50168 0.73895 0.33976 0.0
H3536 H 0.58984 0.82611 0.31374 0.0
H3537 H 0.47485 0.86009 0.31508 0.0
H3538 H 0.57746 0.73511 0.32314 0.0
H3539 H 0.5747 0.7319 0.30622 0.0
H3540 H 0.6079 0.76326 0.31344 0.0
H3541 H 0.42538 0.81772 0.31412 0.0
H3542 H 0.43542 0.7729 0.30712 0.0
H3543 H 0.43591 0.77806 0.32401 0.0
H3544 H 0.47454 0.65904 0.29716 0.0
H3545 H 0.47818 0.66769 0.33787 0.0
H3546 H 0.52639 0.73913 0.29021 0.0
H3547 H 0.47859 0.75316 0.2902 0.0
H3548 H 0.4914 0.70841 0.2837 0.0
H3549 H 0.53091 0.74912 0.33984 0.0
H3550 H 0.49692 0.72198 0.34845 0.0
H3551 H 0.4833 0.76381 0.34016 0.0
C3552 C 0.05709 0.68428 0.05393 0.0
C3553 C 0.0918 0.69816 0.05015 0.0
C3554 C 0.02461 0.70513 0.05197 0.0
C3555 C 0.02722 0.74079 0.04623 0.0
C3556 C 0.06181 0.7536 0.0415 0.0
C3557 C 0.09382 0.73198 0.04348 0.0
C3558 C 0.98801 0.69024 0.05696 0.0
C3559 C 0.06568 0.79146 0.03536 0.0
C3560 C 0.9332 0.78324 0.03919 0.0
C3561 C 0.92546 0.80076 0.05084 0.0
C3562 C 0.96752 0.76561 0.03711 0.0
C3563 C 0.99473 0.76617 0.04682 0.0
C3564 C 0.98858 0.78723 0.05801 0.0
C3565 C 0.95386 0.80413 0.05992 0.0
C3566 C 0.97327 0.7437 0.02501 0.0
C3567 C 0.01736 0.78912 0.06848 0.0
H3568 H 0.05566 0.65802 0.05902 0.0
H3569 H 0.1208 0.74293 0.04069 0.0
H3570 H 0.97929 0.70676 0.06537 0.0
H3571 H 0.96584 0.69303 0.04966 0.0
H3572 H 0.99003 0.66046 0.05981 0.0
H3573 H 0.09219 0.79397 0.02996 0.0
H3574 H 0.04201 0.79718 0.02886 0.0
H3575 H 0.06544 0.81327 0.04285 0.0
H3576 H 0.91154 0.78126 0.03203 0.0
H3577 H 0.94812 0.81739 0.06897 0.0
H3578 H 0.97019 0.7135 0.02707 0.0
H3579 H 1.00178 0.74809 0.02121 0.0
H3580 H 0.95264 0.75141 0.01758 0.0
H3581 H 0.01933 0.76157 0.07324 0.0
H3582 H 0.01024 0.81043 0.07576 0.0
H3583 H 0.04527 0.79571 0.06453 0.0
C3584 C 0.01311 0.31704 0.81319 0.0
C3585 C 0.99525 0.35019 0.81661 0.0
C3586 C 0.99305 0.28364 0.81236 0.0
C3587 C 0.95417 0.28383 0.81477 0.0
C3588 C 0.93574 0.31767 0.81767 0.0
C3589 C 0.95669 0.35052 0.81871 0.0
C3590 C 0.01374 0.24793 0.80946 0.0
C3591 C 0.89426 0.31895 0.82009 0.0
C3592 C 0.90507 0.19584 0.80411 0.0
C3593 C 0.90544 0.17489 0.81535 0.0
C3594 C 0.91896 0.2324 0.8039 0.0
C3595 C 0.93364 0.24805 0.81518 0.0
C3596 C 0.93205 0.22785 0.82671 0.0
C3597 C 0.91798 0.19147 0.82665 0.0
C3598 C 0.91982 0.25348 0.79148 0.0
C3599 C 0.94756 0.24363 0.83894 0.0
H3600 H 0.04303 0.31702 0.81167 0.0
H3601 H 0.94306 0.37646 0.82128 0.0
H3602 H 0.01178 0.22872 0.8177 0.0
H3603 H 1.00085 0.2336 0.80121 0.0
H3604 H 0.0437 0.25288 0.80735 0.0
H3605 H 0.88353 0.34799 0.82047 0.0
H3606 H 0.87898 0.30352 0.81257 0.0
H3607 H 0.88796 0.30516 0.82928 0.0
H3608 H 0.89511 0.18317 0.79538 0.0
H3609 H 0.91899 0.17524 0.83534 0.0
H3610 H 0.94908 0.25608 0.78816 0.0
H3611 H 0.90879 0.28214 0.79279 0.0
H3612 H 0.90334 0.23927 0.78396 0.0
H3613 H 0.97831 0.2464 0.83814 0.0
H3614 H 0.94117 0.22568 0.84727 0.0
H3615 H 0.93613 0.27189 0.84073 0.0
loop_
_geom_bond_atom_site_label_1
_geom_bond_atom_site_label_2
_geom_bond_distance
_geom_bond_site_symmetry_2
_ccdc_geom_bond_type
C0 C1 1.351 . S
C0 N3 1.368 . S
C0 H5 0.931 . S
C1 C0 1.351 . S
C1 N2 1.373 . S
C1 H29 0.930 . S
N2 C1 1.373 . S
N2 C4 1.340 . S
N3 C0 1.368 . S
N3 C4 1.321 . S
N3 Co6 2.135 . S
C4 N2 1.340 . S
C4 N3 1.321 . S
C4 H28 0.930 . S
H5 C0 0.931 . S
Co6 N3 2.135 . S
Co6 N9 2.121 . S
Co6 O14 2.055 . S
Co6 O17 2.039 . S
Co6 N20 2.140 . S
C7 O8 1.227 . S
C7 O17 1.265 . S
O8 C7 1.227 . S
N9 Co6 2.121 . S
N9 C11 1.375 . S
N9 C12 1.313 . S
C10 C11 1.338 . S
C10 N13 1.377 . S
C10 H30 0.930 . S
C11 N9 1.375 . S
C11 C10 1.338 . S
C11 H15 0.931 . S
C12 N9 1.313 . S
C12 N13 1.344 . S
C12 H16 0.930 . S
N13 C10 1.377 . S
N13 C12 1.344 . S
O14 Co6 2.055 . S
O14 C18 1.253 . S
H15 C11 0.931 . S
H16 C12 0.930 . S
O17 Co6 2.039 . S
O17 C7 1.265 . S
C18 O14 1.253 . S
C18 O19 1.227 . S
O19 C18 1.227 . S
N20 Co6 2.140 . S
N20 C23 1.346 . S
N20 C24 1.345 . S
C21 C22 1.387 . S
C21 C25 1.391 . S
C22 C21 1.387 . S
C22 C23 1.369 . S
C22 H31 0.929 . S
C23 N20 1.346 . S
C23 C22 1.369 . S
C23 H26 0.928 . S
C24 N20 1.345 . S
C24 C25 1.371 . S
C24 H27 0.931 . S
C25 C21 1.391 . S
C25 C24 1.371 . S
C25 H32 0.930 . S
H26 C23 0.928 . S
H27 C24 0.931 . S
H28 C4 0.930 . S
H29 C1 0.930 . S
H30 C10 0.930 . S
H31 C22 0.929 . S
H32 C25 0.930 . S
C33 C34 1.351 . S
C33 N36 1.368 . S
C33 H38 0.931 . S
C34 C33 1.351 . S
C34 N35 1.373 . S
C34 H62 0.930 . S
N35 C34 1.373 . S
N35 C37 1.340 . S
N36 C33 1.368 . S
N36 C37 1.321 . S
N36 Co39 2.135 1_655 S
C37 N35 1.340 . S
C37 N36 1.321 . S
C37 H61 0.930 . S
H38 C33 0.931 . S
Co39 N36 2.135 1_455 S
Co39 N42 2.121 1_565 S
Co39 O47 2.055 . S
Co39 O50 2.039 . S
Co39 N53 2.140 1_565 S
C40 O41 1.227 1_565 S
C40 O50 1.265 . S
O41 C40 1.227 1_545 S
N42 Co39 2.121 1_545 S
N42 C44 1.375 . S
N42 C45 1.317 . S
C43 C44 1.338 . S
C43 N46 1.377 . S
C43 H63 0.930 . S
C44 N42 1.375 . S
C44 C43 1.338 . S
C44 H48 0.931 . S
C45 N42 1.317 . S
C45 N46 1.351 . S
C45 H49 0.921 1_545 S
N46 C43 1.377 . S
N46 C45 1.351 . S
O47 Co39 2.055 . S
O47 C51 1.253 . S
H48 C44 0.931 . S
H49 C45 0.921 1_565 S
O50 Co39 2.039 . S
O50 C40 1.265 . S
C51 O47 1.253 . S
C51 O52 1.227 . S
O52 C51 1.227 . S
N53 Co39 2.140 1_545 S
N53 C56 1.346 . S
N53 C57 1.345 . S
C54 C55 1.387 . S
C54 C58 1.391 . S
C55 C54 1.387 . S
C55 C56 1.369 . S
C55 H64 0.929 1_455 S
C56 N53 1.346 . S
C56 C55 1.369 . S
C56 H59 0.928 1_455 S
C57 N53 1.345 . S
C57 C58 1.371 . S
C57 H60 0.931 . S
C58 C54 1.391 . S
C58 C57 1.371 . S
C58 H65 0.930 . S
H59 C56 0.928 1_655 S
H60 C57 0.931 . S
H61 C37 0.930 . S
H62 C34 0.930 . S
H63 C43 0.930 . S
H64 C55 0.929 1_655 S
H65 C58 0.930 . S
C66 C67 1.351 . S
C66 N69 1.368 . S
C66 H71 0.931 . S
C67 C66 1.351 . S
C67 N68 1.373 . S
C67 H95 0.930 . S
N68 C67 1.373 . S
N68 C70 1.340 . S
N69 C66 1.368 . S
N69 C70 1.321 . S
N69 Co72 2.135 . S
C70 N68 1.340 . S
C70 N69 1.321 . S
C70 H94 0.930 . S
H71 C66 0.931 . S
Co72 N69 2.135 . S
Co72 N75 2.121 . S
Co72 O80 2.055 . S
Co72 O83 2.039 . S
Co72 N86 2.140 . S
C73 O74 1.227 . S
C73 O83 1.265 . S
O74 C73 1.227 . S
N75 Co72 2.121 . S
N75 C77 1.375 . S
N75 C78 1.313 . S
C76 C77 1.338 . S
C76 N79 1.377 . S
C76 H96 0.930 . S
C77 N75 1.375 . S
C77 C76 1.338 . S
C77 H81 0.931 . S
C78 N75 1.313 . S
C78 N79 1.344 . S
C78 H82 0.930 . S
N79 C76 1.377 . S
N79 C78 1.344 . S
O80 Co72 2.055 . S
O80 C84 1.253 . S
H81 C77 0.931 . S
H82 C78 0.930 . S
O83 Co72 2.039 . S
O83 C73 1.265 . S
C84 O80 1.253 . S
C84 O85 1.227 . S
O85 C84 1.227 . S
N86 Co72 2.140 . S
N86 C89 1.346 . S
N86 C90 1.345 . S
C87 C88 1.387 . S
C87 C91 1.391 . S
C88 C87 1.387 . S
C88 C89 1.369 . S
C88 H97 0.929 . S
C89 N86 1.346 . S
C89 C88 1.369 . S
C89 H92 0.928 . S
C90 N86 1.345 . S
C90 C91 1.371 . S
C90 H93 0.931 . S
C91 C87 1.391 . S
C91 C90 1.371 . S
C91 H98 0.930 . S
H92 C89 0.928 . S
H93 C90 0.931 . S
H94 C70 0.930 . S
H95 C67 0.930 . S
H96 C76 0.930 . S
H97 C88 0.929 . S
H98 C91 0.930 . S
C99 C100 1.351 . S
C99 N102 1.368 . S
C99 H104 0.931 . S
C100 C99 1.351 . S
C100 N101 1.373 . S
C100 H128 0.930 . S
N101 C100 1.373 . S
N101 C103 1.340 . S
N102 C99 1.368 . S
N102 C103 1.321 . S
N102 Co105 2.135 . S
C103 N101 1.340 . S
C103 N102 1.321 . S
C103 H127 0.930 . S
H104 C99 0.931 . S
Co105 N102 2.135 . S
Co105 N108 2.121 1_545 S
Co105 O113 2.055 . S
Co105 O116 2.039 . S
Co105 N119 2.140 1_545 S
C106 O107 1.227 1_545 S
C106 O116 1.265 . S
O107 C106 1.227 1_565 S
N108 Co105 2.121 1_565 S
N108 C110 1.375 . S
N108 C111 1.317 . S
C109 C110 1.338 . S
C109 N112 1.377 . S
C109 H129 0.930 . S
C110 N108 1.375 . S
C110 C109 1.338 . S
C110 H114 0.931 . S
C111 N108 1.317 . S
C111 N112 1.352 . S
C111 H115 0.921 1_565 S
N112 C109 1.377 . S
N112 C111 1.352 . S
O113 Co105 2.055 . S
O113 C117 1.253 . S
H114 C110 0.931 . S
H115 C111 0.921 1_545 S
O116 Co105 2.039 . S
O116 C106 1.265 . S
C117 O113 1.253 . S
C117 O118 1.227 . S
O118 C117 1.227 . S
N119 Co105 2.140 1_565 S
N119 C122 1.346 . S
N119 C123 1.345 . S
C120 C121 1.387 . S
C120 C124 1.391 . S
C121 C120 1.387 . S
C121 C122 1.369 . S
C121 H130 0.929 . S
C122 N119 1.346 . S
C122 C121 1.369 . S
C122 H125 0.928 . S
C123 N119 1.345 . S
C123 C124 1.371 . S
C123 H126 0.931 . S
C124 C120 1.391 . S
C124 C123 1.371 . S
C124 H131 0.930 . S
H125 C122 0.928 . S
H126 C123 0.931 . S
H127 C103 0.930 . S
H128 C100 0.930 . S
H129 C109 0.930 . S
H130 C121 0.929 . S
H131 C124 0.930 . S
C132 C133 1.351 . S
C132 N135 1.368 . S
C132 H137 0.931 . S
C133 C132 1.351 . S
C133 N134 1.373 . S
C133 H161 0.930 . S
N134 C133 1.373 . S
N134 C136 1.340 . S
N135 C132 1.368 . S
N135 C136 1.321 . S
N135 Co138 2.135 . S
C136 N134 1.340 . S
C136 N135 1.321 . S
C136 H160 0.930 . S
H137 C132 0.931 . S
Co138 N135 2.135 . S
Co138 N141 2.121 . S
Co138 O146 2.055 . S
Co138 O149 2.039 . S
Co138 N152 2.140 . S
C139 O140 1.227 . S
C139 O149 1.265 . S
O140 C139 1.227 . S
N141 Co138 2.121 . S
N141 C143 1.375 . S
N141 C144 1.313 . S
C142 C143 1.338 . S
C142 N145 1.377 . S
C142 H162 0.930 . S
C143 N141 1.375 . S
C143 C142 1.338 . S
C143 H147 0.931 . S
C144 N141 1.313 . S
C144 N145 1.344 . S
C144 H148 0.930 . S
N145 C142 1.377 . S
N145 C144 1.344 . S
O146 Co138 2.055 . S
O146 C150 1.253 . S
H147 C143 0.931 . S
H148 C144 0.930 . S
O149 Co138 2.039 . S
O149 C139 1.265 . S
C150 O146 1.253 . S
C150 O151 1.227 . S
O151 C150 1.227 . S
N152 Co138 2.140 . S
N152 C155 1.346 . S
N152 C156 1.345 . S
C153 C154 1.387 . S
C153 C157 1.391 . S
C154 C153 1.387 . S
C154 C155 1.369 . S
C154 H163 0.929 . S
C155 N152 1.346 . S
C155 C154 1.369 . S
C155 H158 0.928 . S
C156 N152 1.345 . S
C156 C157 1.371 . S
C156 H159 0.931 . S
C157 C153 1.391 . S
C157 C156 1.371 . S
C157 H164 0.930 . S
H158 C155 0.928 . S
H159 C156 0.931 . S
H160 C136 0.930 . S
H161 C133 0.930 . S
H162 C142 0.930 . S
H163 C154 0.929 . S
H164 C157 0.930 . S
C165 C166 1.351 . S
C165 N168 1.368 . S
C165 H170 0.931 . S
C166 C165 1.351 . S
C166 N167 1.373 . S
C166 H194 0.930 . S
N167 C166 1.373 . S
N167 C169 1.340 . S
N168 C165 1.368 . S
N168 C169 1.321 . S
N168 Co171 2.135 . S
C169 N167 1.340 . S
C169 N168 1.321 . S
C169 H193 0.930 . S
H170 C165 0.931 . S
Co171 N168 2.135 . S
Co171 N174 2.121 1_565 S
Co171 O179 2.055 . S
Co171 O182 2.039 . S
Co171 N185 2.140 1_565 S
C172 O173 1.227 1_565 S
C172 O182 1.265 . S
O173 C172 1.227 1_545 S
N174 Co171 2.121 1_545 S
N174 C176 1.375 . S
N174 C177 1.317 . S
C175 C176 1.338 . S
C175 N178 1.377 . S
C175 H195 0.930 . S
C176 N174 1.375 . S
C176 C175 1.338 . S
C176 H180 0.931 . S
C177 N174 1.317 . S
C177 N178 1.352 . S
C177 H181 0.921 1_545 S
N178 C175 1.377 . S
N178 C177 1.352 . S
O179 Co171 2.055 . S
O179 C183 1.253 . S
H180 C176 0.931 . S
H181 C177 0.921 1_565 S
O182 Co171 2.039 . S
O182 C172 1.265 . S
C183 O179 1.253 . S
C183 O184 1.227 . S
O184 C183 1.227 . S
N185 Co171 2.140 1_545 S
N185 C188 1.346 . S
N185 C189 1.345 . S
C186 C187 1.387 . S
C186 C190 1.391 . S
C187 C186 1.387 . S
C187 C188 1.369 . S
C187 H196 0.929 . S
C188 N185 1.346 . S
C188 C187 1.369 . S
C188 H191 0.928 . S
C189 N185 1.345 . S
C189 C190 1.371 . S
C189 H192 0.931 . S
C190 C186 1.391 . S
C190 C189 1.371 . S
C190 H197 0.930 . S
H191 C188 0.928 . S
H192 C189 0.931 . S
H193 C169 0.930 . S
H194 C166 0.930 . S
H195 C175 0.930 . S
H196 C187 0.929 . S
H197 C190 0.930 . S
C198 C199 1.351 . S
C198 N201 1.368 . S
C198 H203 0.931 . S
C199 C198 1.351 . S
C199 N200 1.373 . S
C199 H227 0.930 . S
N200 C199 1.373 . S
N200 C202 1.340 . S
N201 C198 1.368 . S
N201 C202 1.321 . S
N201 Co204 2.135 . S
C202 N200 1.340 . S
C202 N201 1.321 . S
C202 H226 0.930 . S
H203 C198 0.931 . S
Co204 N201 2.135 . S
Co204 N207 2.121 . S
Co204 O212 2.055 . S
Co204 O215 2.039 . S
Co204 N218 2.140 . S
C205 O206 1.227 . S
C205 O215 1.265 . S
O206 C205 1.227 . S
N207 Co204 2.121 . S
N207 C209 1.375 . S
N207 C210 1.313 . S
C208 C209 1.338 . S
C208 N211 1.377 . S
C208 H228 0.930 . S
C209 N207 1.375 . S
C209 C208 1.338 . S
C209 H213 0.931 . S
C210 N207 1.313 . S
C210 N211 1.344 . S
C210 H214 0.930 . S
N211 C208 1.377 . S
N211 C210 1.344 . S
O212 Co204 2.055 . S
O212 C216 1.253 . S
H213 C209 0.931 . S
H214 C210 0.930 . S
O215 Co204 2.039 . S
O215 C205 1.265 . S
C216 O212 1.253 . S
C216 O217 1.227 . S
O217 C216 1.227 . S
N218 Co204 2.140 . S
N218 C221 1.346 . S
N218 C222 1.345 . S
C219 C220 1.387 . S
C219 C223 1.391 . S
C220 C219 1.387 . S
C220 C221 1.369 . S
C220 H229 0.929 . S
C221 N218 1.346 . S
C221 C220 1.369 . S
C221 H224 0.928 . S
C222 N218 1.345 . S
C222 C223 1.371 . S
C222 H225 0.931 . S
C223 C219 1.391 . S
C223 C222 1.371 . S
C223 H230 0.930 . S
H224 C221 0.928 . S
H225 C222 0.931 . S
H226 C202 0.930 . S
H227 C199 0.930 . S
H228 C208 0.930 . S
H229 C220 0.929 . S
H230 C223 0.930 . S
C231 C232 1.351 . S
C231 N234 1.368 . S
C231 H236 0.931 . S
C232 C231 1.351 . S
C232 N233 1.373 . S
C232 H260 0.930 . S
N233 C232 1.373 . S
N233 C235 1.340 . S
N234 C231 1.368 . S
N234 C235 1.321 . S
N234 Co237 2.135 1_655 S
C235 N233 1.340 . S
C235 N234 1.321 . S
C235 H259 0.930 . S
H236 C231 0.931 . S
Co237 N234 2.135 1_455 S
Co237 N240 2.121 1_545 S
Co237 O245 2.055 . S
Co237 O248 2.039 . S
Co237 N251 2.140 1_545 S
C238 O239 1.227 1_545 S
C238 O248 1.265 . S
O239 C238 1.227 1_565 S
N240 Co237 2.121 1_565 S
N240 C242 1.375 . S
N240 C243 1.317 . S
C241 C242 1.338 . S
C241 N244 1.377 . S
C241 H261 0.930 . S
C242 N240 1.375 . S
C242 C241 1.338 . S
C242 H246 0.931 . S
C243 N240 1.317 . S
C243 N244 1.351 . S
C243 H247 0.921 1_565 S
N244 C241 1.377 . S
N244 C243 1.351 . S
O245 Co237 2.055 . S
O245 C249 1.253 . S
H246 C242 0.931 . S
H247 C243 0.921 1_545 S
O248 Co237 2.039 . S
O248 C238 1.265 . S
C249 O245 1.253 . S
C249 O250 1.227 . S
O250 C249 1.227 . S
N251 Co237 2.140 1_565 S
N251 C254 1.346 . S
N251 C255 1.345 . S
C252 C253 1.387 . S
C252 C256 1.391 . S
C253 C252 1.387 . S
C253 C254 1.369 . S
C253 H262 0.929 1_455 S
C254 N251 1.346 . S
C254 C253 1.369 . S
C254 H257 0.928 1_455 S
C255 N251 1.345 . S
C255 C256 1.371 . S
C255 H258 0.931 . S
C256 C252 1.391 . S
C256 C255 1.371 . S
C256 H263 0.930 . S
H257 C254 0.928 1_655 S
H258 C255 0.931 . S
H259 C235 0.930 . S
H260 C232 0.930 . S
H261 C241 0.930 . S
H262 C253 0.929 1_655 S
H263 C256 0.930 . S
C264 C265 1.351 . S
C264 N267 1.368 . S
C264 H269 0.931 . S
C265 C264 1.351 . S
C265 N266 1.373 . S
C265 H293 0.930 . S
N266 C265 1.373 . S
N266 C268 1.340 . S
N267 C264 1.368 . S
N267 C268 1.321 . S
N267 Co270 2.135 . S
C268 N266 1.340 . S
C268 N267 1.321 . S
C268 H292 0.930 . S
H269 C264 0.931 . S
Co270 N267 2.135 . S
Co270 N273 2.121 . S
Co270 O278 2.055 . S
Co270 O281 2.039 . S
Co270 N284 2.140 . S
C271 O272 1.227 . S
C271 O281 1.265 . S
O272 C271 1.227 . S
N273 Co270 2.121 . S
N273 C275 1.375 . S
N273 C276 1.313 . S
C274 C275 1.338 . S
C274 N277 1.377 . S
C274 H294 0.930 . S
C275 N273 1.375 . S
C275 C274 1.338 . S
C275 H279 0.931 . S
C276 N273 1.313 . S
C276 N277 1.344 . S
C276 H280 0.930 . S
N277 C274 1.377 . S
N277 C276 1.344 . S
O278 Co270 2.055 . S
O278 C282 1.253 . S
H279 C275 0.931 . S
H280 C276 0.930 . S
O281 Co270 2.039 . S
O281 C271 1.265 . S
C282 O278 1.253 . S
C282 O283 1.227 . S
O283 C282 1.227 . S
N284 Co270 2.140 . S
N284 C287 1.346 . S
N284 C288 1.345 . S
C285 C286 1.387 . S
C285 C289 1.391 . S
C286 C285 1.387 . S
C286 C287 1.369 . S
C286 H295 0.929 . S
C287 N284 1.346 . S
C287 C286 1.369 . S
C287 H290 0.928 . S
C288 N284 1.345 . S
C288 C289 1.371 . S
C288 H291 0.931 . S
C289 C285 1.391 . S
C289 C288 1.371 . S
C289 H296 0.930 . S
H290 C287 0.928 . S
H291 C288 0.931 . S
H292 C268 0.930 . S
H293 C265 0.930 . S
H294 C274 0.930 . S
H295 C286 0.929 . S
H296 C289 0.930 . S
C297 C298 1.351 . S
C297 N300 1.368 . S
C297 H302 0.931 . S
C298 C297 1.351 . S
C298 N299 1.373 . S
C298 H326 0.930 . S
N299 C298 1.373 . S
N299 C301 1.340 . S
N300 C297 1.368 . S
N300 C301 1.321 . S
N300 Co303 2.135 1_455 S
C301 N299 1.340 . S
C301 N300 1.321 . S
C301 H325 0.930 . S
H302 C297 0.931 . S
Co303 N300 2.135 1_655 S
Co303 N306 2.121 1_545 S
Co303 O311 2.055 . S
Co303 O314 2.039 . S
Co303 N317 2.140 1_545 S
C304 O305 1.227 1_545 S
C304 O314 1.265 . S
O305 C304 1.227 1_565 S
N306 Co303 2.121 1_565 S
N306 C308 1.375 . S
N306 C309 1.317 . S
C307 C308 1.338 . S
C307 N310 1.377 . S
C307 H327 0.930 . S
C308 N306 1.375 . S
C308 C307 1.338 . S
C308 H312 0.931 . S
C309 N306 1.317 . S
C309 N310 1.351 . S
C309 H313 0.921 1_565 S
N310 C307 1.377 . S
N310 C309 1.351 . S
O311 Co303 2.055 . S
O311 C315 1.253 . S
H312 C308 0.931 . S
H313 C309 0.921 1_545 S
O314 Co303 2.039 . S
O314 C304 1.265 . S
C315 O311 1.253 . S
C315 O316 1.227 . S
O316 C315 1.227 . S
N317 Co303 2.140 1_565 S
N317 C320 1.346 . S
N317 C321 1.345 . S
C318 C319 1.387 . S
C318 C322 1.391 . S
C319 C318 1.387 . S
C319 C320 1.369 . S
C319 H328 0.929 1_655 S
C320 N317 1.346 . S
C320 C319 1.369 . S
C320 H323 0.928 1_655 S
C321 N317 1.345 . S
C321 C322 1.371 . S
C321 H324 0.931 . S
C322 C318 1.391 . S
C322 C321 1.371 . S
C322 H329 0.930 . S
H323 C320 0.928 1_455 S
H324 C321 0.931 . S
H325 C301 0.930 . S
H326 C298 0.930 . S
H327 C307 0.930 . S
H328 C319 0.929 1_455 S
H329 C322 0.930 . S
C330 C331 1.351 . S
C330 N333 1.368 . S
C330 H335 0.931 . S
C331 C330 1.351 . S
C331 N332 1.373 . S
C331 H359 0.930 . S
N332 C331 1.373 . S
N332 C334 1.340 . S
N333 C330 1.368 . S
N333 C334 1.321 . S
N333 Co336 2.135 . S
C334 N332 1.340 . S
C334 N333 1.321 . S
C334 H358 0.930 . S
H335 C330 0.931 . S
Co336 N333 2.135 . S
Co336 N339 2.121 . S
Co336 O344 2.055 . S
Co336 O347 2.039 . S
Co336 N350 2.140 . S
C337 O338 1.227 . S
C337 O347 1.265 . S
O338 C337 1.227 . S
N339 Co336 2.121 . S
N339 C341 1.375 . S
N339 C342 1.313 . S
C340 C341 1.338 . S
C340 N343 1.377 . S
C340 H360 0.930 . S
C341 N339 1.375 . S
C341 C340 1.338 . S
C341 H345 0.931 . S
C342 N339 1.313 . S
C342 N343 1.344 . S
C342 H346 0.930 . S
N343 C340 1.377 . S
N343 C342 1.344 . S
O344 Co336 2.055 . S
O344 C348 1.253 . S
H345 C341 0.931 . S
H346 C342 0.930 . S
O347 Co336 2.039 . S
O347 C337 1.265 . S
C348 O344 1.253 . S
C348 O349 1.227 . S
O349 C348 1.227 . S
N350 Co336 2.140 . S
N350 C353 1.346 . S
N350 C354 1.345 . S
C351 C352 1.387 . S
C351 C355 1.391 . S
C352 C351 1.387 . S
C352 C353 1.369 . S
C352 H361 0.929 . S
C353 N350 1.346 . S
C353 C352 1.369 . S
C353 H356 0.928 . S
C354 N350 1.345 . S
C354 C355 1.371 . S
C354 H357 0.931 . S
C355 C351 1.391 . S
C355 C354 1.371 . S
C355 H362 0.930 . S
H356 C353 0.928 . S
H357 C354 0.931 . S
H358 C334 0.930 . S
H359 C331 0.930 . S
H360 C340 0.930 . S
H361 C352 0.929 . S
H362 C355 0.930 . S
C363 C364 1.351 . S
C363 N366 1.368 . S
C363 H368 0.931 . S
C364 C363 1.351 . S
C364 N365 1.373 . S
C364 H392 0.930 . S
N365 C364 1.373 . S
N365 C367 1.340 . S
N366 C363 1.368 . S
N366 C367 1.321 . S
N366 Co369 2.135 . S
C367 N365 1.340 . S
C367 N366 1.321 . S
C367 H391 0.930 . S
H368 C363 0.931 . S
Co369 N366 2.135 . S
Co369 N372 2.121 1_565 S
Co369 O377 2.055 . S
Co369 O380 2.039 . S
Co369 N383 2.140 1_565 S
C370 O371 1.227 1_565 S
C370 O380 1.265 . S
O371 C370 1.227 1_545 S
N372 Co369 2.121 1_545 S
N372 C374 1.375 . S
N372 C375 1.317 . S
C373 C374 1.338 . S
C373 N376 1.377 . S
C373 H393 0.930 . S
C374 N372 1.375 . S
C374 C373 1.338 . S
C374 H378 0.931 . S
C375 N372 1.317 . S
C375 N376 1.352 . S
C375 H379 0.921 1_545 S
N376 C373 1.377 . S
N376 C375 1.352 . S
O377 Co369 2.055 . S
O377 C381 1.253 . S
H378 C374 0.931 . S
H379 C375 0.921 1_565 S
O380 Co369 2.039 . S
O380 C370 1.265 . S
C381 O377 1.253 . S
C381 O382 1.227 . S
O382 C381 1.227 . S
N383 Co369 2.140 1_545 S
N383 C386 1.346 . S
N383 C387 1.345 . S
C384 C385 1.387 . S
C384 C388 1.391 . S
C385 C384 1.387 . S
C385 C386 1.369 . S
C385 H394 0.929 . S
C386 N383 1.346 . S
C386 C385 1.369 . S
C386 H389 0.928 . S
C387 N383 1.345 . S
C387 C388 1.371 . S
C387 H390 0.931 . S
C388 C384 1.391 . S
C388 C387 1.371 . S
C388 H395 0.930 . S
H389 C386 0.928 . S
H390 C387 0.931 . S
H391 C367 0.930 . S
H392 C364 0.930 . S
H393 C373 0.930 . S
H394 C385 0.929 . S
H395 C388 0.930 . S
C396 C397 1.351 . S
C396 N399 1.368 . S
C396 H401 0.931 . S
C397 C396 1.351 . S
C397 N398 1.373 . S
C397 H425 0.930 . S
N398 C397 1.373 . S
N398 C400 1.340 . S
N399 C396 1.368 . S
N399 C400 1.321 . S
N399 Co402 2.135 . S
C400 N398 1.340 . S
C400 N399 1.321 . S
C400 H424 0.930 . S
H401 C396 0.931 . S
Co402 N399 2.135 . S
Co402 N405 2.121 . S
Co402 O410 2.055 . S
Co402 O413 2.039 . S
Co402 N416 2.140 . S
C403 O404 1.227 . S
C403 O413 1.265 . S
O404 C403 1.227 . S
N405 Co402 2.121 . S
N405 C407 1.375 . S
N405 C408 1.313 . S
C406 C407 1.338 . S
C406 N409 1.377 . S
C406 H426 0.930 . S
C407 N405 1.375 . S
C407 C406 1.338 . S
C407 H411 0.931 . S
C408 N405 1.313 . S
C408 N409 1.344 . S
C408 H412 0.930 . S
N409 C406 1.377 . S
N409 C408 1.344 . S
O410 Co402 2.055 . S
O410 C414 1.253 . S
H411 C407 0.931 . S
H412 C408 0.930 . S
O413 Co402 2.039 . S
O413 C403 1.265 . S
C414 O410 1.253 . S
C414 O415 1.227 . S
O415 C414 1.227 . S
N416 Co402 2.140 . S
N416 C419 1.346 . S
N416 C420 1.345 . S
C417 C418 1.387 . S
C417 C421 1.391 . S
C418 C417 1.387 . S
C418 C419 1.369 . S
C418 H427 0.929 . S
C419 N416 1.346 . S
C419 C418 1.369 . S
C419 H422 0.928 . S
C420 N416 1.345 . S
C420 C421 1.371 . S
C420 H423 0.931 . S
C421 C417 1.391 . S
C421 C420 1.371 . S
C421 H428 0.930 . S
H422 C419 0.928 . S
H423 C420 0.931 . S
H424 C400 0.930 . S
H425 C397 0.930 . S
H426 C406 0.930 . S
H427 C418 0.929 . S
H428 C421 0.930 . S
C429 C430 1.351 . S
C429 N432 1.368 . S
C429 H434 0.931 . S
C430 C429 1.351 . S
C430 N431 1.373 . S
C430 H458 0.930 . S
N431 C430 1.373 . S
N431 C433 1.340 . S
N432 C429 1.368 . S
N432 C433 1.321 . S
N432 Co435 2.135 . S
C433 N431 1.340 . S
C433 N432 1.321 . S
C433 H457 0.930 . S
H434 C429 0.931 . S
Co435 N432 2.135 . S
Co435 N438 2.121 1_545 S
Co435 O443 2.055 . S
Co435 O446 2.039 . S
Co435 N449 2.140 1_545 S
C436 O437 1.227 1_545 S
C436 O446 1.265 . S
O437 C436 1.227 1_565 S
N438 Co435 2.121 1_565 S
N438 C440 1.375 . S
N438 C441 1.317 . S
C439 C440 1.338 . S
C439 N442 1.377 . S
C439 H459 0.930 . S
C440 N438 1.375 . S
C440 C439 1.338 . S
C440 H444 0.931 . S
C441 N438 1.317 . S
C441 N442 1.352 . S
C441 H445 0.921 1_565 S
N442 C439 1.377 . S
N442 C441 1.352 . S
O443 Co435 2.055 . S
O443 C447 1.253 . S
H444 C440 0.931 . S
H445 C441 0.921 1_545 S
O446 Co435 2.039 . S
O446 C436 1.265 . S
C447 O443 1.253 . S
C447 O448 1.227 . S
O448 C447 1.227 . S
N449 Co435 2.140 1_565 S
N449 C452 1.346 . S
N449 C453 1.345 . S
C450 C451 1.387 . S
C450 C454 1.391 . S
C451 C450 1.387 . S
C451 C452 1.369 . S
C451 H460 0.929 . S
C452 N449 1.346 . S
C452 C451 1.369 . S
C452 H455 0.928 . S
C453 N449 1.345 . S
C453 C454 1.371 . S
C453 H456 0.931 . S
C454 C450 1.391 . S
C454 C453 1.371 . S
C454 H461 0.930 . S
H455 C452 0.928 . S
H456 C453 0.931 . S
H457 C433 0.930 . S
H458 C430 0.930 . S
H459 C439 0.930 . S
H460 C451 0.929 . S
H461 C454 0.930 . S
C462 C463 1.351 . S
C462 N465 1.368 . S
C462 H467 0.931 . S
C463 C462 1.351 . S
C463 N464 1.373 . S
C463 H491 0.930 . S
N464 C463 1.373 . S
N464 C466 1.340 . S
N465 C462 1.368 . S
N465 C466 1.321 . S
N465 Co468 2.135 . S
C466 N464 1.340 . S
C466 N465 1.321 . S
C466 H490 0.930 . S
H467 C462 0.931 . S
Co468 N465 2.135 . S
Co468 N471 2.121 . S
Co468 O476 2.055 . S
Co468 O479 2.039 . S
Co468 N482 2.140 . S
C469 O470 1.227 . S
C469 O479 1.265 . S
O470 C469 1.227 . S
N471 Co468 2.121 . S
N471 C473 1.375 . S
N471 C474 1.313 . S
C472 C473 1.338 . S
C472 N475 1.377 . S
C472 H492 0.930 . S
C473 N471 1.375 . S
C473 C472 1.338 . S
C473 H477 0.931 . S
C474 N471 1.313 . S
C474 N475 1.344 . S
C474 H478 0.930 . S
N475 C472 1.377 . S
N475 C474 1.344 . S
O476 Co468 2.055 . S
O476 C480 1.253 . S
H477 C473 0.931 . S
H478 C474 0.930 . S
O479 Co468 2.039 . S
O479 C469 1.265 . S
C480 O476 1.253 . S
C480 O481 1.227 . S
O481 C480 1.227 . S
N482 Co468 2.140 . S
N482 C485 1.346 . S
N482 C486 1.345 . S
C483 C484 1.387 . S
C483 C487 1.391 . S
C484 C483 1.387 . S
C484 C485 1.369 . S
C484 H493 0.929 . S
C485 N482 1.346 . S
C485 C484 1.369 . S
C485 H488 0.928 . S
C486 N482 1.345 . S
C486 C487 1.371 . S
C486 H489 0.931 . S
C487 C483 1.391 . S
C487 C486 1.371 . S
C487 H494 0.930 . S
H488 C485 0.928 . S
H489 C486 0.931 . S
H490 C466 0.930 . S
H491 C463 0.930 . S
H492 C472 0.930 . S
H493 C484 0.929 . S
H494 C487 0.930 . S
C495 C496 1.351 . S
C495 N498 1.368 . S
C495 H500 0.931 . S
C496 C495 1.351 . S
C496 N497 1.373 . S
C496 H524 0.930 . S
N497 C496 1.373 . S
N497 C499 1.340 . S
N498 C495 1.368 . S
N498 C499 1.321 . S
N498 Co501 2.135 1_455 S
C499 N497 1.340 . S
C499 N498 1.321 . S
C499 H523 0.930 . S
H500 C495 0.931 . S
Co501 N498 2.135 1_655 S
Co501 N504 2.121 1_565 S
Co501 O509 2.055 . S
Co501 O512 2.039 . S
Co501 N515 2.140 1_565 S
C502 O503 1.227 1_565 S
C502 O512 1.265 . S
O503 C502 1.227 1_545 S
N504 Co501 2.121 1_545 S
N504 C506 1.375 . S
N504 C507 1.317 . S
C505 C506 1.338 . S
C505 N508 1.377 . S
C505 H525 0.930 . S
C506 N504 1.375 . S
C506 C505 1.338 . S
C506 H510 0.931 . S
C507 N504 1.317 . S
C507 N508 1.351 . S
C507 H511 0.921 1_545 S
N508 C505 1.377 . S
N508 C507 1.351 . S
O509 Co501 2.055 . S
O509 C513 1.253 . S
H510 C506 0.931 . S
H511 C507 0.921 1_565 S
O512 Co501 2.039 . S
O512 C502 1.265 . S
C513 O509 1.253 . S
C513 O514 1.227 . S
O514 C513 1.227 . S
N515 Co501 2.140 1_545 S
N515 C518 1.346 . S
N515 C519 1.345 . S
C516 C517 1.387 . S
C516 C520 1.391 . S
C517 C516 1.387 . S
C517 C518 1.369 . S
C517 H526 0.929 1_655 S
C518 N515 1.346 . S
C518 C517 1.369 . S
C518 H521 0.928 1_655 S
C519 N515 1.345 . S
C519 C520 1.371 . S
C519 H522 0.931 . S
C520 C516 1.391 . S
C520 C519 1.371 . S
C520 H527 0.930 . S
H521 C518 0.928 1_455 S
H522 C519 0.931 . S
H523 C499 0.930 . S
H524 C496 0.930 . S
H525 C505 0.930 . S
H526 C517 0.929 1_455 S
H527 C520 0.930 . S
C528 C529 1.351 . S
C528 N531 1.368 . S
C528 H533 0.931 . S
C529 C528 1.351 . S
C529 N530 1.373 . S
C529 H557 0.930 . S
N530 C529 1.373 . S
N530 C532 1.340 . S
N531 C528 1.368 . S
N531 C532 1.321 . S
N531 Co534 2.135 . S
C532 N530 1.340 . S
C532 N531 1.321 . S
C532 H556 0.930 . S
H533 C528 0.931 . S
Co534 N531 2.135 . S
Co534 N537 2.121 . S
Co534 O542 2.055 . S
Co534 O545 2.039 . S
Co534 N548 2.140 . S
C535 O536 1.227 . S
C535 O545 1.265 . S
O536 C535 1.227 . S
N537 Co534 2.121 . S
N537 C539 1.375 . S
N537 C540 1.313 . S
C538 C539 1.338 . S
C538 N541 1.377 . S
C538 H558 0.930 . S
C539 N537 1.375 . S
C539 C538 1.338 . S
C539 H543 0.931 . S
C540 N537 1.313 . S
C540 N541 1.344 . S
C540 H544 0.930 . S
N541 C538 1.377 . S
N541 C540 1.344 . S
O542 Co534 2.055 . S
O542 C546 1.253 . S
H543 C539 0.931 . S
H544 C540 0.930 . S
O545 Co534 2.039 . S
O545 C535 1.265 . S
C546 O542 1.253 . S
C546 O547 1.227 . S
O547 C546 1.227 . S
N548 Co534 2.140 . S
N548 C551 1.346 . S
N548 C552 1.345 . S
C549 C550 1.387 . S
C549 C553 1.391 . S
C550 C549 1.387 . S
C550 C551 1.369 . S
C550 H559 0.929 . S
C551 N548 1.346 . S
C551 C550 1.369 . S
C551 H554 0.928 . S
C552 N548 1.345 . S
C552 C553 1.371 . S
C552 H555 0.931 . S
C553 C549 1.391 . S
C553 C552 1.371 . S
C553 H560 0.930 . S
H554 C551 0.928 . S
H555 C552 0.931 . S
H556 C532 0.930 . S
H557 C529 0.930 . S
H558 C538 0.930 . S
H559 C550 0.929 . S
H560 C553 0.930 . S
C561 C562 1.351 . S
C561 N564 1.368 . S
C561 H566 0.931 . S
C562 C561 1.351 . S
C562 N563 1.373 . S
C562 H590 0.930 . S
N563 C562 1.373 . S
N563 C565 1.340 . S
N564 C561 1.368 . S
N564 C565 1.321 . S
N564 Co567 2.135 . S
C565 N563 1.340 . S
C565 N564 1.321 . S
C565 H589 0.930 . S
H566 C561 0.931 . S
Co567 N564 2.135 . S
Co567 N570 2.121 . S
Co567 O575 2.055 . S
Co567 O578 2.039 . S
Co567 N581 2.140 . S
C568 O569 1.227 . S
C568 O578 1.265 . S
O569 C568 1.227 . S
N570 Co567 2.121 . S
N570 C572 1.375 . S
N570 C573 1.313 . S
C571 C572 1.338 . S
C571 N574 1.377 . S
C571 H591 0.930 . S
C572 N570 1.375 . S
C572 C571 1.338 . S
C572 H576 0.931 . S
C573 N570 1.313 . S
C573 N574 1.344 . S
C573 H577 0.930 . S
N574 C571 1.377 . S
N574 C573 1.344 . S
O575 Co567 2.055 . S
O575 C579 1.253 . S
H576 C572 0.931 . S
H577 C573 0.930 . S
O578 Co567 2.039 . S
O578 C568 1.265 . S
C579 O575 1.253 . S
C579 O580 1.227 . S
O580 C579 1.227 . S
N581 Co567 2.140 . S
N581 C584 1.346 . S
N581 C585 1.345 . S
C582 C583 1.387 . S
C582 C586 1.391 . S
C583 C582 1.387 . S
C583 C584 1.369 . S
C583 H592 0.929 . S
C584 N581 1.346 . S
C584 C583 1.369 . S
C584 H587 0.928 . S
C585 N581 1.345 . S
C585 C586 1.371 . S
C585 H588 0.931 . S
C586 C582 1.391 . S
C586 C585 1.371 . S
C586 H593 0.930 . S
H587 C584 0.928 . S
H588 C585 0.931 . S
H589 C565 0.930 . S
H590 C562 0.930 . S
H591 C571 0.930 . S
H592 C583 0.929 . S
H593 C586 0.930 . S
C594 C595 1.351 . S
C594 N597 1.368 . S
C594 H599 0.931 . S
C595 C594 1.351 . S
C595 N596 1.373 . S
C595 H623 0.930 . S
N596 C595 1.373 . S
N596 C598 1.340 . S
N597 C594 1.368 . S
N597 C598 1.321 . S
N597 Co600 2.135 . S
C598 N596 1.340 . S
C598 N597 1.321 . S
C598 H622 0.930 . S
H599 C594 0.931 . S
Co600 N597 2.135 . S
Co600 N603 2.121 . S
Co600 O608 2.055 . S
Co600 O611 2.039 . S
Co600 N614 2.140 . S
C601 O602 1.227 . S
C601 O611 1.265 . S
O602 C601 1.227 . S
N603 Co600 2.121 . S
N603 C605 1.375 . S
N603 C606 1.313 . S
C604 C605 1.338 . S
C604 N607 1.377 . S
C604 H624 0.930 . S
C605 N603 1.375 . S
C605 C604 1.338 . S
C605 H609 0.931 . S
C606 N603 1.313 . S
C606 N607 1.344 . S
C606 H610 0.930 . S
N607 C604 1.377 . S
N607 C606 1.344 . S
O608 Co600 2.055 . S
O608 C612 1.253 . S
H609 C605 0.931 . S
H610 C606 0.930 . S
O611 Co600 2.039 . S
O611 C601 1.265 . S
C612 O608 1.253 . S
C612 O613 1.227 . S
O613 C612 1.227 . S
N614 Co600 2.140 . S
N614 C617 1.346 . S
N614 C618 1.345 . S
C615 C616 1.387 . S
C615 C619 1.391 . S
C616 C615 1.387 . S
C616 C617 1.369 . S
C616 H625 0.929 . S
C617 N614 1.346 . S
C617 C616 1.369 . S
C617 H620 0.928 . S
C618 N614 1.345 . S
C618 C619 1.371 . S
C618 H621 0.931 . S
C619 C615 1.391 . S
C619 C618 1.371 . S
C619 H626 0.930 . S
H620 C617 0.928 . S
H621 C618 0.931 . S
H622 C598 0.930 . S
H623 C595 0.930 . S
H624 C604 0.930 . S
H625 C616 0.929 . S
H626 C619 0.930 . S
C627 C628 1.351 . S
C627 N630 1.368 . S
C627 H632 0.931 . S
C628 C627 1.351 . S
C628 N629 1.373 . S
C628 H656 0.930 . S
N629 C628 1.373 . S
N629 C631 1.340 . S
N630 C627 1.368 . S
N630 C631 1.321 . S
N630 Co633 2.135 1_455 S
C631 N629 1.340 . S
C631 N630 1.321 . S
C631 H655 0.930 . S
H632 C627 0.931 . S
Co633 N630 2.135 1_655 S
Co633 N636 2.121 . S
Co633 O641 2.055 . S
Co633 O644 2.039 . S
Co633 N647 2.140 . S
C634 O635 1.227 . S
C634 O644 1.265 . S
O635 C634 1.227 . S
N636 Co633 2.121 . S
N636 C638 1.375 . S
N636 C639 1.313 . S
C637 C638 1.338 . S
C637 N640 1.377 . S
C637 H657 0.930 . S
C638 N636 1.375 . S
C638 C637 1.338 . S
C638 H642 0.931 . S
C639 N636 1.313 . S
C639 N640 1.344 . S
C639 H643 0.930 . S
N640 C637 1.377 . S
N640 C639 1.344 . S
O641 Co633 2.055 . S
O641 C645 1.253 . S
H642 C638 0.931 . S
H643 C639 0.930 . S
O644 Co633 2.039 . S
O644 C634 1.265 . S
C645 O641 1.253 . S
C645 O646 1.227 . S
O646 C645 1.227 . S
N647 Co633 2.140 . S
N647 C650 1.346 . S
N647 C651 1.345 . S
C648 C649 1.387 . S
C648 C652 1.391 . S
C649 C648 1.387 . S
C649 C650 1.369 . S
C649 H658 0.929 1_655 S
C650 N647 1.346 . S
C650 C649 1.369 . S
C650 H653 0.928 1_655 S
C651 N647 1.345 . S
C651 C652 1.371 . S
C651 H654 0.931 . S
C652 C648 1.391 . S
C652 C651 1.371 . S
C652 H659 0.930 . S
H653 C650 0.928 1_455 S
H654 C651 0.931 . S
H655 C631 0.930 . S
H656 C628 0.930 . S
H657 C637 0.930 . S
H658 C649 0.929 1_455 S
H659 C652 0.930 . S
C660 C661 1.351 . S
C660 N663 1.368 . S
C660 H665 0.931 . S
C661 C660 1.351 . S
C661 N662 1.373 . S
C661 H689 0.930 . S
N662 C661 1.373 . S
N662 C664 1.340 . S
N663 C660 1.368 . S
N663 C664 1.321 . S
N663 Co666 2.135 . S
C664 N662 1.340 . S
C664 N663 1.321 . S
C664 H688 0.930 . S
H665 C660 0.931 . S
Co666 N663 2.135 . S
Co666 N669 2.121 . S
Co666 O674 2.055 . S
Co666 O677 2.039 . S
Co666 N680 2.140 . S
C667 O668 1.227 . S
C667 O677 1.265 . S
O668 C667 1.227 . S
N669 Co666 2.121 . S
N669 C671 1.375 . S
N669 C672 1.313 . S
C670 C671 1.338 . S
C670 N673 1.377 . S
C670 H690 0.930 . S
C671 N669 1.375 . S
C671 C670 1.338 . S
C671 H675 0.931 . S
C672 N669 1.313 . S
C672 N673 1.344 . S
C672 H676 0.930 . S
N673 C670 1.377 . S
N673 C672 1.344 . S
O674 Co666 2.055 . S
O674 C678 1.253 . S
H675 C671 0.931 . S
H676 C672 0.930 . S
O677 Co666 2.039 . S
O677 C667 1.265 . S
C678 O674 1.253 . S
C678 O679 1.227 . S
O679 C678 1.227 . S
N680 Co666 2.140 . S
N680 C683 1.346 . S
N680 C684 1.345 . S
C681 C682 1.387 . S
C681 C685 1.391 . S
C682 C681 1.387 . S
C682 C683 1.369 . S
C682 H691 0.929 . S
C683 N680 1.346 . S
C683 C682 1.369 . S
C683 H686 0.928 . S
C684 N680 1.345 . S
C684 C685 1.371 . S
C684 H687 0.931 . S
C685 C681 1.391 . S
C685 C684 1.371 . S
C685 H692 0.930 . S
H686 C683 0.928 . S
H687 C684 0.931 . S
H688 C664 0.930 . S
H689 C661 0.930 . S
H690 C670 0.930 . S
H691 C682 0.929 . S
H692 C685 0.930 . S
C693 C694 1.351 . S
C693 N696 1.368 . S
C693 H698 0.931 . S
C694 C693 1.351 . S
C694 N695 1.373 . S
C694 H722 0.930 . S
N695 C694 1.373 . S
N695 C697 1.340 . S
N696 C693 1.368 . S
N696 C697 1.321 . S
N696 Co699 2.135 1_455 S
C697 N695 1.340 . S
C697 N696 1.321 . S
C697 H721 0.930 . S
H698 C693 0.931 . S
Co699 N696 2.135 1_655 S
Co699 N702 2.121 . S
Co699 O707 2.055 . S
Co699 O710 2.039 . S
Co699 N713 2.140 . S
C700 O701 1.227 . S
C700 O710 1.265 . S
O701 C700 1.227 . S
N702 Co699 2.121 . S
N702 C704 1.375 . S
N702 C705 1.313 . S
C703 C704 1.338 . S
C703 N706 1.377 . S
C703 H723 0.930 . S
C704 N702 1.375 . S
C704 C703 1.338 . S
C704 H708 0.931 . S
C705 N702 1.313 . S
C705 N706 1.344 . S
C705 H709 0.930 . S
N706 C703 1.377 . S
N706 C705 1.344 . S
O707 Co699 2.055 . S
O707 C711 1.253 . S
H708 C704 0.931 . S
H709 C705 0.930 . S
O710 Co699 2.039 . S
O710 C700 1.265 . S
C711 O707 1.253 . S
C711 O712 1.227 . S
O712 C711 1.227 . S
N713 Co699 2.140 . S
N713 C716 1.346 . S
N713 C717 1.345 . S
C714 C715 1.387 . S
C714 C718 1.391 . S
C715 C714 1.387 . S
C715 C716 1.369 . S
C715 H724 0.929 1_655 S
C716 N713 1.346 . S
C716 C715 1.369 . S
C716 H719 0.928 1_655 S
C717 N713 1.345 . S
C717 C718 1.371 . S
C717 H720 0.931 . S
C718 C714 1.391 . S
C718 C717 1.371 . S
C718 H725 0.930 . S
H719 C716 0.928 1_455 S
H720 C717 0.931 . S
H721 C697 0.930 . S
H722 C694 0.930 . S
H723 C703 0.930 . S
H724 C715 0.929 1_455 S
H725 C718 0.930 . S
C726 C727 1.351 . S
C726 N729 1.368 . S
C726 H731 0.931 . S
C727 C726 1.351 . S
C727 N728 1.373 . S
C727 H755 0.930 . S
N728 C727 1.373 . S
N728 C730 1.340 . S
N729 C726 1.368 . S
N729 C730 1.321 . S
N729 Co732 2.135 . S
C730 N728 1.340 . S
C730 N729 1.321 . S
C730 H754 0.930 . S
H731 C726 0.931 . S
Co732 N729 2.135 . S
Co732 N735 2.121 . S
Co732 O740 2.055 . S
Co732 O743 2.039 . S
Co732 N746 2.140 . S
C733 O734 1.227 . S
C733 O743 1.265 . S
O734 C733 1.227 . S
N735 Co732 2.121 . S
N735 C737 1.375 . S
N735 C738 1.313 . S
C736 C737 1.338 . S
C736 N739 1.377 . S
C736 H756 0.930 . S
C737 N735 1.375 . S
C737 C736 1.338 . S
C737 H741 0.931 . S
C738 N735 1.313 . S
C738 N739 1.344 . S
C738 H742 0.930 . S
N739 C736 1.377 . S
N739 C738 1.344 . S
O740 Co732 2.055 . S
O740 C744 1.253 . S
H741 C737 0.931 . S
H742 C738 0.930 . S
O743 Co732 2.039 . S
O743 C733 1.265 . S
C744 O740 1.253 . S
C744 O745 1.227 . S
O745 C744 1.227 . S
N746 Co732 2.140 . S
N746 C749 1.346 . S
N746 C750 1.345 . S
C747 C748 1.387 . S
C747 C751 1.391 . S
C748 C747 1.387 . S
C748 C749 1.369 . S
C748 H757 0.929 . S
C749 N746 1.346 . S
C749 C748 1.369 . S
C749 H752 0.928 . S
C750 N746 1.345 . S
C750 C751 1.371 . S
C750 H753 0.931 . S
C751 C747 1.391 . S
C751 C750 1.371 . S
C751 H758 0.930 . S
H752 C749 0.928 . S
H753 C750 0.931 . S
H754 C730 0.930 . S
H755 C727 0.930 . S
H756 C736 0.930 . S
H757 C748 0.929 . S
H758 C751 0.930 . S
C759 C760 1.351 . S
C759 N762 1.368 . S
C759 H764 0.931 . S
C760 C759 1.351 . S
C760 N761 1.373 . S
C760 H788 0.930 . S
N761 C760 1.373 . S
N761 C763 1.340 . S
N762 C759 1.368 . S
N762 C763 1.321 . S
N762 Co765 2.135 . S
C763 N761 1.340 . S
C763 N762 1.321 . S
C763 H787 0.930 . S
H764 C759 0.931 . S
Co765 N762 2.135 . S
Co765 N768 2.121 . S
Co765 O773 2.055 . S
Co765 O776 2.039 . S
Co765 N779 2.140 . S
C766 O767 1.227 . S
C766 O776 1.265 . S
O767 C766 1.227 . S
N768 Co765 2.121 . S
N768 C770 1.375 . S
N768 C771 1.313 . S
C769 C770 1.338 . S
C769 N772 1.377 . S
C769 H789 0.930 . S
C770 N768 1.375 . S
C770 C769 1.338 . S
C770 H774 0.931 . S
C771 N768 1.313 . S
C771 N772 1.344 . S
C771 H775 0.930 . S
N772 C769 1.377 . S
N772 C771 1.344 . S
O773 Co765 2.055 . S
O773 C777 1.253 . S
H774 C770 0.931 . S
H775 C771 0.930 . S
O776 Co765 2.039 . S
O776 C766 1.265 . S
C777 O773 1.253 . S
C777 O778 1.227 . S
O778 C777 1.227 . S
N779 Co765 2.140 . S
N779 C782 1.346 . S
N779 C783 1.345 . S
C780 C781 1.387 . S
C780 C784 1.391 . S
C781 C780 1.387 . S
C781 C782 1.369 . S
C781 H790 0.929 . S
C782 N779 1.346 . S
C782 C781 1.369 . S
C782 H785 0.928 . S
C783 N779 1.345 . S
C783 C784 1.371 . S
C783 H786 0.931 . S
C784 C780 1.391 . S
C784 C783 1.371 . S
C784 H791 0.930 . S
H785 C782 0.928 . S
H786 C783 0.931 . S
H787 C763 0.930 . S
H788 C760 0.930 . S
H789 C769 0.930 . S
H790 C781 0.929 . S
H791 C784 0.930 . S
C792 C793 1.351 . S
C792 N795 1.368 . S
C792 H797 0.931 . S
C793 C792 1.351 . S
C793 N794 1.373 . S
C793 H821 0.930 . S
N794 C793 1.373 . S
N794 C796 1.340 . S
N795 C792 1.368 . S
N795 C796 1.321 . S
N795 Co798 2.135 . S
C796 N794 1.340 . S
C796 N795 1.321 . S
C796 H820 0.930 . S
H797 C792 0.931 . S
Co798 N795 2.135 . S
Co798 N801 2.121 . S
Co798 O806 2.055 . S
Co798 O809 2.039 . S
Co798 N812 2.140 . S
C799 O800 1.227 . S
C799 O809 1.265 . S
O800 C799 1.227 . S
N801 Co798 2.121 . S
N801 C803 1.375 . S
N801 C804 1.313 . S
C802 C803 1.338 . S
C802 N805 1.377 . S
C802 H822 0.930 . S
C803 N801 1.375 . S
C803 C802 1.338 . S
C803 H807 0.931 . S
C804 N801 1.313 . S
C804 N805 1.344 . S
C804 H808 0.930 . S
N805 C802 1.377 . S
N805 C804 1.344 . S
O806 Co798 2.055 . S
O806 C810 1.253 . S
H807 C803 0.931 . S
H808 C804 0.930 . S
O809 Co798 2.039 . S
O809 C799 1.265 . S
C810 O806 1.253 . S
C810 O811 1.227 . S
O811 C810 1.227 . S
N812 Co798 2.140 . S
N812 C815 1.346 . S
N812 C816 1.345 . S
C813 C814 1.387 . S
C813 C817 1.391 . S
C814 C813 1.387 . S
C814 C815 1.369 . S
C814 H823 0.929 . S
C815 N812 1.346 . S
C815 C814 1.369 . S
C815 H818 0.928 . S
C816 N812 1.345 . S
C816 C817 1.371 . S
C816 H819 0.931 . S
C817 C813 1.391 . S
C817 C816 1.371 . S
C817 H824 0.930 . S
H818 C815 0.928 . S
H819 C816 0.931 . S
H820 C796 0.930 . S
H821 C793 0.930 . S
H822 C802 0.930 . S
H823 C814 0.929 . S
H824 C817 0.930 . S
C825 C826 1.351 . S
C825 N828 1.368 . S
C825 H830 0.931 . S
C826 C825 1.351 . S
C826 N827 1.373 . S
C826 H854 0.930 . S
N827 C826 1.373 . S
N827 C829 1.340 . S
N828 C825 1.368 . S
N828 C829 1.321 . S
N828 Co831 2.135 . S
C829 N827 1.340 . S
C829 N828 1.321 . S
C829 H853 0.930 . S
H830 C825 0.931 . S
Co831 N828 2.135 . S
Co831 N834 2.121 . S
Co831 O839 2.055 . S
Co831 O842 2.039 . S
Co831 N845 2.140 . S
C832 O833 1.227 . S
C832 O842 1.265 . S
O833 C832 1.227 . S
N834 Co831 2.121 . S
N834 C836 1.375 . S
N834 C837 1.313 . S
C835 C836 1.338 . S
C835 N838 1.377 . S
C835 H855 0.930 . S
C836 N834 1.375 . S
C836 C835 1.338 . S
C836 H840 0.931 . S
C837 N834 1.313 . S
C837 N838 1.344 . S
C837 H841 0.930 . S
N838 C835 1.377 . S
N838 C837 1.344 . S
O839 Co831 2.055 . S
O839 C843 1.253 . S
H840 C836 0.931 . S
H841 C837 0.930 . S
O842 Co831 2.039 . S
O842 C832 1.265 . S
C843 O839 1.253 . S
C843 O844 1.227 . S
O844 C843 1.227 . S
N845 Co831 2.140 . S
N845 C848 1.346 . S
N845 C849 1.345 . S
C846 C847 1.387 . S
C846 C850 1.391 . S
C847 C846 1.387 . S
C847 C848 1.369 . S
C847 H856 0.929 . S
C848 N845 1.346 . S
C848 C847 1.369 . S
C848 H851 0.928 . S
C849 N845 1.345 . S
C849 C850 1.371 . S
C849 H852 0.931 . S
C850 C846 1.391 . S
C850 C849 1.371 . S
C850 H857 0.930 . S
H851 C848 0.928 . S
H852 C849 0.931 . S
H853 C829 0.930 . S
H854 C826 0.930 . S
H855 C835 0.930 . S
H856 C847 0.929 . S
H857 C850 0.930 . S
C858 C859 1.351 . S
C858 N861 1.368 . S
C858 H863 0.931 . S
C859 C858 1.351 . S
C859 N860 1.373 . S
C859 H887 0.930 . S
N860 C859 1.373 . S
N860 C862 1.340 . S
N861 C858 1.368 . S
N861 C862 1.321 . S
N861 Co864 2.135 . S
C862 N860 1.340 . S
C862 N861 1.321 . S
C862 H886 0.930 . S
H863 C858 0.931 . S
Co864 N861 2.135 . S
Co864 N867 2.121 . S
Co864 O872 2.055 . S
Co864 O875 2.039 . S
Co864 N878 2.140 . S
C865 O866 1.227 . S
C865 O875 1.265 . S
O866 C865 1.227 . S
N867 Co864 2.121 . S
N867 C869 1.375 . S
N867 C870 1.313 . S
C868 C869 1.338 . S
C868 N871 1.377 . S
C868 H888 0.930 . S
C869 N867 1.375 . S
C869 C868 1.338 . S
C869 H873 0.931 . S
C870 N867 1.313 . S
C870 N871 1.344 . S
C870 H874 0.930 . S
N871 C868 1.377 . S
N871 C870 1.344 . S
O872 Co864 2.055 . S
O872 C876 1.253 . S
H873 C869 0.931 . S
H874 C870 0.930 . S
O875 Co864 2.039 . S
O875 C865 1.265 . S
C876 O872 1.253 . S
C876 O877 1.227 . S
O877 C876 1.227 . S
N878 Co864 2.140 . S
N878 C881 1.346 . S
N878 C882 1.345 . S
C879 C880 1.387 . S
C879 C883 1.391 . S
C880 C879 1.387 . S
C880 C881 1.369 . S
C880 H889 0.929 . S
C881 N878 1.346 . S
C881 C880 1.369 . S
C881 H884 0.928 . S
C882 N878 1.345 . S
C882 C883 1.371 . S
C882 H885 0.931 . S
C883 C879 1.391 . S
C883 C882 1.371 . S
C883 H890 0.930 . S
H884 C881 0.928 . S
H885 C882 0.931 . S
H886 C862 0.930 . S
H887 C859 0.930 . S
H888 C868 0.930 . S
H889 C880 0.929 . S
H890 C883 0.930 . S
C891 C892 1.351 . S
C891 N894 1.368 . S
C891 H896 0.931 . S
C892 C891 1.351 . S
C892 N893 1.373 . S
C892 H920 0.930 . S
N893 C892 1.373 . S
N893 C895 1.340 . S
N894 C891 1.368 . S
N894 C895 1.321 . S
N894 Co897 2.135 1_655 S
C895 N893 1.340 . S
C895 N894 1.321 . S
C895 H919 0.930 . S
H896 C891 0.931 . S
Co897 N894 2.135 1_455 S
Co897 N900 2.121 . S
Co897 O905 2.055 . S
Co897 O908 2.039 . S
Co897 N911 2.140 . S
C898 O899 1.227 . S
C898 O908 1.265 . S
O899 C898 1.227 . S
N900 Co897 2.121 . S
N900 C902 1.375 . S
N900 C903 1.313 . S
C901 C902 1.338 . S
C901 N904 1.377 . S
C901 H921 0.930 . S
C902 N900 1.375 . S
C902 C901 1.338 . S
C902 H906 0.931 . S
C903 N900 1.313 . S
C903 N904 1.344 . S
C903 H907 0.930 . S
N904 C901 1.377 . S
N904 C903 1.344 . S
O905 Co897 2.055 . S
O905 C909 1.253 . S
H906 C902 0.931 . S
H907 C903 0.930 . S
O908 Co897 2.039 . S
O908 C898 1.265 . S
C909 O905 1.253 . S
C909 O910 1.227 . S
O910 C909 1.227 . S
N911 Co897 2.140 . S
N911 C914 1.346 . S
N911 C915 1.345 . S
C912 C913 1.387 . S
C912 C916 1.391 . S
C913 C912 1.387 . S
C913 C914 1.369 . S
C913 H922 0.929 1_455 S
C914 N911 1.346 . S
C914 C913 1.369 . S
C914 H917 0.928 1_455 S
C915 N911 1.345 . S
C915 C916 1.371 . S
C915 H918 0.931 . S
C916 C912 1.391 . S
C916 C915 1.371 . S
C916 H923 0.930 . S
H917 C914 0.928 1_655 S
H918 C915 0.931 . S
H919 C895 0.930 . S
H920 C892 0.930 . S
H921 C901 0.930 . S
H922 C913 0.929 1_655 S
H923 C916 0.930 . S
C924 C925 1.351 . S
C924 N927 1.368 . S
C924 H929 0.931 . S
C925 C924 1.351 . S
C925 N926 1.373 . S
C925 H953 0.930 . S
N926 C925 1.373 . S
N926 C928 1.340 . S
N927 C924 1.368 . S
N927 C928 1.321 . S
N927 Co930 2.135 . S
C928 N926 1.340 . S
C928 N927 1.321 . S
C928 H952 0.930 . S
H929 C924 0.931 . S
Co930 N927 2.135 . S
Co930 N933 2.121 . S
Co930 O938 2.055 . S
Co930 O941 2.039 . S
Co930 N944 2.140 . S
C931 O932 1.227 . S
C931 O941 1.265 . S
O932 C931 1.227 . S
N933 Co930 2.121 . S
N933 C935 1.375 . S
N933 C936 1.313 . S
C934 C935 1.338 . S
C934 N937 1.377 . S
C934 H954 0.930 . S
C935 N933 1.375 . S
C935 C934 1.338 . S
C935 H939 0.931 . S
C936 N933 1.313 . S
C936 N937 1.344 . S
C936 H940 0.930 . S
N937 C934 1.377 . S
N937 C936 1.344 . S
O938 Co930 2.055 . S
O938 C942 1.253 . S
H939 C935 0.931 . S
H940 C936 0.930 . S
O941 Co930 2.039 . S
O941 C931 1.265 . S
C942 O938 1.253 . S
C942 O943 1.227 . S
O943 C942 1.227 . S
N944 Co930 2.140 . S
N944 C947 1.346 . S
N944 C948 1.345 . S
C945 C946 1.387 . S
C945 C949 1.391 . S
C946 C945 1.387 . S
C946 C947 1.369 . S
C946 H955 0.929 . S
C947 N944 1.346 . S
C947 C946 1.369 . S
C947 H950 0.928 . S
C948 N944 1.345 . S
C948 C949 1.371 . S
C948 H951 0.931 . S
C949 C945 1.391 . S
C949 C948 1.371 . S
C949 H956 0.930 . S
H950 C947 0.928 . S
H951 C948 0.931 . S
H952 C928 0.930 . S
H953 C925 0.930 . S
H954 C934 0.930 . S
H955 C946 0.929 . S
H956 C949 0.930 . S
C957 C958 1.351 . S
C957 N960 1.368 . S
C957 H962 0.931 . S
C958 C957 1.351 . S
C958 N959 1.373 . S
C958 H986 0.930 . S
N959 C958 1.373 . S
N959 C961 1.340 . S
N960 C957 1.368 . S
N960 C961 1.321 . S
N960 Co963 2.135 1_655 S
C961 N959 1.340 . S
C961 N960 1.321 . S
C961 H985 0.930 . S
H962 C957 0.931 . S
Co963 N960 2.135 1_455 S
Co963 N966 2.121 . S
Co963 O971 2.055 . S
Co963 O974 2.039 . S
Co963 N977 2.140 . S
C964 O965 1.227 . S
C964 O974 1.265 . S
O965 C964 1.227 . S
N966 Co963 2.121 . S
N966 C968 1.375 . S
N966 C969 1.313 . S
C967 C968 1.338 . S
C967 N970 1.377 . S
C967 H987 0.930 . S
C968 N966 1.375 . S
C968 C967 1.338 . S
C968 H972 0.931 . S
C969 N966 1.313 . S
C969 N970 1.344 . S
C969 H973 0.930 . S
N970 C967 1.377 . S
N970 C969 1.344 . S
O971 Co963 2.055 . S
O971 C975 1.253 . S
H972 C968 0.931 . S
H973 C969 0.930 . S
O974 Co963 2.039 . S
O974 C964 1.265 . S
C975 O971 1.253 . S
C975 O976 1.227 . S
O976 C975 1.227 . S
N977 Co963 2.140 . S
N977 C980 1.346 . S
N977 C981 1.345 . S
C978 C979 1.387 . S
C978 C982 1.391 . S
C979 C978 1.387 . S
C979 C980 1.369 . S
C979 H988 0.929 1_455 S
C980 N977 1.346 . S
C980 C979 1.369 . S
C980 H983 0.928 1_455 S
C981 N977 1.345 . S
C981 C982 1.371 . S
C981 H984 0.931 . S
C982 C978 1.391 . S
C982 C981 1.371 . S
C982 H989 0.930 . S
H983 C980 0.928 1_655 S
H984 C981 0.931 . S
H985 C961 0.930 . S
H986 C958 0.930 . S
H987 C967 0.930 . S
H988 C979 0.929 1_655 S
H989 C982 0.930 . S
C990 C991 1.351 . S
C990 N993 1.368 . S
C990 H995 0.931 . S
C991 C990 1.351 . S
C991 N992 1.373 . S
C991 H1019 0.930 . S
N992 C991 1.373 . S
N992 C994 1.340 . S
N993 C990 1.368 . S
N993 C994 1.321 . S
N993 Co996 2.135 . S
C994 N992 1.340 . S
C994 N993 1.321 . S
C994 H1018 0.930 . S
H995 C990 0.931 . S
Co996 N993 2.135 . S
Co996 N999 2.121 . S
Co996 O1004 2.055 . S
Co996 O1007 2.039 . S
Co996 N1010 2.140 . S
C997 O998 1.227 . S
C997 O1007 1.265 . S
O998 C997 1.227 . S
N999 Co996 2.121 . S
N999 C1001 1.375 . S
N999 C1002 1.313 . S
C1000 C1001 1.338 . S
C1000 N1003 1.377 . S
C1000 H1020 0.930 . S
C1001 N999 1.375 . S
C1001 C1000 1.338 . S
C1001 H1005 0.931 . S
C1002 N999 1.313 . S
C1002 N1003 1.344 . S
C1002 H1006 0.930 . S
N1003 C1000 1.377 . S
N1003 C1002 1.344 . S
O1004 Co996 2.055 . S
O1004 C1008 1.253 . S
H1005 C1001 0.931 . S
H1006 C1002 0.930 . S
O1007 Co996 2.039 . S
O1007 C997 1.265 . S
C1008 O1004 1.253 . S
C1008 O1009 1.227 . S
O1009 C1008 1.227 . S
N1010 Co996 2.140 . S
N1010 C1013 1.346 . S
N1010 C1014 1.345 . S
C1011 C1012 1.387 . S
C1011 C1015 1.391 . S
C1012 C1011 1.387 . S
C1012 C1013 1.369 . S
C1012 H1021 0.929 . S
C1013 N1010 1.346 . S
C1013 C1012 1.369 . S
C1013 H1016 0.928 . S
C1014 N1010 1.345 . S
C1014 C1015 1.371 . S
C1014 H1017 0.931 . S
C1015 C1011 1.391 . S
C1015 C1014 1.371 . S
C1015 H1022 0.930 . S
H1016 C1013 0.928 . S
H1017 C1014 0.931 . S
H1018 C994 0.930 . S
H1019 C991 0.930 . S
H1020 C1000 0.930 . S
H1021 C1012 0.929 . S
H1022 C1015 0.930 . S
C1023 C1024 1.351 . S
C1023 N1026 1.368 . S
C1023 H1028 0.931 . S
C1024 C1023 1.351 . S
C1024 N1025 1.373 . S
C1024 H1052 0.930 . S
N1025 C1024 1.373 . S
N1025 C1027 1.340 . S
N1026 C1023 1.368 . S
N1026 C1027 1.321 . S
N1026 Co1029 2.135 . S
C1027 N1025 1.340 . S
C1027 N1026 1.321 . S
C1027 H1051 0.930 . S
H1028 C1023 0.931 . S
Co1029 N1026 2.135 . S
Co1029 N1032 2.121 . S
Co1029 O1037 2.055 . S
Co1029 O1040 2.039 . S
Co1029 N1043 2.140 . S
C1030 O1031 1.227 . S
C1030 O1040 1.265 . S
O1031 C1030 1.227 . S
N1032 Co1029 2.121 . S
N1032 C1034 1.375 . S
N1032 C1035 1.313 . S
C1033 C1034 1.338 . S
C1033 N1036 1.377 . S
C1033 H1053 0.930 . S
C1034 N1032 1.375 . S
C1034 C1033 1.338 . S
C1034 H1038 0.931 . S
C1035 N1032 1.313 . S
C1035 N1036 1.344 . S
C1035 H1039 0.930 . S
N1036 C1033 1.377 . S
N1036 C1035 1.344 . S
O1037 Co1029 2.055 . S
O1037 C1041 1.253 . S
H1038 C1034 0.931 . S
H1039 C1035 0.930 . S
O1040 Co1029 2.039 . S
O1040 C1030 1.265 . S
C1041 O1037 1.253 . S
C1041 O1042 1.227 . S
O1042 C1041 1.227 . S
N1043 Co1029 2.140 . S
N1043 C1046 1.346 . S
N1043 C1047 1.345 . S
C1044 C1045 1.387 . S
C1044 C1048 1.391 . S
C1045 C1044 1.387 . S
C1045 C1046 1.369 . S
C1045 H1054 0.929 . S
C1046 N1043 1.346 . S
C1046 C1045 1.369 . S
C1046 H1049 0.928 . S
C1047 N1043 1.345 . S
C1047 C1048 1.371 . S
C1047 H1050 0.931 . S
C1048 C1044 1.391 . S
C1048 C1047 1.371 . S
C1048 H1055 0.930 . S
H1049 C1046 0.928 . S
H1050 C1047 0.931 . S
H1051 C1027 0.930 . S
H1052 C1024 0.930 . S
H1053 C1033 0.930 . S
H1054 C1045 0.929 . S
H1055 C1048 0.930 . S
C1056 C1057 1.391 . S
C1056 C1058 1.394 . S
C1056 H1072 0.931 . S
C1057 C1056 1.391 . S
C1057 C1061 1.376 . S
C1058 C1056 1.394 . S
C1058 C1059 1.369 . S
C1058 C1062 1.531 . S
C1059 C1058 1.369 . S
C1059 C1060 1.410 . S
C1059 C1067 1.503 . S
C1060 C1059 1.410 . S
C1060 C1061 1.392 . S
C1060 C1063 1.511 . S
C1061 C1057 1.376 . S
C1061 C1060 1.392 . S
C1061 H1073 0.929 . S
C1062 C1058 1.531 . S
C1062 H1074 0.960 . S
C1062 H1075 0.962 . S
C1062 H1076 0.960 . S
C1063 C1060 1.511 . S
C1063 H1077 0.961 . S
C1063 H1078 0.961 . S
C1063 H1079 0.961 . S
C1064 C1065 1.370 . S
C1064 C1066 1.363 . S
C1064 H1080 0.931 . S
C1065 C1064 1.370 . S
C1065 C1069 1.408 . S
C1066 C1064 1.363 . S
C1066 C1067 1.370 . S
C1066 C1070 1.524 . S
C1067 C1059 1.503 . S
C1067 C1066 1.370 . S
C1067 C1068 1.403 . S
C1068 C1067 1.403 . S
C1068 C1069 1.404 . S
C1068 C1071 1.539 . S
C1069 C1065 1.408 . S
C1069 C1068 1.404 . S
C1069 H1081 0.930 . S
C1070 C1066 1.524 . S
C1070 H1082 0.956 . S
C1070 H1083 0.961 . S
C1070 H1084 0.961 . S
C1071 C1068 1.539 . S
C1071 H1085 0.958 . S
C1071 H1086 0.961 . S
C1071 H1087 0.960 . S
H1072 C1056 0.931 . S
H1073 C1061 0.929 . S
H1074 C1062 0.960 . S
H1075 C1062 0.962 . S
H1076 C1062 0.960 . S
H1077 C1063 0.961 . S
H1078 C1063 0.961 . S
H1079 C1063 0.961 . S
H1080 C1064 0.931 . S
H1081 C1069 0.930 . S
H1082 C1070 0.956 . S
H1083 C1070 0.961 . S
H1084 C1070 0.961 . S
H1085 C1071 0.958 . S
H1086 C1071 0.961 . S
H1087 C1071 0.960 . S
C1088 C1089 1.391 . S
C1088 C1090 1.394 . S
C1088 H1104 0.931 . S
C1089 C1088 1.391 . S
C1089 C1093 1.376 . S
C1090 C1088 1.394 . S
C1090 C1091 1.369 . S
C1090 C1094 1.531 . S
C1091 C1090 1.369 . S
C1091 C1092 1.410 . S
C1091 C1099 1.503 . S
C1092 C1091 1.410 . S
C1092 C1093 1.392 . S
C1092 C1095 1.511 . S
C1093 C1089 1.376 . S
C1093 C1092 1.392 . S
C1093 H1105 0.929 . S
C1094 C1090 1.531 . S
C1094 H1106 0.960 . S
C1094 H1107 0.962 . S
C1094 H1108 0.960 . S
C1095 C1092 1.511 . S
C1095 H1109 0.961 . S
C1095 H1110 0.961 . S
C1095 H1111 0.961 . S
C1096 C1097 1.370 . S
C1096 C1098 1.363 . S
C1096 H1112 0.931 . S
C1097 C1096 1.370 . S
C1097 C1101 1.408 . S
C1098 C1096 1.363 . S
C1098 C1099 1.370 . S
C1098 C1102 1.524 . S
C1099 C1091 1.503 . S
C1099 C1098 1.370 . S
C1099 C1100 1.403 . S
C1100 C1099 1.403 . S
C1100 C1101 1.404 . S
C1100 C1103 1.539 . S
C1101 C1097 1.408 . S
C1101 C1100 1.404 . S
C1101 H1113 0.930 . S
C1102 C1098 1.524 . S
C1102 H1114 0.956 . S
C1102 H1115 0.961 . S
C1102 H1116 0.961 . S
C1103 C1100 1.539 . S
C1103 H1117 0.958 . S
C1103 H1118 0.961 . S
C1103 H1119 0.960 . S
H1104 C1088 0.931 . S
H1105 C1093 0.929 . S
H1106 C1094 0.960 . S
H1107 C1094 0.962 . S
H1108 C1094 0.960 . S
H1109 C1095 0.961 . S
H1110 C1095 0.961 . S
H1111 C1095 0.961 . S
H1112 C1096 0.931 . S
H1113 C1101 0.930 . S
H1114 C1102 0.956 . S
H1115 C1102 0.961 . S
H1116 C1102 0.961 . S
H1117 C1103 0.958 . S
H1118 C1103 0.961 . S
H1119 C1103 0.960 . S
C1120 C1121 1.391 . S
C1120 C1122 1.394 . S
C1120 H1136 0.931 . S
C1121 C1120 1.391 . S
C1121 C1125 1.376 . S
C1122 C1120 1.394 . S
C1122 C1123 1.369 . S
C1122 C1126 1.531 . S
C1123 C1122 1.369 . S
C1123 C1124 1.410 . S
C1123 C1131 1.503 . S
C1124 C1123 1.410 . S
C1124 C1125 1.392 . S
C1124 C1127 1.511 . S
C1125 C1121 1.376 . S
C1125 C1124 1.392 . S
C1125 H1137 0.929 . S
C1126 C1122 1.531 . S
C1126 H1138 0.960 . S
C1126 H1139 0.962 . S
C1126 H1140 0.960 . S
C1127 C1124 1.511 . S
C1127 H1141 0.961 . S
C1127 H1142 0.961 . S
C1127 H1143 0.961 . S
C1128 C1129 1.370 . S
C1128 C1130 1.363 . S
C1128 H1144 0.931 . S
C1129 C1128 1.370 . S
C1129 C1133 1.408 . S
C1130 C1128 1.363 . S
C1130 C1131 1.370 . S
C1130 C1134 1.524 . S
C1131 C1123 1.503 . S
C1131 C1130 1.370 . S
C1131 C1132 1.403 . S
C1132 C1131 1.403 . S
C1132 C1133 1.404 . S
C1132 C1135 1.539 . S
C1133 C1129 1.408 . S
C1133 C1132 1.404 . S
C1133 H1145 0.930 . S
C1134 C1130 1.524 . S
C1134 H1146 0.956 . S
C1134 H1147 0.961 . S
C1134 H1148 0.961 . S
C1135 C1132 1.539 . S
C1135 H1149 0.958 . S
C1135 H1150 0.961 . S
C1135 H1151 0.960 . S
H1136 C1120 0.931 . S
H1137 C1125 0.929 . S
H1138 C1126 0.960 . S
H1139 C1126 0.962 . S
H1140 C1126 0.960 . S
H1141 C1127 0.961 . S
H1142 C1127 0.961 . S
H1143 C1127 0.961 . S
H1144 C1128 0.931 . S
H1145 C1133 0.930 . S
H1146 C1134 0.956 . S
H1147 C1134 0.961 . S
H1148 C1134 0.961 . S
H1149 C1135 0.958 . S
H1150 C1135 0.961 . S
H1151 C1135 0.960 . S
C1152 C1153 1.391 . S
C1152 C1154 1.394 . S
C1152 H1168 0.931 . S
C1153 C1152 1.391 . S
C1153 C1157 1.376 . S
C1154 C1152 1.394 . S
C1154 C1155 1.369 . S
C1154 C1158 1.531 . S
C1155 C1154 1.369 . S
C1155 C1156 1.410 . S
C1155 C1163 1.503 . S
C1156 C1155 1.410 . S
C1156 C1157 1.392 . S
C1156 C1159 1.511 . S
C1157 C1153 1.376 . S
C1157 C1156 1.392 . S
C1157 H1169 0.929 . S
C1158 C1154 1.531 . S
C1158 H1170 0.960 . S
C1158 H1171 0.962 . S
C1158 H1172 0.960 . S
C1159 C1156 1.511 . S
C1159 H1173 0.961 . S
C1159 H1174 0.961 . S
C1159 H1175 0.961 . S
C1160 C1161 1.370 . S
C1160 C1162 1.363 . S
C1160 H1176 0.931 . S
C1161 C1160 1.370 . S
C1161 C1165 1.408 . S
C1162 C1160 1.363 . S
C1162 C1163 1.370 . S
C1162 C1166 1.524 . S
C1163 C1155 1.503 . S
C1163 C1162 1.370 . S
C1163 C1164 1.403 . S
C1164 C1163 1.403 . S
C1164 C1165 1.404 . S
C1164 C1167 1.539 . S
C1165 C1161 1.408 . S
C1165 C1164 1.404 . S
C1165 H1177 0.930 . S
C1166 C1162 1.524 . S
C1166 H1178 0.956 . S
C1166 H1179 0.961 . S
C1166 H1180 0.961 . S
C1167 C1164 1.539 . S
C1167 H1181 0.958 . S
C1167 H1182 0.961 . S
C1167 H1183 0.960 . S
H1168 C1152 0.931 . S
H1169 C1157 0.929 . S
H1170 C1158 0.960 . S
H1171 C1158 0.962 . S
H1172 C1158 0.960 . S
H1173 C1159 0.961 . S
H1174 C1159 0.961 . S
H1175 C1159 0.961 . S
H1176 C1160 0.931 . S
H1177 C1165 0.930 . S
H1178 C1166 0.956 . S
H1179 C1166 0.961 . S
H1180 C1166 0.961 . S
H1181 C1167 0.958 . S
H1182 C1167 0.961 . S
H1183 C1167 0.960 . S
C1184 C1185 1.391 . S
C1184 C1186 1.394 . S
C1184 H1200 0.931 . S
C1185 C1184 1.391 . S
C1185 C1189 1.376 . S
C1186 C1184 1.394 . S
C1186 C1187 1.369 . S
C1186 C1190 1.531 . S
C1187 C1186 1.369 . S
C1187 C1188 1.410 . S
C1187 C1195 1.503 . S
C1188 C1187 1.410 . S
C1188 C1189 1.392 . S
C1188 C1191 1.511 . S
C1189 C1185 1.376 . S
C1189 C1188 1.392 . S
C1189 H1201 0.929 . S
C1190 C1186 1.531 . S
C1190 H1202 0.960 . S
C1190 H1203 0.962 . S
C1190 H1204 0.960 . S
C1191 C1188 1.511 . S
C1191 H1205 0.961 . S
C1191 H1206 0.961 . S
C1191 H1207 0.961 . S
C1192 C1193 1.370 . S
C1192 C1194 1.363 . S
C1192 H1208 0.931 . S
C1193 C1192 1.370 . S
C1193 C1197 1.408 . S
C1194 C1192 1.363 . S
C1194 C1195 1.370 . S
C1194 C1198 1.524 . S
C1195 C1187 1.503 . S
C1195 C1194 1.370 . S
C1195 C1196 1.403 . S
C1196 C1195 1.403 . S
C1196 C1197 1.404 . S
C1196 C1199 1.539 . S
C1197 C1193 1.408 . S
C1197 C1196 1.404 . S
C1197 H1209 0.930 . S
C1198 C1194 1.524 . S
C1198 H1210 0.956 . S
C1198 H1211 0.961 . S
C1198 H1212 0.961 . S
C1199 C1196 1.539 . S
C1199 H1213 0.958 . S
C1199 H1214 0.961 . S
C1199 H1215 0.960 . S
H1200 C1184 0.931 . S
H1201 C1189 0.929 . S
H1202 C1190 0.960 . S
H1203 C1190 0.962 . S
H1204 C1190 0.960 . S
H1205 C1191 0.961 . S
H1206 C1191 0.961 . S
H1207 C1191 0.961 . S
H1208 C1192 0.931 . S
H1209 C1197 0.930 . S
H1210 C1198 0.956 . S
H1211 C1198 0.961 . S
H1212 C1198 0.961 . S
H1213 C1199 0.958 . S
H1214 C1199 0.961 . S
H1215 C1199 0.960 . S
C1216 C1217 1.391 . S
C1216 C1218 1.394 . S
C1216 H1232 0.931 . S
C1217 C1216 1.391 . S
C1217 C1221 1.376 . S
C1218 C1216 1.394 . S
C1218 C1219 1.369 . S
C1218 C1222 1.531 . S
C1219 C1218 1.369 . S
C1219 C1220 1.410 . S
C1219 C1227 1.503 . S
C1220 C1219 1.410 . S
C1220 C1221 1.392 . S
C1220 C1223 1.511 . S
C1221 C1217 1.376 . S
C1221 C1220 1.392 . S
C1221 H1233 0.929 . S
C1222 C1218 1.531 . S
C1222 H1234 0.960 . S
C1222 H1235 0.962 . S
C1222 H1236 0.960 . S
C1223 C1220 1.511 . S
C1223 H1237 0.961 . S
C1223 H1238 0.961 . S
C1223 H1239 0.961 . S
C1224 C1225 1.370 . S
C1224 C1226 1.363 . S
C1224 H1240 0.931 . S
C1225 C1224 1.370 . S
C1225 C1229 1.408 . S
C1226 C1224 1.363 . S
C1226 C1227 1.370 . S
C1226 C1230 1.524 . S
C1227 C1219 1.503 . S
C1227 C1226 1.370 . S
C1227 C1228 1.403 . S
C1228 C1227 1.403 . S
C1228 C1229 1.404 . S
C1228 C1231 1.539 . S
C1229 C1225 1.408 . S
C1229 C1228 1.404 . S
C1229 H1241 0.930 . S
C1230 C1226 1.524 . S
C1230 H1242 0.956 . S
C1230 H1243 0.961 . S
C1230 H1244 0.961 . S
C1231 C1228 1.539 . S
C1231 H1245 0.958 . S
C1231 H1246 0.961 . S
C1231 H1247 0.960 . S
H1232 C1216 0.931 . S
H1233 C1221 0.929 . S
H1234 C1222 0.960 . S
H1235 C1222 0.962 . S
H1236 C1222 0.960 . S
H1237 C1223 0.961 . S
H1238 C1223 0.961 . S
H1239 C1223 0.961 . S
H1240 C1224 0.931 . S
H1241 C1229 0.930 . S
H1242 C1230 0.956 . S
H1243 C1230 0.961 . S
H1244 C1230 0.961 . S
H1245 C1231 0.958 . S
H1246 C1231 0.961 . S
H1247 C1231 0.960 . S
C1248 C1249 1.391 . S
C1248 C1250 1.394 . S
C1248 H1264 0.931 . S
C1249 C1248 1.391 . S
C1249 C1253 1.376 . S
C1250 C1248 1.394 . S
C1250 C1251 1.369 . S
C1250 C1254 1.531 . S
C1251 C1250 1.369 . S
C1251 C1252 1.410 . S
C1251 C1259 1.503 . S
C1252 C1251 1.410 . S
C1252 C1253 1.392 . S
C1252 C1255 1.511 . S
C1253 C1249 1.376 . S
C1253 C1252 1.392 . S
C1253 H1265 0.929 . S
C1254 C1250 1.531 . S
C1254 H1266 0.960 . S
C1254 H1267 0.962 . S
C1254 H1268 0.960 . S
C1255 C1252 1.511 . S
C1255 H1269 0.961 . S
C1255 H1270 0.961 . S
C1255 H1271 0.961 . S
C1256 C1257 1.370 . S
C1256 C1258 1.363 . S
C1256 H1272 0.931 . S
C1257 C1256 1.370 . S
C1257 C1261 1.408 . S
C1258 C1256 1.363 . S
C1258 C1259 1.370 . S
C1258 C1262 1.524 . S
C1259 C1251 1.503 . S
C1259 C1258 1.370 . S
C1259 C1260 1.403 . S
C1260 C1259 1.403 . S
C1260 C1261 1.404 . S
C1260 C1263 1.539 . S
C1261 C1257 1.408 . S
C1261 C1260 1.404 . S
C1261 H1273 0.930 . S
C1262 C1258 1.524 . S
C1262 H1274 0.956 . S
C1262 H1275 0.961 . S
C1262 H1276 0.961 . S
C1263 C1260 1.539 . S
C1263 H1277 0.958 . S
C1263 H1278 0.961 . S
C1263 H1279 0.960 . S
H1264 C1248 0.931 . S
H1265 C1253 0.929 . S
H1266 C1254 0.960 . S
H1267 C1254 0.962 . S
H1268 C1254 0.960 . S
H1269 C1255 0.961 . S
H1270 C1255 0.961 . S
H1271 C1255 0.961 . S
H1272 C1256 0.931 . S
H1273 C1261 0.930 . S
H1274 C1262 0.956 . S
H1275 C1262 0.961 . S
H1276 C1262 0.961 . S
H1277 C1263 0.958 . S
H1278 C1263 0.961 . S
H1279 C1263 0.960 . S
C1280 C1281 1.391 . S
C1280 C1282 1.394 . S
C1280 H1296 0.931 . S
C1281 C1280 1.391 . S
C1281 C1285 1.376 . S
C1282 C1280 1.394 . S
C1282 C1283 1.369 . S
C1282 C1286 1.531 . S
C1283 C1282 1.369 . S
C1283 C1284 1.410 . S
C1283 C1291 1.503 . S
C1284 C1283 1.410 . S
C1284 C1285 1.392 . S
C1284 C1287 1.511 . S
C1285 C1281 1.376 . S
C1285 C1284 1.392 . S
C1285 H1297 0.929 . S
C1286 C1282 1.531 . S
C1286 H1298 0.960 . S
C1286 H1299 0.962 . S
C1286 H1300 0.960 . S
C1287 C1284 1.511 . S
C1287 H1301 0.961 . S
C1287 H1302 0.961 . S
C1287 H1303 0.961 . S
C1288 C1289 1.370 . S
C1288 C1290 1.363 . S
C1288 H1304 0.931 . S
C1289 C1288 1.370 . S
C1289 C1293 1.408 . S
C1290 C1288 1.363 . S
C1290 C1291 1.370 . S
C1290 C1294 1.524 . S
C1291 C1283 1.503 . S
C1291 C1290 1.370 . S
C1291 C1292 1.403 . S
C1292 C1291 1.403 . S
C1292 C1293 1.404 . S
C1292 C1295 1.539 . S
C1293 C1289 1.408 . S
C1293 C1292 1.404 . S
C1293 H1305 0.930 . S
C1294 C1290 1.524 . S
C1294 H1306 0.956 . S
C1294 H1307 0.961 . S
C1294 H1308 0.961 . S
C1295 C1292 1.539 . S
C1295 H1309 0.958 . S
C1295 H1310 0.961 . S
C1295 H1311 0.960 . S
H1296 C1280 0.931 . S
H1297 C1285 0.929 . S
H1298 C1286 0.960 . S
H1299 C1286 0.962 . S
H1300 C1286 0.960 . S
H1301 C1287 0.961 . S
H1302 C1287 0.961 . S
H1303 C1287 0.961 . S
H1304 C1288 0.931 . S
H1305 C1293 0.930 . S
H1306 C1294 0.956 . S
H1307 C1294 0.961 . S
H1308 C1294 0.961 . S
H1309 C1295 0.958 . S
H1310 C1295 0.961 . S
H1311 C1295 0.960 . S
C1312 C1313 1.391 . S
C1312 C1314 1.394 . S
C1312 H1328 0.931 . S
C1313 C1312 1.391 . S
C1313 C1317 1.376 . S
C1314 C1312 1.394 . S
C1314 C1315 1.369 . S
C1314 C1318 1.531 . S
C1315 C1314 1.369 . S
C1315 C1316 1.410 . S
C1315 C1323 1.503 . S
C1316 C1315 1.410 . S
C1316 C1317 1.392 . S
C1316 C1319 1.511 . S
C1317 C1313 1.376 . S
C1317 C1316 1.392 . S
C1317 H1329 0.929 . S
C1318 C1314 1.531 . S
C1318 H1330 0.960 . S
C1318 H1331 0.962 . S
C1318 H1332 0.960 . S
C1319 C1316 1.511 . S
C1319 H1333 0.961 . S
C1319 H1334 0.961 . S
C1319 H1335 0.961 . S
C1320 C1321 1.370 . S
C1320 C1322 1.363 . S
C1320 H1336 0.931 . S
C1321 C1320 1.370 . S
C1321 C1325 1.408 . S
C1322 C1320 1.363 . S
C1322 C1323 1.370 . S
C1322 C1326 1.524 . S
C1323 C1315 1.503 . S
C1323 C1322 1.370 . S
C1323 C1324 1.403 . S
C1324 C1323 1.403 . S
C1324 C1325 1.404 . S
C1324 C1327 1.539 . S
C1325 C1321 1.408 . S
C1325 C1324 1.404 . S
C1325 H1337 0.930 . S
C1326 C1322 1.524 . S
C1326 H1338 0.956 . S
C1326 H1339 0.961 . S
C1326 H1340 0.961 . S
C1327 C1324 1.539 . S
C1327 H1341 0.958 . S
C1327 H1342 0.961 . S
C1327 H1343 0.960 . S
H1328 C1312 0.931 . S
H1329 C1317 0.929 . S
H1330 C1318 0.960 . S
H1331 C1318 0.962 . S
H1332 C1318 0.960 . S
H1333 C1319 0.961 . S
H1334 C1319 0.961 . S
H1335 C1319 0.961 . S
H1336 C1320 0.931 . S
H1337 C1325 0.930 . S
H1338 C1326 0.956 . S
H1339 C1326 0.961 . S
H1340 C1326 0.961 . S
H1341 C1327 0.958 . S
H1342 C1327 0.961 . S
H1343 C1327 0.960 . S
C1344 C1345 1.391 . S
C1344 C1346 1.394 . S
C1344 H1360 0.931 . S
C1345 C1344 1.391 . S
C1345 C1349 1.376 . S
C1346 C1344 1.394 . S
C1346 C1347 1.369 . S
C1346 C1350 1.531 . S
C1347 C1346 1.369 . S
C1347 C1348 1.410 . S
C1347 C1355 1.503 . S
C1348 C1347 1.410 . S
C1348 C1349 1.392 . S
C1348 C1351 1.511 . S
C1349 C1345 1.376 . S
C1349 C1348 1.392 . S
C1349 H1361 0.929 . S
C1350 C1346 1.531 . S
C1350 H1362 0.960 . S
C1350 H1363 0.962 . S
C1350 H1364 0.960 . S
C1351 C1348 1.511 . S
C1351 H1365 0.961 . S
C1351 H1366 0.961 . S
C1351 H1367 0.961 . S
C1352 C1353 1.370 . S
C1352 C1354 1.363 . S
C1352 H1368 0.931 . S
C1353 C1352 1.370 . S
C1353 C1357 1.408 . S
C1354 C1352 1.363 . S
C1354 C1355 1.370 . S
C1354 C1358 1.524 . S
C1355 C1347 1.503 . S
C1355 C1354 1.370 . S
C1355 C1356 1.403 . S
C1356 C1355 1.403 . S
C1356 C1357 1.404 . S
C1356 C1359 1.539 . S
C1357 C1353 1.408 . S
C1357 C1356 1.404 . S
C1357 H1369 0.930 . S
C1358 C1354 1.524 . S
C1358 H1370 0.956 . S
C1358 H1371 0.961 . S
C1358 H1372 0.961 . S
C1359 C1356 1.539 . S
C1359 H1373 0.958 . S
C1359 H1374 0.961 . S
C1359 H1375 0.960 . S
H1360 C1344 0.931 . S
H1361 C1349 0.929 . S
H1362 C1350 0.960 . S
H1363 C1350 0.962 . S
H1364 C1350 0.960 . S
H1365 C1351 0.961 . S
H1366 C1351 0.961 . S
H1367 C1351 0.961 . S
H1368 C1352 0.931 . S
H1369 C1357 0.930 . S
H1370 C1358 0.956 . S
H1371 C1358 0.961 . S
H1372 C1358 0.961 . S
H1373 C1359 0.958 . S
H1374 C1359 0.961 . S
H1375 C1359 0.960 . S
C1376 C1377 1.391 . S
C1376 C1378 1.394 . S
C1376 H1392 0.931 . S
C1377 C1376 1.391 . S
C1377 C1381 1.376 . S
C1378 C1376 1.394 . S
C1378 C1379 1.369 . S
C1378 C1382 1.531 . S
C1379 C1378 1.369 . S
C1379 C1380 1.410 . S
C1379 C1387 1.503 . S
C1380 C1379 1.410 . S
C1380 C1381 1.392 . S
C1380 C1383 1.511 . S
C1381 C1377 1.376 . S
C1381 C1380 1.392 . S
C1381 H1393 0.929 . S
C1382 C1378 1.531 . S
C1382 H1394 0.960 . S
C1382 H1395 0.962 . S
C1382 H1396 0.960 . S
C1383 C1380 1.511 . S
C1383 H1397 0.961 . S
C1383 H1398 0.961 . S
C1383 H1399 0.961 . S
C1384 C1385 1.370 . S
C1384 C1386 1.363 . S
C1384 H1400 0.931 . S
C1385 C1384 1.370 . S
C1385 C1389 1.408 . S
C1386 C1384 1.363 . S
C1386 C1387 1.370 . S
C1386 C1390 1.524 . S
C1387 C1379 1.503 . S
C1387 C1386 1.370 . S
C1387 C1388 1.403 . S
C1388 C1387 1.403 . S
C1388 C1389 1.404 . S
C1388 C1391 1.539 . S
C1389 C1385 1.408 . S
C1389 C1388 1.404 . S
C1389 H1401 0.930 . S
C1390 C1386 1.524 . S
C1390 H1402 0.956 . S
C1390 H1403 0.961 . S
C1390 H1404 0.961 . S
C1391 C1388 1.539 . S
C1391 H1405 0.958 . S
C1391 H1406 0.961 . S
C1391 H1407 0.960 . S
H1392 C1376 0.931 . S
H1393 C1381 0.929 . S
H1394 C1382 0.960 . S
H1395 C1382 0.962 . S
H1396 C1382 0.960 . S
H1397 C1383 0.961 . S
H1398 C1383 0.961 . S
H1399 C1383 0.961 . S
H1400 C1384 0.931 . S
H1401 C1389 0.930 . S
H1402 C1390 0.956 . S
H1403 C1390 0.961 . S
H1404 C1390 0.961 . S
H1405 C1391 0.958 . S
H1406 C1391 0.961 . S
H1407 C1391 0.960 . S
C1408 C1409 1.391 . S
C1408 C1410 1.394 . S
C1408 H1424 0.931 . S
C1409 C1408 1.391 . S
C1409 C1413 1.376 . S
C1410 C1408 1.394 . S
C1410 C1411 1.369 . S
C1410 C1414 1.531 . S
C1411 C1410 1.369 . S
C1411 C1412 1.410 . S
C1411 C1419 1.503 . S
C1412 C1411 1.410 . S
C1412 C1413 1.392 . S
C1412 C1415 1.511 . S
C1413 C1409 1.376 . S
C1413 C1412 1.392 . S
C1413 H1425 0.929 . S
C1414 C1410 1.531 . S
C1414 H1426 0.960 . S
C1414 H1427 0.962 . S
C1414 H1428 0.960 . S
C1415 C1412 1.511 . S
C1415 H1429 0.961 . S
C1415 H1430 0.961 . S
C1415 H1431 0.961 . S
C1416 C1417 1.370 . S
C1416 C1418 1.363 . S
C1416 H1432 0.931 . S
C1417 C1416 1.370 . S
C1417 C1421 1.408 . S
C1418 C1416 1.363 . S
C1418 C1419 1.370 . S
C1418 C1422 1.524 . S
C1419 C1411 1.503 . S
C1419 C1418 1.370 . S
C1419 C1420 1.403 . S
C1420 C1419 1.403 . S
C1420 C1421 1.404 . S
C1420 C1423 1.539 . S
C1421 C1417 1.408 . S
C1421 C1420 1.404 . S
C1421 H1433 0.930 . S
C1422 C1418 1.524 . S
C1422 H1434 0.956 . S
C1422 H1435 0.961 . S
C1422 H1436 0.961 . S
C1423 C1420 1.539 . S
C1423 H1437 0.958 . S
C1423 H1438 0.961 . S
C1423 H1439 0.960 . S
H1424 C1408 0.931 . S
H1425 C1413 0.929 . S
H1426 C1414 0.960 . S
H1427 C1414 0.962 . S
H1428 C1414 0.960 . S
H1429 C1415 0.961 . S
H1430 C1415 0.961 . S
H1431 C1415 0.961 . S
H1432 C1416 0.931 . S
H1433 C1421 0.930 . S
H1434 C1422 0.956 . S
H1435 C1422 0.961 . S
H1436 C1422 0.961 . S
H1437 C1423 0.958 . S
H1438 C1423 0.961 . S
H1439 C1423 0.960 . S
C1440 C1441 1.391 . S
C1440 C1442 1.394 . S
C1440 H1456 0.931 . S
C1441 C1440 1.391 . S
C1441 C1445 1.376 . S
C1442 C1440 1.394 . S
C1442 C1443 1.369 . S
C1442 C1446 1.531 . S
C1443 C1442 1.369 . S
C1443 C1444 1.410 . S
C1443 C1451 1.503 . S
C1444 C1443 1.410 . S
C1444 C1445 1.392 . S
C1444 C1447 1.511 . S
C1445 C1441 1.376 . S
C1445 C1444 1.392 . S
C1445 H1457 0.929 . S
C1446 C1442 1.531 . S
C1446 H1458 0.960 . S
C1446 H1459 0.962 . S
C1446 H1460 0.960 . S
C1447 C1444 1.511 . S
C1447 H1461 0.961 . S
C1447 H1462 0.961 . S
C1447 H1463 0.961 . S
C1448 C1449 1.370 . S
C1448 C1450 1.363 . S
C1448 H1464 0.931 . S
C1449 C1448 1.370 . S
C1449 C1453 1.408 . S
C1450 C1448 1.363 . S
C1450 C1451 1.370 . S
C1450 C1454 1.524 . S
C1451 C1443 1.503 . S
C1451 C1450 1.370 . S
C1451 C1452 1.403 . S
C1452 C1451 1.403 . S
C1452 C1453 1.404 . S
C1452 C1455 1.539 . S
C1453 C1449 1.408 . S
C1453 C1452 1.404 . S
C1453 H1465 0.930 . S
C1454 C1450 1.524 . S
C1454 H1466 0.956 . S
C1454 H1467 0.961 . S
C1454 H1468 0.961 . S
C1455 C1452 1.539 . S
C1455 H1469 0.958 . S
C1455 H1470 0.961 . S
C1455 H1471 0.960 . S
H1456 C1440 0.931 . S
H1457 C1445 0.929 . S
H1458 C1446 0.960 . S
H1459 C1446 0.962 . S
H1460 C1446 0.960 . S
H1461 C1447 0.961 . S
H1462 C1447 0.961 . S
H1463 C1447 0.961 . S
H1464 C1448 0.931 . S
H1465 C1453 0.930 . S
H1466 C1454 0.956 . S
H1467 C1454 0.961 . S
H1468 C1454 0.961 . S
H1469 C1455 0.958 . S
H1470 C1455 0.961 . S
H1471 C1455 0.960 . S
C1472 C1473 1.391 . S
C1472 C1474 1.394 . S
C1472 H1488 0.931 . S
C1473 C1472 1.391 . S
C1473 C1477 1.376 . S
C1474 C1472 1.394 . S
C1474 C1475 1.369 . S
C1474 C1478 1.531 . S
C1475 C1474 1.369 . S
C1475 C1476 1.410 . S
C1475 C1483 1.503 . S
C1476 C1475 1.410 . S
C1476 C1477 1.392 . S
C1476 C1479 1.511 . S
C1477 C1473 1.376 . S
C1477 C1476 1.392 . S
C1477 H1489 0.929 . S
C1478 C1474 1.531 . S
C1478 H1490 0.960 . S
C1478 H1491 0.962 . S
C1478 H1492 0.960 . S
C1479 C1476 1.511 . S
C1479 H1493 0.961 . S
C1479 H1494 0.961 . S
C1479 H1495 0.961 . S
C1480 C1481 1.370 . S
C1480 C1482 1.363 . S
C1480 H1496 0.931 . S
C1481 C1480 1.370 . S
C1481 C1485 1.408 . S
C1482 C1480 1.363 . S
C1482 C1483 1.370 . S
C1482 C1486 1.524 . S
C1483 C1475 1.503 . S
C1483 C1482 1.370 . S
C1483 C1484 1.403 . S
C1484 C1483 1.403 . S
C1484 C1485 1.404 . S
C1484 C1487 1.539 . S
C1485 C1481 1.408 . S
C1485 C1484 1.404 . S
C1485 H1497 0.930 . S
C1486 C1482 1.524 . S
C1486 H1498 0.956 . S
C1486 H1499 0.961 . S
C1486 H1500 0.961 . S
C1487 C1484 1.539 . S
C1487 H1501 0.958 . S
C1487 H1502 0.961 . S
C1487 H1503 0.960 . S
H1488 C1472 0.931 . S
H1489 C1477 0.929 . S
H1490 C1478 0.960 . S
H1491 C1478 0.962 . S
H1492 C1478 0.960 . S
H1493 C1479 0.961 . S
H1494 C1479 0.961 . S
H1495 C1479 0.961 . S
H1496 C1480 0.931 . S
H1497 C1485 0.930 . S
H1498 C1486 0.956 . S
H1499 C1486 0.961 . S
H1500 C1486 0.961 . S
H1501 C1487 0.958 . S
H1502 C1487 0.961 . S
H1503 C1487 0.960 . S
C1504 C1505 1.391 . S
C1504 C1506 1.394 . S
C1504 H1520 0.931 . S
C1505 C1504 1.391 . S
C1505 C1509 1.376 . S
C1506 C1504 1.394 . S
C1506 C1507 1.369 . S
C1506 C1510 1.531 . S
C1507 C1506 1.369 . S
C1507 C1508 1.410 . S
C1507 C1515 1.503 . S
C1508 C1507 1.410 . S
C1508 C1509 1.392 . S
C1508 C1511 1.511 . S
C1509 C1505 1.376 . S
C1509 C1508 1.392 . S
C1509 H1521 0.929 . S
C1510 C1506 1.531 . S
C1510 H1522 0.960 . S
C1510 H1523 0.962 . S
C1510 H1524 0.960 . S
C1511 C1508 1.511 . S
C1511 H1525 0.961 . S
C1511 H1526 0.961 . S
C1511 H1527 0.961 . S
C1512 C1513 1.370 . S
C1512 C1514 1.363 . S
C1512 H1528 0.931 . S
C1513 C1512 1.370 . S
C1513 C1517 1.408 . S
C1514 C1512 1.363 . S
C1514 C1515 1.370 . S
C1514 C1518 1.524 . S
C1515 C1507 1.503 . S
C1515 C1514 1.370 . S
C1515 C1516 1.403 . S
C1516 C1515 1.403 . S
C1516 C1517 1.404 . S
C1516 C1519 1.539 . S
C1517 C1513 1.408 . S
C1517 C1516 1.404 . S
C1517 H1529 0.930 . S
C1518 C1514 1.524 . S
C1518 H1530 0.956 . S
C1518 H1531 0.961 . S
C1518 H1532 0.961 . S
C1519 C1516 1.539 . S
C1519 H1533 0.958 . S
C1519 H1534 0.961 . S
C1519 H1535 0.960 . S
H1520 C1504 0.931 . S
H1521 C1509 0.929 . S
H1522 C1510 0.960 . S
H1523 C1510 0.962 . S
H1524 C1510 0.960 . S
H1525 C1511 0.961 . S
H1526 C1511 0.961 . S
H1527 C1511 0.961 . S
H1528 C1512 0.931 . S
H1529 C1517 0.930 . S
H1530 C1518 0.956 . S
H1531 C1518 0.961 . S
H1532 C1518 0.961 . S
H1533 C1519 0.958 . S
H1534 C1519 0.961 . S
H1535 C1519 0.960 . S
C1536 C1537 1.391 . S
C1536 C1538 1.394 . S
C1536 H1552 0.931 . S
C1537 C1536 1.391 . S
C1537 C1541 1.376 . S
C1538 C1536 1.394 . S
C1538 C1539 1.369 . S
C1538 C1542 1.531 . S
C1539 C1538 1.369 . S
C1539 C1540 1.410 . S
C1539 C1547 1.503 . S
C1540 C1539 1.410 . S
C1540 C1541 1.392 . S
C1540 C1543 1.511 . S
C1541 C1537 1.376 . S
C1541 C1540 1.392 . S
C1541 H1553 0.929 . S
C1542 C1538 1.531 . S
C1542 H1554 0.960 . S
C1542 H1555 0.962 . S
C1542 H1556 0.960 . S
C1543 C1540 1.511 . S
C1543 H1557 0.961 . S
C1543 H1558 0.961 . S
C1543 H1559 0.961 . S
C1544 C1545 1.370 . S
C1544 C1546 1.363 . S
C1544 H1560 0.931 . S
C1545 C1544 1.370 . S
C1545 C1549 1.408 . S
C1546 C1544 1.363 . S
C1546 C1547 1.370 . S
C1546 C1550 1.524 . S
C1547 C1539 1.503 . S
C1547 C1546 1.370 . S
C1547 C1548 1.403 . S
C1548 C1547 1.403 . S
C1548 C1549 1.404 . S
C1548 C1551 1.539 . S
C1549 C1545 1.408 . S
C1549 C1548 1.404 . S
C1549 H1561 0.930 . S
C1550 C1546 1.524 . S
C1550 H1562 0.956 . S
C1550 H1563 0.961 . S
C1550 H1564 0.961 . S
C1551 C1548 1.539 . S
C1551 H1565 0.958 . S
C1551 H1566 0.961 . S
C1551 H1567 0.960 . S
H1552 C1536 0.931 . S
H1553 C1541 0.929 . S
H1554 C1542 0.960 . S
H1555 C1542 0.962 . S
H1556 C1542 0.960 . S
H1557 C1543 0.961 . S
H1558 C1543 0.961 . S
H1559 C1543 0.961 . S
H1560 C1544 0.931 . S
H1561 C1549 0.930 . S
H1562 C1550 0.956 . S
H1563 C1550 0.961 . S
H1564 C1550 0.961 . S
H1565 C1551 0.958 . S
H1566 C1551 0.961 . S
H1567 C1551 0.960 . S
C1568 C1569 1.391 . S
C1568 C1570 1.394 . S
C1568 H1584 0.931 . S
C1569 C1568 1.391 . S
C1569 C1573 1.376 . S
C1570 C1568 1.394 . S
C1570 C1571 1.369 . S
C1570 C1574 1.531 . S
C1571 C1570 1.369 . S
C1571 C1572 1.410 . S
C1571 C1579 1.503 1_556 S
C1572 C1571 1.410 . S
C1572 C1573 1.392 . S
C1572 C1575 1.511 . S
C1573 C1569 1.376 . S
C1573 C1572 1.392 . S
C1573 H1585 0.929 . S
C1574 C1570 1.531 . S
C1574 H1586 0.960 1_556 S
C1574 H1587 0.962 . S
C1574 H1588 0.960 . S
C1575 C1572 1.511 . S
C1575 H1589 0.961 . S
C1575 H1590 0.961 . S
C1575 H1591 0.961 . S
C1576 C1577 1.370 . S
C1576 C1578 1.363 . S
C1576 H1592 0.931 . S
C1577 C1576 1.370 . S
C1577 C1581 1.408 . S
C1578 C1576 1.363 . S
C1578 C1579 1.370 . S
C1578 C1582 1.524 . S
C1579 C1571 1.503 1_554 S
C1579 C1578 1.370 . S
C1579 C1580 1.403 . S
C1580 C1579 1.403 . S
C1580 C1581 1.404 . S
C1580 C1583 1.539 . S
C1581 C1577 1.408 . S
C1581 C1580 1.404 . S
C1581 H1593 0.930 . S
C1582 C1578 1.524 . S
C1582 H1594 0.956 . S
C1582 H1595 0.943 1_554 S
C1582 H1596 0.961 . S
C1583 C1580 1.539 . S
C1583 H1597 0.958 . S
C1583 H1598 0.961 . S
C1583 H1599 0.960 1_554 S
H1584 C1568 0.931 . S
H1585 C1573 0.929 . S
H1586 C1574 0.960 1_554 S
H1587 C1574 0.962 . S
H1588 C1574 0.960 . S
H1589 C1575 0.961 . S
H1590 C1575 0.961 . S
H1591 C1575 0.961 . S
H1592 C1576 0.931 . S
H1593 C1581 0.930 . S
H1594 C1582 0.956 . S
H1595 C1582 0.943 1_556 S
H1596 C1582 0.961 . S
H1597 C1583 0.958 . S
H1598 C1583 0.961 . S
H1599 C1583 0.960 1_556 S
C1600 C1601 1.391 . S
C1600 C1602 1.394 . S
C1600 H1616 0.931 . S
C1601 C1600 1.391 . S
C1601 C1605 1.376 1_565 S
C1602 C1600 1.394 . S
C1602 C1603 1.369 . S
C1602 C1606 1.531 . S
C1603 C1602 1.369 . S
C1603 C1604 1.410 1_565 S
C1603 C1611 1.503 1_565 S
C1604 C1603 1.410 1_545 S
C1604 C1605 1.392 . S
C1604 C1607 1.521 . S
C1605 C1601 1.376 1_545 S
C1605 C1604 1.392 . S
C1605 H1617 0.929 . S
C1606 C1602 1.531 . S
C1606 H1618 0.960 . S
C1606 H1619 0.962 . S
C1606 H1620 0.960 . S
C1607 C1604 1.521 . S
C1607 H1621 0.967 . S
C1607 H1622 0.975 . S
C1607 H1623 0.931 1_455 S
C1608 C1609 1.370 . S
C1608 C1610 1.363 . S
C1608 H1624 0.931 . S
C1609 C1608 1.370 . S
C1609 C1613 1.408 1_445 S
C1610 C1608 1.363 . S
C1610 C1611 1.372 . S
C1610 C1614 1.524 . S
C1611 C1603 1.503 1_545 S
C1611 C1610 1.372 . S
C1611 C1612 1.402 1_445 S
C1612 C1611 1.402 1_665 S
C1612 C1613 1.404 . S
C1612 C1615 1.539 . S
C1613 C1609 1.408 1_665 S
C1613 C1612 1.404 . S
C1613 H1625 0.930 . S
C1614 C1610 1.524 . S
C1614 H1626 0.954 1_545 S
C1614 H1627 0.961 . S
C1614 H1628 0.961 . S
C1615 C1612 1.539 . S
C1615 H1629 0.958 . S
C1615 H1630 0.961 . S
C1615 H1631 0.960 . S
H1616 C1600 0.931 . S
H1617 C1605 0.929 . S
H1618 C1606 0.960 . S
H1619 C1606 0.962 . S
H1620 C1606 0.960 . S
H1621 C1607 0.967 . S
H1622 C1607 0.975 . S
H1623 C1607 0.931 1_655 S
H1624 C1608 0.931 . S
H1625 C1613 0.930 . S
H1626 C1614 0.954 1_565 S
H1627 C1614 0.961 . S
H1628 C1614 0.961 . S
H1629 C1615 0.958 . S
H1630 C1615 0.961 . S
H1631 C1615 0.960 . S
C1632 C1633 1.391 . S
C1632 C1634 1.394 . S
C1632 H1648 0.931 . S
C1633 C1632 1.391 . S
C1633 C1637 1.376 . S
C1634 C1632 1.394 . S
C1634 C1635 1.369 . S
C1634 C1638 1.531 . S
C1635 C1634 1.369 . S
C1635 C1636 1.410 . S
C1635 C1643 1.503 . S
C1636 C1635 1.410 . S
C1636 C1637 1.392 . S
C1636 C1639 1.511 . S
C1637 C1633 1.376 . S
C1637 C1636 1.392 . S
C1637 H1649 0.929 . S
C1638 C1634 1.531 . S
C1638 H1650 0.960 . S
C1638 H1651 0.962 . S
C1638 H1652 0.960 . S
C1639 C1636 1.511 . S
C1639 H1653 0.961 . S
C1639 H1654 0.961 . S
C1639 H1655 0.961 . S
C1640 C1641 1.370 . S
C1640 C1642 1.363 . S
C1640 H1656 0.931 . S
C1641 C1640 1.370 . S
C1641 C1645 1.408 . S
C1642 C1640 1.363 . S
C1642 C1643 1.370 . S
C1642 C1646 1.524 . S
C1643 C1635 1.503 . S
C1643 C1642 1.370 . S
C1643 C1644 1.403 . S
C1644 C1643 1.403 . S
C1644 C1645 1.404 . S
C1644 C1647 1.539 . S
C1645 C1641 1.408 . S
C1645 C1644 1.404 . S
C1645 H1657 0.930 . S
C1646 C1642 1.524 . S
C1646 H1658 0.956 . S
C1646 H1659 0.961 . S
C1646 H1660 0.961 . S
C1647 C1644 1.539 . S
C1647 H1661 0.958 . S
C1647 H1662 0.961 . S
C1647 H1663 0.960 . S
H1648 C1632 0.931 . S
H1649 C1637 0.929 . S
H1650 C1638 0.960 . S
H1651 C1638 0.962 . S
H1652 C1638 0.960 . S
H1653 C1639 0.961 . S
H1654 C1639 0.961 . S
H1655 C1639 0.961 . S
H1656 C1640 0.931 . S
H1657 C1645 0.930 . S
H1658 C1646 0.956 . S
H1659 C1646 0.961 . S
H1660 C1646 0.961 . S
H1661 C1647 0.958 . S
H1662 C1647 0.961 . S
H1663 C1647 0.960 . S
C1664 C1665 1.391 1_565 S
C1664 C1666 1.394 . S
C1664 H1680 0.931 . S
C1665 C1664 1.391 1_545 S
C1665 C1669 1.376 . S
C1666 C1664 1.394 . S
C1666 C1667 1.369 . S
C1666 C1670 1.531 . S
C1667 C1666 1.369 . S
C1667 C1668 1.410 1_565 S
C1667 C1675 1.503 . S
C1668 C1667 1.410 1_545 S
C1668 C1669 1.392 . S
C1668 C1671 1.511 . S
C1669 C1665 1.376 . S
C1669 C1668 1.392 . S
C1669 H1681 0.929 . S
C1670 C1666 1.531 . S
C1670 H1682 0.960 . S
C1670 H1683 0.962 . S
C1670 H1684 0.960 . S
C1671 C1668 1.511 . S
C1671 H1685 0.961 . S
C1671 H1686 0.961 . S
C1671 H1687 0.961 . S
C1672 C1673 1.370 1_545 S
C1672 C1674 1.363 . S
C1672 H1688 0.931 . S
C1673 C1672 1.370 1_565 S
C1673 C1677 1.408 . S
C1674 C1672 1.363 . S
C1674 C1675 1.370 1_545 S
C1674 C1678 1.524 . S
C1675 C1667 1.503 . S
C1675 C1674 1.370 1_565 S
C1675 C1676 1.403 . S
C1676 C1675 1.403 . S
C1676 C1677 1.404 . S
C1676 C1679 1.539 . S
C1677 C1673 1.408 . S
C1677 C1676 1.404 . S
C1677 H1689 0.930 . S
C1678 C1674 1.524 . S
C1678 H1690 0.956 . S
C1678 H1691 0.961 . S
C1678 H1692 0.961 . S
C1679 C1676 1.539 . S
C1679 H1693 0.958 . S
C1679 H1694 0.961 . S
C1679 H1695 0.960 . S
H1680 C1664 0.931 . S
H1681 C1669 0.929 . S
H1682 C1670 0.960 . S
H1683 C1670 0.962 . S
H1684 C1670 0.960 . S
H1685 C1671 0.961 . S
H1686 C1671 0.961 . S
H1687 C1671 0.961 . S
H1688 C1672 0.931 . S
H1689 C1677 0.930 . S
H1690 C1678 0.956 . S
H1691 C1678 0.961 . S
H1692 C1678 0.961 . S
H1693 C1679 0.958 . S
H1694 C1679 0.961 . S
H1695 C1679 0.960 . S
C1696 C1697 1.391 . S
C1696 C1698 1.394 . S
C1696 H1712 0.931 . S
C1697 C1696 1.391 . S
C1697 C1701 1.376 . S
C1698 C1696 1.394 . S
C1698 C1699 1.369 . S
C1698 C1702 1.531 . S
C1699 C1698 1.369 . S
C1699 C1700 1.410 . S
C1699 C1707 1.503 1_556 S
C1700 C1699 1.410 . S
C1700 C1701 1.392 . S
C1700 C1703 1.511 . S
C1701 C1697 1.376 . S
C1701 C1700 1.392 . S
C1701 H1713 0.929 . S
C1702 C1698 1.531 . S
C1702 H1714 0.923 1_556 S
C1702 H1715 0.962 . S
C1702 H1716 0.960 . S
C1703 C1700 1.511 . S
C1703 H1717 0.961 . S
C1703 H1718 0.961 1_556 S
C1703 H1719 0.961 . S
C1704 C1705 1.370 . S
C1704 C1706 1.363 . S
C1704 H1720 0.931 . S
C1705 C1704 1.370 . S
C1705 C1709 1.408 . S
C1706 C1704 1.363 . S
C1706 C1707 1.370 . S
C1706 C1710 1.524 . S
C1707 C1699 1.503 1_554 S
C1707 C1706 1.370 . S
C1707 C1708 1.403 . S
C1708 C1707 1.403 . S
C1708 C1709 1.404 . S
C1708 C1711 1.539 . S
C1709 C1705 1.408 . S
C1709 C1708 1.404 . S
C1709 H1721 0.930 . S
C1710 C1706 1.524 . S
C1710 H1722 0.956 . S
C1710 H1723 0.961 . S
C1710 H1724 0.961 . S
C1711 C1708 1.539 . S
C1711 H1725 0.958 . S
C1711 H1726 0.961 . S
C1711 H1727 0.960 1_554 S
H1712 C1696 0.931 . S
H1713 C1701 0.929 . S
H1714 C1702 0.923 1_554 S
H1715 C1702 0.962 . S
H1716 C1702 0.960 . S
H1717 C1703 0.961 . S
H1718 C1703 0.961 1_554 S
H1719 C1703 0.961 . S
H1720 C1704 0.931 . S
H1721 C1709 0.930 . S
H1722 C1710 0.956 . S
H1723 C1710 0.961 . S
H1724 C1710 0.961 . S
H1725 C1711 0.958 . S
H1726 C1711 0.961 . S
H1727 C1711 0.960 1_556 S
C1728 C1729 1.391 . S
C1728 C1730 1.394 . S
C1728 H1744 0.931 1_655 S
C1729 C1728 1.391 . S
C1729 C1733 1.375 1_565 S
C1730 C1728 1.394 . S
C1730 C1731 1.369 . S
C1730 C1734 1.531 1_655 S
C1731 C1730 1.369 . S
C1731 C1732 1.410 1_565 S
C1731 C1739 1.503 . S
C1732 C1731 1.410 1_545 S
C1732 C1733 1.392 . S
C1732 C1735 1.511 . S
C1733 C1729 1.375 1_545 S
C1733 C1732 1.392 . S
C1733 H1745 0.930 . S
C1734 C1730 1.531 1_455 S
C1734 H1746 0.960 . S
C1734 H1747 0.962 . S
C1734 H1748 0.960 . S
C1735 C1732 1.511 . S
C1735 H1749 0.961 . S
C1735 H1750 0.961 . S
C1735 H1751 0.941 1_545 S
C1736 C1737 1.370 . S
C1736 C1738 1.363 . S
C1736 H1752 0.931 . S
C1737 C1736 1.370 . S
C1737 C1741 1.408 1_545 S
C1738 C1736 1.363 . S
C1738 C1739 1.370 1_545 S
C1738 C1742 1.524 . S
C1739 C1731 1.503 . S
C1739 C1738 1.370 1_565 S
C1739 C1740 1.403 . S
C1740 C1739 1.403 . S
C1740 C1741 1.404 . S
C1740 C1743 1.539 . S
C1741 C1737 1.408 1_565 S
C1741 C1740 1.404 . S
C1741 H1753 0.930 . S
C1742 C1738 1.524 . S
C1742 H1754 0.956 1_655 S
C1742 H1755 0.961 . S
C1742 H1756 0.958 1_655 S
C1743 C1740 1.539 . S
C1743 H1757 0.958 . S
C1743 H1758 0.961 . S
C1743 H1759 0.960 . S
H1744 C1728 0.931 1_455 S
H1745 C1733 0.930 . S
H1746 C1734 0.960 . S
H1747 C1734 0.962 . S
H1748 C1734 0.960 . S
H1749 C1735 0.961 . S
H1750 C1735 0.961 . S
H1751 C1735 0.941 1_565 S
H1752 C1736 0.931 . S
H1753 C1741 0.930 . S
H1754 C1742 0.956 1_455 S
H1755 C1742 0.961 . S
H1756 C1742 0.958 1_455 S
H1757 C1743 0.958 . S
H1758 C1743 0.961 . S
H1759 C1743 0.960 . S
C1760 C1761 1.391 . S
C1760 C1762 1.394 . S
C1760 H1776 0.931 . S
C1761 C1760 1.391 . S
C1761 C1765 1.376 . S
C1762 C1760 1.394 . S
C1762 C1763 1.369 . S
C1762 C1766 1.531 . S
C1763 C1762 1.369 . S
C1763 C1764 1.410 . S
C1763 C1771 1.503 . S
C1764 C1763 1.410 . S
C1764 C1765 1.392 . S
C1764 C1767 1.511 . S
C1765 C1761 1.376 . S
C1765 C1764 1.392 . S
C1765 H1777 0.929 . S
C1766 C1762 1.531 . S
C1766 H1778 0.960 . S
C1766 H1779 0.962 . S
C1766 H1780 0.960 . S
C1767 C1764 1.511 . S
C1767 H1781 0.961 . S
C1767 H1782 0.961 . S
C1767 H1783 0.961 . S
C1768 C1769 1.370 . S
C1768 C1770 1.363 . S
C1768 H1784 0.931 . S
C1769 C1768 1.370 . S
C1769 C1773 1.408 . S
C1770 C1768 1.363 . S
C1770 C1771 1.370 . S
C1770 C1774 1.524 . S
C1771 C1763 1.503 . S
C1771 C1770 1.370 . S
C1771 C1772 1.403 . S
C1772 C1771 1.403 . S
C1772 C1773 1.404 . S
C1772 C1775 1.539 . S
C1773 C1769 1.408 . S
C1773 C1772 1.404 . S
C1773 H1785 0.930 . S
C1774 C1770 1.524 . S
C1774 H1786 0.956 . S
C1774 H1787 0.961 . S
C1774 H1788 0.961 . S
C1775 C1772 1.539 . S
C1775 H1789 0.958 . S
C1775 H1790 0.961 . S
C1775 H1791 0.960 . S
H1776 C1760 0.931 . S
H1777 C1765 0.929 . S
H1778 C1766 0.960 . S
H1779 C1766 0.962 . S
H1780 C1766 0.960 . S
H1781 C1767 0.961 . S
H1782 C1767 0.961 . S
H1783 C1767 0.961 . S
H1784 C1768 0.931 . S
H1785 C1773 0.930 . S
H1786 C1774 0.956 . S
H1787 C1774 0.961 . S
H1788 C1774 0.961 . S
H1789 C1775 0.958 . S
H1790 C1775 0.961 . S
H1791 C1775 0.960 . S
C1792 C1793 1.391 1_565 S
C1792 C1794 1.394 . S
C1792 H1808 0.931 . S
C1793 C1792 1.391 1_545 S
C1793 C1797 1.376 . S
C1794 C1792 1.394 . S
C1794 C1795 1.369 . S
C1794 C1798 1.531 . S
C1795 C1794 1.369 . S
C1795 C1796 1.410 1_565 S
C1795 C1803 1.503 . S
C1796 C1795 1.410 1_545 S
C1796 C1797 1.392 . S
C1796 C1799 1.511 . S
C1797 C1793 1.376 . S
C1797 C1796 1.392 . S
C1797 H1809 0.929 . S
C1798 C1794 1.531 . S
C1798 H1810 0.960 . S
C1798 H1811 0.962 . S
C1798 H1812 0.960 . S
C1799 C1796 1.511 . S
C1799 H1813 0.961 . S
C1799 H1814 0.961 . S
C1799 H1815 0.961 . S
C1800 C1801 1.370 1_545 S
C1800 C1802 1.363 . S
C1800 H1816 0.931 . S
C1801 C1800 1.370 1_565 S
C1801 C1805 1.408 . S
C1802 C1800 1.363 . S
C1802 C1803 1.370 1_545 S
C1802 C1806 1.524 . S
C1803 C1795 1.503 . S
C1803 C1802 1.370 1_565 S
C1803 C1804 1.403 . S
C1804 C1803 1.403 . S
C1804 C1805 1.404 . S
C1804 C1807 1.539 . S
C1805 C1801 1.408 . S
C1805 C1804 1.404 . S
C1805 H1817 0.930 . S
C1806 C1802 1.524 . S
C1806 H1818 0.956 . S
C1806 H1819 0.961 . S
C1806 H1820 0.961 . S
C1807 C1804 1.539 . S
C1807 H1821 0.958 . S
C1807 H1822 0.961 . S
C1807 H1823 0.960 . S
H1808 C1792 0.931 . S
H1809 C1797 0.929 . S
H1810 C1798 0.960 . S
H1811 C1798 0.962 . S
H1812 C1798 0.960 . S
H1813 C1799 0.961 . S
H1814 C1799 0.961 . S
H1815 C1799 0.961 . S
H1816 C1800 0.931 . S
H1817 C1805 0.930 . S
H1818 C1806 0.956 . S
H1819 C1806 0.961 . S
H1820 C1806 0.961 . S
H1821 C1807 0.958 . S
H1822 C1807 0.961 . S
H1823 C1807 0.960 . S
C1824 C1825 1.391 . S
C1824 C1826 1.394 . S
C1824 H1840 0.931 . S
C1825 C1824 1.391 . S
C1825 C1829 1.376 . S
C1826 C1824 1.394 . S
C1826 C1827 1.369 . S
C1826 C1830 1.531 . S
C1827 C1826 1.369 . S
C1827 C1828 1.410 . S
C1827 C1835 1.503 . S
C1828 C1827 1.410 . S
C1828 C1829 1.392 . S
C1828 C1831 1.511 . S
C1829 C1825 1.376 . S
C1829 C1828 1.392 . S
C1829 H1841 0.929 . S
C1830 C1826 1.531 . S
C1830 H1842 0.960 . S
C1830 H1843 0.962 . S
C1830 H1844 0.960 . S
C1831 C1828 1.511 . S
C1831 H1845 0.961 . S
C1831 H1846 0.961 . S
C1831 H1847 0.961 . S
C1832 C1833 1.370 . S
C1832 C1834 1.363 . S
C1832 H1848 0.931 . S
C1833 C1832 1.370 . S
C1833 C1837 1.408 . S
C1834 C1832 1.363 . S
C1834 C1835 1.370 . S
C1834 C1838 1.524 . S
C1835 C1827 1.503 . S
C1835 C1834 1.370 . S
C1835 C1836 1.403 . S
C1836 C1835 1.403 . S
C1836 C1837 1.404 . S
C1836 C1839 1.539 . S
C1837 C1833 1.408 . S
C1837 C1836 1.404 . S
C1837 H1849 0.930 . S
C1838 C1834 1.524 . S
C1838 H1850 0.956 . S
C1838 H1851 0.961 . S
C1838 H1852 0.961 . S
C1839 C1836 1.539 . S
C1839 H1853 0.958 . S
C1839 H1854 0.961 . S
C1839 H1855 0.960 . S
H1840 C1824 0.931 . S
H1841 C1829 0.929 . S
H1842 C1830 0.960 . S
H1843 C1830 0.962 . S
H1844 C1830 0.960 . S
H1845 C1831 0.961 . S
H1846 C1831 0.961 . S
H1847 C1831 0.961 . S
H1848 C1832 0.931 . S
H1849 C1837 0.930 . S
H1850 C1838 0.956 . S
H1851 C1838 0.961 . S
H1852 C1838 0.961 . S
H1853 C1839 0.958 . S
H1854 C1839 0.961 . S
H1855 C1839 0.960 . S
C1856 C1857 1.391 . S
C1856 C1858 1.394 . S
C1856 H1872 0.931 . S
C1857 C1856 1.391 . S
C1857 C1861 1.376 . S
C1858 C1856 1.394 . S
C1858 C1859 1.369 . S
C1858 C1862 1.531 . S
C1859 C1858 1.369 . S
C1859 C1860 1.410 . S
C1859 C1867 1.503 . S
C1860 C1859 1.410 . S
C1860 C1861 1.392 . S
C1860 C1863 1.511 . S
C1861 C1857 1.376 . S
C1861 C1860 1.392 . S
C1861 H1873 0.929 . S
C1862 C1858 1.531 . S
C1862 H1874 0.960 . S
C1862 H1875 0.962 . S
C1862 H1876 0.960 . S
C1863 C1860 1.511 . S
C1863 H1877 0.961 . S
C1863 H1878 0.961 . S
C1863 H1879 0.961 . S
C1864 C1865 1.370 . S
C1864 C1866 1.363 . S
C1864 H1880 0.931 . S
C1865 C1864 1.370 . S
C1865 C1869 1.408 . S
C1866 C1864 1.363 . S
C1866 C1867 1.370 . S
C1866 C1870 1.524 . S
C1867 C1859 1.503 . S
C1867 C1866 1.370 . S
C1867 C1868 1.403 . S
C1868 C1867 1.403 . S
C1868 C1869 1.404 . S
C1868 C1871 1.539 . S
C1869 C1865 1.408 . S
C1869 C1868 1.404 . S
C1869 H1881 0.930 . S
C1870 C1866 1.524 . S
C1870 H1882 0.956 . S
C1870 H1883 0.961 . S
C1870 H1884 0.961 . S
C1871 C1868 1.539 . S
C1871 H1885 0.958 . S
C1871 H1886 0.961 . S
C1871 H1887 0.960 . S
H1872 C1856 0.931 . S
H1873 C1861 0.929 . S
H1874 C1862 0.960 . S
H1875 C1862 0.962 . S
H1876 C1862 0.960 . S
H1877 C1863 0.961 . S
H1878 C1863 0.961 . S
H1879 C1863 0.961 . S
H1880 C1864 0.931 . S
H1881 C1869 0.930 . S
H1882 C1870 0.956 . S
H1883 C1870 0.961 . S
H1884 C1870 0.961 . S
H1885 C1871 0.958 . S
H1886 C1871 0.961 . S
H1887 C1871 0.960 . S
C1888 C1889 1.391 . S
C1888 C1890 1.394 . S
C1888 H1904 0.931 . S
C1889 C1888 1.391 . S
C1889 C1893 1.376 . S
C1890 C1888 1.394 . S
C1890 C1891 1.369 . S
C1890 C1894 1.531 . S
C1891 C1890 1.369 . S
C1891 C1892 1.410 . S
C1891 C1899 1.503 1_556 S
C1892 C1891 1.410 . S
C1892 C1893 1.392 . S
C1892 C1895 1.511 . S
C1893 C1889 1.376 . S
C1893 C1892 1.392 . S
C1893 H1905 0.929 . S
C1894 C1890 1.531 . S
C1894 H1906 0.956 . S
C1894 H1907 0.962 . S
C1894 H1908 0.960 . S
C1895 C1892 1.511 . S
C1895 H1909 0.961 . S
C1895 H1910 0.961 1_556 S
C1895 H1911 0.961 . S
C1896 C1897 1.370 . S
C1896 C1898 1.363 . S
C1896 H1912 0.931 . S
C1897 C1896 1.370 . S
C1897 C1901 1.408 . S
C1898 C1896 1.363 . S
C1898 C1899 1.370 . S
C1898 C1902 1.524 . S
C1899 C1891 1.503 1_554 S
C1899 C1898 1.370 . S
C1899 C1900 1.403 . S
C1900 C1899 1.403 . S
C1900 C1901 1.404 . S
C1900 C1903 1.539 . S
C1901 C1897 1.408 . S
C1901 C1900 1.404 . S
C1901 H1913 0.930 . S
C1902 C1898 1.524 . S
C1902 H1914 0.956 1_554 S
C1902 H1915 0.961 1_554 S
C1902 H1916 0.961 . S
C1903 C1900 1.539 . S
C1903 H1917 0.958 . S
C1903 H1918 0.961 . S
C1903 H1919 0.960 . S
H1904 C1888 0.931 . S
H1905 C1893 0.929 . S
H1906 C1894 0.956 . S
H1907 C1894 0.962 . S
H1908 C1894 0.960 . S
H1909 C1895 0.961 . S
H1910 C1895 0.961 1_554 S
H1911 C1895 0.961 . S
H1912 C1896 0.931 . S
H1913 C1901 0.930 . S
H1914 C1902 0.956 1_556 S
H1915 C1902 0.961 1_556 S
H1916 C1902 0.961 . S
H1917 C1903 0.958 . S
H1918 C1903 0.961 . S
H1919 C1903 0.960 . S
C1920 C1921 1.391 . S
C1920 C1922 1.394 . S
C1920 H1936 0.931 . S
C1921 C1920 1.391 . S
C1921 C1925 1.376 . S
C1922 C1920 1.394 . S
C1922 C1923 1.369 . S
C1922 C1926 1.531 . S
C1923 C1922 1.369 . S
C1923 C1924 1.410 . S
C1923 C1931 1.503 . S
C1924 C1923 1.410 . S
C1924 C1925 1.392 . S
C1924 C1927 1.504 1_655 S
C1925 C1921 1.376 . S
C1925 C1924 1.392 . S
C1925 H1937 0.929 . S
C1926 C1922 1.531 . S
C1926 H1938 0.960 . S
C1926 H1939 0.962 . S
C1926 H1940 0.960 . S
C1927 C1924 1.504 1_455 S
C1927 H1941 0.957 1_455 S
C1927 H1942 0.952 1_455 S
C1927 H1943 0.981 . S
C1928 C1929 1.370 . S
C1928 C1930 1.363 . S
C1928 H1944 0.931 . S
C1929 C1928 1.370 . S
C1929 C1933 1.408 1_655 S
C1930 C1928 1.363 . S
C1930 C1931 1.370 . S
C1930 C1934 1.524 . S
C1931 C1923 1.503 . S
C1931 C1930 1.370 . S
C1931 C1932 1.403 1_655 S
C1932 C1931 1.403 1_455 S
C1932 C1933 1.404 . S
C1932 C1935 1.539 . S
C1933 C1929 1.408 1_455 S
C1933 C1932 1.404 . S
C1933 H1945 0.930 . S
C1934 C1930 1.524 . S
C1934 H1946 0.956 . S
C1934 H1947 0.961 . S
C1934 H1948 0.961 . S
C1935 C1932 1.539 . S
C1935 H1949 0.958 . S
C1935 H1950 0.961 . S
C1935 H1951 0.960 . S
H1936 C1920 0.931 . S
H1937 C1925 0.929 . S
H1938 C1926 0.960 . S
H1939 C1926 0.962 . S
H1940 C1926 0.960 . S
H1941 C1927 0.957 1_655 S
H1942 C1927 0.952 1_655 S
H1943 C1927 0.981 . S
H1944 C1928 0.931 . S
H1945 C1933 0.930 . S
H1946 C1934 0.956 . S
H1947 C1934 0.961 . S
H1948 C1934 0.961 . S
H1949 C1935 0.958 . S
H1950 C1935 0.961 . S
H1951 C1935 0.960 . S
C1952 C1953 1.391 . S
C1952 C1954 1.394 . S
C1952 H1968 0.931 . S
C1953 C1952 1.391 . S
C1953 C1957 1.376 . S
C1954 C1952 1.394 . S
C1954 C1955 1.369 . S
C1954 C1958 1.531 . S
C1955 C1954 1.369 . S
C1955 C1956 1.410 . S
C1955 C1963 1.503 . S
C1956 C1955 1.410 . S
C1956 C1957 1.392 . S
C1956 C1959 1.511 . S
C1957 C1953 1.376 . S
C1957 C1956 1.392 . S
C1957 H1969 0.929 . S
C1958 C1954 1.531 . S
C1958 H1970 0.960 . S
C1958 H1971 0.962 . S
C1958 H1972 0.960 . S
C1959 C1956 1.511 . S
C1959 H1973 0.961 . S
C1959 H1974 0.961 . S
C1959 H1975 0.961 . S
C1960 C1961 1.370 . S
C1960 C1962 1.363 . S
C1960 H1976 0.931 . S
C1961 C1960 1.370 . S
C1961 C1965 1.408 . S
C1962 C1960 1.363 . S
C1962 C1963 1.370 . S
C1962 C1966 1.524 . S
C1963 C1955 1.503 . S
C1963 C1962 1.370 . S
C1963 C1964 1.403 . S
C1964 C1963 1.403 . S
C1964 C1965 1.404 . S
C1964 C1967 1.539 . S
C1965 C1961 1.408 . S
C1965 C1964 1.404 . S
C1965 H1977 0.930 . S
C1966 C1962 1.524 . S
C1966 H1978 0.956 . S
C1966 H1979 0.961 . S
C1966 H1980 0.961 . S
C1967 C1964 1.539 . S
C1967 H1981 0.958 . S
C1967 H1982 0.961 . S
C1967 H1983 0.960 . S
H1968 C1952 0.931 . S
H1969 C1957 0.929 . S
H1970 C1958 0.960 . S
H1971 C1958 0.962 . S
H1972 C1958 0.960 . S
H1973 C1959 0.961 . S
H1974 C1959 0.961 . S
H1975 C1959 0.961 . S
H1976 C1960 0.931 . S
H1977 C1965 0.930 . S
H1978 C1966 0.956 . S
H1979 C1966 0.961 . S
H1980 C1966 0.961 . S
H1981 C1967 0.958 . S
H1982 C1967 0.961 . S
H1983 C1967 0.960 . S
C1984 C1985 1.391 . S
C1984 C1986 1.394 . S
C1984 H2000 0.931 . S
C1985 C1984 1.391 . S
C1985 C1989 1.376 . S
C1986 C1984 1.394 . S
C1986 C1987 1.369 . S
C1986 C1990 1.531 . S
C1987 C1986 1.369 . S
C1987 C1988 1.410 . S
C1987 C1995 1.503 . S
C1988 C1987 1.410 . S
C1988 C1989 1.392 . S
C1988 C1991 1.511 . S
C1989 C1985 1.376 . S
C1989 C1988 1.392 . S
C1989 H2001 0.929 . S
C1990 C1986 1.531 . S
C1990 H2002 0.960 . S
C1990 H2003 0.962 . S
C1990 H2004 0.960 . S
C1991 C1988 1.511 . S
C1991 H2005 0.961 . S
C1991 H2006 0.961 . S
C1991 H2007 0.961 . S
C1992 C1993 1.370 . S
C1992 C1994 1.363 . S
C1992 H2008 0.931 . S
C1993 C1992 1.370 . S
C1993 C1997 1.408 . S
C1994 C1992 1.363 . S
C1994 C1995 1.370 . S
C1994 C1998 1.524 . S
C1995 C1987 1.503 . S
C1995 C1994 1.370 . S
C1995 C1996 1.403 . S
C1996 C1995 1.403 . S
C1996 C1997 1.404 . S
C1996 C1999 1.539 . S
C1997 C1993 1.408 . S
C1997 C1996 1.404 . S
C1997 H2009 0.930 . S
C1998 C1994 1.524 . S
C1998 H2010 0.956 . S
C1998 H2011 0.961 . S
C1998 H2012 0.961 . S
C1999 C1996 1.539 . S
C1999 H2013 0.958 . S
C1999 H2014 0.961 . S
C1999 H2015 0.960 . S
H2000 C1984 0.931 . S
H2001 C1989 0.929 . S
H2002 C1990 0.960 . S
H2003 C1990 0.962 . S
H2004 C1990 0.960 . S
H2005 C1991 0.961 . S
H2006 C1991 0.961 . S
H2007 C1991 0.961 . S
H2008 C1992 0.931 . S
H2009 C1997 0.930 . S
H2010 C1998 0.956 . S
H2011 C1998 0.961 . S
H2012 C1998 0.961 . S
H2013 C1999 0.958 . S
H2014 C1999 0.961 . S
H2015 C1999 0.960 . S
C2016 C2017 1.391 . S
C2016 C2018 1.394 . S
C2016 H2032 0.931 . S
C2017 C2016 1.391 . S
C2017 C2021 1.376 . S
C2018 C2016 1.394 . S
C2018 C2019 1.369 . S
C2018 C2022 1.531 . S
C2019 C2018 1.369 . S
C2019 C2020 1.410 . S
C2019 C2027 1.503 1_554 S
C2020 C2019 1.410 . S
C2020 C2021 1.392 . S
C2020 C2023 1.511 . S
C2021 C2017 1.376 . S
C2021 C2020 1.392 . S
C2021 H2033 0.929 . S
C2022 C2018 1.531 . S
C2022 H2034 1.039 . S
C2022 H2035 0.962 . S
C2022 H2036 0.960 . S
C2023 C2020 1.511 . S
C2023 H2037 0.961 . S
C2023 H2038 0.961 1_554 S
C2023 H2039 0.961 . S
C2024 C2025 1.370 . S
C2024 C2026 1.363 . S
C2024 H2040 0.931 . S
C2025 C2024 1.370 . S
C2025 C2029 1.408 . S
C2026 C2024 1.363 . S
C2026 C2027 1.370 . S
C2026 C2030 1.524 . S
C2027 C2019 1.503 1_556 S
C2027 C2026 1.370 . S
C2027 C2028 1.403 . S
C2028 C2027 1.403 . S
C2028 C2029 1.404 . S
C2028 C2031 1.539 . S
C2029 C2025 1.408 . S
C2029 C2028 1.404 . S
C2029 H2041 0.930 . S
C2030 C2026 1.524 . S
C2030 H2042 0.956 1_556 S
C2030 H2043 0.961 1_556 S
C2030 H2044 0.961 . S
C2031 C2028 1.539 . S
C2031 H2045 0.958 . S
C2031 H2046 0.961 . S
C2031 H2047 0.960 . S
H2032 C2016 0.931 . S
H2033 C2021 0.929 . S
H2034 C2022 1.039 . S
H2035 C2022 0.962 . S
H2036 C2022 0.960 . S
H2037 C2023 0.961 . S
H2038 C2023 0.961 1_556 S
H2039 C2023 0.961 . S
H2040 C2024 0.931 . S
H2041 C2029 0.930 . S
H2042 C2030 0.956 1_554 S
H2043 C2030 0.961 1_554 S
H2044 C2030 0.961 . S
H2045 C2031 0.958 . S
H2046 C2031 0.961 . S
H2047 C2031 0.960 . S
C2048 C2049 1.391 . S
C2048 C2050 1.394 . S
C2048 H2064 0.931 1_455 S
C2049 C2048 1.391 . S
C2049 C2053 1.376 . S
C2050 C2048 1.394 . S
C2050 C2051 1.369 . S
C2050 C2054 1.531 1_455 S
C2051 C2050 1.369 . S
C2051 C2052 1.410 . S
C2051 C2059 1.503 . S
C2052 C2051 1.410 . S
C2052 C2053 1.392 . S
C2052 C2055 1.511 . S
C2053 C2049 1.376 . S
C2053 C2052 1.392 . S
C2053 H2065 0.929 . S
C2054 C2050 1.531 1_655 S
C2054 H2066 0.960 . S
C2054 H2067 0.962 . S
C2054 H2068 0.960 . S
C2055 C2052 1.511 . S
C2055 H2069 0.961 . S
C2055 H2070 0.961 . S
C2055 H2071 0.961 . S
C2056 C2057 1.370 . S
C2056 C2058 1.363 . S
C2056 H2072 0.931 . S
C2057 C2056 1.370 . S
C2057 C2061 1.408 . S
C2058 C2056 1.363 . S
C2058 C2059 1.370 . S
C2058 C2062 1.524 1_455 S
C2059 C2051 1.503 . S
C2059 C2058 1.370 . S
C2059 C2060 1.403 . S
C2060 C2059 1.403 . S
C2060 C2061 1.404 . S
C2060 C2063 1.539 . S
C2061 C2057 1.408 . S
C2061 C2060 1.404 . S
C2061 H2073 0.930 . S
C2062 C2058 1.524 1_655 S
C2062 H2074 0.956 . S
C2062 H2075 0.961 1_655 S
C2062 H2076 0.961 . S
C2063 C2060 1.539 . S
C2063 H2077 0.958 . S
C2063 H2078 0.961 . S
C2063 H2079 0.960 . S
H2064 C2048 0.931 1_655 S
H2065 C2053 0.929 . S
H2066 C2054 0.960 . S
H2067 C2054 0.962 . S
H2068 C2054 0.960 . S
H2069 C2055 0.961 . S
H2070 C2055 0.961 . S
H2071 C2055 0.961 . S
H2072 C2056 0.931 . S
H2073 C2061 0.930 . S
H2074 C2062 0.956 . S
H2075 C2062 0.961 1_455 S
H2076 C2062 0.961 . S
H2077 C2063 0.958 . S
H2078 C2063 0.961 . S
H2079 C2063 0.960 . S
C2080 C2081 1.391 . S
C2080 C2082 1.394 . S
C2080 H2096 0.931 . S
C2081 C2080 1.391 . S
C2081 C2085 1.376 . S
C2082 C2080 1.394 . S
C2082 C2083 1.369 . S
C2082 C2086 1.531 . S
C2083 C2082 1.369 . S
C2083 C2084 1.410 . S
C2083 C2091 1.503 . S
C2084 C2083 1.410 . S
C2084 C2085 1.392 . S
C2084 C2087 1.511 . S
C2085 C2081 1.376 . S
C2085 C2084 1.392 . S
C2085 H2097 0.929 . S
C2086 C2082 1.531 . S
C2086 H2098 0.960 . S
C2086 H2099 0.962 . S
C2086 H2100 0.960 . S
C2087 C2084 1.511 . S
C2087 H2101 0.961 . S
C2087 H2102 0.961 . S
C2087 H2103 0.961 . S
C2088 C2089 1.370 . S
C2088 C2090 1.363 1_545 S
C2088 H2104 0.931 . S
C2089 C2088 1.370 . S
C2089 C2093 1.408 . S
C2090 C2088 1.363 1_565 S
C2090 C2091 1.370 . S
C2090 C2094 1.524 . S
C2091 C2083 1.503 . S
C2091 C2090 1.370 . S
C2091 C2092 1.403 . S
C2092 C2091 1.403 . S
C2092 C2093 1.404 1_565 S
C2092 C2095 1.539 . S
C2093 C2089 1.408 . S
C2093 C2092 1.404 1_545 S
C2093 H2105 0.930 . S
C2094 C2090 1.524 . S
C2094 H2106 0.956 . S
C2094 H2107 0.961 . S
C2094 H2108 0.961 . S
C2095 C2092 1.539 . S
C2095 H2109 0.958 . S
C2095 H2110 0.961 . S
C2095 H2111 0.960 . S
H2096 C2080 0.931 . S
H2097 C2085 0.929 . S
H2098 C2086 0.960 . S
H2099 C2086 0.962 . S
H2100 C2086 0.960 . S
H2101 C2087 0.961 . S
H2102 C2087 0.961 . S
H2103 C2087 0.961 . S
H2104 C2088 0.931 . S
H2105 C2093 0.930 . S
H2106 C2094 0.956 . S
H2107 C2094 0.961 . S
H2108 C2094 0.961 . S
H2109 C2095 0.958 . S
H2110 C2095 0.961 . S
H2111 C2095 0.960 . S
C2112 C2113 1.391 . S
C2112 C2114 1.394 . S
C2112 H2128 0.931 . S
C2113 C2112 1.391 . S
C2113 C2117 1.376 . S
C2114 C2112 1.394 . S
C2114 C2115 1.369 . S
C2114 C2118 1.531 . S
C2115 C2114 1.369 . S
C2115 C2116 1.410 . S
C2115 C2123 1.503 . S
C2116 C2115 1.410 . S
C2116 C2117 1.392 . S
C2116 C2119 1.511 1_545 S
C2117 C2113 1.376 . S
C2117 C2116 1.392 . S
C2117 H2129 0.929 1_545 S
C2118 C2114 1.531 . S
C2118 H2130 0.960 . S
C2118 H2131 0.962 . S
C2118 H2132 0.960 . S
C2119 C2116 1.511 1_565 S
C2119 H2133 0.961 . S
C2119 H2134 0.961 . S
C2119 H2135 0.961 1_565 S
C2120 C2121 1.370 1_565 S
C2120 C2122 1.363 . S
C2120 H2136 0.931 . S
C2121 C2120 1.370 1_545 S
C2121 C2125 1.408 . S
C2122 C2120 1.363 . S
C2122 C2123 1.370 1_565 S
C2122 C2126 1.524 . S
C2123 C2115 1.503 . S
C2123 C2122 1.370 1_545 S
C2123 C2124 1.403 . S
C2124 C2123 1.403 . S
C2124 C2125 1.404 . S
C2124 C2127 1.539 . S
C2125 C2121 1.408 . S
C2125 C2124 1.404 . S
C2125 H2137 0.930 . S
C2126 C2122 1.524 . S
C2126 H2138 0.956 . S
C2126 H2139 0.961 . S
C2126 H2140 0.961 . S
C2127 C2124 1.539 . S
C2127 H2141 0.958 . S
C2127 H2142 0.961 . S
C2127 H2143 0.960 . S
H2128 C2112 0.931 . S
H2129 C2117 0.929 1_565 S
H2130 C2118 0.960 . S
H2131 C2118 0.962 . S
H2132 C2118 0.960 . S
H2133 C2119 0.961 . S
H2134 C2119 0.961 . S
H2135 C2119 0.961 1_545 S
H2136 C2120 0.931 . S
H2137 C2125 0.930 . S
H2138 C2126 0.956 . S
H2139 C2126 0.961 . S
H2140 C2126 0.961 . S
H2141 C2127 0.958 . S
H2142 C2127 0.961 . S
H2143 C2127 0.960 . S
C2144 C2145 1.391 . S
C2144 C2146 1.394 . S
C2144 H2160 0.931 . S
C2145 C2144 1.391 . S
C2145 C2149 1.376 . S
C2146 C2144 1.394 . S
C2146 C2147 1.369 . S
C2146 C2150 1.531 . S
C2147 C2146 1.369 . S
C2147 C2148 1.410 . S
C2147 C2155 1.503 . S
C2148 C2147 1.410 . S
C2148 C2149 1.392 . S
C2148 C2151 1.511 . S
C2149 C2145 1.376 . S
C2149 C2148 1.392 . S
C2149 H2161 0.929 . S
C2150 C2146 1.531 . S
C2150 H2162 0.960 . S
C2150 H2163 0.962 . S
C2150 H2164 0.960 . S
C2151 C2148 1.511 . S
C2151 H2165 0.961 . S
C2151 H2166 0.961 . S
C2151 H2167 0.961 . S
C2152 C2153 1.370 . S
C2152 C2154 1.363 1_565 S
C2152 H2168 0.931 . S
C2153 C2152 1.370 . S
C2153 C2157 1.408 . S
C2154 C2152 1.363 1_545 S
C2154 C2155 1.370 . S
C2154 C2158 1.524 . S
C2155 C2147 1.503 . S
C2155 C2154 1.370 . S
C2155 C2156 1.403 . S
C2156 C2155 1.403 . S
C2156 C2157 1.404 1_545 S
C2156 C2159 1.539 . S
C2157 C2153 1.408 . S
C2157 C2156 1.404 1_565 S
C2157 H2169 0.930 . S
C2158 C2154 1.524 . S
C2158 H2170 0.956 . S
C2158 H2171 0.961 . S
C2158 H2172 0.961 . S
C2159 C2156 1.539 . S
C2159 H2173 0.958 . S
C2159 H2174 0.961 . S
C2159 H2175 0.960 . S
H2160 C2144 0.931 . S
H2161 C2149 0.929 . S
H2162 C2150 0.960 . S
H2163 C2150 0.962 . S
H2164 C2150 0.960 . S
H2165 C2151 0.961 . S
H2166 C2151 0.961 . S
H2167 C2151 0.961 . S
H2168 C2152 0.931 . S
H2169 C2157 0.930 . S
H2170 C2158 0.956 . S
H2171 C2158 0.961 . S
H2172 C2158 0.961 . S
H2173 C2159 0.958 . S
H2174 C2159 0.961 . S
H2175 C2159 0.960 . S
C2176 C2177 1.397 . S
C2176 C2178 1.393 1_565 S
C2176 H2192 0.926 1_565 S
C2177 C2176 1.397 . S
C2177 C2181 1.376 . S
C2178 C2176 1.393 1_545 S
C2178 C2179 1.369 1_545 S
C2178 C2182 1.531 . S
C2179 C2178 1.369 1_565 S
C2179 C2180 1.410 . S
C2179 C2187 1.503 . S
C2180 C2179 1.410 . S
C2180 C2181 1.392 . S
C2180 C2183 1.511 . S
C2181 C2177 1.376 . S
C2181 C2180 1.392 . S
C2181 H2193 0.929 . S
C2182 C2178 1.531 . S
C2182 H2194 0.960 . S
C2182 H2195 0.962 1_545 S
C2182 H2196 0.960 . S
C2183 C2180 1.511 . S
C2183 H2197 0.961 . S
C2183 H2198 0.961 . S
C2183 H2199 0.961 . S
C2184 C2185 1.370 . S
C2184 C2186 1.363 . S
C2184 H2200 0.931 . S
C2185 C2184 1.370 . S
C2185 C2189 1.408 1_565 S
C2186 C2184 1.363 . S
C2186 C2187 1.370 . S
C2186 C2190 1.524 . S
C2187 C2179 1.503 . S
C2187 C2186 1.370 . S
C2187 C2188 1.403 1_565 S
C2188 C2187 1.403 1_545 S
C2188 C2189 1.404 . S
C2188 C2191 1.539 . S
C2189 C2185 1.408 1_545 S
C2189 C2188 1.404 . S
C2189 H2201 0.930 . S
C2190 C2186 1.524 . S
C2190 H2202 0.956 . S
C2190 H2203 0.961 . S
C2190 H2204 0.961 . S
C2191 C2188 1.539 . S
C2191 H2205 0.958 . S
C2191 H2206 0.961 . S
C2191 H2207 0.960 . S
H2192 C2176 0.926 1_545 S
H2193 C2181 0.929 . S
H2194 C2182 0.960 . S
H2195 C2182 0.962 1_565 S
H2196 C2182 0.960 . S
H2197 C2183 0.961 . S
H2198 C2183 0.961 . S
H2199 C2183 0.961 . S
H2200 C2184 0.931 . S
H2201 C2189 0.930 . S
H2202 C2190 0.956 . S
H2203 C2190 0.961 . S
H2204 C2190 0.961 . S
H2205 C2191 0.958 . S
H2206 C2191 0.961 . S
H2207 C2191 0.960 . S
C2208 C2209 1.391 . S
C2208 C2210 1.394 . S
C2208 H2224 0.931 . S
C2209 C2208 1.391 . S
C2209 C2213 1.376 . S
C2210 C2208 1.394 . S
C2210 C2211 1.369 . S
C2210 C2214 1.531 . S
C2211 C2210 1.369 . S
C2211 C2212 1.410 . S
C2211 C2219 1.503 . S
C2212 C2211 1.410 . S
C2212 C2213 1.392 . S
C2212 C2215 1.511 . S
C2213 C2209 1.376 . S
C2213 C2212 1.392 . S
C2213 H2225 0.929 . S
C2214 C2210 1.531 . S
C2214 H2226 0.960 . S
C2214 H2227 0.962 . S
C2214 H2228 0.960 . S
C2215 C2212 1.511 . S
C2215 H2229 0.961 . S
C2215 H2230 0.961 . S
C2215 H2231 0.961 . S
C2216 C2217 1.370 . S
C2216 C2218 1.363 1_565 S
C2216 H2232 0.931 . S
C2217 C2216 1.370 . S
C2217 C2221 1.408 . S
C2218 C2216 1.363 1_545 S
C2218 C2219 1.370 . S
C2218 C2222 1.524 . S
C2219 C2211 1.503 . S
C2219 C2218 1.370 . S
C2219 C2220 1.403 . S
C2220 C2219 1.403 . S
C2220 C2221 1.404 1_545 S
C2220 C2223 1.539 . S
C2221 C2217 1.408 . S
C2221 C2220 1.404 1_565 S
C2221 H2233 0.930 . S
C2222 C2218 1.524 . S
C2222 H2234 0.956 . S
C2222 H2235 0.961 . S
C2222 H2236 0.961 . S
C2223 C2220 1.539 . S
C2223 H2237 0.958 . S
C2223 H2238 0.961 . S
C2223 H2239 0.960 . S
H2224 C2208 0.931 . S
H2225 C2213 0.929 . S
H2226 C2214 0.960 . S
H2227 C2214 0.962 . S
H2228 C2214 0.960 . S
H2229 C2215 0.961 . S
H2230 C2215 0.961 . S
H2231 C2215 0.961 . S
H2232 C2216 0.931 . S
H2233 C2221 0.930 . S
H2234 C2222 0.956 . S
H2235 C2222 0.961 . S
H2236 C2222 0.961 . S
H2237 C2223 0.958 . S
H2238 C2223 0.961 . S
H2239 C2223 0.960 . S
C2240 C2241 1.391 1_565 S
C2240 C2242 1.394 . S
C2240 H2256 0.931 . S
C2241 C2240 1.391 1_545 S
C2241 C2245 1.376 . S
C2242 C2240 1.394 . S
C2242 C2243 1.369 1_565 S
C2242 C2246 1.531 . S
C2243 C2242 1.369 1_545 S
C2243 C2244 1.410 . S
C2243 C2251 1.503 . S
C2244 C2243 1.410 . S
C2244 C2245 1.392 . S
C2244 C2247 1.511 . S
C2245 C2241 1.376 . S
C2245 C2244 1.392 . S
C2245 H2257 0.929 . S
C2246 C2242 1.531 . S
C2246 H2258 0.960 . S
C2246 H2259 0.962 . S
C2246 H2260 0.960 . S
C2247 C2244 1.511 . S
C2247 H2261 0.961 . S
C2247 H2262 0.961 . S
C2247 H2263 0.961 . S
C2248 C2249 1.370 . S
C2248 C2250 1.363 . S
C2248 H2264 0.931 . S
C2249 C2248 1.370 . S
C2249 C2253 1.408 . S
C2250 C2248 1.363 . S
C2250 C2251 1.370 . S
C2250 C2254 1.524 . S
C2251 C2243 1.503 . S
C2251 C2250 1.370 . S
C2251 C2252 1.403 . S
C2252 C2251 1.403 . S
C2252 C2253 1.404 . S
C2252 C2255 1.539 . S
C2253 C2249 1.408 . S
C2253 C2252 1.404 . S
C2253 H2265 0.930 . S
C2254 C2250 1.524 . S
C2254 H2266 0.956 1_545 S
C2254 H2267 0.961 . S
C2254 H2268 0.961 . S
C2255 C2252 1.539 . S
C2255 H2269 0.958 1_545 S
C2255 H2270 0.961 . S
C2255 H2271 0.960 . S
H2256 C2240 0.931 . S
H2257 C2245 0.929 . S
H2258 C2246 0.960 . S
H2259 C2246 0.962 . S
H2260 C2246 0.960 . S
H2261 C2247 0.961 . S
H2262 C2247 0.961 . S
H2263 C2247 0.961 . S
H2264 C2248 0.931 . S
H2265 C2253 0.930 . S
H2266 C2254 0.956 1_565 S
H2267 C2254 0.961 . S
H2268 C2254 0.961 . S
H2269 C2255 0.958 1_565 S
H2270 C2255 0.961 . S
H2271 C2255 0.960 . S
C2272 C2273 1.391 . S
C2272 C2274 1.394 . S
C2272 H2288 0.931 . S
C2273 C2272 1.391 . S
C2273 C2277 1.376 . S
C2274 C2272 1.394 . S
C2274 C2275 1.369 . S
C2274 C2278 1.531 . S
C2275 C2274 1.369 . S
C2275 C2276 1.410 . S
C2275 C2283 1.503 . S
C2276 C2275 1.410 . S
C2276 C2277 1.392 . S
C2276 C2279 1.511 . S
C2277 C2273 1.376 . S
C2277 C2276 1.392 . S
C2277 H2289 0.929 . S
C2278 C2274 1.531 . S
C2278 H2290 0.960 . S
C2278 H2291 0.962 . S
C2278 H2292 0.960 . S
C2279 C2276 1.511 . S
C2279 H2293 0.961 . S
C2279 H2294 0.961 . S
C2279 H2295 0.961 . S
C2280 C2281 1.370 . S
C2280 C2282 1.363 1_545 S
C2280 H2296 0.931 . S
C2281 C2280 1.370 . S
C2281 C2285 1.408 . S
C2282 C2280 1.363 1_565 S
C2282 C2283 1.370 . S
C2282 C2286 1.524 . S
C2283 C2275 1.503 . S
C2283 C2282 1.370 . S
C2283 C2284 1.403 . S
C2284 C2283 1.403 . S
C2284 C2285 1.404 1_565 S
C2284 C2287 1.539 . S
C2285 C2281 1.408 . S
C2285 C2284 1.404 1_545 S
C2285 H2297 0.930 . S
C2286 C2282 1.524 . S
C2286 H2298 0.956 . S
C2286 H2299 0.961 . S
C2286 H2300 0.961 . S
C2287 C2284 1.539 . S
C2287 H2301 0.958 . S
C2287 H2302 0.961 . S
C2287 H2303 0.960 . S
H2288 C2272 0.931 . S
H2289 C2277 0.929 . S
H2290 C2278 0.960 . S
H2291 C2278 0.962 . S
H2292 C2278 0.960 . S
H2293 C2279 0.961 . S
H2294 C2279 0.961 . S
H2295 C2279 0.961 . S
H2296 C2280 0.931 . S
H2297 C2285 0.930 . S
H2298 C2286 0.956 . S
H2299 C2286 0.961 . S
H2300 C2286 0.961 . S
H2301 C2287 0.958 . S
H2302 C2287 0.961 . S
H2303 C2287 0.960 . S
C2304 C2305 1.391 . S
C2304 C2306 1.394 . S
C2304 H2320 0.931 . S
C2305 C2304 1.391 . S
C2305 C2309 1.376 1_565 S
C2306 C2304 1.394 . S
C2306 C2307 1.369 . S
C2306 C2310 1.531 . S
C2307 C2306 1.369 . S
C2307 C2308 1.410 1_565 S
C2307 C2315 1.503 . S
C2308 C2307 1.410 1_545 S
C2308 C2309 1.392 . S
C2308 C2311 1.511 . S
C2309 C2305 1.376 1_545 S
C2309 C2308 1.392 . S
C2309 H2321 0.929 . S
C2310 C2306 1.531 . S
C2310 H2322 0.960 . S
C2310 H2323 0.962 . S
C2310 H2324 0.960 . S
C2311 C2308 1.511 . S
C2311 H2325 0.961 . S
C2311 H2326 0.961 . S
C2311 H2327 0.961 . S
C2312 C2313 1.370 . S
C2312 C2314 1.363 . S
C2312 H2328 0.931 . S
C2313 C2312 1.370 . S
C2313 C2317 1.408 1_565 S
C2314 C2312 1.363 . S
C2314 C2315 1.370 . S
C2314 C2318 1.524 . S
C2315 C2307 1.503 . S
C2315 C2314 1.370 . S
C2315 C2316 1.403 1_565 S
C2316 C2315 1.403 1_545 S
C2316 C2317 1.404 . S
C2316 C2319 1.539 . S
C2317 C2313 1.408 1_545 S
C2317 C2316 1.404 . S
C2317 H2329 0.930 . S
C2318 C2314 1.524 . S
C2318 H2330 0.956 . S
C2318 H2331 0.961 . S
C2318 H2332 0.961 . S
C2319 C2316 1.539 . S
C2319 H2333 0.958 . S
C2319 H2334 0.961 . S
C2319 H2335 0.960 . S
H2320 C2304 0.931 . S
H2321 C2309 0.929 . S
H2322 C2310 0.960 . S
H2323 C2310 0.962 . S
H2324 C2310 0.960 . S
H2325 C2311 0.961 . S
H2326 C2311 0.961 . S
H2327 C2311 0.961 . S
H2328 C2312 0.931 . S
H2329 C2317 0.930 . S
H2330 C2318 0.956 . S
H2331 C2318 0.961 . S
H2332 C2318 0.961 . S
H2333 C2319 0.958 . S
H2334 C2319 0.961 . S
H2335 C2319 0.960 . S
C2336 C2337 1.391 . S
C2336 C2338 1.394 1_565 S
C2336 H2352 0.931 . S
C2337 C2336 1.391 . S
C2337 C2341 1.376 . S
C2338 C2336 1.394 1_545 S
C2338 C2339 1.369 . S
C2338 C2342 1.531 . S
C2339 C2338 1.369 . S
C2339 C2340 1.410 . S
C2339 C2347 1.503 . S
C2340 C2339 1.410 . S
C2340 C2341 1.392 1_545 S
C2340 C2343 1.511 . S
C2341 C2337 1.376 . S
C2341 C2340 1.392 1_565 S
C2341 H2353 0.929 . S
C2342 C2338 1.531 . S
C2342 H2354 0.960 . S
C2342 H2355 0.962 . S
C2342 H2356 0.960 . S
C2343 C2340 1.511 . S
C2343 H2357 0.961 . S
C2343 H2358 0.961 . S
C2343 H2359 0.961 . S
C2344 C2345 1.370 . S
C2344 C2346 1.363 . S
C2344 H2360 0.931 . S
C2345 C2344 1.370 . S
C2345 C2349 1.408 . S
C2346 C2344 1.363 . S
C2346 C2347 1.370 . S
C2346 C2350 1.524 . S
C2347 C2339 1.503 . S
C2347 C2346 1.370 . S
C2347 C2348 1.403 . S
C2348 C2347 1.403 . S
C2348 C2349 1.404 . S
C2348 C2351 1.539 . S
C2349 C2345 1.408 . S
C2349 C2348 1.404 . S
C2349 H2361 0.930 . S
C2350 C2346 1.524 . S
C2350 H2362 0.956 . S
C2350 H2363 0.961 . S
C2350 H2364 0.961 . S
C2351 C2348 1.539 . S
C2351 H2365 0.958 . S
C2351 H2366 0.961 . S
C2351 H2367 0.960 . S
H2352 C2336 0.931 . S
H2353 C2341 0.929 . S
H2354 C2342 0.960 . S
H2355 C2342 0.962 . S
H2356 C2342 0.960 . S
H2357 C2343 0.961 . S
H2358 C2343 0.961 . S
H2359 C2343 0.961 . S
H2360 C2344 0.931 . S
H2361 C2349 0.930 . S
H2362 C2350 0.956 . S
H2363 C2350 0.961 . S
H2364 C2350 0.961 . S
H2365 C2351 0.958 . S
H2366 C2351 0.961 . S
H2367 C2351 0.960 . S
C2368 C2369 1.391 . S
C2368 C2370 1.394 . S
C2368 H2384 0.931 . S
C2369 C2368 1.391 . S
C2369 C2373 1.376 . S
C2370 C2368 1.394 . S
C2370 C2371 1.369 . S
C2370 C2374 1.531 . S
C2371 C2370 1.369 . S
C2371 C2372 1.415 . S
C2371 C2379 1.503 . S
C2372 C2371 1.415 . S
C2372 C2373 1.395 . S
C2372 C2375 1.505 1_565 S
C2373 C2369 1.376 . S
C2373 C2372 1.395 . S
C2373 H2385 0.929 . S
C2374 C2370 1.531 . S
C2374 H2386 0.960 . S
C2374 H2387 0.962 . S
C2374 H2388 0.960 . S
C2375 C2372 1.505 1_545 S
C2375 H2389 0.951 1_545 S
C2375 H2390 0.961 1_545 S
C2375 H2391 0.961 . S
C2376 C2377 1.370 . S
C2376 C2378 1.363 . S
C2376 H2392 0.931 . S
C2377 C2376 1.370 . S
C2377 C2381 1.408 1_565 S
C2378 C2376 1.363 . S
C2378 C2379 1.370 . S
C2378 C2382 1.524 . S
C2379 C2371 1.503 . S
C2379 C2378 1.370 . S
C2379 C2380 1.403 1_565 S
C2380 C2379 1.403 1_545 S
C2380 C2381 1.404 . S
C2380 C2383 1.539 . S
C2381 C2377 1.408 1_545 S
C2381 C2380 1.404 . S
C2381 H2393 0.930 . S
C2382 C2378 1.524 . S
C2382 H2394 0.956 . S
C2382 H2395 0.961 . S
C2382 H2396 0.961 . S
C2383 C2380 1.539 . S
C2383 H2397 0.958 . S
C2383 H2398 0.961 . S
C2383 H2399 0.960 . S
H2384 C2368 0.931 . S
H2385 C2373 0.929 . S
H2386 C2374 0.960 . S
H2387 C2374 0.962 . S
H2388 C2374 0.960 . S
H2389 C2375 0.951 1_565 S
H2390 C2375 0.961 1_565 S
H2391 C2375 0.961 . S
H2392 C2376 0.931 . S
H2393 C2381 0.930 . S
H2394 C2382 0.956 . S
H2395 C2382 0.961 . S
H2396 C2382 0.961 . S
H2397 C2383 0.958 . S
H2398 C2383 0.961 . S
H2399 C2383 0.960 . S
C2400 C2401 1.391 . S
C2400 C2402 1.394 1_545 S
C2400 H2416 0.931 . S
C2401 C2400 1.391 . S
C2401 C2405 1.376 . S
C2402 C2400 1.394 1_565 S
C2402 C2403 1.369 . S
C2402 C2406 1.531 . S
C2403 C2402 1.369 . S
C2403 C2404 1.410 . S
C2403 C2411 1.503 . S
C2404 C2403 1.410 . S
C2404 C2405 1.392 1_565 S
C2404 C2407 1.511 . S
C2405 C2401 1.376 . S
C2405 C2404 1.392 1_545 S
C2405 H2417 0.929 . S
C2406 C2402 1.531 . S
C2406 H2418 0.960 . S
C2406 H2419 0.962 . S
C2406 H2420 0.960 . S
C2407 C2404 1.511 . S
C2407 H2421 0.961 . S
C2407 H2422 0.961 . S
C2407 H2423 0.961 . S
C2408 C2409 1.370 . S
C2408 C2410 1.363 . S
C2408 H2424 0.931 . S
C2409 C2408 1.370 . S
C2409 C2413 1.408 . S
C2410 C2408 1.363 . S
C2410 C2411 1.370 . S
C2410 C2414 1.524 . S
C2411 C2403 1.503 . S
C2411 C2410 1.370 . S
C2411 C2412 1.403 . S
C2412 C2411 1.403 . S
C2412 C2413 1.404 . S
C2412 C2415 1.539 . S
C2413 C2409 1.408 . S
C2413 C2412 1.404 . S
C2413 H2425 0.930 . S
C2414 C2410 1.524 . S
C2414 H2426 0.956 . S
C2414 H2427 0.961 . S
C2414 H2428 0.961 . S
C2415 C2412 1.539 . S
C2415 H2429 0.958 . S
C2415 H2430 0.961 . S
C2415 H2431 0.960 . S
H2416 C2400 0.931 . S
H2417 C2405 0.929 . S
H2418 C2406 0.960 . S
H2419 C2406 0.962 . S
H2420 C2406 0.960 . S
H2421 C2407 0.961 . S
H2422 C2407 0.961 . S
H2423 C2407 0.961 . S
H2424 C2408 0.931 . S
H2425 C2413 0.930 . S
H2426 C2414 0.956 . S
H2427 C2414 0.961 . S
H2428 C2414 0.961 . S
H2429 C2415 0.958 . S
H2430 C2415 0.961 . S
H2431 C2415 0.960 . S
C2432 C2433 1.391 . S
C2432 C2434 1.394 . S
C2432 H2448 0.931 . S
C2433 C2432 1.391 . S
C2433 C2437 1.376 . S
C2434 C2432 1.394 . S
C2434 C2435 1.369 . S
C2434 C2438 1.531 . S
C2435 C2434 1.369 . S
C2435 C2436 1.410 . S
C2435 C2443 1.503 . S
C2436 C2435 1.410 . S
C2436 C2437 1.392 . S
C2436 C2439 1.513 . S
C2437 C2433 1.376 . S
C2437 C2436 1.392 . S
C2437 H2449 0.929 . S
C2438 C2434 1.531 . S
C2438 H2450 0.960 1_545 S
C2438 H2451 0.962 . S
C2438 H2452 0.970 . S
C2439 C2436 1.513 . S
C2439 H2453 0.969 . S
C2439 H2454 0.970 . S
C2439 H2455 0.942 1_545 S
C2440 C2441 1.370 . S
C2440 C2442 1.363 . S
C2440 H2456 0.931 . S
C2441 C2440 1.370 . S
C2441 C2445 1.408 1_545 S
C2442 C2440 1.363 . S
C2442 C2443 1.370 . S
C2442 C2446 1.524 . S
C2443 C2435 1.503 . S
C2443 C2442 1.370 . S
C2443 C2444 1.403 1_545 S
C2444 C2443 1.403 1_565 S
C2444 C2445 1.404 . S
C2444 C2447 1.539 . S
C2445 C2441 1.408 1_565 S
C2445 C2444 1.404 . S
C2445 H2457 0.930 . S
C2446 C2442 1.524 . S
C2446 H2458 0.956 . S
C2446 H2459 0.961 . S
C2446 H2460 0.961 . S
C2447 C2444 1.539 . S
C2447 H2461 0.958 . S
C2447 H2462 0.961 . S
C2447 H2463 0.960 . S
H2448 C2432 0.931 . S
H2449 C2437 0.929 . S
H2450 C2438 0.960 1_565 S
H2451 C2438 0.962 . S
H2452 C2438 0.970 . S
H2453 C2439 0.969 . S
H2454 C2439 0.970 . S
H2455 C2439 0.942 1_565 S
H2456 C2440 0.931 . S
H2457 C2445 0.930 . S
H2458 C2446 0.956 . S
H2459 C2446 0.961 . S
H2460 C2446 0.961 . S
H2461 C2447 0.958 . S
H2462 C2447 0.961 . S
H2463 C2447 0.960 . S
C2464 C2465 1.391 . S
C2464 C2466 1.394 . S
C2464 H2480 0.931 . S
C2465 C2464 1.391 . S
C2465 C2469 1.376 . S
C2466 C2464 1.394 . S
C2466 C2467 1.369 . S
C2466 C2470 1.531 . S
C2467 C2466 1.369 . S
C2467 C2468 1.410 . S
C2467 C2475 1.503 . S
C2468 C2467 1.410 . S
C2468 C2469 1.392 . S
C2468 C2471 1.511 . S
C2469 C2465 1.376 . S
C2469 C2468 1.392 . S
C2469 H2481 0.929 . S
C2470 C2466 1.531 . S
C2470 H2482 0.960 . S
C2470 H2483 0.962 . S
C2470 H2484 0.960 . S
C2471 C2468 1.511 . S
C2471 H2485 0.961 . S
C2471 H2486 0.961 . S
C2471 H2487 0.961 . S
C2472 C2473 1.370 . S
C2472 C2474 1.363 1_545 S
C2472 H2488 0.931 . S
C2473 C2472 1.370 . S
C2473 C2477 1.408 . S
C2474 C2472 1.363 1_565 S
C2474 C2475 1.370 . S
C2474 C2478 1.524 . S
C2475 C2467 1.503 . S
C2475 C2474 1.370 . S
C2475 C2476 1.403 . S
C2476 C2475 1.403 . S
C2476 C2477 1.404 1_565 S
C2476 C2479 1.539 . S
C2477 C2473 1.408 . S
C2477 C2476 1.404 1_545 S
C2477 H2489 0.930 . S
C2478 C2474 1.524 . S
C2478 H2490 0.956 . S
C2478 H2491 0.961 . S
C2478 H2492 0.961 . S
C2479 C2476 1.539 . S
C2479 H2493 0.958 . S
C2479 H2494 0.961 . S
C2479 H2495 0.960 . S
H2480 C2464 0.931 . S
H2481 C2469 0.929 . S
H2482 C2470 0.960 . S
H2483 C2470 0.962 . S
H2484 C2470 0.960 . S
H2485 C2471 0.961 . S
H2486 C2471 0.961 . S
H2487 C2471 0.961 . S
H2488 C2472 0.931 . S
H2489 C2477 0.930 . S
H2490 C2478 0.956 . S
H2491 C2478 0.961 . S
H2492 C2478 0.961 . S
H2493 C2479 0.958 . S
H2494 C2479 0.961 . S
H2495 C2479 0.960 . S
C2496 C2497 1.391 1_545 S
C2496 C2498 1.394 . S
C2496 H2512 0.931 . S
C2497 C2496 1.391 1_565 S
C2497 C2501 1.376 . S
C2498 C2496 1.394 . S
C2498 C2499 1.369 1_545 S
C2498 C2502 1.531 . S
C2499 C2498 1.369 1_565 S
C2499 C2500 1.410 . S
C2499 C2507 1.503 . S
C2500 C2499 1.410 . S
C2500 C2501 1.392 . S
C2500 C2503 1.511 . S
C2501 C2497 1.376 . S
C2501 C2500 1.392 . S
C2501 H2513 0.929 . S
C2502 C2498 1.531 . S
C2502 H2514 0.960 . S
C2502 H2515 0.962 . S
C2502 H2516 0.960 . S
C2503 C2500 1.511 . S
C2503 H2517 0.961 . S
C2503 H2518 0.961 . S
C2503 H2519 0.961 . S
C2504 C2505 1.370 . S
C2504 C2506 1.363 . S
C2504 H2520 0.931 . S
C2505 C2504 1.370 . S
C2505 C2509 1.408 1_565 S
C2506 C2504 1.363 . S
C2506 C2507 1.370 . S
C2506 C2510 1.524 . S
C2507 C2499 1.503 . S
C2507 C2506 1.370 . S
C2507 C2508 1.403 1_565 S
C2508 C2507 1.403 1_545 S
C2508 C2509 1.404 . S
C2508 C2511 1.539 . S
C2509 C2505 1.408 1_545 S
C2509 C2508 1.404 . S
C2509 H2521 0.930 . S
C2510 C2506 1.524 . S
C2510 H2522 0.956 . S
C2510 H2523 0.961 . S
C2510 H2524 0.961 . S
C2511 C2508 1.539 . S
C2511 H2525 0.958 . S
C2511 H2526 0.961 . S
C2511 H2527 0.960 . S
H2512 C2496 0.931 . S
H2513 C2501 0.929 . S
H2514 C2502 0.960 . S
H2515 C2502 0.962 . S
H2516 C2502 0.960 . S
H2517 C2503 0.961 . S
H2518 C2503 0.961 . S
H2519 C2503 0.961 . S
H2520 C2504 0.931 . S
H2521 C2509 0.930 . S
H2522 C2510 0.956 . S
H2523 C2510 0.961 . S
H2524 C2510 0.961 . S
H2525 C2511 0.958 . S
H2526 C2511 0.961 . S
H2527 C2511 0.960 . S
C2528 C2529 1.391 . S
C2528 C2530 1.394 1_565 S
C2528 H2544 0.931 . S
C2529 C2528 1.391 . S
C2529 C2533 1.376 . S
C2530 C2528 1.394 1_545 S
C2530 C2531 1.369 . S
C2530 C2534 1.531 . S
C2531 C2530 1.369 . S
C2531 C2532 1.410 . S
C2531 C2539 1.503 . S
C2532 C2531 1.410 . S
C2532 C2533 1.392 1_545 S
C2532 C2535 1.511 . S
C2533 C2529 1.376 . S
C2533 C2532 1.392 1_565 S
C2533 H2545 0.929 . S
C2534 C2530 1.531 . S
C2534 H2546 0.960 . S
C2534 H2547 0.962 . S
C2534 H2548 0.960 . S
C2535 C2532 1.511 . S
C2535 H2549 0.961 . S
C2535 H2550 0.961 . S
C2535 H2551 0.961 . S
C2536 C2537 1.370 . S
C2536 C2538 1.363 . S
C2536 H2552 0.931 . S
C2537 C2536 1.370 . S
C2537 C2541 1.408 . S
C2538 C2536 1.363 . S
C2538 C2539 1.370 . S
C2538 C2542 1.524 . S
C2539 C2531 1.503 . S
C2539 C2538 1.370 . S
C2539 C2540 1.403 . S
C2540 C2539 1.403 . S
C2540 C2541 1.404 . S
C2540 C2543 1.539 . S
C2541 C2537 1.408 . S
C2541 C2540 1.404 . S
C2541 H2553 0.930 . S
C2542 C2538 1.524 . S
C2542 H2554 0.956 . S
C2542 H2555 0.961 . S
C2542 H2556 0.961 . S
C2543 C2540 1.539 . S
C2543 H2557 0.958 . S
C2543 H2558 0.961 . S
C2543 H2559 0.960 . S
H2544 C2528 0.931 . S
H2545 C2533 0.929 . S
H2546 C2534 0.960 . S
H2547 C2534 0.962 . S
H2548 C2534 0.960 . S
H2549 C2535 0.961 . S
H2550 C2535 0.961 . S
H2551 C2535 0.961 . S
H2552 C2536 0.931 . S
H2553 C2541 0.930 . S
H2554 C2542 0.956 . S
H2555 C2542 0.961 . S
H2556 C2542 0.961 . S
H2557 C2543 0.958 . S
H2558 C2543 0.961 . S
H2559 C2543 0.960 . S
C2560 C2561 1.391 . S
C2560 C2562 1.394 . S
C2560 H2576 0.931 . S
C2561 C2560 1.391 . S
C2561 C2565 1.376 1_545 S
C2562 C2560 1.394 . S
C2562 C2563 1.369 . S
C2562 C2566 1.531 . S
C2563 C2562 1.369 . S
C2563 C2564 1.410 1_545 S
C2563 C2571 1.503 . S
C2564 C2563 1.410 1_565 S
C2564 C2565 1.392 . S
C2564 C2567 1.511 . S
C2565 C2561 1.376 1_565 S
C2565 C2564 1.392 . S
C2565 H2577 0.929 . S
C2566 C2562 1.531 . S
C2566 H2578 0.960 . S
C2566 H2579 0.962 . S
C2566 H2580 0.960 . S
C2567 C2564 1.511 . S
C2567 H2581 0.961 . S
C2567 H2582 0.961 . S
C2567 H2583 0.961 . S
C2568 C2569 1.370 . S
C2568 C2570 1.363 . S
C2568 H2584 0.931 . S
C2569 C2568 1.370 . S
C2569 C2573 1.408 . S
C2570 C2568 1.363 . S
C2570 C2571 1.370 . S
C2570 C2574 1.524 . S
C2571 C2563 1.503 . S
C2571 C2570 1.370 . S
C2571 C2572 1.403 . S
C2572 C2571 1.403 . S
C2572 C2573 1.404 . S
C2572 C2575 1.539 . S
C2573 C2569 1.408 . S
C2573 C2572 1.404 . S
C2573 H2585 0.930 . S
C2574 C2570 1.524 . S
C2574 H2586 0.956 . S
C2574 H2587 0.961 1_545 S
C2574 H2588 0.961 1_545 S
C2575 C2572 1.539 . S
C2575 H2589 0.958 . S
C2575 H2590 0.961 . S
C2575 H2591 0.960 . S
H2576 C2560 0.931 . S
H2577 C2565 0.929 . S
H2578 C2566 0.960 . S
H2579 C2566 0.962 . S
H2580 C2566 0.960 . S
H2581 C2567 0.961 . S
H2582 C2567 0.961 . S
H2583 C2567 0.961 . S
H2584 C2568 0.931 . S
H2585 C2573 0.930 . S
H2586 C2574 0.956 . S
H2587 C2574 0.961 1_565 S
H2588 C2574 0.961 1_565 S
H2589 C2575 0.958 . S
H2590 C2575 0.961 . S
H2591 C2575 0.960 . S
C2592 C2593 1.391 . S
C2592 C2594 1.394 . S
C2592 H2608 0.931 . S
C2593 C2592 1.391 . S
C2593 C2597 1.376 . S
C2594 C2592 1.394 . S
C2594 C2595 1.369 . S
C2594 C2598 1.531 . S
C2595 C2594 1.369 . S
C2595 C2596 1.410 . S
C2595 C2603 1.503 . S
C2596 C2595 1.410 . S
C2596 C2597 1.392 . S
C2596 C2599 1.511 . S
C2597 C2593 1.376 . S
C2597 C2596 1.392 . S
C2597 H2609 0.929 . S
C2598 C2594 1.531 . S
C2598 H2610 0.960 . S
C2598 H2611 0.962 . S
C2598 H2612 0.960 . S
C2599 C2596 1.511 . S
C2599 H2613 0.961 . S
C2599 H2614 0.961 . S
C2599 H2615 0.961 . S
C2600 C2601 1.370 . S
C2600 C2602 1.363 . S
C2600 H2616 0.931 . S
C2601 C2600 1.370 . S
C2601 C2605 1.408 . S
C2602 C2600 1.363 . S
C2602 C2603 1.370 . S
C2602 C2606 1.524 . S
C2603 C2595 1.503 . S
C2603 C2602 1.370 . S
C2603 C2604 1.403 . S
C2604 C2603 1.403 . S
C2604 C2605 1.404 . S
C2604 C2607 1.539 . S
C2605 C2601 1.408 . S
C2605 C2604 1.404 . S
C2605 H2617 0.930 . S
C2606 C2602 1.524 . S
C2606 H2618 0.956 . S
C2606 H2619 0.961 . S
C2606 H2620 0.961 . S
C2607 C2604 1.539 . S
C2607 H2621 0.958 . S
C2607 H2622 0.961 . S
C2607 H2623 0.960 . S
H2608 C2592 0.931 . S
H2609 C2597 0.929 . S
H2610 C2598 0.960 . S
H2611 C2598 0.962 . S
H2612 C2598 0.960 . S
H2613 C2599 0.961 . S
H2614 C2599 0.961 . S
H2615 C2599 0.961 . S
H2616 C2600 0.931 . S
H2617 C2605 0.930 . S
H2618 C2606 0.956 . S
H2619 C2606 0.961 . S
H2620 C2606 0.961 . S
H2621 C2607 0.958 . S
H2622 C2607 0.961 . S
H2623 C2607 0.960 . S
C2624 C2625 1.391 . S
C2624 C2626 1.394 . S
C2624 H2640 0.931 . S
C2625 C2624 1.391 . S
C2625 C2629 1.376 . S
C2626 C2624 1.394 . S
C2626 C2627 1.369 . S
C2626 C2630 1.531 . S
C2627 C2626 1.369 . S
C2627 C2628 1.410 . S
C2627 C2635 1.503 . S
C2628 C2627 1.410 . S
C2628 C2629 1.392 . S
C2628 C2631 1.511 . S
C2629 C2625 1.376 . S
C2629 C2628 1.392 . S
C2629 H2641 0.929 . S
C2630 C2626 1.531 . S
C2630 H2642 0.960 . S
C2630 H2643 0.962 . S
C2630 H2644 0.960 . S
C2631 C2628 1.511 . S
C2631 H2645 0.961 . S
C2631 H2646 0.961 . S
C2631 H2647 0.961 . S
C2632 C2633 1.370 . S
C2632 C2634 1.363 . S
C2632 H2648 0.931 . S
C2633 C2632 1.370 . S
C2633 C2637 1.408 . S
C2634 C2632 1.363 . S
C2634 C2635 1.370 . S
C2634 C2638 1.524 . S
C2635 C2627 1.503 . S
C2635 C2634 1.370 . S
C2635 C2636 1.403 . S
C2636 C2635 1.403 . S
C2636 C2637 1.404 . S
C2636 C2639 1.539 . S
C2637 C2633 1.408 . S
C2637 C2636 1.404 . S
C2637 H2649 0.930 . S
C2638 C2634 1.524 . S
C2638 H2650 0.956 . S
C2638 H2651 0.961 . S
C2638 H2652 0.961 . S
C2639 C2636 1.539 . S
C2639 H2653 0.958 . S
C2639 H2654 0.961 . S
C2639 H2655 0.960 . S
H2640 C2624 0.931 . S
H2641 C2629 0.929 . S
H2642 C2630 0.960 . S
H2643 C2630 0.962 . S
H2644 C2630 0.960 . S
H2645 C2631 0.961 . S
H2646 C2631 0.961 . S
H2647 C2631 0.961 . S
H2648 C2632 0.931 . S
H2649 C2637 0.930 . S
H2650 C2638 0.956 . S
H2651 C2638 0.961 . S
H2652 C2638 0.961 . S
H2653 C2639 0.958 . S
H2654 C2639 0.961 . S
H2655 C2639 0.960 . S
C2656 C2657 1.391 . S
C2656 C2658 1.394 . S
C2656 H2672 0.931 . S
C2657 C2656 1.391 . S
C2657 C2661 1.376 . S
C2658 C2656 1.394 . S
C2658 C2659 1.369 . S
C2658 C2662 1.531 . S
C2659 C2658 1.369 . S
C2659 C2660 1.410 . S
C2659 C2667 1.503 . S
C2660 C2659 1.410 . S
C2660 C2661 1.392 . S
C2660 C2663 1.511 . S
C2661 C2657 1.376 . S
C2661 C2660 1.392 . S
C2661 H2673 0.929 . S
C2662 C2658 1.531 . S
C2662 H2674 0.960 . S
C2662 H2675 0.962 . S
C2662 H2676 0.960 . S
C2663 C2660 1.511 . S
C2663 H2677 0.961 . S
C2663 H2678 0.961 . S
C2663 H2679 0.961 . S
C2664 C2665 1.370 . S
C2664 C2666 1.363 . S
C2664 H2680 0.931 . S
C2665 C2664 1.370 . S
C2665 C2669 1.408 . S
C2666 C2664 1.363 . S
C2666 C2667 1.370 . S
C2666 C2670 1.524 . S
C2667 C2659 1.503 . S
C2667 C2666 1.370 . S
C2667 C2668 1.403 . S
C2668 C2667 1.403 . S
C2668 C2669 1.404 . S
C2668 C2671 1.539 . S
C2669 C2665 1.408 . S
C2669 C2668 1.404 . S
C2669 H2681 0.930 . S
C2670 C2666 1.524 . S
C2670 H2682 0.956 . S
C2670 H2683 0.961 . S
C2670 H2684 0.961 . S
C2671 C2668 1.539 . S
C2671 H2685 0.958 . S
C2671 H2686 0.961 . S
C2671 H2687 0.960 . S
H2672 C2656 0.931 . S
H2673 C2661 0.929 . S
H2674 C2662 0.960 . S
H2675 C2662 0.962 . S
H2676 C2662 0.960 . S
H2677 C2663 0.961 . S
H2678 C2663 0.961 . S
H2679 C2663 0.961 . S
H2680 C2664 0.931 . S
H2681 C2669 0.930 . S
H2682 C2670 0.956 . S
H2683 C2670 0.961 . S
H2684 C2670 0.961 . S
H2685 C2671 0.958 . S
H2686 C2671 0.961 . S
H2687 C2671 0.960 . S
C2688 C2689 1.391 . S
C2688 C2690 1.394 . S
C2688 H2704 0.931 . S
C2689 C2688 1.391 . S
C2689 C2693 1.376 . S
C2690 C2688 1.394 . S
C2690 C2691 1.369 . S
C2690 C2694 1.531 . S
C2691 C2690 1.369 . S
C2691 C2692 1.410 . S
C2691 C2699 1.503 . S
C2692 C2691 1.410 . S
C2692 C2693 1.392 . S
C2692 C2695 1.511 . S
C2693 C2689 1.376 . S
C2693 C2692 1.392 . S
C2693 H2705 0.929 . S
C2694 C2690 1.531 . S
C2694 H2706 0.960 . S
C2694 H2707 0.962 . S
C2694 H2708 0.960 . S
C2695 C2692 1.511 . S
C2695 H2709 0.961 . S
C2695 H2710 0.961 . S
C2695 H2711 0.961 . S
C2696 C2697 1.370 . S
C2696 C2698 1.363 . S
C2696 H2712 0.931 . S
C2697 C2696 1.370 . S
C2697 C2701 1.408 . S
C2698 C2696 1.363 . S
C2698 C2699 1.370 . S
C2698 C2702 1.524 . S
C2699 C2691 1.503 . S
C2699 C2698 1.370 . S
C2699 C2700 1.403 . S
C2700 C2699 1.403 . S
C2700 C2701 1.404 . S
C2700 C2703 1.539 . S
C2701 C2697 1.408 . S
C2701 C2700 1.404 . S
C2701 H2713 0.930 . S
C2702 C2698 1.524 . S
C2702 H2714 0.956 . S
C2702 H2715 0.961 . S
C2702 H2716 0.961 . S
C2703 C2700 1.539 . S
C2703 H2717 0.958 . S
C2703 H2718 0.961 . S
C2703 H2719 0.960 . S
H2704 C2688 0.931 . S
H2705 C2693 0.929 . S
H2706 C2694 0.960 . S
H2707 C2694 0.962 . S
H2708 C2694 0.960 . S
H2709 C2695 0.961 . S
H2710 C2695 0.961 . S
H2711 C2695 0.961 . S
H2712 C2696 0.931 . S
H2713 C2701 0.930 . S
H2714 C2702 0.956 . S
H2715 C2702 0.961 . S
H2716 C2702 0.961 . S
H2717 C2703 0.958 . S
H2718 C2703 0.961 . S
H2719 C2703 0.960 . S
C2720 C2721 1.391 . S
C2720 C2722 1.394 . S
C2720 H2736 0.931 . S
C2721 C2720 1.391 . S
C2721 C2725 1.376 . S
C2722 C2720 1.394 . S
C2722 C2723 1.369 . S
C2722 C2726 1.531 . S
C2723 C2722 1.369 . S
C2723 C2724 1.410 . S
C2723 C2731 1.503 . S
C2724 C2723 1.410 . S
C2724 C2725 1.392 . S
C2724 C2727 1.511 . S
C2725 C2721 1.376 . S
C2725 C2724 1.392 . S
C2725 H2737 0.929 . S
C2726 C2722 1.531 . S
C2726 H2738 0.960 . S
C2726 H2739 0.962 . S
C2726 H2740 0.960 . S
C2727 C2724 1.511 . S
C2727 H2741 0.961 . S
C2727 H2742 0.961 . S
C2727 H2743 0.961 . S
C2728 C2729 1.370 . S
C2728 C2730 1.363 . S
C2728 H2744 0.931 . S
C2729 C2728 1.370 . S
C2729 C2733 1.408 . S
C2730 C2728 1.363 . S
C2730 C2731 1.370 . S
C2730 C2734 1.524 . S
C2731 C2723 1.503 . S
C2731 C2730 1.370 . S
C2731 C2732 1.403 . S
C2732 C2731 1.403 . S
C2732 C2733 1.404 . S
C2732 C2735 1.539 . S
C2733 C2729 1.408 . S
C2733 C2732 1.404 . S
C2733 H2745 0.930 . S
C2734 C2730 1.524 . S
C2734 H2746 0.956 . S
C2734 H2747 0.961 . S
C2734 H2748 0.961 . S
C2735 C2732 1.539 . S
C2735 H2749 0.958 . S
C2735 H2750 0.961 . S
C2735 H2751 0.960 . S
H2736 C2720 0.931 . S
H2737 C2725 0.929 . S
H2738 C2726 0.960 . S
H2739 C2726 0.962 . S
H2740 C2726 0.960 . S
H2741 C2727 0.961 . S
H2742 C2727 0.961 . S
H2743 C2727 0.961 . S
H2744 C2728 0.931 . S
H2745 C2733 0.930 . S
H2746 C2734 0.956 . S
H2747 C2734 0.961 . S
H2748 C2734 0.961 . S
H2749 C2735 0.958 . S
H2750 C2735 0.961 . S
H2751 C2735 0.960 . S
C2752 C2753 1.391 . S
C2752 C2754 1.394 . S
C2752 H2768 0.931 . S
C2753 C2752 1.391 . S
C2753 C2757 1.376 . S
C2754 C2752 1.394 . S
C2754 C2755 1.369 . S
C2754 C2758 1.531 . S
C2755 C2754 1.369 . S
C2755 C2756 1.410 . S
C2755 C2763 1.503 . S
C2756 C2755 1.410 . S
C2756 C2757 1.392 . S
C2756 C2759 1.511 . S
C2757 C2753 1.376 . S
C2757 C2756 1.392 . S
C2757 H2769 0.929 . S
C2758 C2754 1.531 . S
C2758 H2770 0.960 . S
C2758 H2771 0.962 . S
C2758 H2772 0.960 . S
C2759 C2756 1.511 . S
C2759 H2773 0.961 . S
C2759 H2774 0.961 . S
C2759 H2775 0.961 . S
C2760 C2761 1.370 . S
C2760 C2762 1.363 . S
C2760 H2776 0.931 . S
C2761 C2760 1.370 . S
C2761 C2765 1.408 . S
C2762 C2760 1.363 . S
C2762 C2763 1.370 . S
C2762 C2766 1.524 . S
C2763 C2755 1.503 . S
C2763 C2762 1.370 . S
C2763 C2764 1.403 . S
C2764 C2763 1.403 . S
C2764 C2765 1.404 . S
C2764 C2767 1.539 . S
C2765 C2761 1.408 . S
C2765 C2764 1.404 . S
C2765 H2777 0.930 . S
C2766 C2762 1.524 . S
C2766 H2778 0.956 . S
C2766 H2779 0.961 . S
C2766 H2780 0.961 . S
C2767 C2764 1.539 . S
C2767 H2781 0.958 . S
C2767 H2782 0.961 . S
C2767 H2783 0.960 . S
H2768 C2752 0.931 . S
H2769 C2757 0.929 . S
H2770 C2758 0.960 . S
H2771 C2758 0.962 . S
H2772 C2758 0.960 . S
H2773 C2759 0.961 . S
H2774 C2759 0.961 . S
H2775 C2759 0.961 . S
H2776 C2760 0.931 . S
H2777 C2765 0.930 . S
H2778 C2766 0.956 . S
H2779 C2766 0.961 . S
H2780 C2766 0.961 . S
H2781 C2767 0.958 . S
H2782 C2767 0.961 . S
H2783 C2767 0.960 . S
C2784 C2785 1.391 . S
C2784 C2786 1.394 . S
C2784 H2800 0.931 . S
C2785 C2784 1.391 . S
C2785 C2789 1.376 . S
C2786 C2784 1.394 . S
C2786 C2787 1.369 . S
C2786 C2790 1.531 . S
C2787 C2786 1.369 . S
C2787 C2788 1.410 . S
C2787 C2795 1.503 . S
C2788 C2787 1.410 . S
C2788 C2789 1.392 . S
C2788 C2791 1.511 . S
C2789 C2785 1.376 . S
C2789 C2788 1.392 . S
C2789 H2801 0.929 . S
C2790 C2786 1.531 . S
C2790 H2802 0.960 . S
C2790 H2803 0.962 . S
C2790 H2804 0.960 . S
C2791 C2788 1.511 . S
C2791 H2805 0.961 . S
C2791 H2806 0.961 . S
C2791 H2807 0.961 . S
C2792 C2793 1.370 . S
C2792 C2794 1.363 . S
C2792 H2808 0.931 . S
C2793 C2792 1.370 . S
C2793 C2797 1.408 . S
C2794 C2792 1.363 . S
C2794 C2795 1.370 . S
C2794 C2798 1.524 . S
C2795 C2787 1.503 . S
C2795 C2794 1.370 . S
C2795 C2796 1.403 . S
C2796 C2795 1.403 . S
C2796 C2797 1.404 . S
C2796 C2799 1.539 . S
C2797 C2793 1.408 . S
C2797 C2796 1.404 . S
C2797 H2809 0.930 . S
C2798 C2794 1.524 . S
C2798 H2810 0.956 . S
C2798 H2811 0.961 . S
C2798 H2812 0.961 . S
C2799 C2796 1.539 . S
C2799 H2813 0.958 . S
C2799 H2814 0.961 . S
C2799 H2815 0.960 . S
H2800 C2784 0.931 . S
H2801 C2789 0.929 . S
H2802 C2790 0.960 . S
H2803 C2790 0.962 . S
H2804 C2790 0.960 . S
H2805 C2791 0.961 . S
H2806 C2791 0.961 . S
H2807 C2791 0.961 . S
H2808 C2792 0.931 . S
H2809 C2797 0.930 . S
H2810 C2798 0.956 . S
H2811 C2798 0.961 . S
H2812 C2798 0.961 . S
H2813 C2799 0.958 . S
H2814 C2799 0.961 . S
H2815 C2799 0.960 . S
C2816 C2817 1.391 . S
C2816 C2818 1.394 . S
C2816 H2832 0.931 . S
C2817 C2816 1.391 . S
C2817 C2821 1.376 . S
C2818 C2816 1.394 . S
C2818 C2819 1.369 . S
C2818 C2822 1.531 . S
C2819 C2818 1.369 . S
C2819 C2820 1.410 . S
C2819 C2827 1.503 . S
C2820 C2819 1.410 . S
C2820 C2821 1.392 . S
C2820 C2823 1.511 . S
C2821 C2817 1.376 . S
C2821 C2820 1.392 . S
C2821 H2833 0.929 . S
C2822 C2818 1.531 . S
C2822 H2834 0.960 . S
C2822 H2835 0.962 . S
C2822 H2836 0.960 . S
C2823 C2820 1.511 . S
C2823 H2837 0.961 . S
C2823 H2838 0.961 . S
C2823 H2839 0.961 . S
C2824 C2825 1.370 . S
C2824 C2826 1.363 . S
C2824 H2840 0.931 . S
C2825 C2824 1.370 . S
C2825 C2829 1.408 . S
C2826 C2824 1.363 . S
C2826 C2827 1.370 . S
C2826 C2830 1.524 . S
C2827 C2819 1.503 . S
C2827 C2826 1.370 . S
C2827 C2828 1.403 . S
C2828 C2827 1.403 . S
C2828 C2829 1.404 . S
C2828 C2831 1.539 . S
C2829 C2825 1.408 . S
C2829 C2828 1.404 . S
C2829 H2841 0.930 . S
C2830 C2826 1.524 . S
C2830 H2842 0.956 . S
C2830 H2843 0.961 . S
C2830 H2844 0.961 . S
C2831 C2828 1.539 . S
C2831 H2845 0.958 . S
C2831 H2846 0.961 . S
C2831 H2847 0.960 . S
H2832 C2816 0.931 . S
H2833 C2821 0.929 . S
H2834 C2822 0.960 . S
H2835 C2822 0.962 . S
H2836 C2822 0.960 . S
H2837 C2823 0.961 . S
H2838 C2823 0.961 . S
H2839 C2823 0.961 . S
H2840 C2824 0.931 . S
H2841 C2829 0.930 . S
H2842 C2830 0.956 . S
H2843 C2830 0.961 . S
H2844 C2830 0.961 . S
H2845 C2831 0.958 . S
H2846 C2831 0.961 . S
H2847 C2831 0.960 . S
C2848 C2849 1.391 . S
C2848 C2850 1.394 . S
C2848 H2864 0.931 . S
C2849 C2848 1.391 . S
C2849 C2853 1.376 . S
C2850 C2848 1.394 . S
C2850 C2851 1.369 . S
C2850 C2854 1.531 . S
C2851 C2850 1.369 . S
C2851 C2852 1.410 . S
C2851 C2859 1.503 . S
C2852 C2851 1.410 . S
C2852 C2853 1.392 . S
C2852 C2855 1.511 . S
C2853 C2849 1.376 . S
C2853 C2852 1.392 . S
C2853 H2865 0.929 . S
C2854 C2850 1.531 . S
C2854 H2866 0.960 . S
C2854 H2867 0.962 . S
C2854 H2868 0.960 . S
C2855 C2852 1.511 . S
C2855 H2869 0.961 . S
C2855 H2870 0.961 . S
C2855 H2871 0.961 . S
C2856 C2857 1.370 . S
C2856 C2858 1.363 . S
C2856 H2872 0.931 . S
C2857 C2856 1.370 . S
C2857 C2861 1.408 . S
C2858 C2856 1.363 . S
C2858 C2859 1.370 . S
C2858 C2862 1.524 . S
C2859 C2851 1.503 . S
C2859 C2858 1.370 . S
C2859 C2860 1.403 . S
C2860 C2859 1.403 . S
C2860 C2861 1.404 . S
C2860 C2863 1.539 . S
C2861 C2857 1.408 . S
C2861 C2860 1.404 . S
C2861 H2873 0.930 . S
C2862 C2858 1.524 . S
C2862 H2874 0.956 . S
C2862 H2875 0.961 . S
C2862 H2876 0.961 . S
C2863 C2860 1.539 . S
C2863 H2877 0.958 . S
C2863 H2878 0.961 . S
C2863 H2879 0.960 . S
H2864 C2848 0.931 . S
H2865 C2853 0.929 . S
H2866 C2854 0.960 . S
H2867 C2854 0.962 . S
H2868 C2854 0.960 . S
H2869 C2855 0.961 . S
H2870 C2855 0.961 . S
H2871 C2855 0.961 . S
H2872 C2856 0.931 . S
H2873 C2861 0.930 . S
H2874 C2862 0.956 . S
H2875 C2862 0.961 . S
H2876 C2862 0.961 . S
H2877 C2863 0.958 . S
H2878 C2863 0.961 . S
H2879 C2863 0.960 . S
C2880 C2881 1.391 . S
C2880 C2882 1.394 . S
C2880 H2896 0.931 . S
C2881 C2880 1.391 . S
C2881 C2885 1.376 . S
C2882 C2880 1.394 . S
C2882 C2883 1.369 . S
C2882 C2886 1.531 . S
C2883 C2882 1.369 . S
C2883 C2884 1.410 . S
C2883 C2891 1.503 . S
C2884 C2883 1.410 . S
C2884 C2885 1.392 . S
C2884 C2887 1.511 . S
C2885 C2881 1.376 . S
C2885 C2884 1.392 . S
C2885 H2897 0.929 . S
C2886 C2882 1.531 . S
C2886 H2898 0.960 . S
C2886 H2899 0.962 . S
C2886 H2900 0.960 . S
C2887 C2884 1.511 . S
C2887 H2901 0.961 . S
C2887 H2902 0.961 . S
C2887 H2903 0.961 . S
C2888 C2889 1.370 . S
C2888 C2890 1.363 . S
C2888 H2904 0.931 . S
C2889 C2888 1.370 . S
C2889 C2893 1.408 . S
C2890 C2888 1.363 . S
C2890 C2891 1.370 . S
C2890 C2894 1.524 . S
C2891 C2883 1.503 . S
C2891 C2890 1.370 . S
C2891 C2892 1.403 . S
C2892 C2891 1.403 . S
C2892 C2893 1.404 . S
C2892 C2895 1.539 . S
C2893 C2889 1.408 . S
C2893 C2892 1.404 . S
C2893 H2905 0.930 . S
C2894 C2890 1.524 . S
C2894 H2906 0.956 . S
C2894 H2907 0.961 . S
C2894 H2908 0.961 . S
C2895 C2892 1.539 . S
C2895 H2909 0.958 . S
C2895 H2910 0.961 . S
C2895 H2911 0.960 . S
H2896 C2880 0.931 . S
H2897 C2885 0.929 . S
H2898 C2886 0.960 . S
H2899 C2886 0.962 . S
H2900 C2886 0.960 . S
H2901 C2887 0.961 . S
H2902 C2887 0.961 . S
H2903 C2887 0.961 . S
H2904 C2888 0.931 . S
H2905 C2893 0.930 . S
H2906 C2894 0.956 . S
H2907 C2894 0.961 . S
H2908 C2894 0.961 . S
H2909 C2895 0.958 . S
H2910 C2895 0.961 . S
H2911 C2895 0.960 . S
C2912 C2913 1.391 . S
C2912 C2914 1.394 . S
C2912 H2928 0.931 . S
C2913 C2912 1.391 . S
C2913 C2917 1.376 . S
C2914 C2912 1.394 . S
C2914 C2915 1.369 . S
C2914 C2918 1.531 . S
C2915 C2914 1.369 . S
C2915 C2916 1.410 . S
C2915 C2923 1.503 . S
C2916 C2915 1.410 . S
C2916 C2917 1.392 . S
C2916 C2919 1.511 . S
C2917 C2913 1.376 . S
C2917 C2916 1.392 . S
C2917 H2929 0.929 . S
C2918 C2914 1.531 . S
C2918 H2930 0.960 . S
C2918 H2931 0.962 . S
C2918 H2932 0.960 . S
C2919 C2916 1.511 . S
C2919 H2933 0.961 . S
C2919 H2934 0.961 . S
C2919 H2935 0.961 . S
C2920 C2921 1.370 . S
C2920 C2922 1.363 . S
C2920 H2936 0.931 . S
C2921 C2920 1.370 . S
C2921 C2925 1.408 . S
C2922 C2920 1.363 . S
C2922 C2923 1.370 . S
C2922 C2926 1.524 . S
C2923 C2915 1.503 . S
C2923 C2922 1.370 . S
C2923 C2924 1.403 . S
C2924 C2923 1.403 . S
C2924 C2925 1.404 . S
C2924 C2927 1.539 . S
C2925 C2921 1.408 . S
C2925 C2924 1.404 . S
C2925 H2937 0.930 . S
C2926 C2922 1.524 . S
C2926 H2938 0.956 . S
C2926 H2939 0.961 . S
C2926 H2940 0.961 . S
C2927 C2924 1.539 . S
C2927 H2941 0.958 . S
C2927 H2942 0.961 . S
C2927 H2943 0.960 . S
H2928 C2912 0.931 . S
H2929 C2917 0.929 . S
H2930 C2918 0.960 . S
H2931 C2918 0.962 . S
H2932 C2918 0.960 . S
H2933 C2919 0.961 . S
H2934 C2919 0.961 . S
H2935 C2919 0.961 . S
H2936 C2920 0.931 . S
H2937 C2925 0.930 . S
H2938 C2926 0.956 . S
H2939 C2926 0.961 . S
H2940 C2926 0.961 . S
H2941 C2927 0.958 . S
H2942 C2927 0.961 . S
H2943 C2927 0.960 . S
C2944 C2945 1.391 . S
C2944 C2946 1.394 . S
C2944 H2960 0.931 . S
C2945 C2944 1.391 . S
C2945 C2949 1.376 . S
C2946 C2944 1.394 . S
C2946 C2947 1.369 . S
C2946 C2950 1.531 . S
C2947 C2946 1.369 . S
C2947 C2948 1.410 . S
C2947 C2955 1.503 . S
C2948 C2947 1.410 . S
C2948 C2949 1.392 . S
C2948 C2951 1.511 . S
C2949 C2945 1.376 . S
C2949 C2948 1.392 . S
C2949 H2961 0.929 . S
C2950 C2946 1.531 . S
C2950 H2962 0.960 . S
C2950 H2963 0.962 . S
C2950 H2964 0.960 . S
C2951 C2948 1.511 . S
C2951 H2965 0.961 . S
C2951 H2966 0.961 . S
C2951 H2967 0.961 . S
C2952 C2953 1.370 . S
C2952 C2954 1.363 . S
C2952 H2968 0.931 . S
C2953 C2952 1.370 . S
C2953 C2957 1.408 . S
C2954 C2952 1.363 . S
C2954 C2955 1.370 . S
C2954 C2958 1.524 . S
C2955 C2947 1.503 . S
C2955 C2954 1.370 . S
C2955 C2956 1.403 . S
C2956 C2955 1.403 . S
C2956 C2957 1.404 . S
C2956 C2959 1.539 . S
C2957 C2953 1.408 . S
C2957 C2956 1.404 . S
C2957 H2969 0.930 . S
C2958 C2954 1.524 . S
C2958 H2970 0.956 . S
C2958 H2971 0.961 . S
C2958 H2972 0.961 . S
C2959 C2956 1.539 . S
C2959 H2973 0.958 . S
C2959 H2974 0.961 . S
C2959 H2975 0.960 . S
H2960 C2944 0.931 . S
H2961 C2949 0.929 . S
H2962 C2950 0.960 . S
H2963 C2950 0.962 . S
H2964 C2950 0.960 . S
H2965 C2951 0.961 . S
H2966 C2951 0.961 . S
H2967 C2951 0.961 . S
H2968 C2952 0.931 . S
H2969 C2957 0.930 . S
H2970 C2958 0.956 . S
H2971 C2958 0.961 . S
H2972 C2958 0.961 . S
H2973 C2959 0.958 . S
H2974 C2959 0.961 . S
H2975 C2959 0.960 . S
C2976 C2977 1.391 . S
C2976 C2978 1.394 . S
C2976 H2992 0.931 . S
C2977 C2976 1.391 . S
C2977 C2981 1.376 . S
C2978 C2976 1.394 . S
C2978 C2979 1.369 . S
C2978 C2982 1.531 . S
C2979 C2978 1.369 . S
C2979 C2980 1.410 . S
C2979 C2987 1.503 . S
C2980 C2979 1.410 . S
C2980 C2981 1.392 . S
C2980 C2983 1.511 . S
C2981 C2977 1.376 . S
C2981 C2980 1.392 . S
C2981 H2993 0.929 . S
C2982 C2978 1.531 . S
C2982 H2994 0.960 . S
C2982 H2995 0.962 . S
C2982 H2996 0.960 . S
C2983 C2980 1.511 . S
C2983 H2997 0.961 . S
C2983 H2998 0.961 . S
C2983 H2999 0.961 . S
C2984 C2985 1.370 . S
C2984 C2986 1.363 . S
C2984 H3000 0.931 . S
C2985 C2984 1.370 . S
C2985 C2989 1.408 . S
C2986 C2984 1.363 . S
C2986 C2987 1.370 . S
C2986 C2990 1.524 . S
C2987 C2979 1.503 . S
C2987 C2986 1.370 . S
C2987 C2988 1.403 . S
C2988 C2987 1.403 . S
C2988 C2989 1.404 . S
C2988 C2991 1.539 . S
C2989 C2985 1.408 . S
C2989 C2988 1.404 . S
C2989 H3001 0.930 . S
C2990 C2986 1.524 . S
C2990 H3002 0.956 . S
C2990 H3003 0.961 . S
C2990 H3004 0.961 . S
C2991 C2988 1.539 . S
C2991 H3005 0.958 . S
C2991 H3006 0.961 . S
C2991 H3007 0.960 . S
H2992 C2976 0.931 . S
H2993 C2981 0.929 . S
H2994 C2982 0.960 . S
H2995 C2982 0.962 . S
H2996 C2982 0.960 . S
H2997 C2983 0.961 . S
H2998 C2983 0.961 . S
H2999 C2983 0.961 . S
H3000 C2984 0.931 . S
H3001 C2989 0.930 . S
H3002 C2990 0.956 . S
H3003 C2990 0.961 . S
H3004 C2990 0.961 . S
H3005 C2991 0.958 . S
H3006 C2991 0.961 . S
H3007 C2991 0.960 . S
C3008 C3009 1.391 . S
C3008 C3010 1.394 . S
C3008 H3024 0.931 . S
C3009 C3008 1.391 . S
C3009 C3013 1.376 . S
C3010 C3008 1.394 . S
C3010 C3011 1.369 . S
C3010 C3014 1.531 . S
C3011 C3010 1.369 . S
C3011 C3012 1.410 . S
C3011 C3019 1.503 . S
C3012 C3011 1.410 . S
C3012 C3013 1.392 . S
C3012 C3015 1.511 . S
C3013 C3009 1.376 . S
C3013 C3012 1.392 . S
C3013 H3025 0.929 . S
C3014 C3010 1.531 . S
C3014 H3026 0.960 . S
C3014 H3027 0.962 . S
C3014 H3028 0.960 . S
C3015 C3012 1.511 . S
C3015 H3029 0.961 . S
C3015 H3030 0.961 . S
C3015 H3031 0.961 . S
C3016 C3017 1.370 . S
C3016 C3018 1.363 . S
C3016 H3032 0.931 . S
C3017 C3016 1.370 . S
C3017 C3021 1.408 . S
C3018 C3016 1.363 . S
C3018 C3019 1.370 . S
C3018 C3022 1.524 . S
C3019 C3011 1.503 . S
C3019 C3018 1.370 . S
C3019 C3020 1.403 . S
C3020 C3019 1.403 . S
C3020 C3021 1.404 . S
C3020 C3023 1.539 . S
C3021 C3017 1.408 . S
C3021 C3020 1.404 . S
C3021 H3033 0.930 . S
C3022 C3018 1.524 . S
C3022 H3034 0.956 . S
C3022 H3035 0.961 . S
C3022 H3036 0.961 . S
C3023 C3020 1.539 . S
C3023 H3037 0.958 . S
C3023 H3038 0.961 . S
C3023 H3039 0.960 . S
H3024 C3008 0.931 . S
H3025 C3013 0.929 . S
H3026 C3014 0.960 . S
H3027 C3014 0.962 . S
H3028 C3014 0.960 . S
H3029 C3015 0.961 . S
H3030 C3015 0.961 . S
H3031 C3015 0.961 . S
H3032 C3016 0.931 . S
H3033 C3021 0.930 . S
H3034 C3022 0.956 . S
H3035 C3022 0.961 . S
H3036 C3022 0.961 . S
H3037 C3023 0.958 . S
H3038 C3023 0.961 . S
H3039 C3023 0.960 . S
C3040 C3041 1.391 . S
C3040 C3042 1.394 . S
C3040 H3056 0.931 . S
C3041 C3040 1.391 . S
C3041 C3045 1.376 . S
C3042 C3040 1.394 . S
C3042 C3043 1.369 . S
C3042 C3046 1.531 . S
C3043 C3042 1.369 . S
C3043 C3044 1.410 . S
C3043 C3051 1.503 . S
C3044 C3043 1.410 . S
C3044 C3045 1.392 . S
C3044 C3047 1.511 . S
C3045 C3041 1.376 . S
C3045 C3044 1.392 . S
C3045 H3057 0.929 . S
C3046 C3042 1.531 . S
C3046 H3058 0.960 . S
C3046 H3059 0.962 . S
C3046 H3060 0.960 . S
C3047 C3044 1.511 . S
C3047 H3061 0.961 . S
C3047 H3062 0.961 . S
C3047 H3063 0.961 . S
C3048 C3049 1.370 . S
C3048 C3050 1.363 . S
C3048 H3064 0.931 . S
C3049 C3048 1.370 . S
C3049 C3053 1.408 . S
C3050 C3048 1.363 . S
C3050 C3051 1.370 . S
C3050 C3054 1.524 . S
C3051 C3043 1.503 . S
C3051 C3050 1.370 . S
C3051 C3052 1.403 . S
C3052 C3051 1.403 . S
C3052 C3053 1.404 . S
C3052 C3055 1.539 . S
C3053 C3049 1.408 . S
C3053 C3052 1.404 . S
C3053 H3065 0.930 . S
C3054 C3050 1.524 . S
C3054 H3066 0.956 . S
C3054 H3067 0.961 . S
C3054 H3068 0.961 . S
C3055 C3052 1.539 . S
C3055 H3069 0.958 . S
C3055 H3070 0.961 . S
C3055 H3071 0.960 . S
H3056 C3040 0.931 . S
H3057 C3045 0.929 . S
H3058 C3046 0.960 . S
H3059 C3046 0.962 . S
H3060 C3046 0.960 . S
H3061 C3047 0.961 . S
H3062 C3047 0.961 . S
H3063 C3047 0.961 . S
H3064 C3048 0.931 . S
H3065 C3053 0.930 . S
H3066 C3054 0.956 . S
H3067 C3054 0.961 . S
H3068 C3054 0.961 . S
H3069 C3055 0.958 . S
H3070 C3055 0.961 . S
H3071 C3055 0.960 . S
C3072 C3073 1.391 . S
C3072 C3074 1.394 . S
C3072 H3088 0.931 . S
C3073 C3072 1.391 . S
C3073 C3077 1.376 . S
C3074 C3072 1.394 . S
C3074 C3075 1.369 . S
C3074 C3078 1.531 . S
C3075 C3074 1.369 . S
C3075 C3076 1.410 . S
C3075 C3083 1.503 . S
C3076 C3075 1.410 . S
C3076 C3077 1.392 . S
C3076 C3079 1.511 . S
C3077 C3073 1.376 . S
C3077 C3076 1.392 . S
C3077 H3089 0.929 . S
C3078 C3074 1.531 . S
C3078 H3090 0.960 . S
C3078 H3091 0.962 . S
C3078 H3092 0.960 . S
C3079 C3076 1.511 . S
C3079 H3093 0.961 . S
C3079 H3094 0.961 . S
C3079 H3095 0.961 . S
C3080 C3081 1.370 . S
C3080 C3082 1.363 . S
C3080 H3096 0.931 . S
C3081 C3080 1.370 . S
C3081 C3085 1.408 . S
C3082 C3080 1.363 . S
C3082 C3083 1.370 . S
C3082 C3086 1.524 . S
C3083 C3075 1.503 . S
C3083 C3082 1.370 . S
C3083 C3084 1.403 . S
C3084 C3083 1.403 . S
C3084 C3085 1.404 . S
C3084 C3087 1.539 . S
C3085 C3081 1.408 . S
C3085 C3084 1.404 . S
C3085 H3097 0.930 . S
C3086 C3082 1.524 . S
C3086 H3098 0.956 . S
C3086 H3099 0.961 . S
C3086 H3100 0.961 . S
C3087 C3084 1.539 . S
C3087 H3101 0.958 . S
C3087 H3102 0.961 . S
C3087 H3103 0.960 . S
H3088 C3072 0.931 . S
H3089 C3077 0.929 . S
H3090 C3078 0.960 . S
H3091 C3078 0.962 . S
H3092 C3078 0.960 . S
H3093 C3079 0.961 . S
H3094 C3079 0.961 . S
H3095 C3079 0.961 . S
H3096 C3080 0.931 . S
H3097 C3085 0.930 . S
H3098 C3086 0.956 . S
H3099 C3086 0.961 . S
H3100 C3086 0.961 . S
H3101 C3087 0.958 . S
H3102 C3087 0.961 . S
H3103 C3087 0.960 . S
C3104 C3105 1.391 . S
C3104 C3106 1.394 . S
C3104 H3120 0.931 . S
C3105 C3104 1.391 . S
C3105 C3109 1.376 . S
C3106 C3104 1.394 . S
C3106 C3107 1.369 . S
C3106 C3110 1.531 . S
C3107 C3106 1.369 . S
C3107 C3108 1.410 . S
C3107 C3115 1.503 . S
C3108 C3107 1.410 . S
C3108 C3109 1.392 . S
C3108 C3111 1.511 . S
C3109 C3105 1.376 . S
C3109 C3108 1.392 . S
C3109 H3121 0.929 . S
C3110 C3106 1.531 . S
C3110 H3122 0.960 . S
C3110 H3123 0.962 . S
C3110 H3124 0.960 . S
C3111 C3108 1.511 . S
C3111 H3125 0.961 . S
C3111 H3126 0.961 . S
C3111 H3127 0.961 . S
C3112 C3113 1.370 . S
C3112 C3114 1.363 . S
C3112 H3128 0.931 . S
C3113 C3112 1.370 . S
C3113 C3117 1.408 . S
C3114 C3112 1.363 . S
C3114 C3115 1.370 . S
C3114 C3118 1.524 . S
C3115 C3107 1.503 . S
C3115 C3114 1.370 . S
C3115 C3116 1.403 . S
C3116 C3115 1.403 . S
C3116 C3117 1.404 . S
C3116 C3119 1.539 . S
C3117 C3113 1.408 . S
C3117 C3116 1.404 . S
C3117 H3129 0.930 . S
C3118 C3114 1.524 . S
C3118 H3130 0.956 . S
C3118 H3131 0.961 . S
C3118 H3132 0.961 . S
C3119 C3116 1.539 . S
C3119 H3133 0.958 . S
C3119 H3134 0.961 . S
C3119 H3135 0.960 . S
H3120 C3104 0.931 . S
H3121 C3109 0.929 . S
H3122 C3110 0.960 . S
H3123 C3110 0.962 . S
H3124 C3110 0.960 . S
H3125 C3111 0.961 . S
H3126 C3111 0.961 . S
H3127 C3111 0.961 . S
H3128 C3112 0.931 . S
H3129 C3117 0.930 . S
H3130 C3118 0.956 . S
H3131 C3118 0.961 . S
H3132 C3118 0.961 . S
H3133 C3119 0.958 . S
H3134 C3119 0.961 . S
H3135 C3119 0.960 . S
C3136 C3137 1.391 1_455 S
C3136 C3138 1.394 . S
C3136 H3152 0.931 . S
C3137 C3136 1.391 1_655 S
C3137 C3141 1.376 . S
C3138 C3136 1.394 . S
C3138 C3139 1.369 1_455 S
C3138 C3142 1.531 . S
C3139 C3138 1.369 1_655 S
C3139 C3140 1.410 . S
C3139 C3147 1.503 1_655 S
C3140 C3139 1.410 . S
C3140 C3141 1.392 . S
C3140 C3143 1.511 . S
C3141 C3137 1.376 . S
C3141 C3140 1.392 . S
C3141 H3153 0.929 . S
C3142 C3138 1.531 . S
C3142 H3154 0.960 . S
C3142 H3155 0.962 . S
C3142 H3156 0.960 . S
C3143 C3140 1.511 . S
C3143 H3157 0.961 . S
C3143 H3158 0.961 . S
C3143 H3159 0.961 . S
C3144 C3145 1.370 . S
C3144 C3146 1.363 . S
C3144 H3160 0.931 . S
C3145 C3144 1.370 . S
C3145 C3149 1.408 . S
C3146 C3144 1.363 . S
C3146 C3147 1.370 . S
C3146 C3150 1.524 . S
C3147 C3139 1.503 1_455 S
C3147 C3146 1.370 . S
C3147 C3148 1.403 . S
C3148 C3147 1.403 . S
C3148 C3149 1.404 . S
C3148 C3151 1.539 1_455 S
C3149 C3145 1.408 . S
C3149 C3148 1.404 . S
C3149 H3161 0.930 . S
C3150 C3146 1.524 . S
C3150 H3162 0.956 . S
C3150 H3163 0.961 1_455 S
C3150 H3164 0.961 . S
C3151 C3148 1.539 1_655 S
C3151 H3165 0.958 1_655 S
C3151 H3166 0.961 . S
C3151 H3167 0.960 . S
H3152 C3136 0.931 . S
H3153 C3141 0.929 . S
H3154 C3142 0.960 . S
H3155 C3142 0.962 . S
H3156 C3142 0.960 . S
H3157 C3143 0.961 . S
H3158 C3143 0.961 . S
H3159 C3143 0.961 . S
H3160 C3144 0.931 . S
H3161 C3149 0.930 . S
H3162 C3150 0.956 . S
H3163 C3150 0.961 1_655 S
H3164 C3150 0.961 . S
H3165 C3151 0.958 1_455 S
H3166 C3151 0.961 . S
H3167 C3151 0.960 . S
C3168 C3169 1.391 . S
C3168 C3170 1.394 . S
C3168 H3184 0.931 . S
C3169 C3168 1.391 . S
C3169 C3173 1.376 . S
C3170 C3168 1.394 . S
C3170 C3171 1.369 . S
C3170 C3174 1.531 . S
C3171 C3170 1.369 . S
C3171 C3172 1.410 . S
C3171 C3179 1.503 1_455 S
C3172 C3171 1.410 . S
C3172 C3173 1.392 . S
C3172 C3175 1.511 . S
C3173 C3169 1.376 . S
C3173 C3172 1.392 . S
C3173 H3185 0.929 . S
C3174 C3170 1.531 . S
C3174 H3186 0.960 1_455 S
C3174 H3187 0.962 1_455 S
C3174 H3188 0.960 . S
C3175 C3172 1.511 . S
C3175 H3189 0.961 . S
C3175 H3190 0.961 . S
C3175 H3191 0.961 . S
C3176 C3177 1.370 . S
C3176 C3178 1.363 . S
C3176 H3192 0.931 . S
C3177 C3176 1.370 . S
C3177 C3181 1.408 . S
C3178 C3176 1.363 . S
C3178 C3179 1.370 . S
C3178 C3182 1.524 . S
C3179 C3171 1.503 1_655 S
C3179 C3178 1.370 . S
C3179 C3180 1.403 . S
C3180 C3179 1.403 . S
C3180 C3181 1.404 . S
C3180 C3183 1.539 . S
C3181 C3177 1.408 . S
C3181 C3180 1.404 . S
C3181 H3193 0.930 . S
C3182 C3178 1.524 . S
C3182 H3194 0.956 . S
C3182 H3195 0.961 1_655 S
C3182 H3196 0.961 . S
C3183 C3180 1.539 . S
C3183 H3197 0.958 . S
C3183 H3198 0.961 . S
C3183 H3199 0.960 . S
H3184 C3168 0.931 . S
H3185 C3173 0.929 . S
H3186 C3174 0.960 1_655 S
H3187 C3174 0.962 1_655 S
H3188 C3174 0.960 . S
H3189 C3175 0.961 . S
H3190 C3175 0.961 . S
H3191 C3175 0.961 . S
H3192 C3176 0.931 . S
H3193 C3181 0.930 . S
H3194 C3182 0.956 . S
H3195 C3182 0.961 1_455 S
H3196 C3182 0.961 . S
H3197 C3183 0.958 . S
H3198 C3183 0.961 . S
H3199 C3183 0.960 . S
C3200 C3201 1.391 . S
C3200 C3202 1.394 . S
C3200 H3216 0.931 . S
C3201 C3200 1.391 . S
C3201 C3205 1.376 . S
C3202 C3200 1.394 . S
C3202 C3203 1.369 . S
C3202 C3206 1.531 . S
C3203 C3202 1.369 . S
C3203 C3204 1.410 . S
C3203 C3211 1.503 . S
C3204 C3203 1.410 . S
C3204 C3205 1.392 . S
C3204 C3207 1.511 . S
C3205 C3201 1.376 . S
C3205 C3204 1.392 . S
C3205 H3217 0.929 . S
C3206 C3202 1.531 . S
C3206 H3218 0.960 . S
C3206 H3219 0.962 . S
C3206 H3220 0.960 . S
C3207 C3204 1.511 . S
C3207 H3221 0.961 . S
C3207 H3222 0.961 . S
C3207 H3223 0.961 . S
C3208 C3209 1.370 . S
C3208 C3210 1.363 . S
C3208 H3224 0.931 . S
C3209 C3208 1.370 . S
C3209 C3213 1.408 . S
C3210 C3208 1.363 . S
C3210 C3211 1.370 . S
C3210 C3214 1.524 . S
C3211 C3203 1.503 . S
C3211 C3210 1.370 . S
C3211 C3212 1.403 . S
C3212 C3211 1.403 . S
C3212 C3213 1.404 . S
C3212 C3215 1.539 . S
C3213 C3209 1.408 . S
C3213 C3212 1.404 . S
C3213 H3225 0.930 . S
C3214 C3210 1.524 . S
C3214 H3226 0.956 . S
C3214 H3227 0.961 . S
C3214 H3228 0.961 . S
C3215 C3212 1.539 . S
C3215 H3229 0.958 . S
C3215 H3230 0.961 . S
C3215 H3231 0.960 . S
H3216 C3200 0.931 . S
H3217 C3205 0.929 . S
H3218 C3206 0.960 . S
H3219 C3206 0.962 . S
H3220 C3206 0.960 . S
H3221 C3207 0.961 . S
H3222 C3207 0.961 . S
H3223 C3207 0.961 . S
H3224 C3208 0.931 . S
H3225 C3213 0.930 . S
H3226 C3214 0.956 . S
H3227 C3214 0.961 . S
H3228 C3214 0.961 . S
H3229 C3215 0.958 . S
H3230 C3215 0.961 . S
H3231 C3215 0.960 . S
C3232 C3233 1.391 . S
C3232 C3234 1.394 . S
C3232 H3248 0.931 . S
C3233 C3232 1.391 . S
C3233 C3237 1.376 . S
C3234 C3232 1.394 . S
C3234 C3235 1.369 . S
C3234 C3238 1.531 . S
C3235 C3234 1.369 . S
C3235 C3236 1.410 . S
C3235 C3243 1.503 . S
C3236 C3235 1.410 . S
C3236 C3237 1.392 . S
C3236 C3239 1.511 . S
C3237 C3233 1.376 . S
C3237 C3236 1.392 . S
C3237 H3249 0.929 . S
C3238 C3234 1.531 . S
C3238 H3250 0.960 . S
C3238 H3251 0.962 . S
C3238 H3252 0.960 . S
C3239 C3236 1.511 . S
C3239 H3253 0.961 . S
C3239 H3254 0.961 . S
C3239 H3255 0.961 . S
C3240 C3241 1.370 . S
C3240 C3242 1.363 . S
C3240 H3256 0.931 . S
C3241 C3240 1.370 . S
C3241 C3245 1.408 . S
C3242 C3240 1.363 . S
C3242 C3243 1.370 . S
C3242 C3246 1.524 . S
C3243 C3235 1.503 . S
C3243 C3242 1.370 . S
C3243 C3244 1.403 . S
C3244 C3243 1.403 . S
C3244 C3245 1.404 . S
C3244 C3247 1.539 . S
C3245 C3241 1.408 . S
C3245 C3244 1.404 . S
C3245 H3257 0.930 . S
C3246 C3242 1.524 . S
C3246 H3258 0.956 . S
C3246 H3259 0.961 . S
C3246 H3260 0.961 . S
C3247 C3244 1.539 . S
C3247 H3261 0.958 . S
C3247 H3262 0.961 . S
C3247 H3263 0.960 . S
H3248 C3232 0.931 . S
H3249 C3237 0.929 . S
H3250 C3238 0.960 . S
H3251 C3238 0.962 . S
H3252 C3238 0.960 . S
H3253 C3239 0.961 . S
H3254 C3239 0.961 . S
H3255 C3239 0.961 . S
H3256 C3240 0.931 . S
H3257 C3245 0.930 . S
H3258 C3246 0.956 . S
H3259 C3246 0.961 . S
H3260 C3246 0.961 . S
H3261 C3247 0.958 . S
H3262 C3247 0.961 . S
H3263 C3247 0.960 . S
C3264 C3265 1.391 . S
C3264 C3266 1.394 . S
C3264 H3280 0.931 . S
C3265 C3264 1.391 . S
C3265 C3269 1.376 . S
C3266 C3264 1.394 . S
C3266 C3267 1.369 . S
C3266 C3270 1.531 . S
C3267 C3266 1.369 . S
C3267 C3268 1.410 . S
C3267 C3275 1.503 . S
C3268 C3267 1.410 . S
C3268 C3269 1.392 . S
C3268 C3271 1.511 . S
C3269 C3265 1.376 . S
C3269 C3268 1.392 . S
C3269 H3281 0.929 . S
C3270 C3266 1.531 . S
C3270 H3282 0.960 . S
C3270 H3283 0.962 . S
C3270 H3284 0.960 . S
C3271 C3268 1.511 . S
C3271 H3285 0.961 . S
C3271 H3286 0.961 . S
C3271 H3287 0.961 . S
C3272 C3273 1.370 . S
C3272 C3274 1.363 . S
C3272 H3288 0.931 . S
C3273 C3272 1.370 . S
C3273 C3277 1.408 . S
C3274 C3272 1.363 . S
C3274 C3275 1.370 . S
C3274 C3278 1.524 . S
C3275 C3267 1.503 . S
C3275 C3274 1.370 . S
C3275 C3276 1.403 . S
C3276 C3275 1.403 . S
C3276 C3277 1.404 . S
C3276 C3279 1.539 . S
C3277 C3273 1.408 . S
C3277 C3276 1.404 . S
C3277 H3289 0.930 . S
C3278 C3274 1.524 . S
C3278 H3290 0.956 . S
C3278 H3291 0.961 . S
C3278 H3292 0.961 . S
C3279 C3276 1.539 . S
C3279 H3293 0.958 . S
C3279 H3294 0.961 . S
C3279 H3295 0.960 . S
H3280 C3264 0.931 . S
H3281 C3269 0.929 . S
H3282 C3270 0.960 . S
H3283 C3270 0.962 . S
H3284 C3270 0.960 . S
H3285 C3271 0.961 . S
H3286 C3271 0.961 . S
H3287 C3271 0.961 . S
H3288 C3272 0.931 . S
H3289 C3277 0.930 . S
H3290 C3278 0.956 . S
H3291 C3278 0.961 . S
H3292 C3278 0.961 . S
H3293 C3279 0.958 . S
H3294 C3279 0.961 . S
H3295 C3279 0.960 . S
C3296 C3297 1.391 . S
C3296 C3298 1.394 . S
C3296 H3312 0.931 . S
C3297 C3296 1.391 . S
C3297 C3301 1.376 . S
C3298 C3296 1.394 . S
C3298 C3299 1.369 . S
C3298 C3302 1.531 . S
C3299 C3298 1.369 . S
C3299 C3300 1.410 . S
C3299 C3307 1.503 1_655 S
C3300 C3299 1.410 . S
C3300 C3301 1.392 . S
C3300 C3303 1.511 . S
C3301 C3297 1.376 . S
C3301 C3300 1.392 . S
C3301 H3313 0.929 . S
C3302 C3298 1.531 . S
C3302 H3314 0.960 . S
C3302 H3315 0.962 . S
C3302 H3316 0.960 . S
C3303 C3300 1.511 . S
C3303 H3317 0.961 . S
C3303 H3318 0.961 1_655 S
C3303 H3319 0.961 1_655 S
C3304 C3305 1.370 . S
C3304 C3306 1.363 . S
C3304 H3320 0.931 . S
C3305 C3304 1.370 . S
C3305 C3309 1.408 . S
C3306 C3304 1.363 . S
C3306 C3307 1.370 . S
C3306 C3310 1.524 . S
C3307 C3299 1.503 1_455 S
C3307 C3306 1.370 . S
C3307 C3308 1.403 . S
C3308 C3307 1.403 . S
C3308 C3309 1.404 . S
C3308 C3311 1.539 . S
C3309 C3305 1.408 . S
C3309 C3308 1.404 . S
C3309 H3321 0.930 . S
C3310 C3306 1.524 . S
C3310 H3322 0.956 1_455 S
C3310 H3323 0.961 . S
C3310 H3324 0.961 . S
C3311 C3308 1.539 . S
C3311 H3325 0.958 . S
C3311 H3326 0.961 . S
C3311 H3327 0.960 . S
H3312 C3296 0.931 . S
H3313 C3301 0.929 . S
H3314 C3302 0.960 . S
H3315 C3302 0.962 . S
H3316 C3302 0.960 . S
H3317 C3303 0.961 . S
H3318 C3303 0.961 1_455 S
H3319 C3303 0.961 1_455 S
H3320 C3304 0.931 . S
H3321 C3309 0.930 . S
H3322 C3310 0.956 1_655 S
H3323 C3310 0.961 . S
H3324 C3310 0.961 . S
H3325 C3311 0.958 . S
H3326 C3311 0.961 . S
H3327 C3311 0.960 . S
C3328 C3329 1.391 1_455 S
C3328 C3330 1.394 . S
C3328 H3344 0.931 . S
C3329 C3328 1.391 1_655 S
C3329 C3333 1.376 . S
C3330 C3328 1.394 . S
C3330 C3331 1.369 1_455 S
C3330 C3334 1.531 . S
C3331 C3330 1.369 1_655 S
C3331 C3332 1.410 . S
C3331 C3339 1.503 1_655 S
C3332 C3331 1.410 . S
C3332 C3333 1.392 . S
C3332 C3335 1.511 . S
C3333 C3329 1.376 . S
C3333 C3332 1.392 . S
C3333 H3345 0.929 . S
C3334 C3330 1.531 . S
C3334 H3346 0.960 . S
C3334 H3347 0.962 . S
C3334 H3348 0.960 . S
C3335 C3332 1.511 . S
C3335 H3349 0.961 . S
C3335 H3350 0.961 . S
C3335 H3351 0.961 . S
C3336 C3337 1.370 . S
C3336 C3338 1.363 . S
C3336 H3352 0.931 . S
C3337 C3336 1.370 . S
C3337 C3341 1.408 . S
C3338 C3336 1.363 . S
C3338 C3339 1.370 . S
C3338 C3342 1.524 . S
C3339 C3331 1.503 1_455 S
C3339 C3338 1.370 . S
C3339 C3340 1.403 . S
C3340 C3339 1.403 . S
C3340 C3341 1.404 . S
C3340 C3343 1.539 1_455 S
C3341 C3337 1.408 . S
C3341 C3340 1.404 . S
C3341 H3353 0.930 . S
C3342 C3338 1.524 . S
C3342 H3354 0.956 . S
C3342 H3355 0.961 1_455 S
C3342 H3356 0.961 . S
C3343 C3340 1.539 1_655 S
C3343 H3357 0.958 1_655 S
C3343 H3358 0.961 . S
C3343 H3359 0.960 . S
H3344 C3328 0.931 . S
H3345 C3333 0.929 . S
H3346 C3334 0.960 . S
H3347 C3334 0.962 . S
H3348 C3334 0.960 . S
H3349 C3335 0.961 . S
H3350 C3335 0.961 . S
H3351 C3335 0.961 . S
H3352 C3336 0.931 . S
H3353 C3341 0.930 . S
H3354 C3342 0.956 . S
H3355 C3342 0.961 1_655 S
H3356 C3342 0.961 . S
H3357 C3343 0.958 1_455 S
H3358 C3343 0.961 . S
H3359 C3343 0.960 . S
C3360 C3361 1.391 . S
C3360 C3362 1.394 . S
C3360 H3376 0.931 . S
C3361 C3360 1.391 . S
C3361 C3365 1.376 . S
C3362 C3360 1.394 . S
C3362 C3363 1.369 . S
C3362 C3366 1.531 . S
C3363 C3362 1.369 . S
C3363 C3364 1.410 . S
C3363 C3371 1.503 . S
C3364 C3363 1.410 . S
C3364 C3365 1.392 . S
C3364 C3367 1.511 . S
C3365 C3361 1.376 . S
C3365 C3364 1.392 . S
C3365 H3377 0.929 . S
C3366 C3362 1.531 . S
C3366 H3378 0.960 . S
C3366 H3379 0.962 . S
C3366 H3380 0.960 . S
C3367 C3364 1.511 . S
C3367 H3381 0.961 . S
C3367 H3382 0.961 . S
C3367 H3383 0.961 . S
C3368 C3369 1.370 . S
C3368 C3370 1.363 . S
C3368 H3384 0.931 . S
C3369 C3368 1.370 . S
C3369 C3373 1.408 . S
C3370 C3368 1.363 . S
C3370 C3371 1.370 . S
C3370 C3374 1.524 . S
C3371 C3363 1.503 . S
C3371 C3370 1.370 . S
C3371 C3372 1.403 . S
C3372 C3371 1.403 . S
C3372 C3373 1.404 . S
C3372 C3375 1.539 . S
C3373 C3369 1.408 . S
C3373 C3372 1.404 . S
C3373 H3385 0.930 . S
C3374 C3370 1.524 . S
C3374 H3386 0.956 . S
C3374 H3387 0.961 . S
C3374 H3388 0.961 . S
C3375 C3372 1.539 . S
C3375 H3389 0.958 . S
C3375 H3390 0.961 . S
C3375 H3391 0.960 . S
H3376 C3360 0.931 . S
H3377 C3365 0.929 . S
H3378 C3366 0.960 . S
H3379 C3366 0.962 . S
H3380 C3366 0.960 . S
H3381 C3367 0.961 . S
H3382 C3367 0.961 . S
H3383 C3367 0.961 . S
H3384 C3368 0.931 . S
H3385 C3373 0.930 . S
H3386 C3374 0.956 . S
H3387 C3374 0.961 . S
H3388 C3374 0.961 . S
H3389 C3375 0.958 . S
H3390 C3375 0.961 . S
H3391 C3375 0.960 . S
C3392 C3393 1.391 . S
C3392 C3394 1.394 . S
C3392 H3408 0.931 . S
C3393 C3392 1.391 . S
C3393 C3397 1.376 1_455 S
C3394 C3392 1.394 . S
C3394 C3395 1.359 1_455 S
C3394 C3398 1.531 . S
C3395 C3394 1.359 1_655 S
C3395 C3396 1.416 . S
C3395 C3403 1.506 . S
C3396 C3395 1.416 . S
C3396 C3397 1.392 . S
C3396 C3399 1.511 . S
C3397 C3393 1.376 1_655 S
C3397 C3396 1.392 . S
C3397 H3409 0.929 . S
C3398 C3394 1.531 . S
C3398 H3410 0.960 . S
C3398 H3411 0.962 . S
C3398 H3412 0.960 . S
C3399 C3396 1.511 . S
C3399 H3413 0.961 . S
C3399 H3414 0.961 . S
C3399 H3415 0.961 . S
C3400 C3401 1.370 1_455 S
C3400 C3402 1.363 . S
C3400 H3416 0.931 . S
C3401 C3400 1.370 1_655 S
C3401 C3405 1.408 . S
C3402 C3400 1.363 . S
C3402 C3403 1.370 1_455 S
C3402 C3406 1.524 . S
C3403 C3395 1.506 . S
C3403 C3402 1.370 1_655 S
C3403 C3404 1.403 . S
C3404 C3403 1.403 . S
C3404 C3405 1.404 . S
C3404 C3407 1.539 . S
C3405 C3401 1.408 . S
C3405 C3404 1.404 . S
C3405 H3417 0.930 . S
C3406 C3402 1.524 . S
C3406 H3418 0.956 . S
C3406 H3419 0.961 . S
C3406 H3420 0.961 . S
C3407 C3404 1.539 . S
C3407 H3421 0.958 . S
C3407 H3422 0.961 . S
C3407 H3423 0.960 . S
H3408 C3392 0.931 . S
H3409 C3397 0.929 . S
H3410 C3398 0.960 . S
H3411 C3398 0.962 . S
H3412 C3398 0.960 . S
H3413 C3399 0.961 . S
H3414 C3399 0.961 . S
H3415 C3399 0.961 . S
H3416 C3400 0.931 . S
H3417 C3405 0.930 . S
H3418 C3406 0.956 . S
H3419 C3406 0.961 . S
H3420 C3406 0.961 . S
H3421 C3407 0.958 . S
H3422 C3407 0.961 . S
H3423 C3407 0.960 . S
C3424 C3425 1.391 . S
C3424 C3426 1.394 . S
C3424 H3440 0.931 . S
C3425 C3424 1.391 . S
C3425 C3429 1.376 . S
C3426 C3424 1.394 . S
C3426 C3427 1.369 . S
C3426 C3430 1.531 . S
C3427 C3426 1.369 . S
C3427 C3428 1.410 . S
C3427 C3435 1.503 1_655 S
C3428 C3427 1.410 . S
C3428 C3429 1.392 . S
C3428 C3431 1.511 . S
C3429 C3425 1.376 . S
C3429 C3428 1.392 . S
C3429 H3441 0.929 . S
C3430 C3426 1.531 . S
C3430 H3442 0.960 . S
C3430 H3443 0.962 . S
C3430 H3444 0.960 . S
C3431 C3428 1.511 . S
C3431 H3445 0.961 . S
C3431 H3446 0.961 1_655 S
C3431 H3447 0.961 1_655 S
C3432 C3433 1.370 . S
C3432 C3434 1.363 . S
C3432 H3448 0.931 . S
C3433 C3432 1.370 . S
C3433 C3437 1.408 . S
C3434 C3432 1.363 . S
C3434 C3435 1.370 . S
C3434 C3438 1.524 . S
C3435 C3427 1.503 1_455 S
C3435 C3434 1.370 . S
C3435 C3436 1.403 . S
C3436 C3435 1.403 . S
C3436 C3437 1.404 . S
C3436 C3439 1.539 . S
C3437 C3433 1.408 . S
C3437 C3436 1.404 . S
C3437 H3449 0.930 . S
C3438 C3434 1.524 . S
C3438 H3450 0.956 1_455 S
C3438 H3451 0.961 1_455 S
C3438 H3452 0.961 . S
C3439 C3436 1.539 . S
C3439 H3453 0.958 . S
C3439 H3454 0.961 . S
C3439 H3455 0.960 . S
H3440 C3424 0.931 . S
H3441 C3429 0.929 . S
H3442 C3430 0.960 . S
H3443 C3430 0.962 . S
H3444 C3430 0.960 . S
H3445 C3431 0.961 . S
H3446 C3431 0.961 1_455 S
H3447 C3431 0.961 1_455 S
H3448 C3432 0.931 . S
H3449 C3437 0.930 . S
H3450 C3438 0.956 1_655 S
H3451 C3438 0.961 1_655 S
H3452 C3438 0.961 . S
H3453 C3439 0.958 . S
H3454 C3439 0.961 . S
H3455 C3439 0.960 . S
C3456 C3457 1.391 . S
C3456 C3458 1.394 . S
C3456 H3472 0.931 . S
C3457 C3456 1.391 . S
C3457 C3461 1.376 . S
C3458 C3456 1.394 . S
C3458 C3459 1.369 . S
C3458 C3462 1.531 . S
C3459 C3458 1.369 . S
C3459 C3460 1.410 . S
C3459 C3467 1.503 . S
C3460 C3459 1.410 . S
C3460 C3461 1.392 . S
C3460 C3463 1.511 . S
C3461 C3457 1.376 . S
C3461 C3460 1.392 . S
C3461 H3473 0.929 . S
C3462 C3458 1.531 . S
C3462 H3474 0.960 . S
C3462 H3475 0.962 . S
C3462 H3476 0.960 . S
C3463 C3460 1.511 . S
C3463 H3477 0.961 . S
C3463 H3478 0.961 . S
C3463 H3479 0.961 . S
C3464 C3465 1.370 . S
C3464 C3466 1.363 . S
C3464 H3480 0.931 . S
C3465 C3464 1.370 . S
C3465 C3469 1.408 . S
C3466 C3464 1.363 . S
C3466 C3467 1.370 . S
C3466 C3470 1.524 . S
C3467 C3459 1.503 . S
C3467 C3466 1.370 . S
C3467 C3468 1.403 . S
C3468 C3467 1.403 . S
C3468 C3469 1.404 . S
C3468 C3471 1.539 . S
C3469 C3465 1.408 . S
C3469 C3468 1.404 . S
C3469 H3481 0.930 . S
C3470 C3466 1.524 . S
C3470 H3482 0.956 . S
C3470 H3483 0.961 . S
C3470 H3484 0.961 . S
C3471 C3468 1.539 . S
C3471 H3485 0.958 . S
C3471 H3486 0.961 . S
C3471 H3487 0.960 . S
H3472 C3456 0.931 . S
H3473 C3461 0.929 . S
H3474 C3462 0.960 . S
H3475 C3462 0.962 . S
H3476 C3462 0.960 . S
H3477 C3463 0.961 . S
H3478 C3463 0.961 . S
H3479 C3463 0.961 . S
H3480 C3464 0.931 . S
H3481 C3469 0.930 . S
H3482 C3470 0.956 . S
H3483 C3470 0.961 . S
H3484 C3470 0.961 . S
H3485 C3471 0.958 . S
H3486 C3471 0.961 . S
H3487 C3471 0.960 . S
C3488 C3489 1.391 . S
C3488 C3490 1.394 . S
C3488 H3504 0.931 . S
C3489 C3488 1.391 . S
C3489 C3493 1.376 . S
C3490 C3488 1.394 . S
C3490 C3491 1.369 . S
C3490 C3494 1.531 . S
C3491 C3490 1.369 . S
C3491 C3492 1.410 . S
C3491 C3499 1.503 . S
C3492 C3491 1.410 . S
C3492 C3493 1.392 . S
C3492 C3495 1.511 . S
C3493 C3489 1.376 . S
C3493 C3492 1.392 . S
C3493 H3505 0.929 . S
C3494 C3490 1.531 . S
C3494 H3506 0.960 . S
C3494 H3507 0.962 . S
C3494 H3508 0.960 . S
C3495 C3492 1.511 . S
C3495 H3509 0.961 . S
C3495 H3510 0.961 . S
C3495 H3511 0.961 . S
C3496 C3497 1.370 . S
C3496 C3498 1.363 . S
C3496 H3512 0.931 . S
C3497 C3496 1.370 . S
C3497 C3501 1.408 . S
C3498 C3496 1.363 . S
C3498 C3499 1.370 . S
C3498 C3502 1.524 . S
C3499 C3491 1.503 . S
C3499 C3498 1.370 . S
C3499 C3500 1.403 . S
C3500 C3499 1.403 . S
C3500 C3501 1.404 . S
C3500 C3503 1.539 . S
C3501 C3497 1.408 . S
C3501 C3500 1.404 . S
C3501 H3513 0.930 . S
C3502 C3498 1.524 . S
C3502 H3514 0.956 . S
C3502 H3515 0.961 . S
C3502 H3516 0.961 . S
C3503 C3500 1.539 . S
C3503 H3517 0.958 . S
C3503 H3518 0.961 . S
C3503 H3519 0.960 . S
H3504 C3488 0.931 . S
H3505 C3493 0.929 . S
H3506 C3494 0.960 . S
H3507 C3494 0.962 . S
H3508 C3494 0.960 . S
H3509 C3495 0.961 . S
H3510 C3495 0.961 . S
H3511 C3495 0.961 . S
H3512 C3496 0.931 . S
H3513 C3501 0.930 . S
H3514 C3502 0.956 . S
H3515 C3502 0.961 . S
H3516 C3502 0.961 . S
H3517 C3503 0.958 . S
H3518 C3503 0.961 . S
H3519 C3503 0.960 . S
C3520 C3521 1.391 . S
C3520 C3522 1.394 . S
C3520 H3536 0.931 . S
C3521 C3520 1.391 . S
C3521 C3525 1.376 . S
C3522 C3520 1.394 . S
C3522 C3523 1.369 . S
C3522 C3526 1.531 . S
C3523 C3522 1.369 . S
C3523 C3524 1.410 . S
C3523 C3531 1.503 . S
C3524 C3523 1.410 . S
C3524 C3525 1.392 . S
C3524 C3527 1.511 . S
C3525 C3521 1.376 . S
C3525 C3524 1.392 . S
C3525 H3537 0.929 . S
C3526 C3522 1.531 . S
C3526 H3538 0.960 . S
C3526 H3539 0.962 . S
C3526 H3540 0.960 . S
C3527 C3524 1.511 . S
C3527 H3541 0.961 . S
C3527 H3542 0.961 . S
C3527 H3543 0.961 . S
C3528 C3529 1.370 . S
C3528 C3530 1.363 . S
C3528 H3544 0.931 . S
C3529 C3528 1.370 . S
C3529 C3533 1.408 . S
C3530 C3528 1.363 . S
C3530 C3531 1.370 . S
C3530 C3534 1.524 . S
C3531 C3523 1.503 . S
C3531 C3530 1.370 . S
C3531 C3532 1.403 . S
C3532 C3531 1.403 . S
C3532 C3533 1.404 . S
C3532 C3535 1.539 . S
C3533 C3529 1.408 . S
C3533 C3532 1.404 . S
C3533 H3545 0.930 . S
C3534 C3530 1.524 . S
C3534 H3546 0.956 . S
C3534 H3547 0.961 . S
C3534 H3548 0.961 . S
C3535 C3532 1.539 . S
C3535 H3549 0.958 . S
C3535 H3550 0.961 . S
C3535 H3551 0.960 . S
H3536 C3520 0.931 . S
H3537 C3525 0.929 . S
H3538 C3526 0.960 . S
H3539 C3526 0.962 . S
H3540 C3526 0.960 . S
H3541 C3527 0.961 . S
H3542 C3527 0.961 . S
H3543 C3527 0.961 . S
H3544 C3528 0.931 . S
H3545 C3533 0.930 . S
H3546 C3534 0.956 . S
H3547 C3534 0.961 . S
H3548 C3534 0.961 . S
H3549 C3535 0.958 . S
H3550 C3535 0.961 . S
H3551 C3535 0.960 . S
C3552 C3553 1.391 . S
C3552 C3554 1.394 . S
C3552 H3568 0.931 . S
C3553 C3552 1.391 . S
C3553 C3557 1.376 . S
C3554 C3552 1.394 . S
C3554 C3555 1.369 . S
C3554 C3558 1.531 . S
C3555 C3554 1.369 . S
C3555 C3556 1.410 . S
C3555 C3563 1.503 1_455 S
C3556 C3555 1.410 . S
C3556 C3557 1.392 . S
C3556 C3559 1.511 . S
C3557 C3553 1.376 . S
C3557 C3556 1.392 . S
C3557 H3569 0.929 . S
C3558 C3554 1.531 . S
C3558 H3570 0.960 1_455 S
C3558 H3571 0.962 1_455 S
C3558 H3572 0.960 . S
C3559 C3556 1.511 . S
C3559 H3573 0.961 . S
C3559 H3574 0.961 . S
C3559 H3575 0.961 . S
C3560 C3561 1.370 . S
C3560 C3562 1.363 . S
C3560 H3576 0.931 . S
C3561 C3560 1.370 . S
C3561 C3565 1.408 . S
C3562 C3560 1.363 . S
C3562 C3563 1.370 . S
C3562 C3566 1.524 . S
C3563 C3555 1.503 1_655 S
C3563 C3562 1.370 . S
C3563 C3564 1.403 . S
C3564 C3563 1.403 . S
C3564 C3565 1.404 . S
C3564 C3567 1.539 . S
C3565 C3561 1.408 . S
C3565 C3564 1.404 . S
C3565 H3577 0.930 . S
C3566 C3562 1.524 . S
C3566 H3578 0.952 1_655 S
C3566 H3579 0.961 1_655 S
C3566 H3580 0.961 . S
C3567 C3564 1.539 . S
C3567 H3581 0.958 . S
C3567 H3582 0.961 . S
C3567 H3583 0.960 . S
H3568 C3552 0.931 . S
H3569 C3557 0.929 . S
H3570 C3558 0.960 1_655 S
H3571 C3558 0.962 1_655 S
H3572 C3558 0.960 . S
H3573 C3559 0.961 . S
H3574 C3559 0.961 . S
H3575 C3559 0.961 . S
H3576 C3560 0.931 . S
H3577 C3565 0.930 . S
H3578 C3566 0.952 1_455 S
H3579 C3566 0.961 1_455 S
H3580 C3566 0.961 . S
H3581 C3567 0.958 . S
H3582 C3567 0.961 . S
H3583 C3567 0.960 . S
C3584 C3585 1.391 . S
C3584 C3586 1.394 . S
C3584 H3600 0.931 . S
C3585 C3584 1.391 . S
C3585 C3589 1.376 1_455 S
C3586 C3584 1.394 . S
C3586 C3587 1.369 . S
C3586 C3590 1.531 . S
C3587 C3586 1.369 . S
C3587 C3588 1.410 1_455 S
C3587 C3595 1.503 1_455 S
C3588 C3587 1.410 1_655 S
C3588 C3589 1.392 . S
C3588 C3591 1.511 . S
C3589 C3585 1.376 1_655 S
C3589 C3588 1.392 . S
C3589 H3601 0.929 . S
C3590 C3586 1.531 . S
C3590 H3602 0.960 . S
C3590 H3603 0.962 . S
C3590 H3604 0.960 . S
C3591 C3588 1.511 . S
C3591 H3605 0.961 . S
C3591 H3606 0.961 . S
C3591 H3607 0.961 . S
C3592 C3593 1.370 . S
C3592 C3594 1.363 1_655 S
C3592 H3608 0.931 1_655 S
C3593 C3592 1.370 . S
C3593 C3597 1.408 . S
C3594 C3592 1.363 1_455 S
C3594 C3595 1.370 1_455 S
C3594 C3598 1.524 . S
C3595 C3587 1.503 1_655 S
C3595 C3594 1.370 1_655 S
C3595 C3596 1.403 . S
C3596 C3595 1.403 . S
C3596 C3597 1.404 . S
C3596 C3599 1.539 . S
C3597 C3593 1.408 . S
C3597 C3596 1.404 . S
C3597 H3609 0.930 . S
C3598 C3594 1.524 . S
C3598 H3610 0.956 . S
C3598 H3611 0.961 . S
C3598 H3612 0.961 . S
C3599 C3596 1.539 . S
C3599 H3613 0.958 . S
C3599 H3614 0.961 . S
C3599 H3615 0.960 . S
H3600 C3584 0.931 . S
H3601 C3589 0.929 . S
H3602 C3590 0.960 . S
H3603 C3590 0.962 . S
H3604 C3590 0.960 . S
H3605 C3591 0.961 . S
H3606 C3591 0.961 . S
H3607 C3591 0.961 . S
H3608 C3592 0.931 1_455 S
H3609 C3597 0.930 . S
H3610 C3598 0.956 . S
H3611 C3598 0.961 . S
H3612 C3598 0.961 . S
H3613 C3599 0.958 . S
H3614 C3599 0.961 . S
H3615 C3599 0.960 . S
C1057 C18 1.419 . S
C1065 C249 1.402 . S
C1089 C51 1.392 . S
C1097 C150 1.407 . S
C1121 C84 1.382 . S
C1129 C183 1.390 . S
C1153 C117 1.378 . S
C1161 C216 1.391 . S
C1185 C513 1.373 . S
C1193 C282 1.397 . S
C1217 C315 1.412 . S
C1225 C414 1.394 . S
C1249 C447 1.416 . S
C1257 C348 1.406 . S
C1281 C381 1.373 . S
C1289 C480 1.397 . S
C1313 C546 1.419 . S
C1321 C777 1.403 . S
C1345 C678 1.419 . S
C1353 C579 1.404 . S
C1377 C612 1.409 . S
C1385 C711 1.395 . S
C1409 C645 1.409 . S
C1417 C744 1.395 . S
C1441 C810 1.380 . S
C1449 C1041 1.405 . S
C1473 C843 1.388 . S
C1481 C942 1.390 . S
C1505 C975 1.388 . S
C1513 C876 1.390 . S
C1537 C1008 1.419 . S
C1545 C909 1.399 . S
C1569 C205 1.528 . S
C1577 C7 1.552 . S
C1601 C40 1.548 . S
C1609 C238 1.543 . S
C1633 C73 1.542 . S
C1641 C139 1.546 . S
C1665 C106 1.522 . S
C1673 C172 1.555 . S
C1697 C271 1.516 . S
C1705 C469 1.558 . S
C1729 C502 1.567 . S
C1737 C304 1.538 . S
C1761 C403 1.560 . S
C1769 C337 1.536 . S
C1793 C436 1.523 . S
C1801 C370 1.551 . S
C1825 C535 1.525 . S
C1833 C733 1.553 . S
C1857 C766 1.563 . S
C1865 C568 1.537 . S
C1889 C667 1.564 . S
C1897 C601 1.537 . S
C1921 C634 1.549 . S
C1929 C700 1.543 . S
C1953 C997 1.546 . S
C1961 C799 1.549 . S
C1985 C832 1.568 . S
C1993 C1030 1.538 . S
C2017 C931 1.551 . S
C2025 C865 1.539 . S
C2049 C964 1.566 . S
C2057 C898 1.539 . S
C2081 N926 1.272 . S
C2089 N13 1.310 . S
C2113 N431 1.306 . S
C2121 N46 1.293 . S
C2145 N992 1.316 . S
C2153 N79 1.295 . S
C2177 N112 1.294 . S
C2185 N497 1.304 . S
C2209 N794 1.311 . S
C2217 N145 1.298 . S
C2241 N299 1.271 . S
C2249 N178 1.310 . S
C2273 N860 1.319 . S
C2281 N211 1.292 . S
C2305 N244 1.308 . S
C2313 N365 1.298 . S
C2337 N277 1.280 . S
C2345 N662 1.306 . S
C2369 N310 1.296 . S
C2377 N167 1.300 . S
C2401 N343 1.318 . S
C2409 N728 1.290 . S
C2433 N233 1.297 . S
C2441 N376 1.301 . S
C2465 N530 1.271 . S
C2473 N409 1.310 . S
C2497 N442 1.314 . S
C2505 N35 1.292 . S
C2529 N475 1.275 . S
C2537 N596 1.309 . S
C2561 N508 1.273 . S
C2569 N101 1.309 . S
C2593 N398 1.319 . S
C2601 N541 1.292 . S
C2625 N574 1.287 . S
C2633 N959 1.300 . S
C2657 N464 1.277 . S
C2665 N607 1.305 . S
C2689 N640 1.309 . S
C2697 N1025 1.298 . S
C2721 N673 1.273 . S
C2729 N266 1.308 . S
C2753 N706 1.283 . S
C2761 N827 1.308 . S
C2785 N332 1.280 . S
C2793 N739 1.304 . S
C2817 N772 1.275 . S
C2825 N893 1.309 . S
C2849 N134 1.315 . S
C2857 N805 1.292 . S
C2881 N695 1.287 . S
C2889 N838 1.304 . S
C2913 N200 1.272 . S
C2921 N871 1.310 . S
C2945 N761 1.275 . S
C2953 N904 1.309 . S
C2977 N2 1.313 . S
C2985 N937 1.293 . S
C3009 N563 1.313 . S
C3017 N970 1.293 . S
C3041 N1003 1.306 . S
C3049 N68 1.296 . S
C3073 N629 1.287 . S
C3081 N1036 1.304 . S
C3105 C615 0.945 . S
C3113 C21 0.927 . S
C3137 C648 0.943 . S
C3145 C54 0.933 . S
C3169 C87 0.914 . S
C3177 C549 0.920 . S
C3201 C120 0.945 . S
C3209 C582 0.930 . S
C3233 C747 0.944 . S
C3241 C153 0.932 . S
C3265 C186 0.907 . S
C3273 C780 0.925 . S
C3297 C681 0.940 . S
C3305 C219 0.934 . S
C3329 C714 0.944 . S
C3337 C252 0.932 . S
C3361 C879 0.915 . S
C3369 C285 0.920 . S
C3393 C912 0.929 . S
C3401 C318 0.935 . S
C3425 C351 0.918 . S
C3433 C813 0.920 . S
C3457 C384 0.914 . S
C3465 C846 0.920 . S
C3489 C417 0.916 . S
C3497 C1011 0.931 . S
C3521 C450 0.935 . S
C3529 C1044 0.935 . S
C3553 C945 0.945 . S
C3561 C483 0.933 . S
C3585 C978 0.936 . S
C3593 C516 0.936 . S
