# Generated by pormake.
# Topology wnr, (7)-cn, num edge types: 1
# Building blocks:
#     Node 0, Type 0, BuildingBlock: HICVOG_clean_sbu_0, # of connection points: 7
#     Node 1, Type 0, BuildingBlock: HICVOG_clean_sbu_0, # of connection points: 7
#     Node 2, Type 0, BuildingBlock: HICVOG_clean_sbu_0, # of connection points: 7
#     Node 3, Type 0, BuildingBlock: HICVOG_clean_sbu_0, # of connection points: 7
#     Node 4, Type 0, BuildingBlock: HICVOG_clean_sbu_0, # of connection points: 7
#     Node 5, Type 0, BuildingBlock: HICVOG_clean_sbu_0, # of connection points: 7
#     Edge 6, Type (0, 0), BuildingBlock: KIFKEQ_clean_linker_1, # of connection points: 2
#     Edge 7, Type (0, 0), BuildingBlock: KIFKEQ_clean_linker_1, # of connection points: 2
#     Edge 8, Type (0, 0), BuildingBlock: KIFKEQ_clean_linker_1, # of connection points: 2
#     Edge 9, Type (0, 0), BuildingBlock: KIFKEQ_clean_linker_1, # of connection points: 2
#     Edge 10, Type (0, 0), BuildingBlock: KIFKEQ_clean_linker_1, # of connection points: 2
#     Edge 11, Type (0, 0), BuildingBlock: KIFKEQ_clean_linker_1, # of connection points: 2
#     Edge 12, Type (0, 0), BuildingBlock: KIFKEQ_clean_linker_1, # of connection points: 2
#     Edge 13, Type (0, 0), BuildingBlock: KIFKEQ_clean_linker_1, # of connection points: 2
#     Edge 14, Type (0, 0), BuildingBlock: KIFKEQ_clean_linker_1, # of connection points: 2
#     Edge 15, Type (0, 0), BuildingBlock: KIFKEQ_clean_linker_1, # of connection points: 2
#     Edge 16, Type (0, 0), BuildingBlock: KIFKEQ_clean_linker_1, # of connection points: 2
#     Edge 17, Type (0, 0), BuildingBlock: KIFKEQ_clean_linker_1, # of connection points: 2
#     Edge 18, Type (0, 0), BuildingBlock: KIFKEQ_clean_linker_1, # of connection points: 2
#     Edge 19, Type (0, 0), BuildingBlock: KIFKEQ_clean_linker_1, # of connection points: 2
#     Edge 20, Type (0, 0), BuildingBlock: KIFKEQ_clean_linker_1, # of connection points: 2
#     Edge 21, Type (0, 0), BuildingBlock: KIFKEQ_clean_linker_1, # of connection points: 2
#     Edge 22, Type (0, 0), BuildingBlock: KIFKEQ_clean_linker_1, # of connection points: 2
#     Edge 23, Type (0, 0), BuildingBlock: KIFKEQ_clean_linker_1, # of connection points: 2
#     Edge 24, Type (0, 0), BuildingBlock: KIFKEQ_clean_linker_1, # of connection points: 2
#     Edge 25, Type (0, 0), BuildingBlock: KIFKEQ_clean_linker_1, # of connection points: 2
#     Edge 26, Type (0, 0), BuildingBlock: KIFKEQ_clean_linker_1, # of connection points: 2
# Relax obj value: 0.155
# Max RMSD: 0.226
# Mean RMSD: 0.226
data_MOF--net-wnr--node1-HICVOG_clean_sbu_0--edge1-KIFKEQ_clean_linker_1
_symmetry_space_group_name_H-M    P1
_symmetry_Int_Tables_number       1
_symmetry_cell_setting            triclinic
loop_
_symmetry_equiv_pos_as_xyz
'x, y, z'
_cell_length_a     43.299314
_cell_length_b     43.277734
_cell_length_c     17.916824
_cell_angle_alpha  90.036585
_cell_angle_beta   90.019778
_cell_angle_gamma 119.97487
loop_
_atom_site_label
_atom_site_type_symbol
_atom_site_fract_x
_atom_site_fract_y
_atom_site_fract_z
_atom_type_partial_charge
Zn0 Zn 0.18236 0.40086 0.02495 0.0
C1 C 0.10879 0.41443 0.13627 0.0
N2 N 0.08623 0.38841 0.09049 0.0
C3 C 0.1083 0.38328 0.04659 0.0
N4 N 0.14295 0.40525 0.06422 0.0
N5 N 0.14331 0.42498 0.12143 0.0
C6 C 0.19232 0.43799 0.3099 0.0
O7 O 0.19959 0.41746 0.26813 0.0
O8 O 0.17936 0.39599 0.91152 0.0
Zn9 Zn 0.18349 0.46716 0.16714 0.0
N10 N 0.18122 0.35976 0.0713 0.0
C11 C 0.15865 0.31687 0.16901 0.0
C12 C 0.16039 0.34612 0.13287 0.0
C13 C 0.20097 0.34554 0.04488 0.0
N14 N 0.17802 0.30248 0.14249 0.0
C15 C 0.19942 0.31594 0.08147 0.0
O16 O 0.23289 0.48435 0.12295 0.0
C17 C 0.24784 0.47306 0.07803 0.0
O18 O 0.23023 0.44342 0.0443 0.0
H19 H 0.14526 0.35791 0.15402 0.0
H20 H 0.21715 0.35691 0.99556 0.0
C21 C 0.18536 0.53356 0.20209 0.0
C22 C 0.17556 0.55974 0.19137 0.0
C23 C 0.14293 0.52894 0.08324 0.0
C24 C 0.15298 0.50332 0.09358 0.0
N25 N 0.17343 0.50571 0.15333 0.0
N26 N 0.15431 0.55637 0.13227 0.0
H27 H 0.20167 0.53487 0.24913 0.0
C28 C 0.19087 0.42484 0.87459 0.0
O29 O 0.20274 0.45494 0.91143 0.0
O30 O 0.18545 0.4603 0.27873 0.0
H31 H 0.14418 0.48143 0.05463 0.0
H32 H 0.14208 0.30566 0.21789 0.0
H33 H 0.12625 0.5271 0.03654 0.0
Zn34 Zn 0.64853 0.78699 0.67926 0.0
C35 C 0.63775 0.70139 0.79226 0.0
N36 N 0.66419 0.70556 0.74709 0.0
C37 C 0.66849 0.73226 0.70257 0.0
N38 N 0.64563 0.74398 0.71927 0.0
N39 N 0.62609 0.72441 0.77637 0.0
C40 C 0.57386 0.73802 0.9769 0.0
O41 O 0.54467 0.73617 0.95052 0.0
O42 O 0.65087 0.78778 0.56499 0.0
Zn43 Zn 0.58376 0.72152 0.82343 0.0
N44 N 0.68952 0.82796 0.72328 0.0
C45 C 0.7302 0.85102 0.82514 0.0
C46 C 0.70357 0.82217 0.78604 0.0
C47 C 0.70138 0.86167 0.69746 0.0
N48 N 0.74154 0.88462 0.8004 0.0
C49 C 0.72801 0.89091 0.73738 0.0
O50 O 0.56572 0.75355 0.78226 0.0
C51 C 0.5769 0.78013 0.73843 0.0
O52 O 0.60625 0.79204 0.7039 0.0
H53 H 0.69354 0.7954 0.80684 0.0
H54 H 0.68921 0.86566 0.64837 0.0
C55 C 0.51558 0.65674 0.8539 0.0
C56 C 0.48831 0.62162 0.83787 0.0
C57 C 0.52241 0.62009 0.73537 0.0
C58 C 0.54879 0.65491 0.75053 0.0
N59 N 0.54522 0.67253 0.80979 0.0
N60 N 0.49294 0.60445 0.77891 0.0
H61 H 0.51293 0.67172 0.89911 0.0
C62 C 0.62165 0.77745 0.53007 0.0
O63 O 0.59208 0.76617 0.56822 0.0
O64 O 0.59398 0.73291 0.93321 0.0
H65 H 0.57183 0.66792 0.71461 0.0
H66 H 0.74137 0.8468 0.87551 0.0
H67 H 0.52505 0.60572 0.68867 0.0
Zn68 Zn 0.32819 0.86927 0.49569 0.0
C69 C 0.32026 0.94446 0.37346 0.0
N70 N 0.34752 0.96659 0.41713 0.0
C71 C 0.35089 0.9441 0.46327 0.0
N72 N 0.32678 0.90955 0.44882 0.0
N73 N 0.30743 0.90984 0.39153 0.0
C74 C 0.2784 0.86185 0.20224 0.0
O75 O 0.29669 0.84995 0.23869 0.0
O76 O 0.31907 0.86774 0.60691 0.0
Zn77 Zn 0.26348 0.87041 0.35271 0.0
N78 N 0.37667 0.87874 0.48333 0.0
C79 C 0.4309 0.90887 0.41496 0.0
C80 C 0.39528 0.89916 0.42405 0.0
C81 C 0.392 0.86648 0.5328 0.0
N82 N 0.44638 0.89721 0.46476 0.0
C83 C 0.42795 0.87598 0.52339 0.0
O84 O 0.25828 0.82254 0.37147 0.0
C85 C 0.27002 0.80487 0.4059 0.0
O86 O 0.29578 0.81979 0.45201 0.0
H87 H 0.38265 0.90822 0.38452 0.0
H88 H 0.3766 0.8502 0.57945 0.0
C89 C 0.18964 0.8518 0.37386 0.0
C90 C 0.16172 0.85334 0.41107 0.0
C91 C 0.20368 0.8941 0.49836 0.0
C92 C 0.23107 0.89238 0.4616 0.0
N93 N 0.22368 0.87155 0.39988 0.0
N94 N 0.16987 0.87473 0.47227 0.0
H95 H 0.18468 0.83564 0.32439 0.0
C96 C 0.28987 0.86088 0.63782 0.0
O97 O 0.26206 0.85333 0.59591 0.0
O98 O 0.26121 0.87343 0.2395 0.0
H99 H 0.25805 0.90752 0.48238 0.0
H100 H 0.44618 0.92553 0.36866 0.0
H101 H 0.20921 0.91066 0.54738 0.0
Zn102 Zn 0.47943 0.17039 0.83816 0.0
C103 C 0.39629 0.09527 0.96029 0.0
N104 N 0.40131 0.07309 0.91648 0.0
C105 C 0.42719 0.09555 0.87043 0.0
N106 N 0.43776 0.13013 0.88505 0.0
N107 N 0.41818 0.12989 0.94237 0.0
C108 C 0.43701 0.1776 0.13157 0.0
O109 O 0.46713 0.18912 0.09516 0.0
O110 O 0.47174 0.17188 0.72697 0.0
Zn111 Zn 0.41376 0.16939 0.98109 0.0
N112 N 0.5184 0.16086 0.85031 0.0
C113 C 0.5425 0.1304 0.91765 0.0
C114 C 0.51649 0.14001 0.90888 0.0
C115 C 0.54616 0.17363 0.80131 0.0
N116 N 0.56984 0.14259 0.86831 0.0
C117 C 0.57273 0.16426 0.81043 0.0
O118 O 0.45652 0.21716 0.96266 0.0
C119 C 0.4859 0.23482 0.92823 0.0
O120 O 0.49666 0.21992 0.88188 0.0
H121 H 0.49468 0.13057 0.94812 0.0
H122 H 0.54712 0.19026 0.75526 0.0
C123 C 0.35868 0.18816 0.9594 0.0
C124 C 0.32952 0.18696 0.92156 0.0
C125 C 0.33125 0.14675 0.83349 0.0
C126 C 0.36007 0.14814 0.87089 0.0
N127 N 0.3731 0.16854 0.93328 0.0
N128 N 0.31668 0.166 0.85967 0.0
H129 H 0.36956 0.20398 0.00941 0.0
C130 C 0.44969 0.17915 0.69597 0.0
O131 O 0.42985 0.18729 0.73779 0.0
O132 O 0.4083 0.16635 0.09424 0.0
H133 H 0.37203 0.13311 0.85003 0.0
H134 H 0.54105 0.1134 0.96336 0.0
H135 H 0.32054 0.13054 0.78391 0.0
Zn136 Zn 0.88287 0.25467 0.65488 0.0
C137 C 0.9578 0.34124 0.54484 0.0
N138 N 0.97992 0.33743 0.59128 0.0
C139 C 0.95742 0.31025 0.63462 0.0
N140 N 0.92294 0.29788 0.61597 0.0
N141 N 0.92311 0.31749 0.55879 0.0
C142 C 0.85487 0.29498 0.35788 0.0
O143 O 0.82538 0.29168 0.38614 0.0
O144 O 0.8843 0.25347 0.76829 0.0
Zn145 Zn 0.88332 0.31879 0.50865 0.0
N146 N 0.88233 0.21373 0.60931 0.0
C147 C 0.89931 0.19088 0.50606 0.0
C148 C 0.90183 0.21966 0.54602 0.0
C149 C 0.86057 0.17996 0.63487 0.0
N150 N 0.87716 0.15722 0.53059 0.0
C151 C 0.8577 0.1508 0.59416 0.0
O152 O 0.83348 0.28806 0.55251 0.0
C153 C 0.81834 0.26242 0.5987 0.0
O154 O 0.83579 0.25056 0.63344 0.0
H155 H 0.91854 0.2465 0.52559 0.0
H156 H 0.84473 0.17589 0.68449 0.0
C157 C 0.88143 0.38263 0.46373 0.0
C158 C 0.89139 0.41888 0.4703 0.0
C159 C 0.92497 0.42345 0.57871 0.0
C160 C 0.91466 0.38753 0.57269 0.0
N161 N 0.89377 0.36795 0.51465 0.0
N162 N 0.91321 0.43824 0.52753 0.0
H163 H 0.86457 0.36649 0.4184 0.0
C164 C 0.87384 0.27294 0.8003 0.0
O165 O 0.86529 0.29251 0.75866 0.0
O166 O 0.88202 0.3055 0.39973 0.0
H167 H 0.92355 0.37542 0.61381 0.0
H168 H 0.91444 0.19521 0.45526 0.0
H169 H 0.94204 0.43945 0.62394 0.0
Zn170 Zn 0.7357 0.57296 0.16815 0.0
C171 C 0.74406 0.65631 0.29029 0.0
N172 N 0.71696 0.65139 0.24633 0.0
C173 C 0.71354 0.62551 0.20014 0.0
N174 N 0.73747 0.61486 0.2148 0.0
N175 N 0.75675 0.63437 0.2723 0.0
C176 C 0.78533 0.61508 0.46137 0.0
O177 O 0.76691 0.58497 0.42467 0.0
O178 O 0.74438 0.58023 0.05676 0.0
Zn179 Zn 0.80062 0.6387 0.31111 0.0
N180 N 0.68724 0.53414 0.18169 0.0
C181 C 0.63341 0.51052 0.25138 0.0
C182 C 0.66899 0.53634 0.24128 0.0
C183 C 0.6716 0.5063 0.13285 0.0
N184 N 0.61763 0.4831 0.20225 0.0
C185 C 0.6357 0.47993 0.1433 0.0
O186 O 0.80582 0.59601 0.29183 0.0
C187 C 0.79403 0.56665 0.25708 0.0
O188 O 0.76821 0.55588 0.21116 0.0
H189 H 0.68187 0.55822 0.28031 0.0
H190 H 0.68673 0.50514 0.08593 0.0
C191 C 0.87448 0.69401 0.29034 0.0
C192 C 0.90241 0.72342 0.25311 0.0
C193 C 0.86051 0.72201 0.16544 0.0
C194 C 0.83311 0.69295 0.20221 0.0
N195 N 0.84047 0.67964 0.26413 0.0
N196 N 0.89429 0.73654 0.19172 0.0
H197 H 0.87942 0.6829 0.33995 0.0
C198 C 0.77368 0.60223 0.02573 0.0
O199 O 0.80165 0.62213 0.06756 0.0
O200 O 0.80277 0.64386 0.42433 0.0
H201 H 0.80616 0.68104 0.18124 0.0
H202 H 0.61842 0.5122 0.29795 0.0
H203 H 0.85501 0.73296 0.11627 0.0
H204 H 0.12041 0.39935 0.90026 0.0
H205 H 0.05949 0.31328 0.05303 0.0
H206 H 0.08151 0.36419 0.79813 0.0
H207 H 1.01831 0.2791 0.95186 0.0
H208 H 1.00526 0.28789 0.62665 0.0
H209 H 0.04608 0.29347 0.72737 0.0
H210 H 0.98376 0.31572 0.88304 0.0
H211 H 0.94524 0.31337 0.78146 0.0
C212 C 0.10048 0.37188 0.91075 0.0
C213 C 0.09418 0.35832 0.98354 0.0
C214 C 0.0776 0.35199 0.85269 0.0
C215 C 0.04714 0.31888 0.86736 0.0
C216 C 0.04196 0.30429 0.93916 0.0
C217 C 0.06557 0.32377 0.99671 0.0
C218 C 0.99926 0.29206 0.68324 0.0
C219 C 0.97104 0.29854 0.6971 0.0
C220 C 1.02266 0.29538 0.74054 0.0
C221 C 1.01766 0.3045 0.81278 0.0
C222 C 0.98751 0.30763 0.82809 0.0
C223 C 0.96483 0.30544 0.7703 0.0
H224 H 0.76564 0.72639 0.28372 0.0
H225 H 0.74001 0.64025 0.43675 0.0
H226 H 0.759 0.76086 0.38475 0.0
H227 H 0.73657 0.67568 0.53878 0.0
H228 H 0.65312 0.73003 0.55575 0.0
H229 H 0.68826 0.72553 0.45424 0.0
H230 H 0.77266 0.7463 0.60912 0.0
H231 H 0.73834 0.75317 0.70997 0.0
C232 C 0.76117 0.71592 0.34006 0.0
C233 C 0.75501 0.68128 0.35335 0.0
C234 C 0.75723 0.73556 0.39753 0.0
C235 C 0.74777 0.72104 0.46937 0.0
C236 C 0.74486 0.68781 0.48416 0.0
C237 C 0.74768 0.66776 0.42617 0.0
C238 C 0.68039 0.73687 0.5668 0.0
C239 C 0.69364 0.74351 0.63989 0.0
C240 C 0.70028 0.73362 0.50903 0.0
C241 C 0.73321 0.7359 0.52411 0.0
C242 C 0.7476 0.745 0.59613 0.0
C243 C 0.72805 0.7491 0.65349 0.0
H244 H 0.32412 0.93217 0.22712 0.0
H245 H 0.29898 0.99324 0.37987 0.0
H246 H 0.32752 0.97083 0.12485 0.0
H247 H 0.30564 0.03418 0.27855 0.0
H248 H 0.41225 0.10732 0.10675 0.0
H249 H 0.37669 0.06875 0.20881 0.0
H250 H 0.29162 1.00591 0.05445 0.0
H251 H 0.32622 0.04678 0.95335 0.0
C252 C 0.31653 0.95208 0.2376 0.0
C253 C 0.30934 0.95848 0.3104 0.0
C254 C 0.31932 0.97483 0.17946 0.0
C255 C 0.31655 1.00525 0.19405 0.0
C256 C 0.30726 1.01055 0.26591 0.0
C257 C 0.30333 0.98708 0.32355 0.0
C258 C 0.38474 0.08756 0.09607 0.0
C259 C 0.37127 0.08128 0.02316 0.0
C260 C 0.36461 0.06486 0.15409 0.0
C261 C 0.33136 0.03461 0.13925 0.0
C262 C 0.31692 0.02943 0.06727 0.0
C263 C 0.33664 0.05285 0.00975 0.0
H264 H 0.24214 0.60193 0.25233 0.0
H265 H 0.13672 0.58888 0.24063 0.0
H266 H 0.26383 0.65932 0.3153 0.0
H267 H 0.1578 0.64523 0.30583 0.0
H268 H 0.21642 0.76615 0.30746 0.0
H269 H 0.1933 0.70514 0.26812 0.0
H270 H 0.26419 0.69426 0.4219 0.0
H271 H 0.28847 0.75653 0.46025 0.0
C272 C 0.2234 0.61084 0.26522 0.0
C273 C 0.1878 0.59111 0.24105 0.0
C274 C 0.2358 0.64373 0.30137 0.0
C275 C 0.21273 0.6573 0.31453 0.0
C276 C 0.17659 0.63618 0.29479 0.0
C277 C 0.1644 0.60373 0.25784 0.0
C278 C 0.22704 0.75086 0.33367 0.0
C279 C 0.2544 0.76644 0.38719 0.0
C280 C 0.21348 0.71555 0.31137 0.0
C281 C 0.22658 0.69447 0.3422 0.0
C282 C 0.25363 0.70977 0.39662 0.0
C283 C 0.26738 0.74539 0.41895 0.0
H284 H 0.29019 0.45265 0.00675 0.0
H285 H 0.29198 0.5451 0.10322 0.0
H286 H 0.34957 0.49034 0.95683 0.0
H287 H 0.35193 0.58318 0.05189 0.0
H288 H 0.47368 0.63178 0.98486 0.0
H289 H 0.41727 0.59729 0.05196 0.0
H290 H 0.36955 0.5342 0.8542 0.0
H291 H 0.42502 0.56829 0.78724 0.0
C292 C 0.30337 0.48103 0.01797 0.0
C293 C 0.28603 0.49588 0.05815 0.0
C294 C 0.33743 0.50267 0.98902 0.0
C295 C 0.35516 0.53982 0.99911 0.0
C296 C 0.33889 0.55462 0.04315 0.0
C297 C 0.30457 0.53282 0.07245 0.0
C298 C 0.45107 0.61094 0.95525 0.0
C299 C 0.45418 0.60286 0.88032 0.0
C300 C 0.41876 0.5911 0.99396 0.0
C301 C 0.38914 0.56267 0.95873 0.0
C302 C 0.39209 0.55535 0.88356 0.0
C303 C 0.42404 0.57506 0.84507 0.0
H304 H 0.59275 0.83554 0.64465 0.0
H305 H 0.50959 0.76075 0.79104 0.0
H306 H 0.55508 0.85891 0.60583 0.0
H307 H 0.47176 0.78532 0.75331 0.0
H308 H 0.40314 0.8089 0.58187 0.0
H309 H 0.43831 0.7869 0.64594 0.0
H310 H 0.52972 0.89341 0.64377 0.0
H311 H 0.49503 0.91477 0.57727 0.0
C312 C 0.56656 0.82439 0.66968 0.0
C313 C 0.5543 0.79614 0.7211 0.0
C314 C 0.54492 0.8381 0.64768 0.0
C315 C 0.51035 0.8243 0.67678 0.0
C316 C 0.49815 0.79645 0.72936 0.0
C317 C 0.51992 0.78252 0.75137 0.0
C318 C 0.43054 0.82765 0.59661 0.0
C319 C 0.44649 0.86348 0.57405 0.0
C320 C 0.45073 0.81508 0.63341 0.0
C321 C 0.48712 0.83822 0.64889 0.0
C322 C 0.50211 0.87457 0.63091 0.0
C323 C 0.48218 0.88692 0.59324 0.0
H324 H 0.61444 0.23173 0.75318 0.0
H325 H 0.60212 0.12644 0.75655 0.0
H326 H 0.67199 0.2547 0.69022 0.0
H327 H 0.6586 0.14882 0.69142 0.0
H328 H 0.7793 0.2081 0.69498 0.0
H329 H 0.71813 0.18437 0.7329 0.0
H330 H 0.70769 0.25661 0.58239 0.0
H331 H 0.77022 0.28147 0.54522 0.0
C332 C 0.62354 0.21332 0.73842 0.0
C333 C 0.60401 0.17736 0.76035 0.0
C334 C 0.6565 0.22645 0.70228 0.0
C335 C 0.67032 0.20376 0.68696 0.0
C336 C 0.64933 0.16729 0.70419 0.0
C337 C 0.61683 0.15437 0.74111 0.0
C338 C 0.76412 0.21894 0.66919 0.0
C339 C 0.77989 0.2468 0.61686 0.0
C340 C 0.72871 0.20501 0.69065 0.0
C341 C 0.70768 0.21824 0.66023 0.0
C342 C 0.72317 0.2459 0.6072 0.0
C343 C 0.75893 0.26 0.58559 0.0
H344 H 0.82378 0.39338 0.41402 0.0
H345 H 0.92971 0.48522 0.41268 0.0
H346 H 0.80111 0.42811 0.35047 0.0
H347 H 0.90759 0.51947 0.34702 0.0
H348 H 0.84952 0.58245 0.35077 0.0
H349 H 0.87315 0.54479 0.38856 0.0
H350 H 0.7988 0.46123 0.24215 0.0
H351 H 0.77411 0.49906 0.20523 0.0
C352 C 0.84238 0.42063 0.39799 0.0
C353 C 0.87846 0.43674 0.41883 0.0
C354 C 0.82942 0.44057 0.36156 0.0
C355 C 0.85238 0.47686 0.34487 0.0
C356 C 0.88893 0.49193 0.36085 0.0
C357 C 0.9017 0.47225 0.39801 0.0
C358 C 0.83823 0.55619 0.32586 0.0
C359 C 0.80982 0.54389 0.27482 0.0
C360 C 0.85208 0.53457 0.34722 0.0
C361 C 0.83817 0.49998 0.31798 0.0
C362 C 0.81003 0.48767 0.26608 0.0
C363 C 0.79603 0.50943 0.24459 0.0
H364 H 0.47095 0.27354 0.02652 0.0
H365 H 0.55278 0.28312 0.87445 0.0
H366 H 0.50872 0.33453 0.06595 0.0
H367 H 0.59069 0.34539 0.91294 0.0
H368 H 0.56794 0.45075 0.09294 0.0
H369 H 0.53298 0.39439 0.02762 0.0
H370 H 0.62506 0.38046 0.01992 0.0
H371 H 0.66046 0.43788 0.08302 0.0
C372 C 0.49687 0.28881 0.0005 0.0
C373 C 0.50871 0.27323 0.94711 0.0
C374 C 0.51855 0.32411 0.02285 0.0
C375 C 0.55274 0.34519 0.99222 0.0
C376 C 0.56459 0.32988 0.93802 0.0
C377 C 0.54278 0.29426 0.91562 0.0
C378 C 0.58086 0.43593 0.07608 0.0
C379 C 0.61683 0.4486 0.09343 0.0
C380 C 0.56079 0.40348 0.03907 0.0
C381 C 0.57593 0.38239 0.01983 0.0
C382 C 0.61253 0.39602 0.03349 0.0
C383 C 0.63285 0.42893 0.06971 0.0
H384 H 1.0067 0.41118 0.55325 0.0
H385 H 0.94574 0.32629 0.39778 0.0
H386 H 0.04781 0.44611 0.45286 0.0
H387 H 0.98452 0.36216 0.29652 0.0
H388 H 0.12105 0.41255 0.28359 0.0
H389 H 0.08268 0.41095 0.38438 0.0
H390 H 1.02013 0.43185 0.2266 0.0
H391 H 0.06091 0.43675 0.12655 0.0
C392 C 1.00063 0.40108 0.49661 0.0
C393 C 0.9721 0.36656 0.48245 0.0
C394 C 1.02415 0.42102 0.43947 0.0
C395 C 1.01898 0.40694 0.36713 0.0
C396 C 0.98844 0.37399 0.35153 0.0
C397 C 0.96555 0.35366 0.40913 0.0
C398 C 0.10153 0.42043 0.27169 0.0
C399 C 0.09508 0.42647 0.19807 0.0
C400 C 0.07887 0.41864 0.32908 0.0
C401 C 0.0486 0.42145 0.31299 0.0
C402 C 0.04358 0.43009 0.24034 0.0
C403 C 0.06692 0.43295 0.18339 0.0
H404 H 0.64337 0.60327 0.20879 0.0
H405 H 0.72833 0.62842 0.05298 0.0
H406 H 0.60802 0.60909 0.10872 0.0
H407 H 0.69205 0.63091 0.95204 0.0
H408 H 0.64004 0.71585 0.93978 0.0
H409 H 0.64269 0.67946 0.04033 0.0
H410 H 0.62198 0.59597 0.88266 0.0
H411 H 0.61618 0.6314 0.78281 0.0
C412 C 0.65342 0.60747 0.15213 0.0
C413 C 0.68809 0.61394 0.13785 0.0
C414 C 0.63325 0.61087 0.09517 0.0
C415 C 0.64723 0.62002 0.02287 0.0
C416 C 0.68033 0.62284 0.00705 0.0
C417 C 0.7009 0.62052 0.06449 0.0
C418 C 0.63251 0.68849 0.92784 0.0
C419 C 0.62624 0.67583 0.85427 0.0
C420 C 0.63486 0.66786 0.98511 0.0
C421 C 0.63233 0.63489 0.96897 0.0
C422 C 0.6235 0.62107 0.89644 0.0
C423 C 0.62011 0.6413 0.83961 0.0
H424 H 0.42469 0.10752 0.72313 0.0
H425 H 0.44936 0.04753 0.87964 0.0
H426 H 0.42233 0.06872 0.62239 0.0
H427 H 0.44367 1.00633 0.7797 0.0
H428 H 0.33672 0.93224 0.61066 0.0
H429 H 0.37342 0.97097 0.71121 0.0
H430 H 0.45684 0.03307 0.55334 0.0
H431 H 0.42105 0.99193 0.45357 0.0
C432 C 0.43252 0.08794 0.73487 0.0
C433 C 0.43889 0.08165 0.80837 0.0
C434 C 0.43029 0.06503 0.67752 0.0
C435 C 0.433 0.03468 0.69354 0.0
C436 C 0.442 0.02983 0.76599 0.0
C437 C 0.44531 0.05342 0.82288 0.0
C438 C 0.3641 0.95173 0.59873 0.0
C439 C 0.3766 0.95796 0.52513 0.0
C440 C 0.38494 0.9746 0.65598 0.0
C441 C 0.41798 1.00485 0.63976 0.0
C442 C 0.43167 1.00964 0.56718 0.0
C443 C 0.41123 0.98609 0.5104 0.0
H444 H 0.17966 0.24609 0.09512 0.0
H445 H 0.26528 0.34605 0.0116 0.0
H446 H 0.21233 0.21635 0.05852 0.0
H447 H 0.29783 0.31583 0.97371 0.0
H448 H 0.35888 0.25213 0.99457 0.0
H449 H 0.32836 0.28442 0.03211 0.0
H450 H 0.22997 0.20013 0.94006 0.0
H451 H 0.25999 0.16769 0.90383 0.0
C452 C 0.20541 0.26174 0.06861 0.0
C453 C 0.21957 0.29841 0.05559 0.0
C454 C 0.22406 0.2446 0.04729 0.0
C455 C 0.25758 0.26368 0.01288 0.0
C456 C 0.27209 0.30045 0.00038 0.0
C457 C 0.2532 0.31765 0.02119 0.0
C458 C 0.33064 0.24024 0.98328 0.0
C459 C 0.31179 0.207 0.94701 0.0
C460 C 0.31329 0.259 0.0039 0.0
C461 C 0.27672 0.24475 0.9893 0.0
C462 C 0.25804 0.21165 0.95292 0.0
C463 C 0.27535 0.19313 0.93182 0.0
H464 H 0.73698 0.94593 0.8247 0.0
H465 H 0.7497 0.92007 0.59859 0.0
H466 H 0.76314 1.00852 0.79088 0.0
H467 H 0.77832 0.98294 0.56508 0.0
H468 H 0.8117 0.09577 0.50676 0.0
H469 H 0.77537 0.03317 0.5405 0.0
H470 H 0.8163 0.05865 0.7662 0.0
H471 H 0.85048 0.12151 0.7328 0.0
C472 C 0.74549 0.95381 0.76759 0.0
C473 C 0.74125 0.92825 0.71417 0.0
C474 C 0.76089 0.9898 0.74819 0.0
C475 C 0.77346 1.00136 0.67522 0.0
C476 C 0.76851 0.97539 0.62148 0.0
C477 C 0.75223 0.93922 0.64058 0.0
C478 C 0.81241 0.08786 0.56383 0.0
C479 C 0.83374 0.11341 0.61726 0.0
C480 C 0.79186 0.05186 0.58318 0.0
C481 C 0.79292 0.04028 0.6561 0.0
C482 C 0.81399 0.06622 0.70983 0.0
C483 C 0.83384 0.10239 0.69079 0.0
H484 H 0.93836 0.69382 0.32453 0.0
H485 H 0.95248 0.79313 0.23711 0.0
H486 H 1.00119 0.72428 0.36177 0.0
H487 H 1.01495 0.82309 0.27303 0.0
H488 H 0.1116 0.87294 0.42679 0.0
H489 H 0.04912 0.84032 0.39095 0.0
H490 H 0.06295 0.75511 0.30307 0.0
H491 H 0.12579 0.78761 0.34023 0.0
C492 C 0.95464 0.72214 0.31393 0.0
C493 C 0.94015 0.74112 0.27863 0.0
C494 C 0.99076 0.73946 0.33438 0.0
C495 C 1.013 0.77612 0.32059 0.0
C496 C 0.99846 0.79494 0.28527 0.0
C497 C 0.96263 0.77767 0.26433 0.0
C498 C 0.10146 0.84726 0.39978 0.0
C499 C 0.12396 0.83319 0.38568 0.0
C500 C 0.06562 0.82864 0.37889 0.0
C501 C 0.0511 0.79521 0.34383 0.0
C502 C 0.07337 0.78078 0.33026 0.0
C503 C 0.10949 0.79965 0.35066 0.0
H504 H 0.20654 0.39414 0.39622 0.0
H505 H 0.17358 0.47314 0.41079 0.0
H506 H 0.20469 0.38928 0.5323 0.0
H507 H 0.17124 0.46788 0.54618 0.0
H508 H 0.21434 0.48257 0.78346 0.0
H509 H 0.21345 0.4841 0.64809 0.0
H510 H 0.16399 0.3693 0.64106 0.0
H511 H 0.16526 0.36774 0.77776 0.0
C512 C 0.19878 0.41037 0.42834 0.0
C513 C 0.1906 0.43432 0.39249 0.0
C514 C 0.19747 0.40739 0.50635 0.0
C515 C 0.18803 0.42834 0.55032 0.0
C516 C 0.17923 0.45178 0.51422 0.0
C517 C 0.18049 0.45473 0.43643 0.0
C518 C 0.2032 0.45755 0.75335 0.0
C519 C 0.18991 0.42501 0.79169 0.0
C520 C 0.2025 0.45844 0.67549 0.0
C521 C 0.18849 0.42683 0.6335 0.0
C522 C 0.17526 0.39418 0.67167 0.0
C523 C 0.17587 0.39327 0.74998 0.0
H524 H 0.66227 0.76567 0.42855 0.0
H525 H 0.57648 0.78868 0.44603 0.0
H526 H 0.65194 0.75649 0.29415 0.0
H527 H 0.56778 0.78245 0.31207 0.0
H528 H 0.52873 0.72756 0.0919 0.0
H529 H 0.54281 0.73872 0.22363 0.0
H530 H 0.65424 0.77828 0.17457 0.0
H531 H 0.63938 0.76472 0.04276 0.0
C532 C 0.6417 0.76944 0.40331 0.0
C533 C 0.61976 0.7772 0.44773 0.0
C534 C 0.63582 0.7644 0.3261 0.0
C535 C 0.60841 0.76793 0.29166 0.0
C536 C 0.58816 0.77803 0.33626 0.0
C537 C 0.59341 0.78206 0.41323 0.0
C538 C 0.55623 0.73867 0.1093 0.0
C539 C 0.58294 0.74543 0.05698 0.0
C540 C 0.56448 0.74542 0.18504 0.0
C541 C 0.59989 0.76002 0.21051 0.0
C542 C 0.62664 0.76671 0.15776 0.0
C543 C 0.61819 0.75916 0.08197 0.0
H544 H 0.2317 0.84632 0.72402 0.0
H545 H 0.34381 0.88017 0.73867 0.0
H546 H 0.22866 0.84809 0.86016 0.0
H547 H 0.34084 0.8824 0.87404 0.0
H548 H 0.31256 0.8385 0.11046 0.0
H549 H 0.31485 0.83959 0.9751 0.0
H550 H 0.24935 0.88889 0.96945 0.0
H551 H 0.24668 0.88745 0.10618 0.0
C552 C 0.25571 0.85427 0.75616 0.0
C553 C 0.28789 0.8627 0.72036 0.0
C554 C 0.25401 0.85552 0.83419 0.0
C555 C 0.28444 0.86515 0.87813 0.0
C556 C 0.31674 0.87426 0.84206 0.0
C557 C 0.31845 0.87306 0.76429 0.0
C558 C 0.29862 0.84964 0.08067 0.0
C559 C 0.27939 0.86285 0.11938 0.0
C560 C 0.30013 0.85046 0.00282 0.0
C561 C 0.28246 0.8645 0.96126 0.0
C562 C 0.26303 0.87762 -0.00022 0.0
C563 C 0.26159 0.8769 0.07808 0.0
H564 H 0.40699 0.19493 0.6095 0.0
H565 H 0.48315 0.15831 0.59545 0.0
H566 H 0.40207 0.19296 0.47337 0.0
H567 H 0.47782 0.15588 0.46009 0.0
H568 H 0.49433 0.19966 0.22336 0.0
H569 H 0.49553 0.19866 0.35872 0.0
H570 H 0.38106 0.15196 0.36437 0.0
H571 H 0.37984 0.15331 0.22762 0.0
C572 C 0.42256 0.18632 0.5775 0.0
C573 C 0.44578 0.17719 0.61346 0.0
C574 C 0.41954 0.18496 0.49948 0.0
C575 C 0.43973 0.17451 0.45571 0.0
C576 C 0.46236 0.16467 0.49194 0.0
C577 C 0.46534 0.16599 0.5697 0.0
C578 C 0.46932 0.18911 0.25315 0.0
C579 C 0.43697 0.1766 0.21443 0.0
C580 C 0.47002 0.18834 0.331 0.0
C581 C 0.4384 0.17506 0.37257 0.0
C582 C 0.40595 0.16263 0.33404 0.0
C583 C 0.40522 0.16329 0.25572 0.0
H584 H 0.80319 0.27622 0.25171 0.0
H585 H 0.91156 0.29874 0.28118 0.0
H586 H 0.80761 0.26842 0.11826 0.0
H587 H 0.91608 0.2914 0.14721 0.0
H588 H 0.898 0.24429 0.90724 0.0
H589 H 0.89295 0.24703 0.04322 0.0
H590 H 0.83974 0.30811 0.01434 0.0
H591 H 0.84433 0.30507 0.87988 0.0
C592 C 0.82793 0.2794 0.22987 0.0
C593 C 0.85708 0.28837 0.27726 0.0
C594 C 0.83052 0.27509 0.15322 0.0
C595 C 0.8623 0.27956 0.12194 0.0
C596 C 0.89115 0.28752 0.16956 0.0
C597 C 0.8886 0.29196 0.24634 0.0
C598 C 0.88513 0.25815 0.93013 0.0
C599 C 0.87144 0.27431 0.88269 0.0
C600 C 0.8824 0.25989 0.00792 0.0
C601 C 0.86566 0.27754 0.0396 0.0
C602 C 0.8522 0.29376 0.99189 0.0
C603 C 0.85511 0.29223 0.91462 0.0
H604 H 0.75038 0.55758 0.55275 0.0
H605 H 0.81757 0.67224 0.55782 0.0
H606 H 0.74798 0.55627 0.68811 0.0
H607 H 0.8148 0.6709 0.69452 0.0
H608 H 0.83201 0.6453 0.93951 0.0
H609 H 0.83503 0.6502 0.80342 0.0
H610 H 0.72251 0.57354 0.78959 0.0
H611 H 0.71955 0.56825 0.92495 0.0
C612 C 0.76459 0.5826 0.58272 0.0
C613 C 0.78423 0.61503 0.54423 0.0
C614 C 0.76301 0.58184 0.66056 0.0
C615 C 0.78104 0.61348 0.70234 0.0
C616 C 0.80085 0.64601 0.66403 0.0
C617 C 0.80234 0.64679 0.58574 0.0
C618 C 0.80792 0.62952 0.9074 0.0
C619 C 0.77563 0.60607 0.94321 0.0
C620 C 0.80961 0.63253 0.8294 0.0
C621 C 0.77908 0.61209 0.78547 0.0
C622 C 0.74669 0.58921 0.82155 0.0
C623 C 0.74498 0.58624 0.89931 0.0
loop_
_geom_bond_atom_site_label_1
_geom_bond_atom_site_label_2
_geom_bond_distance
_geom_bond_site_symmetry_2
_ccdc_geom_bond_type
Zn0 N4 2.020 . S
Zn0 O8 2.019 1_554 S
Zn0 N10 2.119 . S
Zn0 O18 1.975 . S
C1 N2 1.334 . S
C1 N5 1.336 . S
N2 C1 1.334 . S
N2 C3 1.334 . S
C3 N2 1.334 . S
C3 N4 1.336 . S
N4 Zn0 2.020 . S
N4 C3 1.336 . S
N4 N5 1.354 . S
N5 C1 1.336 . S
N5 N4 1.354 . S
N5 Zn9 2.020 . S
C6 O7 1.244 . S
C6 O30 1.257 . S
O7 C6 1.244 . S
O8 Zn0 2.019 1_556 S
O8 C28 1.257 . S
Zn9 N5 2.020 . S
Zn9 O16 1.975 . S
Zn9 N25 2.119 . S
Zn9 O30 2.019 . S
N10 Zn0 2.119 . S
N10 C12 1.334 . S
N10 C13 1.328 . S
C11 C12 1.391 . S
C11 N14 1.329 . S
C11 H32 0.930 . S
C12 N10 1.334 . S
C12 C11 1.391 . S
C12 H19 0.930 . S
C13 N10 1.328 . S
C13 C15 1.392 . S
C13 H20 0.930 1_554 S
N14 C11 1.329 . S
N14 C15 1.331 . S
C15 C13 1.392 . S
C15 N14 1.331 . S
O16 Zn9 1.975 . S
O16 C17 1.252 . S
C17 O16 1.252 . S
C17 O18 1.252 . S
O18 Zn0 1.975 . S
O18 C17 1.252 . S
H19 C12 0.930 . S
H20 C13 0.930 1_556 S
C21 C22 1.392 . S
C21 N25 1.328 . S
C21 H27 0.930 . S
C22 C21 1.392 . S
C22 N26 1.331 . S
C23 C24 1.391 . S
C23 N26 1.329 . S
C23 H33 0.930 . S
C24 C23 1.391 . S
C24 N25 1.334 . S
C24 H31 0.930 . S
N25 Zn9 2.119 . S
N25 C21 1.328 . S
N25 C24 1.334 . S
N26 C22 1.331 . S
N26 C23 1.329 . S
H27 C21 0.930 . S
C28 O8 1.257 . S
C28 O29 1.244 . S
O29 C28 1.244 . S
O30 C6 1.257 . S
O30 Zn9 2.019 . S
H31 C24 0.930 . S
H32 C11 0.930 . S
H33 C23 0.930 . S
Zn34 N38 2.020 . S
Zn34 O42 2.019 . S
Zn34 N44 2.119 . S
Zn34 O52 1.975 . S
C35 N36 1.334 . S
C35 N39 1.336 . S
N36 C35 1.334 . S
N36 C37 1.334 . S
C37 N36 1.334 . S
C37 N38 1.336 . S
N38 Zn34 2.020 . S
N38 C37 1.336 . S
N38 N39 1.354 . S
N39 C35 1.336 . S
N39 N38 1.354 . S
N39 Zn43 2.020 . S
C40 O41 1.244 . S
C40 O64 1.257 . S
O41 C40 1.244 . S
O42 Zn34 2.019 . S
O42 C62 1.257 . S
Zn43 N39 2.020 . S
Zn43 O50 1.975 . S
Zn43 N59 2.119 . S
Zn43 O64 2.019 1_556 S
N44 Zn34 2.119 . S
N44 C46 1.334 . S
N44 C47 1.328 . S
C45 C46 1.391 . S
C45 N48 1.329 . S
C45 H66 0.930 . S
C46 N44 1.334 . S
C46 C45 1.391 . S
C46 H53 0.930 . S
C47 N44 1.328 . S
C47 C49 1.392 . S
C47 H54 0.930 . S
N48 C45 1.329 . S
N48 C49 1.331 . S
C49 C47 1.392 . S
C49 N48 1.331 . S
O50 Zn43 1.975 . S
O50 C51 1.252 . S
C51 O50 1.252 . S
C51 O52 1.252 . S
O52 Zn34 1.975 . S
O52 C51 1.252 . S
H53 C46 0.930 . S
H54 C47 0.930 . S
C55 C56 1.392 . S
C55 N59 1.328 . S
C55 H61 0.930 . S
C56 C55 1.392 . S
C56 N60 1.331 . S
C57 C58 1.391 . S
C57 N60 1.329 . S
C57 H67 0.930 . S
C58 C57 1.391 . S
C58 N59 1.334 . S
C58 H65 0.930 . S
N59 Zn43 2.119 . S
N59 C55 1.328 . S
N59 C58 1.334 . S
N60 C56 1.331 . S
N60 C57 1.329 . S
H61 C55 0.930 . S
C62 O42 1.257 . S
C62 O63 1.244 . S
O63 C62 1.244 . S
O64 C40 1.257 . S
O64 Zn43 2.019 1_554 S
H65 C58 0.930 . S
H66 C45 0.930 . S
H67 C57 0.930 . S
Zn68 N72 2.020 . S
Zn68 O76 2.019 . S
Zn68 N78 2.119 . S
Zn68 O86 1.975 . S
C69 N70 1.334 . S
C69 N73 1.336 . S
N70 C69 1.334 . S
N70 C71 1.334 . S
C71 N70 1.334 . S
C71 N72 1.336 . S
N72 Zn68 2.020 . S
N72 C71 1.336 . S
N72 N73 1.354 . S
N73 C69 1.336 . S
N73 N72 1.354 . S
N73 Zn77 2.020 . S
C74 O75 1.244 . S
C74 O98 1.257 . S
O75 C74 1.244 . S
O76 Zn68 2.019 . S
O76 C96 1.257 . S
Zn77 N73 2.020 . S
Zn77 O84 1.975 . S
Zn77 N93 2.119 . S
Zn77 O98 2.019 . S
N78 Zn68 2.119 . S
N78 C80 1.334 . S
N78 C81 1.328 . S
C79 C80 1.391 . S
C79 N82 1.329 . S
C79 H100 0.930 . S
C80 N78 1.334 . S
C80 C79 1.391 . S
C80 H87 0.930 . S
C81 N78 1.328 . S
C81 C83 1.392 . S
C81 H88 0.930 . S
N82 C79 1.329 . S
N82 C83 1.331 . S
C83 C81 1.392 . S
C83 N82 1.331 . S
O84 Zn77 1.975 . S
O84 C85 1.252 . S
C85 O84 1.252 . S
C85 O86 1.252 . S
O86 Zn68 1.975 . S
O86 C85 1.252 . S
H87 C80 0.930 . S
H88 C81 0.930 . S
C89 C90 1.392 . S
C89 N93 1.328 . S
C89 H95 0.930 . S
C90 C89 1.392 . S
C90 N94 1.331 . S
C91 C92 1.391 . S
C91 N94 1.329 . S
C91 H101 0.930 . S
C92 C91 1.391 . S
C92 N93 1.334 . S
C92 H99 0.930 . S
N93 Zn77 2.119 . S
N93 C89 1.328 . S
N93 C92 1.334 . S
N94 C90 1.331 . S
N94 C91 1.329 . S
H95 C89 0.930 . S
C96 O76 1.257 . S
C96 O97 1.244 . S
O97 C96 1.244 . S
O98 C74 1.257 . S
O98 Zn77 2.019 . S
H99 C92 0.930 . S
H100 C79 0.930 . S
H101 C91 0.930 . S
Zn102 N106 2.020 . S
Zn102 O110 2.019 . S
Zn102 N112 2.119 . S
Zn102 O120 1.975 . S
C103 N104 1.334 . S
C103 N107 1.336 . S
N104 C103 1.334 . S
N104 C105 1.334 . S
C105 N104 1.334 . S
C105 N106 1.336 . S
N106 Zn102 2.020 . S
N106 C105 1.336 . S
N106 N107 1.354 . S
N107 C103 1.336 . S
N107 N106 1.354 . S
N107 Zn111 2.020 . S
C108 O109 1.244 . S
C108 O132 1.257 . S
O109 C108 1.244 . S
O110 Zn102 2.019 . S
O110 C130 1.257 . S
Zn111 N107 2.020 . S
Zn111 O118 1.975 . S
Zn111 N127 2.119 . S
Zn111 O132 2.019 1_556 S
N112 Zn102 2.119 . S
N112 C114 1.334 . S
N112 C115 1.328 . S
C113 C114 1.391 . S
C113 N116 1.329 . S
C113 H134 0.930 . S
C114 N112 1.334 . S
C114 C113 1.391 . S
C114 H121 0.930 . S
C115 N112 1.328 . S
C115 C117 1.392 . S
C115 H122 0.930 . S
N116 C113 1.329 . S
N116 C117 1.331 . S
C117 C115 1.392 . S
C117 N116 1.331 . S
O118 Zn111 1.975 . S
O118 C119 1.252 . S
C119 O118 1.252 . S
C119 O120 1.252 . S
O120 Zn102 1.975 . S
O120 C119 1.252 . S
H121 C114 0.930 . S
H122 C115 0.930 . S
C123 C124 1.392 . S
C123 N127 1.328 . S
C123 H129 0.930 1_556 S
C124 C123 1.392 . S
C124 N128 1.331 . S
C125 C126 1.391 . S
C125 N128 1.329 . S
C125 H135 0.930 . S
C126 C125 1.391 . S
C126 N127 1.334 . S
C126 H133 0.930 . S
N127 Zn111 2.119 . S
N127 C123 1.328 . S
N127 C126 1.334 . S
N128 C124 1.331 . S
N128 C125 1.329 . S
H129 C123 0.930 1_554 S
C130 O110 1.257 . S
C130 O131 1.244 . S
O131 C130 1.244 . S
O132 C108 1.257 . S
O132 Zn111 2.019 1_554 S
H133 C126 0.930 . S
H134 C113 0.930 . S
H135 C125 0.930 . S
Zn136 N140 2.020 . S
Zn136 O144 2.019 . S
Zn136 N146 2.119 . S
Zn136 O154 1.975 . S
C137 N138 1.334 . S
C137 N141 1.336 . S
N138 C137 1.334 . S
N138 C139 1.334 . S
C139 N138 1.334 . S
C139 N140 1.336 . S
N140 Zn136 2.020 . S
N140 C139 1.336 . S
N140 N141 1.354 . S
N141 C137 1.336 . S
N141 N140 1.354 . S
N141 Zn145 2.020 . S
C142 O143 1.244 . S
C142 O166 1.257 . S
O143 C142 1.244 . S
O144 Zn136 2.019 . S
O144 C164 1.257 . S
Zn145 N141 2.020 . S
Zn145 O152 1.975 . S
Zn145 N161 2.119 . S
Zn145 O166 2.019 . S
N146 Zn136 2.119 . S
N146 C148 1.334 . S
N146 C149 1.328 . S
C147 C148 1.391 . S
C147 N150 1.329 . S
C147 H168 0.930 . S
C148 N146 1.334 . S
C148 C147 1.391 . S
C148 H155 0.930 . S
C149 N146 1.328 . S
C149 C151 1.392 . S
C149 H156 0.930 . S
N150 C147 1.329 . S
N150 C151 1.331 . S
C151 C149 1.392 . S
C151 N150 1.331 . S
O152 Zn145 1.975 . S
O152 C153 1.252 . S
C153 O152 1.252 . S
C153 O154 1.252 . S
O154 Zn136 1.975 . S
O154 C153 1.252 . S
H155 C148 0.930 . S
H156 C149 0.930 . S
C157 C158 1.392 . S
C157 N161 1.328 . S
C157 H163 0.930 . S
C158 C157 1.392 . S
C158 N162 1.331 . S
C159 C160 1.391 . S
C159 N162 1.329 . S
C159 H169 0.930 . S
C160 C159 1.391 . S
C160 N161 1.334 . S
C160 H167 0.930 . S
N161 Zn145 2.119 . S
N161 C157 1.328 . S
N161 C160 1.334 . S
N162 C158 1.331 . S
N162 C159 1.329 . S
H163 C157 0.930 . S
C164 O144 1.257 . S
C164 O165 1.244 . S
O165 C164 1.244 . S
O166 C142 1.257 . S
O166 Zn145 2.019 . S
H167 C160 0.930 . S
H168 C147 0.930 . S
H169 C159 0.930 . S
Zn170 N174 2.020 . S
Zn170 O178 2.019 1_554 S
Zn170 N180 2.119 . S
Zn170 O188 1.975 . S
C171 N172 1.334 . S
C171 N175 1.336 . S
N172 C171 1.334 . S
N172 C173 1.334 . S
C173 N172 1.334 . S
C173 N174 1.336 . S
N174 Zn170 2.020 . S
N174 C173 1.336 . S
N174 N175 1.354 . S
N175 C171 1.336 . S
N175 N174 1.354 . S
N175 Zn179 2.020 . S
C176 O177 1.244 . S
C176 O200 1.257 . S
O177 C176 1.244 . S
O178 Zn170 2.019 1_556 S
O178 C198 1.257 . S
Zn179 N175 2.020 . S
Zn179 O186 1.975 . S
Zn179 N195 2.119 . S
Zn179 O200 2.019 . S
N180 Zn170 2.119 . S
N180 C182 1.334 . S
N180 C183 1.328 . S
C181 C182 1.391 . S
C181 N184 1.329 . S
C181 H202 0.930 . S
C182 N180 1.334 . S
C182 C181 1.391 . S
C182 H189 0.930 . S
C183 N180 1.328 . S
C183 C185 1.392 . S
C183 H190 0.930 . S
N184 C181 1.329 . S
N184 C185 1.331 . S
C185 C183 1.392 . S
C185 N184 1.331 . S
O186 Zn179 1.975 . S
O186 C187 1.252 . S
C187 O186 1.252 . S
C187 O188 1.252 . S
O188 Zn170 1.975 . S
O188 C187 1.252 . S
H189 C182 0.930 . S
H190 C183 0.930 . S
C191 C192 1.392 . S
C191 N195 1.328 . S
C191 H197 0.930 . S
C192 C191 1.392 . S
C192 N196 1.331 . S
C193 C194 1.391 . S
C193 N196 1.329 . S
C193 H203 0.930 . S
C194 C193 1.391 . S
C194 N195 1.334 . S
C194 H201 0.930 . S
N195 Zn179 2.119 . S
N195 C191 1.328 . S
N195 C194 1.334 . S
N196 C192 1.331 . S
N196 C193 1.329 . S
H197 C191 0.930 . S
C198 O178 1.257 . S
C198 O199 1.244 . S
O199 C198 1.244 . S
O200 C176 1.257 . S
O200 Zn179 2.019 . S
H201 C194 0.930 . S
H202 C181 0.930 . S
H203 C193 0.930 . S
H204 C212 0.950 . S
H205 C217 0.950 . S
H206 C214 0.950 . S
H207 C216 0.950 . S
H208 C218 0.950 . S
H209 C220 0.950 . S
H210 C222 0.950 . S
H211 C223 0.950 . S
C212 H204 0.950 . S
C212 C213 1.386 . S
C212 C214 1.391 . S
C213 C212 1.386 . S
C213 C217 1.393 . S
C214 H206 0.950 . S
C214 C212 1.391 . S
C214 C215 1.400 . S
C215 C214 1.400 . S
C215 C216 1.398 . S
C215 C221 1.491 1_455 S
C216 H207 0.950 . S
C216 C215 1.398 . S
C216 C217 1.391 . S
C217 H205 0.950 . S
C217 C213 1.393 . S
C217 C216 1.391 . S
C218 H208 0.950 . S
C218 C219 1.386 . S
C218 C220 1.391 . S
C219 C218 1.386 . S
C219 C223 1.393 . S
C220 H209 0.950 . S
C220 C218 1.391 . S
C220 C221 1.400 . S
C221 C215 1.491 1_655 S
C221 C220 1.400 . S
C221 C222 1.398 . S
C222 H210 0.950 . S
C222 C221 1.398 . S
C222 C223 1.391 . S
C223 H211 0.950 . S
C223 C219 1.393 . S
C223 C222 1.391 . S
H224 C232 0.950 . S
H225 C237 0.950 . S
H226 C234 0.950 . S
H227 C236 0.950 . S
H228 C238 0.950 . S
H229 C240 0.950 . S
H230 C242 0.950 . S
H231 C243 0.950 . S
C232 H224 0.950 . S
C232 C233 1.386 . S
C232 C234 1.391 . S
C233 C232 1.386 . S
C233 C237 1.393 . S
C234 H226 0.950 . S
C234 C232 1.391 . S
C234 C235 1.400 . S
C235 C234 1.400 . S
C235 C236 1.398 . S
C235 C241 1.491 . S
C236 H227 0.950 . S
C236 C235 1.398 . S
C236 C237 1.391 . S
C237 H225 0.950 . S
C237 C233 1.393 . S
C237 C236 1.391 . S
C238 H228 0.950 . S
C238 C239 1.386 . S
C238 C240 1.391 . S
C239 C238 1.386 . S
C239 C243 1.393 . S
C240 H229 0.950 . S
C240 C238 1.391 . S
C240 C241 1.400 . S
C241 C235 1.491 . S
C241 C240 1.400 . S
C241 C242 1.398 . S
C242 H230 0.950 . S
C242 C241 1.398 . S
C242 C243 1.391 . S
C243 H231 0.950 . S
C243 C239 1.393 . S
C243 C242 1.391 . S
H244 C252 0.950 . S
H245 C257 0.950 . S
H246 C254 0.950 . S
H247 C256 0.950 1_545 S
H248 C258 0.950 . S
H249 C260 0.950 . S
H250 C262 0.950 1_565 S
H251 C263 0.950 1_556 S
C252 H244 0.950 . S
C252 C253 1.386 . S
C252 C254 1.391 . S
C253 C252 1.386 . S
C253 C257 1.393 . S
C254 H246 0.950 . S
C254 C252 1.391 . S
C254 C255 1.400 . S
C255 C254 1.400 . S
C255 C256 1.398 . S
C255 C261 1.491 1_565 S
C256 H247 0.950 1_565 S
C256 C255 1.398 . S
C256 C257 1.391 . S
C257 H245 0.950 . S
C257 C253 1.393 . S
C257 C256 1.391 . S
C258 H248 0.950 . S
C258 C259 1.386 . S
C258 C260 1.391 . S
C259 C258 1.386 . S
C259 C263 1.393 . S
C260 H249 0.950 . S
C260 C258 1.391 . S
C260 C261 1.400 . S
C261 C255 1.491 1_545 S
C261 C260 1.400 . S
C261 C262 1.398 . S
C262 H250 0.950 1_545 S
C262 C261 1.398 . S
C262 C263 1.391 . S
C263 H251 0.950 1_554 S
C263 C259 1.393 . S
C263 C262 1.391 . S
H264 C272 0.950 . S
H265 C277 0.950 . S
H266 C274 0.950 . S
H267 C276 0.950 . S
H268 C278 0.950 . S
H269 C280 0.950 . S
H270 C282 0.950 . S
H271 C283 0.950 . S
C272 H264 0.950 . S
C272 C273 1.386 . S
C272 C274 1.391 . S
C273 C272 1.386 . S
C273 C277 1.393 . S
C274 H266 0.950 . S
C274 C272 1.391 . S
C274 C275 1.400 . S
C275 C274 1.400 . S
C275 C276 1.398 . S
C275 C281 1.491 . S
C276 H267 0.950 . S
C276 C275 1.398 . S
C276 C277 1.391 . S
C277 H265 0.950 . S
C277 C273 1.393 . S
C277 C276 1.391 . S
C278 H268 0.950 . S
C278 C279 1.386 . S
C278 C280 1.391 . S
C279 C278 1.386 . S
C279 C283 1.393 . S
C280 H269 0.950 . S
C280 C278 1.391 . S
C280 C281 1.400 . S
C281 C275 1.491 . S
C281 C280 1.400 . S
C281 C282 1.398 . S
C282 H270 0.950 . S
C282 C281 1.398 . S
C282 C283 1.391 . S
C283 H271 0.950 . S
C283 C279 1.393 . S
C283 C282 1.391 . S
H284 C292 0.950 . S
H285 C297 0.950 . S
H286 C294 0.950 1_556 S
H287 C296 0.950 . S
H288 C298 0.950 . S
H289 C300 0.950 . S
H290 C302 0.950 . S
H291 C303 0.950 . S
C292 H284 0.950 . S
C292 C293 1.386 . S
C292 C294 1.391 . S
C293 C292 1.386 . S
C293 C297 1.393 . S
C294 H286 0.950 1_554 S
C294 C292 1.391 . S
C294 C295 1.400 . S
C295 C294 1.400 . S
C295 C296 1.398 . S
C295 C301 1.491 . S
C296 H287 0.950 . S
C296 C295 1.398 . S
C296 C297 1.391 . S
C297 H285 0.950 . S
C297 C293 1.393 . S
C297 C296 1.391 . S
C298 H288 0.950 . S
C298 C299 1.386 1_554 S
C298 C300 1.391 . S
C299 C298 1.386 1_556 S
C299 C303 1.393 . S
C300 H289 0.950 . S
C300 C298 1.391 . S
C300 C301 1.400 . S
C301 C295 1.491 . S
C301 C300 1.400 . S
C301 C302 1.398 1_554 S
C302 H290 0.950 . S
C302 C301 1.398 1_556 S
C302 C303 1.391 . S
C303 H291 0.950 . S
C303 C299 1.393 . S
C303 C302 1.391 . S
H304 C312 0.950 . S
H305 C317 0.950 . S
H306 C314 0.950 . S
H307 C316 0.950 . S
H308 C318 0.950 . S
H309 C320 0.950 . S
H310 C322 0.950 . S
H311 C323 0.950 . S
C312 H304 0.950 . S
C312 C313 1.386 . S
C312 C314 1.391 . S
C313 C312 1.386 . S
C313 C317 1.393 . S
C314 H306 0.950 . S
C314 C312 1.391 . S
C314 C315 1.400 . S
C315 C314 1.400 . S
C315 C316 1.398 . S
C315 C321 1.491 . S
C316 H307 0.950 . S
C316 C315 1.398 . S
C316 C317 1.391 . S
C317 H305 0.950 . S
C317 C313 1.393 . S
C317 C316 1.391 . S
C318 H308 0.950 . S
C318 C319 1.386 . S
C318 C320 1.391 . S
C319 C318 1.386 . S
C319 C323 1.393 . S
C320 H309 0.950 . S
C320 C318 1.391 . S
C320 C321 1.400 . S
C321 C315 1.491 . S
C321 C320 1.400 . S
C321 C322 1.398 . S
C322 H310 0.950 . S
C322 C321 1.398 . S
C322 C323 1.391 . S
C323 H311 0.950 . S
C323 C319 1.393 . S
C323 C322 1.391 . S
H324 C332 0.950 . S
H325 C337 0.950 . S
H326 C334 0.950 . S
H327 C336 0.950 . S
H328 C338 0.950 . S
H329 C340 0.950 . S
H330 C342 0.950 . S
H331 C343 0.950 . S
C332 H324 0.950 . S
C332 C333 1.386 . S
C332 C334 1.391 . S
C333 C332 1.386 . S
C333 C337 1.393 . S
C334 H326 0.950 . S
C334 C332 1.391 . S
C334 C335 1.400 . S
C335 C334 1.400 . S
C335 C336 1.398 . S
C335 C341 1.491 . S
C336 H327 0.950 . S
C336 C335 1.398 . S
C336 C337 1.391 . S
C337 H325 0.950 . S
C337 C333 1.393 . S
C337 C336 1.391 . S
C338 H328 0.950 . S
C338 C339 1.386 . S
C338 C340 1.391 . S
C339 C338 1.386 . S
C339 C343 1.393 . S
C340 H329 0.950 . S
C340 C338 1.391 . S
C340 C341 1.400 . S
C341 C335 1.491 . S
C341 C340 1.400 . S
C341 C342 1.398 . S
C342 H330 0.950 . S
C342 C341 1.398 . S
C342 C343 1.391 . S
C343 H331 0.950 . S
C343 C339 1.393 . S
C343 C342 1.391 . S
H344 C352 0.950 . S
H345 C357 0.950 . S
H346 C354 0.950 . S
H347 C356 0.950 . S
H348 C358 0.950 . S
H349 C360 0.950 . S
H350 C362 0.950 . S
H351 C363 0.950 . S
C352 H344 0.950 . S
C352 C353 1.386 . S
C352 C354 1.391 . S
C353 C352 1.386 . S
C353 C357 1.393 . S
C354 H346 0.950 . S
C354 C352 1.391 . S
C354 C355 1.400 . S
C355 C354 1.400 . S
C355 C356 1.398 . S
C355 C361 1.491 . S
C356 H347 0.950 . S
C356 C355 1.398 . S
C356 C357 1.391 . S
C357 H345 0.950 . S
C357 C353 1.393 . S
C357 C356 1.391 . S
C358 H348 0.950 . S
C358 C359 1.386 . S
C358 C360 1.391 . S
C359 C358 1.386 . S
C359 C363 1.393 . S
C360 H349 0.950 . S
C360 C358 1.391 . S
C360 C361 1.400 . S
C361 C355 1.491 . S
C361 C360 1.400 . S
C361 C362 1.398 . S
C362 H350 0.950 . S
C362 C361 1.398 . S
C362 C363 1.391 . S
C363 H351 0.950 . S
C363 C359 1.393 . S
C363 C362 1.391 . S
H364 C372 0.950 . S
H365 C377 0.950 . S
H366 C374 0.950 . S
H367 C376 0.950 . S
H368 C378 0.950 . S
H369 C380 0.950 . S
H370 C382 0.950 . S
H371 C383 0.950 . S
C372 H364 0.950 . S
C372 C373 1.386 . S
C372 C374 1.391 . S
C373 C372 1.386 . S
C373 C377 1.393 . S
C374 H366 0.950 . S
C374 C372 1.391 . S
C374 C375 1.400 . S
C375 C374 1.400 . S
C375 C376 1.398 . S
C375 C381 1.491 . S
C376 H367 0.950 . S
C376 C375 1.398 . S
C376 C377 1.391 . S
C377 H365 0.950 . S
C377 C373 1.393 . S
C377 C376 1.391 . S
C378 H368 0.950 . S
C378 C379 1.386 1_556 S
C378 C380 1.391 . S
C379 C378 1.386 1_554 S
C379 C383 1.393 . S
C380 H369 0.950 . S
C380 C378 1.391 . S
C380 C381 1.400 . S
C381 C375 1.491 . S
C381 C380 1.400 . S
C381 C382 1.398 1_556 S
C382 H370 0.950 . S
C382 C381 1.398 1_554 S
C382 C383 1.391 . S
C383 H371 0.950 . S
C383 C379 1.393 . S
C383 C382 1.391 . S
H384 C392 0.950 . S
H385 C397 0.950 . S
H386 C394 0.950 . S
H387 C396 0.950 . S
H388 C398 0.950 . S
H389 C400 0.950 . S
H390 C402 0.950 . S
H391 C403 0.950 . S
C392 H384 0.950 . S
C392 C393 1.386 . S
C392 C394 1.391 . S
C393 C392 1.386 . S
C393 C397 1.393 . S
C394 H386 0.950 . S
C394 C392 1.391 . S
C394 C395 1.400 . S
C395 C394 1.400 . S
C395 C396 1.398 . S
C395 C401 1.491 1_655 S
C396 H387 0.950 . S
C396 C395 1.398 . S
C396 C397 1.391 . S
C397 H385 0.950 . S
C397 C393 1.393 . S
C397 C396 1.391 . S
C398 H388 0.950 . S
C398 C399 1.386 . S
C398 C400 1.391 . S
C399 C398 1.386 . S
C399 C403 1.393 . S
C400 H389 0.950 . S
C400 C398 1.391 . S
C400 C401 1.400 . S
C401 C395 1.491 1_455 S
C401 C400 1.400 . S
C401 C402 1.398 . S
C402 H390 0.950 . S
C402 C401 1.398 . S
C402 C403 1.391 . S
C403 H391 0.950 . S
C403 C399 1.393 . S
C403 C402 1.391 . S
H404 C412 0.950 1_556 S
H405 C417 0.950 . S
H406 C414 0.950 . S
H407 C416 0.950 . S
H408 C418 0.950 1_554 S
H409 C420 0.950 . S
H410 C422 0.950 . S
H411 C423 0.950 . S
C412 H404 0.950 1_554 S
C412 C413 1.386 . S
C412 C414 1.391 1_554 S
C413 C412 1.386 . S
C413 C417 1.393 . S
C414 H406 0.950 . S
C414 C412 1.391 1_556 S
C414 C415 1.400 1_556 S
C415 C414 1.400 1_554 S
C415 C416 1.398 . S
C415 C421 1.491 1_554 S
C416 H407 0.950 . S
C416 C415 1.398 . S
C416 C417 1.391 . S
C417 H405 0.950 . S
C417 C413 1.393 . S
C417 C416 1.391 . S
C418 H408 0.950 1_556 S
C418 C419 1.386 . S
C418 C420 1.391 1_556 S
C419 C418 1.386 . S
C419 C423 1.393 . S
C420 H409 0.950 . S
C420 C418 1.391 1_554 S
C420 C421 1.400 1_554 S
C421 C415 1.491 1_556 S
C421 C420 1.400 1_556 S
C421 C422 1.398 . S
C422 H410 0.950 . S
C422 C421 1.398 . S
C422 C423 1.391 . S
C423 H411 0.950 . S
C423 C419 1.393 . S
C423 C422 1.391 . S
H424 C432 0.950 . S
H425 C437 0.950 . S
H426 C434 0.950 . S
H427 C436 0.950 . S
H428 C438 0.950 . S
H429 C440 0.950 . S
H430 C442 0.950 . S
H431 C443 0.950 . S
C432 H424 0.950 . S
C432 C433 1.386 . S
C432 C434 1.391 . S
C433 C432 1.386 . S
C433 C437 1.393 . S
C434 H426 0.950 . S
C434 C432 1.391 . S
C434 C435 1.400 . S
C435 C434 1.400 . S
C435 C436 1.398 . S
C435 C441 1.491 1_545 S
C436 H427 0.950 . S
C436 C435 1.398 . S
C436 C437 1.391 . S
C437 H425 0.950 . S
C437 C433 1.393 . S
C437 C436 1.391 . S
C438 H428 0.950 . S
C438 C439 1.386 . S
C438 C440 1.391 . S
C439 C438 1.386 . S
C439 C443 1.393 . S
C440 H429 0.950 . S
C440 C438 1.391 . S
C440 C441 1.400 . S
C441 C435 1.491 1_565 S
C441 C440 1.400 . S
C441 C442 1.398 . S
C442 H430 0.950 . S
C442 C441 1.398 . S
C442 C443 1.391 . S
C443 H431 0.950 . S
C443 C439 1.393 . S
C443 C442 1.391 . S
H444 C452 0.950 . S
H445 C457 0.950 . S
H446 C454 0.950 . S
H447 C456 0.950 . S
H448 C458 0.950 . S
H449 C460 0.950 . S
H450 C462 0.950 . S
H451 C463 0.950 . S
C452 H444 0.950 . S
C452 C453 1.386 1_556 S
C452 C454 1.391 . S
C453 C452 1.386 1_554 S
C453 C457 1.393 . S
C454 H446 0.950 . S
C454 C452 1.391 . S
C454 C455 1.401 . S
C455 C454 1.401 . S
C455 C456 1.398 1_556 S
C455 C461 1.491 1_556 S
C456 H447 0.950 . S
C456 C455 1.398 1_554 S
C456 C457 1.391 . S
C457 H445 0.950 . S
C457 C453 1.393 . S
C457 C456 1.391 . S
C458 H448 0.950 . S
C458 C459 1.386 1_554 S
C458 C460 1.391 . S
C459 C458 1.386 1_556 S
C459 C463 1.393 . S
C460 H449 0.950 . S
C460 C458 1.391 . S
C460 C461 1.401 . S
C461 C455 1.491 1_554 S
C461 C460 1.401 . S
C461 C462 1.398 1_554 S
C462 H450 0.950 . S
C462 C461 1.398 1_556 S
C462 C463 1.391 . S
C463 H451 0.950 . S
C463 C459 1.393 . S
C463 C462 1.391 . S
H464 C472 0.950 . S
H465 C477 0.950 . S
H466 C474 0.950 . S
H467 C476 0.950 . S
H468 C478 0.950 . S
H469 C480 0.950 . S
H470 C482 0.950 . S
H471 C483 0.950 . S
C472 H464 0.950 . S
C472 C473 1.386 . S
C472 C474 1.391 . S
C473 C472 1.386 . S
C473 C477 1.393 . S
C474 H466 0.950 . S
C474 C472 1.391 . S
C474 C475 1.400 . S
C475 C474 1.400 . S
C475 C476 1.398 . S
C475 C481 1.491 1_565 S
C476 H467 0.950 . S
C476 C475 1.398 . S
C476 C477 1.391 . S
C477 H465 0.950 . S
C477 C473 1.393 . S
C477 C476 1.391 . S
C478 H468 0.950 . S
C478 C479 1.386 . S
C478 C480 1.391 . S
C479 C478 1.386 . S
C479 C483 1.393 . S
C480 H469 0.950 . S
C480 C478 1.391 . S
C480 C481 1.400 . S
C481 C475 1.491 1_545 S
C481 C480 1.400 . S
C481 C482 1.398 . S
C482 H470 0.950 . S
C482 C481 1.398 . S
C482 C483 1.391 . S
C483 H471 0.950 . S
C483 C479 1.393 . S
C483 C482 1.391 . S
H484 C492 0.950 . S
H485 C497 0.950 . S
H486 C494 0.950 . S
H487 C496 0.950 . S
H488 C498 0.950 . S
H489 C500 0.950 . S
H490 C502 0.950 . S
H491 C503 0.950 . S
C492 H484 0.950 . S
C492 C493 1.386 . S
C492 C494 1.391 . S
C493 C492 1.386 . S
C493 C497 1.393 . S
C494 H486 0.950 . S
C494 C492 1.391 . S
C494 C495 1.400 . S
C495 C494 1.400 . S
C495 C496 1.398 . S
C495 C501 1.491 1_655 S
C496 H487 0.950 . S
C496 C495 1.398 . S
C496 C497 1.391 . S
C497 H485 0.950 . S
C497 C493 1.393 . S
C497 C496 1.391 . S
C498 H488 0.950 . S
C498 C499 1.386 . S
C498 C500 1.391 . S
C499 C498 1.386 . S
C499 C503 1.393 . S
C500 H489 0.950 . S
C500 C498 1.391 . S
C500 C501 1.400 . S
C501 C495 1.491 1_455 S
C501 C500 1.400 . S
C501 C502 1.398 . S
C502 H490 0.950 . S
C502 C501 1.398 . S
C502 C503 1.391 . S
C503 H491 0.950 . S
C503 C499 1.393 . S
C503 C502 1.391 . S
H504 C512 0.950 . S
H505 C517 0.950 . S
H506 C514 0.950 . S
H507 C516 0.950 . S
H508 C518 0.950 . S
H509 C520 0.950 . S
H510 C522 0.950 . S
H511 C523 0.950 . S
C512 H504 0.950 . S
C512 C513 1.386 . S
C512 C514 1.391 . S
C513 C512 1.386 . S
C513 C517 1.393 . S
C514 H506 0.950 . S
C514 C512 1.391 . S
C514 C515 1.400 . S
C515 C514 1.400 . S
C515 C516 1.398 . S
C515 C521 1.491 . S
C516 H507 0.950 . S
C516 C515 1.398 . S
C516 C517 1.391 . S
C517 H505 0.950 . S
C517 C513 1.393 . S
C517 C516 1.391 . S
C518 H508 0.950 . S
C518 C519 1.386 . S
C518 C520 1.391 . S
C519 C518 1.386 . S
C519 C523 1.393 . S
C520 H509 0.950 . S
C520 C518 1.391 . S
C520 C521 1.400 . S
C521 C515 1.491 . S
C521 C520 1.400 . S
C521 C522 1.398 . S
C522 H510 0.950 . S
C522 C521 1.398 . S
C522 C523 1.391 . S
C523 H511 0.950 . S
C523 C519 1.393 . S
C523 C522 1.391 . S
H524 C532 0.950 . S
H525 C537 0.950 . S
H526 C534 0.950 . S
H527 C536 0.950 . S
H528 C538 0.950 . S
H529 C540 0.950 . S
H530 C542 0.950 . S
H531 C543 0.950 . S
C532 H524 0.950 . S
C532 C533 1.386 . S
C532 C534 1.391 . S
C533 C532 1.386 . S
C533 C537 1.393 . S
C534 H526 0.950 . S
C534 C532 1.391 . S
C534 C535 1.400 . S
C535 C534 1.400 . S
C535 C536 1.398 . S
C535 C541 1.491 . S
C536 H527 0.950 . S
C536 C535 1.398 . S
C536 C537 1.391 . S
C537 H525 0.950 . S
C537 C533 1.393 . S
C537 C536 1.391 . S
C538 H528 0.950 . S
C538 C539 1.386 . S
C538 C540 1.391 . S
C539 C538 1.386 . S
C539 C543 1.393 . S
C540 H529 0.950 . S
C540 C538 1.391 . S
C540 C541 1.400 . S
C541 C535 1.491 . S
C541 C540 1.400 . S
C541 C542 1.398 . S
C542 H530 0.950 . S
C542 C541 1.398 . S
C542 C543 1.391 . S
C543 H531 0.950 . S
C543 C539 1.393 . S
C543 C542 1.391 . S
H544 C552 0.950 . S
H545 C557 0.950 . S
H546 C554 0.950 . S
H547 C556 0.950 . S
H548 C558 0.950 . S
H549 C560 0.950 . S
H550 C562 0.950 . S
H551 C563 0.950 . S
C552 H544 0.950 . S
C552 C553 1.386 . S
C552 C554 1.391 . S
C553 C552 1.386 . S
C553 C557 1.393 . S
C554 H546 0.950 . S
C554 C552 1.391 . S
C554 C555 1.400 . S
C555 C554 1.400 . S
C555 C556 1.398 . S
C555 C561 1.491 1_556 S
C556 H547 0.950 . S
C556 C555 1.398 . S
C556 C557 1.391 . S
C557 H545 0.950 . S
C557 C553 1.393 . S
C557 C556 1.391 . S
C558 H548 0.950 . S
C558 C559 1.386 . S
C558 C560 1.391 . S
C559 C558 1.386 . S
C559 C563 1.393 . S
C560 H549 0.950 . S
C560 C558 1.391 . S
C560 C561 1.400 . S
C561 C555 1.491 1_554 S
C561 C560 1.400 . S
C561 C562 1.398 . S
C562 H550 0.950 . S
C562 C561 1.398 . S
C562 C563 1.391 . S
C563 H551 0.950 . S
C563 C559 1.393 . S
C563 C562 1.391 . S
H564 C572 0.950 . S
H565 C577 0.950 . S
H566 C574 0.950 . S
H567 C576 0.950 . S
H568 C578 0.950 . S
H569 C580 0.950 . S
H570 C582 0.950 . S
H571 C583 0.950 . S
C572 H564 0.950 . S
C572 C573 1.386 . S
C572 C574 1.391 . S
C573 C572 1.386 . S
C573 C577 1.393 . S
C574 H566 0.950 . S
C574 C572 1.391 . S
C574 C575 1.400 . S
C575 C574 1.400 . S
C575 C576 1.398 . S
C575 C581 1.491 . S
C576 H567 0.950 . S
C576 C575 1.398 . S
C576 C577 1.391 . S
C577 H565 0.950 . S
C577 C573 1.393 . S
C577 C576 1.391 . S
C578 H568 0.950 . S
C578 C579 1.386 . S
C578 C580 1.391 . S
C579 C578 1.386 . S
C579 C583 1.393 . S
C580 H569 0.950 . S
C580 C578 1.391 . S
C580 C581 1.400 . S
C581 C575 1.491 . S
C581 C580 1.400 . S
C581 C582 1.398 . S
C582 H570 0.950 . S
C582 C581 1.398 . S
C582 C583 1.391 . S
C583 H571 0.950 . S
C583 C579 1.393 . S
C583 C582 1.391 . S
H584 C592 0.950 . S
H585 C597 0.950 . S
H586 C594 0.950 . S
H587 C596 0.950 . S
H588 C598 0.950 . S
H589 C600 0.950 . S
H590 C602 0.950 . S
H591 C603 0.950 . S
C592 H584 0.950 . S
C592 C593 1.386 . S
C592 C594 1.391 . S
C593 C592 1.386 . S
C593 C597 1.393 . S
C594 H586 0.950 . S
C594 C592 1.391 . S
C594 C595 1.400 . S
C595 C594 1.400 . S
C595 C596 1.398 . S
C595 C601 1.491 1_554 S
C596 H587 0.950 . S
C596 C595 1.398 . S
C596 C597 1.391 . S
C597 H585 0.950 . S
C597 C593 1.393 . S
C597 C596 1.391 . S
C598 H588 0.950 . S
C598 C599 1.386 . S
C598 C600 1.391 . S
C599 C598 1.386 . S
C599 C603 1.393 . S
C600 H589 0.950 . S
C600 C598 1.391 . S
C600 C601 1.400 . S
C601 C595 1.491 1_556 S
C601 C600 1.400 . S
C601 C602 1.398 . S
C602 H590 0.950 . S
C602 C601 1.398 . S
C602 C603 1.391 . S
C603 H591 0.950 . S
C603 C599 1.393 . S
C603 C602 1.391 . S
H604 C612 0.950 . S
H605 C617 0.950 . S
H606 C614 0.950 . S
H607 C616 0.950 . S
H608 C618 0.950 . S
H609 C620 0.950 . S
H610 C622 0.950 . S
H611 C623 0.950 . S
C612 H604 0.950 . S
C612 C613 1.386 . S
C612 C614 1.391 . S
C613 C612 1.386 . S
C613 C617 1.393 . S
C614 H606 0.950 . S
C614 C612 1.391 . S
C614 C615 1.400 . S
C615 C614 1.400 . S
C615 C616 1.398 . S
C615 C621 1.491 . S
C616 H607 0.950 . S
C616 C615 1.398 . S
C616 C617 1.391 . S
C617 H605 0.950 . S
C617 C613 1.393 . S
C617 C616 1.391 . S
C618 H608 0.950 . S
C618 C619 1.386 . S
C618 C620 1.391 . S
C619 C618 1.386 . S
C619 C623 1.393 . S
C620 H609 0.950 . S
C620 C618 1.391 . S
C620 C621 1.400 . S
C621 C615 1.491 . S
C621 C620 1.400 . S
C621 C622 1.398 . S
C622 H610 0.950 . S
C622 C621 1.398 . S
C622 C623 1.391 . S
C623 H611 0.950 . S
C623 C619 1.393 . S
C623 C622 1.391 . S
C213 C3 2.643 1_556 S
C219 C139 2.639 . S
C233 C171 2.629 . S
C239 C37 2.641 . S
C253 C69 2.639 . S
C259 C103 2.628 1_554 S
C273 C22 1.776 . S
C279 C85 1.833 . S
C293 C17 1.829 . S
C299 C56 1.785 . S
C313 C51 1.827 . S
C319 C83 1.788 . S
C333 C117 1.776 . S
C339 C153 1.834 . S
C353 C158 1.777 . S
C359 C187 1.832 . S
C373 C119 1.832 . S
C379 C185 1.779 . S
C393 C137 1.018 . S
C399 C1 1.039 . S
C413 C173 1.035 . S
C419 C35 1.016 . S
C433 C105 1.052 . S
C439 C71 1.029 . S
C453 C15 1.312 . S
C459 C124 1.321 . S
C473 C49 1.299 . S
C479 C151 1.288 . S
C493 C192 1.282 . S
C499 C90 1.280 . S
C513 C6 1.162 . S
C519 C28 1.161 . S
C533 C62 1.163 . S
C539 C40 1.161 . S
C553 C96 1.162 . S
C559 C74 1.160 . S
C573 C130 1.152 . S
C579 C108 1.157 . S
C593 C142 1.150 . S
C599 C164 1.158 . S
C613 C176 1.163 . S
C619 C198 1.156 . S
