# Generated by pormake.
# Topology tzs, (4)-cn, num edge types: 1
# Building blocks:
#     Node 0, Type 0, BuildingBlock: KUFVIS_clean_sbu_0, # of connection points: 4
#     Node 1, Type 0, BuildingBlock: KUFVIS_clean_sbu_0, # of connection points: 4
#     Node 2, Type 0, BuildingBlock: KUFVIS_clean_sbu_0, # of connection points: 4
#     Node 3, Type 0, BuildingBlock: KUFVIS_clean_sbu_0, # of connection points: 4
#     Node 4, Type 0, BuildingBlock: KUFVIS_clean_sbu_0, # of connection points: 4
#     Node 5, Type 0, BuildingBlock: KUFVIS_clean_sbu_0, # of connection points: 4
#     Node 6, Type 0, BuildingBlock: KUFVIS_clean_sbu_0, # of connection points: 4
#     Node 7, Type 0, BuildingBlock: KUFVIS_clean_sbu_0, # of connection points: 4
#     Node 8, Type 0, BuildingBlock: KUFVIS_clean_sbu_0, # of connection points: 4
#     Node 9, Type 0, BuildingBlock: KUFVIS_clean_sbu_0, # of connection points: 4
#     Node 10, Type 0, BuildingBlock: KUFVIS_clean_sbu_0, # of connection points: 4
#     Node 11, Type 0, BuildingBlock: KUFVIS_clean_sbu_0, # of connection points: 4
#     Node 12, Type 0, BuildingBlock: KUFVIS_clean_sbu_0, # of connection points: 4
#     Node 13, Type 0, BuildingBlock: KUFVIS_clean_sbu_0, # of connection points: 4
#     Node 14, Type 0, BuildingBlock: KUFVIS_clean_sbu_0, # of connection points: 4
#     Node 15, Type 0, BuildingBlock: KUFVIS_clean_sbu_0, # of connection points: 4
#     Edge 16, Type (0, 0), BuildingBlock: UVAHIK_clean_linker_0, # of connection points: 2
#     Edge 17, Type (0, 0), BuildingBlock: UVAHIK_clean_linker_0, # of connection points: 2
#     Edge 18, Type (0, 0), BuildingBlock: UVAHIK_clean_linker_0, # of connection points: 2
#     Edge 19, Type (0, 0), BuildingBlock: UVAHIK_clean_linker_0, # of connection points: 2
#     Edge 20, Type (0, 0), BuildingBlock: UVAHIK_clean_linker_0, # of connection points: 2
#     Edge 21, Type (0, 0), BuildingBlock: UVAHIK_clean_linker_0, # of connection points: 2
#     Edge 22, Type (0, 0), BuildingBlock: UVAHIK_clean_linker_0, # of connection points: 2
#     Edge 23, Type (0, 0), BuildingBlock: UVAHIK_clean_linker_0, # of connection points: 2
#     Edge 24, Type (0, 0), BuildingBlock: UVAHIK_clean_linker_0, # of connection points: 2
#     Edge 25, Type (0, 0), BuildingBlock: UVAHIK_clean_linker_0, # of connection points: 2
#     Edge 26, Type (0, 0), BuildingBlock: UVAHIK_clean_linker_0, # of connection points: 2
#     Edge 27, Type (0, 0), BuildingBlock: UVAHIK_clean_linker_0, # of connection points: 2
#     Edge 28, Type (0, 0), BuildingBlock: UVAHIK_clean_linker_0, # of connection points: 2
#     Edge 29, Type (0, 0), BuildingBlock: UVAHIK_clean_linker_0, # of connection points: 2
#     Edge 30, Type (0, 0), BuildingBlock: UVAHIK_clean_linker_0, # of connection points: 2
#     Edge 31, Type (0, 0), BuildingBlock: UVAHIK_clean_linker_0, # of connection points: 2
#     Edge 32, Type (0, 0), BuildingBlock: UVAHIK_clean_linker_0, # of connection points: 2
#     Edge 33, Type (0, 0), BuildingBlock: UVAHIK_clean_linker_0, # of connection points: 2
#     Edge 34, Type (0, 0), BuildingBlock: UVAHIK_clean_linker_0, # of connection points: 2
#     Edge 35, Type (0, 0), BuildingBlock: UVAHIK_clean_linker_0, # of connection points: 2
#     Edge 36, Type (0, 0), BuildingBlock: UVAHIK_clean_linker_0, # of connection points: 2
#     Edge 37, Type (0, 0), BuildingBlock: UVAHIK_clean_linker_0, # of connection points: 2
#     Edge 38, Type (0, 0), BuildingBlock: UVAHIK_clean_linker_0, # of connection points: 2
#     Edge 39, Type (0, 0), BuildingBlock: UVAHIK_clean_linker_0, # of connection points: 2
#     Edge 40, Type (0, 0), BuildingBlock: UVAHIK_clean_linker_0, # of connection points: 2
#     Edge 41, Type (0, 0), BuildingBlock: UVAHIK_clean_linker_0, # of connection points: 2
#     Edge 42, Type (0, 0), BuildingBlock: UVAHIK_clean_linker_0, # of connection points: 2
#     Edge 43, Type (0, 0), BuildingBlock: UVAHIK_clean_linker_0, # of connection points: 2
#     Edge 44, Type (0, 0), BuildingBlock: UVAHIK_clean_linker_0, # of connection points: 2
#     Edge 45, Type (0, 0), BuildingBlock: UVAHIK_clean_linker_0, # of connection points: 2
#     Edge 46, Type (0, 0), BuildingBlock: UVAHIK_clean_linker_0, # of connection points: 2
#     Edge 47, Type (0, 0), BuildingBlock: UVAHIK_clean_linker_0, # of connection points: 2
# Relax obj value: 0.101
# Max RMSD: 0.097
# Mean RMSD: 0.097
data_MOF--net-tzs--node1-KUFVIS_clean_sbu_0--edge1-UVAHIK_clean_linker_0
_symmetry_space_group_name_H-M    P1
_symmetry_Int_Tables_number       1
_symmetry_cell_setting            triclinic
loop_
_symmetry_equiv_pos_as_xyz
'x, y, z'
_cell_length_a     62.279595
_cell_length_b     62.277857
_cell_length_c     51.324963
_cell_angle_alpha  89.995771
_cell_angle_beta   90.007673
_cell_angle_gamma 90.006958
loop_
_atom_site_label
_atom_site_type_symbol
_atom_site_fract_x
_atom_site_fract_y
_atom_site_fract_z
_atom_type_partial_charge
Mn0 Mn 0.14189 0.36067 0.19801 0.0
Mn1 Mn 0.18424 0.38583 0.17032 0.0
C2 C 0.15684 0.39095 0.21704 0.0
C3 C 0.10497 0.35619 0.20436 0.0
C4 C 0.18795 0.34348 0.19919 0.0
O5 O 0.14109 0.3497 0.1604 0.0
O6 O 0.16862 0.36904 0.14356 0.0
C7 C 0.16091 0.41609 0.13595 0.0
N8 N 0.17513 0.41255 0.15566 0.0
C9 C 0.18167 0.45044 0.16042 0.0
C10 C 0.16716 0.45447 0.14011 0.0
C11 C 0.15671 0.43721 0.12787 0.0
C12 C 0.18523 0.42904 0.16762 0.0
H13 H 0.15283 0.4029 0.12651 0.0
C14 C 0.15304 0.35572 0.14147 0.0
O15 O 0.11847 0.34084 0.20928 0.0
O16 O 0.1128 0.37371 0.19451 0.0
N17 N 0.20031 0.40295 0.19443 0.0
C18 C 0.21296 0.39642 0.21458 0.0
C19 C 0.2242 0.41178 0.22926 0.0
C20 C 0.22241 0.43366 0.22299 0.0
C21 C 0.20938 0.43999 0.20207 0.0
C22 C 0.19865 0.42395 0.18806 0.0
H23 H 0.21443 0.37962 0.21948 0.0
O24 O 0.146 0.37745 0.23113 0.0
O25 O 0.1589 0.38599 0.19269 0.0
O26 O 0.16829 0.34223 0.2059 0.0
O27 O 0.19546 0.35881 0.18537 0.0
C28 C 0.20639 0.4616 0.1948 0.0
C29 C 0.19247 0.46683 0.17408 0.0
H30 H 0.16382 0.47075 0.13388 0.0
H31 H 0.14543 0.4402 0.11224 0.0
H32 H 0.23419 0.40677 0.24541 0.0
H33 H 0.23098 0.44547 0.23447 0.0
H34 H 0.21456 0.47434 0.20519 0.0
H35 H 0.19005 0.48352 0.16894 0.0
Mn36 Mn 0.64017 0.14532 0.19375 0.0
Mn37 Mn 0.61283 0.18824 0.17086 0.0
C38 C 0.60954 0.15766 0.21459 0.0
C39 C 0.64596 0.10829 0.1973 0.0
C40 C 0.6548 0.19218 0.20015 0.0
O41 O 0.65069 0.14719 0.15593 0.0
O42 O 0.63149 0.17621 0.14339 0.0
C43 C 0.58551 0.16532 0.1327 0.0
N44 N 0.58736 0.17831 0.15393 0.0
C45 C 0.54898 0.18191 0.15722 0.0
C46 C 0.54667 0.16865 0.13531 0.0
C47 C 0.56502 0.16027 0.12306 0.0
C48 C 0.56981 0.18633 0.16598 0.0
H49 H 0.59956 0.15884 0.12321 0.0
C50 C 0.64501 0.16116 0.13894 0.0
O51 O 0.66096 0.12202 0.20288 0.0
O52 O 0.62819 0.11602 0.18807 0.0
N53 N 0.59386 0.20122 0.19562 0.0
C54 C 0.59884 0.21312 0.21706 0.0
C55 C 0.58226 0.22242 0.23178 0.0
C56 C 0.56078 0.21957 0.22416 0.0
C57 C 0.55607 0.20743 0.20187 0.0
C58 C 0.57326 0.1986 0.18794 0.0
H59 H 0.61533 0.21545 0.22291 0.0
O60 O 0.62376 0.14673 0.22745 0.0
O61 O 0.61398 0.16141 0.19039 0.0
O62 O 0.65768 0.17208 0.20356 0.0
O63 O 0.63849 0.19996 0.18838 0.0
C64 C 0.53499 0.20362 0.19302 0.0
C65 C 0.53144 0.19074 0.17083 0.0
H66 H 0.5309 0.16471 0.12783 0.0
H67 H 0.56337 0.14996 0.1062 0.0
H68 H 0.58602 0.23178 0.24895 0.0
H69 H 0.54803 0.22669 0.23562 0.0
H70 H 0.52137 0.21038 0.20324 0.0
H71 H 0.51515 0.18767 0.16445 0.0
Mn72 Mn 0.85895 0.64419 0.19168 0.0
Mn73 Mn 0.81645 0.61939 0.16382 0.0
C74 C 0.84412 0.61366 0.21014 0.0
C75 C 0.89585 0.64865 0.19831 0.0
C76 C 0.8126 0.66093 0.19408 0.0
O77 O 0.85985 0.65551 0.15425 0.0
O78 O 0.83127 0.63758 0.13777 0.0
C79 C 0.84019 0.59112 0.12745 0.0
N80 N 0.82606 0.59352 0.14749 0.0
C81 C 0.82061 0.55533 0.15026 0.0
C82 C 0.83502 0.55247 0.12956 0.0
C83 C 0.84488 0.57044 0.11815 0.0
C84 C 0.81654 0.57633 0.15867 0.0
H85 H 0.84787 0.60487 0.11866 0.0
C86 C 0.84713 0.65053 0.13561 0.0
O87 O 0.8823 0.66393 0.20336 0.0
O88 O 0.88808 0.63124 0.18811 0.0
N89 N 0.80102 0.60096 0.18709 0.0
C90 C 0.78829 0.6064 0.20764 0.0
C91 C 0.77755 0.59021 0.22154 0.0
C92 C 0.77992 0.56864 0.21408 0.0
C93 C 0.79298 0.56345 0.19275 0.0
C94 C 0.80318 0.58028 0.17954 0.0
H95 H 0.7864 0.62296 0.21344 0.0
O96 O 0.85484 0.62707 0.22449 0.0
O97 O 0.84202 0.61887 0.18586 0.0
O98 O 0.83247 0.66254 0.19983 0.0
O99 O 0.80491 0.64551 0.18059 0.0
C100 C 0.7965 0.54222 0.18426 0.0
C101 C 0.81038 0.53815 0.16312 0.0
H102 H 0.83874 0.53654 0.12239 0.0
H103 H 0.85609 0.56836 0.10224 0.0
H104 H 0.76752 0.59434 0.238 0.0
H105 H 0.77175 0.55618 0.22497 0.0
H106 H 0.78877 0.52888 0.19401 0.0
H107 H 0.81319 0.52174 0.15702 0.0
Mn108 Mn 0.35789 0.85917 0.19133 0.0
Mn109 Mn 0.38393 0.81657 0.16553 0.0
C110 C 0.38886 0.8458 0.21036 0.0
C111 C 0.35245 0.89607 0.19688 0.0
C112 C 0.343 0.81224 0.19663 0.0
O113 O 0.34665 0.85887 0.1539 0.0
O114 O 0.36415 0.82931 0.13951 0.0
C115 C 0.40969 0.84029 0.12647 0.0
N116 N 0.4087 0.82684 0.14737 0.0
C117 C 0.44718 0.8234 0.1484 0.0
C118 C 0.4486 0.83712 0.12681 0.0
C119 C 0.42977 0.84564 0.11584 0.0
C120 C 0.42672 0.81865 0.15816 0.0
H121 H 0.39529 0.84692 0.11797 0.0
C122 C 0.35115 0.84503 0.1363 0.0
O123 O 0.3375 0.88224 0.20225 0.0
O124 O 0.37005 0.88856 0.18688 0.0
N125 N 0.40391 0.80298 0.18862 0.0
C126 C 0.39982 0.79061 0.20995 0.0
C127 C 0.41699 0.78107 0.22341 0.0
C128 C 0.43814 0.78424 0.2147 0.0
C129 C 0.44193 0.79689 0.19258 0.0
C130 C 0.42418 0.80587 0.17987 0.0
H131 H 0.38361 0.78813 0.21673 0.0
O132 O 0.37503 0.85632 0.22432 0.0
O133 O 0.38379 0.84292 0.18615 0.0
O134 O 0.34017 0.83232 0.20017 0.0
O135 O 0.35909 0.80451 0.18438 0.0
C136 C 0.46264 0.80111 0.18278 0.0
C137 C 0.46527 0.81445 0.1608 0.0
H138 H 0.46406 0.84132 0.11859 0.0
H139 H 0.43073 0.8563 0.09923 0.0
H140 H 0.41394 0.77135 0.24048 0.0
H141 H 0.45135 0.77697 0.22524 0.0
H142 H 0.47668 0.79432 0.19212 0.0
H143 H 0.48129 0.8178 0.15367 0.0
Mn144 Mn 0.14687 0.64293 0.30967 0.0
Mn145 Mn 0.19024 0.61731 0.33413 0.0
C146 C 0.16046 0.61244 0.28981 0.0
C147 C 0.10983 0.64787 0.30501 0.0
C148 C 0.19344 0.65873 0.30377 0.0
O149 O 0.14752 0.65369 0.34727 0.0
O150 O 0.17751 0.63649 0.36086 0.0
C151 C 0.16754 0.59055 0.3731 0.0
N152 N 0.18065 0.59209 0.35193 0.0
C153 C 0.18444 0.55368 0.3497 0.0
C154 C 0.17109 0.5517 0.37156 0.0
C155 C 0.16258 0.57022 0.38327 0.0
C156 C 0.18887 0.57437 0.34046 0.0
H157 H 0.16089 0.60471 0.38214 0.0
C158 C 0.1616 0.64918 0.36459 0.0
O159 O 0.12336 0.6631 0.29963 0.0
O160 O 0.11775 0.63026 0.3145 0.0
N161 N 0.2038 0.59793 0.31029 0.0
C162 C 0.2157 0.60255 0.28872 0.0
C163 C 0.22511 0.58574 0.2745 0.0
C164 C 0.22228 0.5644 0.28265 0.0
C165 C 0.2101 0.56005 0.30501 0.0
C166 C 0.20125 0.57747 0.31852 0.0
H167 H 0.21787 0.61892 0.28233 0.0
O168 O 0.14953 0.62627 0.27631 0.0
O169 O 0.16361 0.61727 0.31405 0.0
O170 O 0.17327 0.66121 0.30061 0.0
O171 O 0.20162 0.64265 0.3156 0.0
C172 C 0.20617 0.53911 0.31424 0.0
C173 C 0.19328 0.53592 0.3365 0.0
H174 H 0.16715 0.53604 0.3794 0.0
H175 H 0.15218 0.56882 0.40008 0.0
H176 H 0.23446 0.58923 0.25724 0.0
H177 H 0.22941 0.55147 0.2715 0.0
H178 H 0.21282 0.52532 0.30422 0.0
H179 H 0.19015 0.51972 0.3432 0.0
Mn180 Mn 0.35755 0.14643 0.30836 0.0
Mn181 Mn 0.38424 0.18992 0.3308 0.0
C182 C 0.38822 0.15883 0.28769 0.0
C183 C 0.35195 0.10938 0.30516 0.0
C184 C 0.34248 0.19305 0.30097 0.0
O185 O 0.34682 0.14856 0.34605 0.0
O186 O 0.36554 0.17798 0.35835 0.0
C187 C 0.41156 0.16779 0.36966 0.0
N188 N 0.40971 0.18047 0.34815 0.0
C189 C 0.44808 0.18427 0.34503 0.0
C190 C 0.45038 0.17134 0.36722 0.0
C191 C 0.43204 0.16302 0.37954 0.0
C192 C 0.42726 0.18844 0.33605 0.0
H193 H 0.39752 0.16133 0.3792 0.0
C194 C 0.35223 0.16276 0.36291 0.0
O195 O 0.33693 0.12301 0.29936 0.0
O196 O 0.36966 0.11723 0.31447 0.0
N197 N 0.40324 0.20275 0.30596 0.0
C198 C 0.39829 0.21425 0.28419 0.0
C199 C 0.41488 0.22341 0.26935 0.0
C200 C 0.43634 0.22081 0.27716 0.0
C201 C 0.44103 0.20907 0.29977 0.0
C202 C 0.42383 0.20038 0.31382 0.0
H203 H 0.38181 0.21636 0.27816 0.0
O204 O 0.37418 0.14767 0.27482 0.0
O205 O 0.38355 0.1628 0.31177 0.0
O206 O 0.3399 0.17288 0.29796 0.0
O207 O 0.35857 0.2012 0.31282 0.0
C208 C 0.46209 0.20551 0.30881 0.0
C209 C 0.46562 0.193 0.33131 0.0
H210 H 0.46615 0.1676 0.37487 0.0
H211 H 0.43369 0.15296 0.39661 0.0
H212 H 0.41113 0.23245 0.25192 0.0
H213 H 0.4491 0.2278 0.26559 0.0
H214 H 0.47572 0.21219 0.29851 0.0
H215 H 0.48191 0.19011 0.33784 0.0
Mn216 Mn 0.85219 0.36296 0.30811 0.0
Mn217 Mn 0.80877 0.39021 0.32966 0.0
C218 C 0.83971 0.393 0.28618 0.0
C219 C 0.88929 0.35746 0.30551 0.0
C220 C 0.80564 0.34748 0.30179 0.0
O221 O 0.85004 0.35319 0.34616 0.0
O222 O 0.82095 0.37255 0.35808 0.0
C223 C 0.83095 0.41902 0.36684 0.0
N224 N 0.81816 0.41633 0.34556 0.0
C225 C 0.81424 0.45453 0.34031 0.0
C226 C 0.82727 0.4577 0.36226 0.0
C227 C 0.8357 0.43987 0.37553 0.0
C228 C 0.81006 0.43338 0.33256 0.0
H229 H 0.8375 0.40537 0.37708 0.0
C230 C 0.8361 0.35923 0.36299 0.0
O231 O 0.87577 0.34223 0.30007 0.0
O232 O 0.88127 0.37538 0.31396 0.0
N233 N 0.79572 0.40821 0.30391 0.0
C234 C 0.78419 0.40241 0.28248 0.0
C235 C 0.77495 0.4184 0.26676 0.0
C236 C 0.77753 0.44014 0.27334 0.0
C237 C 0.78931 0.44571 0.29562 0.0
C238 C 0.79805 0.42908 0.31061 0.0
H239 H 0.78212 0.38572 0.27737 0.0
O240 O 0.85095 0.37867 0.27391 0.0
O241 O 0.83576 0.38897 0.31044 0.0
O242 O 0.82578 0.34494 0.29842 0.0
O243 O 0.79756 0.36384 0.31316 0.0
C244 C 0.7929 0.46711 0.3034 0.0
C245 C 0.80547 0.47152 0.32564 0.0
H246 H 0.83102 0.47376 0.36898 0.0
H247 H 0.84585 0.44219 0.39242 0.0
H248 H 0.76589 0.41397 0.24958 0.0
H249 H 0.7705 0.45243 0.26107 0.0
H250 H 0.78624 0.48031 0.2923 0.0
H251 H 0.80838 0.48804 0.33119 0.0
Mn252 Mn 0.64085 0.85616 0.30341 0.0
Mn253 Mn 0.61437 0.81213 0.32465 0.0
C254 C 0.61061 0.84359 0.28189 0.0
C255 C 0.64608 0.89332 0.3009 0.0
C256 C 0.65673 0.80983 0.29596 0.0
O257 O 0.65105 0.85374 0.34132 0.0
O258 O 0.6323 0.82413 0.3529 0.0
C259 C 0.58586 0.83343 0.36291 0.0
N260 N 0.58838 0.821 0.34128 0.0
C261 C 0.55016 0.81662 0.33685 0.0
C262 C 0.54717 0.82928 0.35914 0.0
C263 C 0.56509 0.83776 0.37218 0.0
C264 C 0.57123 0.81286 0.32851 0.0
H265 H 0.59958 0.84 0.37299 0.0
C266 C 0.64542 0.83943 0.35793 0.0
O267 O 0.66133 0.8799 0.29524 0.0
O268 O 0.62832 0.88518 0.30967 0.0
N269 N 0.59613 0.79923 0.29902 0.0
C270 C 0.60174 0.78808 0.27722 0.0
C271 C 0.58564 0.77884 0.26169 0.0
C272 C 0.56397 0.78102 0.26883 0.0
C273 C 0.5586 0.79242 0.29147 0.0
C274 C 0.57534 0.80121 0.30623 0.0
H275 H 0.61838 0.7863 0.2717 0.0
O276 O 0.6247 0.85506 0.26949 0.0
O277 O 0.61503 0.83942 0.306 0.0
O278 O 0.659 0.83005 0.29304 0.0
O279 O 0.64061 0.80137 0.3074 0.0
C280 C 0.53729 0.79558 0.29984 0.0
C281 C 0.53306 0.80778 0.32242 0.0
H282 H 0.53117 0.83269 0.36633 0.0
H283 H 0.56291 0.84762 0.38934 0.0
H284 H 0.58991 0.77007 0.24424 0.0
H285 H 0.55158 0.77398 0.25672 0.0
H286 H 0.524 0.78884 0.28896 0.0
H287 H 0.51659 0.81035 0.32844 0.0
Mn288 Mn 0.85989 0.64383 0.8048 0.0
Mn289 Mn 0.8847 0.68685 0.83147 0.0
C290 C 0.89041 0.65833 0.78594 0.0
C291 C 0.85541 0.60684 0.79905 0.0
C292 C 0.84321 0.69018 0.80108 0.0
O293 O 0.84864 0.64356 0.84227 0.0
O294 O 0.86629 0.67267 0.85781 0.0
C295 C 0.91267 0.66372 0.86876 0.0
N296 N 0.91044 0.67744 0.84827 0.0
C297 C 0.94868 0.68253 0.8455 0.0
C298 C 0.95137 0.66854 0.86666 0.0
C299 C 0.93328 0.65907 0.8783 0.0
C300 C 0.92774 0.6866 0.83688 0.0
H301 H 0.89883 0.65633 0.87772 0.0
C302 C 0.85342 0.65678 0.86048 0.0
O303 O 0.84012 0.62031 0.79372 0.0
O304 O 0.87283 0.61475 0.80904 0.0
N305 N 0.9033 0.70171 0.80788 0.0
C306 C 0.89802 0.71407 0.78693 0.0
C307 C 0.91433 0.72438 0.77278 0.0
C308 C 0.93587 0.72198 0.78038 0.0
C309 C 0.9409 0.70932 0.80213 0.0
C310 C 0.92395 0.69955 0.81559 0.0
H311 H 0.88149 0.71596 0.78101 0.0
O312 O 0.87697 0.6474 0.77187 0.0
O313 O 0.88522 0.66085 0.81017 0.0
O314 O 0.84152 0.67019 0.79605 0.0
O315 O 0.85871 0.69814 0.81419 0.0
C316 C 0.96208 0.70577 0.81077 0.0
C317 C 0.96597 0.69232 0.83237 0.0
H318 H 0.96725 0.66484 0.87401 0.0
H319 H 0.93523 0.64818 0.89457 0.0
H320 H 0.91032 0.73411 0.756 0.0
H321 H 0.94842 0.72981 0.76928 0.0
H322 H 0.97551 0.71314 0.80079 0.0
H323 H 0.98234 0.68948 0.8386 0.0
Mn324 Mn 0.35946 0.8576 0.80536 0.0
Mn325 Mn 0.31715 0.88269 0.8332 0.0
C326 C 0.34511 0.88851 0.78724 0.0
C327 C 0.39633 0.85285 0.79877 0.0
C328 C 0.31293 0.84142 0.80241 0.0
O329 O 0.36007 0.84596 0.84266 0.0
O330 O 0.33164 0.86413 0.85915 0.0
C331 C 0.341 0.91041 0.87011 0.0
N332 N 0.32697 0.90832 0.8499 0.0
C333 C 0.32201 0.9466 0.8475 0.0
C334 C 0.33631 0.94914 0.86837 0.0
C335 C 0.34588 0.93096 0.87968 0.0
C336 C 0.31774 0.92571 0.83881 0.0
H337 H 0.34843 0.89651 0.87883 0.0
C338 C 0.34734 0.85097 0.86127 0.0
O339 O 0.38265 0.83773 0.7935 0.0
O340 O 0.38871 0.87022 0.80924 0.0
N341 N 0.3021 0.90148 0.80999 0.0
C342 C 0.28944 0.89634 0.78924 0.0
C343 C 0.279 0.91277 0.77541 0.0
C344 C 0.28157 0.93425 0.78314 0.0
C345 C 0.29455 0.93913 0.80466 0.0
C346 C 0.30447 0.92208 0.81777 0.0
H347 H 0.28739 0.87985 0.78323 0.0
O348 O 0.35567 0.87508 0.77275 0.0
O349 O 0.34283 0.88306 0.81141 0.0
O350 O 0.3328 0.83959 0.79685 0.0
O351 O 0.30538 0.85686 0.816 0.0
C352 C 0.29825 0.96024 0.81344 0.0
C353 C 0.31205 0.96399 0.83475 0.0
H354 H 0.34017 0.96497 0.87575 0.0
H355 H 0.35701 0.93279 0.89572 0.0
H356 H 0.26903 0.90888 0.7588 0.0
H357 H 0.27362 0.94689 0.77231 0.0
H358 H 0.2907 0.97374 0.80379 0.0
H359 H 0.31501 0.98032 0.84106 0.0
Mn360 Mn 0.14326 0.35449 0.81109 0.0
Mn361 Mn 0.11712 0.31159 0.83596 0.0
C362 C 0.11273 0.34101 0.79121 0.0
C363 C 0.14842 0.39147 0.80612 0.0
C364 C 0.15862 0.30773 0.80585 0.0
O365 O 0.15394 0.35403 0.84873 0.0
O366 O 0.13632 0.32439 0.86261 0.0
C367 C 0.09044 0.33493 0.87444 0.0
N368 N 0.09194 0.32159 0.85348 0.0
C369 C 0.05351 0.318 0.8512 0.0
C370 C 0.05157 0.3316 0.87284 0.0
C371 C 0.07013 0.34014 0.88446 0.0
C372 C 0.07418 0.31337 0.84207 0.0
H373 H 0.10464 0.34159 0.88342 0.0
C374 C 0.1492 0.34015 0.8662 0.0
O375 O 0.16359 0.37785 0.80089 0.0
O376 O 0.13076 0.38369 0.81563 0.0
N377 N 0.09771 0.29797 0.81221 0.0
C378 C 0.1023 0.28578 0.79088 0.0
C379 C 0.08546 0.27628 0.77678 0.0
C380 C 0.06411 0.27932 0.78483 0.0
C381 C 0.0598 0.29179 0.80696 0.0
C382 C 0.07725 0.30073 0.82034 0.0
H383 H 0.11867 0.28341 0.7846 0.0
O384 O 0.12668 0.35174 0.77768 0.0
O385 O 0.11743 0.33802 0.81551 0.0
O386 O 0.16133 0.32784 0.80239 0.0
O387 O 0.14243 0.29984 0.81775 0.0
C388 C 0.03887 0.29589 0.81612 0.0
C389 C 0.03572 0.30908 0.83813 0.0
H390 H 0.03593 0.33571 0.88059 0.0
H391 H 0.06876 0.35072 0.90111 0.0
H392 H 0.08892 0.2667 0.75971 0.0
H393 H 0.05116 0.27211 0.77379 0.0
H394 H 0.02507 0.28914 0.80625 0.0
H395 H 0.01954 0.31234 0.84477 0.0
Mn396 Mn 0.64477 0.14148 0.80749 0.0
Mn397 Mn 0.68805 0.11438 0.82987 0.0
C398 C 0.65731 0.1111 0.78629 0.0
C399 C 0.60772 0.14714 0.80398 0.0
C400 C 0.69147 0.1566 0.80106 0.0
O401 O 0.64667 0.15172 0.84544 0.0
O402 O 0.6759 0.13268 0.85763 0.0
C403 C 0.66555 0.08649 0.8678 0.0
N404 N 0.67844 0.08866 0.84652 0.0
C405 C 0.68245 0.05036 0.84274 0.0
C406 C 0.66929 0.04772 0.86468 0.0
C407 C 0.66076 0.06587 0.87721 0.0
C408 C 0.68661 0.0713 0.83421 0.0
H409 H 0.65895 0.10039 0.87749 0.0
C410 C 0.66074 0.14602 0.86231 0.0
O411 O 0.62141 0.16223 0.79865 0.0
O412 O 0.6155 0.12931 0.81303 0.0
N413 N 0.70112 0.09577 0.8048 0.0
C414 C 0.71287 0.10105 0.78334 0.0
C415 C 0.72229 0.0847 0.76836 0.0
C416 C 0.71971 0.06313 0.77574 0.0
C417 C 0.70772 0.0581 0.79804 0.0
C418 C 0.69876 0.07507 0.81223 0.0
H419 H 0.71498 0.11762 0.77768 0.0
O420 O 0.64623 0.12532 0.77362 0.0
O421 O 0.6611 0.1154 0.81052 0.0
O422 O 0.67133 0.15925 0.79776 0.0
O423 O 0.69949 0.14033 0.81266 0.0
C424 C 0.70418 0.0369 0.80665 0.0
C425 C 0.69142 0.03303 0.82887 0.0
H426 H 0.66555 0.03183 0.87199 0.0
H427 H 0.65053 0.06396 0.8941 0.0
H428 H 0.73152 0.08871 0.75118 0.0
H429 H 0.72691 0.05055 0.76407 0.0
H430 H 0.71106 0.02344 0.79623 0.0
H431 H 0.68856 0.01665 0.83506 0.0
Mn432 Mn 0.8617 0.35415 0.69432 0.0
Mn433 Mn 0.88807 0.31043 0.67203 0.0
C434 C 0.8919 0.34125 0.71554 0.0
C435 C 0.85654 0.39128 0.69722 0.0
C436 C 0.84574 0.30777 0.70078 0.0
O437 O 0.85137 0.35222 0.65646 0.0
O438 O 0.87019 0.32291 0.64402 0.0
C439 C 0.91666 0.33231 0.63433 0.0
N440 N 0.91409 0.31951 0.65564 0.0
C441 C 0.9523 0.31504 0.66006 0.0
C442 C 0.95534 0.32808 0.63809 0.0
C443 C 0.93744 0.33679 0.62522 0.0
C444 C 0.93121 0.31114 0.66825 0.0
H445 H 0.90295 0.33907 0.6244 0.0
C446 C 0.85701 0.33825 0.63945 0.0
O447 O 0.84129 0.37786 0.70288 0.0
O448 O 0.87429 0.38317 0.68839 0.0
N449 N 0.90626 0.29708 0.69736 0.0
C450 C 0.9006 0.28558 0.71888 0.0
C451 C 0.91668 0.27608 0.73423 0.0
C452 C 0.93836 0.27837 0.7272 0.0
C453 C 0.94377 0.29012 0.70484 0.0
C454 C 0.92706 0.29914 0.69024 0.0
H455 H 0.88396 0.28373 0.72433 0.0
O456 O 0.87789 0.35263 0.72816 0.0
O457 O 0.88747 0.33741 0.69135 0.0
O458 O 0.84355 0.32793 0.70429 0.0
O459 O 0.86179 0.29948 0.68899 0.0
C460 C 0.9651 0.29343 0.69662 0.0
C461 C 0.96937 0.30599 0.67434 0.0
H462 H 0.97135 0.33161 0.63104 0.0
H463 H 0.93966 0.34694 0.60832 0.0
H464 H 0.91237 0.26704 0.75146 0.0
H465 H 0.95072 0.27114 0.73918 0.0
H466 H 0.97837 0.28656 0.70741 0.0
H467 H 0.98585 0.30868 0.66844 0.0
Mn468 Mn 0.64726 0.86001 0.6894 0.0
Mn469 Mn 0.69116 0.88645 0.66776 0.0
C470 C 0.65983 0.89036 0.71063 0.0
C471 C 0.61014 0.85468 0.692 0.0
C472 C 0.69362 0.84426 0.69682 0.0
O473 O 0.64957 0.84964 0.65158 0.0
O474 O 0.67909 0.86836 0.63969 0.0
C475 C 0.66966 0.91471 0.62938 0.0
N476 N 0.68218 0.91233 0.65095 0.0
C477 C 0.68655 0.95058 0.65501 0.0
C478 C 0.67379 0.95343 0.63277 0.0
C479 C 0.66526 0.93541 0.61994 0.0
C480 C 0.69035 0.92956 0.66353 0.0
H481 H 0.66305 0.90092 0.61946 0.0
C482 C 0.66379 0.85521 0.63484 0.0
O483 O 0.62361 0.8395 0.69779 0.0
O484 O 0.61821 0.87245 0.68313 0.0
N485 N 0.7041 0.90485 0.69318 0.0
C486 C 0.71533 0.89938 0.71497 0.0
C487 C 0.72461 0.91559 0.73031 0.0
C488 C 0.7224 0.93722 0.72297 0.0
C489 C 0.71092 0.94243 0.70033 0.0
C490 C 0.70208 0.92559 0.68579 0.0
H491 H 0.71714 0.88278 0.72065 0.0
O492 O 0.64842 0.87632 0.72319 0.0
O493 O 0.66393 0.88584 0.68654 0.0
O494 O 0.67342 0.84197 0.69982 0.0
O495 O 0.70202 0.86033 0.68518 0.0
C496 C 0.70776 0.96369 0.69174 0.0
C497 C 0.69545 0.96777 0.66921 0.0
H498 H 0.67034 0.96937 0.62545 0.0
H499 H 0.65533 0.93748 0.60282 0.0
H500 H 0.73344 0.91144 0.74776 0.0
H501 H 0.72949 0.94968 0.73492 0.0
H502 H 0.71459 0.97704 0.70241 0.0
H503 H 0.69287 0.9842 0.66303 0.0
Mn504 Mn 0.14289 0.64331 0.6963 0.0
Mn505 Mn 0.11758 0.68572 0.66892 0.0
C506 C 0.11236 0.65782 0.71517 0.0
C507 C 0.14767 0.60639 0.70233 0.0
C508 C 0.15944 0.68968 0.69868 0.0
O509 O 0.15407 0.6428 0.65881 0.0
O510 O 0.13533 0.6709 0.6424 0.0
C511 C 0.0887 0.66211 0.63312 0.0
N512 N 0.09144 0.67618 0.65316 0.0
C513 C 0.0533 0.68165 0.65684 0.0
C514 C 0.05009 0.66731 0.63615 0.0
C515 C 0.06787 0.65747 0.62428 0.0
C516 C 0.07444 0.68569 0.66477 0.0
H517 H 0.10229 0.65446 0.62397 0.0
C518 C 0.14856 0.65526 0.64014 0.0
O519 O 0.16287 0.62001 0.70752 0.0
O520 O 0.13014 0.61413 0.69242 0.0
N521 N 0.09954 0.70109 0.69269 0.0
C522 C 0.10531 0.71372 0.71321 0.0
C523 C 0.08936 0.7244 0.72755 0.0
C524 C 0.06766 0.72208 0.72058 0.0
C525 C 0.06213 0.70912 0.69928 0.0
C526 C 0.07873 0.69898 0.68561 0.0
H527 H 0.12196 0.71557 0.71865 0.0
O528 O 0.1259 0.64706 0.72929 0.0
O529 O 0.11743 0.6601 0.69087 0.0
O530 O 0.16109 0.66985 0.70456 0.0
O531 O 0.14397 0.69725 0.68517 0.0
C532 C 0.04076 0.70563 0.69129 0.0
C533 C 0.03635 0.69184 0.67016 0.0
H534 H 0.03405 0.66362 0.62935 0.0
H535 H 0.06552 0.6463 0.60837 0.0
H536 H 0.09376 0.73435 0.74399 0.0
H537 H 0.05539 0.73021 0.73182 0.0
H538 H 0.02759 0.71331 0.70142 0.0
H539 H 0.01984 0.68904 0.66446 0.0
Mn540 Mn 0.35721 0.14052 0.69381 0.0
Mn541 Mn 0.31372 0.11279 0.67333 0.0
C542 C 0.34543 0.1102 0.71583 0.0
C543 C 0.39426 0.14652 0.69631 0.0
C544 C 0.31046 0.15496 0.70212 0.0
O545 O 0.35451 0.15037 0.65585 0.0
O546 O 0.32471 0.13158 0.64525 0.0
C547 C 0.33572 0.08571 0.63411 0.0
N548 N 0.32337 0.08742 0.65591 0.0
C549 C 0.32035 0.049 0.65939 0.0
C550 C 0.33295 0.04684 0.63691 0.0
C551 C 0.34071 0.06527 0.62426 0.0
C552 C 0.31594 0.06978 0.66833 0.0
H553 H 0.34174 0.09982 0.62432 0.0
C554 C 0.3398 0.14481 0.63974 0.0
O555 O 0.38055 0.16156 0.70175 0.0
O556 O 0.38646 0.12855 0.68769 0.0
N557 N 0.30168 0.09366 0.69861 0.0
C558 C 0.29032 0.0985 0.72053 0.0
C559 C 0.28158 0.08181 0.73558 0.0
C560 C 0.28446 0.06037 0.72785 0.0
C561 C 0.29606 0.0558 0.7051 0.0
C562 C 0.30429 0.07309 0.69081 0.0
H563 H 0.28801 0.11495 0.72652 0.0
O564 O 0.35652 0.12472 0.72798 0.0
O565 O 0.34113 0.11419 0.69164 0.0
O566 O 0.33064 0.15821 0.70385 0.0
O567 O 0.30233 0.13827 0.69155 0.0
C568 C 0.29991 0.03476 0.69615 0.0
C569 C 0.31216 0.03136 0.67341 0.0
H570 H 0.33685 0.0311 0.62926 0.0
H571 H 0.35051 0.06373 0.60695 0.0
H572 H 0.27265 0.08547 0.75311 0.0
H573 H 0.27777 0.04755 0.73958 0.0
H574 H 0.29366 0.02106 0.7067 0.0
H575 H 0.31525 0.0151 0.66693 0.0
C576 C 0.31108 0.2006 0.27157 0.0
C577 C 0.32605 0.20782 0.29015 0.0
C578 C 0.29575 0.21465 0.26125 0.0
C579 C 0.26656 0.26437 0.27546 0.0
H580 H 0.25758 0.2675 0.20076 0.0
C581 C 0.19721 0.31289 0.22904 0.0
C582 C 0.20302 0.32668 0.2085 0.0
C583 C 0.21176 0.29771 0.23862 0.0
C584 C 0.25994 0.26679 0.22165 0.0
H585 H 0.33646 0.23551 0.31254 0.0
H586 H 0.30951 0.25986 0.29477 0.0
H587 H 0.28401 0.2423 0.21847 0.0
H588 H 0.2286 0.33494 0.18158 0.0
H589 H 0.25385 0.30822 0.19812 0.0
H590 H 0.24252 0.28884 0.27868 0.0
C591 C 0.30971 0.24333 0.28819 0.0
C592 C 0.27493 0.25229 0.23179 0.0
C593 C 0.32522 0.22939 0.29825 0.0
C594 C 0.22359 0.32463 0.19745 0.0
C595 C 0.23803 0.30925 0.20681 0.0
C596 C 0.25137 0.27865 0.26536 0.0
C597 C 0.29485 0.23613 0.26954 0.0
C598 C 0.2785 0.25105 0.25878 0.0
C599 C 0.23234 0.29578 0.22766 0.0
C600 C 0.24801 0.28012 0.23834 0.0
H601 H 0.3113 0.18413 0.26482 0.0
H602 H 0.2844 0.20864 0.24701 0.0
H603 H 0.26887 0.26365 0.29636 0.0
H604 H 0.18153 0.31404 0.23807 0.0
H605 H 0.20689 0.28742 0.25457 0.0
C606 C 0.76915 0.3305 0.29994 0.0
C607 C 0.79075 0.33072 0.29195 0.0
C608 C 0.75497 0.31495 0.29051 0.0
C609 C 0.7529 0.26194 0.25697 0.0
H610 H 0.69421 0.27919 0.2431 0.0
C611 C 0.67095 0.22901 0.20234 0.0
C612 C 0.67107 0.20743 0.2104 0.0
C613 C 0.68598 0.24357 0.21213 0.0
C614 C 0.71058 0.2741 0.24657 0.0
H615 H 0.81431 0.31466 0.26768 0.0
H616 H 0.78943 0.2879 0.25067 0.0
H617 H 0.71962 0.30537 0.25964 0.0
H618 H 0.68723 0.18428 0.23515 0.0
H619 H 0.71312 0.20982 0.25278 0.0
H620 H 0.74398 0.23084 0.24289 0.0
C621 C 0.78355 0.29947 0.26471 0.0
C622 C 0.72513 0.28908 0.25649 0.0
C623 C 0.79782 0.31491 0.27436 0.0
C624 C 0.68672 0.20075 0.22842 0.0
C625 C 0.70166 0.2154 0.23843 0.0
C626 C 0.73837 0.24697 0.24682 0.0
C627 C 0.7619 0.29933 0.27259 0.0
C628 C 0.74648 0.28323 0.26191 0.0
C629 C 0.70143 0.23704 0.23049 0.0
C630 C 0.717 0.25285 0.24146 0.0
H631 H 0.76317 0.34228 0.31365 0.0
H632 H 0.73856 0.31512 0.29748 0.0
H633 H 0.76913 0.25675 0.26117 0.0
H634 H 0.65929 0.23471 0.18829 0.0
H635 H 0.68556 0.25995 0.20508 0.0
C636 C 0.80357 0.69132 0.22439 0.0
C637 C 0.79756 0.67753 0.20393 0.0
C638 C 0.78907 0.70644 0.23424 0.0
C639 C 0.74073 0.73727 0.21768 0.0
H640 H 0.73196 0.74051 0.2924 0.0
C641 C 0.68861 0.80284 0.26713 0.0
C642 C 0.67361 0.79537 0.28552 0.0
C643 C 0.70432 0.78906 0.2571 0.0
C644 C 0.73425 0.73977 0.2715 0.0
H645 H 0.77166 0.66918 0.17749 0.0
H646 H 0.74654 0.69578 0.19447 0.0
H647 H 0.75848 0.71547 0.2747 0.0
H648 H 0.66358 0.76758 0.30796 0.0
H649 H 0.69118 0.7437 0.29069 0.0
H650 H 0.71647 0.76154 0.21449 0.0
C651 C 0.76246 0.6948 0.2029 0.0
C652 C 0.74953 0.72557 0.2614 0.0
C653 C 0.77683 0.67949 0.19329 0.0
C654 C 0.67483 0.77387 0.29379 0.0
C655 C 0.69071 0.76021 0.28403 0.0
C656 C 0.72567 0.75168 0.22781 0.0
C657 C 0.76836 0.70832 0.2236 0.0
C658 C 0.75279 0.72404 0.23437 0.0
C659 C 0.70556 0.76763 0.2655 0.0
C660 C 0.72213 0.75293 0.25481 0.0
H661 H 0.81937 0.69022 0.2331 0.0
H662 H 0.79409 0.71675 0.2501 0.0
H663 H 0.74302 0.73651 0.19678 0.0
H664 H 0.68811 0.81928 0.26027 0.0
H665 H 0.71564 0.79524 0.24294 0.0
C666 C 0.33208 0.77511 0.21011 0.0
C667 C 0.327 0.79699 0.20744 0.0
C668 C 0.31715 0.76067 0.22035 0.0
C669 C 0.26634 0.75805 0.25856 0.0
H670 H 0.26511 0.69979 0.23191 0.0
C671 C 0.2006 0.69549 0.2854 0.0
C672 C 0.20821 0.67511 0.2928 0.0
C673 C 0.2146 0.71082 0.27494 0.0
C674 C 0.26535 0.71598 0.23963 0.0
H675 H 0.30202 0.82078 0.21327 0.0
H676 H 0.27569 0.79547 0.23035 0.0
H677 H 0.29004 0.7257 0.21328 0.0
H678 H 0.23658 0.65491 0.29489 0.0
H679 H 0.26082 0.68152 0.27625 0.0
H680 H 0.24119 0.74822 0.28453 0.0
C681 C 0.29146 0.78953 0.22516 0.0
C682 C 0.27972 0.73084 0.22906 0.0
C683 C 0.30653 0.80406 0.2152 0.0
C684 C 0.23014 0.67042 0.28944 0.0
C685 C 0.24403 0.68562 0.27863 0.0
C686 C 0.25175 0.74322 0.2689 0.0
C687 C 0.29656 0.76762 0.22789 0.0
C688 C 0.28061 0.75203 0.23856 0.0
C689 C 0.23642 0.70597 0.27128 0.0
C690 C 0.25128 0.72198 0.25971 0.0
H691 H 0.34775 0.7691 0.20455 0.0
H692 H 0.3219 0.74405 0.22266 0.0
H693 H 0.26671 0.77408 0.26668 0.0
H694 H 0.18383 0.69966 0.2878 0.0
H695 H 0.2083 0.72635 0.26931 0.0
C696 C 0.72961 0.82623 0.6991 0.0
C697 C 0.70813 0.82752 0.70745 0.0
C698 C 0.74332 0.81048 0.70908 0.0
C699 C 0.75211 0.77631 0.76593 0.0
H700 H 0.78816 0.74288 0.71952 0.0
C701 C 0.82463 0.72593 0.80104 0.0
C702 C 0.82656 0.70503 0.79092 0.0
C703 C 0.80923 0.7401 0.7912 0.0
C704 C 0.7781 0.75201 0.7327 0.0
H705 H 0.68433 0.81329 0.73306 0.0
H706 H 0.70846 0.786 0.75079 0.0
H707 H 0.76299 0.7691 0.70141 0.0
H708 H 0.81375 0.68268 0.76244 0.0
H709 H 0.78706 0.70761 0.74501 0.0
H710 H 0.76746 0.75945 0.79724 0.0
C711 C 0.71457 0.79716 0.7364 0.0
C712 C 0.76384 0.76711 0.72235 0.0
C713 C 0.70074 0.81272 0.72613 0.0
C714 C 0.81267 0.69863 0.77074 0.0
C715 C 0.79746 0.71292 0.76065 0.0
C716 C 0.7666 0.76142 0.77629 0.0
C717 C 0.73598 0.79585 0.72792 0.0
C718 C 0.75073 0.77945 0.73887 0.0
C719 C 0.79559 0.7338 0.77078 0.0
C720 C 0.77977 0.74916 0.75978 0.0
H721 H 0.73583 0.83732 0.6847 0.0
H722 H 0.7598 0.80995 0.70237 0.0
H723 H 0.74229 0.78569 0.77911 0.0
H724 H 0.83502 0.73139 0.81662 0.0
H725 H 0.80826 0.75616 0.79923 0.0
C726 C 0.17629 0.72632 0.70014 0.0
C727 C 0.17602 0.70481 0.7085 0.0
C728 C 0.19152 0.74073 0.70987 0.0
C729 C 0.24389 0.74334 0.74459 0.0
H730 H 0.22608 0.80184 0.75863 0.0
C731 C 0.27613 0.82498 0.80037 0.0
C732 C 0.29769 0.82511 0.79218 0.0
C733 C 0.26162 0.81 0.79032 0.0
C734 C 0.23131 0.78552 0.75509 0.0
H735 H 0.19171 0.68167 0.73375 0.0
H736 H 0.21794 0.70687 0.75109 0.0
H737 H 0.20027 0.7763 0.74128 0.0
H738 H 0.3208 0.80944 0.76689 0.0
H739 H 0.2954 0.78362 0.749 0.0
H740 H 0.27477 0.75241 0.75923 0.0
C741 C 0.20663 0.71253 0.7366 0.0
C742 C 0.21655 0.77092 0.74474 0.0
C743 C 0.19148 0.69807 0.72673 0.0
C744 C 0.30436 0.80977 0.77378 0.0
C745 C 0.28979 0.79486 0.76359 0.0
C746 C 0.25864 0.75793 0.75508 0.0
C747 C 0.20681 0.73408 0.72838 0.0
C748 C 0.22263 0.74963 0.73932 0.0
C749 C 0.2682 0.79483 0.77165 0.0
C750 C 0.25254 0.77922 0.76048 0.0
H751 H 0.16473 0.73209 0.68601 0.0
H752 H 0.19139 0.75709 0.70273 0.0
H753 H 0.24925 0.72716 0.74041 0.0
H754 H 0.27041 0.83645 0.81463 0.0
H755 H 0.24523 0.81023 0.79737 0.0
C756 C 0.17027 0.27061 0.79329 0.0
C757 C 0.17493 0.29262 0.79542 0.0
C758 C 0.18552 0.25628 0.78351 0.0
C759 C 0.23629 0.25384 0.74541 0.0
H760 H 0.23891 0.19634 0.77428 0.0
C761 C 0.30287 0.19201 0.71939 0.0
C762 C 0.2956 0.17124 0.71313 0.0
C763 C 0.28874 0.20729 0.72967 0.0
C764 C 0.23829 0.21231 0.76594 0.0
H765 H 0.19947 0.31678 0.78904 0.0
H766 H 0.22631 0.29169 0.77267 0.0
H767 H 0.21351 0.22218 0.79209 0.0
H768 H 0.26771 0.1503 0.71297 0.0
H769 H 0.24325 0.17686 0.73122 0.0
H770 H 0.26144 0.24387 0.71954 0.0
C771 C 0.21066 0.28554 0.77801 0.0
C772 C 0.22365 0.22713 0.77605 0.0
C773 C 0.19528 0.29995 0.78754 0.0
C774 C 0.2739 0.16612 0.71753 0.0
C775 C 0.25988 0.18129 0.72812 0.0
C776 C 0.25112 0.23905 0.73549 0.0
C777 C 0.20598 0.2635 0.77588 0.0
C778 C 0.22226 0.24803 0.76573 0.0
C779 C 0.26713 0.20204 0.73427 0.0
C780 C 0.25209 0.21807 0.74547 0.0
H781 H 0.1547 0.26439 0.79893 0.0
H782 H 0.18111 0.23953 0.78165 0.0
H783 H 0.23552 0.26965 0.7367 0.0
H784 H 0.31946 0.19652 0.71618 0.0
H785 H 0.29478 0.22314 0.73437 0.0
C786 C 0.69968 0.18795 0.77185 0.0
C787 C 0.70639 0.17318 0.79093 0.0
C788 C 0.71396 0.2033 0.76203 0.0
C789 C 0.76307 0.23298 0.7778 0.0
H790 H 0.76951 0.23939 0.70303 0.0
C791 C 0.81431 0.30012 0.73006 0.0
C792 C 0.82888 0.29315 0.71089 0.0
C793 C 0.79866 0.28615 0.73984 0.0
C794 C 0.76785 0.23776 0.72394 0.0
H795 H 0.73333 0.16324 0.8149 0.0
H796 H 0.75807 0.19026 0.79804 0.0
H797 H 0.74331 0.21379 0.72038 0.0
H798 H 0.83816 0.2661 0.68672 0.0
H799 H 0.81063 0.2419 0.70354 0.0
H800 H 0.78762 0.25694 0.78137 0.0
C801 C 0.74178 0.18986 0.79065 0.0
C802 C 0.75278 0.22325 0.73385 0.0
C803 C 0.72763 0.17431 0.80017 0.0
C804 C 0.82725 0.27198 0.70153 0.0
C805 C 0.81141 0.25815 0.71102 0.0
C806 C 0.77791 0.24773 0.76789 0.0
C807 C 0.73513 0.20444 0.77139 0.0
C808 C 0.7504 0.22055 0.76088 0.0
C809 C 0.79703 0.26504 0.73037 0.0
C810 C 0.7806 0.2501 0.74087 0.0
H811 H 0.68346 0.18749 0.76425 0.0
H812 H 0.70839 0.21443 0.74728 0.0
H813 H 0.76147 0.23131 0.79872 0.0
H814 H 0.81514 0.31629 0.73775 0.0
H815 H 0.7877 0.2919 0.75466 0.0
C816 C 0.16308 0.32537 0.90784 0.0
C817 C 0.15658 0.34327 0.89317 0.0
C818 C 0.16451 0.32666 0.93495 0.0
C819 C 0.13691 0.35187 0.98777 0.0
H820 H 0.18392 0.3331 0.03167 0.0
C821 C 0.13572 0.36281 0.09919 0.0
C822 C 0.1479 0.34899 0.11484 0.0
C823 C 0.13592 0.36064 0.07213 0.0
C824 C 0.17043 0.33796 0.01976 0.0
H825 H 0.14728 0.37672 0.895 0.0
H826 H 0.14937 0.37888 0.94269 0.0
H827 H 0.18845 0.33377 0.98445 0.0
H828 H 0.16906 0.3215 0.11502 0.0
H829 H 0.16835 0.31662 0.06771 0.0
H830 H 0.11846 0.3552 0.02259 0.0
C831 C 0.15365 0.36398 0.9331 0.0
C832 C 0.17319 0.33861 0.99272 0.0
C833 C 0.15271 0.36283 0.90588 0.0
C834 C 0.15923 0.33208 0.10324 0.0
C835 C 0.15915 0.32963 0.07612 0.0
C836 C 0.13397 0.35081 0.01472 0.0
C837 C 0.15894 0.34572 0.94786 0.0
C838 C 0.15652 0.34578 0.97654 0.0
C839 C 0.14818 0.34442 0.06011 0.0
C840 C 0.15075 0.34403 0.03118 0.0
H841 H 0.16589 0.31005 0.89843 0.0
H842 H 0.16854 0.31235 0.94591 0.0
H843 H 0.12364 0.35701 0.9756 0.0
H844 H 0.12724 0.37625 0.10779 0.0
H845 H 0.1275 0.37256 0.06068 0.0
C846 C 0.63946 0.15606 0.90211 0.0
C847 C 0.65933 0.15356 0.88954 0.0
C848 C 0.6386 0.15821 0.92931 0.0
C849 C 0.67052 0.14356 0.98714 0.0
H850 H 0.63236 0.18186 0.02439 0.0
C851 C 0.65519 0.13987 0.09924 0.0
C852 C 0.65279 0.15974 0.11182 0.0
C853 C 0.65746 0.13902 0.07205 0.0
C854 C 0.64321 0.17115 0.01425 0.0
H855 H 0.69385 0.15319 0.89515 0.0
H856 H 0.69234 0.15735 0.94218 0.0
H857 H 0.63254 0.18209 0.97682 0.0
H858 H 0.65273 0.19427 0.1063 0.0
H859 H 0.65712 0.19279 0.05929 0.0
H860 H 0.68134 0.13276 0.02457 0.0
C861 C 0.67742 0.15701 0.93132 0.0
C862 C 0.64314 0.17115 0.98702 0.0
C863 C 0.67828 0.15484 0.90435 0.0
C864 C 0.65431 0.1787 0.09707 0.0
C865 C 0.65661 0.17786 0.07011 0.0
C866 C 0.67052 0.14348 0.01438 0.0
C867 C 0.6576 0.15792 0.94423 0.0
C868 C 0.65698 0.15754 0.97316 0.0
C869 C 0.65739 0.15804 0.05717 0.0
C870 C 0.65705 0.15746 0.02824 0.0
H871 H 0.62462 0.15494 0.89118 0.0
H872 H 0.62306 0.15895 0.93874 0.0
H873 H 0.68113 0.1326 0.97699 0.0
H874 H 0.65387 0.12502 0.11012 0.0
H875 H 0.65809 0.12349 0.06259 0.0
C876 C 0.85413 0.63524 0.90104 0.0
C877 C 0.84596 0.65284 0.88717 0.0
C878 C 0.85313 0.63492 0.92828 0.0
C879 C 0.82736 0.65685 0.98617 0.0
H880 H 0.88402 0.65543 0.01751 0.0
C881 C 0.83682 0.67072 0.09599 0.0
C882 C 0.85175 0.65777 0.10902 0.0
C883 C 0.83712 0.67219 0.06881 0.0
C884 C 0.86803 0.65555 0.00925 0.0
H885 H 0.8294 0.68326 0.89034 0.0
H886 H 0.82657 0.68215 0.93794 0.0
H887 H 0.88017 0.65074 0.97059 0.0
H888 H 0.87893 0.63657 0.10437 0.0
H889 H 0.87921 0.63846 0.05701 0.0
H890 H 0.81497 0.6608 0.02462 0.0
C891 C 0.83391 0.66875 0.92785 0.0
C892 C 0.86587 0.65287 0.98233 0.0
C893 C 0.83538 0.66932 0.90069 0.0
C894 C 0.86766 0.64716 0.09468 0.0
C895 C 0.86769 0.6482 0.06746 0.0
C896 C 0.82945 0.65908 0.01316 0.0
C897 C 0.84356 0.652 0.9419 0.0
C898 C 0.84553 0.65354 0.97057 0.0
C899 C 0.85192 0.66013 0.05408 0.0
C900 C 0.84984 0.65857 0.02513 0.0
H901 H 0.86284 0.62265 0.89101 0.0
H902 H 0.86064 0.62182 0.93876 0.0
H903 H 0.81151 0.65743 0.97749 0.0
H904 H 0.82417 0.67873 0.10674 0.0
H905 H 0.82511 0.68206 0.05937 0.0
C906 C 0.34994 0.8664 0.09557 0.0
C907 C 0.34345 0.84815 0.10952 0.0
C908 C 0.34904 0.8665 0.06832 0.0
C909 C 0.32579 0.84262 0.01026 0.0
H910 H 0.38268 0.84714 0.98 0.0
C911 C 0.33733 0.82995 0.90041 0.0
C912 C 0.35186 0.84364 0.88784 0.0
C913 C 0.3373 0.82829 0.92758 0.0
C914 C 0.36661 0.84616 0.98794 0.0
H915 H 0.32976 0.81631 0.10643 0.0
H916 H 0.32704 0.81696 0.05881 0.0
H917 H 0.37797 0.8517 0.0268 0.0
H918 H 0.37799 0.86601 0.89333 0.0
H919 H 0.37764 0.86383 0.94062 0.0
H920 H 0.31411 0.83798 0.97159 0.0
C921 C 0.33305 0.83102 0.06887 0.0
C922 C 0.36396 0.84876 0.0148 0.0
C923 C 0.33447 0.83071 0.09603 0.0
C924 C 0.36706 0.85485 0.90266 0.0
C925 C 0.36673 0.85363 0.92985 0.0
C926 C 0.32833 0.8405 0.98331 0.0
C927 C 0.34118 0.84853 0.05477 0.0
C928 C 0.34355 0.84699 0.02616 0.0
C929 C 0.35134 0.8409 0.94277 0.0
C930 C 0.34881 0.84217 0.97171 0.0
H931 H 0.3574 0.8798 0.10555 0.0
H932 H 0.35536 0.88018 0.05778 0.0
H933 H 0.3099 0.84115 0.01867 0.0
H934 H 0.32521 0.82147 0.88929 0.0
H935 H 0.32562 0.81782 0.93666 0.0
C936 C 0.17089 0.6636 0.6014 0.0
C937 C 0.15556 0.65052 0.61351 0.0
C938 C 0.17316 0.66335 0.57427 0.0
C939 C 0.15444 0.635 0.51366 0.0
H940 H 0.16588 0.69042 0.48201 0.0
C941 C 0.13939 0.65185 0.40471 0.0
C942 C 0.15857 0.65657 0.39155 0.0
C943 C 0.13856 0.65298 0.43193 0.0
C944 C 0.16261 0.67489 0.49067 0.0
H945 H 0.13082 0.62674 0.60733 0.0
H946 H 0.1341 0.62667 0.56014 0.0
H947 H 0.16708 0.68676 0.5293 0.0
H948 H 0.19139 0.66744 0.39601 0.0
H949 H 0.18956 0.67051 0.44354 0.0
H950 H 0.14913 0.62353 0.4748 0.0
C951 C 0.14505 0.63659 0.57123 0.0
C952 C 0.16358 0.67264 0.51776 0.0
C953 C 0.14315 0.63654 0.59835 0.0
C954 C 0.17635 0.664 0.40578 0.0
C955 C 0.17534 0.66566 0.43289 0.0
C956 C 0.153 0.6374 0.48664 0.0
C957 C 0.15964 0.65048 0.55871 0.0
C958 C 0.15956 0.65263 0.52969 0.0
C959 C 0.15672 0.65934 0.44624 0.0
C960 C 0.15709 0.65734 0.47494 0.0
H961 H 0.18033 0.6748 0.6128 0.0
H962 H 0.18497 0.67385 0.56551 0.0
H963 H 0.15167 0.61924 0.52188 0.0
H964 H 0.12564 0.64567 0.39417 0.0
H965 H 0.12402 0.64807 0.44189 0.0
C966 C 0.35995 0.15571 0.59938 0.0
C967 C 0.34042 0.15232 0.61242 0.0
C968 C 0.36026 0.15824 0.57221 0.0
C969 C 0.32773 0.14366 0.5147 0.0
H970 H 0.36479 0.18322 0.47772 0.0
C971 C 0.34219 0.14129 0.40251 0.0
C972 C 0.34454 0.16123 0.39007 0.0
C973 C 0.34 0.14028 0.42969 0.0
C974 C 0.35421 0.17218 0.48778 0.0
H975 H 0.30584 0.15067 0.60764 0.0
H976 H 0.30637 0.1555 0.56069 0.0
H977 H 0.36506 0.18278 0.52526 0.0
H978 H 0.34461 0.19573 0.39589 0.0
H979 H 0.34029 0.19397 0.4429 0.0
H980 H 0.31672 0.13321 0.47722 0.0
C981 C 0.32149 0.15555 0.57114 0.0
C982 C 0.35456 0.17179 0.515 0.0
C983 C 0.32119 0.15298 0.59809 0.0
C984 C 0.34306 0.1801 0.40499 0.0
C985 C 0.34081 0.1791 0.43196 0.0
C986 C 0.32744 0.144 0.48747 0.0
C987 C 0.34103 0.15746 0.55776 0.0
C988 C 0.34118 0.15766 0.52879 0.0
C989 C 0.34007 0.1592 0.44475 0.0
C990 C 0.34053 0.1584 0.47369 0.0
H991 H 0.37502 0.1551 0.6099 0.0
H992 H 0.37559 0.15971 0.56243 0.0
H993 H 0.31747 0.13231 0.52475 0.0
H994 H 0.34348 0.1265 0.39151 0.0
H995 H 0.33943 0.12468 0.439 0.0
C996 C 0.81909 0.35163 0.40579 0.0
C997 C 0.83772 0.35198 0.39034 0.0
C998 C 0.82043 0.34887 0.43267 0.0
C999 C 0.85579 0.3317 0.48647 0.0
H1000 H 0.81914 0.36932 0.52724 0.0
C1001 C 0.84839 0.32145 0.59682 0.0
C1002 C 0.84947 0.34007 0.61225 0.0
C1003 C 0.84555 0.32288 0.56996 0.0
C1004 C 0.82957 0.35881 0.51616 0.0
H1005 H 0.87233 0.34862 0.39077 0.0
H1006 H 0.87476 0.34382 0.4381 0.0
H1007 H 0.81812 0.37105 0.4798 0.0
H1008 H 0.84728 0.37477 0.61181 0.0
H1009 H 0.84234 0.37735 0.56452 0.0
H1010 H 0.86759 0.3198 0.52283 0.0
C1011 C 0.85907 0.3456 0.42927 0.0
C1012 C 0.82882 0.35961 0.48896 0.0
C1013 C 0.8577 0.34825 0.40218 0.0
C1014 C 0.84634 0.36016 0.60042 0.0
C1015 C 0.8436 0.36161 0.57335 0.0
C1016 C 0.85653 0.3309 0.51367 0.0
C1017 C 0.84047 0.34653 0.44487 0.0
C1018 C 0.84178 0.34592 0.47379 0.0
C1019 C 0.84386 0.34298 0.55776 0.0
C1020 C 0.84329 0.34431 0.52884 0.0
H1021 H 0.80341 0.3542 0.39717 0.0
H1022 H 0.80575 0.34904 0.44398 0.0
H1023 H 0.86593 0.32092 0.47539 0.0
H1024 H 0.85051 0.30571 0.60544 0.0
H1025 H 0.84519 0.3082 0.55866 0.0
C1026 C 0.64226 0.845 0.59531 0.0
C1027 C 0.66223 0.84784 0.60754 0.0
C1028 C 0.64109 0.84276 0.56814 0.0
C1029 C 0.67228 0.85722 0.50949 0.0
H1030 H 0.63317 0.81902 0.47353 0.0
C1031 C 0.65582 0.86057 0.39772 0.0
C1032 C 0.65284 0.84073 0.38524 0.0
C1033 C 0.65826 0.86145 0.42488 0.0
C1034 C 0.64431 0.82969 0.48329 0.0
H1035 H 0.69667 0.84881 0.6013 0.0
H1036 H 0.69466 0.84444 0.55433 0.0
H1037 H 0.63423 0.819 0.52105 0.0
H1038 H 0.65181 0.80623 0.391 0.0
H1039 H 0.65652 0.80776 0.43793 0.0
H1040 H 0.68256 0.86771 0.47173 0.0
C1041 C 0.67986 0.84461 0.56543 0.0
C1042 C 0.64472 0.82982 0.51052 0.0
C1043 C 0.68101 0.8469 0.59239 0.0
C1044 C 0.65381 0.8218 0.40011 0.0
C1045 C 0.65631 0.82267 0.42705 0.0
C1046 C 0.67182 0.85714 0.48226 0.0
C1047 C 0.65989 0.84328 0.55287 0.0
C1048 C 0.65888 0.84342 0.52393 0.0
C1049 C 0.65782 0.8425 0.43989 0.0
C1050 C 0.65799 0.8432 0.46884 0.0
H1051 H 0.62753 0.84585 0.60648 0.0
H1052 H 0.62545 0.84174 0.55902 0.0
H1053 H 0.68311 0.86819 0.51926 0.0
H1054 H 0.65496 0.87541 0.38677 0.0
H1055 H 0.65942 0.877 0.43423 0.0
C1056 C 0.15171 0.57429 0.29692 0.0
C1057 C 0.16152 0.58997 0.28133 0.0
C1058 C 0.15227 0.55278 0.28967 0.0
C1059 C 0.1821 0.51243 0.256 0.0
H1060 H 0.12754 0.48295 0.24843 0.0
C1061 C 0.14835 0.42921 0.21075 0.0
C1062 C 0.15885 0.41337 0.22539 0.0
C1063 C 0.14962 0.45069 0.21799 0.0
C1064 C 0.14287 0.49099 0.2506 0.0
H1065 H 0.17883 0.59591 0.24552 0.0
H1066 H 0.18035 0.55767 0.23294 0.0
H1067 H 0.12809 0.5212 0.25919 0.0
H1068 H 0.17823 0.40711 0.25952 0.0
H1069 H 0.18096 0.44529 0.27209 0.0
H1070 H 0.19684 0.48189 0.24825 0.0
C1071 C 0.17238 0.56221 0.25087 0.0
C1072 C 0.14318 0.51278 0.25668 0.0
C1073 C 0.17145 0.58394 0.25793 0.0
C1074 C 0.17028 0.41921 0.24784 0.0
C1075 C 0.17189 0.44091 0.25489 0.0
C1076 C 0.1818 0.4904 0.25055 0.0
C1077 C 0.16272 0.54654 0.26673 0.0
C1078 C 0.16276 0.52369 0.25928 0.0
C1079 C 0.16146 0.45675 0.24002 0.0
C1080 C 0.16215 0.4796 0.24756 0.0
H1081 H 0.14361 0.5787 0.31483 0.0
H1082 H 0.1447 0.54095 0.30214 0.0
H1083 H 0.19737 0.52058 0.25809 0.0
H1084 H 0.13913 0.42495 0.1936 0.0
H1085 H 0.14149 0.46263 0.20622 0.0
C1086 C 0.58136 0.16812 0.24708 0.0
C1087 C 0.58722 0.15824 0.2236 0.0
C1088 C 0.55971 0.16888 0.25447 0.0
C1089 C 0.51019 0.17906 0.24912 0.0
H1090 H 0.47954 0.12518 0.25692 0.0
C1091 C 0.41672 0.16883 0.25538 0.0
C1092 C 0.41064 0.15934 0.27902 0.0
C1093 C 0.43844 0.1694 0.24823 0.0
C1094 C 0.48792 0.14031 0.25458 0.0
H1095 H 0.57578 0.14015 0.19032 0.0
H1096 H 0.53816 0.14092 0.20358 0.0
H1097 H 0.51795 0.12487 0.24668 0.0
H1098 H 0.42176 0.1418 0.31289 0.0
H1099 H 0.45949 0.14224 0.30004 0.0
H1100 H 0.47984 0.19446 0.2558 0.0
C1101 C 0.55005 0.14855 0.2159 0.0
C1102 C 0.5098 0.14013 0.24888 0.0
C1103 C 0.57149 0.14819 0.20831 0.0
C1104 C 0.42623 0.14954 0.29477 0.0
C1105 C 0.44772 0.14971 0.28742 0.0
C1106 C 0.4881 0.17924 0.25398 0.0
C1107 C 0.54396 0.15907 0.23886 0.0
C1108 C 0.52111 0.15949 0.24624 0.0
C1109 C 0.45402 0.15979 0.26426 0.0
C1110 C 0.4769 0.15984 0.25702 0.0
H1111 H 0.59338 0.1757 0.25924 0.0
H1112 H 0.55526 0.17695 0.27236 0.0
H1113 H 0.51867 0.19415 0.24715 0.0
H1114 H 0.40482 0.17621 0.24287 0.0
H1115 H 0.44305 0.17712 0.23017 0.0
C1116 C 0.83098 0.5851 0.24067 0.0
C1117 C 0.8422 0.59115 0.21816 0.0
C1118 C 0.8294 0.56334 0.24743 0.0
C1119 C 0.85837 0.51363 0.24341 0.0
H1120 H 0.80401 0.48348 0.24868 0.0
C1121 C 0.82954 0.42054 0.25271 0.0
C1122 C 0.8391 0.41516 0.27657 0.0
C1123 C 0.82894 0.44204 0.24462 0.0
C1124 C 0.81924 0.49178 0.24724 0.0
H1125 H 0.86165 0.57987 0.18596 0.0
H1126 H 0.85942 0.54205 0.19815 0.0
H1127 H 0.80441 0.52211 0.23858 0.0
H1128 H 0.8567 0.42728 0.30986 0.0
H1129 H 0.85617 0.4646 0.29544 0.0
H1130 H 0.87321 0.48367 0.25307 0.0
C1131 C 0.85136 0.5539 0.21013 0.0
C1132 C 0.81946 0.51377 0.24161 0.0
C1133 C 0.85257 0.57545 0.20316 0.0
C1134 C 0.84891 0.43121 0.29159 0.0
C1135 C 0.84868 0.45247 0.28333 0.0
C1136 C 0.85812 0.49187 0.24972 0.0
C1137 C 0.83969 0.54765 0.2322 0.0
C1138 C 0.83906 0.52477 0.2395 0.0
C1139 C 0.83857 0.4581 0.25992 0.0
C1140 C 0.83858 0.48078 0.25166 0.0
H1141 H 0.82314 0.59709 0.25264 0.0
H1142 H 0.82048 0.55879 0.26468 0.0
H1143 H 0.87365 0.52185 0.24184 0.0
H1144 H 0.82215 0.40827 0.24074 0.0
H1145 H 0.8212 0.4461 0.22637 0.0
C1146 C 0.58247 0.83375 0.249 0.0
C1147 C 0.58828 0.84303 0.27286 0.0
C1148 C 0.56082 0.83315 0.24153 0.0
C1149 C 0.51118 0.8231 0.24578 0.0
H1150 H 0.48077 0.87738 0.24139 0.0
C1151 C 0.41771 0.8344 0.24152 0.0
C1152 C 0.4114 0.84477 0.21852 0.0
C1153 C 0.43952 0.83331 0.24815 0.0
C1154 C 0.48909 0.86214 0.24273 0.0
H1155 H 0.57674 0.86014 0.30684 0.0
H1156 H 0.53915 0.85962 0.29348 0.0
H1157 H 0.51919 0.87709 0.25154 0.0
H1158 H 0.42225 0.86339 0.18538 0.0
H1159 H 0.46017 0.86207 0.19739 0.0
H1160 H 0.48075 0.80816 0.23806 0.0
C1161 C 0.55107 0.85236 0.28089 0.0
C1162 C 0.51097 0.86197 0.2484 0.0
C1163 C 0.57249 0.85257 0.28853 0.0
C1164 C 0.42688 0.85495 0.20298 0.0
C1165 C 0.44848 0.85427 0.20984 0.0
C1166 C 0.48908 0.82324 0.24087 0.0
C1167 C 0.54503 0.84252 0.25747 0.0
C1168 C 0.52219 0.84248 0.24991 0.0
C1169 C 0.455 0.84328 0.2323 0.0
C1170 C 0.47796 0.84279 0.23914 0.0
H1171 H 0.59453 0.82656 0.23655 0.0
H1172 H 0.55642 0.8256 0.22328 0.0
H1173 H 0.51958 0.80791 0.24686 0.0
H1174 H 0.4059 0.82671 0.25389 0.0
H1175 H 0.44429 0.82491 0.2657 0.0
C1176 C 0.87275 0.57146 0.7894 0.0
C1177 C 0.854 0.58394 0.7913 0.0
C1178 C 0.872 0.55075 0.77889 0.0
C1179 C 0.83726 0.50468 0.76573 0.0
H1180 H 0.87733 0.4925 0.70986 0.0
C1181 C 0.83501 0.4235 0.71088 0.0
C1182 C 0.85479 0.41443 0.70364 0.0
C1183 C 0.83392 0.4447 0.71995 0.0
C1184 C 0.86622 0.49542 0.72567 0.0
H1185 H 0.81963 0.58412 0.78464 0.0
H1186 H 0.81826 0.5476 0.76695 0.0
H1187 H 0.87767 0.52761 0.73073 0.0
H1188 H 0.88889 0.42065 0.69985 0.0
H1189 H 0.88719 0.45711 0.71636 0.0
H1190 H 0.82628 0.47234 0.76151 0.0
C1191 C 0.83354 0.55401 0.77336 0.0
C1192 C 0.86638 0.51563 0.73756 0.0
C1193 C 0.83434 0.5749 0.78347 0.0
C1194 C 0.87335 0.4272 0.70501 0.0
C1195 C 0.87233 0.44824 0.71444 0.0
C1196 C 0.83732 0.48431 0.75415 0.0
C1197 C 0.85244 0.54191 0.77044 0.0
C1198 C 0.85198 0.52045 0.75777 0.0
C1199 C 0.85264 0.45726 0.72238 0.0
C1200 C 0.85188 0.47932 0.73399 0.0
H1201 H 0.88817 0.57797 0.79515 0.0
H1202 H 0.88678 0.5417 0.77712 0.0
H1203 H 0.82605 0.50794 0.78138 0.0
H1204 H 0.8204 0.41409 0.70998 0.0
H1205 H 0.81839 0.45113 0.72528 0.0
C1206 C 0.57802 0.83303 0.70564 0.0
C1207 C 0.58702 0.85287 0.69854 0.0
C1208 C 0.55693 0.83187 0.71505 0.0
C1209 C 0.50636 0.86419 0.7225 0.0
H1210 H 0.49472 0.82339 0.77784 0.0
C1211 C 0.4316 0.87015 0.78851 0.0
C1212 C 0.41906 0.85143 0.79038 0.0
C1213 C 0.45209 0.86946 0.77739 0.0
C1214 C 0.49773 0.83477 0.7623 0.0
H1215 H 0.58081 0.88701 0.69532 0.0
H1216 H 0.54454 0.88518 0.71245 0.0
H1217 H 0.52996 0.82379 0.75707 0.0
H1218 H 0.41856 0.81716 0.783 0.0
H1219 H 0.45474 0.81588 0.76424 0.0
H1220 H 0.4743 0.87565 0.72861 0.0
C1221 C 0.55336 0.87033 0.71015 0.0
C1222 C 0.5179 0.83493 0.7502 0.0
C1223 C 0.57429 0.87143 0.70036 0.0
C1224 C 0.42784 0.83185 0.78187 0.0
C1225 C 0.44853 0.8311 0.77115 0.0
C1226 C 0.48637 0.86425 0.73492 0.0
C1227 C 0.54443 0.85058 0.71802 0.0
C1228 C 0.52257 0.84972 0.73016 0.0
C1229 C 0.46066 0.84999 0.76828 0.0
C1230 C 0.48187 0.84961 0.75501 0.0
H1231 H 0.5874 0.81843 0.70439 0.0
H1232 H 0.55055 0.81629 0.72028 0.0
H1233 H 0.50903 0.87549 0.70681 0.0
H1234 H 0.42529 0.88551 0.79476 0.0
H1235 H 0.46118 0.88422 0.77566 0.0
C1236 C 0.13146 0.42707 0.79688 0.0
C1237 C 0.15009 0.41439 0.79858 0.0
C1238 C 0.13235 0.44778 0.78642 0.0
C1239 C 0.16711 0.49365 0.77298 0.0
H1240 H 0.12708 0.50558 0.71695 0.0
C1241 C 0.16915 0.57459 0.71744 0.0
C1242 C 0.14938 0.58347 0.70985 0.0
C1243 C 0.17027 0.55352 0.72694 0.0
C1244 C 0.13818 0.50274 0.73282 0.0
H1245 H 0.18443 0.41389 0.79167 0.0
H1246 H 0.18604 0.45046 0.77405 0.0
H1247 H 0.12683 0.47053 0.73793 0.0
H1248 H 0.1153 0.57714 0.70606 0.0
H1249 H 0.11705 0.54091 0.72335 0.0
H1250 H 0.17797 0.52603 0.76871 0.0
C1251 C 0.17074 0.44418 0.78059 0.0
C1252 C 0.13807 0.48256 0.74475 0.0
C1253 C 0.1698 0.42327 0.79065 0.0
C1254 C 0.13084 0.57071 0.71148 0.0
C1255 C 0.13189 0.54981 0.72134 0.0
C1256 C 0.16698 0.51401 0.76136 0.0
C1257 C 0.15193 0.45643 0.77781 0.0
C1258 C 0.15245 0.47783 0.76503 0.0
C1259 C 0.15159 0.54092 0.72945 0.0
C1260 C 0.15242 0.51891 0.74116 0.0
H1261 H 0.116 0.42071 0.80271 0.0
H1262 H 0.11764 0.45696 0.78475 0.0
H1263 H 0.1783 0.49044 0.78867 0.0
H1264 H 0.18374 0.58401 0.71634 0.0
H1265 H 0.18582 0.5472 0.73242 0.0
C1266 C 0.426 0.1684 0.71092 0.0
C1267 C 0.41733 0.14858 0.70313 0.0
C1268 C 0.447 0.16966 0.72069 0.0
C1269 C 0.4979 0.13774 0.72784 0.0
H1270 H 0.50878 0.17746 0.78453 0.0
C1271 C 0.57205 0.13042 0.79437 0.0
C1272 C 0.58478 0.14899 0.79651 0.0
C1273 C 0.55151 0.13144 0.78342 0.0
C1274 C 0.50597 0.16638 0.76862 0.0
H1275 H 0.42406 0.1146 0.69907 0.0
H1276 H 0.46012 0.11658 0.71673 0.0
H1277 H 0.47372 0.1773 0.76321 0.0
H1278 H 0.58546 0.18338 0.79 0.0
H1279 H 0.54917 0.18523 0.77157 0.0
H1280 H 0.52994 0.12631 0.7341 0.0
C1281 C 0.45113 0.13136 0.71472 0.0
C1282 C 0.48592 0.16636 0.7562 0.0
C1283 C 0.43031 0.13018 0.70462 0.0
C1284 C 0.57604 0.16879 0.78867 0.0
C1285 C 0.55529 0.16986 0.77812 0.0
C1286 C 0.51776 0.13752 0.74056 0.0
C1287 C 0.45974 0.15107 0.72327 0.0
C1288 C 0.48151 0.15194 0.73569 0.0
C1289 C 0.54306 0.1511 0.77476 0.0
C1290 C 0.52198 0.15174 0.76117 0.0
H1291 H 0.41642 0.18289 0.70998 0.0
H1292 H 0.45312 0.18521 0.72647 0.0
H1293 H 0.49547 0.12675 0.71177 0.0
H1294 H 0.5783 0.11489 0.80011 0.0
H1295 H 0.54233 0.11676 0.78133 0.0
C1296 C 0.64822 0.07291 0.79224 0.0
C1297 C 0.65805 0.08884 0.77705 0.0
C1298 C 0.64876 0.05153 0.78444 0.0
C1299 C 0.67954 0.01219 0.75062 0.0
H1300 H 0.62595 0.98105 0.74278 0.0
C1301 C 0.65079 0.92845 0.70384 0.0
C1302 C 0.6604 0.91272 0.71953 0.0
C1303 C 0.65092 0.94988 0.71145 0.0
C1304 C 0.641 0.98957 0.74514 0.0
H1305 H 0.67532 0.09541 0.74137 0.0
H1306 H 0.67689 0.05738 0.72787 0.0
H1307 H 0.62528 0.01937 0.75351 0.0
H1308 H 0.67697 0.90657 0.75582 0.0
H1309 H 0.6778 0.94471 0.769 0.0
H1310 H 0.69521 0.98205 0.7435 0.0
C1311 C 0.66884 0.06163 0.74585 0.0
C1312 C 0.64062 0.0114 0.75112 0.0
C1313 C 0.6679 0.08323 0.75345 0.0
C1314 C 0.66972 0.91859 0.74336 0.0
C1315 C 0.67025 0.94025 0.75078 0.0
C1316 C 0.67992 0.99014 0.7455 0.0
C1317 C 0.65925 0.04569 0.76136 0.0
C1318 C 0.65987 0.02289 0.75376 0.0
C1319 C 0.66077 0.95597 0.73484 0.0
C1320 C 0.66063 0.97877 0.74244 0.0
H1321 H 0.64021 0.07701 0.81032 0.0
H1322 H 0.6413 0.03948 0.79668 0.0
H1323 H 0.69455 0.02081 0.75258 0.0
H1324 H 0.64319 0.92414 0.68557 0.0
H1325 H 0.64354 0.96177 0.6989 0.0
C1326 C 0.92859 0.64989 0.79327 0.0
C1327 C 0.91295 0.65999 0.7779 0.0
C1328 C 0.95015 0.65085 0.78631 0.0
C1329 C 0.99048 0.64284 0.75387 0.0
H1330 H 0.02092 0.69682 0.74598 0.0
C1331 C 0.07418 0.64913 0.70842 0.0
C1332 C 0.08988 0.65955 0.72338 0.0
C1333 C 0.05265 0.65018 0.71552 0.0
C1334 C 0.01254 0.68169 0.74816 0.0
H1335 H 0.90714 0.67831 0.74279 0.0
H1336 H 0.94546 0.68051 0.73074 0.0
H1337 H 0.9822 0.69694 0.75567 0.0
H1338 H 0.09583 0.67852 0.75792 0.0
H1339 H 0.05758 0.68086 0.77023 0.0
H1340 H 0.02048 0.62752 0.74566 0.0
C1341 C 0.94085 0.67201 0.74828 0.0
C1342 C 0.99049 0.68176 0.75352 0.0
C1343 C 0.91908 0.67068 0.75504 0.0
C1344 C 0.08385 0.67064 0.74599 0.0
C1345 C 0.06211 0.67204 0.7529 0.0
C1346 C 0.0123 0.64277 0.74792 0.0
C1347 C 0.95649 0.662 0.76387 0.0
C1348 C 0.97939 0.6623 0.7566 0.0
C1349 C 0.0464 0.66171 0.7377 0.0
C1350 C 0.02352 0.66216 0.74509 0.0
H1351 H 0.9241 0.64121 0.81074 0.0
H1352 H 0.96193 0.64303 0.7986 0.0
H1353 H 0.9822 0.62765 0.75619 0.0
H1354 H 0.07858 0.64016 0.69114 0.0
H1355 H 0.04082 0.64212 0.70351 0.0
C1356 C 0.33585 0.08259 0.74946 0.0
C1357 C 0.34511 0.08804 0.72545 0.0
C1358 C 0.33509 0.06104 0.75731 0.0
C1359 C 0.36288 0.01047 0.75081 0.0
H1360 H 0.30829 0.98166 0.76121 0.0
C1361 C 0.33295 0.91795 0.75733 0.0
C1362 C 0.34388 0.91119 0.77975 0.0
C1363 C 0.33207 0.93985 0.75111 0.0
C1364 C 0.32359 0.9896 0.75842 0.0
H1365 H 0.36218 0.07599 0.69172 0.0
H1366 H 0.36141 0.03857 0.70574 0.0
H1367 H 0.30906 0.02047 0.75237 0.0
H1368 H 0.36346 0.92135 0.81239 0.0
H1369 H 0.36244 0.95941 0.80114 0.0
H1370 H 0.37749 0.97988 0.75773 0.0
C1371 C 0.35427 0.05069 0.71815 0.0
C1372 C 0.32403 0.0117 0.7535 0.0
C1373 C 0.35462 0.07202 0.71012 0.0
C1374 C 0.35462 0.92633 0.79524 0.0
C1375 C 0.3541 0.94801 0.78879 0.0
C1376 C 0.36247 0.98859 0.75647 0.0
C1377 C 0.34429 0.04499 0.74162 0.0
C1378 C 0.34369 0.0222 0.74932 0.0
C1379 C 0.34275 0.95497 0.7668 0.0
C1380 C 0.34284 0.97797 0.76011 0.0
H1381 H 0.32868 0.09484 0.76165 0.0
H1382 H 0.32744 0.05691 0.77559 0.0
H1383 H 0.3782 0.01829 0.74761 0.0
H1384 H 0.32481 0.9064 0.74501 0.0
H1385 H 0.32337 0.94496 0.73392 0.0
C1386 C 0.07459 0.35009 0.79783 0.0
C1387 C 0.09031 0.33999 0.78256 0.0
C1388 C 0.05312 0.34954 0.7904 0.0
C1389 C 0.01329 0.35806 0.75643 0.0
H1390 H 0.98231 0.30417 0.75095 0.0
C1391 C 0.93015 0.34994 0.70938 0.0
C1392 C 0.91418 0.34031 0.72469 0.0
C1393 C 0.95152 0.34941 0.71721 0.0
C1394 C 0.99085 0.31927 0.75241 0.0
H1395 H 0.09636 0.32219 0.74713 0.0
H1396 H 0.05818 0.32065 0.73429 0.0
H1397 H 0.02099 0.30396 0.76073 0.0
H1398 H 0.90754 0.32337 0.76058 0.0
H1399 H 0.94554 0.32185 0.77418 0.0
H1400 H 0.98348 0.37339 0.74715 0.0
C1401 C 0.06267 0.32886 0.75208 0.0
C1402 C 0.01286 0.31915 0.75786 0.0
C1403 C 0.08436 0.3298 0.75929 0.0
C1404 C 0.91975 0.33063 0.7484 0.0
C1405 C 0.94134 0.3297 0.75605 0.0
C1406 C 0.9915 0.35816 0.75026 0.0
C1407 C 0.04697 0.33879 0.76762 0.0
C1408 C 0.02415 0.33857 0.7601 0.0
C1409 C 0.95733 0.33915 0.74047 0.0
C1410 C 0.9801 0.3388 0.74829 0.0
H1411 H 0.07895 0.35839 0.81562 0.0
H1412 H 0.04125 0.35731 0.80262 0.0
H1413 H 0.02173 0.3732 0.75816 0.0
H1414 H 0.92609 0.35784 0.69122 0.0
H1415 H 0.9636 0.35676 0.7049 0.0
C1416 C 0.33044 0.07755 0.29007 0.0
C1417 C 0.35019 0.08638 0.29795 0.0
C1418 C 0.32945 0.05673 0.27974 0.0
C1419 C 0.3619 0.01915 0.24261 0.0
H1420 H 0.32232 0.97504 0.26562 0.0
C1421 C 0.36906 0.93182 0.20624 0.0
C1422 C 0.3506 0.91893 0.20468 0.0
C1423 C 0.368 0.95253 0.21669 0.0
C1424 C 0.33322 0.98726 0.25853 0.0
H1425 H 0.38428 0.08002 0.30185 0.0
H1426 H 0.38257 0.04391 0.28342 0.0
H1427 H 0.32211 0.01017 0.28678 0.0
H1428 H 0.31634 0.91801 0.21187 0.0
H1429 H 0.31422 0.95452 0.22895 0.0
H1430 H 0.37264 0.99683 0.21385 0.0
C1431 C 0.36786 0.05307 0.28534 0.0
C1432 C 0.33316 0.00734 0.27085 0.0
C1433 C 0.36879 0.07369 0.29608 0.0
C1434 C 0.33087 0.92753 0.21288 0.0
C1435 C 0.32973 0.94842 0.22297 0.0
C1436 C 0.3617 0.99926 0.22997 0.0
C1437 C 0.34826 0.04452 0.27665 0.0
C1438 C 0.34771 0.02338 0.26324 0.0
C1439 C 0.34836 0.96111 0.22549 0.0
C1440 C 0.34757 0.98286 0.23795 0.0
H1441 H 0.31583 0.08695 0.29121 0.0
H1442 H 0.31413 0.05053 0.27316 0.0
H1443 H 0.37304 0.03137 0.23604 0.0
H1444 H 0.38457 0.92561 0.20037 0.0
H1445 H 0.38281 0.96147 0.21866 0.0
C1446 C 0.9214 0.33569 0.292 0.0
C1447 C 0.91246 0.35551 0.29927 0.0
C1448 C 0.94265 0.33446 0.28311 0.0
C1449 C 0.99363 0.36641 0.27809 0.0
H1450 H 0.00616 0.32666 0.22194 0.0
C1451 C 0.06964 0.37342 0.21447 0.0
C1452 C 0.08213 0.3547 0.2123 0.0
C1453 C 0.04895 0.37256 0.22502 0.0
C1454 C 0.0029 0.33774 0.23772 0.0
H1455 H 0.91893 0.38955 0.30329 0.0
H1456 H 0.95547 0.38762 0.28712 0.0
H1457 H 0.97049 0.32686 0.24167 0.0
H1458 H 0.08236 0.32028 0.21854 0.0
H1459 H 0.04586 0.31872 0.23631 0.0
H1460 H 0.02588 0.37778 0.27331 0.0
C1461 C 0.94647 0.37282 0.28888 0.0
C1462 C 0.98249 0.33779 0.24921 0.0
C1463 C 0.92538 0.37397 0.2981 0.0
C1464 C 0.07313 0.33497 0.21993 0.0
C1465 C 0.05225 0.33406 0.23008 0.0
C1466 C 0.01388 0.36659 0.2663 0.0
C1467 C 0.95538 0.3531 0.28091 0.0
C1468 C 0.97749 0.35223 0.26949 0.0
C1469 C 0.04014 0.35293 0.23325 0.0
C1470 C 0.01869 0.35235 0.24591 0.0
H1471 H 0.91187 0.32115 0.29273 0.0
H1472 H 0.949 0.3189 0.27773 0.0
H1473 H 0.99071 0.37742 0.29402 0.0
H1474 H 0.07611 0.38889 0.20888 0.0
H1475 H 0.03988 0.38732 0.22699 0.0
C1476 C 0.62908 0.92899 0.29205 0.0
C1477 C 0.64776 0.91642 0.29415 0.0
C1478 C 0.63003 0.94977 0.28175 0.0
C1479 C 0.66481 0.9959 0.26891 0.0
H1480 H 0.62587 0.00716 0.21156 0.0
C1481 C 0.66756 0.07654 0.21256 0.0
C1482 C 0.64787 0.08525 0.20435 0.0
C1483 C 0.66865 0.05549 0.22219 0.0
C1484 C 0.63666 0.00452 0.22779 0.0
H1485 H 0.68223 0.91623 0.28829 0.0
H1486 H 0.68394 0.95289 0.27102 0.0
H1487 H 0.62528 0.97233 0.23306 0.0
H1488 H 0.61395 0.07857 0.19952 0.0
H1489 H 0.61563 0.04243 0.21697 0.0
H1490 H 0.67569 0.02827 0.26444 0.0
C1491 C 0.66856 0.94649 0.27708 0.0
C1492 C 0.63635 0.98446 0.24004 0.0
C1493 C 0.66757 0.92552 0.28696 0.0
C1494 C 0.62943 0.0723 0.2054 0.0
C1495 C 0.63044 0.05142 0.21537 0.0
C1496 C 0.66487 0.01615 0.25696 0.0
C1497 C 0.64972 0.9586 0.27374 0.0
C1498 C 0.65034 0.97995 0.26079 0.0
C1499 C 0.65001 0.04274 0.22422 0.0
C1500 C 0.65071 0.02082 0.23627 0.0
H1501 H 0.61355 0.92246 0.29729 0.0
H1502 H 0.61529 0.95884 0.27965 0.0
H1503 H 0.67571 0.99288 0.28494 0.0
H1504 H 0.68207 0.08611 0.21197 0.0
H1505 H 0.68411 0.04932 0.22824 0.0
C1506 C 0.07415 0.63092 0.29615 0.0
C1507 C 0.08684 0.64952 0.29778 0.0
C1508 C 0.05328 0.63187 0.28616 0.0
C1509 C 0.01778 0.66671 0.24546 0.0
H1510 H 0.97416 0.62645 0.26822 0.0
C1511 C 0.92757 0.66971 0.21452 0.0
C1512 C 0.91862 0.65005 0.20653 0.0
C1513 C 0.94833 0.67051 0.22501 0.0
C1514 C 0.98623 0.63771 0.26158 0.0
H1515 H 0.08725 0.68388 0.29124 0.0
H1516 H 0.05049 0.68577 0.27494 0.0
H1517 H 0.00899 0.62682 0.28978 0.0
H1518 H 0.92463 0.61588 0.20282 0.0
H1519 H 0.96067 0.61726 0.22153 0.0
H1520 H 0.99451 0.67792 0.21774 0.0
C1521 C 0.05686 0.67026 0.28051 0.0
C1522 C 0.00628 0.6379 0.27385 0.0
C1523 C 0.07789 0.66925 0.29015 0.0
C1524 C 0.93107 0.6313 0.20867 0.0
C1525 C 0.95164 0.63204 0.21957 0.0
C1526 C 0.99756 0.66675 0.23349 0.0
C1527 C 0.04437 0.65151 0.27788 0.0
C1528 C 0.02249 0.65221 0.26579 0.0
C1529 C 0.96039 0.6516 0.22816 0.0
C1530 C 0.98168 0.65207 0.24121 0.0
H1531 H 0.08064 0.61542 0.3016 0.0
H1532 H 0.04447 0.61698 0.2841 0.0
H1533 H 0.02985 0.67773 0.23829 0.0
H1534 H 0.91837 0.68442 0.21316 0.0
H1535 H 0.95467 0.68579 0.23152 0.0
loop_
_geom_bond_atom_site_label_1
_geom_bond_atom_site_label_2
_geom_bond_distance
_geom_bond_site_symmetry_2
_ccdc_geom_bond_type
Mn0 O5 2.095 . S
Mn0 O15 2.162 . S
Mn0 O16 2.297 . S
Mn0 O24 2.385 . S
Mn0 O25 2.209 . S
Mn0 O26 2.094 . S
Mn1 O6 2.121 . S
Mn1 N8 2.257 . S
Mn1 N17 2.282 . S
Mn1 O25 2.215 . S
Mn1 O27 2.117 . S
C2 O24 1.234 . S
C2 O25 1.283 . S
C3 O15 1.281 . S
C3 O16 1.236 . S
C4 O26 1.240 . S
C4 O27 1.264 . S
O5 Mn0 2.095 . S
O5 C14 1.250 . S
O6 Mn1 2.121 . S
O6 C14 1.258 . S
C7 N8 1.326 . S
C7 C11 1.460 . S
C7 H13 0.929 . S
N8 Mn1 2.257 . S
N8 C7 1.326 . S
N8 C12 1.362 . S
C9 C10 1.258 . S
C9 C12 1.431 . S
C9 C29 1.449 . S
C10 C9 1.258 . S
C10 C11 1.477 . S
C10 H30 0.931 . S
C11 C7 1.460 . S
C11 C10 1.477 . S
C11 H31 0.930 . S
C12 N8 1.362 . S
C12 C9 1.431 . S
C12 C22 1.476 . S
H13 C7 0.929 . S
C14 O5 1.250 . S
C14 O6 1.258 . S
O15 Mn0 2.162 . S
O15 C3 1.281 . S
O16 Mn0 2.297 . S
O16 C3 1.236 . S
N17 Mn1 2.282 . S
N17 C18 1.328 . S
N17 C22 1.318 . S
C18 N17 1.328 . S
C18 C19 1.457 . S
C18 H23 0.929 . S
C19 C18 1.457 . S
C19 C20 1.291 . S
C19 H32 0.931 . S
C20 C19 1.291 . S
C20 C21 1.373 . S
C20 H33 0.929 . S
C21 C20 1.373 . S
C21 C22 1.396 . S
C21 C28 1.403 . S
C22 C12 1.476 . S
C22 N17 1.318 . S
C22 C21 1.396 . S
H23 C18 0.929 . S
O24 Mn0 2.385 . S
O24 C2 1.234 . S
O25 Mn0 2.209 . S
O25 Mn1 2.215 . S
O25 C2 1.283 . S
O26 Mn0 2.094 . S
O26 C4 1.240 . S
O27 Mn1 2.117 . S
O27 C4 1.264 . S
C28 C21 1.403 . S
C28 C29 1.399 . S
C28 H34 0.929 . S
C29 C9 1.449 . S
C29 C28 1.399 . S
C29 H35 0.930 . S
H30 C10 0.931 . S
H31 C11 0.930 . S
H32 C19 0.931 . S
H33 C20 0.929 . S
H34 C28 0.929 . S
H35 C29 0.930 . S
Mn36 O41 2.095 . S
Mn36 O51 2.162 . S
Mn36 O52 2.297 . S
Mn36 O60 2.385 . S
Mn36 O61 2.209 . S
Mn36 O62 2.094 . S
Mn37 O42 2.121 . S
Mn37 N44 2.257 . S
Mn37 N53 2.282 . S
Mn37 O61 2.215 . S
Mn37 O63 2.117 . S
C38 O60 1.234 . S
C38 O61 1.283 . S
C39 O51 1.281 . S
C39 O52 1.236 . S
C40 O62 1.240 . S
C40 O63 1.264 . S
O41 Mn36 2.095 . S
O41 C50 1.250 . S
O42 Mn37 2.121 . S
O42 C50 1.258 . S
C43 N44 1.326 . S
C43 C47 1.460 . S
C43 H49 0.929 . S
N44 Mn37 2.257 . S
N44 C43 1.326 . S
N44 C48 1.362 . S
C45 C46 1.258 . S
C45 C48 1.431 . S
C45 C65 1.449 . S
C46 C45 1.258 . S
C46 C47 1.477 . S
C46 H66 0.931 . S
C47 C43 1.460 . S
C47 C46 1.477 . S
C47 H67 0.930 . S
C48 N44 1.362 . S
C48 C45 1.431 . S
C48 C58 1.476 . S
H49 C43 0.929 . S
C50 O41 1.250 . S
C50 O42 1.258 . S
O51 Mn36 2.162 . S
O51 C39 1.281 . S
O52 Mn36 2.297 . S
O52 C39 1.236 . S
N53 Mn37 2.282 . S
N53 C54 1.328 . S
N53 C58 1.318 . S
C54 N53 1.328 . S
C54 C55 1.457 . S
C54 H59 0.929 . S
C55 C54 1.457 . S
C55 C56 1.291 . S
C55 H68 0.931 . S
C56 C55 1.291 . S
C56 C57 1.373 . S
C56 H69 0.929 . S
C57 C56 1.373 . S
C57 C58 1.396 . S
C57 C64 1.403 . S
C58 C48 1.476 . S
C58 N53 1.318 . S
C58 C57 1.396 . S
H59 C54 0.929 . S
O60 Mn36 2.385 . S
O60 C38 1.234 . S
O61 Mn36 2.209 . S
O61 Mn37 2.215 . S
O61 C38 1.283 . S
O62 Mn36 2.094 . S
O62 C40 1.240 . S
O63 Mn37 2.117 . S
O63 C40 1.264 . S
C64 C57 1.403 . S
C64 C65 1.399 . S
C64 H70 0.929 . S
C65 C45 1.449 . S
C65 C64 1.399 . S
C65 H71 0.930 . S
H66 C46 0.931 . S
H67 C47 0.930 . S
H68 C55 0.931 . S
H69 C56 0.929 . S
H70 C64 0.929 . S
H71 C65 0.930 . S
Mn72 O77 2.095 . S
Mn72 O87 2.162 . S
Mn72 O88 2.297 . S
Mn72 O96 2.385 . S
Mn72 O97 2.209 . S
Mn72 O98 2.094 . S
Mn73 O78 2.121 . S
Mn73 N80 2.257 . S
Mn73 N89 2.282 . S
Mn73 O97 2.215 . S
Mn73 O99 2.117 . S
C74 O96 1.234 . S
C74 O97 1.283 . S
C75 O87 1.281 . S
C75 O88 1.236 . S
C76 O98 1.240 . S
C76 O99 1.264 . S
O77 Mn72 2.095 . S
O77 C86 1.250 . S
O78 Mn73 2.121 . S
O78 C86 1.258 . S
C79 N80 1.326 . S
C79 C83 1.460 . S
C79 H85 0.929 . S
N80 Mn73 2.257 . S
N80 C79 1.326 . S
N80 C84 1.362 . S
C81 C82 1.258 . S
C81 C84 1.431 . S
C81 C101 1.449 . S
C82 C81 1.258 . S
C82 C83 1.477 . S
C82 H102 0.931 . S
C83 C79 1.460 . S
C83 C82 1.477 . S
C83 H103 0.930 . S
C84 N80 1.362 . S
C84 C81 1.431 . S
C84 C94 1.476 . S
H85 C79 0.929 . S
C86 O77 1.250 . S
C86 O78 1.258 . S
O87 Mn72 2.162 . S
O87 C75 1.281 . S
O88 Mn72 2.297 . S
O88 C75 1.236 . S
N89 Mn73 2.282 . S
N89 C90 1.328 . S
N89 C94 1.318 . S
C90 N89 1.328 . S
C90 C91 1.457 . S
C90 H95 0.929 . S
C91 C90 1.457 . S
C91 C92 1.291 . S
C91 H104 0.931 . S
C92 C91 1.291 . S
C92 C93 1.373 . S
C92 H105 0.929 . S
C93 C92 1.373 . S
C93 C94 1.396 . S
C93 C100 1.403 . S
C94 C84 1.476 . S
C94 N89 1.318 . S
C94 C93 1.396 . S
H95 C90 0.929 . S
O96 Mn72 2.385 . S
O96 C74 1.234 . S
O97 Mn72 2.209 . S
O97 Mn73 2.215 . S
O97 C74 1.283 . S
O98 Mn72 2.094 . S
O98 C76 1.240 . S
O99 Mn73 2.117 . S
O99 C76 1.264 . S
C100 C93 1.403 . S
C100 C101 1.399 . S
C100 H106 0.929 . S
C101 C81 1.449 . S
C101 C100 1.399 . S
C101 H107 0.930 . S
H102 C82 0.931 . S
H103 C83 0.930 . S
H104 C91 0.931 . S
H105 C92 0.929 . S
H106 C100 0.929 . S
H107 C101 0.930 . S
Mn108 O113 2.095 . S
Mn108 O123 2.162 . S
Mn108 O124 2.297 . S
Mn108 O132 2.385 . S
Mn108 O133 2.209 . S
Mn108 O134 2.094 . S
Mn109 O114 2.121 . S
Mn109 N116 2.257 . S
Mn109 N125 2.282 . S
Mn109 O133 2.215 . S
Mn109 O135 2.117 . S
C110 O132 1.234 . S
C110 O133 1.283 . S
C111 O123 1.281 . S
C111 O124 1.236 . S
C112 O134 1.240 . S
C112 O135 1.264 . S
O113 Mn108 2.095 . S
O113 C122 1.250 . S
O114 Mn109 2.121 . S
O114 C122 1.258 . S
C115 N116 1.326 . S
C115 C119 1.460 . S
C115 H121 0.929 . S
N116 Mn109 2.257 . S
N116 C115 1.326 . S
N116 C120 1.362 . S
C117 C118 1.258 . S
C117 C120 1.431 . S
C117 C137 1.449 . S
C118 C117 1.258 . S
C118 C119 1.477 . S
C118 H138 0.931 . S
C119 C115 1.460 . S
C119 C118 1.477 . S
C119 H139 0.930 . S
C120 N116 1.362 . S
C120 C117 1.431 . S
C120 C130 1.476 . S
H121 C115 0.929 . S
C122 O113 1.250 . S
C122 O114 1.258 . S
O123 Mn108 2.162 . S
O123 C111 1.281 . S
O124 Mn108 2.297 . S
O124 C111 1.236 . S
N125 Mn109 2.282 . S
N125 C126 1.328 . S
N125 C130 1.318 . S
C126 N125 1.328 . S
C126 C127 1.457 . S
C126 H131 0.929 . S
C127 C126 1.457 . S
C127 C128 1.291 . S
C127 H140 0.931 . S
C128 C127 1.291 . S
C128 C129 1.373 . S
C128 H141 0.929 . S
C129 C128 1.373 . S
C129 C130 1.396 . S
C129 C136 1.403 . S
C130 C120 1.476 . S
C130 N125 1.318 . S
C130 C129 1.396 . S
H131 C126 0.929 . S
O132 Mn108 2.385 . S
O132 C110 1.234 . S
O133 Mn108 2.209 . S
O133 Mn109 2.215 . S
O133 C110 1.283 . S
O134 Mn108 2.094 . S
O134 C112 1.240 . S
O135 Mn109 2.117 . S
O135 C112 1.264 . S
C136 C129 1.403 . S
C136 C137 1.399 . S
C136 H142 0.929 . S
C137 C117 1.449 . S
C137 C136 1.399 . S
C137 H143 0.930 . S
H138 C118 0.931 . S
H139 C119 0.930 . S
H140 C127 0.931 . S
H141 C128 0.929 . S
H142 C136 0.929 . S
H143 C137 0.930 . S
Mn144 O149 2.095 . S
Mn144 O159 2.162 . S
Mn144 O160 2.297 . S
Mn144 O168 2.385 . S
Mn144 O169 2.209 . S
Mn144 O170 2.094 . S
Mn145 O150 2.121 . S
Mn145 N152 2.257 . S
Mn145 N161 2.282 . S
Mn145 O169 2.215 . S
Mn145 O171 2.117 . S
C146 O168 1.234 . S
C146 O169 1.283 . S
C147 O159 1.281 . S
C147 O160 1.236 . S
C148 O170 1.240 . S
C148 O171 1.264 . S
O149 Mn144 2.095 . S
O149 C158 1.250 . S
O150 Mn145 2.121 . S
O150 C158 1.258 . S
C151 N152 1.326 . S
C151 C155 1.460 . S
C151 H157 0.929 . S
N152 Mn145 2.257 . S
N152 C151 1.326 . S
N152 C156 1.362 . S
C153 C154 1.258 . S
C153 C156 1.431 . S
C153 C173 1.449 . S
C154 C153 1.258 . S
C154 C155 1.477 . S
C154 H174 0.931 . S
C155 C151 1.460 . S
C155 C154 1.477 . S
C155 H175 0.930 . S
C156 N152 1.362 . S
C156 C153 1.431 . S
C156 C166 1.476 . S
H157 C151 0.929 . S
C158 O149 1.250 . S
C158 O150 1.258 . S
O159 Mn144 2.162 . S
O159 C147 1.281 . S
O160 Mn144 2.297 . S
O160 C147 1.236 . S
N161 Mn145 2.282 . S
N161 C162 1.328 . S
N161 C166 1.318 . S
C162 N161 1.328 . S
C162 C163 1.457 . S
C162 H167 0.929 . S
C163 C162 1.457 . S
C163 C164 1.291 . S
C163 H176 0.931 . S
C164 C163 1.291 . S
C164 C165 1.373 . S
C164 H177 0.929 . S
C165 C164 1.373 . S
C165 C166 1.396 . S
C165 C172 1.403 . S
C166 C156 1.476 . S
C166 N161 1.318 . S
C166 C165 1.396 . S
H167 C162 0.929 . S
O168 Mn144 2.385 . S
O168 C146 1.234 . S
O169 Mn144 2.209 . S
O169 Mn145 2.215 . S
O169 C146 1.283 . S
O170 Mn144 2.094 . S
O170 C148 1.240 . S
O171 Mn145 2.117 . S
O171 C148 1.264 . S
C172 C165 1.403 . S
C172 C173 1.399 . S
C172 H178 0.929 . S
C173 C153 1.449 . S
C173 C172 1.399 . S
C173 H179 0.930 . S
H174 C154 0.931 . S
H175 C155 0.930 . S
H176 C163 0.931 . S
H177 C164 0.929 . S
H178 C172 0.929 . S
H179 C173 0.930 . S
Mn180 O185 2.095 . S
Mn180 O195 2.162 . S
Mn180 O196 2.297 . S
Mn180 O204 2.385 . S
Mn180 O205 2.209 . S
Mn180 O206 2.094 . S
Mn181 O186 2.121 . S
Mn181 N188 2.257 . S
Mn181 N197 2.282 . S
Mn181 O205 2.215 . S
Mn181 O207 2.117 . S
C182 O204 1.234 . S
C182 O205 1.283 . S
C183 O195 1.281 . S
C183 O196 1.236 . S
C184 O206 1.240 . S
C184 O207 1.264 . S
O185 Mn180 2.095 . S
O185 C194 1.250 . S
O186 Mn181 2.121 . S
O186 C194 1.258 . S
C187 N188 1.326 . S
C187 C191 1.460 . S
C187 H193 0.929 . S
N188 Mn181 2.257 . S
N188 C187 1.326 . S
N188 C192 1.362 . S
C189 C190 1.258 . S
C189 C192 1.431 . S
C189 C209 1.449 . S
C190 C189 1.258 . S
C190 C191 1.477 . S
C190 H210 0.931 . S
C191 C187 1.460 . S
C191 C190 1.477 . S
C191 H211 0.930 . S
C192 N188 1.362 . S
C192 C189 1.431 . S
C192 C202 1.476 . S
H193 C187 0.929 . S
C194 O185 1.250 . S
C194 O186 1.258 . S
O195 Mn180 2.162 . S
O195 C183 1.281 . S
O196 Mn180 2.297 . S
O196 C183 1.236 . S
N197 Mn181 2.282 . S
N197 C198 1.328 . S
N197 C202 1.318 . S
C198 N197 1.328 . S
C198 C199 1.457 . S
C198 H203 0.929 . S
C199 C198 1.457 . S
C199 C200 1.291 . S
C199 H212 0.931 . S
C200 C199 1.291 . S
C200 C201 1.373 . S
C200 H213 0.929 . S
C201 C200 1.373 . S
C201 C202 1.396 . S
C201 C208 1.403 . S
C202 C192 1.476 . S
C202 N197 1.318 . S
C202 C201 1.396 . S
H203 C198 0.929 . S
O204 Mn180 2.385 . S
O204 C182 1.234 . S
O205 Mn180 2.209 . S
O205 Mn181 2.215 . S
O205 C182 1.283 . S
O206 Mn180 2.094 . S
O206 C184 1.240 . S
O207 Mn181 2.117 . S
O207 C184 1.264 . S
C208 C201 1.403 . S
C208 C209 1.399 . S
C208 H214 0.929 . S
C209 C189 1.449 . S
C209 C208 1.399 . S
C209 H215 0.930 . S
H210 C190 0.931 . S
H211 C191 0.930 . S
H212 C199 0.931 . S
H213 C200 0.929 . S
H214 C208 0.929 . S
H215 C209 0.930 . S
Mn216 O221 2.095 . S
Mn216 O231 2.162 . S
Mn216 O232 2.297 . S
Mn216 O240 2.385 . S
Mn216 O241 2.209 . S
Mn216 O242 2.094 . S
Mn217 O222 2.121 . S
Mn217 N224 2.257 . S
Mn217 N233 2.282 . S
Mn217 O241 2.215 . S
Mn217 O243 2.117 . S
C218 O240 1.234 . S
C218 O241 1.283 . S
C219 O231 1.281 . S
C219 O232 1.236 . S
C220 O242 1.240 . S
C220 O243 1.264 . S
O221 Mn216 2.095 . S
O221 C230 1.250 . S
O222 Mn217 2.121 . S
O222 C230 1.258 . S
C223 N224 1.326 . S
C223 C227 1.460 . S
C223 H229 0.929 . S
N224 Mn217 2.257 . S
N224 C223 1.326 . S
N224 C228 1.362 . S
C225 C226 1.258 . S
C225 C228 1.431 . S
C225 C245 1.449 . S
C226 C225 1.258 . S
C226 C227 1.477 . S
C226 H246 0.931 . S
C227 C223 1.460 . S
C227 C226 1.477 . S
C227 H247 0.930 . S
C228 N224 1.362 . S
C228 C225 1.431 . S
C228 C238 1.476 . S
H229 C223 0.929 . S
C230 O221 1.250 . S
C230 O222 1.258 . S
O231 Mn216 2.162 . S
O231 C219 1.281 . S
O232 Mn216 2.297 . S
O232 C219 1.236 . S
N233 Mn217 2.282 . S
N233 C234 1.328 . S
N233 C238 1.318 . S
C234 N233 1.328 . S
C234 C235 1.457 . S
C234 H239 0.929 . S
C235 C234 1.457 . S
C235 C236 1.291 . S
C235 H248 0.931 . S
C236 C235 1.291 . S
C236 C237 1.373 . S
C236 H249 0.929 . S
C237 C236 1.373 . S
C237 C238 1.396 . S
C237 C244 1.403 . S
C238 C228 1.476 . S
C238 N233 1.318 . S
C238 C237 1.396 . S
H239 C234 0.929 . S
O240 Mn216 2.385 . S
O240 C218 1.234 . S
O241 Mn216 2.209 . S
O241 Mn217 2.215 . S
O241 C218 1.283 . S
O242 Mn216 2.094 . S
O242 C220 1.240 . S
O243 Mn217 2.117 . S
O243 C220 1.264 . S
C244 C237 1.403 . S
C244 C245 1.399 . S
C244 H250 0.929 . S
C245 C225 1.449 . S
C245 C244 1.399 . S
C245 H251 0.930 . S
H246 C226 0.931 . S
H247 C227 0.930 . S
H248 C235 0.931 . S
H249 C236 0.929 . S
H250 C244 0.929 . S
H251 C245 0.930 . S
Mn252 O257 2.095 . S
Mn252 O267 2.162 . S
Mn252 O268 2.297 . S
Mn252 O276 2.385 . S
Mn252 O277 2.209 . S
Mn252 O278 2.094 . S
Mn253 O258 2.121 . S
Mn253 N260 2.257 . S
Mn253 N269 2.282 . S
Mn253 O277 2.215 . S
Mn253 O279 2.117 . S
C254 O276 1.234 . S
C254 O277 1.283 . S
C255 O267 1.281 . S
C255 O268 1.236 . S
C256 O278 1.240 . S
C256 O279 1.264 . S
O257 Mn252 2.095 . S
O257 C266 1.250 . S
O258 Mn253 2.121 . S
O258 C266 1.258 . S
C259 N260 1.326 . S
C259 C263 1.460 . S
C259 H265 0.929 . S
N260 Mn253 2.257 . S
N260 C259 1.326 . S
N260 C264 1.362 . S
C261 C262 1.258 . S
C261 C264 1.431 . S
C261 C281 1.449 . S
C262 C261 1.258 . S
C262 C263 1.477 . S
C262 H282 0.931 . S
C263 C259 1.460 . S
C263 C262 1.477 . S
C263 H283 0.930 . S
C264 N260 1.362 . S
C264 C261 1.431 . S
C264 C274 1.476 . S
H265 C259 0.929 . S
C266 O257 1.250 . S
C266 O258 1.258 . S
O267 Mn252 2.162 . S
O267 C255 1.281 . S
O268 Mn252 2.297 . S
O268 C255 1.236 . S
N269 Mn253 2.282 . S
N269 C270 1.328 . S
N269 C274 1.318 . S
C270 N269 1.328 . S
C270 C271 1.457 . S
C270 H275 0.929 . S
C271 C270 1.457 . S
C271 C272 1.291 . S
C271 H284 0.931 . S
C272 C271 1.291 . S
C272 C273 1.373 . S
C272 H285 0.929 . S
C273 C272 1.373 . S
C273 C274 1.396 . S
C273 C280 1.403 . S
C274 C264 1.476 . S
C274 N269 1.318 . S
C274 C273 1.396 . S
H275 C270 0.929 . S
O276 Mn252 2.385 . S
O276 C254 1.234 . S
O277 Mn252 2.209 . S
O277 Mn253 2.215 . S
O277 C254 1.283 . S
O278 Mn252 2.094 . S
O278 C256 1.240 . S
O279 Mn253 2.117 . S
O279 C256 1.264 . S
C280 C273 1.403 . S
C280 C281 1.399 . S
C280 H286 0.929 . S
C281 C261 1.449 . S
C281 C280 1.399 . S
C281 H287 0.930 . S
H282 C262 0.931 . S
H283 C263 0.930 . S
H284 C271 0.931 . S
H285 C272 0.929 . S
H286 C280 0.929 . S
H287 C281 0.930 . S
Mn288 O293 2.095 . S
Mn288 O303 2.162 . S
Mn288 O304 2.297 . S
Mn288 O312 2.385 . S
Mn288 O313 2.209 . S
Mn288 O314 2.094 . S
Mn289 O294 2.121 . S
Mn289 N296 2.257 . S
Mn289 N305 2.282 . S
Mn289 O313 2.215 . S
Mn289 O315 2.117 . S
C290 O312 1.234 . S
C290 O313 1.283 . S
C291 O303 1.281 . S
C291 O304 1.236 . S
C292 O314 1.240 . S
C292 O315 1.264 . S
O293 Mn288 2.095 . S
O293 C302 1.250 . S
O294 Mn289 2.121 . S
O294 C302 1.258 . S
C295 N296 1.326 . S
C295 C299 1.460 . S
C295 H301 0.929 . S
N296 Mn289 2.257 . S
N296 C295 1.326 . S
N296 C300 1.362 . S
C297 C298 1.258 . S
C297 C300 1.431 . S
C297 C317 1.449 . S
C298 C297 1.258 . S
C298 C299 1.477 . S
C298 H318 0.931 . S
C299 C295 1.460 . S
C299 C298 1.477 . S
C299 H319 0.930 . S
C300 N296 1.362 . S
C300 C297 1.431 . S
C300 C310 1.476 . S
H301 C295 0.929 . S
C302 O293 1.250 . S
C302 O294 1.258 . S
O303 Mn288 2.162 . S
O303 C291 1.281 . S
O304 Mn288 2.297 . S
O304 C291 1.236 . S
N305 Mn289 2.282 . S
N305 C306 1.328 . S
N305 C310 1.318 . S
C306 N305 1.328 . S
C306 C307 1.457 . S
C306 H311 0.929 . S
C307 C306 1.457 . S
C307 C308 1.291 . S
C307 H320 0.931 . S
C308 C307 1.291 . S
C308 C309 1.373 . S
C308 H321 0.929 . S
C309 C308 1.373 . S
C309 C310 1.396 . S
C309 C316 1.403 . S
C310 C300 1.476 . S
C310 N305 1.318 . S
C310 C309 1.396 . S
H311 C306 0.929 . S
O312 Mn288 2.385 . S
O312 C290 1.234 . S
O313 Mn288 2.209 . S
O313 Mn289 2.215 . S
O313 C290 1.283 . S
O314 Mn288 2.094 . S
O314 C292 1.240 . S
O315 Mn289 2.117 . S
O315 C292 1.264 . S
C316 C309 1.403 . S
C316 C317 1.399 . S
C316 H322 0.929 . S
C317 C297 1.449 . S
C317 C316 1.399 . S
C317 H323 0.930 . S
H318 C298 0.931 . S
H319 C299 0.930 . S
H320 C307 0.931 . S
H321 C308 0.929 . S
H322 C316 0.929 . S
H323 C317 0.930 . S
Mn324 O329 2.095 . S
Mn324 O339 2.162 . S
Mn324 O340 2.297 . S
Mn324 O348 2.385 . S
Mn324 O349 2.209 . S
Mn324 O350 2.094 . S
Mn325 O330 2.121 . S
Mn325 N332 2.257 . S
Mn325 N341 2.282 . S
Mn325 O349 2.215 . S
Mn325 O351 2.117 . S
C326 O348 1.234 . S
C326 O349 1.283 . S
C327 O339 1.281 . S
C327 O340 1.236 . S
C328 O350 1.240 . S
C328 O351 1.264 . S
O329 Mn324 2.095 . S
O329 C338 1.250 . S
O330 Mn325 2.121 . S
O330 C338 1.258 . S
C331 N332 1.326 . S
C331 C335 1.460 . S
C331 H337 0.929 . S
N332 Mn325 2.257 . S
N332 C331 1.326 . S
N332 C336 1.362 . S
C333 C334 1.258 . S
C333 C336 1.431 . S
C333 C353 1.449 . S
C334 C333 1.258 . S
C334 C335 1.477 . S
C334 H354 0.931 . S
C335 C331 1.460 . S
C335 C334 1.477 . S
C335 H355 0.930 . S
C336 N332 1.362 . S
C336 C333 1.431 . S
C336 C346 1.476 . S
H337 C331 0.929 . S
C338 O329 1.250 . S
C338 O330 1.258 . S
O339 Mn324 2.162 . S
O339 C327 1.281 . S
O340 Mn324 2.297 . S
O340 C327 1.236 . S
N341 Mn325 2.282 . S
N341 C342 1.328 . S
N341 C346 1.318 . S
C342 N341 1.328 . S
C342 C343 1.457 . S
C342 H347 0.929 . S
C343 C342 1.457 . S
C343 C344 1.291 . S
C343 H356 0.931 . S
C344 C343 1.291 . S
C344 C345 1.373 . S
C344 H357 0.929 . S
C345 C344 1.373 . S
C345 C346 1.396 . S
C345 C352 1.403 . S
C346 C336 1.476 . S
C346 N341 1.318 . S
C346 C345 1.396 . S
H347 C342 0.929 . S
O348 Mn324 2.385 . S
O348 C326 1.234 . S
O349 Mn324 2.209 . S
O349 Mn325 2.215 . S
O349 C326 1.283 . S
O350 Mn324 2.094 . S
O350 C328 1.240 . S
O351 Mn325 2.117 . S
O351 C328 1.264 . S
C352 C345 1.403 . S
C352 C353 1.399 . S
C352 H358 0.929 . S
C353 C333 1.449 . S
C353 C352 1.399 . S
C353 H359 0.930 . S
H354 C334 0.931 . S
H355 C335 0.930 . S
H356 C343 0.931 . S
H357 C344 0.929 . S
H358 C352 0.929 . S
H359 C353 0.930 . S
Mn360 O365 2.095 . S
Mn360 O375 2.162 . S
Mn360 O376 2.297 . S
Mn360 O384 2.385 . S
Mn360 O385 2.209 . S
Mn360 O386 2.094 . S
Mn361 O366 2.121 . S
Mn361 N368 2.257 . S
Mn361 N377 2.282 . S
Mn361 O385 2.215 . S
Mn361 O387 2.117 . S
C362 O384 1.234 . S
C362 O385 1.283 . S
C363 O375 1.281 . S
C363 O376 1.236 . S
C364 O386 1.240 . S
C364 O387 1.264 . S
O365 Mn360 2.095 . S
O365 C374 1.250 . S
O366 Mn361 2.121 . S
O366 C374 1.258 . S
C367 N368 1.326 . S
C367 C371 1.460 . S
C367 H373 0.929 . S
N368 Mn361 2.257 . S
N368 C367 1.326 . S
N368 C372 1.362 . S
C369 C370 1.258 . S
C369 C372 1.431 . S
C369 C389 1.449 . S
C370 C369 1.258 . S
C370 C371 1.477 . S
C370 H390 0.931 . S
C371 C367 1.460 . S
C371 C370 1.477 . S
C371 H391 0.930 . S
C372 N368 1.362 . S
C372 C369 1.431 . S
C372 C382 1.476 . S
H373 C367 0.929 . S
C374 O365 1.250 . S
C374 O366 1.258 . S
O375 Mn360 2.162 . S
O375 C363 1.281 . S
O376 Mn360 2.297 . S
O376 C363 1.236 . S
N377 Mn361 2.282 . S
N377 C378 1.328 . S
N377 C382 1.318 . S
C378 N377 1.328 . S
C378 C379 1.457 . S
C378 H383 0.929 . S
C379 C378 1.457 . S
C379 C380 1.291 . S
C379 H392 0.931 . S
C380 C379 1.291 . S
C380 C381 1.373 . S
C380 H393 0.929 . S
C381 C380 1.373 . S
C381 C382 1.396 . S
C381 C388 1.403 . S
C382 C372 1.476 . S
C382 N377 1.318 . S
C382 C381 1.396 . S
H383 C378 0.929 . S
O384 Mn360 2.385 . S
O384 C362 1.234 . S
O385 Mn360 2.209 . S
O385 Mn361 2.215 . S
O385 C362 1.283 . S
O386 Mn360 2.094 . S
O386 C364 1.240 . S
O387 Mn361 2.117 . S
O387 C364 1.264 . S
C388 C381 1.403 . S
C388 C389 1.399 . S
C388 H394 0.929 . S
C389 C369 1.449 . S
C389 C388 1.399 . S
C389 H395 0.930 . S
H390 C370 0.931 . S
H391 C371 0.930 . S
H392 C379 0.931 . S
H393 C380 0.929 . S
H394 C388 0.929 . S
H395 C389 0.930 . S
Mn396 O401 2.095 . S
Mn396 O411 2.162 . S
Mn396 O412 2.297 . S
Mn396 O420 2.385 . S
Mn396 O421 2.209 . S
Mn396 O422 2.094 . S
Mn397 O402 2.121 . S
Mn397 N404 2.257 . S
Mn397 N413 2.282 . S
Mn397 O421 2.215 . S
Mn397 O423 2.117 . S
C398 O420 1.234 . S
C398 O421 1.283 . S
C399 O411 1.281 . S
C399 O412 1.236 . S
C400 O422 1.240 . S
C400 O423 1.264 . S
O401 Mn396 2.095 . S
O401 C410 1.250 . S
O402 Mn397 2.121 . S
O402 C410 1.258 . S
C403 N404 1.326 . S
C403 C407 1.460 . S
C403 H409 0.929 . S
N404 Mn397 2.257 . S
N404 C403 1.326 . S
N404 C408 1.362 . S
C405 C406 1.258 . S
C405 C408 1.431 . S
C405 C425 1.449 . S
C406 C405 1.258 . S
C406 C407 1.477 . S
C406 H426 0.931 . S
C407 C403 1.460 . S
C407 C406 1.477 . S
C407 H427 0.930 . S
C408 N404 1.362 . S
C408 C405 1.431 . S
C408 C418 1.476 . S
H409 C403 0.929 . S
C410 O401 1.250 . S
C410 O402 1.258 . S
O411 Mn396 2.162 . S
O411 C399 1.281 . S
O412 Mn396 2.297 . S
O412 C399 1.236 . S
N413 Mn397 2.282 . S
N413 C414 1.328 . S
N413 C418 1.318 . S
C414 N413 1.328 . S
C414 C415 1.457 . S
C414 H419 0.929 . S
C415 C414 1.457 . S
C415 C416 1.291 . S
C415 H428 0.931 . S
C416 C415 1.291 . S
C416 C417 1.373 . S
C416 H429 0.929 . S
C417 C416 1.373 . S
C417 C418 1.396 . S
C417 C424 1.403 . S
C418 C408 1.476 . S
C418 N413 1.318 . S
C418 C417 1.396 . S
H419 C414 0.929 . S
O420 Mn396 2.385 . S
O420 C398 1.234 . S
O421 Mn396 2.209 . S
O421 Mn397 2.215 . S
O421 C398 1.283 . S
O422 Mn396 2.094 . S
O422 C400 1.240 . S
O423 Mn397 2.117 . S
O423 C400 1.264 . S
C424 C417 1.403 . S
C424 C425 1.399 . S
C424 H430 0.929 . S
C425 C405 1.449 . S
C425 C424 1.399 . S
C425 H431 0.930 . S
H426 C406 0.931 . S
H427 C407 0.930 . S
H428 C415 0.931 . S
H429 C416 0.929 . S
H430 C424 0.929 . S
H431 C425 0.930 . S
Mn432 O437 2.095 . S
Mn432 O447 2.162 . S
Mn432 O448 2.297 . S
Mn432 O456 2.385 . S
Mn432 O457 2.209 . S
Mn432 O458 2.094 . S
Mn433 O438 2.121 . S
Mn433 N440 2.257 . S
Mn433 N449 2.282 . S
Mn433 O457 2.215 . S
Mn433 O459 2.117 . S
C434 O456 1.234 . S
C434 O457 1.283 . S
C435 O447 1.281 . S
C435 O448 1.236 . S
C436 O458 1.240 . S
C436 O459 1.264 . S
O437 Mn432 2.095 . S
O437 C446 1.250 . S
O438 Mn433 2.121 . S
O438 C446 1.258 . S
C439 N440 1.326 . S
C439 C443 1.460 . S
C439 H445 0.929 . S
N440 Mn433 2.257 . S
N440 C439 1.326 . S
N440 C444 1.362 . S
C441 C442 1.258 . S
C441 C444 1.431 . S
C441 C461 1.449 . S
C442 C441 1.258 . S
C442 C443 1.477 . S
C442 H462 0.931 . S
C443 C439 1.460 . S
C443 C442 1.477 . S
C443 H463 0.930 . S
C444 N440 1.362 . S
C444 C441 1.431 . S
C444 C454 1.476 . S
H445 C439 0.929 . S
C446 O437 1.250 . S
C446 O438 1.258 . S
O447 Mn432 2.162 . S
O447 C435 1.281 . S
O448 Mn432 2.297 . S
O448 C435 1.236 . S
N449 Mn433 2.282 . S
N449 C450 1.328 . S
N449 C454 1.318 . S
C450 N449 1.328 . S
C450 C451 1.457 . S
C450 H455 0.929 . S
C451 C450 1.457 . S
C451 C452 1.291 . S
C451 H464 0.931 . S
C452 C451 1.291 . S
C452 C453 1.373 . S
C452 H465 0.929 . S
C453 C452 1.373 . S
C453 C454 1.396 . S
C453 C460 1.403 . S
C454 C444 1.476 . S
C454 N449 1.318 . S
C454 C453 1.396 . S
H455 C450 0.929 . S
O456 Mn432 2.385 . S
O456 C434 1.234 . S
O457 Mn432 2.209 . S
O457 Mn433 2.215 . S
O457 C434 1.283 . S
O458 Mn432 2.094 . S
O458 C436 1.240 . S
O459 Mn433 2.117 . S
O459 C436 1.264 . S
C460 C453 1.403 . S
C460 C461 1.399 . S
C460 H466 0.929 . S
C461 C441 1.449 . S
C461 C460 1.399 . S
C461 H467 0.930 . S
H462 C442 0.931 . S
H463 C443 0.930 . S
H464 C451 0.931 . S
H465 C452 0.929 . S
H466 C460 0.929 . S
H467 C461 0.930 . S
Mn468 O473 2.095 . S
Mn468 O483 2.162 . S
Mn468 O484 2.297 . S
Mn468 O492 2.385 . S
Mn468 O493 2.209 . S
Mn468 O494 2.094 . S
Mn469 O474 2.121 . S
Mn469 N476 2.257 . S
Mn469 N485 2.282 . S
Mn469 O493 2.215 . S
Mn469 O495 2.117 . S
C470 O492 1.234 . S
C470 O493 1.283 . S
C471 O483 1.281 . S
C471 O484 1.236 . S
C472 O494 1.240 . S
C472 O495 1.264 . S
O473 Mn468 2.095 . S
O473 C482 1.250 . S
O474 Mn469 2.121 . S
O474 C482 1.258 . S
C475 N476 1.326 . S
C475 C479 1.460 . S
C475 H481 0.929 . S
N476 Mn469 2.257 . S
N476 C475 1.326 . S
N476 C480 1.362 . S
C477 C478 1.258 . S
C477 C480 1.431 . S
C477 C497 1.449 . S
C478 C477 1.258 . S
C478 C479 1.477 . S
C478 H498 0.931 . S
C479 C475 1.460 . S
C479 C478 1.477 . S
C479 H499 0.930 . S
C480 N476 1.362 . S
C480 C477 1.431 . S
C480 C490 1.476 . S
H481 C475 0.929 . S
C482 O473 1.250 . S
C482 O474 1.258 . S
O483 Mn468 2.162 . S
O483 C471 1.281 . S
O484 Mn468 2.297 . S
O484 C471 1.236 . S
N485 Mn469 2.282 . S
N485 C486 1.328 . S
N485 C490 1.318 . S
C486 N485 1.328 . S
C486 C487 1.457 . S
C486 H491 0.929 . S
C487 C486 1.457 . S
C487 C488 1.291 . S
C487 H500 0.931 . S
C488 C487 1.291 . S
C488 C489 1.373 . S
C488 H501 0.929 . S
C489 C488 1.373 . S
C489 C490 1.396 . S
C489 C496 1.403 . S
C490 C480 1.476 . S
C490 N485 1.318 . S
C490 C489 1.396 . S
H491 C486 0.929 . S
O492 Mn468 2.385 . S
O492 C470 1.234 . S
O493 Mn468 2.209 . S
O493 Mn469 2.215 . S
O493 C470 1.283 . S
O494 Mn468 2.094 . S
O494 C472 1.240 . S
O495 Mn469 2.117 . S
O495 C472 1.264 . S
C496 C489 1.403 . S
C496 C497 1.399 . S
C496 H502 0.929 . S
C497 C477 1.449 . S
C497 C496 1.399 . S
C497 H503 0.930 . S
H498 C478 0.931 . S
H499 C479 0.930 . S
H500 C487 0.931 . S
H501 C488 0.929 . S
H502 C496 0.929 . S
H503 C497 0.930 . S
Mn504 O509 2.095 . S
Mn504 O519 2.162 . S
Mn504 O520 2.297 . S
Mn504 O528 2.385 . S
Mn504 O529 2.209 . S
Mn504 O530 2.094 . S
Mn505 O510 2.121 . S
Mn505 N512 2.257 . S
Mn505 N521 2.282 . S
Mn505 O529 2.215 . S
Mn505 O531 2.117 . S
C506 O528 1.234 . S
C506 O529 1.283 . S
C507 O519 1.281 . S
C507 O520 1.236 . S
C508 O530 1.240 . S
C508 O531 1.264 . S
O509 Mn504 2.095 . S
O509 C518 1.250 . S
O510 Mn505 2.121 . S
O510 C518 1.258 . S
C511 N512 1.326 . S
C511 C515 1.460 . S
C511 H517 0.929 . S
N512 Mn505 2.257 . S
N512 C511 1.326 . S
N512 C516 1.362 . S
C513 C514 1.258 . S
C513 C516 1.431 . S
C513 C533 1.449 . S
C514 C513 1.258 . S
C514 C515 1.477 . S
C514 H534 0.931 . S
C515 C511 1.460 . S
C515 C514 1.477 . S
C515 H535 0.930 . S
C516 N512 1.362 . S
C516 C513 1.431 . S
C516 C526 1.476 . S
H517 C511 0.929 . S
C518 O509 1.250 . S
C518 O510 1.258 . S
O519 Mn504 2.162 . S
O519 C507 1.281 . S
O520 Mn504 2.297 . S
O520 C507 1.236 . S
N521 Mn505 2.282 . S
N521 C522 1.328 . S
N521 C526 1.318 . S
C522 N521 1.328 . S
C522 C523 1.457 . S
C522 H527 0.929 . S
C523 C522 1.457 . S
C523 C524 1.291 . S
C523 H536 0.931 . S
C524 C523 1.291 . S
C524 C525 1.373 . S
C524 H537 0.929 . S
C525 C524 1.373 . S
C525 C526 1.396 . S
C525 C532 1.403 . S
C526 C516 1.476 . S
C526 N521 1.318 . S
C526 C525 1.396 . S
H527 C522 0.929 . S
O528 Mn504 2.385 . S
O528 C506 1.234 . S
O529 Mn504 2.209 . S
O529 Mn505 2.215 . S
O529 C506 1.283 . S
O530 Mn504 2.094 . S
O530 C508 1.240 . S
O531 Mn505 2.117 . S
O531 C508 1.264 . S
C532 C525 1.403 . S
C532 C533 1.399 . S
C532 H538 0.929 . S
C533 C513 1.449 . S
C533 C532 1.399 . S
C533 H539 0.930 . S
H534 C514 0.931 . S
H535 C515 0.930 . S
H536 C523 0.931 . S
H537 C524 0.929 . S
H538 C532 0.929 . S
H539 C533 0.930 . S
Mn540 O545 2.095 . S
Mn540 O555 2.162 . S
Mn540 O556 2.297 . S
Mn540 O564 2.385 . S
Mn540 O565 2.209 . S
Mn540 O566 2.094 . S
Mn541 O546 2.121 . S
Mn541 N548 2.257 . S
Mn541 N557 2.282 . S
Mn541 O565 2.215 . S
Mn541 O567 2.117 . S
C542 O564 1.234 . S
C542 O565 1.283 . S
C543 O555 1.281 . S
C543 O556 1.236 . S
C544 O566 1.240 . S
C544 O567 1.264 . S
O545 Mn540 2.095 . S
O545 C554 1.250 . S
O546 Mn541 2.121 . S
O546 C554 1.258 . S
C547 N548 1.326 . S
C547 C551 1.460 . S
C547 H553 0.929 . S
N548 Mn541 2.257 . S
N548 C547 1.326 . S
N548 C552 1.362 . S
C549 C550 1.258 . S
C549 C552 1.431 . S
C549 C569 1.449 . S
C550 C549 1.258 . S
C550 C551 1.477 . S
C550 H570 0.931 . S
C551 C547 1.460 . S
C551 C550 1.477 . S
C551 H571 0.930 . S
C552 N548 1.362 . S
C552 C549 1.431 . S
C552 C562 1.476 . S
H553 C547 0.929 . S
C554 O545 1.250 . S
C554 O546 1.258 . S
O555 Mn540 2.162 . S
O555 C543 1.281 . S
O556 Mn540 2.297 . S
O556 C543 1.236 . S
N557 Mn541 2.282 . S
N557 C558 1.328 . S
N557 C562 1.318 . S
C558 N557 1.328 . S
C558 C559 1.457 . S
C558 H563 0.929 . S
C559 C558 1.457 . S
C559 C560 1.291 . S
C559 H572 0.931 . S
C560 C559 1.291 . S
C560 C561 1.373 . S
C560 H573 0.929 . S
C561 C560 1.373 . S
C561 C562 1.396 . S
C561 C568 1.403 . S
C562 C552 1.476 . S
C562 N557 1.318 . S
C562 C561 1.396 . S
H563 C558 0.929 . S
O564 Mn540 2.385 . S
O564 C542 1.234 . S
O565 Mn540 2.209 . S
O565 Mn541 2.215 . S
O565 C542 1.283 . S
O566 Mn540 2.094 . S
O566 C544 1.240 . S
O567 Mn541 2.117 . S
O567 C544 1.264 . S
C568 C561 1.403 . S
C568 C569 1.399 . S
C568 H574 0.929 . S
C569 C549 1.449 . S
C569 C568 1.399 . S
C569 H575 0.930 . S
H570 C550 0.931 . S
H571 C551 0.930 . S
H572 C559 0.931 . S
H573 C560 0.929 . S
H574 C568 0.929 . S
H575 C569 0.930 . S
C576 C577 1.349 . S
C576 C578 1.327 . S
C576 H601 0.950 . S
C577 C576 1.349 . S
C577 C593 1.349 . S
C578 C576 1.327 . S
C578 C597 1.429 . S
C578 H602 0.950 . S
C579 C596 1.574 . S
C579 C598 1.368 . S
C579 H603 0.949 . S
H580 C584 0.949 . S
C581 C582 1.349 . S
C581 C583 1.327 . S
C581 H604 0.950 . S
C582 C581 1.349 . S
C582 C594 1.349 . S
C583 C581 1.327 . S
C583 C599 1.429 . S
C583 H605 0.950 . S
C584 H580 0.949 . S
C584 C592 1.574 . S
C584 C600 1.368 . S
H585 C593 0.950 . S
H586 C591 0.950 . S
H587 C592 0.949 . S
H588 C594 0.950 . S
H589 C595 0.950 . S
H590 C596 0.949 . S
C591 H586 0.950 . S
C591 C593 1.327 . S
C591 C597 1.429 . S
C592 C584 1.574 . S
C592 H587 0.949 . S
C592 C598 1.368 . S
C593 C577 1.349 . S
C593 H585 0.950 . S
C593 C591 1.327 . S
C594 C582 1.349 . S
C594 H588 0.950 . S
C594 C595 1.327 . S
C595 H589 0.950 . S
C595 C594 1.327 . S
C595 C599 1.429 . S
C596 C579 1.574 . S
C596 H590 0.949 . S
C596 C600 1.368 . S
C597 C578 1.429 . S
C597 C591 1.429 . S
C597 C598 1.523 . S
C598 C579 1.368 . S
C598 C592 1.368 . S
C598 C597 1.523 . S
C599 C583 1.429 . S
C599 C595 1.429 . S
C599 C600 1.523 . S
C600 C584 1.368 . S
C600 C596 1.368 . S
C600 C599 1.523 . S
H601 C576 0.950 . S
H602 C578 0.950 . S
H603 C579 0.949 . S
H604 C581 0.950 . S
H605 C583 0.950 . S
C606 C607 1.349 . S
C606 C608 1.327 . S
C606 H631 0.950 . S
C607 C606 1.349 . S
C607 C623 1.349 . S
C608 C606 1.327 . S
C608 C627 1.429 . S
C608 H632 0.950 . S
C609 C626 1.574 . S
C609 C628 1.368 . S
C609 H633 0.949 . S
H610 C614 0.949 . S
C611 C612 1.349 . S
C611 C613 1.327 . S
C611 H634 0.950 . S
C612 C611 1.349 . S
C612 C624 1.349 . S
C613 C611 1.327 . S
C613 C629 1.429 . S
C613 H635 0.950 . S
C614 H610 0.949 . S
C614 C622 1.574 . S
C614 C630 1.368 . S
H615 C623 0.950 . S
H616 C621 0.950 . S
H617 C622 0.949 . S
H618 C624 0.950 . S
H619 C625 0.950 . S
H620 C626 0.949 . S
C621 H616 0.950 . S
C621 C623 1.327 . S
C621 C627 1.429 . S
C622 C614 1.574 . S
C622 H617 0.949 . S
C622 C628 1.368 . S
C623 C607 1.349 . S
C623 H615 0.950 . S
C623 C621 1.327 . S
C624 C612 1.349 . S
C624 H618 0.950 . S
C624 C625 1.327 . S
C625 H619 0.950 . S
C625 C624 1.327 . S
C625 C629 1.429 . S
C626 C609 1.574 . S
C626 H620 0.949 . S
C626 C630 1.368 . S
C627 C608 1.429 . S
C627 C621 1.429 . S
C627 C628 1.523 . S
C628 C609 1.368 . S
C628 C622 1.368 . S
C628 C627 1.523 . S
C629 C613 1.429 . S
C629 C625 1.429 . S
C629 C630 1.523 . S
C630 C614 1.368 . S
C630 C626 1.368 . S
C630 C629 1.523 . S
H631 C606 0.950 . S
H632 C608 0.950 . S
H633 C609 0.949 . S
H634 C611 0.950 . S
H635 C613 0.950 . S
C636 C637 1.349 . S
C636 C638 1.327 . S
C636 H661 0.950 . S
C637 C636 1.349 . S
C637 C653 1.349 . S
C638 C636 1.327 . S
C638 C657 1.429 . S
C638 H662 0.950 . S
C639 C656 1.574 . S
C639 C658 1.368 . S
C639 H663 0.949 . S
H640 C644 0.949 . S
C641 C642 1.349 . S
C641 C643 1.327 . S
C641 H664 0.950 . S
C642 C641 1.349 . S
C642 C654 1.349 . S
C643 C641 1.327 . S
C643 C659 1.429 . S
C643 H665 0.950 . S
C644 H640 0.949 . S
C644 C652 1.574 . S
C644 C660 1.368 . S
H645 C653 0.950 . S
H646 C651 0.950 . S
H647 C652 0.949 . S
H648 C654 0.950 . S
H649 C655 0.950 . S
H650 C656 0.949 . S
C651 H646 0.950 . S
C651 C653 1.327 . S
C651 C657 1.429 . S
C652 C644 1.574 . S
C652 H647 0.949 . S
C652 C658 1.368 . S
C653 C637 1.349 . S
C653 H645 0.950 . S
C653 C651 1.327 . S
C654 C642 1.349 . S
C654 H648 0.950 . S
C654 C655 1.327 . S
C655 H649 0.950 . S
C655 C654 1.327 . S
C655 C659 1.429 . S
C656 C639 1.574 . S
C656 H650 0.949 . S
C656 C660 1.368 . S
C657 C638 1.429 . S
C657 C651 1.429 . S
C657 C658 1.523 . S
C658 C639 1.368 . S
C658 C652 1.368 . S
C658 C657 1.523 . S
C659 C643 1.429 . S
C659 C655 1.429 . S
C659 C660 1.523 . S
C660 C644 1.368 . S
C660 C656 1.368 . S
C660 C659 1.523 . S
H661 C636 0.950 . S
H662 C638 0.950 . S
H663 C639 0.949 . S
H664 C641 0.950 . S
H665 C643 0.950 . S
C666 C667 1.349 . S
C666 C668 1.327 . S
C666 H691 0.950 . S
C667 C666 1.349 . S
C667 C683 1.349 . S
C668 C666 1.327 . S
C668 C687 1.429 . S
C668 H692 0.950 . S
C669 C686 1.574 . S
C669 C688 1.368 . S
C669 H693 0.949 . S
H670 C674 0.949 . S
C671 C672 1.349 . S
C671 C673 1.327 . S
C671 H694 0.950 . S
C672 C671 1.349 . S
C672 C684 1.349 . S
C673 C671 1.327 . S
C673 C689 1.429 . S
C673 H695 0.950 . S
C674 H670 0.949 . S
C674 C682 1.574 . S
C674 C690 1.368 . S
H675 C683 0.950 . S
H676 C681 0.950 . S
H677 C682 0.949 . S
H678 C684 0.950 . S
H679 C685 0.950 . S
H680 C686 0.949 . S
C681 H676 0.950 . S
C681 C683 1.327 . S
C681 C687 1.429 . S
C682 C674 1.574 . S
C682 H677 0.949 . S
C682 C688 1.368 . S
C683 C667 1.349 . S
C683 H675 0.950 . S
C683 C681 1.327 . S
C684 C672 1.349 . S
C684 H678 0.950 . S
C684 C685 1.327 . S
C685 H679 0.950 . S
C685 C684 1.327 . S
C685 C689 1.429 . S
C686 C669 1.574 . S
C686 H680 0.949 . S
C686 C690 1.368 . S
C687 C668 1.429 . S
C687 C681 1.429 . S
C687 C688 1.523 . S
C688 C669 1.368 . S
C688 C682 1.368 . S
C688 C687 1.523 . S
C689 C673 1.429 . S
C689 C685 1.429 . S
C689 C690 1.523 . S
C690 C674 1.368 . S
C690 C686 1.368 . S
C690 C689 1.523 . S
H691 C666 0.950 . S
H692 C668 0.950 . S
H693 C669 0.949 . S
H694 C671 0.950 . S
H695 C673 0.950 . S
C696 C697 1.349 . S
C696 C698 1.327 . S
C696 H721 0.950 . S
C697 C696 1.349 . S
C697 C713 1.349 . S
C698 C696 1.327 . S
C698 C717 1.429 . S
C698 H722 0.950 . S
C699 C716 1.574 . S
C699 C718 1.368 . S
C699 H723 0.949 . S
H700 C704 0.949 . S
C701 C702 1.349 . S
C701 C703 1.327 . S
C701 H724 0.950 . S
C702 C701 1.349 . S
C702 C714 1.349 . S
C703 C701 1.327 . S
C703 C719 1.429 . S
C703 H725 0.950 . S
C704 H700 0.949 . S
C704 C712 1.574 . S
C704 C720 1.368 . S
H705 C713 0.950 . S
H706 C711 0.950 . S
H707 C712 0.949 . S
H708 C714 0.950 . S
H709 C715 0.950 . S
H710 C716 0.949 . S
C711 H706 0.950 . S
C711 C713 1.327 . S
C711 C717 1.429 . S
C712 C704 1.574 . S
C712 H707 0.949 . S
C712 C718 1.368 . S
C713 C697 1.349 . S
C713 H705 0.950 . S
C713 C711 1.327 . S
C714 C702 1.349 . S
C714 H708 0.950 . S
C714 C715 1.327 . S
C715 H709 0.950 . S
C715 C714 1.327 . S
C715 C719 1.429 . S
C716 C699 1.574 . S
C716 H710 0.949 . S
C716 C720 1.368 . S
C717 C698 1.429 . S
C717 C711 1.429 . S
C717 C718 1.523 . S
C718 C699 1.368 . S
C718 C712 1.368 . S
C718 C717 1.523 . S
C719 C703 1.429 . S
C719 C715 1.429 . S
C719 C720 1.523 . S
C720 C704 1.368 . S
C720 C716 1.368 . S
C720 C719 1.523 . S
H721 C696 0.950 . S
H722 C698 0.950 . S
H723 C699 0.949 . S
H724 C701 0.950 . S
H725 C703 0.950 . S
C726 C727 1.349 . S
C726 C728 1.327 . S
C726 H751 0.950 . S
C727 C726 1.349 . S
C727 C743 1.349 . S
C728 C726 1.327 . S
C728 C747 1.429 . S
C728 H752 0.950 . S
C729 C746 1.574 . S
C729 C748 1.368 . S
C729 H753 0.949 . S
H730 C734 0.949 . S
C731 C732 1.349 . S
C731 C733 1.327 . S
C731 H754 0.950 . S
C732 C731 1.349 . S
C732 C744 1.349 . S
C733 C731 1.327 . S
C733 C749 1.429 . S
C733 H755 0.950 . S
C734 H730 0.949 . S
C734 C742 1.574 . S
C734 C750 1.368 . S
H735 C743 0.950 . S
H736 C741 0.950 . S
H737 C742 0.949 . S
H738 C744 0.950 . S
H739 C745 0.950 . S
H740 C746 0.949 . S
C741 H736 0.950 . S
C741 C743 1.327 . S
C741 C747 1.429 . S
C742 C734 1.574 . S
C742 H737 0.949 . S
C742 C748 1.368 . S
C743 C727 1.349 . S
C743 H735 0.950 . S
C743 C741 1.327 . S
C744 C732 1.349 . S
C744 H738 0.950 . S
C744 C745 1.327 . S
C745 H739 0.950 . S
C745 C744 1.327 . S
C745 C749 1.429 . S
C746 C729 1.574 . S
C746 H740 0.949 . S
C746 C750 1.368 . S
C747 C728 1.429 . S
C747 C741 1.429 . S
C747 C748 1.523 . S
C748 C729 1.368 . S
C748 C742 1.368 . S
C748 C747 1.523 . S
C749 C733 1.429 . S
C749 C745 1.429 . S
C749 C750 1.523 . S
C750 C734 1.368 . S
C750 C746 1.368 . S
C750 C749 1.523 . S
H751 C726 0.950 . S
H752 C728 0.950 . S
H753 C729 0.949 . S
H754 C731 0.950 . S
H755 C733 0.950 . S
C756 C757 1.349 . S
C756 C758 1.327 . S
C756 H781 0.950 . S
C757 C756 1.349 . S
C757 C773 1.349 . S
C758 C756 1.327 . S
C758 C777 1.429 . S
C758 H782 0.950 . S
C759 C776 1.574 . S
C759 C778 1.368 . S
C759 H783 0.949 . S
H760 C764 0.949 . S
C761 C762 1.349 . S
C761 C763 1.327 . S
C761 H784 0.950 . S
C762 C761 1.349 . S
C762 C774 1.349 . S
C763 C761 1.327 . S
C763 C779 1.429 . S
C763 H785 0.950 . S
C764 H760 0.949 . S
C764 C772 1.574 . S
C764 C780 1.368 . S
H765 C773 0.950 . S
H766 C771 0.950 . S
H767 C772 0.949 . S
H768 C774 0.950 . S
H769 C775 0.950 . S
H770 C776 0.949 . S
C771 H766 0.950 . S
C771 C773 1.327 . S
C771 C777 1.429 . S
C772 C764 1.574 . S
C772 H767 0.949 . S
C772 C778 1.368 . S
C773 C757 1.349 . S
C773 H765 0.950 . S
C773 C771 1.327 . S
C774 C762 1.349 . S
C774 H768 0.950 . S
C774 C775 1.327 . S
C775 H769 0.950 . S
C775 C774 1.327 . S
C775 C779 1.429 . S
C776 C759 1.574 . S
C776 H770 0.949 . S
C776 C780 1.368 . S
C777 C758 1.429 . S
C777 C771 1.429 . S
C777 C778 1.523 . S
C778 C759 1.368 . S
C778 C772 1.368 . S
C778 C777 1.523 . S
C779 C763 1.429 . S
C779 C775 1.429 . S
C779 C780 1.523 . S
C780 C764 1.368 . S
C780 C776 1.368 . S
C780 C779 1.523 . S
H781 C756 0.950 . S
H782 C758 0.950 . S
H783 C759 0.949 . S
H784 C761 0.950 . S
H785 C763 0.950 . S
C786 C787 1.349 . S
C786 C788 1.327 . S
C786 H811 0.950 . S
C787 C786 1.349 . S
C787 C803 1.349 . S
C788 C786 1.327 . S
C788 C807 1.429 . S
C788 H812 0.950 . S
C789 C806 1.574 . S
C789 C808 1.368 . S
C789 H813 0.949 . S
H790 C794 0.949 . S
C791 C792 1.349 . S
C791 C793 1.327 . S
C791 H814 0.950 . S
C792 C791 1.349 . S
C792 C804 1.349 . S
C793 C791 1.327 . S
C793 C809 1.429 . S
C793 H815 0.950 . S
C794 H790 0.949 . S
C794 C802 1.574 . S
C794 C810 1.368 . S
H795 C803 0.950 . S
H796 C801 0.950 . S
H797 C802 0.949 . S
H798 C804 0.950 . S
H799 C805 0.950 . S
H800 C806 0.949 . S
C801 H796 0.950 . S
C801 C803 1.327 . S
C801 C807 1.429 . S
C802 C794 1.574 . S
C802 H797 0.949 . S
C802 C808 1.368 . S
C803 C787 1.349 . S
C803 H795 0.950 . S
C803 C801 1.327 . S
C804 C792 1.349 . S
C804 H798 0.950 . S
C804 C805 1.327 . S
C805 H799 0.950 . S
C805 C804 1.327 . S
C805 C809 1.429 . S
C806 C789 1.574 . S
C806 H800 0.949 . S
C806 C810 1.368 . S
C807 C788 1.429 . S
C807 C801 1.429 . S
C807 C808 1.523 . S
C808 C789 1.368 . S
C808 C802 1.368 . S
C808 C807 1.523 . S
C809 C793 1.429 . S
C809 C805 1.429 . S
C809 C810 1.523 . S
C810 C794 1.368 . S
C810 C806 1.368 . S
C810 C809 1.523 . S
H811 C786 0.950 . S
H812 C788 0.950 . S
H813 C789 0.949 . S
H814 C791 0.950 . S
H815 C793 0.950 . S
C816 C817 1.349 . S
C816 C818 1.327 . S
C816 H841 0.950 . S
C817 C816 1.349 . S
C817 C833 1.349 . S
C818 C816 1.327 . S
C818 C837 1.429 . S
C818 H842 0.950 . S
C819 C836 1.574 1_556 S
C819 C838 1.368 . S
C819 H843 0.949 . S
H820 C824 0.949 . S
C821 C822 1.349 . S
C821 C823 1.327 . S
C821 H844 0.950 . S
C822 C821 1.349 . S
C822 C834 1.349 . S
C823 C821 1.327 . S
C823 C839 1.429 . S
C823 H845 0.950 . S
C824 H820 0.949 . S
C824 C832 1.574 1_554 S
C824 C840 1.368 . S
H825 C833 0.950 . S
H826 C831 0.950 . S
H827 C832 0.949 . S
H828 C834 0.950 . S
H829 C835 0.950 . S
H830 C836 0.949 . S
C831 H826 0.950 . S
C831 C833 1.327 . S
C831 C837 1.429 . S
C832 C824 1.574 1_556 S
C832 H827 0.949 . S
C832 C838 1.368 . S
C833 C817 1.349 . S
C833 H825 0.950 . S
C833 C831 1.327 . S
C834 C822 1.349 . S
C834 H828 0.950 . S
C834 C835 1.327 . S
C835 H829 0.950 . S
C835 C834 1.327 . S
C835 C839 1.429 . S
C836 C819 1.574 1_554 S
C836 H830 0.949 . S
C836 C840 1.368 . S
C837 C818 1.429 . S
C837 C831 1.429 . S
C837 C838 1.523 . S
C838 C819 1.368 . S
C838 C832 1.368 . S
C838 C837 1.523 . S
C839 C823 1.429 . S
C839 C835 1.429 . S
C839 C840 1.523 . S
C840 C824 1.368 . S
C840 C836 1.368 . S
C840 C839 1.523 . S
H841 C816 0.950 . S
H842 C818 0.950 . S
H843 C819 0.949 . S
H844 C821 0.950 . S
H845 C823 0.950 . S
C846 C847 1.349 . S
C846 C848 1.327 . S
C846 H871 0.950 . S
C847 C846 1.349 . S
C847 C863 1.349 . S
C848 C846 1.327 . S
C848 C867 1.429 . S
C848 H872 0.950 . S
C849 C866 1.574 1_556 S
C849 C868 1.368 . S
C849 H873 0.949 . S
H850 C854 0.949 . S
C851 C852 1.349 . S
C851 C853 1.327 . S
C851 H874 0.950 . S
C852 C851 1.349 . S
C852 C864 1.349 . S
C853 C851 1.327 . S
C853 C869 1.429 . S
C853 H875 0.950 . S
C854 H850 0.949 . S
C854 C862 1.574 1_554 S
C854 C870 1.368 . S
H855 C863 0.950 . S
H856 C861 0.950 . S
H857 C862 0.949 . S
H858 C864 0.950 . S
H859 C865 0.950 . S
H860 C866 0.949 . S
C861 H856 0.950 . S
C861 C863 1.327 . S
C861 C867 1.429 . S
C862 C854 1.574 1_556 S
C862 H857 0.949 . S
C862 C868 1.368 . S
C863 C847 1.349 . S
C863 H855 0.950 . S
C863 C861 1.327 . S
C864 C852 1.349 . S
C864 H858 0.950 . S
C864 C865 1.327 . S
C865 H859 0.950 . S
C865 C864 1.327 . S
C865 C869 1.429 . S
C866 C849 1.574 1_554 S
C866 H860 0.949 . S
C866 C870 1.368 . S
C867 C848 1.429 . S
C867 C861 1.429 . S
C867 C868 1.523 . S
C868 C849 1.368 . S
C868 C862 1.368 . S
C868 C867 1.523 . S
C869 C853 1.429 . S
C869 C865 1.429 . S
C869 C870 1.523 . S
C870 C854 1.368 . S
C870 C866 1.368 . S
C870 C869 1.523 . S
H871 C846 0.950 . S
H872 C848 0.950 . S
H873 C849 0.949 . S
H874 C851 0.950 . S
H875 C853 0.950 . S
C876 C877 1.349 . S
C876 C878 1.327 . S
C876 H901 0.950 . S
C877 C876 1.349 . S
C877 C893 1.349 . S
C878 C876 1.327 . S
C878 C897 1.429 . S
C878 H902 0.950 . S
C879 C896 1.574 1_556 S
C879 C898 1.368 . S
C879 H903 0.949 . S
H880 C884 0.949 . S
C881 C882 1.349 . S
C881 C883 1.327 . S
C881 H904 0.950 . S
C882 C881 1.349 . S
C882 C894 1.349 . S
C883 C881 1.327 . S
C883 C899 1.429 . S
C883 H905 0.950 . S
C884 H880 0.949 . S
C884 C892 1.574 1_554 S
C884 C900 1.368 . S
H885 C893 0.950 . S
H886 C891 0.950 . S
H887 C892 0.949 . S
H888 C894 0.950 . S
H889 C895 0.950 . S
H890 C896 0.949 . S
C891 H886 0.950 . S
C891 C893 1.327 . S
C891 C897 1.429 . S
C892 C884 1.574 1_556 S
C892 H887 0.949 . S
C892 C898 1.368 . S
C893 C877 1.349 . S
C893 H885 0.950 . S
C893 C891 1.327 . S
C894 C882 1.349 . S
C894 H888 0.950 . S
C894 C895 1.327 . S
C895 H889 0.950 . S
C895 C894 1.327 . S
C895 C899 1.429 . S
C896 C879 1.574 1_554 S
C896 H890 0.949 . S
C896 C900 1.368 . S
C897 C878 1.429 . S
C897 C891 1.429 . S
C897 C898 1.523 . S
C898 C879 1.368 . S
C898 C892 1.368 . S
C898 C897 1.523 . S
C899 C883 1.429 . S
C899 C895 1.429 . S
C899 C900 1.523 . S
C900 C884 1.368 . S
C900 C896 1.368 . S
C900 C899 1.523 . S
H901 C876 0.950 . S
H902 C878 0.950 . S
H903 C879 0.949 . S
H904 C881 0.950 . S
H905 C883 0.950 . S
C906 C907 1.349 . S
C906 C908 1.327 . S
C906 H931 0.950 . S
C907 C906 1.349 . S
C907 C923 1.349 . S
C908 C906 1.327 . S
C908 C927 1.429 . S
C908 H932 0.950 . S
C909 C926 1.574 1_554 S
C909 C928 1.368 . S
C909 H933 0.949 . S
H910 C914 0.949 . S
C911 C912 1.349 . S
C911 C913 1.327 . S
C911 H934 0.950 . S
C912 C911 1.349 . S
C912 C924 1.349 . S
C913 C911 1.327 . S
C913 C929 1.429 . S
C913 H935 0.950 . S
C914 H910 0.949 . S
C914 C922 1.574 1_556 S
C914 C930 1.368 . S
H915 C923 0.950 . S
H916 C921 0.950 . S
H917 C922 0.949 . S
H918 C924 0.950 . S
H919 C925 0.950 . S
H920 C926 0.949 . S
C921 H916 0.950 . S
C921 C923 1.327 . S
C921 C927 1.429 . S
C922 C914 1.574 1_554 S
C922 H917 0.949 . S
C922 C928 1.368 . S
C923 C907 1.349 . S
C923 H915 0.950 . S
C923 C921 1.327 . S
C924 C912 1.349 . S
C924 H918 0.950 . S
C924 C925 1.327 . S
C925 H919 0.950 . S
C925 C924 1.327 . S
C925 C929 1.429 . S
C926 C909 1.574 1_556 S
C926 H920 0.949 . S
C926 C930 1.368 . S
C927 C908 1.429 . S
C927 C921 1.429 . S
C927 C928 1.523 . S
C928 C909 1.368 . S
C928 C922 1.368 . S
C928 C927 1.523 . S
C929 C913 1.429 . S
C929 C925 1.429 . S
C929 C930 1.523 . S
C930 C914 1.368 . S
C930 C926 1.368 . S
C930 C929 1.523 . S
H931 C906 0.950 . S
H932 C908 0.950 . S
H933 C909 0.949 . S
H934 C911 0.950 . S
H935 C913 0.950 . S
C936 C937 1.349 . S
C936 C938 1.327 . S
C936 H961 0.950 . S
C937 C936 1.349 . S
C937 C953 1.349 . S
C938 C936 1.327 . S
C938 C957 1.429 . S
C938 H962 0.950 . S
C939 C956 1.574 . S
C939 C958 1.368 . S
C939 H963 0.949 . S
H940 C944 0.949 . S
C941 C942 1.349 . S
C941 C943 1.327 . S
C941 H964 0.950 . S
C942 C941 1.349 . S
C942 C954 1.349 . S
C943 C941 1.327 . S
C943 C959 1.429 . S
C943 H965 0.950 . S
C944 H940 0.949 . S
C944 C952 1.574 . S
C944 C960 1.368 . S
H945 C953 0.950 . S
H946 C951 0.950 . S
H947 C952 0.949 . S
H948 C954 0.950 . S
H949 C955 0.950 . S
H950 C956 0.949 . S
C951 H946 0.950 . S
C951 C953 1.327 . S
C951 C957 1.429 . S
C952 C944 1.574 . S
C952 H947 0.949 . S
C952 C958 1.368 . S
C953 C937 1.349 . S
C953 H945 0.950 . S
C953 C951 1.327 . S
C954 C942 1.349 . S
C954 H948 0.950 . S
C954 C955 1.327 . S
C955 H949 0.950 . S
C955 C954 1.327 . S
C955 C959 1.429 . S
C956 C939 1.574 . S
C956 H950 0.949 . S
C956 C960 1.368 . S
C957 C938 1.429 . S
C957 C951 1.429 . S
C957 C958 1.523 . S
C958 C939 1.368 . S
C958 C952 1.368 . S
C958 C957 1.523 . S
C959 C943 1.429 . S
C959 C955 1.429 . S
C959 C960 1.523 . S
C960 C944 1.368 . S
C960 C956 1.368 . S
C960 C959 1.523 . S
H961 C936 0.950 . S
H962 C938 0.950 . S
H963 C939 0.949 . S
H964 C941 0.950 . S
H965 C943 0.950 . S
C966 C967 1.349 . S
C966 C968 1.327 . S
C966 H991 0.950 . S
C967 C966 1.349 . S
C967 C983 1.349 . S
C968 C966 1.327 . S
C968 C987 1.429 . S
C968 H992 0.950 . S
C969 C986 1.574 . S
C969 C988 1.368 . S
C969 H993 0.949 . S
H970 C974 0.949 . S
C971 C972 1.349 . S
C971 C973 1.327 . S
C971 H994 0.950 . S
C972 C971 1.349 . S
C972 C984 1.349 . S
C973 C971 1.327 . S
C973 C989 1.429 . S
C973 H995 0.950 . S
C974 H970 0.949 . S
C974 C982 1.574 . S
C974 C990 1.368 . S
H975 C983 0.950 . S
H976 C981 0.950 . S
H977 C982 0.949 . S
H978 C984 0.950 . S
H979 C985 0.950 . S
H980 C986 0.949 . S
C981 H976 0.950 . S
C981 C983 1.327 . S
C981 C987 1.429 . S
C982 C974 1.574 . S
C982 H977 0.949 . S
C982 C988 1.368 . S
C983 C967 1.349 . S
C983 H975 0.950 . S
C983 C981 1.327 . S
C984 C972 1.349 . S
C984 H978 0.950 . S
C984 C985 1.327 . S
C985 H979 0.950 . S
C985 C984 1.327 . S
C985 C989 1.429 . S
C986 C969 1.574 . S
C986 H980 0.949 . S
C986 C990 1.368 . S
C987 C968 1.429 . S
C987 C981 1.429 . S
C987 C988 1.523 . S
C988 C969 1.368 . S
C988 C982 1.368 . S
C988 C987 1.523 . S
C989 C973 1.429 . S
C989 C985 1.429 . S
C989 C990 1.523 . S
C990 C974 1.368 . S
C990 C986 1.368 . S
C990 C989 1.523 . S
H991 C966 0.950 . S
H992 C968 0.950 . S
H993 C969 0.949 . S
H994 C971 0.950 . S
H995 C973 0.950 . S
C996 C997 1.349 . S
C996 C998 1.327 . S
C996 H1021 0.950 . S
C997 C996 1.349 . S
C997 C1013 1.349 . S
C998 C996 1.327 . S
C998 C1017 1.429 . S
C998 H1022 0.950 . S
C999 C1016 1.574 . S
C999 C1018 1.368 . S
C999 H1023 0.949 . S
H1000 C1004 0.949 . S
C1001 C1002 1.349 . S
C1001 C1003 1.327 . S
C1001 H1024 0.950 . S
C1002 C1001 1.349 . S
C1002 C1014 1.349 . S
C1003 C1001 1.327 . S
C1003 C1019 1.429 . S
C1003 H1025 0.950 . S
C1004 H1000 0.949 . S
C1004 C1012 1.574 . S
C1004 C1020 1.368 . S
H1005 C1013 0.950 . S
H1006 C1011 0.950 . S
H1007 C1012 0.949 . S
H1008 C1014 0.950 . S
H1009 C1015 0.950 . S
H1010 C1016 0.949 . S
C1011 H1006 0.950 . S
C1011 C1013 1.327 . S
C1011 C1017 1.429 . S
C1012 C1004 1.574 . S
C1012 H1007 0.949 . S
C1012 C1018 1.368 . S
C1013 C997 1.349 . S
C1013 H1005 0.950 . S
C1013 C1011 1.327 . S
C1014 C1002 1.349 . S
C1014 H1008 0.950 . S
C1014 C1015 1.327 . S
C1015 H1009 0.950 . S
C1015 C1014 1.327 . S
C1015 C1019 1.429 . S
C1016 C999 1.574 . S
C1016 H1010 0.949 . S
C1016 C1020 1.368 . S
C1017 C998 1.429 . S
C1017 C1011 1.429 . S
C1017 C1018 1.523 . S
C1018 C999 1.368 . S
C1018 C1012 1.368 . S
C1018 C1017 1.523 . S
C1019 C1003 1.429 . S
C1019 C1015 1.429 . S
C1019 C1020 1.523 . S
C1020 C1004 1.368 . S
C1020 C1016 1.368 . S
C1020 C1019 1.523 . S
H1021 C996 0.950 . S
H1022 C998 0.950 . S
H1023 C999 0.949 . S
H1024 C1001 0.950 . S
H1025 C1003 0.950 . S
C1026 C1027 1.349 . S
C1026 C1028 1.327 . S
C1026 H1051 0.950 . S
C1027 C1026 1.349 . S
C1027 C1043 1.349 . S
C1028 C1026 1.327 . S
C1028 C1047 1.429 . S
C1028 H1052 0.950 . S
C1029 C1046 1.574 . S
C1029 C1048 1.368 . S
C1029 H1053 0.949 . S
H1030 C1034 0.949 . S
C1031 C1032 1.349 . S
C1031 C1033 1.327 . S
C1031 H1054 0.950 . S
C1032 C1031 1.349 . S
C1032 C1044 1.349 . S
C1033 C1031 1.327 . S
C1033 C1049 1.429 . S
C1033 H1055 0.950 . S
C1034 H1030 0.949 . S
C1034 C1042 1.574 . S
C1034 C1050 1.368 . S
H1035 C1043 0.950 . S
H1036 C1041 0.950 . S
H1037 C1042 0.949 . S
H1038 C1044 0.950 . S
H1039 C1045 0.950 . S
H1040 C1046 0.949 . S
C1041 H1036 0.950 . S
C1041 C1043 1.327 . S
C1041 C1047 1.429 . S
C1042 C1034 1.574 . S
C1042 H1037 0.949 . S
C1042 C1048 1.368 . S
C1043 C1027 1.349 . S
C1043 H1035 0.950 . S
C1043 C1041 1.327 . S
C1044 C1032 1.349 . S
C1044 H1038 0.950 . S
C1044 C1045 1.327 . S
C1045 H1039 0.950 . S
C1045 C1044 1.327 . S
C1045 C1049 1.429 . S
C1046 C1029 1.574 . S
C1046 H1040 0.949 . S
C1046 C1050 1.368 . S
C1047 C1028 1.429 . S
C1047 C1041 1.429 . S
C1047 C1048 1.523 . S
C1048 C1029 1.368 . S
C1048 C1042 1.368 . S
C1048 C1047 1.523 . S
C1049 C1033 1.429 . S
C1049 C1045 1.429 . S
C1049 C1050 1.523 . S
C1050 C1034 1.368 . S
C1050 C1046 1.368 . S
C1050 C1049 1.523 . S
H1051 C1026 0.950 . S
H1052 C1028 0.950 . S
H1053 C1029 0.949 . S
H1054 C1031 0.950 . S
H1055 C1033 0.950 . S
C1056 C1057 1.349 . S
C1056 C1058 1.327 . S
C1056 H1081 0.950 . S
C1057 C1056 1.349 . S
C1057 C1073 1.349 . S
C1058 C1056 1.327 . S
C1058 C1077 1.429 . S
C1058 H1082 0.950 . S
C1059 C1076 1.574 . S
C1059 C1078 1.368 . S
C1059 H1083 0.949 . S
H1060 C1064 0.949 . S
C1061 C1062 1.349 . S
C1061 C1063 1.327 . S
C1061 H1084 0.950 . S
C1062 C1061 1.349 . S
C1062 C1074 1.349 . S
C1063 C1061 1.327 . S
C1063 C1079 1.429 . S
C1063 H1085 0.950 . S
C1064 H1060 0.949 . S
C1064 C1072 1.574 . S
C1064 C1080 1.368 . S
H1065 C1073 0.950 . S
H1066 C1071 0.950 . S
H1067 C1072 0.949 . S
H1068 C1074 0.950 . S
H1069 C1075 0.950 . S
H1070 C1076 0.949 . S
C1071 H1066 0.950 . S
C1071 C1073 1.327 . S
C1071 C1077 1.429 . S
C1072 C1064 1.574 . S
C1072 H1067 0.949 . S
C1072 C1078 1.368 . S
C1073 C1057 1.349 . S
C1073 H1065 0.950 . S
C1073 C1071 1.327 . S
C1074 C1062 1.349 . S
C1074 H1068 0.950 . S
C1074 C1075 1.327 . S
C1075 H1069 0.950 . S
C1075 C1074 1.327 . S
C1075 C1079 1.429 . S
C1076 C1059 1.574 . S
C1076 H1070 0.949 . S
C1076 C1080 1.368 . S
C1077 C1058 1.429 . S
C1077 C1071 1.429 . S
C1077 C1078 1.523 . S
C1078 C1059 1.368 . S
C1078 C1072 1.368 . S
C1078 C1077 1.523 . S
C1079 C1063 1.429 . S
C1079 C1075 1.429 . S
C1079 C1080 1.523 . S
C1080 C1064 1.368 . S
C1080 C1076 1.368 . S
C1080 C1079 1.523 . S
H1081 C1056 0.950 . S
H1082 C1058 0.950 . S
H1083 C1059 0.949 . S
H1084 C1061 0.950 . S
H1085 C1063 0.950 . S
C1086 C1087 1.349 . S
C1086 C1088 1.327 . S
C1086 H1111 0.950 . S
C1087 C1086 1.349 . S
C1087 C1103 1.349 . S
C1088 C1086 1.327 . S
C1088 C1107 1.429 . S
C1088 H1112 0.950 . S
C1089 C1106 1.574 . S
C1089 C1108 1.368 . S
C1089 H1113 0.949 . S
H1090 C1094 0.949 . S
C1091 C1092 1.349 . S
C1091 C1093 1.327 . S
C1091 H1114 0.950 . S
C1092 C1091 1.349 . S
C1092 C1104 1.349 . S
C1093 C1091 1.327 . S
C1093 C1109 1.429 . S
C1093 H1115 0.950 . S
C1094 H1090 0.949 . S
C1094 C1102 1.574 . S
C1094 C1110 1.368 . S
H1095 C1103 0.950 . S
H1096 C1101 0.950 . S
H1097 C1102 0.949 . S
H1098 C1104 0.950 . S
H1099 C1105 0.950 . S
H1100 C1106 0.949 . S
C1101 H1096 0.950 . S
C1101 C1103 1.327 . S
C1101 C1107 1.429 . S
C1102 C1094 1.574 . S
C1102 H1097 0.949 . S
C1102 C1108 1.368 . S
C1103 C1087 1.349 . S
C1103 H1095 0.950 . S
C1103 C1101 1.327 . S
C1104 C1092 1.349 . S
C1104 H1098 0.950 . S
C1104 C1105 1.327 . S
C1105 H1099 0.950 . S
C1105 C1104 1.327 . S
C1105 C1109 1.429 . S
C1106 C1089 1.574 . S
C1106 H1100 0.949 . S
C1106 C1110 1.368 . S
C1107 C1088 1.429 . S
C1107 C1101 1.429 . S
C1107 C1108 1.523 . S
C1108 C1089 1.368 . S
C1108 C1102 1.368 . S
C1108 C1107 1.523 . S
C1109 C1093 1.429 . S
C1109 C1105 1.429 . S
C1109 C1110 1.523 . S
C1110 C1094 1.368 . S
C1110 C1106 1.368 . S
C1110 C1109 1.523 . S
H1111 C1086 0.950 . S
H1112 C1088 0.950 . S
H1113 C1089 0.949 . S
H1114 C1091 0.950 . S
H1115 C1093 0.950 . S
C1116 C1117 1.349 . S
C1116 C1118 1.327 . S
C1116 H1141 0.950 . S
C1117 C1116 1.349 . S
C1117 C1133 1.349 . S
C1118 C1116 1.327 . S
C1118 C1137 1.429 . S
C1118 H1142 0.950 . S
C1119 C1136 1.574 . S
C1119 C1138 1.368 . S
C1119 H1143 0.949 . S
H1120 C1124 0.949 . S
C1121 C1122 1.349 . S
C1121 C1123 1.327 . S
C1121 H1144 0.950 . S
C1122 C1121 1.349 . S
C1122 C1134 1.349 . S
C1123 C1121 1.327 . S
C1123 C1139 1.429 . S
C1123 H1145 0.950 . S
C1124 H1120 0.949 . S
C1124 C1132 1.574 . S
C1124 C1140 1.368 . S
H1125 C1133 0.950 . S
H1126 C1131 0.950 . S
H1127 C1132 0.949 . S
H1128 C1134 0.950 . S
H1129 C1135 0.950 . S
H1130 C1136 0.949 . S
C1131 H1126 0.950 . S
C1131 C1133 1.327 . S
C1131 C1137 1.429 . S
C1132 C1124 1.574 . S
C1132 H1127 0.949 . S
C1132 C1138 1.368 . S
C1133 C1117 1.349 . S
C1133 H1125 0.950 . S
C1133 C1131 1.327 . S
C1134 C1122 1.349 . S
C1134 H1128 0.950 . S
C1134 C1135 1.327 . S
C1135 H1129 0.950 . S
C1135 C1134 1.327 . S
C1135 C1139 1.429 . S
C1136 C1119 1.574 . S
C1136 H1130 0.949 . S
C1136 C1140 1.368 . S
C1137 C1118 1.429 . S
C1137 C1131 1.429 . S
C1137 C1138 1.523 . S
C1138 C1119 1.368 . S
C1138 C1132 1.368 . S
C1138 C1137 1.523 . S
C1139 C1123 1.429 . S
C1139 C1135 1.429 . S
C1139 C1140 1.523 . S
C1140 C1124 1.368 . S
C1140 C1136 1.368 . S
C1140 C1139 1.523 . S
H1141 C1116 0.950 . S
H1142 C1118 0.950 . S
H1143 C1119 0.949 . S
H1144 C1121 0.950 . S
H1145 C1123 0.950 . S
C1146 C1147 1.349 . S
C1146 C1148 1.327 . S
C1146 H1171 0.950 . S
C1147 C1146 1.349 . S
C1147 C1163 1.349 . S
C1148 C1146 1.327 . S
C1148 C1167 1.429 . S
C1148 H1172 0.950 . S
C1149 C1166 1.574 . S
C1149 C1168 1.368 . S
C1149 H1173 0.949 . S
H1150 C1154 0.949 . S
C1151 C1152 1.349 . S
C1151 C1153 1.327 . S
C1151 H1174 0.950 . S
C1152 C1151 1.349 . S
C1152 C1164 1.349 . S
C1153 C1151 1.327 . S
C1153 C1169 1.429 . S
C1153 H1175 0.950 . S
C1154 H1150 0.949 . S
C1154 C1162 1.574 . S
C1154 C1170 1.368 . S
H1155 C1163 0.950 . S
H1156 C1161 0.950 . S
H1157 C1162 0.949 . S
H1158 C1164 0.950 . S
H1159 C1165 0.950 . S
H1160 C1166 0.949 . S
C1161 H1156 0.950 . S
C1161 C1163 1.327 . S
C1161 C1167 1.429 . S
C1162 C1154 1.574 . S
C1162 H1157 0.949 . S
C1162 C1168 1.368 . S
C1163 C1147 1.349 . S
C1163 H1155 0.950 . S
C1163 C1161 1.327 . S
C1164 C1152 1.349 . S
C1164 H1158 0.950 . S
C1164 C1165 1.327 . S
C1165 H1159 0.950 . S
C1165 C1164 1.327 . S
C1165 C1169 1.429 . S
C1166 C1149 1.574 . S
C1166 H1160 0.949 . S
C1166 C1170 1.368 . S
C1167 C1148 1.429 . S
C1167 C1161 1.429 . S
C1167 C1168 1.523 . S
C1168 C1149 1.368 . S
C1168 C1162 1.368 . S
C1168 C1167 1.523 . S
C1169 C1153 1.429 . S
C1169 C1165 1.429 . S
C1169 C1170 1.523 . S
C1170 C1154 1.368 . S
C1170 C1166 1.368 . S
C1170 C1169 1.523 . S
H1171 C1146 0.950 . S
H1172 C1148 0.950 . S
H1173 C1149 0.949 . S
H1174 C1151 0.950 . S
H1175 C1153 0.950 . S
C1176 C1177 1.349 . S
C1176 C1178 1.327 . S
C1176 H1201 0.950 . S
C1177 C1176 1.349 . S
C1177 C1193 1.349 . S
C1178 C1176 1.327 . S
C1178 C1197 1.429 . S
C1178 H1202 0.950 . S
C1179 C1196 1.574 . S
C1179 C1198 1.368 . S
C1179 H1203 0.949 . S
H1180 C1184 0.949 . S
C1181 C1182 1.349 . S
C1181 C1183 1.327 . S
C1181 H1204 0.950 . S
C1182 C1181 1.349 . S
C1182 C1194 1.349 . S
C1183 C1181 1.327 . S
C1183 C1199 1.429 . S
C1183 H1205 0.950 . S
C1184 H1180 0.949 . S
C1184 C1192 1.574 . S
C1184 C1200 1.368 . S
H1185 C1193 0.950 . S
H1186 C1191 0.950 . S
H1187 C1192 0.949 . S
H1188 C1194 0.950 . S
H1189 C1195 0.950 . S
H1190 C1196 0.949 . S
C1191 H1186 0.950 . S
C1191 C1193 1.327 . S
C1191 C1197 1.429 . S
C1192 C1184 1.574 . S
C1192 H1187 0.949 . S
C1192 C1198 1.368 . S
C1193 C1177 1.349 . S
C1193 H1185 0.950 . S
C1193 C1191 1.327 . S
C1194 C1182 1.349 . S
C1194 H1188 0.950 . S
C1194 C1195 1.327 . S
C1195 H1189 0.950 . S
C1195 C1194 1.327 . S
C1195 C1199 1.429 . S
C1196 C1179 1.574 . S
C1196 H1190 0.949 . S
C1196 C1200 1.368 . S
C1197 C1178 1.429 . S
C1197 C1191 1.429 . S
C1197 C1198 1.523 . S
C1198 C1179 1.368 . S
C1198 C1192 1.368 . S
C1198 C1197 1.523 . S
C1199 C1183 1.429 . S
C1199 C1195 1.429 . S
C1199 C1200 1.523 . S
C1200 C1184 1.368 . S
C1200 C1196 1.368 . S
C1200 C1199 1.523 . S
H1201 C1176 0.950 . S
H1202 C1178 0.950 . S
H1203 C1179 0.949 . S
H1204 C1181 0.950 . S
H1205 C1183 0.950 . S
C1206 C1207 1.349 . S
C1206 C1208 1.327 . S
C1206 H1231 0.950 . S
C1207 C1206 1.349 . S
C1207 C1223 1.349 . S
C1208 C1206 1.327 . S
C1208 C1227 1.429 . S
C1208 H1232 0.950 . S
C1209 C1226 1.574 . S
C1209 C1228 1.368 . S
C1209 H1233 0.949 . S
H1210 C1214 0.949 . S
C1211 C1212 1.349 . S
C1211 C1213 1.327 . S
C1211 H1234 0.950 . S
C1212 C1211 1.349 . S
C1212 C1224 1.349 . S
C1213 C1211 1.327 . S
C1213 C1229 1.429 . S
C1213 H1235 0.950 . S
C1214 H1210 0.949 . S
C1214 C1222 1.574 . S
C1214 C1230 1.368 . S
H1215 C1223 0.950 . S
H1216 C1221 0.950 . S
H1217 C1222 0.949 . S
H1218 C1224 0.950 . S
H1219 C1225 0.950 . S
H1220 C1226 0.949 . S
C1221 H1216 0.950 . S
C1221 C1223 1.327 . S
C1221 C1227 1.429 . S
C1222 C1214 1.574 . S
C1222 H1217 0.949 . S
C1222 C1228 1.368 . S
C1223 C1207 1.349 . S
C1223 H1215 0.950 . S
C1223 C1221 1.327 . S
C1224 C1212 1.349 . S
C1224 H1218 0.950 . S
C1224 C1225 1.327 . S
C1225 H1219 0.950 . S
C1225 C1224 1.327 . S
C1225 C1229 1.429 . S
C1226 C1209 1.574 . S
C1226 H1220 0.949 . S
C1226 C1230 1.368 . S
C1227 C1208 1.429 . S
C1227 C1221 1.429 . S
C1227 C1228 1.523 . S
C1228 C1209 1.368 . S
C1228 C1222 1.368 . S
C1228 C1227 1.523 . S
C1229 C1213 1.429 . S
C1229 C1225 1.429 . S
C1229 C1230 1.523 . S
C1230 C1214 1.368 . S
C1230 C1226 1.368 . S
C1230 C1229 1.523 . S
H1231 C1206 0.950 . S
H1232 C1208 0.950 . S
H1233 C1209 0.949 . S
H1234 C1211 0.950 . S
H1235 C1213 0.950 . S
C1236 C1237 1.349 . S
C1236 C1238 1.327 . S
C1236 H1261 0.950 . S
C1237 C1236 1.349 . S
C1237 C1253 1.349 . S
C1238 C1236 1.327 . S
C1238 C1257 1.429 . S
C1238 H1262 0.950 . S
C1239 C1256 1.574 . S
C1239 C1258 1.368 . S
C1239 H1263 0.949 . S
H1240 C1244 0.949 . S
C1241 C1242 1.349 . S
C1241 C1243 1.327 . S
C1241 H1264 0.950 . S
C1242 C1241 1.349 . S
C1242 C1254 1.349 . S
C1243 C1241 1.327 . S
C1243 C1259 1.429 . S
C1243 H1265 0.950 . S
C1244 H1240 0.949 . S
C1244 C1252 1.574 . S
C1244 C1260 1.368 . S
H1245 C1253 0.950 . S
H1246 C1251 0.950 . S
H1247 C1252 0.949 . S
H1248 C1254 0.950 . S
H1249 C1255 0.950 . S
H1250 C1256 0.949 . S
C1251 H1246 0.950 . S
C1251 C1253 1.327 . S
C1251 C1257 1.429 . S
C1252 C1244 1.574 . S
C1252 H1247 0.949 . S
C1252 C1258 1.368 . S
C1253 C1237 1.349 . S
C1253 H1245 0.950 . S
C1253 C1251 1.327 . S
C1254 C1242 1.349 . S
C1254 H1248 0.950 . S
C1254 C1255 1.327 . S
C1255 H1249 0.950 . S
C1255 C1254 1.327 . S
C1255 C1259 1.429 . S
C1256 C1239 1.574 . S
C1256 H1250 0.949 . S
C1256 C1260 1.368 . S
C1257 C1238 1.429 . S
C1257 C1251 1.429 . S
C1257 C1258 1.523 . S
C1258 C1239 1.368 . S
C1258 C1252 1.368 . S
C1258 C1257 1.523 . S
C1259 C1243 1.429 . S
C1259 C1255 1.429 . S
C1259 C1260 1.523 . S
C1260 C1244 1.368 . S
C1260 C1256 1.368 . S
C1260 C1259 1.523 . S
H1261 C1236 0.950 . S
H1262 C1238 0.950 . S
H1263 C1239 0.949 . S
H1264 C1241 0.950 . S
H1265 C1243 0.950 . S
C1266 C1267 1.349 . S
C1266 C1268 1.327 . S
C1266 H1291 0.950 . S
C1267 C1266 1.349 . S
C1267 C1283 1.349 . S
C1268 C1266 1.327 . S
C1268 C1287 1.429 . S
C1268 H1292 0.950 . S
C1269 C1286 1.574 . S
C1269 C1288 1.368 . S
C1269 H1293 0.949 . S
H1270 C1274 0.949 . S
C1271 C1272 1.349 . S
C1271 C1273 1.327 . S
C1271 H1294 0.950 . S
C1272 C1271 1.349 . S
C1272 C1284 1.349 . S
C1273 C1271 1.327 . S
C1273 C1289 1.429 . S
C1273 H1295 0.950 . S
C1274 H1270 0.949 . S
C1274 C1282 1.574 . S
C1274 C1290 1.368 . S
H1275 C1283 0.950 . S
H1276 C1281 0.950 . S
H1277 C1282 0.949 . S
H1278 C1284 0.950 . S
H1279 C1285 0.950 . S
H1280 C1286 0.949 . S
C1281 H1276 0.950 . S
C1281 C1283 1.327 . S
C1281 C1287 1.429 . S
C1282 C1274 1.574 . S
C1282 H1277 0.949 . S
C1282 C1288 1.368 . S
C1283 C1267 1.349 . S
C1283 H1275 0.950 . S
C1283 C1281 1.327 . S
C1284 C1272 1.349 . S
C1284 H1278 0.950 . S
C1284 C1285 1.327 . S
C1285 H1279 0.950 . S
C1285 C1284 1.327 . S
C1285 C1289 1.429 . S
C1286 C1269 1.574 . S
C1286 H1280 0.949 . S
C1286 C1290 1.368 . S
C1287 C1268 1.429 . S
C1287 C1281 1.429 . S
C1287 C1288 1.523 . S
C1288 C1269 1.368 . S
C1288 C1282 1.368 . S
C1288 C1287 1.523 . S
C1289 C1273 1.429 . S
C1289 C1285 1.429 . S
C1289 C1290 1.523 . S
C1290 C1274 1.368 . S
C1290 C1286 1.368 . S
C1290 C1289 1.523 . S
H1291 C1266 0.950 . S
H1292 C1268 0.950 . S
H1293 C1269 0.949 . S
H1294 C1271 0.950 . S
H1295 C1273 0.950 . S
C1296 C1297 1.349 . S
C1296 C1298 1.327 . S
C1296 H1321 0.950 . S
C1297 C1296 1.349 . S
C1297 C1313 1.349 . S
C1298 C1296 1.327 . S
C1298 C1317 1.429 . S
C1298 H1322 0.950 . S
C1299 C1316 1.574 1_545 S
C1299 C1318 1.368 . S
C1299 H1323 0.949 . S
H1300 C1304 0.949 . S
C1301 C1302 1.349 . S
C1301 C1303 1.327 . S
C1301 H1324 0.950 . S
C1302 C1301 1.349 . S
C1302 C1314 1.349 . S
C1303 C1301 1.327 . S
C1303 C1319 1.429 . S
C1303 H1325 0.950 . S
C1304 H1300 0.949 . S
C1304 C1312 1.574 1_565 S
C1304 C1320 1.368 . S
H1305 C1313 0.950 . S
H1306 C1311 0.950 . S
H1307 C1312 0.949 . S
H1308 C1314 0.950 . S
H1309 C1315 0.950 . S
H1310 C1316 0.949 . S
C1311 H1306 0.950 . S
C1311 C1313 1.327 . S
C1311 C1317 1.429 . S
C1312 C1304 1.574 1_545 S
C1312 H1307 0.949 . S
C1312 C1318 1.368 . S
C1313 C1297 1.349 . S
C1313 H1305 0.950 . S
C1313 C1311 1.327 . S
C1314 C1302 1.349 . S
C1314 H1308 0.950 . S
C1314 C1315 1.327 . S
C1315 H1309 0.950 . S
C1315 C1314 1.327 . S
C1315 C1319 1.429 . S
C1316 C1299 1.574 1_565 S
C1316 H1310 0.949 . S
C1316 C1320 1.368 . S
C1317 C1298 1.429 . S
C1317 C1311 1.429 . S
C1317 C1318 1.523 . S
C1318 C1299 1.368 . S
C1318 C1312 1.368 . S
C1318 C1317 1.523 . S
C1319 C1303 1.429 . S
C1319 C1315 1.429 . S
C1319 C1320 1.523 . S
C1320 C1304 1.368 . S
C1320 C1316 1.368 . S
C1320 C1319 1.523 . S
H1321 C1296 0.950 . S
H1322 C1298 0.950 . S
H1323 C1299 0.949 . S
H1324 C1301 0.950 . S
H1325 C1303 0.950 . S
C1326 C1327 1.349 . S
C1326 C1328 1.327 . S
C1326 H1351 0.950 . S
C1327 C1326 1.349 . S
C1327 C1343 1.349 . S
C1328 C1326 1.327 . S
C1328 C1347 1.429 . S
C1328 H1352 0.950 . S
C1329 C1346 1.574 1_655 S
C1329 C1348 1.368 . S
C1329 H1353 0.949 . S
H1330 C1334 0.949 . S
C1331 C1332 1.349 . S
C1331 C1333 1.327 . S
C1331 H1354 0.950 . S
C1332 C1331 1.349 . S
C1332 C1344 1.349 . S
C1333 C1331 1.327 . S
C1333 C1349 1.429 . S
C1333 H1355 0.950 . S
C1334 H1330 0.949 . S
C1334 C1342 1.574 1_455 S
C1334 C1350 1.368 . S
H1335 C1343 0.950 . S
H1336 C1341 0.950 . S
H1337 C1342 0.949 . S
H1338 C1344 0.950 . S
H1339 C1345 0.950 . S
H1340 C1346 0.949 . S
C1341 H1336 0.950 . S
C1341 C1343 1.327 . S
C1341 C1347 1.429 . S
C1342 C1334 1.574 1_655 S
C1342 H1337 0.949 . S
C1342 C1348 1.368 . S
C1343 C1327 1.349 . S
C1343 H1335 0.950 . S
C1343 C1341 1.327 . S
C1344 C1332 1.349 . S
C1344 H1338 0.950 . S
C1344 C1345 1.327 . S
C1345 H1339 0.950 . S
C1345 C1344 1.327 . S
C1345 C1349 1.429 . S
C1346 C1329 1.574 1_455 S
C1346 H1340 0.949 . S
C1346 C1350 1.368 . S
C1347 C1328 1.429 . S
C1347 C1341 1.429 . S
C1347 C1348 1.523 . S
C1348 C1329 1.368 . S
C1348 C1342 1.368 . S
C1348 C1347 1.523 . S
C1349 C1333 1.429 . S
C1349 C1345 1.429 . S
C1349 C1350 1.523 . S
C1350 C1334 1.368 . S
C1350 C1346 1.368 . S
C1350 C1349 1.523 . S
H1351 C1326 0.950 . S
H1352 C1328 0.950 . S
H1353 C1329 0.949 . S
H1354 C1331 0.950 . S
H1355 C1333 0.950 . S
C1356 C1357 1.349 . S
C1356 C1358 1.327 . S
C1356 H1381 0.950 . S
C1357 C1356 1.349 . S
C1357 C1373 1.349 . S
C1358 C1356 1.327 . S
C1358 C1377 1.429 . S
C1358 H1382 0.950 . S
C1359 C1376 1.574 1_545 S
C1359 C1378 1.368 . S
C1359 H1383 0.949 . S
H1360 C1364 0.949 . S
C1361 C1362 1.349 . S
C1361 C1363 1.327 . S
C1361 H1384 0.950 . S
C1362 C1361 1.349 . S
C1362 C1374 1.349 . S
C1363 C1361 1.327 . S
C1363 C1379 1.429 . S
C1363 H1385 0.950 . S
C1364 H1360 0.949 . S
C1364 C1372 1.574 1_565 S
C1364 C1380 1.368 . S
H1365 C1373 0.950 . S
H1366 C1371 0.950 . S
H1367 C1372 0.949 . S
H1368 C1374 0.950 . S
H1369 C1375 0.950 . S
H1370 C1376 0.949 . S
C1371 H1366 0.950 . S
C1371 C1373 1.327 . S
C1371 C1377 1.429 . S
C1372 C1364 1.574 1_545 S
C1372 H1367 0.949 . S
C1372 C1378 1.368 . S
C1373 C1357 1.349 . S
C1373 H1365 0.950 . S
C1373 C1371 1.327 . S
C1374 C1362 1.349 . S
C1374 H1368 0.950 . S
C1374 C1375 1.327 . S
C1375 H1369 0.950 . S
C1375 C1374 1.327 . S
C1375 C1379 1.429 . S
C1376 C1359 1.574 1_565 S
C1376 H1370 0.949 . S
C1376 C1380 1.368 . S
C1377 C1358 1.429 . S
C1377 C1371 1.429 . S
C1377 C1378 1.523 . S
C1378 C1359 1.368 . S
C1378 C1372 1.368 . S
C1378 C1377 1.523 . S
C1379 C1363 1.429 . S
C1379 C1375 1.429 . S
C1379 C1380 1.523 . S
C1380 C1364 1.368 . S
C1380 C1376 1.368 . S
C1380 C1379 1.523 . S
H1381 C1356 0.950 . S
H1382 C1358 0.950 . S
H1383 C1359 0.949 . S
H1384 C1361 0.950 . S
H1385 C1363 0.950 . S
C1386 C1387 1.349 . S
C1386 C1388 1.327 . S
C1386 H1411 0.950 . S
C1387 C1386 1.349 . S
C1387 C1403 1.349 . S
C1388 C1386 1.327 . S
C1388 C1407 1.429 . S
C1388 H1412 0.950 . S
C1389 C1406 1.574 1_455 S
C1389 C1408 1.368 . S
C1389 H1413 0.949 . S
H1390 C1394 0.949 . S
C1391 C1392 1.349 . S
C1391 C1393 1.327 . S
C1391 H1414 0.950 . S
C1392 C1391 1.349 . S
C1392 C1404 1.349 . S
C1393 C1391 1.327 . S
C1393 C1409 1.429 . S
C1393 H1415 0.950 . S
C1394 H1390 0.949 . S
C1394 C1402 1.574 1_655 S
C1394 C1410 1.368 . S
H1395 C1403 0.950 . S
H1396 C1401 0.950 . S
H1397 C1402 0.949 . S
H1398 C1404 0.950 . S
H1399 C1405 0.950 . S
H1400 C1406 0.949 . S
C1401 H1396 0.950 . S
C1401 C1403 1.327 . S
C1401 C1407 1.429 . S
C1402 C1394 1.574 1_455 S
C1402 H1397 0.949 . S
C1402 C1408 1.368 . S
C1403 C1387 1.349 . S
C1403 H1395 0.950 . S
C1403 C1401 1.327 . S
C1404 C1392 1.349 . S
C1404 H1398 0.950 . S
C1404 C1405 1.327 . S
C1405 H1399 0.950 . S
C1405 C1404 1.327 . S
C1405 C1409 1.429 . S
C1406 C1389 1.574 1_655 S
C1406 H1400 0.949 . S
C1406 C1410 1.368 . S
C1407 C1388 1.429 . S
C1407 C1401 1.429 . S
C1407 C1408 1.523 . S
C1408 C1389 1.368 . S
C1408 C1402 1.368 . S
C1408 C1407 1.523 . S
C1409 C1393 1.429 . S
C1409 C1405 1.429 . S
C1409 C1410 1.523 . S
C1410 C1394 1.368 . S
C1410 C1406 1.368 . S
C1410 C1409 1.523 . S
H1411 C1386 0.950 . S
H1412 C1388 0.950 . S
H1413 C1389 0.949 . S
H1414 C1391 0.950 . S
H1415 C1393 0.950 . S
C1416 C1417 1.349 . S
C1416 C1418 1.327 . S
C1416 H1441 0.950 . S
C1417 C1416 1.349 . S
C1417 C1433 1.349 . S
C1418 C1416 1.327 . S
C1418 C1437 1.429 . S
C1418 H1442 0.950 . S
C1419 C1436 1.574 1_545 S
C1419 C1438 1.368 . S
C1419 H1443 0.949 . S
H1420 C1424 0.949 . S
C1421 C1422 1.349 . S
C1421 C1423 1.327 . S
C1421 H1444 0.950 . S
C1422 C1421 1.349 . S
C1422 C1434 1.349 . S
C1423 C1421 1.327 . S
C1423 C1439 1.429 . S
C1423 H1445 0.950 . S
C1424 H1420 0.949 . S
C1424 C1432 1.574 1_565 S
C1424 C1440 1.368 . S
H1425 C1433 0.950 . S
H1426 C1431 0.950 . S
H1427 C1432 0.949 . S
H1428 C1434 0.950 . S
H1429 C1435 0.950 . S
H1430 C1436 0.949 . S
C1431 H1426 0.950 . S
C1431 C1433 1.327 . S
C1431 C1437 1.429 . S
C1432 C1424 1.574 1_545 S
C1432 H1427 0.949 . S
C1432 C1438 1.368 . S
C1433 C1417 1.349 . S
C1433 H1425 0.950 . S
C1433 C1431 1.327 . S
C1434 C1422 1.349 . S
C1434 H1428 0.950 . S
C1434 C1435 1.327 . S
C1435 H1429 0.950 . S
C1435 C1434 1.327 . S
C1435 C1439 1.429 . S
C1436 C1419 1.574 1_565 S
C1436 H1430 0.949 . S
C1436 C1440 1.368 . S
C1437 C1418 1.429 . S
C1437 C1431 1.429 . S
C1437 C1438 1.523 . S
C1438 C1419 1.368 . S
C1438 C1432 1.368 . S
C1438 C1437 1.523 . S
C1439 C1423 1.429 . S
C1439 C1435 1.429 . S
C1439 C1440 1.523 . S
C1440 C1424 1.368 . S
C1440 C1436 1.368 . S
C1440 C1439 1.523 . S
H1441 C1416 0.950 . S
H1442 C1418 0.950 . S
H1443 C1419 0.949 . S
H1444 C1421 0.950 . S
H1445 C1423 0.950 . S
C1446 C1447 1.349 . S
C1446 C1448 1.327 . S
C1446 H1471 0.950 . S
C1447 C1446 1.349 . S
C1447 C1463 1.349 . S
C1448 C1446 1.327 . S
C1448 C1467 1.429 . S
C1448 H1472 0.950 . S
C1449 C1466 1.574 1_655 S
C1449 C1468 1.368 . S
C1449 H1473 0.949 . S
H1450 C1454 0.949 . S
C1451 C1452 1.349 . S
C1451 C1453 1.327 . S
C1451 H1474 0.950 . S
C1452 C1451 1.349 . S
C1452 C1464 1.349 . S
C1453 C1451 1.327 . S
C1453 C1469 1.429 . S
C1453 H1475 0.950 . S
C1454 H1450 0.949 . S
C1454 C1462 1.574 1_455 S
C1454 C1470 1.368 . S
H1455 C1463 0.950 . S
H1456 C1461 0.950 . S
H1457 C1462 0.949 . S
H1458 C1464 0.950 . S
H1459 C1465 0.950 . S
H1460 C1466 0.949 . S
C1461 H1456 0.950 . S
C1461 C1463 1.327 . S
C1461 C1467 1.429 . S
C1462 C1454 1.574 1_655 S
C1462 H1457 0.949 . S
C1462 C1468 1.368 . S
C1463 C1447 1.349 . S
C1463 H1455 0.950 . S
C1463 C1461 1.327 . S
C1464 C1452 1.349 . S
C1464 H1458 0.950 . S
C1464 C1465 1.327 . S
C1465 H1459 0.950 . S
C1465 C1464 1.327 . S
C1465 C1469 1.429 . S
C1466 C1449 1.574 1_455 S
C1466 H1460 0.949 . S
C1466 C1470 1.368 . S
C1467 C1448 1.429 . S
C1467 C1461 1.429 . S
C1467 C1468 1.523 . S
C1468 C1449 1.368 . S
C1468 C1462 1.368 . S
C1468 C1467 1.523 . S
C1469 C1453 1.429 . S
C1469 C1465 1.429 . S
C1469 C1470 1.523 . S
C1470 C1454 1.368 . S
C1470 C1466 1.368 . S
C1470 C1469 1.523 . S
H1471 C1446 0.950 . S
H1472 C1448 0.950 . S
H1473 C1449 0.949 . S
H1474 C1451 0.950 . S
H1475 C1453 0.950 . S
C1476 C1477 1.349 . S
C1476 C1478 1.327 . S
C1476 H1501 0.950 . S
C1477 C1476 1.349 . S
C1477 C1493 1.349 . S
C1478 C1476 1.327 . S
C1478 C1497 1.429 . S
C1478 H1502 0.950 . S
C1479 C1496 1.574 1_565 S
C1479 C1498 1.368 . S
C1479 H1503 0.949 . S
H1480 C1484 0.949 . S
C1481 C1482 1.349 . S
C1481 C1483 1.327 . S
C1481 H1504 0.950 . S
C1482 C1481 1.349 . S
C1482 C1494 1.349 . S
C1483 C1481 1.327 . S
C1483 C1499 1.429 . S
C1483 H1505 0.950 . S
C1484 H1480 0.949 . S
C1484 C1492 1.574 1_545 S
C1484 C1500 1.368 . S
H1485 C1493 0.950 . S
H1486 C1491 0.950 . S
H1487 C1492 0.949 . S
H1488 C1494 0.950 . S
H1489 C1495 0.950 . S
H1490 C1496 0.949 . S
C1491 H1486 0.950 . S
C1491 C1493 1.327 . S
C1491 C1497 1.429 . S
C1492 C1484 1.574 1_565 S
C1492 H1487 0.949 . S
C1492 C1498 1.368 . S
C1493 C1477 1.349 . S
C1493 H1485 0.950 . S
C1493 C1491 1.327 . S
C1494 C1482 1.349 . S
C1494 H1488 0.950 . S
C1494 C1495 1.327 . S
C1495 H1489 0.950 . S
C1495 C1494 1.327 . S
C1495 C1499 1.429 . S
C1496 C1479 1.574 1_545 S
C1496 H1490 0.949 . S
C1496 C1500 1.368 . S
C1497 C1478 1.429 . S
C1497 C1491 1.429 . S
C1497 C1498 1.523 . S
C1498 C1479 1.368 . S
C1498 C1492 1.368 . S
C1498 C1497 1.523 . S
C1499 C1483 1.429 . S
C1499 C1495 1.429 . S
C1499 C1500 1.523 . S
C1500 C1484 1.368 . S
C1500 C1496 1.368 . S
C1500 C1499 1.523 . S
H1501 C1476 0.950 . S
H1502 C1478 0.950 . S
H1503 C1479 0.949 . S
H1504 C1481 0.950 . S
H1505 C1483 0.950 . S
C1506 C1507 1.349 . S
C1506 C1508 1.327 . S
C1506 H1531 0.950 . S
C1507 C1506 1.349 . S
C1507 C1523 1.349 . S
C1508 C1506 1.327 . S
C1508 C1527 1.429 . S
C1508 H1532 0.950 . S
C1509 C1526 1.574 1_455 S
C1509 C1528 1.368 . S
C1509 H1533 0.949 . S
H1510 C1514 0.949 . S
C1511 C1512 1.349 . S
C1511 C1513 1.327 . S
C1511 H1534 0.950 . S
C1512 C1511 1.349 . S
C1512 C1524 1.349 . S
C1513 C1511 1.327 . S
C1513 C1529 1.429 . S
C1513 H1535 0.950 . S
C1514 H1510 0.949 . S
C1514 C1522 1.574 1_655 S
C1514 C1530 1.368 . S
H1515 C1523 0.950 . S
H1516 C1521 0.950 . S
H1517 C1522 0.949 . S
H1518 C1524 0.950 . S
H1519 C1525 0.950 . S
H1520 C1526 0.949 . S
C1521 H1516 0.950 . S
C1521 C1523 1.327 . S
C1521 C1527 1.429 . S
C1522 C1514 1.574 1_455 S
C1522 H1517 0.949 . S
C1522 C1528 1.368 . S
C1523 C1507 1.349 . S
C1523 H1515 0.950 . S
C1523 C1521 1.327 . S
C1524 C1512 1.349 . S
C1524 H1518 0.950 . S
C1524 C1525 1.327 . S
C1525 H1519 0.950 . S
C1525 C1524 1.327 . S
C1525 C1529 1.429 . S
C1526 C1509 1.574 1_655 S
C1526 H1520 0.949 . S
C1526 C1530 1.368 . S
C1527 C1508 1.429 . S
C1527 C1521 1.429 . S
C1527 C1528 1.523 . S
C1528 C1509 1.368 . S
C1528 C1522 1.368 . S
C1528 C1527 1.523 . S
C1529 C1513 1.429 . S
C1529 C1525 1.429 . S
C1529 C1530 1.523 . S
C1530 C1514 1.368 . S
C1530 C1526 1.368 . S
C1530 C1529 1.523 . S
H1531 C1506 0.950 . S
H1532 C1508 0.950 . S
H1533 C1509 0.949 . S
H1534 C1511 0.950 . S
H1535 C1513 0.950 . S
C577 C184 1.348 . S
C582 C4 1.348 . S
C607 C220 1.348 . S
C612 C40 1.348 . S
C637 C76 1.348 . S
C642 C256 1.348 . S
C667 C112 1.348 . S
C672 C148 1.348 . S
C697 C472 1.348 . S
C702 C292 1.348 . S
C727 C508 1.348 . S
C732 C328 1.348 . S
C757 C364 1.348 . S
C762 C544 1.348 . S
C787 C400 1.348 . S
C792 C436 1.348 . S
C817 C374 1.491 . S
C822 C14 1.491 . S
C847 C410 1.491 . S
C852 C50 1.491 . S
C877 C302 1.491 . S
C882 C86 1.491 . S
C907 C122 1.491 . S
C912 C338 1.491 . S
C937 C518 1.491 . S
C942 C158 1.491 . S
C967 C554 1.491 . S
C972 C194 1.491 . S
C997 C230 1.491 . S
C1002 C446 1.491 . S
C1027 C482 1.491 . S
C1032 C266 1.491 . S
C1057 C146 0.920 . S
C1062 C2 0.920 . S
C1087 C38 0.920 . S
C1092 C182 0.920 . S
C1117 C74 0.920 . S
C1122 C218 0.920 . S
C1147 C254 0.920 . S
C1152 C110 0.920 . S
C1177 C291 1.820 . S
C1182 C435 1.820 . S
C1207 C471 1.820 . S
C1212 C327 1.820 . S
C1237 C363 1.820 . S
C1242 C507 1.820 . S
C1267 C543 1.820 . S
C1272 C399 1.820 . S
C1297 C398 0.920 . S
C1302 C470 0.920 . S
C1327 C290 0.920 . S
C1332 C506 0.920 . S
C1357 C542 0.920 . S
C1362 C326 0.920 . S
C1387 C362 0.920 . S
C1392 C434 0.920 . S
C1417 C183 1.820 . S
C1422 C111 1.820 . S
C1447 C219 1.820 . S
C1452 C3 1.820 . S
C1477 C255 1.820 . S
C1482 C39 1.820 . S
C1507 C147 1.820 . S
C1512 C75 1.820 . S
