# Generated by pormake.
# Topology unb, (4)-cn, num edge types: 1
# Building blocks:
#     Node 0, Type 0, BuildingBlock: NAHDIM_clean_sbu_0, # of connection points: 4
#     Node 1, Type 0, BuildingBlock: NAHDIM_clean_sbu_0, # of connection points: 4
#     Node 2, Type 0, BuildingBlock: NAHDIM_clean_sbu_0, # of connection points: 4
#     Node 3, Type 0, BuildingBlock: NAHDIM_clean_sbu_0, # of connection points: 4
#     Node 4, Type 0, BuildingBlock: NAHDIM_clean_sbu_0, # of connection points: 4
#     Node 5, Type 0, BuildingBlock: NAHDIM_clean_sbu_0, # of connection points: 4
#     Node 6, Type 0, BuildingBlock: NAHDIM_clean_sbu_0, # of connection points: 4
#     Node 7, Type 0, BuildingBlock: NAHDIM_clean_sbu_0, # of connection points: 4
#     Node 8, Type 0, BuildingBlock: NAHDIM_clean_sbu_0, # of connection points: 4
#     Node 9, Type 0, BuildingBlock: NAHDIM_clean_sbu_0, # of connection points: 4
#     Node 10, Type 0, BuildingBlock: NAHDIM_clean_sbu_0, # of connection points: 4
#     Node 11, Type 0, BuildingBlock: NAHDIM_clean_sbu_0, # of connection points: 4
#     Node 12, Type 0, BuildingBlock: NAHDIM_clean_sbu_0, # of connection points: 4
#     Node 13, Type 0, BuildingBlock: NAHDIM_clean_sbu_0, # of connection points: 4
#     Node 14, Type 0, BuildingBlock: NAHDIM_clean_sbu_0, # of connection points: 4
#     Node 15, Type 0, BuildingBlock: NAHDIM_clean_sbu_0, # of connection points: 4
#     Node 16, Type 0, BuildingBlock: NAHDIM_clean_sbu_0, # of connection points: 4
#     Node 17, Type 0, BuildingBlock: NAHDIM_clean_sbu_0, # of connection points: 4
#     Edge 18, Type (0, 0), BuildingBlock: ZUJKAS_clean_linker_0, # of connection points: 2
#     Edge 19, Type (0, 0), BuildingBlock: ZUJKAS_clean_linker_0, # of connection points: 2
#     Edge 20, Type (0, 0), BuildingBlock: ZUJKAS_clean_linker_0, # of connection points: 2
#     Edge 21, Type (0, 0), BuildingBlock: ZUJKAS_clean_linker_0, # of connection points: 2
#     Edge 22, Type (0, 0), BuildingBlock: ZUJKAS_clean_linker_0, # of connection points: 2
#     Edge 23, Type (0, 0), BuildingBlock: ZUJKAS_clean_linker_0, # of connection points: 2
#     Edge 24, Type (0, 0), BuildingBlock: ZUJKAS_clean_linker_0, # of connection points: 2
#     Edge 25, Type (0, 0), BuildingBlock: ZUJKAS_clean_linker_0, # of connection points: 2
#     Edge 26, Type (0, 0), BuildingBlock: ZUJKAS_clean_linker_0, # of connection points: 2
#     Edge 27, Type (0, 0), BuildingBlock: ZUJKAS_clean_linker_0, # of connection points: 2
#     Edge 28, Type (0, 0), BuildingBlock: ZUJKAS_clean_linker_0, # of connection points: 2
#     Edge 29, Type (0, 0), BuildingBlock: ZUJKAS_clean_linker_0, # of connection points: 2
#     Edge 30, Type (0, 0), BuildingBlock: ZUJKAS_clean_linker_0, # of connection points: 2
#     Edge 31, Type (0, 0), BuildingBlock: ZUJKAS_clean_linker_0, # of connection points: 2
#     Edge 32, Type (0, 0), BuildingBlock: ZUJKAS_clean_linker_0, # of connection points: 2
#     Edge 33, Type (0, 0), BuildingBlock: ZUJKAS_clean_linker_0, # of connection points: 2
#     Edge 34, Type (0, 0), BuildingBlock: ZUJKAS_clean_linker_0, # of connection points: 2
#     Edge 35, Type (0, 0), BuildingBlock: ZUJKAS_clean_linker_0, # of connection points: 2
#     Edge 36, Type (0, 0), BuildingBlock: ZUJKAS_clean_linker_0, # of connection points: 2
#     Edge 37, Type (0, 0), BuildingBlock: ZUJKAS_clean_linker_0, # of connection points: 2
#     Edge 38, Type (0, 0), BuildingBlock: ZUJKAS_clean_linker_0, # of connection points: 2
#     Edge 39, Type (0, 0), BuildingBlock: ZUJKAS_clean_linker_0, # of connection points: 2
#     Edge 40, Type (0, 0), BuildingBlock: ZUJKAS_clean_linker_0, # of connection points: 2
#     Edge 41, Type (0, 0), BuildingBlock: ZUJKAS_clean_linker_0, # of connection points: 2
#     Edge 42, Type (0, 0), BuildingBlock: ZUJKAS_clean_linker_0, # of connection points: 2
#     Edge 43, Type (0, 0), BuildingBlock: ZUJKAS_clean_linker_0, # of connection points: 2
#     Edge 44, Type (0, 0), BuildingBlock: ZUJKAS_clean_linker_0, # of connection points: 2
#     Edge 45, Type (0, 0), BuildingBlock: ZUJKAS_clean_linker_0, # of connection points: 2
#     Edge 46, Type (0, 0), BuildingBlock: ZUJKAS_clean_linker_0, # of connection points: 2
#     Edge 47, Type (0, 0), BuildingBlock: ZUJKAS_clean_linker_0, # of connection points: 2
#     Edge 48, Type (0, 0), BuildingBlock: ZUJKAS_clean_linker_0, # of connection points: 2
#     Edge 49, Type (0, 0), BuildingBlock: ZUJKAS_clean_linker_0, # of connection points: 2
#     Edge 50, Type (0, 0), BuildingBlock: ZUJKAS_clean_linker_0, # of connection points: 2
#     Edge 51, Type (0, 0), BuildingBlock: ZUJKAS_clean_linker_0, # of connection points: 2
#     Edge 52, Type (0, 0), BuildingBlock: ZUJKAS_clean_linker_0, # of connection points: 2
#     Edge 53, Type (0, 0), BuildingBlock: ZUJKAS_clean_linker_0, # of connection points: 2
# Relax obj value: 0.066
# Max RMSD: 0.064
# Mean RMSD: 0.064
data_MOF--net-unb--node1-NAHDIM_clean_sbu_0--edge1-ZUJKAS_clean_linker_0
_symmetry_space_group_name_H-M    P1
_symmetry_Int_Tables_number       1
_symmetry_cell_setting            triclinic
loop_
_symmetry_equiv_pos_as_xyz
'x, y, z'
_cell_length_a     83.876055
_cell_length_b     83.896006
_cell_length_c     33.102138
_cell_angle_alpha  89.994595
_cell_angle_beta   89.998818
_cell_angle_gamma 120.00692
loop_
_atom_site_label
_atom_site_type_symbol
_atom_site_fract_x
_atom_site_fract_y
_atom_site_fract_z
_atom_type_partial_charge
C0 C 0.1505 0.2827 0.14304 0.0
O1 O 0.16367 0.28168 0.12383 0.0
O2 O 0.14018 0.24531 0.0707 0.0
Zn3 Zn 0.12868 0.26138 0.07471 0.0
O4 O 0.10126 0.24633 0.06645 0.0
C5 C 0.15451 0.28452 0.01377 0.0
O6 O 0.16483 0.27856 0.0301 0.0
O7 O 0.1344 0.27487 0.12795 0.0
C8 C 0.09522 0.23685 0.03434 0.0
O9 O 0.10702 0.23664 0.00853 0.0
C10 C 0.13202 0.22809 0.0774 0.0
O11 O 0.11493 0.21969 0.09042 0.0
O12 O 0.13874 0.27951 0.02878 0.0
C13 C 0.72898 0.87276 0.15924 0.0
O14 O 0.7437 0.88922 0.15974 0.0
O15 O 0.75568 0.89838 0.07095 0.0
Zn16 Zn 0.74001 0.87077 0.07612 0.0
O17 O 0.75548 0.85866 0.07071 0.0
C18 C 0.71547 0.87185 0.0172 0.0
O19 O 0.71945 0.88709 0.03646 0.0
O20 O 0.72521 0.86294 0.1276 0.0
C21 C 0.76122 0.85791 0.0356 0.0
O22 O 0.75724 0.86537 0.00517 0.0
C23 C 0.77317 0.90707 0.07009 0.0
O24 O 0.78202 0.89804 0.07605 0.0
O25 O 0.72234 0.86223 0.02949 0.0
C26 C 0.1487 0.86216 0.14937 0.0
O27 O 0.16214 0.87179 0.12383 0.0
O28 O 0.10006 0.8532 0.0745 0.0
Zn29 Zn 0.12732 0.86432 0.08428 0.0
O30 O 0.14018 0.89181 0.07657 0.0
C31 C 0.12723 0.83842 0.02695 0.0
O32 O 0.11094 0.82751 0.04269 0.0
O33 O 0.1323 0.85746 0.1393 0.0
C34 C 0.13932 0.89727 0.04121 0.0
O35 O 0.12991 0.88492 0.01337 0.0
C36 C 0.09147 0.86209 0.076 0.0
O37 O 0.10033 0.87948 0.08686 0.0
O38 O 0.13701 0.85454 0.04115 0.0
C39 C 0.26639 0.14213 0.84331 0.0
O40 O 0.25381 0.14707 0.84486 0.0
O41 O 0.23589 0.13727 0.9256 0.0
Zn42 Zn 0.252 0.12571 0.92263 0.0
O43 O 0.23672 0.09807 0.92625 0.0
C44 C 0.26147 0.12907 0.00598 0.0
O45 O 0.24372 0.11738 0.00884 0.0
O46 O 0.2678 0.13306 0.87248 0.0
C47 C 0.24444 0.08889 0.93597 0.0
O48 O 0.26236 0.09761 0.94143 0.0
C49 C 0.21966 0.12841 0.9399 0.0
O50 O 0.21284 0.11105 0.94992 0.0
O51 O 0.26852 0.13472 0.97126 0.0
C52 C 0.84353 0.12816 0.84709 0.0
O53 O 0.83075 0.11453 0.86837 0.0
O54 O 0.85563 0.09968 0.91067 0.0
Zn55 Zn 0.86683 0.12736 0.91013 0.0
O56 O 0.8945 0.13989 0.91618 0.0
C57 C 0.85626 0.12593 0.99201 0.0
O58 O 0.86215 0.11407 0.99279 0.0
O59 O 0.86015 0.13584 0.85904 0.0
C60 C 0.90307 0.15452 0.93703 0.0
O61 O 0.89384 0.16183 0.95289 0.0
C62 C 0.86512 0.09199 0.91763 0.0
O63 O 0.88307 0.10225 0.92121 0.0
O64 O 0.85668 0.13377 0.95882 0.0
C65 C 0.87219 0.71755 0.85029 0.0
O66 O 0.88657 0.71933 0.87011 0.0
O67 O 0.89794 0.7548 0.92256 0.0
Zn68 Zn 0.87038 0.7383 0.91793 0.0
O69 O 0.85762 0.75309 0.92509 0.0
C70 C 0.87315 0.71554 0.97996 0.0
O71 O 0.8898 0.7221 0.9651 0.0
O72 O 0.86323 0.72477 0.86472 0.0
C73 C 0.85607 0.75785 0.96069 0.0
O74 O 0.86301 0.7532 0.99102 0.0
C75 C 0.90599 0.77221 0.92605 0.0
O76 O 0.89625 0.7805 0.92379 0.0
O77 O 0.86224 0.72003 0.96364 0.0
C78 C 0.81419 0.60977 0.48556 0.0
O79 O 0.82526 0.60498 0.46822 0.0
O80 O 0.80268 0.57598 0.40786 0.0
Zn81 Zn 0.79264 0.59329 0.41376 0.0
O82 O 0.76498 0.57891 0.40579 0.0
C83 C 0.82044 0.61885 0.35813 0.0
O84 O 0.83104 0.61383 0.37679 0.0
O85 O 0.79917 0.60592 0.46812 0.0
C86 C 0.75814 0.57893 0.37147 0.0
O87 O 0.7692 0.58861 0.3419 0.0
C88 C 0.80219 0.56944 0.37292 0.0
O89 O 0.7947 0.57372 0.34307 0.0
O90 O 0.80392 0.61242 0.36991 0.0
C91 C 0.38906 0.19026 0.50364 0.0
O92 O 0.40009 0.18344 0.50021 0.0
O93 O 0.41677 0.22995 0.40847 0.0
Zn94 Zn 0.40033 0.20294 0.42056 0.0
O95 O 0.415 0.18992 0.41676 0.0
C96 C 0.37615 0.20197 0.35704 0.0
O97 O 0.38371 0.2196 0.36521 0.0
O98 O 0.38756 0.19918 0.47427 0.0
C99 C 0.42058 0.18901 0.38158 0.0
O100 O 0.41669 0.1966 0.35126 0.0
C101 C 0.43426 0.23818 0.40981 0.0
O102 O 0.44243 0.22915 0.42191 0.0
O103 O 0.38088 0.19215 0.37737 0.0
C104 C 0.79416 0.18563 0.4806 0.0
O105 O 0.77763 0.17546 0.46522 0.0
O106 O 0.77278 0.19572 0.39825 0.0
Zn107 Zn 0.80026 0.20641 0.40646 0.0
O108 O 0.81309 0.23402 0.39955 0.0
C109 C 0.80718 0.18049 0.36113 0.0
O110 O 0.79811 0.16889 0.39043 0.0
O111 O 0.80598 0.19968 0.46116 0.0
C112 C 0.81415 0.24002 0.36377 0.0
O113 O 0.80667 0.22812 0.33415 0.0
C114 C 0.76575 0.18992 0.3635 0.0
O115 O 0.77646 0.19079 0.33363 0.0
O116 O 0.80994 0.1968 0.36284 0.0
C117 C 0.95109 0.47111 0.17917 0.0
O118 O 0.95279 0.45889 0.20066 0.0
O119 O 0.91017 0.47823 0.25333 0.0
Zn120 Zn 0.92792 0.4689 0.24608 0.0
O121 O 0.91384 0.44117 0.25088 0.0
C122 C 0.95271 0.49549 0.30452 0.0
O123 O 0.94789 0.50644 0.28669 0.0
O124 O 0.94096 0.47726 0.19239 0.0
C125 C 0.92074 0.43282 0.26967 0.0
O126 O 0.93751 0.44237 0.28421 0.0
C127 C 0.90284 0.47636 0.28791 0.0
O128 O 0.90677 0.46808 0.31668 0.0
O129 O 0.94633 0.47919 0.29142 0.0
C130 C 0.53225 0.47105 0.16695 0.0
O131 O 0.54897 0.47345 0.16737 0.0
O132 O 0.51975 0.42949 0.25033 0.0
Zn133 Zn 0.52972 0.45693 0.249 0.0
O134 O 0.55738 0.47115 0.25617 0.0
C135 C 0.51179 0.45287 0.32619 0.0
O136 O 0.51207 0.43736 0.32746 0.0
O137 O 0.52199 0.46416 0.19773 0.0
C138 C 0.564 0.4709 0.29058 0.0
O139 O 0.55272 0.46103 0.31968 0.0
C140 C 0.52949 0.42181 0.2525 0.0
O141 O 0.54751 0.43197 0.25082 0.0
O142 O 0.51844 0.46334 0.29559 0.0
C143 C 0.53922 0.06067 0.18485 0.0
O144 O 0.55646 0.06718 0.1956 0.0
O145 O 0.56466 0.09259 0.26323 0.0
Zn146 Zn 0.53691 0.07664 0.26108 0.0
O147 O 0.5244 0.09166 0.27058 0.0
C148 C 0.53876 0.05993 0.33608 0.0
O149 O 0.55465 0.07523 0.33941 0.0
O150 O 0.52861 0.06339 0.20765 0.0
C151 C 0.52149 0.09505 0.30643 0.0
O152 O 0.52707 0.08908 0.33692 0.0
C153 C 0.57299 0.10917 0.27551 0.0
O154 O 0.56337 0.11706 0.28516 0.0
O155 O 0.52889 0.05742 0.30494 0.0
C156 C 0.46559 0.94223 0.83837 0.0
O157 O 0.4477 0.93289 0.83271 0.0
O158 O 0.4786 0.9115 0.75045 0.0
Zn159 Zn 0.46715 0.92729 0.75953 0.0
O160 O 0.43945 0.91161 0.757 0.0
C161 C 0.47013 0.93865 0.67787 0.0
O162 O 0.45895 0.92087 0.67343 0.0
O163 O 0.47617 0.94151 0.8118 0.0
C164 C 0.42978 0.9187 0.74642 0.0
O165 O 0.43798 0.93649 0.73944 0.0
C166 C 0.47074 0.89439 0.7582 0.0
O167 O 0.45442 0.88626 0.77531 0.0
O168 O 0.47559 0.94507 0.71313 0.0
C169 C 0.05314 0.53952 0.80894 0.0
O170 O 0.05283 0.55281 0.78858 0.0
O171 O 0.09102 0.56683 0.73569 0.0
Zn172 Zn 0.07431 0.53932 0.74006 0.0
O173 O 0.08865 0.52633 0.72997 0.0
C174 C 0.05087 0.54268 0.68074 0.0
O175 O 0.05778 0.55925 0.69624 0.0
O176 O 0.0617 0.53191 0.79431 0.0
C177 C 0.09491 0.52699 0.69466 0.0
O178 O 0.09218 0.53642 0.66653 0.0
C179 C 0.10851 0.57491 0.73609 0.0
O180 O 0.11666 0.56524 0.74253 0.0
O181 O 0.05545 0.53159 0.69567 0.0
C182 C 0.46301 0.52575 0.82834 0.0
O183 O 0.4459 0.52226 0.82884 0.0
O184 O 0.43564 0.52823 0.74876 0.0
Zn185 Zn 0.46308 0.5378 0.74535 0.0
O186 O 0.47743 0.56512 0.73306 0.0
C187 C 0.4561 0.51661 0.67158 0.0
O188 O 0.44061 0.51695 0.67178 0.0
O189 O 0.47265 0.53255 0.79667 0.0
C190 C 0.47929 0.57059 0.6966 0.0
O191 O 0.47136 0.55837 0.66774 0.0
C192 C 0.42799 0.53678 0.73426 0.0
O193 O 0.43829 0.55325 0.71875 0.0
O194 O 0.4676 0.5244 0.70008 0.0
C195 C 0.60529 0.80002 0.49775 0.0
O196 O 0.59097 0.78334 0.49549 0.0
O197 O 0.57477 0.80773 0.58649 0.0
Zn198 Zn 0.59279 0.79867 0.58045 0.0
O199 O 0.57906 0.77093 0.58113 0.0
C200 C 0.61425 0.82313 0.6446 0.0
O201 O 0.60909 0.83394 0.6274 0.0
O202 O 0.60844 0.80899 0.53054 0.0
C203 C 0.58703 0.76243 0.59407 0.0
O204 O 0.60449 0.77193 0.60421 0.0
C205 C 0.56257 0.80025 0.61382 0.0
O206 O 0.56171 0.78649 0.63461 0.0
O207 O 0.6092 0.80743 0.62925 0.0
C208 C 0.18566 0.79982 0.52442 0.0
O209 O 0.17192 0.78883 0.54805 0.0
O210 O 0.19592 0.76997 0.59338 0.0
Zn211 Zn 0.20689 0.79754 0.59021 0.0
O212 O 0.23413 0.81044 0.60177 0.0
C213 C 0.1801 0.79351 0.65047 0.0
O214 O 0.17089 0.7767 0.63598 0.0
O215 O 0.20205 0.80528 0.53594 0.0
C216 C 0.23904 0.80951 0.63764 0.0
O217 O 0.22631 0.79985 0.66459 0.0
C218 C 0.20514 0.76173 0.59539 0.0
O219 O 0.22316 0.77131 0.59246 0.0
O220 O 0.19541 0.80496 0.63454 0.0
C221 C 0.18604 0.38705 0.51023 0.0
O222 O 0.17207 0.38599 0.53049 0.0
O223 O 0.23245 0.42514 0.59188 0.0
Zn224 Zn 0.20553 0.4078 0.58017 0.0
O225 O 0.1919 0.42201 0.58439 0.0
C226 C 0.2054 0.38108 0.63556 0.0
O227 O 0.22145 0.38612 0.61889 0.0
O228 O 0.20211 0.39609 0.52526 0.0
C229 C 0.18364 0.42142 0.61708 0.0
O230 O 0.18373 0.4112 0.64702 0.0
C231 C 0.23681 0.43099 0.62792 0.0
O232 O 0.22372 0.42582 0.65508 0.0
O233 O 0.1959 0.38797 0.62265 0.0
H234 H 0.21128 0.38361 0.46408 0.0
H235 H 0.20581 0.36655 0.40073 0.0
H236 H 0.14848 0.35108 0.40513 0.0
H237 H 0.15379 0.36813 0.46826 0.0
H238 H 0.18072 0.32834 0.38821 0.0
H239 H 0.16467 0.37222 0.29024 0.0
H240 H 0.17613 0.37996 0.33839 0.0
H241 H 0.15164 0.36482 0.33632 0.0
C242 C 0.19753 0.3767 0.45143 0.0
C243 C 0.18298 0.37728 0.4712 0.0
C244 C 0.19443 0.36694 0.41528 0.0
C245 C 0.1768 0.35775 0.39803 0.0
C246 C 0.16226 0.35834 0.41759 0.0
H247 H 0.12666 0.28834 0.18911 0.0
H248 H 0.1334 0.30625 0.25141 0.0
C249 C 0.16532 0.36802 0.45379 0.0
C250 C 0.17342 0.34699 0.36032 0.0
H251 H 0.15891 0.34369 0.26272 0.0
C252 C 0.17607 0.33175 0.36066 0.0
C253 C 0.1673 0.35146 0.32453 0.0
C254 C 0.1649 0.3681 0.32204 0.0
C255 C 0.17235 0.32057 0.32636 0.0
C256 C 0.16616 0.32499 0.2906 0.0
C257 C 0.16362 0.34031 0.29021 0.0
C258 C 0.16213 0.31385 0.25326 0.0
C259 C 0.17462 0.30386 0.32902 0.0
C260 C 0.17608 0.31229 0.23347 0.0
C261 C 0.17228 0.30204 0.19786 0.0
C262 C 0.15445 0.29324 0.18124 0.0
C263 C 0.14052 0.29489 0.20112 0.0
C264 C 0.14435 0.30515 0.2367 0.0
H265 H 0.17492 0.29981 0.36086 0.0
H266 H 0.16329 0.29197 0.31293 0.0
H267 H 0.18782 0.30699 0.3146 0.0
H268 H 0.18998 0.31918 0.24531 0.0
H269 H 0.18335 0.30114 0.18324 0.0
H270 H 0.60281 0.78463 0.42344 0.0
H271 H 0.6243 0.79779 0.3668 0.0
H272 H 0.65777 0.84689 0.43638 0.0
H273 H 0.63651 0.83382 0.4933 0.0
H274 H 0.63518 0.83092 0.32444 0.0
H275 H 0.69468 0.83124 0.39906 0.0
H276 H 0.67149 0.81815 0.41833 0.0
H277 H 0.68478 0.84254 0.42692 0.0
C278 C 0.61475 0.79822 0.42675 0.0
C279 C 0.61799 0.80812 0.46299 0.0
C280 C 0.627 0.80572 0.39434 0.0
C281 C 0.64276 0.82318 0.39765 0.0
C282 C 0.64588 0.83323 0.4335 0.0
H283 H 0.73268 0.88986 0.23205 0.0
H284 H 0.71164 0.87831 0.28988 0.0
C285 C 0.63364 0.82577 0.46591 0.0
C286 C 0.65578 0.83098 0.36334 0.0
H287 H 0.7002 0.84575 0.33514 0.0
C288 C 0.64938 0.83412 0.32671 0.0
C289 C 0.67431 0.83521 0.3665 0.0
C290 C 0.68174 0.83149 0.40467 0.0
C291 C 0.66109 0.84155 0.29319 0.0
C292 C 0.67958 0.84562 0.29623 0.0
C293 C 0.68602 0.84263 0.33296 0.0
C294 C 0.69232 0.85259 0.26131 0.0
C295 C 0.65363 0.84523 0.255 0.0
C296 C 0.68857 0.84181 0.2264 0.0
C297 C 0.70053 0.84834 0.19339 0.0
C298 C 0.71656 0.86576 0.1947 0.0
C299 C 0.72043 0.87642 0.22999 0.0
C300 C 0.70844 0.86985 0.26306 0.0
H301 H 0.64101 0.84603 0.26089 0.0
H302 H 0.66407 0.85827 0.24057 0.0
H303 H 0.65002 0.83383 0.23331 0.0
H304 H 0.6764 0.82829 0.22475 0.0
H305 H 0.69716 0.83972 0.16681 0.0
H306 H 0.15232 0.79132 0.49207 0.0
H307 H 0.14641 0.80203 0.42811 0.0
H308 H 0.20475 0.83341 0.40477 0.0
H309 H 0.21083 0.82264 0.46849 0.0
H310 H 0.159 0.83866 0.40393 0.0
H311 H 0.18378 0.80357 0.30039 0.0
H312 H 0.17872 0.79735 0.35298 0.0
H313 H 0.19993 0.81745 0.33876 0.0
C314 C 0.16391 0.80042 0.47326 0.0
C315 C 0.18206 0.80607 0.48535 0.0
C316 C 0.16049 0.80654 0.43675 0.0
C317 C 0.17512 0.81832 0.41148 0.0
C318 C 0.19325 0.82405 0.42347 0.0
H319 H 0.1822 0.87047 0.18042 0.0
H320 H 0.18852 0.86039 0.24477 0.0
C321 C 0.19669 0.81795 0.46001 0.0
C322 C 0.1714 0.82498 0.37311 0.0
H323 H 0.17629 0.8247 0.27075 0.0
C324 C 0.16271 0.83557 0.37477 0.0
C325 C 0.17631 0.82095 0.33517 0.0
C326 C 0.18506 0.80908 0.33148 0.0
C327 C 0.15905 0.84249 0.33951 0.0
C328 C 0.16389 0.8384 0.30154 0.0
C329 C 0.17261 0.82784 0.2999 0.0
C330 C 0.15997 0.84486 0.26309 0.0
C331 C 0.15039 0.85444 0.3433 0.0
C332 C 0.1418 0.83937 0.2519 0.0
C333 C 0.13813 0.84515 0.21519 0.0
C334 C 0.15257 0.85641 0.18879 0.0
C335 C 0.17076 0.86183 0.20005 0.0
C336 C 0.1744 0.85607 0.2368 0.0
H337 H 0.15214 0.8603 0.37415 0.0
H338 H 0.15641 0.86592 0.32116 0.0
H339 H 0.13541 0.846 0.33718 0.0
H340 H 0.13041 0.83039 0.27132 0.0
H341 H 0.12396 0.84062 0.20734 0.0
H342 H 0.36321 0.20037 0.51784 0.0
H343 H 0.34316 0.19304 0.57675 0.0
H344 H 0.36847 0.16441 0.63085 0.0
H345 H 0.38871 0.17176 0.57215 0.0
H346 H 0.31795 0.15732 0.60524 0.0
H347 H 0.37007 0.19885 0.72163 0.0
H348 H 0.37463 0.20265 0.66814 0.0
H349 H 0.37514 0.18381 0.69269 0.0
C350 C 0.36466 0.19266 0.54241 0.0
C351 C 0.3776 0.18667 0.54029 0.0
C352 C 0.35316 0.18847 0.57601 0.0
C353 C 0.35446 0.17835 0.6083 0.0
C354 C 0.36746 0.1725 0.60653 0.0
H355 H 0.29409 0.13439 0.83141 0.0
H356 H 0.31506 0.14303 0.77382 0.0
C357 C 0.37895 0.17664 0.57286 0.0
C358 C 0.34163 0.17324 0.64296 0.0
H359 H 0.33981 0.17834 0.7449 0.0
C360 C 0.3227 0.16198 0.63577 0.0
C361 C 0.3479 0.1793 0.68271 0.0
C362 C 0.36803 0.19195 0.69189 0.0
C363 C 0.30986 0.15634 0.66741 0.0
C364 C 0.31612 0.16242 0.70718 0.0
C365 C 0.33506 0.1737 0.71437 0.0
C366 C 0.30325 0.15715 0.74181 0.0
C367 C 0.28977 0.14355 0.65816 0.0
C368 C 0.28976 0.16237 0.74307 0.0
C369 C 0.27771 0.15743 0.77593 0.0
C370 C 0.27902 0.14726 0.80826 0.0
C371 C 0.29266 0.14218 0.80699 0.0
C372 C 0.30468 0.14713 0.77414 0.0
H373 H 0.28782 0.13651 0.62863 0.0
H374 H 0.28314 0.13296 0.6821 0.0
H375 H 0.28259 0.15163 0.65677 0.0
H376 H 0.28864 0.17041 0.71878 0.0
H377 H 0.26744 0.16166 0.77604 0.0
H378 H 0.82776 0.20218 0.5183 0.0
H379 H 0.83617 0.19256 0.58074 0.0
H380 H 0.78039 0.14777 0.59319 0.0
H381 H 0.77191 0.15708 0.53053 0.0
H382 H 0.8225 0.18902 0.65865 0.0
H383 H 0.81025 0.12168 0.60113 0.0
H384 H 0.8116 0.13947 0.5682 0.0
H385 H 0.79081 0.125 0.59583 0.0
C386 C 0.81727 0.19027 0.5343 0.0
C387 C 0.79918 0.18032 0.51924 0.0
C388 C 0.82211 0.1848 0.56999 0.0
C389 C 0.80899 0.16925 0.59122 0.0
C390 C 0.79084 0.15955 0.57679 0.0
H391 H 0.8096 0.11385 0.81185 0.0
H392 H 0.80149 0.12438 0.75037 0.0
C393 C 0.78599 0.16497 0.54107 0.0
C394 C 0.81427 0.16328 0.62865 0.0
H395 H 0.81592 0.12708 0.67148 0.0
C396 C 0.82116 0.17552 0.66142 0.0
C397 C 0.81252 0.14566 0.63215 0.0
C398 C 0.80606 0.13224 0.59735 0.0
C399 C 0.82599 0.17046 0.6979 0.0
C400 C 0.82411 0.1528 0.70147 0.0
C401 C 0.81728 0.14059 0.66868 0.0
C402 C 0.82913 0.14668 0.73899 0.0
C403 C 0.83267 0.1839 0.73265 0.0
C404 C 0.8474 0.15562 0.75273 0.0
C405 C 0.8521 0.14963 0.78784 0.0
C406 C 0.83861 0.13453 0.8098 0.0
C407 C 0.82033 0.12554 0.79576 0.0
C408 C 0.81566 0.13153 0.76061 0.0
H409 H 0.82919 0.19495 0.72839 0.0
H410 H 0.82664 0.17675 0.76164 0.0
H411 H 0.84787 0.19048 0.73493 0.0
H412 H 0.85807 0.16714 0.73608 0.0
H413 H 0.86632 0.15682 0.79769 0.0
H414 H 0.88881 0.70122 0.81029 0.0
H415 H 0.87861 0.68307 0.74812 0.0
H416 H 0.83166 0.69098 0.7426 0.0
H417 H 0.8419 0.70939 0.80436 0.0
H418 H 0.84591 0.65079 0.73369 0.0
H419 H 0.85326 0.70593 0.62954 0.0
H420 H 0.86337 0.71073 0.67936 0.0
H421 H 0.83927 0.70295 0.67309 0.0
C422 C 0.87638 0.69921 0.79573 0.0
C423 C 0.86622 0.70684 0.81221 0.0
C424 C 0.87056 0.68881 0.76022 0.0
C425 C 0.85452 0.6859 0.74041 0.0
C426 C 0.84429 0.69339 0.75689 0.0
H427 H 0.7957 0.62385 0.52697 0.0
H428 H 0.80507 0.64168 0.58973 0.0
C429 C 0.85012 0.70384 0.79234 0.0
C430 C 0.84823 0.67454 0.7032 0.0
H431 H 0.83827 0.6755 0.60347 0.0
C432 C 0.84432 0.65621 0.70517 0.0
C433 C 0.84612 0.68163 0.66605 0.0
C434 C 0.85088 0.70143 0.66163 0.0
C435 C 0.83811 0.6447 0.67111 0.0
C436 C 0.83601 0.6518 0.63401 0.0
C437 C 0.83985 0.67009 0.63203 0.0
C438 C 0.83014 0.64056 0.59665 0.0
C439 C 0.83355 0.62495 0.67527 0.0
C440 C 0.8412 0.63413 0.57966 0.0
C441 C 0.83591 0.62397 0.54381 0.0
C442 C 0.81948 0.62009 0.52419 0.0
C443 C 0.80841 0.62653 0.54136 0.0
C444 C 0.81374 0.63675 0.57718 0.0
H445 H 0.83148 0.62044 0.70734 0.0
H446 H 0.82094 0.61561 0.65793 0.0
H447 H 0.8451 0.62354 0.66303 0.0
H448 H 0.85406 0.6372 0.59384 0.0
H449 H 0.8448 0.61929 0.53134 0.0
H450 H 0.95275 0.49823 0.13018 0.0
H451 H 0.96988 0.50976 0.06693 0.0
H452 H 0.98955 0.47129 0.07769 0.0
H453 H 0.97241 0.45959 0.14078 0.0
H454 H 0.00856 0.52534 0.05514 0.0
H455 H 0.96804 0.46253 0.9623 0.0
H456 H 0.95964 0.46634 0.00947 0.0
H457 H 0.97623 0.45876 0.00947 0.0
C458 C 0.96063 0.49213 0.119 0.0
C459 C 0.96115 0.47793 0.14049 0.0
C460 C 0.97043 0.49877 0.08289 0.0
C461 C 0.98079 0.49122 0.06741 0.0
C462 C 0.98138 0.47709 0.08878 0.0
H463 H 0.05037 0.51189 0.8577 0.0
H464 H 0.03327 0.50084 0.92104 0.0
C465 C 0.97164 0.47048 0.12495 0.0
C466 C 0.99138 0.49847 0.02946 0.0
H467 H 0.99554 0.48631 0.93326 0.0
C468 C 0.00568 0.51686 0.02839 0.0
C469 C 0.98759 0.48733 0.99472 0.0
C470 C 0.97194 0.46768 0.99372 0.0
C471 C 0.01655 0.52434 0.99368 0.0
C472 C 0.01277 0.51319 0.95892 0.0
C473 C 0.99843 0.49481 0.95998 0.0
C474 C 0.02351 0.52032 0.92107 0.0
C475 C 0.03226 0.54395 0.99484 0.0
C476 C 0.02359 0.53487 0.89994 0.0
C477 C 0.03338 0.54124 0.86374 0.0
C478 C 0.04317 0.5331 0.84785 0.0
C479 C 0.04303 0.5185 0.86911 0.0
C480 C 0.03324 0.51215 0.90529 0.0
H481 H 0.03628 0.54896 0.02632 0.0
H482 H 0.04451 0.54531 0.97877 0.0
H483 H 0.02798 0.55299 0.97959 0.0
H484 H 0.01588 0.54113 0.91116 0.0
H485 H 0.03311 0.55243 0.84805 0.0
H486 H 0.55048 0.48652 0.09624 0.0
H487 H 0.53941 0.4967 0.03877 0.0
H488 H 0.48777 0.47862 0.09992 0.0
H489 H 0.4987 0.46858 0.15754 0.0
H490 H 0.50809 0.4759 0.98999 0.0
H491 H 0.50424 0.53211 0.06957 0.0
H492 H 0.51675 0.52153 0.0896 0.0
H493 H 0.49212 0.51017 0.09441 0.0
C494 C 0.53677 0.48473 0.0975 0.0
C495 C 0.52552 0.47683 0.1316 0.0
C496 C 0.53048 0.49056 0.06464 0.0
C497 C 0.5129 0.48869 0.06541 0.0
C498 C 0.50153 0.48054 0.09908 0.0
H499 H 0.44621 0.51084 0.90053 0.0
H500 H 0.45875 0.50202 0.95753 0.0
C501 C 0.50778 0.47471 0.1319 0.0
C502 C 0.50625 0.49493 0.0307 0.0
H503 H 0.49067 0.52411 0.0043 0.0
C504 C 0.5044 0.48653 0.99299 0.0
C505 C 0.50143 0.50877 0.0348 0.0
C506 C 0.50387 0.51881 0.07417 0.0
C507 C 0.49743 0.49131 0.95943 0.0
C508 C 0.49248 0.50506 0.96361 0.0
C509 C 0.49444 0.51354 0.00125 0.0
C510 C 0.48512 0.51076 0.92929 0.0
C511 C 0.49496 0.48126 0.92006 0.0
C512 C 0.49592 0.51891 0.89487 0.0
C513 C 0.48882 0.52397 0.86226 0.0
C514 C 0.47078 0.52105 0.86355 0.0
C515 C 0.46013 0.51323 0.89847 0.0
C516 C 0.46726 0.50819 0.93109 0.0
H517 H 0.49514 0.46822 0.92442 0.0
H518 H 0.48179 0.47806 0.90531 0.0
H519 H 0.50638 0.49014 0.89929 0.0
H520 H 0.50987 0.52135 0.89322 0.0
H521 H 0.49744 0.53006 0.83595 0.0
H522 H 0.55851 0.0541 0.12693 0.0
H523 H 0.54631 0.03475 0.06678 0.0
H524 H 0.4914 0.02212 0.09914 0.0
H525 H 0.50349 0.04172 0.1588 0.0
H526 H 0.52151 0.99789 0.06303 0.0
H527 H 0.49406 0.03684 0.98178 0.0
H528 H 0.50959 0.04635 0.02412 0.0
H529 H 0.48545 0.03072 0.03238 0.0
C530 C 0.54385 0.04735 0.12106 0.0
C531 C 0.53199 0.04952 0.1476 0.0
C532 C 0.53691 0.03627 0.08669 0.0
C533 C 0.51799 0.0272 0.07813 0.0
C534 C 0.5061 0.02934 0.10459 0.0
H535 H 0.44699 0.94805 0.89919 0.0
H536 H 0.46002 0.96835 0.95772 0.0
C537 C 0.51304 0.04048 0.13884 0.0
C538 C 0.51058 0.01487 0.04254 0.0
H539 H 0.48517 0.00695 0.95656 0.0
C540 C 0.51368 -6e-05 0.03959 0.0
C541 C 0.50034 0.01756 0.01202 0.0
C542 C 0.49729 0.03384 0.01243 0.0
C543 C 0.50649 0.98741 0.0074 0.0
C544 C 0.49612 0.99001 0.97713 0.0
C545 C 0.49307 0.00496 0.97995 0.0
C546 C 0.48833 0.97739 0.94217 0.0
C547 C 0.50971 0.97124 0.00651 0.0
C548 C 0.49996 0.97584 0.91396 0.0
C549 C 0.49258 0.96425 0.88048 0.0
C550 C 0.47341 0.95406 0.87451 0.0
C551 C 0.46181 0.95565 0.90291 0.0
C552 C 0.46922 0.96727 0.93634 0.0
H553 H 0.51405 0.96878 0.03646 0.0
H554 H 0.49707 0.95852 0.99687 0.0
H555 H 0.52077 0.97405 0.98445 0.0
H556 H 0.51477 0.98378 0.91754 0.0
H557 H 0.50192 0.96342 0.85911 0.0
H558 H 0.18654 0.2961 0.97189 0.0
H559 H 0.19546 0.31271 0.90763 0.0
H560 H 0.14481 0.31419 0.90603 0.0
H561 H 0.13583 0.29776 0.97043 0.0
H562 H 0.17586 0.30092 0.83428 0.0
H563 H 0.18425 0.3679 0.88406 0.0
H564 H 0.18352 0.35106 0.91914 0.0
H565 H 0.16259 0.34823 0.8976 0.0
C566 C 0.17738 0.30013 0.95813 0.0
C567 C 0.16049 0.29564 0.97634 0.0
C568 C 0.18249 0.30958 0.92137 0.0
C569 C 0.17088 0.31483 0.90235 0.0
C570 C 0.15411 0.31055 0.92061 0.0
H571 H 0.17346 0.36893 0.67811 0.0
H572 H 0.16482 0.35175 0.74157 0.0
C573 C 0.14898 0.30109 0.95734 0.0
C574 C 0.17594 0.32408 0.86253 0.0
H575 H 0.18473 0.3634 0.81338 0.0
C576 C 0.17791 0.31462 0.82968 0.0
C577 C 0.17854 0.34191 0.85673 0.0
C578 C 0.17729 0.35297 0.89128 0.0
C579 C 0.18206 0.32241 0.79087 0.0
C580 C 0.18459 0.34022 0.78505 0.0
C581 C 0.1827 0.3497 0.81796 0.0
C582 C 0.18932 0.3494 0.74512 0.0
C583 C 0.18327 0.31133 0.7563 0.0
C584 C 0.20591 0.35366 0.72598 0.0
C585 C 0.21088 0.36343 0.68959 0.0
C586 C 0.19939 0.36924 0.67192 0.0
C587 C 0.18261 0.36464 0.69086 0.0
C588 C 0.17766 0.35486 0.72717 0.0
H589 H 0.17636 0.29642 0.76359 0.0
H590 H 0.17697 0.3132 0.72851 0.0
H591 H 0.19797 0.3161 0.74985 0.0
H592 H 0.21527 0.34987 0.73972 0.0
H593 H 0.22394 0.36684 0.67593 0.0
H594 H 0.62751 0.80424 0.68687 0.0
H595 H 0.64448 0.8131 0.75065 0.0
H596 H 0.6426 0.86352 0.75156 0.0
H597 H 0.6255 0.85476 0.68788 0.0
H598 H 0.67876 0.84559 0.76786 0.0
H599 H 0.62147 0.83987 0.863 0.0
H600 H 0.61778 0.82969 0.81335 0.0
H601 H 0.62661 0.85399 0.81867 0.0
C602 C 0.6307 0.81722 0.70059 0.0
C603 C 0.62508 0.82876 0.6824 0.0
C604 C 0.6404 0.82225 0.737 0.0
C605 C 0.64453 0.83882 0.75599 0.0
C606 C 0.63923 0.85052 0.73766 0.0
H607 H 0.70086 0.89065 0.97946 0.0
H608 H 0.68376 0.88276 0.91581 0.0
C609 C 0.62956 0.84553 0.70117 0.0
C610 C 0.6546 0.84391 0.79479 0.0
H611 H 0.65052 0.85157 0.89452 0.0
C612 C 0.6726 0.84687 0.7956 0.0
C613 C 0.64649 0.84561 0.83078 0.0
C614 C 0.62697 0.84199 0.83172 0.0
C615 C 0.68284 0.8517 0.83152 0.0
C616 C 0.67467 0.8532 0.86764 0.0
C617 C 0.6567 0.85037 0.86675 0.0
C618 C 0.68453 0.85762 0.90671 0.0
C619 C 0.70241 0.85547 0.83032 0.0
C620 C 0.69025 0.84587 0.92304 0.0
C621 C 0.70005 0.85034 0.9593 0.0
C622 C 0.70417 0.86658 0.98006 0.0
C623 C 0.69795 0.87806 0.96418 0.0
C624 C 0.68818 0.87359 0.92783 0.0
H625 H 0.70812 0.85855 0.79918 0.0
H626 H 0.71146 0.86721 0.85023 0.0
H627 H 0.70275 0.84312 0.84112 0.0
H628 H 0.68719 0.83326 0.90763 0.0
H629 H 0.70453 0.84114 0.97084 0.0
H630 H 0.109 0.80566 0.98646 0.0
H631 H 0.1181 0.79737 0.92316 0.0
H632 H 0.16796 0.85019 0.92101 0.0
H633 H 0.15915 0.85852 0.98445 0.0
H634 H 0.12435 0.81592 0.84972 0.0
H635 H 0.18669 0.81439 0.89993 0.0
H636 H 0.16997 0.81393 0.93497 0.0
H637 H 0.18687 0.83529 0.9125 0.0
C638 C 0.12203 0.81542 0.97283 0.0
C639 C 0.13337 0.83274 0.99055 0.0
C640 C 0.12717 0.81067 0.93662 0.0
C641 C 0.14378 0.82309 0.91767 0.0
C642 C 0.15526 0.84027 0.93556 0.0
H643 H 0.19727 0.82604 0.69204 0.0
H644 H 0.18764 0.83329 0.75591 0.0
C645 C 0.15014 0.84503 0.97175 0.0
C646 C 0.14865 0.8185 0.87805 0.0
H647 H 0.18173 0.81359 0.82902 0.0
C648 C 0.13682 0.81527 0.8452 0.0
C649 C 0.16496 0.81775 0.87231 0.0
C650 C 0.17778 0.82035 0.90685 0.0
C651 C 0.14107 0.81167 0.80648 0.0
C652 C 0.15744 0.81104 0.80071 0.0
C653 C 0.16922 0.81418 0.83358 0.0
C654 C 0.16257 0.80697 0.76086 0.0
C655 C 0.12824 0.80898 0.77191 0.0
C656 C 0.1516 0.78979 0.74248 0.0
C657 C 0.15704 0.7856 0.70597 0.0
C658 C 0.1736 0.7985 0.68732 0.0
C659 C 0.1844 0.81582 0.70553 0.0
C660 C 0.17897 0.81997 0.74207 0.0
H661 H 0.11885 0.81434 0.77921 0.0
H662 H 0.1361 0.81595 0.74418 0.0
H663 H 0.11967 0.79406 0.76531 0.0
H664 H 0.13906 0.77946 0.75687 0.0
H665 H 0.14844 0.77212 0.69285 0.0
H666 H 0.36563 0.21962 0.30304 0.0
H667 H 0.34514 0.20627 0.24502 0.0
H668 H 0.33641 0.15258 0.27633 0.0
H669 H 0.35716 0.16584 0.33401 0.0
H670 H 0.34463 0.1608 0.19626 0.0
H671 H 0.28928 0.17477 0.24297 0.0
H672 H 0.31176 0.19489 0.2429 0.0
H673 H 0.3067 0.17642 0.27751 0.0
C674 C 0.35923 0.20494 0.29782 0.0
C675 C 0.36299 0.19378 0.3232 0.0
C676 C 0.34744 0.19733 0.26476 0.0
C677 C 0.33906 0.1784 0.25674 0.0
C678 C 0.34269 0.16721 0.28213 0.0
H679 H 0.25085 0.11851 0.08401 0.0
H680 H 0.26978 0.12982 0.14489 0.0
C681 C 0.35453 0.17482 0.3151 0.0
C682 C 0.32715 0.1704 0.22082 0.0
H683 H 0.28841 0.16518 0.17484 0.0
C684 C 0.33227 0.16166 0.19165 0.0
C685 C 0.31094 0.17136 0.21516 0.0
C686 C 0.30421 0.1797 0.24646 0.0
C687 C 0.32179 0.15414 0.15654 0.0
C688 C 0.30598 0.15574 0.15014 0.0
C689 C 0.30065 0.16415 0.17967 0.0
C690 C 0.29472 0.1487 0.11305 0.0
C691 C 0.32762 0.14434 0.12691 0.0
C692 C 0.30246 0.15569 0.07502 0.0
C693 C 0.29171 0.1492 0.04013 0.0
C694 C 0.27297 0.13574 0.04274 0.0
C695 C 0.26524 0.12886 0.08094 0.0
C696 C 0.27602 0.13532 0.11577 0.0
H697 H 0.33675 0.13992 0.14125 0.0
H698 H 0.31548 0.13205 0.11397 0.0
H699 H 0.33535 0.15384 0.10177 0.0
H700 H 0.31677 0.16631 0.07234 0.0
H701 H 0.29805 0.15487 0.0112 0.0
H702 H 0.84906 0.10812 0.06437 0.0
H703 H 0.83952 0.1161 0.12731 0.0
H704 H 0.84035 0.16239 0.06842 0.0
H705 H 0.84942 0.15419 0.00498 0.0
H706 H 0.85765 0.14697 0.1716 0.0
H707 H 0.79066 0.13852 0.1226 0.0
H708 H 0.80306 0.13016 0.09308 0.0
H709 H 0.80943 0.15407 0.09104 0.0
C710 C 0.84706 0.11991 0.06469 0.0
C711 C 0.84991 0.13049 0.02965 0.0
C712 C 0.84161 0.12445 0.1007 0.0
C713 C 0.83895 0.13967 0.10244 0.0
C714 C 0.84186 0.15031 0.06754 0.0
H715 H 0.82133 0.19961 0.29114 0.0
H716 H 0.82914 0.18899 0.22952 0.0
C717 C 0.84715 0.14567 0.03136 0.0
C718 C 0.83393 0.14484 0.14124 0.0
H719 H 0.80248 0.15381 0.18559 0.0
C720 C 0.84549 0.1483 0.17476 0.0
C721 C 0.81802 0.1465 0.14533 0.0
C722 C 0.80448 0.14194 0.11121 0.0
C723 C 0.84182 0.15381 0.21196 0.0
C724 C 0.82619 0.15588 0.21566 0.0
C725 C 0.81451 0.15226 0.18241 0.0
C726 C 0.82196 0.16227 0.25359 0.0
C727 C 0.85486 0.15783 0.24686 0.0
C728 C 0.81538 0.1507 0.28745 0.0
C729 C 0.8108 0.15668 0.32277 0.0
C730 C 0.81283 0.17435 0.32471 0.0
C731 C 0.81967 0.18595 0.29076 0.0
C732 C 0.8241 0.17991 0.25547 0.0
H733 H 0.86763 0.15793 0.23754 0.0
H734 H 0.85865 0.17136 0.26055 0.0
H735 H 0.84792 0.14716 0.2705 0.0
H736 H 0.81353 0.13697 0.28633 0.0
H737 H 0.80554 0.14741 0.34836 0.0
H738 H 0.84046 0.70131 0.02061 0.0
H739 H 0.83244 0.68493 0.08514 0.0
H740 H 0.88538 0.68817 0.08861 0.0
H741 H 0.89363 0.70473 0.02427 0.0
H742 H 0.83109 0.65165 0.10682 0.0
H743 H 0.88287 0.71088 0.19712 0.0
H744 H 0.87639 0.71349 0.14658 0.0
H745 H 0.89191 0.70485 0.15426 0.0
C746 C 0.85038 0.69848 0.03497 0.0
C747 C 0.86774 0.70443 0.01742 0.0
C748 C 0.84578 0.68913 0.07184 0.0
C749 C 0.85845 0.68565 0.09191 0.0
C750 C 0.87556 0.69107 0.07395 0.0
H751 H 0.85391 0.63263 0.32088 0.0
H752 H 0.86337 0.64893 0.25622 0.0
C753 C 0.88019 0.70042 0.03706 0.0
C754 C 0.85369 0.67633 0.13166 0.0
H755 H 0.86584 0.68247 0.23133 0.0
C756 C 0.83865 0.65838 0.13407 0.0
C757 C 0.86364 0.68518 0.16707 0.0
C758 C 0.87952 0.70472 0.16641 0.0
C759 C 0.83337 0.64892 0.17099 0.0
C760 C 0.8432 0.65782 0.20647 0.0
C761 C 0.85835 0.67572 0.20402 0.0
C762 C 0.83781 0.6488 0.24648 0.0
C763 C 0.81749 0.62938 0.17161 0.0
C764 C 0.82051 0.64382 0.26285 0.0
C765 C 0.81506 0.63454 0.29972 0.0
C766 C 0.82688 0.63015 0.32101 0.0
C767 C 0.84447 0.63576 0.3052 0.0
C768 C 0.8499 0.64505 0.26827 0.0
H769 H 0.81457 0.62305 0.14107 0.0
H770 H 0.8203 0.62072 0.19248 0.0
H771 H 0.80493 0.62934 0.18234 0.0
H772 H 0.81114 0.64696 0.24687 0.0
H773 H 0.80146 0.63052 0.31113 0.0
H774 H 0.96635 0.52834 0.34443 0.0
H775 H 0.98362 0.53727 0.40796 0.0
H776 H 0.98164 0.48494 0.41235 0.0
H777 H 0.96459 0.47596 0.3488 0.0
H778 H 0.97174 0.51888 0.4826 0.0
H779 H 0.03626 0.52209 0.43124 0.0
H780 H 0.01964 0.52206 0.39651 0.0
H781 H 0.01575 0.5009 0.41902 0.0
C782 C 0.96978 0.51881 0.35866 0.0
C783 C 0.96415 0.50146 0.34148 0.0
C784 C 0.9796 0.52392 0.39498 0.0
C785 C 0.98407 0.51184 0.41455 0.0
C786 C 0.97862 0.49459 0.39732 0.0
H787 H 0.03622 0.51042 0.63835 0.0
H788 H 0.01915 0.50304 0.57476 0.0
C789 C 0.9688 0.48946 0.36107 0.0
C790 C 0.99372 0.51689 0.45392 0.0
H791 H 0.0323 0.52293 0.50221 0.0
C792 C 0.98505 0.51992 0.4869 0.0
C793 C 0.01104 0.51817 0.45933 0.0
C794 C 0.02133 0.5158 0.42459 0.0
C795 C 0.99305 0.52376 0.52549 0.0
C796 C 0.01029 0.52485 0.53096 0.0
C797 C 0.01903 0.52199 0.4979 0.0
C798 C 0.01958 0.52898 0.57073 0.0
C799 C 0.98279 0.52613 0.56027 0.0
C800 C 0.02539 0.54599 0.58956 0.0
C801 C 0.03511 0.55025 0.62595 0.0
C802 C 0.0393 0.53761 0.644 0.0
C803 C 0.03319 0.52045 0.62532 0.0
C804 C 0.02348 0.51622 0.58894 0.0
H805 H 0.96797 0.52045 0.55318 0.0
H806 H 0.98396 0.51929 0.58792 0.0
H807 H 0.98886 0.54102 0.56688 0.0
H808 H 0.02279 0.55616 0.57562 0.0
H809 H 0.03969 0.56362 0.63944 0.0
H810 H 0.48578 0.51164 0.66347 0.0
H811 H 0.49415 0.4998 0.60456 0.0
H812 H 0.44562 0.49202 0.54218 0.0
H813 H 0.4369 0.50342 0.60123 0.0
H814 H 0.45122 0.46284 0.53234 0.0
H815 H 0.51541 0.52851 0.50071 0.0
H816 H 0.51449 0.51997 0.55086 0.0
H817 H 0.49825 0.52692 0.53589 0.0
C818 C 0.47685 0.50735 0.63727 0.0
C819 C 0.46075 0.5086 0.6369 0.0
C820 C 0.48172 0.5007 0.60355 0.0
C821 C 0.4707 0.4954 0.56874 0.0
C822 C 0.45436 0.49615 0.56868 0.0
H823 H 0.50635 0.48235 0.33098 0.0
H824 H 0.4952 0.49199 0.38906 0.0
C825 C 0.44942 0.50268 0.60246 0.0
C826 C 0.47621 0.48915 0.53226 0.0
H827 H 0.51071 0.50241 0.46301 0.0
C828 C 0.4642 0.47149 0.51706 0.0
C829 C 0.493 0.50061 0.51202 0.0
C830 C 0.50596 0.52012 0.52541 0.0
C831 C 0.46867 0.46485 0.4825 0.0
C832 C 0.48579 0.47603 0.46324 0.0
C833 C 0.49766 0.4938 0.47806 0.0
C834 C 0.49173 0.46964 0.42763 0.0
C835 C 0.45487 0.44605 0.46659 0.0
C836 C 0.49354 0.45392 0.43015 0.0
C837 C 0.49977 0.44831 0.39694 0.0
C838 C 0.50456 0.45846 0.36079 0.0
C839 C 0.50277 0.47423 0.35839 0.0
C840 C 0.49642 0.47976 0.39154 0.0
H841 H 0.44071 0.44171 0.4772 0.0
H842 H 0.45487 0.4458 0.43305 0.0
H843 H 0.45853 0.43582 0.47771 0.0
H844 H 0.49043 0.44617 0.45802 0.0
H845 H 0.50113 0.43618 0.39988 0.0
H846 H 0.45808 0.93005 0.59998 0.0
H847 H 0.46959 0.9501 0.54062 0.0
H848 H 0.50845 0.99475 0.61545 0.0
H849 H 0.497 0.97489 0.67509 0.0
H850 H 0.4725 0.98759 0.53206 0.0
H851 H 0.53866 0.98749 0.52034 0.0
H852 H 0.51877 0.96954 0.54613 0.0
H853 H 0.53229 0.99162 0.56954 0.0
C854 C 0.46906 0.94414 0.60385 0.0
C855 C 0.47668 0.95088 0.64221 0.0
C856 C 0.47558 0.95555 0.56994 0.0
C857 C 0.48994 0.97378 0.57378 0.0
C858 C 0.49746 0.98063 0.61198 0.0
H859 H 0.55385 0.06374 0.41099 0.0
H860 H 0.54146 0.04234 0.46773 0.0
C861 C 0.49086 0.96929 0.64598 0.0
C862 C 0.49704 0.98571 0.53781 0.0
H863 H 0.53449 0.00716 0.47604 0.0
C864 C 0.486 0.99184 0.51958 0.0
C865 C 0.51467 0.99119 0.52196 0.0
C866 C 0.52682 0.98457 0.5402 0.0
C867 C 0.49234 0.00375 0.48622 0.0
C868 C 0.51 0.00922 0.47017 0.0
C869 C 0.52096 0.00292 0.48834 0.0
C870 C 0.51757 0.02186 0.43521 0.0
C871 C 0.48032 0.01082 0.46933 0.0
C872 C 0.50843 0.01727 0.39785 0.0
C873 C 0.51541 0.02954 0.36541 0.0
C874 C 0.53179 0.04651 0.36964 0.0
C875 C 0.54119 0.0508 0.40674 0.0
C876 C 0.53413 0.03859 0.43921 0.0
H877 H 0.46971 0.00938 0.49142 0.0
H878 H 0.48866 0.02552 0.46049 0.0
H879 H 0.47309 0.00273 0.44207 0.0
H880 H 0.49588 0.00421 0.3938 0.0
H881 H 0.50793 0.02576 0.3371 0.0
H882 H 0.11808 0.19084 0.08306 0.0
H883 H 0.13267 0.17331 0.06079 0.0
H884 H 0.18085 0.22369 0.02395 0.0
H885 H 0.16658 0.2413 0.04658 0.0
H886 H 0.14446 0.17184 0.98295 0.0
H887 H 0.20283 0.19862 0.09077 0.0
H888 H 0.18318 0.20165 0.09826 0.0
H889 H 0.20124 0.21638 0.06399 0.0
C890 C 0.13188 0.19821 0.07071 0.0
C891 C 0.14119 0.21748 0.06675 0.0
C892 C 0.14017 0.18817 0.0579 0.0
C893 C 0.15793 0.19722 0.04118 0.0
C894 C 0.1673 0.21645 0.03753 0.0
H895 H 0.23123 0.16508 0.93122 0.0
H896 H 0.2154 0.18132 0.95373 0.0
C897 C 0.15906 0.22649 0.05034 0.0
C898 C 0.16637 0.18655 0.02574 0.0
H899 H 0.20421 0.1816 0.03463 0.0
C900 C 0.15745 0.17385 0.99445 0.0
C901 C 0.18334 0.18926 0.04073 0.0
C902 C 0.19314 0.20209 0.07555 0.0
C903 C 0.16527 0.16408 0.97707 0.0
C904 C 0.18234 0.16695 0.99177 0.0
C905 C 0.19118 0.17954 0.02325 0.0
C906 C 0.19119 0.15685 0.97536 0.0
C907 C 0.15545 0.15109 0.94252 0.0
C908 C 0.18275 0.1377 0.97982 0.0
C909 C 0.19175 0.12837 0.967 0.0
C910 C 0.2094 0.13805 0.94964 0.0
C911 C 0.21763 0.1572 0.94437 0.0
C912 C 0.20864 0.16652 0.9573 0.0
H913 H 0.14498 0.15377 0.92849 0.0
H914 H 0.16537 0.15224 0.91889 0.0
H915 H 0.1483 0.13673 0.95396 0.0
H916 H 0.16942 0.13003 0.99427 0.0
H917 H 0.18504 0.11363 0.97165 0.0
H918 H 0.88118 0.07145 0.9361 0.0
H919 H 0.86595 0.03954 0.95953 0.0
H920 H 0.81306 0.03589 0.9466 0.0
H921 H 0.82811 0.06766 0.92257 0.0
H922 H 0.84432 0.02627 0.02785 0.0
H923 H 0.80454 0.98881 0.89197 0.0
H924 H 0.82313 0.01237 0.89005 0.0
H925 H 0.80069 0.00713 0.9073 0.0
C926 C 0.86629 0.06378 0.93758 0.0
C927 C 0.85586 0.07212 0.92741 0.0
C928 C 0.85762 0.04555 0.95108 0.0
C929 C 0.83838 0.03529 0.95445 0.0
C930 C 0.8279 0.04343 0.94347 0.0
H931 H 0.7588 0.92903 0.05076 0.0
H932 H 0.77522 0.96047 0.02458 0.0
C933 C 0.83655 0.06164 0.92988 0.0
C934 C 0.82934 0.01652 0.97199 0.0
H935 H 0.79682 0.97181 0.9535 0.0
C936 C 0.83404 0.01432 0.0115 0.0
C937 C 0.8159 0.00099 0.95062 0.0
C938 C 0.81087 0.00236 0.9075 0.0
C939 C 0.82535 0.99706 0.03058 0.0
C940 C 0.81178 0.98158 0.00934 0.0
C941 C 0.80718 0.98374 0.96974 0.0
C942 C 0.80214 0.96297 0.02761 0.0
C943 C 0.83041 0.99562 0.07363 0.0
C944 C 0.81187 0.95401 0.03824 0.0
C945 C 0.80254 0.93603 0.05332 0.0
C946 C 0.78328 0.92667 0.05781 0.0
C947 C 0.77364 0.93584 0.0478 0.0
C948 C 0.78298 0.95379 0.0327 0.0
H949 H 0.83768 0.00928 0.08868 0.0
H950 H 0.81796 0.98635 0.09153 0.0
H951 H 0.83969 0.98976 0.07381 0.0
H952 H 0.82664 0.96076 0.03394 0.0
H953 H 0.81038 0.92934 0.06052 0.0
H954 H 0.9298 0.75911 0.93493 0.0
H955 H 0.96161 0.77591 0.95895 0.0
H956 H 0.95876 0.82574 0.96602 0.0
H957 H 0.92686 0.80905 0.9423 0.0
H958 H 0.99293 0.8079 0.92696 0.0
H959 H 0.97425 0.81952 0.08103 0.0
H960 H 0.95753 0.80291 0.04651 0.0
H961 H 0.96557 0.82701 0.03996 0.0
C962 C 0.93595 0.77367 0.94132 0.0
C963 C 0.92574 0.78271 0.93697 0.0
C964 C 0.95413 0.78324 0.95505 0.0
C965 C 0.9624 0.80197 0.96489 0.0
C966 C 0.95249 0.8112 0.95928 0.0
H967 H 0.06976 0.87779 0.06874 0.0
H968 H 0.03855 0.8637 0.04103 0.0
C969 C 0.9343 0.80165 0.94548 0.0
C970 C 0.9813 0.81171 0.98155 0.0
H971 H 0.00594 0.83275 0.0666 0.0
C972 C 0.99581 0.81335 0.95746 0.0
C973 C 0.98496 0.81884 0.02133 0.0
C974 C 0.96978 0.8169 0.04894 0.0
C975 C 0.01394 0.82202 0.97204 0.0
C976 C 0.01756 0.82887 0.01206 0.0
C977 C 0.0031 0.82746 0.03596 0.0
C978 C 0.03623 0.83721 0.02992 0.0
C979 C 0.02909 0.82397 0.94429 0.0
C980 C 0.04505 0.82682 0.03379 0.0
C981 C 0.06285 0.8348 0.04956 0.0
C982 C 0.07213 0.85331 0.06206 0.0
C983 C 0.06302 0.86352 0.05931 0.0
C984 C 0.0452 0.85551 0.04345 0.0
H985 H 0.02498 0.82274 0.91203 0.0
H986 H 0.04186 0.83742 0.9488 0.0
H987 H 0.03225 0.81288 0.95098 0.0
H988 H 0.03818 0.81254 0.02442 0.0
H989 H 0.0694 0.82651 0.05148 0.0
H990 H 0.84841 0.76782 0.03347 0.0
H991 H 0.8324 0.78494 0.04596 0.0
H992 H 0.82673 0.78946 0.91761 0.0
H993 H 0.84244 0.77202 0.90478 0.0
H994 H 0.84159 0.81999 0.02269 0.0
H995 H 0.77416 0.76878 0.95749 0.0
H996 H 0.79202 0.76341 0.96853 0.0
H997 H 0.79316 0.77586 0.92337 0.0
C998 C 0.84372 0.7724 0.00785 0.0
C999 C 0.84659 0.76845 0.96811 0.0
C1000 C 0.83458 0.7822 0.01507 0.0
C1001 C 0.82812 0.78821 0.98275 0.0
C1002 C 0.83123 0.78458 0.94302 0.0
H1003 H 0.77292 0.85168 0.96349 0.0
H1004 H 0.78972 0.83527 0.95162 0.0
C1005 C 0.8403 0.7747 0.93574 0.0
C1006 C 0.81839 0.79856 0.99073 0.0
H1007 H 0.77781 0.79786 0.97513 0.0
C1008 C 0.82761 0.81512 0.01247 0.0
C1009 C 0.80014 0.79214 0.97743 0.0
C1010 C 0.7892 0.77399 0.95574 0.0
C1011 C 0.81918 0.82561 0.02064 0.0
C1012 C 0.80101 0.81925 0.00704 0.0
C1013 C 0.79177 0.8027 0.98538 0.0
C1014 C 0.79133 0.82962 0.01477 0.0
C1015 C 0.82987 0.84359 0.04305 0.0
C1016 C 0.78661 0.83178 0.05425 0.0
C1017 C 0.77696 0.84111 0.06118 0.0
C1018 C 0.77185 0.84842 0.02869 0.0
C1019 C 0.77668 0.84627 0.9892 0.0
C1020 C 0.78626 0.83688 0.98232 0.0
H1021 H 0.84485 0.84841 0.04381 0.0
H1022 H 0.82781 0.85443 0.02892 0.0
H1023 H 0.82484 0.84173 0.07465 0.0
H1024 H 0.79019 0.82603 0.07963 0.0
H1025 H 0.7734 0.84249 0.09193 0.0
H1026 H 0.16193 0.92645 0.08966 0.0
H1027 H 0.17906 0.95905 0.07101 0.0
H1028 H 0.15595 0.94549 0.95111 0.0
H1029 H 0.13903 0.91292 0.9692 0.0
H1030 H 0.1936 0.96862 0.95107 0.0
H1031 H 0.15958 0.9946 0.05438 0.0
H1032 H 0.16864 0.98176 0.07911 0.0
H1033 H 0.15008 0.97043 0.04357 0.0
C1034 C 0.16039 0.93042 0.05942 0.0
C1035 C 0.1491 0.91709 0.03093 0.0
C1036 C 0.17011 0.94906 0.04888 0.0
C1037 C 0.16859 0.9547 0.00983 0.0
C1038 C 0.15727 0.94143 0.98145 0.0
H1039 H 0.20704 0.06689 0.93011 0.0
H1040 H 0.1886 0.03411 0.94623 0.0
C1041 C 0.14759 0.92282 0.99189 0.0
C1042 C 0.17933 0.97432 0.9979 0.0
H1043 H 0.1863 0.0171 0.01995 0.0
C1044 C 0.19197 0.97922 0.96602 0.0
C1045 C 0.177 0.98807 0.01714 0.0
C1046 C 0.16297 0.98348 0.0502 0.0
C1047 C 0.20258 0.99757 0.95326 0.0
C1048 C 0.20068 0.0114 0.97337 0.0
C1049 C 0.18782 0.00647 0.00481 0.0
C1050 C 0.21195 0.03109 0.96235 0.0
C1051 C 0.21551 0.00193 0.91798 0.0
C1052 C 0.23118 0.04025 0.96619 0.0
C1053 C 0.24176 0.05895 0.95687 0.0
C1054 C 0.23328 0.06888 0.94382 0.0
C1055 C 0.214 0.05964 0.93992 0.0
C1056 C 0.20344 0.04092 0.94922 0.0
H1057 H 0.21176 0.98953 0.89935 0.0
H1058 H 0.21556 0.01269 0.89836 0.0
H1059 H 0.2297 0.00718 0.9295 0.0
H1060 H 0.23799 0.03299 0.97702 0.0
H1061 H 0.25656 0.06567 0.96047 0.0
H1062 H 0.92703 0.14477 0.90448 0.0
H1063 H 0.95976 0.15771 0.92058 0.0
H1064 H 0.95674 0.19532 0.00474 0.0
H1065 H 0.92414 0.18263 0.98879 0.0
H1066 H 0.98912 0.19817 0.91657 0.0
H1067 H 0.97823 0.16615 0.06872 0.0
H1068 H 0.96074 0.15708 0.02989 0.0
H1069 H 0.96531 0.17742 0.05715 0.0
C1070 C 0.93334 0.15583 0.92633 0.0
C1071 C 0.92298 0.16265 0.9454 0.0
C1072 C 0.95201 0.16319 0.93546 0.0
C1073 C 0.96052 0.1773 0.96412 0.0
C1074 C 0.95031 0.18428 0.98285 0.0
H1075 H 0.06777 0.23885 0.07456 0.0
H1076 H 0.03516 0.22392 0.05646 0.0
C1077 C 0.93171 0.17706 0.97354 0.0
C1078 C 0.98016 0.18491 0.97434 0.0
H1079 H 0.00886 0.18781 0.05062 0.0
C1080 C 0.9935 0.19584 0.94573 0.0
C1081 C 0.98571 0.18188 0.01251 0.0
C1082 C 0.9718 0.1699 0.04388 0.0
C1083 C 0.01236 0.20426 0.95467 0.0
C1084 C 0.01796 0.20122 0.9929 0.0
C1085 C 0.00455 0.19011 0.02135 0.0
C1086 C 0.03765 0.20976 0.00431 0.0
C1087 C 0.02606 0.21683 0.92359 0.0
C1088 C 0.0498 0.20643 0.98153 0.0
C1089 C 0.06847 0.21506 0.9916 0.0
C1090 C 0.07529 0.22697 0.02502 0.0
C1091 C 0.06297 0.22978 0.04859 0.0
C1092 C 0.04433 0.22126 0.03829 0.0
H1093 H 0.01956 0.22165 0.90111 0.0
H1094 H 0.0377 0.22904 0.9381 0.0
H1095 H 0.03169 0.20923 0.90704 0.0
H1096 H 0.04487 0.19721 0.95584 0.0
H1097 H 0.07757 0.21244 0.97307 0.0
H1098 H 0.81761 0.55663 0.42782 0.0
H1099 H 0.83355 0.53943 0.41363 0.0
H1100 H 0.82281 0.53999 0.28646 0.0
H1101 H 0.80682 0.55704 0.30016 0.0
H1102 H 0.81871 0.50355 0.36555 0.0
H1103 H 0.88083 0.56406 0.30129 0.0
H1104 H 0.86516 0.56639 0.33495 0.0
H1105 H 0.85882 0.55987 0.28327 0.0
C1106 C 0.81855 0.553 0.39686 0.0
C1107 C 0.81101 0.55826 0.3651 0.0
C1108 C 0.82763 0.54318 0.38885 0.0
C1109 C 0.82945 0.53863 0.34901 0.0
C1110 C 0.82165 0.54354 0.31737 0.0
H1111 H 0.88985 0.49206 0.23439 0.0
H1112 H 0.87096 0.50604 0.2493 0.0
C1113 C 0.81249 0.55324 0.32532 0.0
C1114 C 0.8398 0.52905 0.34021 0.0
H1115 H 0.87956 0.53538 0.29746 0.0
C1116 C 0.83204 0.51046 0.3508 0.0
C1117 C 0.8571 0.53817 0.32076 0.0
C1118 C 0.86612 0.55826 0.30954 0.0
C1119 C 0.84105 0.50058 0.34178 0.0
C1120 C 0.85847 0.50974 0.32258 0.0
C1121 C 0.8662 0.52837 0.31209 0.0
C1122 C 0.86908 0.50037 0.31345 0.0
C1123 C 0.83162 0.48035 0.35199 0.0
C1124 C 0.87434 0.49261 0.34457 0.0
C1125 C 0.88501 0.4845 0.33611 0.0
C1126 C 0.89085 0.48423 0.29641 0.0
C1127 C 0.88557 0.49203 0.26528 0.0
C1128 C 0.87479 0.50003 0.27374 0.0
H1129 H 0.8165 0.47437 0.35521 0.0
H1130 H 0.83426 0.47251 0.32849 0.0
H1131 H 0.83701 0.47855 0.3812 0.0
H1132 H 0.8705 0.49313 0.37557 0.0
H1133 H 0.88897 0.47876 0.36085 0.0
H1134 H 0.54619 0.40166 0.26956 0.0
H1135 H 0.5314 0.36961 0.29231 0.0
H1136 H 0.47813 0.36522 0.28114 0.0
H1137 H 0.49269 0.39708 0.25813 0.0
H1138 H 0.50917 0.35593 0.3617 0.0
H1139 H 0.47087 0.31861 0.22433 0.0
H1140 H 0.48958 0.34214 0.22301 0.0
H1141 H 0.46699 0.33702 0.2388 0.0
C1142 C 0.5313 0.39378 0.27128 0.0
C1143 C 0.52062 0.40193 0.262 0.0
C1144 C 0.5229 0.37549 0.28438 0.0
C1145 C 0.50368 0.36501 0.288 0.0
C1146 C 0.49296 0.37296 0.27783 0.0
H1147 H 0.42156 0.26058 0.38277 0.0
H1148 H 0.43948 0.29145 0.35418 0.0
C1149 C 0.50133 0.39123 0.26486 0.0
C1150 C 0.49482 0.3462 0.30516 0.0
H1151 H 0.46216 0.30162 0.28606 0.0
C1152 C 0.49905 0.34399 0.34506 0.0
C1153 C 0.4816 0.33071 0.28336 0.0
C1154 C 0.47709 0.33215 0.23987 0.0
C1155 C 0.48989 0.32678 0.36431 0.0
C1156 C 0.47639 0.31135 0.34276 0.0
C1157 C 0.47246 0.3135 0.30256 0.0
C1158 C 0.46581 0.29293 0.3616 0.0
C1159 C 0.49425 0.32539 0.40796 0.0
C1160 C 0.4747 0.28354 0.37532 0.0
C1161 C 0.4645 0.26591 0.3919 0.0
C1162 C 0.44521 0.2573 0.39472 0.0
C1163 C 0.43639 0.26682 0.38115 0.0
C1164 C 0.4466 0.28444 0.36468 0.0
H1165 H 0.5016 0.33911 0.42276 0.0
H1166 H 0.48148 0.31645 0.42525 0.0
H1167 H 0.50323 0.3192 0.40955 0.0
H1168 H 0.48949 0.28972 0.37255 0.0
H1169 H 0.47171 0.25891 0.40179 0.0
H1170 H 0.59665 0.09615 0.26257 0.0
H1171 H 0.62938 0.1112 0.27944 0.0
H1172 H 0.62755 0.15875 0.32262 0.0
H1173 H 0.59482 0.1439 0.30547 0.0
H1174 H 0.65826 0.16744 0.27413 0.0
H1175 H 0.64963 0.11797 0.39511 0.0
H1176 H 0.63988 0.10731 0.34746 0.0
H1177 H 0.63052 0.11943 0.37423 0.0
C1178 C 0.6032 0.10985 0.27547 0.0
C1179 C 0.59308 0.11878 0.2829 0.0
C1180 C 0.62188 0.11837 0.28535 0.0
C1181 C 0.63077 0.13592 0.30302 0.0
C1182 C 0.62088 0.14513 0.30931 0.0
H1183 H 0.73917 0.18554 0.41802 0.0
H1184 H 0.70634 0.17352 0.40473 0.0
C1185 C 0.60219 0.13662 0.29944 0.0
C1186 C 0.6504 0.14468 0.31481 0.0
H1187 H 0.68037 0.13881 0.37416 0.0
C1188 C 0.6631 0.16126 0.29617 0.0
C1189 C 0.65661 0.13673 0.3441 0.0
C1190 C 0.64344 0.11947 0.36672 0.0
C1191 C 0.68196 0.1698 0.30506 0.0
C1192 C 0.68827 0.16138 0.33291 0.0
C1193 C 0.6755 0.14513 0.35255 0.0
C1194 C 0.70813 0.16888 0.34101 0.0
C1195 C 0.69498 0.18778 0.28466 0.0
C1196 C 0.7199 0.16998 0.30972 0.0
C1197 C 0.73858 0.17679 0.31718 0.0
C1198 C 0.74587 0.18256 0.35617 0.0
C1199 C 0.734 0.18127 0.38763 0.0
C1200 C 0.71526 0.17441 0.38011 0.0
H1201 H 0.68766 0.19488 0.27344 0.0
H1202 H 0.70608 0.19716 0.30558 0.0
H1203 H 0.70145 0.18505 0.25834 0.0
H1204 H 0.71459 0.16541 0.27952 0.0
H1205 H 0.74729 0.17749 0.29228 0.0
H1206 H 0.50888 0.11037 0.25082 0.0
H1207 H 0.49251 0.12717 0.26408 0.0
H1208 H 0.49546 0.11961 0.39217 0.0
H1209 H 0.51203 0.10311 0.37934 0.0
H1210 H 0.45909 0.11454 0.3036 0.0
H1211 H 0.51484 0.17477 0.38366 0.0
H1212 H 0.51903 0.15905 0.35446 0.0
H1213 H 0.50976 0.15301 0.40471 0.0
C1214 C 0.50616 0.1124 0.28182 0.0
C1215 C 0.51184 0.10547 0.31403 0.0
C1216 C 0.4968 0.12198 0.28933 0.0
C1217 C 0.49303 0.12488 0.32912 0.0
C1218 C 0.49859 0.1179 0.36128 0.0
H1219 H 0.43234 0.17299 0.43744 0.0
H1220 H 0.44971 0.15712 0.42471 0.0
C1221 C 0.50797 0.10836 0.35383 0.0
C1222 C 0.48267 0.13458 0.33701 0.0
H1223 H 0.48504 0.1716 0.38574 0.0
C1224 C 0.4648 0.12708 0.32134 0.0
C1225 C 0.49014 0.1509 0.36032 0.0
C1226 C 0.50956 0.16003 0.37647 0.0
C1227 C 0.45406 0.13529 0.32888 0.0
C1228 C 0.46151 0.15156 0.35225 0.0
C1229 C 0.47937 0.15907 0.36797 0.0
C1230 C 0.4511 0.1612 0.35999 0.0
C1231 C 0.4347 0.12632 0.3124 0.0
C1232 C 0.44639 0.16894 0.32787 0.0
C1233 C 0.43653 0.178 0.335 0.0
C1234 C 0.43123 0.17955 0.37446 0.0
C1235 C 0.43616 0.17196 0.4067 0.0
C1236 C 0.44609 0.16292 0.3995 0.0
H1237 H 0.42955 0.11175 0.30374 0.0
H1238 H 0.42513 0.12678 0.33491 0.0
H1239 H 0.43452 0.13388 0.28506 0.0
H1240 H 0.45042 0.16802 0.29724 0.0
H1241 H 0.43304 0.18376 0.3095 0.0
H1242 H 0.83237 0.26871 0.41687 0.0
H1243 H 0.84996 0.30162 0.40082 0.0
H1244 H 0.83626 0.28933 0.27482 0.0
H1245 H 0.81886 0.25653 0.29038 0.0
H1246 H 0.87376 0.31327 0.28902 0.0
H1247 H 0.83025 0.33607 0.36846 0.0
H1248 H 0.83751 0.3231 0.39887 0.0
H1249 H 0.82227 0.31221 0.35694 0.0
C1250 C 0.833 0.27303 0.3858 0.0
C1251 C 0.8242 0.25999 0.35492 0.0
C1252 C 0.84298 0.29184 0.37671 0.0
C1253 C 0.84424 0.2979 0.33669 0.0
C1254 C 0.83541 0.28493 0.30591 0.0
H1255 H 0.88479 0.40926 0.24895 0.0
H1256 H 0.86636 0.37635 0.26416 0.0
C1257 C 0.82545 0.26618 0.31492 0.0
C1258 C 0.85531 0.31769 0.32641 0.0
H1259 H 0.85858 0.35948 0.34156 0.0
C1260 C 0.87044 0.32338 0.30046 0.0
C1261 C 0.8508 0.33078 0.34101 0.0
C1262 C 0.83423 0.32528 0.36759 0.0
C1263 C 0.88134 0.34189 0.28907 0.0
C1264 C 0.87711 0.35505 0.30448 0.0
C1265 C 0.86184 0.34934 0.33001 0.0
C1266 C 0.88841 0.37486 0.29452 0.0
C1267 C 0.89712 0.34715 0.26018 0.0
C1268 C 0.90688 0.38489 0.30669 0.0
C1269 C 0.91745 0.40366 0.29803 0.0
C1270 C 0.90971 0.41277 0.27716 0.0
C1271 C 0.89119 0.40265 0.26491 0.0
C1272 C 0.88062 0.38386 0.27367 0.0
H1273 H 0.89573 0.33502 0.24351 0.0
H1274 H 0.89806 0.35751 0.23795 0.0
H1275 H 0.91021 0.35331 0.27744 0.0
H1276 H 0.91306 0.37825 0.32339 0.0
H1277 H 0.93163 0.41105 0.30809 0.0
H1278 H 0.58203 0.47302 0.36074 0.0
H1279 H 0.61499 0.49154 0.37437 0.0
H1280 H 0.62441 0.51165 0.25181 0.0
H1281 H 0.59135 0.49329 0.23792 0.0
H1282 H 0.6444 0.49062 0.33628 0.0
H1283 H 0.6496 0.55896 0.31974 0.0
H1284 H 0.62783 0.53792 0.32524 0.0
H1285 H 0.63947 0.54382 0.27733 0.0
C1286 C 0.59108 0.48139 0.33663 0.0
C1287 C 0.58405 0.48176 0.29828 0.0
C1288 C 0.60992 0.49195 0.3445 0.0
C1289 C 0.62208 0.50316 0.3143 0.0
C1290 C 0.61519 0.50335 0.27577 0.0
H1291 H 0.73971 0.57634 0.30166 0.0
H1292 H 0.70672 0.55764 0.28885 0.0
C1293 C 0.59632 0.49278 0.26783 0.0
C1294 C 0.64201 0.51447 0.32315 0.0
H1295 H 0.67759 0.55879 0.3277 0.0
C1296 C 0.65167 0.50553 0.33457 0.0
C1297 C 0.6514 0.53391 0.32094 0.0
C1298 C 0.64155 0.54428 0.3105 0.0
C1299 C 0.67059 0.5155 0.34309 0.0
C1300 C 0.67999 0.53493 0.34078 0.0
C1301 C 0.67032 0.54388 0.32945 0.0
C1302 C 0.69996 0.54625 0.34915 0.0
C1303 C 0.68045 0.50514 0.35354 0.0
C1304 C 0.70706 0.54623 0.38754 0.0
C1305 C 0.72597 0.55691 0.39503 0.0
C1306 C 0.73806 0.56787 0.36426 0.0
C1307 C 0.73081 0.56803 0.32603 0.0
C1308 C 0.71195 0.55737 0.31861 0.0
H1309 H 0.67234 0.49042 0.34465 0.0
H1310 H 0.6941 0.51141 0.33851 0.0
H1311 H 0.68269 0.50576 0.38668 0.0
H1312 H 0.69798 0.538 0.41175 0.0
H1313 H 0.7311 0.55655 0.42484 0.0
H1314 H 0.53334 0.78569 0.66565 0.0
H1315 H 0.51534 0.79963 0.6883 0.0
H1316 H 0.54753 0.84653 0.6115 0.0
H1317 H 0.56529 0.83249 0.58794 0.0
H1318 H 0.52796 0.83159 0.72868 0.0
H1319 H 0.496 0.83533 0.58523 0.0
H1320 H 0.50693 0.82158 0.59064 0.0
H1321 H 0.52057 0.84596 0.5816 0.0
C1322 C 0.53641 0.79885 0.65311 0.0
C1323 C 0.55071 0.80797 0.6249 0.0
C1324 C 0.52613 0.80681 0.66614 0.0
C1325 C 0.52992 0.82401 0.65123 0.0
C1326 C 0.54405 0.83304 0.62268 0.0
H1327 H 0.50199 0.90631 0.71333 0.0
H1328 H 0.51552 0.88823 0.68883 0.0
C1329 C 0.55426 0.82504 0.6094 0.0
C1330 C 0.51996 0.83306 0.66753 0.0
H1331 H 0.49524 0.85358 0.64004 0.0
C1332 C 0.52061 0.8362 0.70936 0.0
C1333 C 0.51036 0.83903 0.64228 0.0
C1334 C 0.50824 0.83514 0.59751 0.0
C1335 C 0.51241 0.84566 0.72642 0.0
C1336 C 0.50329 0.85207 0.70101 0.0
C1337 C 0.50235 0.84869 0.65934 0.0
C1338 C 0.49516 0.86288 0.71694 0.0
C1339 C 0.514 0.84927 0.7713 0.0
C1340 C 0.47924 0.85454 0.7409 0.0
C1341 C 0.4714 0.86482 0.7549 0.0
C1342 C 0.47941 0.8836 0.74521 0.0
C1343 C 0.4955 0.8919 0.72151 0.0
C1344 C 0.50323 0.8816 0.70735 0.0
H1345 H 0.52377 0.84573 0.78588 0.0
H1346 H 0.51863 0.86397 0.77737 0.0
H1347 H 0.50028 0.84086 0.78552 0.0
H1348 H 0.47276 0.84004 0.74831 0.0
H1349 H 0.45899 0.85801 0.77299 0.0
H1350 H 0.22076 0.74033 0.60929 0.0
H1351 H 0.20524 0.70814 0.63121 0.0
H1352 H 0.15293 0.70623 0.62718 0.0
H1353 H 0.16822 0.73825 0.60493 0.0
H1354 H 0.18403 0.69405 0.70175 0.0
H1355 H 0.14283 0.6599 0.56492 0.0
H1356 H 0.16208 0.68314 0.56431 0.0
H1357 H 0.14005 0.67854 0.58301 0.0
C1358 C 0.20592 0.73299 0.61251 0.0
C1359 C 0.19573 0.74186 0.60526 0.0
C1360 C 0.1971 0.71462 0.62514 0.0
C1361 C 0.17793 0.70476 0.63039 0.0
C1362 C 0.16769 0.71348 0.62258 0.0
H1363 H 0.09577 0.59845 0.71895 0.0
H1364 H 0.11349 0.6302 0.69514 0.0
C1365 C 0.17648 0.73183 0.61002 0.0
C1366 C 0.16869 0.68568 0.64613 0.0
H1367 H 0.13494 0.64178 0.62484 0.0
C1368 C 0.17342 0.68256 0.68484 0.0
C1369 C 0.15483 0.67077 0.62398 0.0
C1370 C 0.14974 0.67317 0.58159 0.0
C1371 C 0.16424 0.665 0.70253 0.0
C1372 C 0.15019 0.65015 0.6806 0.0
C1373 C 0.14566 0.65323 0.64165 0.0
C1374 C 0.1398 0.63131 0.69756 0.0
C1375 C 0.16926 0.66259 0.74497 0.0
C1376 C 0.14876 0.62145 0.70707 0.0
C1377 C 0.13867 0.60328 0.72085 0.0
C1378 C 0.11943 0.59463 0.72506 0.0
C1379 C 0.11057 0.60469 0.71613 0.0
C1380 C 0.12066 0.62283 0.7024 0.0
H1381 H 0.17704 0.67596 0.76102 0.0
H1382 H 0.15675 0.6534 0.76276 0.0
H1383 H 0.17807 0.6562 0.74375 0.0
H1384 H 0.16348 0.62764 0.70288 0.0
H1385 H 0.14591 0.5959 0.72722 0.0
H1386 H 0.40759 0.54874 0.6935 0.0
H1387 H 0.37464 0.53145 0.67916 0.0
H1388 H 0.3695 0.48594 0.74994 0.0
H1389 H 0.40257 0.50299 0.76373 0.0
H1390 H 0.35375 0.47508 0.67624 0.0
H1391 H 0.33015 0.51932 0.74812 0.0
H1392 H 0.34873 0.53159 0.71321 0.0
H1393 H 0.35246 0.52188 0.75823 0.0
C1394 C 0.39942 0.53517 0.70659 0.0
C1395 C 0.40773 0.52724 0.72973 0.0
C1396 C 0.38054 0.52533 0.69851 0.0
C1397 C 0.36956 0.50748 0.71385 0.0
C1398 C 0.37772 0.49972 0.73788 0.0
H1399 H 0.25037 0.44283 0.70369 0.0
H1400 H 0.28255 0.46125 0.72413 0.0
C1401 C 0.39662 0.50951 0.7458 0.0
C1402 C 0.34987 0.4964 0.70243 0.0
H1403 H 0.30902 0.49612 0.70311 0.0
C1404 C 0.34394 0.47962 0.68234 0.0
C1405 C 0.33706 0.50227 0.71072 0.0
C1406 C 0.34236 0.51966 0.73411 0.0
C1407 C 0.32561 0.46867 0.66978 0.0
C1408 C 0.31296 0.47487 0.67668 0.0
C1409 C 0.31881 0.49151 0.69737 0.0
C1410 C 0.29347 0.46405 0.66369 0.0
C1411 C 0.3199 0.4504 0.6499 0.0
C1412 C 0.2889 0.45974 0.62279 0.0
C1413 C 0.27048 0.44909 0.61098 0.0
C1414 C 0.25631 0.44274 0.63986 0.0
C1415 C 0.26094 0.44746 0.68066 0.0
C1416 C 0.27933 0.45801 0.69244 0.0
H1417 H 0.32971 0.4455 0.65668 0.0
H1418 H 0.30594 0.43972 0.65987 0.0
H1419 H 0.31961 0.45193 0.61665 0.0
H1420 H 0.29957 0.4646 0.59999 0.0
H1421 H 0.26736 0.44581 0.57928 0.0
H1422 H 0.18048 0.44412 0.56183 0.0
H1423 H 0.16637 0.46331 0.57232 0.0
H1424 H 0.15233 0.44312 0.69439 0.0
H1425 H 0.1664 0.42405 0.68443 0.0
H1426 H 0.12921 0.45201 0.59651 0.0
H1427 H 0.18081 0.49976 0.70695 0.0
H1428 H 0.18502 0.48498 0.67437 0.0
H1429 H 0.17121 0.47581 0.71907 0.0
C1430 C 0.17439 0.44377 0.5909 0.0
C1431 C 0.17466 0.43263 0.62237 0.0
C1432 C 0.16635 0.45473 0.59681 0.0
C1433 C 0.15861 0.45484 0.63433 0.0
C1434 C 0.15856 0.4435 0.66547 0.0
H1435 H 0.10174 0.50514 0.7448 0.0
H1436 H 0.1174 0.48802 0.72806 0.0
C1437 C 0.16653 0.43253 0.6596 0.0
C1438 C 0.15029 0.46656 0.64104 0.0
H1439 H 0.15335 0.50126 0.70036 0.0
C1440 C 0.13456 0.46291 0.6189 0.0
C1441 C 0.15733 0.48072 0.67034 0.0
C1442 C 0.17462 0.48571 0.69383 0.0
C1443 C 0.12528 0.47266 0.62627 0.0
C1444 C 0.13216 0.48664 0.65605 0.0
C1445 C 0.14808 0.49049 0.67767 0.0
C1446 C 0.12282 0.49718 0.6659 0.0
C1447 C 0.10785 0.46749 0.60313 0.0
C1448 C 0.12094 0.50822 0.63665 0.0
C1449 C 0.11196 0.51799 0.64607 0.0
C1450 C 0.10482 0.517 0.68504 0.0
C1451 C 0.10703 0.50617 0.71448 0.0
C1452 C 0.11599 0.49639 0.70499 0.0
H1453 H 0.10206 0.45372 0.58882 0.0
H1454 H 0.09724 0.46747 0.62321 0.0
H1455 H 0.11093 0.47774 0.57883 0.0
H1456 H 0.12646 0.50934 0.60654 0.0
H1457 H 0.1106 0.5263 0.62276 0.0
H1458 H 0.48452 0.58639 0.62214 0.0
H1459 H 0.50323 0.61891 0.60477 0.0
H1460 H 0.51801 0.63218 0.73005 0.0
H1461 H 0.49905 0.59959 0.74793 0.0
H1462 H 0.50801 0.65554 0.69266 0.0
H1463 H 0.55941 0.64845 0.60072 0.0
H1464 H 0.53606 0.63351 0.58499 0.0
H1465 H 0.54343 0.63051 0.63402 0.0
C1466 C 0.49175 0.59619 0.64607 0.0
C1467 C 0.49037 0.59038 0.68643 0.0
C1468 C 0.50253 0.61477 0.63601 0.0
C1469 C 0.51228 0.62789 0.666 0.0
C1470 C 0.51069 0.62222 0.70642 0.0
H1471 H 0.5993 0.74063 0.62695 0.0
H1472 H 0.5811 0.70801 0.64438 0.0
C1473 C 0.49986 0.60361 0.71656 0.0
C1474 C 0.52384 0.64758 0.65518 0.0
H1475 H 0.56036 0.67725 0.597 0.0
C1476 C 0.51951 0.66032 0.67188 0.0
C1477 C 0.53897 0.65379 0.62846 0.0
C1478 C 0.54489 0.64089 0.61129 0.0
C1479 C 0.52968 0.67908 0.66196 0.0
C1480 C 0.54437 0.68517 0.63404 0.0
C1481 C 0.54894 0.67249 0.61798 0.0
C1482 C 0.55542 0.70473 0.6218 0.0
C1483 C 0.5248 0.69224 0.68195 0.0
C1484 C 0.54709 0.71357 0.60238 0.0
C1485 C 0.55744 0.73223 0.59242 0.0
C1486 C 0.57635 0.74235 0.60147 0.0
C1487 C 0.58476 0.73327 0.61966 0.0
C1488 C 0.57439 0.71463 0.62967 0.0
H1489 H 0.51659 0.6863 0.70989 0.0
H1490 H 0.53738 0.7054 0.68974 0.0
H1491 H 0.51644 0.69533 0.6608 0.0
H1492 H 0.53255 0.70607 0.5952 0.0
H1493 H 0.55056 0.73878 0.5782 0.0
H1494 H 0.26881 0.83217 0.59075 0.0
H1495 H 0.30112 0.84958 0.61145 0.0
H1496 H 0.28608 0.82689 0.73148 0.0
H1497 H 0.25375 0.80965 0.7113 0.0
H1498 H 0.30907 0.86458 0.73127 0.0
H1499 H 0.33674 0.83061 0.63266 0.0
H1500 H 0.32406 0.83931 0.60594 0.0
H1501 H 0.31241 0.82097 0.64185 0.0
C1502 C 0.27239 0.83077 0.62147 0.0
C1503 C 0.2587 0.8195 0.64936 0.0
C1504 C 0.29087 0.84066 0.63319 0.0
C1505 C 0.29601 0.83933 0.67285 0.0
C1506 C 0.2824 0.82805 0.70068 0.0
H1507 H 0.40873 0.88132 0.75527 0.0
H1508 H 0.37595 0.86182 0.74009 0.0
C1509 C 0.26393 0.81819 0.68905 0.0
C1510 C 0.31549 0.85026 0.68585 0.0
H1511 H 0.35874 0.858 0.66609 0.0
C1512 C 0.31993 0.86309 0.71718 0.0
C1513 C 0.32957 0.8481 0.66778 0.0
C1514 C 0.32548 0.83388 0.63546 0.0
C1515 C 0.33816 0.87412 0.73033 0.0
C1516 C 0.35234 0.87246 0.71118 0.0
C1517 C 0.34785 0.85934 0.68049 0.0
C1518 C 0.37197 0.88438 0.72212 0.0
C1519 C 0.34206 0.88731 0.76487 0.0
C1520 C 0.38058 0.90352 0.71698 0.0
C1521 C 0.39927 0.9147 0.72572 0.0
C1522 C 0.40975 0.90693 0.73948 0.0
C1523 C 0.40105 0.88775 0.74485 0.0
C1524 C 0.38234 0.87658 0.73611 0.0
H1525 H 0.32953 0.88333 0.78323 0.0
H1526 H 0.35298 0.88796 0.78493 0.0
H1527 H 0.34688 0.90129 0.75257 0.0
H1528 H 0.37291 0.90979 0.70546 0.0
H1529 H 0.40556 0.9294 0.72102 0.0
loop_
_geom_bond_atom_site_label_1
_geom_bond_atom_site_label_2
_geom_bond_distance
_geom_bond_site_symmetry_2
_ccdc_geom_bond_type
C0 O1 1.160 . S
C0 O7 1.185 . S
O1 C0 1.160 . S
O2 Zn3 1.899 . S
O2 C10 1.284 . S
Zn3 O2 1.899 . S
Zn3 O4 2.032 . S
Zn3 O7 2.086 . S
Zn3 O12 1.977 . S
O4 Zn3 2.032 . S
O4 C8 1.278 . S
C5 O6 1.203 . S
C5 O12 1.267 1_556 S
O6 C5 1.203 . S
O7 C0 1.185 . S
O7 Zn3 2.086 . S
C8 O4 1.278 . S
C8 O9 1.211 . S
O9 C8 1.211 . S
C10 O2 1.284 . S
C10 O11 1.273 . S
O11 C10 1.273 . S
O12 Zn3 1.977 . S
O12 C5 1.267 1_554 S
C13 O14 1.160 . S
C13 O20 1.185 . S
O14 C13 1.160 . S
O15 Zn16 1.899 . S
O15 C23 1.284 . S
Zn16 O15 1.899 . S
Zn16 O17 2.032 . S
Zn16 O20 2.086 . S
Zn16 O25 1.977 . S
O17 Zn16 2.032 . S
O17 C21 1.278 . S
C18 O19 1.203 . S
C18 O25 1.267 1_556 S
O19 C18 1.203 . S
O20 C13 1.185 . S
O20 Zn16 2.086 . S
C21 O17 1.278 . S
C21 O22 1.211 . S
O22 C21 1.211 . S
C23 O15 1.284 . S
C23 O24 1.273 . S
O24 C23 1.273 . S
O25 Zn16 1.977 . S
O25 C18 1.267 1_554 S
C26 O27 1.160 . S
C26 O33 1.185 . S
O27 C26 1.160 . S
O28 Zn29 1.899 . S
O28 C36 1.284 . S
Zn29 O28 1.899 . S
Zn29 O30 2.032 . S
Zn29 O33 2.086 . S
Zn29 O38 1.977 . S
O30 Zn29 2.032 . S
O30 C34 1.278 . S
C31 O32 1.203 . S
C31 O38 1.267 1_556 S
O32 C31 1.203 . S
O33 C26 1.185 . S
O33 Zn29 2.086 . S
C34 O30 1.278 . S
C34 O35 1.211 . S
O35 C34 1.211 . S
C36 O28 1.284 . S
C36 O37 1.273 . S
O37 C36 1.273 . S
O38 Zn29 1.977 . S
O38 C31 1.267 1_554 S
C39 O40 1.160 . S
C39 O46 1.185 . S
O40 C39 1.160 . S
O41 Zn42 1.899 . S
O41 C49 1.284 . S
Zn42 O41 1.899 . S
Zn42 O43 2.032 . S
Zn42 O46 2.086 . S
Zn42 O51 1.977 . S
O43 Zn42 2.032 . S
O43 C47 1.278 . S
C44 O45 1.203 . S
C44 O51 1.267 1_554 S
O45 C44 1.203 . S
O46 C39 1.185 . S
O46 Zn42 2.086 . S
C47 O43 1.278 . S
C47 O48 1.211 . S
O48 C47 1.211 . S
C49 O41 1.284 . S
C49 O50 1.273 . S
O50 C49 1.273 . S
O51 Zn42 1.977 . S
O51 C44 1.267 1_556 S
C52 O53 1.160 . S
C52 O59 1.185 . S
O53 C52 1.160 . S
O54 Zn55 1.899 . S
O54 C62 1.284 . S
Zn55 O54 1.899 . S
Zn55 O56 2.032 . S
Zn55 O59 2.086 . S
Zn55 O64 1.977 . S
O56 Zn55 2.032 . S
O56 C60 1.278 . S
C57 O58 1.203 . S
C57 O64 1.267 1_554 S
O58 C57 1.203 . S
O59 C52 1.185 . S
O59 Zn55 2.086 . S
C60 O56 1.278 . S
C60 O61 1.211 . S
O61 C60 1.211 . S
C62 O54 1.284 . S
C62 O63 1.273 . S
O63 C62 1.273 . S
O64 Zn55 1.977 . S
O64 C57 1.267 1_556 S
C65 O66 1.160 . S
C65 O72 1.185 . S
O66 C65 1.160 . S
O67 Zn68 1.899 . S
O67 C75 1.284 . S
Zn68 O67 1.899 . S
Zn68 O69 2.032 . S
Zn68 O72 2.086 . S
Zn68 O77 1.977 . S
O69 Zn68 2.032 . S
O69 C73 1.278 . S
C70 O71 1.203 . S
C70 O77 1.267 1_554 S
O71 C70 1.203 . S
O72 C65 1.185 . S
O72 Zn68 2.086 . S
C73 O69 1.278 . S
C73 O74 1.211 . S
O74 C73 1.211 . S
C75 O67 1.284 . S
C75 O76 1.273 . S
O76 C75 1.273 . S
O77 Zn68 1.977 . S
O77 C70 1.267 1_556 S
C78 O79 1.160 . S
C78 O85 1.185 . S
O79 C78 1.160 . S
O80 Zn81 1.899 . S
O80 C88 1.284 . S
Zn81 O80 1.899 . S
Zn81 O82 2.032 . S
Zn81 O85 2.086 . S
Zn81 O90 1.977 . S
O82 Zn81 2.032 . S
O82 C86 1.278 . S
C83 O84 1.203 . S
C83 O90 1.267 . S
O84 C83 1.203 . S
O85 C78 1.185 . S
O85 Zn81 2.086 . S
C86 O82 1.278 . S
C86 O87 1.211 . S
O87 C86 1.211 . S
C88 O80 1.284 . S
C88 O89 1.273 . S
O89 C88 1.273 . S
O90 Zn81 1.977 . S
O90 C83 1.267 . S
C91 O92 1.160 . S
C91 O98 1.185 . S
O92 C91 1.160 . S
O93 Zn94 1.899 . S
O93 C101 1.284 . S
Zn94 O93 1.899 . S
Zn94 O95 2.032 . S
Zn94 O98 2.086 . S
Zn94 O103 1.977 . S
O95 Zn94 2.032 . S
O95 C99 1.278 . S
C96 O97 1.203 . S
C96 O103 1.267 . S
O97 C96 1.203 . S
O98 C91 1.185 . S
O98 Zn94 2.086 . S
C99 O95 1.278 . S
C99 O100 1.211 . S
O100 C99 1.211 . S
C101 O93 1.284 . S
C101 O102 1.273 . S
O102 C101 1.273 . S
O103 Zn94 1.977 . S
O103 C96 1.267 . S
C104 O105 1.160 . S
C104 O111 1.185 . S
O105 C104 1.160 . S
O106 Zn107 1.899 . S
O106 C114 1.284 . S
Zn107 O106 1.899 . S
Zn107 O108 2.032 . S
Zn107 O111 2.086 . S
Zn107 O116 1.977 . S
O108 Zn107 2.032 . S
O108 C112 1.278 . S
C109 O110 1.203 . S
C109 O116 1.267 . S
O110 C109 1.203 . S
O111 C104 1.185 . S
O111 Zn107 2.086 . S
C112 O108 1.278 . S
C112 O113 1.211 . S
O113 C112 1.211 . S
C114 O106 1.284 . S
C114 O115 1.273 . S
O115 C114 1.273 . S
O116 Zn107 1.977 . S
O116 C109 1.267 . S
C117 O118 1.160 . S
C117 O124 1.185 . S
O118 C117 1.160 . S
O119 Zn120 1.899 . S
O119 C127 1.284 . S
Zn120 O119 1.899 . S
Zn120 O121 2.032 . S
Zn120 O124 2.086 . S
Zn120 O129 1.977 . S
O121 Zn120 2.032 . S
O121 C125 1.278 . S
C122 O123 1.203 . S
C122 O129 1.267 . S
O123 C122 1.203 . S
O124 C117 1.185 . S
O124 Zn120 2.086 . S
C125 O121 1.278 . S
C125 O126 1.211 . S
O126 C125 1.211 . S
C127 O119 1.284 . S
C127 O128 1.273 . S
O128 C127 1.273 . S
O129 Zn120 1.977 . S
O129 C122 1.267 . S
C130 O131 1.160 . S
C130 O137 1.185 . S
O131 C130 1.160 . S
O132 Zn133 1.899 . S
O132 C140 1.284 . S
Zn133 O132 1.899 . S
Zn133 O134 2.032 . S
Zn133 O137 2.086 . S
Zn133 O142 1.977 . S
O134 Zn133 2.032 . S
O134 C138 1.278 . S
C135 O136 1.203 . S
C135 O142 1.267 . S
O136 C135 1.203 . S
O137 C130 1.185 . S
O137 Zn133 2.086 . S
C138 O134 1.278 . S
C138 O139 1.211 . S
O139 C138 1.211 . S
C140 O132 1.284 . S
C140 O141 1.273 . S
O141 C140 1.273 . S
O142 Zn133 1.977 . S
O142 C135 1.267 . S
C143 O144 1.160 . S
C143 O150 1.185 . S
O144 C143 1.160 . S
O145 Zn146 1.899 . S
O145 C153 1.284 . S
Zn146 O145 1.899 . S
Zn146 O147 2.032 . S
Zn146 O150 2.086 . S
Zn146 O155 1.977 . S
O147 Zn146 2.032 . S
O147 C151 1.278 . S
C148 O149 1.203 . S
C148 O155 1.267 . S
O149 C148 1.203 . S
O150 C143 1.185 . S
O150 Zn146 2.086 . S
C151 O147 1.278 . S
C151 O152 1.211 . S
O152 C151 1.211 . S
C153 O145 1.284 . S
C153 O154 1.273 . S
O154 C153 1.273 . S
O155 Zn146 1.977 . S
O155 C148 1.267 . S
C156 O157 1.160 . S
C156 O163 1.185 . S
O157 C156 1.160 . S
O158 Zn159 1.899 . S
O158 C166 1.284 . S
Zn159 O158 1.899 . S
Zn159 O160 2.032 . S
Zn159 O163 2.086 . S
Zn159 O168 1.977 . S
O160 Zn159 2.032 . S
O160 C164 1.278 . S
C161 O162 1.203 . S
C161 O168 1.267 . S
O162 C161 1.203 . S
O163 C156 1.185 . S
O163 Zn159 2.086 . S
C164 O160 1.278 . S
C164 O165 1.211 . S
O165 C164 1.211 . S
C166 O158 1.284 . S
C166 O167 1.273 . S
O167 C166 1.273 . S
O168 Zn159 1.977 . S
O168 C161 1.267 . S
C169 O170 1.160 . S
C169 O176 1.185 . S
O170 C169 1.160 . S
O171 Zn172 1.899 . S
O171 C179 1.284 . S
Zn172 O171 1.899 . S
Zn172 O173 2.032 . S
Zn172 O176 2.086 . S
Zn172 O181 1.977 . S
O173 Zn172 2.032 . S
O173 C177 1.278 . S
C174 O175 1.203 . S
C174 O181 1.267 . S
O175 C174 1.203 . S
O176 C169 1.185 . S
O176 Zn172 2.086 . S
C177 O173 1.278 . S
C177 O178 1.211 . S
O178 C177 1.211 . S
C179 O171 1.284 . S
C179 O180 1.273 . S
O180 C179 1.273 . S
O181 Zn172 1.977 . S
O181 C174 1.267 . S
C182 O183 1.160 . S
C182 O189 1.185 . S
O183 C182 1.160 . S
O184 Zn185 1.899 . S
O184 C192 1.284 . S
Zn185 O184 1.899 . S
Zn185 O186 2.032 . S
Zn185 O189 2.086 . S
Zn185 O194 1.977 . S
O186 Zn185 2.032 . S
O186 C190 1.278 . S
C187 O188 1.203 . S
C187 O194 1.267 . S
O188 C187 1.203 . S
O189 C182 1.185 . S
O189 Zn185 2.086 . S
C190 O186 1.278 . S
C190 O191 1.211 . S
O191 C190 1.211 . S
C192 O184 1.284 . S
C192 O193 1.273 . S
O193 C192 1.273 . S
O194 Zn185 1.977 . S
O194 C187 1.267 . S
C195 O196 1.160 . S
C195 O202 1.185 . S
O196 C195 1.160 . S
O197 Zn198 1.899 . S
O197 C205 1.284 . S
Zn198 O197 1.899 . S
Zn198 O199 2.032 . S
Zn198 O202 2.086 . S
Zn198 O207 1.977 . S
O199 Zn198 2.032 . S
O199 C203 1.278 . S
C200 O201 1.203 . S
C200 O207 1.267 . S
O201 C200 1.203 . S
O202 C195 1.185 . S
O202 Zn198 2.086 . S
C203 O199 1.278 . S
C203 O204 1.211 . S
O204 C203 1.211 . S
C205 O197 1.284 . S
C205 O206 1.273 . S
O206 C205 1.273 . S
O207 Zn198 1.977 . S
O207 C200 1.267 . S
C208 O209 1.160 . S
C208 O215 1.185 . S
O209 C208 1.160 . S
O210 Zn211 1.899 . S
O210 C218 1.284 . S
Zn211 O210 1.899 . S
Zn211 O212 2.032 . S
Zn211 O215 2.086 . S
Zn211 O220 1.977 . S
O212 Zn211 2.032 . S
O212 C216 1.278 . S
C213 O214 1.203 . S
C213 O220 1.267 . S
O214 C213 1.203 . S
O215 C208 1.185 . S
O215 Zn211 2.086 . S
C216 O212 1.278 . S
C216 O217 1.211 . S
O217 C216 1.211 . S
C218 O210 1.284 . S
C218 O219 1.273 . S
O219 C218 1.273 . S
O220 Zn211 1.977 . S
O220 C213 1.267 . S
C221 O222 1.160 . S
C221 O228 1.185 . S
O222 C221 1.160 . S
O223 Zn224 1.899 . S
O223 C231 1.284 . S
Zn224 O223 1.899 . S
Zn224 O225 2.032 . S
Zn224 O228 2.086 . S
Zn224 O233 1.977 . S
O225 Zn224 2.032 . S
O225 C229 1.278 . S
C226 O227 1.203 . S
C226 O233 1.267 . S
O227 C226 1.203 . S
O228 C221 1.185 . S
O228 Zn224 2.086 . S
C229 O225 1.278 . S
C229 O230 1.211 . S
O230 C229 1.211 . S
C231 O223 1.284 . S
C231 O232 1.273 . S
O232 C231 1.273 . S
O233 Zn224 1.977 . S
O233 C226 1.267 . S
H234 C242 0.929 . S
H235 C244 0.930 . S
H236 C246 0.930 . S
H237 C249 0.929 . S
H238 C252 0.930 . S
H239 C254 0.960 . S
H240 C254 0.960 . S
H241 C254 0.960 . S
C242 H234 0.929 . S
C242 C243 1.377 . S
C242 C244 1.384 . S
C243 C242 1.377 . S
C243 C249 1.390 . S
C244 H235 0.930 . S
C244 C242 1.384 . S
C244 C245 1.372 . S
C245 C244 1.372 . S
C245 C246 1.400 . S
C245 C250 1.490 . S
C246 H236 0.930 . S
C246 C245 1.400 . S
C246 C249 1.386 . S
H247 C263 0.930 . S
H248 C264 0.931 . S
C249 H237 0.929 . S
C249 C243 1.390 . S
C249 C246 1.386 . S
C250 C245 1.490 . S
C250 C252 1.395 . S
C250 C253 1.403 . S
H251 C257 0.930 . S
C252 H238 0.930 . S
C252 C250 1.395 . S
C252 C255 1.403 . S
C253 C250 1.403 . S
C253 C254 1.524 . S
C253 C257 1.400 . S
C254 H239 0.960 . S
C254 H240 0.960 . S
C254 H241 0.960 . S
C254 C253 1.524 . S
C255 C252 1.403 . S
C255 C256 1.392 . S
C255 C259 1.495 . S
C256 C255 1.392 . S
C256 C257 1.385 . S
C256 C258 1.478 . S
C257 H251 0.930 . S
C257 C253 1.400 . S
C257 C256 1.385 . S
C258 C256 1.478 . S
C258 C260 1.381 . S
C258 C264 1.383 . S
C259 C255 1.495 . S
C259 H265 0.959 . S
C259 H266 0.961 . S
C259 H267 0.960 . S
C260 C258 1.381 . S
C260 C261 1.394 . S
C260 H268 0.930 . S
C261 C260 1.394 . S
C261 C262 1.383 . S
C261 H269 0.929 . S
C262 C261 1.383 . S
C262 C263 1.377 . S
C263 H247 0.930 . S
C263 C262 1.377 . S
C263 C264 1.379 . S
C264 H248 0.931 . S
C264 C258 1.383 . S
C264 C263 1.379 . S
H265 C259 0.959 . S
H266 C259 0.961 . S
H267 C259 0.960 . S
H268 C260 0.930 . S
H269 C261 0.929 . S
H270 C278 0.929 . S
H271 C280 0.930 . S
H272 C282 0.930 . S
H273 C285 0.929 . S
H274 C288 0.930 . S
H275 C290 0.960 . S
H276 C290 0.960 . S
H277 C290 0.960 . S
C278 H270 0.929 . S
C278 C279 1.377 . S
C278 C280 1.384 . S
C279 C278 1.377 . S
C279 C285 1.390 . S
C280 H271 0.930 . S
C280 C278 1.384 . S
C280 C281 1.372 . S
C281 C280 1.372 . S
C281 C282 1.400 . S
C281 C286 1.490 . S
C282 H272 0.930 . S
C282 C281 1.400 . S
C282 C285 1.386 . S
H283 C299 0.930 . S
H284 C300 0.931 . S
C285 H273 0.929 . S
C285 C279 1.390 . S
C285 C282 1.386 . S
C286 C281 1.490 . S
C286 C288 1.395 . S
C286 C289 1.403 . S
H287 C293 0.930 . S
C288 H274 0.930 . S
C288 C286 1.395 . S
C288 C291 1.403 . S
C289 C286 1.403 . S
C289 C290 1.524 . S
C289 C293 1.400 . S
C290 H275 0.960 . S
C290 H276 0.960 . S
C290 H277 0.960 . S
C290 C289 1.524 . S
C291 C288 1.403 . S
C291 C292 1.392 . S
C291 C295 1.495 . S
C292 C291 1.392 . S
C292 C293 1.385 . S
C292 C294 1.478 . S
C293 H287 0.930 . S
C293 C289 1.400 . S
C293 C292 1.385 . S
C294 C292 1.478 . S
C294 C296 1.381 . S
C294 C300 1.383 . S
C295 C291 1.495 . S
C295 H301 0.959 . S
C295 H302 0.961 . S
C295 H303 0.960 . S
C296 C294 1.381 . S
C296 C297 1.394 . S
C296 H304 0.930 . S
C297 C296 1.394 . S
C297 C298 1.383 . S
C297 H305 0.929 . S
C298 C297 1.383 . S
C298 C299 1.377 . S
C299 H283 0.930 . S
C299 C298 1.377 . S
C299 C300 1.379 . S
C300 H284 0.931 . S
C300 C294 1.383 . S
C300 C299 1.379 . S
H301 C295 0.959 . S
H302 C295 0.961 . S
H303 C295 0.960 . S
H304 C296 0.930 . S
H305 C297 0.929 . S
H306 C314 0.929 . S
H307 C316 0.930 . S
H308 C318 0.930 . S
H309 C321 0.929 . S
H310 C324 0.930 . S
H311 C326 0.960 . S
H312 C326 0.960 . S
H313 C326 0.960 . S
C314 H306 0.929 . S
C314 C315 1.377 . S
C314 C316 1.384 . S
C315 C314 1.377 . S
C315 C321 1.390 . S
C316 H307 0.930 . S
C316 C314 1.384 . S
C316 C317 1.372 . S
C317 C316 1.372 . S
C317 C318 1.400 . S
C317 C322 1.490 . S
C318 H308 0.930 . S
C318 C317 1.400 . S
C318 C321 1.386 . S
H319 C335 0.930 . S
H320 C336 0.931 . S
C321 H309 0.929 . S
C321 C315 1.390 . S
C321 C318 1.386 . S
C322 C317 1.490 . S
C322 C324 1.395 . S
C322 C325 1.403 . S
H323 C329 0.930 . S
C324 H310 0.930 . S
C324 C322 1.395 . S
C324 C327 1.403 . S
C325 C322 1.403 . S
C325 C326 1.524 . S
C325 C329 1.400 . S
C326 H311 0.960 . S
C326 H312 0.960 . S
C326 H313 0.960 . S
C326 C325 1.524 . S
C327 C324 1.403 . S
C327 C328 1.392 . S
C327 C331 1.495 . S
C328 C327 1.392 . S
C328 C329 1.385 . S
C328 C330 1.478 . S
C329 H323 0.930 . S
C329 C325 1.400 . S
C329 C328 1.385 . S
C330 C328 1.478 . S
C330 C332 1.381 . S
C330 C336 1.383 . S
C331 C327 1.495 . S
C331 H337 0.959 . S
C331 H338 0.961 . S
C331 H339 0.960 . S
C332 C330 1.381 . S
C332 C333 1.394 . S
C332 H340 0.930 . S
C333 C332 1.394 . S
C333 C334 1.383 . S
C333 H341 0.929 . S
C334 C333 1.383 . S
C334 C335 1.377 . S
C335 H319 0.930 . S
C335 C334 1.377 . S
C335 C336 1.379 . S
C336 H320 0.931 . S
C336 C330 1.383 . S
C336 C335 1.379 . S
H337 C331 0.959 . S
H338 C331 0.961 . S
H339 C331 0.960 . S
H340 C332 0.930 . S
H341 C333 0.929 . S
H342 C350 0.929 . S
H343 C352 0.930 . S
H344 C354 0.930 . S
H345 C357 0.929 . S
H346 C360 0.930 . S
H347 C362 0.960 . S
H348 C362 0.960 . S
H349 C362 0.960 . S
C350 H342 0.929 . S
C350 C351 1.377 . S
C350 C352 1.384 . S
C351 C350 1.377 . S
C351 C357 1.390 . S
C352 H343 0.930 . S
C352 C350 1.384 . S
C352 C353 1.372 . S
C353 C352 1.372 . S
C353 C354 1.400 . S
C353 C358 1.490 . S
C354 H344 0.930 . S
C354 C353 1.400 . S
C354 C357 1.386 . S
H355 C371 0.930 . S
H356 C372 0.931 . S
C357 H345 0.929 . S
C357 C351 1.390 . S
C357 C354 1.386 . S
C358 C353 1.490 . S
C358 C360 1.395 . S
C358 C361 1.403 . S
H359 C365 0.930 . S
C360 H346 0.930 . S
C360 C358 1.395 . S
C360 C363 1.403 . S
C361 C358 1.403 . S
C361 C362 1.524 . S
C361 C365 1.400 . S
C362 H347 0.960 . S
C362 H348 0.960 . S
C362 H349 0.960 . S
C362 C361 1.524 . S
C363 C360 1.403 . S
C363 C364 1.392 . S
C363 C367 1.495 . S
C364 C363 1.392 . S
C364 C365 1.385 . S
C364 C366 1.478 . S
C365 H359 0.930 . S
C365 C361 1.400 . S
C365 C364 1.385 . S
C366 C364 1.478 . S
C366 C368 1.381 . S
C366 C372 1.383 . S
C367 C363 1.495 . S
C367 H373 0.959 . S
C367 H374 0.961 . S
C367 H375 0.960 . S
C368 C366 1.381 . S
C368 C369 1.394 . S
C368 H376 0.930 . S
C369 C368 1.394 . S
C369 C370 1.383 . S
C369 H377 0.929 . S
C370 C369 1.383 . S
C370 C371 1.377 . S
C371 H355 0.930 . S
C371 C370 1.377 . S
C371 C372 1.379 . S
C372 H356 0.931 . S
C372 C366 1.383 . S
C372 C371 1.379 . S
H373 C367 0.959 . S
H374 C367 0.961 . S
H375 C367 0.960 . S
H376 C368 0.930 . S
H377 C369 0.929 . S
H378 C386 0.929 . S
H379 C388 0.930 . S
H380 C390 0.930 . S
H381 C393 0.929 . S
H382 C396 0.930 . S
H383 C398 0.960 . S
H384 C398 0.960 . S
H385 C398 0.960 . S
C386 H378 0.929 . S
C386 C387 1.377 . S
C386 C388 1.384 . S
C387 C386 1.377 . S
C387 C393 1.390 . S
C388 H379 0.930 . S
C388 C386 1.384 . S
C388 C389 1.372 . S
C389 C388 1.372 . S
C389 C390 1.400 . S
C389 C394 1.490 . S
C390 H380 0.930 . S
C390 C389 1.400 . S
C390 C393 1.386 . S
H391 C407 0.930 . S
H392 C408 0.931 . S
C393 H381 0.929 . S
C393 C387 1.390 . S
C393 C390 1.386 . S
C394 C389 1.490 . S
C394 C396 1.395 . S
C394 C397 1.403 . S
H395 C401 0.930 . S
C396 H382 0.930 . S
C396 C394 1.395 . S
C396 C399 1.403 . S
C397 C394 1.403 . S
C397 C398 1.524 . S
C397 C401 1.400 . S
C398 H383 0.960 . S
C398 H384 0.960 . S
C398 H385 0.960 . S
C398 C397 1.524 . S
C399 C396 1.403 . S
C399 C400 1.392 . S
C399 C403 1.495 . S
C400 C399 1.392 . S
C400 C401 1.385 . S
C400 C402 1.478 . S
C401 H395 0.930 . S
C401 C397 1.400 . S
C401 C400 1.385 . S
C402 C400 1.478 . S
C402 C404 1.381 . S
C402 C408 1.383 . S
C403 C399 1.495 . S
C403 H409 0.959 . S
C403 H410 0.961 . S
C403 H411 0.960 . S
C404 C402 1.381 . S
C404 C405 1.394 . S
C404 H412 0.930 . S
C405 C404 1.394 . S
C405 C406 1.383 . S
C405 H413 0.929 . S
C406 C405 1.383 . S
C406 C407 1.377 . S
C407 H391 0.930 . S
C407 C406 1.377 . S
C407 C408 1.379 . S
C408 H392 0.931 . S
C408 C402 1.383 . S
C408 C407 1.379 . S
H409 C403 0.959 . S
H410 C403 0.961 . S
H411 C403 0.960 . S
H412 C404 0.930 . S
H413 C405 0.929 . S
H414 C422 0.929 . S
H415 C424 0.930 . S
H416 C426 0.930 . S
H417 C429 0.929 . S
H418 C432 0.930 . S
H419 C434 0.960 . S
H420 C434 0.960 . S
H421 C434 0.960 . S
C422 H414 0.929 . S
C422 C423 1.377 . S
C422 C424 1.384 . S
C423 C422 1.377 . S
C423 C429 1.390 . S
C424 H415 0.930 . S
C424 C422 1.384 . S
C424 C425 1.372 . S
C425 C424 1.372 . S
C425 C426 1.400 . S
C425 C430 1.490 . S
C426 H416 0.930 . S
C426 C425 1.400 . S
C426 C429 1.386 . S
H427 C443 0.930 . S
H428 C444 0.931 . S
C429 H417 0.929 . S
C429 C423 1.390 . S
C429 C426 1.386 . S
C430 C425 1.490 . S
C430 C432 1.395 . S
C430 C433 1.403 . S
H431 C437 0.930 . S
C432 H418 0.930 . S
C432 C430 1.395 . S
C432 C435 1.403 . S
C433 C430 1.403 . S
C433 C434 1.524 . S
C433 C437 1.400 . S
C434 H419 0.960 . S
C434 H420 0.960 . S
C434 H421 0.960 . S
C434 C433 1.524 . S
C435 C432 1.403 . S
C435 C436 1.392 . S
C435 C439 1.495 . S
C436 C435 1.392 . S
C436 C437 1.385 . S
C436 C438 1.478 . S
C437 H431 0.930 . S
C437 C433 1.400 . S
C437 C436 1.385 . S
C438 C436 1.478 . S
C438 C440 1.381 . S
C438 C444 1.383 . S
C439 C435 1.495 . S
C439 H445 0.959 . S
C439 H446 0.961 . S
C439 H447 0.960 . S
C440 C438 1.381 . S
C440 C441 1.394 . S
C440 H448 0.930 . S
C441 C440 1.394 . S
C441 C442 1.383 . S
C441 H449 0.929 . S
C442 C441 1.383 . S
C442 C443 1.377 . S
C443 H427 0.930 . S
C443 C442 1.377 . S
C443 C444 1.379 . S
C444 H428 0.931 . S
C444 C438 1.383 . S
C444 C443 1.379 . S
H445 C439 0.959 . S
H446 C439 0.961 . S
H447 C439 0.960 . S
H448 C440 0.930 . S
H449 C441 0.929 . S
H450 C458 0.929 . S
H451 C460 0.930 . S
H452 C462 0.930 . S
H453 C465 0.929 . S
H454 C468 0.930 . S
H455 C470 0.960 . S
H456 C470 0.960 1_554 S
H457 C470 0.955 1_554 S
C458 H450 0.929 . S
C458 C459 1.377 . S
C458 C460 1.384 . S
C459 C458 1.377 . S
C459 C465 1.390 . S
C460 H451 0.930 . S
C460 C458 1.384 . S
C460 C461 1.372 . S
C461 C460 1.372 . S
C461 C462 1.400 . S
C461 C466 1.490 . S
C462 H452 0.930 . S
C462 C461 1.400 . S
C462 C465 1.386 . S
H463 C479 0.930 . S
H464 C480 0.931 . S
C465 H453 0.929 . S
C465 C459 1.390 . S
C465 C462 1.386 . S
C466 C461 1.490 . S
C466 C468 1.395 1_655 S
C466 C469 1.403 1_554 S
H467 C473 0.930 . S
C468 H454 0.930 . S
C468 C466 1.395 1_455 S
C468 C471 1.403 . S
C469 C466 1.403 1_556 S
C469 C470 1.524 . S
C469 C473 1.400 . S
C470 H455 0.960 . S
C470 H456 0.960 1_556 S
C470 H457 0.955 1_556 S
C470 C469 1.524 . S
C471 C468 1.403 . S
C471 C472 1.392 1_554 S
C471 C475 1.495 . S
C472 C471 1.392 1_556 S
C472 C473 1.385 1_455 S
C472 C474 1.478 . S
C473 H467 0.930 . S
C473 C469 1.400 . S
C473 C472 1.385 1_655 S
C474 C472 1.478 . S
C474 C476 1.381 . S
C474 C480 1.383 . S
C475 C471 1.495 . S
C475 H481 0.959 . S
C475 H482 0.962 1_554 S
C475 H483 0.960 . S
C476 C474 1.381 . S
C476 C477 1.394 . S
C476 H484 0.930 . S
C477 C476 1.394 . S
C477 C478 1.383 . S
C477 H485 0.929 . S
C478 C477 1.383 . S
C478 C479 1.377 . S
C479 H463 0.930 . S
C479 C478 1.377 . S
C479 C480 1.379 . S
C480 H464 0.931 . S
C480 C474 1.383 . S
C480 C479 1.379 . S
H481 C475 0.959 . S
H482 C475 0.962 1_556 S
H483 C475 0.960 . S
H484 C476 0.930 . S
H485 C477 0.929 . S
H486 C494 0.929 . S
H487 C496 0.930 . S
H488 C498 0.930 . S
H489 C501 0.929 . S
H490 C504 0.930 . S
H491 C506 0.960 . S
H492 C506 0.960 . S
H493 C506 0.960 . S
C494 H486 0.929 . S
C494 C495 1.377 . S
C494 C496 1.384 . S
C495 C494 1.377 . S
C495 C501 1.390 . S
C496 H487 0.930 . S
C496 C494 1.384 . S
C496 C497 1.372 . S
C497 C496 1.372 . S
C497 C498 1.400 . S
C497 C502 1.490 . S
C498 H488 0.930 . S
C498 C497 1.400 . S
C498 C501 1.386 . S
H499 C515 0.930 . S
H500 C516 0.931 . S
C501 H489 0.929 . S
C501 C495 1.390 . S
C501 C498 1.386 . S
C502 C497 1.490 . S
C502 C504 1.395 . S
C502 C505 1.403 . S
H503 C509 0.930 . S
C504 H490 0.930 . S
C504 C502 1.395 . S
C504 C507 1.403 1_554 S
C505 C502 1.403 . S
C505 C506 1.524 . S
C505 C509 1.400 1_554 S
C506 H491 0.960 . S
C506 H492 0.960 . S
C506 H493 0.960 . S
C506 C505 1.524 . S
C507 C504 1.403 1_556 S
C507 C508 1.392 . S
C507 C511 1.495 . S
C508 C507 1.392 . S
C508 C509 1.385 . S
C508 C510 1.478 . S
C509 H503 0.930 . S
C509 C505 1.400 1_556 S
C509 C508 1.385 . S
C510 C508 1.478 . S
C510 C512 1.381 . S
C510 C516 1.383 . S
C511 C507 1.495 . S
C511 H517 0.959 . S
C511 H518 0.961 . S
C511 H519 0.960 . S
C512 C510 1.381 . S
C512 C513 1.394 . S
C512 H520 0.930 . S
C513 C512 1.394 . S
C513 C514 1.383 . S
C513 H521 0.929 . S
C514 C513 1.383 . S
C514 C515 1.377 . S
C515 H499 0.930 . S
C515 C514 1.377 . S
C515 C516 1.379 . S
C516 H500 0.931 . S
C516 C510 1.383 . S
C516 C515 1.379 . S
H517 C511 0.959 . S
H518 C511 0.961 . S
H519 C511 0.960 . S
H520 C512 0.930 . S
H521 C513 0.929 . S
H522 C530 0.929 . S
H523 C532 0.930 . S
H524 C534 0.930 . S
H525 C537 0.929 . S
H526 C540 0.930 . S
H527 C542 0.960 . S
H528 C542 0.960 . S
H529 C542 0.960 . S
C530 H522 0.929 . S
C530 C531 1.377 . S
C530 C532 1.384 . S
C531 C530 1.377 . S
C531 C537 1.390 . S
C532 H523 0.930 . S
C532 C530 1.384 . S
C532 C533 1.372 . S
C533 C532 1.372 . S
C533 C534 1.400 . S
C533 C538 1.490 . S
C534 H524 0.930 . S
C534 C533 1.400 . S
C534 C537 1.386 . S
H535 C551 0.930 . S
H536 C552 0.931 . S
C537 H525 0.929 . S
C537 C531 1.390 . S
C537 C534 1.386 . S
C538 C533 1.490 . S
C538 C540 1.395 . S
C538 C541 1.403 . S
H539 C545 0.930 . S
C540 H526 0.930 . S
C540 C538 1.395 . S
C540 C543 1.403 1_544 S
C541 C538 1.403 . S
C541 C542 1.524 . S
C541 C545 1.400 1_544 S
C542 H527 0.960 . S
C542 H528 0.960 . S
C542 H529 0.960 . S
C542 C541 1.524 . S
C543 C540 1.403 1_566 S
C543 C544 1.392 . S
C543 C547 1.495 . S
C544 C543 1.392 . S
C544 C545 1.385 . S
C544 C546 1.478 . S
C545 H539 0.930 . S
C545 C541 1.400 1_566 S
C545 C544 1.385 . S
C546 C544 1.478 . S
C546 C548 1.381 . S
C546 C552 1.383 . S
C547 C543 1.495 . S
C547 H553 0.959 . S
C547 H554 0.961 . S
C547 H555 0.960 . S
C548 C546 1.381 . S
C548 C549 1.394 . S
C548 H556 0.930 . S
C549 C548 1.394 . S
C549 C550 1.383 . S
C549 H557 0.929 . S
C550 C549 1.383 . S
C550 C551 1.377 . S
C551 H535 0.930 . S
C551 C550 1.377 . S
C551 C552 1.379 . S
C552 H536 0.931 . S
C552 C546 1.383 . S
C552 C551 1.379 . S
H553 C547 0.959 . S
H554 C547 0.961 . S
H555 C547 0.960 . S
H556 C548 0.930 . S
H557 C549 0.929 . S
H558 C566 0.929 . S
H559 C568 0.930 . S
H560 C570 0.930 . S
H561 C573 0.929 . S
H562 C576 0.930 . S
H563 C578 0.960 . S
H564 C578 0.960 . S
H565 C578 0.960 . S
C566 H558 0.929 . S
C566 C567 1.377 . S
C566 C568 1.384 . S
C567 C566 1.377 . S
C567 C573 1.390 . S
C568 H559 0.930 . S
C568 C566 1.384 . S
C568 C569 1.372 . S
C569 C568 1.372 . S
C569 C570 1.400 . S
C569 C574 1.490 . S
C570 H560 0.930 . S
C570 C569 1.400 . S
C570 C573 1.386 . S
H571 C587 0.930 . S
H572 C588 0.931 . S
C573 H561 0.929 . S
C573 C567 1.390 . S
C573 C570 1.386 . S
C574 C569 1.490 . S
C574 C576 1.395 . S
C574 C577 1.403 . S
H575 C581 0.930 . S
C576 H562 0.930 . S
C576 C574 1.395 . S
C576 C579 1.403 . S
C577 C574 1.403 . S
C577 C578 1.524 . S
C577 C581 1.400 . S
C578 H563 0.960 . S
C578 H564 0.960 . S
C578 H565 0.960 . S
C578 C577 1.524 . S
C579 C576 1.403 . S
C579 C580 1.392 . S
C579 C583 1.495 . S
C580 C579 1.392 . S
C580 C581 1.385 . S
C580 C582 1.478 . S
C581 H575 0.930 . S
C581 C577 1.400 . S
C581 C580 1.385 . S
C582 C580 1.478 . S
C582 C584 1.381 . S
C582 C588 1.383 . S
C583 C579 1.495 . S
C583 H589 0.959 . S
C583 H590 0.961 . S
C583 H591 0.960 . S
C584 C582 1.381 . S
C584 C585 1.394 . S
C584 H592 0.930 . S
C585 C584 1.394 . S
C585 C586 1.383 . S
C585 H593 0.929 . S
C586 C585 1.383 . S
C586 C587 1.377 . S
C587 H571 0.930 . S
C587 C586 1.377 . S
C587 C588 1.379 . S
C588 H572 0.931 . S
C588 C582 1.383 . S
C588 C587 1.379 . S
H589 C583 0.959 . S
H590 C583 0.961 . S
H591 C583 0.960 . S
H592 C584 0.930 . S
H593 C585 0.929 . S
H594 C602 0.929 . S
H595 C604 0.930 . S
H596 C606 0.930 . S
H597 C609 0.929 . S
H598 C612 0.930 . S
H599 C614 0.960 . S
H600 C614 0.960 . S
H601 C614 0.960 . S
C602 H594 0.929 . S
C602 C603 1.377 . S
C602 C604 1.384 . S
C603 C602 1.377 . S
C603 C609 1.390 . S
C604 H595 0.930 . S
C604 C602 1.384 . S
C604 C605 1.372 . S
C605 C604 1.372 . S
C605 C606 1.400 . S
C605 C610 1.490 . S
C606 H596 0.930 . S
C606 C605 1.400 . S
C606 C609 1.386 . S
H607 C623 0.930 . S
H608 C624 0.931 . S
C609 H597 0.929 . S
C609 C603 1.390 . S
C609 C606 1.386 . S
C610 C605 1.490 . S
C610 C612 1.395 . S
C610 C613 1.403 . S
H611 C617 0.930 . S
C612 H598 0.930 . S
C612 C610 1.395 . S
C612 C615 1.403 . S
C613 C610 1.403 . S
C613 C614 1.524 . S
C613 C617 1.400 . S
C614 H599 0.960 . S
C614 H600 0.960 . S
C614 H601 0.960 . S
C614 C613 1.524 . S
C615 C612 1.403 . S
C615 C616 1.392 . S
C615 C619 1.495 . S
C616 C615 1.392 . S
C616 C617 1.385 . S
C616 C618 1.478 . S
C617 H611 0.930 . S
C617 C613 1.400 . S
C617 C616 1.385 . S
C618 C616 1.478 . S
C618 C620 1.381 . S
C618 C624 1.383 . S
C619 C615 1.495 . S
C619 H625 0.959 . S
C619 H626 0.961 . S
C619 H627 0.960 . S
C620 C618 1.381 . S
C620 C621 1.394 . S
C620 H628 0.930 . S
C621 C620 1.394 . S
C621 C622 1.383 . S
C621 H629 0.929 . S
C622 C621 1.383 . S
C622 C623 1.377 . S
C623 H607 0.930 . S
C623 C622 1.377 . S
C623 C624 1.379 . S
C624 H608 0.931 . S
C624 C618 1.383 . S
C624 C623 1.379 . S
H625 C619 0.959 . S
H626 C619 0.961 . S
H627 C619 0.960 . S
H628 C620 0.930 . S
H629 C621 0.929 . S
H630 C638 0.929 . S
H631 C640 0.930 . S
H632 C642 0.930 . S
H633 C645 0.929 . S
H634 C648 0.930 . S
H635 C650 0.960 . S
H636 C650 0.960 . S
H637 C650 0.960 . S
C638 H630 0.929 . S
C638 C639 1.377 . S
C638 C640 1.384 . S
C639 C638 1.377 . S
C639 C645 1.390 . S
C640 H631 0.930 . S
C640 C638 1.384 . S
C640 C641 1.372 . S
C641 C640 1.372 . S
C641 C642 1.400 . S
C641 C646 1.490 . S
C642 H632 0.930 . S
C642 C641 1.400 . S
C642 C645 1.386 . S
H643 C659 0.930 . S
H644 C660 0.931 . S
C645 H633 0.929 . S
C645 C639 1.390 . S
C645 C642 1.386 . S
C646 C641 1.490 . S
C646 C648 1.395 . S
C646 C649 1.403 . S
H647 C653 0.930 . S
C648 H634 0.930 . S
C648 C646 1.395 . S
C648 C651 1.403 . S
C649 C646 1.403 . S
C649 C650 1.524 . S
C649 C653 1.400 . S
C650 H635 0.960 . S
C650 H636 0.960 . S
C650 H637 0.960 . S
C650 C649 1.524 . S
C651 C648 1.403 . S
C651 C652 1.392 . S
C651 C655 1.495 . S
C652 C651 1.392 . S
C652 C653 1.385 . S
C652 C654 1.478 . S
C653 H647 0.930 . S
C653 C649 1.400 . S
C653 C652 1.385 . S
C654 C652 1.478 . S
C654 C656 1.381 . S
C654 C660 1.383 . S
C655 C651 1.495 . S
C655 H661 0.959 . S
C655 H662 0.961 . S
C655 H663 0.960 . S
C656 C654 1.381 . S
C656 C657 1.394 . S
C656 H664 0.930 . S
C657 C656 1.394 . S
C657 C658 1.383 . S
C657 H665 0.929 . S
C658 C657 1.383 . S
C658 C659 1.377 . S
C659 H643 0.930 . S
C659 C658 1.377 . S
C659 C660 1.379 . S
C660 H644 0.931 . S
C660 C654 1.383 . S
C660 C659 1.379 . S
H661 C655 0.959 . S
H662 C655 0.961 . S
H663 C655 0.960 . S
H664 C656 0.930 . S
H665 C657 0.929 . S
H666 C674 0.929 . S
H667 C676 0.930 . S
H668 C678 0.930 . S
H669 C681 0.929 . S
H670 C684 0.930 . S
H671 C686 0.960 . S
H672 C686 0.960 . S
H673 C686 0.960 . S
C674 H666 0.929 . S
C674 C675 1.377 . S
C674 C676 1.384 . S
C675 C674 1.377 . S
C675 C681 1.390 . S
C676 H667 0.930 . S
C676 C674 1.384 . S
C676 C677 1.372 . S
C677 C676 1.372 . S
C677 C678 1.400 . S
C677 C682 1.490 . S
C678 H668 0.930 . S
C678 C677 1.400 . S
C678 C681 1.386 . S
H679 C695 0.930 . S
H680 C696 0.931 . S
C681 H669 0.929 . S
C681 C675 1.390 . S
C681 C678 1.386 . S
C682 C677 1.490 . S
C682 C684 1.395 . S
C682 C685 1.403 . S
H683 C689 0.930 . S
C684 H670 0.930 . S
C684 C682 1.395 . S
C684 C687 1.403 . S
C685 C682 1.403 . S
C685 C686 1.524 . S
C685 C689 1.400 . S
C686 H671 0.960 . S
C686 H672 0.960 . S
C686 H673 0.960 . S
C686 C685 1.524 . S
C687 C684 1.403 . S
C687 C688 1.392 . S
C687 C691 1.495 . S
C688 C687 1.392 . S
C688 C689 1.385 . S
C688 C690 1.478 . S
C689 H683 0.930 . S
C689 C685 1.400 . S
C689 C688 1.385 . S
C690 C688 1.478 . S
C690 C692 1.381 . S
C690 C696 1.383 . S
C691 C687 1.495 . S
C691 H697 0.959 . S
C691 H698 0.961 . S
C691 H699 0.960 . S
C692 C690 1.381 . S
C692 C693 1.394 . S
C692 H700 0.930 . S
C693 C692 1.394 . S
C693 C694 1.383 . S
C693 H701 0.929 1_554 S
C694 C693 1.383 . S
C694 C695 1.377 . S
C695 H679 0.930 . S
C695 C694 1.377 . S
C695 C696 1.379 . S
C696 H680 0.931 . S
C696 C690 1.383 . S
C696 C695 1.379 . S
H697 C691 0.959 . S
H698 C691 0.961 . S
H699 C691 0.960 . S
H700 C692 0.930 . S
H701 C693 0.929 1_556 S
H702 C710 0.929 . S
H703 C712 0.930 . S
H704 C714 0.930 . S
H705 C717 0.929 . S
H706 C720 0.930 . S
H707 C722 0.960 . S
H708 C722 0.960 . S
H709 C722 0.960 . S
C710 H702 0.929 . S
C710 C711 1.377 . S
C710 C712 1.384 . S
C711 C710 1.377 . S
C711 C717 1.390 . S
C712 H703 0.930 . S
C712 C710 1.384 . S
C712 C713 1.372 . S
C713 C712 1.372 . S
C713 C714 1.400 . S
C713 C718 1.490 . S
C714 H704 0.930 . S
C714 C713 1.400 . S
C714 C717 1.386 . S
H715 C731 0.930 . S
H716 C732 0.931 . S
C717 H705 0.929 . S
C717 C711 1.390 . S
C717 C714 1.386 . S
C718 C713 1.490 . S
C718 C720 1.395 . S
C718 C721 1.403 . S
H719 C725 0.930 . S
C720 H706 0.930 . S
C720 C718 1.395 . S
C720 C723 1.403 . S
C721 C718 1.403 . S
C721 C722 1.524 . S
C721 C725 1.400 . S
C722 H707 0.960 . S
C722 H708 0.960 . S
C722 H709 0.960 . S
C722 C721 1.524 . S
C723 C720 1.403 . S
C723 C724 1.392 . S
C723 C727 1.495 . S
C724 C723 1.392 . S
C724 C725 1.385 . S
C724 C726 1.478 . S
C725 H719 0.930 . S
C725 C721 1.400 . S
C725 C724 1.385 . S
C726 C724 1.478 . S
C726 C728 1.381 . S
C726 C732 1.383 . S
C727 C723 1.495 . S
C727 H733 0.959 . S
C727 H734 0.961 . S
C727 H735 0.960 . S
C728 C726 1.381 . S
C728 C729 1.394 . S
C728 H736 0.930 . S
C729 C728 1.394 . S
C729 C730 1.383 . S
C729 H737 0.929 . S
C730 C729 1.383 . S
C730 C731 1.377 . S
C731 H715 0.930 . S
C731 C730 1.377 . S
C731 C732 1.379 . S
C732 H716 0.931 . S
C732 C726 1.383 . S
C732 C731 1.379 . S
H733 C727 0.959 . S
H734 C727 0.961 . S
H735 C727 0.960 . S
H736 C728 0.930 . S
H737 C729 0.929 . S
H738 C746 0.929 . S
H739 C748 0.930 . S
H740 C750 0.930 . S
H741 C753 0.929 . S
H742 C756 0.930 . S
H743 C758 0.960 . S
H744 C758 0.960 . S
H745 C758 0.960 . S
C746 H738 0.929 . S
C746 C747 1.377 . S
C746 C748 1.384 . S
C747 C746 1.377 . S
C747 C753 1.390 . S
C748 H739 0.930 . S
C748 C746 1.384 . S
C748 C749 1.372 . S
C749 C748 1.372 . S
C749 C750 1.400 . S
C749 C754 1.490 . S
C750 H740 0.930 . S
C750 C749 1.400 . S
C750 C753 1.386 . S
H751 C767 0.930 . S
H752 C768 0.931 . S
C753 H741 0.929 . S
C753 C747 1.390 . S
C753 C750 1.386 . S
C754 C749 1.490 . S
C754 C756 1.395 . S
C754 C757 1.403 . S
H755 C761 0.930 . S
C756 H742 0.930 . S
C756 C754 1.395 . S
C756 C759 1.403 . S
C757 C754 1.403 . S
C757 C758 1.524 . S
C757 C761 1.400 . S
C758 H743 0.960 . S
C758 H744 0.960 . S
C758 H745 0.960 . S
C758 C757 1.524 . S
C759 C756 1.403 . S
C759 C760 1.392 . S
C759 C763 1.495 . S
C760 C759 1.392 . S
C760 C761 1.385 . S
C760 C762 1.478 . S
C761 H755 0.930 . S
C761 C757 1.400 . S
C761 C760 1.385 . S
C762 C760 1.478 . S
C762 C764 1.381 . S
C762 C768 1.383 . S
C763 C759 1.495 . S
C763 H769 0.959 . S
C763 H770 0.961 . S
C763 H771 0.960 . S
C764 C762 1.381 . S
C764 C765 1.394 . S
C764 H772 0.930 . S
C765 C764 1.394 . S
C765 C766 1.383 . S
C765 H773 0.929 . S
C766 C765 1.383 . S
C766 C767 1.377 . S
C767 H751 0.930 . S
C767 C766 1.377 . S
C767 C768 1.379 . S
C768 H752 0.931 . S
C768 C762 1.383 . S
C768 C767 1.379 . S
H769 C763 0.959 . S
H770 C763 0.961 . S
H771 C763 0.960 . S
H772 C764 0.930 . S
H773 C765 0.929 . S
H774 C782 0.929 . S
H775 C784 0.930 . S
H776 C786 0.930 . S
H777 C789 0.929 . S
H778 C792 0.930 . S
H779 C794 0.960 . S
H780 C794 0.960 . S
H781 C794 0.960 . S
C782 H774 0.929 . S
C782 C783 1.377 . S
C782 C784 1.384 . S
C783 C782 1.377 . S
C783 C789 1.390 . S
C784 H775 0.930 . S
C784 C782 1.384 . S
C784 C785 1.372 . S
C785 C784 1.372 . S
C785 C786 1.400 . S
C785 C790 1.490 . S
C786 H776 0.930 . S
C786 C785 1.400 . S
C786 C789 1.386 . S
H787 C803 0.930 . S
H788 C804 0.931 . S
C789 H777 0.929 . S
C789 C783 1.390 . S
C789 C786 1.386 . S
C790 C785 1.490 . S
C790 C792 1.395 . S
C790 C793 1.403 1_655 S
H791 C797 0.930 . S
C792 H778 0.930 . S
C792 C790 1.395 . S
C792 C795 1.403 . S
C793 C790 1.403 1_455 S
C793 C794 1.524 . S
C793 C797 1.400 . S
C794 H779 0.960 . S
C794 H780 0.960 . S
C794 H781 0.960 . S
C794 C793 1.524 . S
C795 C792 1.403 . S
C795 C796 1.392 1_655 S
C795 C799 1.495 . S
C796 C795 1.392 1_455 S
C796 C797 1.385 . S
C796 C798 1.478 . S
C797 H791 0.930 . S
C797 C793 1.400 . S
C797 C796 1.385 . S
C798 C796 1.478 . S
C798 C800 1.381 . S
C798 C804 1.383 . S
C799 C795 1.495 . S
C799 H805 0.959 . S
C799 H806 0.961 . S
C799 H807 0.960 . S
C800 C798 1.381 . S
C800 C801 1.394 . S
C800 H808 0.930 . S
C801 C800 1.394 . S
C801 C802 1.383 . S
C801 H809 0.929 . S
C802 C801 1.383 . S
C802 C803 1.377 . S
C803 H787 0.930 . S
C803 C802 1.377 . S
C803 C804 1.379 . S
C804 H788 0.931 . S
C804 C798 1.383 . S
C804 C803 1.379 . S
H805 C799 0.959 . S
H806 C799 0.961 . S
H807 C799 0.960 . S
H808 C800 0.930 . S
H809 C801 0.929 . S
H810 C818 0.929 . S
H811 C820 0.930 . S
H812 C822 0.930 . S
H813 C825 0.929 . S
H814 C828 0.930 . S
H815 C830 0.960 . S
H816 C830 0.960 . S
H817 C830 0.960 . S
C818 H810 0.929 . S
C818 C819 1.377 . S
C818 C820 1.384 . S
C819 C818 1.377 . S
C819 C825 1.390 . S
C820 H811 0.930 . S
C820 C818 1.384 . S
C820 C821 1.372 . S
C821 C820 1.372 . S
C821 C822 1.400 . S
C821 C826 1.490 . S
C822 H812 0.930 . S
C822 C821 1.400 . S
C822 C825 1.386 . S
H823 C839 0.930 . S
H824 C840 0.931 . S
C825 H813 0.929 . S
C825 C819 1.390 . S
C825 C822 1.386 . S
C826 C821 1.490 . S
C826 C828 1.395 . S
C826 C829 1.403 . S
H827 C833 0.930 . S
C828 H814 0.930 . S
C828 C826 1.395 . S
C828 C831 1.403 . S
C829 C826 1.403 . S
C829 C830 1.524 . S
C829 C833 1.400 . S
C830 H815 0.960 . S
C830 H816 0.960 . S
C830 H817 0.960 . S
C830 C829 1.524 . S
C831 C828 1.403 . S
C831 C832 1.392 . S
C831 C835 1.495 . S
C832 C831 1.392 . S
C832 C833 1.385 . S
C832 C834 1.478 . S
C833 H827 0.930 . S
C833 C829 1.400 . S
C833 C832 1.385 . S
C834 C832 1.478 . S
C834 C836 1.381 . S
C834 C840 1.383 . S
C835 C831 1.495 . S
C835 H841 0.959 . S
C835 H842 0.961 . S
C835 H843 0.960 . S
C836 C834 1.381 . S
C836 C837 1.394 . S
C836 H844 0.930 . S
C837 C836 1.394 . S
C837 C838 1.383 . S
C837 H845 0.929 . S
C838 C837 1.383 . S
C838 C839 1.377 . S
C839 H823 0.930 . S
C839 C838 1.377 . S
C839 C840 1.379 . S
C840 H824 0.931 . S
C840 C834 1.383 . S
C840 C839 1.379 . S
H841 C835 0.959 . S
H842 C835 0.961 . S
H843 C835 0.960 . S
H844 C836 0.930 . S
H845 C837 0.929 . S
H846 C854 0.929 . S
H847 C856 0.930 . S
H848 C858 0.930 . S
H849 C861 0.929 . S
H850 C864 0.930 . S
H851 C866 0.960 . S
H852 C866 0.960 1_565 S
H853 C866 0.960 . S
C854 H846 0.929 . S
C854 C855 1.377 . S
C854 C856 1.384 . S
C855 C854 1.377 . S
C855 C861 1.390 . S
C856 H847 0.930 . S
C856 C854 1.384 . S
C856 C857 1.372 . S
C857 C856 1.372 . S
C857 C858 1.400 . S
C857 C862 1.490 . S
C858 H848 0.930 . S
C858 C857 1.400 . S
C858 C861 1.386 . S
H859 C875 0.930 . S
H860 C876 0.931 . S
C861 H849 0.929 . S
C861 C855 1.390 . S
C861 C858 1.386 . S
C862 C857 1.490 . S
C862 C864 1.395 . S
C862 C865 1.394 1_565 S
H863 C869 0.930 . S
C864 H850 0.930 . S
C864 C862 1.395 . S
C864 C867 1.403 . S
C865 C862 1.394 1_545 S
C865 C866 1.510 . S
C865 C869 1.424 . S
C866 H851 0.960 . S
C866 H852 0.960 1_545 S
C866 H853 0.960 . S
C866 C865 1.510 . S
C867 C864 1.403 . S
C867 C868 1.392 1_565 S
C867 C871 1.495 . S
C868 C867 1.392 1_545 S
C868 C869 1.385 . S
C868 C870 1.478 . S
C869 H863 0.930 . S
C869 C865 1.424 . S
C869 C868 1.385 . S
C870 C868 1.478 . S
C870 C872 1.381 . S
C870 C876 1.383 . S
C871 C867 1.495 . S
C871 H877 0.959 . S
C871 H878 0.961 1_565 S
C871 H879 0.960 . S
C872 C870 1.381 . S
C872 C873 1.394 . S
C872 H880 0.930 . S
C873 C872 1.394 . S
C873 C874 1.383 . S
C873 H881 0.929 . S
C874 C873 1.383 . S
C874 C875 1.377 . S
C875 H859 0.930 . S
C875 C874 1.377 . S
C875 C876 1.379 . S
C876 H860 0.931 . S
C876 C870 1.383 . S
C876 C875 1.379 . S
H877 C871 0.959 . S
H878 C871 0.961 1_545 S
H879 C871 0.960 . S
H880 C872 0.930 . S
H881 C873 0.929 . S
H882 C890 0.929 . S
H883 C892 0.930 . S
H884 C894 0.930 1_556 S
H885 C897 0.929 . S
H886 C900 0.930 . S
H887 C902 0.960 . S
H888 C902 0.960 . S
H889 C902 0.960 . S
C890 H882 0.929 . S
C890 C891 1.377 . S
C890 C892 1.384 . S
C891 C890 1.377 . S
C891 C897 1.390 . S
C892 H883 0.930 . S
C892 C890 1.384 . S
C892 C893 1.372 . S
C893 C892 1.372 . S
C893 C894 1.400 . S
C893 C898 1.490 . S
C894 H884 0.930 1_554 S
C894 C893 1.400 . S
C894 C897 1.386 . S
H895 C911 0.930 . S
H896 C912 0.931 . S
C897 H885 0.929 . S
C897 C891 1.390 . S
C897 C894 1.386 . S
C898 C893 1.490 . S
C898 C900 1.395 1_554 S
C898 C901 1.403 . S
H899 C905 0.930 . S
C900 H886 0.930 . S
C900 C898 1.395 1_556 S
C900 C903 1.403 . S
C901 C898 1.403 . S
C901 C902 1.524 . S
C901 C905 1.400 . S
C902 H887 0.960 . S
C902 H888 0.960 . S
C902 H889 0.960 . S
C902 C901 1.524 . S
C903 C900 1.403 . S
C903 C904 1.392 . S
C903 C907 1.495 . S
C904 C903 1.392 . S
C904 C905 1.385 1_556 S
C904 C906 1.478 . S
C905 H899 0.930 . S
C905 C901 1.400 . S
C905 C904 1.385 1_554 S
C906 C904 1.478 . S
C906 C908 1.381 . S
C906 C912 1.383 . S
C907 C903 1.495 . S
C907 H913 0.959 . S
C907 H914 0.961 . S
C907 H915 0.960 . S
C908 C906 1.381 . S
C908 C909 1.394 . S
C908 H916 0.930 1_556 S
C909 C908 1.394 . S
C909 C910 1.383 . S
C909 H917 0.921 1_556 S
C910 C909 1.383 . S
C910 C911 1.377 . S
C911 H895 0.930 . S
C911 C910 1.377 . S
C911 C912 1.379 . S
C912 H896 0.931 . S
C912 C906 1.383 . S
C912 C911 1.379 . S
H913 C907 0.959 . S
H914 C907 0.961 . S
H915 C907 0.960 . S
H916 C908 0.930 1_554 S
H917 C909 0.921 1_554 S
H918 C926 0.929 . S
H919 C928 0.930 . S
H920 C930 0.930 1_554 S
H921 C933 0.929 1_554 S
H922 C936 0.930 . S
H923 C938 0.960 . S
H924 C938 0.960 . S
H925 C938 0.960 . S
C926 H918 0.929 . S
C926 C927 1.377 . S
C926 C928 1.384 . S
C927 C926 1.377 . S
C927 C933 1.390 . S
C928 H919 0.930 . S
C928 C926 1.384 . S
C928 C929 1.372 . S
C929 C928 1.372 . S
C929 C930 1.400 . S
C929 C934 1.490 . S
C930 H920 0.930 1_556 S
C930 C929 1.400 . S
C930 C933 1.386 . S
H931 C947 0.930 . S
H932 C948 0.931 . S
C933 H921 0.929 1_556 S
C933 C927 1.390 . S
C933 C930 1.386 . S
C934 C929 1.490 . S
C934 C936 1.395 1_556 S
C934 C937 1.403 . S
H935 C941 0.930 . S
C936 H922 0.930 . S
C936 C934 1.395 1_554 S
C936 C939 1.403 1_545 S
C937 C934 1.403 . S
C937 C938 1.524 . S
C937 C941 1.400 1_545 S
C938 H923 0.960 . S
C938 H924 0.960 . S
C938 H925 0.960 . S
C938 C937 1.524 . S
C939 C936 1.403 1_565 S
C939 C940 1.392 . S
C939 C943 1.495 . S
C940 C939 1.392 . S
C940 C941 1.385 1_554 S
C940 C942 1.478 . S
C941 H935 0.930 . S
C941 C937 1.400 1_565 S
C941 C940 1.385 1_556 S
C942 C940 1.478 . S
C942 C944 1.381 . S
C942 C948 1.383 . S
C943 C939 1.495 . S
C943 H949 0.959 . S
C943 H950 0.961 . S
C943 H951 0.960 . S
C944 C942 1.381 . S
C944 C945 1.394 . S
C944 H952 0.930 1_554 S
C945 C944 1.394 . S
C945 C946 1.383 . S
C945 H953 0.929 1_554 S
C946 C945 1.383 . S
C946 C947 1.377 . S
C947 H931 0.930 . S
C947 C946 1.377 . S
C947 C948 1.379 . S
C948 H932 0.931 . S
C948 C942 1.383 . S
C948 C947 1.379 . S
H949 C943 0.959 . S
H950 C943 0.961 . S
H951 C943 0.960 . S
H952 C944 0.930 1_556 S
H953 C945 0.929 1_556 S
H954 C962 0.929 . S
H955 C964 0.930 . S
H956 C966 0.930 . S
H957 C969 0.929 . S
H958 C972 0.930 . S
H959 C974 0.960 . S
H960 C974 0.960 . S
H961 C974 0.960 . S
C962 H954 0.929 . S
C962 C963 1.377 . S
C962 C964 1.384 . S
C963 C962 1.377 . S
C963 C969 1.390 . S
C964 H955 0.930 . S
C964 C962 1.384 . S
C964 C965 1.372 . S
C965 C964 1.372 . S
C965 C966 1.400 . S
C965 C970 1.490 . S
C966 H956 0.930 . S
C966 C965 1.400 . S
C966 C969 1.386 . S
H967 C983 0.930 . S
H968 C984 0.931 . S
C969 H957 0.929 . S
C969 C963 1.390 . S
C969 C966 1.386 . S
C970 C965 1.490 . S
C970 C972 1.395 . S
C970 C973 1.403 1_556 S
H971 C977 0.930 . S
C972 H958 0.930 . S
C972 C970 1.395 . S
C972 C975 1.403 1_655 S
C973 C970 1.403 1_554 S
C973 C974 1.524 . S
C973 C977 1.400 1_655 S
C974 H959 0.960 . S
C974 H960 0.960 . S
C974 H961 0.960 . S
C974 C973 1.524 . S
C975 C972 1.403 1_455 S
C975 C976 1.392 1_556 S
C975 C979 1.495 . S
C976 C975 1.392 1_554 S
C976 C977 1.385 . S
C976 C978 1.478 . S
C977 H971 0.930 . S
C977 C973 1.400 1_455 S
C977 C976 1.385 . S
C978 C976 1.478 . S
C978 C980 1.381 . S
C978 C984 1.383 . S
C979 C975 1.495 . S
C979 H985 0.959 . S
C979 H986 0.961 . S
C979 H987 0.960 . S
C980 C978 1.381 . S
C980 C981 1.394 . S
C980 H988 0.930 . S
C981 C980 1.394 . S
C981 C982 1.383 . S
C981 H989 0.929 . S
C982 C981 1.383 . S
C982 C983 1.377 . S
C983 H967 0.930 . S
C983 C982 1.377 . S
C983 C984 1.379 . S
C984 H968 0.931 . S
C984 C978 1.383 . S
C984 C983 1.379 . S
H985 C979 0.959 . S
H986 C979 0.961 . S
H987 C979 0.960 . S
H988 C980 0.930 . S
H989 C981 0.929 . S
H990 C998 0.929 1_554 S
H991 C1000 0.930 . S
H992 C1002 0.930 . S
H993 C1005 0.929 . S
H994 C1008 0.930 . S
H995 C1010 0.956 1_554 S
H996 C1010 0.960 1_554 S
H997 C1010 0.960 . S
C998 H990 0.929 1_556 S
C998 C999 1.377 . S
C998 C1000 1.384 1_556 S
C999 C998 1.377 . S
C999 C1005 1.390 . S
C1000 H991 0.930 . S
C1000 C998 1.384 1_554 S
C1000 C1001 1.372 1_554 S
C1001 C1000 1.372 1_556 S
C1001 C1002 1.400 . S
C1001 C1006 1.490 . S
C1002 H992 0.930 . S
C1002 C1001 1.400 . S
C1002 C1005 1.386 . S
H1003 C1019 0.930 1_556 S
H1004 C1020 0.931 . S
C1005 H993 0.929 . S
C1005 C999 1.390 . S
C1005 C1002 1.386 . S
C1006 C1001 1.490 . S
C1006 C1008 1.395 . S
C1006 C1009 1.403 . S
H1007 C1013 0.930 . S
C1008 H994 0.930 . S
C1008 C1006 1.395 . S
C1008 C1011 1.403 1_556 S
C1009 C1006 1.403 . S
C1009 C1010 1.524 . S
C1009 C1013 1.400 1_556 S
C1010 H995 0.956 1_556 S
C1010 H996 0.960 1_556 S
C1010 H997 0.960 . S
C1010 C1009 1.524 . S
C1011 C1008 1.403 1_554 S
C1011 C1012 1.392 . S
C1011 C1015 1.495 . S
C1012 C1011 1.392 . S
C1012 C1013 1.385 . S
C1012 C1014 1.478 . S
C1013 H1007 0.930 . S
C1013 C1009 1.400 1_554 S
C1013 C1012 1.385 . S
C1014 C1012 1.478 . S
C1014 C1016 1.381 . S
C1014 C1020 1.383 1_554 S
C1015 C1011 1.495 . S
C1015 H1021 0.959 . S
C1015 H1022 0.961 1_554 S
C1015 H1023 0.960 . S
C1016 C1014 1.381 . S
C1016 C1017 1.394 . S
C1016 H1024 0.930 . S
C1017 C1016 1.394 . S
C1017 C1018 1.383 . S
C1017 H1025 0.929 . S
C1018 C1017 1.383 . S
C1018 C1019 1.377 . S
C1019 H1003 0.930 1_554 S
C1019 C1018 1.377 . S
C1019 C1020 1.379 1_554 S
C1020 H1004 0.931 . S
C1020 C1014 1.383 1_556 S
C1020 C1019 1.379 1_556 S
H1021 C1015 0.959 . S
H1022 C1015 0.961 1_556 S
H1023 C1015 0.960 . S
H1024 C1016 0.930 . S
H1025 C1017 0.929 . S
H1026 C1034 0.929 . S
H1027 C1036 0.930 . S
H1028 C1038 0.930 . S
H1029 C1041 0.929 . S
H1030 C1044 0.930 . S
H1031 C1046 0.960 1_545 S
H1032 C1046 0.960 . S
H1033 C1046 0.960 . S
C1034 H1026 0.929 . S
C1034 C1035 1.377 . S
C1034 C1036 1.384 . S
C1035 C1034 1.377 . S
C1035 C1041 1.390 . S
C1036 H1027 0.930 . S
C1036 C1034 1.384 . S
C1036 C1037 1.372 . S
C1037 C1036 1.372 . S
C1037 C1038 1.400 . S
C1037 C1042 1.490 . S
C1038 H1028 0.930 . S
C1038 C1037 1.400 . S
C1038 C1041 1.386 . S
H1039 C1055 0.930 . S
H1040 C1056 0.931 . S
C1041 H1029 0.929 . S
C1041 C1035 1.390 . S
C1041 C1038 1.386 . S
C1042 C1037 1.490 . S
C1042 C1044 1.395 1_554 S
C1042 C1045 1.403 . S
H1043 C1049 0.930 . S
C1044 H1030 0.930 . S
C1044 C1042 1.395 1_556 S
C1044 C1047 1.403 1_565 S
C1045 C1042 1.403 . S
C1045 C1046 1.524 . S
C1045 C1049 1.400 1_565 S
C1046 H1031 0.960 1_565 S
C1046 H1032 0.960 . S
C1046 H1033 0.960 . S
C1046 C1045 1.524 . S
C1047 C1044 1.403 1_545 S
C1047 C1048 1.392 . S
C1047 C1051 1.495 . S
C1048 C1047 1.392 . S
C1048 C1049 1.385 1_556 S
C1048 C1050 1.478 . S
C1049 H1043 0.930 . S
C1049 C1045 1.400 1_545 S
C1049 C1048 1.385 1_554 S
C1050 C1048 1.478 . S
C1050 C1052 1.381 . S
C1050 C1056 1.383 . S
C1051 C1047 1.495 . S
C1051 H1057 0.959 1_545 S
C1051 H1058 0.961 . S
C1051 H1059 0.960 . S
C1052 C1050 1.381 . S
C1052 C1053 1.394 . S
C1052 H1060 0.930 . S
C1053 C1052 1.394 . S
C1053 C1054 1.383 . S
C1053 H1061 0.929 . S
C1054 C1053 1.383 . S
C1054 C1055 1.377 . S
C1055 H1039 0.930 . S
C1055 C1054 1.377 . S
C1055 C1056 1.379 . S
C1056 H1040 0.931 . S
C1056 C1050 1.383 . S
C1056 C1055 1.379 . S
H1057 C1051 0.959 1_565 S
H1058 C1051 0.961 . S
H1059 C1051 0.960 . S
H1060 C1052 0.930 . S
H1061 C1053 0.929 . S
H1062 C1070 0.929 . S
H1063 C1072 0.930 . S
H1064 C1074 0.930 . S
H1065 C1077 0.929 . S
H1066 C1080 0.930 . S
H1067 C1082 0.960 . S
H1068 C1082 0.960 . S
H1069 C1082 0.960 . S
C1070 H1062 0.929 . S
C1070 C1071 1.377 . S
C1070 C1072 1.384 . S
C1071 C1070 1.377 . S
C1071 C1077 1.390 . S
C1072 H1063 0.930 . S
C1072 C1070 1.384 . S
C1072 C1073 1.372 . S
C1073 C1072 1.372 . S
C1073 C1074 1.400 . S
C1073 C1078 1.490 . S
C1074 H1064 0.930 . S
C1074 C1073 1.400 . S
C1074 C1077 1.386 . S
H1075 C1091 0.930 . S
H1076 C1092 0.931 . S
C1077 H1065 0.929 . S
C1077 C1071 1.390 . S
C1077 C1074 1.386 . S
C1078 C1073 1.490 . S
C1078 C1080 1.395 . S
C1078 C1081 1.403 1_556 S
H1079 C1085 0.930 . S
C1080 H1066 0.930 . S
C1080 C1078 1.395 . S
C1080 C1083 1.403 1_655 S
C1081 C1078 1.403 1_554 S
C1081 C1082 1.524 . S
C1081 C1085 1.400 1_655 S
C1082 H1067 0.960 . S
C1082 H1068 0.960 . S
C1082 H1069 0.960 . S
C1082 C1081 1.524 . S
C1083 C1080 1.403 1_455 S
C1083 C1084 1.392 1_556 S
C1083 C1087 1.495 . S
C1084 C1083 1.392 1_554 S
C1084 C1085 1.385 . S
C1084 C1086 1.478 . S
C1085 H1079 0.930 . S
C1085 C1081 1.400 1_455 S
C1085 C1084 1.385 . S
C1086 C1084 1.478 . S
C1086 C1088 1.381 . S
C1086 C1092 1.383 . S
C1087 C1083 1.495 . S
C1087 H1093 0.959 . S
C1087 H1094 0.961 . S
C1087 H1095 0.960 . S
C1088 C1086 1.381 . S
C1088 C1089 1.394 . S
C1088 H1096 0.930 . S
C1089 C1088 1.394 . S
C1089 C1090 1.383 . S
C1089 H1097 0.929 . S
C1090 C1089 1.383 . S
C1090 C1091 1.377 . S
C1091 H1075 0.930 . S
C1091 C1090 1.377 . S
C1091 C1092 1.379 . S
C1092 H1076 0.931 . S
C1092 C1086 1.383 . S
C1092 C1091 1.379 . S
H1093 C1087 0.959 . S
H1094 C1087 0.961 . S
H1095 C1087 0.960 . S
H1096 C1088 0.930 . S
H1097 C1089 0.929 . S
H1098 C1106 0.929 . S
H1099 C1108 0.930 . S
H1100 C1110 0.930 . S
H1101 C1113 0.929 . S
H1102 C1116 0.930 . S
H1103 C1118 0.960 . S
H1104 C1118 0.960 . S
H1105 C1118 0.960 . S
C1106 H1098 0.929 . S
C1106 C1107 1.377 . S
C1106 C1108 1.384 . S
C1107 C1106 1.377 . S
C1107 C1113 1.390 . S
C1108 H1099 0.930 . S
C1108 C1106 1.384 . S
C1108 C1109 1.372 . S
C1109 C1108 1.372 . S
C1109 C1110 1.400 . S
C1109 C1114 1.490 . S
C1110 H1100 0.930 . S
C1110 C1109 1.400 . S
C1110 C1113 1.386 . S
H1111 C1127 0.930 . S
H1112 C1128 0.931 . S
C1113 H1101 0.929 . S
C1113 C1107 1.390 . S
C1113 C1110 1.386 . S
C1114 C1109 1.490 . S
C1114 C1116 1.395 . S
C1114 C1117 1.403 . S
H1115 C1121 0.930 . S
C1116 H1102 0.930 . S
C1116 C1114 1.395 . S
C1116 C1119 1.403 . S
C1117 C1114 1.403 . S
C1117 C1118 1.524 . S
C1117 C1121 1.400 . S
C1118 H1103 0.960 . S
C1118 H1104 0.960 . S
C1118 H1105 0.960 . S
C1118 C1117 1.524 . S
C1119 C1116 1.403 . S
C1119 C1120 1.392 . S
C1119 C1123 1.495 . S
C1120 C1119 1.392 . S
C1120 C1121 1.385 . S
C1120 C1122 1.478 . S
C1121 H1115 0.930 . S
C1121 C1117 1.400 . S
C1121 C1120 1.385 . S
C1122 C1120 1.478 . S
C1122 C1124 1.381 . S
C1122 C1128 1.383 . S
C1123 C1119 1.495 . S
C1123 H1129 0.959 . S
C1123 H1130 0.961 . S
C1123 H1131 0.960 . S
C1124 C1122 1.381 . S
C1124 C1125 1.394 . S
C1124 H1132 0.930 . S
C1125 C1124 1.394 . S
C1125 C1126 1.383 . S
C1125 H1133 0.929 . S
C1126 C1125 1.383 . S
C1126 C1127 1.377 . S
C1127 H1111 0.930 . S
C1127 C1126 1.377 . S
C1127 C1128 1.379 . S
C1128 H1112 0.931 . S
C1128 C1122 1.383 . S
C1128 C1127 1.379 . S
H1129 C1123 0.959 . S
H1130 C1123 0.961 . S
H1131 C1123 0.960 . S
H1132 C1124 0.930 . S
H1133 C1125 0.929 . S
H1134 C1142 0.929 . S
H1135 C1144 0.930 . S
H1136 C1146 0.930 . S
H1137 C1149 0.929 . S
H1138 C1152 0.930 . S
H1139 C1154 0.960 . S
H1140 C1154 0.960 . S
H1141 C1154 0.960 . S
C1142 H1134 0.929 . S
C1142 C1143 1.377 . S
C1142 C1144 1.384 . S
C1143 C1142 1.377 . S
C1143 C1149 1.390 . S
C1144 H1135 0.930 . S
C1144 C1142 1.384 . S
C1144 C1145 1.372 . S
C1145 C1144 1.372 . S
C1145 C1146 1.400 . S
C1145 C1150 1.490 . S
C1146 H1136 0.930 . S
C1146 C1145 1.400 . S
C1146 C1149 1.386 . S
H1147 C1163 0.930 . S
H1148 C1164 0.931 . S
C1149 H1137 0.929 . S
C1149 C1143 1.390 . S
C1149 C1146 1.386 . S
C1150 C1145 1.490 . S
C1150 C1152 1.395 . S
C1150 C1153 1.403 . S
H1151 C1157 0.930 . S
C1152 H1138 0.930 . S
C1152 C1150 1.395 . S
C1152 C1155 1.403 . S
C1153 C1150 1.403 . S
C1153 C1154 1.524 . S
C1153 C1157 1.400 . S
C1154 H1139 0.960 . S
C1154 H1140 0.960 . S
C1154 H1141 0.960 . S
C1154 C1153 1.524 . S
C1155 C1152 1.403 . S
C1155 C1156 1.392 . S
C1155 C1159 1.495 . S
C1156 C1155 1.392 . S
C1156 C1157 1.385 . S
C1156 C1158 1.478 . S
C1157 H1151 0.930 . S
C1157 C1153 1.400 . S
C1157 C1156 1.385 . S
C1158 C1156 1.478 . S
C1158 C1160 1.381 . S
C1158 C1164 1.383 . S
C1159 C1155 1.495 . S
C1159 H1165 0.959 . S
C1159 H1166 0.961 . S
C1159 H1167 0.960 . S
C1160 C1158 1.381 . S
C1160 C1161 1.394 . S
C1160 H1168 0.930 . S
C1161 C1160 1.394 . S
C1161 C1162 1.383 . S
C1161 H1169 0.929 . S
C1162 C1161 1.383 . S
C1162 C1163 1.377 . S
C1163 H1147 0.930 . S
C1163 C1162 1.377 . S
C1163 C1164 1.379 . S
C1164 H1148 0.931 . S
C1164 C1158 1.383 . S
C1164 C1163 1.379 . S
H1165 C1159 0.959 . S
H1166 C1159 0.961 . S
H1167 C1159 0.960 . S
H1168 C1160 0.930 . S
H1169 C1161 0.929 . S
H1170 C1178 0.929 . S
H1171 C1180 0.930 . S
H1172 C1182 0.930 . S
H1173 C1185 0.929 . S
H1174 C1188 0.930 . S
H1175 C1190 0.960 . S
H1176 C1190 0.960 . S
H1177 C1190 0.960 . S
C1178 H1170 0.929 . S
C1178 C1179 1.377 . S
C1178 C1180 1.384 . S
C1179 C1178 1.377 . S
C1179 C1185 1.390 . S
C1180 H1171 0.930 . S
C1180 C1178 1.384 . S
C1180 C1181 1.372 . S
C1181 C1180 1.372 . S
C1181 C1182 1.400 . S
C1181 C1186 1.490 . S
C1182 H1172 0.930 . S
C1182 C1181 1.400 . S
C1182 C1185 1.386 . S
H1183 C1199 0.930 . S
H1184 C1200 0.931 . S
C1185 H1173 0.929 . S
C1185 C1179 1.390 . S
C1185 C1182 1.386 . S
C1186 C1181 1.490 . S
C1186 C1188 1.395 . S
C1186 C1189 1.403 . S
H1187 C1193 0.930 . S
C1188 H1174 0.930 . S
C1188 C1186 1.395 . S
C1188 C1191 1.403 . S
C1189 C1186 1.403 . S
C1189 C1190 1.524 . S
C1189 C1193 1.400 . S
C1190 H1175 0.960 . S
C1190 H1176 0.960 . S
C1190 H1177 0.960 . S
C1190 C1189 1.524 . S
C1191 C1188 1.403 . S
C1191 C1192 1.392 . S
C1191 C1195 1.495 . S
C1192 C1191 1.392 . S
C1192 C1193 1.385 . S
C1192 C1194 1.478 . S
C1193 H1187 0.930 . S
C1193 C1189 1.400 . S
C1193 C1192 1.385 . S
C1194 C1192 1.478 . S
C1194 C1196 1.381 . S
C1194 C1200 1.383 . S
C1195 C1191 1.495 . S
C1195 H1201 0.959 . S
C1195 H1202 0.961 . S
C1195 H1203 0.960 . S
C1196 C1194 1.381 . S
C1196 C1197 1.394 . S
C1196 H1204 0.930 . S
C1197 C1196 1.394 . S
C1197 C1198 1.383 . S
C1197 H1205 0.929 . S
C1198 C1197 1.383 . S
C1198 C1199 1.377 . S
C1199 H1183 0.930 . S
C1199 C1198 1.377 . S
C1199 C1200 1.379 . S
C1200 H1184 0.931 . S
C1200 C1194 1.383 . S
C1200 C1199 1.379 . S
H1201 C1195 0.959 . S
H1202 C1195 0.961 . S
H1203 C1195 0.960 . S
H1204 C1196 0.930 . S
H1205 C1197 0.929 . S
H1206 C1214 0.929 . S
H1207 C1216 0.930 . S
H1208 C1218 0.930 . S
H1209 C1221 0.929 . S
H1210 C1224 0.930 . S
H1211 C1226 0.960 . S
H1212 C1226 0.960 . S
H1213 C1226 0.960 . S
C1214 H1206 0.929 . S
C1214 C1215 1.377 . S
C1214 C1216 1.384 . S
C1215 C1214 1.377 . S
C1215 C1221 1.390 . S
C1216 H1207 0.930 . S
C1216 C1214 1.384 . S
C1216 C1217 1.372 . S
C1217 C1216 1.372 . S
C1217 C1218 1.400 . S
C1217 C1222 1.490 . S
C1218 H1208 0.930 . S
C1218 C1217 1.400 . S
C1218 C1221 1.386 . S
H1219 C1235 0.930 . S
H1220 C1236 0.931 . S
C1221 H1209 0.929 . S
C1221 C1215 1.390 . S
C1221 C1218 1.386 . S
C1222 C1217 1.490 . S
C1222 C1224 1.395 . S
C1222 C1225 1.403 . S
H1223 C1229 0.930 . S
C1224 H1210 0.930 . S
C1224 C1222 1.395 . S
C1224 C1227 1.403 . S
C1225 C1222 1.403 . S
C1225 C1226 1.524 . S
C1225 C1229 1.400 . S
C1226 H1211 0.960 . S
C1226 H1212 0.960 . S
C1226 H1213 0.960 . S
C1226 C1225 1.524 . S
C1227 C1224 1.403 . S
C1227 C1228 1.392 . S
C1227 C1231 1.495 . S
C1228 C1227 1.392 . S
C1228 C1229 1.385 . S
C1228 C1230 1.478 . S
C1229 H1223 0.930 . S
C1229 C1225 1.400 . S
C1229 C1228 1.385 . S
C1230 C1228 1.478 . S
C1230 C1232 1.381 . S
C1230 C1236 1.383 . S
C1231 C1227 1.495 . S
C1231 H1237 0.959 . S
C1231 H1238 0.961 . S
C1231 H1239 0.960 . S
C1232 C1230 1.381 . S
C1232 C1233 1.394 . S
C1232 H1240 0.930 . S
C1233 C1232 1.394 . S
C1233 C1234 1.383 . S
C1233 H1241 0.929 . S
C1234 C1233 1.383 . S
C1234 C1235 1.377 . S
C1235 H1219 0.930 . S
C1235 C1234 1.377 . S
C1235 C1236 1.379 . S
C1236 H1220 0.931 . S
C1236 C1230 1.383 . S
C1236 C1235 1.379 . S
H1237 C1231 0.959 . S
H1238 C1231 0.961 . S
H1239 C1231 0.960 . S
H1240 C1232 0.930 . S
H1241 C1233 0.929 . S
H1242 C1250 0.929 . S
H1243 C1252 0.930 . S
H1244 C1254 0.930 . S
H1245 C1257 0.929 . S
H1246 C1260 0.930 . S
H1247 C1262 0.960 . S
H1248 C1262 0.960 . S
H1249 C1262 0.960 . S
C1250 H1242 0.929 . S
C1250 C1251 1.377 . S
C1250 C1252 1.384 . S
C1251 C1250 1.377 . S
C1251 C1257 1.390 . S
C1252 H1243 0.930 . S
C1252 C1250 1.384 . S
C1252 C1253 1.372 . S
C1253 C1252 1.372 . S
C1253 C1254 1.400 . S
C1253 C1258 1.490 . S
C1254 H1244 0.930 . S
C1254 C1253 1.400 . S
C1254 C1257 1.386 . S
H1255 C1271 0.930 . S
H1256 C1272 0.931 . S
C1257 H1245 0.929 . S
C1257 C1251 1.390 . S
C1257 C1254 1.386 . S
C1258 C1253 1.490 . S
C1258 C1260 1.395 . S
C1258 C1261 1.403 . S
H1259 C1265 0.930 . S
C1260 H1246 0.930 . S
C1260 C1258 1.395 . S
C1260 C1263 1.403 . S
C1261 C1258 1.403 . S
C1261 C1262 1.524 . S
C1261 C1265 1.400 . S
C1262 H1247 0.960 . S
C1262 H1248 0.960 . S
C1262 H1249 0.960 . S
C1262 C1261 1.524 . S
C1263 C1260 1.403 . S
C1263 C1264 1.392 . S
C1263 C1267 1.495 . S
C1264 C1263 1.392 . S
C1264 C1265 1.385 . S
C1264 C1266 1.478 . S
C1265 H1259 0.930 . S
C1265 C1261 1.400 . S
C1265 C1264 1.385 . S
C1266 C1264 1.478 . S
C1266 C1268 1.381 . S
C1266 C1272 1.383 . S
C1267 C1263 1.495 . S
C1267 H1273 0.959 . S
C1267 H1274 0.961 . S
C1267 H1275 0.960 . S
C1268 C1266 1.381 . S
C1268 C1269 1.394 . S
C1268 H1276 0.930 . S
C1269 C1268 1.394 . S
C1269 C1270 1.383 . S
C1269 H1277 0.929 . S
C1270 C1269 1.383 . S
C1270 C1271 1.377 . S
C1271 H1255 0.930 . S
C1271 C1270 1.377 . S
C1271 C1272 1.379 . S
C1272 H1256 0.931 . S
C1272 C1266 1.383 . S
C1272 C1271 1.379 . S
H1273 C1267 0.959 . S
H1274 C1267 0.961 . S
H1275 C1267 0.960 . S
H1276 C1268 0.930 . S
H1277 C1269 0.929 . S
H1278 C1286 0.929 . S
H1279 C1288 0.930 . S
H1280 C1290 0.930 . S
H1281 C1293 0.929 . S
H1282 C1296 0.930 . S
H1283 C1298 0.960 . S
H1284 C1298 0.960 . S
H1285 C1298 0.960 . S
C1286 H1278 0.929 . S
C1286 C1287 1.377 . S
C1286 C1288 1.384 . S
C1287 C1286 1.377 . S
C1287 C1293 1.390 . S
C1288 H1279 0.930 . S
C1288 C1286 1.384 . S
C1288 C1289 1.372 . S
C1289 C1288 1.372 . S
C1289 C1290 1.400 . S
C1289 C1294 1.490 . S
C1290 H1280 0.930 . S
C1290 C1289 1.400 . S
C1290 C1293 1.386 . S
H1291 C1307 0.930 . S
H1292 C1308 0.931 . S
C1293 H1281 0.929 . S
C1293 C1287 1.390 . S
C1293 C1290 1.386 . S
C1294 C1289 1.490 . S
C1294 C1296 1.395 . S
C1294 C1297 1.403 . S
H1295 C1301 0.930 . S
C1296 H1282 0.930 . S
C1296 C1294 1.395 . S
C1296 C1299 1.403 . S
C1297 C1294 1.403 . S
C1297 C1298 1.524 . S
C1297 C1301 1.400 . S
C1298 H1283 0.960 . S
C1298 H1284 0.960 . S
C1298 H1285 0.960 . S
C1298 C1297 1.524 . S
C1299 C1296 1.403 . S
C1299 C1300 1.392 . S
C1299 C1303 1.495 . S
C1300 C1299 1.392 . S
C1300 C1301 1.385 . S
C1300 C1302 1.478 . S
C1301 H1295 0.930 . S
C1301 C1297 1.400 . S
C1301 C1300 1.385 . S
C1302 C1300 1.478 . S
C1302 C1304 1.381 . S
C1302 C1308 1.383 . S
C1303 C1299 1.495 . S
C1303 H1309 0.959 . S
C1303 H1310 0.961 . S
C1303 H1311 0.960 . S
C1304 C1302 1.381 . S
C1304 C1305 1.394 . S
C1304 H1312 0.930 . S
C1305 C1304 1.394 . S
C1305 C1306 1.383 . S
C1305 H1313 0.929 . S
C1306 C1305 1.383 . S
C1306 C1307 1.377 . S
C1307 H1291 0.930 . S
C1307 C1306 1.377 . S
C1307 C1308 1.379 . S
C1308 H1292 0.931 . S
C1308 C1302 1.383 . S
C1308 C1307 1.379 . S
H1309 C1303 0.959 . S
H1310 C1303 0.961 . S
H1311 C1303 0.960 . S
H1312 C1304 0.930 . S
H1313 C1305 0.929 . S
H1314 C1322 0.929 . S
H1315 C1324 0.930 . S
H1316 C1326 0.930 . S
H1317 C1329 0.929 . S
H1318 C1332 0.930 . S
H1319 C1334 0.960 . S
H1320 C1334 0.960 . S
H1321 C1334 0.960 . S
C1322 H1314 0.929 . S
C1322 C1323 1.377 . S
C1322 C1324 1.384 . S
C1323 C1322 1.377 . S
C1323 C1329 1.390 . S
C1324 H1315 0.930 . S
C1324 C1322 1.384 . S
C1324 C1325 1.372 . S
C1325 C1324 1.372 . S
C1325 C1326 1.400 . S
C1325 C1330 1.490 . S
C1326 H1316 0.930 . S
C1326 C1325 1.400 . S
C1326 C1329 1.386 . S
H1327 C1343 0.930 . S
H1328 C1344 0.931 . S
C1329 H1317 0.929 . S
C1329 C1323 1.390 . S
C1329 C1326 1.386 . S
C1330 C1325 1.490 . S
C1330 C1332 1.395 . S
C1330 C1333 1.403 . S
H1331 C1337 0.930 . S
C1332 H1318 0.930 . S
C1332 C1330 1.395 . S
C1332 C1335 1.403 . S
C1333 C1330 1.403 . S
C1333 C1334 1.524 . S
C1333 C1337 1.400 . S
C1334 H1319 0.960 . S
C1334 H1320 0.960 . S
C1334 H1321 0.960 . S
C1334 C1333 1.524 . S
C1335 C1332 1.403 . S
C1335 C1336 1.392 . S
C1335 C1339 1.495 . S
C1336 C1335 1.392 . S
C1336 C1337 1.385 . S
C1336 C1338 1.478 . S
C1337 H1331 0.930 . S
C1337 C1333 1.400 . S
C1337 C1336 1.385 . S
C1338 C1336 1.478 . S
C1338 C1340 1.381 . S
C1338 C1344 1.383 . S
C1339 C1335 1.495 . S
C1339 H1345 0.959 . S
C1339 H1346 0.961 . S
C1339 H1347 0.960 . S
C1340 C1338 1.381 . S
C1340 C1341 1.394 . S
C1340 H1348 0.930 . S
C1341 C1340 1.394 . S
C1341 C1342 1.383 . S
C1341 H1349 0.929 . S
C1342 C1341 1.383 . S
C1342 C1343 1.377 . S
C1343 H1327 0.930 . S
C1343 C1342 1.377 . S
C1343 C1344 1.379 . S
C1344 H1328 0.931 . S
C1344 C1338 1.383 . S
C1344 C1343 1.379 . S
H1345 C1339 0.959 . S
H1346 C1339 0.961 . S
H1347 C1339 0.960 . S
H1348 C1340 0.930 . S
H1349 C1341 0.929 . S
H1350 C1358 0.929 . S
H1351 C1360 0.930 . S
H1352 C1362 0.930 . S
H1353 C1365 0.929 . S
H1354 C1368 0.930 . S
H1355 C1370 0.960 . S
H1356 C1370 0.960 . S
H1357 C1370 0.960 . S
C1358 H1350 0.929 . S
C1358 C1359 1.377 . S
C1358 C1360 1.384 . S
C1359 C1358 1.377 . S
C1359 C1365 1.390 . S
C1360 H1351 0.930 . S
C1360 C1358 1.384 . S
C1360 C1361 1.372 . S
C1361 C1360 1.372 . S
C1361 C1362 1.400 . S
C1361 C1366 1.490 . S
C1362 H1352 0.930 . S
C1362 C1361 1.400 . S
C1362 C1365 1.386 . S
H1363 C1379 0.930 . S
H1364 C1380 0.931 . S
C1365 H1353 0.929 . S
C1365 C1359 1.390 . S
C1365 C1362 1.386 . S
C1366 C1361 1.490 . S
C1366 C1368 1.395 . S
C1366 C1369 1.403 . S
H1367 C1373 0.930 . S
C1368 H1354 0.930 . S
C1368 C1366 1.395 . S
C1368 C1371 1.403 . S
C1369 C1366 1.403 . S
C1369 C1370 1.524 . S
C1369 C1373 1.400 . S
C1370 H1355 0.960 . S
C1370 H1356 0.960 . S
C1370 H1357 0.960 . S
C1370 C1369 1.524 . S
C1371 C1368 1.403 . S
C1371 C1372 1.392 . S
C1371 C1375 1.495 . S
C1372 C1371 1.392 . S
C1372 C1373 1.385 . S
C1372 C1374 1.478 . S
C1373 H1367 0.930 . S
C1373 C1369 1.400 . S
C1373 C1372 1.385 . S
C1374 C1372 1.478 . S
C1374 C1376 1.381 . S
C1374 C1380 1.383 . S
C1375 C1371 1.495 . S
C1375 H1381 0.959 . S
C1375 H1382 0.961 . S
C1375 H1383 0.960 . S
C1376 C1374 1.381 . S
C1376 C1377 1.394 . S
C1376 H1384 0.930 . S
C1377 C1376 1.394 . S
C1377 C1378 1.383 . S
C1377 H1385 0.929 . S
C1378 C1377 1.383 . S
C1378 C1379 1.377 . S
C1379 H1363 0.930 . S
C1379 C1378 1.377 . S
C1379 C1380 1.379 . S
C1380 H1364 0.931 . S
C1380 C1374 1.383 . S
C1380 C1379 1.379 . S
H1381 C1375 0.959 . S
H1382 C1375 0.961 . S
H1383 C1375 0.960 . S
H1384 C1376 0.930 . S
H1385 C1377 0.929 . S
H1386 C1394 0.929 . S
H1387 C1396 0.930 . S
H1388 C1398 0.930 . S
H1389 C1401 0.929 . S
H1390 C1404 0.930 . S
H1391 C1406 0.960 . S
H1392 C1406 0.960 . S
H1393 C1406 0.960 . S
C1394 H1386 0.929 . S
C1394 C1395 1.377 . S
C1394 C1396 1.384 . S
C1395 C1394 1.377 . S
C1395 C1401 1.390 . S
C1396 H1387 0.930 . S
C1396 C1394 1.384 . S
C1396 C1397 1.372 . S
C1397 C1396 1.372 . S
C1397 C1398 1.400 . S
C1397 C1402 1.490 . S
C1398 H1388 0.930 . S
C1398 C1397 1.400 . S
C1398 C1401 1.386 . S
H1399 C1415 0.930 . S
H1400 C1416 0.931 . S
C1401 H1389 0.929 . S
C1401 C1395 1.390 . S
C1401 C1398 1.386 . S
C1402 C1397 1.490 . S
C1402 C1404 1.395 . S
C1402 C1405 1.403 . S
H1403 C1409 0.930 . S
C1404 H1390 0.930 . S
C1404 C1402 1.395 . S
C1404 C1407 1.403 . S
C1405 C1402 1.403 . S
C1405 C1406 1.524 . S
C1405 C1409 1.400 . S
C1406 H1391 0.960 . S
C1406 H1392 0.960 . S
C1406 H1393 0.960 . S
C1406 C1405 1.524 . S
C1407 C1404 1.403 . S
C1407 C1408 1.392 . S
C1407 C1411 1.495 . S
C1408 C1407 1.392 . S
C1408 C1409 1.385 . S
C1408 C1410 1.478 . S
C1409 H1403 0.930 . S
C1409 C1405 1.400 . S
C1409 C1408 1.385 . S
C1410 C1408 1.478 . S
C1410 C1412 1.381 . S
C1410 C1416 1.383 . S
C1411 C1407 1.495 . S
C1411 H1417 0.959 . S
C1411 H1418 0.961 . S
C1411 H1419 0.960 . S
C1412 C1410 1.381 . S
C1412 C1413 1.394 . S
C1412 H1420 0.930 . S
C1413 C1412 1.394 . S
C1413 C1414 1.383 . S
C1413 H1421 0.929 . S
C1414 C1413 1.383 . S
C1414 C1415 1.377 . S
C1415 H1399 0.930 . S
C1415 C1414 1.377 . S
C1415 C1416 1.379 . S
C1416 H1400 0.931 . S
C1416 C1410 1.383 . S
C1416 C1415 1.379 . S
H1417 C1411 0.959 . S
H1418 C1411 0.961 . S
H1419 C1411 0.960 . S
H1420 C1412 0.930 . S
H1421 C1413 0.929 . S
H1422 C1430 0.929 . S
H1423 C1432 0.930 . S
H1424 C1434 0.930 . S
H1425 C1437 0.929 . S
H1426 C1440 0.930 . S
H1427 C1442 0.960 . S
H1428 C1442 0.960 . S
H1429 C1442 0.960 . S
C1430 H1422 0.929 . S
C1430 C1431 1.377 . S
C1430 C1432 1.384 . S
C1431 C1430 1.377 . S
C1431 C1437 1.390 . S
C1432 H1423 0.930 . S
C1432 C1430 1.384 . S
C1432 C1433 1.372 . S
C1433 C1432 1.372 . S
C1433 C1434 1.400 . S
C1433 C1438 1.490 . S
C1434 H1424 0.930 . S
C1434 C1433 1.400 . S
C1434 C1437 1.386 . S
H1435 C1451 0.930 . S
H1436 C1452 0.931 . S
C1437 H1425 0.929 . S
C1437 C1431 1.390 . S
C1437 C1434 1.386 . S
C1438 C1433 1.490 . S
C1438 C1440 1.395 . S
C1438 C1441 1.403 . S
H1439 C1445 0.930 . S
C1440 H1426 0.930 . S
C1440 C1438 1.395 . S
C1440 C1443 1.403 . S
C1441 C1438 1.403 . S
C1441 C1442 1.524 . S
C1441 C1445 1.400 . S
C1442 H1427 0.960 . S
C1442 H1428 0.960 . S
C1442 H1429 0.960 . S
C1442 C1441 1.524 . S
C1443 C1440 1.403 . S
C1443 C1444 1.392 . S
C1443 C1447 1.495 . S
C1444 C1443 1.392 . S
C1444 C1445 1.385 . S
C1444 C1446 1.478 . S
C1445 H1439 0.930 . S
C1445 C1441 1.400 . S
C1445 C1444 1.385 . S
C1446 C1444 1.478 . S
C1446 C1448 1.381 . S
C1446 C1452 1.383 . S
C1447 C1443 1.495 . S
C1447 H1453 0.959 . S
C1447 H1454 0.961 . S
C1447 H1455 0.960 . S
C1448 C1446 1.381 . S
C1448 C1449 1.394 . S
C1448 H1456 0.930 . S
C1449 C1448 1.394 . S
C1449 C1450 1.383 . S
C1449 H1457 0.929 . S
C1450 C1449 1.383 . S
C1450 C1451 1.377 . S
C1451 H1435 0.930 . S
C1451 C1450 1.377 . S
C1451 C1452 1.379 . S
C1452 H1436 0.931 . S
C1452 C1446 1.383 . S
C1452 C1451 1.379 . S
H1453 C1447 0.959 . S
H1454 C1447 0.961 . S
H1455 C1447 0.960 . S
H1456 C1448 0.930 . S
H1457 C1449 0.929 . S
H1458 C1466 0.929 . S
H1459 C1468 0.930 . S
H1460 C1470 0.930 . S
H1461 C1473 0.929 . S
H1462 C1476 0.930 . S
H1463 C1478 0.960 . S
H1464 C1478 0.960 . S
H1465 C1478 0.960 . S
C1466 H1458 0.929 . S
C1466 C1467 1.377 . S
C1466 C1468 1.384 . S
C1467 C1466 1.377 . S
C1467 C1473 1.390 . S
C1468 H1459 0.930 . S
C1468 C1466 1.384 . S
C1468 C1469 1.372 . S
C1469 C1468 1.372 . S
C1469 C1470 1.400 . S
C1469 C1474 1.490 . S
C1470 H1460 0.930 . S
C1470 C1469 1.400 . S
C1470 C1473 1.386 . S
H1471 C1487 0.930 . S
H1472 C1488 0.931 . S
C1473 H1461 0.929 . S
C1473 C1467 1.390 . S
C1473 C1470 1.386 . S
C1474 C1469 1.490 . S
C1474 C1476 1.395 . S
C1474 C1477 1.403 . S
H1475 C1481 0.930 . S
C1476 H1462 0.930 . S
C1476 C1474 1.395 . S
C1476 C1479 1.403 . S
C1477 C1474 1.403 . S
C1477 C1478 1.524 . S
C1477 C1481 1.400 . S
C1478 H1463 0.960 . S
C1478 H1464 0.960 . S
C1478 H1465 0.960 . S
C1478 C1477 1.524 . S
C1479 C1476 1.403 . S
C1479 C1480 1.392 . S
C1479 C1483 1.495 . S
C1480 C1479 1.392 . S
C1480 C1481 1.385 . S
C1480 C1482 1.478 . S
C1481 H1475 0.930 . S
C1481 C1477 1.400 . S
C1481 C1480 1.385 . S
C1482 C1480 1.478 . S
C1482 C1484 1.381 . S
C1482 C1488 1.383 . S
C1483 C1479 1.495 . S
C1483 H1489 0.959 . S
C1483 H1490 0.961 . S
C1483 H1491 0.960 . S
C1484 C1482 1.381 . S
C1484 C1485 1.394 . S
C1484 H1492 0.930 . S
C1485 C1484 1.394 . S
C1485 C1486 1.383 . S
C1485 H1493 0.929 . S
C1486 C1485 1.383 . S
C1486 C1487 1.377 . S
C1487 H1471 0.930 . S
C1487 C1486 1.377 . S
C1487 C1488 1.379 . S
C1488 H1472 0.931 . S
C1488 C1482 1.383 . S
C1488 C1487 1.379 . S
H1489 C1483 0.959 . S
H1490 C1483 0.961 . S
H1491 C1483 0.960 . S
H1492 C1484 0.930 . S
H1493 C1485 0.929 . S
H1494 C1502 0.929 . S
H1495 C1504 0.930 . S
H1496 C1506 0.930 . S
H1497 C1509 0.929 . S
H1498 C1512 0.930 . S
H1499 C1514 0.960 . S
H1500 C1514 0.960 . S
H1501 C1514 0.960 . S
C1502 H1494 0.929 . S
C1502 C1503 1.377 . S
C1502 C1504 1.384 . S
C1503 C1502 1.377 . S
C1503 C1509 1.390 . S
C1504 H1495 0.930 . S
C1504 C1502 1.384 . S
C1504 C1505 1.372 . S
C1505 C1504 1.372 . S
C1505 C1506 1.400 . S
C1505 C1510 1.490 . S
C1506 H1496 0.930 . S
C1506 C1505 1.400 . S
C1506 C1509 1.386 . S
H1507 C1523 0.930 . S
H1508 C1524 0.931 . S
C1509 H1497 0.929 . S
C1509 C1503 1.390 . S
C1509 C1506 1.386 . S
C1510 C1505 1.490 . S
C1510 C1512 1.395 . S
C1510 C1513 1.403 . S
H1511 C1517 0.930 . S
C1512 H1498 0.930 . S
C1512 C1510 1.395 . S
C1512 C1515 1.403 . S
C1513 C1510 1.403 . S
C1513 C1514 1.524 . S
C1513 C1517 1.400 . S
C1514 H1499 0.960 . S
C1514 H1500 0.960 . S
C1514 H1501 0.960 . S
C1514 C1513 1.524 . S
C1515 C1512 1.403 . S
C1515 C1516 1.392 . S
C1515 C1519 1.495 . S
C1516 C1515 1.392 . S
C1516 C1517 1.385 . S
C1516 C1518 1.478 . S
C1517 H1511 0.930 . S
C1517 C1513 1.400 . S
C1517 C1516 1.385 . S
C1518 C1516 1.478 . S
C1518 C1520 1.381 . S
C1518 C1524 1.383 . S
C1519 C1515 1.495 . S
C1519 H1525 0.959 . S
C1519 H1526 0.961 . S
C1519 H1527 0.960 . S
C1520 C1518 1.381 . S
C1520 C1521 1.394 . S
C1520 H1528 0.930 . S
C1521 C1520 1.394 . S
C1521 C1522 1.383 . S
C1521 H1529 0.929 . S
C1522 C1521 1.383 . S
C1522 C1523 1.377 . S
C1523 H1507 0.930 . S
C1523 C1522 1.377 . S
C1523 C1524 1.379 . S
C1524 H1508 0.931 . S
C1524 C1518 1.383 . S
C1524 C1523 1.379 . S
H1525 C1519 0.959 . S
H1526 C1519 0.961 . S
H1527 C1519 0.960 . S
H1528 C1520 0.930 . S
H1529 C1521 0.929 . S
C243 C221 1.914 . S
C262 C0 1.920 . S
C279 C195 1.920 . S
C298 C13 1.903 . S
C315 C208 1.916 . S
C334 C26 1.902 . S
C351 C91 1.914 . S
C370 C39 1.922 . S
C387 C104 1.919 . S
C406 C52 1.921 . S
C423 C65 1.916 . S
C442 C78 1.904 . S
C459 C117 1.914 . S
C478 C169 1.916 . S
C495 C130 1.920 . S
C514 C182 1.903 . S
C531 C143 1.918 . S
C550 C156 1.899 . S
C567 C5 0.684 . S
C586 C226 0.716 . S
C603 C200 0.677 . S
C622 C18 0.658 . S
C639 C31 0.688 . S
C658 C213 0.703 . S
C675 C96 0.674 . S
C694 C44 0.712 . S
C711 C57 0.684 . S
C730 C109 0.718 . S
C747 C70 0.679 . S
C766 C83 0.647 . S
C783 C122 0.681 . S
C802 C174 0.722 . S
C819 C187 0.690 . S
C838 C135 0.653 . S
C855 C161 0.674 . S
C874 C148 0.714 . S
C891 C10 1.451 . S
C910 C49 1.442 . S
C927 C62 1.452 . S
C946 C23 1.441 . S
C963 C75 1.450 . S
C982 C36 1.439 . S
C999 C73 1.400 . S
C1018 C21 1.412 . S
C1035 C34 1.411 . S
C1054 C47 1.425 . S
C1071 C60 1.405 . S
C1090 C8 1.378 . S
C1107 C88 1.452 . S
C1126 C127 1.433 . S
C1143 C140 1.451 . S
C1162 C101 1.443 . S
C1179 C153 1.452 . S
C1198 C114 1.437 . S
C1215 C151 1.413 . S
C1234 C99 1.386 . S
C1251 C112 1.413 . S
C1270 C125 1.412 . S
C1287 C138 1.401 . S
C1306 C86 1.408 . S
C1323 C205 1.447 . S
C1342 C166 1.459 . S
C1359 C218 1.448 . S
C1378 C179 1.459 . S
C1395 C192 1.447 . S
C1414 C231 1.459 . S
C1431 C229 1.409 . S
C1450 C177 1.373 . S
C1467 C190 1.402 . S
C1486 C203 1.395 . S
C1503 C216 1.413 . S
C1522 C164 1.408 . S
