# Generated by pormake.
# Topology smm, (6)-cn, num edge types: 1
# Building blocks:
#     Node 0, Type 0, BuildingBlock: BETDAH_clean_sbu_0, # of connection points: 6
#     Node 1, Type 0, BuildingBlock: BETDAH_clean_sbu_0, # of connection points: 6
#     Node 2, Type 0, BuildingBlock: BETDAH_clean_sbu_0, # of connection points: 6
#     Node 3, Type 0, BuildingBlock: BETDAH_clean_sbu_0, # of connection points: 6
#     Node 4, Type 0, BuildingBlock: BETDAH_clean_sbu_0, # of connection points: 6
#     Node 5, Type 0, BuildingBlock: BETDAH_clean_sbu_0, # of connection points: 6
#     Node 6, Type 0, BuildingBlock: BETDAH_clean_sbu_0, # of connection points: 6
#     Node 7, Type 0, BuildingBlock: BETDAH_clean_sbu_0, # of connection points: 6
#     Node 8, Type 0, BuildingBlock: BETDAH_clean_sbu_0, # of connection points: 6
#     Edge 9, Type (0, 0), BuildingBlock: ZUJKAS_clean_linker_0, # of connection points: 2
#     Edge 10, Type (0, 0), BuildingBlock: ZUJKAS_clean_linker_0, # of connection points: 2
#     Edge 11, Type (0, 0), BuildingBlock: ZUJKAS_clean_linker_0, # of connection points: 2
#     Edge 12, Type (0, 0), BuildingBlock: ZUJKAS_clean_linker_0, # of connection points: 2
#     Edge 13, Type (0, 0), BuildingBlock: ZUJKAS_clean_linker_0, # of connection points: 2
#     Edge 14, Type (0, 0), BuildingBlock: ZUJKAS_clean_linker_0, # of connection points: 2
#     Edge 15, Type (0, 0), BuildingBlock: ZUJKAS_clean_linker_0, # of connection points: 2
#     Edge 16, Type (0, 0), BuildingBlock: ZUJKAS_clean_linker_0, # of connection points: 2
#     Edge 17, Type (0, 0), BuildingBlock: ZUJKAS_clean_linker_0, # of connection points: 2
#     Edge 18, Type (0, 0), BuildingBlock: ZUJKAS_clean_linker_0, # of connection points: 2
#     Edge 19, Type (0, 0), BuildingBlock: ZUJKAS_clean_linker_0, # of connection points: 2
#     Edge 20, Type (0, 0), BuildingBlock: ZUJKAS_clean_linker_0, # of connection points: 2
#     Edge 21, Type (0, 0), BuildingBlock: ZUJKAS_clean_linker_0, # of connection points: 2
#     Edge 22, Type (0, 0), BuildingBlock: ZUJKAS_clean_linker_0, # of connection points: 2
#     Edge 23, Type (0, 0), BuildingBlock: ZUJKAS_clean_linker_0, # of connection points: 2
#     Edge 24, Type (0, 0), BuildingBlock: ZUJKAS_clean_linker_0, # of connection points: 2
#     Edge 25, Type (0, 0), BuildingBlock: ZUJKAS_clean_linker_0, # of connection points: 2
#     Edge 26, Type (0, 0), BuildingBlock: ZUJKAS_clean_linker_0, # of connection points: 2
#     Edge 27, Type (0, 0), BuildingBlock: ZUJKAS_clean_linker_0, # of connection points: 2
#     Edge 28, Type (0, 0), BuildingBlock: ZUJKAS_clean_linker_0, # of connection points: 2
#     Edge 29, Type (0, 0), BuildingBlock: ZUJKAS_clean_linker_0, # of connection points: 2
#     Edge 30, Type (0, 0), BuildingBlock: ZUJKAS_clean_linker_0, # of connection points: 2
#     Edge 31, Type (0, 0), BuildingBlock: ZUJKAS_clean_linker_0, # of connection points: 2
#     Edge 32, Type (0, 0), BuildingBlock: ZUJKAS_clean_linker_0, # of connection points: 2
#     Edge 33, Type (0, 0), BuildingBlock: ZUJKAS_clean_linker_0, # of connection points: 2
#     Edge 34, Type (0, 0), BuildingBlock: ZUJKAS_clean_linker_0, # of connection points: 2
#     Edge 35, Type (0, 0), BuildingBlock: ZUJKAS_clean_linker_0, # of connection points: 2
# Relax obj value: 0.055
# Max RMSD: 0.133
# Mean RMSD: 0.133
data_MOF--net-smm--node1-BETDAH_clean_sbu_0--edge1-ZUJKAS_clean_linker_0
_symmetry_space_group_name_H-M    P1
_symmetry_Int_Tables_number       1
_symmetry_cell_setting            triclinic
loop_
_symmetry_equiv_pos_as_xyz
'x, y, z'
_cell_length_a     85.723719
_cell_length_b     85.721375
_cell_length_c     18.561623
_cell_angle_alpha  89.944839
_cell_angle_beta   90.02249
_cell_angle_gamma 119.98989
loop_
_atom_site_label
_atom_site_type_symbol
_atom_site_fract_x
_atom_site_fract_y
_atom_site_fract_z
_atom_type_partial_charge
Ho0 Ho 0.05945 0.21946 0.9778 0.0
Ho1 Ho 1.02559 0.18389 0.02594 0.0
C2 C 1.02225 0.2194 0.01944 0.0
C3 C 0.08228 0.24794 0.90744 0.0
C4 C 0.08891 0.26741 0.89824 0.0
C5 C 0.07724 0.27436 0.88966 0.0
C6 C 0.08419 0.29278 0.87587 0.0
C7 C 0.10293 0.30459 0.87063 0.0
C8 C 0.11448 0.29752 0.8804 0.0
C9 C 0.10755 0.27919 0.89397 0.0
C10 C 0.05628 0.2131 0.12052 0.0
C11 C 0.06376 0.18487 -0.00105 0.0
C12 C 1.00234 0.15379 0.08562 0.0
C13 C 0.9955 0.13433 0.07442 0.0
C14 C 0.9926 0.12316 0.13413 0.0
C15 C 0.98531 0.10457 0.1252 0.0
C16 C 0.98066 0.09673 0.05625 0.0
C17 C 0.98385 0.10802 -0.00366 0.0
C18 C 0.99126 0.12663 0.00526 0.0
C19 C 1.02967 0.19005 0.8827 0.0
O20 O 0.0376 0.2272 -0.01754 0.0
O21 O 1.01631 0.20356 0.05125 0.0
O22 O 0.08608 0.24289 0.96836 0.0
O23 O 0.06611 0.23653 0.88366 0.0
O24 O 0.07168 0.22228 0.08812 0.0
O25 O 0.04368 0.20962 0.07742 0.0
O26 O 0.04797 0.17717 0.0323 0.0
O27 O 0.06986 0.20023 0.96324 0.0
O28 O 0.99821 0.16205 0.03639 0.0
O29 O 1.01897 0.16346 0.10818 0.0
O30 O 1.01413 0.18136 0.914 0.0
O31 O 0.04186 0.19342 0.92753 0.0
H32 H 0.06279 0.26556 0.89277 0.0
H33 H 0.0749 0.29777 0.86939 0.0
H34 H 0.12894 0.30608 0.87559 0.0
H35 H 0.11681 0.27412 0.89978 0.0
H36 H 0.99574 0.12879 0.18795 0.0
H37 H 0.9829 0.09627 0.17254 0.0
H38 H 0.98066 0.10246 0.94244 0.0
H39 H 0.9935 0.13494 0.9581 0.0
Ho40 Ho 0.85861 0.86393 0.98192 0.0
Ho41 Ho 0.89412 0.86553 0.03026 0.0
C42 C 0.85855 0.82672 0.02314 0.0
C43 C 0.83033 0.85829 0.9101 0.0
C44 C 0.81145 0.84462 0.89374 0.0
C45 C 0.80536 0.84294 0.8225 0.0
C46 C 0.78722 0.83149 0.80555 0.0
C47 C 0.77466 0.82144 0.8596 0.0
C48 C 0.7809 0.82269 0.93082 0.0
C49 C 0.79911 0.83419 0.94777 0.0
C50 C 0.86503 0.86729 0.12443 0.0
C51 C 0.8932 0.90285 0.0042 0.0
C52 C 0.92392 0.87162 0.09054 0.0
C53 C 0.94347 0.88378 0.08077 0.0
C54 C 0.95534 0.87775 0.10053 0.0
C55 C 0.9739 0.88868 0.09003 0.0
C56 C 0.98102 0.90595 0.05954 0.0
C57 C 0.96906 0.91204 0.04025 0.0
C58 C 0.95044 0.90103 0.05047 0.0
C59 C 0.88809 0.86365 0.88692 0.0
O60 O 0.85079 0.83433 -0.0137 0.0
O61 O 0.87438 0.83655 0.05496 0.0
O62 O 0.83401 0.86502 0.97528 0.0
O63 O 0.84297 0.8557 0.88324 0.0
O64 O 0.85612 0.87377 0.09155 0.0
O65 O 0.86838 0.85796 0.08179 0.0
O66 O 0.90107 0.89472 0.03619 0.0
O67 O 0.87764 0.89365 0.96977 0.0
O68 O 0.91583 0.85968 0.03977 0.0
O69 O 0.91442 0.87881 0.11278 0.0
O70 O 0.89665 0.85666 0.91823 0.0
O71 O 0.88471 0.87243 0.93191 0.0
H72 H 0.81462 0.85083 0.77991 0.0
H73 H 0.78301 0.83062 0.74998 0.0
H74 H 0.77161 0.81524 0.97389 0.0
H75 H 0.80345 0.83523 0.00325 0.0
H76 H 0.95023 0.86448 0.12394 0.0
H77 H 0.98269 0.88364 0.10649 0.0
H78 H 0.97407 0.9252 0.01605 0.0
H79 H 0.9415 0.90591 0.03424 0.0
Ho80 Ho 0.21378 1.01816 0.98102 0.0
Ho81 Ho 0.21188 0.05196 0.02831 0.0
C82 C 0.25077 0.05545 0.02327 0.0
C83 C 0.22017 0.99589 0.91031 0.0
C84 C 0.23421 0.99091 0.89742 0.0
C85 C 0.24069 0.99185 0.82712 0.0
C86 C 0.25241 0.98537 0.81156 0.0
C87 C 0.25785 0.97766 0.86592 0.0
C88 C 0.25173 0.97715 0.93674 0.0
C89 C 0.24005 0.98371 0.95235 0.0
C90 C 0.2102 0.02122 0.12335 0.0
C91 C 0.17472 1.01358 0.00171 0.0
C92 C 0.20498 0.07522 0.08729 0.0
C93 C 0.1925 0.08219 0.07518 0.0
C94 C 0.18414 0.08516 0.13434 0.0
C95 C 0.17301 0.09262 0.12457 0.0
C96 C 0.1701 0.09738 0.05533 0.0
C97 C 0.17828 0.09413 -0.00403 0.0
C98 C 0.1893 0.08654 0.00572 0.0
C99 C 0.21407 0.04782 0.88523 0.0
O100 O 0.24333 0.04016 -0.01395 0.0
O101 O 0.24078 0.06129 0.05484 0.0
O102 O 0.21245 0.99237 0.97375 0.0
O103 O 0.22301 1.01126 0.8838 0.0
O104 O 0.20399 1.00583 0.09083 0.0
O105 O 0.21947 0.03389 0.08058 0.0
O106 O 0.18275 0.02962 0.03318 0.0
O107 O 0.18401 1.00719 0.96815 0.0
O108 O 0.21753 0.07937 0.0388 0.0
O109 O 0.19785 0.05854 0.10955 0.0
O110 O 0.22093 0.06338 0.9163 0.0
O111 O 0.20526 0.03566 0.93022 0.0
H112 H 0.23625 0.99714 0.78357 0.0
H113 H 0.25666 0.9858 0.75631 0.0
H114 H 0.25583 0.97152 0.98009 0.0
H115 H 0.23531 0.98275 0.00713 0.0
H116 H 0.18644 0.08194 0.18837 0.0
H117 H 0.16706 0.09508 0.17151 0.0
H118 H 0.17612 0.0974 0.94186 0.0
H119 H 0.19546 0.08426 0.95898 0.0
Ho120 Ho 0.72559 0.55262 0.31514 0.0
Ho121 Ho 0.69184 0.51704 0.36363 0.0
C122 C 0.68836 0.55246 0.35647 0.0
C123 C 0.74816 0.58093 0.24322 0.0
C124 C 0.75339 0.59982 0.22669 0.0
C125 C 0.75801 0.60594 0.15557 0.0
C126 C 0.7648 0.6241 0.13861 0.0
C127 C 0.7672 0.63664 0.19252 0.0
C128 C 0.76197 0.63036 0.26355 0.0
C129 C 0.75516 0.61212 0.28053 0.0
C130 C 0.72261 0.54623 0.45772 0.0
C131 C 0.73015 0.51816 0.33774 0.0
C132 C 0.66823 0.48717 0.42388 0.0
C133 C 0.66097 0.46766 0.41391 0.0
C134 C 0.64329 0.45564 0.43587 0.0
C135 C 0.63577 0.4371 0.42514 0.0
C136 C 0.6458 0.43016 0.3922 0.0
C137 C 0.66363 0.44227 0.37068 0.0
C138 C 0.67112 0.46087 0.38116 0.0
C139 C 0.69594 0.52306 0.22023 0.0
O140 O 0.70363 0.56023 0.31908 0.0
O141 O 0.68255 0.53671 0.38875 0.0
O142 O 0.75123 0.57726 0.30843 0.0
O143 O 0.73292 0.56828 0.21643 0.0
O144 O 0.73797 0.5552 0.4248 0.0
O145 O 0.70991 0.54281 0.41507 0.0
O146 O 0.71417 0.51024 0.36981 0.0
O147 O 0.73642 0.53369 0.30313 0.0
O148 O 0.66432 0.49525 0.37318 0.0
O149 O 0.68492 0.49672 0.44608 0.0
O150 O 0.6804 0.51448 0.25157 0.0
O151 O 0.70811 0.52649 0.26525 0.0
H152 H 0.75674 0.5967 0.11313 0.0
H153 H 0.76833 0.62835 0.08316 0.0
H154 H 0.76372 0.63963 0.30652 0.0
H155 H 0.7517 0.60776 0.33591 0.0
H156 H 0.63523 0.46061 0.46117 0.0
H157 H 0.62212 0.42818 0.44333 0.0
H158 H 0.67168 0.43741 0.34456 0.0
H159 H 0.68477 0.46994 0.36322 0.0
Ho160 Ho 0.52497 0.19772 0.30906 0.0
Ho161 Ho 0.56055 0.19934 0.35654 0.0
C162 C 0.52492 0.16057 0.35183 0.0
C163 C 0.49641 0.192 0.23918 0.0
C164 C 0.47698 0.17902 0.22987 0.0
C165 C 0.47015 0.16037 0.22393 0.0
C166 C 0.45176 0.1487 0.21042 0.0
C167 C 0.43986 0.15547 0.20283 0.0
C168 C 0.44682 0.17415 0.20984 0.0
C169 C 0.46513 0.18574 0.22317 0.0
C170 C 0.53162 0.20129 0.45147 0.0
C171 C 0.55977 0.23663 0.32808 0.0
C172 C 0.59063 0.20606 0.41587 0.0
C173 C 0.61012 0.21852 0.40442 0.0
C174 C 0.62135 0.22671 0.46401 0.0
C175 C 0.63996 0.23779 0.45493 0.0
C176 C 0.64777 0.24084 0.38594 0.0
C177 C 0.63644 0.23284 0.32614 0.0
C178 C 0.6178 0.22186 0.33522 0.0
C179 C 0.55413 0.19697 0.21349 0.0
O180 O 0.51709 0.1681 0.3149 0.0
O181 O 0.54084 0.17047 0.38297 0.0
O182 O 0.50137 0.20067 0.30046 0.0
O183 O 0.50794 0.18746 0.21485 0.0
O184 O 0.52245 0.20749 0.41887 0.0
O185 O 0.53495 0.19198 0.4088 0.0
O186 O 0.56761 0.22856 0.36062 0.0
O187 O 0.54416 0.22735 0.2941 0.0
O188 O 0.58227 0.19363 0.36693 0.0
O189 O 0.58108 0.21317 0.43826 0.0
O190 O 0.56283 0.19013 0.2449 0.0
O191 O 0.55089 0.20593 0.25807 0.0
H192 H 0.47903 0.15483 0.22898 0.0
H193 H 0.44685 0.13439 0.20607 0.0
H194 H 0.4382 0.17993 0.20316 0.0
H195 H 0.47011 0.20008 0.22696 0.0
H196 H 0.61573 0.2243 0.51787 0.0
H197 H 0.64829 0.2436 0.5022 0.0
H198 H 0.64197 0.2351 0.2722 0.0
H199 H 0.60945 0.21583 0.28815 0.0
Ho200 Ho 0.88086 0.35202 0.31362 0.0
Ho201 Ho 0.8787 0.38558 0.36197 0.0
C202 C 0.91774 0.38943 0.35577 0.0
C203 C 0.88738 0.3299 0.24242 0.0
C204 C 0.90134 0.32479 0.2299 0.0
C205 C 0.90802 0.32588 0.15987 0.0
C206 C 0.91961 0.31924 0.14445 0.0
C207 C 0.92473 0.31121 0.19867 0.0
C208 C 0.91843 0.31057 0.26927 0.0
C209 C 0.90687 0.31728 0.28476 0.0
C210 C 0.87745 0.35492 0.45628 0.0
C211 C 0.84174 0.34707 0.33542 0.0
C212 C 0.87155 0.4086 0.42163 0.0
C213 C 0.85896 0.41546 0.40997 0.0
C214 C 0.85046 0.41815 0.46933 0.0
C215 C 0.83922 0.4255 0.46005 0.0
C216 C 0.83633 0.43044 0.3911 0.0
C217 C 0.84465 0.42745 0.33152 0.0
C218 C 0.85578 0.41998 0.34078 0.0
C219 C 0.88075 0.38161 0.21859 0.0
O220 O 0.91034 0.37416 0.3184 0.0
O221 O 0.9077 0.39515 0.38778 0.0
O222 O 0.87939 0.32618 0.30532 0.0
O223 O 0.89046 0.34542 0.21667 0.0
O224 O 0.87128 0.33958 0.42345 0.0
O225 O 0.88658 0.36764 0.41355 0.0
O226 O 0.8497 0.36295 0.36815 0.0
O227 O 0.8511 0.34102 0.30025 0.0
O228 O 0.88412 0.4129 0.37308 0.0
O229 O 0.86455 0.39191 0.44355 0.0
O230 O 0.88751 0.39712 0.24998 0.0
O231 O 0.87207 0.36938 0.26349 0.0
H232 H 0.90382 0.3314 0.11637 0.0
H233 H 0.92401 0.31979 0.08934 0.0
H234 H 0.92228 0.3047 0.31254 0.0
H235 H 0.90196 0.31619 0.33933 0.0
H236 H 0.85273 0.4148 0.52318 0.0
H237 H 0.83316 0.42776 0.50716 0.0
H238 H 0.84252 0.43086 0.2776 0.0
H239 H 0.86205 0.41791 0.29387 0.0
Ho240 Ho 0.39268 0.88618 0.64585 0.0
Ho241 Ho 0.35886 0.85051 0.69318 0.0
C242 C 0.35541 0.88593 0.68758 0.0
C243 C 0.41518 0.91507 0.5765 0.0
C244 C 0.42032 0.93422 0.56461 0.0
C245 C 0.41339 0.93913 0.50557 0.0
C246 C 0.41989 0.9573 0.48895 0.0
C247 C 0.43357 0.97105 0.53063 0.0
C248 C 0.44016 0.96611 0.59072 0.0
C249 C 0.43368 0.94795 0.60732 0.0
C250 C 0.38957 0.87948 0.78818 0.0
C251 C 0.39712 0.85157 0.66574 0.0
C252 C 0.33517 0.82052 0.75231 0.0
C253 C 0.3278 0.80097 0.74203 0.0
C254 C 0.33873 0.79382 0.72146 0.0
C255 C 0.33121 0.7752 0.71142 0.0
C256 C 0.31261 0.76343 0.72103 0.0
C257 C 0.30177 0.77072 0.7415 0.0
C258 C 0.3093 0.78926 0.75197 0.0
C259 C 0.36292 0.85699 0.55019 0.0
O260 O 0.37069 0.89375 0.65029 0.0
O261 O 0.34959 0.87013 0.71948 0.0
O262 O 0.41856 0.91063 0.63974 0.0
O263 O 0.39987 0.90258 0.5494 0.0
O264 O 0.40495 0.88857 0.75558 0.0
O265 O 0.37692 0.87615 0.74546 0.0
O266 O 0.3811 0.84355 0.69746 0.0
O267 O 0.4035 0.86728 0.63231 0.0
O268 O 0.33132 0.82871 0.70186 0.0
O269 O 0.35181 0.83004 0.77511 0.0
O270 O 0.34739 0.84834 0.58154 0.0
O271 O 0.37512 0.86023 0.59483 0.0
H272 H 0.40326 0.92894 0.47094 0.0
H273 H 0.41432 0.96057 0.44282 0.0
H274 H 0.45086 0.97628 0.6235 0.0
H275 H 0.43956 0.9447 0.65245 0.0
H276 H 0.35303 0.80259 0.71278 0.0
H277 H 0.33992 0.77006 0.695 0.0
H278 H 0.28745 0.76205 0.75031 0.0
H279 H 0.30062 0.79449 0.7678 0.0
Ho280 Ho 0.19209 0.53062 0.64631 0.0
Ho281 Ho 0.22778 0.5326 0.69467 0.0
C282 C 0.19243 0.49364 0.68835 0.0
C283 C 0.16343 0.52425 0.57544 0.0
C284 C 0.1443 0.51037 0.56337 0.0
C285 C 0.13859 0.5036 0.49355 0.0
C286 C 0.12032 0.49209 0.47853 0.0
C287 C 0.10726 0.48714 0.53296 0.0
C288 C 0.11304 0.49354 0.60336 0.0
C289 C 0.13135 0.50502 0.61844 0.0
C290 C 0.1985 0.53399 0.78894 0.0
C291 C 0.22654 0.56969 0.66676 0.0
C292 C 0.25767 0.53923 0.75584 0.0
C293 C 0.27714 0.55187 0.74707 0.0
C294 C 0.28886 0.55433 0.80411 0.0
C295 C 0.30749 0.56535 0.79569 0.0
C296 C 0.31483 0.57415 0.72981 0.0
C297 C 0.30294 0.57195 0.67315 0.0
C298 C 0.28428 0.56092 0.68172 0.0
C299 C 0.22158 0.53036 0.55146 0.0
O300 O 0.1846 0.5011 0.65103 0.0
O301 O 0.20823 0.50361 0.72024 0.0
O302 O 0.16783 0.53231 0.63814 0.0
O303 O 0.17576 0.52101 0.54966 0.0
O304 O 0.18936 0.54023 0.75625 0.0
O305 O 0.202 0.52484 0.74608 0.0
O306 O 0.23451 0.56173 0.69923 0.0
O307 O 0.21098 0.56034 0.63248 0.0
O308 O 0.24989 0.52743 0.70427 0.0
O309 O 0.24784 0.54602 0.77828 0.0
O310 O 0.23028 0.52353 0.58296 0.0
O311 O 0.21817 0.53918 0.59612 0.0
H312 H 0.14825 0.50766 0.4499 0.0
H313 H 0.11638 0.48762 0.42357 0.0
H314 H 0.10339 0.48982 0.64679 0.0
H315 H 0.13526 0.51 0.67286 0.0
H316 H 0.28361 0.54752 0.85505 0.0
H317 H 0.31614 0.56698 0.84096 0.0
H318 H 0.30807 0.57837 0.6215 0.0
H319 H 0.27544 0.5592 0.63696 0.0
Ho320 Ho 0.5475 0.68572 0.64841 0.0
Ho321 Ho 0.54597 0.71977 0.69544 0.0
C322 C 0.58472 0.72283 0.69047 0.0
C323 C 0.55372 0.66326 0.57818 0.0
C324 C 0.56765 0.65808 0.5661 0.0
C325 C 0.57488 0.65972 0.49675 0.0
C326 C 0.58651 0.6531 0.48163 0.0
C327 C 0.59111 0.64453 0.53544 0.0
C328 C 0.58422 0.6433 0.60538 0.0
C329 C 0.57263 0.64999 0.62057 0.0
C330 C 0.54396 0.6889 0.79062 0.0
C331 C 0.5086 0.68159 0.66846 0.0
C332 C 0.53981 0.74351 0.75491 0.0
C333 C 0.52753 0.75075 0.74529 0.0
C334 C 0.53324 0.76847 0.76684 0.0
C335 C 0.52218 0.77595 0.75661 0.0
C336 C 0.50509 0.76586 0.7246 0.0
C337 C 0.49933 0.748 0.70345 0.0
C338 C 0.51048 0.74053 0.7134 0.0
C339 C 0.54828 0.71559 0.55253 0.0
O340 O 0.57712 0.7074 0.65418 0.0
O341 O 0.57489 0.72898 0.72119 0.0
O342 O 0.54579 0.65975 0.6412 0.0
O343 O 0.55681 0.67873 0.5517 0.0
O344 O 0.5376 0.67348 0.75822 0.0
O345 O 0.55333 0.70152 0.74779 0.0
O346 O 0.51672 0.69764 0.69996 0.0
O347 O 0.51781 0.67511 0.63499 0.0
O348 O 0.55162 0.74728 0.70362 0.0
O349 O 0.53276 0.72689 0.77791 0.0
O350 O 0.55525 0.73115 0.58364 0.0
O351 O 0.53929 0.70344 0.59735 0.0
H352 H 0.57111 0.66568 0.45348 0.0
H353 H 0.59135 0.6541 0.427 0.0
H354 H 0.58765 0.637 0.64836 0.0
H355 H 0.56728 0.64845 0.67459 0.0
H356 H 0.54635 0.77657 0.79147 0.0
H357 H 0.52696 0.78963 0.77448 0.0
H358 H 0.48633 0.7399 0.67804 0.0
H359 H 0.50586 0.72687 0.69574 0.0
H360 H 0.09017 0.31993 0.77396 0.0
H361 H 0.1041 0.35173 0.73931 0.0
H362 H 0.14691 0.36514 0.89175 0.0
H363 H 0.13302 0.33353 0.92742 0.0
H364 H 0.11392 0.38345 0.82402 0.0
H365 H 0.17342 0.38504 0.69833 0.0
H366 H 0.15309 0.36427 0.71955 0.0
H367 H 0.16904 0.37677 0.78929 0.0
C368 C 0.10242 0.32967 0.80088 0.0
C369 C 0.11055 0.32408 0.85304 0.0
C370 C 0.11041 0.34783 0.78068 0.0
C371 C 0.12673 0.36076 0.81189 0.0
C372 C 0.13454 0.35535 0.8657 0.0
H373 H 0.20249 0.47428 0.7746 0.0
H374 H 0.18572 0.44212 0.80118 0.0
C375 C 0.12657 0.33724 0.88598 0.0
C376 C 0.13578 0.37989 0.78795 0.0
H377 H 0.17476 0.41317 0.71356 0.0
C378 C 0.12715 0.38994 0.79932 0.0
C379 C 0.15304 0.38832 0.75563 0.0
C380 C 0.16266 0.37804 0.73928 0.0
C381 C 0.13561 0.40837 0.78167 0.0
C382 C 0.15301 0.41689 0.75027 0.0
C383 C 0.16146 0.4067 0.7377 0.0
C384 C 0.16306 0.43649 0.73274 0.0
C385 C 0.1261 0.4187 0.79932 0.0
C386 C 0.15609 0.44409 0.68436 0.0
C387 C 0.16566 0.4626 0.66916 0.0
C388 C 0.1825 0.47386 0.70148 0.0
C389 C 0.18959 0.46609 0.74863 0.0
C390 C 0.17999 0.44765 0.76399 0.0
H391 H 0.11516 0.41147 0.83934 0.0
H392 H 0.1357 0.43226 0.82088 0.0
H393 H 0.11998 0.42045 0.74952 0.0
H394 H 0.14327 0.43571 0.65813 0.0
H395 H 0.15982 0.46807 0.63225 0.0
H396 H 0.75008 0.78778 0.91096 0.0
H397 H 0.71803 0.76964 0.88063 0.0
H398 H 0.72287 0.81166 0.73861 0.0
H399 H 0.75476 0.82983 0.76864 0.0
H400 H 0.69046 0.77679 0.89855 0.0
H401 H 0.69887 0.76775 0.60859 0.0
H402 H 0.71731 0.776 0.67182 0.0
H403 H 0.7103 0.79098 0.63529 0.0
C404 C 0.74432 0.79318 0.87338 0.0
C405 C 0.7551 0.81022 0.84171 0.0
C406 C 0.726 0.78275 0.85585 0.0
C407 C 0.71809 0.7891 0.80615 0.0
C408 C 0.72874 0.80622 0.77546 0.0
H409 H 0.60518 0.75552 0.75575 0.0
H410 H 0.6373 0.77077 0.78345 0.0
C411 C 0.74702 0.81661 0.79279 0.0
C412 C 0.69858 0.77814 0.78793 0.0
H413 H 0.66928 0.76022 0.64659 0.0
C414 C 0.68584 0.77305 0.84352 0.0
C415 C 0.6925 0.773 0.71625 0.0
C416 C 0.70545 0.77704 0.65463 0.0
C417 C 0.66724 0.76348 0.82919 0.0
C418 C 0.66116 0.75915 0.75707 0.0
C419 C 0.6739 0.76373 0.70174 0.0
C420 C 0.64168 0.75004 0.73793 0.0
C421 C 0.65428 0.75794 0.89168 0.0
C422 C 0.63349 0.73361 0.70037 0.0
C423 C 0.61509 0.7249 0.68358 0.0
C424 C 0.60448 0.73248 0.70389 0.0
C425 C 0.61285 0.74917 0.73984 0.0
C426 C 0.63123 0.75788 0.75627 0.0
H427 H 0.66072 0.75738 0.94286 0.0
H428 H 0.64984 0.76798 0.89851 0.0
H429 H 0.64219 0.74456 0.88215 0.0
H430 H 0.64129 0.72736 0.68508 0.0
H431 H 0.60913 0.7121 0.65579 0.0
H432 H 0.25409 0.94583 0.91551 0.0
H433 H 0.27169 0.93161 0.88223 0.0
H434 H 0.30425 0.97603 0.74045 0.0
H435 H 0.28696 0.99057 0.77461 0.0
H436 H 0.27578 0.92129 0.74123 0.0
H437 H 0.34179 0.97057 0.86067 0.0
H438 H 0.32099 0.96962 0.88601 0.0
H439 H 0.3318 0.97995 0.80249 0.0
C440 C 0.2652 0.95276 0.87822 0.0
C441 C 0.26914 0.96942 0.84804 0.0
C442 C 0.27516 0.94453 0.85884 0.0
C443 C 0.28941 0.95282 0.8094 0.0
C444 C 0.29349 0.9695 0.7795 0.0
H445 H 0.36319 0.91917 0.63583 0.0
H446 H 0.34706 0.93548 0.66076 0.0
C447 C 0.28348 0.97772 0.79861 0.0
C448 C 0.29946 0.94363 0.78716 0.0
H449 H 0.34096 0.94709 0.79097 0.0
C450 C 0.29003 0.92692 0.75215 0.0
C451 C 0.31808 0.95106 0.80089 0.0
C452 C 0.32879 0.96872 0.84007 0.0
C453 C 0.29869 0.91746 0.73034 0.0
C454 C 0.31724 0.92469 0.74536 0.0
C455 C 0.32675 0.94154 0.77942 0.0
C456 C 0.32684 0.91466 0.72868 0.0
C457 C 0.28791 0.89991 0.69043 0.0
C458 C 0.32098 0.89761 0.75899 0.0
C459 C 0.33009 0.88824 0.74464 0.0
C460 C 0.34545 0.89576 0.70014 0.0
C461 C 0.35139 0.91291 0.67006 0.0
C462 C 0.3422 0.92228 0.6844 0.0
H463 H 0.27587 0.89907 0.66407 0.0
H464 H 0.29619 0.89817 0.64871 0.0
H465 H 0.28314 0.88857 0.7292 0.0
H466 H 0.30944 0.89161 0.79472 0.0
H467 H 0.32517 0.87515 0.76932 0.0
H468 H 0.41082 0.15698 0.25649 0.0
H469 H 0.37921 0.13877 0.22158 0.0
H470 H 0.39288 0.10831 0.07596 0.0
H471 H 0.42465 0.12663 0.10988 0.0
H472 H 0.36532 0.13559 0.08066 0.0
H473 H 0.34984 0.06897 0.19014 0.0
H474 H 0.3693 0.08976 0.21832 0.0
H475 H 0.36934 0.07994 0.13298 0.0
C476 C 0.40715 0.14641 0.217 0.0
C477 C 0.42037 0.14336 0.18584 0.0
C478 C 0.38904 0.13596 0.19735 0.0
C479 C 0.38362 0.12208 0.14657 0.0
C480 C 0.39667 0.11873 0.11622 0.0
H481 H 0.27638 0.04814 0.96939 0.0
H482 H 0.30882 0.06432 -0.00572 0.0
C483 C 0.41485 0.12922 0.13579 0.0
C484 C 0.36446 0.1118 0.1231 0.0
H485 H 0.32692 0.06992 0.12288 0.0
C486 C 0.35693 0.12123 0.08988 0.0
C487 C 0.35356 0.09303 0.13448 0.0
C488 C 0.36081 0.08228 0.1714 0.0
C489 C 0.33881 0.11245 0.06791 0.0
C490 C 0.32774 0.09376 0.08101 0.0
C491 C 0.33537 0.08424 0.11293 0.0
C492 C 0.30808 0.08404 0.06472 0.0
C493 C 0.33179 0.12329 0.03005 0.0
C494 C 0.2968 0.08958 0.09652 0.0
C495 C 0.27831 0.08046 0.08212 0.0
C496 C 0.27057 0.06539 0.03614 0.0
C497 C 0.28186 0.05973 0.00477 0.0
C498 C 0.30042 0.06894 0.01908 0.0
H499 H 0.34286 0.13553 0.00425 0.0
H500 H 0.32173 0.11517 -0.01183 0.0
H501 H 0.32521 0.12774 0.07004 0.0
H502 H 0.30226 0.10089 0.13335 0.0
H503 H 0.27007 0.08514 0.10791 0.0
H504 H 0.95408 0.32407 0.10869 0.0
H505 H 0.97106 0.3092 0.07409 0.0
H506 H 0.93777 0.2646 0.21393 0.0
H507 H 0.9205 0.27913 0.24757 0.0
H508 H 0.99051 0.29724 0.16176 0.0
H509 H 0.93391 0.24055 0.01721 0.0
H510 H 0.93374 0.2609 0.0408 0.0
H511 H 0.92874 0.24386 0.10772 0.0
C512 C 0.95031 0.31105 0.13184 0.0
C513 C 0.93584 0.30278 0.18071 0.0
C514 C 0.96009 0.30262 0.11227 0.0
C515 C 0.95551 0.28566 0.14054 0.0
C516 C 0.94136 0.27755 0.19051 0.0
H517 H 0.99183 0.20866 0.09998 0.0
H518 H 0.97647 0.22546 0.12644 0.0
C519 C 0.93163 0.28599 0.21033 0.0
C520 C 0.96548 0.27641 0.11787 0.0
H521 H 0.96002 0.23821 0.03683 0.0
C522 C 0.9839 0.2844 0.13396 0.0
C523 C 0.95683 0.25966 0.08155 0.0
C524 C 0.93725 0.25077 0.06013 0.0
C525 C 0.99378 0.27581 0.11682 0.0
C526 C 0.98507 0.25895 0.08115 0.0
C527 C 0.9667 0.25111 0.06417 0.0
C528 C 0.99454 0.24885 0.06344 0.0
C529 C 1.01327 0.28458 0.13934 0.0
C530 C 1.00971 0.25624 0.01807 0.0
C531 C 1.01862 0.24664 0.00285 0.0
C532 C 1.01245 0.22939 0.03228 0.0
C533 C 0.99702 0.2219 0.07638 0.0
C534 C 0.98818 0.2315 0.09164 0.0
H535 H 1.01661 0.29499 0.18145 0.0
H536 H 1.01656 0.27442 0.16023 0.0
H537 H 1.02197 0.29125 0.09192 0.0
H538 H 1.01464 0.26942 -0.00572 0.0
H539 H 1.03038 0.2528 0.96838 0.0
H540 H 0.87089 0.80632 0.08828 0.0
H541 H 0.85429 0.77409 0.11393 0.0
H542 H 0.80686 0.76993 0.01475 0.0
H543 H 0.8235 0.8022 -0.01249 0.0
H544 H 0.82462 0.7551 0.19725 0.0
H545 H 0.80998 0.72931 0.91688 0.0
H546 H 0.82608 0.75246 0.93774 0.0
H547 H 0.80235 0.74483 0.93802 0.0
C548 C 0.85697 0.79857 0.07126 0.0
C549 C 0.84858 0.80691 0.03549 0.0
C550 C 0.84747 0.7801 0.08619 0.0
C551 C 0.82936 0.76948 0.06566 0.0
C552 C 0.82092 0.77773 0.02984 0.0
H553 H 0.75803 0.66129 0.24185 0.0
H554 H 0.77236 0.69342 0.2123 0.0
C555 C 0.83045 0.79623 0.01454 0.0
C556 C 0.81932 0.74991 0.08383 0.0
H557 H 0.79614 0.70779 0.01018 0.0
C558 C 0.81838 0.74476 0.15632 0.0
C559 C 0.81131 0.73638 0.03042 0.0
C560 C 0.81258 0.74096 0.95133 0.0
C561 C 0.8097 0.72652 0.17685 0.0
C562 C 0.80141 0.713 0.12359 0.0
C563 C 0.80234 0.71814 0.0511 0.0
C564 C 0.79242 0.69344 0.14146 0.0
C565 C 0.80999 0.72192 0.25515 0.0
C566 C 0.79863 0.68263 0.11038 0.0
C567 C 0.79044 0.66428 0.12695 0.0
C568 C 0.77574 0.65623 0.17483 0.0
C569 C 0.76946 0.66707 0.20559 0.0
C570 C 0.77765 0.68546 0.18877 0.0
H571 H 0.82062 0.73351 0.28572 0.0
H572 H 0.7968 0.71816 0.28001 0.0
H573 H 0.81229 0.71033 0.26086 0.0
H574 H 0.81001 0.68845 0.07383 0.0
H575 H 0.79584 0.65645 0.10303 0.0
H576 H 0.0905 0.45769 0.44368 0.0
H577 H 0.0586 0.44081 0.40987 0.0
H578 H 0.04773 0.47443 0.54934 0.0
H579 H 0.07959 0.49162 0.58214 0.0
H580 H 1.02741 0.42154 0.49789 0.0
H581 H 1.02711 0.47813 0.35361 0.0
H582 H 0.04765 0.4783 0.37683 0.0
H583 H 0.0357 0.48332 0.44397 0.0
C584 C 0.08134 0.46157 0.46689 0.0
C585 C 0.08767 0.4761 0.51542 0.0
C586 C 0.06309 0.45183 0.44778 0.0
C587 C 0.05082 0.45653 0.47617 0.0
C588 C 0.057 0.47075 0.5258 0.0
H589 H 0.93724 0.41984 0.43664 0.0
H590 H 0.96941 0.43536 0.46329 0.0
C591 C 0.07521 0.48044 0.54515 0.0
C592 C 1.03155 0.44657 0.45405 0.0
H593 H 0.99869 0.45202 0.37374 0.0
C594 C 1.02113 0.42815 0.47029 0.0
C595 C 1.02339 0.45522 0.418 0.0
C596 C 0.03404 0.47479 0.3964 0.0
C597 C 1.00266 0.41827 0.45344 0.0
C598 C 0.99445 0.42697 0.41795 0.0
C599 C 1.00495 0.44535 0.40095 0.0
C600 C 0.97488 0.41744 0.4001 0.0
C601 C 0.99198 0.39877 0.476 0.0
C602 C 0.9672 0.40233 0.35453 0.0
C603 C 0.94871 0.39334 0.33919 0.0
C604 C 0.93752 0.39937 0.36871 0.0
C605 C 0.94537 0.41475 0.41299 0.0
C606 C 0.96381 0.42368 0.42835 0.0
H607 H 0.99908 0.39545 0.51813 0.0
H608 H 0.97853 0.39545 0.49688 0.0
H609 H 0.98997 0.39008 0.4286 0.0
H610 H 0.97552 0.39749 0.3307 0.0
H611 H 0.94318 0.38161 0.30458 0.0
H612 H 0.5863 0.61195 0.58053 0.0
H613 H 0.60384 0.59766 0.54744 0.0
H614 H 0.63835 0.6434 0.41478 0.0
H615 H 0.62113 0.65801 0.44892 0.0
H616 H 0.60916 0.58855 0.4069 0.0
H617 H 0.67428 0.63608 0.53711 0.0
H618 H 0.65344 0.63533 0.55994 0.0
H619 H 0.66519 0.64627 0.47862 0.0
C620 C 0.59782 0.61915 0.54535 0.0
C621 C 0.60233 0.6362 0.51772 0.0
C622 C 0.60775 0.61088 0.52604 0.0
C623 C 0.62254 0.61952 0.47921 0.0
C624 C 0.62718 0.63658 0.45185 0.0
H625 H 0.69672 0.58612 0.30762 0.0
H626 H 0.68067 0.6025 0.33279 0.0
C627 C 0.6172 0.64484 0.47092 0.0
C628 C 0.63259 0.61031 0.45695 0.0
H629 H 0.67381 0.6132 0.46437 0.0
C630 C 0.6233 0.59393 0.41953 0.0
C631 C 0.65106 0.6174 0.47295 0.0
C632 C 0.6616 0.63466 0.51486 0.0
C633 C 0.63196 0.58448 0.39749 0.0
C634 C 0.65036 0.59139 0.41464 0.0
C635 C 0.65973 0.60791 0.45116 0.0
C636 C 0.6599 0.58132 0.39768 0.0
C637 C 0.62136 0.56731 0.3551 0.0
C638 C 0.65369 0.56403 0.42618 0.0
C639 C 0.66277 0.55462 0.41172 0.0
C640 C 0.67842 0.56233 0.36886 0.0
C641 C 0.68468 0.5797 0.3405 0.0
C642 C 0.67554 0.58912 0.355 0.0
H643 H 0.60956 0.5668 0.32795 0.0
H644 H 0.62989 0.56584 0.31372 0.0
H645 H 0.61625 0.55564 0.39235 0.0
H646 H 0.64192 0.55787 0.46062 0.0
H647 H 0.65758 0.54134 0.43502 0.0
H648 H 0.4913 0.13531 0.30286 0.0
H649 H 0.47477 0.10296 0.32905 0.0
H650 H 0.51923 0.10872 0.45778 0.0
H651 H 0.53592 0.14088 0.43109 0.0
H652 H 0.50621 0.07955 0.36855 0.0
H653 H 0.45009 0.0794 0.5183 0.0
H654 H 0.45344 0.08856 0.4289 0.0
H655 H 0.47058 0.09989 0.49605 0.0
C656 C 0.49758 0.1297 0.33665 0.0
C657 C 0.51495 0.14079 0.36505 0.0
C658 C 0.48805 0.1112 0.35202 0.0
C659 C 0.49561 0.10342 0.39645 0.0
C660 C 0.51305 0.1144 0.42367 0.0
H661 H 0.44403 1.0004 0.61894 0.0
H662 H 0.4588 0.03221 0.58453 0.0
C663 C 0.52259 0.13284 0.4083 0.0
C664 C 0.48558 0.08384 0.41424 0.0
H665 H 0.44751 0.05098 0.49619 0.0
C666 C 0.49335 0.0733 0.39631 0.0
C667 C 0.46892 0.07571 0.45145 0.0
C668 C 0.4603 0.08647 0.47549 0.0
C669 C 0.48493 0.05491 0.41415 0.0
C670 C 0.46807 0.04669 0.44984 0.0
C671 C 0.46034 0.05723 0.46821 0.0
C672 C 0.45852 0.02727 0.47014 0.0
C673 C 0.49442 0.04457 0.39629 0.0
C674 C 0.45313 1.01384 0.41728 0.0
C675 C 0.44479 0.99563 0.43681 0.0
C676 C 0.44154 0.99041 0.50972 0.0
C677 C 0.44655 1.0039 0.56241 0.0
C678 C 0.45489 0.02211 0.54279 0.0
H679 H 0.50902 0.0537 0.38622 0.0
H680 H 0.49286 0.03517 0.44055 0.0
H681 H 0.48841 0.03653 0.34677 0.0
H682 H 0.45549 1.01744 0.3608 0.0
H683 H 0.44129 0.98569 0.39472 0.0
H684 H 0.13787 0.08843 0.11957 0.0
H685 H 0.11991 0.1032 0.10522 0.0
H686 H 0.15915 0.14097 0.95577 0.0
H687 H 0.17707 0.12615 0.96931 0.0
H688 H 0.12877 0.13759 0.13567 0.0
H689 H 0.11312 0.12476 0.84448 0.0
H690 H 0.12239 0.11342 0.89587 0.0
H691 H 0.13678 0.13602 0.86386 0.0
C692 C 0.14266 0.09987 0.08355 0.0
C693 C 0.15888 0.10604 0.04532 0.0
C694 C 0.13235 0.10827 0.07522 0.0
C695 C 0.13799 0.12303 0.02848 0.0
C696 C 0.15423 0.12931 -0.0094 0.0
H697 H 0.09643 0.19547 0.93433 0.0
H698 H 0.11458 0.18071 0.94141 0.0
C699 C 0.1645 0.12084 -0.00146 0.0
C700 C 0.12723 0.13226 0.02178 0.0
H701 H 0.10547 0.14493 0.90096 0.0
C702 C 0.12361 0.1391 0.08437 0.0
C703 C 0.12054 0.13433 0.95478 0.0
C704 C 0.12324 0.1266 0.886 0.0
C705 C 0.11368 0.14809 0.08176 0.0
C706 C 0.10695 0.1501 0.01488 0.0
C707 C 0.11066 0.1434 0.95217 0.0
C708 C 0.09575 0.15885 0.00929 0.0
C709 C 0.11071 0.15561 0.15056 0.0
C710 C 0.07899 0.15129 0.04403 0.0
C711 C 0.06858 0.15966 0.04007 0.0
C712 C 0.07466 0.17577 0.00098 0.0
C713 C 0.09133 0.18313 0.9651 0.0
C714 C 0.10173 0.17471 0.969 0.0
H715 H 0.12045 0.15703 0.19315 0.0
H716 H 0.11194 0.16897 0.14105 0.0
H717 H 0.09694 0.14634 0.17095 0.0
H718 H 0.07395 0.13888 0.07429 0.0
H719 H 0.05579 0.15351 0.06809 0.0
H720 H 0.92458 0.92629 0.0733 0.0
H721 H 0.93918 0.9591 0.07899 0.0
H722 H 0.89761 0.95775 0.94383 0.0
H723 H 0.88268 0.92488 0.93891 0.0
H724 H 0.95304 0.98459 0.97246 0.0
H725 H 0.89749 0.98775 0.11227 0.0
H726 H 0.89825 0.96715 0.10464 0.0
H727 H 0.89073 0.9751 0.02996 0.0
C728 C 0.91847 0.93292 0.04485 0.0
C729 C 0.90234 0.92286 0.00604 0.0
C730 C 0.92688 0.95173 0.04813 0.0
C731 C 0.91935 0.96092 0.01293 0.0
C732 C 0.90346 0.95096 0.97292 0.0
H733 H 0.95208 0.07457 0.9702 0.0
H734 H 0.93773 0.04182 0.95717 0.0
C735 C 0.89499 0.93214 0.96979 0.0
C736 C 0.92828 0.98092 0.01753 0.0
H737 H 0.92171 1.01545 0.07008 0.0
C738 C 0.9462 0.99132 -0.00596 0.0
C739 C 0.91938 0.98975 0.04574 0.0
C740 C 0.90046 0.97939 0.07524 0.0
C741 C 0.95535 1.01025 -0.00287 0.0
C742 C 0.94643 1.01904 0.02521 0.0
C743 C 0.9285 1.00868 0.04837 0.0
C744 C 0.95553 0.03898 0.03182 0.0
C745 C 0.9744 1.02072 0.96923 0.0
C746 C 0.97025 0.04827 0.07847 0.0
C747 C 0.97848 0.067 0.0861 0.0
C748 C 0.97217 0.07684 0.04709 0.0
C749 C 0.95744 0.06746 0.00026 0.0
C750 C 0.94915 0.04873 -0.00693 0.0
H751 H 0.97783 1.01233 0.93439 0.0
H752 H 0.9765 0.03269 0.93807 0.0
H753 H 0.98387 0.02553 0.01549 0.0
H754 H 0.97525 0.041 0.10967 0.0
H755 H 0.98985 0.07379 0.12228 0.0
H756 H 1.0024 0.9422 0.08497 0.0
H757 H 0.03511 0.96073 0.06963 0.0
H758 H 0.03725 0.91425 -0.00512 0.0
H759 H 1.00459 0.89572 0.00868 0.0
H760 H 0.06179 0.95524 0.13803 0.0
H761 H 0.06575 0.95266 0.84005 0.0
H762 H 0.04507 0.9469 0.88671 0.0
H763 H 0.05306 0.93113 0.88338 0.0
C764 C 1.0098 0.93597 0.06426 0.0
C765 C 1.00084 0.91745 0.04806 0.0
C766 C 1.0285 0.94656 0.05591 0.0
C767 C 0.03862 0.93893 0.03035 0.0
C768 C 1.02972 0.9205 0.01365 0.0
H769 H 0.15288 0.97871 0.95629 0.0
H770 H 0.11999 0.96071 0.96379 0.0
C771 C 1.01104 0.90989 0.02231 0.0
C772 C 0.05856 0.95004 0.02406 0.0
H773 H 0.0934 0.96548 0.90395 0.0
C774 C 0.06871 0.95758 0.08681 0.0
C775 C 0.06757 0.95295 0.95729 0.0
C776 C 0.05734 0.94563 0.88782 0.0
C777 C 0.08763 0.96768 0.08486 0.0
C778 C 0.09667 0.97074 0.01797 0.0
C779 C 0.0865 0.96317 0.95518 0.0
C780 C 0.11665 0.98183 0.01207 0.0
C781 C 0.09775 0.97457 0.15486 0.0
C782 C 0.12575 0.99982 0.03534 0.0
C783 C 0.14455 1.01011 0.03152 0.0
C784 C 0.15471 1.00272 0.00344 0.0
C785 C 0.14553 0.98484 0.97836 0.0
C786 C 0.1267 0.97451 -0.01741 0.0
H787 H 0.08944 0.96679 0.20176 0.0
H788 H 0.11035 0.97389 0.15476 0.0
H789 H 0.10137 0.98883 0.16232 0.0
H790 H 0.11831 1.00594 0.0565 0.0
H791 H 0.15109 0.02388 0.05068 0.0
H792 H 0.72217 0.48663 0.40585 0.0
H793 H 0.74041 0.47207 0.41147 0.0
H794 H 0.78085 0.51405 0.27838 0.0
H795 H 0.76286 0.52894 0.2735 0.0
H796 H 0.75228 0.45857 0.30427 0.0
H797 H 0.8106 0.51366 0.44772 0.0
H798 H 0.78924 0.51288 0.43972 0.0
H799 H 0.80484 0.52065 0.36557 0.0
C800 C 0.73496 0.49284 0.37785 0.0
C801 C 0.74107 0.50907 0.3396 0.0
C802 C 0.74538 0.48446 0.38108 0.0
C803 C 0.76217 0.4921 0.34642 0.0
C804 C 0.76816 0.5081 0.30702 0.0
H805 H 0.84317 0.45937 0.3063 0.0
H806 H 0.82489 0.47385 0.29276 0.0
C807 C 0.75777 0.51655 0.30391 0.0
C808 C 0.77323 0.48316 0.35094 0.0
H809 H 0.81414 0.48952 0.40527 0.0
C810 C 0.76578 0.46533 0.32657 0.0
C811 C 0.79087 0.49196 0.38005 0.0
C812 C 0.79933 0.51078 0.41041 0.0
C813 C 0.77554 0.45615 0.32975 0.0
C814 C 0.79315 0.46496 0.35885 0.0
C815 C 0.80065 0.48281 0.38281 0.0
C816 C 0.80393 0.4558 0.36577 0.0
C817 C 0.76704 0.4372 0.30089 0.0
C818 C 0.79829 0.4409 0.41169 0.0
C819 C 0.80871 0.4326 0.4196 0.0
C820 C 0.825 0.43901 0.38163 0.0
C821 C 0.83058 0.45393 0.33555 0.0
C822 C 0.82021 0.46229 0.32807 0.0
H823 H 0.75538 0.43393 0.2653 0.0
H824 H 0.77702 0.43518 0.27024 0.0
H825 H 0.76217 0.42757 0.34663 0.0
H826 H 0.7859 0.43581 0.44209 0.0
H827 H 0.80397 0.42109 0.45518 0.0
H828 H 0.61169 0.4063 0.34529 0.0
H829 H 0.59777 0.37364 0.33119 0.0
H830 H 0.64737 0.37648 0.39665 0.0
H831 H 0.66132 0.40914 0.41226 0.0
H832 H 0.60879 0.35332 0.24277 0.0
H833 H 0.609 0.3387 0.53441 0.0
H834 H 0.61216 0.35994 0.50178 0.0
H835 H 0.63036 0.35526 0.49775 0.0
C836 C 0.61962 0.39998 0.35721 0.0
C837 C 0.6376 0.41036 0.38055 0.0
C838 C 0.61167 0.38132 0.34865 0.0
C839 C 0.62144 0.37258 0.36378 0.0
C840 C 0.63949 0.38291 0.38566 0.0
H841 H 0.59378 0.26024 0.37632 0.0
H842 H 0.60877 0.29307 0.38074 0.0
C843 C 0.6475 0.4016 0.39392 0.0
C844 C 0.61268 0.35266 0.35701 0.0
H845 H 0.59943 0.3142 0.45435 0.0
C846 C 0.60671 0.34474 0.28898 0.0
C847 C 0.60999 0.3415 0.41736 0.0
C848 C 0.61556 0.3492 0.49214 0.0
C849 C 0.5984 0.32597 0.27943 0.0
C850 C 0.59558 0.31477 0.33992 0.0
C851 C 0.60158 0.32274 0.40794 0.0
C852 C 0.58652 0.29477 0.33417 0.0
C853 C 0.59313 0.3184 0.20433 0.0
C854 C 0.56893 0.28467 0.30678 0.0
C855 C 0.56033 0.26583 0.30366 0.0
C856 C 0.56904 0.25665 0.3288 0.0
C857 C 0.58663 0.26681 0.35644 0.0
C858 C 0.59524 0.28562 0.35909 0.0
H859 H 0.6008 0.32877 0.16268 0.0
H860 H 0.59541 0.30687 0.19618 0.0
H861 H 0.57861 0.31359 0.19594 0.0
H862 H 0.56172 0.29134 0.28891 0.0
H863 H 0.54673 0.25846 0.28268 0.0
H864 H 0.67104 0.27284 0.45169 0.0
H865 H 0.70381 0.29069 0.43861 0.0
H866 H 0.70241 0.25178 0.28779 0.0
H867 H 0.66965 0.23397 0.30007 0.0
H868 H 0.72917 0.28161 0.46923 0.0
H869 H 0.73265 0.29807 0.17858 0.0
H870 H 0.71195 0.28875 0.22927 0.0
H871 H 0.72012 0.27436 0.19699 0.0
C872 C 0.67771 0.26809 0.41564 0.0
C873 C 0.66769 0.25201 0.37666 0.0
C874 C 0.69645 0.27835 0.40804 0.0
C875 C 0.70561 0.27277 0.36129 0.0
C876 C 0.69566 0.25666 0.32266 0.0
H877 H 0.81982 0.31442 0.27042 0.0
H878 H 0.7869 0.29618 0.27677 0.0
C879 C 0.6769 0.24645 0.32987 0.0
C880 C 0.72562 0.28347 0.35531 0.0
H881 H 0.76031 0.30545 0.23584 0.0
C882 C 0.73595 0.28689 0.41821 0.0
C883 C 0.73453 0.29032 0.28869 0.0
C884 C 0.72426 0.28785 0.21963 0.0
C885 C 0.75488 0.29677 0.41629 0.0
C886 C 0.76377 0.30365 0.34978 0.0
C887 C 0.75348 0.30014 0.28675 0.0
C888 C 0.78372 0.31485 0.34494 0.0
C889 C 0.76522 0.29953 0.48539 0.0
C890 C 0.79285 0.33154 0.38015 0.0
C891 C 0.81163 0.34201 0.37658 0.0
C892 C 0.82174 0.33605 0.33745 0.0
C893 C 0.81251 0.31942 0.30125 0.0
C894 C 0.79369 0.30897 0.30473 0.0
H895 H 0.7568 0.2897 0.52754 0.0
H896 H 0.77735 0.29829 0.47611 0.0
H897 H 0.76972 0.31327 0.50622 0.0
H898 H 0.78543 0.33651 0.41039 0.0
H899 H 0.81821 0.35476 0.40488 0.0
H900 H 0.51512 0.79986 0.6768 0.0
H901 H 0.49631 0.81375 0.66387 0.0
H902 H 0.44987 0.76428 0.73267 0.0
H903 H 0.46865 0.75036 0.74705 0.0
H904 H 0.4645 0.80244 0.57756 0.0
H905 H 0.45115 0.80303 0.87025 0.0
H906 H 0.4691 0.79984 0.83635 0.0
H907 H 0.44623 0.7816 0.83412 0.0
C908 C 0.50092 0.79195 0.68968 0.0
C909 C 0.49344 0.77402 0.7136 0.0
C910 C 0.49017 0.79988 0.68179 0.0
C911 C 0.47173 0.79014 0.69821 0.0
C912 C 0.46412 0.77214 0.72067 0.0
H913 H 0.38713 0.81782 0.71637 0.0
H914 H 0.40502 0.80289 0.72009 0.0
C915 C 0.47485 0.76415 0.72824 0.0
C916 C 0.46054 0.79888 0.69217 0.0
H917 H 0.43586 0.81244 0.79121 0.0
C918 C 0.45824 0.80466 0.62422 0.0
C919 C 0.45239 0.80176 0.7531 0.0
C920 C 0.45491 0.79639 0.82776 0.0
C921 C 0.44774 0.81295 0.61535 0.0
C922 C 0.43968 0.81595 0.67642 0.0
C923 C 0.442 0.81015 0.74436 0.0
C924 C 0.4287 0.82499 0.67135 0.0
C925 C 0.44503 0.818 0.54036 0.0
C926 C 0.43602 0.84249 0.64306 0.0
C927 C 0.42574 0.85105 0.64028 0.0
C928 C 0.40796 0.84239 0.66664 0.0
C929 C 0.40072 0.82492 0.69536 0.0
C930 C 0.41097 0.81634 0.69766 0.0
H931 H 0.44751 0.8102 0.49863 0.0
H932 H 0.43117 0.81569 0.53328 0.0
H933 H 0.45469 0.83249 0.53104 0.0
H934 H 0.44981 0.84966 0.62411 0.0
H935 H 0.43183 0.86456 0.61843 0.0
H936 H 0.25874 0.59343 0.72973 0.0
H937 H 0.27326 0.62625 0.73455 0.0
H938 H 0.22979 0.62432 0.61059 0.0
H939 H 0.215 0.59143 0.60613 0.0
H940 H 0.28501 0.6516 0.6226 0.0
H941 H 0.2322 0.65421 0.78662 0.0
H942 H 0.23342 0.6339 0.77665 0.0
H943 H 0.22412 0.64106 0.70576 0.0
C944 C 0.2522 0.59993 0.70348 0.0
C945 C 0.2356 0.58971 0.66788 0.0
C946 C 0.26057 0.61874 0.70623 0.0
C947 C 0.2525 0.62775 0.6739 0.0
C948 C 0.2361 0.61764 0.63721 0.0
H949 H 0.28095 0.74043 0.65282 0.0
H950 H 0.26697 0.70779 0.63859 0.0
C951 C 0.22771 0.59882 0.63438 0.0
C952 C 0.26133 0.64773 0.67842 0.0
H953 H 0.25562 0.68194 0.74202 0.0
C954 C 0.27861 0.65825 0.64883 0.0
C955 C 0.25297 0.6564 0.71257 0.0
C956 C 0.23472 0.64585 0.74782 0.0
C957 C 0.28763 0.67718 0.6515 0.0
C958 C 0.27931 0.68586 0.68609 0.0
C959 C 0.262 0.67532 0.71545 0.0
C960 C 0.28828 0.70583 0.69275 0.0
C961 C 0.30582 0.6877 0.6158 0.0
C962 C 0.30491 0.71566 0.72824 0.0
C963 C 0.31296 0.73437 0.73636 0.0
C964 C 0.30444 0.74362 0.71 0.0
C965 C 0.28779 0.73372 0.67448 0.0
C966 C 0.2798 0.71506 0.66606 0.0
H967 H 0.3079 0.6795 0.57468 0.0
H968 H 0.30744 0.70007 0.58956 0.0
H969 H 0.31651 0.69176 0.65715 0.0
H970 H 0.31151 0.70883 0.75096 0.0
H971 H 0.32564 0.74152 0.76496 0.0
H972 H 0.48503 0.69121 0.72456 0.0
H973 H 0.45225 0.6731 0.73129 0.0
H974 H 0.45382 0.62926 0.62455 0.0
H975 H 0.48668 0.6474 0.61648 0.0
H976 H 0.42682 0.63512 0.5717 0.0
H977 H 0.42438 0.63129 0.87015 0.0
H978 H 0.43626 0.65387 0.83565 0.0
H979 H 0.44499 0.63897 0.82006 0.0
C980 C 0.47846 0.67773 0.70236 0.0
C981 C 0.48858 0.67075 0.67033 0.0
C982 C 0.45968 0.66734 0.70666 0.0
C983 C 0.45056 0.64969 0.67965 0.0
C984 C 0.46056 0.64282 0.64615 0.0
H985 H 0.34078 0.56707 0.77981 0.0
H986 H 0.37342 0.58528 0.76539 0.0
C987 C 0.47937 0.65321 0.64165 0.0
C988 C 0.43063 0.6384 0.68648 0.0
H989 H 0.39642 0.62029 0.8097 0.0
C990 C 0.42017 0.63185 0.62372 0.0
C991 C 0.42195 0.63392 0.75443 0.0
C992 C 0.43246 0.63972 0.82399 0.0
C993 C 0.40127 0.6212 0.62704 0.0
C994 C 0.39257 0.61719 0.6949 0.0
C995 C 0.40306 0.62351 0.75765 0.0
C996 C 0.37264 0.60611 0.70231 0.0
C997 C 0.39082 0.61404 0.55792 0.0
C998 C 0.36128 0.61181 0.67222 0.0
C999 C 0.34255 0.60146 0.68079 0.0
C1000 C 0.33477 0.58522 0.72006 0.0
C1001 C 0.34625 0.57961 0.7502 0.0
C1002 C 0.36494 0.58996 0.74164 0.0
H1003 H 0.39958 0.61444 0.51302 0.0
H1004 H 0.37968 0.59996 0.56484 0.0
H1005 H 0.38487 0.62245 0.54239 0.0
H1006 H 0.36691 0.62441 0.64295 0.0
H1007 H 0.3342 0.60636 0.65775 0.0
H1008 H 1.00427 0.18105 0.77837 0.0
H1009 H 1.00919 0.18464 0.64782 0.0
H1010 H 0.06648 0.20893 0.68134 0.0
H1011 H 0.06163 0.20507 0.81152 0.0
H1012 H 1.02995 0.21637 0.56872 0.0
H1013 H 0.05539 0.16854 0.53689 0.0
H1014 H 0.04382 0.16926 0.61699 0.0
H1015 H 0.06713 0.18574 0.60327 0.0
C1016 C 1.01789 0.18712 0.75772 0.0
C1017 C 0.03257 0.19272 0.80465 0.0
C1018 C 1.02068 0.18916 0.68338 0.0
C1019 C 0.03816 0.19676 0.65516 0.0
C1020 C 0.05286 0.20268 0.70212 0.0
H1021 H 0.08235 0.22288 0.2228 0.0
H1022 H 0.07802 0.2189 0.35366 0.0
C1023 C 0.05008 0.2006 0.77635 0.0
C1024 C 0.04105 0.19878 0.57656 0.0
H1025 H 0.05749 0.18612 0.43457 0.0
C1026 C 0.0359 0.20971 0.53924 0.0
C1027 C 0.04886 0.19007 0.53862 0.0
C1028 C 0.05399 0.17761 0.57576 0.0
C1029 C 0.03857 0.21238 0.46478 0.0
C1030 C 0.04634 0.20367 0.42686 0.0
C1031 C 0.05156 0.19278 0.46414 0.0
C1032 C 0.04893 0.20551 0.34815 0.0
C1033 C 0.03332 0.22474 0.42743 0.0
C1034 C 0.03398 0.19892 0.30225 0.0
C1035 C 0.03641 0.20117 0.22794 0.0
C1036 C 0.05383 0.20998 0.19853 0.0
C1037 C 0.06879 0.21613 0.24437 0.0
C1038 C 0.06634 0.21386 0.31883 0.0
H1039 H 1.03165 0.23366 0.4662 0.0
H1040 H 0.04357 0.23324 0.38672 0.0
H1041 H 1.02031 0.21651 0.39915 0.0
H1042 H 1.02044 0.19212 0.32399 0.0
H1043 H 1.02465 0.19617 0.19363 0.0
H1044 H 0.89641 0.84668 0.78272 0.0
H1045 H 0.89295 0.84814 0.65211 0.0
H1046 H 0.87096 0.88317 0.68481 0.0
H1047 H 0.87441 0.88182 0.8152 0.0
H1048 H 0.85104 0.85351 0.58789 0.0
H1049 H 0.92405 0.89276 0.52266 0.0
H1050 H 0.91724 0.87297 0.57669 0.0
H1051 H 0.91548 0.89147 0.61265 0.0
C1052 C 0.89085 0.85469 0.7619 0.0
C1053 C 0.88566 0.86413 0.80873 0.0
C1054 C 0.88897 0.85557 0.68751 0.0
C1055 C 0.88192 0.86595 0.65914 0.0
C1056 C 0.8765 0.87517 0.7059 0.0
H1057 H 0.85622 0.8847 0.22503 0.0
H1058 H 0.86054 0.88507 0.35576 0.0
C1059 C 0.87844 0.87434 0.78019 0.0
C1060 C 0.87995 0.86698 0.5806 0.0
H1061 H 0.90383 0.88144 0.42404 0.0
C1062 C 0.86255 0.85968 0.55195 0.0
C1063 C 0.89504 0.87506 0.53431 0.0
C1064 C 0.91404 0.88366 0.56294 0.0
C1065 C 0.85981 0.85989 0.47758 0.0
C1066 C 0.87491 0.86792 0.43118 0.0
C1067 C 0.89231 0.87531 0.45995 0.0
C1068 C 0.87289 0.86838 0.35233 0.0
C1069 C 0.84078 0.85108 0.44913 0.0
C1070 C 0.87894 0.85937 0.30732 0.0
C1071 C 0.8766 0.85924 0.23292 0.0
C1072 C 0.86822 0.86818 0.20249 0.0
C1073 C 0.86258 0.87759 0.24738 0.0
C1074 C 0.86496 0.87773 0.32188 0.0
H1075 H 0.83085 0.84189 0.48947 0.0
H1076 H 0.83738 0.86165 0.4357 0.0
H1077 H 0.83938 0.84331 0.39937 0.0
H1078 H 0.88521 0.85218 0.32991 0.0
H1079 H 0.88115 0.85196 0.19938 0.0
H1080 H 0.19634 1.0159 0.81433 0.0
H1081 H 0.19522 1.01093 0.68424 0.0
H1082 H 0.22979 0.06797 0.65008 0.0
H1083 H 0.23098 0.07306 0.78056 0.0
H1084 H 0.19767 0.05089 0.56274 0.0
H1085 H 0.23641 1.01475 0.55492 0.0
H1086 H 0.21814 1.00614 0.61842 0.0
H1087 H 0.23718 0.02829 0.63082 0.0
C1088 C 0.20384 0.02735 0.77912 0.0
C1089 C 0.21385 0.04485 0.80722 0.0
C1090 C 0.20321 0.02449 0.70498 0.0
C1091 C 0.2126 0.03907 0.65795 0.0
C1092 C 0.22255 0.05657 0.68582 0.0
H1093 H 0.22486 0.05274 0.19723 0.0
H1094 H 0.22437 0.05674 0.3274 0.0
C1095 C 0.22323 0.05945 0.76009 0.0
C1096 C 0.21156 0.03608 0.57945 0.0
H1097 H 0.2225 1.01585 0.4463 0.0
C1098 C 0.20314 0.04329 0.53707 0.0
C1099 C 0.21861 0.02604 0.54667 0.0
C1100 C 0.22823 1.01846 0.58979 0.0
C1101 C 0.20142 0.04057 0.46237 0.0
C1102 C 0.20863 0.03069 0.42943 0.0
C1103 C 0.21695 0.02338 0.47194 0.0
C1104 C 0.20822 0.02825 0.3506 0.0
C1105 C 0.19165 0.04805 0.41954 0.0
C1106 C 0.19952 1.01088 0.32081 0.0
C1107 C 0.19989 1.00855 0.24648 0.0
C1108 C 0.20907 0.02357 0.20118 0.0
C1109 C 0.21765 0.04094 0.23105 0.0
C1110 C 0.21728 0.04325 0.30525 0.0
H1111 H 0.18273 0.05076 0.45432 0.0
H1112 H 0.20167 0.06096 0.39425 0.0
H1113 H 0.18342 0.03863 0.37605 0.0
H1114 H 0.19253 0.99914 0.35516 0.0
H1115 H 0.19318 0.99503 0.22462 0.0
H1116 H 0.69118 0.52996 0.53267 0.0
H1117 H 0.68737 0.52586 0.6632 0.0
H1118 H 0.74495 0.55075 0.68907 0.0
H1119 H 0.74887 0.55512 0.55834 0.0
H1120 H 0.69812 0.50732 0.75742 0.0
H1121 H 0.73132 0.58029 0.82267 0.0
H1122 H 0.72423 0.57176 0.73257 0.0
H1123 H 0.7446 0.57382 0.76904 0.0
C1124 C 0.70302 0.53455 0.56622 0.0
C1125 C 0.72034 0.54302 0.53579 0.0
C1126 C 0.70083 0.53218 0.64062 0.0
C1127 C 0.7159 0.53828 0.68564 0.0
C1128 C 0.73319 0.5463 0.65519 0.0
H1129 H 0.72779 0.53686 0.14867 0.0
H1130 H 0.73261 0.5403 0.0183 0.0
C1131 C 0.7354 0.5487 0.58068 0.0
C1132 C 0.71344 0.53625 0.7645 0.0
H1133 H 0.72279 0.56009 0.92114 0.0
C1134 C 0.70348 0.51884 0.7933 0.0
C1135 C 0.72045 0.55134 0.81086 0.0
C1136 C 0.73062 0.57038 0.78239 0.0
C1137 C 0.70048 0.51609 0.86765 0.0
C1138 C 0.70743 0.53118 0.91391 0.0
C1139 C 0.71749 0.54858 0.88522 0.0
C1140 C 0.70441 0.52919 -0.00756 0.0
C1141 C 0.69015 0.49709 0.89631 0.0
C1142 C 0.68698 0.52207 0.02071 0.0
C1143 C 0.6842 0.52019 0.0951 0.0
C1144 C 0.69883 0.52547 0.14203 0.0
C1145 C 0.71629 0.53277 0.11359 0.0
C1146 C 0.71906 0.5347 0.0393 0.0
H1147 H 0.6893 0.4871 0.85612 0.0
H1148 H 0.69652 0.49568 0.94613 0.0
H1149 H 0.67623 0.49383 0.90988 0.0
H1150 H 0.67556 0.51802 -0.01477 0.0
H1151 H 0.67063 0.51458 0.11584 0.0
H1152 H 0.54833 0.18648 0.52572 0.0
H1153 H 0.5523 0.18651 0.65626 0.0
H1154 H 0.52646 0.21829 0.68329 0.0
H1155 H 0.52225 0.21813 0.55254 0.0
H1156 H 0.57023 0.21584 0.75194 0.0
H1157 H 0.49721 0.17418 0.81416 0.0
H1158 H 0.50609 0.17609 0.72439 0.0
H1159 H 0.50334 0.19396 0.76103 0.0
C1160 C 0.54351 0.19348 0.55953 0.0
C1161 C 0.53483 0.20216 0.52945 0.0
C1162 C 0.54581 0.19351 0.6339 0.0
C1163 C 0.5394 0.20214 0.67919 0.0
C1164 C 0.53117 0.21126 0.64912 0.0
H1165 H 0.5393 0.21405 0.14194 0.0
H1166 H 0.53594 0.21544 0.01152 0.0
C1167 C 0.52886 0.21123 0.57464 0.0
C1168 C 0.54127 0.20148 0.75797 0.0
H1169 H 0.51709 0.1859 0.91345 0.0
C1170 C 0.55864 0.20927 0.78736 0.0
C1171 C 0.52607 0.19287 0.80364 0.0
C1172 C 0.50711 0.18365 0.77437 0.0
C1173 C 0.56124 0.20887 0.86174 0.0
C1174 C 0.54604 0.20021 0.90733 0.0
C1175 C 0.52868 0.1925 0.87802 0.0
C1176 C 0.54789 0.19908 -0.01416 0.0
C1177 C 0.58018 0.21793 0.89114 0.0
C1178 C 0.55543 0.18915 0.01417 0.0
C1179 C 0.55729 0.18826 0.08856 0.0
C1180 C 0.55159 0.19727 0.13537 0.0
C1181 C 0.54378 0.20696 0.10689 0.0
C1182 C 0.54188 0.2078 0.0326 0.0
H1183 H 0.59014 0.22736 0.85144 0.0
H1184 H 0.58122 0.22549 0.94116 0.0
H1185 H 0.58381 0.20753 0.90458 0.0
H1186 H 0.55986 0.18209 0.97872 0.0
H1187 H 0.56328 0.18065 0.10936 0.0
H1188 H 0.89208 0.38637 0.53076 0.0
H1189 H 0.89188 0.39022 0.66125 0.0
H1190 H 0.86032 0.33258 0.68808 0.0
H1191 H 0.86068 0.32862 0.55736 0.0
H1192 H 0.8626 0.37891 0.75592 0.0
H1193 H 0.90388 0.34728 0.821 0.0
H1194 H 0.90213 0.35419 0.73087 0.0
H1195 H 0.88418 0.33363 0.76767 0.0
C1196 C 0.8851 0.37452 0.56451 0.0
C1197 C 0.87654 0.35718 0.53434 0.0
C1198 C 0.88498 0.37674 0.63888 0.0
C1199 C 0.87635 0.36167 0.68416 0.0
C1200 C 0.86737 0.34435 0.65399 0.0
H1201 H 0.86353 0.34971 0.14714 0.0
H1202 H 0.8623 0.34493 0.01679 0.0
C1203 C 0.8675 0.34211 0.5795 0.0
C1204 C 0.87682 0.36417 0.76298 0.0
H1205 H 0.89194 0.35544 0.91954 0.0
C1206 C 0.86904 0.37382 0.79178 0.0
C1207 C 0.88526 0.35751 0.80931 0.0
C1208 C 0.89449 0.3477 0.78082 0.0
C1209 C 0.86928 0.37682 0.8661 0.0
C1210 C 0.87777 0.37021 0.91234 0.0
C1211 C 0.88546 0.36048 0.88365 0.0
C1212 C 0.87876 0.37321 -0.00914 0.0
C1213 C 0.86024 0.38678 0.89475 0.0
C1214 C 0.88867 0.39068 0.0191 0.0
C1215 C 0.88948 0.39344 0.09348 0.0
C1216 C 0.88041 0.37875 0.14042 0.0
C1217 C 0.87069 0.36126 0.11203 0.0
C1218 C 0.86994 0.35851 0.03776 0.0
H1219 H 0.85091 0.38735 0.85463 0.0
H1220 H 0.85257 0.38032 0.94469 0.0
H1221 H 0.87066 0.40081 0.90812 0.0
H1222 H 0.8958 0.40216 -0.0164 0.0
H1223 H 0.89711 0.40705 0.11418 0.0
H1224 H 0.3375 0.84853 0.4464 0.0
H1225 H 0.34231 0.85212 0.31578 0.0
H1226 H 0.39947 0.87494 0.34799 0.0
H1227 H 0.39476 0.87136 0.47839 0.0
H1228 H 0.38894 0.89438 0.25029 0.0
H1229 H 0.3567 0.82128 0.18815 0.0
H1230 H 0.34352 0.82785 0.24209 0.0
H1231 H 0.36405 0.83016 0.2777 0.0
C1232 C 0.35107 0.85432 0.42548 0.0
C1233 C 0.36576 0.85965 0.47212 0.0
C1234 C 0.35379 0.85628 0.3511 0.0
C1235 C 0.37121 0.86357 0.32263 0.0
C1236 C 0.38593 0.86922 0.36921 0.0
H1237 H 0.41578 0.88892 0.8894 0.0
H1238 H 0.41174 0.8849 0.02021 0.0
C1239 C 0.38322 0.86719 0.44349 0.0
C1240 C 0.37414 0.86544 0.24414 0.0
H1241 H 0.36535 0.84125 0.0888 0.0
C1242 C 0.38387 0.8828 0.21484 0.0
C1243 C 0.36747 0.85024 0.19857 0.0
C1244 C 0.35747 0.8313 0.22801 0.0
C1245 C 0.38682 0.88541 0.14044 0.0
C1246 C 0.38013 0.87021 0.09479 0.0
C1247 C 0.37046 0.85284 0.1242 0.0
C1248 C 0.38266 0.87206 0.01602 0.0
C1249 C 0.39665 0.90437 0.11115 0.0
C1250 C 0.36762 0.86565 0.97069 0.0
C1251 C 0.36988 0.86783 0.89629 0.0
C1252 C 0.38724 0.8764 0.86623 0.0
C1253 C 0.40228 0.88239 0.91148 0.0
C1254 C 0.4 0.88019 -0.01401 0.0
H1255 H 0.39712 0.91429 0.15087 0.0
H1256 H 0.41071 0.90807 0.09795 0.0
H1257 H 0.39014 0.90544 0.06108 0.0
H1258 H 0.35414 0.85923 -0.00698 0.0
H1259 H 0.35807 0.86301 0.86244 0.0
H1260 H 0.18916 0.55081 0.89042 0.0
H1261 H 0.19333 0.55083 0.0212 0.0
H1262 H 0.21918 0.5191 -0.00652 0.0
H1263 H 0.21495 0.5189 0.86308 0.0
H1264 H 0.19103 0.50566 0.09809 0.0
H1265 H 0.24074 0.57826 0.13755 0.0
H1266 H 0.2208 0.57351 0.08814 0.0
H1267 H 0.23636 0.56748 0.05048 0.0
C1268 C 0.19584 0.54397 0.91234 0.0
C1269 C 0.20171 0.53484 0.86697 0.0
C1270 C 0.19828 0.54406 -0.0132 0.0
C1271 C 0.2067 0.5351 0.01663 0.0
C1272 C 0.2127 0.52612 0.97126 0.0
H1273 H 0.22985 0.51323 0.44776 0.0
H1274 H 0.2258 0.51403 0.31734 0.0
C1275 C 0.21029 0.52604 0.89694 0.0
C1276 C 0.20859 0.53441 0.09541 0.0
H1277 H 0.22906 0.56048 0.24266 0.0
C1278 C 0.19937 0.51761 0.12982 0.0
C1279 C 0.21944 0.55007 0.13627 0.0
C1280 C 0.23004 0.56836 0.10139 0.0
C1281 C 0.20055 0.51606 0.20454 0.0
C1282 C 0.21151 0.5317 0.2454 0.0
C1283 C 0.22067 0.54852 0.21099 0.0
C1284 C 0.21371 0.53092 0.32402 0.0
C1285 C 0.18977 0.49777 0.23925 0.0
C1286 C 0.20859 0.54045 0.37053 0.0
C1287 C 0.21103 0.54014 0.44471 0.0
C1288 C 0.21867 0.53031 0.47342 0.0
C1289 C 0.22383 0.5208 0.42686 0.0
C1290 C 0.22143 0.52117 0.35257 0.0
H1291 H 0.17859 0.48819 0.20397 0.0
H1292 H 0.19872 0.49212 0.24956 0.0
H1293 H 0.18403 0.49874 0.29157 0.0
H1294 H 0.2027 0.54813 0.34939 0.0
H1295 H 0.20707 0.5477 0.47949 0.0
H1296 H 0.53049 0.68374 0.48101 0.0
H1297 H 0.5299 0.67888 0.35092 0.0
H1298 H 0.56478 0.73596 0.3183 0.0
H1299 H 0.56574 0.74086 0.44866 0.0
H1300 H 0.51788 0.69336 0.2446 0.0
H1301 H 0.58979 0.71378 0.20448 0.0
H1302 H 0.57931 0.70881 0.29226 0.0
H1303 H 0.58632 0.73023 0.25034 0.0
C1304 C 0.53819 0.69522 0.4461 0.0
C1305 C 0.54827 0.71266 0.47459 0.0
C1306 C 0.53779 0.69243 0.37195 0.0
C1307 C 0.54748 0.70703 0.32531 0.0
C1308 C 0.55751 0.72448 0.35366 0.0
H1309 H 0.55934 0.72044 0.86456 0.0
H1310 H 0.5592 0.72447 -0.00503 0.0
C1311 C 0.55796 0.72727 0.4279 0.0
C1312 C 0.54657 0.70405 0.24675 0.0
H1313 H 0.57233 0.70919 0.09893 0.0
C1314 C 0.52975 0.69672 0.21268 0.0
C1315 C 0.56211 0.70845 0.20562 0.0
C1316 C 0.58039 0.7156 0.24 0.0
C1317 C 0.52809 0.694 0.13797 0.0
C1318 C 0.54365 0.69855 0.09683 0.0
C1319 C 0.56046 0.70579 0.13091 0.0
C1320 C 0.54286 0.696 0.01809 0.0
C1321 C 0.50982 0.68666 0.10339 0.0
C1322 C 0.53368 0.67865 -0.01168 0.0
C1323 C 0.53375 0.67631 0.91389 0.0
C1324 C 0.54308 0.6913 0.86855 0.0
C1325 C 0.55207 0.70866 0.89844 0.0
C1326 C 0.55201 0.71098 0.97275 0.0
H1327 H 0.50006 0.68762 0.13986 0.0
H1328 H 0.5108 0.69398 0.05267 0.0
H1329 H 0.50442 0.67225 0.08987 0.0
H1330 H 0.52677 0.66693 0.02274 0.0
H1331 H 0.52675 0.66279 0.892 0.0
loop_
_geom_bond_atom_site_label_1
_geom_bond_atom_site_label_2
_geom_bond_distance
_geom_bond_site_symmetry_2
_ccdc_geom_bond_type
Ho0 C3 2.811 1_554 S
Ho0 O20 2.322 . S
Ho0 O22 2.378 . S
Ho0 O23 2.524 1_554 S
Ho0 O24 2.381 . S
Ho0 O25 2.669 . S
Ho0 O27 2.346 . S
Ho0 O31 2.305 1_554 S
Ho1 C12 2.812 . S
Ho1 O21 2.346 . S
Ho1 O25 2.310 1_655 S
Ho1 O26 2.320 1_654 S
Ho1 O28 2.376 1_554 S
Ho1 O29 2.528 . S
Ho1 O30 2.373 1_554 S
Ho1 O31 2.665 1_654 S
C2 O20 1.259 1_655 S
C2 O21 1.268 . S
C3 Ho0 2.811 1_556 S
C3 C4 1.488 . S
C3 O22 1.215 1_556 S
C3 O23 1.289 . S
C4 C3 1.488 . S
C4 C5 1.348 . S
C4 C9 1.413 1_556 S
C5 C4 1.348 . S
C5 C6 1.442 . S
C5 H32 0.930 . S
C6 C5 1.442 . S
C6 C7 1.381 . S
C6 H33 0.931 . S
C7 C6 1.381 . S
C7 C8 1.321 1_556 S
C8 C7 1.321 1_554 S
C8 C9 1.403 . S
C8 H34 0.934 . S
C9 C4 1.413 1_554 S
C9 C8 1.403 . S
C9 H35 0.930 . S
C10 O24 1.275 . S
C10 O25 1.256 . S
C11 O26 1.259 . S
C11 O27 1.268 1_556 S
C12 Ho1 2.812 . S
C12 C13 1.488 . S
C12 O28 1.215 1_554 S
C12 O29 1.289 . S
C13 C12 1.488 . S
C13 C14 1.348 . S
C13 C18 1.413 1_554 S
C14 C13 1.348 . S
C14 C15 1.442 . S
C14 H36 0.930 . S
C15 C14 1.442 . S
C15 C16 1.381 . S
C15 H37 0.931 . S
C16 C15 1.381 . S
C16 C17 1.321 1_554 S
C17 C16 1.321 1_556 S
C17 C18 1.403 . S
C17 H38 0.934 . S
C18 C13 1.413 1_556 S
C18 C17 1.403 . S
C18 H39 0.930 . S
C19 O30 1.275 1_455 S
C19 O31 1.256 . S
O20 Ho0 2.322 . S
O20 C2 1.259 1_455 S
O21 Ho1 2.346 . S
O21 C2 1.268 . S
O22 Ho0 2.378 . S
O22 C3 1.215 1_554 S
O23 Ho0 2.524 1_556 S
O23 C3 1.289 . S
O24 Ho0 2.381 . S
O24 C10 1.275 . S
O25 Ho0 2.669 . S
O25 Ho1 2.310 1_455 S
O25 C10 1.256 . S
O26 Ho1 2.320 1_456 S
O26 C11 1.259 . S
O27 Ho0 2.346 . S
O27 C11 1.268 1_554 S
O28 Ho1 2.376 1_556 S
O28 C12 1.215 1_556 S
O29 Ho1 2.528 . S
O29 C12 1.289 . S
O30 Ho1 2.373 1_556 S
O30 C19 1.275 1_655 S
O31 Ho0 2.305 1_556 S
O31 Ho1 2.665 1_456 S
O31 C19 1.256 . S
H32 C5 0.930 . S
H33 C6 0.931 . S
H34 C8 0.934 . S
H35 C9 0.930 . S
H36 C14 0.930 . S
H37 C15 0.931 . S
H38 C17 0.934 . S
H39 C18 0.930 . S
Ho40 C43 2.811 1_554 S
Ho40 O60 2.322 . S
Ho40 O62 2.378 . S
Ho40 O63 2.524 1_554 S
Ho40 O64 2.381 . S
Ho40 O65 2.669 . S
Ho40 O67 2.346 . S
Ho40 O71 2.305 1_554 S
Ho41 C52 2.812 . S
Ho41 O61 2.346 . S
Ho41 O65 2.311 . S
Ho41 O66 2.320 1_554 S
Ho41 O68 2.376 1_554 S
Ho41 O69 2.529 . S
Ho41 O70 2.372 1_554 S
Ho41 O71 2.665 1_554 S
C42 O60 1.259 . S
C42 O61 1.268 . S
C43 Ho40 2.811 1_556 S
C43 C44 1.488 . S
C43 O62 1.215 1_556 S
C43 O63 1.289 . S
C44 C43 1.488 . S
C44 C45 1.348 . S
C44 C49 1.413 1_556 S
C45 C44 1.348 . S
C45 C46 1.442 . S
C45 H72 0.930 . S
C46 C45 1.442 . S
C46 C47 1.381 . S
C46 H73 0.931 . S
C47 C46 1.381 . S
C47 C48 1.321 1_556 S
C48 C47 1.321 1_554 S
C48 C49 1.403 . S
C48 H74 0.934 . S
C49 C44 1.413 1_554 S
C49 C48 1.403 . S
C49 H75 0.930 . S
C50 O64 1.275 . S
C50 O65 1.256 . S
C51 O66 1.259 . S
C51 O67 1.268 1_556 S
C52 Ho41 2.812 . S
C52 C53 1.488 . S
C52 O68 1.215 1_554 S
C52 O69 1.289 . S
C53 C52 1.488 . S
C53 C54 1.348 . S
C53 C58 1.413 1_554 S
C54 C53 1.348 . S
C54 C55 1.442 . S
C54 H76 0.930 . S
C55 C54 1.442 . S
C55 C56 1.381 . S
C55 H77 0.931 . S
C56 C55 1.381 . S
C56 C57 1.321 1_554 S
C57 C56 1.321 1_556 S
C57 C58 1.403 . S
C57 H78 0.934 . S
C58 C53 1.413 1_556 S
C58 C57 1.403 . S
C58 H79 0.930 . S
C59 O70 1.275 . S
C59 O71 1.256 . S
O60 Ho40 2.322 . S
O60 C42 1.259 . S
O61 Ho41 2.346 . S
O61 C42 1.268 . S
O62 Ho40 2.378 . S
O62 C43 1.215 1_554 S
O63 Ho40 2.524 1_556 S
O63 C43 1.289 . S
O64 Ho40 2.381 . S
O64 C50 1.275 . S
O65 Ho40 2.669 . S
O65 Ho41 2.311 . S
O65 C50 1.256 . S
O66 Ho41 2.320 1_556 S
O66 C51 1.259 . S
O67 Ho40 2.346 . S
O67 C51 1.268 1_554 S
O68 Ho41 2.376 1_556 S
O68 C52 1.215 1_556 S
O69 Ho41 2.529 . S
O69 C52 1.289 . S
O70 Ho41 2.372 1_556 S
O70 C59 1.275 . S
O71 Ho40 2.305 1_556 S
O71 Ho41 2.665 1_556 S
O71 C59 1.256 . S
H72 C45 0.930 . S
H73 C46 0.931 . S
H74 C48 0.934 . S
H75 C49 0.930 . S
H76 C54 0.930 . S
H77 C55 0.931 . S
H78 C57 0.934 . S
H79 C58 0.930 . S
Ho80 C83 2.811 1_554 S
Ho80 O100 2.322 1_565 S
Ho80 O102 2.378 . S
Ho80 O103 2.524 1_554 S
Ho80 O104 2.381 . S
Ho80 O105 2.669 1_565 S
Ho80 O107 2.346 . S
Ho80 O111 2.305 1_564 S
Ho81 C92 2.812 . S
Ho81 O101 2.346 . S
Ho81 O105 2.311 . S
Ho81 O106 2.320 1_554 S
Ho81 O108 2.376 1_554 S
Ho81 O109 2.529 . S
Ho81 O110 2.372 1_554 S
Ho81 O111 2.665 1_554 S
C82 O100 1.259 . S
C82 O101 1.268 . S
C83 Ho80 2.811 1_556 S
C83 C84 1.488 . S
C83 O102 1.215 1_556 S
C83 O103 1.289 . S
C84 C83 1.488 . S
C84 C85 1.348 . S
C84 C89 1.413 1_556 S
C85 C84 1.348 . S
C85 C86 1.442 . S
C85 H112 0.930 . S
C86 C85 1.442 . S
C86 C87 1.381 . S
C86 H113 0.931 . S
C87 C86 1.381 . S
C87 C88 1.321 1_556 S
C88 C87 1.321 1_554 S
C88 C89 1.403 . S
C88 H114 0.934 . S
C89 C84 1.413 1_554 S
C89 C88 1.403 . S
C89 H115 0.930 . S
C90 O104 1.275 1_545 S
C90 O105 1.256 . S
C91 O106 1.259 1_565 S
C91 O107 1.268 1_556 S
C92 Ho81 2.812 . S
C92 C93 1.488 . S
C92 O108 1.215 1_554 S
C92 O109 1.289 . S
C93 C92 1.488 . S
C93 C94 1.348 . S
C93 C98 1.413 1_554 S
C94 C93 1.348 . S
C94 C95 1.442 . S
C94 H116 0.930 . S
C95 C94 1.442 . S
C95 C96 1.381 . S
C95 H117 0.931 . S
C96 C95 1.381 . S
C96 C97 1.321 1_554 S
C97 C96 1.321 1_556 S
C97 C98 1.403 . S
C97 H118 0.934 . S
C98 C93 1.413 1_556 S
C98 C97 1.403 . S
C98 H119 0.930 . S
C99 O110 1.275 . S
C99 O111 1.256 . S
O100 Ho80 2.322 1_545 S
O100 C82 1.259 . S
O101 Ho81 2.346 . S
O101 C82 1.268 . S
O102 Ho80 2.378 . S
O102 C83 1.215 1_554 S
O103 Ho80 2.524 1_556 S
O103 C83 1.289 . S
O104 Ho80 2.381 . S
O104 C90 1.275 1_565 S
O105 Ho80 2.669 1_545 S
O105 Ho81 2.311 . S
O105 C90 1.256 . S
O106 Ho81 2.320 1_556 S
O106 C91 1.259 1_545 S
O107 Ho80 2.346 . S
O107 C91 1.268 1_554 S
O108 Ho81 2.376 1_556 S
O108 C92 1.215 1_556 S
O109 Ho81 2.529 . S
O109 C92 1.289 . S
O110 Ho81 2.372 1_556 S
O110 C99 1.275 . S
O111 Ho80 2.305 1_546 S
O111 Ho81 2.665 1_556 S
O111 C99 1.256 . S
H112 C85 0.930 . S
H113 C86 0.931 . S
H114 C88 0.934 . S
H115 C89 0.930 . S
H116 C94 0.930 . S
H117 C95 0.931 . S
H118 C97 0.934 . S
H119 C98 0.930 . S
Ho120 C123 2.811 . S
Ho120 O140 2.322 . S
Ho120 O142 2.378 . S
Ho120 O143 2.524 . S
Ho120 O144 2.381 . S
Ho120 O145 2.669 . S
Ho120 O147 2.346 . S
Ho120 O151 2.305 . S
Ho121 C132 2.811 . S
Ho121 O141 2.346 . S
Ho121 O145 2.305 . S
Ho121 O146 2.322 . S
Ho121 O148 2.378 . S
Ho121 O149 2.524 . S
Ho121 O150 2.381 . S
Ho121 O151 2.669 . S
C122 O140 1.259 . S
C122 O141 1.268 . S
C123 Ho120 2.811 . S
C123 C124 1.488 . S
C123 O142 1.215 . S
C123 O143 1.289 . S
C124 C123 1.488 . S
C124 C125 1.348 . S
C124 C129 1.413 . S
C125 C124 1.348 . S
C125 C126 1.442 . S
C125 H152 0.930 . S
C126 C125 1.442 . S
C126 C127 1.381 . S
C126 H153 0.931 . S
C127 C126 1.381 . S
C127 C128 1.321 . S
C128 C127 1.321 . S
C128 C129 1.403 . S
C128 H154 0.934 . S
C129 C124 1.413 . S
C129 C128 1.403 . S
C129 H155 0.930 . S
C130 O144 1.275 . S
C130 O145 1.256 . S
C131 O146 1.259 . S
C131 O147 1.268 . S
C132 Ho121 2.811 . S
C132 C133 1.488 . S
C132 O148 1.215 . S
C132 O149 1.289 . S
C133 C132 1.488 . S
C133 C134 1.348 . S
C133 C138 1.413 . S
C134 C133 1.348 . S
C134 C135 1.442 . S
C134 H156 0.930 . S
C135 C134 1.442 . S
C135 C136 1.381 . S
C135 H157 0.931 . S
C136 C135 1.381 . S
C136 C137 1.321 . S
C137 C136 1.321 . S
C137 C138 1.403 . S
C137 H158 0.934 . S
C138 C133 1.413 . S
C138 C137 1.403 . S
C138 H159 0.930 . S
C139 O150 1.275 . S
C139 O151 1.256 . S
O140 Ho120 2.322 . S
O140 C122 1.259 . S
O141 Ho121 2.346 . S
O141 C122 1.268 . S
O142 Ho120 2.378 . S
O142 C123 1.215 . S
O143 Ho120 2.524 . S
O143 C123 1.289 . S
O144 Ho120 2.381 . S
O144 C130 1.275 . S
O145 Ho120 2.669 . S
O145 Ho121 2.305 . S
O145 C130 1.256 . S
O146 Ho121 2.322 . S
O146 C131 1.259 . S
O147 Ho120 2.346 . S
O147 C131 1.268 . S
O148 Ho121 2.378 . S
O148 C132 1.215 . S
O149 Ho121 2.524 . S
O149 C132 1.289 . S
O150 Ho121 2.381 . S
O150 C139 1.275 . S
O151 Ho120 2.305 . S
O151 Ho121 2.669 . S
O151 C139 1.256 . S
H152 C125 0.930 . S
H153 C126 0.931 . S
H154 C128 0.934 . S
H155 C129 0.930 . S
H156 C134 0.930 . S
H157 C135 0.931 . S
H158 C137 0.934 . S
H159 C138 0.930 . S
Ho160 C163 2.811 . S
Ho160 O180 2.322 . S
Ho160 O182 2.378 . S
Ho160 O183 2.524 . S
Ho160 O184 2.381 . S
Ho160 O185 2.669 . S
Ho160 O187 2.346 . S
Ho160 O191 2.305 . S
Ho161 C172 2.811 . S
Ho161 O181 2.346 . S
Ho161 O185 2.305 . S
Ho161 O186 2.322 . S
Ho161 O188 2.378 . S
Ho161 O189 2.524 . S
Ho161 O190 2.381 . S
Ho161 O191 2.669 . S
C162 O180 1.259 . S
C162 O181 1.268 . S
C163 Ho160 2.811 . S
C163 C164 1.488 . S
C163 O182 1.215 . S
C163 O183 1.289 . S
C164 C163 1.488 . S
C164 C165 1.348 . S
C164 C169 1.413 . S
C165 C164 1.348 . S
C165 C166 1.442 . S
C165 H192 0.930 . S
C166 C165 1.442 . S
C166 C167 1.381 . S
C166 H193 0.931 . S
C167 C166 1.381 . S
C167 C168 1.321 . S
C168 C167 1.321 . S
C168 C169 1.403 . S
C168 H194 0.934 . S
C169 C164 1.413 . S
C169 C168 1.403 . S
C169 H195 0.930 . S
C170 O184 1.275 . S
C170 O185 1.256 . S
C171 O186 1.259 . S
C171 O187 1.268 . S
C172 Ho161 2.811 . S
C172 C173 1.488 . S
C172 O188 1.215 . S
C172 O189 1.289 . S
C173 C172 1.488 . S
C173 C174 1.348 . S
C173 C178 1.413 . S
C174 C173 1.348 . S
C174 C175 1.442 . S
C174 H196 0.930 . S
C175 C174 1.442 . S
C175 C176 1.381 . S
C175 H197 0.931 . S
C176 C175 1.381 . S
C176 C177 1.321 . S
C177 C176 1.321 . S
C177 C178 1.403 . S
C177 H198 0.934 . S
C178 C173 1.413 . S
C178 C177 1.403 . S
C178 H199 0.930 . S
C179 O190 1.275 . S
C179 O191 1.256 . S
O180 Ho160 2.322 . S
O180 C162 1.259 . S
O181 Ho161 2.346 . S
O181 C162 1.268 . S
O182 Ho160 2.378 . S
O182 C163 1.215 . S
O183 Ho160 2.524 . S
O183 C163 1.289 . S
O184 Ho160 2.381 . S
O184 C170 1.275 . S
O185 Ho160 2.669 . S
O185 Ho161 2.305 . S
O185 C170 1.256 . S
O186 Ho161 2.322 . S
O186 C171 1.259 . S
O187 Ho160 2.346 . S
O187 C171 1.268 . S
O188 Ho161 2.378 . S
O188 C172 1.215 . S
O189 Ho161 2.524 . S
O189 C172 1.289 . S
O190 Ho161 2.381 . S
O190 C179 1.275 . S
O191 Ho160 2.305 . S
O191 Ho161 2.669 . S
O191 C179 1.256 . S
H192 C165 0.930 . S
H193 C166 0.931 . S
H194 C168 0.934 . S
H195 C169 0.930 . S
H196 C174 0.930 . S
H197 C175 0.931 . S
H198 C177 0.934 . S
H199 C178 0.930 . S
Ho200 C203 2.811 . S
Ho200 O220 2.322 . S
Ho200 O222 2.378 . S
Ho200 O223 2.524 . S
Ho200 O224 2.381 . S
Ho200 O225 2.669 . S
Ho200 O227 2.346 . S
Ho200 O231 2.305 . S
Ho201 C212 2.811 . S
Ho201 O221 2.346 . S
Ho201 O225 2.305 . S
Ho201 O226 2.322 . S
Ho201 O228 2.378 . S
Ho201 O229 2.524 . S
Ho201 O230 2.381 . S
Ho201 O231 2.669 . S
C202 O220 1.259 . S
C202 O221 1.268 . S
C203 Ho200 2.811 . S
C203 C204 1.488 . S
C203 O222 1.215 . S
C203 O223 1.289 . S
C204 C203 1.488 . S
C204 C205 1.348 . S
C204 C209 1.413 . S
C205 C204 1.348 . S
C205 C206 1.442 . S
C205 H232 0.930 . S
C206 C205 1.442 . S
C206 C207 1.381 . S
C206 H233 0.931 . S
C207 C206 1.381 . S
C207 C208 1.321 . S
C208 C207 1.321 . S
C208 C209 1.403 . S
C208 H234 0.934 . S
C209 C204 1.413 . S
C209 C208 1.403 . S
C209 H235 0.930 . S
C210 O224 1.275 . S
C210 O225 1.256 . S
C211 O226 1.259 . S
C211 O227 1.268 . S
C212 Ho201 2.811 . S
C212 C213 1.488 . S
C212 O228 1.215 . S
C212 O229 1.289 . S
C213 C212 1.488 . S
C213 C214 1.348 . S
C213 C218 1.413 . S
C214 C213 1.348 . S
C214 C215 1.442 . S
C214 H236 0.930 . S
C215 C214 1.442 . S
C215 C216 1.381 . S
C215 H237 0.931 . S
C216 C215 1.381 . S
C216 C217 1.321 . S
C217 C216 1.321 . S
C217 C218 1.403 . S
C217 H238 0.934 . S
C218 C213 1.413 . S
C218 C217 1.403 . S
C218 H239 0.930 . S
C219 O230 1.275 . S
C219 O231 1.256 . S
O220 Ho200 2.322 . S
O220 C202 1.259 . S
O221 Ho201 2.346 . S
O221 C202 1.268 . S
O222 Ho200 2.378 . S
O222 C203 1.215 . S
O223 Ho200 2.524 . S
O223 C203 1.289 . S
O224 Ho200 2.381 . S
O224 C210 1.275 . S
O225 Ho200 2.669 . S
O225 Ho201 2.305 . S
O225 C210 1.256 . S
O226 Ho201 2.322 . S
O226 C211 1.259 . S
O227 Ho200 2.346 . S
O227 C211 1.268 . S
O228 Ho201 2.378 . S
O228 C212 1.215 . S
O229 Ho201 2.524 . S
O229 C212 1.289 . S
O230 Ho201 2.381 . S
O230 C219 1.275 . S
O231 Ho200 2.305 . S
O231 Ho201 2.669 . S
O231 C219 1.256 . S
H232 C205 0.930 . S
H233 C206 0.931 . S
H234 C208 0.934 . S
H235 C209 0.930 . S
H236 C214 0.930 . S
H237 C215 0.931 . S
H238 C217 0.934 . S
H239 C218 0.930 . S
Ho240 C243 2.811 . S
Ho240 O260 2.322 . S
Ho240 O262 2.378 . S
Ho240 O263 2.524 . S
Ho240 O264 2.381 . S
Ho240 O265 2.669 . S
Ho240 O267 2.346 . S
Ho240 O271 2.305 . S
Ho241 C252 2.811 . S
Ho241 O261 2.346 . S
Ho241 O265 2.305 . S
Ho241 O266 2.322 . S
Ho241 O268 2.378 . S
Ho241 O269 2.524 . S
Ho241 O270 2.381 . S
Ho241 O271 2.669 . S
C242 O260 1.259 . S
C242 O261 1.268 . S
C243 Ho240 2.811 . S
C243 C244 1.488 . S
C243 O262 1.215 . S
C243 O263 1.289 . S
C244 C243 1.488 . S
C244 C245 1.348 . S
C244 C249 1.413 . S
C245 C244 1.348 . S
C245 C246 1.442 . S
C245 H272 0.930 . S
C246 C245 1.442 . S
C246 C247 1.381 . S
C246 H273 0.931 . S
C247 C246 1.381 . S
C247 C248 1.321 . S
C248 C247 1.321 . S
C248 C249 1.403 . S
C248 H274 0.934 . S
C249 C244 1.413 . S
C249 C248 1.403 . S
C249 H275 0.930 . S
C250 O264 1.275 . S
C250 O265 1.256 . S
C251 O266 1.259 . S
C251 O267 1.268 . S
C252 Ho241 2.811 . S
C252 C253 1.488 . S
C252 O268 1.215 . S
C252 O269 1.289 . S
C253 C252 1.488 . S
C253 C254 1.348 . S
C253 C258 1.413 . S
C254 C253 1.348 . S
C254 C255 1.442 . S
C254 H276 0.930 . S
C255 C254 1.442 . S
C255 C256 1.381 . S
C255 H277 0.931 . S
C256 C255 1.381 . S
C256 C257 1.321 . S
C257 C256 1.321 . S
C257 C258 1.403 . S
C257 H278 0.934 . S
C258 C253 1.413 . S
C258 C257 1.403 . S
C258 H279 0.930 . S
C259 O270 1.275 . S
C259 O271 1.256 . S
O260 Ho240 2.322 . S
O260 C242 1.259 . S
O261 Ho241 2.346 . S
O261 C242 1.268 . S
O262 Ho240 2.378 . S
O262 C243 1.215 . S
O263 Ho240 2.524 . S
O263 C243 1.289 . S
O264 Ho240 2.381 . S
O264 C250 1.275 . S
O265 Ho240 2.669 . S
O265 Ho241 2.305 . S
O265 C250 1.256 . S
O266 Ho241 2.322 . S
O266 C251 1.259 . S
O267 Ho240 2.346 . S
O267 C251 1.268 . S
O268 Ho241 2.378 . S
O268 C252 1.215 . S
O269 Ho241 2.524 . S
O269 C252 1.289 . S
O270 Ho241 2.381 . S
O270 C259 1.275 . S
O271 Ho240 2.305 . S
O271 Ho241 2.669 . S
O271 C259 1.256 . S
H272 C245 0.930 . S
H273 C246 0.931 . S
H274 C248 0.934 . S
H275 C249 0.930 . S
H276 C254 0.930 . S
H277 C255 0.931 . S
H278 C257 0.934 . S
H279 C258 0.930 . S
Ho280 C283 2.811 . S
Ho280 O300 2.322 . S
Ho280 O302 2.378 . S
Ho280 O303 2.524 . S
Ho280 O304 2.381 . S
Ho280 O305 2.669 . S
Ho280 O307 2.346 . S
Ho280 O311 2.305 . S
Ho281 C292 2.811 . S
Ho281 O301 2.346 . S
Ho281 O305 2.305 . S
Ho281 O306 2.322 . S
Ho281 O308 2.378 . S
Ho281 O309 2.524 . S
Ho281 O310 2.381 . S
Ho281 O311 2.669 . S
C282 O300 1.259 . S
C282 O301 1.268 . S
C283 Ho280 2.811 . S
C283 C284 1.488 . S
C283 O302 1.215 . S
C283 O303 1.289 . S
C284 C283 1.488 . S
C284 C285 1.348 . S
C284 C289 1.413 . S
C285 C284 1.348 . S
C285 C286 1.442 . S
C285 H312 0.930 . S
C286 C285 1.442 . S
C286 C287 1.381 . S
C286 H313 0.931 . S
C287 C286 1.381 . S
C287 C288 1.321 . S
C288 C287 1.321 . S
C288 C289 1.403 . S
C288 H314 0.934 . S
C289 C284 1.413 . S
C289 C288 1.403 . S
C289 H315 0.930 . S
C290 O304 1.275 . S
C290 O305 1.256 . S
C291 O306 1.259 . S
C291 O307 1.268 . S
C292 Ho281 2.811 . S
C292 C293 1.488 . S
C292 O308 1.215 . S
C292 O309 1.289 . S
C293 C292 1.488 . S
C293 C294 1.348 . S
C293 C298 1.413 . S
C294 C293 1.348 . S
C294 C295 1.442 . S
C294 H316 0.930 . S
C295 C294 1.442 . S
C295 C296 1.381 . S
C295 H317 0.931 . S
C296 C295 1.381 . S
C296 C297 1.321 . S
C297 C296 1.321 . S
C297 C298 1.403 . S
C297 H318 0.934 . S
C298 C293 1.413 . S
C298 C297 1.403 . S
C298 H319 0.930 . S
C299 O310 1.275 . S
C299 O311 1.256 . S
O300 Ho280 2.322 . S
O300 C282 1.259 . S
O301 Ho281 2.346 . S
O301 C282 1.268 . S
O302 Ho280 2.378 . S
O302 C283 1.215 . S
O303 Ho280 2.524 . S
O303 C283 1.289 . S
O304 Ho280 2.381 . S
O304 C290 1.275 . S
O305 Ho280 2.669 . S
O305 Ho281 2.305 . S
O305 C290 1.256 . S
O306 Ho281 2.322 . S
O306 C291 1.259 . S
O307 Ho280 2.346 . S
O307 C291 1.268 . S
O308 Ho281 2.378 . S
O308 C292 1.215 . S
O309 Ho281 2.524 . S
O309 C292 1.289 . S
O310 Ho281 2.381 . S
O310 C299 1.275 . S
O311 Ho280 2.305 . S
O311 Ho281 2.669 . S
O311 C299 1.256 . S
H312 C285 0.930 . S
H313 C286 0.931 . S
H314 C288 0.934 . S
H315 C289 0.930 . S
H316 C294 0.930 . S
H317 C295 0.931 . S
H318 C297 0.934 . S
H319 C298 0.930 . S
Ho320 C323 2.811 . S
Ho320 O340 2.322 . S
Ho320 O342 2.378 . S
Ho320 O343 2.524 . S
Ho320 O344 2.381 . S
Ho320 O345 2.669 . S
Ho320 O347 2.346 . S
Ho320 O351 2.305 . S
Ho321 C332 2.811 . S
Ho321 O341 2.346 . S
Ho321 O345 2.305 . S
Ho321 O346 2.322 . S
Ho321 O348 2.378 . S
Ho321 O349 2.524 . S
Ho321 O350 2.381 . S
Ho321 O351 2.669 . S
C322 O340 1.259 . S
C322 O341 1.268 . S
C323 Ho320 2.811 . S
C323 C324 1.488 . S
C323 O342 1.215 . S
C323 O343 1.289 . S
C324 C323 1.488 . S
C324 C325 1.348 . S
C324 C329 1.413 . S
C325 C324 1.348 . S
C325 C326 1.442 . S
C325 H352 0.930 . S
C326 C325 1.442 . S
C326 C327 1.381 . S
C326 H353 0.931 . S
C327 C326 1.381 . S
C327 C328 1.321 . S
C328 C327 1.321 . S
C328 C329 1.403 . S
C328 H354 0.934 . S
C329 C324 1.413 . S
C329 C328 1.403 . S
C329 H355 0.930 . S
C330 O344 1.275 . S
C330 O345 1.256 . S
C331 O346 1.259 . S
C331 O347 1.268 . S
C332 Ho321 2.811 . S
C332 C333 1.488 . S
C332 O348 1.215 . S
C332 O349 1.289 . S
C333 C332 1.488 . S
C333 C334 1.348 . S
C333 C338 1.413 . S
C334 C333 1.348 . S
C334 C335 1.442 . S
C334 H356 0.930 . S
C335 C334 1.442 . S
C335 C336 1.381 . S
C335 H357 0.931 . S
C336 C335 1.381 . S
C336 C337 1.321 . S
C337 C336 1.321 . S
C337 C338 1.403 . S
C337 H358 0.934 . S
C338 C333 1.413 . S
C338 C337 1.403 . S
C338 H359 0.930 . S
C339 O350 1.275 . S
C339 O351 1.256 . S
O340 Ho320 2.322 . S
O340 C322 1.259 . S
O341 Ho321 2.346 . S
O341 C322 1.268 . S
O342 Ho320 2.378 . S
O342 C323 1.215 . S
O343 Ho320 2.524 . S
O343 C323 1.289 . S
O344 Ho320 2.381 . S
O344 C330 1.275 . S
O345 Ho320 2.669 . S
O345 Ho321 2.305 . S
O345 C330 1.256 . S
O346 Ho321 2.322 . S
O346 C331 1.259 . S
O347 Ho320 2.346 . S
O347 C331 1.268 . S
O348 Ho321 2.378 . S
O348 C332 1.215 . S
O349 Ho321 2.524 . S
O349 C332 1.289 . S
O350 Ho321 2.381 . S
O350 C339 1.275 . S
O351 Ho320 2.305 . S
O351 Ho321 2.669 . S
O351 C339 1.256 . S
H352 C325 0.930 . S
H353 C326 0.931 . S
H354 C328 0.934 . S
H355 C329 0.930 . S
H356 C334 0.930 . S
H357 C335 0.931 . S
H358 C337 0.934 . S
H359 C338 0.930 . S
H360 C368 0.929 . S
H361 C370 0.930 . S
H362 C372 0.930 . S
H363 C375 0.929 1_554 S
H364 C378 0.930 . S
H365 C380 0.960 . S
H366 C380 0.960 . S
H367 C380 0.960 . S
C368 H360 0.929 . S
C368 C369 1.377 . S
C368 C370 1.384 . S
C369 C368 1.377 . S
C369 C375 1.390 . S
C370 H361 0.930 . S
C370 C368 1.384 . S
C370 C371 1.372 . S
C371 C370 1.372 . S
C371 C372 1.400 . S
C371 C376 1.490 . S
C372 H362 0.930 . S
C372 C371 1.400 . S
C372 C375 1.386 . S
H373 C389 0.930 . S
H374 C390 0.931 . S
C375 H363 0.929 1_556 S
C375 C369 1.390 . S
C375 C372 1.386 . S
C376 C371 1.490 . S
C376 C378 1.395 . S
C376 C379 1.403 . S
H377 C383 0.930 . S
C378 H364 0.930 . S
C378 C376 1.395 . S
C378 C381 1.403 . S
C379 C376 1.403 . S
C379 C380 1.524 . S
C379 C383 1.400 . S
C380 H365 0.960 . S
C380 H366 0.960 . S
C380 H367 0.960 . S
C380 C379 1.524 . S
C381 C378 1.403 . S
C381 C382 1.392 . S
C381 C385 1.495 . S
C382 C381 1.392 . S
C382 C383 1.385 . S
C382 C384 1.478 . S
C383 H377 0.930 . S
C383 C379 1.400 . S
C383 C382 1.385 . S
C384 C382 1.478 . S
C384 C386 1.381 . S
C384 C390 1.383 . S
C385 C381 1.495 . S
C385 H391 0.959 . S
C385 H392 0.961 . S
C385 H393 0.960 . S
C386 C384 1.381 . S
C386 C387 1.394 . S
C386 H394 0.930 . S
C387 C386 1.394 . S
C387 C388 1.383 . S
C387 H395 0.929 . S
C388 C387 1.383 . S
C388 C389 1.377 . S
C389 H373 0.930 . S
C389 C388 1.377 . S
C389 C390 1.379 . S
C390 H374 0.931 . S
C390 C384 1.383 . S
C390 C389 1.379 . S
H391 C385 0.959 . S
H392 C385 0.961 . S
H393 C385 0.960 . S
H394 C386 0.930 . S
H395 C387 0.929 . S
H396 C404 0.929 1_554 S
H397 C406 0.930 . S
H398 C408 0.930 . S
H399 C411 0.929 . S
H400 C414 0.930 . S
H401 C416 0.960 . S
H402 C416 0.960 . S
H403 C416 0.960 . S
C404 H396 0.929 1_556 S
C404 C405 1.377 . S
C404 C406 1.384 . S
C405 C404 1.377 . S
C405 C411 1.390 . S
C406 H397 0.930 . S
C406 C404 1.384 . S
C406 C407 1.372 . S
C407 C406 1.372 . S
C407 C408 1.400 . S
C407 C412 1.490 . S
C408 H398 0.930 . S
C408 C407 1.400 . S
C408 C411 1.386 . S
H409 C425 0.930 . S
H410 C426 0.931 . S
C411 H399 0.929 . S
C411 C405 1.390 . S
C411 C408 1.386 . S
C412 C407 1.490 . S
C412 C414 1.395 . S
C412 C415 1.403 . S
H413 C419 0.930 . S
C414 H400 0.930 . S
C414 C412 1.395 . S
C414 C417 1.403 . S
C415 C412 1.403 . S
C415 C416 1.524 . S
C415 C419 1.400 . S
C416 H401 0.960 . S
C416 H402 0.960 . S
C416 H403 0.960 . S
C416 C415 1.524 . S
C417 C414 1.403 . S
C417 C418 1.392 . S
C417 C421 1.495 . S
C418 C417 1.392 . S
C418 C419 1.385 . S
C418 C420 1.478 . S
C419 H413 0.930 . S
C419 C415 1.400 . S
C419 C418 1.385 . S
C420 C418 1.478 . S
C420 C422 1.381 . S
C420 C426 1.383 . S
C421 C417 1.495 . S
C421 H427 0.959 . S
C421 H428 0.961 . S
C421 H429 0.960 . S
C422 C420 1.381 . S
C422 C423 1.394 . S
C422 H430 0.930 . S
C423 C422 1.394 . S
C423 C424 1.383 . S
C423 H431 0.929 . S
C424 C423 1.383 . S
C424 C425 1.377 . S
C425 H409 0.930 . S
C425 C424 1.377 . S
C425 C426 1.379 . S
C426 H410 0.931 . S
C426 C420 1.383 . S
C426 C425 1.379 . S
H427 C421 0.959 . S
H428 C421 0.961 . S
H429 C421 0.960 . S
H430 C422 0.930 . S
H431 C423 0.929 . S
H432 C440 0.929 1_554 S
H433 C442 0.930 . S
H434 C444 0.930 . S
H435 C447 0.929 . S
H436 C450 0.930 . S
H437 C452 0.960 . S
H438 C452 0.960 . S
H439 C452 0.960 . S
C440 H432 0.929 1_556 S
C440 C441 1.377 . S
C440 C442 1.384 . S
C441 C440 1.377 . S
C441 C447 1.390 . S
C442 H433 0.930 . S
C442 C440 1.384 . S
C442 C443 1.372 . S
C443 C442 1.372 . S
C443 C444 1.400 . S
C443 C448 1.490 . S
C444 H434 0.930 . S
C444 C443 1.400 . S
C444 C447 1.386 . S
H445 C461 0.930 . S
H446 C462 0.931 . S
C447 H435 0.929 . S
C447 C441 1.390 . S
C447 C444 1.386 . S
C448 C443 1.490 . S
C448 C450 1.395 . S
C448 C451 1.403 . S
H449 C455 0.930 . S
C450 H436 0.930 . S
C450 C448 1.395 . S
C450 C453 1.403 . S
C451 C448 1.403 . S
C451 C452 1.524 . S
C451 C455 1.400 . S
C452 H437 0.960 . S
C452 H438 0.960 . S
C452 H439 0.960 . S
C452 C451 1.524 . S
C453 C450 1.403 . S
C453 C454 1.392 . S
C453 C457 1.495 . S
C454 C453 1.392 . S
C454 C455 1.385 . S
C454 C456 1.478 . S
C455 H449 0.930 . S
C455 C451 1.400 . S
C455 C454 1.385 . S
C456 C454 1.478 . S
C456 C458 1.381 . S
C456 C462 1.383 . S
C457 C453 1.495 . S
C457 H463 0.959 . S
C457 H464 0.961 . S
C457 H465 0.960 . S
C458 C456 1.381 . S
C458 C459 1.394 . S
C458 H466 0.930 . S
C459 C458 1.394 . S
C459 C460 1.383 . S
C459 H467 0.929 . S
C460 C459 1.383 . S
C460 C461 1.377 . S
C461 H445 0.930 . S
C461 C460 1.377 . S
C461 C462 1.379 . S
C462 H446 0.931 . S
C462 C456 1.383 . S
C462 C461 1.379 . S
H463 C457 0.959 . S
H464 C457 0.961 . S
H465 C457 0.960 . S
H466 C458 0.930 . S
H467 C459 0.929 . S
H468 C476 0.929 . S
H469 C478 0.930 . S
H470 C480 0.930 . S
H471 C483 0.929 . S
H472 C486 0.930 . S
H473 C488 0.960 . S
H474 C488 0.960 . S
H475 C488 0.960 . S
C476 H468 0.929 . S
C476 C477 1.377 . S
C476 C478 1.384 . S
C477 C476 1.377 . S
C477 C483 1.390 . S
C478 H469 0.930 . S
C478 C476 1.384 . S
C478 C479 1.372 . S
C479 C478 1.372 . S
C479 C480 1.400 . S
C479 C484 1.490 . S
C480 H470 0.930 . S
C480 C479 1.400 . S
C480 C483 1.386 . S
H481 C497 0.930 . S
H482 C498 0.931 1_556 S
C483 H471 0.929 . S
C483 C477 1.390 . S
C483 C480 1.386 . S
C484 C479 1.490 . S
C484 C486 1.395 . S
C484 C487 1.403 . S
H485 C491 0.930 . S
C486 H472 0.930 . S
C486 C484 1.395 . S
C486 C489 1.403 . S
C487 C484 1.403 . S
C487 C488 1.524 . S
C487 C491 1.400 . S
C488 H473 0.960 . S
C488 H474 0.960 . S
C488 H475 0.960 . S
C488 C487 1.524 . S
C489 C486 1.403 . S
C489 C490 1.392 . S
C489 C493 1.495 . S
C490 C489 1.392 . S
C490 C491 1.385 . S
C490 C492 1.478 . S
C491 H485 0.930 . S
C491 C487 1.400 . S
C491 C490 1.385 . S
C492 C490 1.478 . S
C492 C494 1.381 . S
C492 C498 1.383 . S
C493 C489 1.495 . S
C493 H499 0.959 . S
C493 H500 0.961 . S
C493 H501 0.960 . S
C494 C492 1.381 . S
C494 C495 1.394 . S
C494 H502 0.930 . S
C495 C494 1.394 . S
C495 C496 1.383 . S
C495 H503 0.929 . S
C496 C495 1.383 . S
C496 C497 1.377 1_554 S
C497 H481 0.930 . S
C497 C496 1.377 1_556 S
C497 C498 1.379 1_556 S
C498 H482 0.931 1_554 S
C498 C492 1.383 . S
C498 C497 1.379 1_554 S
H499 C493 0.959 . S
H500 C493 0.961 . S
H501 C493 0.960 . S
H502 C494 0.930 . S
H503 C495 0.929 . S
H504 C512 0.929 . S
H505 C514 0.930 . S
H506 C516 0.930 . S
H507 C519 0.929 . S
H508 C522 0.930 . S
H509 C524 0.960 . S
H510 C524 0.960 . S
H511 C524 0.960 . S
C512 H504 0.929 . S
C512 C513 1.377 . S
C512 C514 1.384 . S
C513 C512 1.377 . S
C513 C519 1.390 . S
C514 H505 0.930 . S
C514 C512 1.384 . S
C514 C515 1.372 . S
C515 C514 1.372 . S
C515 C516 1.400 . S
C515 C520 1.490 . S
C516 H506 0.930 . S
C516 C515 1.400 . S
C516 C519 1.386 . S
H517 C533 0.930 . S
H518 C534 0.931 . S
C519 H507 0.929 . S
C519 C513 1.390 . S
C519 C516 1.386 . S
C520 C515 1.490 . S
C520 C522 1.395 . S
C520 C523 1.403 . S
H521 C527 0.930 . S
C522 H508 0.930 . S
C522 C520 1.395 . S
C522 C525 1.403 . S
C523 C520 1.403 . S
C523 C524 1.524 . S
C523 C527 1.400 . S
C524 H509 0.960 . S
C524 H510 0.960 . S
C524 H511 0.960 . S
C524 C523 1.524 . S
C525 C522 1.403 . S
C525 C526 1.392 . S
C525 C529 1.495 . S
C526 C525 1.392 . S
C526 C527 1.385 . S
C526 C528 1.478 . S
C527 H521 0.930 . S
C527 C523 1.400 . S
C527 C526 1.385 . S
C528 C526 1.478 . S
C528 C530 1.381 . S
C528 C534 1.383 . S
C529 C525 1.495 . S
C529 H535 0.959 . S
C529 H536 0.961 . S
C529 H537 0.960 . S
C530 C528 1.381 . S
C530 C531 1.394 1_554 S
C530 H538 0.929 1_554 S
C531 C530 1.394 1_556 S
C531 C532 1.383 1_556 S
C531 H539 0.929 . S
C532 C531 1.383 1_554 S
C532 C533 1.377 . S
C533 H517 0.930 . S
C533 C532 1.377 . S
C533 C534 1.379 . S
C534 H518 0.931 . S
C534 C528 1.383 . S
C534 C533 1.379 . S
H535 C529 0.959 . S
H536 C529 0.961 . S
H537 C529 0.960 . S
H538 C530 0.929 1_556 S
H539 C531 0.929 . S
H540 C548 0.929 1_556 S
H541 C550 0.930 . S
H542 C552 0.930 . S
H543 C555 0.929 . S
H544 C558 0.930 . S
H545 C560 0.960 . S
H546 C560 0.960 . S
H547 C560 0.960 . S
C548 H540 0.929 1_554 S
C548 C549 1.377 . S
C548 C550 1.384 . S
C549 C548 1.377 . S
C549 C555 1.390 . S
C550 H541 0.930 . S
C550 C548 1.384 . S
C550 C551 1.372 . S
C551 C550 1.372 . S
C551 C552 1.400 . S
C551 C556 1.490 . S
C552 H542 0.930 . S
C552 C551 1.400 . S
C552 C555 1.386 . S
H553 C569 0.930 . S
H554 C570 0.931 . S
C555 H543 0.929 . S
C555 C549 1.390 . S
C555 C552 1.386 . S
C556 C551 1.490 . S
C556 C558 1.395 . S
C556 C559 1.403 . S
H557 C563 0.930 . S
C558 H544 0.930 . S
C558 C556 1.395 . S
C558 C561 1.403 . S
C559 C556 1.403 . S
C559 C560 1.524 . S
C559 C563 1.400 . S
C560 H545 0.960 . S
C560 H546 0.960 . S
C560 H547 0.960 . S
C560 C559 1.524 . S
C561 C558 1.403 . S
C561 C562 1.392 . S
C561 C565 1.495 . S
C562 C561 1.392 . S
C562 C563 1.385 . S
C562 C564 1.478 . S
C563 H557 0.930 . S
C563 C559 1.400 . S
C563 C562 1.385 . S
C564 C562 1.478 . S
C564 C566 1.381 . S
C564 C570 1.383 . S
C565 C561 1.495 . S
C565 H571 0.959 . S
C565 H572 0.961 . S
C565 H573 0.960 . S
C566 C564 1.381 . S
C566 C567 1.394 . S
C566 H574 0.930 . S
C567 C566 1.394 . S
C567 C568 1.383 . S
C567 H575 0.929 . S
C568 C567 1.383 . S
C568 C569 1.377 . S
C569 H553 0.930 . S
C569 C568 1.377 . S
C569 C570 1.379 . S
C570 H554 0.931 . S
C570 C564 1.383 . S
C570 C569 1.379 . S
H571 C565 0.959 . S
H572 C565 0.961 . S
H573 C565 0.960 . S
H574 C566 0.930 . S
H575 C567 0.929 . S
H576 C584 0.929 . S
H577 C586 0.930 . S
H578 C588 0.930 . S
H579 C591 0.929 . S
H580 C594 0.930 . S
H581 C596 0.960 . S
H582 C596 0.960 1_455 S
H583 C596 0.960 . S
C584 H576 0.929 . S
C584 C585 1.377 . S
C584 C586 1.384 . S
C585 C584 1.377 . S
C585 C591 1.390 . S
C586 H577 0.930 . S
C586 C584 1.384 . S
C586 C587 1.372 . S
C587 C586 1.372 . S
C587 C588 1.400 . S
C587 C592 1.490 1_455 S
C588 H578 0.930 . S
C588 C587 1.400 . S
C588 C591 1.386 . S
H589 C605 0.930 . S
H590 C606 0.931 . S
C591 H579 0.929 . S
C591 C585 1.390 . S
C591 C588 1.386 . S
C592 C587 1.490 1_655 S
C592 C594 1.395 . S
C592 C595 1.403 . S
H593 C599 0.930 . S
C594 H580 0.930 . S
C594 C592 1.395 . S
C594 C597 1.403 . S
C595 C592 1.403 . S
C595 C596 1.524 . S
C595 C599 1.400 . S
C596 H581 0.960 . S
C596 H582 0.960 1_655 S
C596 H583 0.960 . S
C596 C595 1.524 . S
C597 C594 1.403 . S
C597 C598 1.392 . S
C597 C601 1.495 . S
C598 C597 1.392 . S
C598 C599 1.385 . S
C598 C600 1.478 . S
C599 H593 0.930 . S
C599 C595 1.400 . S
C599 C598 1.385 . S
C600 C598 1.478 . S
C600 C602 1.381 . S
C600 C606 1.383 . S
C601 C597 1.495 . S
C601 H607 0.959 . S
C601 H608 0.961 . S
C601 H609 0.960 . S
C602 C600 1.381 . S
C602 C603 1.394 . S
C602 H610 0.930 . S
C603 C602 1.394 . S
C603 C604 1.383 . S
C603 H611 0.929 . S
C604 C603 1.383 . S
C604 C605 1.377 . S
C605 H589 0.930 . S
C605 C604 1.377 . S
C605 C606 1.379 . S
C606 H590 0.931 . S
C606 C600 1.383 . S
C606 C605 1.379 . S
H607 C601 0.959 . S
H608 C601 0.961 . S
H609 C601 0.960 . S
H610 C602 0.930 . S
H611 C603 0.929 . S
H612 C620 0.929 . S
H613 C622 0.930 . S
H614 C624 0.930 . S
H615 C627 0.929 . S
H616 C630 0.930 . S
H617 C632 0.960 . S
H618 C632 0.960 . S
H619 C632 0.960 . S
C620 H612 0.929 . S
C620 C621 1.377 . S
C620 C622 1.384 . S
C621 C620 1.377 . S
C621 C627 1.390 . S
C622 H613 0.930 . S
C622 C620 1.384 . S
C622 C623 1.372 . S
C623 C622 1.372 . S
C623 C624 1.400 . S
C623 C628 1.490 . S
C624 H614 0.930 . S
C624 C623 1.400 . S
C624 C627 1.386 . S
H625 C641 0.930 . S
H626 C642 0.931 . S
C627 H615 0.929 . S
C627 C621 1.390 . S
C627 C624 1.386 . S
C628 C623 1.490 . S
C628 C630 1.395 . S
C628 C631 1.403 . S
H629 C635 0.930 . S
C630 H616 0.930 . S
C630 C628 1.395 . S
C630 C633 1.403 . S
C631 C628 1.403 . S
C631 C632 1.524 . S
C631 C635 1.400 . S
C632 H617 0.960 . S
C632 H618 0.960 . S
C632 H619 0.960 . S
C632 C631 1.524 . S
C633 C630 1.403 . S
C633 C634 1.392 . S
C633 C637 1.495 . S
C634 C633 1.392 . S
C634 C635 1.385 . S
C634 C636 1.478 . S
C635 H629 0.930 . S
C635 C631 1.400 . S
C635 C634 1.385 . S
C636 C634 1.478 . S
C636 C638 1.381 . S
C636 C642 1.383 . S
C637 C633 1.495 . S
C637 H643 0.959 . S
C637 H644 0.961 . S
C637 H645 0.960 . S
C638 C636 1.381 . S
C638 C639 1.394 . S
C638 H646 0.930 . S
C639 C638 1.394 . S
C639 C640 1.383 . S
C639 H647 0.929 . S
C640 C639 1.383 . S
C640 C641 1.377 . S
C641 H625 0.930 . S
C641 C640 1.377 . S
C641 C642 1.379 . S
C642 H626 0.931 . S
C642 C636 1.383 . S
C642 C641 1.379 . S
H643 C637 0.959 . S
H644 C637 0.961 . S
H645 C637 0.960 . S
H646 C638 0.930 . S
H647 C639 0.929 . S
H648 C656 0.929 . S
H649 C658 0.930 . S
H650 C660 0.930 . S
H651 C663 0.929 . S
H652 C666 0.930 . S
H653 C668 0.960 . S
H654 C668 0.960 . S
H655 C668 0.960 . S
C656 H648 0.929 . S
C656 C657 1.377 . S
C656 C658 1.384 . S
C657 C656 1.377 . S
C657 C663 1.390 . S
C658 H649 0.930 . S
C658 C656 1.384 . S
C658 C659 1.372 . S
C659 C658 1.372 . S
C659 C660 1.400 . S
C659 C664 1.490 . S
C660 H650 0.930 . S
C660 C659 1.400 . S
C660 C663 1.386 . S
H661 C677 0.930 . S
H662 C678 0.931 . S
C663 H651 0.929 . S
C663 C657 1.390 . S
C663 C660 1.386 . S
C664 C659 1.490 . S
C664 C666 1.395 . S
C664 C667 1.403 . S
H665 C671 0.930 . S
C666 H652 0.930 . S
C666 C664 1.395 . S
C666 C669 1.403 . S
C667 C664 1.403 . S
C667 C668 1.524 . S
C667 C671 1.400 . S
C668 H653 0.960 . S
C668 H654 0.960 . S
C668 H655 0.960 . S
C668 C667 1.524 . S
C669 C666 1.403 . S
C669 C670 1.392 . S
C669 C673 1.495 . S
C670 C669 1.392 . S
C670 C671 1.385 . S
C670 C672 1.478 . S
C671 H665 0.930 . S
C671 C667 1.400 . S
C671 C670 1.385 . S
C672 C670 1.478 . S
C672 C674 1.381 . S
C672 C678 1.383 . S
C673 C669 1.495 . S
C673 H679 0.959 . S
C673 H680 0.961 . S
C673 H681 0.960 . S
C674 C672 1.381 . S
C674 C675 1.394 1_545 S
C674 H682 0.930 . S
C675 C674 1.394 1_565 S
C675 C676 1.383 . S
C675 H683 0.929 . S
C676 C675 1.383 . S
C676 C677 1.377 . S
C677 H661 0.930 . S
C677 C676 1.377 . S
C677 C678 1.379 1_565 S
C678 H662 0.931 . S
C678 C672 1.383 . S
C678 C677 1.379 1_545 S
H679 C673 0.959 . S
H680 C673 0.961 . S
H681 C673 0.960 . S
H682 C674 0.930 . S
H683 C675 0.929 . S
H684 C692 0.929 . S
H685 C694 0.930 . S
H686 C696 0.930 . S
H687 C699 0.929 . S
H688 C702 0.930 . S
H689 C704 0.960 . S
H690 C704 0.960 . S
H691 C704 0.960 . S
C692 H684 0.929 . S
C692 C693 1.377 . S
C692 C694 1.384 . S
C693 C692 1.377 . S
C693 C699 1.390 . S
C694 H685 0.930 . S
C694 C692 1.384 . S
C694 C695 1.372 . S
C695 C694 1.372 . S
C695 C696 1.400 . S
C695 C700 1.490 . S
C696 H686 0.930 . S
C696 C695 1.400 . S
C696 C699 1.386 . S
H697 C713 0.930 . S
H698 C714 0.931 . S
C699 H687 0.929 . S
C699 C693 1.390 . S
C699 C696 1.386 . S
C700 C695 1.490 . S
C700 C702 1.395 . S
C700 C703 1.403 1_554 S
H701 C707 0.930 . S
C702 H688 0.930 . S
C702 C700 1.395 . S
C702 C705 1.403 . S
C703 C700 1.403 1_556 S
C703 C704 1.524 . S
C703 C707 1.400 . S
C704 H689 0.960 . S
C704 H690 0.960 . S
C704 H691 0.960 . S
C704 C703 1.524 . S
C705 C702 1.403 . S
C705 C706 1.392 . S
C705 C709 1.495 . S
C706 C705 1.392 . S
C706 C707 1.385 1_554 S
C706 C708 1.478 . S
C707 H701 0.930 . S
C707 C703 1.400 . S
C707 C706 1.385 1_556 S
C708 C706 1.478 . S
C708 C710 1.381 . S
C708 C714 1.383 . S
C709 C705 1.495 . S
C709 H715 0.959 . S
C709 H716 0.961 . S
C709 H717 0.960 . S
C710 C708 1.381 . S
C710 C711 1.394 . S
C710 H718 0.930 . S
C711 C710 1.394 . S
C711 C712 1.383 . S
C711 H719 0.929 . S
C712 C711 1.383 . S
C712 C713 1.377 . S
C713 H697 0.930 . S
C713 C712 1.377 . S
C713 C714 1.379 . S
C714 H698 0.931 . S
C714 C708 1.383 . S
C714 C713 1.379 . S
H715 C709 0.959 . S
H716 C709 0.961 . S
H717 C709 0.960 . S
H718 C710 0.930 . S
H719 C711 0.929 . S
H720 C728 0.929 . S
H721 C730 0.930 . S
H722 C732 0.930 . S
H723 C735 0.929 . S
H724 C738 0.930 1_556 S
H725 C740 0.960 . S
H726 C740 0.960 . S
H727 C740 0.960 . S
C728 H720 0.929 . S
C728 C729 1.377 . S
C728 C730 1.384 . S
C729 C728 1.377 . S
C729 C735 1.390 1_554 S
C730 H721 0.930 . S
C730 C728 1.384 . S
C730 C731 1.372 . S
C731 C730 1.372 . S
C731 C732 1.400 1_554 S
C731 C736 1.490 . S
C732 H722 0.930 . S
C732 C731 1.400 1_556 S
C732 C735 1.386 . S
H733 C749 0.930 . S
H734 C750 0.931 . S
C735 H723 0.929 . S
C735 C729 1.390 1_556 S
C735 C732 1.386 . S
C736 C731 1.490 . S
C736 C738 1.395 . S
C736 C739 1.403 . S
H737 C743 0.930 . S
C738 H724 0.930 1_554 S
C738 C736 1.395 . S
C738 C741 1.403 . S
C739 C736 1.403 . S
C739 C740 1.524 . S
C739 C743 1.400 . S
C740 H725 0.960 . S
C740 H726 0.960 . S
C740 H727 0.960 . S
C740 C739 1.524 . S
C741 C738 1.403 . S
C741 C742 1.392 . S
C741 C745 1.495 1_554 S
C742 C741 1.392 . S
C742 C743 1.385 . S
C742 C744 1.478 1_565 S
C743 H737 0.930 . S
C743 C739 1.400 . S
C743 C742 1.385 . S
C744 C742 1.478 1_545 S
C744 C746 1.381 . S
C744 C750 1.383 1_554 S
C745 C741 1.495 1_556 S
C745 H751 0.959 . S
C745 H752 0.961 . S
C745 H753 0.960 1_556 S
C746 C744 1.381 . S
C746 C747 1.394 . S
C746 H754 0.930 . S
C747 C746 1.394 . S
C747 C748 1.383 . S
C747 H755 0.929 . S
C748 C747 1.383 . S
C748 C749 1.377 1_554 S
C749 H733 0.930 . S
C749 C748 1.377 1_556 S
C749 C750 1.379 . S
C750 H734 0.931 . S
C750 C744 1.383 1_556 S
C750 C749 1.379 . S
H751 C745 0.959 . S
H752 C745 0.961 . S
H753 C745 0.960 1_554 S
H754 C746 0.930 . S
H755 C747 0.929 . S
H756 C764 0.929 . S
H757 C766 0.930 . S
H758 C768 0.930 . S
H759 C771 0.929 . S
H760 C774 0.930 . S
H761 C776 0.960 . S
H762 C776 0.960 . S
H763 C776 0.960 1_554 S
C764 H756 0.929 . S
C764 C765 1.377 1_556 S
C764 C766 1.384 1_655 S
C765 C764 1.377 1_554 S
C765 C771 1.390 . S
C766 H757 0.930 . S
C766 C764 1.384 1_455 S
C766 C767 1.372 1_556 S
C767 C766 1.372 1_554 S
C767 C768 1.400 . S
C767 C772 1.490 . S
C768 H758 0.930 . S
C768 C767 1.400 . S
C768 C771 1.386 1_455 S
H769 C785 0.930 . S
H770 C786 0.931 . S
C771 H759 0.929 . S
C771 C765 1.390 . S
C771 C768 1.386 1_655 S
C772 C767 1.490 . S
C772 C774 1.395 . S
C772 C775 1.403 . S
H773 C779 0.930 1_556 S
C774 H760 0.930 . S
C774 C772 1.395 . S
C774 C777 1.403 . S
C775 C772 1.403 . S
C775 C776 1.524 1_554 S
C775 C779 1.400 . S
C776 H761 0.960 . S
C776 H762 0.960 . S
C776 H763 0.960 1_556 S
C776 C775 1.524 1_556 S
C777 C774 1.403 . S
C777 C778 1.392 . S
C777 C781 1.495 . S
C778 C777 1.392 . S
C778 C779 1.385 . S
C778 C780 1.478 . S
C779 H773 0.930 1_554 S
C779 C775 1.400 . S
C779 C778 1.385 . S
C780 C778 1.478 . S
C780 C782 1.381 1_554 S
C780 C786 1.383 . S
C781 C777 1.495 . S
C781 H787 0.959 . S
C781 H788 0.961 . S
C781 H789 0.960 . S
C782 C780 1.381 1_556 S
C782 C783 1.394 . S
C782 H790 0.930 . S
C783 C782 1.394 . S
C783 C784 1.383 1_556 S
C783 H791 0.925 1_565 S
C784 C783 1.383 1_554 S
C784 C785 1.377 . S
C785 H769 0.930 . S
C785 C784 1.377 . S
C785 C786 1.379 . S
C786 H770 0.931 . S
C786 C780 1.383 . S
C786 C785 1.379 . S
H787 C781 0.959 . S
H788 C781 0.961 . S
H789 C781 0.960 . S
H790 C782 0.930 . S
H791 C783 0.925 1_545 S
H792 C800 0.929 . S
H793 C802 0.930 . S
H794 C804 0.930 . S
H795 C807 0.929 . S
H796 C810 0.930 . S
H797 C812 0.960 . S
H798 C812 0.960 . S
H799 C812 0.960 . S
C800 H792 0.929 . S
C800 C801 1.377 . S
C800 C802 1.384 . S
C801 C800 1.377 . S
C801 C807 1.390 . S
C802 H793 0.930 . S
C802 C800 1.384 . S
C802 C803 1.372 . S
C803 C802 1.372 . S
C803 C804 1.400 . S
C803 C808 1.490 . S
C804 H794 0.930 . S
C804 C803 1.400 . S
C804 C807 1.386 . S
H805 C821 0.930 . S
H806 C822 0.931 . S
C807 H795 0.929 . S
C807 C801 1.390 . S
C807 C804 1.386 . S
C808 C803 1.490 . S
C808 C810 1.395 . S
C808 C811 1.403 . S
H809 C815 0.930 . S
C810 H796 0.930 . S
C810 C808 1.395 . S
C810 C813 1.403 . S
C811 C808 1.403 . S
C811 C812 1.524 . S
C811 C815 1.400 . S
C812 H797 0.960 . S
C812 H798 0.960 . S
C812 H799 0.960 . S
C812 C811 1.524 . S
C813 C810 1.403 . S
C813 C814 1.392 . S
C813 C817 1.495 . S
C814 C813 1.392 . S
C814 C815 1.385 . S
C814 C816 1.478 . S
C815 H809 0.930 . S
C815 C811 1.400 . S
C815 C814 1.385 . S
C816 C814 1.478 . S
C816 C818 1.381 . S
C816 C822 1.383 . S
C817 C813 1.495 . S
C817 H823 0.959 . S
C817 H824 0.961 . S
C817 H825 0.960 . S
C818 C816 1.381 . S
C818 C819 1.394 . S
C818 H826 0.930 . S
C819 C818 1.394 . S
C819 C820 1.383 . S
C819 H827 0.929 . S
C820 C819 1.383 . S
C820 C821 1.377 . S
C821 H805 0.930 . S
C821 C820 1.377 . S
C821 C822 1.379 . S
C822 H806 0.931 . S
C822 C816 1.383 . S
C822 C821 1.379 . S
H823 C817 0.959 . S
H824 C817 0.961 . S
H825 C817 0.960 . S
H826 C818 0.930 . S
H827 C819 0.929 . S
H828 C836 0.929 . S
H829 C838 0.930 . S
H830 C840 0.930 . S
H831 C843 0.929 . S
H832 C846 0.930 . S
H833 C848 0.960 . S
H834 C848 0.960 . S
H835 C848 0.960 . S
C836 H828 0.929 . S
C836 C837 1.377 . S
C836 C838 1.384 . S
C837 C836 1.377 . S
C837 C843 1.390 . S
C838 H829 0.930 . S
C838 C836 1.384 . S
C838 C839 1.372 . S
C839 C838 1.372 . S
C839 C840 1.400 . S
C839 C844 1.490 . S
C840 H830 0.930 . S
C840 C839 1.400 . S
C840 C843 1.386 . S
H841 C857 0.930 . S
H842 C858 0.931 . S
C843 H831 0.929 . S
C843 C837 1.390 . S
C843 C840 1.386 . S
C844 C839 1.490 . S
C844 C846 1.395 . S
C844 C847 1.403 . S
H845 C851 0.930 . S
C846 H832 0.930 . S
C846 C844 1.395 . S
C846 C849 1.403 . S
C847 C844 1.403 . S
C847 C848 1.524 . S
C847 C851 1.400 . S
C848 H833 0.960 . S
C848 H834 0.960 . S
C848 H835 0.960 . S
C848 C847 1.524 . S
C849 C846 1.403 . S
C849 C850 1.392 . S
C849 C853 1.495 . S
C850 C849 1.392 . S
C850 C851 1.385 . S
C850 C852 1.478 . S
C851 H845 0.930 . S
C851 C847 1.400 . S
C851 C850 1.385 . S
C852 C850 1.478 . S
C852 C854 1.381 . S
C852 C858 1.383 . S
C853 C849 1.495 . S
C853 H859 0.959 . S
C853 H860 0.961 . S
C853 H861 0.960 . S
C854 C852 1.381 . S
C854 C855 1.394 . S
C854 H862 0.930 . S
C855 C854 1.394 . S
C855 C856 1.383 . S
C855 H863 0.929 . S
C856 C855 1.383 . S
C856 C857 1.377 . S
C857 H841 0.930 . S
C857 C856 1.377 . S
C857 C858 1.379 . S
C858 H842 0.931 . S
C858 C852 1.383 . S
C858 C857 1.379 . S
H859 C853 0.959 . S
H860 C853 0.961 . S
H861 C853 0.960 . S
H862 C854 0.930 . S
H863 C855 0.929 . S
H864 C872 0.929 . S
H865 C874 0.930 . S
H866 C876 0.930 . S
H867 C879 0.929 . S
H868 C882 0.930 . S
H869 C884 0.960 . S
H870 C884 0.960 . S
H871 C884 0.960 . S
C872 H864 0.929 . S
C872 C873 1.377 . S
C872 C874 1.384 . S
C873 C872 1.377 . S
C873 C879 1.390 . S
C874 H865 0.930 . S
C874 C872 1.384 . S
C874 C875 1.372 . S
C875 C874 1.372 . S
C875 C876 1.400 . S
C875 C880 1.490 . S
C876 H866 0.930 . S
C876 C875 1.400 . S
C876 C879 1.386 . S
H877 C893 0.930 . S
H878 C894 0.931 . S
C879 H867 0.929 . S
C879 C873 1.390 . S
C879 C876 1.386 . S
C880 C875 1.490 . S
C880 C882 1.395 . S
C880 C883 1.403 . S
H881 C887 0.930 . S
C882 H868 0.930 . S
C882 C880 1.395 . S
C882 C885 1.403 . S
C883 C880 1.403 . S
C883 C884 1.524 . S
C883 C887 1.400 . S
C884 H869 0.960 . S
C884 H870 0.960 . S
C884 H871 0.960 . S
C884 C883 1.524 . S
C885 C882 1.403 . S
C885 C886 1.392 . S
C885 C889 1.495 . S
C886 C885 1.392 . S
C886 C887 1.385 . S
C886 C888 1.478 . S
C887 H881 0.930 . S
C887 C883 1.400 . S
C887 C886 1.385 . S
C888 C886 1.478 . S
C888 C890 1.381 . S
C888 C894 1.383 . S
C889 C885 1.495 . S
C889 H895 0.959 . S
C889 H896 0.961 . S
C889 H897 0.960 . S
C890 C888 1.381 . S
C890 C891 1.394 . S
C890 H898 0.930 . S
C891 C890 1.394 . S
C891 C892 1.383 . S
C891 H899 0.929 . S
C892 C891 1.383 . S
C892 C893 1.377 . S
C893 H877 0.930 . S
C893 C892 1.377 . S
C893 C894 1.379 . S
C894 H878 0.931 . S
C894 C888 1.383 . S
C894 C893 1.379 . S
H895 C889 0.959 . S
H896 C889 0.961 . S
H897 C889 0.960 . S
H898 C890 0.930 . S
H899 C891 0.929 . S
H900 C908 0.929 . S
H901 C910 0.930 . S
H902 C912 0.930 . S
H903 C915 0.929 . S
H904 C918 0.930 . S
H905 C920 0.960 . S
H906 C920 0.960 . S
H907 C920 0.960 . S
C908 H900 0.929 . S
C908 C909 1.377 . S
C908 C910 1.384 . S
C909 C908 1.377 . S
C909 C915 1.390 . S
C910 H901 0.930 . S
C910 C908 1.384 . S
C910 C911 1.372 . S
C911 C910 1.372 . S
C911 C912 1.400 . S
C911 C916 1.490 . S
C912 H902 0.930 . S
C912 C911 1.400 . S
C912 C915 1.386 . S
H913 C929 0.930 . S
H914 C930 0.931 . S
C915 H903 0.929 . S
C915 C909 1.390 . S
C915 C912 1.386 . S
C916 C911 1.490 . S
C916 C918 1.395 . S
C916 C919 1.403 . S
H917 C923 0.930 . S
C918 H904 0.930 . S
C918 C916 1.395 . S
C918 C921 1.403 . S
C919 C916 1.403 . S
C919 C920 1.524 . S
C919 C923 1.400 . S
C920 H905 0.960 . S
C920 H906 0.960 . S
C920 H907 0.960 . S
C920 C919 1.524 . S
C921 C918 1.403 . S
C921 C922 1.392 . S
C921 C925 1.495 . S
C922 C921 1.392 . S
C922 C923 1.385 . S
C922 C924 1.478 . S
C923 H917 0.930 . S
C923 C919 1.400 . S
C923 C922 1.385 . S
C924 C922 1.478 . S
C924 C926 1.381 . S
C924 C930 1.383 . S
C925 C921 1.495 . S
C925 H931 0.959 . S
C925 H932 0.961 . S
C925 H933 0.960 . S
C926 C924 1.381 . S
C926 C927 1.394 . S
C926 H934 0.930 . S
C927 C926 1.394 . S
C927 C928 1.383 . S
C927 H935 0.929 . S
C928 C927 1.383 . S
C928 C929 1.377 . S
C929 H913 0.930 . S
C929 C928 1.377 . S
C929 C930 1.379 . S
C930 H914 0.931 . S
C930 C924 1.383 . S
C930 C929 1.379 . S
H931 C925 0.959 . S
H932 C925 0.961 . S
H933 C925 0.960 . S
H934 C926 0.930 . S
H935 C927 0.929 . S
H936 C944 0.929 . S
H937 C946 0.930 . S
H938 C948 0.930 . S
H939 C951 0.929 . S
H940 C954 0.930 . S
H941 C956 0.960 . S
H942 C956 0.960 . S
H943 C956 0.960 . S
C944 H936 0.929 . S
C944 C945 1.377 . S
C944 C946 1.384 . S
C945 C944 1.377 . S
C945 C951 1.390 . S
C946 H937 0.930 . S
C946 C944 1.384 . S
C946 C947 1.372 . S
C947 C946 1.372 . S
C947 C948 1.400 . S
C947 C952 1.490 . S
C948 H938 0.930 . S
C948 C947 1.400 . S
C948 C951 1.386 . S
H949 C965 0.930 . S
H950 C966 0.931 . S
C951 H939 0.929 . S
C951 C945 1.390 . S
C951 C948 1.386 . S
C952 C947 1.490 . S
C952 C954 1.395 . S
C952 C955 1.403 . S
H953 C959 0.930 . S
C954 H940 0.930 . S
C954 C952 1.395 . S
C954 C957 1.403 . S
C955 C952 1.403 . S
C955 C956 1.524 . S
C955 C959 1.400 . S
C956 H941 0.960 . S
C956 H942 0.960 . S
C956 H943 0.960 . S
C956 C955 1.524 . S
C957 C954 1.403 . S
C957 C958 1.392 . S
C957 C961 1.495 . S
C958 C957 1.392 . S
C958 C959 1.385 . S
C958 C960 1.478 . S
C959 H953 0.930 . S
C959 C955 1.400 . S
C959 C958 1.385 . S
C960 C958 1.478 . S
C960 C962 1.381 . S
C960 C966 1.383 . S
C961 C957 1.495 . S
C961 H967 0.959 . S
C961 H968 0.961 . S
C961 H969 0.960 . S
C962 C960 1.381 . S
C962 C963 1.394 . S
C962 H970 0.930 . S
C963 C962 1.394 . S
C963 C964 1.383 . S
C963 H971 0.929 . S
C964 C963 1.383 . S
C964 C965 1.377 . S
C965 H949 0.930 . S
C965 C964 1.377 . S
C965 C966 1.379 . S
C966 H950 0.931 . S
C966 C960 1.383 . S
C966 C965 1.379 . S
H967 C961 0.959 . S
H968 C961 0.961 . S
H969 C961 0.960 . S
H970 C962 0.930 . S
H971 C963 0.929 . S
H972 C980 0.929 . S
H973 C982 0.930 . S
H974 C984 0.930 . S
H975 C987 0.929 . S
H976 C990 0.930 . S
H977 C992 0.960 . S
H978 C992 0.960 . S
H979 C992 0.960 . S
C980 H972 0.929 . S
C980 C981 1.377 . S
C980 C982 1.384 . S
C981 C980 1.377 . S
C981 C987 1.390 . S
C982 H973 0.930 . S
C982 C980 1.384 . S
C982 C983 1.372 . S
C983 C982 1.372 . S
C983 C984 1.400 . S
C983 C988 1.490 . S
C984 H974 0.930 . S
C984 C983 1.400 . S
C984 C987 1.386 . S
H985 C1001 0.930 . S
H986 C1002 0.931 . S
C987 H975 0.929 . S
C987 C981 1.390 . S
C987 C984 1.386 . S
C988 C983 1.490 . S
C988 C990 1.395 . S
C988 C991 1.403 . S
H989 C995 0.930 . S
C990 H976 0.930 . S
C990 C988 1.395 . S
C990 C993 1.403 . S
C991 C988 1.403 . S
C991 C992 1.524 . S
C991 C995 1.400 . S
C992 H977 0.960 . S
C992 H978 0.960 . S
C992 H979 0.960 . S
C992 C991 1.524 . S
C993 C990 1.403 . S
C993 C994 1.392 . S
C993 C997 1.495 . S
C994 C993 1.392 . S
C994 C995 1.385 . S
C994 C996 1.478 . S
C995 H989 0.930 . S
C995 C991 1.400 . S
C995 C994 1.385 . S
C996 C994 1.478 . S
C996 C998 1.381 . S
C996 C1002 1.383 . S
C997 C993 1.495 . S
C997 H1003 0.959 . S
C997 H1004 0.961 . S
C997 H1005 0.960 . S
C998 C996 1.381 . S
C998 C999 1.394 . S
C998 H1006 0.930 . S
C999 C998 1.394 . S
C999 C1000 1.383 . S
C999 H1007 0.929 . S
C1000 C999 1.383 . S
C1000 C1001 1.377 . S
C1001 H985 0.930 . S
C1001 C1000 1.377 . S
C1001 C1002 1.379 . S
C1002 H986 0.931 . S
C1002 C996 1.383 . S
C1002 C1001 1.379 . S
H1003 C997 0.959 . S
H1004 C997 0.961 . S
H1005 C997 0.960 . S
H1006 C998 0.930 . S
H1007 C999 0.929 . S
H1008 C1016 0.929 . S
H1009 C1018 0.930 . S
H1010 C1020 0.930 . S
H1011 C1023 0.929 . S
H1012 C1026 0.930 . S
H1013 C1028 0.960 . S
H1014 C1028 0.960 . S
H1015 C1028 0.960 . S
C1016 H1008 0.929 . S
C1016 C1017 1.377 1_655 S
C1016 C1018 1.384 . S
C1017 C1016 1.377 1_455 S
C1017 C1023 1.390 . S
C1018 H1009 0.930 . S
C1018 C1016 1.384 . S
C1018 C1019 1.372 1_655 S
C1019 C1018 1.372 1_455 S
C1019 C1020 1.400 . S
C1019 C1024 1.490 . S
C1020 H1010 0.930 . S
C1020 C1019 1.400 . S
C1020 C1023 1.386 . S
H1021 C1037 0.930 . S
H1022 C1038 0.931 . S
C1023 H1011 0.929 . S
C1023 C1017 1.390 . S
C1023 C1020 1.386 . S
C1024 C1019 1.490 . S
C1024 C1026 1.395 . S
C1024 C1027 1.403 . S
H1025 C1031 0.930 . S
C1026 H1012 0.930 . S
C1026 C1024 1.395 . S
C1026 C1029 1.403 . S
C1027 C1024 1.403 . S
C1027 C1028 1.524 . S
C1027 C1031 1.400 . S
C1028 H1013 0.960 . S
C1028 H1014 0.960 . S
C1028 H1015 0.960 . S
C1028 C1027 1.524 . S
C1029 C1026 1.403 . S
C1029 C1030 1.392 . S
C1029 C1033 1.495 . S
C1030 C1029 1.392 . S
C1030 C1031 1.385 . S
C1030 C1032 1.478 . S
C1031 H1025 0.930 . S
C1031 C1027 1.400 . S
C1031 C1030 1.385 . S
C1032 C1030 1.478 . S
C1032 C1034 1.332 1_455 S
C1032 C1038 1.383 . S
C1033 C1029 1.495 . S
C1033 H1039 0.959 . S
C1033 H1040 0.961 . S
C1033 H1041 0.952 1_455 S
C1034 C1032 1.332 1_655 S
C1034 C1035 1.391 . S
C1034 H1042 0.986 . S
C1035 C1034 1.391 . S
C1035 C1036 1.380 1_655 S
C1035 H1043 0.932 . S
C1036 C1035 1.380 1_455 S
C1036 C1037 1.377 . S
C1037 H1021 0.930 . S
C1037 C1036 1.377 . S
C1037 C1038 1.379 . S
C1038 H1022 0.931 . S
C1038 C1032 1.383 . S
C1038 C1037 1.379 . S
H1039 C1033 0.959 . S
H1040 C1033 0.961 . S
H1041 C1033 0.952 1_655 S
H1042 C1034 0.986 . S
H1043 C1035 0.932 . S
H1044 C1052 0.929 . S
H1045 C1054 0.930 . S
H1046 C1056 0.930 . S
H1047 C1059 0.929 . S
H1048 C1062 0.930 . S
H1049 C1064 0.960 . S
H1050 C1064 0.960 . S
H1051 C1064 0.960 . S
C1052 H1044 0.929 . S
C1052 C1053 1.377 . S
C1052 C1054 1.384 . S
C1053 C1052 1.377 . S
C1053 C1059 1.390 . S
C1054 H1045 0.930 . S
C1054 C1052 1.384 . S
C1054 C1055 1.372 . S
C1055 C1054 1.372 . S
C1055 C1056 1.400 . S
C1055 C1060 1.490 . S
C1056 H1046 0.930 . S
C1056 C1055 1.400 . S
C1056 C1059 1.386 . S
H1057 C1073 0.930 . S
H1058 C1074 0.931 . S
C1059 H1047 0.929 . S
C1059 C1053 1.390 . S
C1059 C1056 1.386 . S
C1060 C1055 1.490 . S
C1060 C1062 1.395 . S
C1060 C1063 1.403 . S
H1061 C1067 0.930 . S
C1062 H1048 0.930 . S
C1062 C1060 1.395 . S
C1062 C1065 1.403 . S
C1063 C1060 1.403 . S
C1063 C1064 1.524 . S
C1063 C1067 1.400 . S
C1064 H1049 0.960 . S
C1064 H1050 0.960 . S
C1064 H1051 0.960 . S
C1064 C1063 1.524 . S
C1065 C1062 1.403 . S
C1065 C1066 1.392 . S
C1065 C1069 1.495 . S
C1066 C1065 1.392 . S
C1066 C1067 1.385 . S
C1066 C1068 1.478 . S
C1067 H1061 0.930 . S
C1067 C1063 1.400 . S
C1067 C1066 1.385 . S
C1068 C1066 1.478 . S
C1068 C1070 1.381 . S
C1068 C1074 1.383 . S
C1069 C1065 1.495 . S
C1069 H1075 0.959 . S
C1069 H1076 0.961 . S
C1069 H1077 0.960 . S
C1070 C1068 1.381 . S
C1070 C1071 1.394 . S
C1070 H1078 0.930 . S
C1071 C1070 1.394 . S
C1071 C1072 1.383 . S
C1071 H1079 0.929 . S
C1072 C1071 1.383 . S
C1072 C1073 1.377 . S
C1073 H1057 0.930 . S
C1073 C1072 1.377 . S
C1073 C1074 1.379 . S
C1074 H1058 0.931 . S
C1074 C1068 1.383 . S
C1074 C1073 1.379 . S
H1075 C1069 0.959 . S
H1076 C1069 0.961 . S
H1077 C1069 0.960 . S
H1078 C1070 0.930 . S
H1079 C1071 0.929 . S
H1080 C1088 0.929 . S
H1081 C1090 0.930 . S
H1082 C1092 0.930 . S
H1083 C1095 0.929 . S
H1084 C1098 0.930 . S
H1085 C1100 0.960 . S
H1086 C1100 0.960 . S
H1087 C1100 0.960 . S
C1088 H1080 0.929 . S
C1088 C1089 1.377 . S
C1088 C1090 1.384 . S
C1089 C1088 1.377 . S
C1089 C1095 1.390 . S
C1090 H1081 0.930 . S
C1090 C1088 1.384 . S
C1090 C1091 1.372 . S
C1091 C1090 1.372 . S
C1091 C1092 1.400 . S
C1091 C1096 1.490 . S
C1092 H1082 0.930 . S
C1092 C1091 1.400 . S
C1092 C1095 1.386 . S
H1093 C1109 0.930 . S
H1094 C1110 0.931 . S
C1095 H1083 0.929 . S
C1095 C1089 1.390 . S
C1095 C1092 1.386 . S
C1096 C1091 1.490 . S
C1096 C1098 1.395 . S
C1096 C1099 1.351 1_545 S
H1097 C1103 0.907 1_565 S
C1098 H1084 0.930 . S
C1098 C1096 1.395 . S
C1098 C1101 1.403 . S
C1099 C1096 1.351 1_565 S
C1099 C1100 1.580 . S
C1099 C1103 1.396 1_565 S
C1100 H1085 0.960 . S
C1100 H1086 0.960 . S
C1100 H1087 0.960 . S
C1100 C1099 1.580 . S
C1101 C1098 1.403 . S
C1101 C1102 1.392 . S
C1101 C1105 1.495 . S
C1102 C1101 1.392 . S
C1102 C1103 1.410 . S
C1102 C1104 1.478 . S
C1103 H1097 0.907 1_545 S
C1103 C1099 1.396 1_545 S
C1103 C1102 1.410 . S
C1104 C1102 1.478 . S
C1104 C1106 1.381 . S
C1104 C1110 1.383 . S
C1105 C1101 1.495 . S
C1105 H1111 0.959 . S
C1105 H1112 0.961 . S
C1105 H1113 0.960 . S
C1106 C1104 1.381 . S
C1106 C1107 1.394 . S
C1106 H1114 0.930 . S
C1107 C1106 1.394 . S
C1107 C1108 1.383 . S
C1107 H1115 0.929 . S
C1108 C1107 1.383 . S
C1108 C1109 1.377 . S
C1109 H1093 0.930 . S
C1109 C1108 1.377 . S
C1109 C1110 1.379 . S
C1110 H1094 0.931 . S
C1110 C1104 1.383 . S
C1110 C1109 1.379 . S
H1111 C1105 0.959 . S
H1112 C1105 0.961 . S
H1113 C1105 0.960 . S
H1114 C1106 0.930 . S
H1115 C1107 0.929 . S
H1116 C1124 0.929 . S
H1117 C1126 0.930 . S
H1118 C1128 0.930 . S
H1119 C1131 0.929 . S
H1120 C1134 0.930 . S
H1121 C1136 0.960 . S
H1122 C1136 0.960 . S
H1123 C1136 0.960 . S
C1124 H1116 0.929 . S
C1124 C1125 1.377 . S
C1124 C1126 1.384 . S
C1125 C1124 1.377 . S
C1125 C1131 1.390 . S
C1126 H1117 0.930 . S
C1126 C1124 1.384 . S
C1126 C1127 1.372 . S
C1127 C1126 1.372 . S
C1127 C1128 1.400 . S
C1127 C1132 1.490 . S
C1128 H1118 0.930 . S
C1128 C1127 1.400 . S
C1128 C1131 1.386 . S
H1129 C1145 0.930 . S
H1130 C1146 0.931 . S
C1131 H1119 0.929 . S
C1131 C1125 1.390 . S
C1131 C1128 1.386 . S
C1132 C1127 1.490 . S
C1132 C1134 1.395 . S
C1132 C1135 1.403 . S
H1133 C1139 0.930 . S
C1134 H1120 0.930 . S
C1134 C1132 1.395 . S
C1134 C1137 1.403 . S
C1135 C1132 1.403 . S
C1135 C1136 1.524 . S
C1135 C1139 1.400 . S
C1136 H1121 0.960 . S
C1136 H1122 0.960 . S
C1136 H1123 0.960 . S
C1136 C1135 1.524 . S
C1137 C1134 1.403 . S
C1137 C1138 1.392 . S
C1137 C1141 1.495 . S
C1138 C1137 1.392 . S
C1138 C1139 1.385 . S
C1138 C1140 1.474 1_556 S
C1139 H1133 0.930 . S
C1139 C1135 1.400 . S
C1139 C1138 1.385 . S
C1140 C1138 1.474 1_554 S
C1140 C1142 1.383 . S
C1140 C1146 1.384 . S
C1141 C1137 1.495 . S
C1141 H1147 0.959 . S
C1141 H1148 0.961 . S
C1141 H1149 0.960 . S
C1142 C1140 1.383 . S
C1142 C1143 1.394 . S
C1142 H1150 0.930 . S
C1143 C1142 1.394 . S
C1143 C1144 1.383 . S
C1143 H1151 0.929 . S
C1144 C1143 1.383 . S
C1144 C1145 1.377 . S
C1145 H1129 0.930 . S
C1145 C1144 1.377 . S
C1145 C1146 1.379 . S
C1146 H1130 0.931 . S
C1146 C1140 1.384 . S
C1146 C1145 1.379 . S
H1147 C1141 0.959 . S
H1148 C1141 0.961 . S
H1149 C1141 0.960 . S
H1150 C1142 0.930 . S
H1151 C1143 0.929 . S
H1152 C1160 0.929 . S
H1153 C1162 0.930 . S
H1154 C1164 0.930 . S
H1155 C1167 0.929 . S
H1156 C1170 0.930 . S
H1157 C1172 0.960 . S
H1158 C1172 0.960 . S
H1159 C1172 0.960 . S
C1160 H1152 0.929 . S
C1160 C1161 1.377 . S
C1160 C1162 1.384 . S
C1161 C1160 1.377 . S
C1161 C1167 1.390 . S
C1162 H1153 0.930 . S
C1162 C1160 1.384 . S
C1162 C1163 1.372 . S
C1163 C1162 1.372 . S
C1163 C1164 1.400 . S
C1163 C1168 1.490 . S
C1164 H1154 0.930 . S
C1164 C1163 1.400 . S
C1164 C1167 1.386 . S
H1165 C1181 0.930 . S
H1166 C1182 0.931 . S
C1167 H1155 0.929 . S
C1167 C1161 1.390 . S
C1167 C1164 1.386 . S
C1168 C1163 1.490 . S
C1168 C1170 1.395 . S
C1168 C1171 1.403 . S
H1169 C1175 0.930 . S
C1170 H1156 0.930 . S
C1170 C1168 1.395 . S
C1170 C1173 1.403 . S
C1171 C1168 1.403 . S
C1171 C1172 1.524 . S
C1171 C1175 1.400 . S
C1172 H1157 0.960 . S
C1172 H1158 0.960 . S
C1172 H1159 0.960 . S
C1172 C1171 1.524 . S
C1173 C1170 1.403 . S
C1173 C1174 1.392 . S
C1173 C1177 1.495 . S
C1174 C1173 1.392 . S
C1174 C1175 1.385 . S
C1174 C1176 1.476 1_556 S
C1175 H1169 0.930 . S
C1175 C1171 1.400 . S
C1175 C1174 1.385 . S
C1176 C1174 1.476 1_554 S
C1176 C1178 1.382 . S
C1176 C1182 1.384 . S
C1177 C1173 1.495 . S
C1177 H1183 0.959 . S
C1177 H1184 0.961 . S
C1177 H1185 0.960 . S
C1178 C1176 1.382 . S
C1178 C1179 1.394 . S
C1178 H1186 0.930 . S
C1179 C1178 1.394 . S
C1179 C1180 1.383 . S
C1179 H1187 0.929 . S
C1180 C1179 1.383 . S
C1180 C1181 1.377 . S
C1181 H1165 0.930 . S
C1181 C1180 1.377 . S
C1181 C1182 1.379 . S
C1182 H1166 0.931 . S
C1182 C1176 1.384 . S
C1182 C1181 1.379 . S
H1183 C1177 0.959 . S
H1184 C1177 0.961 . S
H1185 C1177 0.960 . S
H1186 C1178 0.930 . S
H1187 C1179 0.929 . S
H1188 C1196 0.929 . S
H1189 C1198 0.930 . S
H1190 C1200 0.930 . S
H1191 C1203 0.929 . S
H1192 C1206 0.930 . S
H1193 C1208 0.960 . S
H1194 C1208 0.960 . S
H1195 C1208 0.960 . S
C1196 H1188 0.929 . S
C1196 C1197 1.377 . S
C1196 C1198 1.384 . S
C1197 C1196 1.377 . S
C1197 C1203 1.390 . S
C1198 H1189 0.930 . S
C1198 C1196 1.384 . S
C1198 C1199 1.372 . S
C1199 C1198 1.372 . S
C1199 C1200 1.400 . S
C1199 C1204 1.490 . S
C1200 H1190 0.930 . S
C1200 C1199 1.400 . S
C1200 C1203 1.386 . S
H1201 C1217 0.930 . S
H1202 C1218 0.931 . S
C1203 H1191 0.929 . S
C1203 C1197 1.390 . S
C1203 C1200 1.386 . S
C1204 C1199 1.490 . S
C1204 C1206 1.395 . S
C1204 C1207 1.403 . S
H1205 C1211 0.930 . S
C1206 H1192 0.930 . S
C1206 C1204 1.395 . S
C1206 C1209 1.403 . S
C1207 C1204 1.403 . S
C1207 C1208 1.524 . S
C1207 C1211 1.400 . S
C1208 H1193 0.960 . S
C1208 H1194 0.960 . S
C1208 H1195 0.960 . S
C1208 C1207 1.524 . S
C1209 C1206 1.403 . S
C1209 C1210 1.392 . S
C1209 C1213 1.495 . S
C1210 C1209 1.392 . S
C1210 C1211 1.385 . S
C1210 C1212 1.462 1_556 S
C1211 H1205 0.930 . S
C1211 C1207 1.400 . S
C1211 C1210 1.385 . S
C1212 C1210 1.462 1_554 S
C1212 C1214 1.389 . S
C1212 C1218 1.391 . S
C1213 C1209 1.495 . S
C1213 H1219 0.959 . S
C1213 H1220 0.961 . S
C1213 H1221 0.960 . S
C1214 C1212 1.389 . S
C1214 C1215 1.394 . S
C1214 H1222 0.930 . S
C1215 C1214 1.394 . S
C1215 C1216 1.383 . S
C1215 H1223 0.929 . S
C1216 C1215 1.383 . S
C1216 C1217 1.377 . S
C1217 H1201 0.930 . S
C1217 C1216 1.377 . S
C1217 C1218 1.379 . S
C1218 H1202 0.931 . S
C1218 C1212 1.391 . S
C1218 C1217 1.379 . S
H1219 C1213 0.959 . S
H1220 C1213 0.961 . S
H1221 C1213 0.960 . S
H1222 C1214 0.930 . S
H1223 C1215 0.929 . S
H1224 C1232 0.929 . S
H1225 C1234 0.930 . S
H1226 C1236 0.930 . S
H1227 C1239 0.929 . S
H1228 C1242 0.930 . S
H1229 C1244 0.960 . S
H1230 C1244 0.960 . S
H1231 C1244 0.960 . S
C1232 H1224 0.929 . S
C1232 C1233 1.377 . S
C1232 C1234 1.384 . S
C1233 C1232 1.377 . S
C1233 C1239 1.390 . S
C1234 H1225 0.930 . S
C1234 C1232 1.384 . S
C1234 C1235 1.372 . S
C1235 C1234 1.372 . S
C1235 C1236 1.400 . S
C1235 C1240 1.490 . S
C1236 H1226 0.930 . S
C1236 C1235 1.400 . S
C1236 C1239 1.386 . S
H1237 C1253 0.930 . S
H1238 C1254 0.931 1_554 S
C1239 H1227 0.929 . S
C1239 C1233 1.390 . S
C1239 C1236 1.386 . S
C1240 C1235 1.490 . S
C1240 C1242 1.395 . S
C1240 C1243 1.403 . S
H1241 C1247 0.930 . S
C1242 H1228 0.930 . S
C1242 C1240 1.395 . S
C1242 C1245 1.403 . S
C1243 C1240 1.403 . S
C1243 C1244 1.524 . S
C1243 C1247 1.400 . S
C1244 H1229 0.960 . S
C1244 H1230 0.960 . S
C1244 H1231 0.960 . S
C1244 C1243 1.524 . S
C1245 C1242 1.403 . S
C1245 C1246 1.392 . S
C1245 C1249 1.495 . S
C1246 C1245 1.392 . S
C1246 C1247 1.385 . S
C1246 C1248 1.478 . S
C1247 H1241 0.930 . S
C1247 C1243 1.400 . S
C1247 C1246 1.385 . S
C1248 C1246 1.478 . S
C1248 C1250 1.381 1_554 S
C1248 C1254 1.383 1_554 S
C1249 C1245 1.495 . S
C1249 H1255 0.959 . S
C1249 H1256 0.961 . S
C1249 H1257 0.960 . S
C1250 C1248 1.381 1_556 S
C1250 C1251 1.394 . S
C1250 H1258 0.930 . S
C1251 C1250 1.394 . S
C1251 C1252 1.383 . S
C1251 H1259 0.929 . S
C1252 C1251 1.383 . S
C1252 C1253 1.377 . S
C1253 H1237 0.930 . S
C1253 C1252 1.377 . S
C1253 C1254 1.379 . S
C1254 H1238 0.931 1_556 S
C1254 C1248 1.383 1_556 S
C1254 C1253 1.379 . S
H1255 C1249 0.959 . S
H1256 C1249 0.961 . S
H1257 C1249 0.960 . S
H1258 C1250 0.930 . S
H1259 C1251 0.929 . S
H1260 C1268 0.929 . S
H1261 C1270 0.930 . S
H1262 C1272 0.930 1_554 S
H1263 C1275 0.929 . S
H1264 C1278 0.930 . S
H1265 C1280 0.960 . S
H1266 C1280 0.960 . S
H1267 C1280 0.960 . S
C1268 H1260 0.929 . S
C1268 C1269 1.377 . S
C1268 C1270 1.384 . S
C1269 C1268 1.377 . S
C1269 C1275 1.390 . S
C1270 H1261 0.930 . S
C1270 C1268 1.384 . S
C1270 C1271 1.372 1_556 S
C1271 C1270 1.372 1_554 S
C1271 C1272 1.400 1_554 S
C1271 C1276 1.490 . S
C1272 H1262 0.930 1_556 S
C1272 C1271 1.400 1_556 S
C1272 C1275 1.386 . S
H1273 C1289 0.930 . S
H1274 C1290 0.931 . S
C1275 H1263 0.929 . S
C1275 C1269 1.390 . S
C1275 C1272 1.386 . S
C1276 C1271 1.490 . S
C1276 C1278 1.395 . S
C1276 C1279 1.403 . S
H1277 C1283 0.930 . S
C1278 H1264 0.930 . S
C1278 C1276 1.395 . S
C1278 C1281 1.403 . S
C1279 C1276 1.403 . S
C1279 C1280 1.524 . S
C1279 C1283 1.400 . S
C1280 H1265 0.960 . S
C1280 H1266 0.960 . S
C1280 H1267 0.960 . S
C1280 C1279 1.524 . S
C1281 C1278 1.403 . S
C1281 C1282 1.392 . S
C1281 C1285 1.495 . S
C1282 C1281 1.392 . S
C1282 C1283 1.385 . S
C1282 C1284 1.478 . S
C1283 H1277 0.930 . S
C1283 C1279 1.400 . S
C1283 C1282 1.385 . S
C1284 C1282 1.478 . S
C1284 C1286 1.381 . S
C1284 C1290 1.383 . S
C1285 C1281 1.495 . S
C1285 H1291 0.959 . S
C1285 H1292 0.961 . S
C1285 H1293 0.960 . S
C1286 C1284 1.381 . S
C1286 C1287 1.394 . S
C1286 H1294 0.930 . S
C1287 C1286 1.394 . S
C1287 C1288 1.383 . S
C1287 H1295 0.929 . S
C1288 C1287 1.383 . S
C1288 C1289 1.377 . S
C1289 H1273 0.930 . S
C1289 C1288 1.377 . S
C1289 C1290 1.379 . S
C1290 H1274 0.931 . S
C1290 C1284 1.383 . S
C1290 C1289 1.379 . S
H1291 C1285 0.959 . S
H1292 C1285 0.961 . S
H1293 C1285 0.960 . S
H1294 C1286 0.930 . S
H1295 C1287 0.929 . S
H1296 C1304 0.929 . S
H1297 C1306 0.930 . S
H1298 C1308 0.930 . S
H1299 C1311 0.929 . S
H1300 C1314 0.930 . S
H1301 C1316 0.960 . S
H1302 C1316 0.960 . S
H1303 C1316 0.960 . S
C1304 H1296 0.929 . S
C1304 C1305 1.377 . S
C1304 C1306 1.384 . S
C1305 C1304 1.377 . S
C1305 C1311 1.390 . S
C1306 H1297 0.930 . S
C1306 C1304 1.384 . S
C1306 C1307 1.372 . S
C1307 C1306 1.372 . S
C1307 C1308 1.400 . S
C1307 C1312 1.490 . S
C1308 H1298 0.930 . S
C1308 C1307 1.400 . S
C1308 C1311 1.386 . S
H1309 C1325 0.930 . S
H1310 C1326 0.931 . S
C1311 H1299 0.929 . S
C1311 C1305 1.390 . S
C1311 C1308 1.386 . S
C1312 C1307 1.490 . S
C1312 C1314 1.395 . S
C1312 C1315 1.403 . S
H1313 C1319 0.930 . S
C1314 H1300 0.930 . S
C1314 C1312 1.395 . S
C1314 C1317 1.403 . S
C1315 C1312 1.403 . S
C1315 C1316 1.524 . S
C1315 C1319 1.400 . S
C1316 H1301 0.960 . S
C1316 H1302 0.960 . S
C1316 H1303 0.960 . S
C1316 C1315 1.524 . S
C1317 C1314 1.403 . S
C1317 C1318 1.392 . S
C1317 C1321 1.495 . S
C1318 C1317 1.392 . S
C1318 C1319 1.385 . S
C1318 C1320 1.478 . S
C1319 H1313 0.930 . S
C1319 C1315 1.400 . S
C1319 C1318 1.385 . S
C1320 C1318 1.478 . S
C1320 C1322 1.381 1_554 S
C1320 C1326 1.383 1_554 S
C1321 C1317 1.495 . S
C1321 H1327 0.959 . S
C1321 H1328 0.961 . S
C1321 H1329 0.960 . S
C1322 C1320 1.381 1_556 S
C1322 C1323 1.394 . S
C1322 H1330 0.930 1_556 S
C1323 C1322 1.394 . S
C1323 C1324 1.383 . S
C1323 H1331 0.929 . S
C1324 C1323 1.383 . S
C1324 C1325 1.377 . S
C1325 H1309 0.930 . S
C1325 C1324 1.377 . S
C1325 C1326 1.379 . S
C1326 H1310 0.931 . S
C1326 C1320 1.383 1_556 S
C1326 C1325 1.379 . S
H1327 C1321 0.959 . S
H1328 C1321 0.961 . S
H1329 C1321 0.960 . S
H1330 C1322 0.930 1_554 S
H1331 C1323 0.929 . S
C369 C7 1.996 . S
C388 C282 1.952 . S
C405 C47 1.999 . S
C424 C322 1.915 . S
C441 C87 1.999 . S
C460 C242 1.931 . S
C477 C167 2.000 . S
C496 C82 1.921 . S
C513 C207 1.995 . S
C532 C2 1.934 . S
C549 C42 1.944 . S
C568 C127 1.996 . S
C585 C287 1.995 . S
C604 C202 1.936 . S
C621 C327 1.999 . S
C640 C122 1.944 . S
C657 C162 1.943 . S
C676 C247 1.986 . S
C693 C96 1.736 . S
C712 C11 1.742 1_554 S
C729 C51 1.740 1_554 S
C748 C16 1.736 . S
C765 C56 1.735 . S
C784 C91 1.742 1_554 S
C801 C131 1.740 . S
C820 C216 1.730 . S
C837 C136 1.739 . S
C856 C171 1.731 . S
C873 C176 1.737 . S
C892 C211 1.741 . S
C909 C336 1.738 . S
C928 C251 1.728 . S
C945 C291 1.739 . S
C964 C256 1.741 . S
C981 C331 1.740 . S
C1000 C296 1.725 . S
C1017 C19 0.821 . S
C1036 C10 0.800 . S
C1053 C59 0.823 . S
C1072 C50 0.791 . S
C1089 C99 0.828 . S
C1108 C90 0.860 . S
C1125 C130 0.822 . S
C1144 C139 0.792 . S
C1161 C170 0.822 . S
C1180 C179 0.794 . S
C1197 C210 0.830 . S
C1216 C219 0.797 . S
C1233 C259 0.828 . S
C1252 C250 0.792 . S
C1269 C290 0.823 . S
C1288 C299 0.839 . S
C1305 C339 0.836 . S
C1324 C330 0.860 . S
