# Generated by pormake.
# Topology smc, (6)-cn, num edge types: 1
# Building blocks:
#     Node 0, Type 0, BuildingBlock: KUMJIN_clean_sbu_1, # of connection points: 6
#     Node 1, Type 0, BuildingBlock: KUMJIN_clean_sbu_1, # of connection points: 6
#     Node 2, Type 0, BuildingBlock: KUMJIN_clean_sbu_1, # of connection points: 6
#     Node 3, Type 0, BuildingBlock: KUMJIN_clean_sbu_1, # of connection points: 6
#     Node 4, Type 0, BuildingBlock: KUMJIN_clean_sbu_1, # of connection points: 6
#     Node 5, Type 0, BuildingBlock: KUMJIN_clean_sbu_1, # of connection points: 6
#     Node 6, Type 0, BuildingBlock: KUMJIN_clean_sbu_1, # of connection points: 6
#     Node 7, Type 0, BuildingBlock: KUMJIN_clean_sbu_1, # of connection points: 6
#     Node 8, Type 0, BuildingBlock: KUMJIN_clean_sbu_1, # of connection points: 6
#     Edge 9, Type (0, 0), BuildingBlock: ZUJKAS_clean_linker_0, # of connection points: 2
#     Edge 10, Type (0, 0), BuildingBlock: ZUJKAS_clean_linker_0, # of connection points: 2
#     Edge 11, Type (0, 0), BuildingBlock: ZUJKAS_clean_linker_0, # of connection points: 2
#     Edge 12, Type (0, 0), BuildingBlock: ZUJKAS_clean_linker_0, # of connection points: 2
#     Edge 13, Type (0, 0), BuildingBlock: ZUJKAS_clean_linker_0, # of connection points: 2
#     Edge 14, Type (0, 0), BuildingBlock: ZUJKAS_clean_linker_0, # of connection points: 2
#     Edge 15, Type (0, 0), BuildingBlock: ZUJKAS_clean_linker_0, # of connection points: 2
#     Edge 16, Type (0, 0), BuildingBlock: ZUJKAS_clean_linker_0, # of connection points: 2
#     Edge 17, Type (0, 0), BuildingBlock: ZUJKAS_clean_linker_0, # of connection points: 2
#     Edge 18, Type (0, 0), BuildingBlock: ZUJKAS_clean_linker_0, # of connection points: 2
#     Edge 19, Type (0, 0), BuildingBlock: ZUJKAS_clean_linker_0, # of connection points: 2
#     Edge 20, Type (0, 0), BuildingBlock: ZUJKAS_clean_linker_0, # of connection points: 2
#     Edge 21, Type (0, 0), BuildingBlock: ZUJKAS_clean_linker_0, # of connection points: 2
#     Edge 22, Type (0, 0), BuildingBlock: ZUJKAS_clean_linker_0, # of connection points: 2
#     Edge 23, Type (0, 0), BuildingBlock: ZUJKAS_clean_linker_0, # of connection points: 2
#     Edge 24, Type (0, 0), BuildingBlock: ZUJKAS_clean_linker_0, # of connection points: 2
#     Edge 25, Type (0, 0), BuildingBlock: ZUJKAS_clean_linker_0, # of connection points: 2
#     Edge 26, Type (0, 0), BuildingBlock: ZUJKAS_clean_linker_0, # of connection points: 2
#     Edge 27, Type (0, 0), BuildingBlock: ZUJKAS_clean_linker_0, # of connection points: 2
#     Edge 28, Type (0, 0), BuildingBlock: ZUJKAS_clean_linker_0, # of connection points: 2
#     Edge 29, Type (0, 0), BuildingBlock: ZUJKAS_clean_linker_0, # of connection points: 2
#     Edge 30, Type (0, 0), BuildingBlock: ZUJKAS_clean_linker_0, # of connection points: 2
#     Edge 31, Type (0, 0), BuildingBlock: ZUJKAS_clean_linker_0, # of connection points: 2
#     Edge 32, Type (0, 0), BuildingBlock: ZUJKAS_clean_linker_0, # of connection points: 2
#     Edge 33, Type (0, 0), BuildingBlock: ZUJKAS_clean_linker_0, # of connection points: 2
#     Edge 34, Type (0, 0), BuildingBlock: ZUJKAS_clean_linker_0, # of connection points: 2
#     Edge 35, Type (0, 0), BuildingBlock: ZUJKAS_clean_linker_0, # of connection points: 2
# Relax obj value: 0.162
# Max RMSD: 0.302
# Mean RMSD: 0.302
data_MOF--net-smc--node1-KUMJIN_clean_sbu_1--edge1-ZUJKAS_clean_linker_0
_symmetry_space_group_name_H-M    P1
_symmetry_Int_Tables_number       1
_symmetry_cell_setting            triclinic
loop_
_symmetry_equiv_pos_as_xyz
'x, y, z'
_cell_length_a     47.330162
_cell_length_b     47.340774
_cell_length_c     51.632706
_cell_angle_alpha  90.015367
_cell_angle_beta   90.016849
_cell_angle_gamma 119.89848
loop_
_atom_site_label
_atom_site_type_symbol
_atom_site_fract_x
_atom_site_fract_y
_atom_site_fract_z
_atom_type_partial_charge
Eu0 Eu 0.03528 0.43826 1.01225 0.0
C1 C 0.01226 0.5505 0.05257 0.0
N2 N 1.00199 0.52114 0.06404 0.0
C3 C 0.0153 0.54635 0.1059 0.0
C4 C 0.02462 0.57918 0.06756 0.0
C5 C 0.00332 0.51861 0.09028 0.0
C6 C 0.02596 0.57677 0.09451 0.0
C7 C 0.0215 0.58215 1.01336 0.0
C8 C 0.01094 0.55192 0.02571 0.0
C9 C 0.03368 0.61073 0.02824 0.0
C10 C 0.03526 0.60925 0.05525 0.0
Eu11 Eu 0.97985 0.47537 0.03651 0.0
N12 N 0.99947 0.52384 1.01171 0.0
C13 C 0.01925 0.58278 0.98639 0.0
C14 C 0.99621 0.52429 0.98548 0.0
C15 C 0.00634 0.55371 0.97243 0.0
H16 H 0.99452 0.49508 0.09924 0.0
H17 H 0.00387 0.55389 0.95161 0.0
H18 H 0.03303 0.42741 0.94774 0.0
H19 H 0.013 0.35055 0.08929 0.0
H20 H 0.98514 0.50213 0.97444 0.0
H21 H 0.02701 0.60549 0.97619 0.0
H22 H 0.03691 0.40505 0.06938 0.0
H23 H 0.01611 0.54423 0.12672 0.0
H24 H 0.04188 0.63412 1.01904 0.0
H25 H 0.04474 0.63151 0.06645 0.0
H26 H 0.01265 0.38161 0.91667 0.0
H27 H 0.03517 0.59822 0.10668 0.0
H28 H 0.98334 0.30141 0.06184 0.0
N29 N 0.01795 0.39661 0.98083 0.0
C30 C 0.00421 0.36564 0.98995 0.0
C31 C 0.00975 0.37685 0.9372 0.0
C32 C 0.99137 0.33885 0.97289 0.0
C33 C 0.02136 0.40264 0.95485 0.0
C34 C 0.99406 0.34481 0.94622 0.0
N35 N 0.01723 0.38724 0.0323 0.0
C36 C 0.02221 0.38394 0.0578 0.0
C37 C 0.99072 0.32905 0.02659 0.0
C38 C 0.00384 0.36078 1.01647 0.0
C39 C 0.99301 0.32537 0.05328 0.0
C40 C 0.00953 0.35301 0.06886 0.0
H41 H 0.9847 0.32491 0.93243 0.0
H42 H 0.96668 0.28619 0.97011 0.0
H43 H 0.96613 0.2776 1.01716 0.0
O44 O 0.0842 0.45278 0.02825 0.0
O45 O 0.97999 0.40346 1.01548 0.0
O46 O 0.96663 0.42506 0.04945 0.0
O47 O 0.07342 0.44248 0.98694 0.0
O48 O 0.04446 0.45786 0.05397 0.0
O49 O 0.99649 0.45389 0.06962 0.0
O50 O 0.93311 0.46955 1.02223 0.0
O51 O 0.03434 0.50759 0.03794 0.0
O52 O 0.04745 0.48954 1.00164 0.0
O53 O 0.94379 0.4733 0.06367 0.0
O54 O 0.96796 0.44924 0.99639 0.0
O55 O 0.01755 0.45938 0.98113 0.0
C56 C 0.95904 0.40146 0.03311 0.0
C57 C 0.12845 0.4593 0.99935 0.0
C58 C 0.18182 0.46861 1.01218 0.0
C59 C 0.19175 0.47431 0.98617 0.0
C60 C 0.13895 0.46515 0.97343 0.0
C61 C 0.17045 0.47268 0.96694 0.0
C62 C 0.15019 0.46146 1.01892 0.0
C63 C 0.02535 0.45603 0.0733 0.0
C64 C 0.09495 0.45141 1.00528 0.0
C65 C 0.97698 0.30709 0.98293 0.0
C66 C 0.97664 0.3022 1.00973 0.0
C67 C 0.05491 0.51159 1.0196 0.0
C68 C 0.89181 0.46797 0.05198 0.0
C69 C 0.84395 0.47235 0.04091 0.0
C70 C 0.83273 0.46375 0.06644 0.0
C71 C 0.88 0.4596 0.07742 0.0
C72 C 0.87372 0.47461 0.03361 0.0
C73 C 0.85067 0.45751 0.08454 0.0
C74 C 0.98631 0.44819 0.97739 0.0
C75 C 0.92358 0.47089 0.04563 0.0
H76 H 0.21625 0.48027 0.98077 0.0
H77 H 0.12285 0.46407 0.95807 0.0
H78 H 0.17837 0.47726 0.94696 0.0
H79 H 0.14256 0.4573 0.03902 0.0
H80 H 0.81015 0.46238 0.07249 0.0
H81 H 0.89351 0.4547 0.09196 0.0
H82 H 0.88276 0.48172 1.01403 0.0
H83 H 0.84191 0.45122 0.10422 0.0
Eu84 Eu 0.57832 0.61399 1.01436 0.0
C85 C 0.46337 0.48081 0.05258 0.0
N86 N 0.49278 0.49952 0.06415 0.0
C87 C 0.46743 0.48787 0.10593 0.0
C88 C 0.43463 0.46474 0.0675 0.0
C89 C 0.49529 0.50316 0.09041 0.0
C90 C 0.43698 0.46852 0.09445 0.0
C91 C 0.43179 0.45806 1.01333 0.0
C92 C 0.462 0.47792 0.02568 0.0
C93 C 0.40319 0.44187 0.02818 0.0
C94 C 0.40459 0.44529 0.05515 0.0
Eu95 Eu 0.5385 0.52039 0.03672 0.0
N96 N 0.49011 0.4942 1.01167 0.0
C97 C 0.43125 0.45462 0.98641 0.0
C98 C 0.48972 0.49003 0.98551 0.0
C99 C 0.46035 0.4705 0.97248 0.0
H100 H 0.51884 0.51717 0.09949 0.0
H101 H 0.46023 0.46732 0.95172 0.0
H102 H 0.591 0.62802 0.95047 0.0
H103 H 0.66434 0.68224 0.0918 0.0
H104 H 0.51195 0.50071 0.97455 0.0
H105 H 0.40859 0.43939 0.97624 0.0
H106 H 0.61023 0.6515 0.07105 0.0
H107 H 0.46952 0.49065 0.12676 0.0
H108 H 0.37983 0.42651 1.01897 0.0
H109 H 0.3823 0.43263 0.06632 0.0
H110 H 0.63721 0.65016 0.91967 0.0
H111 H 0.41548 0.45647 0.10657 0.0
H112 H 0.71416 0.69945 0.06567 0.0
N113 N 0.62091 0.639 0.98366 0.0
C114 C 0.65171 0.65507 0.99319 0.0
C115 C 0.64165 0.65114 0.9403 0.0
C116 C 0.67889 0.6685 0.97651 0.0
C117 C 0.61553 0.63814 0.95768 0.0
C118 C 0.67349 0.66567 0.94974 0.0
N119 N 0.629 0.64731 0.03499 0.0
C120 C 0.63167 0.65696 0.06012 0.0
C121 C 0.68742 0.67812 0.03025 0.0
C122 C 0.65592 0.65958 1.0197 0.0
C123 C 0.69041 0.68512 0.05678 0.0
C124 C 0.66236 0.67527 0.07163 0.0
H125 H 0.69369 0.67573 0.93624 0.0
H126 H 0.73164 0.69539 0.97456 0.0
H127 H 0.73913 0.70402 1.02167 0.0
O128 O 0.56152 0.64654 0.03075 0.0
O129 O 0.61273 0.5931 1.01664 0.0
O130 O 0.58997 0.55504 0.04875 0.0
O131 O 0.576 0.64972 0.99011 0.0
O132 O 0.56004 0.60259 0.05642 0.0
O133 O 0.56251 0.55713 0.07058 0.0
O134 O 0.53793 0.47692 1.02141 0.0
O135 O 0.50851 0.54524 0.03891 0.0
O136 O 0.52681 0.5764 1.0027 0.0
O137 O 0.53688 0.48318 0.06274 0.0
O138 O 0.5654 0.53425 0.9968 0.0
O139 O 0.55736 0.57565 0.98257 0.0
C140 C 0.61369 0.572 0.03261 0.0
C141 C 0.55719 0.68625 1.00257 0.0
C142 C 0.54594 0.72884 1.01588 0.0
C143 C 0.54285 0.73513 0.98976 0.0
C144 C 0.55387 0.69287 0.97653 0.0
C145 C 0.5467 0.71715 0.97023 0.0
C146 C 0.5528 0.7041 1.02241 0.0
C147 C 0.56254 0.58489 0.07511 0.0
C148 C 0.56502 0.66054 1.00828 0.0
C149 C 0.71043 0.68522 0.98705 0.0
C150 C 0.71469 0.6901 1.01388 0.0
C151 C 0.50447 0.56163 1.02043 0.0
C152 C 0.55182 0.44462 0.04796 0.0
C153 C 0.55271 0.39419 0.03997 0.0
C154 C 0.58023 0.40566 0.05603 0.0
C155 C 0.57893 0.45533 0.0643 0.0
C156 C 0.53849 0.41379 0.03604 0.0
C157 C 0.59304 0.4359 0.06824 0.0
C158 C 0.56735 0.55459 0.97822 0.0
C159 C 0.53581 0.46414 0.04413 0.0
H160 H 0.5372 0.75394 0.98452 0.0
H161 H 0.55671 0.67918 0.96093 0.0
H162 H 0.54412 0.72204 0.95016 0.0
H163 H 0.55499 0.6991 0.04258 0.0
H164 H 0.59127 0.39077 0.05971 0.0
H165 H 0.58912 0.47861 0.0741 0.0
H166 H 0.51703 0.405 0.02388 0.0
H167 H 0.61376 0.44412 0.08105 0.0
Eu168 Eu 0.40148 0.9795 1.01325 0.0
C169 C 0.53997 0.00864 0.05445 0.0
N170 N 0.51937 0.01739 0.06544 0.0
C171 C 0.53073 0.00423 0.10755 0.0
C172 C 0.55684 0.9972 0.06981 0.0
C173 C 0.51467 0.01559 0.09158 0.0
C174 C 0.55189 0.99497 0.09664 0.0
C175 C 0.56552 0.00234 1.01583 0.0
C176 C 0.54378 0.01065 0.02769 0.0
C177 C 0.58248 0.99108 0.03109 0.0
C178 C 0.57801 0.98834 0.05798 0.0
Eu179 Eu 0.49376 0.03673 0.03711 0.0
N180 N 0.52613 0.02054 1.01329 0.0
C181 C 0.56969 0.00573 0.98897 0.0
C182 C 0.53072 0.02459 0.98717 0.0
C183 C 0.55241 0.01714 0.97463 0.0
H184 H 0.49887 0.02333 0.10022 0.0
H185 H 0.55589 0.02034 0.9539 0.0
H186 H 0.39014 0.97749 0.94878 0.0
H187 H 0.3461 0.01446 0.09079 0.0
H188 H 0.51835 0.03424 0.97591 0.0
H189 H 0.58634 0.99984 0.97916 0.0
H190 H 0.37651 0.98994 0.07217 0.0
H191 H 0.52694 0.00282 0.12829 0.0
H192 H 0.59912 0.98442 1.02227 0.0
H193 H 0.59117 0.97951 0.06947 0.0
H194 H 0.36127 0.99333 0.9173 0.0
H195 H 0.56436 0.98625 0.10909 0.0
H196 H 0.31996 0.03639 0.06185 0.0
N197 N 0.37426 0.99307 0.98158 0.0
C198 C 0.3564 0.00631 0.99044 0.0
C199 C 0.35965 0.99707 0.9378 0.0
C200 C 0.34021 0.01644 0.97307 0.0
C201 C 0.3759 0.98807 0.95568 0.0
C202 C 0.34205 0.01168 0.9465 0.0
N203 N 0.37013 0.99973 0.03328 0.0
C204 C 0.36637 1.00026 0.0594 0.0
C205 C 0.33606 0.02361 0.02674 0.0
C206 C 0.35427 0.00976 1.01699 0.0
C207 C 0.33372 0.02591 0.0536 0.0
C208 C 0.34856 0.01373 0.06999 0.0
H209 H 0.32992 0.01911 0.93255 0.0
H210 H 0.31026 0.03903 0.96964 0.0
H211 H 0.30669 0.04537 1.0166 0.0
O212 O 0.36441 0.93197 0.03007 0.0
O213 O 0.42106 0.03476 1.01574 0.0
O214 O 0.45413 0.04609 0.05023 0.0
O215 O 0.37016 0.94003 0.98821 0.0
O216 O 0.41403 0.96906 0.05378 0.0
O217 O 0.45542 0.0178 0.07021 0.0
O218 O 0.53094 0.0842 1.02145 0.0
O219 O 0.47536 0.98275 0.03612 0.0
O220 O 0.44035 0.96714 1.00174 0.0
O221 O 0.52698 0.07519 0.06332 0.0
O222 O 0.47879 0.04725 0.99664 0.0
O223 O 0.4394 0.99755 0.98145 0.0
C224 C 0.43985 0.05533 0.0336 0.0
C225 C 0.32936 0.88646 1.00084 0.0
C226 C 0.2855 0.83318 1.01345 0.0
C227 C 0.28172 0.82304 0.9875 0.0
C228 C 0.32526 0.87578 0.97493 0.0
C229 C 0.30158 0.84425 0.96837 0.0
C230 C 0.3095 0.86489 1.02027 0.0
C231 C 0.42985 0.98809 0.07357 0.0
C232 C 0.35485 0.9199 1.00688 0.0
C233 C 0.32261 0.03083 0.98271 0.0
C234 C 0.32058 0.03445 1.00946 0.0
C235 C 0.45779 0.96152 1.01843 0.0
C236 C 0.56904 0.12852 0.04937 0.0
C237 C 0.6235 0.1738 0.04056 0.0
C238 C 0.61899 0.19205 0.05986 0.0
C239 C 0.5652 0.14703 0.0688 0.0
C240 C 0.59832 0.14197 0.0351 0.0
C241 C 0.59 0.17872 0.07386 0.0
C242 C 0.45964 0.02868 0.97759 0.0
C243 C 0.54235 0.09527 0.04446 0.0
H244 H 0.26349 0.79844 0.98212 0.0
H245 H 0.34047 0.89176 0.95961 0.0
H246 H 0.29868 0.8362 0.94844 0.0
H247 H 0.31259 0.87258 0.04035 0.0
H248 H 0.63828 0.21649 0.06444 0.0
H249 H 0.54287 0.13701 0.07995 0.0
H250 H 0.60175 0.1276 1.02038 0.0
H251 H 0.58689 0.19289 0.08888 0.0
Eu252 Eu 0.70051 0.76999 0.34627 0.0
C253 C 0.67592 0.88326 0.38741 0.0
N254 N 0.66644 0.85389 0.39858 0.0
C255 C 0.6792 0.87859 0.44065 0.0
C256 C 0.68767 0.91168 0.40264 0.0
C257 C 0.66746 0.85108 0.4248 0.0
C258 C 0.68944 0.90906 0.42953 0.0
C259 C 0.68279 0.91498 0.34863 0.0
C260 C 0.67395 0.88488 0.36062 0.0
C261 C 0.69445 0.94331 0.36376 0.0
C262 C 0.69704 0.94169 0.39066 0.0
Eu263 Eu 0.64561 0.80854 0.37058 0.0
N264 N 0.66339 0.85714 0.34634 0.0
C265 C 0.67948 0.91571 0.32177 0.0
C266 C 0.65932 0.85768 0.32022 0.0
C267 C 0.66751 0.88691 0.30755 0.0
H268 H 0.65835 0.82748 0.43359 0.0
H269 H 0.66431 0.88716 0.28681 0.0
H270 H 0.7072 0.76309 0.28269 0.0
H271 H 0.64966 0.67476 0.42107 0.0
H272 H 0.64902 0.83567 0.30898 0.0
H273 H 0.68582 0.93828 0.31186 0.0
H274 H 0.67561 0.73027 0.40419 0.0
H275 H 0.67995 0.87621 0.46145 0.0
H276 H 0.70148 0.96661 0.35483 0.0
H277 H 0.70606 0.96375 0.40207 0.0
H278 H 0.69089 0.71985 0.24983 0.0
H279 H 0.69831 0.93032 0.44189 0.0
H280 H 0.63301 0.62845 0.39104 0.0
N281 N 0.68776 0.73011 0.31412 0.0
C282 C 0.67297 0.69858 0.32206 0.0
C283 C 0.68535 0.71344 0.27003 0.0
C284 C 0.663 0.67301 0.30397 0.0
C285 C 0.69445 0.73788 0.28862 0.0
C286 C 0.66919 0.68081 0.27767 0.0
N287 N 0.67597 0.71696 0.3651 0.0
C288 C 0.66987 0.71095 0.39093 0.0
C289 C 0.6513 0.65919 0.35705 0.0
C290 C 0.66728 0.69178 0.34829 0.0
C291 C 0.64522 0.65312 0.38355 0.0
C292 C 0.65459 0.67916 0.40055 0.0
H293 H 0.6619 0.66189 0.26317 0.0
H294 H 0.63931 0.62064 0.29901 0.0
H295 H 0.62908 0.60855 0.3455 0.0
O296 O 0.74575 0.77832 0.36503 0.0
O297 O 0.64551 0.73602 0.34751 0.0
O298 O 0.63437 0.75836 0.38178 0.0
O299 O 0.74276 0.78057 0.32308 0.0
O300 O 0.71061 0.79123 0.38708 0.0
O301 O 0.66451 0.78949 0.40448 0.0
O302 O 0.59857 0.80166 0.35607 0.0
O303 O 0.70002 0.84241 0.37009 0.0
O304 O 0.71384 0.82171 0.33563 0.0
O305 O 0.60858 0.80482 0.39758 0.0
O306 O 0.63397 0.78328 0.32979 0.0
O307 O 0.68376 0.79252 0.31544 0.0
C308 C 0.62463 0.73539 0.36451 0.0
C309 C 0.78773 0.77706 0.33968 0.0
C310 C 0.84382 0.79282 0.34956 0.0
C311 C 0.84406 0.77415 0.32854 0.0
C312 C 0.78811 0.7582 0.3188 0.0
C313 C 0.81626 0.7568 0.31332 0.0
C314 C 0.81561 0.79414 0.35521 0.0
C315 C 0.69284 0.78992 0.40717 0.0
C316 C 0.76104 0.78396 0.34296 0.0
C317 C 0.6472 0.64058 0.31264 0.0
C318 C 0.64142 0.6337 0.33911 0.0
C319 C 0.72129 0.8446 0.35294 0.0
C320 C 0.55632 0.79887 0.38537 0.0
C321 C 0.50793 0.80235 0.37389 0.0
C322 C 0.49693 0.79425 0.39953 0.0
C323 C 0.54459 0.79094 0.41085 0.0
C324 C 0.53794 0.80489 0.36676 0.0
C325 C 0.51517 0.78869 0.41782 0.0
C326 C 0.65276 0.78234 0.31101 0.0
C327 C 0.58856 0.80254 0.37939 0.0
H328 H 0.86602 0.77355 0.32365 0.0
H329 H 0.76711 0.74547 0.30625 0.0
H330 H 0.81681 0.74288 0.29689 0.0
H331 H 0.81584 0.80953 0.37088 0.0
H332 H 0.47438 0.79292 0.40559 0.0
H333 H 0.55833 0.78668 0.42558 0.0
H334 H 0.54698 0.81185 0.34717 0.0
H335 H 0.50658 0.7829 0.43759 0.0
Eu336 Eu 0.24715 0.94887 0.34856 0.0
C337 C 0.13145 0.81633 0.38665 0.0
N338 N 0.16146 0.83518 0.39738 0.0
C339 C 0.13721 0.8255 0.43971 0.0
C340 C 0.10305 0.80224 0.40212 0.0
C341 C 0.16466 0.83877 0.42371 0.0
C342 C 0.10625 0.80749 0.42887 0.0
C343 C 0.0985 0.7891 0.3488 0.0
C344 C 0.12913 0.80961 0.36029 0.0
C345 C 0.07019 0.77598 0.36403 0.0
C346 C 0.07246 0.78249 0.39062 0.0
Eu347 Eu 0.20652 0.85365 0.36859 0.0
N348 N 0.15693 0.82241 0.34597 0.0
C349 C 0.09732 0.78164 0.32244 0.0
C350 C 0.15609 0.81376 0.32061 0.0
C351 C 0.12626 0.79378 0.30836 0.0
H352 H 0.18832 0.85061 0.4328 0.0
H353 H 0.12561 0.78749 0.28813 0.0
H354 H 0.25441 0.95709 0.28435 0.0
H355 H 0.3395 0.00467 0.42495 0.0
H356 H 0.17852 0.82271 0.30984 0.0
H357 H 0.07427 0.76592 0.31295 0.0
H358 H 0.28409 0.97313 0.40774 0.0
H359 H 0.14003 0.82856 0.4605 0.0
H360 H 0.04646 0.7602 0.35553 0.0
H361 H 0.05046 0.77156 0.40223 0.0
H362 H 0.29824 0.98367 0.2519 0.0
H363 H 0.08507 0.79686 0.4414 0.0
H364 H 0.38637 0.03137 0.39503 0.0
N365 N 0.28692 0.97319 0.3164 0.0
C366 C 0.31807 0.99181 0.32482 0.0
C367 C 0.30417 0.98601 0.27232 0.0
C368 C 0.34385 0.00744 0.30698 0.0
C369 C 0.27946 0.97083 0.29071 0.0
C370 C 0.33656 0.00413 0.28046 0.0
N371 N 0.29879 0.9805 0.36823 0.0
C372 C 0.30397 0.98404 0.39432 0.0
C373 C 0.35647 0.01426 0.36052 0.0
C374 C 0.32422 0.99551 0.35138 0.0
C375 C 0.36193 0.01729 0.38727 0.0
C376 C 0.33555 0.00222 0.40422 0.0
H377 H 0.35569 0.0158 0.26614 0.0
H378 H 0.39607 0.03816 0.30264 0.0
H379 H 0.40716 0.04384 0.34944 0.0
O380 O 0.25315 0.99713 0.35533 0.0
O381 O 0.28096 0.9276 0.35064 0.0
O382 O 0.25597 0.89131 0.38309 0.0
O383 O 0.22368 0.96719 0.32239 0.0
O384 O 0.22952 0.9399 0.39 0.0
O385 O 0.22402 0.89038 0.40386 0.0
O386 O 0.2201 0.81726 0.35453 0.0
O387 O 0.17831 0.87181 0.34518 0.0
O388 O 0.19649 0.92006 0.36524 0.0
O389 O 0.19919 0.81348 0.39284 0.0
O390 O 0.23604 0.86883 0.33026 0.0
O391 O 0.22735 0.91019 0.31669 0.0
C392 C 0.28076 0.90675 0.36751 0.0
C393 C 0.22751 0.01988 0.32828 0.0
C394 C 0.21515 0.06236 0.33972 0.0
C395 C 0.2122 0.06739 0.31328 0.0
C396 C 0.22416 0.02502 0.30199 0.0
C397 C 0.21664 0.04878 0.29456 0.0
C398 C 0.22279 0.03849 0.34729 0.0
C399 C 0.22639 0.91936 0.40852 0.0
C400 C 0.23461 0.99419 0.33561 0.0
C401 C 0.37594 0.02608 0.31608 0.0
C402 C 0.38224 0.02937 0.34275 0.0
C403 C 0.1731 0.89466 0.35381 0.0
C404 C 0.21115 0.77105 0.38266 0.0
C405 C 0.20817 0.71929 0.37195 0.0
C406 C 0.20918 0.7134 0.39849 0.0
C407 C 0.21221 0.76436 0.40907 0.0
C408 C 0.20899 0.74823 0.36391 0.0
C409 C 0.21117 0.73575 0.41686 0.0
C410 C 0.23797 0.88966 0.31216 0.0
C411 C 0.20938 0.80048 0.37584 0.0
H412 H 0.206 0.08553 0.30715 0.0
H413 H 0.22746 0.0107 0.28717 0.0
H414 H 0.21409 0.05269 0.27425 0.0
H415 H 0.22469 0.03423 0.36769 0.0
H416 H 0.20782 0.691 0.40506 0.0
H417 H 0.21342 0.78113 0.42388 0.0
H418 H 0.2073 0.75256 0.34351 0.0
H419 H 0.21155 0.73072 0.43727 0.0
Eu420 Eu 0.06741 0.31321 0.34794 0.0
C421 C 0.20438 0.33903 0.38739 0.0
N422 N 0.1841 0.34813 0.39855 0.0
C423 C 0.19647 0.33588 0.44065 0.0
C424 C 0.2216 0.32793 0.40268 0.0
C425 C 0.18013 0.34701 0.42478 0.0
C426 C 0.2173 0.3263 0.42957 0.0
C427 C 0.22889 0.33162 0.34855 0.0
C428 C 0.20756 0.3404 0.36051 0.0
C429 C 0.24631 0.32089 0.36378 0.0
C430 C 0.24259 0.31895 0.39074 0.0
Eu431 Eu 0.1602 0.36936 0.3703 0.0
N432 N 0.18971 0.35011 0.34612 0.0
C433 C 0.23233 0.33417 0.32161 0.0
C434 C 0.19358 0.35332 0.31991 0.0
C435 C 0.21475 0.34525 0.30727 0.0
H436 H 0.165 0.35544 0.4336 0.0
H437 H 0.21771 0.34782 0.28647 0.0
H438 H 0.0514 0.30674 0.28456 0.0
H439 H 0.01673 0.35293 0.42626 0.0
H440 H 0.18114 0.36287 0.30864 0.0
H441 H 0.24866 0.32791 0.31172 0.0
H442 H 0.04656 0.32813 0.40746 0.0
H443 H 0.1933 0.33507 0.46144 0.0
H444 H 0.26273 0.31399 0.35489 0.0
H445 H 0.2561 0.31048 0.40219 0.0
H446 H 0.01571 0.31456 0.25459 0.0
H447 H 0.23008 0.31788 0.44196 0.0
H448 H 0.98813 0.3724 0.39761 0.0
N449 N 0.0389 0.32586 0.31701 0.0
C450 C 0.02099 0.33894 0.32608 0.0
C451 C 0.01792 0.32281 0.27437 0.0
C452 C 1.00225 0.34633 0.30911 0.0
C453 C 0.03797 0.31815 0.29148 0.0
C454 C 1.00057 0.3377 0.28303 0.0
N455 N 0.03762 0.33513 0.36854 0.0
C456 C 0.03544 0.33731 0.3947 0.0
C457 C 1.00245 0.35794 0.36243 0.0
C458 C 0.02054 0.34402 0.35252 0.0
C459 C 1.00176 0.36185 0.38923 0.0
C460 C 0.01796 0.35103 0.40545 0.0
H461 H 0.98552 0.3419 0.26953 0.0
H462 H 0.97074 0.36721 0.30598 0.0
H463 H 0.97139 0.37791 0.35266 0.0
O464 O 0.02735 0.26768 0.36524 0.0
O465 O 0.08654 0.36806 0.34867 0.0
O466 O 0.12178 0.38141 0.38213 0.0
O467 O 0.03749 0.27217 0.32365 0.0
O468 O 0.08202 0.30348 0.3877 0.0
O469 O 0.12281 0.35231 0.40413 0.0
O470 O 0.20074 0.41448 0.35456 0.0
O471 O 0.14046 0.31502 0.36975 0.0
O472 O 0.10488 0.29921 0.33577 0.0
O473 O 0.19604 0.40669 0.39609 0.0
O474 O 0.14573 0.38133 0.33006 0.0
O475 O 0.10466 0.3319 0.31538 0.0
C476 C 0.10683 0.38975 0.3652 0.0
C477 C 0.992 0.22143 0.33671 0.0
C478 C 0.95018 0.16734 0.34993 0.0
C479 C 0.94062 0.15955 0.32395 0.0
C480 C 0.98204 0.21311 0.31079 0.0
C481 C 0.95654 0.18233 0.30451 0.0
C482 C 0.97605 0.19831 0.35641 0.0
C483 C 0.09702 0.32272 0.40753 0.0
C484 C 0.01923 0.25417 0.34237 0.0
C485 C 0.98489 0.36094 0.31882 0.0
C486 C 0.9852 0.36696 0.3454 0.0
C487 C 0.12257 0.29365 0.35223 0.0
C488 C 0.23508 0.46032 0.38139 0.0
C489 C 0.28739 0.50949 0.37395 0.0
C490 C 0.27823 0.52654 0.39103 0.0
C491 C 0.22682 0.47748 0.3991 0.0
C492 C 0.26562 0.47642 0.36893 0.0
C493 C 0.2481 0.51058 0.40353 0.0
C494 C 0.12551 0.36299 0.31135 0.0
C495 C 0.21389 0.42512 0.37719 0.0
H496 H 0.92097 0.13556 0.31871 0.0
H497 H 0.99394 0.23043 0.29525 0.0
H498 H 0.94915 0.17608 0.28452 0.0
H499 H 0.98369 0.2042 0.37642 0.0
H500 H 0.29489 0.55199 0.39531 0.0
H501 H 0.20433 0.46528 0.40993 0.0
H502 H 0.27283 0.46305 0.35602 0.0
H503 H 0.24157 0.52372 0.41717 0.0
Eu504 Eu 0.36758 0.10406 0.67905 0.0
C505 C 0.34732 0.2168 0.72097 0.0
N506 N 0.33555 0.18701 0.73214 0.0
C507 C 0.34624 0.21105 0.77439 0.0
C508 C 0.3591 0.24509 0.73635 0.0
C509 C 0.33482 0.18368 0.7584 0.0
C510 C 0.35835 0.24187 0.76334 0.0
C511 C 0.36058 0.24976 0.68205 0.0
C512 C 0.34819 0.21904 0.69404 0.0
C513 C 0.37201 0.27793 0.69734 0.0
C514 C 0.37128 0.2756 0.72439 0.0
Eu515 Eu 0.31378 0.14214 0.70381 0.0
N516 N 0.33722 0.19133 0.67962 0.0
C517 C 0.36086 0.25129 0.655 0.0
C518 C 0.33643 0.19269 0.65326 0.0
C519 C 0.3486 0.22263 0.64058 0.0
H520 H 0.32473 0.15982 0.76706 0.0
H521 H 0.34804 0.22352 0.61965 0.0
H522 H 0.36788 0.0972 0.61441 0.0
H523 H 0.3334 0.01071 0.75397 0.0
H524 H 0.32573 0.17091 0.6418 0.0
H525 H 0.37005 0.27439 0.64508 0.0
H526 H 0.3577 0.06624 0.73696 0.0
H527 H 0.34542 0.20831 0.79523 0.0
H528 H 0.38148 0.30167 0.68843 0.0
H529 H 0.38027 0.29757 0.7359 0.0
H530 H 0.34972 0.0537 0.5816 0.0
H531 H 0.36707 0.26301 0.7758 0.0
H532 H 0.3104 0.96387 0.72381 0.0
N533 N 0.35191 0.06441 0.64626 0.0
C534 C 0.3384 0.03299 0.65427 0.0
C535 C 0.34608 0.04748 0.60193 0.0
C536 C 0.32733 0.00735 0.63616 0.0
C537 C 0.35629 0.07204 0.62054 0.0
C538 C 0.33113 0.01495 0.60972 0.0
N539 N 0.34691 0.05171 0.69767 0.0
C540 C 0.34699 0.04637 0.72361 0.0
C541 C 0.32219 0.99405 0.68954 0.0
C542 C 0.33595 0.02644 0.68067 0.0
C543 C 0.32077 0.98839 0.71623 0.0
C544 C 0.33358 0.01473 0.73332 0.0
H545 H 0.32301 0.99595 0.5952 0.0
H546 H 0.30439 0.95503 0.63131 0.0
H547 H 0.29984 0.94339 0.67802 0.0
O548 O 0.41572 0.11673 0.69625 0.0
O549 O 0.31238 0.06951 0.68324 0.0
O550 O 0.29728 0.09103 0.71665 0.0
O551 O 0.40637 0.10882 0.6546 0.0
O552 O 0.3765 0.12276 0.72054 0.0
O553 O 0.32985 0.12053 0.73741 0.0
O554 O 0.27124 0.14263 0.68768 0.0
O555 O 0.36812 0.17273 0.70655 0.0
O556 O 0.38162 0.15628 0.66968 0.0
O557 O 0.27647 0.14131 0.72925 0.0
O558 O 0.301 0.11529 0.6639 0.0
O559 O 0.35046 0.12606 0.64839 0.0
C560 C 0.29102 0.06733 0.70065 0.0
C561 C 0.46093 0.12509 0.66734 0.0
C562 C 0.51441 0.13446 0.67993 0.0
C563 C 0.52485 0.14225 0.65414 0.0
C564 C 0.47201 0.13313 0.64164 0.0
C565 C 0.50378 0.14167 0.63516 0.0
C566 C 0.48243 0.12615 0.68669 0.0
C567 C 0.35813 0.12104 0.74037 0.0
C568 C 0.42723 0.11656 0.67332 0.0
C569 C 0.31317 0.97505 0.64495 0.0
C570 C 0.31058 0.96842 0.67155 0.0
C571 C 0.38911 0.1775 0.68838 0.0
C572 C 0.22391 0.12774 0.71306 0.0
C573 C 0.17427 0.1298 0.70479 0.0
C574 C 0.15686 0.10212 0.72039 0.0
C575 C 0.20624 0.10014 0.72866 0.0
C576 C 0.20784 0.1426 0.70122 0.0
C577 C 0.17281 0.08746 0.7323 0.0
C578 C 0.31918 0.11436 0.64475 0.0
C579 C 0.25942 0.14326 0.71028 0.0
H580 H 0.54958 0.14906 0.64875 0.0
H581 H 0.45614 0.13302 0.62647 0.0
H582 H 0.51211 0.14789 0.61536 0.0
H583 H 0.4744 0.12041 0.70663 0.0
H584 H 0.13104 0.09232 0.72382 0.0
H585 H 0.2183 0.08871 0.73827 0.0
H586 H 0.2215 0.16436 0.68957 0.0
H587 H 0.15927 0.06644 0.74463 0.0
Eu588 Eu 0.91348 0.28138 0.67938 0.0
C589 C 0.79724 0.14735 0.71935 0.0
N590 N 0.82652 0.1669 0.73079 0.0
C591 C 0.80107 0.15576 0.77256 0.0
C592 C 0.76851 0.13125 0.73429 0.0
C593 C 0.82888 0.17117 0.75701 0.0
C594 C 0.77074 0.13573 0.76117 0.0
C595 C 0.76597 0.1226 0.68034 0.0
C596 C 0.79602 0.14334 0.69259 0.0
C597 C 0.73733 0.10662 0.69517 0.0
C598 C 0.73859 0.11098 0.72205 0.0
Eu599 Eu 0.87245 0.18883 0.70333 0.0
N600 N 0.82413 0.15941 0.67862 0.0
C601 C 0.76563 0.11817 0.65354 0.0
C602 C 0.82399 0.15437 0.6526 0.0
C603 C 0.79478 0.13395 0.63966 0.0
H604 H 0.85233 0.18563 0.76611 0.0
H605 H 0.79481 0.13013 0.619 0.0
H606 H 0.91891 0.29023 0.61463 0.0
H607 H 0.00856 0.3294 0.7537 0.0
H608 H 0.84631 0.16525 0.64172 0.0
H609 H 0.74309 0.10232 0.64345 0.0
H610 H 0.95249 0.2994 0.73726 0.0
H611 H 0.80312 0.15902 0.79336 0.0
H612 H 0.71407 0.09067 0.68604 0.0
H613 H 0.7163 0.09838 0.73322 0.0
H614 H 0.9621 0.31732 0.58162 0.0
H615 H 0.74926 0.12363 0.77331 0.0
H616 H 0.05456 0.35673 0.72304 0.0
N617 N 0.95224 0.30503 0.64613 0.0
C618 C 0.98383 0.32212 0.65406 0.0
C619 C 0.96852 0.31883 0.60189 0.0
C620 C 0.00916 0.33804 0.63588 0.0
C621 C 0.94419 0.30331 0.62054 0.0
C622 C 1.00114 0.33611 0.60957 0.0
N623 N 0.96614 0.30814 0.69771 0.0
C624 C 0.9721 0.31066 0.72369 0.0
C625 C 0.02355 0.34171 0.68907 0.0
C626 C 0.99097 0.32398 0.68047 0.0
C627 C 0.02985 0.34333 0.71569 0.0
C628 C 0.00398 0.32789 0.73306 0.0
H629 H 0.01994 0.34801 0.59503 0.0
H630 H 0.06137 0.36793 0.63075 0.0
H631 H 0.07393 0.37113 0.67721 0.0
O632 O 0.90478 0.31735 0.69897 0.0
O633 O 0.94591 0.25852 0.68348 0.0
O634 O 0.92297 0.22344 0.71719 0.0
O635 O 0.91843 0.32339 0.65855 0.0
O636 O 0.88995 0.26973 0.71931 0.0
O637 O 0.89326 0.22663 0.73694 0.0
O638 O 0.87807 0.14722 0.68944 0.0
O639 O 0.84103 0.21221 0.70146 0.0
O640 O 0.86071 0.248 0.66705 0.0
O641 O 0.87124 0.15347 0.73038 0.0
O642 O 0.89897 0.20282 0.66328 0.0
O643 O 0.89051 0.24341 0.64791 0.0
C644 C 0.94682 0.23889 0.70097 0.0
C645 C 0.88647 0.34561 0.6724 0.0
C646 C 0.86689 0.38298 0.68162 0.0
C647 C 0.84637 0.37135 0.65991 0.0
C648 C 0.86556 0.33374 0.65085 0.0
C649 C 0.8457 0.34676 0.64461 0.0
C650 C 0.88699 0.3702 0.68783 0.0
C651 C 0.89254 0.25427 0.73954 0.0
C652 C 0.90964 0.33454 0.67802 0.0
C653 C 0.0416 0.35555 0.64446 0.0
C654 C 0.04877 0.35739 0.67094 0.0
C655 C 0.83698 0.22843 0.68268 0.0
C656 C 0.8747 0.10547 0.72028 0.0
C657 C 0.87259 0.05371 0.71062 0.0
C658 C 0.87189 0.04783 0.73736 0.0
C659 C 0.87414 0.09865 0.74685 0.0
C660 C 0.87362 0.0826 0.70196 0.0
C661 C 0.87266 0.07008 0.75524 0.0
C662 C 0.90034 0.22223 0.64412 0.0
C663 C 0.87403 0.1354 0.71281 0.0
H664 H 0.83116 0.3816 0.65468 0.0
H665 H 0.86499 0.31487 0.63861 0.0
H666 H 0.83004 0.33804 0.62776 0.0
H667 H 0.90331 0.37969 0.70433 0.0
H668 H 0.87017 0.0255 0.74451 0.0
H669 H 0.87442 0.11527 0.7614 0.0
H670 H 0.87335 0.08705 0.6814 0.0
H671 H 0.87181 0.065 0.77575 0.0
Eu672 Eu 0.73824 0.64761 0.67947 0.0
C673 C 0.87209 0.67217 0.7215 0.0
N674 N 0.85271 0.68231 0.73276 0.0
C675 C 0.86643 0.67169 0.77491 0.0
C676 C 0.88986 0.66172 0.73679 0.0
C677 C 0.84959 0.68224 0.75901 0.0
C678 C 0.88679 0.66156 0.76377 0.0
C679 C 0.89319 0.66064 0.6825 0.0
C680 C 0.87362 0.67161 0.69456 0.0
C681 C 0.91149 0.65096 0.69772 0.0
C682 C 0.91001 0.65172 0.72477 0.0
Eu683 Eu 0.82907 0.70385 0.70471 0.0
N684 N 0.85585 0.68147 0.68021 0.0
C685 C 0.89412 0.66005 0.65546 0.0
C686 C 0.8578 0.68209 0.65383 0.0
C687 C 0.87642 0.6709 0.64109 0.0
H688 H 0.83471 0.69105 0.76776 0.0
H689 H 0.8776 0.67123 0.62015 0.0
H690 H 0.72999 0.64923 0.61523 0.0
H691 H 0.66855 0.66572 0.75607 0.0
H692 H 0.8459 0.69191 0.64234 0.0
H693 H 0.90879 0.65174 0.6455 0.0
H694 H 0.70171 0.64446 0.73722 0.0
H695 H 0.86402 0.67179 0.79574 0.0
H696 H 0.92682 0.64273 0.68875 0.0
H697 H 0.92409 0.64394 0.73623 0.0
H698 H 0.70606 0.67072 0.58363 0.0
H699 H 0.89999 0.65363 0.77616 0.0
H700 H 0.64727 0.69334 0.7281 0.0
N701 N 0.71264 0.66308 0.64795 0.0
C702 C 0.69413 0.67553 0.65689 0.0
C703 C 0.70275 0.67248 0.60419 0.0
C704 C 0.68002 0.68806 0.63965 0.0
C705 C 0.71644 0.66058 0.62205 0.0
C706 C 0.68484 0.68671 0.61303 0.0
N707 N 0.70262 0.66272 0.69946 0.0
C708 C 0.69425 0.65784 0.72501 0.0
C709 C 0.66896 0.68713 0.6932 0.0
C710 C 0.6888 0.6752 0.68337 0.0
C711 C 0.66248 0.68455 0.71979 0.0
C712 C 0.67461 0.66919 0.73567 0.0
H713 H 0.67429 0.69598 0.59916 0.0
H714 H 0.65055 0.7112 0.63652 0.0
H715 H 0.64075 0.71026 0.68339 0.0
O716 O 0.70942 0.59847 0.6949 0.0
O717 O 0.75581 0.70227 0.68276 0.0
O718 O 0.79191 0.71777 0.71619 0.0
O719 O 0.70448 0.60791 0.65457 0.0
O720 O 0.7476 0.64015 0.7218 0.0
O721 O 0.79113 0.68794 0.7381 0.0
O722 O 0.87275 0.7463 0.68973 0.0
O723 O 0.80676 0.64964 0.70795 0.0
O724 O 0.77869 0.63691 0.67036 0.0
O725 O 0.86353 0.74166 0.73101 0.0
O726 O 0.81544 0.71728 0.66481 0.0
O727 O 0.77785 0.66732 0.64895 0.0
C728 C 0.77518 0.72431 0.6996 0.0
C729 C 0.65859 0.56589 0.67551 0.0
C730 C 0.61271 0.51311 0.68625 0.0
C731 C 0.59134 0.52475 0.6805 0.0
C732 C 0.6372 0.57749 0.66971 0.0
C733 C 0.60361 0.55684 0.67217 0.0
C734 C 0.64629 0.53373 0.68374 0.0
C735 C 0.7639 0.65936 0.7414 0.0
C736 C 0.6938 0.58667 0.67324 0.0
C737 C 0.6613 0.70113 0.64946 0.0
C738 C 0.65576 0.70064 0.67616 0.0
C739 C 0.79119 0.62881 0.68956 0.0
C740 C 0.90368 0.79403 0.71494 0.0
C741 C 0.9542 0.84363 0.70429 0.0
C742 C 0.94476 0.86143 0.7203 0.0
C743 C 0.89523 0.81195 0.73171 0.0
C744 C 0.93347 0.80995 0.70151 0.0
C745 C 0.91549 0.8456 0.73402 0.0
C746 C 0.79673 0.69885 0.64554 0.0
C747 C 0.88366 0.75847 0.71257 0.0
H748 H 0.56521 0.50874 0.68181 0.0
H749 H 0.64639 0.60231 0.66321 0.0
H750 H 0.58707 0.56562 0.6674 0.0
H751 H 0.6628 0.52463 0.68793 0.0
H752 H 0.9607 0.88738 0.72302 0.0
H753 H 0.87341 0.8 0.74339 0.0
H754 H 0.9409 0.79606 0.68939 0.0
H755 H 0.90886 0.85934 0.74696 0.0
H756 H 0.45647 0.52842 0.98488 0.0
H757 H 0.39846 0.51127 0.99071 0.0
H758 H 0.42249 0.57148 0.05894 0.0
H759 H 0.48005 0.58729 0.05385 0.0
H760 H 0.36884 0.49079 0.05688 0.0
H761 H 0.3545 0.57811 0.99334 0.0
H762 H 0.38059 0.56219 0.98387 0.0
H763 H 0.3924 0.59056 1.01015 0.0
C764 C 0.44934 0.53856 1.00067 0.0
C765 C 0.47246 0.55926 1.01886 0.0
C766 C 0.41633 0.52865 1.00408 0.0
C767 C 0.40643 0.54004 0.02536 0.0
C768 C 0.42981 0.56235 0.04253 0.0
H769 H 0.21739 0.51916 0.0446 0.0
H770 H 0.27303 0.53509 0.05782 0.0
C771 C 0.46258 0.57165 0.03944 0.0
C772 C 0.37158 0.52748 0.0307 0.0
H773 H 0.30866 0.54025 1.01653 0.0
C774 C 0.35554 0.50157 0.0482 0.0
C775 C 0.3547 0.54187 1.01946 0.0
C776 C 0.3712 0.56976 1.00062 0.0
C777 C 0.32264 0.48946 0.05466 0.0
C778 C 0.3055 0.50358 0.0431 0.0
C779 C 0.32189 0.52977 0.0258 0.0
C780 C 0.26983 0.48971 0.04592 0.0
C781 C 0.30669 0.46182 0.07379 0.0
C782 C 0.24873 0.45791 0.03714 0.0
C783 C 0.21683 0.44866 0.03009 0.0
C784 C 0.2059 0.47125 0.03141 0.0
C785 C 0.2253 0.50129 0.04368 0.0
C786 C 0.25718 0.51047 0.05098 0.0
H787 H 0.32487 0.46194 0.08748 0.0
H788 H 0.28734 0.46304 0.08504 0.0
H789 H 0.2955 0.43833 0.06315 0.0
H790 H 0.25788 0.44157 0.03271 0.0
H791 H 0.20224 0.42548 1.02041 0.0
H792 H 0.50253 0.9538 0.9913 0.0
H793 H 0.51709 0.91136 0.99868 0.0
H794 H 0.43441 0.86115 0.04952 0.0
H795 H 0.4208 0.90447 0.04304 0.0
H796 H 0.51735 0.88906 0.06301 0.0
H797 H 0.44752 0.79946 0.98506 0.0
H798 H 0.46538 0.84274 0.97971 0.0
H799 H 0.43079 0.82208 1.00063 0.0
C800 C 0.48729 0.93344 1.00368 0.0
C801 C 0.46066 0.9322 1.01662 0.0
C802 C 0.49558 0.90931 1.0079 0.0
C803 C 0.4769 0.88345 0.0248 0.0
C804 C 0.44911 0.88112 0.03651 0.0
H805 H 0.49106 0.71157 0.04332 0.0
H806 H 0.47385 0.75058 0.05569 0.0
C807 C 0.44115 0.90553 0.03257 0.0
C808 C 0.48736 0.85977 0.03139 0.0
H809 H 0.47861 0.78683 1.01305 0.0
C810 C 0.50877 0.86653 0.0523 0.0
C811 C 0.4761 0.83067 1.01726 0.0
C812 C 0.45368 0.82303 0.99434 0.0
C813 C 0.51934 0.84465 0.05943 0.0
C814 C 0.5082 0.81553 0.04515 0.0
C815 C 0.48656 0.80883 0.02437 0.0
C816 C 0.52111 0.7931 0.04907 0.0
C817 C 0.5423 0.85289 0.08204 0.0
C818 C 0.554 0.80406 0.04354 0.0
C819 C 0.56388 0.78176 0.03684 0.0
C820 C 0.54089 0.74843 0.03539 0.0
C821 C 0.50921 0.73718 0.04463 0.0
C822 C 0.49934 0.75949 0.05146 0.0
H823 H 0.54032 0.87004 0.09562 0.0
H824 H 0.53747 0.83063 0.09282 0.0
H825 H 0.56773 0.86487 0.07476 0.0
H826 H 0.57114 0.82981 0.04121 0.0
H827 H 0.58833 0.79082 0.02944 0.0
H828 H 0.22306 0.81521 0.02433 0.0
H829 H 0.18254 0.75936 0.03601 0.0
H830 H 0.2596 0.73919 0.05429 0.0
H831 H 0.30014 0.79511 0.04274 0.0
H832 H 0.21611 0.71399 1.00304 0.0
H833 H 0.15095 0.68356 0.09771 0.0
H834 H 0.16304 0.72224 0.08236 0.0
H835 H 0.19353 0.71431 0.09525 0.0
C836 C 0.23124 0.7995 0.03265 0.0
C837 C 0.26446 0.80909 0.03265 0.0
C838 C 0.20812 0.76759 0.03918 0.0
C839 C 0.21824 0.7453 0.04577 0.0
C840 C 0.25148 0.75627 0.04943 0.0
H841 H 0.1046 0.53632 0.05327 0.0
H842 H 0.14675 0.59362 0.0576 0.0
C843 C 0.2746 0.78821 0.043 0.0
C844 C 0.19592 0.71044 0.04106 0.0
H845 H 0.13333 0.6414 0.06674 0.0
C846 C 0.1981 0.69791 1.01699 0.0
C847 C 0.17245 0.69008 0.05922 0.0
C848 C 0.16961 0.70297 0.08518 0.0
C849 C 0.17753 0.66512 1.01064 0.0
C850 C 0.15389 0.64449 0.02882 0.0
C851 C 0.15161 0.65723 0.05288 0.0
C852 C 0.13159 0.60948 0.02365 0.0
C853 C 0.18175 0.65292 0.98473 0.0
C854 C 0.10997 0.59922 1.00252 0.0
C855 C 0.08675 0.56627 0.99951 0.0
C856 C 0.08432 0.54353 1.01802 0.0
C857 C 0.10655 0.55357 0.03858 0.0
C858 C 0.13027 0.58624 0.04121 0.0
H859 H 0.20632 0.66916 0.97645 0.0
H860 H 0.17806 0.62792 0.9863 0.0
H861 H 0.16349 0.65237 0.97095 0.0
H862 H 0.11001 0.61679 0.98908 0.0
H863 H 0.06935 0.55895 0.98381 0.0
H864 H 0.44295 0.0974 0.07082 0.0
H865 H 0.46411 0.15642 0.06632 0.0
H866 H 0.48807 0.1517 0.98651 0.0
H867 H 0.4691 0.09408 0.99153 0.0
H868 H 0.53036 0.20788 0.04567 0.0
H869 H 0.42412 0.19075 0.98705 0.0
H870 H 0.4224 0.15895 1.00749 0.0
H871 H 0.44428 0.16867 0.97746 0.0
C872 C 0.45241 0.10902 0.05229 0.0
C873 C 0.45205 0.09058 0.03089 0.0
C874 C 0.46459 0.14261 0.04977 0.0
C875 C 0.47661 0.15807 0.02582 0.0
C876 C 0.47782 0.13999 1.00488 0.0
H877 H 0.5822 0.37012 1.00892 0.0
H878 H 0.563 0.31261 0.99937 0.0
C879 C 0.46602 0.10669 1.00754 0.0
C880 C 0.48748 0.19302 1.02253 0.0
H881 H 0.46537 0.24497 0.99541 0.0
C882 C 0.5163 0.21611 0.03464 0.0
C883 C 0.46915 0.20344 1.00782 0.0
C884 C 0.43814 0.17928 0.99425 0.0
C885 C 0.52693 0.24953 0.03303 0.0
C886 C 0.50821 0.26006 1.01881 0.0
C887 C 0.47967 0.23688 1.00623 0.0
C888 C 0.51667 0.29478 1.01879 0.0
C889 C 0.55754 0.27319 0.04733 0.0
C890 C 0.4959 0.30394 0.03096 0.0
C891 C 0.50659 0.33684 0.03595 0.0
C892 C 0.53826 0.36092 0.02898 0.0
C893 C 0.55783 0.3519 1.01476 0.0
C894 C 0.54696 0.3191 1.00943 0.0
H895 H 0.56537 0.26068 0.06141 0.0
H896 H 0.57761 0.28623 0.03321 0.0
H897 H 0.55391 0.29157 0.0579 0.0
H898 H 0.4723 0.28555 0.03814 0.0
H899 H 0.49106 0.34319 0.04695 0.0
H900 H 0.6742 0.16764 0.05685 0.0
H901 H 0.73153 0.20518 0.04735 0.0
H902 H 0.7036 0.25028 0.98759 0.0
H903 H 0.64597 0.21374 0.99837 0.0
H904 H 0.77409 0.22432 1.01067 0.0
H905 H 0.75217 0.32705 0.03251 0.0
H906 H 0.72057 0.28519 0.03595 0.0
H907 H 0.73152 0.30372 1.00437 0.0
C908 C 0.68037 0.18493 0.04116 0.0
C909 C 0.65592 0.18801 0.02838 0.0
C910 C 0.71314 0.20653 0.03579 0.0
C911 C 0.72202 0.2315 1.01745 0.0
C912 C 0.69744 0.23214 1.00256 0.0
H913 H 0.91578 0.4002 0.99754 0.0
H914 H 0.85871 0.35964 0.99262 0.0
C915 C 0.66454 0.21088 1.00834 0.0
C916 C 0.75664 0.25814 1.01613 0.0
H917 H 0.80631 0.33996 0.02611 0.0
C918 C 0.78104 0.2496 1.01393 0.0
C919 C 0.7659 0.29132 1.02029 0.0
C920 C 0.74122 0.30243 0.02363 0.0
C921 C 0.81416 0.27291 1.01656 0.0
C922 C 0.8232 0.30566 1.02165 0.0
C923 C 0.79912 0.31465 1.02262 0.0
C924 C 0.85769 0.33096 0.02557 0.0
C925 C 0.83927 0.26231 1.01396 0.0
C926 C 0.87602 0.32883 0.04615 0.0
C927 C 0.90922 0.35171 0.04856 0.0
C928 C 0.92436 0.37695 0.03047 0.0
C929 C 0.90545 0.38009 1.01092 0.0
C930 C 0.87252 0.35716 1.00832 0.0
H931 H 0.82922 0.2384 1.00402 0.0
H932 H 0.86091 0.28064 1.00304 0.0
H933 H 0.84749 0.25987 0.03354 0.0
H934 H 0.86468 0.30935 0.06021 0.0
H935 H 0.92309 0.34961 0.0644 0.0
H936 H 0.78432 0.43058 1.02155 0.0
H937 H 0.74368 0.44543 1.0087 0.0
H938 H 0.81747 0.54704 1.01052 0.0
H939 H 0.85821 0.5321 0.02315 0.0
H940 H 0.73397 0.48112 0.04618 0.0
H941 H 0.75714 0.5437 0.95149 0.0
H942 H 0.77344 0.51755 0.95986 0.0
H943 H 0.79286 0.55884 0.97148 0.0
C944 C 0.79216 0.45594 1.01775 0.0
C945 C 0.82431 0.48022 0.02322 0.0
C946 C 0.76892 0.46443 1.01057 0.0
C947 C 0.77749 0.49734 1.00873 0.0
C948 C 0.81039 0.52149 1.01142 0.0
H949 H 0.6791 0.60968 1.02248 0.0
H950 H 0.71827 0.59037 1.01643 0.0
C951 C 0.83371 0.51296 1.01857 0.0
C952 C 0.75169 0.50638 1.00994 0.0
H953 H 0.72332 0.55232 0.98117 0.0
C954 C 0.73137 0.49638 0.0318 0.0
C955 C 0.74856 0.52651 0.99133 0.0
C956 C 0.76896 0.53706 0.96708 0.0
C957 C 0.70884 0.5069 0.0361 0.0
C958 C 0.70591 0.52741 1.01762 0.0
C959 C 0.72576 0.53686 0.99544 0.0
C960 C 0.68238 0.53924 1.02092 0.0
C961 C 0.68934 0.49669 0.0609 0.0
C962 C 0.64925 0.51699 0.02492 0.0
C963 C 0.62735 0.52808 0.02897 0.0
C964 C 0.6378 0.56148 0.02846 0.0
C965 C 0.6706 0.58381 0.02329 0.0
C966 C 0.69284 0.57276 1.01977 0.0
H967 H 0.70184 0.49051 0.07624 0.0
H968 H 0.68481 0.51605 0.06839 0.0
H969 H 0.66556 0.47451 0.0571 0.0
H970 H 0.64023 0.491 0.02485 0.0
H971 H 0.60197 0.51047 0.0319 0.0
H972 H 0.88917 0.85561 0.34046 0.0
H973 H 0.94715 0.87951 0.35063 0.0
H974 H 0.9251 0.79813 0.40074 0.0
H975 H 0.86724 0.77354 0.38954 0.0
H976 H 0.99332 0.89668 0.38794 0.0
H977 H 0.96828 0.7815 0.33975 0.0
H978 H 0.9378 0.79346 0.34286 0.0
H979 H 0.94703 0.7753 0.36982 0.0
C980 C 0.89669 0.8436 0.35446 0.0
C981 C 0.87428 0.81258 0.36386 0.0
C982 C 0.92976 0.8572 0.36026 0.0
C983 C 0.94045 0.83981 0.37552 0.0
C984 C 0.91734 0.81136 0.38823 0.0
H985 H 0.14103 0.88675 0.39895 0.0
H986 H 0.08426 0.87374 0.4046 0.0
C987 C 0.88435 0.79747 0.38207 0.0
C988 C 0.97488 0.8478 0.37377 0.0
H989 H 0.02258 0.81722 0.35223 0.0
C990 C 0.99975 0.87923 0.38042 0.0
C991 C 0.98318 0.82534 0.36292 0.0
C992 C 0.95772 0.79216 0.35316 0.0
C993 C 0.0327 0.88854 0.37697 0.0
C994 C 0.04081 0.86567 0.36705 0.0
C995 C 0.01608 0.83446 0.36014 0.0
C996 C 0.07495 0.8737 0.36358 0.0
C997 C 0.05871 0.92302 0.383 0.0
C998 C 0.08794 0.87691 0.33861 0.0
C999 C 0.12 0.88353 0.33537 0.0
C1000 C 0.13941 0.88743 0.35707 0.0
C1001 C 0.12644 0.88425 0.38201 0.0
C1002 C 0.09422 0.87696 0.38524 0.0
H1003 H 0.04827 0.93867 0.38834 0.0
H1004 H 0.07398 0.923 0.39931 0.0
H1005 H 0.07491 0.93384 0.36595 0.0
H1006 H 0.07328 0.87433 0.32169 0.0
H1007 H 0.12978 0.88604 0.316 0.0
H1008 H 0.08669 0.23836 0.37947 0.0
H1009 H 0.09903 0.1941 0.38581 0.0
H1010 H 0.17776 0.23963 0.33085 0.0
H1011 H 0.16435 0.28288 0.32361 0.0
H1012 H 0.11638 0.15587 0.33692 0.0
H1013 H 0.2066 0.22765 0.41376 0.0
H1014 H 0.17205 0.23292 0.40684 0.0
H1015 H 0.20535 0.24778 0.38449 0.0
C1016 C 0.10586 0.23817 0.36812 0.0
C1017 C 0.12453 0.26373 0.35093 0.0
C1018 C 0.1131 0.21321 0.37196 0.0
C1019 C 0.1395 0.21397 0.35902 0.0
C1020 C 0.15733 0.23877 0.34103 0.0
H1021 H 0.2535 0.12643 0.34979 0.0
H1022 H 0.23318 0.1623 0.36369 0.0
C1023 C 0.1497 0.26338 0.33689 0.0
C1024 C 0.14935 0.18961 0.36503 0.0
H1025 H 0.20333 0.17809 0.40097 0.0
C1026 C 0.13499 0.16033 0.35119 0.0
C1027 C 0.17388 0.19599 0.38346 0.0
C1028 C 0.19045 0.22772 0.39817 0.0
C1029 C 0.14541 0.13754 0.35456 0.0
C1030 C 0.17014 0.14382 0.37302 0.0
C1031 C 0.18389 0.17291 0.38735 0.0
C1032 C 0.18536 0.12302 0.37435 0.0
C1033 C 0.1313 0.10801 0.33707 0.0
C1034 C 0.16639 0.0892 0.37827 0.0
C1035 C 0.17799 0.06864 0.3701 0.0
C1036 C 0.20884 0.08193 0.35854 0.0
C1037 C 0.22958 0.1158 0.35861 0.0
C1038 C 0.21791 0.13627 0.3665 0.0
H1039 H 0.11759 0.11038 0.32054 0.0
H1040 H 0.15084 0.104 0.32915 0.0
H1041 H 0.11421 0.08611 0.34831 0.0
H1042 H 0.1415 0.07856 0.38506 0.0
H1043 H 0.1616 0.04253 0.37017 0.0
H1044 H 0.97132 0.12909 0.37125 0.0
H1045 H 0.93443 0.07202 0.38264 0.0
H1046 H 0.85309 0.08904 0.38062 0.0
H1047 H 0.88988 0.14598 0.36913 0.0
H1048 H 0.86096 0.02806 0.41678 0.0
H1049 H 0.86802 0.04158 0.30921 0.0
H1050 H 0.90192 0.06838 0.32954 0.0
H1051 H 0.86595 0.07186 0.32896 0.0
C1052 C 0.94592 0.12114 0.37506 0.0
C1053 C 0.93319 0.14155 0.36923 0.0
C1054 C 0.92485 0.08854 0.38146 0.0
C1055 C 0.89111 0.07642 0.38208 0.0
C1056 C 0.8791 0.0981 0.38033 0.0
H1057 H 0.72891 0.89793 0.32751 0.0
H1058 H 0.77151 0.95415 0.33557 0.0
C1059 C 0.90012 0.13062 0.37387 0.0
C1060 C 0.86886 0.04163 0.37663 0.0
H1061 H 0.83336 0.98951 0.3259 0.0
C1062 C 0.85495 0.0194 0.39699 0.0
C1063 C 0.86098 0.03081 0.35073 0.0
C1064 C 0.87493 0.05423 0.32823 0.0
C1065 C 0.83272 0.98634 0.39205 0.0
C1066 C 0.82515 0.9753 0.36604 0.0
C1067 C 0.83939 0.9978 0.34577 0.0
C1068 C 0.80095 0.94103 0.35936 0.0
C1069 C 0.81661 0.96392 0.41476 0.0
C1070 C 0.80387 0.91482 0.369 0.0
C1071 C 0.77881 0.8827 0.36507 0.0
C1072 C 0.75113 0.8764 0.3507 0.0
C1073 C 0.74971 0.90237 0.33905 0.0
C1074 C 0.77419 0.93445 0.34356 0.0
H1075 H 0.81824 0.9777 0.43265 0.0
H1076 H 0.79052 0.94653 0.4107 0.0
H1077 H 0.8291 0.94978 0.41859 0.0
H1078 H 0.82489 0.9192 0.38038 0.0
H1079 H 0.7803 0.86293 0.37429 0.0
H1080 H 0.15395 0.67781 0.34461 0.0
H1081 H 0.13994 0.62224 0.33236 0.0
H1082 H 0.23811 0.64472 0.34937 0.0
H1083 H 0.25215 0.70017 0.36156 0.0
H1084 H 0.18738 0.58873 0.30299 0.0
H1085 H 0.15572 0.58128 0.40785 0.0
H1086 H 0.14864 0.60741 0.38667 0.0
H1087 H 0.18953 0.61756 0.39441 0.0
C1088 C 0.17302 0.6715 0.34413 0.0
C1089 C 0.20415 0.69323 0.35392 0.0
C1090 C 0.16497 0.6397 0.33726 0.0
C1091 C 0.18798 0.62941 0.34008 0.0
C1092 C 0.22013 0.65229 0.3468 0.0
H1093 H 0.15466 0.44111 0.39118 0.0
H1094 H 0.17673 0.49915 0.38267 0.0
C1095 C 0.22816 0.684 0.35367 0.0
C1096 C 0.17682 0.59422 0.34259 0.0
H1097 H 0.14561 0.53311 0.38738 0.0
C1098 C 0.1781 0.57642 0.32134 0.0
C1099 C 0.16546 0.57853 0.36675 0.0
C1100 C 0.16469 0.59697 0.39035 0.0
C1101 C 0.16778 0.54298 0.32365 0.0
C1102 C 0.15539 0.52708 0.34767 0.0
C1103 C 0.15477 0.5452 0.36893 0.0
C1104 C 0.14312 0.49175 0.35151 0.0
C1105 C 0.17097 0.5251 0.30065 0.0
C1106 C 0.11663 0.46821 0.33707 0.0
C1107 C 0.10423 0.43496 0.3418 0.0
C1108 C 0.11796 0.42471 0.36121 0.0
C1109 C 0.14395 0.44833 0.37594 0.0
C1110 C 0.15653 0.48147 0.37108 0.0
H1111 H 0.18847 0.54218 0.28613 0.0
H1112 H 0.17912 0.50781 0.30678 0.0
H1113 H 0.14688 0.51089 0.29108 0.0
H1114 H 0.10527 0.47554 0.32236 0.0
H1115 H 0.08407 0.41733 0.33016 0.0
H1116 H 0.31096 0.54928 0.33185 0.0
H1117 H 0.36866 0.58558 0.32097 0.0
H1118 H 0.3966 0.54529 0.38444 0.0
H1119 H 0.33922 0.50833 0.39442 0.0
H1120 H 0.41014 0.63243 0.35048 0.0
H1121 H 0.46084 0.55179 0.33243 0.0
H1122 H 0.41747 0.53635 0.3335 0.0
H1123 H 0.44019 0.54166 0.36294 0.0
C1124 C 0.32957 0.54751 0.34275 0.0
C1125 C 0.32095 0.52598 0.36375 0.0
C1126 C 0.36245 0.56832 0.33669 0.0
C1127 C 0.38711 0.56806 0.35173 0.0
C1128 C 0.37822 0.54544 0.37205 0.0
H1129 H 0.5741 0.72784 0.39525 0.0
H1130 H 0.51599 0.68962 0.38898 0.0
C1131 C 0.34543 0.5244 0.37786 0.0
C1132 C 0.42177 0.59382 0.34849 0.0
H1133 H 0.49909 0.60598 0.34791 0.0
C1134 C 0.42959 0.62665 0.34941 0.0
C1135 C 0.44726 0.58648 0.34675 0.0
C1136 C 0.44091 0.55212 0.34356 0.0
C1137 C 0.46211 0.65214 0.34992 0.0
C1138 C 0.48747 0.64452 0.35019 0.0
C1139 C 0.47966 0.61185 0.34807 0.0
C1140 C 0.52231 0.66965 0.35309 0.0
C1141 C 0.46892 0.68687 0.35015 0.0
C1142 C 0.54532 0.67057 0.33547 0.0
C1143 C 0.57854 0.69144 0.33954 0.0
C1144 C 0.58947 0.71242 0.36103 0.0
C1145 C 0.56643 0.71196 0.37848 0.0
C1146 C 0.53315 0.6905 0.37469 0.0
H1147 H 0.44817 0.68872 0.34198 0.0
H1148 H 0.47257 0.69582 0.37042 0.0
H1149 H 0.49124 0.70309 0.33893 0.0
H1150 H 0.53758 0.6547 0.31869 0.0
H1151 H 0.59562 0.69126 0.32568 0.0
H1152 H 0.27558 0.84961 0.38475 0.0
H1153 H 0.31322 0.82919 0.37658 0.0
H1154 H 0.37805 0.91812 0.33641 0.0
H1155 H 0.34043 0.93865 0.34427 0.0
H1156 H 0.35001 0.83515 0.31659 0.0
H1157 H 0.42013 0.89227 0.40688 0.0
H1158 H 0.3767 0.87644 0.40506 0.0
H1159 H 0.40389 0.91321 0.38825 0.0
C1160 C 0.29774 0.86477 0.37407 0.0
C1161 C 0.30477 0.89555 0.36478 0.0
C1162 C 0.31909 0.85296 0.36928 0.0
C1163 C 0.34804 0.87195 0.3555 0.0
C1164 C 0.35552 0.90294 0.34672 0.0
H1165 H 0.52402 0.86131 0.35291 0.0
H1166 H 0.48456 0.87816 0.3406 0.0
C1167 C 0.33413 0.91469 0.35139 0.0
C1168 C 0.37187 0.8607 0.35204 0.0
H1169 H 0.43961 0.86599 0.37987 0.0
C1170 C 0.36969 0.84184 0.33033 0.0
C1171 C 0.39727 0.86942 0.37007 0.0
C1172 C 0.39988 0.88889 0.39399 0.0
C1173 C 0.39274 0.83171 0.32613 0.0
C1174 C 0.41846 0.84081 0.3441 0.0
C1175 C 0.42031 0.85956 0.36581 0.0
C1176 C 0.44267 0.82958 0.34231 0.0
C1177 C 0.38963 0.81173 0.30245 0.0
C1178 C 0.43251 0.79645 0.34566 0.0
C1179 C 0.45508 0.78683 0.35247 0.0
C1180 C 0.48811 0.81017 0.35619 0.0
C1181 C 0.49881 0.8428 0.34986 0.0
C1182 C 0.47621 0.85245 0.34303 0.0
H1183 H 0.37382 0.8137 0.28748 0.0
H1184 H 0.41394 0.81947 0.29389 0.0
H1185 H 0.37855 0.78573 0.30806 0.0
H1186 H 0.40682 0.77839 0.34563 0.0
H1187 H 0.44622 0.76157 0.35752 0.0
H1188 H 0.78651 0.18875 0.65131 0.0
H1189 H 0.72879 0.17104 0.65928 0.0
H1190 H 0.75693 0.24281 0.71986 0.0
H1191 H 0.81445 0.25934 0.71274 0.0
H1192 H 0.70122 0.154 0.72003 0.0
H1193 H 0.68675 0.24604 0.66301 0.0
H1194 H 0.71456 0.23237 0.65306 0.0
H1195 H 0.7241 0.25857 0.68063 0.0
C1196 C 0.7803 0.20118 0.66585 0.0
C1197 C 0.80471 0.22558 0.68122 0.0
C1198 C 0.74744 0.19095 0.67051 0.0
C1199 C 0.73878 0.20554 0.69027 0.0
C1200 C 0.76326 0.23127 0.70458 0.0
H1201 H 0.54945 0.18314 0.71402 0.0
H1202 H 0.60508 0.19868 0.72695 0.0
C1203 C 0.79601 0.24101 0.70025 0.0
C1204 C 0.70418 0.19315 0.69677 0.0
H1205 H 0.64157 0.20767 0.68645 0.0
C1206 C 0.68806 0.16573 0.71287 0.0
C1207 C 0.68745 0.20876 0.68758 0.0
C1208 C 0.70386 0.23805 0.67003 0.0
C1209 C 0.65526 0.15334 0.71989 0.0
C1210 C 0.63817 0.16853 0.71014 0.0
C1211 C 0.6547 0.19629 0.69436 0.0
C1212 C 0.60238 0.15426 0.71297 0.0
C1213 C 0.6394 0.12427 0.73771 0.0
C1214 C 0.58147 0.12294 0.70313 0.0
C1215 C 0.54952 0.11384 0.69633 0.0
C1216 C 0.53834 0.13612 0.6989 0.0
C1217 C 0.55754 0.16547 0.71214 0.0
C1218 C 0.58944 0.17446 0.71926 0.0
H1219 H 0.65759 0.12374 0.75101 0.0
H1220 H 0.61972 0.12426 0.74942 0.0
H1221 H 0.62872 0.10163 0.72597 0.0
H1222 H 0.59079 0.10703 0.69771 0.0
H1223 H 0.53512 0.09123 0.68587 0.0
H1224 H 0.82316 0.37843 0.71726 0.0
H1225 H 0.81348 0.42293 0.72935 0.0
H1226 H 0.90182 0.49143 0.69005 0.0
H1227 H 0.91179 0.44696 0.67836 0.0
H1228 H 0.87741 0.51652 0.73542 0.0
H1229 H 0.79025 0.44793 0.65585 0.0
H1230 H 0.78842 0.42498 0.68417 0.0
H1231 H 0.82399 0.44197 0.66396 0.0
C1232 C 0.8413 0.40326 0.71248 0.0
C1233 C 0.86788 0.40961 0.6967 0.0
C1234 C 0.83585 0.42858 0.7194 0.0
C1235 C 0.85664 0.46013 0.71009 0.0
C1236 C 0.88556 0.46713 0.69734 0.0
H1237 H 0.81159 0.60402 0.65063 0.0
H1238 H 0.82696 0.5617 0.65575 0.0
C1239 C 0.89118 0.44182 0.69061 0.0
C1240 C 0.84418 0.48285 0.70728 0.0
H1241 H 0.79048 0.49476 0.67134 0.0
C1242 C 0.85826 0.51177 0.72161 0.0
C1243 C 0.81974 0.47669 0.68871 0.0
C1244 C 0.80479 0.44636 0.6721 0.0
C1245 C 0.84807 0.5347 0.71805 0.0
C1246 C 0.82319 0.52825 0.69981 0.0
C1247 C 0.80944 0.49946 0.68532 0.0
C1248 C 0.81098 0.5511 0.69565 0.0
C1249 C 0.86438 0.56588 0.73346 0.0
C1250 C 0.79584 0.55797 0.71603 0.0
C1251 C 0.78726 0.58194 0.71314 0.0
C1252 C 0.79306 0.59891 0.68969 0.0
C1253 C 0.8063 0.59067 0.66868 0.0
C1254 C 0.81532 0.56684 0.67169 0.0
H1255 H 0.88886 0.57155 0.74046 0.0
H1256 H 0.86691 0.58654 0.72166 0.0
H1257 H 0.84915 0.56343 0.75058 0.0
H1258 H 0.79175 0.5456 0.73447 0.0
H1259 H 0.77727 0.58821 0.72962 0.0
H1260 H 0.61398 0.46817 0.65519 0.0
H1261 H 0.58234 0.40909 0.66038 0.0
H1262 H 0.55265 0.42154 0.73668 0.0
H1263 H 0.58249 0.48091 0.73048 0.0
H1264 H 0.57595 0.36218 0.68933 0.0
H1265 H 0.46622 0.37486 0.70355 0.0
H1266 H 0.50549 0.40927 0.69612 0.0
H1267 H 0.49612 0.39333 0.72861 0.0
C1268 C 0.60093 0.45813 0.67314 0.0
C1269 C 0.59965 0.47854 0.69216 0.0
C1270 C 0.583 0.42446 0.67619 0.0
C1271 C 0.56399 0.41086 0.69848 0.0
C1272 C 0.56592 0.4315 0.71882 0.0
H1273 H 0.42288 0.21078 0.73015 0.0
H1274 H 0.46728 0.26713 0.73206 0.0
C1275 C 0.5831 0.46526 0.71543 0.0
C1276 C 0.53979 0.37559 0.69877 0.0
H1277 H 0.45804 0.32167 0.70259 0.0
C1278 C 0.55019 0.35337 0.69228 0.0
C1279 C 0.50604 0.3641 0.70232 0.0
C1280 C 0.49272 0.38663 0.70779 0.0
C1281 C 0.52777 0.32014 0.68895 0.0
C1282 C 0.49435 0.30892 0.69261 0.0
C1283 C 0.48387 0.33075 0.69965 0.0
C1284 C 0.46981 0.27417 0.69062 0.0
C1285 C 0.53968 0.2971 0.68138 0.0
C1286 C 0.45697 0.25963 0.66652 0.0
C1287 C 0.43165 0.22718 0.66531 0.0
C1288 C 0.41897 0.2094 0.68824 0.0
C1289 C 0.43248 0.224 0.71219 0.0
C1290 C 0.45771 0.2561 0.71336 0.0
H1291 H 0.56669 0.30945 0.68034 0.0
H1292 H 0.53085 0.27681 0.69555 0.0
H1293 H 0.52947 0.28628 0.66217 0.0
H1294 H 0.46587 0.27363 0.64883 0.0
H1295 H 0.42099 0.21661 0.64672 0.0
H1296 H 0.74557 0.74957 0.66888 0.0
H1297 H 0.76488 0.80739 0.66026 0.0
H1298 H 0.84435 0.83466 0.71374 0.0
H1299 H 0.82505 0.77724 0.72247 0.0
H1300 H 0.77432 0.85568 0.69819 0.0
H1301 H 0.89018 0.88769 0.64794 0.0
H1302 H 0.85768 0.84605 0.65179 0.0
H1303 H 0.88408 0.86737 0.67852 0.0
C1304 C 0.76701 0.7679 0.67891 0.0
C1305 C 0.78402 0.75884 0.69622 0.0
C1306 C 0.77818 0.80089 0.67381 0.0
C1307 C 0.80657 0.82529 0.68582 0.0
C1308 C 0.82297 0.81628 0.70366 0.0
H1309 H 0.91323 0.02894 0.70905 0.0
H1310 H 0.89749 0.97352 0.69633 0.0
C1311 C 0.81172 0.78344 0.70885 0.0
C1312 C 0.81779 0.86025 0.68124 0.0
H1313 H 0.88235 0.93183 0.66028 0.0
C1314 C 0.7977 0.87234 0.68952 0.0
C1315 C 0.84863 0.88188 0.67043 0.0
C1316 C 0.87137 0.87014 0.66147 0.0
C1317 C 0.80802 0.90573 0.68839 0.0
C1318 C 0.83878 0.92764 0.67726 0.0
C1319 C 0.85858 0.91522 0.66835 0.0
C1320 C 0.85233 0.96371 0.67795 0.0
C1321 C 0.78661 0.91716 0.70087 0.0
C1322 C 0.83393 0.97804 0.66974 0.0
C1323 C 0.84262 0.00976 0.67763 0.0
C1324 C 0.87041 0.02782 0.69305 0.0
C1325 C 0.89145 0.01535 0.69744 0.0
C1326 C 0.88238 0.98351 0.69019 0.0
H1327 H 0.76855 0.89863 0.71431 0.0
H1328 H 0.80134 0.94001 0.71196 0.0
H1329 H 0.77281 0.92167 0.68562 0.0
H1330 H 0.81143 0.96382 0.65915 0.0
H1331 H 0.82603 0.0188 0.67383 0.0
H1332 H 0.00355 0.83223 0.71546 0.0
H1333 H 0.06141 0.86863 0.70641 0.0
H1334 H 0.03697 0.92765 0.65792 0.0
H1335 H 0.97914 0.89234 0.66847 0.0
H1336 H 0.10396 0.89402 0.66836 0.0
H1337 H 0.08762 0.99238 0.7123 0.0
H1338 H 0.05519 0.95062 0.71154 0.0
H1339 H 0.06514 0.97567 0.68299 0.0
C1340 C 0.01058 0.8526 0.70243 0.0
C1341 C 0.98723 0.86004 0.69304 0.0
C1342 C 0.0436 0.87339 0.69725 0.0
C1343 C 0.05363 0.90164 0.68234 0.0
C1344 C 0.0299 0.90678 0.67037 0.0
H1345 H 0.24711 0.0695 0.66812 0.0
H1346 H 0.19032 0.02881 0.66208 0.0
C1347 C 0.99691 0.88649 0.67614 0.0
C1348 C 0.08857 0.9272 0.68218 0.0
H1349 H 0.14072 0.00576 0.70076 0.0
C1350 C 0.11196 0.91846 0.67536 0.0
C1351 C 0.09907 0.95919 0.69138 0.0
C1352 C 0.07551 0.97002 0.70018 0.0
C1353 C 0.14543 0.9406 0.67793 0.0
C1354 C 0.15567 0.9721 0.68766 0.0
C1355 C 0.13253 0.98132 0.6936 0.0
C1356 C 0.19045 0.99621 0.69133 0.0
C1357 C 0.16974 0.93037 0.67013 0.0
C1358 C 0.2093 0.99154 0.71007 0.0
C1359 C 0.24239 0.01455 0.71303 0.0
C1360 C 0.25668 0.04243 0.6974 0.0
C1361 C 0.23728 0.04766 0.67964 0.0
C1362 C 0.2046 0.02456 0.67634 0.0
H1363 H 0.15817 0.90718 0.65903 0.0
H1364 H 0.18948 0.94963 0.6582 0.0
H1365 H 0.18111 0.92693 0.68775 0.0
H1366 H 0.19838 0.97022 0.72241 0.0
H1367 H 0.25671 0.01072 0.72751 0.0
H1368 H 0.18284 0.18897 0.71829 0.0
H1369 H 0.1455 0.20946 0.70909 0.0
H1370 H 0.09112 0.12879 0.65701 0.0
H1371 H 0.12729 0.10718 0.66762 0.0
H1372 H 0.12131 0.22796 0.67087 0.0
H1373 H 0.02269 0.10972 0.7093 0.0
H1374 H 0.06481 0.12008 0.70976 0.0
H1375 H 0.04148 0.10633 0.68025 0.0
C1376 C 0.16325 0.17604 0.70451 0.0
C1377 C 0.15734 0.14624 0.69404 0.0
C1378 C 0.14195 0.18773 0.69922 0.0
C1379 C 0.11471 0.16993 0.68317 0.0
C1380 C 0.11115 0.14218 0.6703 0.0
H1381 H 0.94985 0.20119 0.6627 0.0
H1382 H 0.99056 0.18472 0.65679 0.0
C1383 C 0.13194 0.13003 0.67613 0.0
C1384 C 0.08844 0.17842 0.68258 0.0
H1385 H 0.00847 0.14913 0.69858 0.0
C1386 C 0.09664 0.21065 0.67682 0.0
C1387 C 0.05611 0.1558 0.6904 0.0
C1388 C 0.04573 0.12115 0.698 0.0
C1389 C 0.07365 0.22099 0.67924 0.0
C1390 C 0.04185 0.19858 0.68764 0.0
C1391 C 0.03315 0.16617 0.69242 0.0
C1392 C 0.01722 0.20847 0.6916 0.0
C1393 C 0.08331 0.25579 0.67304 0.0
C1394 C 0.01854 0.22682 0.71342 0.0
C1395 C 0.99533 0.2366 0.71673 0.0
C1396 C 0.97085 0.22822 0.69816 0.0
C1397 C 0.96908 0.20898 0.67684 0.0
C1398 C 0.99214 0.19924 0.67353 0.0
H1399 H 0.1077 0.26917 0.66379 0.0
H1400 H 0.06503 0.25647 0.65994 0.0
H1401 H 0.08379 0.26864 0.69117 0.0
H1402 H 0.03758 0.23364 0.72775 0.0
H1403 H 0.9967 0.25097 0.73351 0.0
H1404 H 0.14205 0.42703 0.30039 0.0
H1405 H 0.12977 0.44807 0.26083 0.0
H1406 H 0.09117 0.35378 0.22508 0.0
H1407 H 0.10393 0.33296 0.26414 0.0
H1408 H 0.14609 0.44628 0.20264 0.0
H1409 H 0.01447 0.37566 0.22565 0.0
H1410 H 0.04583 0.38327 0.24911 0.0
H1411 H 0.03559 0.35305 0.22393 0.0
C1412 C 0.13143 0.41086 0.28398 0.0
C1413 C 0.12335 0.3779 0.28595 0.0
C1414 C 0.12433 0.42298 0.26124 0.0
C1415 C 0.10897 0.40254 0.23975 0.0
C1416 C 0.10256 0.37017 0.24126 0.0
H1417 H 0.99762 0.40233 0.10453 0.0
H1418 H 0.02118 0.39158 0.14253 0.0
C1419 C 0.10982 0.35819 0.26381 0.0
C1420 C 0.09772 0.414 0.21646 0.0
H1421 H 0.02843 0.40204 0.18586 0.0
C1422 C 0.12036 0.4366 0.19883 0.0
C1423 C 0.06425 0.40166 0.2111 0.0
C1424 C 0.03845 0.37718 0.22857 0.0
C1425 C 0.11044 0.44578 0.17576 0.0
C1426 C 0.07653 0.43327 0.17044 0.0
C1427 C 0.05429 0.41162 0.18883 0.0
C1428 C 0.06281 0.44059 0.14605 0.0
C1429 C 0.13681 0.46767 0.15708 0.0
C1430 C 0.07732 0.47172 0.13429 0.0
C1431 C 0.06474 0.4771 0.11113 0.0
C1432 C 0.03582 0.4523 0.09995 0.0
C1433 C 0.01977 0.4221 0.11268 0.0
C1434 C 0.03349 0.41604 0.13472 0.0
H1435 H 0.15931 0.46617 0.1598 0.0
H1436 H 0.12879 0.46131 0.13668 0.0
H1437 H 0.1434 0.49334 0.16076 0.0
H1438 H 0.09851 0.49212 0.14278 0.0
H1439 H 0.0777 0.50076 0.10191 0.0
H1440 H 0.6838 0.79306 0.26411 0.0
H1441 H 0.66514 0.75911 0.22512 0.0
H1442 H 0.5705 0.70065 0.2596 0.0
H1443 H 0.58935 0.7346 0.29891 0.0
H1444 H 0.64148 0.68916 0.22574 0.0
H1445 H 0.54928 0.7157 0.18392 0.0
H1446 H 0.57951 0.74264 0.20697 0.0
H1447 H 0.54526 0.70516 0.21771 0.0
C1448 C 0.65889 0.77311 0.26344 0.0
C1449 C 0.6386 0.76595 0.28531 0.0
C1450 C 0.64817 0.75365 0.24095 0.0
C1451 C 0.61639 0.7268 0.23914 0.0
C1452 C 0.59517 0.72104 0.26021 0.0
H1453 H 0.51967 0.59154 0.1071 0.0
H1454 H 0.53157 0.62255 0.14758 0.0
C1455 C 0.60605 0.74048 0.28287 0.0
C1456 C 0.60667 0.70383 0.21614 0.0
H1457 H 0.55684 0.67588 0.16288 0.0
C1458 C 0.62295 0.68625 0.21201 0.0
C1459 C 0.58196 0.69915 0.19828 0.0
C1460 C 0.56301 0.71673 0.20169 0.0
C1461 C 0.61515 0.66398 0.19125 0.0
C1462 C 0.59144 0.66023 0.17235 0.0
C1463 C 0.57506 0.67804 0.17667 0.0
C1464 C 0.58328 0.63837 0.14829 0.0
C1465 C 0.63176 0.64381 0.19109 0.0
C1466 C 0.60745 0.63526 0.13451 0.0
C1467 C 0.59977 0.61479 0.11267 0.0
C1468 C 0.56827 0.5991 0.10199 0.0
C1469 C 0.54411 0.60274 0.11498 0.0
C1470 C 0.55125 0.62126 0.13805 0.0
H1471 H 0.63822 0.64021 0.21103 0.0
H1472 H 0.61612 0.61941 0.18241 0.0
H1473 H 0.65496 0.65695 0.18014 0.0
H1474 H 0.63278 0.64942 0.13994 0.0
H1475 H 0.61923 0.61333 0.10286 0.0
H1476 H 0.39031 0.92527 0.09038 0.0
H1477 H 0.35867 0.90646 0.13053 0.0
H1478 H 0.40061 0.00582 0.15648 0.0
H1479 H 0.43277 0.02482 0.11636 0.0
H1480 H 0.37619 0.91441 0.18416 0.0
H1481 H 0.30063 0.97026 0.16051 0.0
H1482 H 0.32506 0.96432 0.13665 0.0
H1483 H 0.34386 0.99782 0.15896 0.0
C1484 C 0.39331 0.94321 0.10478 0.0
C1485 C 0.41451 0.97671 0.09998 0.0
C1486 C 0.37499 0.93234 0.12783 0.0
C1487 C 0.37662 0.95457 0.14669 0.0
C1488 C 0.39841 0.98799 0.14228 0.0
H1489 H 0.30284 0.91031 0.30703 0.0
H1490 H 0.33573 0.92497 0.26766 0.0
C1491 C 0.41721 0.99889 0.11937 0.0
C1492 C 0.35519 0.94281 0.17057 0.0
H1493 H 0.29422 0.94786 0.20251 0.0
C1494 C 0.3583 0.92179 0.18815 0.0
C1495 C 0.33102 0.95146 0.17574 0.0
C1496 C 0.32456 0.97194 0.15691 0.0
C1497 C 0.33887 0.9101 0.2108 0.0
C1498 C 0.31566 0.91999 0.21663 0.0
C1499 C 0.312 0.94032 0.19861 0.0
C1500 C 0.29517 0.90985 0.24117 0.0
C1501 C 0.34299 0.88656 0.22788 0.0
C1502 C 0.26114 0.89741 0.24027 0.0
C1503 C 0.24237 0.88984 0.26317 0.0
C1504 C 0.25687 0.89384 0.28769 0.0
C1505 C 0.29068 0.9058 0.2886 0.0
C1506 C 0.30958 0.91414 0.26583 0.0
H1507 H 0.35324 0.87352 0.21692 0.0
H1508 H 0.3603 0.90025 0.24373 0.0
H1509 H 0.31945 0.86824 0.23658 0.0
H1510 H 0.24902 0.89386 0.22178 0.0
H1511 H 0.21649 0.88112 0.2617 0.0
H1512 H 0.48388 0.03225 0.92816 0.0
H1513 H 0.47129 0.05297 0.88857 0.0
H1514 H 0.4083 0.07607 0.93295 0.0
H1515 H 0.42195 0.05727 0.97176 0.0
H1516 H 0.42303 0.0366 0.86095 0.0
H1517 H 0.44731 0.15653 0.89534 0.0
H1518 H 0.45864 0.13185 0.91432 0.0
H1519 H 0.41798 0.12618 0.91643 0.0
C1520 C 0.46815 0.04272 0.92949 0.0
C1521 C 0.45498 0.04404 0.9536 0.0
C1522 C 0.46066 0.05442 0.90673 0.0
C1523 C 0.43945 0.06744 0.90736 0.0
C1524 C 0.42611 0.06818 0.9315 0.0
H1525 H 0.326 0.10299 0.78817 0.0
H1526 H 0.3458 0.09082 0.82861 0.0
C1527 C 0.43397 0.05708 0.95407 0.0
C1528 C 0.42934 0.07807 0.88293 0.0
H1529 H 0.41125 0.13495 0.85863 0.0
C1530 C 0.42092 0.05836 0.86057 0.0
C1531 C 0.4266 0.10673 0.88164 0.0
C1532 C 0.4385 0.13164 0.90314 0.0
C1533 C 0.40919 0.06578 0.83782 0.0
C1534 C 0.40478 0.09328 0.8372 0.0
C1535 C 0.41361 0.11332 0.85922 0.0
C1536 C 0.39299 0.1026 0.81329 0.0
C1537 C 0.40141 0.04397 0.81447 0.0
C1538 C 0.41311 0.11442 0.79143 0.0
C1539 C 0.4021 0.12185 0.76859 0.0
C1540 C 0.37032 0.11746 0.76655 0.0
C1541 C 0.35051 0.10677 0.78882 0.0
C1542 C 0.3618 0.0996 0.81196 0.0
H1543 H 0.40065 0.02072 0.81927 0.0
H1544 H 0.37765 0.03842 0.80593 0.0
H1545 H 0.42046 0.05676 0.79952 0.0
H1546 H 0.4374 0.11756 0.79189 0.0
H1547 H 0.41853 0.13028 0.75218 0.0
H1548 H 0.94474 0.38238 0.97182 0.0
H1549 H 0.92589 0.35037 0.9323 0.0
H1550 H 0.97551 0.43854 0.88715 0.0
H1551 H 0.99546 0.4705 0.92717 0.0
H1552 H 0.89059 0.33992 0.89415 0.0
H1553 H 0.01354 0.39526 0.85053 0.0
H1554 H 0.00764 0.40786 0.88189 0.0
H1555 H 1.00006 0.42438 0.85309 0.0
C1556 C 0.95066 0.39522 0.9536 0.0
C1557 C 0.97097 0.42933 0.95296 0.0
C1558 C 0.94022 0.37664 0.93067 0.0
C1559 C 0.94979 0.3914 0.90608 0.0
C1560 C 0.96868 0.42581 0.90547 0.0
H1561 H 0.89873 0.31415 0.74895 0.0
H1562 H 0.91099 0.34474 0.78901 0.0
C1563 C 0.9797 0.44435 0.9285 0.0
C1564 C 0.94032 0.37052 0.88164 0.0
H1565 H 0.96934 0.35871 0.8239 0.0
C1566 C 0.90817 0.34404 0.87907 0.0
C1567 C 0.96265 0.37538 0.86124 0.0
C1568 C 0.9979 0.40203 0.86194 0.0
C1569 C 0.89801 0.32299 0.85727 0.0
C1570 C 0.92036 0.32796 0.83719 0.0
C1571 C 0.95222 0.35446 0.83941 0.0
C1572 C 0.9108 0.30733 0.81297 0.0
C1573 C 0.86308 0.29595 0.85537 0.0
C1574 C 0.90628 0.27549 0.81262 0.0
C1575 C 0.89972 0.25765 0.78918 0.0
C1576 C 0.89704 0.27103 0.76551 0.0
C1577 C 0.90059 0.30254 0.76638 0.0
C1578 C 0.90767 0.32039 0.78951 0.0
H1579 H 0.84787 0.29667 0.87146 0.0
H1580 H 0.85242 0.29766 0.83667 0.0
H1581 H 0.86217 0.27207 0.85574 0.0
H1582 H 0.9086 0.26471 0.83041 0.0
H1583 H 0.89725 0.23367 0.78957 0.0
H1584 H 0.73231 0.59693 0.75991 0.0
H1585 H 0.6995 0.57578 0.79938 0.0
H1586 H 0.72499 0.67332 0.8215 0.0
H1587 H 0.75854 0.69479 0.78205 0.0
H1588 H 0.72345 0.60693 0.86022 0.0
H1589 H 0.61491 0.60256 0.81481 0.0
H1590 H 0.64429 0.59795 0.79558 0.0
H1591 H 0.65499 0.63687 0.80907 0.0
C1592 C 0.7316 0.61408 0.77342 0.0
C1593 C 0.74874 0.64779 0.76782 0.0
C1594 C 0.71256 0.60183 0.79602 0.0
C1595 C 0.70944 0.62276 0.81366 0.0
C1596 C 0.72697 0.65651 0.80842 0.0
H1597 H 0.55965 0.57828 0.93181 0.0
H1598 H 0.59483 0.5944 0.8944 0.0
C1599 C 0.74651 0.66888 0.78592 0.0
C1600 C 0.68718 0.60914 0.83697 0.0
H1601 H 0.60923 0.58319 0.85697 0.0
C1602 C 0.69853 0.60216 0.85985 0.0
C1603 C 0.65461 0.60259 0.83655 0.0
C1604 C 0.64113 0.61021 0.81276 0.0
C1605 C 0.679 0.59031 0.88254 0.0
C1606 C 0.64567 0.58298 0.88227 0.0
C1607 C 0.63435 0.58903 0.85858 0.0
C1608 C 0.62266 0.57115 0.90599 0.0
C1609 C 0.69555 0.58736 0.90652 0.0
C1610 C 0.62403 0.55124 0.92599 0.0
C1611 C 0.60552 0.54471 0.94907 0.0
C1612 C 0.58311 0.5558 0.95234 0.0
C1613 C 0.57803 0.57106 0.93091 0.0
C1614 C 0.5981 0.57971 0.9088 0.0
H1615 H 0.72249 0.60281 0.90529 0.0
H1616 H 0.68745 0.59475 0.92413 0.0
H1617 H 0.69019 0.56181 0.90849 0.0
H1618 H 0.63957 0.54074 0.92425 0.0
H1619 H 0.60937 0.53157 0.96458 0.0
H1620 H 0.73442 0.76639 0.41567 0.0
H1621 H 0.75193 0.75361 0.45552 0.0
H1622 H 0.70084 0.79244 0.49868 0.0
H1623 H 0.67937 0.80117 0.45819 0.0
H1624 H 0.78748 0.77828 0.49009 0.0
H1625 H 0.67083 0.72 0.54369 0.0
H1626 H 0.67269 0.73107 0.51018 0.0
H1627 H 0.68269 0.7611 0.53545 0.0
C1628 C 0.72625 0.77192 0.43354 0.0
C1629 C 0.70466 0.78448 0.43312 0.0
C1630 C 0.73671 0.76467 0.45678 0.0
C1631 C 0.72749 0.77097 0.48107 0.0
C1632 C 0.70734 0.78532 0.48079 0.0
H1633 H 0.79624 0.75627 0.63826 0.0
H1634 H 0.78044 0.77466 0.5991 0.0
C1635 C 0.69537 0.79105 0.4573 0.0
C1636 C 0.73968 0.76285 0.50596 0.0
H1637 H 0.71801 0.73153 0.5676 0.0
C1638 C 0.77173 0.76763 0.50672 0.0
C1639 C 0.72003 0.74888 0.52845 0.0
C1640 C 0.68459 0.73964 0.52933 0.0
C1641 C 0.7841 0.7589 0.52844 0.0
C1642 C 0.76471 0.74588 0.55089 0.0
C1643 C 0.73312 0.74166 0.55058 0.0
C1644 C 0.77646 0.73581 0.57456 0.0
C1645 C 0.81806 0.76371 0.52731 0.0
C1646 C 0.78023 0.7081 0.57414 0.0
C1647 C 0.78863 0.6972 0.59678 0.0
C1648 C 0.79383 0.71379 0.62055 0.0
C1649 C 0.79198 0.74259 0.62056 0.0
C1650 C 0.78287 0.75312 0.59806 0.0
H1651 H 0.83201 0.77865 0.51039 0.0
H1652 H 0.83167 0.7756 0.54531 0.0
H1653 H 0.81652 0.73959 0.52582 0.0
H1654 H 0.77546 0.69411 0.55647 0.0
H1655 H 0.78987 0.67499 0.59591 0.0
H1656 H 0.20646 0.96148 0.42429 0.0
H1657 H 0.2193 0.99281 0.46426 0.0
H1658 H 0.26477 0.94032 0.49446 0.0
H1659 H 0.25258 0.90916 0.45371 0.0
H1660 H 0.20513 0.98184 0.51394 0.0
H1661 H 0.3382 0.03208 0.5038 0.0
H1662 H 0.30988 0.00925 0.4783 0.0
H1663 H 0.31562 0.98841 0.50517 0.0
C1664 C 0.21886 0.95613 0.43951 0.0
C1665 C 0.22849 0.93257 0.4355 0.0
C1666 C 0.22628 0.9743 0.46254 0.0
C1667 C 0.24384 0.96988 0.48255 0.0
C1668 C 0.25199 0.94511 0.47925 0.0
H1669 H 0.27398 0.04921 0.64021 0.0
H1670 H 0.2539 0.01601 0.60115 0.0
C1671 C 0.24448 0.92674 0.45603 0.0
C1672 C 0.25397 0.99179 0.50626 0.0
H1673 H 0.3203 0.04534 0.54228 0.0
C1674 C 0.23033 0.99546 0.52017 0.0
C1675 C 0.28698 0.01073 0.51431 0.0
C1676 C 0.31422 0.01028 0.4995 0.0
C1677 C 0.23854 0.01637 0.54197 0.0
C1678 C 0.27134 0.03428 0.55055 0.0
C1679 C 0.29508 0.03135 0.53625 0.0
C1680 C 0.2814 0.05562 0.57449 0.0
C1681 C 0.2121 0.01985 0.5553 0.0
C1682 C 0.30385 0.08933 0.57313 0.0
C1683 C 0.31488 0.1087 0.59576 0.0
C1684 C 0.30381 0.09498 0.62048 0.0
C1685 C 0.28134 0.06129 0.62173 0.0
C1686 C 0.27021 0.042 0.59918 0.0
H1687 H 0.1894 0.00946 0.54359 0.0
H1688 H 0.20625 0.0069 0.57415 0.0
H1689 H 0.22048 0.04593 0.55925 0.0
H1690 H 0.31327 0.10066 0.55451 0.0
H1691 H 0.33272 0.13433 0.59399 0.0
H1692 H 0.88023 0.20517 0.59353 0.0
H1693 H 0.91411 0.21773 0.55449 0.0
H1694 H 1.00041 0.2671 0.60193 0.0
H1695 H 0.96691 0.25185 0.64031 0.0
H1696 H 0.94897 0.26398 0.52901 0.0
H1697 H 0.03851 0.22923 0.56035 0.0
H1698 H 1.00304 0.21911 0.57956 0.0
H1699 H 0.03964 0.25845 0.5828 0.0
C1700 C 0.90649 0.2176 0.59558 0.0
C1701 C 0.92058 0.22632 0.62039 0.0
C1702 C 0.92611 0.22525 0.57311 0.0
C1703 C 0.9606 0.24278 0.57457 0.0
C1704 C 0.97438 0.25186 0.59953 0.0
H1705 H 0.1098 0.35574 0.45485 0.0
H1706 H 0.07756 0.33663 0.49514 0.0
C1707 C 0.95485 0.24317 0.6219 0.0
C1708 C 0.98189 0.25339 0.55025 0.0
H1709 H 0.05506 0.26698 0.52497 0.0
C1710 C 0.9719 0.26409 0.52834 0.0
C1711 C 0.01215 0.25366 0.54833 0.0
C1712 C 0.02369 0.23912 0.56893 0.0
C1713 C 0.99103 0.27533 0.50552 0.0
C1714 C 0.0219 0.27735 0.50441 0.0
C1715 C 0.03191 0.26647 0.52596 0.0
C1716 C 0.04304 0.28881 0.48045 0.0
C1717 C 0.97803 0.2849 0.48251 0.0
C1718 C 0.03526 0.26822 0.45887 0.0
C1719 C 0.05393 0.27886 0.43606 0.0
C1720 C 0.08104 0.31071 0.43377 0.0
C1721 C 0.08945 0.33108 0.45572 0.0
C1722 C 0.07079 0.32019 0.47878 0.0
H1723 H 0.95548 0.28559 0.4872 0.0
H1724 H 0.99672 0.30915 0.47513 0.0
H1725 H 0.9724 0.26697 0.46668 0.0
H1726 H 0.01432 0.24387 0.45951 0.0
H1727 H 0.0463 0.26213 0.41985 0.0
loop_
_geom_bond_atom_site_label_1
_geom_bond_atom_site_label_2
_geom_bond_distance
_geom_bond_site_symmetry_2
_ccdc_geom_bond_type
Eu0 N29 2.600 . S
Eu0 N35 2.562 1_556 S
Eu0 O44 2.462 1_556 S
Eu0 O45 2.373 1_455 S
Eu0 O47 2.432 . S
Eu0 O48 2.291 1_556 S
Eu0 O52 2.335 . S
Eu0 O55 2.372 . S
Eu0 C64 2.787 . S
C1 N2 1.369 1_455 S
C1 C4 1.405 . S
C1 C8 1.448 . S
N2 C1 1.369 1_655 S
N2 C5 1.314 1_655 S
N2 Eu11 2.597 . S
C3 C5 1.398 . S
C3 C6 1.367 . S
C3 H23 0.931 . S
C4 C1 1.405 . S
C4 C6 1.403 . S
C4 C10 1.439 . S
C5 N2 1.314 1_455 S
C5 C3 1.398 . S
C5 H16 0.933 1_455 S
C6 C3 1.367 . S
C6 C4 1.403 . S
C6 H27 0.929 . S
C7 C8 1.437 . S
C7 C9 1.399 . S
C7 C13 1.385 1_554 S
C8 C1 1.448 . S
C8 C7 1.437 . S
C8 N12 1.351 1_454 S
C9 C7 1.399 . S
C9 C10 1.374 . S
C9 H24 0.931 . S
C10 C4 1.439 . S
C10 C9 1.374 . S
C10 H25 0.931 . S
Eu11 N2 2.597 . S
Eu11 N12 2.562 1_554 S
Eu11 O46 2.335 . S
Eu11 O49 2.372 . S
Eu11 O50 2.462 1_554 S
Eu11 O51 2.373 1_655 S
Eu11 O53 2.432 . S
Eu11 O54 2.291 1_554 S
Eu11 C75 2.787 . S
N12 C8 1.351 1_656 S
N12 Eu11 2.562 1_556 S
N12 C14 1.325 . S
C13 C7 1.385 1_556 S
C13 C15 1.366 . S
C13 H21 0.930 . S
C14 N12 1.325 . S
C14 C15 1.416 1_655 S
C14 H20 0.929 . S
C15 C13 1.366 . S
C15 C14 1.416 1_455 S
C15 H17 0.930 . S
H16 C5 0.933 1_655 S
H17 C15 0.930 . S
H18 C33 0.930 . S
H19 C40 0.930 . S
H20 C14 0.929 . S
H21 C13 0.930 . S
H22 C36 0.929 . S
H23 C3 0.931 . S
H24 C9 0.931 . S
H25 C10 0.931 . S
H26 C31 0.931 . S
H27 C6 0.929 . S
H28 C39 0.930 . S
N29 Eu0 2.600 . S
N29 C30 1.365 . S
N29 C33 1.319 . S
C30 N29 1.365 . S
C30 C32 1.405 1_455 S
C30 C38 1.448 . S
C31 H26 0.931 . S
C31 C33 1.397 1_655 S
C31 C34 1.367 . S
C32 C30 1.405 1_655 S
C32 C34 1.403 . S
C32 C65 1.439 . S
C33 H18 0.930 . S
C33 N29 1.319 . S
C33 C31 1.397 1_455 S
C34 C31 1.367 . S
C34 C32 1.403 . S
C34 H41 0.929 . S
N35 Eu0 2.562 1_554 S
N35 C36 1.325 . S
N35 C38 1.351 1_554 S
C36 H22 0.929 . S
C36 N35 1.325 . S
C36 C40 1.416 . S
C37 C38 1.430 1_654 S
C37 C39 1.404 . S
C37 C66 1.387 1_554 S
C38 C30 1.448 . S
C38 N35 1.351 1_556 S
C38 C37 1.430 1_456 S
C39 H28 0.930 . S
C39 C37 1.404 . S
C39 C40 1.366 1_655 S
C40 H19 0.930 . S
C40 C36 1.416 . S
C40 C39 1.366 1_455 S
H41 C34 0.929 . S
H42 C65 0.931 . S
H43 C66 0.931 . S
O44 Eu0 2.462 1_554 S
O44 C64 1.252 1_554 S
O45 Eu0 2.373 1_655 S
O45 C56 1.249 1_556 S
O46 Eu11 2.335 . S
O46 C56 1.264 . S
O47 Eu0 2.432 . S
O47 C64 1.268 . S
O48 Eu0 2.291 1_554 S
O48 C63 1.255 . S
O49 Eu11 2.372 . S
O49 C63 1.257 1_655 S
O50 Eu11 2.462 1_556 S
O50 C75 1.252 1_556 S
O51 Eu11 2.373 1_455 S
O51 C67 1.249 1_554 S
O52 Eu0 2.335 . S
O52 C67 1.264 . S
O53 Eu11 2.432 . S
O53 C75 1.268 . S
O54 Eu11 2.291 1_556 S
O54 C74 1.255 . S
O55 Eu0 2.372 . S
O55 C74 1.257 1_455 S
C56 O45 1.249 1_554 S
C56 O46 1.264 . S
C57 C60 1.382 . S
C57 C62 1.390 1_556 S
C57 C64 1.506 . S
C58 C59 1.398 1_554 S
C58 C62 1.392 . S
C59 C58 1.398 1_556 S
C59 C61 1.372 . S
C59 H76 0.931 . S
C60 C57 1.382 . S
C60 C61 1.390 . S
C60 H77 0.931 . S
C61 C59 1.372 . S
C61 C60 1.390 . S
C61 H78 0.929 . S
C62 C57 1.390 1_554 S
C62 C58 1.392 . S
C62 H79 0.930 . S
C63 O48 1.255 . S
C63 O49 1.257 1_455 S
C64 Eu0 2.787 . S
C64 O44 1.252 1_556 S
C64 O47 1.268 . S
C64 C57 1.506 . S
C65 C32 1.439 . S
C65 H42 0.931 . S
C65 C66 1.374 . S
C66 C37 1.387 1_556 S
C66 H43 0.931 . S
C66 C65 1.374 . S
C67 O51 1.249 1_556 S
C67 O52 1.264 . S
C68 C71 1.382 . S
C68 C72 1.390 1_554 S
C68 C75 1.506 . S
C69 C70 1.398 1_556 S
C69 C72 1.392 . S
C70 C69 1.398 1_554 S
C70 C73 1.372 . S
C70 H80 0.931 . S
C71 C68 1.382 . S
C71 C73 1.390 . S
C71 H81 0.931 . S
C72 C68 1.390 1_556 S
C72 C69 1.392 . S
C72 H82 0.930 . S
C73 C70 1.372 . S
C73 C71 1.390 . S
C73 H83 0.929 . S
C74 O54 1.255 . S
C74 O55 1.257 1_655 S
C75 Eu11 2.787 . S
C75 O50 1.252 1_554 S
C75 O53 1.268 . S
C75 C68 1.506 . S
H76 C59 0.931 . S
H77 C60 0.931 . S
H78 C61 0.929 . S
H79 C62 0.930 . S
H80 C70 0.931 . S
H81 C71 0.931 . S
H82 C72 0.930 . S
H83 C73 0.929 . S
Eu84 N113 2.600 . S
Eu84 N119 2.562 1_556 S
Eu84 O128 2.462 1_556 S
Eu84 O129 2.373 . S
Eu84 O131 2.432 . S
Eu84 O132 2.291 1_556 S
Eu84 O136 2.335 . S
Eu84 O139 2.372 . S
Eu84 C148 2.787 . S
C85 N86 1.365 . S
C85 C88 1.405 . S
C85 C92 1.448 . S
N86 C85 1.365 . S
N86 C89 1.319 . S
N86 Eu95 2.600 . S
C87 C89 1.397 . S
C87 C90 1.367 . S
C87 H107 0.931 . S
C88 C85 1.405 . S
C88 C90 1.403 . S
C88 C94 1.439 . S
C89 N86 1.319 . S
C89 C87 1.397 . S
C89 H100 0.930 . S
C90 C87 1.367 . S
C90 C88 1.403 . S
C90 H111 0.929 . S
C91 C92 1.437 . S
C91 C93 1.399 . S
C91 C97 1.385 1_554 S
C92 C85 1.448 . S
C92 C91 1.437 . S
C92 N96 1.351 1_554 S
C93 C91 1.399 . S
C93 C94 1.374 . S
C93 H108 0.931 . S
C94 C88 1.439 . S
C94 C93 1.374 . S
C94 H109 0.931 . S
Eu95 N86 2.600 . S
Eu95 N96 2.562 1_554 S
Eu95 O130 2.335 . S
Eu95 O133 2.372 . S
Eu95 O134 2.462 1_554 S
Eu95 O135 2.373 . S
Eu95 O137 2.432 . S
Eu95 O138 2.291 1_554 S
Eu95 C159 2.787 . S
N96 C92 1.351 1_556 S
N96 Eu95 2.562 1_556 S
N96 C98 1.325 . S
C97 C91 1.385 1_556 S
C97 C99 1.366 . S
C97 H105 0.930 . S
C98 N96 1.325 . S
C98 C99 1.416 . S
C98 H104 0.929 . S
C99 C97 1.366 . S
C99 C98 1.416 . S
C99 H101 0.930 . S
H100 C89 0.930 . S
H101 C99 0.930 . S
H102 C117 0.930 . S
H103 C124 0.930 . S
H104 C98 0.929 . S
H105 C97 0.930 . S
H106 C120 0.929 . S
H107 C87 0.931 . S
H108 C93 0.931 . S
H109 C94 0.931 . S
H110 C115 0.931 . S
H111 C90 0.929 . S
H112 C123 0.930 . S
N113 Eu84 2.600 . S
N113 C114 1.365 . S
N113 C117 1.319 . S
C114 N113 1.365 . S
C114 C116 1.405 . S
C114 C122 1.448 . S
C115 H110 0.931 . S
C115 C117 1.397 . S
C115 C118 1.367 . S
C116 C114 1.405 . S
C116 C118 1.403 . S
C116 C149 1.439 . S
C117 H102 0.930 . S
C117 N113 1.319 . S
C117 C115 1.397 . S
C118 C115 1.367 . S
C118 C116 1.403 . S
C118 H125 0.929 . S
N119 Eu84 2.562 1_554 S
N119 C120 1.325 . S
N119 C122 1.351 1_554 S
C120 H106 0.929 . S
C120 N119 1.325 . S
C120 C124 1.416 . S
C121 C122 1.430 1_554 S
C121 C123 1.404 . S
C121 C150 1.387 1_554 S
C122 C114 1.448 . S
C122 N119 1.351 1_556 S
C122 C121 1.430 1_556 S
C123 H112 0.930 . S
C123 C121 1.404 . S
C123 C124 1.366 . S
C124 H103 0.930 . S
C124 C120 1.416 . S
C124 C123 1.366 . S
H125 C118 0.929 . S
H126 C149 0.931 . S
H127 C150 0.931 . S
O128 Eu84 2.462 1_554 S
O128 C148 1.252 1_554 S
O129 Eu84 2.373 . S
O129 C140 1.249 1_556 S
O130 Eu95 2.335 . S
O130 C140 1.264 . S
O131 Eu84 2.432 . S
O131 C148 1.268 . S
O132 Eu84 2.291 1_554 S
O132 C147 1.255 . S
O133 Eu95 2.372 . S
O133 C147 1.257 . S
O134 Eu95 2.462 1_556 S
O134 C159 1.252 1_556 S
O135 Eu95 2.373 . S
O135 C151 1.249 1_554 S
O136 Eu84 2.335 . S
O136 C151 1.264 . S
O137 Eu95 2.432 . S
O137 C159 1.268 . S
O138 Eu95 2.291 1_556 S
O138 C158 1.255 . S
O139 Eu84 2.372 . S
O139 C158 1.257 . S
C140 O129 1.249 1_554 S
C140 O130 1.264 . S
C141 C144 1.382 . S
C141 C146 1.390 1_556 S
C141 C148 1.506 . S
C142 C143 1.398 1_554 S
C142 C146 1.392 . S
C143 C142 1.398 1_556 S
C143 C145 1.372 . S
C143 H160 0.931 . S
C144 C141 1.382 . S
C144 C145 1.390 . S
C144 H161 0.931 . S
C145 C143 1.372 . S
C145 C144 1.390 . S
C145 H162 0.929 . S
C146 C141 1.390 1_554 S
C146 C142 1.392 . S
C146 H163 0.930 . S
C147 O132 1.255 . S
C147 O133 1.257 . S
C148 Eu84 2.787 . S
C148 O128 1.252 1_556 S
C148 O131 1.268 . S
C148 C141 1.506 . S
C149 C116 1.439 . S
C149 H126 0.931 . S
C149 C150 1.374 . S
C150 C121 1.387 1_556 S
C150 H127 0.931 . S
C150 C149 1.374 . S
C151 O135 1.249 1_556 S
C151 O136 1.264 . S
C152 C155 1.382 . S
C152 C156 1.390 1_554 S
C152 C159 1.506 . S
C153 C154 1.398 1_556 S
C153 C156 1.392 . S
C154 C153 1.398 1_554 S
C154 C157 1.372 . S
C154 H164 0.931 . S
C155 C152 1.382 . S
C155 C157 1.390 . S
C155 H165 0.931 . S
C156 C152 1.390 1_556 S
C156 C153 1.392 . S
C156 H166 0.930 . S
C157 C154 1.372 . S
C157 C155 1.390 . S
C157 H167 0.929 . S
C158 O138 1.255 . S
C158 O139 1.257 . S
C159 Eu95 2.787 . S
C159 O134 1.252 1_554 S
C159 O137 1.268 . S
C159 C152 1.506 . S
H160 C143 0.931 . S
H161 C144 0.931 . S
H162 C145 0.929 . S
H163 C146 0.930 . S
H164 C154 0.931 . S
H165 C155 0.931 . S
H166 C156 0.930 . S
H167 C157 0.929 . S
Eu168 N197 2.600 . S
Eu168 N203 2.562 1_556 S
Eu168 O212 2.462 1_556 S
Eu168 O213 2.373 1_565 S
Eu168 O215 2.432 . S
Eu168 O216 2.291 1_556 S
Eu168 O220 2.335 . S
Eu168 O223 2.372 . S
Eu168 C232 2.787 . S
C169 N170 1.364 . S
C169 C172 1.406 1_545 S
C169 C176 1.448 . S
N170 C169 1.364 . S
N170 C173 1.319 . S
N170 Eu179 2.600 . S
C171 C173 1.397 1_565 S
C171 C174 1.367 . S
C171 H191 0.931 . S
C172 C169 1.406 1_565 S
C172 C174 1.403 . S
C172 C178 1.439 . S
C173 N170 1.319 . S
C173 C171 1.397 1_545 S
C173 H184 0.930 . S
C174 C171 1.367 . S
C174 C172 1.403 . S
C174 H195 0.929 . S
C175 C176 1.437 1_565 S
C175 C177 1.399 . S
C175 C181 1.385 1_554 S
C176 C169 1.448 . S
C176 C175 1.437 1_545 S
C176 N180 1.351 1_554 S
C177 C175 1.399 . S
C177 C178 1.374 . S
C177 H192 0.931 . S
C178 C172 1.439 . S
C178 C177 1.374 . S
C178 H193 0.931 . S
Eu179 N170 2.600 . S
Eu179 N180 2.562 1_554 S
Eu179 O214 2.335 . S
Eu179 O217 2.372 . S
Eu179 O218 2.462 1_554 S
Eu179 O219 2.373 1_545 S
Eu179 O221 2.432 . S
Eu179 O222 2.291 1_554 S
Eu179 C243 2.787 . S
N180 C176 1.351 1_556 S
N180 Eu179 2.562 1_556 S
N180 C182 1.325 . S
C181 C175 1.385 1_556 S
C181 C183 1.366 1_565 S
C181 H189 0.930 . S
C182 N180 1.325 . S
C182 C183 1.416 . S
C182 H188 0.929 . S
C183 C181 1.366 1_545 S
C183 C182 1.416 . S
C183 H185 0.930 . S
H184 C173 0.930 . S
H185 C183 0.930 . S
H186 C201 0.930 . S
H187 C208 0.930 . S
H188 C182 0.929 . S
H189 C181 0.930 . S
H190 C204 0.929 . S
H191 C171 0.931 . S
H192 C177 0.931 . S
H193 C178 0.931 . S
H194 C199 0.931 . S
H195 C174 0.929 . S
H196 C207 0.930 . S
N197 Eu168 2.600 . S
N197 C198 1.365 1_565 S
N197 C201 1.319 . S
C198 N197 1.365 1_545 S
C198 C200 1.405 . S
C198 C206 1.448 . S
C199 H194 0.931 . S
C199 C201 1.397 1_545 S
C199 C202 1.367 . S
C200 C198 1.405 . S
C200 C202 1.403 . S
C200 C233 1.439 . S
C201 H186 0.930 . S
C201 N197 1.319 . S
C201 C199 1.397 1_565 S
C202 C199 1.367 . S
C202 C200 1.403 . S
C202 H209 0.929 . S
N203 Eu168 2.562 1_554 S
N203 C204 1.325 . S
N203 C206 1.351 1_564 S
C204 H190 0.929 . S
C204 N203 1.325 . S
C204 C208 1.416 1_565 S
C205 C206 1.430 1_554 S
C205 C207 1.404 . S
C205 C234 1.387 1_554 S
C206 C198 1.448 . S
C206 N203 1.351 1_546 S
C206 C205 1.430 1_556 S
C207 H196 0.930 . S
C207 C205 1.404 . S
C207 C208 1.366 . S
C208 H187 0.930 . S
C208 C204 1.416 1_545 S
C208 C207 1.366 . S
H209 C202 0.929 . S
H210 C233 0.931 . S
H211 C234 0.931 . S
O212 Eu168 2.462 1_554 S
O212 C232 1.252 1_554 S
O213 Eu168 2.373 1_545 S
O213 C224 1.249 1_556 S
O214 Eu179 2.335 . S
O214 C224 1.264 . S
O215 Eu168 2.432 . S
O215 C232 1.268 . S
O216 Eu168 2.291 1_554 S
O216 C231 1.255 . S
O217 Eu179 2.372 . S
O217 C231 1.257 1_545 S
O218 Eu179 2.462 1_556 S
O218 C243 1.252 1_556 S
O219 Eu179 2.373 1_565 S
O219 C235 1.249 1_554 S
O220 Eu168 2.335 . S
O220 C235 1.264 . S
O221 Eu179 2.432 . S
O221 C243 1.268 . S
O222 Eu179 2.291 1_556 S
O222 C242 1.255 . S
O223 Eu168 2.372 . S
O223 C242 1.257 1_565 S
C224 O213 1.249 1_554 S
C224 O214 1.264 . S
C225 C228 1.382 . S
C225 C230 1.390 1_556 S
C225 C232 1.506 . S
C226 C227 1.398 1_554 S
C226 C230 1.392 . S
C227 C226 1.398 1_556 S
C227 C229 1.372 . S
C227 H244 0.931 . S
C228 C225 1.382 . S
C228 C229 1.390 . S
C228 H245 0.931 . S
C229 C227 1.372 . S
C229 C228 1.390 . S
C229 H246 0.929 . S
C230 C225 1.390 1_554 S
C230 C226 1.392 . S
C230 H247 0.930 . S
C231 O216 1.255 . S
C231 O217 1.257 1_565 S
C232 Eu168 2.787 . S
C232 O212 1.252 1_556 S
C232 O215 1.268 . S
C232 C225 1.506 . S
C233 C200 1.439 . S
C233 H210 0.931 . S
C233 C234 1.374 . S
C234 C205 1.387 1_556 S
C234 H211 0.931 . S
C234 C233 1.374 . S
C235 O219 1.249 1_556 S
C235 O220 1.264 . S
C236 C239 1.382 . S
C236 C240 1.390 1_554 S
C236 C243 1.506 . S
C237 C238 1.398 1_556 S
C237 C240 1.392 . S
C238 C237 1.398 1_554 S
C238 C241 1.372 . S
C238 H248 0.931 . S
C239 C236 1.382 . S
C239 C241 1.390 . S
C239 H249 0.931 . S
C240 C236 1.390 1_556 S
C240 C237 1.392 . S
C240 H250 0.930 . S
C241 C238 1.372 . S
C241 C239 1.390 . S
C241 H251 0.929 . S
C242 O222 1.255 . S
C242 O223 1.257 1_545 S
C243 Eu179 2.787 . S
C243 O218 1.252 1_554 S
C243 O221 1.268 . S
C243 C236 1.506 . S
H244 C227 0.931 . S
H245 C228 0.931 . S
H246 C229 0.929 . S
H247 C230 0.930 . S
H248 C238 0.931 . S
H249 C239 0.931 . S
H250 C240 0.930 . S
H251 C241 0.929 . S
Eu252 N281 2.600 . S
Eu252 N287 2.562 . S
Eu252 O296 2.462 . S
Eu252 O297 2.373 . S
Eu252 O299 2.432 . S
Eu252 O300 2.291 . S
Eu252 O304 2.335 . S
Eu252 O307 2.372 . S
Eu252 C316 2.787 . S
C253 N254 1.365 . S
C253 C256 1.405 . S
C253 C260 1.448 . S
N254 C253 1.365 . S
N254 C257 1.319 . S
N254 Eu263 2.600 . S
C255 C257 1.397 . S
C255 C258 1.367 . S
C255 H275 0.931 . S
C256 C253 1.405 . S
C256 C258 1.403 . S
C256 C262 1.439 . S
C257 N254 1.319 . S
C257 C255 1.397 . S
C257 H268 0.930 . S
C258 C255 1.367 . S
C258 C256 1.403 . S
C258 H279 0.929 . S
C259 C260 1.430 . S
C259 C261 1.387 . S
C259 C265 1.404 . S
C260 C253 1.448 . S
C260 C259 1.430 . S
C260 N264 1.351 . S
C261 C259 1.387 . S
C261 C262 1.374 . S
C261 H276 0.931 . S
C262 C256 1.439 . S
C262 C261 1.374 . S
C262 H277 0.931 . S
Eu263 N254 2.600 . S
Eu263 N264 2.562 . S
Eu263 O298 2.335 . S
Eu263 O301 2.372 . S
Eu263 O302 2.462 . S
Eu263 O303 2.373 . S
Eu263 O305 2.432 . S
Eu263 O306 2.291 . S
Eu263 C327 2.787 . S
N264 C260 1.351 . S
N264 Eu263 2.562 . S
N264 C266 1.325 . S
C265 C259 1.404 . S
C265 C267 1.366 . S
C265 H273 0.930 . S
C266 N264 1.325 . S
C266 C267 1.416 . S
C266 H272 0.929 . S
C267 C265 1.366 . S
C267 C266 1.416 . S
C267 H269 0.930 . S
H268 C257 0.930 . S
H269 C267 0.930 . S
H270 C285 0.930 . S
H271 C292 0.930 . S
H272 C266 0.929 . S
H273 C265 0.930 . S
H274 C288 0.929 . S
H275 C255 0.931 . S
H276 C261 0.931 . S
H277 C262 0.931 . S
H278 C283 0.931 . S
H279 C258 0.929 . S
H280 C291 0.930 . S
N281 Eu252 2.600 . S
N281 C282 1.365 . S
N281 C285 1.319 . S
C282 N281 1.365 . S
C282 C284 1.405 . S
C282 C290 1.448 . S
C283 H278 0.931 . S
C283 C285 1.397 . S
C283 C286 1.367 . S
C284 C282 1.405 . S
C284 C286 1.403 . S
C284 C317 1.439 . S
C285 H270 0.930 . S
C285 N281 1.319 . S
C285 C283 1.397 . S
C286 C283 1.367 . S
C286 C284 1.403 . S
C286 H293 0.929 . S
N287 Eu252 2.562 . S
N287 C288 1.325 . S
N287 C290 1.351 . S
C288 H274 0.929 . S
C288 N287 1.325 . S
C288 C292 1.416 . S
C289 C290 1.430 . S
C289 C291 1.404 . S
C289 C318 1.387 . S
C290 C282 1.448 . S
C290 N287 1.351 . S
C290 C289 1.430 . S
C291 H280 0.930 . S
C291 C289 1.404 . S
C291 C292 1.366 . S
C292 H271 0.930 . S
C292 C288 1.416 . S
C292 C291 1.366 . S
H293 C286 0.929 . S
H294 C317 0.931 . S
H295 C318 0.931 . S
O296 Eu252 2.462 . S
O296 C316 1.252 . S
O297 Eu252 2.373 . S
O297 C308 1.249 . S
O298 Eu263 2.335 . S
O298 C308 1.264 . S
O299 Eu252 2.432 . S
O299 C316 1.268 . S
O300 Eu252 2.291 . S
O300 C315 1.255 . S
O301 Eu263 2.372 . S
O301 C315 1.257 . S
O302 Eu263 2.462 . S
O302 C327 1.252 . S
O303 Eu263 2.373 . S
O303 C319 1.249 . S
O304 Eu252 2.335 . S
O304 C319 1.264 . S
O305 Eu263 2.432 . S
O305 C327 1.268 . S
O306 Eu263 2.291 . S
O306 C326 1.255 . S
O307 Eu252 2.372 . S
O307 C326 1.257 . S
C308 O297 1.249 . S
C308 O298 1.264 . S
C309 C312 1.382 . S
C309 C314 1.390 . S
C309 C316 1.506 . S
C310 C311 1.398 . S
C310 C314 1.392 . S
C311 C310 1.398 . S
C311 C313 1.372 . S
C311 H328 0.931 . S
C312 C309 1.382 . S
C312 C313 1.390 . S
C312 H329 0.931 . S
C313 C311 1.372 . S
C313 C312 1.390 . S
C313 H330 0.929 . S
C314 C309 1.390 . S
C314 C310 1.392 . S
C314 H331 0.930 . S
C315 O300 1.255 . S
C315 O301 1.257 . S
C316 Eu252 2.787 . S
C316 O296 1.252 . S
C316 O299 1.268 . S
C316 C309 1.506 . S
C317 C284 1.439 . S
C317 H294 0.931 . S
C317 C318 1.374 . S
C318 C289 1.387 . S
C318 H295 0.931 . S
C318 C317 1.374 . S
C319 O303 1.249 . S
C319 O304 1.264 . S
C320 C323 1.382 . S
C320 C324 1.390 . S
C320 C327 1.506 . S
C321 C322 1.398 . S
C321 C324 1.392 . S
C322 C321 1.398 . S
C322 C325 1.372 . S
C322 H332 0.931 . S
C323 C320 1.382 . S
C323 C325 1.390 . S
C323 H333 0.931 . S
C324 C320 1.390 . S
C324 C321 1.392 . S
C324 H334 0.930 . S
C325 C322 1.372 . S
C325 C323 1.390 . S
C325 H335 0.929 . S
C326 O306 1.255 . S
C326 O307 1.257 . S
C327 Eu263 2.787 . S
C327 O302 1.252 . S
C327 O305 1.268 . S
C327 C320 1.506 . S
H328 C311 0.931 . S
H329 C312 0.931 . S
H330 C313 0.929 . S
H331 C314 0.930 . S
H332 C322 0.931 . S
H333 C323 0.931 . S
H334 C324 0.930 . S
H335 C325 0.929 . S
Eu336 N365 2.600 . S
Eu336 N371 2.562 . S
Eu336 O380 2.462 . S
Eu336 O381 2.373 . S
Eu336 O383 2.432 . S
Eu336 O384 2.291 . S
Eu336 O388 2.335 . S
Eu336 O391 2.372 . S
Eu336 C400 2.787 . S
C337 N338 1.365 . S
C337 C340 1.405 . S
C337 C344 1.448 . S
N338 C337 1.365 . S
N338 C341 1.319 . S
N338 Eu347 2.600 . S
C339 C341 1.397 . S
C339 C342 1.367 . S
C339 H359 0.931 . S
C340 C337 1.405 . S
C340 C342 1.403 . S
C340 C346 1.439 . S
C341 N338 1.319 . S
C341 C339 1.397 . S
C341 H352 0.930 . S
C342 C339 1.367 . S
C342 C340 1.403 . S
C342 H363 0.929 . S
C343 C344 1.430 . S
C343 C345 1.387 . S
C343 C349 1.404 . S
C344 C337 1.448 . S
C344 C343 1.430 . S
C344 N348 1.351 . S
C345 C343 1.387 . S
C345 C346 1.374 . S
C345 H360 0.931 . S
C346 C340 1.439 . S
C346 C345 1.374 . S
C346 H361 0.931 . S
Eu347 N338 2.600 . S
Eu347 N348 2.562 . S
Eu347 O382 2.335 . S
Eu347 O385 2.372 . S
Eu347 O386 2.462 . S
Eu347 O387 2.373 . S
Eu347 O389 2.432 . S
Eu347 O390 2.291 . S
Eu347 C411 2.787 . S
N348 C344 1.351 . S
N348 Eu347 2.562 . S
N348 C350 1.325 . S
C349 C343 1.404 . S
C349 C351 1.366 . S
C349 H357 0.930 . S
C350 N348 1.325 . S
C350 C351 1.416 . S
C350 H356 0.929 . S
C351 C349 1.366 . S
C351 C350 1.416 . S
C351 H353 0.930 . S
H352 C341 0.930 . S
H353 C351 0.930 . S
H354 C369 0.930 . S
H355 C376 0.930 . S
H356 C350 0.929 . S
H357 C349 0.930 . S
H358 C372 0.929 . S
H359 C339 0.931 . S
H360 C345 0.931 . S
H361 C346 0.931 . S
H362 C367 0.931 . S
H363 C342 0.929 . S
H364 C375 0.930 . S
N365 Eu336 2.600 . S
N365 C366 1.365 . S
N365 C369 1.319 . S
C366 N365 1.365 . S
C366 C368 1.405 . S
C366 C374 1.448 . S
C367 H362 0.931 . S
C367 C369 1.397 . S
C367 C370 1.367 . S
C368 C366 1.405 . S
C368 C370 1.403 . S
C368 C401 1.439 1_565 S
C369 H354 0.930 . S
C369 N365 1.319 . S
C369 C367 1.397 . S
C370 C367 1.367 . S
C370 C368 1.403 . S
C370 H377 0.929 1_565 S
N371 Eu336 2.562 . S
N371 C372 1.325 . S
N371 C374 1.351 . S
C372 H358 0.929 . S
C372 N371 1.325 . S
C372 C376 1.416 1_565 S
C373 C374 1.430 1_545 S
C373 C375 1.404 . S
C373 C402 1.387 . S
C374 C366 1.448 . S
C374 N371 1.351 . S
C374 C373 1.430 1_565 S
C375 H364 0.930 . S
C375 C373 1.404 . S
C375 C376 1.366 . S
C376 H355 0.930 . S
C376 C372 1.416 1_545 S
C376 C375 1.366 . S
H377 C370 0.929 1_545 S
H378 C401 0.931 . S
H379 C402 0.931 . S
O380 Eu336 2.462 . S
O380 C400 1.252 . S
O381 Eu336 2.373 . S
O381 C392 1.249 . S
O382 Eu347 2.335 . S
O382 C392 1.264 . S
O383 Eu336 2.432 . S
O383 C400 1.268 . S
O384 Eu336 2.291 . S
O384 C399 1.255 . S
O385 Eu347 2.372 . S
O385 C399 1.257 . S
O386 Eu347 2.462 . S
O386 C411 1.252 . S
O387 Eu347 2.373 . S
O387 C403 1.249 . S
O388 Eu336 2.335 . S
O388 C403 1.264 . S
O389 Eu347 2.432 . S
O389 C411 1.268 . S
O390 Eu347 2.291 . S
O390 C410 1.255 . S
O391 Eu336 2.372 . S
O391 C410 1.257 . S
C392 O381 1.249 . S
C392 O382 1.264 . S
C393 C396 1.382 . S
C393 C398 1.390 . S
C393 C400 1.506 1_545 S
C394 C395 1.398 . S
C394 C398 1.392 . S
C395 C394 1.398 . S
C395 C397 1.372 . S
C395 H412 0.931 . S
C396 C393 1.382 . S
C396 C397 1.390 . S
C396 H413 0.931 . S
C397 C395 1.372 . S
C397 C396 1.390 . S
C397 H414 0.929 . S
C398 C393 1.390 . S
C398 C394 1.392 . S
C398 H415 0.930 . S
C399 O384 1.255 . S
C399 O385 1.257 . S
C400 Eu336 2.787 . S
C400 O380 1.252 . S
C400 O383 1.268 . S
C400 C393 1.506 1_565 S
C401 C368 1.439 1_545 S
C401 H378 0.931 . S
C401 C402 1.374 . S
C402 C373 1.387 . S
C402 H379 0.931 . S
C402 C401 1.374 . S
C403 O387 1.249 . S
C403 O388 1.264 . S
C404 C407 1.382 . S
C404 C408 1.390 . S
C404 C411 1.506 . S
C405 C406 1.398 . S
C405 C408 1.392 . S
C406 C405 1.398 . S
C406 C409 1.372 . S
C406 H416 0.931 . S
C407 C404 1.382 . S
C407 C409 1.390 . S
C407 H417 0.931 . S
C408 C404 1.390 . S
C408 C405 1.392 . S
C408 H418 0.930 . S
C409 C406 1.372 . S
C409 C407 1.390 . S
C409 H419 0.929 . S
C410 O390 1.255 . S
C410 O391 1.257 . S
C411 Eu347 2.787 . S
C411 O386 1.252 . S
C411 O389 1.268 . S
C411 C404 1.506 . S
H412 C395 0.931 . S
H413 C396 0.931 . S
H414 C397 0.929 . S
H415 C398 0.930 . S
H416 C406 0.931 . S
H417 C407 0.931 . S
H418 C408 0.930 . S
H419 C409 0.929 . S
Eu420 N449 2.600 . S
Eu420 N455 2.562 . S
Eu420 O464 2.462 . S
Eu420 O465 2.373 . S
Eu420 O467 2.432 . S
Eu420 O468 2.291 . S
Eu420 O472 2.335 . S
Eu420 O475 2.372 . S
Eu420 C484 2.787 . S
C421 N422 1.365 . S
C421 C424 1.405 . S
C421 C428 1.448 . S
N422 C421 1.365 . S
N422 C425 1.319 . S
N422 Eu431 2.600 . S
C423 C425 1.397 . S
C423 C426 1.367 . S
C423 H443 0.931 . S
C424 C421 1.405 . S
C424 C426 1.403 . S
C424 C430 1.439 . S
C425 N422 1.319 . S
C425 C423 1.397 . S
C425 H436 0.930 . S
C426 C423 1.367 . S
C426 C424 1.403 . S
C426 H447 0.929 . S
C427 C428 1.430 . S
C427 C429 1.387 . S
C427 C433 1.404 . S
C428 C421 1.448 . S
C428 C427 1.430 . S
C428 N432 1.351 . S
C429 C427 1.387 . S
C429 C430 1.374 . S
C429 H444 0.931 . S
C430 C424 1.439 . S
C430 C429 1.374 . S
C430 H445 0.931 . S
Eu431 N422 2.600 . S
Eu431 N432 2.562 . S
Eu431 O466 2.335 . S
Eu431 O469 2.372 . S
Eu431 O470 2.462 . S
Eu431 O471 2.373 . S
Eu431 O473 2.432 . S
Eu431 O474 2.291 . S
Eu431 C495 2.787 . S
N432 C428 1.351 . S
N432 Eu431 2.562 . S
N432 C434 1.325 . S
C433 C427 1.404 . S
C433 C435 1.366 . S
C433 H441 0.930 . S
C434 N432 1.325 . S
C434 C435 1.416 . S
C434 H440 0.929 . S
C435 C433 1.366 . S
C435 C434 1.416 . S
C435 H437 0.930 . S
H436 C425 0.930 . S
H437 C435 0.930 . S
H438 C453 0.930 . S
H439 C460 0.930 . S
H440 C434 0.929 . S
H441 C433 0.930 . S
H442 C456 0.929 . S
H443 C423 0.931 . S
H444 C429 0.931 . S
H445 C430 0.931 . S
H446 C451 0.931 . S
H447 C426 0.929 . S
H448 C459 0.930 . S
N449 Eu420 2.600 . S
N449 C450 1.365 . S
N449 C453 1.319 . S
C450 N449 1.365 . S
C450 C452 1.405 . S
C450 C458 1.448 . S
C451 H446 0.931 . S
C451 C453 1.397 . S
C451 C454 1.367 . S
C452 C450 1.405 . S
C452 C454 1.403 . S
C452 C485 1.439 1_455 S
C453 H438 0.930 . S
C453 N449 1.319 . S
C453 C451 1.397 . S
C454 C451 1.367 . S
C454 C452 1.403 . S
C454 H461 0.929 . S
N455 Eu420 2.562 . S
N455 C456 1.325 . S
N455 C458 1.351 . S
C456 H442 0.929 . S
C456 N455 1.325 . S
C456 C460 1.416 . S
C457 C458 1.447 . S
C457 C459 1.402 1_455 S
C457 C486 1.373 1_455 S
C458 C450 1.448 . S
C458 N455 1.351 . S
C458 C457 1.447 . S
C459 H448 0.930 . S
C459 C457 1.402 1_655 S
C459 C460 1.366 1_655 S
C460 H439 0.930 . S
C460 C456 1.416 . S
C460 C459 1.366 1_455 S
H461 C454 0.929 . S
H462 C485 0.931 . S
H463 C486 0.931 . S
O464 Eu420 2.462 . S
O464 C484 1.252 . S
O465 Eu420 2.373 . S
O465 C476 1.249 . S
O466 Eu431 2.335 . S
O466 C476 1.264 . S
O467 Eu420 2.432 . S
O467 C484 1.268 . S
O468 Eu420 2.291 . S
O468 C483 1.255 . S
O469 Eu431 2.372 . S
O469 C483 1.257 . S
O470 Eu431 2.462 . S
O470 C495 1.252 . S
O471 Eu431 2.373 . S
O471 C487 1.249 . S
O472 Eu420 2.335 . S
O472 C487 1.264 . S
O473 Eu431 2.432 . S
O473 C495 1.268 . S
O474 Eu431 2.291 . S
O474 C494 1.255 . S
O475 Eu420 2.372 . S
O475 C494 1.257 . S
C476 O465 1.249 . S
C476 O466 1.264 . S
C477 C480 1.382 . S
C477 C482 1.390 . S
C477 C484 1.506 1_655 S
C478 C479 1.398 . S
C478 C482 1.392 . S
C479 C478 1.398 . S
C479 C481 1.372 . S
C479 H496 0.931 . S
C480 C477 1.382 . S
C480 C481 1.390 . S
C480 H497 0.931 . S
C481 C479 1.372 . S
C481 C480 1.390 . S
C481 H498 0.929 . S
C482 C477 1.390 . S
C482 C478 1.392 . S
C482 H499 0.930 . S
C483 O468 1.255 . S
C483 O469 1.257 . S
C484 Eu420 2.787 . S
C484 O464 1.252 . S
C484 O467 1.268 . S
C484 C477 1.506 1_455 S
C485 C452 1.439 1_655 S
C485 H462 0.931 . S
C485 C486 1.374 . S
C486 C457 1.373 1_655 S
C486 H463 0.931 . S
C486 C485 1.374 . S
C487 O471 1.249 . S
C487 O472 1.264 . S
C488 C491 1.382 . S
C488 C492 1.390 . S
C488 C495 1.506 . S
C489 C490 1.398 . S
C489 C492 1.392 . S
C490 C489 1.398 . S
C490 C493 1.372 . S
C490 H500 0.931 . S
C491 C488 1.382 . S
C491 C493 1.390 . S
C491 H501 0.931 . S
C492 C488 1.390 . S
C492 C489 1.392 . S
C492 H502 0.930 . S
C493 C490 1.372 . S
C493 C491 1.390 . S
C493 H503 0.929 . S
C494 O474 1.255 . S
C494 O475 1.257 . S
C495 Eu431 2.787 . S
C495 O470 1.252 . S
C495 O473 1.268 . S
C495 C488 1.506 . S
H496 C479 0.931 . S
H497 C480 0.931 . S
H498 C481 0.929 . S
H499 C482 0.930 . S
H500 C490 0.931 . S
H501 C491 0.931 . S
H502 C492 0.930 . S
H503 C493 0.929 . S
Eu504 N533 2.600 . S
Eu504 N539 2.562 . S
Eu504 O548 2.462 . S
Eu504 O549 2.373 . S
Eu504 O551 2.432 . S
Eu504 O552 2.291 . S
Eu504 O556 2.335 . S
Eu504 O559 2.372 . S
Eu504 C568 2.787 . S
C505 N506 1.365 . S
C505 C508 1.405 . S
C505 C512 1.448 . S
N506 C505 1.365 . S
N506 C509 1.319 . S
N506 Eu515 2.600 . S
C507 C509 1.397 . S
C507 C510 1.367 . S
C507 H527 0.931 . S
C508 C505 1.405 . S
C508 C510 1.403 . S
C508 C514 1.439 . S
C509 N506 1.319 . S
C509 C507 1.397 . S
C509 H520 0.930 . S
C510 C507 1.367 . S
C510 C508 1.403 . S
C510 H531 0.929 . S
C511 C512 1.430 . S
C511 C513 1.387 . S
C511 C517 1.404 . S
C512 C505 1.448 . S
C512 C511 1.430 . S
C512 N516 1.351 . S
C513 C511 1.387 . S
C513 C514 1.374 . S
C513 H528 0.931 . S
C514 C508 1.439 . S
C514 C513 1.374 . S
C514 H529 0.931 . S
Eu515 N506 2.600 . S
Eu515 N516 2.562 . S
Eu515 O550 2.335 . S
Eu515 O553 2.372 . S
Eu515 O554 2.462 . S
Eu515 O555 2.373 . S
Eu515 O557 2.432 . S
Eu515 O558 2.291 . S
Eu515 C579 2.787 . S
N516 C512 1.351 . S
N516 Eu515 2.562 . S
N516 C518 1.325 . S
C517 C511 1.404 . S
C517 C519 1.366 . S
C517 H525 0.930 . S
C518 N516 1.325 . S
C518 C519 1.416 . S
C518 H524 0.929 . S
C519 C517 1.366 . S
C519 C518 1.416 . S
C519 H521 0.930 . S
H520 C509 0.930 . S
H521 C519 0.930 . S
H522 C537 0.930 . S
H523 C544 0.930 . S
H524 C518 0.929 . S
H525 C517 0.930 . S
H526 C540 0.929 . S
H527 C507 0.931 . S
H528 C513 0.931 . S
H529 C514 0.931 . S
H530 C535 0.931 . S
H531 C510 0.929 . S
H532 C543 0.930 . S
N533 Eu504 2.600 . S
N533 C534 1.365 . S
N533 C537 1.319 . S
C534 N533 1.365 . S
C534 C536 1.405 . S
C534 C542 1.448 . S
C535 H530 0.931 . S
C535 C537 1.397 . S
C535 C538 1.367 . S
C536 C534 1.405 . S
C536 C538 1.403 . S
C536 C569 1.439 1_545 S
C537 H522 0.930 . S
C537 N533 1.319 . S
C537 C535 1.397 . S
C538 C535 1.367 . S
C538 C536 1.403 . S
C538 H545 0.929 1_545 S
N539 Eu504 2.562 . S
N539 C540 1.325 . S
N539 C542 1.351 . S
C540 H526 0.929 . S
C540 N539 1.325 . S
C540 C544 1.416 . S
C541 C542 1.409 1_565 S
C541 C543 1.408 . S
C541 C570 1.404 . S
C542 C534 1.448 . S
C542 N539 1.351 . S
C542 C541 1.409 1_545 S
C543 H532 0.930 . S
C543 C541 1.408 . S
C543 C544 1.366 1_565 S
C544 H523 0.930 . S
C544 C540 1.416 . S
C544 C543 1.366 1_545 S
H545 C538 0.929 1_565 S
H546 C569 0.931 . S
H547 C570 0.931 . S
O548 Eu504 2.462 . S
O548 C568 1.252 . S
O549 Eu504 2.373 . S
O549 C560 1.249 . S
O550 Eu515 2.335 . S
O550 C560 1.264 . S
O551 Eu504 2.432 . S
O551 C568 1.268 . S
O552 Eu504 2.291 . S
O552 C567 1.255 . S
O553 Eu515 2.372 . S
O553 C567 1.257 . S
O554 Eu515 2.462 . S
O554 C579 1.252 . S
O555 Eu515 2.373 . S
O555 C571 1.249 . S
O556 Eu504 2.335 . S
O556 C571 1.264 . S
O557 Eu515 2.432 . S
O557 C579 1.268 . S
O558 Eu515 2.291 . S
O558 C578 1.255 . S
O559 Eu504 2.372 . S
O559 C578 1.257 . S
C560 O549 1.249 . S
C560 O550 1.264 . S
C561 C564 1.382 . S
C561 C566 1.390 . S
C561 C568 1.506 . S
C562 C563 1.398 . S
C562 C566 1.392 . S
C563 C562 1.398 . S
C563 C565 1.372 . S
C563 H580 0.931 . S
C564 C561 1.382 . S
C564 C565 1.390 . S
C564 H581 0.931 . S
C565 C563 1.372 . S
C565 C564 1.390 . S
C565 H582 0.929 . S
C566 C561 1.390 . S
C566 C562 1.392 . S
C566 H583 0.930 . S
C567 O552 1.255 . S
C567 O553 1.257 . S
C568 Eu504 2.787 . S
C568 O548 1.252 . S
C568 O551 1.268 . S
C568 C561 1.506 . S
C569 C536 1.439 1_565 S
C569 H546 0.931 . S
C569 C570 1.374 . S
C570 C541 1.404 . S
C570 H547 0.931 . S
C570 C569 1.374 . S
C571 O555 1.249 . S
C571 O556 1.264 . S
C572 C575 1.382 . S
C572 C576 1.390 . S
C572 C579 1.506 . S
C573 C574 1.398 . S
C573 C576 1.392 . S
C574 C573 1.398 . S
C574 C577 1.372 . S
C574 H584 0.931 . S
C575 C572 1.382 . S
C575 C577 1.390 . S
C575 H585 0.931 . S
C576 C572 1.390 . S
C576 C573 1.392 . S
C576 H586 0.930 . S
C577 C574 1.372 . S
C577 C575 1.390 . S
C577 H587 0.929 . S
C578 O558 1.255 . S
C578 O559 1.257 . S
C579 Eu515 2.787 . S
C579 O554 1.252 . S
C579 O557 1.268 . S
C579 C572 1.506 . S
H580 C563 0.931 . S
H581 C564 0.931 . S
H582 C565 0.929 . S
H583 C566 0.930 . S
H584 C574 0.931 . S
H585 C575 0.931 . S
H586 C576 0.930 . S
H587 C577 0.929 . S
Eu588 N617 2.600 . S
Eu588 N623 2.562 . S
Eu588 O632 2.462 . S
Eu588 O633 2.373 . S
Eu588 O635 2.432 . S
Eu588 O636 2.291 . S
Eu588 O640 2.335 . S
Eu588 O643 2.372 . S
Eu588 C652 2.787 . S
C589 N590 1.365 . S
C589 C592 1.405 . S
C589 C596 1.448 . S
N590 C589 1.365 . S
N590 C593 1.319 . S
N590 Eu599 2.600 . S
C591 C593 1.397 . S
C591 C594 1.367 . S
C591 H611 0.931 . S
C592 C589 1.405 . S
C592 C594 1.403 . S
C592 C598 1.439 . S
C593 N590 1.319 . S
C593 C591 1.397 . S
C593 H604 0.930 . S
C594 C591 1.367 . S
C594 C592 1.403 . S
C594 H615 0.929 . S
C595 C596 1.430 . S
C595 C597 1.387 . S
C595 C601 1.404 . S
C596 C589 1.448 . S
C596 C595 1.430 . S
C596 N600 1.351 . S
C597 C595 1.387 . S
C597 C598 1.374 . S
C597 H612 0.931 . S
C598 C592 1.439 . S
C598 C597 1.374 . S
C598 H613 0.931 . S
Eu599 N590 2.600 . S
Eu599 N600 2.562 . S
Eu599 O634 2.335 . S
Eu599 O637 2.372 . S
Eu599 O638 2.462 . S
Eu599 O639 2.373 . S
Eu599 O641 2.432 . S
Eu599 O642 2.291 . S
Eu599 C663 2.787 . S
N600 C596 1.351 . S
N600 Eu599 2.562 . S
N600 C602 1.325 . S
C601 C595 1.404 . S
C601 C603 1.366 . S
C601 H609 0.930 . S
C602 N600 1.325 . S
C602 C603 1.416 . S
C602 H608 0.929 . S
C603 C601 1.366 . S
C603 C602 1.416 . S
C603 H605 0.930 . S
H604 C593 0.930 . S
H605 C603 0.930 . S
H606 C621 0.930 . S
H607 C628 0.930 . S
H608 C602 0.929 . S
H609 C601 0.930 . S
H610 C624 0.929 . S
H611 C591 0.931 . S
H612 C597 0.931 . S
H613 C598 0.931 . S
H614 C619 0.931 . S
H615 C594 0.929 . S
H616 C627 0.930 . S
N617 Eu588 2.600 . S
N617 C618 1.365 . S
N617 C621 1.319 . S
C618 N617 1.365 . S
C618 C620 1.405 1_655 S
C618 C626 1.448 . S
C619 H614 0.931 . S
C619 C621 1.397 . S
C619 C622 1.367 . S
C620 C618 1.405 1_455 S
C620 C622 1.403 1_455 S
C620 C653 1.439 . S
C621 H606 0.930 . S
C621 N617 1.319 . S
C621 C619 1.397 . S
C622 C619 1.367 . S
C622 C620 1.403 1_655 S
C622 H629 0.929 1_655 S
N623 Eu588 2.562 . S
N623 C624 1.325 . S
N623 C626 1.351 . S
C624 H610 0.929 . S
C624 N623 1.325 . S
C624 C628 1.416 . S
C625 C626 1.430 1_455 S
C625 C627 1.404 . S
C625 C654 1.387 . S
C626 C618 1.448 . S
C626 N623 1.351 . S
C626 C625 1.430 1_655 S
C627 H616 0.930 . S
C627 C625 1.404 . S
C627 C628 1.366 1_455 S
C628 H607 0.930 . S
C628 C624 1.416 . S
C628 C627 1.366 1_655 S
H629 C622 0.929 1_455 S
H630 C653 0.931 . S
H631 C654 0.931 . S
O632 Eu588 2.462 . S
O632 C652 1.252 . S
O633 Eu588 2.373 . S
O633 C644 1.249 . S
O634 Eu599 2.335 . S
O634 C644 1.264 . S
O635 Eu588 2.432 . S
O635 C652 1.268 . S
O636 Eu588 2.291 . S
O636 C651 1.255 . S
O637 Eu599 2.372 . S
O637 C651 1.257 . S
O638 Eu599 2.462 . S
O638 C663 1.252 . S
O639 Eu599 2.373 . S
O639 C655 1.249 . S
O640 Eu588 2.335 . S
O640 C655 1.264 . S
O641 Eu599 2.432 . S
O641 C663 1.268 . S
O642 Eu599 2.291 . S
O642 C662 1.255 . S
O643 Eu588 2.372 . S
O643 C662 1.257 . S
C644 O633 1.249 . S
C644 O634 1.264 . S
C645 C648 1.382 . S
C645 C650 1.390 . S
C645 C652 1.506 . S
C646 C647 1.398 . S
C646 C650 1.392 . S
C647 C646 1.398 . S
C647 C649 1.372 . S
C647 H664 0.931 . S
C648 C645 1.382 . S
C648 C649 1.390 . S
C648 H665 0.931 . S
C649 C647 1.372 . S
C649 C648 1.390 . S
C649 H666 0.929 . S
C650 C645 1.390 . S
C650 C646 1.392 . S
C650 H667 0.930 . S
C651 O636 1.255 . S
C651 O637 1.257 . S
C652 Eu588 2.787 . S
C652 O632 1.252 . S
C652 O635 1.268 . S
C652 C645 1.506 . S
C653 C620 1.439 . S
C653 H630 0.931 . S
C653 C654 1.374 . S
C654 C625 1.387 . S
C654 H631 0.931 . S
C654 C653 1.374 . S
C655 O639 1.249 . S
C655 O640 1.264 . S
C656 C659 1.382 . S
C656 C660 1.390 . S
C656 C663 1.506 . S
C657 C658 1.398 . S
C657 C660 1.392 . S
C658 C657 1.398 . S
C658 C661 1.372 . S
C658 H668 0.931 . S
C659 C656 1.382 . S
C659 C661 1.390 . S
C659 H669 0.931 . S
C660 C656 1.390 . S
C660 C657 1.392 . S
C660 H670 0.930 . S
C661 C658 1.372 . S
C661 C659 1.390 . S
C661 H671 0.929 . S
C662 O642 1.255 . S
C662 O643 1.257 . S
C663 Eu599 2.787 . S
C663 O638 1.252 . S
C663 O641 1.268 . S
C663 C656 1.506 . S
H664 C647 0.931 . S
H665 C648 0.931 . S
H666 C649 0.929 . S
H667 C650 0.930 . S
H668 C658 0.931 . S
H669 C659 0.931 . S
H670 C660 0.930 . S
H671 C661 0.929 . S
Eu672 N701 2.600 . S
Eu672 N707 2.562 . S
Eu672 O716 2.462 . S
Eu672 O717 2.373 . S
Eu672 O719 2.432 . S
Eu672 O720 2.291 . S
Eu672 O724 2.335 . S
Eu672 O727 2.372 . S
Eu672 C736 2.787 . S
C673 N674 1.365 . S
C673 C676 1.405 . S
C673 C680 1.448 . S
N674 C673 1.365 . S
N674 C677 1.319 . S
N674 Eu683 2.600 . S
C675 C677 1.397 . S
C675 C678 1.367 . S
C675 H695 0.931 . S
C676 C673 1.405 . S
C676 C678 1.403 . S
C676 C682 1.439 . S
C677 N674 1.319 . S
C677 C675 1.397 . S
C677 H688 0.930 . S
C678 C675 1.367 . S
C678 C676 1.403 . S
C678 H699 0.929 . S
C679 C680 1.430 . S
C679 C681 1.387 . S
C679 C685 1.404 . S
C680 C673 1.448 . S
C680 C679 1.430 . S
C680 N684 1.351 . S
C681 C679 1.387 . S
C681 C682 1.374 . S
C681 H696 0.931 . S
C682 C676 1.439 . S
C682 C681 1.374 . S
C682 H697 0.931 . S
Eu683 N674 2.600 . S
Eu683 N684 2.562 . S
Eu683 O718 2.335 . S
Eu683 O721 2.372 . S
Eu683 O722 2.462 . S
Eu683 O723 2.373 . S
Eu683 O725 2.432 . S
Eu683 O726 2.291 . S
Eu683 C747 2.787 . S
N684 C680 1.351 . S
N684 Eu683 2.562 . S
N684 C686 1.325 . S
C685 C679 1.404 . S
C685 C687 1.366 . S
C685 H693 0.930 . S
C686 N684 1.325 . S
C686 C687 1.416 . S
C686 H692 0.929 . S
C687 C685 1.366 . S
C687 C686 1.416 . S
C687 H689 0.930 . S
H688 C677 0.930 . S
H689 C687 0.930 . S
H690 C705 0.930 . S
H691 C712 0.930 . S
H692 C686 0.929 . S
H693 C685 0.930 . S
H694 C708 0.929 . S
H695 C675 0.931 . S
H696 C681 0.931 . S
H697 C682 0.931 . S
H698 C703 0.931 . S
H699 C678 0.929 . S
H700 C711 0.930 . S
N701 Eu672 2.600 . S
N701 C702 1.365 . S
N701 C705 1.319 . S
C702 N701 1.365 . S
C702 C704 1.405 . S
C702 C710 1.448 . S
C703 H698 0.931 . S
C703 C705 1.397 . S
C703 C706 1.367 . S
C704 C702 1.405 . S
C704 C706 1.403 . S
C704 C737 1.439 . S
C705 H690 0.930 . S
C705 N701 1.319 . S
C705 C703 1.397 . S
C706 C703 1.367 . S
C706 C704 1.403 . S
C706 H713 0.929 . S
N707 Eu672 2.562 . S
N707 C708 1.325 . S
N707 C710 1.351 . S
C708 H694 0.929 . S
C708 N707 1.325 . S
C708 C712 1.416 . S
C709 C710 1.430 . S
C709 C711 1.404 . S
C709 C738 1.387 . S
C710 C702 1.448 . S
C710 N707 1.351 . S
C710 C709 1.430 . S
C711 H700 0.930 . S
C711 C709 1.404 . S
C711 C712 1.366 . S
C712 H691 0.930 . S
C712 C708 1.416 . S
C712 C711 1.366 . S
H713 C706 0.929 . S
H714 C737 0.931 . S
H715 C738 0.931 . S
O716 Eu672 2.462 . S
O716 C736 1.252 . S
O717 Eu672 2.373 . S
O717 C728 1.249 . S
O718 Eu683 2.335 . S
O718 C728 1.264 . S
O719 Eu672 2.432 . S
O719 C736 1.268 . S
O720 Eu672 2.291 . S
O720 C735 1.255 . S
O721 Eu683 2.372 . S
O721 C735 1.257 . S
O722 Eu683 2.462 . S
O722 C747 1.252 . S
O723 Eu683 2.373 . S
O723 C739 1.249 . S
O724 Eu672 2.335 . S
O724 C739 1.264 . S
O725 Eu683 2.432 . S
O725 C747 1.268 . S
O726 Eu683 2.291 . S
O726 C746 1.255 . S
O727 Eu672 2.372 . S
O727 C746 1.257 . S
C728 O717 1.249 . S
C728 O718 1.264 . S
C729 C732 1.382 . S
C729 C734 1.390 . S
C729 C736 1.506 . S
C730 C731 1.398 . S
C730 C734 1.392 . S
C731 C730 1.398 . S
C731 C733 1.372 . S
C731 H748 0.931 . S
C732 C729 1.382 . S
C732 C733 1.390 . S
C732 H749 0.931 . S
C733 C731 1.372 . S
C733 C732 1.390 . S
C733 H750 0.929 . S
C734 C729 1.390 . S
C734 C730 1.392 . S
C734 H751 0.930 . S
C735 O720 1.255 . S
C735 O721 1.257 . S
C736 Eu672 2.787 . S
C736 O716 1.252 . S
C736 O719 1.268 . S
C736 C729 1.506 . S
C737 C704 1.439 . S
C737 H714 0.931 . S
C737 C738 1.374 . S
C738 C709 1.387 . S
C738 H715 0.931 . S
C738 C737 1.374 . S
C739 O723 1.249 . S
C739 O724 1.264 . S
C740 C743 1.382 . S
C740 C744 1.390 . S
C740 C747 1.506 . S
C741 C742 1.398 . S
C741 C744 1.392 . S
C742 C741 1.398 . S
C742 C745 1.372 . S
C742 H752 0.931 . S
C743 C740 1.382 . S
C743 C745 1.390 . S
C743 H753 0.931 . S
C744 C740 1.390 . S
C744 C741 1.392 . S
C744 H754 0.930 . S
C745 C742 1.372 . S
C745 C743 1.390 . S
C745 H755 0.929 . S
C746 O726 1.255 . S
C746 O727 1.257 . S
C747 Eu683 2.787 . S
C747 O722 1.252 . S
C747 O725 1.268 . S
C747 C740 1.506 . S
H748 C731 0.931 . S
H749 C732 0.931 . S
H750 C733 0.929 . S
H751 C734 0.930 . S
H752 C742 0.931 . S
H753 C743 0.931 . S
H754 C744 0.930 . S
H755 C745 0.929 . S
H756 C764 0.929 . S
H757 C766 0.930 . S
H758 C768 0.930 . S
H759 C771 0.929 . S
H760 C774 0.930 . S
H761 C776 0.960 . S
H762 C776 0.960 . S
H763 C776 0.960 . S
C764 H756 0.929 . S
C764 C765 1.377 . S
C764 C766 1.384 . S
C765 C764 1.377 . S
C765 C771 1.390 1_556 S
C766 H757 0.930 . S
C766 C764 1.384 . S
C766 C767 1.363 1_556 S
C767 C766 1.363 1_554 S
C767 C768 1.406 . S
C767 C772 1.494 . S
C768 H758 0.930 . S
C768 C767 1.406 . S
C768 C771 1.386 . S
H769 C785 0.930 . S
H770 C786 0.931 . S
C771 H759 0.929 . S
C771 C765 1.390 1_554 S
C771 C768 1.386 . S
C772 C767 1.494 . S
C772 C774 1.395 . S
C772 C775 1.403 1_554 S
H773 C779 0.930 . S
C774 H760 0.930 . S
C774 C772 1.395 . S
C774 C777 1.403 . S
C775 C772 1.403 1_556 S
C775 C776 1.524 . S
C775 C779 1.400 . S
C776 H761 0.960 . S
C776 H762 0.960 . S
C776 H763 0.960 . S
C776 C775 1.524 . S
C777 C774 1.403 . S
C777 C778 1.392 . S
C777 C781 1.495 . S
C778 C777 1.392 . S
C778 C779 1.385 1_554 S
C778 C780 1.478 . S
C779 H773 0.930 . S
C779 C775 1.400 . S
C779 C778 1.385 1_556 S
C780 C778 1.478 . S
C780 C782 1.381 . S
C780 C786 1.383 . S
C781 C777 1.495 . S
C781 H787 0.959 . S
C781 H788 0.961 . S
C781 H789 0.960 . S
C782 C780 1.381 . S
C782 C783 1.394 . S
C782 H790 0.947 . S
C783 C782 1.394 . S
C783 C784 1.383 . S
C783 H791 0.929 . S
C784 C783 1.383 . S
C784 C785 1.377 . S
C785 H769 0.930 . S
C785 C784 1.377 . S
C785 C786 1.379 . S
C786 H770 0.931 . S
C786 C780 1.383 . S
C786 C785 1.379 . S
H787 C781 0.959 . S
H788 C781 0.961 . S
H789 C781 0.960 . S
H790 C782 0.947 . S
H791 C783 0.929 . S
H792 C800 0.929 . S
H793 C802 0.930 . S
H794 C804 0.930 . S
H795 C807 0.927 1_554 S
H796 C810 0.930 . S
H797 C812 0.960 . S
H798 C812 0.960 . S
H799 C812 0.960 . S
C800 H792 0.929 . S
C800 C801 1.377 . S
C800 C802 1.384 . S
C801 C800 1.377 . S
C801 C807 1.397 . S
C802 H793 0.930 . S
C802 C800 1.384 . S
C802 C803 1.365 1_556 S
C803 C802 1.365 1_554 S
C803 C804 1.402 . S
C803 C808 1.497 . S
C804 H794 0.930 . S
C804 C803 1.402 . S
C804 C807 1.382 1_554 S
H805 C821 0.930 . S
H806 C822 0.931 . S
C807 H795 0.927 1_556 S
C807 C801 1.397 . S
C807 C804 1.382 1_556 S
C808 C803 1.497 . S
C808 C810 1.395 . S
C808 C811 1.403 1_554 S
H809 C815 0.930 . S
C810 H796 0.930 . S
C810 C808 1.395 . S
C810 C813 1.403 . S
C811 C808 1.403 1_556 S
C811 C812 1.524 . S
C811 C815 1.400 . S
C812 H797 0.960 . S
C812 H798 0.960 . S
C812 H799 0.960 . S
C812 C811 1.524 . S
C813 C810 1.403 . S
C813 C814 1.392 . S
C813 C817 1.495 . S
C814 C813 1.392 . S
C814 C815 1.385 1_554 S
C814 C816 1.478 . S
C815 H809 0.930 . S
C815 C811 1.400 . S
C815 C814 1.385 1_556 S
C816 C814 1.478 . S
C816 C818 1.381 . S
C816 C822 1.383 . S
C817 C813 1.495 . S
C817 H823 0.959 . S
C817 H824 0.961 . S
C817 H825 0.960 . S
C818 C816 1.381 . S
C818 C819 1.394 . S
C818 H826 0.930 . S
C819 C818 1.394 . S
C819 C820 1.383 . S
C819 H827 0.929 . S
C820 C819 1.383 . S
C820 C821 1.377 . S
C821 H805 0.930 . S
C821 C820 1.377 . S
C821 C822 1.379 . S
C822 H806 0.931 . S
C822 C816 1.383 . S
C822 C821 1.379 . S
H823 C817 0.959 . S
H824 C817 0.961 . S
H825 C817 0.960 . S
H826 C818 0.930 . S
H827 C819 0.929 . S
H828 C836 0.929 1_556 S
H829 C838 0.948 . S
H830 C840 0.930 . S
H831 C843 0.929 . S
H832 C846 0.930 . S
H833 C848 0.960 . S
H834 C848 0.960 . S
H835 C848 0.960 . S
C836 H828 0.929 1_554 S
C836 C837 1.377 . S
C836 C838 1.380 1_554 S
C837 C836 1.377 . S
C837 C843 1.390 . S
C838 H829 0.948 . S
C838 C836 1.380 1_556 S
C838 C839 1.358 1_556 S
C839 C838 1.358 1_554 S
C839 C840 1.400 . S
C839 C844 1.490 . S
C840 H830 0.930 . S
C840 C839 1.400 . S
C840 C843 1.386 . S
H841 C857 0.930 . S
H842 C858 0.931 . S
C843 H831 0.929 . S
C843 C837 1.390 . S
C843 C840 1.386 . S
C844 C839 1.490 . S
C844 C846 1.395 1_554 S
C844 C847 1.403 . S
H845 C851 0.930 . S
C846 H832 0.930 . S
C846 C844 1.395 1_556 S
C846 C849 1.403 . S
C847 C844 1.403 . S
C847 C848 1.524 . S
C847 C851 1.400 . S
C848 H833 0.960 . S
C848 H834 0.960 . S
C848 H835 0.960 . S
C848 C847 1.524 . S
C849 C846 1.403 . S
C849 C850 1.397 . S
C849 C853 1.495 . S
C850 C849 1.397 . S
C850 C851 1.380 1_556 S
C850 C852 1.478 . S
C851 H845 0.930 . S
C851 C847 1.400 . S
C851 C850 1.380 1_554 S
C852 C850 1.478 . S
C852 C854 1.381 . S
C852 C858 1.383 1_556 S
C853 C849 1.495 . S
C853 H859 0.959 . S
C853 H860 0.961 . S
C853 H861 0.960 . S
C854 C852 1.381 . S
C854 C855 1.394 . S
C854 H862 0.930 . S
C855 C854 1.394 . S
C855 C856 1.383 . S
C855 H863 0.929 . S
C856 C855 1.383 . S
C856 C857 1.377 1_556 S
C857 H841 0.930 . S
C857 C856 1.377 1_554 S
C857 C858 1.379 . S
C858 H842 0.931 . S
C858 C852 1.383 1_554 S
C858 C857 1.379 . S
H859 C853 0.959 . S
H860 C853 0.961 . S
H861 C853 0.960 . S
H862 C854 0.930 . S
H863 C855 0.929 . S
H864 C872 0.929 . S
H865 C874 0.930 . S
H866 C876 0.930 . S
H867 C879 0.929 . S
H868 C882 0.930 . S
H869 C884 0.960 . S
H870 C884 0.960 . S
H871 C884 0.960 . S
C872 H864 0.929 . S
C872 C873 1.377 . S
C872 C874 1.384 . S
C873 C872 1.377 . S
C873 C879 1.390 1_554 S
C874 H865 0.930 . S
C874 C872 1.384 . S
C874 C875 1.372 . S
C875 C874 1.372 . S
C875 C876 1.400 1_554 S
C875 C880 1.490 . S
C876 H866 0.930 . S
C876 C875 1.400 1_556 S
C876 C879 1.386 . S
H877 C893 0.930 . S
H878 C894 0.931 . S
C879 H867 0.929 . S
C879 C873 1.390 1_556 S
C879 C876 1.386 . S
C880 C875 1.490 . S
C880 C882 1.395 . S
C880 C883 1.403 1_554 S
H881 C887 0.930 . S
C882 H868 0.930 . S
C882 C880 1.395 . S
C882 C885 1.403 . S
C883 C880 1.403 1_556 S
C883 C884 1.524 . S
C883 C887 1.400 . S
C884 H869 0.960 . S
C884 H870 0.960 . S
C884 H871 0.960 . S
C884 C883 1.524 . S
C885 C882 1.403 . S
C885 C886 1.392 1_554 S
C885 C889 1.495 . S
C886 C885 1.392 1_556 S
C886 C887 1.385 . S
C886 C888 1.478 . S
C887 H881 0.930 . S
C887 C883 1.400 . S
C887 C886 1.385 . S
C888 C886 1.478 . S
C888 C890 1.381 1_556 S
C888 C894 1.383 . S
C889 C885 1.495 . S
C889 H895 0.959 . S
C889 H896 0.961 . S
C889 H897 0.960 . S
C890 C888 1.381 1_554 S
C890 C891 1.394 . S
C890 H898 0.930 . S
C891 C890 1.394 . S
C891 C892 1.383 1_554 S
C891 H899 0.929 . S
C892 C891 1.383 1_556 S
C892 C893 1.377 . S
C893 H877 0.930 . S
C893 C892 1.377 . S
C893 C894 1.379 . S
C894 H878 0.931 . S
C894 C888 1.383 . S
C894 C893 1.379 . S
H895 C889 0.959 . S
H896 C889 0.961 . S
H897 C889 0.960 . S
H898 C890 0.930 . S
H899 C891 0.929 . S
H900 C908 0.929 . S
H901 C910 0.930 . S
H902 C912 0.930 . S
H903 C915 0.929 . S
H904 C918 0.931 . S
H905 C920 0.960 . S
H906 C920 0.960 1_554 S
H907 C920 0.960 . S
C908 H900 0.929 . S
C908 C909 1.377 1_554 S
C908 C910 1.384 . S
C909 C908 1.377 1_556 S
C909 C915 1.390 . S
C910 H901 0.930 . S
C910 C908 1.384 . S
C910 C911 1.372 1_554 S
C911 C910 1.372 1_556 S
C911 C912 1.400 . S
C911 C916 1.490 . S
C912 H902 0.930 . S
C912 C911 1.400 . S
C912 C915 1.386 . S
H913 C929 0.930 . S
H914 C930 0.931 . S
C915 H903 0.929 . S
C915 C909 1.390 . S
C915 C912 1.386 . S
C916 C911 1.490 . S
C916 C918 1.395 . S
C916 C919 1.403 . S
H917 C923 0.930 . S
C918 H904 0.931 . S
C918 C916 1.395 . S
C918 C921 1.403 1_556 S
C919 C916 1.403 . S
C919 C920 1.524 . S
C919 C923 1.400 . S
C920 H905 0.960 . S
C920 H906 0.960 1_556 S
C920 H907 0.960 . S
C920 C919 1.524 . S
C921 C918 1.403 1_554 S
C921 C922 1.395 . S
C921 C925 1.495 . S
C922 C921 1.395 . S
C922 C923 1.380 1_554 S
C922 C924 1.482 . S
C923 H917 0.930 . S
C923 C919 1.400 . S
C923 C922 1.380 1_556 S
C924 C922 1.482 . S
C924 C926 1.381 . S
C924 C930 1.383 1_554 S
C925 C921 1.495 . S
C925 H931 0.959 . S
C925 H932 0.961 1_554 S
C925 H933 0.960 . S
C926 C924 1.381 . S
C926 C927 1.394 . S
C926 H934 0.930 . S
C927 C926 1.394 . S
C927 C928 1.383 . S
C927 H935 0.929 . S
C928 C927 1.383 . S
C928 C929 1.377 1_554 S
C929 H913 0.930 . S
C929 C928 1.377 1_556 S
C929 C930 1.379 . S
C930 H914 0.931 . S
C930 C924 1.383 1_556 S
C930 C929 1.379 . S
H931 C925 0.959 . S
H932 C925 0.961 1_556 S
H933 C925 0.960 . S
H934 C926 0.930 . S
H935 C927 0.929 . S
H936 C944 0.929 . S
H937 C946 0.930 . S
H938 C948 0.930 . S
H939 C951 0.929 . S
H940 C954 0.930 . S
H941 C956 0.960 . S
H942 C956 0.960 . S
H943 C956 0.960 . S
C944 H936 0.929 . S
C944 C945 1.377 . S
C944 C946 1.384 . S
C945 C944 1.377 . S
C945 C951 1.390 . S
C946 H937 0.930 . S
C946 C944 1.384 . S
C946 C947 1.372 . S
C947 C946 1.372 . S
C947 C948 1.400 . S
C947 C952 1.490 . S
C948 H938 0.930 . S
C948 C947 1.400 . S
C948 C951 1.386 . S
H949 C965 0.930 . S
H950 C966 0.931 . S
C951 H939 0.929 . S
C951 C945 1.390 . S
C951 C948 1.386 . S
C952 C947 1.490 . S
C952 C954 1.395 1_556 S
C952 C955 1.403 . S
H953 C959 0.930 . S
C954 H940 0.930 . S
C954 C952 1.395 1_554 S
C954 C957 1.403 . S
C955 C952 1.403 . S
C955 C956 1.524 . S
C955 C959 1.400 . S
C956 H941 0.960 . S
C956 H942 0.960 . S
C956 H943 0.960 . S
C956 C955 1.524 . S
C957 C954 1.403 . S
C957 C958 1.392 . S
C957 C961 1.495 . S
C958 C957 1.392 . S
C958 C959 1.385 1_554 S
C958 C960 1.478 . S
C959 H953 0.930 . S
C959 C955 1.400 . S
C959 C958 1.385 1_556 S
C960 C958 1.478 . S
C960 C962 1.381 . S
C960 C966 1.383 . S
C961 C957 1.495 . S
C961 H967 0.959 . S
C961 H968 0.961 . S
C961 H969 0.960 . S
C962 C960 1.381 . S
C962 C963 1.394 . S
C962 H970 0.930 . S
C963 C962 1.394 . S
C963 C964 1.383 . S
C963 H971 0.929 . S
C964 C963 1.383 . S
C964 C965 1.377 . S
C965 H949 0.930 . S
C965 C964 1.377 . S
C965 C966 1.379 . S
C966 H950 0.931 . S
C966 C960 1.383 . S
C966 C965 1.379 . S
H967 C961 0.959 . S
H968 C961 0.961 . S
H969 C961 0.960 . S
H970 C962 0.930 . S
H971 C963 0.929 . S
H972 C980 0.929 . S
H973 C982 0.930 . S
H974 C984 0.930 . S
H975 C987 0.929 . S
H976 C990 0.930 . S
H977 C992 0.960 . S
H978 C992 0.960 . S
H979 C992 0.960 . S
C980 H972 0.929 . S
C980 C981 1.377 . S
C980 C982 1.384 . S
C981 C980 1.377 . S
C981 C987 1.390 . S
C982 H973 0.930 . S
C982 C980 1.384 . S
C982 C983 1.372 . S
C983 C982 1.372 . S
C983 C984 1.400 . S
C983 C988 1.490 . S
C984 H974 0.930 . S
C984 C983 1.400 . S
C984 C987 1.386 . S
H985 C1001 0.930 . S
H986 C1002 0.931 . S
C987 H975 0.929 . S
C987 C981 1.390 . S
C987 C984 1.386 . S
C988 C983 1.490 . S
C988 C990 1.395 . S
C988 C991 1.403 . S
H989 C995 0.930 . S
C990 H976 0.930 . S
C990 C988 1.395 . S
C990 C993 1.403 1_655 S
C991 C988 1.403 . S
C991 C992 1.524 . S
C991 C995 1.400 1_655 S
C992 H977 0.960 . S
C992 H978 0.960 . S
C992 H979 0.960 . S
C992 C991 1.524 . S
C993 C990 1.403 1_455 S
C993 C994 1.392 . S
C993 C997 1.495 . S
C994 C993 1.392 . S
C994 C995 1.385 . S
C994 C996 1.478 . S
C995 H989 0.930 . S
C995 C991 1.400 1_455 S
C995 C994 1.385 . S
C996 C994 1.478 . S
C996 C998 1.381 . S
C996 C1002 1.383 . S
C997 C993 1.495 . S
C997 H1003 0.959 . S
C997 H1004 0.961 . S
C997 H1005 0.960 . S
C998 C996 1.381 . S
C998 C999 1.394 . S
C998 H1006 0.930 . S
C999 C998 1.394 . S
C999 C1000 1.383 . S
C999 H1007 0.929 . S
C1000 C999 1.383 . S
C1000 C1001 1.377 . S
C1001 H985 0.930 . S
C1001 C1000 1.377 . S
C1001 C1002 1.379 . S
C1002 H986 0.931 . S
C1002 C996 1.383 . S
C1002 C1001 1.379 . S
H1003 C997 0.959 . S
H1004 C997 0.961 . S
H1005 C997 0.960 . S
H1006 C998 0.930 . S
H1007 C999 0.929 . S
H1008 C1016 0.929 . S
H1009 C1018 0.930 . S
H1010 C1020 0.930 . S
H1011 C1023 0.929 . S
H1012 C1026 0.930 . S
H1013 C1028 0.960 . S
H1014 C1028 0.960 . S
H1015 C1028 0.960 . S
C1016 H1008 0.929 . S
C1016 C1017 1.377 . S
C1016 C1018 1.384 . S
C1017 C1016 1.377 . S
C1017 C1023 1.390 . S
C1018 H1009 0.930 . S
C1018 C1016 1.384 . S
C1018 C1019 1.372 . S
C1019 C1018 1.372 . S
C1019 C1020 1.400 . S
C1019 C1024 1.490 . S
C1020 H1010 0.930 . S
C1020 C1019 1.400 . S
C1020 C1023 1.386 . S
H1021 C1037 0.930 . S
H1022 C1038 0.931 . S
C1023 H1011 0.929 . S
C1023 C1017 1.390 . S
C1023 C1020 1.386 . S
C1024 C1019 1.490 . S
C1024 C1026 1.395 . S
C1024 C1027 1.403 . S
H1025 C1031 0.930 . S
C1026 H1012 0.930 . S
C1026 C1024 1.395 . S
C1026 C1029 1.403 . S
C1027 C1024 1.403 . S
C1027 C1028 1.524 . S
C1027 C1031 1.400 . S
C1028 H1013 0.960 . S
C1028 H1014 0.960 . S
C1028 H1015 0.960 . S
C1028 C1027 1.524 . S
C1029 C1026 1.403 . S
C1029 C1030 1.392 . S
C1029 C1033 1.495 . S
C1030 C1029 1.392 . S
C1030 C1031 1.385 . S
C1030 C1032 1.478 . S
C1031 H1025 0.930 . S
C1031 C1027 1.400 . S
C1031 C1030 1.385 . S
C1032 C1030 1.478 . S
C1032 C1034 1.381 . S
C1032 C1038 1.383 . S
C1033 C1029 1.495 . S
C1033 H1039 0.959 . S
C1033 H1040 0.961 . S
C1033 H1041 0.960 . S
C1034 C1032 1.381 . S
C1034 C1035 1.394 . S
C1034 H1042 0.930 . S
C1035 C1034 1.394 . S
C1035 C1036 1.383 . S
C1035 H1043 0.929 . S
C1036 C1035 1.383 . S
C1036 C1037 1.377 . S
C1037 H1021 0.930 . S
C1037 C1036 1.377 . S
C1037 C1038 1.379 . S
C1038 H1022 0.931 . S
C1038 C1032 1.383 . S
C1038 C1037 1.379 . S
H1039 C1033 0.959 . S
H1040 C1033 0.961 . S
H1041 C1033 0.960 . S
H1042 C1034 0.930 . S
H1043 C1035 0.929 . S
H1044 C1052 0.929 . S
H1045 C1054 0.930 . S
H1046 C1056 0.930 . S
H1047 C1059 0.929 . S
H1048 C1062 0.930 . S
H1049 C1064 0.960 . S
H1050 C1064 0.960 . S
H1051 C1064 0.960 . S
C1052 H1044 0.929 . S
C1052 C1053 1.377 . S
C1052 C1054 1.384 . S
C1053 C1052 1.377 . S
C1053 C1059 1.390 . S
C1054 H1045 0.930 . S
C1054 C1052 1.384 . S
C1054 C1055 1.372 . S
C1055 C1054 1.372 . S
C1055 C1056 1.400 . S
C1055 C1060 1.490 . S
C1056 H1046 0.930 . S
C1056 C1055 1.400 . S
C1056 C1059 1.386 . S
H1057 C1073 0.930 . S
H1058 C1074 0.931 . S
C1059 H1047 0.929 . S
C1059 C1053 1.390 . S
C1059 C1056 1.386 . S
C1060 C1055 1.490 . S
C1060 C1062 1.395 . S
C1060 C1063 1.403 . S
H1061 C1067 0.930 1_565 S
C1062 H1048 0.930 . S
C1062 C1060 1.395 . S
C1062 C1065 1.403 1_545 S
C1063 C1060 1.403 . S
C1063 C1064 1.524 . S
C1063 C1067 1.400 . S
C1064 H1049 0.960 . S
C1064 H1050 0.960 . S
C1064 H1051 0.960 . S
C1064 C1063 1.524 . S
C1065 C1062 1.403 1_565 S
C1065 C1066 1.392 . S
C1065 C1069 1.495 . S
C1066 C1065 1.392 . S
C1066 C1067 1.385 1_565 S
C1066 C1068 1.478 . S
C1067 H1061 0.930 1_545 S
C1067 C1063 1.400 . S
C1067 C1066 1.385 1_545 S
C1068 C1066 1.478 . S
C1068 C1070 1.381 . S
C1068 C1074 1.383 . S
C1069 C1065 1.495 . S
C1069 H1075 0.959 . S
C1069 H1076 0.961 . S
C1069 H1077 0.960 . S
C1070 C1068 1.381 . S
C1070 C1071 1.394 . S
C1070 H1078 0.930 . S
C1071 C1070 1.394 . S
C1071 C1072 1.383 . S
C1071 H1079 0.929 . S
C1072 C1071 1.383 . S
C1072 C1073 1.377 . S
C1073 H1057 0.930 . S
C1073 C1072 1.377 . S
C1073 C1074 1.379 . S
C1074 H1058 0.931 . S
C1074 C1068 1.383 . S
C1074 C1073 1.379 . S
H1075 C1069 0.959 . S
H1076 C1069 0.961 . S
H1077 C1069 0.960 . S
H1078 C1070 0.930 . S
H1079 C1071 0.929 . S
H1080 C1088 0.929 . S
H1081 C1090 0.930 . S
H1082 C1092 0.930 . S
H1083 C1095 0.929 . S
H1084 C1098 0.930 . S
H1085 C1100 0.960 . S
H1086 C1100 0.960 . S
H1087 C1100 0.960 . S
C1088 H1080 0.929 . S
C1088 C1089 1.377 . S
C1088 C1090 1.384 . S
C1089 C1088 1.377 . S
C1089 C1095 1.390 . S
C1090 H1081 0.930 . S
C1090 C1088 1.384 . S
C1090 C1091 1.372 . S
C1091 C1090 1.372 . S
C1091 C1092 1.400 . S
C1091 C1096 1.490 . S
C1092 H1082 0.930 . S
C1092 C1091 1.400 . S
C1092 C1095 1.386 . S
H1093 C1109 0.930 . S
H1094 C1110 0.931 . S
C1095 H1083 0.929 . S
C1095 C1089 1.390 . S
C1095 C1092 1.386 . S
C1096 C1091 1.490 . S
C1096 C1098 1.395 . S
C1096 C1099 1.403 . S
H1097 C1103 0.930 . S
C1098 H1084 0.930 . S
C1098 C1096 1.395 . S
C1098 C1101 1.403 . S
C1099 C1096 1.403 . S
C1099 C1100 1.524 . S
C1099 C1103 1.400 . S
C1100 H1085 0.960 . S
C1100 H1086 0.960 . S
C1100 H1087 0.960 . S
C1100 C1099 1.524 . S
C1101 C1098 1.403 . S
C1101 C1102 1.392 . S
C1101 C1105 1.495 . S
C1102 C1101 1.392 . S
C1102 C1103 1.385 . S
C1102 C1104 1.478 . S
C1103 H1097 0.930 . S
C1103 C1099 1.400 . S
C1103 C1102 1.385 . S
C1104 C1102 1.478 . S
C1104 C1106 1.381 . S
C1104 C1110 1.383 . S
C1105 C1101 1.495 . S
C1105 H1111 0.959 . S
C1105 H1112 0.961 . S
C1105 H1113 0.960 . S
C1106 C1104 1.381 . S
C1106 C1107 1.394 . S
C1106 H1114 0.930 . S
C1107 C1106 1.394 . S
C1107 C1108 1.383 . S
C1107 H1115 0.929 . S
C1108 C1107 1.383 . S
C1108 C1109 1.377 . S
C1109 H1093 0.930 . S
C1109 C1108 1.377 . S
C1109 C1110 1.379 . S
C1110 H1094 0.931 . S
C1110 C1104 1.383 . S
C1110 C1109 1.379 . S
H1111 C1105 0.959 . S
H1112 C1105 0.961 . S
H1113 C1105 0.960 . S
H1114 C1106 0.930 . S
H1115 C1107 0.929 . S
H1116 C1124 0.929 . S
H1117 C1126 0.930 . S
H1118 C1128 0.930 . S
H1119 C1131 0.929 . S
H1120 C1134 0.930 . S
H1121 C1136 0.960 . S
H1122 C1136 0.960 . S
H1123 C1136 0.960 . S
C1124 H1116 0.929 . S
C1124 C1125 1.377 . S
C1124 C1126 1.384 . S
C1125 C1124 1.377 . S
C1125 C1131 1.390 . S
C1126 H1117 0.930 . S
C1126 C1124 1.384 . S
C1126 C1127 1.372 . S
C1127 C1126 1.372 . S
C1127 C1128 1.400 . S
C1127 C1132 1.490 . S
C1128 H1118 0.930 . S
C1128 C1127 1.400 . S
C1128 C1131 1.386 . S
H1129 C1145 0.930 . S
H1130 C1146 0.931 . S
C1131 H1119 0.929 . S
C1131 C1125 1.390 . S
C1131 C1128 1.386 . S
C1132 C1127 1.490 . S
C1132 C1134 1.395 . S
C1132 C1135 1.403 . S
H1133 C1139 0.930 . S
C1134 H1120 0.930 . S
C1134 C1132 1.395 . S
C1134 C1137 1.403 . S
C1135 C1132 1.403 . S
C1135 C1136 1.524 . S
C1135 C1139 1.400 . S
C1136 H1121 0.960 . S
C1136 H1122 0.960 . S
C1136 H1123 0.960 . S
C1136 C1135 1.524 . S
C1137 C1134 1.403 . S
C1137 C1138 1.392 . S
C1137 C1141 1.495 . S
C1138 C1137 1.392 . S
C1138 C1139 1.385 . S
C1138 C1140 1.478 . S
C1139 H1133 0.930 . S
C1139 C1135 1.400 . S
C1139 C1138 1.385 . S
C1140 C1138 1.478 . S
C1140 C1142 1.381 . S
C1140 C1146 1.383 . S
C1141 C1137 1.495 . S
C1141 H1147 0.959 . S
C1141 H1148 0.961 . S
C1141 H1149 0.960 . S
C1142 C1140 1.381 . S
C1142 C1143 1.394 . S
C1142 H1150 0.930 . S
C1143 C1142 1.394 . S
C1143 C1144 1.383 . S
C1143 H1151 0.929 . S
C1144 C1143 1.383 . S
C1144 C1145 1.377 . S
C1145 H1129 0.930 . S
C1145 C1144 1.377 . S
C1145 C1146 1.379 . S
C1146 H1130 0.931 . S
C1146 C1140 1.383 . S
C1146 C1145 1.379 . S
H1147 C1141 0.959 . S
H1148 C1141 0.961 . S
H1149 C1141 0.960 . S
H1150 C1142 0.930 . S
H1151 C1143 0.929 . S
H1152 C1160 0.929 . S
H1153 C1162 0.930 . S
H1154 C1164 0.930 . S
H1155 C1167 0.929 . S
H1156 C1170 0.930 . S
H1157 C1172 0.960 . S
H1158 C1172 0.960 . S
H1159 C1172 0.960 . S
C1160 H1152 0.929 . S
C1160 C1161 1.377 . S
C1160 C1162 1.384 . S
C1161 C1160 1.377 . S
C1161 C1167 1.390 . S
C1162 H1153 0.930 . S
C1162 C1160 1.384 . S
C1162 C1163 1.372 . S
C1163 C1162 1.372 . S
C1163 C1164 1.400 . S
C1163 C1168 1.490 . S
C1164 H1154 0.930 . S
C1164 C1163 1.400 . S
C1164 C1167 1.386 . S
H1165 C1181 0.930 . S
H1166 C1182 0.931 . S
C1167 H1155 0.929 . S
C1167 C1161 1.390 . S
C1167 C1164 1.386 . S
C1168 C1163 1.490 . S
C1168 C1170 1.395 . S
C1168 C1171 1.403 . S
H1169 C1175 0.930 . S
C1170 H1156 0.930 . S
C1170 C1168 1.395 . S
C1170 C1173 1.403 . S
C1171 C1168 1.403 . S
C1171 C1172 1.524 . S
C1171 C1175 1.400 . S
C1172 H1157 0.960 . S
C1172 H1158 0.960 . S
C1172 H1159 0.960 . S
C1172 C1171 1.524 . S
C1173 C1170 1.403 . S
C1173 C1174 1.392 . S
C1173 C1177 1.495 . S
C1174 C1173 1.392 . S
C1174 C1175 1.385 . S
C1174 C1176 1.478 . S
C1175 H1169 0.930 . S
C1175 C1171 1.400 . S
C1175 C1174 1.385 . S
C1176 C1174 1.478 . S
C1176 C1178 1.381 . S
C1176 C1182 1.383 . S
C1177 C1173 1.495 . S
C1177 H1183 0.959 . S
C1177 H1184 0.961 . S
C1177 H1185 0.960 . S
C1178 C1176 1.381 . S
C1178 C1179 1.394 . S
C1178 H1186 0.930 . S
C1179 C1178 1.394 . S
C1179 C1180 1.383 . S
C1179 H1187 0.929 . S
C1180 C1179 1.383 . S
C1180 C1181 1.377 . S
C1181 H1165 0.930 . S
C1181 C1180 1.377 . S
C1181 C1182 1.379 . S
C1182 H1166 0.931 . S
C1182 C1176 1.383 . S
C1182 C1181 1.379 . S
H1183 C1177 0.959 . S
H1184 C1177 0.961 . S
H1185 C1177 0.960 . S
H1186 C1178 0.930 . S
H1187 C1179 0.929 . S
H1188 C1196 0.929 . S
H1189 C1198 0.930 . S
H1190 C1200 0.930 . S
H1191 C1203 0.929 . S
H1192 C1206 0.930 . S
H1193 C1208 0.960 . S
H1194 C1208 0.960 . S
H1195 C1208 0.960 . S
C1196 H1188 0.929 . S
C1196 C1197 1.377 . S
C1196 C1198 1.384 . S
C1197 C1196 1.377 . S
C1197 C1203 1.390 . S
C1198 H1189 0.930 . S
C1198 C1196 1.384 . S
C1198 C1199 1.372 . S
C1199 C1198 1.372 . S
C1199 C1200 1.400 . S
C1199 C1204 1.490 . S
C1200 H1190 0.930 . S
C1200 C1199 1.400 . S
C1200 C1203 1.386 . S
H1201 C1217 0.930 . S
H1202 C1218 0.931 . S
C1203 H1191 0.929 . S
C1203 C1197 1.390 . S
C1203 C1200 1.386 . S
C1204 C1199 1.490 . S
C1204 C1206 1.395 . S
C1204 C1207 1.403 . S
H1205 C1211 0.930 . S
C1206 H1192 0.930 . S
C1206 C1204 1.395 . S
C1206 C1209 1.403 . S
C1207 C1204 1.403 . S
C1207 C1208 1.524 . S
C1207 C1211 1.400 . S
C1208 H1193 0.960 . S
C1208 H1194 0.960 . S
C1208 H1195 0.960 . S
C1208 C1207 1.524 . S
C1209 C1206 1.403 . S
C1209 C1210 1.392 . S
C1209 C1213 1.495 . S
C1210 C1209 1.392 . S
C1210 C1211 1.385 . S
C1210 C1212 1.478 . S
C1211 H1205 0.930 . S
C1211 C1207 1.400 . S
C1211 C1210 1.385 . S
C1212 C1210 1.478 . S
C1212 C1214 1.381 . S
C1212 C1218 1.383 . S
C1213 C1209 1.495 . S
C1213 H1219 0.959 . S
C1213 H1220 0.961 . S
C1213 H1221 0.960 . S
C1214 C1212 1.381 . S
C1214 C1215 1.394 . S
C1214 H1222 0.930 . S
C1215 C1214 1.394 . S
C1215 C1216 1.383 . S
C1215 H1223 0.929 . S
C1216 C1215 1.383 . S
C1216 C1217 1.377 . S
C1217 H1201 0.930 . S
C1217 C1216 1.377 . S
C1217 C1218 1.379 . S
C1218 H1202 0.931 . S
C1218 C1212 1.383 . S
C1218 C1217 1.379 . S
H1219 C1213 0.959 . S
H1220 C1213 0.961 . S
H1221 C1213 0.960 . S
H1222 C1214 0.930 . S
H1223 C1215 0.929 . S
H1224 C1232 0.929 . S
H1225 C1234 0.930 . S
H1226 C1236 0.930 . S
H1227 C1239 0.929 . S
H1228 C1242 0.930 . S
H1229 C1244 0.960 . S
H1230 C1244 0.960 . S
H1231 C1244 0.960 . S
C1232 H1224 0.929 . S
C1232 C1233 1.377 . S
C1232 C1234 1.384 . S
C1233 C1232 1.377 . S
C1233 C1239 1.390 . S
C1234 H1225 0.930 . S
C1234 C1232 1.384 . S
C1234 C1235 1.372 . S
C1235 C1234 1.372 . S
C1235 C1236 1.400 . S
C1235 C1240 1.490 . S
C1236 H1226 0.930 . S
C1236 C1235 1.400 . S
C1236 C1239 1.386 . S
H1237 C1253 0.930 . S
H1238 C1254 0.931 . S
C1239 H1227 0.929 . S
C1239 C1233 1.390 . S
C1239 C1236 1.386 . S
C1240 C1235 1.490 . S
C1240 C1242 1.395 . S
C1240 C1243 1.403 . S
H1241 C1247 0.930 . S
C1242 H1228 0.930 . S
C1242 C1240 1.395 . S
C1242 C1245 1.403 . S
C1243 C1240 1.403 . S
C1243 C1244 1.524 . S
C1243 C1247 1.400 . S
C1244 H1229 0.960 . S
C1244 H1230 0.960 . S
C1244 H1231 0.960 . S
C1244 C1243 1.524 . S
C1245 C1242 1.403 . S
C1245 C1246 1.392 . S
C1245 C1249 1.495 . S
C1246 C1245 1.392 . S
C1246 C1247 1.385 . S
C1246 C1248 1.478 . S
C1247 H1241 0.930 . S
C1247 C1243 1.400 . S
C1247 C1246 1.385 . S
C1248 C1246 1.478 . S
C1248 C1250 1.381 . S
C1248 C1254 1.383 . S
C1249 C1245 1.495 . S
C1249 H1255 0.959 . S
C1249 H1256 0.961 . S
C1249 H1257 0.960 . S
C1250 C1248 1.381 . S
C1250 C1251 1.394 . S
C1250 H1258 0.930 . S
C1251 C1250 1.394 . S
C1251 C1252 1.383 . S
C1251 H1259 0.929 . S
C1252 C1251 1.383 . S
C1252 C1253 1.377 . S
C1253 H1237 0.930 . S
C1253 C1252 1.377 . S
C1253 C1254 1.379 . S
C1254 H1238 0.931 . S
C1254 C1248 1.383 . S
C1254 C1253 1.379 . S
H1255 C1249 0.959 . S
H1256 C1249 0.961 . S
H1257 C1249 0.960 . S
H1258 C1250 0.930 . S
H1259 C1251 0.929 . S
H1260 C1268 0.929 . S
H1261 C1270 0.930 . S
H1262 C1272 0.930 . S
H1263 C1275 0.929 . S
H1264 C1278 0.930 . S
H1265 C1280 0.960 . S
H1266 C1280 0.960 . S
H1267 C1280 0.960 . S
C1268 H1260 0.929 . S
C1268 C1269 1.377 . S
C1268 C1270 1.384 . S
C1269 C1268 1.377 . S
C1269 C1275 1.390 . S
C1270 H1261 0.930 . S
C1270 C1268 1.384 . S
C1270 C1271 1.372 . S
C1271 C1270 1.372 . S
C1271 C1272 1.400 . S
C1271 C1276 1.490 . S
C1272 H1262 0.930 . S
C1272 C1271 1.400 . S
C1272 C1275 1.386 . S
H1273 C1289 0.930 . S
H1274 C1290 0.931 . S
C1275 H1263 0.929 . S
C1275 C1269 1.390 . S
C1275 C1272 1.386 . S
C1276 C1271 1.490 . S
C1276 C1278 1.395 . S
C1276 C1279 1.403 . S
H1277 C1283 0.930 . S
C1278 H1264 0.930 . S
C1278 C1276 1.395 . S
C1278 C1281 1.403 . S
C1279 C1276 1.403 . S
C1279 C1280 1.524 . S
C1279 C1283 1.400 . S
C1280 H1265 0.960 . S
C1280 H1266 0.960 . S
C1280 H1267 0.960 . S
C1280 C1279 1.524 . S
C1281 C1278 1.403 . S
C1281 C1282 1.392 . S
C1281 C1285 1.495 . S
C1282 C1281 1.392 . S
C1282 C1283 1.385 . S
C1282 C1284 1.478 . S
C1283 H1277 0.930 . S
C1283 C1279 1.400 . S
C1283 C1282 1.385 . S
C1284 C1282 1.478 . S
C1284 C1286 1.381 . S
C1284 C1290 1.383 . S
C1285 C1281 1.495 . S
C1285 H1291 0.959 . S
C1285 H1292 0.961 . S
C1285 H1293 0.960 . S
C1286 C1284 1.381 . S
C1286 C1287 1.394 . S
C1286 H1294 0.930 . S
C1287 C1286 1.394 . S
C1287 C1288 1.383 . S
C1287 H1295 0.929 . S
C1288 C1287 1.383 . S
C1288 C1289 1.377 . S
C1289 H1273 0.930 . S
C1289 C1288 1.377 . S
C1289 C1290 1.379 . S
C1290 H1274 0.931 . S
C1290 C1284 1.383 . S
C1290 C1289 1.379 . S
H1291 C1285 0.959 . S
H1292 C1285 0.961 . S
H1293 C1285 0.960 . S
H1294 C1286 0.930 . S
H1295 C1287 0.929 . S
H1296 C1304 0.929 . S
H1297 C1306 0.930 . S
H1298 C1308 0.930 . S
H1299 C1311 0.929 . S
H1300 C1314 0.930 . S
H1301 C1316 0.960 . S
H1302 C1316 0.960 . S
H1303 C1316 0.960 . S
C1304 H1296 0.929 . S
C1304 C1305 1.377 . S
C1304 C1306 1.384 . S
C1305 C1304 1.377 . S
C1305 C1311 1.390 . S
C1306 H1297 0.930 . S
C1306 C1304 1.384 . S
C1306 C1307 1.372 . S
C1307 C1306 1.372 . S
C1307 C1308 1.400 . S
C1307 C1312 1.490 . S
C1308 H1298 0.930 . S
C1308 C1307 1.400 . S
C1308 C1311 1.386 . S
H1309 C1325 0.930 . S
H1310 C1326 0.931 . S
C1311 H1299 0.929 . S
C1311 C1305 1.390 . S
C1311 C1308 1.386 . S
C1312 C1307 1.490 . S
C1312 C1314 1.395 . S
C1312 C1315 1.403 . S
H1313 C1319 0.930 . S
C1314 H1300 0.930 . S
C1314 C1312 1.395 . S
C1314 C1317 1.403 . S
C1315 C1312 1.403 . S
C1315 C1316 1.524 . S
C1315 C1319 1.400 . S
C1316 H1301 0.960 . S
C1316 H1302 0.960 . S
C1316 H1303 0.960 . S
C1316 C1315 1.524 . S
C1317 C1314 1.403 . S
C1317 C1318 1.392 . S
C1317 C1321 1.495 . S
C1318 C1317 1.392 . S
C1318 C1319 1.385 . S
C1318 C1320 1.478 . S
C1319 H1313 0.930 . S
C1319 C1315 1.400 . S
C1319 C1318 1.385 . S
C1320 C1318 1.478 . S
C1320 C1322 1.381 . S
C1320 C1326 1.383 . S
C1321 C1317 1.495 . S
C1321 H1327 0.959 . S
C1321 H1328 0.961 . S
C1321 H1329 0.960 . S
C1322 C1320 1.381 . S
C1322 C1323 1.426 . S
C1322 H1330 0.930 . S
C1323 C1322 1.426 . S
C1323 C1324 1.372 1_565 S
C1323 H1331 0.910 1_565 S
C1324 C1323 1.372 1_545 S
C1324 C1325 1.377 . S
C1325 H1309 0.930 . S
C1325 C1324 1.377 . S
C1325 C1326 1.379 1_545 S
C1326 H1310 0.931 . S
C1326 C1320 1.383 . S
C1326 C1325 1.379 1_565 S
H1327 C1321 0.959 . S
H1328 C1321 0.961 . S
H1329 C1321 0.960 . S
H1330 C1322 0.930 . S
H1331 C1323 0.910 1_545 S
H1332 C1340 0.929 1_655 S
H1333 C1342 0.930 . S
H1334 C1344 0.930 . S
H1335 C1347 0.929 1_655 S
H1336 C1350 0.930 . S
H1337 C1352 0.931 1_545 S
H1338 C1352 0.960 . S
H1339 C1352 0.960 . S
C1340 H1332 0.929 1_455 S
C1340 C1341 1.377 1_455 S
C1340 C1342 1.384 . S
C1341 C1340 1.377 1_655 S
C1341 C1347 1.390 1_655 S
C1342 H1333 0.930 . S
C1342 C1340 1.384 . S
C1342 C1343 1.372 . S
C1343 C1342 1.372 . S
C1343 C1344 1.400 . S
C1343 C1348 1.490 . S
C1344 H1334 0.930 . S
C1344 C1343 1.400 . S
C1344 C1347 1.386 . S
H1345 C1361 0.930 . S
H1346 C1362 0.931 . S
C1347 H1335 0.929 1_455 S
C1347 C1341 1.390 1_455 S
C1347 C1344 1.386 . S
C1348 C1343 1.490 . S
C1348 C1350 1.395 . S
C1348 C1351 1.403 . S
H1349 C1355 0.930 1_545 S
C1350 H1336 0.930 . S
C1350 C1348 1.395 . S
C1350 C1353 1.403 . S
C1351 C1348 1.403 . S
C1351 C1352 1.524 . S
C1351 C1355 1.400 . S
C1352 H1337 0.931 1_565 S
C1352 H1338 0.960 . S
C1352 H1339 0.960 . S
C1352 C1351 1.524 . S
C1353 C1350 1.403 . S
C1353 C1354 1.392 . S
C1353 C1357 1.495 . S
C1354 C1353 1.392 . S
C1354 C1355 1.385 . S
C1354 C1356 1.478 1_565 S
C1355 H1349 0.930 1_565 S
C1355 C1351 1.400 . S
C1355 C1354 1.385 . S
C1356 C1354 1.478 1_545 S
C1356 C1358 1.381 . S
C1356 C1362 1.383 . S
C1357 C1353 1.495 . S
C1357 H1363 0.959 . S
C1357 H1364 0.961 . S
C1357 H1365 0.960 . S
C1358 C1356 1.381 . S
C1358 C1359 1.394 . S
C1358 H1366 0.930 1_545 S
C1359 C1358 1.394 . S
C1359 C1360 1.383 . S
C1359 H1367 0.929 . S
C1360 C1359 1.383 . S
C1360 C1361 1.377 . S
C1361 H1345 0.930 . S
C1361 C1360 1.377 . S
C1361 C1362 1.379 . S
C1362 H1346 0.931 . S
C1362 C1356 1.383 . S
C1362 C1361 1.379 . S
H1363 C1357 0.959 . S
H1364 C1357 0.961 . S
H1365 C1357 0.960 . S
H1366 C1358 0.930 1_565 S
H1367 C1359 0.929 . S
H1368 C1376 0.929 . S
H1369 C1378 0.930 . S
H1370 C1380 0.930 . S
H1371 C1383 0.929 . S
H1372 C1386 0.930 . S
H1373 C1388 0.960 . S
H1374 C1388 0.960 . S
H1375 C1388 0.960 . S
C1376 H1368 0.929 . S
C1376 C1377 1.377 . S
C1376 C1378 1.384 . S
C1377 C1376 1.377 . S
C1377 C1383 1.390 . S
C1378 H1369 0.930 . S
C1378 C1376 1.384 . S
C1378 C1379 1.372 . S
C1379 C1378 1.372 . S
C1379 C1380 1.400 . S
C1379 C1384 1.490 . S
C1380 H1370 0.930 . S
C1380 C1379 1.400 . S
C1380 C1383 1.386 . S
H1381 C1397 0.930 . S
H1382 C1398 0.931 . S
C1383 H1371 0.929 . S
C1383 C1377 1.390 . S
C1383 C1380 1.386 . S
C1384 C1379 1.490 . S
C1384 C1386 1.395 . S
C1384 C1387 1.403 . S
H1385 C1391 0.930 . S
C1386 H1372 0.930 . S
C1386 C1384 1.395 . S
C1386 C1389 1.403 . S
C1387 C1384 1.403 . S
C1387 C1388 1.524 . S
C1387 C1391 1.400 . S
C1388 H1373 0.960 . S
C1388 H1374 0.960 . S
C1388 H1375 0.960 . S
C1388 C1387 1.524 . S
C1389 C1386 1.403 . S
C1389 C1390 1.392 . S
C1389 C1393 1.495 . S
C1390 C1389 1.392 . S
C1390 C1391 1.385 . S
C1390 C1392 1.478 . S
C1391 H1385 0.930 . S
C1391 C1387 1.400 . S
C1391 C1390 1.385 . S
C1392 C1390 1.478 . S
C1392 C1394 1.381 . S
C1392 C1398 1.383 1_455 S
C1393 C1389 1.495 . S
C1393 H1399 0.959 . S
C1393 H1400 0.961 . S
C1393 H1401 0.960 . S
C1394 C1392 1.381 . S
C1394 C1395 1.394 1_455 S
C1394 H1402 0.930 . S
C1395 C1394 1.394 1_655 S
C1395 C1396 1.383 . S
C1395 H1403 0.929 . S
C1396 C1395 1.383 . S
C1396 C1397 1.377 . S
C1397 H1381 0.930 . S
C1397 C1396 1.377 . S
C1397 C1398 1.379 . S
C1398 H1382 0.931 . S
C1398 C1392 1.383 1_655 S
C1398 C1397 1.379 . S
H1399 C1393 0.959 . S
H1400 C1393 0.961 . S
H1401 C1393 0.960 . S
H1402 C1394 0.930 . S
H1403 C1395 0.929 . S
H1404 C1412 0.929 . S
H1405 C1414 0.930 . S
H1406 C1416 0.930 . S
H1407 C1419 0.929 . S
H1408 C1422 0.930 . S
H1409 C1424 0.960 . S
H1410 C1424 0.960 . S
H1411 C1424 0.960 . S
C1412 H1404 0.929 . S
C1412 C1413 1.377 . S
C1412 C1414 1.384 . S
C1413 C1412 1.377 . S
C1413 C1419 1.390 . S
C1414 H1405 0.930 . S
C1414 C1412 1.384 . S
C1414 C1415 1.372 . S
C1415 C1414 1.372 . S
C1415 C1416 1.400 . S
C1415 C1420 1.490 . S
C1416 H1406 0.930 . S
C1416 C1415 1.400 . S
C1416 C1419 1.386 . S
H1417 C1433 0.930 . S
H1418 C1434 0.931 . S
C1419 H1407 0.929 . S
C1419 C1413 1.390 . S
C1419 C1416 1.386 . S
C1420 C1415 1.490 . S
C1420 C1422 1.395 . S
C1420 C1423 1.403 . S
H1421 C1427 0.930 . S
C1422 H1408 0.930 . S
C1422 C1420 1.395 . S
C1422 C1425 1.403 . S
C1423 C1420 1.403 . S
C1423 C1424 1.524 . S
C1423 C1427 1.400 . S
C1424 H1409 0.960 . S
C1424 H1410 0.960 . S
C1424 H1411 0.960 . S
C1424 C1423 1.524 . S
C1425 C1422 1.403 . S
C1425 C1426 1.392 . S
C1425 C1429 1.495 . S
C1426 C1425 1.392 . S
C1426 C1427 1.385 . S
C1426 C1428 1.478 . S
C1427 H1421 0.930 . S
C1427 C1423 1.400 . S
C1427 C1426 1.385 . S
C1428 C1426 1.478 . S
C1428 C1430 1.381 . S
C1428 C1434 1.383 . S
C1429 C1425 1.495 . S
C1429 H1435 0.959 . S
C1429 H1436 0.961 . S
C1429 H1437 0.960 . S
C1430 C1428 1.381 . S
C1430 C1431 1.394 . S
C1430 H1438 0.930 . S
C1431 C1430 1.394 . S
C1431 C1432 1.383 . S
C1431 H1439 0.929 . S
C1432 C1431 1.383 . S
C1432 C1433 1.377 . S
C1433 H1417 0.930 . S
C1433 C1432 1.377 . S
C1433 C1434 1.379 . S
C1434 H1418 0.931 . S
C1434 C1428 1.383 . S
C1434 C1433 1.379 . S
H1435 C1429 0.959 . S
H1436 C1429 0.961 . S
H1437 C1429 0.960 . S
H1438 C1430 0.930 . S
H1439 C1431 0.929 . S
H1440 C1448 0.929 . S
H1441 C1450 0.930 . S
H1442 C1452 0.930 . S
H1443 C1455 0.929 . S
H1444 C1458 0.930 . S
H1445 C1460 0.960 . S
H1446 C1460 0.960 . S
H1447 C1460 0.960 . S
C1448 H1440 0.929 . S
C1448 C1449 1.377 . S
C1448 C1450 1.384 . S
C1449 C1448 1.377 . S
C1449 C1455 1.390 . S
C1450 H1441 0.930 . S
C1450 C1448 1.384 . S
C1450 C1451 1.372 . S
C1451 C1450 1.372 . S
C1451 C1452 1.400 . S
C1451 C1456 1.490 . S
C1452 H1442 0.930 . S
C1452 C1451 1.400 . S
C1452 C1455 1.386 . S
H1453 C1469 0.930 . S
H1454 C1470 0.931 . S
C1455 H1443 0.929 . S
C1455 C1449 1.390 . S
C1455 C1452 1.386 . S
C1456 C1451 1.490 . S
C1456 C1458 1.395 . S
C1456 C1459 1.403 . S
H1457 C1463 0.930 . S
C1458 H1444 0.930 . S
C1458 C1456 1.395 . S
C1458 C1461 1.403 . S
C1459 C1456 1.403 . S
C1459 C1460 1.524 . S
C1459 C1463 1.400 . S
C1460 H1445 0.960 . S
C1460 H1446 0.960 . S
C1460 H1447 0.960 . S
C1460 C1459 1.524 . S
C1461 C1458 1.403 . S
C1461 C1462 1.392 . S
C1461 C1465 1.495 . S
C1462 C1461 1.392 . S
C1462 C1463 1.385 . S
C1462 C1464 1.478 . S
C1463 H1457 0.930 . S
C1463 C1459 1.400 . S
C1463 C1462 1.385 . S
C1464 C1462 1.478 . S
C1464 C1466 1.381 . S
C1464 C1470 1.383 . S
C1465 C1461 1.495 . S
C1465 H1471 0.959 . S
C1465 H1472 0.961 . S
C1465 H1473 0.960 . S
C1466 C1464 1.381 . S
C1466 C1467 1.394 . S
C1466 H1474 0.930 . S
C1467 C1466 1.394 . S
C1467 C1468 1.383 . S
C1467 H1475 0.929 . S
C1468 C1467 1.383 . S
C1468 C1469 1.377 . S
C1469 H1453 0.930 . S
C1469 C1468 1.377 . S
C1469 C1470 1.379 . S
C1470 H1454 0.931 . S
C1470 C1464 1.383 . S
C1470 C1469 1.379 . S
H1471 C1465 0.959 . S
H1472 C1465 0.961 . S
H1473 C1465 0.960 . S
H1474 C1466 0.930 . S
H1475 C1467 0.929 . S
H1476 C1484 0.929 . S
H1477 C1486 0.930 . S
H1478 C1488 0.930 . S
H1479 C1491 0.929 1_545 S
H1480 C1494 0.930 . S
H1481 C1496 0.960 . S
H1482 C1496 0.960 . S
H1483 C1496 0.960 . S
C1484 H1476 0.929 . S
C1484 C1485 1.377 . S
C1484 C1486 1.384 . S
C1485 C1484 1.377 . S
C1485 C1491 1.390 . S
C1486 H1477 0.930 . S
C1486 C1484 1.384 . S
C1486 C1487 1.372 . S
C1487 C1486 1.372 . S
C1487 C1488 1.400 . S
C1487 C1492 1.490 . S
C1488 H1478 0.930 . S
C1488 C1487 1.400 . S
C1488 C1491 1.386 . S
H1489 C1505 0.930 . S
H1490 C1506 0.931 . S
C1491 H1479 0.929 1_565 S
C1491 C1485 1.390 . S
C1491 C1488 1.386 . S
C1492 C1487 1.490 . S
C1492 C1494 1.395 . S
C1492 C1495 1.403 . S
H1493 C1499 0.930 . S
C1494 H1480 0.930 . S
C1494 C1492 1.395 . S
C1494 C1497 1.403 . S
C1495 C1492 1.403 . S
C1495 C1496 1.524 . S
C1495 C1499 1.400 . S
C1496 H1481 0.960 . S
C1496 H1482 0.960 . S
C1496 H1483 0.960 . S
C1496 C1495 1.524 . S
C1497 C1494 1.403 . S
C1497 C1498 1.392 . S
C1497 C1501 1.495 . S
C1498 C1497 1.392 . S
C1498 C1499 1.385 . S
C1498 C1500 1.478 . S
C1499 H1493 0.930 . S
C1499 C1495 1.400 . S
C1499 C1498 1.385 . S
C1500 C1498 1.478 . S
C1500 C1502 1.381 . S
C1500 C1506 1.383 . S
C1501 C1497 1.495 . S
C1501 H1507 0.959 . S
C1501 H1508 0.961 . S
C1501 H1509 0.960 . S
C1502 C1500 1.381 . S
C1502 C1503 1.394 . S
C1502 H1510 0.930 . S
C1503 C1502 1.394 . S
C1503 C1504 1.383 . S
C1503 H1511 0.929 . S
C1504 C1503 1.383 . S
C1504 C1505 1.377 . S
C1505 H1489 0.930 . S
C1505 C1504 1.377 . S
C1505 C1506 1.379 . S
C1506 H1490 0.931 . S
C1506 C1500 1.383 . S
C1506 C1505 1.379 . S
H1507 C1501 0.959 . S
H1508 C1501 0.961 . S
H1509 C1501 0.960 . S
H1510 C1502 0.930 . S
H1511 C1503 0.929 . S
H1512 C1520 0.929 . S
H1513 C1522 0.930 . S
H1514 C1524 0.930 . S
H1515 C1527 0.929 . S
H1516 C1530 0.930 . S
H1517 C1532 0.960 . S
H1518 C1532 0.960 . S
H1519 C1532 0.960 . S
C1520 H1512 0.929 . S
C1520 C1521 1.377 . S
C1520 C1522 1.384 . S
C1521 C1520 1.377 . S
C1521 C1527 1.390 . S
C1522 H1513 0.930 . S
C1522 C1520 1.384 . S
C1522 C1523 1.372 . S
C1523 C1522 1.372 . S
C1523 C1524 1.400 . S
C1523 C1528 1.490 . S
C1524 H1514 0.930 . S
C1524 C1523 1.400 . S
C1524 C1527 1.386 . S
H1525 C1541 0.930 . S
H1526 C1542 0.931 . S
C1527 H1515 0.929 . S
C1527 C1521 1.390 . S
C1527 C1524 1.386 . S
C1528 C1523 1.490 . S
C1528 C1530 1.395 . S
C1528 C1531 1.403 . S
H1529 C1535 0.930 . S
C1530 H1516 0.930 . S
C1530 C1528 1.395 . S
C1530 C1533 1.403 . S
C1531 C1528 1.403 . S
C1531 C1532 1.524 . S
C1531 C1535 1.400 . S
C1532 H1517 0.960 . S
C1532 H1518 0.960 . S
C1532 H1519 0.960 . S
C1532 C1531 1.524 . S
C1533 C1530 1.403 . S
C1533 C1534 1.392 . S
C1533 C1537 1.495 . S
C1534 C1533 1.392 . S
C1534 C1535 1.385 . S
C1534 C1536 1.478 . S
C1535 H1529 0.930 . S
C1535 C1531 1.400 . S
C1535 C1534 1.385 . S
C1536 C1534 1.478 . S
C1536 C1538 1.381 . S
C1536 C1542 1.383 . S
C1537 C1533 1.495 . S
C1537 H1543 0.959 . S
C1537 H1544 0.961 . S
C1537 H1545 0.960 . S
C1538 C1536 1.381 . S
C1538 C1539 1.394 . S
C1538 H1546 0.930 . S
C1539 C1538 1.394 . S
C1539 C1540 1.383 . S
C1539 H1547 0.929 . S
C1540 C1539 1.383 . S
C1540 C1541 1.377 . S
C1541 H1525 0.930 . S
C1541 C1540 1.377 . S
C1541 C1542 1.379 . S
C1542 H1526 0.931 . S
C1542 C1536 1.383 . S
C1542 C1541 1.379 . S
H1543 C1537 0.959 . S
H1544 C1537 0.961 . S
H1545 C1537 0.960 . S
H1546 C1538 0.930 . S
H1547 C1539 0.929 . S
H1548 C1556 0.929 . S
H1549 C1558 0.930 . S
H1550 C1560 0.930 . S
H1551 C1563 0.929 . S
H1552 C1566 0.930 . S
H1553 C1568 0.960 1_455 S
H1554 C1568 0.960 1_455 S
H1555 C1568 0.960 1_455 S
C1556 H1548 0.929 . S
C1556 C1557 1.377 . S
C1556 C1558 1.384 . S
C1557 C1556 1.377 . S
C1557 C1563 1.390 . S
C1558 H1549 0.930 . S
C1558 C1556 1.384 . S
C1558 C1559 1.372 . S
C1559 C1558 1.372 . S
C1559 C1560 1.400 . S
C1559 C1564 1.490 . S
C1560 H1550 0.930 . S
C1560 C1559 1.400 . S
C1560 C1563 1.386 . S
H1561 C1577 0.930 . S
H1562 C1578 0.931 . S
C1563 H1551 0.929 . S
C1563 C1557 1.390 . S
C1563 C1560 1.386 . S
C1564 C1559 1.490 . S
C1564 C1566 1.395 . S
C1564 C1567 1.403 . S
H1565 C1571 0.930 . S
C1566 H1552 0.930 . S
C1566 C1564 1.395 . S
C1566 C1569 1.403 . S
C1567 C1564 1.403 . S
C1567 C1568 1.524 . S
C1567 C1571 1.400 . S
C1568 H1553 0.960 1_655 S
C1568 H1554 0.960 1_655 S
C1568 H1555 0.960 1_655 S
C1568 C1567 1.524 . S
C1569 C1566 1.403 . S
C1569 C1570 1.392 . S
C1569 C1573 1.495 . S
C1570 C1569 1.392 . S
C1570 C1571 1.385 . S
C1570 C1572 1.478 . S
C1571 H1565 0.930 . S
C1571 C1567 1.400 . S
C1571 C1570 1.385 . S
C1572 C1570 1.478 . S
C1572 C1574 1.381 . S
C1572 C1578 1.383 . S
C1573 C1569 1.495 . S
C1573 H1579 0.959 . S
C1573 H1580 0.961 . S
C1573 H1581 0.960 . S
C1574 C1572 1.381 . S
C1574 C1575 1.394 . S
C1574 H1582 0.930 . S
C1575 C1574 1.394 . S
C1575 C1576 1.383 . S
C1575 H1583 0.929 . S
C1576 C1575 1.383 . S
C1576 C1577 1.377 . S
C1577 H1561 0.930 . S
C1577 C1576 1.377 . S
C1577 C1578 1.379 . S
C1578 H1562 0.931 . S
C1578 C1572 1.383 . S
C1578 C1577 1.379 . S
H1579 C1573 0.959 . S
H1580 C1573 0.961 . S
H1581 C1573 0.960 . S
H1582 C1574 0.930 . S
H1583 C1575 0.929 . S
H1584 C1592 0.929 . S
H1585 C1594 0.930 . S
H1586 C1596 0.930 . S
H1587 C1599 0.929 . S
H1588 C1602 0.930 . S
H1589 C1604 0.960 . S
H1590 C1604 0.960 . S
H1591 C1604 0.960 . S
C1592 H1584 0.929 . S
C1592 C1593 1.377 . S
C1592 C1594 1.384 . S
C1593 C1592 1.377 . S
C1593 C1599 1.390 . S
C1594 H1585 0.930 . S
C1594 C1592 1.384 . S
C1594 C1595 1.372 . S
C1595 C1594 1.372 . S
C1595 C1596 1.400 . S
C1595 C1600 1.490 . S
C1596 H1586 0.930 . S
C1596 C1595 1.400 . S
C1596 C1599 1.386 . S
H1597 C1613 0.930 . S
H1598 C1614 0.931 . S
C1599 H1587 0.929 . S
C1599 C1593 1.390 . S
C1599 C1596 1.386 . S
C1600 C1595 1.490 . S
C1600 C1602 1.395 . S
C1600 C1603 1.403 . S
H1601 C1607 0.930 . S
C1602 H1588 0.930 . S
C1602 C1600 1.395 . S
C1602 C1605 1.403 . S
C1603 C1600 1.403 . S
C1603 C1604 1.524 . S
C1603 C1607 1.400 . S
C1604 H1589 0.960 . S
C1604 H1590 0.960 . S
C1604 H1591 0.960 . S
C1604 C1603 1.524 . S
C1605 C1602 1.403 . S
C1605 C1606 1.392 . S
C1605 C1609 1.495 . S
C1606 C1605 1.392 . S
C1606 C1607 1.385 . S
C1606 C1608 1.478 . S
C1607 H1601 0.930 . S
C1607 C1603 1.400 . S
C1607 C1606 1.385 . S
C1608 C1606 1.478 . S
C1608 C1610 1.381 . S
C1608 C1614 1.383 . S
C1609 C1605 1.495 . S
C1609 H1615 0.959 . S
C1609 H1616 0.961 . S
C1609 H1617 0.960 . S
C1610 C1608 1.381 . S
C1610 C1611 1.394 . S
C1610 H1618 0.930 . S
C1611 C1610 1.394 . S
C1611 C1612 1.383 . S
C1611 H1619 0.929 . S
C1612 C1611 1.383 . S
C1612 C1613 1.377 . S
C1613 H1597 0.930 . S
C1613 C1612 1.377 . S
C1613 C1614 1.379 . S
C1614 H1598 0.931 . S
C1614 C1608 1.383 . S
C1614 C1613 1.379 . S
H1615 C1609 0.959 . S
H1616 C1609 0.961 . S
H1617 C1609 0.960 . S
H1618 C1610 0.930 . S
H1619 C1611 0.929 . S
H1620 C1628 0.929 . S
H1621 C1630 0.930 . S
H1622 C1632 0.930 . S
H1623 C1635 0.929 . S
H1624 C1638 0.930 . S
H1625 C1640 0.960 . S
H1626 C1640 0.960 . S
H1627 C1640 0.960 . S
C1628 H1620 0.929 . S
C1628 C1629 1.377 . S
C1628 C1630 1.384 . S
C1629 C1628 1.377 . S
C1629 C1635 1.390 . S
C1630 H1621 0.930 . S
C1630 C1628 1.384 . S
C1630 C1631 1.372 . S
C1631 C1630 1.372 . S
C1631 C1632 1.400 . S
C1631 C1636 1.490 . S
C1632 H1622 0.930 . S
C1632 C1631 1.400 . S
C1632 C1635 1.386 . S
H1633 C1649 0.930 . S
H1634 C1650 0.931 . S
C1635 H1623 0.929 . S
C1635 C1629 1.390 . S
C1635 C1632 1.386 . S
C1636 C1631 1.490 . S
C1636 C1638 1.395 . S
C1636 C1639 1.403 . S
H1637 C1643 0.930 . S
C1638 H1624 0.930 . S
C1638 C1636 1.395 . S
C1638 C1641 1.403 . S
C1639 C1636 1.403 . S
C1639 C1640 1.524 . S
C1639 C1643 1.400 . S
C1640 H1625 0.960 . S
C1640 H1626 0.960 . S
C1640 H1627 0.960 . S
C1640 C1639 1.524 . S
C1641 C1638 1.403 . S
C1641 C1642 1.392 . S
C1641 C1645 1.495 . S
C1642 C1641 1.392 . S
C1642 C1643 1.385 . S
C1642 C1644 1.478 . S
C1643 H1637 0.930 . S
C1643 C1639 1.400 . S
C1643 C1642 1.385 . S
C1644 C1642 1.478 . S
C1644 C1646 1.381 . S
C1644 C1650 1.383 . S
C1645 C1641 1.495 . S
C1645 H1651 0.959 . S
C1645 H1652 0.961 . S
C1645 H1653 0.960 . S
C1646 C1644 1.381 . S
C1646 C1647 1.394 . S
C1646 H1654 0.930 . S
C1647 C1646 1.394 . S
C1647 C1648 1.383 . S
C1647 H1655 0.929 . S
C1648 C1647 1.383 . S
C1648 C1649 1.377 . S
C1649 H1633 0.930 . S
C1649 C1648 1.377 . S
C1649 C1650 1.379 . S
C1650 H1634 0.931 . S
C1650 C1644 1.383 . S
C1650 C1649 1.379 . S
H1651 C1645 0.959 . S
H1652 C1645 0.961 . S
H1653 C1645 0.960 . S
H1654 C1646 0.930 . S
H1655 C1647 0.929 . S
H1656 C1664 0.929 . S
H1657 C1666 0.909 1_545 S
H1658 C1668 0.930 . S
H1659 C1671 0.929 . S
H1660 C1674 0.930 1_565 S
H1661 C1676 0.960 . S
H1662 C1676 0.960 . S
H1663 C1676 0.960 1_565 S
C1664 H1656 0.929 . S
C1664 C1665 1.377 . S
C1664 C1666 1.384 . S
C1665 C1664 1.377 . S
C1665 C1671 1.390 . S
C1666 H1657 0.909 1_565 S
C1666 C1664 1.384 . S
C1666 C1667 1.372 . S
C1667 C1666 1.372 . S
C1667 C1668 1.400 . S
C1667 C1672 1.490 1_565 S
C1668 H1658 0.930 . S
C1668 C1667 1.400 . S
C1668 C1671 1.386 . S
H1669 C1685 0.930 . S
H1670 C1686 0.931 . S
C1671 H1659 0.929 . S
C1671 C1665 1.390 . S
C1671 C1668 1.386 . S
C1672 C1667 1.490 1_545 S
C1672 C1674 1.395 . S
C1672 C1675 1.403 . S
H1673 C1679 0.930 . S
C1674 H1660 0.930 1_545 S
C1674 C1672 1.395 . S
C1674 C1677 1.403 . S
C1675 C1672 1.403 . S
C1675 C1676 1.524 . S
C1675 C1679 1.400 . S
C1676 H1661 0.960 . S
C1676 H1662 0.960 . S
C1676 H1663 0.960 1_545 S
C1676 C1675 1.524 . S
C1677 C1674 1.403 . S
C1677 C1678 1.392 . S
C1677 C1681 1.495 . S
C1678 C1677 1.392 . S
C1678 C1679 1.385 . S
C1678 C1680 1.478 . S
C1679 H1673 0.930 . S
C1679 C1675 1.400 . S
C1679 C1678 1.385 . S
C1680 C1678 1.478 . S
C1680 C1682 1.381 . S
C1680 C1686 1.383 . S
C1681 C1677 1.495 . S
C1681 H1687 0.959 . S
C1681 H1688 0.961 . S
C1681 H1689 0.960 . S
C1682 C1680 1.381 . S
C1682 C1683 1.394 . S
C1682 H1690 0.930 . S
C1683 C1682 1.394 . S
C1683 C1684 1.383 . S
C1683 H1691 0.929 . S
C1684 C1683 1.383 . S
C1684 C1685 1.377 . S
C1685 H1669 0.930 . S
C1685 C1684 1.377 . S
C1685 C1686 1.379 . S
C1686 H1670 0.931 . S
C1686 C1680 1.383 . S
C1686 C1685 1.379 . S
H1687 C1681 0.959 . S
H1688 C1681 0.961 . S
H1689 C1681 0.960 . S
H1690 C1682 0.930 . S
H1691 C1683 0.929 . S
H1692 C1700 0.929 . S
H1693 C1702 0.930 . S
H1694 C1704 0.930 . S
H1695 C1707 0.929 . S
H1696 C1710 0.930 . S
H1697 C1712 0.960 . S
H1698 C1712 0.960 1_655 S
H1699 C1712 0.960 . S
C1700 H1692 0.929 . S
C1700 C1701 1.377 . S
C1700 C1702 1.384 . S
C1701 C1700 1.377 . S
C1701 C1707 1.390 . S
C1702 H1693 0.930 . S
C1702 C1700 1.384 . S
C1702 C1703 1.372 . S
C1703 C1702 1.372 . S
C1703 C1704 1.400 . S
C1703 C1708 1.490 . S
C1704 H1694 0.930 . S
C1704 C1703 1.400 . S
C1704 C1707 1.386 . S
H1705 C1721 0.930 . S
H1706 C1722 0.931 . S
C1707 H1695 0.929 . S
C1707 C1701 1.390 . S
C1707 C1704 1.386 . S
C1708 C1703 1.490 . S
C1708 C1710 1.395 . S
C1708 C1711 1.403 . S
H1709 C1715 0.930 . S
C1710 H1696 0.930 . S
C1710 C1708 1.395 . S
C1710 C1713 1.403 . S
C1711 C1708 1.403 . S
C1711 C1712 1.524 1_655 S
C1711 C1715 1.400 1_655 S
C1712 H1697 0.960 . S
C1712 H1698 0.960 1_455 S
C1712 H1699 0.960 . S
C1712 C1711 1.524 1_455 S
C1713 C1710 1.403 . S
C1713 C1714 1.392 1_655 S
C1713 C1717 1.495 . S
C1714 C1713 1.392 1_455 S
C1714 C1715 1.385 . S
C1714 C1716 1.478 . S
C1715 H1709 0.930 . S
C1715 C1711 1.400 1_455 S
C1715 C1714 1.385 . S
C1716 C1714 1.478 . S
C1716 C1718 1.381 . S
C1716 C1722 1.383 . S
C1717 C1713 1.495 . S
C1717 H1723 0.959 . S
C1717 H1724 0.961 . S
C1717 H1725 0.960 . S
C1718 C1716 1.381 . S
C1718 C1719 1.394 . S
C1718 H1726 0.930 . S
C1719 C1718 1.394 . S
C1719 C1720 1.383 . S
C1719 H1727 0.929 . S
C1720 C1719 1.383 . S
C1720 C1721 1.377 . S
C1721 H1705 0.930 . S
C1721 C1720 1.377 . S
C1721 C1722 1.379 . S
C1722 H1706 0.931 . S
C1722 C1716 1.383 . S
C1722 C1721 1.379 . S
H1723 C1717 0.959 . S
H1724 C1717 0.961 . S
H1725 C1717 0.960 . S
H1726 C1718 0.930 . S
H1727 C1719 0.929 . S
C765 C151 1.089 . S
C784 C58 1.014 . S
C801 C235 1.088 . S
C820 C142 1.025 . S
C837 C226 0.967 . S
C856 C67 1.113 . S
C873 C224 1.424 . S
C892 C153 1.210 . S
C909 C237 1.218 . S
C928 C56 1.434 . S
C945 C69 1.237 . S
C964 C140 1.428 . S
C981 C310 0.952 . S
C1000 C403 1.085 . S
C1017 C487 1.079 . S
C1036 C394 0.913 . S
C1053 C478 0.958 . S
C1072 C319 1.054 . S
C1089 C405 1.220 . S
C1108 C476 1.390 . S
C1125 C489 1.233 . S
C1144 C308 1.395 . S
C1161 C392 1.420 . S
C1180 C321 1.280 . S
C1197 C655 1.089 . S
C1216 C562 1.010 . S
C1233 C646 0.971 . S
C1252 C739 1.054 . S
C1269 C730 0.957 . S
C1288 C571 1.105 . S
C1305 C728 1.414 . S
C1324 C657 1.185 . S
C1341 C741 1.215 . S
C1360 C560 1.427 . S
C1377 C573 1.216 . S
C1396 C644 1.429 . S
C1413 C494 2.456 . S
C1432 C63 2.586 . S
C1449 C326 2.462 . S
C1468 C147 2.570 . S
C1485 C231 2.583 . S
C1504 C410 2.460 . S
C1521 C242 2.463 . S
C1540 C567 2.569 . S
C1557 C74 2.454 . S
C1576 C651 2.591 . S
C1593 C735 2.584 . S
C1612 C158 2.454 . S
C1629 C315 2.581 . S
C1648 C746 2.477 . S
C1665 C399 2.582 . S
C1684 C578 2.466 . S
C1701 C662 2.463 . S
C1720 C483 2.569 . S
