# Generated by pormake.
# Topology ato, (4)-cn, num edge types: 1
# Building blocks:
#     Node 0, Type 0, BuildingBlock: AZAVOO_clean_sbu_0, # of connection points: 4
#     Node 1, Type 0, BuildingBlock: AZAVOO_clean_sbu_0, # of connection points: 4
#     Node 2, Type 0, BuildingBlock: AZAVOO_clean_sbu_0, # of connection points: 4
#     Node 3, Type 0, BuildingBlock: AZAVOO_clean_sbu_0, # of connection points: 4
#     Node 4, Type 0, BuildingBlock: AZAVOO_clean_sbu_0, # of connection points: 4
#     Node 5, Type 0, BuildingBlock: AZAVOO_clean_sbu_0, # of connection points: 4
#     Node 6, Type 0, BuildingBlock: AZAVOO_clean_sbu_0, # of connection points: 4
#     Node 7, Type 0, BuildingBlock: AZAVOO_clean_sbu_0, # of connection points: 4
#     Node 8, Type 0, BuildingBlock: AZAVOO_clean_sbu_0, # of connection points: 4
#     Node 9, Type 0, BuildingBlock: AZAVOO_clean_sbu_0, # of connection points: 4
#     Node 10, Type 0, BuildingBlock: AZAVOO_clean_sbu_0, # of connection points: 4
#     Node 11, Type 0, BuildingBlock: AZAVOO_clean_sbu_0, # of connection points: 4
#     Node 12, Type 0, BuildingBlock: AZAVOO_clean_sbu_0, # of connection points: 4
#     Node 13, Type 0, BuildingBlock: AZAVOO_clean_sbu_0, # of connection points: 4
#     Node 14, Type 0, BuildingBlock: AZAVOO_clean_sbu_0, # of connection points: 4
#     Node 15, Type 0, BuildingBlock: AZAVOO_clean_sbu_0, # of connection points: 4
#     Node 16, Type 0, BuildingBlock: AZAVOO_clean_sbu_0, # of connection points: 4
#     Node 17, Type 0, BuildingBlock: AZAVOO_clean_sbu_0, # of connection points: 4
#     Node 18, Type 0, BuildingBlock: AZAVOO_clean_sbu_0, # of connection points: 4
#     Node 19, Type 0, BuildingBlock: AZAVOO_clean_sbu_0, # of connection points: 4
#     Node 20, Type 0, BuildingBlock: AZAVOO_clean_sbu_0, # of connection points: 4
#     Node 21, Type 0, BuildingBlock: AZAVOO_clean_sbu_0, # of connection points: 4
#     Node 22, Type 0, BuildingBlock: AZAVOO_clean_sbu_0, # of connection points: 4
#     Node 23, Type 0, BuildingBlock: AZAVOO_clean_sbu_0, # of connection points: 4
#     Node 24, Type 0, BuildingBlock: AZAVOO_clean_sbu_0, # of connection points: 4
#     Node 25, Type 0, BuildingBlock: AZAVOO_clean_sbu_0, # of connection points: 4
#     Node 26, Type 0, BuildingBlock: AZAVOO_clean_sbu_0, # of connection points: 4
#     Node 27, Type 0, BuildingBlock: AZAVOO_clean_sbu_0, # of connection points: 4
#     Node 28, Type 0, BuildingBlock: AZAVOO_clean_sbu_0, # of connection points: 4
#     Node 29, Type 0, BuildingBlock: AZAVOO_clean_sbu_0, # of connection points: 4
#     Node 30, Type 0, BuildingBlock: AZAVOO_clean_sbu_0, # of connection points: 4
#     Node 31, Type 0, BuildingBlock: AZAVOO_clean_sbu_0, # of connection points: 4
#     Node 32, Type 0, BuildingBlock: AZAVOO_clean_sbu_0, # of connection points: 4
#     Node 33, Type 0, BuildingBlock: AZAVOO_clean_sbu_0, # of connection points: 4
#     Node 34, Type 0, BuildingBlock: AZAVOO_clean_sbu_0, # of connection points: 4
#     Node 35, Type 0, BuildingBlock: AZAVOO_clean_sbu_0, # of connection points: 4
#     Edge 36, Type (0, 0), BuildingBlock: AJUNOK_clean_linker_0, # of connection points: 2
#     Edge 37, Type (0, 0), BuildingBlock: AJUNOK_clean_linker_0, # of connection points: 2
#     Edge 38, Type (0, 0), BuildingBlock: AJUNOK_clean_linker_0, # of connection points: 2
#     Edge 39, Type (0, 0), BuildingBlock: AJUNOK_clean_linker_0, # of connection points: 2
#     Edge 40, Type (0, 0), BuildingBlock: AJUNOK_clean_linker_0, # of connection points: 2
#     Edge 41, Type (0, 0), BuildingBlock: AJUNOK_clean_linker_0, # of connection points: 2
#     Edge 42, Type (0, 0), BuildingBlock: AJUNOK_clean_linker_0, # of connection points: 2
#     Edge 43, Type (0, 0), BuildingBlock: AJUNOK_clean_linker_0, # of connection points: 2
#     Edge 44, Type (0, 0), BuildingBlock: AJUNOK_clean_linker_0, # of connection points: 2
#     Edge 45, Type (0, 0), BuildingBlock: AJUNOK_clean_linker_0, # of connection points: 2
#     Edge 46, Type (0, 0), BuildingBlock: AJUNOK_clean_linker_0, # of connection points: 2
#     Edge 47, Type (0, 0), BuildingBlock: AJUNOK_clean_linker_0, # of connection points: 2
#     Edge 48, Type (0, 0), BuildingBlock: AJUNOK_clean_linker_0, # of connection points: 2
#     Edge 49, Type (0, 0), BuildingBlock: AJUNOK_clean_linker_0, # of connection points: 2
#     Edge 50, Type (0, 0), BuildingBlock: AJUNOK_clean_linker_0, # of connection points: 2
#     Edge 51, Type (0, 0), BuildingBlock: AJUNOK_clean_linker_0, # of connection points: 2
#     Edge 52, Type (0, 0), BuildingBlock: AJUNOK_clean_linker_0, # of connection points: 2
#     Edge 53, Type (0, 0), BuildingBlock: AJUNOK_clean_linker_0, # of connection points: 2
#     Edge 54, Type (0, 0), BuildingBlock: AJUNOK_clean_linker_0, # of connection points: 2
#     Edge 55, Type (0, 0), BuildingBlock: AJUNOK_clean_linker_0, # of connection points: 2
#     Edge 56, Type (0, 0), BuildingBlock: AJUNOK_clean_linker_0, # of connection points: 2
#     Edge 57, Type (0, 0), BuildingBlock: AJUNOK_clean_linker_0, # of connection points: 2
#     Edge 58, Type (0, 0), BuildingBlock: AJUNOK_clean_linker_0, # of connection points: 2
#     Edge 59, Type (0, 0), BuildingBlock: AJUNOK_clean_linker_0, # of connection points: 2
#     Edge 60, Type (0, 0), BuildingBlock: AJUNOK_clean_linker_0, # of connection points: 2
#     Edge 61, Type (0, 0), BuildingBlock: AJUNOK_clean_linker_0, # of connection points: 2
#     Edge 62, Type (0, 0), BuildingBlock: AJUNOK_clean_linker_0, # of connection points: 2
#     Edge 63, Type (0, 0), BuildingBlock: AJUNOK_clean_linker_0, # of connection points: 2
#     Edge 64, Type (0, 0), BuildingBlock: AJUNOK_clean_linker_0, # of connection points: 2
#     Edge 65, Type (0, 0), BuildingBlock: AJUNOK_clean_linker_0, # of connection points: 2
#     Edge 66, Type (0, 0), BuildingBlock: AJUNOK_clean_linker_0, # of connection points: 2
#     Edge 67, Type (0, 0), BuildingBlock: AJUNOK_clean_linker_0, # of connection points: 2
#     Edge 68, Type (0, 0), BuildingBlock: AJUNOK_clean_linker_0, # of connection points: 2
#     Edge 69, Type (0, 0), BuildingBlock: AJUNOK_clean_linker_0, # of connection points: 2
#     Edge 70, Type (0, 0), BuildingBlock: AJUNOK_clean_linker_0, # of connection points: 2
#     Edge 71, Type (0, 0), BuildingBlock: AJUNOK_clean_linker_0, # of connection points: 2
#     Edge 72, Type (0, 0), BuildingBlock: AJUNOK_clean_linker_0, # of connection points: 2
#     Edge 73, Type (0, 0), BuildingBlock: AJUNOK_clean_linker_0, # of connection points: 2
#     Edge 74, Type (0, 0), BuildingBlock: AJUNOK_clean_linker_0, # of connection points: 2
#     Edge 75, Type (0, 0), BuildingBlock: AJUNOK_clean_linker_0, # of connection points: 2
#     Edge 76, Type (0, 0), BuildingBlock: AJUNOK_clean_linker_0, # of connection points: 2
#     Edge 77, Type (0, 0), BuildingBlock: AJUNOK_clean_linker_0, # of connection points: 2
#     Edge 78, Type (0, 0), BuildingBlock: AJUNOK_clean_linker_0, # of connection points: 2
#     Edge 79, Type (0, 0), BuildingBlock: AJUNOK_clean_linker_0, # of connection points: 2
#     Edge 80, Type (0, 0), BuildingBlock: AJUNOK_clean_linker_0, # of connection points: 2
#     Edge 81, Type (0, 0), BuildingBlock: AJUNOK_clean_linker_0, # of connection points: 2
#     Edge 82, Type (0, 0), BuildingBlock: AJUNOK_clean_linker_0, # of connection points: 2
#     Edge 83, Type (0, 0), BuildingBlock: AJUNOK_clean_linker_0, # of connection points: 2
#     Edge 84, Type (0, 0), BuildingBlock: AJUNOK_clean_linker_0, # of connection points: 2
#     Edge 85, Type (0, 0), BuildingBlock: AJUNOK_clean_linker_0, # of connection points: 2
#     Edge 86, Type (0, 0), BuildingBlock: AJUNOK_clean_linker_0, # of connection points: 2
#     Edge 87, Type (0, 0), BuildingBlock: AJUNOK_clean_linker_0, # of connection points: 2
#     Edge 88, Type (0, 0), BuildingBlock: AJUNOK_clean_linker_0, # of connection points: 2
#     Edge 89, Type (0, 0), BuildingBlock: AJUNOK_clean_linker_0, # of connection points: 2
#     Edge 90, Type (0, 0), BuildingBlock: AJUNOK_clean_linker_0, # of connection points: 2
#     Edge 91, Type (0, 0), BuildingBlock: AJUNOK_clean_linker_0, # of connection points: 2
#     Edge 92, Type (0, 0), BuildingBlock: AJUNOK_clean_linker_0, # of connection points: 2
#     Edge 93, Type (0, 0), BuildingBlock: AJUNOK_clean_linker_0, # of connection points: 2
#     Edge 94, Type (0, 0), BuildingBlock: AJUNOK_clean_linker_0, # of connection points: 2
#     Edge 95, Type (0, 0), BuildingBlock: AJUNOK_clean_linker_0, # of connection points: 2
#     Edge 96, Type (0, 0), BuildingBlock: AJUNOK_clean_linker_0, # of connection points: 2
#     Edge 97, Type (0, 0), BuildingBlock: AJUNOK_clean_linker_0, # of connection points: 2
#     Edge 98, Type (0, 0), BuildingBlock: AJUNOK_clean_linker_0, # of connection points: 2
#     Edge 99, Type (0, 0), BuildingBlock: AJUNOK_clean_linker_0, # of connection points: 2
#     Edge 100, Type (0, 0), BuildingBlock: AJUNOK_clean_linker_0, # of connection points: 2
#     Edge 101, Type (0, 0), BuildingBlock: AJUNOK_clean_linker_0, # of connection points: 2
#     Edge 102, Type (0, 0), BuildingBlock: AJUNOK_clean_linker_0, # of connection points: 2
#     Edge 103, Type (0, 0), BuildingBlock: AJUNOK_clean_linker_0, # of connection points: 2
#     Edge 104, Type (0, 0), BuildingBlock: AJUNOK_clean_linker_0, # of connection points: 2
#     Edge 105, Type (0, 0), BuildingBlock: AJUNOK_clean_linker_0, # of connection points: 2
#     Edge 106, Type (0, 0), BuildingBlock: AJUNOK_clean_linker_0, # of connection points: 2
#     Edge 107, Type (0, 0), BuildingBlock: AJUNOK_clean_linker_0, # of connection points: 2
# Relax obj value: 0.064
# Max RMSD: 0.093
# Mean RMSD: 0.093
data_MOF--net-ato--node1-AZAVOO_clean_sbu_0--edge1-AJUNOK_clean_linker_0
_symmetry_space_group_name_H-M    P1
_symmetry_Int_Tables_number       1
_symmetry_cell_setting            triclinic
loop_
_symmetry_equiv_pos_as_xyz
'x, y, z'
_cell_length_a     73.067443
_cell_length_b     73.157253
_cell_length_c     19.281456
_cell_angle_alpha  90.09582
_cell_angle_beta   89.830315
_cell_angle_gamma 120.05537
loop_
_atom_site_label
_atom_site_type_symbol
_atom_site_fract_x
_atom_site_fract_y
_atom_site_fract_z
_atom_type_partial_charge
Mg0 Mg 0.26241 0.05733 0.21157 0.0
O1 O 0.29603 0.06548 0.1776 0.0
O2 O 0.29433 0.03494 0.15185 0.0
Mg3 Mg 0.26051 1.00757 0.16465 0.0
C4 C 0.30483 0.05501 0.15781 0.0
C5 C 0.26316 0.09454 0.29227 0.0
O6 O 0.24639 0.07813 0.31864 0.0
O7 O 0.2662 0.04438 0.31586 0.0
O8 O 0.26204 0.01329 0.28098 0.0
O9 O 0.25303 0.0579 0.10075 0.0
O10 O 0.24886 0.02958 0.15497 0.0
C11 C 0.26417 0.02626 0.32891 0.0
C12 C 0.24685 0.03793 0.09941 0.0
O13 O 0.27454 0.09127 0.24961 0.0
Mg14 Mg 0.97365 0.21064 0.20914 0.0
O15 O 0.96395 0.23502 0.17876 0.0
O16 O 0.99349 0.26511 0.15364 0.0
Mg17 Mg 0.02196 0.26024 0.16248 0.0
C18 C 0.97341 0.25441 0.1605 0.0
C19 C 0.93692 0.17121 0.27949 0.0
O20 O 0.95352 0.16961 0.29576 0.0
O21 O 0.98638 0.22724 0.31384 0.0
O22 O 1.01672 0.25532 0.2787 0.0
O23 O 0.97343 0.20149 0.09732 0.0
O24 O 1.00126 0.22628 0.15202 0.0
C25 C 1.00417 0.24385 0.32669 0.0
C26 C 0.9932 0.21597 0.09611 0.0
O27 O 0.93993 0.18769 0.24748 0.0
Mg28 Mg 0.81901 0.76867 0.20252 0.0
O29 O 0.79466 0.73437 0.17205 0.0
O30 O 0.76487 0.73422 0.14573 0.0
Mg31 Mg 0.76974 0.76756 0.1537 0.0
C32 C 0.77531 0.72462 0.15307 0.0
C33 C 0.85806 0.77213 0.27642 0.0
O34 O 0.85924 0.79026 0.29082 0.0
O35 O 0.80203 0.76514 0.30623 0.0
O36 O 0.77419 0.76764 0.27044 0.0
O37 O 0.82871 0.77717 0.09105 0.0
O38 O 0.80367 0.78044 0.14327 0.0
C39 C 0.78552 0.76656 0.31868 0.0
C40 C 0.81408 0.7822 0.0878 0.0
O41 O 0.8419 0.7583 0.24384 0.0
Mg42 Mg 0.06261 0.25577 0.73117 0.0
O43 O 0.07237 0.28991 0.76193 0.0
O44 O 0.04273 0.29045 0.78551 0.0
Mg45 Mg 1.01426 0.25697 0.77623 0.0
C46 C 0.06284 0.29984 0.77958 0.0
C47 C 0.09873 0.25293 0.6575 0.0
O48 O 0.08185 0.23513 0.63959 0.0
O49 O 0.05013 0.25975 0.62729 0.0
O50 O 0.01935 0.25713 0.65925 0.0
O51 O 0.06334 0.24708 0.84176 0.0
O52 O 0.03512 0.24389 0.78931 0.0
C53 C 0.03247 0.25856 0.61265 0.0
C54 C 0.04366 0.24207 0.84487 0.0
O55 O 0.09614 0.26632 0.69187 0.0
Mg56 Mg 0.77225 0.81141 0.72724 0.0
O57 O 0.73831 0.78593 0.7583 0.0
O58 O 0.73932 0.75645 0.77857 0.0
Mg59 Mg 0.7731 0.7626 0.76672 0.0
C60 C 0.72911 0.76636 0.77456 0.0
C61 C 0.77201 0.84844 0.64852 0.0
O62 O 0.78837 0.84835 0.62043 0.0
O63 O 0.76853 0.79569 0.62138 0.0
O64 O 0.77228 0.76809 0.65081 0.0
O65 O 0.78143 0.82023 0.83865 0.0
O66 O 0.78523 0.79625 0.78147 0.0
C67 C 0.77032 0.77964 0.60525 0.0
C68 C 0.78734 0.80624 0.83815 0.0
O69 O 0.76076 0.83397 0.69179 0.0
Mg70 Mg 0.21619 0.96886 0.73453 0.0
O71 O 0.24049 0.95928 0.76752 0.0
O72 O 0.27053 0.98896 0.79145 0.0
Mg73 Mg 0.26553 0.01732 0.77953 0.0
C74 C 0.25986 0.96886 0.7861 0.0
C75 C 0.1769 0.93195 0.66541 0.0
O76 O 0.1749 0.94835 0.65006 0.0
O77 O 0.23314 0.98111 0.63074 0.0
O78 O 0.2612 0.01191 0.66251 0.0
O79 O 0.20633 0.96829 0.84467 0.0
O80 O 0.23149 0.99647 0.79202 0.0
C81 C 0.24973 0.99869 0.61601 0.0
C82 C 0.221 0.98796 0.84762 0.0
O83 O 0.19362 0.93519 0.69631 0.0
Mg84 Mg 0.7739 0.96559 0.73286 0.0
O85 O 0.74008 0.95763 0.76345 0.0
O86 O 0.74167 0.98841 0.78491 0.0
Mg87 Mg 0.77576 0.0156 0.77543 0.0
C88 C 0.7312 0.96831 0.77963 0.0
C89 C 0.77298 0.92831 0.6512 0.0
O90 O 0.78961 0.94469 0.62403 0.0
O91 O 0.77069 0.97836 0.62814 0.0
O92 O 0.77495 1.00983 0.65903 0.0
O93 O 0.78237 0.96485 0.84393 0.0
O94 O 0.787 0.99333 0.78963 0.0
C95 C 0.77274 0.99634 0.61286 0.0
C96 C 0.78831 0.98475 0.84585 0.0
O97 O 0.76187 0.93163 0.69484 0.0
Mg98 Mg 0.0638 0.81192 0.74955 0.0
O99 O 0.07408 0.78744 0.77341 0.0
O100 O 0.04456 0.75698 0.79579 0.0
Mg101 Mg 1.01598 0.7619 0.79614 0.0
C102 C 0.06462 0.76776 0.7882 0.0
C103 C 0.09856 0.85131 0.67344 0.0
O104 O 0.08135 0.85202 0.65928 0.0
O105 O 0.04989 0.79601 0.6453 0.0
O106 O 0.01946 0.76789 0.67976 0.0
O107 O 0.06581 0.82107 0.86185 0.0
O108 O 0.03735 0.79555 0.81109 0.0
C109 C 0.03182 0.77984 0.63218 0.0
C110 C 0.04641 0.80585 0.86621 0.0
O111 O 0.09665 0.83539 0.70636 0.0
Mg112 Mg 0.21614 0.25376 0.73431 0.0
O113 O 0.24061 0.2879 0.76442 0.0
O114 O 0.2706 0.28844 0.79027 0.0
Mg115 Mg 0.2654 0.25491 0.78306 0.0
C116 C 0.25999 0.29785 0.7828 0.0
C117 C 0.17747 0.25139 0.65973 0.0
O118 O 0.17585 0.23321 0.64315 0.0
O119 O 0.23307 0.25725 0.63084 0.0
O120 O 0.26091 0.25467 0.66615 0.0
O121 O 0.20628 0.24525 0.84533 0.0
O122 O 0.23137 0.24189 0.7937 0.0
C123 C 0.24952 0.25578 0.61812 0.0
C124 C 0.22081 0.24008 0.84891 0.0
O125 O 0.19366 0.26465 0.69348 0.0
Mg126 Mg 0.97429 0.76802 0.22241 0.0
O127 O 0.96441 0.73348 0.19686 0.0
O128 O 0.99406 0.73232 0.18004 0.0
Mg129 Mg 0.02267 0.76574 0.18546 0.0
C130 C 0.97392 0.72319 0.18396 0.0
C131 C 0.93771 0.77229 0.287 0.0
O132 O 0.9544 0.7906 0.30172 0.0
O133 O 0.98603 0.76489 0.32929 0.0
O134 O 1.01679 0.76694 0.30087 0.0
O135 O 0.97443 0.77607 0.10999 0.0
O136 O 1.00187 0.77845 0.16612 0.0
C137 C 1.00358 0.76613 0.346 0.0
C138 C 0.99382 0.78013 0.10929 0.0
O139 O 0.94058 0.75826 0.25827 0.0
Mg140 Mg 0.26065 0.20934 0.20987 0.0
O141 O 0.29416 0.23526 0.17675 0.0
O142 O 0.29217 0.26415 0.15512 0.0
Mg143 Mg 0.25826 0.25731 0.16964 0.0
C144 C 0.3028 0.25468 0.15897 0.0
C145 C 0.26259 0.17359 0.29092 0.0
O146 O 0.24646 0.17373 0.32067 0.0
O147 O 0.26466 0.22539 0.31519 0.0
O148 O 0.26026 0.25256 0.28542 0.0
O149 O 0.25128 0.20014 0.0988 0.0
O150 O 0.24688 0.22377 0.15593 0.0
C151 C 0.2628 0.2414 0.33108 0.0
C152 C 0.24504 0.21389 0.09923 0.0
O153 O 0.2731 0.1876 0.24545 0.0
Mg154 Mg 0.81802 0.05551 0.20753 0.0
O155 O 0.79262 0.0641 0.177 0.0
O156 O 0.76337 0.03368 0.15318 0.0
Mg157 Mg 0.76943 1.00603 0.16251 0.0
C158 C 0.77316 0.05375 0.15926 0.0
C159 C 0.85687 0.09204 0.27852 0.0
O160 O 0.8581 0.07528 0.29513 0.0
O161 O 0.80178 0.04247 0.31266 0.0
O162 O 0.77449 1.01146 0.27855 0.0
O163 O 0.82738 0.05583 0.09569 0.0
O164 O 0.80314 0.0278 0.15115 0.0
C165 C 0.78573 0.02431 0.32612 0.0
C166 C 0.8134 0.0359 0.09512 0.0
O167 O 0.8406 0.08931 0.2457 0.0
Mg168 Mg 0.92894 0.38964 0.54921 0.0
O169 O 0.96344 0.39953 0.52226 0.0
O170 O 0.96448 0.36985 0.50556 0.0
Mg171 Mg 0.93101 0.34125 0.51225 0.0
C172 C 0.97367 0.38997 0.50894 0.0
C173 C 0.92648 0.42614 0.62478 0.0
O174 O 0.90925 0.40949 0.64773 0.0
O175 O 0.93219 0.37786 0.65578 0.0
O176 O 0.9299 0.34703 0.62778 0.0
O177 O 0.9206 0.38957 0.43708 0.0
O178 O 0.91837 0.36213 0.49261 0.0
C179 C 0.93084 0.3603 0.67275 0.0
C180 C 0.91657 0.37021 0.43598 0.0
O181 O 0.93895 0.42323 0.58622 0.0
Mg182 Mg 0.63678 0.5458 0.5326 0.0
O183 O 0.62744 0.57092 0.5065 0.0
O184 O 0.65773 0.60062 0.48326 0.0
Mg185 Mg 0.68563 0.59477 0.48523 0.0
C186 C 0.63768 0.59058 0.49125 0.0
C187 C 0.60156 0.50633 0.60462 0.0
O188 O 0.61869 0.5052 0.61626 0.0
O189 O 0.65056 0.562 0.63679 0.0
O190 O 0.68141 0.5895 0.60205 0.0
O191 O 0.63486 0.53617 0.42086 0.0
O192 O 0.66355 0.5613 0.4717 0.0
C193 C 0.66872 0.57806 0.64988 0.0
C194 C 0.65447 0.5509 0.41679 0.0
O195 O 0.60364 0.52278 0.57492 0.0
Mg196 Mg 0.48708 0.10353 0.53421 0.0
O197 O 0.46247 0.06895 0.50803 0.0
O198 O 0.43167 0.0678 0.49168 0.0
Mg199 Mg 0.43638 0.10114 0.49807 0.0
C200 C 0.44266 0.05867 0.49496 0.0
C201 C 0.52564 0.10543 0.61211 0.0
O202 O 0.52573 0.12208 0.63814 0.0
O203 O 0.47206 0.10041 0.64124 0.0
O204 O 0.4433 0.10234 0.61355 0.0
O205 O 0.49506 0.11167 0.42156 0.0
O206 O 0.46998 0.11399 0.47827 0.0
C207 C 0.45573 0.10161 0.65844 0.0
C208 C 0.47972 0.1157 0.42123 0.0
O209 O 0.51087 0.09367 0.57057 0.0
Mg210 Mg 0.72516 0.58782 0.05717 0.0
O211 O 0.73728 0.62286 0.08578 0.0
O212 O 0.70821 0.62488 0.10621 0.0
Mg213 Mg 0.6784 0.59239 0.09972 0.0
C214 C 0.72831 0.63353 0.10122 0.0
C215 C 0.77406 0.60413 0.05057 0.0
O216 O 0.77306 0.61198 0.11087 0.0
O217 O 0.71329 0.59235 0.95284 0.0
O218 O 0.68314 0.59137 -0.01717 0.0
O219 O 0.72524 0.57862 0.16837 0.0
O220 O 0.69841 0.57869 0.11627 0.0
C221 C 0.69609 0.59196 0.93703 0.0
C222 C 0.7063 0.57581 0.17152 0.0
O223 O 0.75738 0.59478 0.01399 0.0
Mg224 Mg 0.43964 0.14634 0.06422 0.0
O225 O 0.40526 0.12056 0.08927 0.0
O226 O 0.40619 0.09101 0.11003 0.0
Mg227 Mg 0.4403 0.09766 0.10868 0.0
C228 C 0.39596 0.10083 0.1034 0.0
C229 C 0.44213 0.18523 -0.00878 0.0
O230 O 0.46058 0.18715 -0.02376 0.0
O231 O 0.43826 0.13092 0.95895 0.0
O232 O 0.44233 0.10383 -0.00743 0.0
O233 O 0.44672 0.15536 0.17679 0.0
O234 O 0.4511 0.13096 0.1243 0.0
C235 C 0.44115 0.11538 0.94532 0.0
C236 C 0.45189 0.14086 0.17996 0.0
O237 O 0.42863 0.16874 0.02327 0.0
Mg238 Mg 0.8833 0.30036 0.07643 0.0
O239 O 0.90794 0.29047 0.10166 0.0
O240 O 0.93829 0.31996 0.12474 0.0
Mg241 Mg 0.93306 0.34831 0.12362 0.0
C242 C 0.92757 0.29994 0.11717 0.0
C243 C 0.84418 0.26451 0.00135 0.0
O244 O 0.8425 0.28116 -0.01309 0.0
O245 O 0.89951 0.31422 0.97227 0.0
O246 O 0.92754 0.34463 0.00706 0.0
O247 O 0.87402 0.29838 0.18869 0.0
O248 O 0.89928 0.32697 0.13745 0.0
C249 C 0.91578 0.33225 0.95931 0.0
C250 C 0.88901 0.31787 0.19267 0.0
O251 O 0.86047 0.26727 0.034 0.0
Mg252 Mg 0.43756 0.30009 0.05971 0.0
O253 O 0.40339 0.2911 0.08938 0.0
O254 O 0.40385 0.32142 0.10886 0.0
Mg255 Mg 0.43754 0.34935 0.09961 0.0
C256 C 0.39392 0.30131 0.10431 0.0
C257 C 0.44008 0.26366 -0.01176 0.0
O258 O 0.45767 0.28053 0.96857 0.0
O259 O 0.43395 0.31208 0.95404 0.0
O260 O 0.43722 0.34325 -0.0162 0.0
O261 O 0.44644 0.30043 0.17135 0.0
O262 O 0.44991 0.32807 0.11443 0.0
C263 C 0.43554 0.32983 0.93814 0.0
C264 C 0.45204 0.32026 0.17107 0.0
O265 O 0.4268 0.26628 0.02335 0.0
Mg266 Mg 0.73007 0.14521 0.0684 0.0
O267 O 0.73849 0.11945 0.09447 0.0
O268 O 0.70801 0.09041 0.12057 0.0
Mg269 Mg 0.68067 0.09723 0.1173 0.0
C270 C 0.72802 0.09996 0.11164 0.0
C271 C 0.7657 0.18405 -0.00317 0.0
O272 O 0.74872 0.18544 -0.01469 0.0
O273 O 0.71566 0.12921 0.96456 0.0
O274 O 0.68467 0.10212 0.00042 0.0
O275 O 0.73253 0.15448 0.18049 0.0
O276 O 0.70316 0.13074 0.12876 0.0
C277 C 0.69729 0.11336 0.95219 0.0
C278 C 0.71257 0.1407 0.18389 0.0
O279 O 0.76338 0.16744 0.02607 0.0
Mg280 Mg 0.8835 0.58874 0.0861 0.0
O281 O 0.90866 0.6223 0.11787 0.0
O282 O 0.93829 0.6222 0.14417 0.0
Mg283 Mg 0.93208 0.58835 0.13406 0.0
C284 C 0.92795 0.6319 0.13707 0.0
C285 C 0.8452 0.5903 0.01696 0.0
O286 O 0.84081 0.57137 -0.00323 0.0
O287 O 0.90033 0.59229 -0.018 0.0
O288 O 0.92775 0.58902 0.01743 0.0
O289 O 0.87373 0.58012 0.19698 0.0
O290 O 0.89805 0.57576 0.14414 0.0
C291 C 0.91665 0.59057 0.9693 0.0
C292 C 0.88782 0.57436 0.19981 0.0
O293 O 0.86237 0.60176 0.0494 0.0
Mg294 Mg 0.64004 0.09955 0.54064 0.0
O295 O 0.63023 0.06491 0.51452 0.0
O296 O 0.66049 0.06467 0.49967 0.0
Mg297 Mg 0.68896 0.09805 0.50635 0.0
C298 C 0.64032 0.05509 0.50275 0.0
C299 C 0.60404 0.10303 0.61497 0.0
O300 O 0.62105 0.11987 0.6379 0.0
O301 O 0.65157 0.0965 0.64821 0.0
O302 O 0.68267 0.09919 0.62112 0.0
O303 O 0.64047 0.10789 0.42845 0.0
O304 O 0.66781 0.11022 0.48453 0.0
C305 C 0.66923 0.09811 0.66569 0.0
C306 C 0.65996 0.11222 0.42765 0.0
O307 O 0.60639 0.09017 0.57659 0.0
Mg308 Mg 0.92865 0.54465 0.56108 0.0
O309 O 0.9625 0.57003 0.52873 0.0
O310 O 0.96125 0.59937 0.5079 0.0
Mg311 Mg 0.92751 0.59324 0.52062 0.0
C312 C 0.97155 0.58955 0.51191 0.0
C313 C 0.92686 0.50583 0.63003 0.0
O314 O 0.90893 0.5045 0.6489 0.0
O315 O 0.93267 0.5607 0.66659 0.0
O316 O 0.92874 0.58815 0.63662 0.0
O317 O 0.91928 0.5355 0.45002 0.0
O318 O 0.91553 0.5596 0.50667 0.0
C319 C 0.93091 0.57678 0.68239 0.0
C320 C 0.91341 0.54952 0.45018 0.0
O321 O 0.94014 0.52213 0.5966 0.0
Mg322 Mg 0.4835 0.38944 0.53593 0.0
O323 O 0.45909 0.39933 0.50777 0.0
O324 O 0.42893 0.37002 0.48177 0.0
Mg325 Mg 0.43388 0.34154 0.48742 0.0
C326 C 0.43967 0.39002 0.48985 0.0
C327 C 0.52312 0.42571 0.6062 0.0
O328 O 0.52516 0.40917 0.61869 0.0
O329 O 0.46684 0.376 0.63971 0.0
O330 O 0.43873 0.34578 0.60403 0.0
O331 O 0.49285 0.39074 0.42422 0.0
O332 O 0.46789 0.36238 0.47651 0.0
C333 C 0.45029 0.35813 0.65218 0.0
C334 C 0.47819 0.37108 0.42094 0.0
O335 O 0.50631 0.42277 0.57672 0.0
Mg336 Mg 0.5949 0.72438 0.87133 0.0
O337 O 0.62881 0.73235 0.84167 0.0
O338 O 0.62713 0.70156 0.82013 0.0
Mg339 Mg 0.59295 0.67439 0.82837 0.0
C340 C 0.63769 0.72164 0.82573 0.0
C341 C 0.59505 0.76121 0.95227 0.0
O342 O 0.57812 0.74464 -0.02283 0.0
O343 O 0.59779 0.71139 -0.02424 0.0
O344 O 0.5933 0.67982 0.94506 0.0
O345 O 0.58654 0.72539 0.76042 0.0
O346 O 0.58184 0.69677 0.81392 0.0
C347 C 0.59551 0.69333 -0.00887 0.0
C348 C 0.58046 0.70545 0.75804 0.0
O349 O 0.60674 0.75818 0.91026 0.0
Mg350 Mg 0.3065 0.87943 0.87779 0.0
O351 O 0.29601 0.9037 0.85266 0.0
O352 O 0.32551 0.9343 0.83142 0.0
Mg353 Mg 0.35429 0.92971 0.83292 0.0
C354 C 0.30543 0.92339 0.83792 0.0
C355 C 0.27151 0.8391 0.94857 0.0
O356 O 0.28869 0.83811 0.96051 0.0
O357 O 0.31992 0.89525 -0.01714 0.0
O358 O 0.35037 0.92345 0.94904 0.0
O359 O 0.30508 0.87033 0.76558 0.0
O360 O 0.33318 0.89605 0.81707 0.0
C361 C 0.33795 0.91144 -0.00361 0.0
C362 C 0.32441 0.8857 0.76174 0.0
O363 O 0.27349 0.85557 0.91927 0.0
Mg364 Mg 0.1529 0.4347 0.88207 0.0
O365 O 0.12824 0.40067 0.85094 0.0
O366 O 0.09818 0.40039 0.8281 0.0
Mg367 Mg 0.10355 0.43395 0.83832 0.0
C368 C 0.10876 0.39087 0.83347 0.0
C369 C 0.19049 0.43562 0.96119 0.0
O370 O 0.19092 0.4526 -0.01439 0.0
O371 O 0.1364 0.43069 -0.01363 0.0
O372 O 0.10837 0.43351 0.95517 0.0
O373 O 0.16238 0.44348 0.7714 0.0
O374 O 0.1375 0.44685 0.82464 0.0
C375 C 0.11997 0.43194 0.00147 0.0
C376 C 0.14783 0.44863 0.7688 0.0
O377 O 0.17555 0.4237 0.92043 0.0
Mg378 Mg 0.39614 0.92259 0.40456 0.0
O379 O 0.40635 0.95718 0.43155 0.0
O380 O 0.37675 0.95831 0.44986 0.0
Mg381 Mg 0.34798 0.92499 0.44408 0.0
C382 C 0.39689 0.96744 0.44562 0.0
C383 C 0.4322 0.91998 0.32594 0.0
O384 O 0.41532 0.90321 0.30193 0.0
O385 O 0.38403 0.92592 0.29854 0.0
O386 O 0.35337 0.92391 0.3281 0.0
O387 O 0.39629 0.91438 0.51679 0.0
O388 O 0.36873 0.91212 0.46185 0.0
C389 C 0.36647 0.92475 0.28246 0.0
C390 C 0.37692 0.91037 0.51825 0.0
O391 O 0.42963 0.93226 0.36647 0.0
Mg392 Mg 0.10861 0.47934 0.40578 0.0
O393 O 0.07466 0.45481 0.43785 0.0
O394 O 0.07432 0.4249 0.46303 0.0
Mg395 Mg 0.10778 0.43006 0.45225 0.0
C396 C 0.06485 0.43548 0.45672 0.0
C397 C 0.11002 0.51788 0.33268 0.0
O398 O 0.12805 0.51957 0.31309 0.0
O399 O 0.10463 0.46262 0.30118 0.0
O400 O 0.10723 0.43478 0.33597 0.0
O401 O 0.11776 0.48872 0.51728 0.0
O402 O 0.12095 0.46404 0.46237 0.0
C403 C 0.10597 0.44612 0.28812 0.0
C404 C 0.12321 0.47438 0.51826 0.0
O405 O 0.09727 0.50178 0.36792 0.0
Mg406 Mg 0.54771 0.63483 0.39624 0.0
O407 O 0.57302 0.62632 0.42785 0.0
O408 O 0.6022 0.65666 0.45293 0.0
Mg409 Mg 0.59625 0.68431 0.44174 0.0
C410 C 0.59237 0.6366 0.44677 0.0
C411 C 0.5107 0.59772 0.31668 0.0
O412 O 0.5103 0.61416 0.29127 0.0
O413 O 0.56423 0.64765 0.29131 0.0
O414 O 0.59162 0.67852 0.32583 0.0
O415 O 0.53837 0.63459 0.50808 0.0
O416 O 0.5625 0.66262 0.45232 0.0
C417 C 0.58052 0.66567 0.27808 0.0
C418 C 0.55239 0.6545 0.50856 0.0
O419 O 0.52547 0.60093 0.35846 0.0
Mg420 Mg 0.1054 0.63243 0.4044 0.0
O421 O 0.07145 0.62406 0.43577 0.0
O422 O 0.07311 0.65469 0.4599 0.0
Mg423 Mg 0.10698 0.68213 0.45018 0.0
C424 C 0.06258 0.63463 0.45372 0.0
C425 C 0.10751 0.59607 0.33208 0.0
O426 O 0.12538 0.61295 0.31449 0.0
O427 O 0.10229 0.64555 0.2996 0.0
O428 O 0.10643 0.67668 0.33399 0.0
O429 O 0.11438 0.63187 0.51579 0.0
O430 O 0.11851 0.66009 0.46118 0.0
C431 C 0.10458 0.66376 0.28628 0.0
C432 C 0.12054 0.65182 0.51688 0.0
O433 O 0.094 0.59865 0.36591 0.0
Mg434 Mg 0.39499 0.48061 0.39921 0.0
O435 O 0.40438 0.45589 0.42855 0.0
O436 O 0.37458 0.42583 0.45186 0.0
Mg437 Mg 0.34632 0.43112 0.44316 0.0
C438 C 0.39468 0.4364 0.44569 0.0
C439 C 0.43159 0.51787 0.31761 0.0
O440 O 0.41494 0.51769 0.29133 0.0
O441 O 0.38251 0.46433 0.2948 0.0
O442 O 0.35177 0.43612 0.3266 0.0
O443 O 0.39562 0.4896 0.51055 0.0
O444 O 0.36741 0.46496 0.45679 0.0
C445 C 0.3649 0.44779 0.28008 0.0
C446 C 0.37591 0.47498 0.51295 0.0
O447 O 0.42868 0.50345 0.36051 0.0
Mg448 Mg 0.54904 0.92089 0.40496 0.0
O449 O 0.5747 0.95505 0.43329 0.0
O450 O 0.60379 0.95362 0.45761 0.0
Mg451 Mg 0.5973 0.91969 0.45189 0.0
C452 C 0.59417 0.96404 0.45101 0.0
C453 C 0.51136 0.91932 0.32615 0.0
O454 O 0.51045 0.90167 0.30662 0.0
O455 O 0.56528 0.92315 0.30053 0.0
O456 O 0.5924 0.91929 0.33541 0.0
O457 O 0.53956 0.91344 0.51703 0.0
O458 O 0.56383 0.9087 0.46478 0.0
C459 C 0.58121 0.9208 0.28754 0.0
C460 C 0.55384 0.90795 0.52026 0.0
O461 O 0.52681 0.93209 0.36375 0.0
Mg462 Mg 0.30572 0.43338 0.8766 0.0
O463 O 0.29597 0.39913 0.84708 0.0
O464 O 0.32559 0.39859 0.82321 0.0
Mg465 Mg 0.35403 0.43206 0.8303 0.0
C466 C 0.3055 0.38918 0.82982 0.0
C467 C 0.26961 0.43493 0.9577 0.0
O468 O 0.28646 0.45172 -0.01825 0.0
O469 O 0.31866 0.43002 -0.01887 0.0
O470 O 0.3492 0.43258 0.9466 0.0
O471 O 0.3054 0.44218 0.76484 0.0
O472 O 0.33323 0.44517 0.81919 0.0
C473 C 0.3366 0.43161 -0.0057 0.0
C474 C 0.32519 0.44754 0.76351 0.0
O475 O 0.2722 0.42288 0.91615 0.0
Mg476 Mg 0.59639 0.87852 0.87533 0.0
O477 O 0.63069 0.90402 0.84774 0.0
O478 O 0.63006 0.93392 0.83185 0.0
Mg479 Mg 0.59626 0.92799 0.84056 0.0
C480 C 0.64008 0.9238 0.83416 0.0
C481 C 0.59551 0.84083 0.95414 0.0
O482 O 0.57908 0.84096 -0.01862 0.0
O483 O 0.59924 0.89328 -0.01747 0.0
O484 O 0.59564 0.92109 0.95567 0.0
O485 O 0.58804 0.87013 0.76316 0.0
O486 O 0.58495 0.89478 0.81935 0.0
C487 C 0.59718 0.90905 0.00018 0.0
C488 C 0.58345 0.88507 0.76243 0.0
O489 O 0.60704 0.85536 0.91145 0.0
Mg490 Mg 0.15378 0.72149 0.88075 0.0
O491 O 0.12946 0.73123 0.84979 0.0
O492 O 0.09923 0.70169 0.82622 0.0
Mg493 Mg 0.10408 0.67321 0.83647 0.0
C494 C 0.11002 0.72177 0.83201 0.0
C495 C 0.19321 0.75826 0.9506 0.0
O496 O 0.19507 0.74178 0.96616 0.0
O497 O 0.13711 0.70919 -0.01506 0.0
O498 O 0.10877 0.67858 0.9532 0.0
O499 O 0.1631 0.72196 0.7698 0.0
O500 O 0.13809 0.69392 0.82341 0.0
C501 C 0.12043 0.69168 -0.00031 0.0
C502 C 0.14833 0.70233 0.76738 0.0
O503 O 0.17662 0.75514 0.91906 0.0
C504 C 0.26567 0.02681 0.52558 0.0
C505 C 0.25491 1.00516 0.54269 0.0
C506 C 0.26906 0.03357 0.45643 0.0
C507 C 0.26214 0.01895 0.40169 0.0
H508 H 0.2709 0.03871 0.56588 0.0
H509 H 0.27689 0.05036 0.4459 0.0
S510 S 0.23446 0.9604 0.41913 0.0
N511 N 0.23827 0.96917 0.49967 0.0
N512 N 0.24477 0.98165 0.36963 0.0
C513 C 0.25205 0.99721 0.41823 0.0
C514 C 0.24838 0.99037 0.48869 0.0
C515 C 1.00408 0.2456 0.52319 0.0
C516 C 0.0258 0.25668 0.5395 0.0
C517 C 0.99714 0.24177 0.45432 0.0
C518 C 1.01165 0.24921 0.39913 0.0
H519 H 0.99228 0.23918 0.56396 0.0
H520 H 0.9803 0.23275 0.44433 0.0
S521 S 0.0703 0.28014 0.41425 0.0
N522 N 0.06174 0.27572 0.49514 0.0
N523 N 0.04889 0.26886 0.36556 0.0
C524 C 0.03345 0.26093 0.41479 0.0
C525 C 0.04048 0.26456 0.48497 0.0
C526 C 0.78692 0.7611 0.44597 0.0
C527 C 0.78008 0.76873 0.39104 0.0
C528 C 0.78298 0.76411 0.51487 0.0
C529 C 0.77236 0.77519 0.53166 0.0
H530 H 0.79552 0.75287 0.43576 0.0
H531 H 0.78892 0.75821 0.55532 0.0
S532 S 0.75077 0.79799 0.40689 0.0
N533 N 0.76165 0.78746 0.35792 0.0
N534 N 0.75455 0.79327 0.48769 0.0
C535 C 0.76514 0.78262 0.47729 0.0
C536 C 0.7689 0.77933 0.40697 0.0
C537 C 0.78479 0.0245 0.52265 0.0
C538 C 0.77438 1.00282 0.53944 0.0
C539 C 0.78812 0.03136 0.45367 0.0
C540 C 0.78087 0.01683 0.39876 0.0
H541 H 0.79101 0.03637 0.56307 0.0
H542 H 0.79659 0.04819 0.44339 0.0
S543 S 0.75187 0.95822 0.41489 0.0
N544 N 0.7563 0.96686 0.49562 0.0
N545 N 0.76229 0.97958 0.36587 0.0
C546 C 0.76991 0.99504 0.41483 0.0
C547 C 0.76675 0.98809 0.48514 0.0
C548 C 0.03866 0.78192 0.50479 0.0
C549 C 0.02416 0.77533 0.55989 0.0
C550 C 0.03172 0.77837 0.436 0.0
C551 C 1.01002 0.76842 0.41956 0.0
H552 H 0.0555 0.78987 0.51481 0.0
H553 H 0.04357 0.78395 0.39537 0.0
S554 S 0.96559 0.74823 0.54504 0.0
N555 N 0.98701 0.75825 0.5937 0.0
N556 N 0.97408 0.75186 0.46406 0.0
C557 C 0.99533 0.7617 0.47413 0.0
C558 C 1.00237 0.76505 0.54434 0.0
C559 C 0.25104 0.2576 0.42196 0.0
C560 C 0.26139 0.24629 0.40469 0.0
C561 C 0.24762 0.26097 0.49101 0.0
C562 C 0.25471 0.25347 0.54561 0.0
H563 H 0.24488 0.26337 0.38183 0.0
H564 H 0.23916 0.26931 0.5016 0.0
S565 S 0.28363 0.22386 0.52846 0.0
N566 N 0.27934 0.22825 0.44784 0.0
N567 N 0.2732 0.23473 0.57793 0.0
C568 C 0.2657 0.24271 0.5292 0.0
C569 C 0.26894 0.23906 0.45872 0.0
C570 C 0.91838 0.33224 0.76324 0.0
C571 C 0.92837 0.3539 0.74644 0.0
C572 C 0.91444 0.32534 0.83212 0.0
C573 C 0.92067 0.33984 0.88696 0.0
H574 H 0.91304 0.32038 0.7228 0.0
H575 H 0.90646 0.30853 0.84241 0.0
S576 S 0.94778 0.39833 0.87119 0.0
N577 N 0.94464 0.38981 0.7904 0.0
N578 N 0.93751 0.37696 0.92016 0.0
C579 C 0.93103 0.36159 0.87108 0.0
C580 C 0.93479 0.36859 0.80079 0.0
C581 C 0.66142 0.57631 0.77719 0.0
C582 C 0.6761 0.58301 0.72252 0.0
C583 C 0.66813 0.57997 0.84631 0.0
C584 C 0.68977 0.59014 0.86345 0.0
H585 H 0.6446 0.56807 0.7666 0.0
H586 H 0.65617 0.57418 0.88664 0.0
S587 S 0.73468 0.61127 0.73965 0.0
N588 N 0.71341 0.60086 0.69019 0.0
N589 N 0.72587 0.60744 0.82025 0.0
C590 C 0.70464 0.59721 0.80938 0.0
C591 C 0.69785 0.59375 0.73891 0.0
C592 C 0.43868 0.11257 0.74917 0.0
C593 C 0.45163 0.10396 0.73227 0.0
C594 C 0.43535 0.11624 0.81806 0.0
C595 C 0.44453 0.11112 0.87285 0.0
H596 H 0.43134 0.11697 0.70881 0.0
H597 H 0.42544 0.12307 0.82841 0.0
S598 S 0.47971 0.08816 0.8571 0.0
N599 N 0.47367 0.0904 0.77636 0.0
N600 N 0.46727 0.09706 0.906 0.0
C601 C 0.45734 0.10227 0.85693 0.0
C602 C 0.46093 0.09877 0.78666 0.0
C603 C 0.45197 0.36498 0.77945 0.0
C604 C 0.44503 0.35051 0.72441 0.0
C605 C 0.44816 0.35803 0.84825 0.0
C606 C 0.43758 0.33633 0.86473 0.0
H607 H 0.46054 0.38181 0.76941 0.0
H608 H 0.45416 0.36986 0.88884 0.0
S609 S 0.41578 0.29192 0.73953 0.0
N610 N 0.42657 0.31334 0.69079 0.0
N611 N 0.4197 0.30042 0.82044 0.0
C612 C 0.43027 0.32166 0.81025 0.0
C613 C 0.4339 0.32871 0.74004 0.0
C614 C 0.70415 0.11459 0.82496 0.0
C615 C 0.68964 0.10838 0.87991 0.0
C616 C 0.69726 0.11067 0.75616 0.0
C617 C 0.67557 0.10068 0.73943 0.0
H618 H 0.72099 0.12257 0.83508 0.0
H619 H 0.70916 0.11602 0.7157 0.0
S620 S 0.63106 0.0812 0.86435 0.0
N621 N 0.65244 0.09148 0.91323 0.0
N622 N 0.63961 0.08438 0.78352 0.0
C623 C 0.66085 0.09426 0.79383 0.0
C624 C 0.66785 0.09801 0.86411 0.0
C625 C 0.9183 0.59233 0.77289 0.0
C626 C 0.92917 0.58151 0.75592 0.0
C627 C 0.91466 0.59556 0.8419 0.0
C628 C 0.92203 0.58843 0.89674 0.0
H629 H 0.91191 0.59779 0.73255 0.0
H630 H 0.90579 0.60352 0.85223 0.0
S631 S 0.95245 0.56027 0.88014 0.0
N632 N 0.94797 0.5644 0.79944 0.0
N633 N 0.94144 0.57062 0.92937 0.0
C634 C 0.93356 0.57818 0.88052 0.0
C635 C 0.93701 0.57466 0.81011 0.0
C636 C 0.5784 0.65838 0.15066 0.0
C637 C 0.58591 0.67298 0.20542 0.0
C638 C 0.58225 0.66516 0.08159 0.0
C639 C 0.59347 0.68682 0.06458 0.0
H640 H 0.56931 0.64159 0.16112 0.0
H641 H 0.57578 0.65327 0.04123 0.0
S642 S 0.61713 0.73154 0.18852 0.0
N643 N 0.60573 0.71026 0.23782 0.0
N644 N 0.61269 0.7228 0.10791 0.0
C645 C 0.60141 0.70159 0.11869 0.0
C646 C 0.59773 0.69473 0.18908 0.0
C647 C 0.33821 0.91285 0.19276 0.0
C648 C 0.35992 0.92258 0.20898 0.0
C649 C 0.33119 0.90937 0.124 0.0
C650 C 0.34562 0.91582 0.06873 0.0
H651 H 0.32641 0.90739 0.23355 0.0
H652 H 0.31435 0.90159 0.11413 0.0
S653 S 0.40419 0.94228 0.08295 0.0
N654 N 0.39578 0.93875 0.16401 0.0
N655 N 0.38272 0.93249 0.03456 0.0
C656 C 0.36742 0.92588 0.08408 0.0
C657 C 0.37453 0.92916 0.15421 0.0
C658 C 0.1009 0.44807 0.16063 0.0
C659 C 0.10815 0.44083 0.21554 0.0
C660 C 0.10414 0.44439 0.09161 0.0
C661 C 0.1151 0.43366 0.07483 0.0
H662 H 0.09283 0.45683 0.17095 0.0
H663 H 0.09858 0.45066 0.05111 0.0
S664 S 0.13681 0.4109 0.1993 0.0
N665 N 0.12632 0.42179 0.24839 0.0
N666 N 0.13254 0.4152 0.11857 0.0
C667 C 0.1221 0.42599 0.12912 0.0
C668 C 0.11857 0.42947 0.19945 0.0
C669 C 0.10021 0.65665 0.15868 0.0
C670 C 0.10721 0.67121 0.21359 0.0
C671 C 0.10397 0.6635 0.08968 0.0
C672 C 0.11518 0.68518 0.07291 0.0
H673 H 0.09198 0.63984 0.16899 0.0
H674 H 0.0986 0.65165 0.04922 0.0
S675 S 0.13623 0.72981 0.1971 0.0
N676 N 0.12531 0.70848 0.24626 0.0
N677 N 0.13249 0.72114 0.11643 0.0
C678 C 0.1219 0.69992 0.12708 0.0
C679 C 0.11786 0.69299 0.19741 0.0
C680 C 0.33662 0.43115 0.19067 0.0
C681 C 0.35834 0.44265 0.20694 0.0
C682 C 0.32967 0.42731 0.12186 0.0
C683 C 0.34418 0.43449 0.0667 0.0
H684 H 0.32479 0.42557 0.23137 0.0
H685 H 0.31282 0.41881 0.11188 0.0
S686 S 0.40284 0.46456 0.08157 0.0
N687 N 0.3943 0.46062 0.16248 0.0
N688 N 0.38141 0.45327 0.03296 0.0
C689 C 0.366 0.44551 0.08227 0.0
C690 C 0.37303 0.44965 0.1524 0.0
C691 C 0.58012 0.92677 0.16047 0.0
C692 C 0.58638 0.91846 0.21499 0.0
C693 C 0.58427 0.9241 0.09145 0.0
C694 C 0.59455 0.91273 0.07409 0.0
H695 H 0.57192 0.93537 0.17108 0.0
H696 H 0.57886 0.93062 0.05133 0.0
S697 S 0.61428 0.88784 0.19772 0.0
N698 N 0.60364 0.89852 0.24717 0.0
N699 N 0.61118 0.8934 0.1172 0.0
C700 C 0.60104 0.90446 0.12809 0.0
C701 C 0.59704 0.90738 0.19854 0.0
C702 C 0.23919 0.02245 0.9099 0.0
C703 C 0.22654 1.00027 0.91263 0.0
C704 C 0.24528 0.03468 0.9704 0.0
C705 C 0.23911 0.02513 0.03578 0.0
H706 H 0.24452 0.03051 0.86058 0.0
H707 H 0.25528 0.05165 0.96592 0.0
S708 S 0.20484 0.96781 0.07141 0.0
N709 N 0.20725 0.96938 -0.01383 0.0
N710 N 0.21865 0.99231 0.09998 0.0
C711 C 0.22602 1.00302 0.0393 0.0
C712 C 0.21972 0.99059 -0.02231 0.0
C713 C 0.99666 0.21838 0.96713 0.0
C714 C 1.00615 0.22175 0.03253 0.0
C715 C 1.00901 0.22506 0.9068 0.0
C716 C 0.03125 0.23509 0.90975 0.0
H717 H 0.97964 0.21097 0.96255 0.0
H718 H 1.001 0.22227 0.85744 0.0
S719 S 0.06364 0.24627 0.06859 0.0
N720 N 0.03901 0.23483 0.09693 0.0
N721 N 0.06215 0.24732 -0.01657 0.0
C722 C 0.04089 0.23804 -0.02521 0.0
C723 C 0.02834 0.2314 0.03623 0.0
C724 C 0.78985 0.80489 0.96674 0.0
C725 C 0.79512 0.8008 0.90085 0.0
C726 C 0.79626 0.79892 0.02665 0.0
C727 C 0.80837 0.78882 0.02294 0.0
H728 H 0.78035 0.81239 0.97217 0.0
H729 H 0.79164 0.80228 0.07636 0.0
S730 S 0.82768 0.77597 0.86253 0.0
N731 N 0.81416 0.78708 0.83499 0.0
N732 N 0.82617 0.77584 0.94799 0.0
C733 C 0.81429 0.78518 0.95739 0.0
C734 C 0.80764 0.79115 0.89624 0.0
C735 C 0.80537 0.01955 0.90643 0.0
C736 C 0.79537 0.99733 0.91029 0.0
C737 C 0.8117 0.03206 0.96628 0.0
C738 C 0.80811 0.02279 0.03213 0.0
H739 H 0.80833 0.02742 0.85673 0.0
H740 H 0.819 0.04903 0.96092 0.0
S741 S 0.78414 0.96554 0.07068 0.0
N742 N 0.78327 0.96674 -0.01463 0.0
N743 N 0.79527 0.9902 0.09798 0.0
C744 C 0.79872 1.00065 0.03677 0.0
C745 C 0.79235 0.98793 -0.02419 0.0
C746 C 0.02748 0.81287 0.95974 0.0
C747 C 0.03471 0.79991 0.93158 0.0
C748 C 1.01344 0.80597 0.01611 0.0
C749 C 1.00647 0.78604 0.04579 0.0
H750 H 0.03227 0.82815 0.93694 0.0
H751 H 1.00825 0.81637 0.03722 0.0
S752 S 0.02094 0.7464 -0.00925 0.0
N753 N 0.03396 0.7664 0.93691 0.0
N754 N 1.00777 0.75353 0.0435 0.0
C755 C 1.01374 0.77307 0.0184 0.0
C756 C 0.02783 0.77999 0.96083 0.0
C757 C 0.24402 0.21647 0.97058 0.0
C758 C 0.23769 0.21958 0.03613 0.0
C759 C 0.23834 0.22312 0.91053 0.0
C760 C 0.22596 0.23294 0.91377 0.0
H761 H 0.25382 0.20929 0.96563 0.0
H762 H 0.24375 0.22051 0.86113 0.0
S763 S 0.20396 0.24318 0.07298 0.0
N764 N 0.21734 0.23199 0.10098 0.0
N765 N 0.20673 0.24452 -0.01218 0.0
C766 C 0.21899 0.23556 -0.02109 0.0
C767 C 0.22486 0.22889 0.04017 0.0
C768 C 0.89097 0.35237 0.3406 0.0
C769 C 0.91023 0.35756 0.37246 0.0
C770 C 0.88351 0.33843 0.28414 0.0
C771 C 0.8952 0.32945 0.25813 0.0
H772 H 0.8815 0.35888 0.36011 0.0
H773 H 0.8688 0.33502 0.2597 0.0
S774 S 0.9469 0.3387 0.32176 0.0
N775 N 0.94101 0.35312 0.37317 0.0
N776 N 0.927 0.32698 0.26682 0.0
C777 C 0.91451 0.33464 0.28922 0.0
C778 C 0.92202 0.34868 0.34673 0.0
C779 C 0.68513 0.58175 0.26008 0.0
C780 C 0.69391 0.56969 0.23572 0.0
C781 C 0.67182 0.57528 0.31825 0.0
C782 C 0.66635 0.55621 0.3518 0.0
H783 H 0.68876 0.59636 0.23448 0.0
H784 H 0.66582 0.58524 0.33723 0.0
S785 S 0.68469 0.51879 0.30692 0.0
N786 N 0.69622 0.5379 0.24901 0.0
N787 N 0.67055 0.52537 0.35726 0.0
C788 C 0.6748 0.54391 0.3275 0.0
C789 C 0.68877 0.55076 0.2695 0.0
C790 C 0.47815 0.14822 0.27248 0.0
C791 C 0.45795 0.13504 0.24481 0.0
C792 C 0.48554 0.14147 0.32833 0.0
C793 C 0.47283 0.12144 0.35788 0.0
H794 H 0.48845 0.16359 0.24978 0.0
H795 H 0.5011 0.15207 0.34918 0.0
S796 S 0.41883 0.08116 0.30369 0.0
N797 N 0.42547 0.10119 0.25036 0.0
N798 N 0.43927 0.08857 0.35577 0.0
C799 C 0.4526 0.10823 0.33084 0.0
C800 C 0.44517 0.11501 0.27389 0.0
C801 C 0.45423 0.32411 0.29965 0.0
C802 C 0.45957 0.33349 0.23386 0.0
C803 C 0.46048 0.33652 0.35963 0.0
C804 C 0.47248 0.35874 0.35605 0.0
H805 H 0.44484 0.30711 0.30493 0.0
H806 H 0.45585 0.32855 0.40928 0.0
S807 S 0.49175 0.39091 0.19593 0.0
N808 N 0.47845 0.36626 0.16823 0.0
N809 N 0.49014 0.38954 0.28137 0.0
C810 C 0.4784 0.3683 0.2906 0.0
C811 C 0.47192 0.35567 0.22939 0.0
C812 C 0.702 0.12133 0.29513 0.0
C813 C 0.7007 0.13533 0.24875 0.0
C814 C 0.68837 0.11352 0.35227 0.0
C815 C 0.67303 0.11944 0.3645 0.0
H816 H 0.71317 0.11593 0.28602 0.0
H817 H 0.68957 0.10239 0.38591 0.0
S818 S 0.66368 0.15594 0.25719 0.0
N819 N 0.68313 0.1548 0.21731 0.0
N820 N 0.65763 0.14038 0.32564 0.0
C821 C 0.67163 0.13343 0.31804 0.0
C822 C 0.68549 0.14134 0.25989 0.0
C823 C 0.9113 0.55102 0.32148 0.0
C824 C 0.90581 0.55501 0.3872 0.0
C825 C 0.90519 0.55722 0.26136 0.0
C826 C 0.89322 0.56747 0.26471 0.0
H827 H 0.92075 0.54347 0.31638 0.0
H828 H 0.90997 0.55396 0.2118 0.0
S829 S 0.87338 0.58002 0.42456 0.0
N830 N 0.88664 0.56869 0.45246 0.0
N831 N 0.87526 0.58041 0.33918 0.0
C832 C 0.88707 0.57097 0.3301 0.0
C833 C 0.89338 0.56475 0.39142 0.0
C834 C 0.55554 0.65819 0.63737 0.0
C835 C 0.55825 0.6675 0.5719 0.0
C836 C 0.56275 0.67067 0.69719 0.0
C837 C 0.57277 0.69289 0.69369 0.0
H838 H 0.54831 0.64121 0.64234 0.0
H839 H 0.56044 0.66277 0.74657 0.0
S840 S 0.58192 0.72478 0.5346 0.0
N841 N 0.57033 0.70013 0.507 0.0
N842 N 0.58396 0.72353 0.61947 0.0
C843 C 0.57493 0.70233 0.62863 0.0
C844 C 0.56766 0.68964 0.56773 0.0
C845 C 0.34249 0.87792 0.66698 0.0
C846 C 0.33637 0.89158 0.69675 0.0
C847 C 0.35648 0.88448 0.61048 0.0
C848 C 0.36452 0.90476 0.58228 0.0
H849 H 0.33683 0.86232 0.68852 0.0
H850 H 0.36077 0.87354 0.58805 0.0
S851 S 0.35288 0.9461 0.64088 0.0
N852 N 0.33909 0.92603 0.69379 0.0
N853 N 0.36525 0.93827 0.58719 0.0
C854 C 0.35833 0.91841 0.61118 0.0
C855 C 0.34428 0.91184 0.66882 0.0
C856 C 0.13018 0.46558 0.7074 0.0
C857 C 0.14242 0.4556 0.7041 0.0
C858 C 0.12443 0.47216 0.64724 0.0
C859 C 0.13051 0.46877 0.58165 0.0
H860 H 0.12497 0.46838 0.75691 0.0
H861 H 0.11478 0.47951 0.65211 0.0
S862 S 0.1636 0.44445 0.54462 0.0
N863 N 0.16112 0.44346 0.62984 0.0
N864 N 0.15034 0.45578 0.51668 0.0
C865 C 0.14312 0.45921 0.57759 0.0
C866 C 0.14909 0.45266 0.63885 0.0
C867 C 0.12962 0.66774 0.70593 0.0
C868 C 0.14229 0.68992 0.70256 0.0
C869 C 0.12299 0.65539 0.64575 0.0
C870 C 0.12862 0.6648 0.58005 0.0
H871 H 0.12472 0.65977 0.75552 0.0
H872 H 0.11304 0.63843 0.65077 0.0
S873 S 0.16269 0.72205 0.54265 0.0
N874 N 0.16098 0.72065 0.62805 0.0
N875 N 0.14861 0.69749 0.51477 0.0
C876 C 0.14171 0.68691 0.57585 0.0
C877 C 0.14856 0.69946 0.63715 0.0
C878 C 0.32884 0.45021 0.63464 0.0
C879 C 0.33826 0.45535 0.70033 0.0
C880 C 0.34124 0.45676 0.57444 0.0
C881 C 0.36348 0.46889 0.57781 0.0
H882 H 0.31181 0.44073 0.62963 0.0
H883 H 0.33326 0.45227 0.52483 0.0
S884 S 0.39575 0.48775 0.73772 0.0
N885 N 0.3711 0.47418 0.76563 0.0
N886 N 0.39433 0.48645 0.65229 0.0
C887 C 0.37306 0.47461 0.64322 0.0
C888 C 0.36047 0.46782 0.70454 0.0
C889 C 0.55833 0.87594 0.66462 0.0
C890 C 0.57664 0.89099 0.69915 0.0
C891 C 0.55026 0.8818 0.6084 0.0
C892 C 0.56027 0.90285 0.58564 0.0
H893 H 0.55007 0.85965 0.68182 0.0
H894 H 0.53637 0.86978 0.58178 0.0
S895 S 0.60946 0.94775 0.65523 0.0
N896 N 0.60518 0.92745 0.70409 0.0
N897 N 0.58974 0.93849 0.59931 0.0
C898 C 0.57867 0.91793 0.61917 0.0
C899 C 0.58692 0.91199 0.67599 0.0
C900 C 0.36163 0.09967 0.12986 0.0
C901 C 0.37263 0.08893 0.11428 0.0
C902 C 0.33979 0.08864 0.14359 0.0
C903 C 0.32795 0.06639 0.14177 0.0
H904 H 0.37 0.11675 0.13277 0.0
H905 H 0.33219 0.09771 0.15603 0.0
S906 S 0.34905 0.03076 0.09948 0.0
N907 N 0.36982 0.05473 0.09506 0.0
N908 N 0.32901 0.03408 0.12054 0.0
C909 C 0.33873 0.05548 0.12482 0.0
C910 C 0.36096 0.06671 0.11121 0.0
C911 C 0.96071 0.29826 0.1319 0.0
C912 C 0.9385 0.28756 0.12701 0.0
C913 C 0.97168 0.28737 0.14205 0.0
C914 C 0.96101 0.26522 0.14833 0.0
H915 H 0.96985 0.31531 0.12776 0.0
H916 H 0.98875 0.29654 0.14566 0.0
S917 S 0.90282 0.22945 0.13878 0.0
N918 N 0.90613 0.25333 0.12872 0.0
N919 N 0.92678 0.23284 0.14812 0.0
C920 C 0.93877 0.25421 0.14335 0.0
C921 C 0.92754 0.26535 0.13255 0.0
C922 C 0.73097 0.6687 0.1172 0.0
C923 C 0.7412 0.65674 0.1136 0.0
C924 C 0.74218 0.69045 0.12967 0.0
C925 C 0.76423 0.70143 0.1396 0.0
H926 H 0.71402 0.66126 0.11012 0.0
H927 H 0.73331 0.69866 0.13193 0.0
S928 S 0.79885 0.67769 0.13508 0.0
N929 N 0.77488 0.6576 0.1207 0.0
N930 N 0.79602 0.69858 0.14445 0.0
C931 C 0.77479 0.68974 0.13607 0.0
C932 C 0.7633 0.66745 0.12291 0.0
C933 C 0.06462 0.3345 0.80102 0.0
C934 C 0.07526 0.32303 0.79316 0.0
C935 C 0.07561 0.35628 0.8137 0.0
C936 C 0.09779 0.3677 0.81965 0.0
H937 H 0.04756 0.32665 0.79704 0.0
H938 H 0.06648 0.36416 0.8193 0.0
S939 S 0.13342 0.34531 0.80339 0.0
N940 N 0.10947 0.32486 0.79224 0.0
N941 N 0.13012 0.36579 0.81633 0.0
C942 C 0.10873 0.35648 0.81205 0.0
C943 C 0.0975 0.33421 0.79869 0.0
C944 C 0.69434 0.76542 0.78954 0.0
C945 C 0.70585 0.75467 0.78857 0.0
C946 C 0.67243 0.75472 0.80206 0.0
C947 C 0.661 0.73276 0.81363 0.0
H948 H 0.70228 0.7823 0.78054 0.0
H949 H 0.66438 0.76376 0.8019 0.0
S950 S 0.68355 0.69711 0.81851 0.0
N951 N 0.70397 0.72064 0.80175 0.0
N952 N 0.66305 0.70069 0.82503 0.0
C953 C 0.67232 0.72182 0.81327 0.0
C954 C 0.69462 0.7327 0.80087 0.0
C955 C 0.29271 0.96729 0.81025 0.0
C956 C 0.27064 0.95654 0.80087 0.0
C957 C 0.30359 0.95641 0.82269 0.0
C958 C 0.29296 0.93421 0.82683 0.0
H959 H 0.30185 0.98436 0.80728 0.0
H960 H 0.32058 0.96563 0.829 0.0
S961 S 0.23505 0.89832 0.80779 0.0
N962 N 0.23839 0.92222 0.79781 0.0
N963 N 0.25887 0.90177 0.82145 0.0
C964 C 0.27082 0.92317 0.81851 0.0
C965 C 0.25969 0.9343 0.8054 0.0
C966 C 0.69698 0.93569 0.81121 0.0
C967 C 0.70797 0.95717 0.79235 0.0
C968 C 0.67513 0.92506 0.82478 0.0
C969 C 0.66329 0.93541 0.81958 0.0
H970 H 0.70536 0.92704 0.81645 0.0
H971 H 0.66752 0.90858 0.83967 0.0
S972 S 0.68437 0.99138 0.76704 0.0
N973 N 0.70517 0.98819 0.76613 0.0
N974 N 0.66434 0.96838 0.79104 0.0
C975 C 0.6741 0.95685 0.79952 0.0
C976 C 0.69633 0.96766 0.78611 0.0
C977 C 0.06628 0.7346 0.80137 0.0
C978 C 0.077 0.7568 0.79752 0.0
C979 C 0.07713 0.72359 0.81171 0.0
C980 C 0.09927 0.73422 0.8192 0.0
H981 H 0.04924 0.72548 0.7964 0.0
H982 H 0.06793 0.70652 0.81459 0.0
S983 S 0.1351 0.79239 0.81226 0.0
N984 N 0.11124 0.78912 0.80119 0.0
N985 N 0.13167 0.76842 0.82091 0.0
C986 C 0.11031 0.75646 0.815 0.0
C987 C 0.0992 0.76772 0.80403 0.0
C988 C 0.29297 0.33256 0.80267 0.0
C989 C 0.27084 0.32109 0.79498 0.0
C990 C 0.30386 0.35442 0.81362 0.0
C991 C 0.29317 0.36592 0.81794 0.0
H992 H 0.30214 0.32465 0.79979 0.0
H993 H 0.32089 0.3623 0.81913 0.0
S994 S 0.23513 0.34356 0.80169 0.0
N995 N 0.23851 0.323 0.79266 0.0
N996 N 0.25899 0.36409 0.81355 0.0
C997 C 0.27099 0.3547 0.81066 0.0
C998 C 0.25986 0.33235 0.79903 0.0
C999 C 0.97206 0.68828 0.16863 0.0
C1000 C 0.96147 0.6999 0.17306 0.0
C1001 C 0.96107 0.66642 0.15771 0.0
C1002 C 0.93893 0.65508 0.15019 0.0
H1003 H 0.9891 0.69609 0.1737 0.0
H1004 H 0.97013 0.65843 0.15446 0.0
S1005 S 0.90343 0.67778 0.15847 0.0
N1006 N 0.92736 0.69824 0.16978 0.0
N1007 N 0.90669 0.65716 0.14902 0.0
C1008 C 0.92805 0.66642 0.1548 0.0
C1009 C 0.93928 0.68877 0.16633 0.0
C1010 C 0.36011 0.26803 0.13435 0.0
C1011 C 0.37065 0.28958 0.11642 0.0
C1012 C 0.33825 0.25687 0.1477 0.0
C1013 C 0.32593 0.26674 0.14315 0.0
H1014 H 0.36885 0.25973 0.13917 0.0
H1015 H 0.33101 0.24038 0.16206 0.0
S1016 S 0.34574 0.32271 0.09337 0.0
N1017 N 0.36691 0.32016 0.09176 0.0
N1018 N 0.32606 0.29937 0.11639 0.0
C1019 C 0.33627 0.28824 0.12385 0.0
C1020 C 0.35852 0.29959 0.11066 0.0
C1021 C 0.76127 0.0986 0.1341 0.0
C1022 C 0.73932 0.08794 0.12198 0.0
C1023 C 0.77207 0.0875 0.14604 0.0
C1024 C 0.76142 0.06524 0.14575 0.0
H1025 H 0.7702 0.1157 0.1354 0.0
H1026 H 0.78892 0.09651 0.15565 0.0
S1027 S 0.70397 0.02973 0.11308 0.0
N1028 N 0.70741 0.05376 0.10811 0.0
N1029 N 0.72751 0.03297 0.13026 0.0
C1030 C 0.73947 0.05439 0.13257 0.0
C1031 C 0.7285 0.06569 0.12082 0.0
C1032 C 0.0303 0.4026 0.47967 0.0
C1033 C 0.04168 0.42467 0.47081 0.0
C1034 C 1.00849 0.39172 0.49205 0.0
C1035 C 0.99693 0.40235 0.49663 0.0
H1036 H 0.03824 0.39347 0.47649 0.0
H1037 H 1.00068 0.37474 0.49815 0.0
S1038 S 0.0191 0.46025 0.47847 0.0
N1039 N 0.03967 0.45691 0.46826 0.0
N1040 N 0.99864 0.43644 0.49178 0.0
C1041 C 1.00808 0.42448 0.48845 0.0
C1042 C 0.03039 0.43561 0.47543 0.0
C1043 C 0.60469 0.59181 0.46339 0.0
C1044 C 0.62612 0.60236 0.48279 0.0
C1045 C 0.59386 0.60292 0.45235 0.0
C1046 C 0.60397 0.62502 0.46091 0.0
H1047 H 0.59629 0.57488 0.45526 0.0
H1048 H 0.57747 0.59407 0.43639 0.0
S1049 S 0.65962 0.65982 0.51745 0.0
N1050 N 0.65675 0.636 0.51413 0.0
N1051 N 0.63658 0.65681 0.49401 0.0
C1052 C 0.6253 0.63565 0.48226 0.0
C1053 C 0.63631 0.62435 0.493 0.0
C1054 C 0.4096 0.02394 0.4768 0.0
C1055 C 0.4318 0.03543 0.48275 0.0
C1056 C 0.39868 1.00215 0.46487 0.0
C1057 C 0.40934 0.99068 0.45789 0.0
H1058 H 0.40044 0.03179 0.48158 0.0
H1059 H 0.38159 0.99428 0.46088 0.0
S1060 S 0.46749 0.01308 0.4689 0.0
N1061 N 0.46415 0.03358 0.48063 0.0
N1062 N 0.44357 0.99256 0.45799 0.0
C1063 C 0.43157 1.0019 0.46356 0.0
C1064 C 0.44276 0.02422 0.47608 0.0
C1065 C 0.60767 0.02159 0.46625 0.0
C1066 C 0.62846 0.03183 0.49217 0.0
C1067 C 0.59669 0.99973 0.45312 0.0
C1068 C 0.60599 0.98719 0.46587 0.0
H1069 H 0.59995 0.03058 0.45471 0.0
H1070 H 0.58083 0.99268 0.4323 0.0
S1071 S 0.65948 1.00617 0.5403 0.0
N1072 N 0.65745 0.02757 0.53426 0.0
N1073 N 0.63698 0.98675 0.51026 0.0
C1074 C 0.62662 0.99724 0.49362 0.0
C1075 C 0.63779 0.01945 0.50657 0.0
C1076 C 1.00599 0.59045 0.48894 0.0
C1077 C 0.99472 0.60131 0.49689 0.0
C1078 C 0.0278 0.60124 0.47452 0.0
C1079 C 0.03936 0.62341 0.46797 0.0
H1080 H 0.99791 0.57341 0.49354 0.0
H1081 H 0.03566 0.5921 0.46902 0.0
S1082 S 1.01744 0.65946 0.48409 0.0
N1083 N 0.99698 0.63568 0.49708 0.0
N1084 N 0.03767 0.65583 0.4701 0.0
C1085 C 0.02827 0.63447 0.47579 0.0
C1086 C 1.00609 0.62349 0.49016 0.0
C1087 C 0.39603 0.40313 0.46149 0.0
C1088 C 0.40686 0.42533 0.45745 0.0
C1089 C 0.4068 0.39203 0.47168 0.0
C1090 C 0.42894 0.40256 0.47884 0.0
H1091 H 0.37899 0.39409 0.45621 0.0
H1092 H 0.39754 0.37496 0.47427 0.0
S1093 S 0.46497 0.4607 0.47306 0.0
N1094 N 0.44117 0.45755 0.4619 0.0
N1095 N 0.46142 0.43668 0.48135 0.0
C1096 C 0.44006 0.42481 0.47528 0.0
C1097 C 0.42905 0.43616 0.46445 0.0
C1098 C 0.27818 0.13212 0.25276 0.0
C1099 C 0.26616 0.11611 0.30126 0.0
C1100 C 0.278 0.15124 0.25235 0.0
C1101 C 0.26582 0.15517 0.30048 0.0
H1102 H 0.2869 0.12946 0.21231 0.0
H1103 H 0.28663 0.16254 0.21165 0.0
S1104 S 0.2348 0.12008 0.44637 0.0
N1105 N 0.24408 0.10672 0.40451 0.0
N1106 N 0.24379 0.14256 0.40394 0.0
C1107 C 0.25511 0.13999 0.35262 0.0
C1108 C 0.25526 0.12052 0.35295 0.0
C1109 C 0.89356 0.11549 0.32272 0.0
C1110 C 0.87573 0.11349 0.28791 0.0
C1111 C 0.91286 0.13456 0.32293 0.0
C1112 C 0.91529 0.15258 0.28838 0.0
H1113 H 0.89294 0.10197 0.3479 0.0
H1114 H 0.92622 0.13485 0.34825 0.0
S1115 S 0.87276 0.1567 0.19724 0.0
N1116 N 0.86119 0.13193 0.22381 0.0
N1117 N 0.89747 0.16779 0.22428 0.0
C1118 C 0.89721 0.15128 0.25739 0.0
C1119 C 0.87747 0.13176 0.25713 0.0
C1120 C 0.91389 0.78588 0.32437 0.0
C1121 C 0.91616 0.76966 0.2936 0.0
C1122 C 0.8947 0.78584 0.32181 0.0
C1123 C 0.87684 0.76959 0.28829 0.0
H1124 H 0.92728 0.79924 0.34854 0.0
H1125 H 0.8942 0.79918 0.34413 0.0
S1126 S 0.87346 0.72186 0.20735 0.0
N1127 N 0.89815 0.7357 0.23447 0.0
N1128 N 0.86208 0.73564 0.22958 0.0
C1129 C 0.87842 0.7525 0.26128 0.0
C1130 C 0.89805 0.75254 0.26396 0.0
C1131 C 0.12199 0.2393 0.61441 0.0
C1132 C 0.12011 0.25533 0.64839 0.0
C1133 C 0.14097 0.23891 0.615 0.0
C1134 C 0.15901 0.25455 0.64955 0.0
H1135 H 0.10842 0.22633 0.58944 0.0
H1136 H 0.14116 0.22568 0.59045 0.0
S1137 S 0.16351 0.30183 0.73784 0.0
N1138 N 0.13874 0.28863 0.7111 0.0
N1139 N 0.17443 0.28792 0.71217 0.0
C1140 C 0.15786 0.27156 0.67945 0.0
C1141 C 0.13844 0.27194 0.67888 0.0
C1142 C 0.75709 0.87113 0.6881 0.0
C1143 C 0.76927 0.86719 0.63999 0.0
C1144 C 0.75733 0.89046 0.68874 0.0
C1145 C 0.76975 0.90667 0.64131 0.0
H1146 H 0.74814 0.85965 0.72798 0.0
H1147 H 0.74855 0.89308 0.7291 0.0
S1148 S 0.80136 0.90285 0.4967 0.0
N1149 N 0.79182 0.88009 0.53779 0.0
N1150 N 0.79226 0.91629 0.53901 0.0
C1151 C 0.78068 0.90229 0.58963 0.0
C1152 C 0.78044 0.88261 0.58897 0.0
C1153 C 0.13982 0.90753 0.62644 0.0
C1154 C 0.15841 0.91022 0.65758 0.0
C1155 C 0.12092 0.88808 0.62841 0.0
C1156 C 0.1197 0.87038 0.6616 0.0
H1157 H 0.13953 0.92078 0.60266 0.0
H1158 H 0.10694 0.88725 0.60604 0.0
S1159 S 0.1646 0.86808 0.74254 0.0
N1160 N 0.17497 0.89278 0.71619 0.0
N1161 N 0.13946 0.85622 0.71989 0.0
C1162 C 0.13853 0.87238 0.68867 0.0
C1163 C 0.15786 0.89227 0.68665 0.0
C1164 C 0.9139 0.44989 0.67157 0.0
C1165 C 0.92931 0.44764 0.63464 0.0
C1166 C 0.91402 0.4691 0.67292 0.0
C1167 C 0.92958 0.48703 0.63749 0.0
H1168 H 0.90104 0.43646 0.69756 0.0
H1169 H 0.90125 0.4696 0.6999 0.0
S1170 S 0.97533 0.4905 0.54115 0.0
N1171 N 0.96196 0.46574 0.56779 0.0
N1172 N 0.96218 0.50186 0.57034 0.0
C1173 C 0.94596 0.48547 0.60432 0.0
C1174 C 0.94582 0.4658 0.60288 0.0
C1175 C 0.56014 0.44974 0.64655 0.0
C1176 C 0.54162 0.44736 0.6158 0.0
C1177 C 0.57905 0.46918 0.64623 0.0
C1178 C 0.58036 0.48721 0.61511 0.0
H1179 H 0.56037 0.43626 0.66877 0.0
H1180 H 0.59297 0.4698 0.6682 0.0
S1181 S 0.53569 0.49028 0.5358 0.0
N1182 N 0.52523 0.46535 0.5597 0.0
N1183 N 0.56079 0.50191 0.55903 0.0
C1184 C 0.56161 0.48547 0.58845 0.0
C1185 C 0.54226 0.46557 0.58881 0.0
C1186 C 0.56613 0.08808 0.57884 0.0
C1187 C 0.58288 0.10117 0.62347 0.0
C1188 C 0.54721 0.08871 0.57804 0.0
C1189 C 0.54423 0.10245 0.62188 0.0
H1190 H 0.56797 0.07797 0.54176 0.0
H1191 H 0.53524 0.07902 0.54045 0.0
S1192 S 0.58175 0.1373 0.75679 0.0
N1193 N 0.59414 0.12635 0.71863 0.0
N1194 N 0.55872 0.12751 0.71725 0.0
C1195 C 0.56026 0.1145 0.67014 0.0
C1196 C 0.57952 0.11387 0.6709 0.0
C1197 C 0.81191 0.61449 0.07113 0.0
C1198 C 0.79334 0.60311 0.03172 0.0
C1199 C 0.82919 0.61129 0.06272 0.0
C1200 C 0.82855 0.59636 0.01507 0.0
H1201 H 0.81287 0.62543 0.11083 0.0
H1202 H 0.84267 0.61978 0.09664 0.0
S1203 S 0.78499 0.56467 0.89194 0.0
N1204 N 0.77642 0.57804 0.93738 0.0
N1205 N 0.80875 0.57185 0.9224 0.0
C1206 C 0.81068 0.58591 0.97209 0.0
C1207 C 0.79314 0.58933 -0.01988 0.0
C1208 C 0.45444 0.22166 0.94631 0.0
C1209 C 0.43886 0.20361 -0.01888 0.0
C1210 C 0.45393 0.24055 0.94555 0.0
C1211 C 0.43785 0.24236 -0.02029 0.0
H1212 H 0.4677 0.22152 0.92155 0.0
H1213 H 0.46684 0.25411 0.92026 0.0
S1214 S 0.39156 0.19895 0.07036 0.0
N1215 N 0.40554 0.18812 0.0445 0.0
N1216 N 0.40462 0.22367 0.04319 0.0
C1217 C 0.42132 0.22404 0.01066 0.0
C1218 C 0.42182 0.20469 0.01133 0.0
C1219 C 0.78857 0.22127 0.95661 0.0
C1220 C 0.787 0.20311 -0.01249 0.0
C1221 C 0.80748 0.2407 0.95785 0.0
C1222 C 0.82575 0.24293 -0.00992 0.0
H1223 H 0.77481 0.22078 0.93366 0.0
H1224 H 0.80743 0.25428 0.93578 0.0
S1225 S 0.83105 0.1996 0.06984 0.0
N1226 N 0.80613 0.18811 0.04472 0.0
N1227 N 0.8417 0.22464 0.04702 0.0
C1228 C 0.82489 0.22458 0.01676 0.0
C1229 C 0.80554 0.20469 0.01547 0.0
C1230 C 0.61092 0.7992 0.91634 0.0
C1231 C 0.59803 0.78274 0.96232 0.0
C1232 C 0.611 0.81845 0.91672 0.0
C1233 C 0.5982 0.82206 0.96312 0.0
H1234 H 0.62022 0.79686 0.87723 0.0
H1235 H 0.62038 0.83015 0.87792 0.0
S1236 S 0.56456 0.78558 0.1025 0.0
N1237 N 0.57431 0.77247 0.06163 0.0
N1238 N 0.57446 0.80853 0.0624 0.0
C1239 C 0.5865 0.80635 0.01283 0.0
C1240 C 0.58642 0.78676 0.01242 0.0
C1241 C 0.23019 0.7825 -0.00901 0.0
C1242 C 0.21169 0.77996 0.95959 0.0
C1243 C 0.24906 0.80198 -0.00948 0.0
C1244 C 0.25035 0.8199 0.95871 0.0
H1245 H 0.23044 0.76911 0.01389 0.0
H1246 H 0.26297 0.80271 0.01308 0.0
S1247 S 0.2057 0.82257 0.87732 0.0
N1248 N 0.19529 0.79771 0.90191 0.0
N1249 N 0.23076 0.83434 0.90108 0.0
C1250 C 0.23161 0.81801 0.93127 0.0
C1251 C 0.21231 0.79807 0.93169 0.0
C1252 C 0.21224 0.41931 0.92519 0.0
C1253 C 0.20912 0.4327 0.97024 0.0
C1254 C 0.23139 0.41915 0.92432 0.0
C1255 C 0.24823 0.43238 0.96846 0.0
H1256 H 0.20023 0.40963 0.88771 0.0
H1257 H 0.23334 0.40935 0.88622 0.0
S1258 S 0.24672 0.46747 0.10505 0.0
N1259 N 0.22351 0.4574 0.06658 0.0
N1260 N 0.25938 0.45711 0.06495 0.0
C1261 C 0.24471 0.44461 0.0174 0.0
C1262 C 0.22521 0.44477 0.01828 0.0
C1263 C 0.4705 0.9361 0.35907 0.0
C1264 C 0.45355 0.92238 0.31602 0.0
C1265 C 0.48969 0.93599 0.35898 0.0
C1266 C 0.49272 0.92215 0.31591 0.0
H1267 H 0.46862 0.94628 0.39571 0.0
H1268 H 0.50178 0.94607 0.39565 0.0
S1269 S 0.45483 0.88588 0.18447 0.0
N1270 N 0.44222 0.89663 0.22253 0.0
N1271 N 0.47814 0.89641 0.22254 0.0
C1272 C 0.47652 0.90953 0.26895 0.0
C1273 C 0.457 0.90966 0.26896 0.0
C1274 C 0.12099 0.57293 0.28685 0.0
C1275 C 0.10521 0.57475 0.32302 0.0
C1276 C 0.12163 0.5541 0.28709 0.0
C1277 C 0.10652 0.53616 0.32351 0.0
H1278 H 0.13357 0.58643 0.26026 0.0
H1279 H 0.13467 0.55396 0.26066 0.0
S1280 S 0.06006 0.53154 0.41852 0.0
N1281 N 0.0727 0.55615 0.39027 0.0
N1282 N 0.07388 0.52074 0.39066 0.0
C1283 C 0.08974 0.53723 0.35584 0.0
C1284 C 0.08909 0.5565 0.3556 0.0
C1285 C 0.48869 0.55979 0.35363 0.0
C1286 C 0.49217 0.5761 0.3073 0.0
C1287 C 0.46954 0.54046 0.35386 0.0
C1288 C 0.45305 0.53664 0.30777 0.0
H1289 H 0.50039 0.5623 0.39255 0.0
H1290 H 0.46728 0.52889 0.39294 0.0
S1291 S 0.45568 0.57264 0.16755 0.0
N1292 N 0.47857 0.58598 0.20789 0.0
N1293 N 0.4427 0.54978 0.20829 0.0
C1294 C 0.45698 0.55218 0.25767 0.0
C1295 C 0.47647 0.57185 0.25745 0.0
loop_
_geom_bond_atom_site_label_1
_geom_bond_atom_site_label_2
_geom_bond_distance
_geom_bond_site_symmetry_2
_ccdc_geom_bond_type
Mg0 O1 2.028 . S
Mg0 O7 1.986 . S
Mg0 O9 2.114 . S
Mg0 O10 2.251 . S
Mg0 O13 2.010 . S
O1 Mg0 2.028 . S
O1 C4 1.250 . S
O2 Mg3 2.028 . S
O2 C4 1.248 . S
Mg3 O2 2.028 . S
Mg3 O8 2.032 . S
Mg3 O10 2.079 . S
C4 O1 1.250 . S
C4 O2 1.248 . S
C5 O6 1.264 . S
C5 O13 1.249 . S
O6 C5 1.264 . S
O7 Mg0 1.986 . S
O7 C11 1.246 . S
O8 Mg3 2.032 . S
O8 C11 1.259 . S
O9 Mg0 2.114 . S
O9 C12 1.252 . S
O10 Mg0 2.251 . S
O10 Mg3 2.079 . S
O10 C12 1.273 . S
C11 O7 1.246 . S
C11 O8 1.259 . S
C12 O9 1.252 . S
C12 O10 1.273 . S
O13 Mg0 2.010 . S
O13 C5 1.249 . S
Mg14 O15 2.028 . S
Mg14 O21 1.986 . S
Mg14 O23 2.114 . S
Mg14 O24 2.251 . S
Mg14 O27 2.010 . S
O15 Mg14 2.028 . S
O15 C18 1.250 . S
O16 Mg17 2.028 . S
O16 C18 1.248 . S
Mg17 O16 2.028 . S
Mg17 O22 2.032 . S
Mg17 O24 2.079 . S
C18 O15 1.250 . S
C18 O16 1.248 . S
C19 O20 1.264 . S
C19 O27 1.249 . S
O20 C19 1.264 . S
O21 Mg14 1.986 . S
O21 C25 1.246 . S
O22 Mg17 2.032 . S
O22 C25 1.259 . S
O23 Mg14 2.114 . S
O23 C26 1.252 . S
O24 Mg14 2.251 . S
O24 Mg17 2.079 . S
O24 C26 1.273 . S
C25 O21 1.246 . S
C25 O22 1.259 . S
C26 O23 1.252 . S
C26 O24 1.273 . S
O27 Mg14 2.010 . S
O27 C19 1.249 . S
Mg28 O29 2.028 . S
Mg28 O35 1.986 . S
Mg28 O37 2.114 . S
Mg28 O38 2.251 . S
Mg28 O41 2.010 . S
O29 Mg28 2.028 . S
O29 C32 1.250 . S
O30 Mg31 2.028 . S
O30 C32 1.248 . S
Mg31 O30 2.028 . S
Mg31 O36 2.032 . S
Mg31 O38 2.079 . S
C32 O29 1.250 . S
C32 O30 1.248 . S
C33 O34 1.264 . S
C33 O41 1.249 . S
O34 C33 1.264 . S
O35 Mg28 1.986 . S
O35 C39 1.246 . S
O36 Mg31 2.032 . S
O36 C39 1.259 . S
O37 Mg28 2.114 . S
O37 C40 1.252 . S
O38 Mg28 2.251 . S
O38 Mg31 2.079 . S
O38 C40 1.273 . S
C39 O35 1.246 . S
C39 O36 1.259 . S
C40 O37 1.252 . S
C40 O38 1.273 . S
O41 Mg28 2.010 . S
O41 C33 1.249 . S
Mg42 O43 2.028 . S
Mg42 O49 1.986 . S
Mg42 O51 2.114 . S
Mg42 O52 2.251 . S
Mg42 O55 2.010 . S
O43 Mg42 2.028 . S
O43 C46 1.250 . S
O44 Mg45 2.028 . S
O44 C46 1.248 . S
Mg45 O44 2.028 . S
Mg45 O50 2.032 . S
Mg45 O52 2.079 . S
C46 O43 1.250 . S
C46 O44 1.248 . S
C47 O48 1.264 . S
C47 O55 1.249 . S
O48 C47 1.264 . S
O49 Mg42 1.986 . S
O49 C53 1.246 . S
O50 Mg45 2.032 . S
O50 C53 1.259 . S
O51 Mg42 2.114 . S
O51 C54 1.252 . S
O52 Mg42 2.251 . S
O52 Mg45 2.079 . S
O52 C54 1.273 . S
C53 O49 1.246 . S
C53 O50 1.259 . S
C54 O51 1.252 . S
C54 O52 1.273 . S
O55 Mg42 2.010 . S
O55 C47 1.249 . S
Mg56 O57 2.028 . S
Mg56 O63 1.986 . S
Mg56 O65 2.114 . S
Mg56 O66 2.251 . S
Mg56 O69 2.010 . S
O57 Mg56 2.028 . S
O57 C60 1.250 . S
O58 Mg59 2.028 . S
O58 C60 1.248 . S
Mg59 O58 2.028 . S
Mg59 O64 2.032 . S
Mg59 O66 2.079 . S
C60 O57 1.250 . S
C60 O58 1.248 . S
C61 O62 1.264 . S
C61 O69 1.249 . S
O62 C61 1.264 . S
O63 Mg56 1.986 . S
O63 C67 1.246 . S
O64 Mg59 2.032 . S
O64 C67 1.259 . S
O65 Mg56 2.114 . S
O65 C68 1.252 . S
O66 Mg56 2.251 . S
O66 Mg59 2.079 . S
O66 C68 1.273 . S
C67 O63 1.246 . S
C67 O64 1.259 . S
C68 O65 1.252 . S
C68 O66 1.273 . S
O69 Mg56 2.010 . S
O69 C61 1.249 . S
Mg70 O71 2.028 . S
Mg70 O77 1.986 . S
Mg70 O79 2.114 . S
Mg70 O80 2.251 . S
Mg70 O83 2.010 . S
O71 Mg70 2.028 . S
O71 C74 1.250 . S
O72 Mg73 2.028 . S
O72 C74 1.248 . S
Mg73 O72 2.028 . S
Mg73 O78 2.032 . S
Mg73 O80 2.079 . S
C74 O71 1.250 . S
C74 O72 1.248 . S
C75 O76 1.264 . S
C75 O83 1.249 . S
O76 C75 1.264 . S
O77 Mg70 1.986 . S
O77 C81 1.246 . S
O78 Mg73 2.032 . S
O78 C81 1.259 . S
O79 Mg70 2.114 . S
O79 C82 1.252 . S
O80 Mg70 2.251 . S
O80 Mg73 2.079 . S
O80 C82 1.273 . S
C81 O77 1.246 . S
C81 O78 1.259 . S
C82 O79 1.252 . S
C82 O80 1.273 . S
O83 Mg70 2.010 . S
O83 C75 1.249 . S
Mg84 O85 2.028 . S
Mg84 O91 1.986 . S
Mg84 O93 2.114 . S
Mg84 O94 2.251 . S
Mg84 O97 2.010 . S
O85 Mg84 2.028 . S
O85 C88 1.250 . S
O86 Mg87 2.028 . S
O86 C88 1.248 . S
Mg87 O86 2.028 . S
Mg87 O92 2.032 . S
Mg87 O94 2.079 . S
C88 O85 1.250 . S
C88 O86 1.248 . S
C89 O90 1.264 . S
C89 O97 1.249 . S
O90 C89 1.264 . S
O91 Mg84 1.986 . S
O91 C95 1.246 . S
O92 Mg87 2.032 . S
O92 C95 1.259 . S
O93 Mg84 2.114 . S
O93 C96 1.252 . S
O94 Mg84 2.251 . S
O94 Mg87 2.079 . S
O94 C96 1.273 . S
C95 O91 1.246 . S
C95 O92 1.259 . S
C96 O93 1.252 . S
C96 O94 1.273 . S
O97 Mg84 2.010 . S
O97 C89 1.249 . S
Mg98 O99 2.028 . S
Mg98 O105 1.986 . S
Mg98 O107 2.114 . S
Mg98 O108 2.251 . S
Mg98 O111 2.010 . S
O99 Mg98 2.028 . S
O99 C102 1.250 . S
O100 Mg101 2.028 . S
O100 C102 1.248 . S
Mg101 O100 2.028 . S
Mg101 O106 2.032 . S
Mg101 O108 2.079 . S
C102 O99 1.250 . S
C102 O100 1.248 . S
C103 O104 1.264 . S
C103 O111 1.249 . S
O104 C103 1.264 . S
O105 Mg98 1.986 . S
O105 C109 1.246 . S
O106 Mg101 2.032 . S
O106 C109 1.259 . S
O107 Mg98 2.114 . S
O107 C110 1.252 . S
O108 Mg98 2.251 . S
O108 Mg101 2.079 . S
O108 C110 1.273 . S
C109 O105 1.246 . S
C109 O106 1.259 . S
C110 O107 1.252 . S
C110 O108 1.273 . S
O111 Mg98 2.010 . S
O111 C103 1.249 . S
Mg112 O113 2.028 . S
Mg112 O119 1.986 . S
Mg112 O121 2.114 . S
Mg112 O122 2.251 . S
Mg112 O125 2.010 . S
O113 Mg112 2.028 . S
O113 C116 1.250 . S
O114 Mg115 2.028 . S
O114 C116 1.248 . S
Mg115 O114 2.028 . S
Mg115 O120 2.032 . S
Mg115 O122 2.079 . S
C116 O113 1.250 . S
C116 O114 1.248 . S
C117 O118 1.264 . S
C117 O125 1.249 . S
O118 C117 1.264 . S
O119 Mg112 1.986 . S
O119 C123 1.246 . S
O120 Mg115 2.032 . S
O120 C123 1.259 . S
O121 Mg112 2.114 . S
O121 C124 1.252 . S
O122 Mg112 2.251 . S
O122 Mg115 2.079 . S
O122 C124 1.273 . S
C123 O119 1.246 . S
C123 O120 1.259 . S
C124 O121 1.252 . S
C124 O122 1.273 . S
O125 Mg112 2.010 . S
O125 C117 1.249 . S
Mg126 O127 2.028 . S
Mg126 O133 1.986 . S
Mg126 O135 2.114 . S
Mg126 O136 2.251 . S
Mg126 O139 2.010 . S
O127 Mg126 2.028 . S
O127 C130 1.250 . S
O128 Mg129 2.028 . S
O128 C130 1.248 . S
Mg129 O128 2.028 . S
Mg129 O134 2.032 . S
Mg129 O136 2.079 . S
C130 O127 1.250 . S
C130 O128 1.248 . S
C131 O132 1.264 . S
C131 O139 1.249 . S
O132 C131 1.264 . S
O133 Mg126 1.986 . S
O133 C137 1.246 . S
O134 Mg129 2.032 . S
O134 C137 1.259 . S
O135 Mg126 2.114 . S
O135 C138 1.252 . S
O136 Mg126 2.251 . S
O136 Mg129 2.079 . S
O136 C138 1.273 . S
C137 O133 1.246 . S
C137 O134 1.259 . S
C138 O135 1.252 . S
C138 O136 1.273 . S
O139 Mg126 2.010 . S
O139 C131 1.249 . S
Mg140 O141 2.028 . S
Mg140 O147 1.986 . S
Mg140 O149 2.114 . S
Mg140 O150 2.251 . S
Mg140 O153 2.010 . S
O141 Mg140 2.028 . S
O141 C144 1.250 . S
O142 Mg143 2.028 . S
O142 C144 1.248 . S
Mg143 O142 2.028 . S
Mg143 O148 2.032 . S
Mg143 O150 2.079 . S
C144 O141 1.250 . S
C144 O142 1.248 . S
C145 O146 1.264 . S
C145 O153 1.249 . S
O146 C145 1.264 . S
O147 Mg140 1.986 . S
O147 C151 1.246 . S
O148 Mg143 2.032 . S
O148 C151 1.259 . S
O149 Mg140 2.114 . S
O149 C152 1.252 . S
O150 Mg140 2.251 . S
O150 Mg143 2.079 . S
O150 C152 1.273 . S
C151 O147 1.246 . S
C151 O148 1.259 . S
C152 O149 1.252 . S
C152 O150 1.273 . S
O153 Mg140 2.010 . S
O153 C145 1.249 . S
Mg154 O155 2.028 . S
Mg154 O161 1.986 . S
Mg154 O163 2.114 . S
Mg154 O164 2.251 . S
Mg154 O167 2.010 . S
O155 Mg154 2.028 . S
O155 C158 1.250 . S
O156 Mg157 2.028 . S
O156 C158 1.248 . S
Mg157 O156 2.028 . S
Mg157 O162 2.032 . S
Mg157 O164 2.079 . S
C158 O155 1.250 . S
C158 O156 1.248 . S
C159 O160 1.264 . S
C159 O167 1.249 . S
O160 C159 1.264 . S
O161 Mg154 1.986 . S
O161 C165 1.246 . S
O162 Mg157 2.032 . S
O162 C165 1.259 . S
O163 Mg154 2.114 . S
O163 C166 1.252 . S
O164 Mg154 2.251 . S
O164 Mg157 2.079 . S
O164 C166 1.273 . S
C165 O161 1.246 . S
C165 O162 1.259 . S
C166 O163 1.252 . S
C166 O164 1.273 . S
O167 Mg154 2.010 . S
O167 C159 1.249 . S
Mg168 O169 2.028 . S
Mg168 O175 1.986 . S
Mg168 O177 2.114 . S
Mg168 O178 2.251 . S
Mg168 O181 2.010 . S
O169 Mg168 2.028 . S
O169 C172 1.250 . S
O170 Mg171 2.028 . S
O170 C172 1.248 . S
Mg171 O170 2.028 . S
Mg171 O176 2.032 . S
Mg171 O178 2.079 . S
C172 O169 1.250 . S
C172 O170 1.248 . S
C173 O174 1.264 . S
C173 O181 1.249 . S
O174 C173 1.264 . S
O175 Mg168 1.986 . S
O175 C179 1.246 . S
O176 Mg171 2.032 . S
O176 C179 1.259 . S
O177 Mg168 2.114 . S
O177 C180 1.252 . S
O178 Mg168 2.251 . S
O178 Mg171 2.079 . S
O178 C180 1.273 . S
C179 O175 1.246 . S
C179 O176 1.259 . S
C180 O177 1.252 . S
C180 O178 1.273 . S
O181 Mg168 2.010 . S
O181 C173 1.249 . S
Mg182 O183 2.028 . S
Mg182 O189 1.986 . S
Mg182 O191 2.114 . S
Mg182 O192 2.251 . S
Mg182 O195 2.010 . S
O183 Mg182 2.028 . S
O183 C186 1.250 . S
O184 Mg185 2.028 . S
O184 C186 1.248 . S
Mg185 O184 2.028 . S
Mg185 O190 2.032 . S
Mg185 O192 2.079 . S
C186 O183 1.250 . S
C186 O184 1.248 . S
C187 O188 1.264 . S
C187 O195 1.249 . S
O188 C187 1.264 . S
O189 Mg182 1.986 . S
O189 C193 1.246 . S
O190 Mg185 2.032 . S
O190 C193 1.259 . S
O191 Mg182 2.114 . S
O191 C194 1.252 . S
O192 Mg182 2.251 . S
O192 Mg185 2.079 . S
O192 C194 1.273 . S
C193 O189 1.246 . S
C193 O190 1.259 . S
C194 O191 1.252 . S
C194 O192 1.273 . S
O195 Mg182 2.010 . S
O195 C187 1.249 . S
Mg196 O197 2.028 . S
Mg196 O203 1.986 . S
Mg196 O205 2.114 . S
Mg196 O206 2.251 . S
Mg196 O209 2.010 . S
O197 Mg196 2.028 . S
O197 C200 1.250 . S
O198 Mg199 2.028 . S
O198 C200 1.248 . S
Mg199 O198 2.028 . S
Mg199 O204 2.032 . S
Mg199 O206 2.079 . S
C200 O197 1.250 . S
C200 O198 1.248 . S
C201 O202 1.264 . S
C201 O209 1.249 . S
O202 C201 1.264 . S
O203 Mg196 1.986 . S
O203 C207 1.246 . S
O204 Mg199 2.032 . S
O204 C207 1.259 . S
O205 Mg196 2.114 . S
O205 C208 1.252 . S
O206 Mg196 2.251 . S
O206 Mg199 2.079 . S
O206 C208 1.273 . S
C207 O203 1.246 . S
C207 O204 1.259 . S
C208 O205 1.252 . S
C208 O206 1.273 . S
O209 Mg196 2.010 . S
O209 C201 1.249 . S
Mg210 O211 2.028 . S
Mg210 O217 1.986 . S
Mg210 O219 2.114 . S
Mg210 O220 2.251 . S
Mg210 O223 2.010 . S
O211 Mg210 2.028 . S
O211 C214 1.250 . S
O212 Mg213 2.028 . S
O212 C214 1.248 . S
Mg213 O212 2.028 . S
Mg213 O218 2.032 . S
Mg213 O220 2.079 . S
C214 O211 1.250 . S
C214 O212 1.248 . S
C215 O216 1.264 . S
C215 O223 1.249 . S
O216 C215 1.264 . S
O217 Mg210 1.986 . S
O217 C221 1.246 1_554 S
O218 Mg213 2.032 . S
O218 C221 1.259 1_554 S
O219 Mg210 2.114 . S
O219 C222 1.252 . S
O220 Mg210 2.251 . S
O220 Mg213 2.079 . S
O220 C222 1.273 . S
C221 O217 1.246 1_556 S
C221 O218 1.259 1_556 S
C222 O219 1.252 . S
C222 O220 1.273 . S
O223 Mg210 2.010 . S
O223 C215 1.249 . S
Mg224 O225 2.028 . S
Mg224 O231 1.986 . S
Mg224 O233 2.114 . S
Mg224 O234 2.251 . S
Mg224 O237 2.010 . S
O225 Mg224 2.028 . S
O225 C228 1.250 . S
O226 Mg227 2.028 . S
O226 C228 1.248 . S
Mg227 O226 2.028 . S
Mg227 O232 2.032 . S
Mg227 O234 2.079 . S
C228 O225 1.250 . S
C228 O226 1.248 . S
C229 O230 1.264 . S
C229 O237 1.249 . S
O230 C229 1.264 . S
O231 Mg224 1.986 . S
O231 C235 1.246 1_554 S
O232 Mg227 2.032 . S
O232 C235 1.259 1_554 S
O233 Mg224 2.114 . S
O233 C236 1.252 . S
O234 Mg224 2.251 . S
O234 Mg227 2.079 . S
O234 C236 1.273 . S
C235 O231 1.246 1_556 S
C235 O232 1.259 1_556 S
C236 O233 1.252 . S
C236 O234 1.273 . S
O237 Mg224 2.010 . S
O237 C229 1.249 . S
Mg238 O239 2.028 . S
Mg238 O245 1.986 . S
Mg238 O247 2.114 . S
Mg238 O248 2.251 . S
Mg238 O251 2.010 . S
O239 Mg238 2.028 . S
O239 C242 1.250 . S
O240 Mg241 2.028 . S
O240 C242 1.248 . S
Mg241 O240 2.028 . S
Mg241 O246 2.032 . S
Mg241 O248 2.079 . S
C242 O239 1.250 . S
C242 O240 1.248 . S
C243 O244 1.264 . S
C243 O251 1.249 . S
O244 C243 1.264 . S
O245 Mg238 1.986 . S
O245 C249 1.246 1_554 S
O246 Mg241 2.032 . S
O246 C249 1.259 1_554 S
O247 Mg238 2.114 . S
O247 C250 1.252 . S
O248 Mg238 2.251 . S
O248 Mg241 2.079 . S
O248 C250 1.273 . S
C249 O245 1.246 1_556 S
C249 O246 1.259 1_556 S
C250 O247 1.252 . S
C250 O248 1.273 . S
O251 Mg238 2.010 . S
O251 C243 1.249 . S
Mg252 O253 2.028 . S
Mg252 O259 1.986 . S
Mg252 O261 2.114 . S
Mg252 O262 2.251 . S
Mg252 O265 2.010 . S
O253 Mg252 2.028 . S
O253 C256 1.250 . S
O254 Mg255 2.028 . S
O254 C256 1.248 . S
Mg255 O254 2.028 . S
Mg255 O260 2.032 . S
Mg255 O262 2.079 . S
C256 O253 1.250 . S
C256 O254 1.248 . S
C257 O258 1.264 . S
C257 O265 1.249 . S
O258 C257 1.264 . S
O259 Mg252 1.986 . S
O259 C263 1.246 1_554 S
O260 Mg255 2.032 . S
O260 C263 1.259 1_554 S
O261 Mg252 2.114 . S
O261 C264 1.252 . S
O262 Mg252 2.251 . S
O262 Mg255 2.079 . S
O262 C264 1.273 . S
C263 O259 1.246 1_556 S
C263 O260 1.259 1_556 S
C264 O261 1.252 . S
C264 O262 1.273 . S
O265 Mg252 2.010 . S
O265 C257 1.249 . S
Mg266 O267 2.028 . S
Mg266 O273 1.986 . S
Mg266 O275 2.114 . S
Mg266 O276 2.251 . S
Mg266 O279 2.010 . S
O267 Mg266 2.028 . S
O267 C270 1.250 . S
O268 Mg269 2.028 . S
O268 C270 1.248 . S
Mg269 O268 2.028 . S
Mg269 O274 2.032 . S
Mg269 O276 2.079 . S
C270 O267 1.250 . S
C270 O268 1.248 . S
C271 O272 1.264 . S
C271 O279 1.249 . S
O272 C271 1.264 . S
O273 Mg266 1.986 . S
O273 C277 1.246 1_554 S
O274 Mg269 2.032 . S
O274 C277 1.259 1_554 S
O275 Mg266 2.114 . S
O275 C278 1.252 . S
O276 Mg266 2.251 . S
O276 Mg269 2.079 . S
O276 C278 1.273 . S
C277 O273 1.246 1_556 S
C277 O274 1.259 1_556 S
C278 O275 1.252 . S
C278 O276 1.273 . S
O279 Mg266 2.010 . S
O279 C271 1.249 . S
Mg280 O281 2.028 . S
Mg280 O287 1.986 . S
Mg280 O289 2.114 . S
Mg280 O290 2.251 . S
Mg280 O293 2.010 . S
O281 Mg280 2.028 . S
O281 C284 1.250 . S
O282 Mg283 2.028 . S
O282 C284 1.248 . S
Mg283 O282 2.028 . S
Mg283 O288 2.032 . S
Mg283 O290 2.079 . S
C284 O281 1.250 . S
C284 O282 1.248 . S
C285 O286 1.264 . S
C285 O293 1.249 . S
O286 C285 1.264 . S
O287 Mg280 1.986 . S
O287 C291 1.246 1_554 S
O288 Mg283 2.032 . S
O288 C291 1.259 1_554 S
O289 Mg280 2.114 . S
O289 C292 1.252 . S
O290 Mg280 2.251 . S
O290 Mg283 2.079 . S
O290 C292 1.273 . S
C291 O287 1.246 1_556 S
C291 O288 1.259 1_556 S
C292 O289 1.252 . S
C292 O290 1.273 . S
O293 Mg280 2.010 . S
O293 C285 1.249 . S
Mg294 O295 2.028 . S
Mg294 O301 1.986 . S
Mg294 O303 2.114 . S
Mg294 O304 2.251 . S
Mg294 O307 2.010 . S
O295 Mg294 2.028 . S
O295 C298 1.250 . S
O296 Mg297 2.028 . S
O296 C298 1.248 . S
Mg297 O296 2.028 . S
Mg297 O302 2.032 . S
Mg297 O304 2.079 . S
C298 O295 1.250 . S
C298 O296 1.248 . S
C299 O300 1.264 . S
C299 O307 1.249 . S
O300 C299 1.264 . S
O301 Mg294 1.986 . S
O301 C305 1.246 . S
O302 Mg297 2.032 . S
O302 C305 1.259 . S
O303 Mg294 2.114 . S
O303 C306 1.252 . S
O304 Mg294 2.251 . S
O304 Mg297 2.079 . S
O304 C306 1.273 . S
C305 O301 1.246 . S
C305 O302 1.259 . S
C306 O303 1.252 . S
C306 O304 1.273 . S
O307 Mg294 2.010 . S
O307 C299 1.249 . S
Mg308 O309 2.028 . S
Mg308 O315 1.986 . S
Mg308 O317 2.114 . S
Mg308 O318 2.251 . S
Mg308 O321 2.010 . S
O309 Mg308 2.028 . S
O309 C312 1.250 . S
O310 Mg311 2.028 . S
O310 C312 1.248 . S
Mg311 O310 2.028 . S
Mg311 O316 2.032 . S
Mg311 O318 2.079 . S
C312 O309 1.250 . S
C312 O310 1.248 . S
C313 O314 1.264 . S
C313 O321 1.249 . S
O314 C313 1.264 . S
O315 Mg308 1.986 . S
O315 C319 1.246 . S
O316 Mg311 2.032 . S
O316 C319 1.259 . S
O317 Mg308 2.114 . S
O317 C320 1.252 . S
O318 Mg308 2.251 . S
O318 Mg311 2.079 . S
O318 C320 1.273 . S
C319 O315 1.246 . S
C319 O316 1.259 . S
C320 O317 1.252 . S
C320 O318 1.273 . S
O321 Mg308 2.010 . S
O321 C313 1.249 . S
Mg322 O323 2.028 . S
Mg322 O329 1.986 . S
Mg322 O331 2.114 . S
Mg322 O332 2.251 . S
Mg322 O335 2.010 . S
O323 Mg322 2.028 . S
O323 C326 1.250 . S
O324 Mg325 2.028 . S
O324 C326 1.248 . S
Mg325 O324 2.028 . S
Mg325 O330 2.032 . S
Mg325 O332 2.079 . S
C326 O323 1.250 . S
C326 O324 1.248 . S
C327 O328 1.264 . S
C327 O335 1.249 . S
O328 C327 1.264 . S
O329 Mg322 1.986 . S
O329 C333 1.246 . S
O330 Mg325 2.032 . S
O330 C333 1.259 . S
O331 Mg322 2.114 . S
O331 C334 1.252 . S
O332 Mg322 2.251 . S
O332 Mg325 2.079 . S
O332 C334 1.273 . S
C333 O329 1.246 . S
C333 O330 1.259 . S
C334 O331 1.252 . S
C334 O332 1.273 . S
O335 Mg322 2.010 . S
O335 C327 1.249 . S
Mg336 O337 2.028 . S
Mg336 O343 1.986 . S
Mg336 O345 2.114 . S
Mg336 O346 2.251 . S
Mg336 O349 2.010 . S
O337 Mg336 2.028 . S
O337 C340 1.250 . S
O338 Mg339 2.028 . S
O338 C340 1.248 . S
Mg339 O338 2.028 . S
Mg339 O344 2.032 . S
Mg339 O346 2.079 . S
C340 O337 1.250 . S
C340 O338 1.248 . S
C341 O342 1.264 . S
C341 O349 1.249 . S
O342 C341 1.264 . S
O343 Mg336 1.986 . S
O343 C347 1.246 1_556 S
O344 Mg339 2.032 . S
O344 C347 1.259 1_556 S
O345 Mg336 2.114 . S
O345 C348 1.252 . S
O346 Mg336 2.251 . S
O346 Mg339 2.079 . S
O346 C348 1.273 . S
C347 O343 1.246 1_554 S
C347 O344 1.259 1_554 S
C348 O345 1.252 . S
C348 O346 1.273 . S
O349 Mg336 2.010 . S
O349 C341 1.249 . S
Mg350 O351 2.028 . S
Mg350 O357 1.986 . S
Mg350 O359 2.114 . S
Mg350 O360 2.251 . S
Mg350 O363 2.010 . S
O351 Mg350 2.028 . S
O351 C354 1.250 . S
O352 Mg353 2.028 . S
O352 C354 1.248 . S
Mg353 O352 2.028 . S
Mg353 O358 2.032 . S
Mg353 O360 2.079 . S
C354 O351 1.250 . S
C354 O352 1.248 . S
C355 O356 1.264 . S
C355 O363 1.249 . S
O356 C355 1.264 . S
O357 Mg350 1.986 . S
O357 C361 1.246 1_556 S
O358 Mg353 2.032 . S
O358 C361 1.259 1_556 S
O359 Mg350 2.114 . S
O359 C362 1.252 . S
O360 Mg350 2.251 . S
O360 Mg353 2.079 . S
O360 C362 1.273 . S
C361 O357 1.246 1_554 S
C361 O358 1.259 1_554 S
C362 O359 1.252 . S
C362 O360 1.273 . S
O363 Mg350 2.010 . S
O363 C355 1.249 . S
Mg364 O365 2.028 . S
Mg364 O371 1.986 . S
Mg364 O373 2.114 . S
Mg364 O374 2.251 . S
Mg364 O377 2.010 . S
O365 Mg364 2.028 . S
O365 C368 1.250 . S
O366 Mg367 2.028 . S
O366 C368 1.248 . S
Mg367 O366 2.028 . S
Mg367 O372 2.032 . S
Mg367 O374 2.079 . S
C368 O365 1.250 . S
C368 O366 1.248 . S
C369 O370 1.264 . S
C369 O377 1.249 . S
O370 C369 1.264 . S
O371 Mg364 1.986 . S
O371 C375 1.246 1_556 S
O372 Mg367 2.032 . S
O372 C375 1.259 1_556 S
O373 Mg364 2.114 . S
O373 C376 1.252 . S
O374 Mg364 2.251 . S
O374 Mg367 2.079 . S
O374 C376 1.273 . S
C375 O371 1.246 1_554 S
C375 O372 1.259 1_554 S
C376 O373 1.252 . S
C376 O374 1.273 . S
O377 Mg364 2.010 . S
O377 C369 1.249 . S
Mg378 O379 2.028 . S
Mg378 O385 1.986 . S
Mg378 O387 2.114 . S
Mg378 O388 2.251 . S
Mg378 O391 2.010 . S
O379 Mg378 2.028 . S
O379 C382 1.250 . S
O380 Mg381 2.028 . S
O380 C382 1.248 . S
Mg381 O380 2.028 . S
Mg381 O386 2.032 . S
Mg381 O388 2.079 . S
C382 O379 1.250 . S
C382 O380 1.248 . S
C383 O384 1.264 . S
C383 O391 1.249 . S
O384 C383 1.264 . S
O385 Mg378 1.986 . S
O385 C389 1.246 . S
O386 Mg381 2.032 . S
O386 C389 1.259 . S
O387 Mg378 2.114 . S
O387 C390 1.252 . S
O388 Mg378 2.251 . S
O388 Mg381 2.079 . S
O388 C390 1.273 . S
C389 O385 1.246 . S
C389 O386 1.259 . S
C390 O387 1.252 . S
C390 O388 1.273 . S
O391 Mg378 2.010 . S
O391 C383 1.249 . S
Mg392 O393 2.028 . S
Mg392 O399 1.986 . S
Mg392 O401 2.114 . S
Mg392 O402 2.251 . S
Mg392 O405 2.010 . S
O393 Mg392 2.028 . S
O393 C396 1.250 . S
O394 Mg395 2.028 . S
O394 C396 1.248 . S
Mg395 O394 2.028 . S
Mg395 O400 2.032 . S
Mg395 O402 2.079 . S
C396 O393 1.250 . S
C396 O394 1.248 . S
C397 O398 1.264 . S
C397 O405 1.249 . S
O398 C397 1.264 . S
O399 Mg392 1.986 . S
O399 C403 1.246 . S
O400 Mg395 2.032 . S
O400 C403 1.259 . S
O401 Mg392 2.114 . S
O401 C404 1.252 . S
O402 Mg392 2.251 . S
O402 Mg395 2.079 . S
O402 C404 1.273 . S
C403 O399 1.246 . S
C403 O400 1.259 . S
C404 O401 1.252 . S
C404 O402 1.273 . S
O405 Mg392 2.010 . S
O405 C397 1.249 . S
Mg406 O407 2.028 . S
Mg406 O413 1.986 . S
Mg406 O415 2.114 . S
Mg406 O416 2.251 . S
Mg406 O419 2.010 . S
O407 Mg406 2.028 . S
O407 C410 1.250 . S
O408 Mg409 2.028 . S
O408 C410 1.248 . S
Mg409 O408 2.028 . S
Mg409 O414 2.032 . S
Mg409 O416 2.079 . S
C410 O407 1.250 . S
C410 O408 1.248 . S
C411 O412 1.264 . S
C411 O419 1.249 . S
O412 C411 1.264 . S
O413 Mg406 1.986 . S
O413 C417 1.246 . S
O414 Mg409 2.032 . S
O414 C417 1.259 . S
O415 Mg406 2.114 . S
O415 C418 1.252 . S
O416 Mg406 2.251 . S
O416 Mg409 2.079 . S
O416 C418 1.273 . S
C417 O413 1.246 . S
C417 O414 1.259 . S
C418 O415 1.252 . S
C418 O416 1.273 . S
O419 Mg406 2.010 . S
O419 C411 1.249 . S
Mg420 O421 2.028 . S
Mg420 O427 1.986 . S
Mg420 O429 2.114 . S
Mg420 O430 2.251 . S
Mg420 O433 2.010 . S
O421 Mg420 2.028 . S
O421 C424 1.250 . S
O422 Mg423 2.028 . S
O422 C424 1.248 . S
Mg423 O422 2.028 . S
Mg423 O428 2.032 . S
Mg423 O430 2.079 . S
C424 O421 1.250 . S
C424 O422 1.248 . S
C425 O426 1.264 . S
C425 O433 1.249 . S
O426 C425 1.264 . S
O427 Mg420 1.986 . S
O427 C431 1.246 . S
O428 Mg423 2.032 . S
O428 C431 1.259 . S
O429 Mg420 2.114 . S
O429 C432 1.252 . S
O430 Mg420 2.251 . S
O430 Mg423 2.079 . S
O430 C432 1.273 . S
C431 O427 1.246 . S
C431 O428 1.259 . S
C432 O429 1.252 . S
C432 O430 1.273 . S
O433 Mg420 2.010 . S
O433 C425 1.249 . S
Mg434 O435 2.028 . S
Mg434 O441 1.986 . S
Mg434 O443 2.114 . S
Mg434 O444 2.251 . S
Mg434 O447 2.010 . S
O435 Mg434 2.028 . S
O435 C438 1.250 . S
O436 Mg437 2.028 . S
O436 C438 1.248 . S
Mg437 O436 2.028 . S
Mg437 O442 2.032 . S
Mg437 O444 2.079 . S
C438 O435 1.250 . S
C438 O436 1.248 . S
C439 O440 1.264 . S
C439 O447 1.249 . S
O440 C439 1.264 . S
O441 Mg434 1.986 . S
O441 C445 1.246 . S
O442 Mg437 2.032 . S
O442 C445 1.259 . S
O443 Mg434 2.114 . S
O443 C446 1.252 . S
O444 Mg434 2.251 . S
O444 Mg437 2.079 . S
O444 C446 1.273 . S
C445 O441 1.246 . S
C445 O442 1.259 . S
C446 O443 1.252 . S
C446 O444 1.273 . S
O447 Mg434 2.010 . S
O447 C439 1.249 . S
Mg448 O449 2.028 . S
Mg448 O455 1.986 . S
Mg448 O457 2.114 . S
Mg448 O458 2.251 . S
Mg448 O461 2.010 . S
O449 Mg448 2.028 . S
O449 C452 1.250 . S
O450 Mg451 2.028 . S
O450 C452 1.248 . S
Mg451 O450 2.028 . S
Mg451 O456 2.032 . S
Mg451 O458 2.079 . S
C452 O449 1.250 . S
C452 O450 1.248 . S
C453 O454 1.264 . S
C453 O461 1.249 . S
O454 C453 1.264 . S
O455 Mg448 1.986 . S
O455 C459 1.246 . S
O456 Mg451 2.032 . S
O456 C459 1.259 . S
O457 Mg448 2.114 . S
O457 C460 1.252 . S
O458 Mg448 2.251 . S
O458 Mg451 2.079 . S
O458 C460 1.273 . S
C459 O455 1.246 . S
C459 O456 1.259 . S
C460 O457 1.252 . S
C460 O458 1.273 . S
O461 Mg448 2.010 . S
O461 C453 1.249 . S
Mg462 O463 2.028 . S
Mg462 O469 1.986 . S
Mg462 O471 2.114 . S
Mg462 O472 2.251 . S
Mg462 O475 2.010 . S
O463 Mg462 2.028 . S
O463 C466 1.250 . S
O464 Mg465 2.028 . S
O464 C466 1.248 . S
Mg465 O464 2.028 . S
Mg465 O470 2.032 . S
Mg465 O472 2.079 . S
C466 O463 1.250 . S
C466 O464 1.248 . S
C467 O468 1.264 . S
C467 O475 1.249 . S
O468 C467 1.264 . S
O469 Mg462 1.986 . S
O469 C473 1.246 1_556 S
O470 Mg465 2.032 . S
O470 C473 1.259 1_556 S
O471 Mg462 2.114 . S
O471 C474 1.252 . S
O472 Mg462 2.251 . S
O472 Mg465 2.079 . S
O472 C474 1.273 . S
C473 O469 1.246 1_554 S
C473 O470 1.259 1_554 S
C474 O471 1.252 . S
C474 O472 1.273 . S
O475 Mg462 2.010 . S
O475 C467 1.249 . S
Mg476 O477 2.028 . S
Mg476 O483 1.986 . S
Mg476 O485 2.114 . S
Mg476 O486 2.251 . S
Mg476 O489 2.010 . S
O477 Mg476 2.028 . S
O477 C480 1.250 . S
O478 Mg479 2.028 . S
O478 C480 1.248 . S
Mg479 O478 2.028 . S
Mg479 O484 2.032 . S
Mg479 O486 2.079 . S
C480 O477 1.250 . S
C480 O478 1.248 . S
C481 O482 1.264 . S
C481 O489 1.249 . S
O482 C481 1.264 . S
O483 Mg476 1.986 . S
O483 C487 1.246 1_556 S
O484 Mg479 2.032 . S
O484 C487 1.259 1_556 S
O485 Mg476 2.114 . S
O485 C488 1.252 . S
O486 Mg476 2.251 . S
O486 Mg479 2.079 . S
O486 C488 1.273 . S
C487 O483 1.246 1_554 S
C487 O484 1.259 1_554 S
C488 O485 1.252 . S
C488 O486 1.273 . S
O489 Mg476 2.010 . S
O489 C481 1.249 . S
Mg490 O491 2.028 . S
Mg490 O497 1.986 . S
Mg490 O499 2.114 . S
Mg490 O500 2.251 . S
Mg490 O503 2.010 . S
O491 Mg490 2.028 . S
O491 C494 1.250 . S
O492 Mg493 2.028 . S
O492 C494 1.248 . S
Mg493 O492 2.028 . S
Mg493 O498 2.032 . S
Mg493 O500 2.079 . S
C494 O491 1.250 . S
C494 O492 1.248 . S
C495 O496 1.264 . S
C495 O503 1.249 . S
O496 C495 1.264 . S
O497 Mg490 1.986 . S
O497 C501 1.246 1_556 S
O498 Mg493 2.032 . S
O498 C501 1.259 1_556 S
O499 Mg490 2.114 . S
O499 C502 1.252 . S
O500 Mg490 2.251 . S
O500 Mg493 2.079 . S
O500 C502 1.273 . S
C501 O497 1.246 1_554 S
C501 O498 1.259 1_554 S
C502 O499 1.252 . S
C502 O500 1.273 . S
O503 Mg490 2.010 . S
O503 C495 1.249 . S
C504 C505 1.369 1_545 S
C504 C506 1.419 . S
C504 H508 0.930 . S
C505 C504 1.369 1_565 S
C505 C514 1.429 . S
C506 C504 1.419 . S
C506 C507 1.363 . S
C506 H509 0.929 . S
C507 C506 1.363 . S
C507 C513 1.428 1_545 S
H508 C504 0.930 . S
H509 C506 0.929 . S
S510 N511 1.613 . S
S510 N512 1.610 . S
N511 S510 1.613 . S
N511 C514 1.350 . S
N512 S510 1.610 . S
N512 C513 1.351 . S
C513 C507 1.428 1_565 S
C513 N512 1.351 . S
C513 C514 1.434 . S
C514 C505 1.429 . S
C514 N511 1.350 . S
C514 C513 1.434 . S
C515 C516 1.369 1_655 S
C515 C517 1.419 . S
C515 H519 0.930 . S
C516 C515 1.369 1_455 S
C516 C525 1.429 . S
C517 C515 1.419 . S
C517 C518 1.363 . S
C517 H520 0.929 . S
C518 C517 1.363 . S
C518 C524 1.428 1_655 S
H519 C515 0.930 . S
H520 C517 0.929 . S
S521 N522 1.613 . S
S521 N523 1.610 . S
N522 S521 1.613 . S
N522 C525 1.350 . S
N523 S521 1.610 . S
N523 C524 1.351 . S
C524 C518 1.428 1_455 S
C524 N523 1.351 . S
C524 C525 1.434 . S
C525 C516 1.429 . S
C525 N522 1.350 . S
C525 C524 1.434 . S
C526 C527 1.369 . S
C526 C528 1.419 . S
C526 H530 0.930 . S
C527 C526 1.369 . S
C527 C536 1.429 . S
C528 C526 1.419 . S
C528 C529 1.363 . S
C528 H531 0.929 . S
C529 C528 1.363 . S
C529 C535 1.428 . S
H530 C526 0.930 . S
H531 C528 0.929 . S
S532 N533 1.613 . S
S532 N534 1.610 . S
N533 S532 1.613 . S
N533 C536 1.350 . S
N534 S532 1.610 . S
N534 C535 1.351 . S
C535 C529 1.428 . S
C535 N534 1.351 . S
C535 C536 1.434 . S
C536 C527 1.429 . S
C536 N533 1.350 . S
C536 C535 1.434 . S
C537 C538 1.369 1_545 S
C537 C539 1.419 . S
C537 H541 0.930 . S
C538 C537 1.369 1_565 S
C538 C547 1.429 . S
C539 C537 1.419 . S
C539 C540 1.363 . S
C539 H542 0.929 . S
C540 C539 1.363 . S
C540 C546 1.428 1_545 S
H541 C537 0.930 . S
H542 C539 0.929 . S
S543 N544 1.613 . S
S543 N545 1.610 . S
N544 S543 1.613 . S
N544 C547 1.350 . S
N545 S543 1.610 . S
N545 C546 1.351 . S
C546 C540 1.428 1_565 S
C546 N545 1.351 . S
C546 C547 1.434 . S
C547 C538 1.429 . S
C547 N544 1.350 . S
C547 C546 1.434 . S
C548 C549 1.369 . S
C548 C550 1.419 . S
C548 H552 0.930 . S
C549 C548 1.369 . S
C549 C558 1.429 1_455 S
C550 C548 1.419 . S
C550 C551 1.363 1_455 S
C550 H553 0.929 . S
C551 C550 1.363 1_655 S
C551 C557 1.428 . S
H552 C548 0.930 . S
H553 C550 0.929 . S
S554 N555 1.613 . S
S554 N556 1.610 . S
N555 S554 1.613 . S
N555 C558 1.350 . S
N556 S554 1.610 . S
N556 C557 1.351 . S
C557 C551 1.428 . S
C557 N556 1.351 . S
C557 C558 1.434 . S
C558 C549 1.429 1_655 S
C558 N555 1.350 . S
C558 C557 1.434 . S
C559 C560 1.369 . S
C559 C561 1.419 . S
C559 H563 0.930 . S
C560 C559 1.369 . S
C560 C569 1.429 . S
C561 C559 1.419 . S
C561 C562 1.363 . S
C561 H564 0.929 . S
C562 C561 1.363 . S
C562 C568 1.428 . S
H563 C559 0.930 . S
H564 C561 0.929 . S
S565 N566 1.613 . S
S565 N567 1.610 . S
N566 S565 1.613 . S
N566 C569 1.350 . S
N567 S565 1.610 . S
N567 C568 1.351 . S
C568 C562 1.428 . S
C568 N567 1.351 . S
C568 C569 1.434 . S
C569 C560 1.429 . S
C569 N566 1.350 . S
C569 C568 1.434 . S
C570 C571 1.369 . S
C570 C572 1.419 . S
C570 H574 0.930 . S
C571 C570 1.369 . S
C571 C580 1.429 . S
C572 C570 1.419 . S
C572 C573 1.363 . S
C572 H575 0.929 . S
C573 C572 1.363 . S
C573 C579 1.428 . S
H574 C570 0.930 . S
H575 C572 0.929 . S
S576 N577 1.613 . S
S576 N578 1.610 . S
N577 S576 1.613 . S
N577 C580 1.350 . S
N578 S576 1.610 . S
N578 C579 1.351 . S
C579 C573 1.428 . S
C579 N578 1.351 . S
C579 C580 1.434 . S
C580 C571 1.429 . S
C580 N577 1.350 . S
C580 C579 1.434 . S
C581 C582 1.369 . S
C581 C583 1.419 . S
C581 H585 0.930 . S
C582 C581 1.369 . S
C582 C591 1.429 . S
C583 C581 1.419 . S
C583 C584 1.363 . S
C583 H586 0.929 . S
C584 C583 1.363 . S
C584 C590 1.428 . S
H585 C581 0.930 . S
H586 C583 0.929 . S
S587 N588 1.613 . S
S587 N589 1.610 . S
N588 S587 1.613 . S
N588 C591 1.350 . S
N589 S587 1.610 . S
N589 C590 1.351 . S
C590 C584 1.428 . S
C590 N589 1.351 . S
C590 C591 1.434 . S
C591 C582 1.429 . S
C591 N588 1.350 . S
C591 C590 1.434 . S
C592 C593 1.369 . S
C592 C594 1.419 . S
C592 H596 0.930 . S
C593 C592 1.369 . S
C593 C602 1.429 . S
C594 C592 1.419 . S
C594 C595 1.363 . S
C594 H597 0.929 . S
C595 C594 1.363 . S
C595 C601 1.428 . S
H596 C592 0.930 . S
H597 C594 0.929 . S
S598 N599 1.613 . S
S598 N600 1.610 . S
N599 S598 1.613 . S
N599 C602 1.350 . S
N600 S598 1.610 . S
N600 C601 1.351 . S
C601 C595 1.428 . S
C601 N600 1.351 . S
C601 C602 1.434 . S
C602 C593 1.429 . S
C602 N599 1.350 . S
C602 C601 1.434 . S
C603 C604 1.369 . S
C603 C605 1.419 . S
C603 H607 0.930 . S
C604 C603 1.369 . S
C604 C613 1.429 . S
C605 C603 1.419 . S
C605 C606 1.363 . S
C605 H608 0.929 . S
C606 C605 1.363 . S
C606 C612 1.428 . S
H607 C603 0.930 . S
H608 C605 0.929 . S
S609 N610 1.613 . S
S609 N611 1.610 . S
N610 S609 1.613 . S
N610 C613 1.350 . S
N611 S609 1.610 . S
N611 C612 1.351 . S
C612 C606 1.428 . S
C612 N611 1.351 . S
C612 C613 1.434 . S
C613 C604 1.429 . S
C613 N610 1.350 . S
C613 C612 1.434 . S
C614 C615 1.369 . S
C614 C616 1.419 . S
C614 H618 0.930 . S
C615 C614 1.369 . S
C615 C624 1.429 . S
C616 C614 1.419 . S
C616 C617 1.363 . S
C616 H619 0.929 . S
C617 C616 1.363 . S
C617 C623 1.428 . S
H618 C614 0.930 . S
H619 C616 0.929 . S
S620 N621 1.613 . S
S620 N622 1.610 . S
N621 S620 1.613 . S
N621 C624 1.350 . S
N622 S620 1.610 . S
N622 C623 1.351 . S
C623 C617 1.428 . S
C623 N622 1.351 . S
C623 C624 1.434 . S
C624 C615 1.429 . S
C624 N621 1.350 . S
C624 C623 1.434 . S
C625 C626 1.369 . S
C625 C627 1.419 . S
C625 H629 0.930 . S
C626 C625 1.369 . S
C626 C635 1.429 . S
C627 C625 1.419 . S
C627 C628 1.363 . S
C627 H630 0.929 . S
C628 C627 1.363 . S
C628 C634 1.428 . S
H629 C625 0.930 . S
H630 C627 0.929 . S
S631 N632 1.613 . S
S631 N633 1.610 . S
N632 S631 1.613 . S
N632 C635 1.350 . S
N633 S631 1.610 . S
N633 C634 1.351 . S
C634 C628 1.428 . S
C634 N633 1.351 . S
C634 C635 1.434 . S
C635 C626 1.429 . S
C635 N632 1.350 . S
C635 C634 1.434 . S
C636 C637 1.369 . S
C636 C638 1.419 . S
C636 H640 0.930 . S
C637 C636 1.369 . S
C637 C646 1.429 . S
C638 C636 1.419 . S
C638 C639 1.363 . S
C638 H641 0.929 . S
C639 C638 1.363 . S
C639 C645 1.428 . S
H640 C636 0.930 . S
H641 C638 0.929 . S
S642 N643 1.613 . S
S642 N644 1.610 . S
N643 S642 1.613 . S
N643 C646 1.350 . S
N644 S642 1.610 . S
N644 C645 1.351 . S
C645 C639 1.428 . S
C645 N644 1.351 . S
C645 C646 1.434 . S
C646 C637 1.429 . S
C646 N643 1.350 . S
C646 C645 1.434 . S
C647 C648 1.369 . S
C647 C649 1.419 . S
C647 H651 0.930 . S
C648 C647 1.369 . S
C648 C657 1.429 . S
C649 C647 1.419 . S
C649 C650 1.363 . S
C649 H652 0.929 . S
C650 C649 1.363 . S
C650 C656 1.428 . S
H651 C647 0.930 . S
H652 C649 0.929 . S
S653 N654 1.613 . S
S653 N655 1.610 . S
N654 S653 1.613 . S
N654 C657 1.350 . S
N655 S653 1.610 . S
N655 C656 1.351 . S
C656 C650 1.428 . S
C656 N655 1.351 . S
C656 C657 1.434 . S
C657 C648 1.429 . S
C657 N654 1.350 . S
C657 C656 1.434 . S
C658 C659 1.369 . S
C658 C660 1.419 . S
C658 H662 0.930 . S
C659 C658 1.369 . S
C659 C668 1.429 . S
C660 C658 1.419 . S
C660 C661 1.363 . S
C660 H663 0.929 . S
C661 C660 1.363 . S
C661 C667 1.428 . S
H662 C658 0.930 . S
H663 C660 0.929 . S
S664 N665 1.613 . S
S664 N666 1.610 . S
N665 S664 1.613 . S
N665 C668 1.350 . S
N666 S664 1.610 . S
N666 C667 1.351 . S
C667 C661 1.428 . S
C667 N666 1.351 . S
C667 C668 1.434 . S
C668 C659 1.429 . S
C668 N665 1.350 . S
C668 C667 1.434 . S
C669 C670 1.369 . S
C669 C671 1.419 . S
C669 H673 0.930 . S
C670 C669 1.369 . S
C670 C679 1.429 . S
C671 C669 1.419 . S
C671 C672 1.363 . S
C671 H674 0.929 . S
C672 C671 1.363 . S
C672 C678 1.428 . S
H673 C669 0.930 . S
H674 C671 0.929 . S
S675 N676 1.613 . S
S675 N677 1.610 . S
N676 S675 1.613 . S
N676 C679 1.350 . S
N677 S675 1.610 . S
N677 C678 1.351 . S
C678 C672 1.428 . S
C678 N677 1.351 . S
C678 C679 1.434 . S
C679 C670 1.429 . S
C679 N676 1.350 . S
C679 C678 1.434 . S
C680 C681 1.369 . S
C680 C682 1.419 . S
C680 H684 0.930 . S
C681 C680 1.369 . S
C681 C690 1.429 . S
C682 C680 1.419 . S
C682 C683 1.363 . S
C682 H685 0.929 . S
C683 C682 1.363 . S
C683 C689 1.428 . S
H684 C680 0.930 . S
H685 C682 0.929 . S
S686 N687 1.613 . S
S686 N688 1.610 . S
N687 S686 1.613 . S
N687 C690 1.350 . S
N688 S686 1.610 . S
N688 C689 1.351 . S
C689 C683 1.428 . S
C689 N688 1.351 . S
C689 C690 1.434 . S
C690 C681 1.429 . S
C690 N687 1.350 . S
C690 C689 1.434 . S
C691 C692 1.369 . S
C691 C693 1.419 . S
C691 H695 0.930 . S
C692 C691 1.369 . S
C692 C701 1.429 . S
C693 C691 1.419 . S
C693 C694 1.363 . S
C693 H696 0.929 . S
C694 C693 1.363 . S
C694 C700 1.428 . S
H695 C691 0.930 . S
H696 C693 0.929 . S
S697 N698 1.613 . S
S697 N699 1.610 . S
N698 S697 1.613 . S
N698 C701 1.350 . S
N699 S697 1.610 . S
N699 C700 1.351 . S
C700 C694 1.428 . S
C700 N699 1.351 . S
C700 C701 1.434 . S
C701 C692 1.429 . S
C701 N698 1.350 . S
C701 C700 1.434 . S
C702 C703 1.369 1_545 S
C702 C704 1.419 1_556 S
C702 H706 0.930 . S
C703 C702 1.369 1_565 S
C703 C712 1.429 . S
C704 C702 1.419 1_554 S
C704 C705 1.363 . S
C704 H707 0.929 . S
C705 C704 1.363 . S
C705 C711 1.428 1_545 S
H706 C702 0.930 . S
H707 C704 0.929 . S
S708 N709 1.613 1_554 S
S708 N710 1.610 . S
N709 S708 1.613 1_556 S
N709 C712 1.350 . S
N710 S708 1.610 . S
N710 C711 1.351 . S
C711 C705 1.428 1_565 S
C711 N710 1.351 . S
C711 C712 1.434 1_554 S
C712 C703 1.429 . S
C712 N709 1.350 . S
C712 C711 1.434 1_556 S
C713 C714 1.369 . S
C713 C715 1.419 1_554 S
C713 H717 0.930 . S
C714 C713 1.369 . S
C714 C723 1.429 1_655 S
C715 C713 1.419 1_556 S
C715 C716 1.363 1_655 S
C715 H718 0.929 . S
C716 C715 1.363 1_455 S
C716 C722 1.433 . S
H717 C713 0.930 . S
H718 C715 0.929 . S
S719 N720 1.613 . S
S719 N721 1.610 . S
N720 S719 1.613 . S
N720 C723 1.350 . S
N721 S719 1.610 . S
N721 C722 1.350 1_554 S
C722 C716 1.433 . S
C722 N721 1.350 1_556 S
C722 C723 1.429 1_556 S
C723 C714 1.429 1_455 S
C723 N720 1.350 . S
C723 C722 1.429 1_554 S
C724 C725 1.369 . S
C724 C726 1.419 1_556 S
C724 H728 0.930 . S
C725 C724 1.369 . S
C725 C734 1.429 . S
C726 C724 1.419 1_554 S
C726 C727 1.363 . S
C726 H729 0.929 . S
C727 C726 1.363 . S
C727 C733 1.428 . S
H728 C724 0.930 . S
H729 C726 0.929 . S
S730 N731 1.613 . S
S730 N732 1.610 . S
N731 S730 1.613 . S
N731 C734 1.350 . S
N732 S730 1.610 . S
N732 C733 1.351 1_556 S
C733 C727 1.428 . S
C733 N732 1.351 1_554 S
C733 C734 1.434 1_554 S
C734 C725 1.429 . S
C734 N731 1.350 . S
C734 C733 1.434 1_556 S
C735 C736 1.369 1_545 S
C735 C737 1.419 1_556 S
C735 H739 0.930 . S
C736 C735 1.369 1_565 S
C736 C745 1.429 . S
C737 C735 1.419 1_554 S
C737 C738 1.363 . S
C737 H740 0.929 . S
C738 C737 1.363 . S
C738 C744 1.428 1_545 S
H739 C735 0.930 . S
H740 C737 0.929 . S
S741 N742 1.613 1_554 S
S741 N743 1.610 . S
N742 S741 1.613 1_556 S
N742 C745 1.350 . S
N743 S741 1.610 . S
N743 C744 1.351 . S
C744 C738 1.428 1_565 S
C744 N743 1.351 . S
C744 C745 1.434 1_554 S
C745 C736 1.429 . S
C745 N742 1.350 . S
C745 C744 1.434 1_556 S
C746 C747 1.369 . S
C746 C748 1.409 1_456 S
C746 H750 0.930 . S
C747 C746 1.369 . S
C747 C756 1.425 1_455 S
C748 C746 1.409 1_654 S
C748 C749 1.366 . S
C748 H751 0.937 . S
C749 C748 1.366 . S
C749 C755 1.428 . S
H750 C746 0.930 . S
H751 C748 0.937 . S
S752 N753 1.613 . S
S752 N754 1.610 1_556 S
N753 S752 1.613 . S
N753 C756 1.339 . S
N754 S752 1.610 1_554 S
N754 C755 1.351 . S
C755 C749 1.428 . S
C755 N754 1.351 . S
C755 C756 1.452 1_554 S
C756 C747 1.425 1_655 S
C756 N753 1.339 . S
C756 C755 1.452 1_556 S
C757 C758 1.369 . S
C757 C759 1.419 1_554 S
C757 H761 0.930 . S
C758 C757 1.369 . S
C758 C767 1.429 . S
C759 C757 1.419 1_556 S
C759 C760 1.363 . S
C759 H762 0.929 . S
C760 C759 1.363 . S
C760 C766 1.428 . S
H761 C757 0.930 . S
H762 C759 0.929 . S
S763 N764 1.613 . S
S763 N765 1.610 1_554 S
N764 S763 1.613 . S
N764 C767 1.350 . S
N765 S763 1.610 1_556 S
N765 C766 1.351 . S
C766 C760 1.428 . S
C766 N765 1.351 . S
C766 C767 1.434 1_556 S
C767 C758 1.429 . S
C767 N764 1.350 . S
C767 C766 1.434 1_554 S
C768 C769 1.369 . S
C768 C770 1.419 . S
C768 H772 0.930 . S
C769 C768 1.369 . S
C769 C778 1.429 . S
C770 C768 1.419 . S
C770 C771 1.363 . S
C770 H773 0.929 . S
C771 C770 1.363 . S
C771 C777 1.428 . S
H772 C768 0.930 . S
H773 C770 0.929 . S
S774 N775 1.613 . S
S774 N776 1.610 . S
N775 S774 1.613 . S
N775 C778 1.350 . S
N776 S774 1.610 . S
N776 C777 1.351 . S
C777 C771 1.428 . S
C777 N776 1.351 . S
C777 C778 1.434 . S
C778 C769 1.429 . S
C778 N775 1.350 . S
C778 C777 1.434 . S
C779 C780 1.369 . S
C779 C781 1.419 . S
C779 H783 0.930 . S
C780 C779 1.369 . S
C780 C789 1.429 . S
C781 C779 1.419 . S
C781 C782 1.363 . S
C781 H784 0.929 . S
C782 C781 1.363 . S
C782 C788 1.428 . S
H783 C779 0.930 . S
H784 C781 0.929 . S
S785 N786 1.613 . S
S785 N787 1.610 . S
N786 S785 1.613 . S
N786 C789 1.350 . S
N787 S785 1.610 . S
N787 C788 1.351 . S
C788 C782 1.428 . S
C788 N787 1.351 . S
C788 C789 1.434 . S
C789 C780 1.429 . S
C789 N786 1.350 . S
C789 C788 1.434 . S
C790 C791 1.369 . S
C790 C792 1.419 . S
C790 H794 0.930 . S
C791 C790 1.369 . S
C791 C800 1.429 . S
C792 C790 1.419 . S
C792 C793 1.363 . S
C792 H795 0.929 . S
C793 C792 1.363 . S
C793 C799 1.428 . S
H794 C790 0.930 . S
H795 C792 0.929 . S
S796 N797 1.613 . S
S796 N798 1.610 . S
N797 S796 1.613 . S
N797 C800 1.350 . S
N798 S796 1.610 . S
N798 C799 1.351 . S
C799 C793 1.428 . S
C799 N798 1.351 . S
C799 C800 1.434 . S
C800 C791 1.429 . S
C800 N797 1.350 . S
C800 C799 1.434 . S
C801 C802 1.369 . S
C801 C803 1.419 . S
C801 H805 0.930 . S
C802 C801 1.369 . S
C802 C811 1.429 . S
C803 C801 1.419 . S
C803 C804 1.363 . S
C803 H806 0.929 . S
C804 C803 1.363 . S
C804 C810 1.428 . S
H805 C801 0.930 . S
H806 C803 0.929 . S
S807 N808 1.613 . S
S807 N809 1.610 . S
N808 S807 1.613 . S
N808 C811 1.350 . S
N809 S807 1.610 . S
N809 C810 1.351 . S
C810 C804 1.428 . S
C810 N809 1.351 . S
C810 C811 1.434 . S
C811 C802 1.429 . S
C811 N808 1.350 . S
C811 C810 1.434 . S
C812 C813 1.369 . S
C812 C814 1.419 . S
C812 H816 0.930 . S
C813 C812 1.369 . S
C813 C822 1.429 . S
C814 C812 1.419 . S
C814 C815 1.363 . S
C814 H817 0.929 . S
C815 C814 1.363 . S
C815 C821 1.428 . S
H816 C812 0.930 . S
H817 C814 0.929 . S
S818 N819 1.613 . S
S818 N820 1.610 . S
N819 S818 1.613 . S
N819 C822 1.350 . S
N820 S818 1.610 . S
N820 C821 1.351 . S
C821 C815 1.428 . S
C821 N820 1.351 . S
C821 C822 1.434 . S
C822 C813 1.429 . S
C822 N819 1.350 . S
C822 C821 1.434 . S
C823 C824 1.369 . S
C823 C825 1.419 . S
C823 H827 0.930 . S
C824 C823 1.369 . S
C824 C833 1.429 . S
C825 C823 1.419 . S
C825 C826 1.363 . S
C825 H828 0.929 . S
C826 C825 1.363 . S
C826 C832 1.428 . S
H827 C823 0.930 . S
H828 C825 0.929 . S
S829 N830 1.613 . S
S829 N831 1.610 . S
N830 S829 1.613 . S
N830 C833 1.350 . S
N831 S829 1.610 . S
N831 C832 1.351 . S
C832 C826 1.428 . S
C832 N831 1.351 . S
C832 C833 1.434 . S
C833 C824 1.429 . S
C833 N830 1.350 . S
C833 C832 1.434 . S
C834 C835 1.369 . S
C834 C836 1.419 . S
C834 H838 0.930 . S
C835 C834 1.369 . S
C835 C844 1.429 . S
C836 C834 1.419 . S
C836 C837 1.363 . S
C836 H839 0.929 . S
C837 C836 1.363 . S
C837 C843 1.428 . S
H838 C834 0.930 . S
H839 C836 0.929 . S
S840 N841 1.613 . S
S840 N842 1.610 . S
N841 S840 1.613 . S
N841 C844 1.350 . S
N842 S840 1.610 . S
N842 C843 1.351 . S
C843 C837 1.428 . S
C843 N842 1.351 . S
C843 C844 1.434 . S
C844 C835 1.429 . S
C844 N841 1.350 . S
C844 C843 1.434 . S
C845 C846 1.369 . S
C845 C847 1.419 . S
C845 H849 0.930 . S
C846 C845 1.369 . S
C846 C855 1.429 . S
C847 C845 1.419 . S
C847 C848 1.363 . S
C847 H850 0.929 . S
C848 C847 1.363 . S
C848 C854 1.428 . S
H849 C845 0.930 . S
H850 C847 0.929 . S
S851 N852 1.613 . S
S851 N853 1.610 . S
N852 S851 1.613 . S
N852 C855 1.350 . S
N853 S851 1.610 . S
N853 C854 1.351 . S
C854 C848 1.428 . S
C854 N853 1.351 . S
C854 C855 1.434 . S
C855 C846 1.429 . S
C855 N852 1.350 . S
C855 C854 1.434 . S
C856 C857 1.369 . S
C856 C858 1.419 . S
C856 H860 0.930 . S
C857 C856 1.369 . S
C857 C866 1.429 . S
C858 C856 1.419 . S
C858 C859 1.363 . S
C858 H861 0.929 . S
C859 C858 1.363 . S
C859 C865 1.428 . S
H860 C856 0.930 . S
H861 C858 0.929 . S
S862 N863 1.613 . S
S862 N864 1.610 . S
N863 S862 1.613 . S
N863 C866 1.350 . S
N864 S862 1.610 . S
N864 C865 1.351 . S
C865 C859 1.428 . S
C865 N864 1.351 . S
C865 C866 1.434 . S
C866 C857 1.429 . S
C866 N863 1.350 . S
C866 C865 1.434 . S
C867 C868 1.369 . S
C867 C869 1.419 . S
C867 H871 0.930 . S
C868 C867 1.369 . S
C868 C877 1.429 . S
C869 C867 1.419 . S
C869 C870 1.363 . S
C869 H872 0.929 . S
C870 C869 1.363 . S
C870 C876 1.428 . S
H871 C867 0.930 . S
H872 C869 0.929 . S
S873 N874 1.613 . S
S873 N875 1.610 . S
N874 S873 1.613 . S
N874 C877 1.350 . S
N875 S873 1.610 . S
N875 C876 1.351 . S
C876 C870 1.428 . S
C876 N875 1.351 . S
C876 C877 1.434 . S
C877 C868 1.429 . S
C877 N874 1.350 . S
C877 C876 1.434 . S
C878 C879 1.369 . S
C878 C880 1.419 . S
C878 H882 0.930 . S
C879 C878 1.369 . S
C879 C888 1.429 . S
C880 C878 1.419 . S
C880 C881 1.363 . S
C880 H883 0.929 . S
C881 C880 1.363 . S
C881 C887 1.428 . S
H882 C878 0.930 . S
H883 C880 0.929 . S
S884 N885 1.613 . S
S884 N886 1.610 . S
N885 S884 1.613 . S
N885 C888 1.350 . S
N886 S884 1.610 . S
N886 C887 1.351 . S
C887 C881 1.428 . S
C887 N886 1.351 . S
C887 C888 1.434 . S
C888 C879 1.429 . S
C888 N885 1.350 . S
C888 C887 1.434 . S
C889 C890 1.369 . S
C889 C891 1.419 . S
C889 H893 0.930 . S
C890 C889 1.369 . S
C890 C899 1.429 . S
C891 C889 1.419 . S
C891 C892 1.363 . S
C891 H894 0.929 . S
C892 C891 1.363 . S
C892 C898 1.428 . S
H893 C889 0.930 . S
H894 C891 0.929 . S
S895 N896 1.613 . S
S895 N897 1.610 . S
N896 S895 1.613 . S
N896 C899 1.350 . S
N897 S895 1.610 . S
N897 C898 1.351 . S
C898 C892 1.428 . S
C898 N897 1.351 . S
C898 C899 1.434 . S
C899 C890 1.429 . S
C899 N896 1.350 . S
C899 C898 1.434 . S
C900 C901 1.369 . S
C900 C902 1.419 . S
C900 H904 0.930 . S
C901 C900 1.369 . S
C901 C910 1.429 . S
C902 C900 1.419 . S
C902 C903 1.363 . S
C902 H905 0.929 . S
C903 C902 1.363 . S
C903 C909 1.428 . S
H904 C900 0.930 . S
H905 C902 0.929 . S
S906 N907 1.613 . S
S906 N908 1.610 . S
N907 S906 1.613 . S
N907 C910 1.350 . S
N908 S906 1.610 . S
N908 C909 1.351 . S
C909 C903 1.428 . S
C909 N908 1.351 . S
C909 C910 1.434 . S
C910 C901 1.429 . S
C910 N907 1.350 . S
C910 C909 1.434 . S
C911 C912 1.369 . S
C911 C913 1.419 . S
C911 H915 0.930 . S
C912 C911 1.369 . S
C912 C921 1.429 . S
C913 C911 1.419 . S
C913 C914 1.363 . S
C913 H916 0.929 . S
C914 C913 1.363 . S
C914 C920 1.428 . S
H915 C911 0.930 . S
H916 C913 0.929 . S
S917 N918 1.613 . S
S917 N919 1.610 . S
N918 S917 1.613 . S
N918 C921 1.350 . S
N919 S917 1.610 . S
N919 C920 1.351 . S
C920 C914 1.428 . S
C920 N919 1.351 . S
C920 C921 1.434 . S
C921 C912 1.429 . S
C921 N918 1.350 . S
C921 C920 1.434 . S
C922 C923 1.369 . S
C922 C924 1.419 . S
C922 H926 0.930 . S
C923 C922 1.369 . S
C923 C932 1.429 . S
C924 C922 1.419 . S
C924 C925 1.363 . S
C924 H927 0.929 . S
C925 C924 1.363 . S
C925 C931 1.428 . S
H926 C922 0.930 . S
H927 C924 0.929 . S
S928 N929 1.613 1_556 S
S928 N930 1.610 1_556 S
N929 S928 1.613 1_554 S
N929 C932 1.350 . S
N930 S928 1.610 1_554 S
N930 C931 1.351 . S
C931 C925 1.428 . S
C931 N930 1.351 . S
C931 C932 1.434 . S
C932 C923 1.429 . S
C932 N929 1.350 . S
C932 C931 1.434 . S
C933 C934 1.369 . S
C933 C935 1.419 . S
C933 H937 0.930 . S
C934 C933 1.369 . S
C934 C943 1.429 . S
C935 C933 1.419 . S
C935 C936 1.363 . S
C935 H938 0.929 . S
C936 C935 1.363 . S
C936 C942 1.428 . S
H937 C933 0.930 . S
H938 C935 0.929 . S
S939 N940 1.613 . S
S939 N941 1.610 . S
N940 S939 1.613 . S
N940 C943 1.350 . S
N941 S939 1.610 . S
N941 C942 1.351 . S
C942 C936 1.428 . S
C942 N941 1.351 . S
C942 C943 1.434 . S
C943 C934 1.429 . S
C943 N940 1.350 . S
C943 C942 1.434 . S
C944 C945 1.369 . S
C944 C946 1.419 . S
C944 H948 0.930 . S
C945 C944 1.369 . S
C945 C954 1.429 . S
C946 C944 1.419 . S
C946 C947 1.363 . S
C946 H949 0.929 . S
C947 C946 1.363 . S
C947 C953 1.428 . S
H948 C944 0.930 . S
H949 C946 0.929 . S
S950 N951 1.613 1_554 S
S950 N952 1.610 1_554 S
N951 S950 1.613 1_556 S
N951 C954 1.350 . S
N952 S950 1.610 1_556 S
N952 C953 1.351 . S
C953 C947 1.428 . S
C953 N952 1.351 . S
C953 C954 1.434 . S
C954 C945 1.429 . S
C954 N951 1.350 . S
C954 C953 1.434 . S
C955 C956 1.369 . S
C955 C957 1.419 . S
C955 H959 0.930 . S
C956 C955 1.369 . S
C956 C965 1.429 . S
C957 C955 1.419 . S
C957 C958 1.363 . S
C957 H960 0.929 . S
C958 C957 1.363 . S
C958 C964 1.428 . S
H959 C955 0.930 . S
H960 C957 0.929 . S
S961 N962 1.613 . S
S961 N963 1.610 . S
N962 S961 1.613 . S
N962 C965 1.350 . S
N963 S961 1.610 . S
N963 C964 1.351 . S
C964 C958 1.428 . S
C964 N963 1.351 . S
C964 C965 1.434 . S
C965 C956 1.429 . S
C965 N962 1.350 . S
C965 C964 1.434 . S
C966 C967 1.369 . S
C966 C968 1.419 . S
C966 H970 0.930 . S
C967 C966 1.369 . S
C967 C976 1.429 . S
C968 C966 1.419 . S
C968 C969 1.363 . S
C968 H971 0.929 . S
C969 C968 1.363 . S
C969 C975 1.428 . S
H970 C966 0.930 . S
H971 C968 0.929 . S
S972 N973 1.613 . S
S972 N974 1.610 . S
N973 S972 1.613 . S
N973 C976 1.350 . S
N974 S972 1.610 . S
N974 C975 1.351 . S
C975 C969 1.428 . S
C975 N974 1.351 . S
C975 C976 1.434 . S
C976 C967 1.429 . S
C976 N973 1.350 . S
C976 C975 1.434 . S
C977 C978 1.369 . S
C977 C979 1.419 . S
C977 H981 0.930 . S
C978 C977 1.369 . S
C978 C987 1.429 . S
C979 C977 1.419 . S
C979 C980 1.363 . S
C979 H982 0.929 . S
C980 C979 1.363 . S
C980 C986 1.428 . S
H981 C977 0.930 . S
H982 C979 0.929 . S
S983 N984 1.613 . S
S983 N985 1.610 . S
N984 S983 1.613 . S
N984 C987 1.350 . S
N985 S983 1.610 . S
N985 C986 1.351 . S
C986 C980 1.428 . S
C986 N985 1.351 . S
C986 C987 1.434 . S
C987 C978 1.429 . S
C987 N984 1.350 . S
C987 C986 1.434 . S
C988 C989 1.369 . S
C988 C990 1.419 . S
C988 H992 0.930 . S
C989 C988 1.369 . S
C989 C998 1.429 . S
C990 C988 1.419 . S
C990 C991 1.363 . S
C990 H993 0.929 . S
C991 C990 1.363 . S
C991 C997 1.428 . S
H992 C988 0.930 . S
H993 C990 0.929 . S
S994 N995 1.613 . S
S994 N996 1.610 . S
N995 S994 1.613 . S
N995 C998 1.350 . S
N996 S994 1.610 . S
N996 C997 1.351 . S
C997 C991 1.428 . S
C997 N996 1.351 . S
C997 C998 1.434 . S
C998 C989 1.429 . S
C998 N995 1.350 . S
C998 C997 1.434 . S
C999 C1000 1.369 . S
C999 C1001 1.419 . S
C999 H1003 0.930 . S
C1000 C999 1.369 . S
C1000 C1009 1.429 . S
C1001 C999 1.419 . S
C1001 C1002 1.363 . S
C1001 H1004 0.929 . S
C1002 C1001 1.363 . S
C1002 C1008 1.428 . S
H1003 C999 0.930 . S
H1004 C1001 0.929 . S
S1005 N1006 1.613 . S
S1005 N1007 1.610 . S
N1006 S1005 1.613 . S
N1006 C1009 1.350 . S
N1007 S1005 1.610 . S
N1007 C1008 1.351 . S
C1008 C1002 1.428 . S
C1008 N1007 1.351 . S
C1008 C1009 1.434 . S
C1009 C1000 1.429 . S
C1009 N1006 1.350 . S
C1009 C1008 1.434 . S
C1010 C1011 1.369 . S
C1010 C1012 1.419 . S
C1010 H1014 0.930 . S
C1011 C1010 1.369 . S
C1011 C1020 1.429 . S
C1012 C1010 1.419 . S
C1012 C1013 1.363 . S
C1012 H1015 0.929 . S
C1013 C1012 1.363 . S
C1013 C1019 1.428 . S
H1014 C1010 0.930 . S
H1015 C1012 0.929 . S
S1016 N1017 1.613 1_556 S
S1016 N1018 1.610 1_556 S
N1017 S1016 1.613 1_554 S
N1017 C1020 1.350 . S
N1018 S1016 1.610 1_554 S
N1018 C1019 1.351 . S
C1019 C1013 1.428 . S
C1019 N1018 1.351 . S
C1019 C1020 1.434 . S
C1020 C1011 1.429 . S
C1020 N1017 1.350 . S
C1020 C1019 1.434 . S
C1021 C1022 1.369 . S
C1021 C1023 1.419 . S
C1021 H1025 0.930 . S
C1022 C1021 1.369 . S
C1022 C1031 1.429 . S
C1023 C1021 1.419 . S
C1023 C1024 1.363 . S
C1023 H1026 0.929 . S
C1024 C1023 1.363 . S
C1024 C1030 1.428 . S
H1025 C1021 0.930 . S
H1026 C1023 0.929 . S
S1027 N1028 1.613 . S
S1027 N1029 1.610 . S
N1028 S1027 1.613 . S
N1028 C1031 1.350 . S
N1029 S1027 1.610 . S
N1029 C1030 1.351 . S
C1030 C1024 1.428 . S
C1030 N1029 1.351 . S
C1030 C1031 1.434 . S
C1031 C1022 1.429 . S
C1031 N1028 1.350 . S
C1031 C1030 1.434 . S
C1032 C1033 1.369 . S
C1032 C1034 1.419 1_455 S
C1032 H1036 0.930 . S
C1033 C1032 1.369 . S
C1033 C1042 1.429 . S
C1034 C1032 1.419 1_655 S
C1034 C1035 1.363 . S
C1034 H1037 0.929 . S
C1035 C1034 1.363 . S
C1035 C1041 1.428 . S
H1036 C1032 0.930 . S
H1037 C1034 0.929 . S
S1038 N1039 1.613 . S
S1038 N1040 1.610 1_455 S
N1039 S1038 1.613 . S
N1039 C1042 1.350 . S
N1040 S1038 1.610 1_655 S
N1040 C1041 1.351 . S
C1041 C1035 1.428 . S
C1041 N1040 1.351 . S
C1041 C1042 1.434 1_655 S
C1042 C1033 1.429 . S
C1042 N1039 1.350 . S
C1042 C1041 1.434 1_455 S
C1043 C1044 1.369 . S
C1043 C1045 1.419 . S
C1043 H1047 0.930 . S
C1044 C1043 1.369 . S
C1044 C1053 1.429 . S
C1045 C1043 1.419 . S
C1045 C1046 1.363 . S
C1045 H1048 0.929 . S
C1046 C1045 1.363 . S
C1046 C1052 1.428 . S
H1047 C1043 0.930 . S
H1048 C1045 0.929 . S
S1049 N1050 1.613 . S
S1049 N1051 1.610 . S
N1050 S1049 1.613 . S
N1050 C1053 1.350 . S
N1051 S1049 1.610 . S
N1051 C1052 1.351 . S
C1052 C1046 1.428 . S
C1052 N1051 1.351 . S
C1052 C1053 1.434 . S
C1053 C1044 1.429 . S
C1053 N1050 1.350 . S
C1053 C1052 1.434 . S
C1054 C1055 1.369 . S
C1054 C1056 1.419 1_545 S
C1054 H1058 0.930 . S
C1055 C1054 1.369 . S
C1055 C1064 1.429 . S
C1056 C1054 1.419 1_565 S
C1056 C1057 1.363 . S
C1056 H1059 0.929 . S
C1057 C1056 1.363 . S
C1057 C1063 1.428 . S
H1058 C1054 0.930 . S
H1059 C1056 0.929 . S
S1060 N1061 1.613 . S
S1060 N1062 1.610 1_545 S
N1061 S1060 1.613 . S
N1061 C1064 1.350 . S
N1062 S1060 1.610 1_565 S
N1062 C1063 1.351 . S
C1063 C1057 1.428 . S
C1063 N1062 1.351 . S
C1063 C1064 1.434 1_565 S
C1064 C1055 1.429 . S
C1064 N1061 1.350 . S
C1064 C1063 1.434 1_545 S
C1065 C1066 1.369 . S
C1065 C1067 1.419 1_545 S
C1065 H1069 0.930 . S
C1066 C1065 1.369 . S
C1066 C1075 1.429 . S
C1067 C1065 1.419 1_565 S
C1067 C1068 1.363 . S
C1067 H1070 0.929 . S
C1068 C1067 1.363 . S
C1068 C1074 1.428 . S
H1069 C1065 0.930 . S
H1070 C1067 0.929 . S
S1071 N1072 1.613 1_565 S
S1071 N1073 1.610 . S
N1072 S1071 1.613 1_545 S
N1072 C1075 1.350 . S
N1073 S1071 1.610 . S
N1073 C1074 1.351 . S
C1074 C1068 1.428 . S
C1074 N1073 1.351 . S
C1074 C1075 1.434 1_565 S
C1075 C1066 1.429 . S
C1075 N1072 1.350 . S
C1075 C1074 1.434 1_545 S
C1076 C1077 1.369 . S
C1076 C1078 1.419 1_655 S
C1076 H1080 0.930 . S
C1077 C1076 1.369 . S
C1077 C1086 1.429 . S
C1078 C1076 1.419 1_455 S
C1078 C1079 1.363 . S
C1078 H1081 0.929 . S
C1079 C1078 1.363 . S
C1079 C1085 1.428 . S
H1080 C1076 0.930 . S
H1081 C1078 0.929 . S
S1082 N1083 1.613 1_455 S
S1082 N1084 1.610 . S
N1083 S1082 1.613 1_655 S
N1083 C1086 1.350 . S
N1084 S1082 1.610 . S
N1084 C1085 1.351 . S
C1085 C1079 1.428 . S
C1085 N1084 1.351 . S
C1085 C1086 1.434 1_455 S
C1086 C1077 1.429 . S
C1086 N1083 1.350 . S
C1086 C1085 1.434 1_655 S
C1087 C1088 1.369 . S
C1087 C1089 1.419 . S
C1087 H1091 0.930 . S
C1088 C1087 1.369 . S
C1088 C1097 1.429 . S
C1089 C1087 1.419 . S
C1089 C1090 1.363 . S
C1089 H1092 0.929 . S
C1090 C1089 1.363 . S
C1090 C1096 1.428 . S
H1091 C1087 0.930 . S
H1092 C1089 0.929 . S
S1093 N1094 1.613 . S
S1093 N1095 1.610 . S
N1094 S1093 1.613 . S
N1094 C1097 1.350 . S
N1095 S1093 1.610 . S
N1095 C1096 1.351 . S
C1096 C1090 1.428 . S
C1096 N1095 1.351 . S
C1096 C1097 1.434 . S
C1097 C1088 1.429 . S
C1097 N1094 1.350 . S
C1097 C1096 1.434 . S
C1098 C1099 1.369 . S
C1098 C1100 1.419 . S
C1098 H1102 0.930 . S
C1099 C1098 1.369 . S
C1099 C1108 1.429 . S
C1100 C1098 1.419 . S
C1100 C1101 1.363 . S
C1100 H1103 0.929 . S
C1101 C1100 1.363 . S
C1101 C1107 1.428 . S
H1102 C1098 0.930 . S
H1103 C1100 0.929 . S
S1104 N1105 1.613 . S
S1104 N1106 1.610 . S
N1105 S1104 1.613 . S
N1105 C1108 1.350 . S
N1106 S1104 1.610 . S
N1106 C1107 1.351 . S
C1107 C1101 1.428 . S
C1107 N1106 1.351 . S
C1107 C1108 1.434 . S
C1108 C1099 1.429 . S
C1108 N1105 1.350 . S
C1108 C1107 1.434 . S
C1109 C1110 1.369 . S
C1109 C1111 1.419 . S
C1109 H1113 0.930 . S
C1110 C1109 1.369 . S
C1110 C1119 1.429 . S
C1111 C1109 1.419 . S
C1111 C1112 1.363 . S
C1111 H1114 0.929 . S
C1112 C1111 1.363 . S
C1112 C1118 1.428 . S
H1113 C1109 0.930 . S
H1114 C1111 0.929 . S
S1115 N1116 1.613 . S
S1115 N1117 1.610 . S
N1116 S1115 1.613 . S
N1116 C1119 1.350 . S
N1117 S1115 1.610 . S
N1117 C1118 1.351 . S
C1118 C1112 1.428 . S
C1118 N1117 1.351 . S
C1118 C1119 1.434 . S
C1119 C1110 1.429 . S
C1119 N1116 1.350 . S
C1119 C1118 1.434 . S
C1120 C1121 1.369 . S
C1120 C1122 1.419 . S
C1120 H1124 0.930 . S
C1121 C1120 1.369 . S
C1121 C1130 1.429 . S
C1122 C1120 1.419 . S
C1122 C1123 1.363 . S
C1122 H1125 0.929 . S
C1123 C1122 1.363 . S
C1123 C1129 1.428 . S
H1124 C1120 0.930 . S
H1125 C1122 0.929 . S
S1126 N1127 1.613 . S
S1126 N1128 1.610 . S
N1127 S1126 1.613 . S
N1127 C1130 1.350 . S
N1128 S1126 1.610 . S
N1128 C1129 1.351 . S
C1129 C1123 1.428 . S
C1129 N1128 1.351 . S
C1129 C1130 1.434 . S
C1130 C1121 1.429 . S
C1130 N1127 1.350 . S
C1130 C1129 1.434 . S
C1131 C1132 1.369 . S
C1131 C1133 1.419 . S
C1131 H1135 0.930 . S
C1132 C1131 1.369 . S
C1132 C1141 1.429 . S
C1133 C1131 1.419 . S
C1133 C1134 1.363 . S
C1133 H1136 0.929 . S
C1134 C1133 1.363 . S
C1134 C1140 1.428 . S
H1135 C1131 0.930 . S
H1136 C1133 0.929 . S
S1137 N1138 1.613 . S
S1137 N1139 1.610 . S
N1138 S1137 1.613 . S
N1138 C1141 1.350 . S
N1139 S1137 1.610 . S
N1139 C1140 1.351 . S
C1140 C1134 1.428 . S
C1140 N1139 1.351 . S
C1140 C1141 1.434 . S
C1141 C1132 1.429 . S
C1141 N1138 1.350 . S
C1141 C1140 1.434 . S
C1142 C1143 1.369 . S
C1142 C1144 1.419 . S
C1142 H1146 0.930 . S
C1143 C1142 1.369 . S
C1143 C1152 1.429 . S
C1144 C1142 1.419 . S
C1144 C1145 1.363 . S
C1144 H1147 0.929 . S
C1145 C1144 1.363 . S
C1145 C1151 1.428 . S
H1146 C1142 0.930 . S
H1147 C1144 0.929 . S
S1148 N1149 1.613 . S
S1148 N1150 1.610 . S
N1149 S1148 1.613 . S
N1149 C1152 1.350 . S
N1150 S1148 1.610 . S
N1150 C1151 1.351 . S
C1151 C1145 1.428 . S
C1151 N1150 1.351 . S
C1151 C1152 1.434 . S
C1152 C1143 1.429 . S
C1152 N1149 1.350 . S
C1152 C1151 1.434 . S
C1153 C1154 1.369 . S
C1153 C1155 1.419 . S
C1153 H1157 0.930 . S
C1154 C1153 1.369 . S
C1154 C1163 1.429 . S
C1155 C1153 1.419 . S
C1155 C1156 1.363 . S
C1155 H1158 0.929 . S
C1156 C1155 1.363 . S
C1156 C1162 1.428 . S
H1157 C1153 0.930 . S
H1158 C1155 0.929 . S
S1159 N1160 1.613 . S
S1159 N1161 1.610 . S
N1160 S1159 1.613 . S
N1160 C1163 1.350 . S
N1161 S1159 1.610 . S
N1161 C1162 1.351 . S
C1162 C1156 1.428 . S
C1162 N1161 1.351 . S
C1162 C1163 1.434 . S
C1163 C1154 1.429 . S
C1163 N1160 1.350 . S
C1163 C1162 1.434 . S
C1164 C1165 1.369 . S
C1164 C1166 1.419 . S
C1164 H1168 0.930 . S
C1165 C1164 1.369 . S
C1165 C1174 1.429 . S
C1166 C1164 1.419 . S
C1166 C1167 1.363 . S
C1166 H1169 0.929 . S
C1167 C1166 1.363 . S
C1167 C1173 1.428 . S
H1168 C1164 0.930 . S
H1169 C1166 0.929 . S
S1170 N1171 1.613 . S
S1170 N1172 1.610 . S
N1171 S1170 1.613 . S
N1171 C1174 1.350 . S
N1172 S1170 1.610 . S
N1172 C1173 1.351 . S
C1173 C1167 1.428 . S
C1173 N1172 1.351 . S
C1173 C1174 1.434 . S
C1174 C1165 1.429 . S
C1174 N1171 1.350 . S
C1174 C1173 1.434 . S
C1175 C1176 1.369 . S
C1175 C1177 1.419 . S
C1175 H1179 0.930 . S
C1176 C1175 1.369 . S
C1176 C1185 1.429 . S
C1177 C1175 1.419 . S
C1177 C1178 1.363 . S
C1177 H1180 0.929 . S
C1178 C1177 1.363 . S
C1178 C1184 1.428 . S
H1179 C1175 0.930 . S
H1180 C1177 0.929 . S
S1181 N1182 1.613 . S
S1181 N1183 1.610 . S
N1182 S1181 1.613 . S
N1182 C1185 1.350 . S
N1183 S1181 1.610 . S
N1183 C1184 1.351 . S
C1184 C1178 1.428 . S
C1184 N1183 1.351 . S
C1184 C1185 1.434 . S
C1185 C1176 1.429 . S
C1185 N1182 1.350 . S
C1185 C1184 1.434 . S
C1186 C1187 1.369 . S
C1186 C1188 1.419 . S
C1186 H1190 0.930 . S
C1187 C1186 1.369 . S
C1187 C1196 1.429 . S
C1188 C1186 1.419 . S
C1188 C1189 1.363 . S
C1188 H1191 0.929 . S
C1189 C1188 1.363 . S
C1189 C1195 1.428 . S
H1190 C1186 0.930 . S
H1191 C1188 0.929 . S
S1192 N1193 1.613 . S
S1192 N1194 1.610 . S
N1193 S1192 1.613 . S
N1193 C1196 1.350 . S
N1194 S1192 1.610 . S
N1194 C1195 1.351 . S
C1195 C1189 1.428 . S
C1195 N1194 1.351 . S
C1195 C1196 1.434 . S
C1196 C1187 1.429 . S
C1196 N1193 1.350 . S
C1196 C1195 1.434 . S
C1197 C1198 1.369 . S
C1197 C1199 1.419 . S
C1197 H1201 0.930 . S
C1198 C1197 1.369 . S
C1198 C1207 1.429 . S
C1199 C1197 1.419 . S
C1199 C1200 1.363 . S
C1199 H1202 0.929 . S
C1200 C1199 1.363 . S
C1200 C1206 1.428 . S
H1201 C1197 0.930 . S
H1202 C1199 0.929 . S
S1203 N1204 1.613 . S
S1203 N1205 1.610 . S
N1204 S1203 1.613 . S
N1204 C1207 1.350 1_556 S
N1205 S1203 1.610 . S
N1205 C1206 1.351 1_556 S
C1206 C1200 1.428 . S
C1206 N1205 1.351 1_554 S
C1206 C1207 1.434 . S
C1207 C1198 1.429 . S
C1207 N1204 1.350 1_554 S
C1207 C1206 1.434 . S
C1208 C1209 1.369 . S
C1208 C1210 1.419 . S
C1208 H1212 0.930 . S
C1209 C1208 1.369 . S
C1209 C1218 1.429 . S
C1210 C1208 1.419 . S
C1210 C1211 1.363 . S
C1210 H1213 0.929 . S
C1211 C1210 1.363 . S
C1211 C1217 1.428 . S
H1212 C1208 0.930 . S
H1213 C1210 0.929 . S
S1214 N1215 1.613 . S
S1214 N1216 1.610 . S
N1215 S1214 1.613 . S
N1215 C1218 1.350 1_556 S
N1216 S1214 1.610 . S
N1216 C1217 1.351 1_556 S
C1217 C1211 1.428 . S
C1217 N1216 1.351 1_554 S
C1217 C1218 1.434 . S
C1218 C1209 1.429 . S
C1218 N1215 1.350 1_554 S
C1218 C1217 1.434 . S
C1219 C1220 1.369 . S
C1219 C1221 1.419 . S
C1219 H1223 0.930 . S
C1220 C1219 1.369 . S
C1220 C1229 1.429 . S
C1221 C1219 1.419 . S
C1221 C1222 1.363 . S
C1221 H1224 0.929 . S
C1222 C1221 1.363 . S
C1222 C1228 1.428 . S
H1223 C1219 0.930 . S
H1224 C1221 0.929 . S
S1225 N1226 1.613 . S
S1225 N1227 1.610 . S
N1226 S1225 1.613 . S
N1226 C1229 1.350 1_556 S
N1227 S1225 1.610 . S
N1227 C1228 1.351 1_556 S
C1228 C1222 1.428 . S
C1228 N1227 1.351 1_554 S
C1228 C1229 1.434 . S
C1229 C1220 1.429 . S
C1229 N1226 1.350 1_554 S
C1229 C1228 1.434 . S
C1230 C1231 1.369 . S
C1230 C1232 1.419 . S
C1230 H1234 0.930 1_556 S
C1231 C1230 1.369 . S
C1231 C1240 1.429 . S
C1232 C1230 1.419 . S
C1232 C1233 1.363 . S
C1232 H1235 0.929 1_556 S
C1233 C1232 1.363 . S
C1233 C1239 1.428 . S
H1234 C1230 0.930 1_554 S
H1235 C1232 0.929 1_554 S
S1236 N1237 1.613 . S
S1236 N1238 1.610 . S
N1237 S1236 1.613 . S
N1237 C1240 1.350 . S
N1238 S1236 1.610 . S
N1238 C1239 1.351 . S
C1239 C1233 1.428 . S
C1239 N1238 1.351 . S
C1239 C1240 1.434 . S
C1240 C1231 1.429 . S
C1240 N1237 1.350 . S
C1240 C1239 1.434 . S
C1241 C1242 1.369 . S
C1241 C1243 1.419 . S
C1241 H1245 0.930 . S
C1242 C1241 1.369 . S
C1242 C1251 1.429 . S
C1243 C1241 1.419 . S
C1243 C1244 1.363 . S
C1243 H1246 0.929 . S
C1244 C1243 1.363 . S
C1244 C1250 1.428 . S
H1245 C1241 0.930 . S
H1246 C1243 0.929 . S
S1247 N1248 1.613 . S
S1247 N1249 1.610 . S
N1248 S1247 1.613 . S
N1248 C1251 1.350 . S
N1249 S1247 1.610 . S
N1249 C1250 1.351 . S
C1250 C1244 1.428 . S
C1250 N1249 1.351 . S
C1250 C1251 1.434 . S
C1251 C1242 1.429 . S
C1251 N1248 1.350 . S
C1251 C1250 1.434 . S
C1252 C1253 1.369 . S
C1252 C1254 1.419 . S
C1252 H1256 0.930 . S
C1253 C1252 1.369 . S
C1253 C1262 1.429 . S
C1254 C1252 1.419 . S
C1254 C1255 1.363 . S
C1254 H1257 0.929 . S
C1255 C1254 1.363 . S
C1255 C1261 1.428 . S
H1256 C1252 0.930 . S
H1257 C1254 0.929 . S
S1258 N1259 1.613 . S
S1258 N1260 1.610 . S
N1259 S1258 1.613 . S
N1259 C1262 1.350 . S
N1260 S1258 1.610 . S
N1260 C1261 1.351 . S
C1261 C1255 1.428 . S
C1261 N1260 1.351 . S
C1261 C1262 1.434 . S
C1262 C1253 1.429 . S
C1262 N1259 1.350 . S
C1262 C1261 1.434 . S
C1263 C1264 1.369 . S
C1263 C1265 1.419 . S
C1263 H1267 0.930 . S
C1264 C1263 1.369 . S
C1264 C1273 1.429 . S
C1265 C1263 1.419 . S
C1265 C1266 1.363 . S
C1265 H1268 0.929 . S
C1266 C1265 1.363 . S
C1266 C1272 1.428 . S
H1267 C1263 0.930 . S
H1268 C1265 0.929 . S
S1269 N1270 1.613 . S
S1269 N1271 1.610 . S
N1270 S1269 1.613 . S
N1270 C1273 1.350 . S
N1271 S1269 1.610 . S
N1271 C1272 1.351 . S
C1272 C1266 1.428 . S
C1272 N1271 1.351 . S
C1272 C1273 1.434 . S
C1273 C1264 1.429 . S
C1273 N1270 1.350 . S
C1273 C1272 1.434 . S
C1274 C1275 1.369 . S
C1274 C1276 1.419 . S
C1274 H1278 0.930 . S
C1275 C1274 1.369 . S
C1275 C1284 1.429 . S
C1276 C1274 1.419 . S
C1276 C1277 1.363 . S
C1276 H1279 0.929 . S
C1277 C1276 1.363 . S
C1277 C1283 1.428 . S
H1278 C1274 0.930 . S
H1279 C1276 0.929 . S
S1280 N1281 1.613 . S
S1280 N1282 1.610 . S
N1281 S1280 1.613 . S
N1281 C1284 1.350 . S
N1282 S1280 1.610 . S
N1282 C1283 1.351 . S
C1283 C1277 1.428 . S
C1283 N1282 1.351 . S
C1283 C1284 1.434 . S
C1284 C1275 1.429 . S
C1284 N1281 1.350 . S
C1284 C1283 1.434 . S
C1285 C1286 1.369 . S
C1285 C1287 1.419 . S
C1285 H1289 0.930 . S
C1286 C1285 1.369 . S
C1286 C1295 1.429 . S
C1287 C1285 1.419 . S
C1287 C1288 1.363 . S
C1287 H1290 0.929 . S
C1288 C1287 1.363 . S
C1288 C1294 1.428 . S
H1289 C1285 0.930 . S
H1290 C1287 0.929 . S
S1291 N1292 1.613 . S
S1291 N1293 1.610 . S
N1292 S1291 1.613 . S
N1292 C1295 1.350 . S
N1293 S1291 1.610 . S
N1293 C1294 1.351 . S
C1294 C1288 1.428 . S
C1294 N1293 1.351 . S
C1294 C1295 1.434 . S
C1295 C1286 1.429 . S
C1295 N1292 1.350 . S
C1295 C1294 1.434 . S
C505 C81 1.538 . S
C507 C11 1.537 . S
C516 C53 1.542 . S
C518 C25 1.539 . S
C527 C39 1.540 . S
C529 C67 1.541 . S
C538 C95 1.542 . S
C540 C165 1.538 . S
C549 C109 1.536 . S
C551 C137 1.539 . S
C560 C151 1.540 . S
C562 C123 1.537 . S
C571 C179 1.542 . S
C573 C249 1.538 . S
C582 C193 1.539 . S
C584 C221 1.542 . S
C593 C207 1.542 . S
C595 C235 1.539 . S
C604 C333 1.538 . S
C606 C263 1.542 . S
C615 C277 1.536 . S
C617 C305 1.539 . S
C626 C319 1.541 . S
C628 C291 1.537 . S
C637 C417 1.539 . S
C639 C347 1.542 . S
C648 C389 1.541 . S
C650 C361 1.538 . S
C659 C403 1.538 . S
C661 C375 1.542 . S
C670 C431 1.538 . S
C672 C501 1.537 . S
C681 C445 1.542 . S
C683 C473 1.538 . S
C692 C459 1.537 . S
C694 C487 1.538 . S
C703 C82 1.172 . S
C705 C12 1.174 . S
C714 C26 1.173 . S
C716 C54 1.172 . S
C725 C68 1.173 . S
C727 C40 1.173 . S
C736 C96 1.173 . S
C738 C166 1.175 . S
C747 C110 1.174 . S
C749 C138 1.172 . S
C758 C152 1.175 . S
C760 C124 1.174 . S
C769 C180 1.172 . S
C771 C250 1.173 . S
C780 C222 1.175 . S
C782 C194 1.174 . S
C791 C236 1.172 . S
C793 C208 1.173 . S
C802 C264 1.174 . S
C804 C334 1.172 . S
C813 C278 1.174 . S
C815 C306 1.175 . S
C824 C320 1.175 . S
C826 C292 1.173 . S
C835 C418 1.175 . S
C837 C348 1.173 . S
C846 C362 1.173 . S
C848 C390 1.173 . S
C857 C376 1.172 . S
C859 C404 1.174 . S
C868 C502 1.172 . S
C870 C432 1.173 . S
C879 C474 1.174 . S
C881 C446 1.174 . S
C890 C488 1.173 . S
C892 C460 1.173 . S
C901 C228 1.505 . S
C903 C4 1.509 . S
C912 C242 1.510 . S
C914 C18 1.511 . S
C923 C214 1.511 . S
C925 C32 1.508 . S
C934 C46 1.507 . S
C936 C368 1.510 . S
C945 C60 1.505 . S
C947 C340 1.509 . S
C956 C74 1.511 . S
C958 C354 1.511 . S
C967 C88 1.506 . S
C969 C480 1.506 . S
C978 C102 1.510 . S
C980 C494 1.507 . S
C989 C116 1.512 . S
C991 C466 1.509 . S
C1000 C130 1.512 . S
C1002 C284 1.509 . S
C1011 C256 1.509 . S
C1013 C144 1.506 . S
C1022 C270 1.507 . S
C1024 C158 1.510 . S
C1033 C396 1.507 . S
C1035 C172 1.510 . S
C1044 C186 1.508 . S
C1046 C410 1.506 . S
C1055 C200 1.505 . S
C1057 C382 1.509 . S
C1066 C298 1.508 . S
C1068 C452 1.506 . S
C1077 C312 1.507 . S
C1079 C424 1.506 . S
C1088 C438 1.509 . S
C1090 C326 1.506 . S
C1099 C5 1.291 . S
C1101 C145 1.292 . S
C1110 C159 1.305 . S
C1112 C19 1.304 . S
C1121 C131 1.301 . S
C1123 C33 1.300 . S
C1132 C47 1.299 . S
C1134 C117 1.299 . S
C1143 C61 1.297 . S
C1145 C89 1.297 . S
C1154 C75 1.300 . S
C1156 C103 1.300 . S
C1165 C173 1.302 . S
C1167 C313 1.301 . S
C1176 C327 1.303 . S
C1178 C187 1.303 . S
C1187 C299 1.297 . S
C1189 C201 1.298 . S
C1198 C215 1.292 . S
C1200 C285 1.294 . S
C1209 C229 1.298 . S
C1211 C257 1.299 . S
C1220 C271 1.300 . S
C1222 C243 1.299 . S
C1231 C341 1.301 . S
C1233 C481 1.300 . S
C1242 C495 1.307 . S
C1244 C355 1.305 . S
C1253 C369 1.292 . S
C1255 C467 1.293 . S
C1264 C383 1.291 . S
C1266 C453 1.293 . S
C1275 C425 1.307 . S
C1277 C397 1.305 . S
C1286 C411 1.293 . S
C1288 C439 1.294 . S
