# Generated by pormake.
# Topology swi, (7)-cn, num edge types: 1
# Building blocks:
#     Node 0, Type 0, BuildingBlock: HICVOG_clean_sbu_0, # of connection points: 7
#     Node 1, Type 0, BuildingBlock: HICVOG_clean_sbu_0, # of connection points: 7
#     Node 2, Type 0, BuildingBlock: HICVOG_clean_sbu_0, # of connection points: 7
#     Node 3, Type 0, BuildingBlock: HICVOG_clean_sbu_0, # of connection points: 7
#     Node 4, Type 0, BuildingBlock: HICVOG_clean_sbu_0, # of connection points: 7
#     Node 5, Type 0, BuildingBlock: HICVOG_clean_sbu_0, # of connection points: 7
#     Node 6, Type 0, BuildingBlock: HICVOG_clean_sbu_0, # of connection points: 7
#     Node 7, Type 0, BuildingBlock: HICVOG_clean_sbu_0, # of connection points: 7
#     Node 8, Type 0, BuildingBlock: HICVOG_clean_sbu_0, # of connection points: 7
#     Node 9, Type 0, BuildingBlock: HICVOG_clean_sbu_0, # of connection points: 7
#     Node 10, Type 0, BuildingBlock: HICVOG_clean_sbu_0, # of connection points: 7
#     Node 11, Type 0, BuildingBlock: HICVOG_clean_sbu_0, # of connection points: 7
#     Edge 12, Type (0, 0), BuildingBlock: ZUJKAS_clean_linker_0, # of connection points: 2
#     Edge 13, Type (0, 0), BuildingBlock: ZUJKAS_clean_linker_0, # of connection points: 2
#     Edge 14, Type (0, 0), BuildingBlock: ZUJKAS_clean_linker_0, # of connection points: 2
#     Edge 15, Type (0, 0), BuildingBlock: ZUJKAS_clean_linker_0, # of connection points: 2
#     Edge 16, Type (0, 0), BuildingBlock: ZUJKAS_clean_linker_0, # of connection points: 2
#     Edge 17, Type (0, 0), BuildingBlock: ZUJKAS_clean_linker_0, # of connection points: 2
#     Edge 18, Type (0, 0), BuildingBlock: ZUJKAS_clean_linker_0, # of connection points: 2
#     Edge 19, Type (0, 0), BuildingBlock: ZUJKAS_clean_linker_0, # of connection points: 2
#     Edge 20, Type (0, 0), BuildingBlock: ZUJKAS_clean_linker_0, # of connection points: 2
#     Edge 21, Type (0, 0), BuildingBlock: ZUJKAS_clean_linker_0, # of connection points: 2
#     Edge 22, Type (0, 0), BuildingBlock: ZUJKAS_clean_linker_0, # of connection points: 2
#     Edge 23, Type (0, 0), BuildingBlock: ZUJKAS_clean_linker_0, # of connection points: 2
#     Edge 24, Type (0, 0), BuildingBlock: ZUJKAS_clean_linker_0, # of connection points: 2
#     Edge 25, Type (0, 0), BuildingBlock: ZUJKAS_clean_linker_0, # of connection points: 2
#     Edge 26, Type (0, 0), BuildingBlock: ZUJKAS_clean_linker_0, # of connection points: 2
#     Edge 27, Type (0, 0), BuildingBlock: ZUJKAS_clean_linker_0, # of connection points: 2
#     Edge 28, Type (0, 0), BuildingBlock: ZUJKAS_clean_linker_0, # of connection points: 2
#     Edge 29, Type (0, 0), BuildingBlock: ZUJKAS_clean_linker_0, # of connection points: 2
#     Edge 30, Type (0, 0), BuildingBlock: ZUJKAS_clean_linker_0, # of connection points: 2
#     Edge 31, Type (0, 0), BuildingBlock: ZUJKAS_clean_linker_0, # of connection points: 2
#     Edge 32, Type (0, 0), BuildingBlock: ZUJKAS_clean_linker_0, # of connection points: 2
#     Edge 33, Type (0, 0), BuildingBlock: ZUJKAS_clean_linker_0, # of connection points: 2
#     Edge 34, Type (0, 0), BuildingBlock: ZUJKAS_clean_linker_0, # of connection points: 2
#     Edge 35, Type (0, 0), BuildingBlock: ZUJKAS_clean_linker_0, # of connection points: 2
#     Edge 36, Type (0, 0), BuildingBlock: ZUJKAS_clean_linker_0, # of connection points: 2
#     Edge 37, Type (0, 0), BuildingBlock: ZUJKAS_clean_linker_0, # of connection points: 2
#     Edge 38, Type (0, 0), BuildingBlock: ZUJKAS_clean_linker_0, # of connection points: 2
#     Edge 39, Type (0, 0), BuildingBlock: ZUJKAS_clean_linker_0, # of connection points: 2
#     Edge 40, Type (0, 0), BuildingBlock: ZUJKAS_clean_linker_0, # of connection points: 2
#     Edge 41, Type (0, 0), BuildingBlock: ZUJKAS_clean_linker_0, # of connection points: 2
#     Edge 42, Type (0, 0), BuildingBlock: ZUJKAS_clean_linker_0, # of connection points: 2
#     Edge 43, Type (0, 0), BuildingBlock: ZUJKAS_clean_linker_0, # of connection points: 2
#     Edge 44, Type (0, 0), BuildingBlock: ZUJKAS_clean_linker_0, # of connection points: 2
#     Edge 45, Type (0, 0), BuildingBlock: ZUJKAS_clean_linker_0, # of connection points: 2
#     Edge 46, Type (0, 0), BuildingBlock: ZUJKAS_clean_linker_0, # of connection points: 2
#     Edge 47, Type (0, 0), BuildingBlock: ZUJKAS_clean_linker_0, # of connection points: 2
#     Edge 48, Type (0, 0), BuildingBlock: ZUJKAS_clean_linker_0, # of connection points: 2
#     Edge 49, Type (0, 0), BuildingBlock: ZUJKAS_clean_linker_0, # of connection points: 2
#     Edge 50, Type (0, 0), BuildingBlock: ZUJKAS_clean_linker_0, # of connection points: 2
#     Edge 51, Type (0, 0), BuildingBlock: ZUJKAS_clean_linker_0, # of connection points: 2
#     Edge 52, Type (0, 0), BuildingBlock: ZUJKAS_clean_linker_0, # of connection points: 2
#     Edge 53, Type (0, 0), BuildingBlock: ZUJKAS_clean_linker_0, # of connection points: 2
# Relax obj value: 0.312
# Max RMSD: 0.250
# Mean RMSD: 0.250
data_MOF--net-swi--node1-HICVOG_clean_sbu_0--edge1-ZUJKAS_clean_linker_0
_symmetry_space_group_name_H-M    P1
_symmetry_Int_Tables_number       1
_symmetry_cell_setting            triclinic
loop_
_symmetry_equiv_pos_as_xyz
'x, y, z'
_cell_length_a     51.477357
_cell_length_b     51.468947
_cell_length_c     48.043064
_cell_angle_alpha  90.002351
_cell_angle_beta   89.970336
_cell_angle_gamma 120.02363
loop_
_atom_site_label
_atom_site_type_symbol
_atom_site_fract_x
_atom_site_fract_y
_atom_site_fract_z
_atom_type_partial_charge
Zn0 Zn 0.42763 0.12692 0.97729 0.0
C1 C 0.47713 0.1319 0.04515 0.0
N2 N 0.47937 0.10999 0.03232 0.0
C3 C 0.46175 0.10424 1.00986 0.0
N4 N 0.44978 0.12247 1.00847 0.0
N5 N 0.4589 0.13909 0.03137 0.0
C6 C 0.49527 0.22355 0.04443 0.0
O7 O 0.48845 0.21901 1.01785 0.0
O8 O 0.39508 0.08544 0.96672 0.0
Zn9 Zn 0.44527 0.16348 0.05005 0.0
N10 N 0.45458 0.14742 0.94595 0.0
C11 C 0.50494 0.17654 0.93011 0.0
C12 C 0.48446 0.16034 0.95101 0.0
C13 C 0.44429 0.15118 0.92086 0.0
N14 N 0.4948 0.18012 0.90517 0.0
C15 C 0.46501 0.16824 0.89968 0.0
O16 O 0.41817 0.17258 0.02747 0.0
C17 C 0.40521 0.16787 1.00399 0.0
O18 O 0.40781 0.15166 0.98543 0.0
H19 H 0.49238 0.15822 0.97124 0.0
H20 H 0.42039 0.14115 0.91767 0.0
C21 C 0.42832 0.15972 0.10825 0.0
C22 C 0.41369 0.14456 0.13301 0.0
C23 C 0.39294 0.09824 0.10837 0.0
C24 C 0.40756 0.11336 0.08416 0.0
N25 N 0.42488 0.1437 0.08448 0.0
N26 N 0.39633 0.11408 0.13201 0.0
H27 H 0.44198 0.18388 0.10758 0.0
C28 C 0.37675 0.07152 0.98635 0.0
O29 O 0.3805 0.08524 1.01033 0.0
O30 O 0.48019 0.20269 0.06167 0.0
H31 H 0.40521 0.10104 0.0652 0.0
H32 H 0.52878 0.18661 0.93379 0.0
H33 H 0.37902 0.07406 0.10843 0.0
Zn34 Zn 0.28358 0.44842 0.05013 0.0
C35 C 0.35959 0.46821 1.00844 0.0
N36 N 0.37135 0.48693 0.03023 0.0
C37 C 0.34695 0.48351 0.04356 0.0
N38 N 0.32153 0.46358 0.03069 0.0
N39 N 0.3292 0.4545 1.00787 0.0
C40 C 0.30847 0.38129 0.98685 0.0
O41 O 0.29873 0.38532 1.01085 0.0
O42 O 0.27763 0.48209 0.06262 0.0
Zn43 Zn 0.3026 0.43131 0.97702 0.0
N44 N 0.28471 0.42889 0.08459 0.0
C45 C 0.30153 0.39972 0.10874 0.0
C46 C 0.29883 0.41259 0.08419 0.0
C47 C 0.27295 0.43276 0.10873 0.0
N48 N 0.29008 0.40374 0.13277 0.0
C49 C 0.27567 0.41986 0.13374 0.0
O50 O 0.25811 0.41079 0.98563 0.0
C51 C 0.23925 0.40747 1.00444 0.0
O52 O 0.2474 0.42034 0.02798 0.0
H53 H 0.30826 0.40999 0.06499 0.0
H54 H 0.26238 0.44637 0.10849 0.0
C55 C 0.2942 0.44708 0.92019 0.0
C56 C 0.2978 0.46761 0.89883 0.0
C57 C 0.32918 0.50786 0.92907 0.0
C58 C 0.32504 0.48759 0.95011 0.0
N59 N 0.30826 0.45764 0.94525 0.0
N60 N 0.31555 0.49746 0.90415 0.0
H61 H 0.28043 0.42314 0.91708 0.0
C62 C 0.27414 0.49972 0.04666 0.0
O63 O 0.27531 0.497 0.01955 0.0
O64 O 0.31226 0.39911 0.96693 0.0
H65 H 0.33504 0.49576 0.97031 0.0
H66 H 0.31285 0.3868 0.10877 0.0
H67 H 0.34281 0.53175 0.93262 0.0
Zn68 Zn 0.87162 0.29993 0.97908 0.0
C69 C 0.86177 0.34276 0.04573 0.0
N70 N 0.88389 0.36729 0.03352 0.0
C71 C 0.89137 0.35589 1.01185 0.0
N72 N 0.87413 0.32557 1.01041 0.0
N73 N 0.85629 0.31742 0.03255 0.0
C74 C 0.77085 0.25568 0.04809 0.0
O75 O 0.77427 0.24787 0.02291 0.0
O76 O 0.91385 0.31109 0.96882 0.0
Zn77 Zn 0.83464 0.27879 0.05166 0.0
N78 N 0.85061 0.3057 0.94774 0.0
C79 C 0.82108 0.32654 0.93207 0.0
C80 C 0.83724 0.32223 0.95296 0.0
C81 C 0.84732 0.29209 0.92247 0.0
N82 N 0.8181 0.31339 0.90692 0.0
C83 C 0.83044 0.29594 0.90127 0.0
O84 O 0.82875 0.24355 0.0291 0.0
C85 C 0.83386 0.23597 1.00544 0.0
O86 O 0.84885 0.25525 0.98675 0.0
H87 H 0.83909 0.33206 0.97325 0.0
H88 H 0.8577 0.27856 0.91905 0.0
C89 C 0.83973 0.26779 0.11 0.0
C90 C 0.85525 0.26967 0.13486 0.0
C91 C 0.90136 0.29664 0.11014 0.0
C92 C 0.88587 0.29486 0.08579 0.0
N93 N 0.85544 0.28043 0.0861 0.0
N94 N 0.8858 0.28408 0.1339 0.0
H95 H 0.8155 0.25613 0.10941 0.0
C96 C 0.92854 0.3086 0.98888 0.0
O97 O 0.91514 0.29913 1.01307 0.0
O98 O 0.79361 0.26953 0.06369 0.0
H99 H 0.89795 0.30492 0.06675 0.0
H100 H 0.81069 0.33999 0.93588 0.0
H101 H 0.92562 0.30799 0.1102 0.0
Zn102 Zn 0.55083 0.83555 0.05042 0.0
C103 C 0.53237 0.89322 1.00978 0.0
N104 N 0.51378 0.8863 0.03167 0.0
C105 C 0.5166 0.86474 0.04455 0.0
N106 N 0.5361 0.85889 0.03132 0.0
N107 N 0.54543 0.87595 1.00869 0.0
C108 C 0.61907 0.92715 0.98695 0.0
O109 O 0.61517 0.91303 1.01073 0.0
O110 O 0.51689 0.7963 0.06349 0.0
Zn111 Zn 0.56804 0.87206 0.97754 0.0
N112 N 0.57125 0.85623 0.08458 0.0
C113 C 0.60138 0.90221 0.10844 0.0
C114 C 0.58785 0.88664 0.08407 0.0
C115 C 0.56771 0.84061 0.10865 0.0
N116 N 0.59769 0.88676 0.13242 0.0
C117 C 0.58127 0.85623 0.13349 0.0
O118 O 0.58802 0.84757 0.98578 0.0
C119 C 0.59094 0.8315 1.00427 0.0
O120 O 0.5781 0.82666 0.02784 0.0
H121 H 0.59019 0.89866 0.06492 0.0
H122 H 0.55387 0.81644 0.10851 0.0
C123 C 0.55145 0.84734 0.92099 0.0
C124 C 0.5306 0.8303 0.89989 0.0
C125 C 0.49086 0.82257 0.93033 0.0
C126 C 0.51142 0.83873 0.95115 0.0
N127 N 0.54129 0.85144 0.94604 0.0
N128 N 0.50087 0.81874 0.90543 0.0
H129 H 0.57532 0.85706 0.91773 0.0
C130 C 0.49864 0.77511 0.04794 0.0
O131 O 0.50075 0.77858 0.02078 0.0
O132 O 0.60065 0.91367 0.96728 0.0
H133 H 0.50355 0.841 0.97136 0.0
H134 H 0.61455 0.92646 0.10838 0.0
H135 H 0.46704 0.81271 0.93406 0.0
Zn136 Zn 0.69749 0.57184 0.97852 0.0
C137 C 0.65316 0.52104 0.04574 0.0
N138 N 0.62901 0.51935 0.03342 0.0
C139 C 0.64089 0.53772 1.01139 0.0
N140 N 0.67107 0.54962 1.00977 0.0
N141 N 0.67859 0.53978 0.03217 0.0
C142 C 0.74729 0.52294 0.06871 0.0
O143 O 0.76996 0.55057 0.06993 0.0
O144 O 0.68788 0.6038 0.96768 0.0
Zn145 Zn 0.71661 0.55342 0.05093 0.0
N146 N 0.69135 0.54473 0.94738 0.0
C147 C 0.66957 0.49428 0.93165 0.0
C148 C 0.67401 0.51488 0.95247 0.0
C149 C 0.70562 0.55484 0.92234 0.0
N150 N 0.68343 0.50425 0.90673 0.0
C151 C 0.70171 0.53399 0.90123 0.0
O152 O 0.7526 0.58213 0.0288 0.0
C153 C 0.76086 0.59553 1.0055 0.0
O154 O 0.74206 0.59255 0.98678 0.0
H155 H 0.6637 0.50706 0.97263 0.0
H156 H 0.71977 0.57872 0.91906 0.0
C157 C 0.72642 0.56697 0.11054 0.0
C158 C 0.72493 0.58075 0.13545 0.0
C159 C 0.70213 0.60389 0.11026 0.0
C160 C 0.70399 0.59046 0.08573 0.0
N161 N 0.71603 0.57225 0.08623 0.0
N162 N 0.71257 0.59875 0.13438 0.0
H163 H 0.73513 0.55179 0.11063 0.0
C164 C 0.69215 0.62217 0.98721 0.0
O165 O 0.70234 0.61874 1.01119 0.0
O166 O 0.72192 0.5184 0.06042 0.0
H167 H 0.69567 0.59427 0.06639 0.0
H168 H 0.65548 0.47047 0.93535 0.0
H169 H 0.69246 0.61832 0.11016 0.0
Zn170 Zn 0.16373 0.71717 0.0502 0.0
C171 C 0.10578 0.64064 1.01037 0.0
N172 N 0.11313 0.62924 0.03218 0.0
C173 C 0.13492 0.65378 0.04463 0.0
N174 N 0.14051 0.67898 0.03127 0.0
N175 N 0.12302 0.67098 1.00893 0.0
C176 C 0.0709 0.69221 0.9878 0.0
O177 O 0.085 0.70224 1.0116 0.0
O178 O 0.20326 0.72292 0.06272 0.0
Zn179 Zn 0.12637 0.69727 0.97777 0.0
N180 N 0.14341 0.71665 0.0847 0.0
C181 C 0.09774 0.70054 0.10926 0.0
C182 C 0.113 0.70283 0.08459 0.0
C183 C 0.15932 0.72851 0.10866 0.0
N184 N 0.11351 0.71208 0.13313 0.0
C185 C 0.14404 0.7262 0.13379 0.0
O186 O 0.15067 0.74188 0.98579 0.0
C187 C 0.16679 0.76101 1.00419 0.0
O188 O 0.17195 0.75315 0.02768 0.0
H189 H 0.10072 0.69329 0.06552 0.0
H190 H 0.18349 0.73883 0.10821 0.0
C191 C 0.1507 0.70545 0.92104 0.0
C192 C 0.1675 0.70163 0.89969 0.0
C193 C 0.17548 0.66957 0.92981 0.0
C194 C 0.15951 0.67395 0.95086 0.0
N195 N 0.1468 0.69116 0.94604 0.0
N196 N 0.17909 0.68344 0.90495 0.0
H197 H 0.14094 0.71959 0.91798 0.0
C198 C 0.2246 0.72666 0.04694 0.0
O199 O 0.22113 0.72593 0.0198 0.0
O200 O 0.08454 0.68783 0.96789 0.0
H201 H 0.15736 0.66373 0.97101 0.0
H202 H 0.0735 0.68945 0.10952 0.0
H203 H 0.18533 0.65558 0.93332 0.0
Zn204 Zn 0.83378 0.55101 0.48736 0.0
C205 C 0.89235 0.53406 0.52828 0.0
N206 N 0.88635 0.51602 0.50608 0.0
C207 C 0.86489 0.51872 0.4929 0.0
N208 N 0.85815 0.53753 0.50623 0.0
N209 N 0.87469 0.54671 0.52916 0.0
C210 C 0.92539 0.62244 0.55321 0.0
O211 O 0.91074 0.62238 0.53079 0.0
O212 O 0.79442 0.51585 0.47636 0.0
Zn213 Zn 0.87043 0.56929 0.56005 0.0
N214 N 0.85336 0.57049 0.45257 0.0
C215 C 0.89884 0.60082 0.42801 0.0
C216 C 0.88373 0.58772 0.45269 0.0
C217 C 0.83732 0.56598 0.42863 0.0
N218 N 0.88298 0.59618 0.40415 0.0
C219 C 0.85248 0.57918 0.40351 0.0
O220 O 0.84599 0.58952 0.55159 0.0
C221 C 0.82995 0.59208 0.53281 0.0
O222 O 0.82518 0.57878 0.50948 0.0
H223 H 0.89608 0.59093 0.47181 0.0
H224 H 0.8132 0.55171 0.4291 0.0
C225 C 0.84595 0.55296 0.61648 0.0
C226 C 0.82913 0.53235 0.63781 0.0
C227 C 0.821 0.49227 0.60768 0.0
C228 C 0.837 0.51262 0.58663 0.0
N229 N 0.84975 0.54254 0.59148 0.0
N230 N 0.81745 0.50254 0.63256 0.0
H231 H 0.85583 0.57688 0.61956 0.0
C232 C 0.77387 0.50076 0.49386 0.0
O233 O 0.77864 0.50798 0.52036 0.0
O234 O 0.91222 0.60122 0.57069 0.0
H235 H 0.83912 0.50457 0.56646 0.0
H236 H 0.92305 0.61446 0.42776 0.0
H237 H 0.81108 0.46841 0.60417 0.0
Zn238 Zn 0.30185 0.86944 0.5579 0.0
C239 C 0.34846 0.86451 0.4915 0.0
N240 N 0.37227 0.88602 0.50503 0.0
C241 C 0.35971 0.89166 0.52703 0.0
N242 N 0.3294 0.87372 0.52749 0.0
N243 N 0.32258 0.8573 0.50448 0.0
C244 C 0.27794 0.77279 0.48781 0.0
O245 O 0.27687 0.77582 0.51488 0.0
O246 O 0.31023 0.91104 0.56777 0.0
Zn247 Zn 0.28496 0.83264 0.48496 0.0
N248 N 0.30805 0.84973 0.59013 0.0
C249 C 0.3303 0.82206 0.60738 0.0
C250 C 0.32572 0.83743 0.5859 0.0
C251 C 0.29351 0.84599 0.61497 0.0
N252 N 0.31617 0.81859 0.63207 0.0
C253 C 0.29752 0.82977 0.63675 0.0
O254 O 0.24825 0.82214 0.5073 0.0
C255 C 0.23918 0.82673 0.53042 0.0
O256 O 0.2574 0.84375 0.54901 0.0
H257 H 0.33608 0.83937 0.56586 0.0
H258 H 0.27903 0.85543 0.61756 0.0
C259 C 0.27267 0.83766 0.42673 0.0
C260 C 0.27451 0.85341 0.40203 0.0
C261 C 0.29989 0.89922 0.42735 0.0
C262 C 0.29807 0.88354 0.45159 0.0
N263 N 0.28462 0.85316 0.45088 0.0
N264 N 0.28826 0.88391 0.4033 0.0
H265 H 0.26263 0.81351 0.42669 0.0
C266 C 0.30691 0.92538 0.54785 0.0
O267 O 0.29799 0.91206 0.52357 0.0
O268 O 0.28163 0.79404 0.47192 0.0
H269 H 0.30767 0.89548 0.47079 0.0
H270 H 0.34465 0.81252 0.60434 0.0
H271 H 0.31068 0.92345 0.42758 0.0
Zn272 Zn 0.44217 0.27979 0.48542 0.0
C273 C 0.46362 0.35661 0.52693 0.0
N274 N 0.48217 0.36784 0.50498 0.0
C275 C 0.47751 0.34321 0.49129 0.0
N276 N 0.45699 0.31804 0.50417 0.0
N277 N 0.44879 0.32614 0.52732 0.0
C278 C 0.37304 0.30086 0.54922 0.0
O279 O 0.37529 0.28807 0.52639 0.0
O280 O 0.47672 0.27455 0.47358 0.0
Zn281 Zn 0.42624 0.29993 0.55876 0.0
N282 N 0.42128 0.27953 0.45127 0.0
C283 C 0.38696 0.29099 0.42906 0.0
C284 C 0.40225 0.29054 0.45281 0.0
C285 C 0.42585 0.2691 0.42664 0.0
N286 N 0.39137 0.28047 0.40463 0.0
C287 C 0.41049 0.26948 0.4024 0.0
O288 O 0.40709 0.25506 0.55156 0.0
C289 C 0.40361 0.23607 0.53281 0.0
O290 O 0.41537 0.24414 0.50881 0.0
H291 H 0.39904 0.29893 0.47238 0.0
H292 H 0.44091 0.26028 0.42612 0.0
C293 C 0.44218 0.29253 0.61557 0.0
C294 C 0.46234 0.29837 0.6379 0.0
C295 C 0.50181 0.33517 0.60995 0.0
C296 C 0.48199 0.32887 0.58795 0.0
N297 N 0.4525 0.30815 0.59117 0.0
N298 N 0.4916 0.31986 0.63418 0.0
H299 H 0.41867 0.27588 0.61742 0.0
C300 C 0.47213 0.24891 0.4661 0.0
O301 O 0.44475 0.22579 0.46711 0.0
O302 O 0.393 0.3083 0.56791 0.0
H303 H 0.49024 0.34019 0.56831 0.0
H304 H 0.37167 0.29963 0.43 0.0
H305 H 0.52528 0.35183 0.60768 0.0
Zn306 Zn 0.12598 0.42895 0.55769 0.0
C307 C 0.13379 0.48199 0.49203 0.0
N308 N 0.11204 0.48448 0.50494 0.0
C309 C 0.10461 0.46506 0.52625 0.0
N310 N 0.12185 0.45194 0.52703 0.0
N311 N 0.13924 0.46197 0.50467 0.0
C312 C 0.22428 0.49864 0.49191 0.0
O313 O 0.22058 0.48993 0.51803 0.0
O314 O 0.08431 0.39678 0.56846 0.0
Zn315 Zn 0.16379 0.449 0.48542 0.0
N316 N 0.14767 0.45574 0.58896 0.0
C317 C 0.17741 0.50631 0.60414 0.0
C318 C 0.15949 0.48557 0.58411 0.0
C319 C 0.15395 0.44581 0.61311 0.0
N320 N 0.18381 0.49655 0.62796 0.0
C321 C 0.1729 0.46687 0.63327 0.0
O322 O 0.1722 0.42083 0.507 0.0
C323 C 0.16656 0.40656 0.52987 0.0
O324 O 0.14993 0.40846 0.54846 0.0
H325 H 0.15552 0.49332 0.56455 0.0
H326 H 0.14545 0.42204 0.61593 0.0
C327 C 0.16099 0.43451 0.42651 0.0
C328 C 0.14615 0.42181 0.40114 0.0
C329 C 0.09939 0.40107 0.42494 0.0
C330 C 0.11419 0.41367 0.44985 0.0
N331 N 0.1446 0.4302 0.45023 0.0
N332 N 0.1156 0.40549 0.40133 0.0
H333 H 0.18516 0.44824 0.42738 0.0
C334 C 0.06964 0.37976 0.54828 0.0
O335 O 0.08278 0.38455 0.52386 0.0
O336 O 0.203 0.48464 0.4748 0.0
H337 H 0.10155 0.41064 0.46875 0.0
H338 H 0.18677 0.53009 0.60054 0.0
H339 H 0.07515 0.38798 0.42431 0.0
Zn340 Zn 0.71708 0.16484 0.48685 0.0
C341 C 0.64043 0.10893 0.52766 0.0
N342 N 0.62873 0.11647 0.50628 0.0
C343 C 0.65314 0.13846 0.49377 0.0
N344 N 0.67868 0.1438 0.50646 0.0
N345 N 0.67078 0.12597 0.52859 0.0
C346 C 0.68575 0.07039 0.54994 0.0
O347 O 0.69523 0.08359 0.52567 0.0
O348 O 0.72678 0.20594 0.47432 0.0
Zn349 Zn 0.6966 0.12814 0.55964 0.0
N350 N 0.71468 0.14348 0.45256 0.0
C351 C 0.69708 0.0972 0.42872 0.0
C352 C 0.69937 0.11303 0.45299 0.0
C353 C 0.72771 0.15888 0.42863 0.0
N354 N 0.71003 0.11247 0.40492 0.0
C355 C 0.72533 0.14303 0.40385 0.0
O356 O 0.74117 0.15009 0.55141 0.0
C357 C 0.76021 0.16493 0.53248 0.0
O358 O 0.75238 0.17025 0.50906 0.0
H359 H 0.68902 0.10119 0.47206 0.0
H360 H 0.74007 0.18312 0.42914 0.0
C361 C 0.70817 0.1559 0.61502 0.0
C362 C 0.70616 0.17457 0.63553 0.0
C363 C 0.67129 0.17965 0.60686 0.0
C364 C 0.67396 0.16193 0.5865 0.0
N365 N 0.69193 0.15001 0.59094 0.0
N366 N 0.68748 0.18566 0.63062 0.0
H367 H 0.72331 0.14722 0.61753 0.0
C368 C 0.74359 0.22947 0.48815 0.0
O369 O 0.7545 0.22706 0.51212 0.0
O370 O 0.68437 0.08562 0.57013 0.0
H371 H 0.66211 0.15816 0.56704 0.0
H372 H 0.68503 0.07293 0.42876 0.0
H373 H 0.65691 0.18911 0.60358 0.0
Zn374 Zn 0.56622 0.69582 0.55802 0.0
C375 C 0.5148 0.65274 0.49047 0.0
N376 N 0.50928 0.62794 0.50439 0.0
C377 C 0.52772 0.63894 0.52644 0.0
N378 N 0.54321 0.66943 0.5267 0.0
N379 N 0.53562 0.67772 0.50332 0.0
C380 C 0.50747 0.73476 0.48721 0.0
O381 O 0.51766 0.74243 0.51272 0.0
O382 O 0.59872 0.68635 0.56776 0.0
Zn383 Zn 0.55155 0.7159 0.48421 0.0
N384 N 0.53968 0.68916 0.59003 0.0
C385 C 0.48947 0.66466 0.60685 0.0
C386 C 0.51006 0.66942 0.58597 0.0
C387 C 0.54946 0.70536 0.61421 0.0
N388 N 0.49907 0.68068 0.63074 0.0
C389 C 0.52846 0.70128 0.63531 0.0
O390 O 0.57889 0.75155 0.50714 0.0
C391 C 0.59048 0.75965 0.53118 0.0
O392 O 0.58636 0.74067 0.55017 0.0
H393 H 0.50227 0.65801 0.56634 0.0
H394 H 0.57296 0.72193 0.61639 0.0
C395 C 0.56791 0.7276 0.42594 0.0
C396 C 0.58089 0.72526 0.40083 0.0
C397 C 0.60051 0.69859 0.42522 0.0
C398 C 0.58753 0.7009 0.44988 0.0
N399 N 0.57146 0.71526 0.44982 0.0
N400 N 0.5968 0.71061 0.40143 0.0
H401 H 0.55445 0.73833 0.42644 0.0
C402 C 0.61616 0.68945 0.5477 0.0
O403 O 0.61187 0.69866 0.52353 0.0
O404 O 0.51818 0.72244 0.47175 0.0
H405 H 0.58985 0.69098 0.46887 0.0
H406 H 0.46587 0.64884 0.60387 0.0
H407 H 0.61326 0.68708 0.42492 0.0
H408 H 0.3611 0.03638 0.9394 0.0
H409 H 0.32014 0.98434 0.93453 0.0
H410 H 0.29631 0.98403 0.02066 0.0
H411 H 0.33649 0.03583 0.02554 0.0
H412 H 0.31228 0.93481 0.96205 0.0
H413 H 0.21557 0.95049 0.98348 0.0
H414 H 0.25244 0.98151 0.97562 0.0
H415 H 0.24322 0.96665 1.01045 0.0
C416 C 0.34691 0.02528 0.95719 0.0
C417 C 0.35191 0.04031 0.9828 0.0
C418 C 0.32353 0.99559 0.95438 0.0
C419 C 0.30472 0.98053 0.97706 0.0
C420 C 0.30991 0.99546 1.00264 0.0
H421 H 0.19285 0.80804 0.04038 0.0
H422 H 0.22358 0.86127 0.02913 0.0
C423 C 0.33311 0.02506 1.00545 0.0
C424 C 0.28089 0.9486 0.97485 0.0
H425 H 0.20738 0.90036 0.99087 0.0
C426 C 0.28919 0.92729 0.96771 0.0
C427 C 0.25071 0.93883 0.98209 0.0
C428 C 0.2399 0.96063 0.98804 0.0
C429 C 0.26854 0.89642 0.9694 0.0
C430 C 0.23894 0.88674 0.97836 0.0
C431 C 0.2302 0.90796 0.98414 0.0
C432 C 0.21782 0.85484 0.98461 0.0
C433 C 0.27882 0.87427 0.96308 0.0
C434 C 0.20386 0.83379 0.96324 0.0
C435 C 0.18604 0.80326 0.96959 0.0
C436 C 0.18223 0.79341 0.99742 0.0
C437 C 0.19545 0.81483 0.01875 0.0
C438 C 0.21297 0.84526 1.01238 0.0
H439 H 0.3031 0.88551 0.95789 0.0
H440 H 0.27445 0.85928 0.98125 0.0
H441 H 0.26586 0.85998 0.94522 0.0
H442 H 0.20734 0.8409 0.94168 0.0
H443 H 0.17625 0.78733 0.95268 0.0
H444 H 0.32702 0.3647 0.93984 0.0
H445 H 0.3378 0.32351 0.93524 0.0
H446 H 0.31637 0.30164 0.02198 0.0
H447 H 0.30508 0.34206 0.02662 0.0
H448 H 0.37987 0.31555 0.96228 0.0
H449 H 0.2672 0.22027 0.98609 0.0
H450 H 0.27348 0.25719 0.97777 0.0
H451 H 0.27971 0.24852 1.0126 0.0
C452 C 0.32437 0.35092 0.95784 0.0
C453 C 0.31497 0.35651 0.98354 0.0
C454 C 0.33051 0.32741 0.95518 0.0
C455 C 0.3272 0.30905 0.9781 0.0
C456 C 0.31819 0.31489 1.00379 0.0
H457 H 0.38521 0.19451 0.04056 0.0
H458 H 0.36367 0.22617 0.02975 0.0
C459 C 0.31198 0.33822 1.00645 0.0
C460 C 0.3348 0.28487 0.97594 0.0
H461 H 0.30871 0.21135 0.99257 0.0
C462 C 0.36413 0.2926 0.96829 0.0
C463 C 0.31418 0.25488 0.98364 0.0
C464 C 0.2818 0.24465 0.99019 0.0
C465 C 0.3739 0.2716 0.96985 0.0
C466 C 0.35378 0.24218 0.97919 0.0
C467 C 0.32409 0.23402 0.98555 0.0
C468 C 0.36412 0.22066 0.98518 0.0
C469 C 0.4061 0.28131 0.96296 0.0
C470 C 0.37076 0.20651 0.96363 0.0
C471 C 0.38291 0.18816 0.96972 0.0
C472 C 0.38883 0.18396 0.99747 0.0
C473 C 0.3811 0.19739 0.01898 0.0
C474 C 0.36874 0.21545 1.01287 0.0
H475 H 0.41944 0.30558 0.95783 0.0
H476 H 0.41681 0.27658 0.98081 0.0
H477 H 0.40679 0.26826 0.94487 0.0
H478 H 0.36718 0.21023 0.94212 0.0
H479 H 0.38871 0.17822 0.95268 0.0
H480 H 0.96646 0.31066 0.02934 0.0
H481 H 0.01858 0.32326 0.02447 0.0
H482 H 0.01443 0.33568 0.93612 0.0
H483 H 0.96211 0.32367 0.94092 0.0
H484 H 0.04262 0.29534 0.99365 0.0
H485 H 0.0885 0.41368 0.95933 0.0
H486 H 0.05132 0.39176 0.97376 0.0
H487 H 0.0586 0.38576 0.93846 0.0
C488 C 0.97657 0.31613 1.00884 0.0
C489 C 0.96015 0.31625 0.98552 0.0
C490 C 0.00638 0.32327 1.00609 0.0
C491 C 0.02048 0.33068 0.98 0.0
C492 C 0.00414 0.33055 0.95655 0.0
H493 H 0.21216 0.39286 0.95322 0.0
H494 H 0.1584 0.37037 0.94328 0.0
C495 C 0.97423 0.32355 0.9593 0.0
C496 C 0.0523 0.33845 0.9778 0.0
H497 H 0.12287 0.39658 0.96469 0.0
C498 C 0.06014 0.31738 0.98703 0.0
C499 C 0.07511 0.36718 0.96906 0.0
C500 C 0.06814 0.39105 0.95978 0.0
C501 C 0.09023 0.3246 0.98865 0.0
C502 C 0.11302 0.35366 0.98098 0.0
C503 C 0.10522 0.37427 0.97047 0.0
C504 C 0.14503 0.36421 0.98656 0.0
C505 C 0.0975 0.30136 0.99917 0.0
C506 C 0.15514 0.36792 1.01414 0.0
C507 C 0.1857 0.38092 0.0199 0.0
C508 C 0.20677 0.39037 0.99813 0.0
C509 C 0.19648 0.38561 0.97044 0.0
C510 C 0.16583 0.37288 0.96471 0.0
H511 H 0.07799 0.27828 0.99719 0.0
H512 H 0.11683 0.30264 0.98766 0.0
H513 H 0.10367 0.30561 0.02151 0.0
H514 H 0.13944 0.36173 0.03128 0.0
H515 H 0.19288 0.38424 0.04144 0.0
H516 H 0.63554 0.96279 0.94027 0.0
H517 H 0.6775 0.01438 0.93568 0.0
H518 H 0.7008 0.01325 0.02171 0.0
H519 H 0.65962 0.96189 0.02633 0.0
H520 H 0.68689 0.06428 0.96361 0.0
H521 H 0.78133 0.04481 0.98443 0.0
H522 H 0.74404 0.01461 0.97648 0.0
H523 H 0.75357 0.02916 1.01138 0.0
C524 C 0.6498 0.97348 0.95811 0.0
C525 C 0.64437 0.95817 0.98361 0.0
C526 C 0.67376 0.00292 0.95545 0.0
C527 C 0.69272 0.01742 0.97817 0.0
C528 C 0.68708 0.00222 1.00366 0.0
H529 H 0.80954 0.18884 0.04168 0.0
H530 H 0.77823 0.13566 0.03046 0.0
C531 C 0.6633 0.97289 1.00631 0.0
C532 C 0.71724 0.04908 0.9761 0.0
H533 H 0.79118 0.09547 0.99195 0.0
C534 C 0.70985 0.07109 0.96918 0.0
C535 C 0.74724 0.05792 0.98324 0.0
C536 C 0.75708 0.03532 0.989 0.0
C537 C 0.73121 0.10175 0.97094 0.0
C538 C 0.76067 0.11052 0.97972 0.0
C539 C 0.76848 0.08859 0.98535 0.0
C540 C 0.78262 0.14223 0.98589 0.0
C541 C 0.72182 0.12465 0.9649 0.0
C542 C 0.79614 0.16333 0.96446 0.0
C543 C 0.81429 0.19382 0.97078 0.0
C544 C 0.81889 0.20359 0.99865 0.0
C545 C 0.80633 0.1821 0.02001 0.0
C546 C 0.78847 0.1517 1.01366 0.0
H547 H 0.69743 0.11408 0.96049 0.0
H548 H 0.72738 0.14015 0.98285 0.0
H549 H 0.7344 0.13828 0.94657 0.0
H550 H 0.79193 0.15632 0.94288 0.0
H551 H 0.82354 0.2098 0.95384 0.0
H552 H 0.67197 0.63703 0.94025 0.0
H553 H 0.66054 0.67771 0.93513 0.0
H554 H 0.68483 0.70261 0.02094 0.0
H555 H 0.69679 0.66271 0.02608 0.0
H556 H 0.61893 0.68558 0.96298 0.0
H557 H 0.73146 0.78293 0.98267 0.0
H558 H 0.72565 0.74603 0.97508 0.0
H559 H 0.72045 0.75561 1.00991 0.0
C560 C 0.67515 0.65139 0.95793 0.0
C561 C 0.68549 0.64678 0.98352 0.0
C562 C 0.66863 0.67461 0.95496 0.0
C563 C 0.67251 0.69363 0.97747 0.0
C564 C 0.68256 0.68883 1.00304 0.0
H565 H 0.61131 0.80494 0.04052 0.0
H566 H 0.63367 0.77409 0.0293 0.0
C567 C 0.68914 0.66579 1.00601 0.0
C568 C 0.66426 0.71731 0.97511 0.0
H569 H 0.68947 0.79096 0.99039 0.0
C570 C 0.63452 0.70878 0.96832 0.0
C571 C 0.68469 0.74762 0.98194 0.0
C572 C 0.71742 0.75864 0.98751 0.0
C573 C 0.6242 0.72933 0.96997 0.0
C574 C 0.64416 0.75907 0.97856 0.0
C575 C 0.67424 0.76804 0.98396 0.0
C576 C 0.63334 0.78012 0.9848 0.0
C577 C 0.59165 0.71885 0.96403 0.0
C578 C 0.62646 0.79422 0.96341 0.0
C579 C 0.61383 0.81209 0.96974 0.0
C580 C 0.60766 0.81582 0.99755 0.0
C581 C 0.6156 0.8024 0.0189 0.0
C582 C 0.62843 0.78482 1.01256 0.0
H583 H 0.57869 0.69459 0.95876 0.0
H584 H 0.58116 0.72302 0.98242 0.0
H585 H 0.59003 0.73185 0.94635 0.0
H586 H 0.63021 0.79082 0.94186 0.0
H587 H 0.60788 0.82203 0.95281 0.0
H588 H 0.0355 0.67407 0.94097 0.0
H589 H 0.98369 0.6638 0.93673 0.0
H590 H 0.98395 0.68513 0.02359 0.0
H591 H 0.03554 0.69597 0.02786 0.0
H592 H 0.93381 0.62195 0.96372 0.0
H593 H 0.95179 0.73458 0.98858 0.0
H594 H 0.98233 0.72823 0.98004 0.0
H595 H 0.96742 0.72176 1.01489 0.0
C596 C 0.02457 0.67682 0.95908 0.0
C597 C 0.03971 0.68604 0.9847 0.0
C598 C 0.995 0.67098 0.95662 0.0
C599 C 0.98019 0.67439 0.97968 0.0
C600 C 0.99521 0.68326 1.00529 0.0
H601 H 0.80728 0.61559 0.04234 0.0
H602 H 0.86061 0.63764 0.03174 0.0
C603 C 0.02468 0.6892 1.00774 0.0
C604 C 0.94843 0.66693 0.97776 0.0
H605 H 0.90126 0.69313 0.99501 0.0
C606 C 0.92671 0.6377 0.96995 0.0
C607 C 0.9392 0.68757 0.98577 0.0
C608 C 0.96147 0.71987 0.9925 0.0
C609 C 0.89596 0.62803 0.97163 0.0
C610 C 0.88681 0.64816 0.98124 0.0
C611 C 0.90845 0.67776 0.98779 0.0
C612 C 0.85494 0.63788 0.98718 0.0
C613 C 0.87336 0.59593 0.96453 0.0
C614 C 0.83429 0.63152 0.96558 0.0
C615 C 0.80372 0.61907 0.97155 0.0
C616 C 0.79339 0.61258 0.99922 0.0
C617 C 0.81443 0.62015 0.02081 0.0
C618 C 0.84492 0.6328 1.01482 0.0
H619 H 0.88419 0.58252 0.95929 0.0
H620 H 0.85782 0.58511 0.98231 0.0
H621 H 0.85974 0.59547 0.94644 0.0
H622 H 0.84173 0.63544 0.94411 0.0
H623 H 0.78809 0.61342 0.95444 0.0
H624 H 0.96533 0.62495 0.59243 0.0
H625 H 0.01871 0.66266 0.59631 0.0
H626 H 0.01058 0.71023 0.52603 0.0
H627 H 0.95743 0.67301 0.52216 0.0
H628 H 0.06159 0.67566 0.55583 0.0
H629 H 0.0565 0.77775 0.58194 0.0
H630 H 0.02459 0.7404 0.58558 0.0
H631 H 0.03415 0.7585 0.5521 0.0
C632 C 0.97483 0.6437 0.57809 0.0
C633 C 0.95712 0.64602 0.55702 0.0
C634 C 0.00531 0.6652 0.58032 0.0
C635 C 0.01849 0.68953 0.56176 0.0
C636 C 0.00074 0.69207 0.541 0.0
H637 H 0.19398 0.78984 0.49524 0.0
H638 H 0.14106 0.75749 0.50627 0.0
C639 C 0.97038 0.67059 0.53867 0.0
C640 C 0.05125 0.71091 0.56237 0.0
H641 H 0.10334 0.7857 0.56311 0.0
C642 C 0.07075 0.69968 0.55787 0.0
C643 C 0.06322 0.74222 0.56535 0.0
C644 C 0.04354 0.75544 0.5718 0.0
C645 C 0.10173 0.71903 0.55478 0.0
C646 C 0.11343 0.75041 0.55589 0.0
C647 C 0.09422 0.76162 0.56191 0.0
C648 C 0.14525 0.77173 0.54917 0.0
C649 C 0.12165 0.70574 0.54985 0.0
C650 C 0.16495 0.79134 0.56942 0.0
C651 C 0.1954 0.81006 0.56318 0.0
C652 C 0.20655 0.80955 0.53652 0.0
C653 C 0.18634 0.79071 0.51605 0.0
C654 C 0.15605 0.77206 0.52232 0.0
H655 H 0.11085 0.68204 0.55696 0.0
H656 H 0.12621 0.7062 0.52722 0.0
H657 H 0.14346 0.7189 0.56075 0.0
H658 H 0.15692 0.79154 0.59022 0.0
H659 H 0.2103 0.82429 0.57944 0.0
H660 H 0.32517 0.96007 0.59516 0.0
H661 H 0.3362 0.01209 0.60015 0.0
H662 H 0.31524 0.01344 0.51345 0.0
H663 H 0.30372 0.96167 0.50841 0.0
H664 H 0.37863 0.06243 0.57337 0.0
H665 H 0.26617 0.04559 0.54978 0.0
H666 H 0.27229 0.01479 0.55786 0.0
H667 H 0.27872 0.03002 0.52314 0.0
C668 C 0.32265 0.97139 0.57724 0.0
C669 C 0.31334 0.95664 0.55143 0.0
C670 C 0.32895 0.00109 0.58013 0.0
C671 C 0.32588 0.01643 0.55733 0.0
C672 C 0.31691 0.0018 0.53154 0.0
H673 H 0.38195 0.18932 0.49628 0.0
H674 H 0.36077 0.13613 0.50687 0.0
C675 C 0.31055 0.97221 0.52865 0.0
C676 C 0.33363 0.04828 0.55976 0.0
H677 H 0.30777 0.09605 0.54389 0.0
C678 C 0.36296 0.06976 0.56753 0.0
C679 C 0.3131 0.05781 0.55228 0.0
C680 C 0.28073 0.03578 0.54559 0.0
C681 C 0.37284 0.10061 0.56628 0.0
C682 C 0.3528 0.1101 0.5572 0.0
C683 C 0.32309 0.08864 0.55073 0.0
C684 C 0.36319 0.14209 0.55152 0.0
C685 C 0.40507 0.12293 0.57321 0.0
C686 C 0.37086 0.16294 0.57321 0.0
C687 C 0.38283 0.19348 0.56724 0.0
C688 C 0.38753 0.20359 0.53947 0.0
C689 C 0.37881 0.18237 0.51788 0.0
C690 C 0.36665 0.15193 0.52387 0.0
H691 H 0.41847 0.11189 0.57755 0.0
H692 H 0.41568 0.13898 0.55573 0.0
H693 H 0.40584 0.13605 0.59184 0.0
H694 H 0.36814 0.15565 0.5947 0.0
H695 H 0.38939 0.20925 0.58434 0.0
H696 H 0.3615 0.32729 0.59348 0.0
H697 H 0.32147 0.33972 0.59738 0.0
H698 H 0.28969 0.303 0.51558 0.0
H699 H 0.32902 0.28999 0.51175 0.0
H700 H 0.31277 0.37752 0.56464 0.0
H701 H 0.21226 0.26445 0.55923 0.0
H702 H 0.2493 0.27017 0.5658 0.0
H703 H 0.23737 0.27108 0.53076 0.0
C704 C 0.34573 0.32152 0.57649 0.0
C705 C 0.34835 0.30751 0.55236 0.0
C706 C 0.32288 0.32863 0.57875 0.0
C707 C 0.3022 0.32172 0.55702 0.0
C708 C 0.30481 0.30774 0.53296 0.0
H709 H 0.19815 0.39227 0.49339 0.0
H710 H 0.22878 0.36955 0.50393 0.0
C711 C 0.32752 0.30055 0.53071 0.0
C712 C 0.27929 0.33114 0.55835 0.0
H713 H 0.20474 0.30603 0.54795 0.0
C714 C 0.28909 0.3618 0.56156 0.0
C715 C 0.24832 0.31059 0.55449 0.0
C716 C 0.23615 0.27721 0.55267 0.0
C717 C 0.26898 0.37261 0.55945 0.0
C718 C 0.23843 0.35228 0.55393 0.0
C719 C 0.22829 0.32151 0.55202 0.0
C720 C 0.21745 0.36318 0.54765 0.0
C721 C 0.28055 0.40583 0.56202 0.0
C722 C 0.2005 0.36645 0.56877 0.0
C723 C 0.18285 0.37944 0.56286 0.0
C724 C 0.18207 0.38944 0.53574 0.0
C725 C 0.19831 0.385 0.51452 0.0
C726 C 0.21581 0.37199 0.52044 0.0
H727 H 0.30441 0.4184 0.56866 0.0
H728 H 0.27849 0.41478 0.54162 0.0
H729 H 0.26679 0.40993 0.57728 0.0
H730 H 0.20163 0.35976 0.58991 0.0
H731 H 0.17071 0.38261 0.5797 0.0
H732 H 0.80663 0.18713 0.49551 0.0
H733 H 0.86005 0.21819 0.5057 0.0
H734 H 0.84095 0.20841 0.59368 0.0
H735 H 0.78722 0.17702 0.58371 0.0
H736 H 0.87566 0.26983 0.5723 0.0
H737 H 0.92258 0.19818 0.53998 0.0
H738 H 0.89681 0.19935 0.51547 0.0
H739 H 0.88359 0.18301 0.54925 0.0
C740 C 0.81378 0.19103 0.51706 0.0
C741 C 0.79267 0.1796 0.5388 0.0
C742 C 0.84434 0.2087 0.52284 0.0
C743 C 0.8544 0.21539 0.55043 0.0
C744 C 0.83357 0.20328 0.57225 0.0
H745 H 0.03621 0.36035 0.59632 0.0
H746 H 0.98426 0.31917 0.6011 0.0
C747 C 0.80293 0.18527 0.5665 0.0
C748 C 0.88631 0.23732 0.55602 0.0
H749 H 0.95723 0.25086 0.54348 0.0
C750 C 0.89359 0.2656 0.56655 0.0
C751 C 0.9095 0.23164 0.54838 0.0
C752 C 0.90283 0.20131 0.53786 0.0
C753 C 0.92353 0.28902 0.56805 0.0
C754 C 0.94672 0.28369 0.55935 0.0
C755 C 0.93943 0.25493 0.55008 0.0
C756 C 0.97837 0.3082 0.5572 0.0
C757 C 0.92991 0.31968 0.57734 0.0
C758 C 0.99246 0.31524 0.5311 0.0
C759 C 0.02206 0.33843 0.52836 0.0
C760 C 0.03829 0.35515 0.5517 0.0
C761 C 0.02424 0.34799 0.57793 0.0
C762 C 0.99454 0.32457 0.58067 0.0
H763 H 0.90928 0.32147 0.57783 0.0
H764 H 0.9395 0.32412 0.59865 0.0
H765 H 0.9465 0.3374 0.56335 0.0
H766 H 0.98041 0.30293 0.51271 0.0
H767 H 0.03215 0.34334 0.50784 0.0
H768 H 0.61006 0.80628 0.49471 0.0
H769 H 0.62779 0.85879 0.5054 0.0
H770 H 0.62266 0.83947 0.5932 0.0
H771 H 0.60497 0.78655 0.58271 0.0
H772 H 0.59223 0.87639 0.53747 0.0
H773 H 0.70568 0.91736 0.58316 0.0
H774 H 0.68752 0.88417 0.56163 0.0
H775 H 0.67513 0.883 0.59674 0.0
C776 C 0.61318 0.81318 0.51633 0.0
C777 C 0.60594 0.79212 0.53786 0.0
C778 C 0.62328 0.84324 0.52238 0.0
C779 C 0.62651 0.853 0.55006 0.0
C780 C 0.62063 0.83243 0.57168 0.0
H781 H 0.66972 0.03649 0.59781 0.0
H782 H 0.65394 0.98295 0.60197 0.0
C783 C 0.61053 0.8022 0.56564 0.0
C784 C 0.63371 0.88418 0.55581 0.0
H785 H 0.68925 0.95247 0.57859 0.0
C786 C 0.6133 0.89295 0.54675 0.0
C787 C 0.66108 0.90563 0.56814 0.0
C788 C 0.68381 0.8973 0.5779 0.0
C789 C 0.62002 0.92284 0.54875 0.0
C790 C 0.64796 0.94455 0.55983 0.0
C791 C 0.66783 0.93564 0.57012 0.0
C792 C 0.65804 0.97689 0.55797 0.0
C793 C 0.59757 0.93127 0.53831 0.0
C794 C 0.66571 0.99101 0.53193 0.0
C795 C 0.67479 0.02138 0.5295 0.0
C796 C 0.67633 0.03826 0.55309 0.0
C797 C 0.66873 0.02407 0.57926 0.0
C798 C 0.6598 0.99358 0.5817 0.0
H799 H 0.5748 0.91133 0.5361 0.0
H800 H 0.59632 0.94757 0.5526 0.0
H801 H 0.60484 0.94211 0.5176 0.0
H802 H 0.66459 0.97846 0.51342 0.0
H803 H 0.68043 0.03154 0.50902 0.0
H804 H 0.80622 0.61426 0.49539 0.0
H805 H 0.77476 0.63629 0.50499 0.0
H806 H 0.78514 0.62892 0.59317 0.0
H807 H 0.817 0.60694 0.58378 0.0
H808 H 0.72313 0.60206 0.57149 0.0
H809 H 0.79641 0.72013 0.53818 0.0
H810 H 0.79494 0.69254 0.5143 0.0
H811 H 0.81099 0.69603 0.54825 0.0
C812 C 0.80226 0.61775 0.51685 0.0
C813 C 0.81412 0.60884 0.53882 0.0
C814 C 0.78436 0.63046 0.52229 0.0
C815 C 0.77783 0.63442 0.54977 0.0
C816 C 0.79013 0.62622 0.57182 0.0
H817 H 0.63487 0.6742 0.59542 0.0
H818 H 0.67532 0.66239 0.59991 0.0
C819 C 0.80841 0.61379 0.5664 0.0
C820 C 0.75621 0.64489 0.55504 0.0
H821 H 0.74405 0.70309 0.542 0.0
C822 C 0.72777 0.62431 0.56557 0.0
C823 C 0.76242 0.67387 0.54715 0.0
C824 C 0.79293 0.69707 0.53655 0.0
C825 C 0.70473 0.63139 0.5669 0.0
C826 C 0.71061 0.66008 0.55806 0.0
C827 C 0.73952 0.68109 0.54871 0.0
C828 C 0.68658 0.66795 0.55607 0.0
C829 C 0.67389 0.60751 0.57623 0.0
C830 C 0.67998 0.67575 0.53011 0.0
C831 C 0.65722 0.68282 0.52756 0.0
C832 C 0.64049 0.68225 0.55092 0.0
C833 C 0.64724 0.67467 0.577 0.0
C834 C 0.67024 0.66776 0.57958 0.0
H835 H 0.67154 0.58484 0.57639 0.0
H836 H 0.6698 0.61261 0.59768 0.0
H837 H 0.6563 0.60696 0.56246 0.0
H838 H 0.69227 0.67605 0.51169 0.0
H839 H 0.65263 0.68852 0.50714 0.0
H840 H 0.4574 0.26191 0.38257 0.0
H841 H 0.46169 0.24357 0.33691 0.0
H842 H 0.37644 0.23336 0.31295 0.0
H843 H 0.37161 0.2513 0.35851 0.0
H844 H 0.42455 0.18899 0.31063 0.0
H845 H 0.43069 0.28266 0.2487 0.0
H846 H 0.43568 0.2847 0.28599 0.0
H847 H 0.3986 0.2654 0.27125 0.0
C848 C 0.43927 0.25548 0.3679 0.0
C849 C 0.41394 0.25801 0.37469 0.0
C850 C 0.44195 0.24517 0.34155 0.0
C851 C 0.41964 0.2375 0.32122 0.0
C852 C 0.39432 0.23977 0.32797 0.0
H853 H 0.37516 0.12331 0.1771 0.0
H854 H 0.37899 0.14674 0.22208 0.0
C855 C 0.39156 0.24997 0.35423 0.0
C856 C 0.42227 0.22634 0.29323 0.0
H857 H 0.42132 0.23882 0.22333 0.0
C858 C 0.4241 0.20005 0.29156 0.0
C859 C 0.42216 0.24093 0.26825 0.0
C860 C 0.42198 0.27015 0.26854 0.0
C861 C 0.42463 0.18739 0.26572 0.0
C862 C 0.42291 0.20112 0.24075 0.0
C863 C 0.42229 0.22805 0.2424 0.0
C864 C 0.42068 0.18728 0.21287 0.0
C865 C 0.42707 0.15938 0.26541 0.0
C866 C 0.4424 0.20255 0.19216 0.0
C867 C 0.4403 0.18916 0.16612 0.0
C868 C 0.41616 0.16025 0.16006 0.0
C869 C 0.39424 0.1454 0.18083 0.0
C870 C 0.39642 0.15875 0.20676 0.0
H871 H 0.4368 0.15671 0.28511 0.0
H872 H 0.40434 0.1395 0.26303 0.0
H873 H 0.44114 0.15966 0.24775 0.0
H874 H 0.46131 0.22464 0.19633 0.0
H875 H 0.45801 0.20133 0.15114 0.0
H876 H 0.20268 0.42905 0.39184 0.0
H877 H 0.22669 0.43225 0.34687 0.0
H878 H 0.1499 0.42542 0.30425 0.0
H879 H 0.12585 0.42245 0.34889 0.0
H880 H 0.202 0.38763 0.3029 0.0
H881 H 0.22217 0.4987 0.26688 0.0
H882 H 0.21546 0.48739 0.30298 0.0
H883 H 0.18472 0.47341 0.27887 0.0
C884 C 0.19109 0.42883 0.37298 0.0
C885 C 0.16233 0.42578 0.37417 0.0
C886 C 0.20481 0.43045 0.34722 0.0
C887 C 0.19031 0.42947 0.32211 0.0
C888 C 0.1618 0.42674 0.32326 0.0
H889 H 0.22682 0.42748 0.14458 0.0
H890 H 0.20689 0.43024 0.19011 0.0
C891 C 0.14799 0.42484 0.3489 0.0
C892 C 0.20409 0.42969 0.29467 0.0
H893 H 0.22952 0.46884 0.23367 0.0
C894 C 0.20826 0.40551 0.28785 0.0
C895 C 0.21191 0.45282 0.27485 0.0
C896 C 0.20861 0.47971 0.28123 0.0
C897 C 0.21942 0.40347 0.26164 0.0
C898 C 0.22753 0.42675 0.24182 0.0
C899 C 0.22339 0.45099 0.24872 0.0
C900 C 0.24043 0.42635 0.21398 0.0
C901 C 0.22142 0.37583 0.25517 0.0
C902 C 0.26642 0.42403 0.21199 0.0
C903 C 0.27782 0.42235 0.18599 0.0
C904 C 0.26394 0.42352 0.16113 0.0
C905 C 0.23845 0.42687 0.16311 0.0
C906 C 0.22688 0.42829 0.18923 0.0
H907 H 0.20608 0.35659 0.26856 0.0
H908 H 0.21586 0.36908 0.23306 0.0
H909 H 0.24463 0.38062 0.25917 0.0
H910 H 0.27793 0.42341 0.23062 0.0
H911 H 0.29768 0.42017 0.1854 0.0
H912 H 0.87664 0.25219 0.17866 0.0
H913 H 0.85311 0.23213 0.22361 0.0
H914 H 0.77574 0.23781 0.19853 0.0
H915 H 0.79905 0.25795 0.15337 0.0
H916 H 0.83545 0.25718 0.26414 0.0
H917 H 0.73735 0.15177 0.22642 0.0
H918 H 0.76921 0.17486 0.20454 0.0
H919 H 0.74127 0.18533 0.21101 0.0
C920 C 0.85454 0.24911 0.18251 0.0
C921 C 0.83973 0.2564 0.16193 0.0
C922 C 0.8411 0.2376 0.20836 0.0
C923 C 0.81242 0.23298 0.21447 0.0
C924 C 0.79756 0.24042 0.19415 0.0
H925 H 0.73893 0.19972 0.38507 0.0
H926 H 0.75968 0.22253 0.33989 0.0
C927 C 0.81099 0.25192 0.16817 0.0
C928 C 0.79862 0.22096 0.24233 0.0
H929 H 0.73872 0.16219 0.27451 0.0
C930 C 0.81424 0.23645 0.26639 0.0
C931 C 0.77108 0.19373 0.24538 0.0
C932 C 0.75382 0.17525 0.22052 0.0
C933 C 0.80323 0.22549 0.29327 0.0
C934 C 0.77552 0.19845 0.29632 0.0
C935 C 0.75984 0.18302 0.27226 0.0
C936 C 0.76311 0.18495 0.32419 0.0
C937 C 0.8219 0.2425 0.31814 0.0
C938 C 0.75752 0.15595 0.33044 0.0
C939 C 0.74565 0.1428 0.3563 0.0
C940 C 0.73898 0.15823 0.37676 0.0
C941 C 0.74445 0.18729 0.37038 0.0
C942 C 0.7563 0.20043 0.34438 0.0
H943 H 0.84557 0.25838 0.31227 0.0
H944 H 0.81244 0.25568 0.32751 0.0
H945 H 0.82166 0.22688 0.33421 0.0
H946 H 0.76249 0.14346 0.31528 0.0
H947 H 0.7418 0.12043 0.36027 0.0
H948 H 0.57431 0.77487 0.39112 0.0
H949 H 0.57124 0.79546 0.34603 0.0
H950 H 0.57783 0.72511 0.30386 0.0
H951 H 0.58069 0.70422 0.34867 0.0
H952 H 0.6159 0.81483 0.30171 0.0
H953 H 0.50412 0.72405 0.26691 0.0
H954 H 0.51565 0.72915 0.30295 0.0
H955 H 0.52938 0.71195 0.27908 0.0
C956 C 0.57453 0.76337 0.37234 0.0
C957 C 0.57744 0.73758 0.37372 0.0
C958 C 0.57299 0.77535 0.3465 0.0
C959 C 0.5739 0.76164 0.32149 0.0
C960 C 0.57658 0.73584 0.32281 0.0
H961 H 0.57327 0.79955 0.14399 0.0
H962 H 0.57117 0.77687 0.18936 0.0
C963 C 0.57842 0.72404 0.34854 0.0
C964 C 0.57354 0.775 0.29399 0.0
H965 H 0.53351 0.76125 0.23358 0.0
C966 C 0.59778 0.80323 0.28688 0.0
C967 C 0.5501 0.75971 0.27448 0.0
C968 C 0.52317 0.72963 0.28119 0.0
C969 C 0.59953 0.81633 0.2607 0.0
C970 C 0.5759 0.80122 0.24122 0.0
C971 C 0.55162 0.77294 0.24838 0.0
C972 C 0.57591 0.81453 0.21348 0.0
C973 C 0.62722 0.84583 0.2539 0.0
C974 C 0.57849 0.84297 0.21169 0.0
C975 C 0.57981 0.85605 0.18577 0.0
C976 C 0.578 0.84086 0.16081 0.0
C977 C 0.57438 0.81189 0.16261 0.0
C978 C 0.57333 0.7989 0.18864 0.0
H979 H 0.64664 0.84956 0.26691 0.0
H980 H 0.63354 0.8469 0.23165 0.0
H981 H 0.62276 0.86443 0.25816 0.0
H982 H 0.5796 0.8552 0.2304 0.0
H983 H 0.58222 0.87819 0.18533 0.0
H984 H 0.70474 0.58296 0.18744 0.0
H985 H 0.72489 0.57942 0.23248 0.0
H986 H 0.79127 0.56577 0.19087 0.0
H987 H 0.7715 0.56953 0.14564 0.0
H988 H 0.73374 0.53094 0.25511 0.0
H989 H 0.83959 0.64005 0.24328 0.0
H990 H 0.80668 0.63012 0.22251 0.0
H991 H 0.82975 0.61398 0.21491 0.0
C992 C 0.72356 0.57908 0.18777 0.0
C993 C 0.7363 0.57642 0.16272 0.0
C994 C 0.73499 0.57695 0.21361 0.0
C995 C 0.75974 0.57256 0.21511 0.0
C996 C 0.77227 0.56938 0.19024 0.0
H997 H 0.87367 0.57877 0.35165 0.0
H998 H 0.85001 0.57507 0.3067 0.0
C999 C 0.76069 0.57124 0.16433 0.0
C1000 C 0.77282 0.57212 0.2427 0.0
H1001 H 0.83479 0.61188 0.28351 0.0
C1002 C 0.75584 0.54861 0.26137 0.0
C1003 C 0.80163 0.59517 0.25086 0.0
C1004 C 0.82051 0.62144 0.23201 0.0
C1005 C 0.76713 0.54723 0.28774 0.0
C1006 C 0.79589 0.57048 0.29606 0.0
C1007 C 0.81278 0.594 0.2773 0.0
C1008 C 0.80922 0.57088 0.32388 0.0
C1009 C 0.74839 0.52042 0.30605 0.0
C1010 C 0.79431 0.56973 0.34883 0.0
C1011 C 0.80775 0.57154 0.37477 0.0
C1012 C 0.83665 0.575 0.37635 0.0
C1013 C 0.85144 0.57615 0.35133 0.0
C1014 C 0.83791 0.57404 0.32551 0.0
H1015 H 0.7318 0.50085 0.29371 0.0
H1016 H 0.76265 0.51371 0.31785 0.0
H1017 H 0.73577 0.52619 0.32117 0.0
H1018 H 0.77257 0.56821 0.3483 0.0
H1019 H 0.79589 0.57128 0.39347 0.0
H1020 H 0.20063 0.77507 0.14386 0.0
H1021 H 0.22431 0.79493 0.1891 0.0
H1022 H 0.14661 0.72488 0.23074 0.0
H1023 H 0.12284 0.70474 0.18578 0.0
H1024 H 0.19907 0.81429 0.23376 0.0
H1025 H 0.21876 0.72233 0.26742 0.0
H1026 H 0.21274 0.72809 0.23144 0.0
H1027 H 0.18158 0.71081 0.25506 0.0
C1028 C 0.18874 0.76348 0.16255 0.0
C1029 C 0.15982 0.73801 0.16098 0.0
C1030 C 0.20227 0.77504 0.18847 0.0
C1031 C 0.18743 0.7612 0.21338 0.0
C1032 C 0.15874 0.73571 0.21187 0.0
H1033 H 0.22585 0.79685 0.39119 0.0
H1034 H 0.20527 0.77467 0.34563 0.0
C1035 C 0.1451 0.72433 0.18606 0.0
C1036 C 0.20115 0.77415 0.24097 0.0
H1037 H 0.227 0.75932 0.3011 0.0
C1038 C 0.20539 0.80238 0.24841 0.0
C1039 C 0.20904 0.75845 0.26026 0.0
C1040 C 0.20556 0.72833 0.25319 0.0
C1041 C 0.21674 0.8151 0.27471 0.0
C1042 C 0.22503 0.7996 0.29396 0.0
C1043 C 0.22076 0.77131 0.28647 0.0
C1044 C 0.23835 0.81252 0.32179 0.0
C1045 C 0.21879 0.84463 0.28186 0.0
C1046 C 0.26432 0.84087 0.32378 0.0
C1047 C 0.27605 0.85366 0.34978 0.0
C1048 C 0.26255 0.83825 0.37462 0.0
C1049 C 0.23715 0.80934 0.37263 0.0
C1050 C 0.22522 0.79665 0.34651 0.0
H1051 H 0.20321 0.84865 0.269 0.0
H1052 H 0.21358 0.8455 0.30416 0.0
H1053 H 0.24192 0.86316 0.27767 0.0
H1054 H 0.27553 0.85327 0.30515 0.0
H1055 H 0.29584 0.87576 0.35038 0.0
H1056 H 0.49139 0.71225 0.66719 0.0
H1057 H 0.50116 0.73766 0.71175 0.0
H1058 H 0.59256 0.75622 0.70937 0.0
H1059 H 0.58298 0.73045 0.66428 0.0
H1060 H 0.5186 0.72114 0.76042 0.0
H1061 H 0.60164 0.83847 0.7303 0.0
H1062 H 0.57829 0.81053 0.70499 0.0
H1063 H 0.60967 0.80958 0.72009 0.0
C1064 C 0.51372 0.72174 0.67588 0.0
C1065 C 0.53633 0.7191 0.6618 0.0
C1066 C 0.51927 0.73641 0.7015 0.0
C1067 C 0.54762 0.74907 0.71401 0.0
C1068 C 0.57059 0.74707 0.69999 0.0
H1069 H 0.58059 0.82556 0.88529 0.0
H1070 H 0.5895 0.80771 0.84078 0.0
C1071 C 0.56504 0.73229 0.6741 0.0
C1072 C 0.55197 0.76289 0.74226 0.0
H1073 H 0.58588 0.82997 0.77717 0.0
C1074 C 0.53365 0.74487 0.76412 0.0
C1075 C 0.5716 0.79388 0.74724 0.0
C1076 C 0.59136 0.81444 0.72447 0.0
C1077 C 0.53367 0.75705 0.79033 0.0
C1078 C 0.55235 0.78817 0.79498 0.0
C1079 C 0.57164 0.8061 0.7736 0.0
C1080 C 0.54946 0.80246 0.82092 0.0
C1081 C 0.51297 0.7367 0.81276 0.0
C1082 C 0.52444 0.8061 0.82432 0.0
C1083 C 0.51937 0.81641 0.84953 0.0
C1084 C 0.53918 0.82342 0.87218 0.0
C1085 C 0.56501 0.82088 0.86836 0.0
C1086 C 0.57008 0.8105 0.84292 0.0
H1087 H 0.50408 0.71262 0.80779 0.0
H1088 H 0.5248 0.7418 0.83308 0.0
H1089 H 0.4937 0.74056 0.81502 0.0
H1090 H 0.50828 0.80012 0.80764 0.0
H1091 H 0.49936 0.81821 0.85146 0.0
H1092 H 0.75669 0.58356 0.88695 0.0
H1093 H 0.78262 0.59362 0.84199 0.0
H1094 H 0.70835 0.51306 0.80828 0.0
H1095 H 0.6821 0.50326 0.85255 0.0
H1096 H 0.80134 0.55919 0.81495 0.0
H1097 H 0.72222 0.57223 0.74692 0.0
H1098 H 0.72058 0.57359 0.7844 0.0
H1099 H 0.7035 0.53805 0.76654 0.0
C1100 C 0.74546 0.56841 0.86979 0.0
C1101 C 0.71701 0.5427 0.87349 0.0
C1102 C 0.76049 0.57407 0.84409 0.0
C1103 C 0.74731 0.55439 0.82145 0.0
C1104 C 0.7188 0.52904 0.82506 0.0
H1105 H 0.81826 0.50211 0.68678 0.0
H1106 H 0.80223 0.51247 0.731 0.0
C1107 C 0.70387 0.52333 0.85061 0.0
C1108 C 0.76386 0.55879 0.79466 0.0
H1109 H 0.75569 0.5589 0.72397 0.0
C1110 C 0.79157 0.55963 0.79509 0.0
C1111 C 0.75154 0.5599 0.7686 0.0
C1112 C 0.72298 0.56123 0.76656 0.0
C1113 C 0.80629 0.55975 0.77031 0.0
C1114 C 0.79276 0.55847 0.74426 0.0
C1115 C 0.76598 0.55947 0.74382 0.0
C1116 C 0.80472 0.55375 0.7175 0.0
C1117 C 0.83609 0.56092 0.77234 0.0
C1118 C 0.81116 0.57322 0.6947 0.0
C1119 C 0.82029 0.56724 0.66902 0.0
C1120 C 0.82285 0.54141 0.66552 0.0
C1121 C 0.81669 0.52226 0.68856 0.0
C1122 C 0.80772 0.52829 0.71409 0.0
H1123 H 0.84799 0.57208 0.79189 0.0
H1124 H 0.83226 0.5377 0.77257 0.0
H1125 H 0.8508 0.57306 0.75439 0.0
H1126 H 0.8087 0.59285 0.69664 0.0
H1127 H 0.82416 0.58223 0.65173 0.0
H1128 H 0.17262 0.75656 0.88557 0.0
H1129 H 0.18844 0.78263 0.84066 0.0
H1130 H 0.19495 0.7086 0.80667 0.0
H1131 H 0.17853 0.68222 0.85085 0.0
H1132 H 0.24141 0.80184 0.81359 0.0
H1133 H 0.14994 0.72229 0.74522 0.0
H1134 H 0.14682 0.72039 0.78269 0.0
H1135 H 0.16557 0.70369 0.76472 0.0
C1136 C 0.17658 0.74541 0.86835 0.0
C1137 C 0.17391 0.71698 0.87196 0.0
C1138 C 0.18591 0.76052 0.84267 0.0
C1139 C 0.19246 0.74746 0.81995 0.0
C1140 C 0.18936 0.71897 0.82348 0.0
H1141 H 0.31681 0.81983 0.68617 0.0
H1142 H 0.29005 0.80367 0.73019 0.0
C1143 C 0.18017 0.70396 0.849 0.0
C1144 C 0.20464 0.76412 0.79318 0.0
H1145 H 0.19689 0.75591 0.72244 0.0
C1146 C 0.23136 0.79199 0.79369 0.0
C1147 C 0.19144 0.75174 0.76705 0.0
C1148 C 0.16168 0.72303 0.76487 0.0
C1149 C 0.24604 0.80681 0.76896 0.0
C1150 C 0.23407 0.79322 0.74285 0.0
C1151 C 0.20642 0.76626 0.74232 0.0
C1152 C 0.25095 0.80528 0.71615 0.0
C1153 C 0.27445 0.83682 0.77112 0.0
C1154 C 0.2379 0.81126 0.69307 0.0
C1155 C 0.25324 0.82044 0.66748 0.0
C1156 C 0.28189 0.82353 0.66433 0.0
C1157 C 0.2949 0.81785 0.68766 0.0
C1158 C 0.27967 0.80881 0.71309 0.0
H1159 H 0.27479 0.8487 0.79054 0.0
H1160 H 0.29401 0.83328 0.77171 0.0
H1161 H 0.27708 0.85141 0.75306 0.0
H1162 H 0.21563 0.80839 0.69473 0.0
H1163 H 0.2421 0.82394 0.64999 0.0
H1164 H 0.41388 0.17074 0.8849 0.0
H1165 H 0.4032 0.18593 0.83996 0.0
H1166 H 0.4864 0.1978 0.80717 0.0
H1167 H 0.49678 0.18182 0.85135 0.0
H1168 H 0.43427 0.23904 0.81366 0.0
H1169 H 0.43059 0.15165 0.74462 0.0
H1170 H 0.42903 0.14802 0.78204 0.0
H1171 H 0.46459 0.16906 0.7645 0.0
C1172 C 0.42954 0.17572 0.86796 0.0
C1173 C 0.45612 0.17462 0.87191 0.0
C1174 C 0.42349 0.1847 0.84224 0.0
C1175 C 0.4437 0.19255 0.81984 0.0
C1176 C 0.46998 0.19114 0.82371 0.0
H1177 H 0.48989 0.31836 0.68798 0.0
H1178 H 0.48034 0.29102 0.73152 0.0
C1179 C 0.47603 0.18222 0.84925 0.0
C1180 C 0.43876 0.20433 0.79305 0.0
H1181 H 0.44142 0.19815 0.7223 0.0
C1182 C 0.43533 0.22976 0.79371 0.0
C1183 C 0.43953 0.19206 0.76684 0.0
C1184 C 0.4408 0.16349 0.76444 0.0
C1185 C 0.43448 0.24417 0.76908 0.0
C1186 C 0.43777 0.23333 0.74294 0.0
C1187 C 0.43934 0.20686 0.74223 0.0
C1188 C 0.44194 0.25031 0.71644 0.0
C1189 C 0.4303 0.27109 0.7714 0.0
C1190 C 0.42395 0.23653 0.6929 0.0
C1191 C 0.42956 0.25218 0.66755 0.0
C1192 C 0.45352 0.28192 0.66511 0.0
C1193 C 0.47118 0.29559 0.68888 0.0
C1194 C 0.46556 0.28002 0.71405 0.0
H1195 H 0.41767 0.26995 0.79056 0.0
H1196 H 0.45262 0.29174 0.77267 0.0
H1197 H 0.41817 0.27297 0.7531 0.0
H1198 H 0.40578 0.2135 0.69404 0.0
H1199 H 0.41579 0.24052 0.64972 0.0
H1200 H 0.31746 0.4982 0.85009 0.0
H1201 H 0.29168 0.48777 0.80554 0.0
H1202 H 0.21822 0.40631 0.83889 0.0
H1203 H 0.24364 0.417 0.88415 0.0
H1204 H 0.27241 0.44057 0.76888 0.0
H1205 H 0.17542 0.44916 0.80863 0.0
H1206 H 0.20907 0.46123 0.82885 0.0
H1207 H 0.18229 0.42197 0.8254 0.0
C1208 C 0.29584 0.47794 0.8481 0.0
C1209 C 0.28277 0.45852 0.87098 0.0
C1210 C 0.28113 0.47196 0.82244 0.0
C1211 C 0.25274 0.44649 0.81879 0.0
C1212 C 0.23987 0.42642 0.84123 0.0
H1213 H 0.14267 0.41552 0.66613 0.0
H1214 H 0.15972 0.4052 0.71051 0.0
C1215 C 0.2547 0.43237 0.86708 0.0
C1216 C 0.23694 0.44182 0.7915 0.0
H1217 H 0.1772 0.44219 0.76047 0.0
C1218 C 0.25139 0.44054 0.76713 0.0
C1219 C 0.2094 0.44165 0.78903 0.0
C1220 C 0.19313 0.44379 0.81428 0.0
C1221 C 0.23969 0.44012 0.74054 0.0
C1222 C 0.21295 0.44141 0.73803 0.0
C1223 C 0.19767 0.44118 0.76236 0.0
C1224 C 0.20254 0.44644 0.71057 0.0
C1225 C 0.25643 0.43889 0.71526 0.0
C1226 C 0.22075 0.47304 0.69587 0.0
C1227 C 0.21111 0.479 0.67072 0.0
C1228 C 0.18292 0.45852 0.65935 0.0
C1229 C 0.16468 0.43162 0.67393 0.0
C1230 C 0.17432 0.42578 0.69943 0.0
H1231 H 0.27063 0.42888 0.7203 0.0
H1232 H 0.24072 0.42567 0.69827 0.0
H1233 H 0.27138 0.46203 0.70753 0.0
H1234 H 0.24237 0.48958 0.70415 0.0
H1235 H 0.22586 0.49992 0.6602 0.0
H1236 H 0.82578 0.24154 0.88607 0.0
H1237 H 0.81165 0.21707 0.84028 0.0
H1238 H 0.80661 0.29243 0.80766 0.0
H1239 H 0.82118 0.31712 0.85274 0.0
H1240 H 0.75893 0.19993 0.81086 0.0
H1241 H 0.85565 0.28093 0.74807 0.0
H1242 H 0.85661 0.28053 0.78564 0.0
H1243 H 0.83982 0.29923 0.76776 0.0
C1244 C 0.82245 0.25327 0.86899 0.0
C1245 C 0.82499 0.28157 0.87318 0.0
C1246 C 0.81409 0.2391 0.84282 0.0
C1247 C 0.80849 0.25306 0.82027 0.0
C1248 C 0.81144 0.2814 0.82441 0.0
H1249 H 0.72565 0.22671 0.66385 0.0
H1250 H 0.75237 0.24211 0.70797 0.0
C1251 C 0.81959 0.29544 0.8504 0.0
C1252 C 0.79772 0.23768 0.7928 0.0
H1253 H 0.80989 0.24949 0.72274 0.0
C1254 C 0.7704 0.21039 0.7916 0.0
C1255 C 0.81267 0.2512 0.76758 0.0
C1256 C 0.84297 0.27943 0.7673 0.0
C1257 C 0.75673 0.19743 0.76594 0.0
C1258 C 0.77088 0.21195 0.74077 0.0
C1259 C 0.79892 0.23838 0.74199 0.0
C1260 C 0.75553 0.20208 0.71324 0.0
C1261 C 0.72641 0.16924 0.76592 0.0
C1262 C 0.74869 0.17449 0.70107 0.0
C1263 C 0.73334 0.16552 0.67548 0.0
C1264 C 0.7244 0.18395 0.66168 0.0
C1265 C 0.73186 0.21174 0.67385 0.0
C1266 C 0.7473 0.22071 0.69912 0.0
H1267 H 0.71668 0.16293 0.78716 0.0
H1268 H 0.71055 0.17217 0.75243 0.0
H1269 H 0.72863 0.15043 0.75732 0.0
H1270 H 0.75508 0.15984 0.71142 0.0
H1271 H 0.7278 0.14388 0.66698 0.0
H1272 H 0.71795 0.22736 0.01983 0.0
H1273 H 0.66803 0.21272 0.03741 0.0
H1274 H 0.7056 0.25215 0.1171 0.0
H1275 H 0.75598 0.26737 0.09955 0.0
H1276 H 0.64259 0.17442 0.08546 0.0
H1277 H 0.64758 0.28465 0.0966 0.0
H1278 H 0.67332 0.28024 0.07422 0.0
H1279 H 0.67707 0.27973 0.11126 0.0
C1280 C 0.71572 0.23318 0.04102 0.0
C1281 C 0.74088 0.24833 0.05833 0.0
C1282 C 0.68718 0.22482 0.05103 0.0
C1283 C 0.68322 0.23144 0.0785 0.0
C1284 C 0.70828 0.24713 0.09576 0.0
H1285 H 0.48943 0.12266 0.09848 0.0
H1286 H 0.53881 0.15131 0.12104 0.0
C1287 C 0.73697 0.25562 0.08571 0.0
C1288 C 0.65239 0.22003 0.08894 0.0
H1289 H 0.60016 0.24125 0.09962 0.0
C1290 C 0.63325 0.18889 0.08929 0.0
C1291 C 0.64068 0.23919 0.0942 0.0
C1292 C 0.66056 0.27285 0.09405 0.0
C1293 C 0.60214 0.17627 0.09176 0.0
C1294 C 0.58997 0.19549 0.09487 0.0
C1295 C 0.60953 0.2266 0.09741 0.0
C1296 C 0.55802 0.18459 0.08826 0.0
C1297 C 0.58265 0.14274 0.08801 0.0
C1298 C 0.55168 0.19552 0.06398 0.0
C1299 C 0.52358 0.17964 0.05159 0.0
C1300 C 0.5012 0.1529 0.06348 0.0
C1301 C 0.50637 0.14354 0.08926 0.0
C1302 C 0.53457 0.15973 0.10195 0.0
H1303 H 0.59589 0.13181 0.08248 0.0
H1304 H 0.57053 0.1325 0.10767 0.0
H1305 H 0.56584 0.13762 0.07134 0.0
H1306 H 0.56932 0.21455 0.05295 0.0
H1307 H 0.52039 0.18663 0.03121 0.0
H1308 H 0.44797 0.73022 0.02383 0.0
H1309 H 0.41354 0.68081 0.04354 0.0
H1310 H 0.46411 0.70585 0.12003 0.0
H1311 H 0.49835 0.7555 0.1007 0.0
H1312 H 0.45811 0.65384 0.09249 0.0
H1313 H 0.35096 0.64929 0.11006 0.0
H1314 H 0.36153 0.65959 0.07441 0.0
H1315 H 0.38475 0.68393 0.10199 0.0
C1316 C 0.45145 0.72536 0.04499 0.0
C1317 C 0.47602 0.74651 0.06058 0.0
C1318 C 0.43163 0.69729 0.05633 0.0
C1319 C 0.43623 0.68987 0.0833 0.0
C1320 C 0.46007 0.71133 0.0993 0.0
H1321 H 0.36465 0.49616 0.09809 0.0
H1322 H 0.38097 0.54474 0.12116 0.0
C1323 C 0.47963 0.73958 0.08815 0.0
C1324 C 0.41884 0.65839 0.09272 0.0
H1325 H 0.34696 0.60026 0.09681 0.0
C1326 C 0.43386 0.64206 0.0944 0.0
C1327 C 0.38735 0.64339 0.09551 0.0
C1328 C 0.37035 0.66016 0.09562 0.0
C1329 C 0.41796 0.61063 0.09534 0.0
C1330 C 0.38615 0.5953 0.0953 0.0
C1331 C 0.3713 0.61194 0.09678 0.0
C1332 C 0.36867 0.56347 0.08662 0.0
C1333 C 0.43539 0.59424 0.09326 0.0
C1334 C 0.35441 0.55725 0.06063 0.0
C1335 C 0.34496 0.52976 0.04781 0.0
C1336 C 0.34891 0.50772 0.06097 0.0
C1337 C 0.36096 0.51281 0.08789 0.0
C1338 C 0.37041 0.54052 0.1009 0.0
H1339 H 0.45984 0.60979 0.09051 0.0
H1340 H 0.43217 0.58116 0.11258 0.0
H1341 H 0.42723 0.57839 0.07544 0.0
H1342 H 0.35298 0.57458 0.04909 0.0
H1343 H 0.33668 0.52659 0.02663 0.0
H1344 H 0.87418 0.37888 0.09081 0.0
H1345 H 0.84164 0.3969 0.1087 0.0
H1346 H 0.76855 0.33089 0.05892 0.0
H1347 H 0.80233 0.31627 0.03827 0.0
H1348 H 0.78116 0.38226 0.04353 0.0
H1349 H 0.77457 0.38426 0.15785 0.0
H1350 H 0.81297 0.40033 0.14742 0.0
H1351 H 0.78686 0.36137 0.14007 0.0
C1352 C 0.85075 0.36733 0.08479 0.0
C1353 C 0.84029 0.34511 0.06414 0.0
C1354 C 0.83201 0.37743 0.09524 0.0
C1355 C 0.80239 0.36503 0.08547 0.0
C1356 C 0.79114 0.34057 0.06709 0.0
H1357 H 0.70507 0.46335 0.06906 0.0
H1358 H 0.71268 0.42105 0.07883 0.0
C1359 C 0.81023 0.3315 0.05579 0.0
C1360 C 0.78652 0.38231 0.08811 0.0
H1361 H 0.77145 0.42452 0.13308 0.0
C1362 C 0.77816 0.39063 0.06328 0.0
C1363 C 0.78289 0.39367 0.11376 0.0
C1364 C 0.78954 0.38413 0.14125 0.0
C1365 C 0.76801 0.41121 0.06317 0.0
C1366 C 0.76611 0.42389 0.08859 0.0
C1367 C 0.7731 0.41474 0.11363 0.0
C1368 C 0.75978 0.4488 0.08864 0.0
C1369 C 0.76106 0.42062 0.03565 0.0
C1370 C 0.78358 0.47828 0.09169 0.0
C1371 C 0.77933 0.50248 0.08597 0.0
C1372 C 0.75119 0.4975 0.07707 0.0
C1373 C 0.72702 0.4679 0.07558 0.0
C1374 C 0.73127 0.44372 0.08135 0.0
H1375 H 0.76701 0.41114 1.01759 0.0
H1376 H 0.73672 0.41282 0.03453 0.0
H1377 H 0.77342 0.44547 0.0338 0.0
H1378 H 0.80581 0.48252 0.09709 0.0
H1379 H 0.79834 0.52501 0.08761 0.0
H1380 H 0.47307 0.81225 0.02638 0.0
H1381 H 0.42474 0.78045 0.04823 0.0
H1382 H 0.45463 0.83607 0.12179 0.0
H1383 H 0.50352 0.86852 0.09928 0.0
H1384 H 0.39848 0.74738 0.09484 0.0
H1385 H 0.39033 0.85167 0.09288 0.0
H1386 H 0.4217 0.85073 0.0774 0.0
H1387 H 0.41852 0.85137 0.11463 0.0
C1388 C 0.46979 0.81687 0.04771 0.0
C1389 C 0.49194 0.84231 0.06145 0.0
C1390 C 0.44211 0.79876 0.06019 0.0
C1391 C 0.43584 0.80615 0.08647 0.0
C1392 C 0.45887 0.83026 0.1013 0.0
H1393 H 0.24379 0.74416 0.10013 0.0
H1394 H 0.29326 0.7589 0.11945 0.0
C1395 C 0.48676 0.84861 0.08861 0.0
C1396 C 0.40396 0.79178 0.09504 0.0
H1397 H 0.34598 0.80605 0.09333 0.0
C1398 C 0.38703 0.76025 0.09542 0.0
C1399 C 0.38893 0.80853 0.0959 0.0
C1400 C 0.40564 0.84242 0.09507 0.0
C1401 C 0.35562 0.74517 0.09374 0.0
C1402 C 0.34096 0.76204 0.09176 0.0
C1403 C 0.35752 0.7933 0.09461 0.0
C1404 C 0.30966 0.74863 0.08202 0.0
C1405 C 0.3386 0.71141 0.0925 0.0
C1406 C 0.30258 0.73781 0.05463 0.0
C1407 C 0.27461 0.72994 0.04333 0.0
C1408 C 0.25323 0.73255 0.05935 0.0
C1409 C 0.25988 0.742 0.08724 0.0
C1410 C 0.28803 0.75032 0.09838 0.0
H1411 H 0.34875 0.70212 0.1069 0.0
H1412 H 0.31461 0.70189 0.09812 0.0
H1413 H 0.34001 0.70409 0.07109 0.0
H1414 H 0.31921 0.73676 0.04159 0.0
H1415 H 0.26999 0.72246 0.0219 0.0
H1416 H 0.53184 0.27303 1.01348 0.0
H1417 H 0.56641 0.32353 0.03061 0.0
H1418 H 0.54666 0.29173 0.11523 0.0
H1419 H 0.51209 0.2409 0.09838 0.0
H1420 H 0.53698 0.34739 0.0779 0.0
H1421 H 0.64649 0.35387 0.09857 0.0
H1422 H 0.62326 0.33075 0.07036 0.0
H1423 H 0.6111 0.32023 0.10557 0.0
C1424 C 0.5352 0.27659 0.03571 0.0
C1425 C 0.51893 0.25309 0.05456 0.0
C1426 C 0.55505 0.30539 0.04544 0.0
C1427 C 0.55901 0.31112 0.07411 0.0
C1428 C 0.54397 0.28754 0.09303 0.0
H1429 H 0.62689 0.50309 0.09698 0.0
H1430 H 0.60777 0.45258 0.1167 0.0
C1431 C 0.52416 0.25862 0.08332 0.0
C1432 C 0.57563 0.34246 0.08371 0.0
H1433 H 0.64648 0.39988 0.096 0.0
C1434 C 0.56077 0.35895 0.08265 0.0
C1435 C 0.6065 0.35698 0.08991 0.0
C1436 C 0.62299 0.3397 0.09132 0.0
C1437 C 0.57654 0.39025 0.08512 0.0
C1438 C 0.60799 0.40527 0.08954 0.0
C1439 C 0.62238 0.38834 0.09292 0.0
C1440 C 0.62667 0.43789 0.08419 0.0
C1441 C 0.55976 0.40695 0.08021 0.0
C1442 C 0.64564 0.44704 0.06092 0.0
C1443 C 0.65733 0.47593 0.05039 0.0
C1444 C 0.65008 0.4961 0.06282 0.0
C1445 C 0.63312 0.48793 0.08741 0.0
C1446 C 0.62198 0.45907 0.09844 0.0
H1447 H 0.5363 0.39187 0.07325 0.0
H1448 H 0.55893 0.41788 0.09982 0.0
H1449 H 0.57129 0.42463 0.06418 0.0
H1450 H 0.64944 0.4311 0.04945 0.0
H1451 H 0.66969 0.48149 0.03095 0.0
H1452 H 0.27878 0.54936 0.02132 0.0
H1453 H 0.26407 0.58421 0.04046 0.0
H1454 H 0.24056 0.53595 0.11826 0.0
H1455 H 0.25572 0.50132 0.09951 0.0
H1456 H 0.19378 0.54143 0.09054 0.0
H1457 H 0.29736 0.648 0.10669 0.0
H1458 H 0.29619 0.63778 0.07082 0.0
H1459 H 0.29777 0.61419 0.09778 0.0
C1460 C 0.27091 0.54646 0.04262 0.0
C1461 C 0.26804 0.52245 0.05879 0.0
C1462 C 0.26281 0.56651 0.05362 0.0
C1463 C 0.25147 0.56269 0.08082 0.0
C1464 C 0.24954 0.53937 0.09733 0.0
H1465 H 0.13075 0.63551 0.09887 0.0
H1466 H 0.16324 0.61879 0.1207 0.0
C1467 C 0.2581 0.51958 0.08651 0.0
C1468 C 0.23779 0.58045 0.09016 0.0
H1469 H 0.25235 0.65259 0.09431 0.0
C1470 C 0.20648 0.56569 0.09229 0.0
C1471 C 0.25461 0.61196 0.09266 0.0
C1472 C 0.28839 0.62874 0.09207 0.0
C1473 C 0.19122 0.58183 0.09355 0.0
C1474 C 0.20798 0.61365 0.09349 0.0
C1475 C 0.23948 0.62825 0.09435 0.0
C1476 C 0.19368 0.63142 0.08562 0.0
C1477 C 0.15736 0.56464 0.09193 0.0
C1478 C 0.20141 0.6461 0.0598 0.0
C1479 C 0.18328 0.65586 0.04773 0.0
C1480 C 0.1575 0.65175 0.06144 0.0
C1481 C 0.15093 0.63932 0.08825 0.0
C1482 C 0.1693 0.62962 0.10054 0.0
H1483 H 0.14823 0.5402 0.08878 0.0
H1484 H 0.14786 0.56763 0.11159 0.0
H1485 H 0.14949 0.57315 0.07453 0.0
H1486 H 0.21995 0.64762 0.0478 0.0
H1487 H 0.1881 0.66443 0.02662 0.0
H1488 H 0.8744 0.5075 0.43932 0.0
H1489 H 0.84486 0.45933 0.41501 0.0
H1490 H 0.78128 0.42743 0.48292 0.0
H1491 H 0.81032 0.47501 0.50645 0.0
H1492 H 0.84284 0.41346 0.43569 0.0
H1493 H 0.72503 0.38078 0.42336 0.0
H1494 H 0.75342 0.41961 0.42831 0.0
H1495 H 0.73484 0.3956 0.45784 0.0
C1496 C 0.85322 0.49059 0.4481 0.0
C1497 C 0.84395 0.49502 0.47423 0.0
C1498 C 0.83638 0.46313 0.43431 0.0
C1499 C 0.81046 0.4397 0.44683 0.0
C1500 C 0.80036 0.44521 0.47211 0.0
H1501 H 0.78142 0.2841 0.51088 0.0
H1502 H 0.79599 0.33335 0.49168 0.0
C1503 C 0.81705 0.47251 0.4857 0.0
C1504 C 0.79848 0.40804 0.43813 0.0
H1505 H 0.73403 0.34039 0.44385 0.0
C1506 C 0.81894 0.39758 0.4363 0.0
C1507 C 0.76733 0.38697 0.4382 0.0
C1508 C 0.74404 0.39653 0.43672 0.0
C1509 C 0.80932 0.36697 0.43853 0.0
C1510 C 0.77862 0.34647 0.44327 0.0
C1511 C 0.75774 0.35632 0.4412 0.0
C1512 C 0.76878 0.31621 0.45455 0.0
C1513 C 0.83242 0.35711 0.43777 0.0
C1514 C 0.74778 0.29025 0.4405 0.0
C1515 C 0.73927 0.26192 0.45154 0.0
C1516 C 0.75145 0.25924 0.47692 0.0
C1517 C 0.7718 0.28535 0.49123 0.0
C1518 C 0.7803 0.31353 0.48018 0.0
H1519 H 0.85187 0.37237 0.42455 0.0
H1520 H 0.84092 0.35787 0.45915 0.0
H1521 H 0.8227 0.33385 0.42972 0.0
H1522 H 0.73837 0.29191 0.42086 0.0
H1523 H 0.72335 0.24218 0.4401 0.0
H1524 H 0.37002 0.87472 0.43814 0.0
H1525 H 0.38806 0.84486 0.41329 0.0
H1526 H 0.35544 0.78047 0.48048 0.0
H1527 H 0.33837 0.8103 0.50496 0.0
H1528 H 0.43147 0.83993 0.4354 0.0
H1529 H 0.34143 0.72519 0.41706 0.0
H1530 H 0.33353 0.7552 0.42296 0.0
H1531 H 0.33615 0.73418 0.45188 0.0
C1532 C 0.36556 0.85341 0.44672 0.0
C1533 C 0.35181 0.84397 0.47282 0.0
C1534 C 0.37577 0.83638 0.43259 0.0
C1535 C 0.37247 0.80996 0.44464 0.0
C1536 C 0.35723 0.79997 0.47008 0.0
H1537 H 0.48388 0.76544 0.51296 0.0
H1538 H 0.4507 0.78152 0.49288 0.0
C1539 C 0.3474 0.81704 0.48415 0.0
C1540 C 0.3908 0.79681 0.43519 0.0
H1541 H 0.38875 0.72959 0.4388 0.0
C1542 C 0.42205 0.81579 0.43484 0.0
C1543 C 0.37878 0.76537 0.4339 0.0
C1544 C 0.34556 0.74396 0.43118 0.0
C1545 C 0.44134 0.80414 0.43746 0.0
C1546 C 0.42898 0.77289 0.44077 0.0
C1547 C 0.39808 0.75367 0.43709 0.0
C1548 C 0.44713 0.76081 0.45279 0.0
C1549 C 0.4747 0.82551 0.43919 0.0
C1550 C 0.45518 0.74302 0.4371 0.0
C1551 C 0.47421 0.73374 0.44855 0.0
C1552 C 0.48524 0.74207 0.47588 0.0
C1553 C 0.47598 0.75882 0.49183 0.0
C1554 C 0.4571 0.76809 0.48037 0.0
H1555 H 0.48115 0.8469 0.42821 0.0
H1556 H 0.48127 0.83083 0.46137 0.0
H1557 H 0.48743 0.81537 0.43013 0.0
H1558 H 0.44741 0.73698 0.41586 0.0
H1559 H 0.48073 0.72057 0.43583 0.0
H1560 H 0.7241 0.46598 0.52517 0.0
H1561 H 0.6738 0.43046 0.50834 0.0
H1562 H 0.70652 0.44487 0.42393 0.0
H1563 H 0.75718 0.48044 0.44053 0.0
H1564 H 0.65004 0.45673 0.46048 0.0
H1565 H 0.64426 0.34702 0.44244 0.0
H1566 H 0.66937 0.37277 0.46838 0.0
H1567 H 0.67679 0.38199 0.43223 0.0
C1568 C 0.72079 0.46125 0.50309 0.0
C1569 C 0.74448 0.47641 0.48415 0.0
C1570 C 0.69209 0.44087 0.49353 0.0
C1571 C 0.68665 0.43518 0.46496 0.0
C1572 C 0.71046 0.44894 0.44607 0.0
H1573 H 0.49529 0.36687 0.43914 0.0
H1574 H 0.54585 0.38496 0.42001 0.0
C1575 C 0.73927 0.46936 0.45561 0.0
C1576 C 0.65537 0.41824 0.4552 0.0
H1577 H 0.59839 0.34715 0.44275 0.0
C1578 C 0.63869 0.4329 0.45585 0.0
C1579 C 0.64109 0.38734 0.44911 0.0
C1580 C 0.65862 0.3711 0.44791 0.0
C1581 C 0.60745 0.41696 0.453 0.0
C1582 C 0.59266 0.3855 0.44868 0.0
C1583 C 0.60978 0.37126 0.44579 0.0
C1584 C 0.55999 0.36676 0.45358 0.0
C1585 C 0.59049 0.43358 0.45735 0.0
C1586 C 0.55051 0.34843 0.47729 0.0
C1587 C 0.52157 0.33727 0.48749 0.0
C1588 C 0.5017 0.34447 0.47431 0.0
C1589 C 0.51015 0.36059 0.44925 0.0
C1590 C 0.53906 0.37117 0.43856 0.0
H1591 H 0.60535 0.45714 0.46418 0.0
H1592 H 0.57971 0.43413 0.43754 0.0
H1593 H 0.57265 0.42209 0.47325 0.0
H1594 H 0.56625 0.34481 0.48929 0.0
H1595 H 0.51573 0.3255 0.50725 0.0
H1596 H 0.27982 0.7271 0.51486 0.0
H1597 H 0.2676 0.6783 0.49575 0.0
H1598 H 0.25565 0.70621 0.41444 0.0
H1599 H 0.26817 0.75529 0.43332 0.0
H1600 H 0.20482 0.65542 0.43717 0.0
H1601 H 0.30451 0.64169 0.4424 0.0
H1602 H 0.3 0.65923 0.47293 0.0
H1603 H 0.30704 0.67789 0.43983 0.0
C1604 C 0.27519 0.72309 0.49281 0.0
C1605 C 0.27442 0.74481 0.47571 0.0
C1606 C 0.26862 0.69534 0.48182 0.0
C1607 C 0.26107 0.6888 0.4536 0.0
C1608 C 0.26177 0.71098 0.43618 0.0
H1609 H 0.13351 0.49594 0.43681 0.0
H1610 H 0.16901 0.54418 0.41465 0.0
C1611 C 0.26871 0.7389 0.44708 0.0
C1612 C 0.24696 0.65729 0.44414 0.0
H1613 H 0.2563 0.59636 0.44746 0.0
C1614 C 0.21613 0.64246 0.43846 0.0
C1615 C 0.26194 0.64068 0.4456 0.0
C1616 C 0.2953 0.65573 0.45028 0.0
C1617 C 0.1991 0.61104 0.43782 0.0
C1618 C 0.21367 0.59417 0.4421 0.0
C1619 C 0.24512 0.60925 0.44433 0.0
C1620 C 0.19659 0.56252 0.45149 0.0
C1621 C 0.16538 0.59642 0.43573 0.0
C1622 C 0.20155 0.55615 0.47871 0.0
C1623 C 0.18184 0.52882 0.49097 0.0
C1624 C 0.15695 0.50719 0.4762 0.0
C1625 C 0.1528 0.51246 0.44838 0.0
C1626 C 0.1729 0.53995 0.43587 0.0
H1627 H 0.15767 0.61309 0.43564 0.0
H1628 H 0.15763 0.58333 0.41614 0.0
H1629 H 0.15444 0.58084 0.45345 0.0
H1630 H 0.21954 0.57311 0.49126 0.0
H1631 H 0.18511 0.5252 0.51261 0.0
H1632 H 0.4713 0.19641 0.45543 0.0
H1633 H 0.51425 0.18993 0.44529 0.0
H1634 H 0.57277 0.2859 0.44542 0.0
H1635 H 0.52979 0.29261 0.45504 0.0
H1636 H 0.56936 0.22269 0.40104 0.0
H1637 H 0.59212 0.2434 0.51488 0.0
H1638 H 0.55506 0.23058 0.5011 0.0
H1639 H 0.58454 0.26817 0.49438 0.0
C1640 C 0.49318 0.21618 0.45279 0.0
C1641 C 0.49735 0.24506 0.4568 0.0
C1642 C 0.51763 0.21243 0.44677 0.0
C1643 C 0.54652 0.23745 0.44464 0.0
C1644 C 0.55054 0.26636 0.44692 0.0
H1645 H 0.68077 0.19852 0.49842 0.0
H1646 H 0.66648 0.23173 0.47587 0.0
C1647 C 0.52607 0.27013 0.45283 0.0
C1648 C 0.57253 0.23284 0.4448 0.0
H1649 H 0.61735 0.22362 0.49075 0.0
C1650 C 0.58048 0.22347 0.42045 0.0
C1651 C 0.58714 0.23437 0.47007 0.0
C1652 C 0.57943 0.24462 0.49671 0.0
C1653 C 0.60188 0.21411 0.42108 0.0
C1654 C 0.6146 0.21311 0.44692 0.0
C1655 C 0.60785 0.22438 0.47084 0.0
C1656 C 0.63125 0.19672 0.45102 0.0
C1657 C 0.61014 0.20496 0.39419 0.0
C1658 C 0.61805 0.16647 0.44291 0.0
C1659 C 0.62791 0.14797 0.45439 0.0
C1660 C 0.65066 0.15926 0.47453 0.0
C1661 C 0.66498 0.1898 0.48135 0.0
C1662 C 0.65611 0.20861 0.46899 0.0
H1663 H 0.61001 0.21898 0.37667 0.0
H1664 H 0.63262 0.20696 0.39532 0.0
H1665 H 0.59317 0.18133 0.38941 0.0
H1666 H 0.59824 0.1563 0.4299 0.0
H1667 H 0.61586 0.12422 0.44952 0.0
H1668 H 0.49846 0.62938 0.43807 0.0
H1669 H 0.44991 0.61474 0.41608 0.0
H1670 H 0.42902 0.65681 0.48347 0.0
H1671 H 0.47705 0.67158 0.50466 0.0
H1672 H 0.40361 0.5757 0.44134 0.0
H1673 H 0.38209 0.66873 0.42559 0.0
H1674 H 0.41978 0.6747 0.4271 0.0
H1675 H 0.40036 0.67455 0.45851 0.0
C1676 C 0.48402 0.63683 0.44714 0.0
C1677 C 0.49162 0.65229 0.47252 0.0
C1678 C 0.45634 0.62849 0.43466 0.0
C1679 C 0.43579 0.63501 0.44782 0.0
C1680 C 0.44461 0.6524 0.47218 0.0
H1681 H 0.27693 0.5275 0.52064 0.0
H1682 H 0.32649 0.56288 0.50211 0.0
C1683 C 0.47214 0.66076 0.48445 0.0
C1684 C 0.40329 0.61752 0.4412 0.0
H1685 H 0.33994 0.62262 0.44781 0.0
C1686 C 0.38975 0.58609 0.44151 0.0
C1687 C 0.38484 0.63072 0.44112 0.0
C1688 C 0.39766 0.66406 0.43774 0.0
C1689 C 0.3588 0.56786 0.44527 0.0
C1690 C 0.34107 0.5814 0.44914 0.0
C1691 C 0.35385 0.61244 0.44555 0.0
C1692 C 0.31055 0.56385 0.46069 0.0
C1693 C 0.34557 0.53432 0.44735 0.0
C1694 C 0.28526 0.55359 0.44364 0.0
C1695 C 0.25686 0.53323 0.45414 0.0
C1696 C 0.25351 0.52297 0.48183 0.0
C1697 C 0.27878 0.53478 0.49922 0.0
C1698 C 0.30707 0.55501 0.48869 0.0
H1699 H 0.3603 0.52692 0.43746 0.0
H1700 H 0.34283 0.52773 0.46963 0.0
H1701 H 0.32312 0.52233 0.43737 0.0
H1702 H 0.28763 0.56032 0.422 0.0
H1703 H 0.2377 0.52481 0.44033 0.0
H1704 H 0.48804 0.10963 0.95901 0.0
H1705 H 0.49835 0.07215 0.93892 0.0
H1706 H 0.44191 0.00867 1.00143 0.0
H1707 H 0.42992 0.04533 0.01981 0.0
H1708 H 0.52943 0.05452 0.96212 0.0
H1709 H 0.42414 0.95034 0.94285 0.0
H1710 H 0.42473 0.98534 0.948 0.0
H1711 H 0.42166 0.96193 0.97734 0.0
C1712 C 0.47601 0.08701 0.96702 0.0
C1713 C 0.45735 0.08018 0.99043 0.0
C1714 C 0.48249 0.06563 0.95593 0.0
C1715 C 0.47094 0.03719 0.96843 0.0
C1716 C 0.4505 0.0298 0.99056 0.0
H1717 H 0.56341 0.95189 0.02097 0.0
H1718 H 0.55176 0.98885 1.00271 0.0
C1719 C 0.44354 0.0509 1.00115 0.0
C1720 C 0.48386 0.01742 0.96194 0.0
H1721 H 0.46547 0.94383 0.96114 0.0
C1722 C 0.51529 0.03032 0.96113 0.0
C1723 C 0.46593 0.9858 0.9597 0.0
C1724 C 0.43227 0.97022 0.95668 0.0
C1725 C 0.52903 0.01258 0.96054 0.0
C1726 C 0.51103 0.98092 0.96223 0.0
C1727 C 0.47964 0.96804 0.96058 0.0
C1728 C 0.52374 0.96101 0.96891 0.0
C1729 C 0.56277 0.02821 0.95841 0.0
C1730 C 0.51259 0.93283 0.95598 0.0
C1731 C 0.51882 0.91127 0.96701 0.0
C1732 C 0.53691 0.91766 0.99077 0.0
C1733 C 0.55029 0.94668 1.00203 0.0
C1734 C 0.54353 0.96795 0.9915 0.0
H1735 H 0.57134 0.04837 0.9449 0.0
H1736 H 0.5727 0.03606 0.97936 0.0
H1737 H 0.57058 0.01326 0.94984 0.0
H1738 H 0.49721 0.92666 0.93861 0.0
H1739 H 0.50708 0.88883 0.95856 0.0
H1740 H 0.38184 0.49628 0.95862 0.0
H1741 H 0.42983 0.50671 0.93894 0.0
H1742 H 0.43479 0.44762 0.99975 0.0
H1743 H 0.38582 0.43542 1.01757 0.0
H1744 H 0.47786 0.53661 0.96307 0.0
H1745 H 0.47663 0.43172 0.94109 0.0
H1746 H 0.4422 0.43229 0.94612 0.0
H1747 H 0.46192 0.42824 0.97545 0.0
C1748 C 0.39202 0.48371 0.96627 0.0
C1749 C 0.37947 0.46417 0.98901 0.0
C1750 C 0.41998 0.49025 0.95544 0.0
C1751 C 0.43637 0.478 0.96764 0.0
C1752 C 0.42265 0.45678 0.98909 0.0
H1753 H 0.61259 0.56781 0.02366 0.0
H1754 H 0.56444 0.55682 1.00478 0.0
C1755 C 0.39441 0.44969 0.99936 0.0
C1756 C 0.46919 0.49099 0.96167 0.0
H1757 H 0.52425 0.47242 0.96045 0.0
C1758 C 0.48783 0.52242 0.96171 0.0
C1759 C 0.48281 0.47304 0.95899 0.0
C1760 C 0.46468 0.43949 0.95506 0.0
C1761 C 0.51931 0.53608 0.96154 0.0
C1762 C 0.53283 0.51795 0.96277 0.0
C1763 C 0.51428 0.48664 0.96025 0.0
C1764 C 0.56527 0.53038 0.97001 0.0
C1765 C 0.53758 0.56988 0.96039 0.0
C1766 C 0.5827 0.51992 0.95673 0.0
C1767 C 0.61031 0.52586 0.96803 0.0
C1768 C 0.62125 0.5428 0.99253 0.0
C1769 C 0.60521 0.55553 1.00424 0.0
C1770 C 0.57745 0.54916 0.99335 0.0
H1771 H 0.52632 0.57896 0.94708 0.0
H1772 H 0.53931 0.57913 0.98161 0.0
H1773 H 0.56049 0.5779 0.9521 0.0
H1774 H 0.57398 0.50532 0.93877 0.0
H1775 H 0.62141 0.51473 0.95913 0.0
H1776 H 0.94932 0.38498 0.02593 0.0
H1777 H 0.98623 0.43418 1.00839 0.0
H1778 H 0.92763 0.42361 0.93982 0.0
H1779 H 0.88968 0.37518 0.95881 0.0
H1780 H 0.01909 0.46323 0.96741 0.0
H1781 H 0.93006 0.494 0.97454 0.0
H1782 H 0.92373 0.45779 0.98519 0.0
H1783 H 0.92331 0.46611 0.94881 0.0
C1784 C 0.94483 0.39257 1.00643 0.0
C1785 C 0.91664 0.37604 0.99368 0.0
C1786 C 0.9659 0.42097 0.99648 0.0
C1787 C 0.95938 0.43344 0.97333 0.0
C1788 C 0.93281 0.41519 0.95838 0.0
H1789 H 0.10836 0.62025 0.95809 0.0
H1790 H 0.07062 0.57155 0.93957 0.0
C1791 C 0.91135 0.38695 0.96879 0.0
C1792 C 0.97895 0.46629 0.96735 0.0
H1793 H 0.97866 0.53267 0.96553 0.0
C1794 C 0.01021 0.47839 0.96669 0.0
C1795 C 0.9675 0.48632 0.96662 0.0
C1796 C 0.93438 0.47552 0.96906 0.0
C1797 C 0.03023 0.50958 0.96729 0.0
C1798 C 0.01879 0.52963 0.96694 0.0
C1799 C 0.98754 0.5175 0.96565 0.0
C1800 C 0.03827 0.56261 0.97234 0.0
C1801 C 0.06329 0.52042 0.97053 0.0
C1802 C 0.03138 0.57567 0.99478 0.0
C1803 C 0.05234 0.60428 1.00437 0.0
C1804 C 0.08079 0.62042 0.992 0.0
C1805 C 0.08649 0.60886 0.96773 0.0
C1806 C 0.06513 0.58044 0.95762 0.0
H1807 H 0.06746 0.50206 0.97688 0.0
H1808 H 0.0748 0.52934 0.95034 0.0
H1809 H 0.07362 0.53852 0.98634 0.0
H1810 H 0.01081 0.56278 1.00648 0.0
H1811 H 0.04753 0.61233 0.02344 0.0
H1812 H 0.88624 0.50595 0.57813 0.0
H1813 H 0.92368 0.49538 0.5978 0.0
H1814 H 0.98811 0.55495 0.53743 0.0
H1815 H 0.95145 0.56722 0.5196 0.0
H1816 H 0.94201 0.46566 0.57347 0.0
H1817 H 0.0455 0.57045 0.59626 0.0
H1818 H 0.01051 0.56987 0.59116 0.0
H1819 H 0.03447 0.57418 0.5619 0.0
C1820 C 0.90903 0.51859 0.57059 0.0
C1821 C 0.91614 0.53825 0.54793 0.0
C1822 C 0.9304 0.51196 0.58141 0.0
C1823 C 0.95911 0.5243 0.56931 0.0
C1824 C 0.96675 0.5457 0.548 0.0
H1825 H 0.04628 0.43454 0.51378 0.0
H1826 H 0.00885 0.4454 0.53224 0.0
C1827 C 0.94565 0.55284 0.53774 0.0
C1828 C 0.97893 0.51129 0.57522 0.0
H1829 H 0.05258 0.52995 0.57671 0.0
C1830 C 0.96616 0.47986 0.57496 0.0
C1831 C 0.01049 0.52925 0.57806 0.0
C1832 C 0.02586 0.56277 0.5822 0.0
C1833 C 0.98401 0.46622 0.57512 0.0
C1834 C 0.01568 0.4844 0.57409 0.0
C1835 C 0.02838 0.51569 0.57676 0.0
C1836 C 0.03583 0.47205 0.56706 0.0
C1837 C 0.96848 0.43242 0.57612 0.0
C1838 C 0.06367 0.48269 0.58048 0.0
C1839 C 0.08551 0.47689 0.56938 0.0
C1840 C 0.07973 0.45981 0.54499 0.0
C1841 C 0.05101 0.44689 0.53315 0.0
C1842 C 0.02947 0.4532 0.5438 0.0
H1843 H 0.94801 0.42323 0.58928 0.0
H1844 H 0.96114 0.42328 0.55484 0.0
H1845 H 0.98331 0.42437 0.58448 0.0
H1846 H 0.06938 0.49733 0.59839 0.0
H1847 H 0.1077 0.48817 0.57839 0.0
H1848 H 0.61924 0.1099 0.57983 0.0
H1849 H 0.57178 0.0703 0.59883 0.0
H1850 H 0.56535 0.01237 0.53099 0.0
H1851 H 0.61363 0.05103 0.51354 0.0
H1852 H 0.52246 0.05316 0.57695 0.0
H1853 H 0.52698 0.94954 0.5862 0.0
H1854 H 0.56075 0.98536 0.58222 0.0
H1855 H 0.54015 0.96392 0.55208 0.0
C1856 C 0.60879 0.088 0.5702 0.0
C1857 C 0.62068 0.0833 0.54565 0.0
C1858 C 0.58117 0.06543 0.58073 0.0
C1859 C 0.56458 0.03793 0.56657 0.0
C1860 C 0.57768 0.03268 0.5431 0.0
H1861 H 0.38407 0.95084 0.51954 0.0
H1862 H 0.43294 0.988 0.53722 0.0
C1863 C 0.60551 0.05493 0.53303 0.0
C1864 C 0.53209 0.01701 0.57315 0.0
H1865 H 0.47823 0.94295 0.57094 0.0
C1866 C 0.51297 0.02903 0.57639 0.0
C1867 C 0.51917 0.98538 0.57332 0.0
C1868 C 0.53801 0.97044 0.57361 0.0
C1869 C 0.48155 0.01055 0.57753 0.0
C1870 C 0.46854 0.97913 0.57397 0.0
C1871 C 0.48773 0.967 0.57302 0.0
C1872 C 0.43572 0.95883 0.56821 0.0
C1873 C 0.46284 0.02519 0.58238 0.0
C1874 C 0.42 0.92987 0.57988 0.0
C1875 C 0.39209 0.90825 0.56913 0.0
C1876 C 0.37889 0.91533 0.54699 0.0
C1877 C 0.39312 0.94503 0.5373 0.0
C1878 C 0.42133 0.9664 0.54747 0.0
H1879 H 0.47453 0.04462 0.59672 0.0
H1880 H 0.45967 0.03397 0.56235 0.0
H1881 H 0.44054 0.00929 0.59134 0.0
H1882 H 0.43035 0.9232 0.59584 0.0
H1883 H 0.38255 0.88535 0.57621 0.0
H1884 H 0.56971 0.62268 0.53617 0.0
H1885 H 0.55743 0.57276 0.55308 0.0
H1886 H 0.47011 0.55594 0.57851 0.0
H1887 H 0.482 0.60518 0.5612 0.0
H1888 H 0.52019 0.52962 0.60879 0.0
H1889 H 0.46733 0.50427 0.50362 0.0
H1890 H 0.49879 0.54067 0.512 0.0
H1891 H 0.4624 0.52961 0.52592 0.0
C1892 C 0.54871 0.60914 0.54708 0.0
C1893 C 0.52714 0.61823 0.54802 0.0
C1894 C 0.54156 0.58044 0.55646 0.0
C1895 C 0.51278 0.56058 0.56698 0.0
C1896 C 0.49252 0.57096 0.57075 0.0
H1897 H 0.41839 0.36745 0.54044 0.0
H1898 H 0.42657 0.41569 0.55821 0.0
C1899 C 0.49954 0.59939 0.56117 0.0
C1900 C 0.50166 0.52778 0.56824 0.0
H1901 H 0.46278 0.46393 0.52968 0.0
C1902 C 0.50755 0.51516 0.59159 0.0
C1903 C 0.48482 0.50889 0.54595 0.0
C1904 C 0.47792 0.52135 0.52032 0.0
C1905 C 0.49727 0.48409 0.59302 0.0
C1906 C 0.48117 0.46529 0.57028 0.0
C1907 C 0.47479 0.47804 0.54728 0.0
C1908 C 0.47351 0.43322 0.56808 0.0
C1909 C 0.50363 0.47175 0.61897 0.0
C1910 C 0.4965 0.42612 0.56923 0.0
C1911 C 0.4916 0.39841 0.55956 0.0
C1912 C 0.46368 0.37713 0.54844 0.0
C1913 C 0.43982 0.38295 0.54974 0.0
C1914 C 0.4447 0.41079 0.5595 0.0
H1915 H 0.50516 0.48536 0.6375 0.0
H1916 H 0.48605 0.44808 0.62276 0.0
H1917 H 0.52556 0.47275 0.61664 0.0
H1918 H 0.51908 0.443 0.57497 0.0
H1919 H 0.51066 0.39494 0.55798 0.0
loop_
_geom_bond_atom_site_label_1
_geom_bond_atom_site_label_2
_geom_bond_distance
_geom_bond_site_symmetry_2
_ccdc_geom_bond_type
Zn0 N4 2.020 . S
Zn0 O8 2.019 . S
Zn0 N10 2.119 . S
Zn0 O18 1.975 . S
C1 N2 1.343 . S
C1 N5 1.336 . S
N2 C1 1.343 . S
N2 C3 1.325 1_554 S
C3 N2 1.325 1_556 S
C3 N4 1.336 . S
N4 Zn0 2.020 . S
N4 C3 1.336 . S
N4 N5 1.354 1_556 S
N5 C1 1.336 . S
N5 N4 1.354 1_554 S
N5 Zn9 2.020 . S
C6 O7 1.244 1_554 S
C6 O30 1.257 . S
O7 C6 1.244 1_556 S
O8 Zn0 2.019 . S
O8 C28 1.257 . S
Zn9 N5 2.020 . S
Zn9 O16 1.975 . S
Zn9 N25 2.119 . S
Zn9 O30 2.019 . S
N10 Zn0 2.119 . S
N10 C12 1.334 . S
N10 C13 1.328 . S
C11 C12 1.391 . S
C11 N14 1.329 . S
C11 H32 0.930 . S
C12 N10 1.334 . S
C12 C11 1.391 . S
C12 H19 0.930 . S
C13 N10 1.328 . S
C13 C15 1.392 . S
C13 H20 0.930 . S
N14 C11 1.329 . S
N14 C15 1.331 . S
C15 C13 1.392 . S
C15 N14 1.331 . S
O16 Zn9 1.975 . S
O16 C17 1.251 1_554 S
C17 O16 1.251 1_556 S
C17 O18 1.253 . S
O18 Zn0 1.975 . S
O18 C17 1.253 . S
H19 C12 0.930 . S
H20 C13 0.930 . S
C21 C22 1.392 . S
C21 N25 1.328 . S
C21 H27 0.930 . S
C22 C21 1.392 . S
C22 N26 1.331 . S
C23 C24 1.391 . S
C23 N26 1.329 . S
C23 H33 0.930 . S
C24 C23 1.391 . S
C24 N25 1.334 . S
C24 H31 0.930 . S
N25 Zn9 2.119 . S
N25 C21 1.328 . S
N25 C24 1.334 . S
N26 C22 1.331 . S
N26 C23 1.329 . S
H27 C21 0.930 . S
C28 O8 1.257 . S
C28 O29 1.244 1_556 S
O29 C28 1.244 1_554 S
O30 C6 1.257 . S
O30 Zn9 2.019 . S
H31 C24 0.930 . S
H32 C11 0.930 . S
H33 C23 0.930 . S
Zn34 N38 2.020 . S
Zn34 O42 2.019 . S
Zn34 N44 2.119 . S
Zn34 O52 1.975 . S
C35 N36 1.325 1_556 S
C35 N39 1.336 . S
N36 C35 1.325 1_554 S
N36 C37 1.343 . S
C37 N36 1.343 . S
C37 N38 1.336 . S
N38 Zn34 2.020 . S
N38 C37 1.336 . S
N38 N39 1.354 1_554 S
N39 C35 1.336 . S
N39 N38 1.354 1_556 S
N39 Zn43 2.020 . S
C40 O41 1.244 1_556 S
C40 O64 1.257 . S
O41 C40 1.244 1_554 S
O42 Zn34 2.019 . S
O42 C62 1.257 . S
Zn43 N39 2.020 . S
Zn43 O50 1.975 . S
Zn43 N59 2.119 . S
Zn43 O64 2.019 . S
N44 Zn34 2.119 . S
N44 C46 1.334 . S
N44 C47 1.328 . S
C45 C46 1.391 . S
C45 N48 1.329 . S
C45 H66 0.930 . S
C46 N44 1.334 . S
C46 C45 1.391 . S
C46 H53 0.930 . S
C47 N44 1.328 . S
C47 C49 1.392 . S
C47 H54 0.930 . S
N48 C45 1.329 . S
N48 C49 1.331 . S
C49 C47 1.392 . S
C49 N48 1.331 . S
O50 Zn43 1.975 . S
O50 C51 1.253 . S
C51 O50 1.253 . S
C51 O52 1.251 1_556 S
O52 Zn34 1.975 . S
O52 C51 1.251 1_554 S
H53 C46 0.930 . S
H54 C47 0.930 . S
C55 C56 1.392 . S
C55 N59 1.328 . S
C55 H61 0.930 . S
C56 C55 1.392 . S
C56 N60 1.331 . S
C57 C58 1.391 . S
C57 N60 1.329 . S
C57 H67 0.930 . S
C58 C57 1.391 . S
C58 N59 1.334 . S
C58 H65 0.930 . S
N59 Zn43 2.119 . S
N59 C55 1.328 . S
N59 C58 1.334 . S
N60 C56 1.331 . S
N60 C57 1.329 . S
H61 C55 0.930 . S
C62 O42 1.257 . S
C62 O63 1.244 1_554 S
O63 C62 1.244 1_556 S
O64 C40 1.257 . S
O64 Zn43 2.019 . S
H65 C58 0.930 . S
H66 C45 0.930 . S
H67 C57 0.930 . S
Zn68 N72 2.020 . S
Zn68 O76 2.019 . S
Zn68 N78 2.119 . S
Zn68 O86 1.975 . S
C69 N70 1.343 . S
C69 N73 1.336 . S
N70 C69 1.343 . S
N70 C71 1.325 1_554 S
C71 N70 1.325 1_556 S
C71 N72 1.336 . S
N72 Zn68 2.020 . S
N72 C71 1.336 . S
N72 N73 1.354 1_556 S
N73 C69 1.336 . S
N73 N72 1.354 1_554 S
N73 Zn77 2.020 . S
C74 O75 1.244 1_554 S
C74 O98 1.257 . S
O75 C74 1.244 1_556 S
O76 Zn68 2.019 . S
O76 C96 1.257 . S
Zn77 N73 2.020 . S
Zn77 O84 1.975 . S
Zn77 N93 2.119 . S
Zn77 O98 2.019 . S
N78 Zn68 2.119 . S
N78 C80 1.334 . S
N78 C81 1.328 . S
C79 C80 1.391 . S
C79 N82 1.329 . S
C79 H100 0.930 . S
C80 N78 1.334 . S
C80 C79 1.391 . S
C80 H87 0.930 . S
C81 N78 1.328 . S
C81 C83 1.392 . S
C81 H88 0.930 . S
N82 C79 1.329 . S
N82 C83 1.331 . S
C83 C81 1.392 . S
C83 N82 1.331 . S
O84 Zn77 1.975 . S
O84 C85 1.251 1_554 S
C85 O84 1.251 1_556 S
C85 O86 1.253 . S
O86 Zn68 1.975 . S
O86 C85 1.253 . S
H87 C80 0.930 . S
H88 C81 0.930 . S
C89 C90 1.392 . S
C89 N93 1.328 . S
C89 H95 0.930 . S
C90 C89 1.392 . S
C90 N94 1.331 . S
C91 C92 1.391 . S
C91 N94 1.329 . S
C91 H101 0.930 . S
C92 C91 1.391 . S
C92 N93 1.334 . S
C92 H99 0.930 . S
N93 Zn77 2.119 . S
N93 C89 1.328 . S
N93 C92 1.334 . S
N94 C90 1.331 . S
N94 C91 1.329 . S
H95 C89 0.930 . S
C96 O76 1.257 . S
C96 O97 1.244 1_556 S
O97 C96 1.244 1_554 S
O98 C74 1.257 . S
O98 Zn77 2.019 . S
H99 C92 0.930 . S
H100 C79 0.930 . S
H101 C91 0.930 . S
Zn102 N106 2.020 . S
Zn102 O110 2.019 . S
Zn102 N112 2.119 . S
Zn102 O120 1.975 . S
C103 N104 1.325 1_556 S
C103 N107 1.336 . S
N104 C103 1.325 1_554 S
N104 C105 1.343 . S
C105 N104 1.343 . S
C105 N106 1.336 . S
N106 Zn102 2.020 . S
N106 C105 1.336 . S
N106 N107 1.354 1_554 S
N107 C103 1.336 . S
N107 N106 1.354 1_556 S
N107 Zn111 2.020 . S
C108 O109 1.244 1_556 S
C108 O132 1.257 . S
O109 C108 1.244 1_554 S
O110 Zn102 2.019 . S
O110 C130 1.257 . S
Zn111 N107 2.020 . S
Zn111 O118 1.975 . S
Zn111 N127 2.119 . S
Zn111 O132 2.019 . S
N112 Zn102 2.119 . S
N112 C114 1.334 . S
N112 C115 1.328 . S
C113 C114 1.391 . S
C113 N116 1.329 . S
C113 H134 0.930 . S
C114 N112 1.334 . S
C114 C113 1.391 . S
C114 H121 0.930 . S
C115 N112 1.328 . S
C115 C117 1.392 . S
C115 H122 0.930 . S
N116 C113 1.329 . S
N116 C117 1.331 . S
C117 C115 1.392 . S
C117 N116 1.331 . S
O118 Zn111 1.975 . S
O118 C119 1.253 . S
C119 O118 1.253 . S
C119 O120 1.251 1_556 S
O120 Zn102 1.975 . S
O120 C119 1.251 1_554 S
H121 C114 0.930 . S
H122 C115 0.930 . S
C123 C124 1.392 . S
C123 N127 1.328 . S
C123 H129 0.930 . S
C124 C123 1.392 . S
C124 N128 1.331 . S
C125 C126 1.391 . S
C125 N128 1.329 . S
C125 H135 0.930 . S
C126 C125 1.391 . S
C126 N127 1.334 . S
C126 H133 0.930 . S
N127 Zn111 2.119 . S
N127 C123 1.328 . S
N127 C126 1.334 . S
N128 C124 1.331 . S
N128 C125 1.329 . S
H129 C123 0.930 . S
C130 O110 1.257 . S
C130 O131 1.244 1_554 S
O131 C130 1.244 1_556 S
O132 C108 1.257 . S
O132 Zn111 2.019 . S
H133 C126 0.930 . S
H134 C113 0.930 . S
H135 C125 0.930 . S
Zn136 N140 2.020 . S
Zn136 O144 2.019 . S
Zn136 N146 2.119 . S
Zn136 O154 1.975 . S
C137 N138 1.343 . S
C137 N141 1.336 . S
N138 C137 1.343 . S
N138 C139 1.325 1_554 S
C139 N138 1.325 1_556 S
C139 N140 1.336 . S
N140 Zn136 2.020 . S
N140 C139 1.336 . S
N140 N141 1.354 1_556 S
N141 C137 1.336 . S
N141 N140 1.354 1_554 S
N141 Zn145 2.020 . S
C142 O143 1.244 1_554 S
C142 O166 1.257 . S
O143 C142 1.244 1_556 S
O144 Zn136 2.019 . S
O144 C164 1.257 . S
Zn145 N141 2.020 . S
Zn145 O152 1.975 . S
Zn145 N161 2.119 . S
Zn145 O166 2.019 . S
N146 Zn136 2.119 . S
N146 C148 1.334 . S
N146 C149 1.328 . S
C147 C148 1.391 . S
C147 N150 1.329 . S
C147 H168 0.930 . S
C148 N146 1.334 . S
C148 C147 1.391 . S
C148 H155 0.930 . S
C149 N146 1.328 . S
C149 C151 1.392 . S
C149 H156 0.930 . S
N150 C147 1.329 . S
N150 C151 1.331 . S
C151 C149 1.392 . S
C151 N150 1.331 . S
O152 Zn145 1.975 . S
O152 C153 1.251 1_554 S
C153 O152 1.251 1_556 S
C153 O154 1.253 . S
O154 Zn136 1.975 . S
O154 C153 1.253 . S
H155 C148 0.930 . S
H156 C149 0.930 . S
C157 C158 1.392 . S
C157 N161 1.328 . S
C157 H163 0.930 . S
C158 C157 1.392 . S
C158 N162 1.331 . S
C159 C160 1.391 . S
C159 N162 1.329 . S
C159 H169 0.930 . S
C160 C159 1.391 . S
C160 N161 1.334 . S
C160 H167 0.930 . S
N161 Zn145 2.119 . S
N161 C157 1.328 . S
N161 C160 1.334 . S
N162 C158 1.331 . S
N162 C159 1.329 . S
H163 C157 0.930 . S
C164 O144 1.257 . S
C164 O165 1.244 1_556 S
O165 C164 1.244 1_554 S
O166 C142 1.257 . S
O166 Zn145 2.019 . S
H167 C160 0.930 . S
H168 C147 0.930 . S
H169 C159 0.930 . S
Zn170 N174 2.020 . S
Zn170 O178 2.019 . S
Zn170 N180 2.119 . S
Zn170 O188 1.975 . S
C171 N172 1.325 1_556 S
C171 N175 1.336 . S
N172 C171 1.325 1_554 S
N172 C173 1.343 . S
C173 N172 1.343 . S
C173 N174 1.336 . S
N174 Zn170 2.020 . S
N174 C173 1.336 . S
N174 N175 1.354 1_554 S
N175 C171 1.336 . S
N175 N174 1.354 1_556 S
N175 Zn179 2.020 . S
C176 O177 1.244 1_556 S
C176 O200 1.257 . S
O177 C176 1.244 1_554 S
O178 Zn170 2.019 . S
O178 C198 1.257 . S
Zn179 N175 2.020 . S
Zn179 O186 1.975 . S
Zn179 N195 2.119 . S
Zn179 O200 2.019 . S
N180 Zn170 2.119 . S
N180 C182 1.334 . S
N180 C183 1.328 . S
C181 C182 1.391 . S
C181 N184 1.329 . S
C181 H202 0.930 . S
C182 N180 1.334 . S
C182 C181 1.391 . S
C182 H189 0.930 . S
C183 N180 1.328 . S
C183 C185 1.392 . S
C183 H190 0.930 . S
N184 C181 1.329 . S
N184 C185 1.331 . S
C185 C183 1.392 . S
C185 N184 1.331 . S
O186 Zn179 1.975 . S
O186 C187 1.253 . S
C187 O186 1.253 . S
C187 O188 1.251 1_556 S
O188 Zn170 1.975 . S
O188 C187 1.251 1_554 S
H189 C182 0.930 . S
H190 C183 0.930 . S
C191 C192 1.392 . S
C191 N195 1.328 . S
C191 H197 0.930 . S
C192 C191 1.392 . S
C192 N196 1.331 . S
C193 C194 1.391 . S
C193 N196 1.329 . S
C193 H203 0.930 . S
C194 C193 1.391 . S
C194 N195 1.334 . S
C194 H201 0.930 . S
N195 Zn179 2.119 . S
N195 C191 1.328 . S
N195 C194 1.334 . S
N196 C192 1.331 . S
N196 C193 1.329 . S
H197 C191 0.930 . S
C198 O178 1.257 . S
C198 O199 1.244 1_554 S
O199 C198 1.244 1_556 S
O200 C176 1.257 . S
O200 Zn179 2.019 . S
H201 C194 0.930 . S
H202 C181 0.930 . S
H203 C193 0.930 . S
Zn204 N208 2.020 . S
Zn204 O212 2.019 . S
Zn204 N214 2.119 . S
Zn204 O222 1.975 . S
C205 N206 1.334 . S
C205 N209 1.336 . S
N206 C205 1.334 . S
N206 C207 1.334 . S
C207 N206 1.334 . S
C207 N208 1.336 . S
N208 Zn204 2.020 . S
N208 C207 1.336 . S
N208 N209 1.354 . S
N209 C205 1.336 . S
N209 N208 1.354 . S
N209 Zn213 2.020 . S
C210 O211 1.244 . S
C210 O234 1.257 . S
O211 C210 1.244 . S
O212 Zn204 2.019 . S
O212 C232 1.257 . S
Zn213 N209 2.020 . S
Zn213 O220 1.975 . S
Zn213 N229 2.119 . S
Zn213 O234 2.019 . S
N214 Zn204 2.119 . S
N214 C216 1.334 . S
N214 C217 1.328 . S
C215 C216 1.391 . S
C215 N218 1.329 . S
C215 H236 0.930 . S
C216 N214 1.334 . S
C216 C215 1.391 . S
C216 H223 0.930 . S
C217 N214 1.328 . S
C217 C219 1.392 . S
C217 H224 0.930 . S
N218 C215 1.329 . S
N218 C219 1.331 . S
C219 C217 1.392 . S
C219 N218 1.331 . S
O220 Zn213 1.975 . S
O220 C221 1.252 . S
C221 O220 1.252 . S
C221 O222 1.252 . S
O222 Zn204 1.975 . S
O222 C221 1.252 . S
H223 C216 0.930 . S
H224 C217 0.930 . S
C225 C226 1.392 . S
C225 N229 1.328 . S
C225 H231 0.930 . S
C226 C225 1.392 . S
C226 N230 1.331 . S
C227 C228 1.391 . S
C227 N230 1.329 . S
C227 H237 0.930 . S
C228 C227 1.391 . S
C228 N229 1.334 . S
C228 H235 0.930 . S
N229 Zn213 2.119 . S
N229 C225 1.328 . S
N229 C228 1.334 . S
N230 C226 1.331 . S
N230 C227 1.329 . S
H231 C225 0.930 . S
C232 O212 1.257 . S
C232 O233 1.244 . S
O233 C232 1.244 . S
O234 C210 1.257 . S
O234 Zn213 2.019 . S
H235 C228 0.930 . S
H236 C215 0.930 . S
H237 C227 0.930 . S
Zn238 N242 2.020 . S
Zn238 O246 2.019 . S
Zn238 N248 2.119 . S
Zn238 O256 1.975 . S
C239 N240 1.334 . S
C239 N243 1.336 . S
N240 C239 1.334 . S
N240 C241 1.334 . S
C241 N240 1.334 . S
C241 N242 1.336 . S
N242 Zn238 2.020 . S
N242 C241 1.336 . S
N242 N243 1.354 . S
N243 C239 1.336 . S
N243 N242 1.354 . S
N243 Zn247 2.020 . S
C244 O245 1.244 . S
C244 O268 1.257 . S
O245 C244 1.244 . S
O246 Zn238 2.019 . S
O246 C266 1.257 . S
Zn247 N243 2.020 . S
Zn247 O254 1.975 . S
Zn247 N263 2.119 . S
Zn247 O268 2.019 . S
N248 Zn238 2.119 . S
N248 C250 1.334 . S
N248 C251 1.328 . S
C249 C250 1.391 . S
C249 N252 1.329 . S
C249 H270 0.930 . S
C250 N248 1.334 . S
C250 C249 1.391 . S
C250 H257 0.930 . S
C251 N248 1.328 . S
C251 C253 1.392 . S
C251 H258 0.930 . S
N252 C249 1.329 . S
N252 C253 1.331 . S
C253 C251 1.392 . S
C253 N252 1.331 . S
O254 Zn247 1.975 . S
O254 C255 1.252 . S
C255 O254 1.252 . S
C255 O256 1.252 . S
O256 Zn238 1.975 . S
O256 C255 1.252 . S
H257 C250 0.930 . S
H258 C251 0.930 . S
C259 C260 1.392 . S
C259 N263 1.328 . S
C259 H265 0.930 . S
C260 C259 1.392 . S
C260 N264 1.331 . S
C261 C262 1.391 . S
C261 N264 1.329 . S
C261 H271 0.930 . S
C262 C261 1.391 . S
C262 N263 1.334 . S
C262 H269 0.930 . S
N263 Zn247 2.119 . S
N263 C259 1.328 . S
N263 C262 1.334 . S
N264 C260 1.331 . S
N264 C261 1.329 . S
H265 C259 0.930 . S
C266 O246 1.257 . S
C266 O267 1.244 . S
O267 C266 1.244 . S
O268 C244 1.257 . S
O268 Zn247 2.019 . S
H269 C262 0.930 . S
H270 C249 0.930 . S
H271 C261 0.930 . S
Zn272 N276 2.020 . S
Zn272 O280 2.019 . S
Zn272 N282 2.119 . S
Zn272 O290 1.975 . S
C273 N274 1.334 . S
C273 N277 1.336 . S
N274 C273 1.334 . S
N274 C275 1.334 . S
C275 N274 1.334 . S
C275 N276 1.336 . S
N276 Zn272 2.020 . S
N276 C275 1.336 . S
N276 N277 1.354 . S
N277 C273 1.336 . S
N277 N276 1.354 . S
N277 Zn281 2.020 . S
C278 O279 1.244 . S
C278 O302 1.257 . S
O279 C278 1.244 . S
O280 Zn272 2.019 . S
O280 C300 1.257 . S
Zn281 N277 2.020 . S
Zn281 O288 1.975 . S
Zn281 N297 2.119 . S
Zn281 O302 2.019 . S
N282 Zn272 2.119 . S
N282 C284 1.334 . S
N282 C285 1.328 . S
C283 C284 1.391 . S
C283 N286 1.329 . S
C283 H304 0.930 . S
C284 N282 1.334 . S
C284 C283 1.391 . S
C284 H291 0.930 . S
C285 N282 1.328 . S
C285 C287 1.392 . S
C285 H292 0.930 . S
N286 C283 1.329 . S
N286 C287 1.331 . S
C287 C285 1.392 . S
C287 N286 1.331 . S
O288 Zn281 1.975 . S
O288 C289 1.252 . S
C289 O288 1.252 . S
C289 O290 1.252 . S
O290 Zn272 1.975 . S
O290 C289 1.252 . S
H291 C284 0.930 . S
H292 C285 0.930 . S
C293 C294 1.392 . S
C293 N297 1.328 . S
C293 H299 0.930 . S
C294 C293 1.392 . S
C294 N298 1.331 . S
C295 C296 1.391 . S
C295 N298 1.329 . S
C295 H305 0.930 . S
C296 C295 1.391 . S
C296 N297 1.334 . S
C296 H303 0.930 . S
N297 Zn281 2.119 . S
N297 C293 1.328 . S
N297 C296 1.334 . S
N298 C294 1.331 . S
N298 C295 1.329 . S
H299 C293 0.930 . S
C300 O280 1.257 . S
C300 O301 1.244 . S
O301 C300 1.244 . S
O302 C278 1.257 . S
O302 Zn281 2.019 . S
H303 C296 0.930 . S
H304 C283 0.930 . S
H305 C295 0.930 . S
Zn306 N310 2.020 . S
Zn306 O314 2.019 . S
Zn306 N316 2.119 . S
Zn306 O324 1.975 . S
C307 N308 1.334 . S
C307 N311 1.336 . S
N308 C307 1.334 . S
N308 C309 1.334 . S
C309 N308 1.334 . S
C309 N310 1.336 . S
N310 Zn306 2.020 . S
N310 C309 1.336 . S
N310 N311 1.354 . S
N311 C307 1.336 . S
N311 N310 1.354 . S
N311 Zn315 2.020 . S
C312 O313 1.244 . S
C312 O336 1.257 . S
O313 C312 1.244 . S
O314 Zn306 2.019 . S
O314 C334 1.257 . S
Zn315 N311 2.020 . S
Zn315 O322 1.975 . S
Zn315 N331 2.119 . S
Zn315 O336 2.019 . S
N316 Zn306 2.119 . S
N316 C318 1.334 . S
N316 C319 1.328 . S
C317 C318 1.391 . S
C317 N320 1.329 . S
C317 H338 0.930 . S
C318 N316 1.334 . S
C318 C317 1.391 . S
C318 H325 0.930 . S
C319 N316 1.328 . S
C319 C321 1.392 . S
C319 H326 0.930 . S
N320 C317 1.329 . S
N320 C321 1.331 . S
C321 C319 1.392 . S
C321 N320 1.331 . S
O322 Zn315 1.975 . S
O322 C323 1.252 . S
C323 O322 1.252 . S
C323 O324 1.252 . S
O324 Zn306 1.975 . S
O324 C323 1.252 . S
H325 C318 0.930 . S
H326 C319 0.930 . S
C327 C328 1.392 . S
C327 N331 1.328 . S
C327 H333 0.930 . S
C328 C327 1.392 . S
C328 N332 1.331 . S
C329 C330 1.391 . S
C329 N332 1.329 . S
C329 H339 0.930 . S
C330 C329 1.391 . S
C330 N331 1.334 . S
C330 H337 0.930 . S
N331 Zn315 2.119 . S
N331 C327 1.328 . S
N331 C330 1.334 . S
N332 C328 1.331 . S
N332 C329 1.329 . S
H333 C327 0.930 . S
C334 O314 1.257 . S
C334 O335 1.244 . S
O335 C334 1.244 . S
O336 C312 1.257 . S
O336 Zn315 2.019 . S
H337 C330 0.930 . S
H338 C317 0.930 . S
H339 C329 0.930 . S
Zn340 N344 2.020 . S
Zn340 O348 2.019 . S
Zn340 N350 2.119 . S
Zn340 O358 1.975 . S
C341 N342 1.334 . S
C341 N345 1.336 . S
N342 C341 1.334 . S
N342 C343 1.334 . S
C343 N342 1.334 . S
C343 N344 1.336 . S
N344 Zn340 2.020 . S
N344 C343 1.336 . S
N344 N345 1.354 . S
N345 C341 1.336 . S
N345 N344 1.354 . S
N345 Zn349 2.020 . S
C346 O347 1.244 . S
C346 O370 1.257 . S
O347 C346 1.244 . S
O348 Zn340 2.019 . S
O348 C368 1.257 . S
Zn349 N345 2.020 . S
Zn349 O356 1.975 . S
Zn349 N365 2.119 . S
Zn349 O370 2.019 . S
N350 Zn340 2.119 . S
N350 C352 1.334 . S
N350 C353 1.328 . S
C351 C352 1.391 . S
C351 N354 1.329 . S
C351 H372 0.930 . S
C352 N350 1.334 . S
C352 C351 1.391 . S
C352 H359 0.930 . S
C353 N350 1.328 . S
C353 C355 1.392 . S
C353 H360 0.930 . S
N354 C351 1.329 . S
N354 C355 1.331 . S
C355 C353 1.392 . S
C355 N354 1.331 . S
O356 Zn349 1.975 . S
O356 C357 1.252 . S
C357 O356 1.252 . S
C357 O358 1.252 . S
O358 Zn340 1.975 . S
O358 C357 1.252 . S
H359 C352 0.930 . S
H360 C353 0.930 . S
C361 C362 1.392 . S
C361 N365 1.328 . S
C361 H367 0.930 . S
C362 C361 1.392 . S
C362 N366 1.331 . S
C363 C364 1.391 . S
C363 N366 1.329 . S
C363 H373 0.930 . S
C364 C363 1.391 . S
C364 N365 1.334 . S
C364 H371 0.930 . S
N365 Zn349 2.119 . S
N365 C361 1.328 . S
N365 C364 1.334 . S
N366 C362 1.331 . S
N366 C363 1.329 . S
H367 C361 0.930 . S
C368 O348 1.257 . S
C368 O369 1.244 . S
O369 C368 1.244 . S
O370 C346 1.257 . S
O370 Zn349 2.019 . S
H371 C364 0.930 . S
H372 C351 0.930 . S
H373 C363 0.930 . S
Zn374 N378 2.020 . S
Zn374 O382 2.019 . S
Zn374 N384 2.119 . S
Zn374 O392 1.975 . S
C375 N376 1.334 . S
C375 N379 1.336 . S
N376 C375 1.334 . S
N376 C377 1.334 . S
C377 N376 1.334 . S
C377 N378 1.336 . S
N378 Zn374 2.020 . S
N378 C377 1.336 . S
N378 N379 1.354 . S
N379 C375 1.336 . S
N379 N378 1.354 . S
N379 Zn383 2.020 . S
C380 O381 1.244 . S
C380 O404 1.257 . S
O381 C380 1.244 . S
O382 Zn374 2.019 . S
O382 C402 1.257 . S
Zn383 N379 2.020 . S
Zn383 O390 1.975 . S
Zn383 N399 2.119 . S
Zn383 O404 2.019 . S
N384 Zn374 2.119 . S
N384 C386 1.334 . S
N384 C387 1.328 . S
C385 C386 1.391 . S
C385 N388 1.329 . S
C385 H406 0.930 . S
C386 N384 1.334 . S
C386 C385 1.391 . S
C386 H393 0.930 . S
C387 N384 1.328 . S
C387 C389 1.392 . S
C387 H394 0.930 . S
N388 C385 1.329 . S
N388 C389 1.331 . S
C389 C387 1.392 . S
C389 N388 1.331 . S
O390 Zn383 1.975 . S
O390 C391 1.252 . S
C391 O390 1.252 . S
C391 O392 1.252 . S
O392 Zn374 1.975 . S
O392 C391 1.252 . S
H393 C386 0.930 . S
H394 C387 0.930 . S
C395 C396 1.392 . S
C395 N399 1.328 . S
C395 H401 0.930 . S
C396 C395 1.392 . S
C396 N400 1.331 . S
C397 C398 1.391 . S
C397 N400 1.329 . S
C397 H407 0.930 . S
C398 C397 1.391 . S
C398 N399 1.334 . S
C398 H405 0.930 . S
N399 Zn383 2.119 . S
N399 C395 1.328 . S
N399 C398 1.334 . S
N400 C396 1.331 . S
N400 C397 1.329 . S
H401 C395 0.930 . S
C402 O382 1.257 . S
C402 O403 1.244 . S
O403 C402 1.244 . S
O404 C380 1.257 . S
O404 Zn383 2.019 . S
H405 C398 0.930 . S
H406 C385 0.930 . S
H407 C397 0.930 . S
H408 C416 0.929 . S
H409 C418 0.935 . S
H410 C420 0.930 . S
H411 C423 0.929 . S
H412 C426 0.930 . S
H413 C428 0.960 . S
H414 C428 0.960 1_556 S
H415 C428 0.960 . S
C416 H408 0.929 . S
C416 C417 1.377 . S
C416 C418 1.384 . S
C417 C416 1.377 . S
C417 C423 1.390 1_556 S
C418 H409 0.935 . S
C418 C416 1.384 . S
C418 C419 1.372 1_545 S
C419 C418 1.372 1_565 S
C419 C420 1.400 1_566 S
C419 C424 1.490 . S
C420 H410 0.930 . S
C420 C419 1.400 1_544 S
C420 C423 1.386 . S
H421 C437 0.930 . S
H422 C438 0.931 . S
C423 H411 0.929 . S
C423 C417 1.390 1_554 S
C423 C420 1.386 . S
C424 C419 1.490 . S
C424 C426 1.395 . S
C424 C427 1.419 . S
H425 C431 0.933 . S
C426 H412 0.930 . S
C426 C424 1.395 . S
C426 C429 1.403 . S
C427 C424 1.419 . S
C427 C428 1.512 1_556 S
C427 C431 1.399 1_556 S
C428 H413 0.960 . S
C428 H414 0.960 1_554 S
C428 H415 0.960 . S
C428 C427 1.512 1_554 S
C429 C426 1.403 . S
C429 C430 1.392 . S
C429 C433 1.495 . S
C430 C429 1.392 . S
C430 C431 1.383 1_556 S
C430 C432 1.478 . S
C431 H425 0.933 . S
C431 C427 1.399 1_554 S
C431 C430 1.383 1_554 S
C432 C430 1.478 . S
C432 C434 1.381 . S
C432 C438 1.383 1_556 S
C433 C429 1.495 . S
C433 H439 0.959 . S
C433 H440 0.961 . S
C433 H441 0.960 . S
C434 C432 1.381 . S
C434 C435 1.394 . S
C434 H442 0.930 . S
C435 C434 1.394 . S
C435 C436 1.409 . S
C435 H443 0.929 . S
C436 C435 1.409 . S
C436 C437 1.354 1_556 S
C437 H421 0.930 . S
C437 C436 1.354 1_554 S
C437 C438 1.379 . S
C438 H422 0.931 . S
C438 C432 1.383 1_554 S
C438 C437 1.379 . S
H439 C433 0.959 . S
H440 C433 0.961 . S
H441 C433 0.960 . S
H442 C434 0.930 . S
H443 C435 0.929 . S
H444 C452 0.929 . S
H445 C454 0.930 . S
H446 C456 0.930 . S
H447 C459 0.929 . S
H448 C462 0.930 . S
H449 C464 0.959 1_554 S
H450 C464 0.964 . S
H451 C464 0.957 1_554 S
C452 H444 0.929 . S
C452 C453 1.377 . S
C452 C454 1.384 . S
C453 C452 1.377 . S
C453 C459 1.390 1_556 S
C454 H445 0.930 . S
C454 C452 1.384 . S
C454 C455 1.372 . S
C455 C454 1.372 . S
C455 C456 1.400 1_556 S
C455 C460 1.490 . S
C456 H446 0.930 . S
C456 C455 1.400 1_554 S
C456 C459 1.386 . S
H457 C473 0.930 . S
H458 C474 0.931 . S
C459 H447 0.929 . S
C459 C453 1.390 1_554 S
C459 C456 1.386 . S
C460 C455 1.490 . S
C460 C462 1.395 . S
C460 C463 1.403 . S
H461 C467 0.930 1_554 S
C462 H448 0.930 . S
C462 C460 1.395 . S
C462 C465 1.403 . S
C463 C460 1.403 . S
C463 C464 1.524 . S
C463 C467 1.400 . S
C464 H449 0.959 1_556 S
C464 H450 0.964 . S
C464 H451 0.957 1_556 S
C464 C463 1.524 . S
C465 C462 1.403 . S
C465 C466 1.392 . S
C465 C469 1.495 . S
C466 C465 1.392 . S
C466 C467 1.385 . S
C466 C468 1.478 . S
C467 H461 0.930 1_556 S
C467 C463 1.400 . S
C467 C466 1.385 . S
C468 C466 1.478 . S
C468 C470 1.381 . S
C468 C474 1.383 1_556 S
C469 C465 1.495 . S
C469 H475 0.959 . S
C469 H476 0.961 . S
C469 H477 0.960 . S
C470 C468 1.381 . S
C470 C471 1.394 . S
C470 H478 0.930 . S
C471 C470 1.394 . S
C471 C472 1.395 . S
C471 H479 0.929 . S
C472 C471 1.395 . S
C472 C473 1.366 1_556 S
C473 H457 0.930 . S
C473 C472 1.366 1_554 S
C473 C474 1.379 . S
C474 H458 0.931 . S
C474 C468 1.383 1_554 S
C474 C473 1.379 . S
H475 C469 0.959 . S
H476 C469 0.961 . S
H477 C469 0.960 . S
H478 C470 0.930 . S
H479 C471 0.929 . S
H480 C488 0.929 . S
H481 C490 0.926 1_454 S
H482 C492 0.930 . S
H483 C495 0.929 . S
H484 C498 0.930 . S
H485 C500 0.960 . S
H486 C500 0.960 . S
H487 C500 0.960 . S
C488 H480 0.929 . S
C488 C489 1.377 . S
C488 C490 1.384 . S
C489 C488 1.377 . S
C489 C495 1.390 . S
C490 H481 0.926 1_656 S
C490 C488 1.384 . S
C490 C491 1.372 1_655 S
C491 C490 1.372 1_455 S
C491 C492 1.400 1_455 S
C491 C496 1.490 . S
C492 H482 0.930 . S
C492 C491 1.400 1_655 S
C492 C495 1.386 . S
H493 C509 0.930 . S
H494 C510 0.931 . S
C495 H483 0.929 . S
C495 C489 1.390 . S
C495 C492 1.386 . S
C496 C491 1.490 . S
C496 C498 1.395 1_556 S
C496 C499 1.403 . S
H497 C503 0.930 . S
C498 H484 0.930 . S
C498 C496 1.395 1_554 S
C498 C501 1.403 . S
C499 C496 1.403 . S
C499 C500 1.524 . S
C499 C503 1.400 . S
C500 H485 0.960 . S
C500 H486 0.960 . S
C500 H487 0.960 . S
C500 C499 1.524 . S
C501 C498 1.403 . S
C501 C502 1.383 1_554 S
C501 C505 1.495 . S
C502 C501 1.383 1_556 S
C502 C503 1.396 . S
C502 C504 1.477 1_556 S
C503 H497 0.930 . S
C503 C499 1.400 . S
C503 C502 1.396 . S
C504 C502 1.477 1_554 S
C504 C506 1.381 . S
C504 C510 1.383 1_554 S
C505 C501 1.495 . S
C505 H511 0.959 . S
C505 H512 0.961 . S
C505 H513 0.960 . S
C506 C504 1.381 . S
C506 C507 1.394 . S
C506 H514 0.930 . S
C507 C506 1.394 . S
C507 C508 1.383 . S
C507 H515 0.929 . S
C508 C507 1.383 . S
C508 C509 1.377 1_554 S
C509 H493 0.930 . S
C509 C508 1.377 1_556 S
C509 C510 1.379 . S
C510 H494 0.931 . S
C510 C504 1.383 1_556 S
C510 C509 1.379 . S
H511 C505 0.959 . S
H512 C505 0.961 . S
H513 C505 0.960 . S
H514 C506 0.930 . S
H515 C507 0.929 . S
H516 C524 0.929 . S
H517 C526 0.930 . S
H518 C528 0.930 . S
H519 C531 0.929 . S
H520 C534 0.930 . S
H521 C536 0.960 . S
H522 C536 0.960 . S
H523 C536 0.960 . S
C524 H516 0.929 . S
C524 C525 1.377 . S
C524 C526 1.384 . S
C525 C524 1.377 . S
C525 C531 1.390 1_556 S
C526 H517 0.930 . S
C526 C524 1.384 . S
C526 C527 1.372 1_565 S
C527 C526 1.372 1_545 S
C527 C528 1.400 1_546 S
C527 C532 1.490 . S
C528 H518 0.930 . S
C528 C527 1.400 1_564 S
C528 C531 1.386 . S
H529 C545 0.930 . S
H530 C546 0.931 . S
C531 H519 0.929 . S
C531 C525 1.390 1_554 S
C531 C528 1.386 . S
C532 C527 1.490 . S
C532 C534 1.395 . S
C532 C535 1.403 1_556 S
H533 C539 0.930 . S
C534 H520 0.930 . S
C534 C532 1.395 . S
C534 C537 1.403 . S
C535 C532 1.403 1_554 S
C535 C536 1.524 . S
C535 C539 1.400 . S
C536 H521 0.960 . S
C536 H522 0.960 . S
C536 H523 0.960 . S
C536 C535 1.524 . S
C537 C534 1.403 . S
C537 C538 1.392 . S
C537 C541 1.495 . S
C538 C537 1.392 . S
C538 C539 1.385 1_556 S
C538 C540 1.478 . S
C539 H533 0.930 . S
C539 C535 1.400 . S
C539 C538 1.385 1_554 S
C540 C538 1.478 . S
C540 C542 1.381 . S
C540 C546 1.383 1_556 S
C541 C537 1.495 . S
C541 H547 0.959 . S
C541 H548 0.961 . S
C541 H549 0.960 . S
C542 C540 1.381 . S
C542 C543 1.394 . S
C542 H550 0.930 . S
C543 C542 1.394 . S
C543 C544 1.383 . S
C543 H551 0.929 . S
C544 C543 1.383 . S
C544 C545 1.377 1_556 S
C545 H529 0.930 . S
C545 C544 1.377 1_554 S
C545 C546 1.379 . S
C546 H530 0.931 . S
C546 C540 1.383 1_554 S
C546 C545 1.379 . S
H547 C541 0.959 . S
H548 C541 0.961 . S
H549 C541 0.960 . S
H550 C542 0.930 . S
H551 C543 0.929 . S
H552 C560 0.929 . S
H553 C562 0.930 . S
H554 C564 0.930 . S
H555 C567 0.929 . S
H556 C570 0.930 . S
H557 C572 0.960 . S
H558 C572 0.960 . S
H559 C572 0.960 . S
C560 H552 0.929 . S
C560 C561 1.377 . S
C560 C562 1.384 . S
C561 C560 1.377 . S
C561 C567 1.390 1_556 S
C562 H553 0.930 . S
C562 C560 1.384 . S
C562 C563 1.372 . S
C563 C562 1.372 . S
C563 C564 1.400 1_556 S
C563 C568 1.490 . S
C564 H554 0.930 . S
C564 C563 1.400 1_554 S
C564 C567 1.386 . S
H565 C581 0.930 . S
H566 C582 0.931 . S
C567 H555 0.929 . S
C567 C561 1.390 1_554 S
C567 C564 1.386 . S
C568 C563 1.490 . S
C568 C570 1.395 . S
C568 C571 1.403 1_556 S
H569 C575 0.930 . S
C570 H556 0.930 . S
C570 C568 1.395 . S
C570 C573 1.403 . S
C571 C568 1.403 1_554 S
C571 C572 1.524 . S
C571 C575 1.400 . S
C572 H557 0.960 . S
C572 H558 0.960 . S
C572 H559 0.960 . S
C572 C571 1.524 . S
C573 C570 1.403 . S
C573 C574 1.392 . S
C573 C577 1.495 . S
C574 C573 1.392 . S
C574 C575 1.385 1_556 S
C574 C576 1.478 . S
C575 H569 0.930 . S
C575 C571 1.400 . S
C575 C574 1.385 1_554 S
C576 C574 1.478 . S
C576 C578 1.381 . S
C576 C582 1.383 1_556 S
C577 C573 1.495 . S
C577 H583 0.959 . S
C577 H584 0.961 . S
C577 H585 0.960 . S
C578 C576 1.381 . S
C578 C579 1.394 . S
C578 H586 0.930 . S
C579 C578 1.394 . S
C579 C580 1.383 . S
C579 H587 0.929 . S
C580 C579 1.383 . S
C580 C581 1.377 1_556 S
C581 H565 0.930 . S
C581 C580 1.377 1_554 S
C581 C582 1.379 . S
C582 H566 0.931 . S
C582 C576 1.383 1_554 S
C582 C581 1.379 . S
H583 C577 0.959 . S
H584 C577 0.961 . S
H585 C577 0.960 . S
H586 C578 0.930 . S
H587 C579 0.929 . S
H588 C596 0.929 . S
H589 C598 0.917 1_655 S
H590 C600 0.930 . S
H591 C603 0.929 . S
H592 C606 0.930 . S
H593 C608 0.960 . S
H594 C608 0.960 . S
H595 C608 0.960 1_554 S
C596 H588 0.929 . S
C596 C597 1.377 . S
C596 C598 1.384 . S
C597 C596 1.377 . S
C597 C603 1.390 1_556 S
C598 H589 0.917 1_455 S
C598 C596 1.384 . S
C598 C599 1.372 1_455 S
C599 C598 1.372 1_655 S
C599 C600 1.400 1_656 S
C599 C604 1.490 . S
C600 H590 0.930 . S
C600 C599 1.400 1_454 S
C600 C603 1.386 . S
H601 C617 0.930 . S
H602 C618 0.931 . S
C603 H591 0.929 . S
C603 C597 1.390 1_554 S
C603 C600 1.386 . S
C604 C599 1.490 . S
C604 C606 1.395 . S
C604 C607 1.403 . S
H605 C611 0.930 . S
C606 H592 0.930 . S
C606 C604 1.395 . S
C606 C609 1.403 . S
C607 C604 1.403 . S
C607 C608 1.524 . S
C607 C611 1.400 . S
C608 H593 0.960 . S
C608 H594 0.960 . S
C608 H595 0.960 1_556 S
C608 C607 1.524 . S
C609 C606 1.403 . S
C609 C610 1.392 . S
C609 C613 1.495 . S
C610 C609 1.392 . S
C610 C611 1.385 . S
C610 C612 1.478 . S
C611 H605 0.930 . S
C611 C607 1.400 . S
C611 C610 1.385 . S
C612 C610 1.478 . S
C612 C614 1.381 . S
C612 C618 1.383 1_556 S
C613 C609 1.495 . S
C613 H619 0.959 . S
C613 H620 0.961 1_556 S
C613 H621 0.960 . S
C614 C612 1.381 . S
C614 C615 1.394 . S
C614 H622 0.930 . S
C615 C614 1.394 . S
C615 C616 1.387 1_556 S
C615 H623 0.929 . S
C616 C615 1.387 1_554 S
C616 C617 1.374 . S
C617 H601 0.930 . S
C617 C616 1.374 . S
C617 C618 1.379 . S
C618 H602 0.931 . S
C618 C612 1.383 1_554 S
C618 C617 1.379 . S
H619 C613 0.959 . S
H620 C613 0.961 1_554 S
H621 C613 0.960 . S
H622 C614 0.930 . S
H623 C615 0.929 . S
H624 C632 0.929 . S
H625 C634 0.930 1_455 S
H626 C636 0.930 . S
H627 C639 0.929 . S
H628 C642 0.930 . S
H629 C644 0.960 . S
H630 C644 0.960 . S
H631 C644 0.960 . S
C632 H624 0.929 . S
C632 C633 1.377 . S
C632 C634 1.384 . S
C633 C632 1.377 . S
C633 C639 1.390 . S
C634 H625 0.930 1_655 S
C634 C632 1.384 . S
C634 C635 1.372 1_655 S
C635 C634 1.372 1_455 S
C635 C636 1.400 1_455 S
C635 C640 1.490 . S
C636 H626 0.930 . S
C636 C635 1.400 1_655 S
C636 C639 1.386 . S
H637 C653 0.930 . S
H638 C654 0.931 . S
C639 H627 0.929 . S
C639 C633 1.390 . S
C639 C636 1.386 . S
C640 C635 1.490 . S
C640 C642 1.395 . S
C640 C643 1.403 . S
H641 C647 0.930 . S
C642 H628 0.930 . S
C642 C640 1.395 . S
C642 C645 1.403 . S
C643 C640 1.403 . S
C643 C644 1.524 . S
C643 C647 1.400 . S
C644 H629 0.960 . S
C644 H630 0.960 . S
C644 H631 0.960 . S
C644 C643 1.524 . S
C645 C642 1.403 . S
C645 C646 1.392 . S
C645 C649 1.495 . S
C646 C645 1.392 . S
C646 C647 1.385 . S
C646 C648 1.478 . S
C647 H641 0.930 . S
C647 C643 1.400 . S
C647 C646 1.385 . S
C648 C646 1.478 . S
C648 C650 1.381 . S
C648 C654 1.383 . S
C649 C645 1.495 . S
C649 H655 0.959 . S
C649 H656 0.961 . S
C649 H657 0.960 . S
C650 C648 1.381 . S
C650 C651 1.394 . S
C650 H658 0.930 . S
C651 C650 1.394 . S
C651 C652 1.383 . S
C651 H659 0.929 . S
C652 C651 1.383 . S
C652 C653 1.377 . S
C653 H637 0.930 . S
C653 C652 1.377 . S
C653 C654 1.379 . S
C654 H638 0.931 . S
C654 C648 1.383 . S
C654 C653 1.379 . S
H655 C649 0.959 . S
H656 C649 0.961 . S
H657 C649 0.960 . S
H658 C650 0.930 . S
H659 C651 0.929 . S
H660 C668 0.929 . S
H661 C670 0.930 . S
H662 C672 0.930 . S
H663 C675 0.929 . S
H664 C678 0.930 . S
H665 C680 0.960 . S
H666 C680 0.960 . S
H667 C680 0.960 . S
C668 H660 0.929 . S
C668 C669 1.377 . S
C668 C670 1.384 . S
C669 C668 1.377 . S
C669 C675 1.390 . S
C670 H661 0.930 . S
C670 C668 1.384 . S
C670 C671 1.372 1_565 S
C671 C670 1.372 1_545 S
C671 C672 1.400 1_545 S
C671 C676 1.490 . S
C672 H662 0.930 . S
C672 C671 1.400 1_565 S
C672 C675 1.386 . S
H673 C689 0.930 . S
H674 C690 0.931 . S
C675 H663 0.929 . S
C675 C669 1.390 . S
C675 C672 1.386 . S
C676 C671 1.490 . S
C676 C678 1.395 . S
C676 C679 1.403 . S
H677 C683 0.930 . S
C678 H664 0.930 . S
C678 C676 1.395 . S
C678 C681 1.403 . S
C679 C676 1.403 . S
C679 C680 1.524 . S
C679 C683 1.400 . S
C680 H665 0.960 . S
C680 H666 0.960 . S
C680 H667 0.960 . S
C680 C679 1.524 . S
C681 C678 1.403 . S
C681 C682 1.392 . S
C681 C685 1.495 . S
C682 C681 1.392 . S
C682 C683 1.385 . S
C682 C684 1.478 . S
C683 H677 0.930 . S
C683 C679 1.400 . S
C683 C682 1.385 . S
C684 C682 1.478 . S
C684 C686 1.381 . S
C684 C690 1.383 . S
C685 C681 1.495 . S
C685 H691 0.959 . S
C685 H692 0.961 . S
C685 H693 0.960 . S
C686 C684 1.381 . S
C686 C687 1.394 . S
C686 H694 0.930 . S
C687 C686 1.394 . S
C687 C688 1.383 . S
C687 H695 0.929 . S
C688 C687 1.383 . S
C688 C689 1.377 . S
C689 H673 0.930 . S
C689 C688 1.377 . S
C689 C690 1.379 . S
C690 H674 0.931 . S
C690 C684 1.383 . S
C690 C689 1.379 . S
H691 C685 0.959 . S
H692 C685 0.961 . S
H693 C685 0.960 . S
H694 C686 0.930 . S
H695 C687 0.929 . S
H696 C704 0.929 . S
H697 C706 0.930 . S
H698 C708 0.930 . S
H699 C711 0.929 . S
H700 C714 0.930 . S
H701 C716 0.960 . S
H702 C716 0.960 . S
H703 C716 0.960 . S
C704 H696 0.929 . S
C704 C705 1.377 . S
C704 C706 1.384 . S
C705 C704 1.377 . S
C705 C711 1.390 . S
C706 H697 0.930 . S
C706 C704 1.384 . S
C706 C707 1.372 . S
C707 C706 1.372 . S
C707 C708 1.400 . S
C707 C712 1.490 . S
C708 H698 0.930 . S
C708 C707 1.400 . S
C708 C711 1.386 . S
H709 C725 0.930 . S
H710 C726 0.931 . S
C711 H699 0.929 . S
C711 C705 1.390 . S
C711 C708 1.386 . S
C712 C707 1.490 . S
C712 C714 1.395 . S
C712 C715 1.403 . S
H713 C719 0.930 . S
C714 H700 0.930 . S
C714 C712 1.395 . S
C714 C717 1.403 . S
C715 C712 1.403 . S
C715 C716 1.524 . S
C715 C719 1.400 . S
C716 H701 0.960 . S
C716 H702 0.960 . S
C716 H703 0.960 . S
C716 C715 1.524 . S
C717 C714 1.403 . S
C717 C718 1.392 . S
C717 C721 1.495 . S
C718 C717 1.392 . S
C718 C719 1.385 . S
C718 C720 1.478 . S
C719 H713 0.930 . S
C719 C715 1.400 . S
C719 C718 1.385 . S
C720 C718 1.478 . S
C720 C722 1.381 . S
C720 C726 1.383 . S
C721 C717 1.495 . S
C721 H727 0.959 . S
C721 H728 0.961 . S
C721 H729 0.960 . S
C722 C720 1.381 . S
C722 C723 1.394 . S
C722 H730 0.930 . S
C723 C722 1.394 . S
C723 C724 1.383 . S
C723 H731 0.929 . S
C724 C723 1.383 . S
C724 C725 1.377 . S
C725 H709 0.930 . S
C725 C724 1.377 . S
C725 C726 1.379 . S
C726 H710 0.931 . S
C726 C720 1.383 . S
C726 C725 1.379 . S
H727 C721 0.959 . S
H728 C721 0.961 . S
H729 C721 0.960 . S
H730 C722 0.930 . S
H731 C723 0.929 . S
H732 C740 0.929 . S
H733 C742 0.930 . S
H734 C744 0.930 . S
H735 C747 0.929 . S
H736 C750 0.930 . S
H737 C752 0.960 . S
H738 C752 0.960 . S
H739 C752 0.960 . S
C740 H732 0.929 . S
C740 C741 1.377 . S
C740 C742 1.384 . S
C741 C740 1.377 . S
C741 C747 1.390 . S
C742 H733 0.930 . S
C742 C740 1.384 . S
C742 C743 1.372 . S
C743 C742 1.372 . S
C743 C744 1.400 . S
C743 C748 1.490 . S
C744 H734 0.930 . S
C744 C743 1.400 . S
C744 C747 1.386 . S
H745 C761 0.930 . S
H746 C762 0.931 . S
C747 H735 0.929 . S
C747 C741 1.390 . S
C747 C744 1.386 . S
C748 C743 1.490 . S
C748 C750 1.395 . S
C748 C751 1.403 . S
H749 C755 0.930 . S
C750 H736 0.930 . S
C750 C748 1.395 . S
C750 C753 1.403 . S
C751 C748 1.403 . S
C751 C752 1.524 . S
C751 C755 1.400 . S
C752 H737 0.960 . S
C752 H738 0.960 . S
C752 H739 0.960 . S
C752 C751 1.524 . S
C753 C750 1.403 . S
C753 C754 1.392 . S
C753 C757 1.495 . S
C754 C753 1.392 . S
C754 C755 1.385 . S
C754 C756 1.478 . S
C755 H749 0.930 . S
C755 C751 1.400 . S
C755 C754 1.385 . S
C756 C754 1.478 . S
C756 C758 1.381 1_655 S
C756 C762 1.383 1_655 S
C757 C753 1.495 . S
C757 H763 0.959 . S
C757 H764 0.961 . S
C757 H765 0.960 . S
C758 C756 1.381 1_455 S
C758 C759 1.394 . S
C758 H766 0.930 . S
C759 C758 1.394 . S
C759 C760 1.383 . S
C759 H767 0.929 . S
C760 C759 1.383 . S
C760 C761 1.377 . S
C761 H745 0.930 . S
C761 C760 1.377 . S
C761 C762 1.379 . S
C762 H746 0.931 . S
C762 C756 1.383 1_455 S
C762 C761 1.379 . S
H763 C757 0.959 . S
H764 C757 0.961 . S
H765 C757 0.960 . S
H766 C758 0.930 . S
H767 C759 0.929 . S
H768 C776 0.929 . S
H769 C778 0.930 . S
H770 C780 0.930 . S
H771 C783 0.929 . S
H772 C786 0.930 . S
H773 C788 0.960 . S
H774 C788 0.960 . S
H775 C788 0.960 . S
C776 H768 0.929 . S
C776 C777 1.377 . S
C776 C778 1.384 . S
C777 C776 1.377 . S
C777 C783 1.390 . S
C778 H769 0.930 . S
C778 C776 1.384 . S
C778 C779 1.372 . S
C779 C778 1.372 . S
C779 C780 1.400 . S
C779 C784 1.490 . S
C780 H770 0.930 . S
C780 C779 1.400 . S
C780 C783 1.386 . S
H781 C797 0.930 . S
H782 C798 0.931 1_565 S
C783 H771 0.929 . S
C783 C777 1.390 . S
C783 C780 1.386 . S
C784 C779 1.490 . S
C784 C786 1.395 . S
C784 C787 1.403 . S
H785 C791 0.930 . S
C786 H772 0.930 . S
C786 C784 1.395 . S
C786 C789 1.403 . S
C787 C784 1.403 . S
C787 C788 1.524 . S
C787 C791 1.400 . S
C788 H773 0.960 . S
C788 H774 0.960 . S
C788 H775 0.960 . S
C788 C787 1.524 . S
C789 C786 1.403 . S
C789 C790 1.392 . S
C789 C793 1.495 . S
C790 C789 1.392 . S
C790 C791 1.385 . S
C790 C792 1.478 . S
C791 H785 0.930 . S
C791 C787 1.400 . S
C791 C790 1.385 . S
C792 C790 1.478 . S
C792 C794 1.381 1_565 S
C792 C798 1.383 1_565 S
C793 C789 1.495 . S
C793 H799 0.959 . S
C793 H800 0.961 . S
C793 H801 0.960 . S
C794 C792 1.381 1_545 S
C794 C795 1.394 . S
C794 H802 0.930 . S
C795 C794 1.394 . S
C795 C796 1.383 . S
C795 H803 0.929 . S
C796 C795 1.383 . S
C796 C797 1.377 . S
C797 H781 0.930 . S
C797 C796 1.377 . S
C797 C798 1.379 . S
C798 H782 0.931 1_545 S
C798 C792 1.383 1_545 S
C798 C797 1.379 . S
H799 C793 0.959 . S
H800 C793 0.961 . S
H801 C793 0.960 . S
H802 C794 0.930 . S
H803 C795 0.929 . S
H804 C812 0.929 . S
H805 C814 0.930 . S
H806 C816 0.930 . S
H807 C819 0.929 . S
H808 C822 0.930 . S
H809 C824 0.960 . S
H810 C824 0.960 . S
H811 C824 0.960 . S
C812 H804 0.929 . S
C812 C813 1.377 . S
C812 C814 1.384 . S
C813 C812 1.377 . S
C813 C819 1.390 . S
C814 H805 0.930 . S
C814 C812 1.384 . S
C814 C815 1.372 . S
C815 C814 1.372 . S
C815 C816 1.400 . S
C815 C820 1.490 . S
C816 H806 0.930 . S
C816 C815 1.400 . S
C816 C819 1.386 . S
H817 C833 0.930 . S
H818 C834 0.931 . S
C819 H807 0.929 . S
C819 C813 1.390 . S
C819 C816 1.386 . S
C820 C815 1.490 . S
C820 C822 1.395 . S
C820 C823 1.403 . S
H821 C827 0.930 . S
C822 H808 0.930 . S
C822 C820 1.395 . S
C822 C825 1.403 . S
C823 C820 1.403 . S
C823 C824 1.524 . S
C823 C827 1.400 . S
C824 H809 0.960 . S
C824 H810 0.960 . S
C824 H811 0.960 . S
C824 C823 1.524 . S
C825 C822 1.403 . S
C825 C826 1.392 . S
C825 C829 1.495 . S
C826 C825 1.392 . S
C826 C827 1.385 . S
C826 C828 1.478 . S
C827 H821 0.930 . S
C827 C823 1.400 . S
C827 C826 1.385 . S
C828 C826 1.478 . S
C828 C830 1.381 . S
C828 C834 1.383 . S
C829 C825 1.495 . S
C829 H835 0.959 . S
C829 H836 0.961 . S
C829 H837 0.960 . S
C830 C828 1.381 . S
C830 C831 1.394 . S
C830 H838 0.930 . S
C831 C830 1.394 . S
C831 C832 1.383 . S
C831 H839 0.929 . S
C832 C831 1.383 . S
C832 C833 1.377 . S
C833 H817 0.930 . S
C833 C832 1.377 . S
C833 C834 1.379 . S
C834 H818 0.931 . S
C834 C828 1.383 . S
C834 C833 1.379 . S
H835 C829 0.959 . S
H836 C829 0.961 . S
H837 C829 0.960 . S
H838 C830 0.930 . S
H839 C831 0.929 . S
H840 C848 0.929 . S
H841 C850 0.930 . S
H842 C852 0.930 . S
H843 C855 0.929 . S
H844 C858 0.930 . S
H845 C860 0.960 . S
H846 C860 0.960 . S
H847 C860 0.960 . S
C848 H840 0.929 . S
C848 C849 1.377 . S
C848 C850 1.384 . S
C849 C848 1.377 . S
C849 C855 1.390 . S
C850 H841 0.930 . S
C850 C848 1.384 . S
C850 C851 1.372 . S
C851 C850 1.372 . S
C851 C852 1.400 . S
C851 C856 1.490 . S
C852 H842 0.930 . S
C852 C851 1.400 . S
C852 C855 1.386 . S
H853 C869 0.930 . S
H854 C870 0.931 . S
C855 H843 0.929 . S
C855 C849 1.390 . S
C855 C852 1.386 . S
C856 C851 1.490 . S
C856 C858 1.395 . S
C856 C859 1.403 . S
H857 C863 0.930 . S
C858 H844 0.930 . S
C858 C856 1.395 . S
C858 C861 1.403 . S
C859 C856 1.403 . S
C859 C860 1.524 . S
C859 C863 1.400 . S
C860 H845 0.960 . S
C860 H846 0.960 . S
C860 H847 0.960 . S
C860 C859 1.524 . S
C861 C858 1.403 . S
C861 C862 1.392 . S
C861 C865 1.495 . S
C862 C861 1.392 . S
C862 C863 1.385 . S
C862 C864 1.478 . S
C863 H857 0.930 . S
C863 C859 1.400 . S
C863 C862 1.385 . S
C864 C862 1.478 . S
C864 C866 1.381 . S
C864 C870 1.383 . S
C865 C861 1.495 . S
C865 H871 0.959 . S
C865 H872 0.961 . S
C865 H873 0.960 . S
C866 C864 1.381 . S
C866 C867 1.394 . S
C866 H874 0.930 . S
C867 C866 1.394 . S
C867 C868 1.383 . S
C867 H875 0.929 . S
C868 C867 1.383 . S
C868 C869 1.377 . S
C869 H853 0.930 . S
C869 C868 1.377 . S
C869 C870 1.379 . S
C870 H854 0.931 . S
C870 C864 1.383 . S
C870 C869 1.379 . S
H871 C865 0.959 . S
H872 C865 0.961 . S
H873 C865 0.960 . S
H874 C866 0.930 . S
H875 C867 0.929 . S
H876 C884 0.929 . S
H877 C886 0.930 . S
H878 C888 0.930 . S
H879 C891 0.929 . S
H880 C894 0.930 . S
H881 C896 0.960 . S
H882 C896 0.960 . S
H883 C896 0.960 . S
C884 H876 0.929 . S
C884 C885 1.377 . S
C884 C886 1.384 . S
C885 C884 1.377 . S
C885 C891 1.390 . S
C886 H877 0.930 . S
C886 C884 1.384 . S
C886 C887 1.372 . S
C887 C886 1.372 . S
C887 C888 1.400 . S
C887 C892 1.490 . S
C888 H878 0.930 . S
C888 C887 1.400 . S
C888 C891 1.386 . S
H889 C905 0.930 . S
H890 C906 0.931 . S
C891 H879 0.929 . S
C891 C885 1.390 . S
C891 C888 1.386 . S
C892 C887 1.490 . S
C892 C894 1.395 . S
C892 C895 1.403 . S
H893 C899 0.930 . S
C894 H880 0.930 . S
C894 C892 1.395 . S
C894 C897 1.403 . S
C895 C892 1.403 . S
C895 C896 1.524 . S
C895 C899 1.400 . S
C896 H881 0.960 . S
C896 H882 0.960 . S
C896 H883 0.960 . S
C896 C895 1.524 . S
C897 C894 1.403 . S
C897 C898 1.392 . S
C897 C901 1.495 . S
C898 C897 1.392 . S
C898 C899 1.385 . S
C898 C900 1.478 . S
C899 H893 0.930 . S
C899 C895 1.400 . S
C899 C898 1.385 . S
C900 C898 1.478 . S
C900 C902 1.381 . S
C900 C906 1.383 . S
C901 C897 1.495 . S
C901 H907 0.959 . S
C901 H908 0.961 . S
C901 H909 0.960 . S
C902 C900 1.381 . S
C902 C903 1.394 . S
C902 H910 0.930 . S
C903 C902 1.394 . S
C903 C904 1.383 . S
C903 H911 0.929 . S
C904 C903 1.383 . S
C904 C905 1.377 . S
C905 H889 0.930 . S
C905 C904 1.377 . S
C905 C906 1.379 . S
C906 H890 0.931 . S
C906 C900 1.383 . S
C906 C905 1.379 . S
H907 C901 0.959 . S
H908 C901 0.961 . S
H909 C901 0.960 . S
H910 C902 0.930 . S
H911 C903 0.929 . S
H912 C920 0.929 . S
H913 C922 0.930 . S
H914 C924 0.930 . S
H915 C927 0.929 . S
H916 C930 0.930 . S
H917 C932 0.960 . S
H918 C932 0.960 . S
H919 C932 0.960 . S
C920 H912 0.929 . S
C920 C921 1.377 . S
C920 C922 1.384 . S
C921 C920 1.377 . S
C921 C927 1.390 . S
C922 H913 0.930 . S
C922 C920 1.384 . S
C922 C923 1.372 . S
C923 C922 1.372 . S
C923 C924 1.400 . S
C923 C928 1.490 . S
C924 H914 0.930 . S
C924 C923 1.400 . S
C924 C927 1.386 . S
H925 C941 0.930 . S
H926 C942 0.931 . S
C927 H915 0.929 . S
C927 C921 1.390 . S
C927 C924 1.386 . S
C928 C923 1.490 . S
C928 C930 1.395 . S
C928 C931 1.403 . S
H929 C935 0.930 . S
C930 H916 0.930 . S
C930 C928 1.395 . S
C930 C933 1.403 . S
C931 C928 1.403 . S
C931 C932 1.524 . S
C931 C935 1.400 . S
C932 H917 0.960 . S
C932 H918 0.960 . S
C932 H919 0.960 . S
C932 C931 1.524 . S
C933 C930 1.403 . S
C933 C934 1.392 . S
C933 C937 1.495 . S
C934 C933 1.392 . S
C934 C935 1.385 . S
C934 C936 1.478 . S
C935 H929 0.930 . S
C935 C931 1.400 . S
C935 C934 1.385 . S
C936 C934 1.478 . S
C936 C938 1.381 . S
C936 C942 1.383 . S
C937 C933 1.495 . S
C937 H943 0.959 . S
C937 H944 0.961 . S
C937 H945 0.960 . S
C938 C936 1.381 . S
C938 C939 1.394 . S
C938 H946 0.930 . S
C939 C938 1.394 . S
C939 C940 1.383 . S
C939 H947 0.929 . S
C940 C939 1.383 . S
C940 C941 1.377 . S
C941 H925 0.930 . S
C941 C940 1.377 . S
C941 C942 1.379 . S
C942 H926 0.931 . S
C942 C936 1.383 . S
C942 C941 1.379 . S
H943 C937 0.959 . S
H944 C937 0.961 . S
H945 C937 0.960 . S
H946 C938 0.930 . S
H947 C939 0.929 . S
H948 C956 0.929 . S
H949 C958 0.930 . S
H950 C960 0.930 . S
H951 C963 0.929 . S
H952 C966 0.930 . S
H953 C968 0.960 . S
H954 C968 0.960 . S
H955 C968 0.960 . S
C956 H948 0.929 . S
C956 C957 1.377 . S
C956 C958 1.384 . S
C957 C956 1.377 . S
C957 C963 1.390 . S
C958 H949 0.930 . S
C958 C956 1.384 . S
C958 C959 1.372 . S
C959 C958 1.372 . S
C959 C960 1.400 . S
C959 C964 1.490 . S
C960 H950 0.930 . S
C960 C959 1.400 . S
C960 C963 1.386 . S
H961 C977 0.930 . S
H962 C978 0.931 . S
C963 H951 0.929 . S
C963 C957 1.390 . S
C963 C960 1.386 . S
C964 C959 1.490 . S
C964 C966 1.395 . S
C964 C967 1.403 . S
H965 C971 0.930 . S
C966 H952 0.930 . S
C966 C964 1.395 . S
C966 C969 1.403 . S
C967 C964 1.403 . S
C967 C968 1.524 . S
C967 C971 1.400 . S
C968 H953 0.960 . S
C968 H954 0.960 . S
C968 H955 0.960 . S
C968 C967 1.524 . S
C969 C966 1.403 . S
C969 C970 1.392 . S
C969 C973 1.495 . S
C970 C969 1.392 . S
C970 C971 1.385 . S
C970 C972 1.478 . S
C971 H965 0.930 . S
C971 C967 1.400 . S
C971 C970 1.385 . S
C972 C970 1.478 . S
C972 C974 1.381 . S
C972 C978 1.383 . S
C973 C969 1.495 . S
C973 H979 0.959 . S
C973 H980 0.961 . S
C973 H981 0.960 . S
C974 C972 1.381 . S
C974 C975 1.394 . S
C974 H982 0.930 . S
C975 C974 1.394 . S
C975 C976 1.383 . S
C975 H983 0.929 . S
C976 C975 1.383 . S
C976 C977 1.377 . S
C977 H961 0.930 . S
C977 C976 1.377 . S
C977 C978 1.379 . S
C978 H962 0.931 . S
C978 C972 1.383 . S
C978 C977 1.379 . S
H979 C973 0.959 . S
H980 C973 0.961 . S
H981 C973 0.960 . S
H982 C974 0.930 . S
H983 C975 0.929 . S
H984 C992 0.929 . S
H985 C994 0.930 . S
H986 C996 0.930 . S
H987 C999 0.929 . S
H988 C1002 0.930 . S
H989 C1004 0.960 . S
H990 C1004 0.960 . S
H991 C1004 0.960 . S
C992 H984 0.929 . S
C992 C993 1.377 . S
C992 C994 1.384 . S
C993 C992 1.377 . S
C993 C999 1.390 . S
C994 H985 0.930 . S
C994 C992 1.384 . S
C994 C995 1.372 . S
C995 C994 1.372 . S
C995 C996 1.400 . S
C995 C1000 1.490 . S
C996 H986 0.930 . S
C996 C995 1.400 . S
C996 C999 1.386 . S
H997 C1013 0.930 . S
H998 C1014 0.931 . S
C999 H987 0.929 . S
C999 C993 1.390 . S
C999 C996 1.386 . S
C1000 C995 1.490 . S
C1000 C1002 1.395 . S
C1000 C1003 1.403 . S
H1001 C1007 0.930 . S
C1002 H988 0.930 . S
C1002 C1000 1.395 . S
C1002 C1005 1.403 . S
C1003 C1000 1.403 . S
C1003 C1004 1.524 . S
C1003 C1007 1.400 . S
C1004 H989 0.960 . S
C1004 H990 0.960 . S
C1004 H991 0.960 . S
C1004 C1003 1.524 . S
C1005 C1002 1.403 . S
C1005 C1006 1.392 . S
C1005 C1009 1.495 . S
C1006 C1005 1.392 . S
C1006 C1007 1.385 . S
C1006 C1008 1.478 . S
C1007 H1001 0.930 . S
C1007 C1003 1.400 . S
C1007 C1006 1.385 . S
C1008 C1006 1.478 . S
C1008 C1010 1.381 . S
C1008 C1014 1.383 . S
C1009 C1005 1.495 . S
C1009 H1015 0.959 . S
C1009 H1016 0.961 . S
C1009 H1017 0.960 . S
C1010 C1008 1.381 . S
C1010 C1011 1.394 . S
C1010 H1018 0.930 . S
C1011 C1010 1.394 . S
C1011 C1012 1.383 . S
C1011 H1019 0.929 . S
C1012 C1011 1.383 . S
C1012 C1013 1.377 . S
C1013 H997 0.930 . S
C1013 C1012 1.377 . S
C1013 C1014 1.379 . S
C1014 H998 0.931 . S
C1014 C1008 1.383 . S
C1014 C1013 1.379 . S
H1015 C1009 0.959 . S
H1016 C1009 0.961 . S
H1017 C1009 0.960 . S
H1018 C1010 0.930 . S
H1019 C1011 0.929 . S
H1020 C1028 0.929 . S
H1021 C1030 0.930 . S
H1022 C1032 0.930 . S
H1023 C1035 0.929 . S
H1024 C1038 0.930 . S
H1025 C1040 0.960 . S
H1026 C1040 0.960 . S
H1027 C1040 0.960 . S
C1028 H1020 0.929 . S
C1028 C1029 1.377 . S
C1028 C1030 1.384 . S
C1029 C1028 1.377 . S
C1029 C1035 1.390 . S
C1030 H1021 0.930 . S
C1030 C1028 1.384 . S
C1030 C1031 1.372 . S
C1031 C1030 1.372 . S
C1031 C1032 1.400 . S
C1031 C1036 1.490 . S
C1032 H1022 0.930 . S
C1032 C1031 1.400 . S
C1032 C1035 1.386 . S
H1033 C1049 0.930 . S
H1034 C1050 0.931 . S
C1035 H1023 0.929 . S
C1035 C1029 1.390 . S
C1035 C1032 1.386 . S
C1036 C1031 1.490 . S
C1036 C1038 1.395 . S
C1036 C1039 1.403 . S
H1037 C1043 0.930 . S
C1038 H1024 0.930 . S
C1038 C1036 1.395 . S
C1038 C1041 1.403 . S
C1039 C1036 1.403 . S
C1039 C1040 1.524 . S
C1039 C1043 1.400 . S
C1040 H1025 0.960 . S
C1040 H1026 0.960 . S
C1040 H1027 0.960 . S
C1040 C1039 1.524 . S
C1041 C1038 1.403 . S
C1041 C1042 1.392 . S
C1041 C1045 1.495 . S
C1042 C1041 1.392 . S
C1042 C1043 1.385 . S
C1042 C1044 1.478 . S
C1043 H1037 0.930 . S
C1043 C1039 1.400 . S
C1043 C1042 1.385 . S
C1044 C1042 1.478 . S
C1044 C1046 1.381 . S
C1044 C1050 1.383 . S
C1045 C1041 1.495 . S
C1045 H1051 0.959 . S
C1045 H1052 0.961 . S
C1045 H1053 0.960 . S
C1046 C1044 1.381 . S
C1046 C1047 1.394 . S
C1046 H1054 0.930 . S
C1047 C1046 1.394 . S
C1047 C1048 1.383 . S
C1047 H1055 0.929 . S
C1048 C1047 1.383 . S
C1048 C1049 1.377 . S
C1049 H1033 0.930 . S
C1049 C1048 1.377 . S
C1049 C1050 1.379 . S
C1050 H1034 0.931 . S
C1050 C1044 1.383 . S
C1050 C1049 1.379 . S
H1051 C1045 0.959 . S
H1052 C1045 0.961 . S
H1053 C1045 0.960 . S
H1054 C1046 0.930 . S
H1055 C1047 0.929 . S
H1056 C1064 0.929 . S
H1057 C1066 0.930 . S
H1058 C1068 0.930 . S
H1059 C1071 0.929 . S
H1060 C1074 0.930 . S
H1061 C1076 0.960 . S
H1062 C1076 0.960 . S
H1063 C1076 0.960 . S
C1064 H1056 0.929 . S
C1064 C1065 1.377 . S
C1064 C1066 1.384 . S
C1065 C1064 1.377 . S
C1065 C1071 1.390 . S
C1066 H1057 0.930 . S
C1066 C1064 1.384 . S
C1066 C1067 1.372 . S
C1067 C1066 1.372 . S
C1067 C1068 1.400 . S
C1067 C1072 1.490 . S
C1068 H1058 0.930 . S
C1068 C1067 1.400 . S
C1068 C1071 1.386 . S
H1069 C1085 0.930 . S
H1070 C1086 0.931 . S
C1071 H1059 0.929 . S
C1071 C1065 1.390 . S
C1071 C1068 1.386 . S
C1072 C1067 1.490 . S
C1072 C1074 1.395 . S
C1072 C1075 1.403 . S
H1073 C1079 0.930 . S
C1074 H1060 0.930 . S
C1074 C1072 1.395 . S
C1074 C1077 1.403 . S
C1075 C1072 1.403 . S
C1075 C1076 1.524 . S
C1075 C1079 1.400 . S
C1076 H1061 0.960 . S
C1076 H1062 0.960 . S
C1076 H1063 0.960 . S
C1076 C1075 1.524 . S
C1077 C1074 1.403 . S
C1077 C1078 1.392 . S
C1077 C1081 1.495 . S
C1078 C1077 1.392 . S
C1078 C1079 1.385 . S
C1078 C1080 1.478 . S
C1079 H1073 0.930 . S
C1079 C1075 1.400 . S
C1079 C1078 1.385 . S
C1080 C1078 1.478 . S
C1080 C1082 1.381 . S
C1080 C1086 1.383 . S
C1081 C1077 1.495 . S
C1081 H1087 0.959 . S
C1081 H1088 0.961 . S
C1081 H1089 0.960 . S
C1082 C1080 1.381 . S
C1082 C1083 1.394 . S
C1082 H1090 0.930 . S
C1083 C1082 1.394 . S
C1083 C1084 1.383 . S
C1083 H1091 0.929 . S
C1084 C1083 1.383 . S
C1084 C1085 1.377 . S
C1085 H1069 0.930 . S
C1085 C1084 1.377 . S
C1085 C1086 1.379 . S
C1086 H1070 0.931 . S
C1086 C1080 1.383 . S
C1086 C1085 1.379 . S
H1087 C1081 0.959 . S
H1088 C1081 0.961 . S
H1089 C1081 0.960 . S
H1090 C1082 0.930 . S
H1091 C1083 0.929 . S
H1092 C1100 0.929 . S
H1093 C1102 0.930 . S
H1094 C1104 0.930 . S
H1095 C1107 0.929 . S
H1096 C1110 0.930 . S
H1097 C1112 0.960 . S
H1098 C1112 0.960 . S
H1099 C1112 0.960 . S
C1100 H1092 0.929 . S
C1100 C1101 1.377 . S
C1100 C1102 1.384 . S
C1101 C1100 1.377 . S
C1101 C1107 1.390 . S
C1102 H1093 0.930 . S
C1102 C1100 1.384 . S
C1102 C1103 1.372 . S
C1103 C1102 1.372 . S
C1103 C1104 1.400 . S
C1103 C1108 1.490 . S
C1104 H1094 0.930 . S
C1104 C1103 1.400 . S
C1104 C1107 1.386 . S
H1105 C1121 0.930 . S
H1106 C1122 0.931 . S
C1107 H1095 0.929 . S
C1107 C1101 1.390 . S
C1107 C1104 1.386 . S
C1108 C1103 1.490 . S
C1108 C1110 1.395 . S
C1108 C1111 1.403 . S
H1109 C1115 0.930 . S
C1110 H1096 0.930 . S
C1110 C1108 1.395 . S
C1110 C1113 1.403 . S
C1111 C1108 1.403 . S
C1111 C1112 1.524 . S
C1111 C1115 1.400 . S
C1112 H1097 0.960 . S
C1112 H1098 0.960 . S
C1112 H1099 0.960 . S
C1112 C1111 1.524 . S
C1113 C1110 1.403 . S
C1113 C1114 1.392 . S
C1113 C1117 1.495 . S
C1114 C1113 1.392 . S
C1114 C1115 1.385 . S
C1114 C1116 1.478 . S
C1115 H1109 0.930 . S
C1115 C1111 1.400 . S
C1115 C1114 1.385 . S
C1116 C1114 1.478 . S
C1116 C1118 1.381 . S
C1116 C1122 1.383 . S
C1117 C1113 1.495 . S
C1117 H1123 0.959 . S
C1117 H1124 0.961 . S
C1117 H1125 0.960 . S
C1118 C1116 1.381 . S
C1118 C1119 1.394 . S
C1118 H1126 0.930 . S
C1119 C1118 1.394 . S
C1119 C1120 1.383 . S
C1119 H1127 0.929 . S
C1120 C1119 1.383 . S
C1120 C1121 1.377 . S
C1121 H1105 0.930 . S
C1121 C1120 1.377 . S
C1121 C1122 1.379 . S
C1122 H1106 0.931 . S
C1122 C1116 1.383 . S
C1122 C1121 1.379 . S
H1123 C1117 0.959 . S
H1124 C1117 0.961 . S
H1125 C1117 0.960 . S
H1126 C1118 0.930 . S
H1127 C1119 0.929 . S
H1128 C1136 0.929 . S
H1129 C1138 0.930 . S
H1130 C1140 0.930 . S
H1131 C1143 0.929 . S
H1132 C1146 0.930 . S
H1133 C1148 0.960 . S
H1134 C1148 0.960 . S
H1135 C1148 0.960 . S
C1136 H1128 0.929 . S
C1136 C1137 1.377 . S
C1136 C1138 1.384 . S
C1137 C1136 1.377 . S
C1137 C1143 1.390 . S
C1138 H1129 0.930 . S
C1138 C1136 1.384 . S
C1138 C1139 1.372 . S
C1139 C1138 1.372 . S
C1139 C1140 1.400 . S
C1139 C1144 1.490 . S
C1140 H1130 0.930 . S
C1140 C1139 1.400 . S
C1140 C1143 1.386 . S
H1141 C1157 0.930 . S
H1142 C1158 0.931 . S
C1143 H1131 0.929 . S
C1143 C1137 1.390 . S
C1143 C1140 1.386 . S
C1144 C1139 1.490 . S
C1144 C1146 1.395 . S
C1144 C1147 1.403 . S
H1145 C1151 0.930 . S
C1146 H1132 0.930 . S
C1146 C1144 1.395 . S
C1146 C1149 1.403 . S
C1147 C1144 1.403 . S
C1147 C1148 1.524 . S
C1147 C1151 1.400 . S
C1148 H1133 0.960 . S
C1148 H1134 0.960 . S
C1148 H1135 0.960 . S
C1148 C1147 1.524 . S
C1149 C1146 1.403 . S
C1149 C1150 1.392 . S
C1149 C1153 1.495 . S
C1150 C1149 1.392 . S
C1150 C1151 1.385 . S
C1150 C1152 1.478 . S
C1151 H1145 0.930 . S
C1151 C1147 1.400 . S
C1151 C1150 1.385 . S
C1152 C1150 1.478 . S
C1152 C1154 1.381 . S
C1152 C1158 1.383 . S
C1153 C1149 1.495 . S
C1153 H1159 0.959 . S
C1153 H1160 0.961 . S
C1153 H1161 0.960 . S
C1154 C1152 1.381 . S
C1154 C1155 1.394 . S
C1154 H1162 0.930 . S
C1155 C1154 1.394 . S
C1155 C1156 1.383 . S
C1155 H1163 0.929 . S
C1156 C1155 1.383 . S
C1156 C1157 1.377 . S
C1157 H1141 0.930 . S
C1157 C1156 1.377 . S
C1157 C1158 1.379 . S
C1158 H1142 0.931 . S
C1158 C1152 1.383 . S
C1158 C1157 1.379 . S
H1159 C1153 0.959 . S
H1160 C1153 0.961 . S
H1161 C1153 0.960 . S
H1162 C1154 0.930 . S
H1163 C1155 0.929 . S
H1164 C1172 0.929 . S
H1165 C1174 0.930 . S
H1166 C1176 0.930 . S
H1167 C1179 0.929 . S
H1168 C1182 0.930 . S
H1169 C1184 0.960 . S
H1170 C1184 0.960 . S
H1171 C1184 0.960 . S
C1172 H1164 0.929 . S
C1172 C1173 1.377 . S
C1172 C1174 1.384 . S
C1173 C1172 1.377 . S
C1173 C1179 1.390 . S
C1174 H1165 0.930 . S
C1174 C1172 1.384 . S
C1174 C1175 1.372 . S
C1175 C1174 1.372 . S
C1175 C1176 1.400 . S
C1175 C1180 1.490 . S
C1176 H1166 0.930 . S
C1176 C1175 1.400 . S
C1176 C1179 1.386 . S
H1177 C1193 0.930 . S
H1178 C1194 0.931 . S
C1179 H1167 0.929 . S
C1179 C1173 1.390 . S
C1179 C1176 1.386 . S
C1180 C1175 1.490 . S
C1180 C1182 1.395 . S
C1180 C1183 1.403 . S
H1181 C1187 0.930 . S
C1182 H1168 0.930 . S
C1182 C1180 1.395 . S
C1182 C1185 1.403 . S
C1183 C1180 1.403 . S
C1183 C1184 1.524 . S
C1183 C1187 1.400 . S
C1184 H1169 0.960 . S
C1184 H1170 0.960 . S
C1184 H1171 0.960 . S
C1184 C1183 1.524 . S
C1185 C1182 1.403 . S
C1185 C1186 1.392 . S
C1185 C1189 1.495 . S
C1186 C1185 1.392 . S
C1186 C1187 1.385 . S
C1186 C1188 1.478 . S
C1187 H1181 0.930 . S
C1187 C1183 1.400 . S
C1187 C1186 1.385 . S
C1188 C1186 1.478 . S
C1188 C1190 1.381 . S
C1188 C1194 1.383 . S
C1189 C1185 1.495 . S
C1189 H1195 0.959 . S
C1189 H1196 0.961 . S
C1189 H1197 0.960 . S
C1190 C1188 1.381 . S
C1190 C1191 1.394 . S
C1190 H1198 0.930 . S
C1191 C1190 1.394 . S
C1191 C1192 1.383 . S
C1191 H1199 0.929 . S
C1192 C1191 1.383 . S
C1192 C1193 1.377 . S
C1193 H1177 0.930 . S
C1193 C1192 1.377 . S
C1193 C1194 1.379 . S
C1194 H1178 0.931 . S
C1194 C1188 1.383 . S
C1194 C1193 1.379 . S
H1195 C1189 0.959 . S
H1196 C1189 0.961 . S
H1197 C1189 0.960 . S
H1198 C1190 0.930 . S
H1199 C1191 0.929 . S
H1200 C1208 0.929 . S
H1201 C1210 0.930 . S
H1202 C1212 0.930 . S
H1203 C1215 0.929 . S
H1204 C1218 0.930 . S
H1205 C1220 0.960 . S
H1206 C1220 0.960 . S
H1207 C1220 0.960 . S
C1208 H1200 0.929 . S
C1208 C1209 1.377 . S
C1208 C1210 1.384 . S
C1209 C1208 1.377 . S
C1209 C1215 1.390 . S
C1210 H1201 0.930 . S
C1210 C1208 1.384 . S
C1210 C1211 1.372 . S
C1211 C1210 1.372 . S
C1211 C1212 1.400 . S
C1211 C1216 1.490 . S
C1212 H1202 0.930 . S
C1212 C1211 1.400 . S
C1212 C1215 1.386 . S
H1213 C1229 0.930 . S
H1214 C1230 0.931 . S
C1215 H1203 0.929 . S
C1215 C1209 1.390 . S
C1215 C1212 1.386 . S
C1216 C1211 1.490 . S
C1216 C1218 1.395 . S
C1216 C1219 1.403 . S
H1217 C1223 0.930 . S
C1218 H1204 0.930 . S
C1218 C1216 1.395 . S
C1218 C1221 1.403 . S
C1219 C1216 1.403 . S
C1219 C1220 1.524 . S
C1219 C1223 1.400 . S
C1220 H1205 0.960 . S
C1220 H1206 0.960 . S
C1220 H1207 0.960 . S
C1220 C1219 1.524 . S
C1221 C1218 1.403 . S
C1221 C1222 1.392 . S
C1221 C1225 1.495 . S
C1222 C1221 1.392 . S
C1222 C1223 1.385 . S
C1222 C1224 1.478 . S
C1223 H1217 0.930 . S
C1223 C1219 1.400 . S
C1223 C1222 1.385 . S
C1224 C1222 1.478 . S
C1224 C1226 1.381 . S
C1224 C1230 1.383 . S
C1225 C1221 1.495 . S
C1225 H1231 0.959 . S
C1225 H1232 0.961 . S
C1225 H1233 0.960 . S
C1226 C1224 1.381 . S
C1226 C1227 1.394 . S
C1226 H1234 0.930 . S
C1227 C1226 1.394 . S
C1227 C1228 1.383 . S
C1227 H1235 0.929 . S
C1228 C1227 1.383 . S
C1228 C1229 1.377 . S
C1229 H1213 0.930 . S
C1229 C1228 1.377 . S
C1229 C1230 1.379 . S
C1230 H1214 0.931 . S
C1230 C1224 1.383 . S
C1230 C1229 1.379 . S
H1231 C1225 0.959 . S
H1232 C1225 0.961 . S
H1233 C1225 0.960 . S
H1234 C1226 0.930 . S
H1235 C1227 0.929 . S
H1236 C1244 0.929 . S
H1237 C1246 0.930 . S
H1238 C1248 0.930 . S
H1239 C1251 0.929 . S
H1240 C1254 0.930 . S
H1241 C1256 0.960 . S
H1242 C1256 0.960 . S
H1243 C1256 0.960 . S
C1244 H1236 0.929 . S
C1244 C1245 1.377 . S
C1244 C1246 1.384 . S
C1245 C1244 1.377 . S
C1245 C1251 1.390 . S
C1246 H1237 0.930 . S
C1246 C1244 1.384 . S
C1246 C1247 1.372 . S
C1247 C1246 1.372 . S
C1247 C1248 1.400 . S
C1247 C1252 1.490 . S
C1248 H1238 0.930 . S
C1248 C1247 1.400 . S
C1248 C1251 1.386 . S
H1249 C1265 0.930 . S
H1250 C1266 0.931 . S
C1251 H1239 0.929 . S
C1251 C1245 1.390 . S
C1251 C1248 1.386 . S
C1252 C1247 1.490 . S
C1252 C1254 1.395 . S
C1252 C1255 1.403 . S
H1253 C1259 0.930 . S
C1254 H1240 0.930 . S
C1254 C1252 1.395 . S
C1254 C1257 1.403 . S
C1255 C1252 1.403 . S
C1255 C1256 1.524 . S
C1255 C1259 1.400 . S
C1256 H1241 0.960 . S
C1256 H1242 0.960 . S
C1256 H1243 0.960 . S
C1256 C1255 1.524 . S
C1257 C1254 1.403 . S
C1257 C1258 1.392 . S
C1257 C1261 1.495 . S
C1258 C1257 1.392 . S
C1258 C1259 1.385 . S
C1258 C1260 1.478 . S
C1259 H1253 0.930 . S
C1259 C1255 1.400 . S
C1259 C1258 1.385 . S
C1260 C1258 1.478 . S
C1260 C1262 1.381 . S
C1260 C1266 1.383 . S
C1261 C1257 1.495 . S
C1261 H1267 0.959 . S
C1261 H1268 0.961 . S
C1261 H1269 0.960 . S
C1262 C1260 1.381 . S
C1262 C1263 1.394 . S
C1262 H1270 0.930 . S
C1263 C1262 1.394 . S
C1263 C1264 1.383 . S
C1263 H1271 0.929 . S
C1264 C1263 1.383 . S
C1264 C1265 1.377 . S
C1265 H1249 0.930 . S
C1265 C1264 1.377 . S
C1265 C1266 1.379 . S
C1266 H1250 0.931 . S
C1266 C1260 1.383 . S
C1266 C1265 1.379 . S
H1267 C1261 0.959 . S
H1268 C1261 0.961 . S
H1269 C1261 0.960 . S
H1270 C1262 0.930 . S
H1271 C1263 0.929 . S
H1272 C1280 0.929 . S
H1273 C1282 0.930 . S
H1274 C1284 0.930 . S
H1275 C1287 0.929 . S
H1276 C1290 0.930 . S
H1277 C1292 0.960 . S
H1278 C1292 0.960 1_556 S
H1279 C1292 0.960 . S
C1280 H1272 0.929 . S
C1280 C1281 1.377 1_556 S
C1280 C1282 1.384 . S
C1281 C1280 1.377 1_554 S
C1281 C1287 1.390 . S
C1282 H1273 0.930 . S
C1282 C1280 1.384 . S
C1282 C1283 1.372 1_556 S
C1283 C1282 1.372 1_554 S
C1283 C1284 1.400 . S
C1283 C1288 1.490 . S
C1284 H1274 0.930 . S
C1284 C1283 1.400 . S
C1284 C1287 1.386 . S
H1285 C1301 0.930 . S
H1286 C1302 0.931 . S
C1287 H1275 0.929 . S
C1287 C1281 1.390 . S
C1287 C1284 1.386 . S
C1288 C1283 1.490 . S
C1288 C1290 1.395 . S
C1288 C1291 1.403 . S
H1289 C1295 0.930 . S
C1290 H1276 0.930 . S
C1290 C1288 1.395 . S
C1290 C1293 1.403 . S
C1291 C1288 1.403 . S
C1291 C1292 1.524 . S
C1291 C1295 1.400 . S
C1292 H1277 0.960 . S
C1292 H1278 0.960 1_554 S
C1292 H1279 0.960 . S
C1292 C1291 1.524 . S
C1293 C1290 1.403 . S
C1293 C1294 1.392 . S
C1293 C1297 1.495 . S
C1294 C1293 1.392 . S
C1294 C1295 1.385 . S
C1294 C1296 1.478 . S
C1295 H1289 0.930 . S
C1295 C1291 1.400 . S
C1295 C1294 1.385 . S
C1296 C1294 1.478 . S
C1296 C1298 1.381 1_554 S
C1296 C1302 1.383 . S
C1297 C1293 1.495 . S
C1297 H1303 0.959 . S
C1297 H1304 0.961 . S
C1297 H1305 0.960 . S
C1298 C1296 1.381 1_556 S
C1298 C1299 1.394 . S
C1298 H1306 0.930 . S
C1299 C1298 1.394 . S
C1299 C1300 1.383 1_556 S
C1299 H1307 0.929 . S
C1300 C1299 1.383 1_554 S
C1300 C1301 1.377 . S
C1301 H1285 0.930 . S
C1301 C1300 1.377 . S
C1301 C1302 1.379 . S
C1302 H1286 0.931 . S
C1302 C1296 1.383 . S
C1302 C1301 1.379 . S
H1303 C1297 0.959 . S
H1304 C1297 0.961 . S
H1305 C1297 0.960 . S
H1306 C1298 0.930 . S
H1307 C1299 0.929 . S
H1308 C1316 0.929 . S
H1309 C1318 0.930 . S
H1310 C1320 0.930 . S
H1311 C1323 0.929 . S
H1312 C1326 0.930 . S
H1313 C1328 0.960 . S
H1314 C1328 0.960 1_556 S
H1315 C1328 0.960 . S
C1316 H1308 0.929 . S
C1316 C1317 1.377 1_556 S
C1316 C1318 1.384 . S
C1317 C1316 1.377 1_554 S
C1317 C1323 1.390 . S
C1318 H1309 0.930 . S
C1318 C1316 1.384 . S
C1318 C1319 1.372 1_556 S
C1319 C1318 1.372 1_554 S
C1319 C1320 1.400 . S
C1319 C1324 1.490 . S
C1320 H1310 0.930 . S
C1320 C1319 1.400 . S
C1320 C1323 1.386 . S
H1321 C1337 0.930 . S
H1322 C1338 0.931 . S
C1323 H1311 0.929 . S
C1323 C1317 1.390 . S
C1323 C1320 1.386 . S
C1324 C1319 1.490 . S
C1324 C1326 1.395 . S
C1324 C1327 1.403 . S
H1325 C1331 0.930 . S
C1326 H1312 0.930 . S
C1326 C1324 1.395 . S
C1326 C1329 1.403 . S
C1327 C1324 1.403 . S
C1327 C1328 1.524 . S
C1327 C1331 1.400 . S
C1328 H1313 0.960 . S
C1328 H1314 0.960 1_554 S
C1328 H1315 0.960 . S
C1328 C1327 1.524 . S
C1329 C1326 1.403 . S
C1329 C1330 1.392 . S
C1329 C1333 1.495 . S
C1330 C1329 1.392 . S
C1330 C1331 1.385 . S
C1330 C1332 1.478 . S
C1331 H1325 0.930 . S
C1331 C1327 1.400 . S
C1331 C1330 1.385 . S
C1332 C1330 1.478 . S
C1332 C1334 1.381 1_554 S
C1332 C1338 1.383 . S
C1333 C1329 1.495 . S
C1333 H1339 0.959 . S
C1333 H1340 0.961 . S
C1333 H1341 0.928 1_554 S
C1334 C1332 1.381 1_556 S
C1334 C1335 1.394 . S
C1334 H1342 0.930 . S
C1335 C1334 1.394 . S
C1335 C1336 1.383 1_556 S
C1335 H1343 0.929 . S
C1336 C1335 1.383 1_554 S
C1336 C1337 1.377 . S
C1337 H1321 0.930 . S
C1337 C1336 1.377 . S
C1337 C1338 1.379 . S
C1338 H1322 0.931 . S
C1338 C1332 1.383 . S
C1338 C1337 1.379 . S
H1339 C1333 0.959 . S
H1340 C1333 0.961 . S
H1341 C1333 0.928 1_556 S
H1342 C1334 0.930 . S
H1343 C1335 0.929 . S
H1344 C1352 0.929 . S
H1345 C1354 0.930 . S
H1346 C1356 0.930 . S
H1347 C1359 0.929 . S
H1348 C1362 0.930 . S
H1349 C1364 0.960 . S
H1350 C1364 0.960 . S
H1351 C1364 0.960 . S
C1352 H1344 0.929 . S
C1352 C1353 1.377 . S
C1352 C1354 1.384 . S
C1353 C1352 1.377 . S
C1353 C1359 1.390 . S
C1354 H1345 0.930 . S
C1354 C1352 1.384 . S
C1354 C1355 1.372 . S
C1355 C1354 1.372 . S
C1355 C1356 1.400 . S
C1355 C1360 1.490 . S
C1356 H1346 0.930 . S
C1356 C1355 1.400 . S
C1356 C1359 1.386 . S
H1357 C1373 0.930 . S
H1358 C1374 0.931 . S
C1359 H1347 0.929 . S
C1359 C1353 1.390 . S
C1359 C1356 1.386 . S
C1360 C1355 1.490 . S
C1360 C1362 1.395 1_554 S
C1360 C1363 1.403 . S
H1361 C1367 0.930 . S
C1362 H1348 0.930 . S
C1362 C1360 1.395 1_556 S
C1362 C1365 1.403 . S
C1363 C1360 1.403 . S
C1363 C1364 1.524 . S
C1363 C1367 1.400 . S
C1364 H1349 0.960 . S
C1364 H1350 0.960 . S
C1364 H1351 0.960 . S
C1364 C1363 1.524 . S
C1365 C1362 1.403 . S
C1365 C1366 1.392 1_556 S
C1365 C1369 1.495 . S
C1366 C1365 1.392 1_554 S
C1366 C1367 1.385 . S
C1366 C1368 1.478 . S
C1367 H1361 0.930 . S
C1367 C1363 1.400 . S
C1367 C1366 1.385 . S
C1368 C1366 1.478 . S
C1368 C1370 1.381 . S
C1368 C1374 1.383 . S
C1369 C1365 1.495 . S
C1369 H1375 0.959 . S
C1369 H1376 0.961 . S
C1369 H1377 0.960 . S
C1370 C1368 1.381 . S
C1370 C1371 1.394 . S
C1370 H1378 0.930 1_554 S
C1371 C1370 1.394 . S
C1371 C1372 1.383 . S
C1371 H1379 0.929 . S
C1372 C1371 1.383 . S
C1372 C1373 1.377 . S
C1373 H1357 0.930 . S
C1373 C1372 1.377 . S
C1373 C1374 1.379 . S
C1374 H1358 0.931 . S
C1374 C1368 1.383 . S
C1374 C1373 1.379 . S
H1375 C1369 0.959 . S
H1376 C1369 0.961 . S
H1377 C1369 0.960 . S
H1378 C1370 0.930 1_556 S
H1379 C1371 0.929 . S
H1380 C1388 0.929 . S
H1381 C1390 0.930 . S
H1382 C1392 0.930 . S
H1383 C1395 0.929 . S
H1384 C1398 0.930 . S
H1385 C1400 0.960 . S
H1386 C1400 0.960 1_556 S
H1387 C1400 0.960 . S
C1388 H1380 0.929 . S
C1388 C1389 1.377 1_556 S
C1388 C1390 1.384 . S
C1389 C1388 1.377 1_554 S
C1389 C1395 1.390 . S
C1390 H1381 0.930 . S
C1390 C1388 1.384 . S
C1390 C1391 1.372 1_556 S
C1391 C1390 1.372 1_554 S
C1391 C1392 1.400 . S
C1391 C1396 1.490 . S
C1392 H1382 0.930 . S
C1392 C1391 1.400 . S
C1392 C1395 1.386 . S
H1393 C1409 0.930 . S
H1394 C1410 0.931 . S
C1395 H1383 0.929 . S
C1395 C1389 1.390 . S
C1395 C1392 1.386 . S
C1396 C1391 1.490 . S
C1396 C1398 1.395 . S
C1396 C1399 1.403 . S
H1397 C1403 0.930 . S
C1398 H1384 0.930 . S
C1398 C1396 1.395 . S
C1398 C1401 1.403 . S
C1399 C1396 1.403 . S
C1399 C1400 1.524 . S
C1399 C1403 1.400 . S
C1400 H1385 0.960 . S
C1400 H1386 0.960 1_554 S
C1400 H1387 0.960 . S
C1400 C1399 1.524 . S
C1401 C1398 1.403 . S
C1401 C1402 1.392 . S
C1401 C1405 1.495 . S
C1402 C1401 1.392 . S
C1402 C1403 1.385 . S
C1402 C1404 1.478 . S
C1403 H1397 0.930 . S
C1403 C1399 1.400 . S
C1403 C1402 1.385 . S
C1404 C1402 1.478 . S
C1404 C1406 1.381 1_554 S
C1404 C1410 1.383 . S
C1405 C1401 1.495 . S
C1405 H1411 0.959 . S
C1405 H1412 0.961 . S
C1405 H1413 0.994 . S
C1406 C1404 1.381 1_556 S
C1406 C1407 1.394 . S
C1406 H1414 0.930 . S
C1407 C1406 1.394 . S
C1407 C1408 1.383 1_556 S
C1407 H1415 0.929 . S
C1408 C1407 1.383 1_554 S
C1408 C1409 1.377 . S
C1409 H1393 0.930 . S
C1409 C1408 1.377 . S
C1409 C1410 1.379 . S
C1410 H1394 0.931 . S
C1410 C1404 1.383 . S
C1410 C1409 1.379 . S
H1411 C1405 0.959 . S
H1412 C1405 0.961 . S
H1413 C1405 0.994 . S
H1414 C1406 0.930 . S
H1415 C1407 0.929 . S
H1416 C1424 0.929 . S
H1417 C1426 0.930 . S
H1418 C1428 0.930 . S
H1419 C1431 0.929 . S
H1420 C1434 0.930 . S
H1421 C1436 0.960 . S
H1422 C1436 0.960 1_556 S
H1423 C1436 0.960 . S
C1424 H1416 0.929 . S
C1424 C1425 1.377 1_556 S
C1424 C1426 1.384 . S
C1425 C1424 1.377 1_554 S
C1425 C1431 1.390 . S
C1426 H1417 0.930 . S
C1426 C1424 1.384 . S
C1426 C1427 1.372 1_556 S
C1427 C1426 1.372 1_554 S
C1427 C1428 1.400 . S
C1427 C1432 1.490 . S
C1428 H1418 0.930 . S
C1428 C1427 1.400 . S
C1428 C1431 1.386 . S
H1429 C1445 0.930 . S
H1430 C1446 0.931 . S
C1431 H1419 0.929 . S
C1431 C1425 1.390 . S
C1431 C1428 1.386 . S
C1432 C1427 1.490 . S
C1432 C1434 1.395 . S
C1432 C1435 1.403 . S
H1433 C1439 0.930 . S
C1434 H1420 0.930 . S
C1434 C1432 1.395 . S
C1434 C1437 1.403 . S
C1435 C1432 1.403 . S
C1435 C1436 1.524 . S
C1435 C1439 1.400 . S
C1436 H1421 0.960 . S
C1436 H1422 0.960 1_554 S
C1436 H1423 0.960 . S
C1436 C1435 1.524 . S
C1437 C1434 1.403 . S
C1437 C1438 1.392 . S
C1437 C1441 1.495 . S
C1438 C1437 1.392 . S
C1438 C1439 1.385 . S
C1438 C1440 1.478 . S
C1439 H1433 0.930 . S
C1439 C1435 1.400 . S
C1439 C1438 1.385 . S
C1440 C1438 1.478 . S
C1440 C1442 1.381 1_554 S
C1440 C1446 1.383 . S
C1441 C1437 1.495 . S
C1441 H1447 0.959 . S
C1441 H1448 0.961 . S
C1441 H1449 0.960 . S
C1442 C1440 1.381 1_556 S
C1442 C1443 1.394 . S
C1442 H1450 0.930 . S
C1443 C1442 1.394 . S
C1443 C1444 1.383 1_556 S
C1443 H1451 0.929 . S
C1444 C1443 1.383 1_554 S
C1444 C1445 1.377 . S
C1445 H1429 0.930 . S
C1445 C1444 1.377 . S
C1445 C1446 1.379 . S
C1446 H1430 0.931 . S
C1446 C1440 1.383 . S
C1446 C1445 1.379 . S
H1447 C1441 0.959 . S
H1448 C1441 0.961 . S
H1449 C1441 0.960 . S
H1450 C1442 0.930 . S
H1451 C1443 0.929 . S
H1452 C1460 0.929 . S
H1453 C1462 0.930 . S
H1454 C1464 0.930 . S
H1455 C1467 0.929 . S
H1456 C1470 0.930 . S
H1457 C1472 0.960 . S
H1458 C1472 0.960 1_556 S
H1459 C1472 0.960 . S
C1460 H1452 0.929 . S
C1460 C1461 1.377 1_556 S
C1460 C1462 1.384 . S
C1461 C1460 1.377 1_554 S
C1461 C1467 1.390 . S
C1462 H1453 0.930 . S
C1462 C1460 1.384 . S
C1462 C1463 1.372 1_556 S
C1463 C1462 1.372 1_554 S
C1463 C1464 1.400 . S
C1463 C1468 1.490 . S
C1464 H1454 0.930 . S
C1464 C1463 1.400 . S
C1464 C1467 1.386 . S
H1465 C1481 0.930 . S
H1466 C1482 0.931 . S
C1467 H1455 0.929 . S
C1467 C1461 1.390 . S
C1467 C1464 1.386 . S
C1468 C1463 1.490 . S
C1468 C1470 1.395 . S
C1468 C1471 1.403 . S
H1469 C1475 0.930 . S
C1470 H1456 0.930 . S
C1470 C1468 1.395 . S
C1470 C1473 1.403 . S
C1471 C1468 1.403 . S
C1471 C1472 1.524 . S
C1471 C1475 1.400 . S
C1472 H1457 0.960 . S
C1472 H1458 0.960 1_554 S
C1472 H1459 0.960 . S
C1472 C1471 1.524 . S
C1473 C1470 1.403 . S
C1473 C1474 1.392 . S
C1473 C1477 1.495 . S
C1474 C1473 1.392 . S
C1474 C1475 1.385 . S
C1474 C1476 1.478 . S
C1475 H1469 0.930 . S
C1475 C1471 1.400 . S
C1475 C1474 1.385 . S
C1476 C1474 1.478 . S
C1476 C1478 1.381 1_554 S
C1476 C1482 1.383 . S
C1477 C1473 1.495 . S
C1477 H1483 0.959 . S
C1477 H1484 0.961 . S
C1477 H1485 0.960 . S
C1478 C1476 1.381 1_556 S
C1478 C1479 1.394 . S
C1478 H1486 0.930 . S
C1479 C1478 1.394 . S
C1479 C1480 1.383 1_556 S
C1479 H1487 0.929 . S
C1480 C1479 1.383 1_554 S
C1480 C1481 1.377 . S
C1481 H1465 0.930 . S
C1481 C1480 1.377 . S
C1481 C1482 1.379 . S
C1482 H1466 0.931 . S
C1482 C1476 1.383 . S
C1482 C1481 1.379 . S
H1483 C1477 0.959 . S
H1484 C1477 0.961 . S
H1485 C1477 0.960 . S
H1486 C1478 0.930 . S
H1487 C1479 0.929 . S
H1488 C1496 0.929 . S
H1489 C1498 0.930 . S
H1490 C1500 0.930 . S
H1491 C1503 0.929 . S
H1492 C1506 0.930 . S
H1493 C1508 0.960 . S
H1494 C1508 0.960 . S
H1495 C1508 0.960 . S
C1496 H1488 0.929 . S
C1496 C1497 1.377 . S
C1496 C1498 1.384 . S
C1497 C1496 1.377 . S
C1497 C1503 1.390 . S
C1498 H1489 0.930 . S
C1498 C1496 1.384 . S
C1498 C1499 1.372 . S
C1499 C1498 1.372 . S
C1499 C1500 1.400 . S
C1499 C1504 1.490 . S
C1500 H1490 0.930 . S
C1500 C1499 1.400 . S
C1500 C1503 1.386 . S
H1501 C1517 0.930 . S
H1502 C1518 0.931 . S
C1503 H1491 0.929 . S
C1503 C1497 1.390 . S
C1503 C1500 1.386 . S
C1504 C1499 1.490 . S
C1504 C1506 1.395 . S
C1504 C1507 1.403 . S
H1505 C1511 0.930 . S
C1506 H1492 0.930 . S
C1506 C1504 1.395 . S
C1506 C1509 1.403 . S
C1507 C1504 1.403 . S
C1507 C1508 1.524 . S
C1507 C1511 1.400 . S
C1508 H1493 0.960 . S
C1508 H1494 0.960 . S
C1508 H1495 0.960 . S
C1508 C1507 1.524 . S
C1509 C1506 1.403 . S
C1509 C1510 1.392 . S
C1509 C1513 1.495 . S
C1510 C1509 1.392 . S
C1510 C1511 1.385 . S
C1510 C1512 1.478 . S
C1511 H1505 0.930 . S
C1511 C1507 1.400 . S
C1511 C1510 1.385 . S
C1512 C1510 1.478 . S
C1512 C1514 1.381 . S
C1512 C1518 1.383 . S
C1513 C1509 1.495 . S
C1513 H1519 0.959 . S
C1513 H1520 0.961 . S
C1513 H1521 0.960 . S
C1514 C1512 1.381 . S
C1514 C1515 1.394 . S
C1514 H1522 0.930 . S
C1515 C1514 1.394 . S
C1515 C1516 1.383 . S
C1515 H1523 0.929 . S
C1516 C1515 1.383 . S
C1516 C1517 1.377 . S
C1517 H1501 0.930 . S
C1517 C1516 1.377 . S
C1517 C1518 1.379 . S
C1518 H1502 0.931 . S
C1518 C1512 1.383 . S
C1518 C1517 1.379 . S
H1519 C1513 0.959 . S
H1520 C1513 0.961 . S
H1521 C1513 0.960 . S
H1522 C1514 0.930 . S
H1523 C1515 0.929 . S
H1524 C1532 0.929 . S
H1525 C1534 0.930 . S
H1526 C1536 0.930 . S
H1527 C1539 0.929 . S
H1528 C1542 0.930 . S
H1529 C1544 0.960 . S
H1530 C1544 0.960 . S
H1531 C1544 0.960 . S
C1532 H1524 0.929 . S
C1532 C1533 1.377 . S
C1532 C1534 1.384 . S
C1533 C1532 1.377 . S
C1533 C1539 1.390 . S
C1534 H1525 0.930 . S
C1534 C1532 1.384 . S
C1534 C1535 1.372 . S
C1535 C1534 1.372 . S
C1535 C1536 1.400 . S
C1535 C1540 1.490 . S
C1536 H1526 0.930 . S
C1536 C1535 1.400 . S
C1536 C1539 1.386 . S
H1537 C1553 0.930 . S
H1538 C1554 0.931 . S
C1539 H1527 0.929 . S
C1539 C1533 1.390 . S
C1539 C1536 1.386 . S
C1540 C1535 1.490 . S
C1540 C1542 1.395 . S
C1540 C1543 1.403 . S
H1541 C1547 0.930 . S
C1542 H1528 0.930 . S
C1542 C1540 1.395 . S
C1542 C1545 1.403 . S
C1543 C1540 1.403 . S
C1543 C1544 1.524 . S
C1543 C1547 1.400 . S
C1544 H1529 0.960 . S
C1544 H1530 0.960 . S
C1544 H1531 0.960 . S
C1544 C1543 1.524 . S
C1545 C1542 1.403 . S
C1545 C1546 1.392 . S
C1545 C1549 1.495 . S
C1546 C1545 1.392 . S
C1546 C1547 1.385 . S
C1546 C1548 1.478 . S
C1547 H1541 0.930 . S
C1547 C1543 1.400 . S
C1547 C1546 1.385 . S
C1548 C1546 1.478 . S
C1548 C1550 1.381 . S
C1548 C1554 1.383 . S
C1549 C1545 1.495 . S
C1549 H1555 0.959 . S
C1549 H1556 0.961 . S
C1549 H1557 0.960 . S
C1550 C1548 1.381 . S
C1550 C1551 1.394 . S
C1550 H1558 0.930 . S
C1551 C1550 1.394 . S
C1551 C1552 1.383 . S
C1551 H1559 0.929 . S
C1552 C1551 1.383 . S
C1552 C1553 1.377 . S
C1553 H1537 0.930 . S
C1553 C1552 1.377 . S
C1553 C1554 1.379 . S
C1554 H1538 0.931 . S
C1554 C1548 1.383 . S
C1554 C1553 1.379 . S
H1555 C1549 0.959 . S
H1556 C1549 0.961 . S
H1557 C1549 0.960 . S
H1558 C1550 0.930 . S
H1559 C1551 0.929 . S
H1560 C1568 0.929 . S
H1561 C1570 0.930 . S
H1562 C1572 0.930 . S
H1563 C1575 0.929 . S
H1564 C1578 0.930 . S
H1565 C1580 0.960 . S
H1566 C1580 0.960 . S
H1567 C1580 0.960 . S
C1568 H1560 0.929 . S
C1568 C1569 1.377 . S
C1568 C1570 1.384 . S
C1569 C1568 1.377 . S
C1569 C1575 1.390 . S
C1570 H1561 0.930 . S
C1570 C1568 1.384 . S
C1570 C1571 1.372 . S
C1571 C1570 1.372 . S
C1571 C1572 1.400 . S
C1571 C1576 1.490 . S
C1572 H1562 0.930 . S
C1572 C1571 1.400 . S
C1572 C1575 1.386 . S
H1573 C1589 0.930 . S
H1574 C1590 0.931 . S
C1575 H1563 0.929 . S
C1575 C1569 1.390 . S
C1575 C1572 1.386 . S
C1576 C1571 1.490 . S
C1576 C1578 1.395 . S
C1576 C1579 1.403 . S
H1577 C1583 0.930 . S
C1578 H1564 0.930 . S
C1578 C1576 1.395 . S
C1578 C1581 1.403 . S
C1579 C1576 1.403 . S
C1579 C1580 1.524 . S
C1579 C1583 1.400 . S
C1580 H1565 0.960 . S
C1580 H1566 0.960 . S
C1580 H1567 0.960 . S
C1580 C1579 1.524 . S
C1581 C1578 1.403 . S
C1581 C1582 1.392 . S
C1581 C1585 1.495 . S
C1582 C1581 1.392 . S
C1582 C1583 1.385 . S
C1582 C1584 1.478 . S
C1583 H1577 0.930 . S
C1583 C1579 1.400 . S
C1583 C1582 1.385 . S
C1584 C1582 1.478 . S
C1584 C1586 1.381 . S
C1584 C1590 1.383 . S
C1585 C1581 1.495 . S
C1585 H1591 0.959 . S
C1585 H1592 0.961 . S
C1585 H1593 0.960 . S
C1586 C1584 1.381 . S
C1586 C1587 1.394 . S
C1586 H1594 0.930 . S
C1587 C1586 1.394 . S
C1587 C1588 1.383 . S
C1587 H1595 0.929 . S
C1588 C1587 1.383 . S
C1588 C1589 1.377 . S
C1589 H1573 0.930 . S
C1589 C1588 1.377 . S
C1589 C1590 1.379 . S
C1590 H1574 0.931 . S
C1590 C1584 1.383 . S
C1590 C1589 1.379 . S
H1591 C1585 0.959 . S
H1592 C1585 0.961 . S
H1593 C1585 0.960 . S
H1594 C1586 0.930 . S
H1595 C1587 0.929 . S
H1596 C1604 0.929 . S
H1597 C1606 0.930 . S
H1598 C1608 0.930 . S
H1599 C1611 0.929 . S
H1600 C1614 0.930 . S
H1601 C1616 0.960 . S
H1602 C1616 0.960 . S
H1603 C1616 0.960 . S
C1604 H1596 0.929 . S
C1604 C1605 1.377 . S
C1604 C1606 1.384 . S
C1605 C1604 1.377 . S
C1605 C1611 1.390 . S
C1606 H1597 0.930 . S
C1606 C1604 1.384 . S
C1606 C1607 1.372 . S
C1607 C1606 1.372 . S
C1607 C1608 1.400 . S
C1607 C1612 1.490 . S
C1608 H1598 0.930 . S
C1608 C1607 1.400 . S
C1608 C1611 1.386 . S
H1609 C1625 0.930 . S
H1610 C1626 0.931 . S
C1611 H1599 0.929 . S
C1611 C1605 1.390 . S
C1611 C1608 1.386 . S
C1612 C1607 1.490 . S
C1612 C1614 1.395 . S
C1612 C1615 1.403 . S
H1613 C1619 0.930 . S
C1614 H1600 0.930 . S
C1614 C1612 1.395 . S
C1614 C1617 1.403 . S
C1615 C1612 1.403 . S
C1615 C1616 1.524 . S
C1615 C1619 1.400 . S
C1616 H1601 0.960 . S
C1616 H1602 0.960 . S
C1616 H1603 0.960 . S
C1616 C1615 1.524 . S
C1617 C1614 1.403 . S
C1617 C1618 1.392 . S
C1617 C1621 1.495 . S
C1618 C1617 1.392 . S
C1618 C1619 1.385 . S
C1618 C1620 1.478 . S
C1619 H1613 0.930 . S
C1619 C1615 1.400 . S
C1619 C1618 1.385 . S
C1620 C1618 1.478 . S
C1620 C1622 1.381 . S
C1620 C1626 1.383 . S
C1621 C1617 1.495 . S
C1621 H1627 0.959 . S
C1621 H1628 0.961 . S
C1621 H1629 0.960 . S
C1622 C1620 1.381 . S
C1622 C1623 1.394 . S
C1622 H1630 0.930 . S
C1623 C1622 1.394 . S
C1623 C1624 1.383 . S
C1623 H1631 0.929 . S
C1624 C1623 1.383 . S
C1624 C1625 1.377 . S
C1625 H1609 0.930 . S
C1625 C1624 1.377 . S
C1625 C1626 1.379 . S
C1626 H1610 0.931 . S
C1626 C1620 1.383 . S
C1626 C1625 1.379 . S
H1627 C1621 0.959 . S
H1628 C1621 0.961 . S
H1629 C1621 0.960 . S
H1630 C1622 0.930 . S
H1631 C1623 0.929 . S
H1632 C1640 0.929 . S
H1633 C1642 0.930 . S
H1634 C1644 0.930 . S
H1635 C1647 0.929 . S
H1636 C1650 0.930 . S
H1637 C1652 0.960 . S
H1638 C1652 0.960 . S
H1639 C1652 0.960 . S
C1640 H1632 0.929 . S
C1640 C1641 1.377 . S
C1640 C1642 1.384 . S
C1641 C1640 1.377 . S
C1641 C1647 1.390 . S
C1642 H1633 0.930 . S
C1642 C1640 1.384 . S
C1642 C1643 1.372 . S
C1643 C1642 1.372 . S
C1643 C1644 1.400 . S
C1643 C1648 1.490 . S
C1644 H1634 0.930 . S
C1644 C1643 1.400 . S
C1644 C1647 1.386 . S
H1645 C1661 0.930 . S
H1646 C1662 0.931 . S
C1647 H1635 0.929 . S
C1647 C1641 1.390 . S
C1647 C1644 1.386 . S
C1648 C1643 1.490 . S
C1648 C1650 1.395 . S
C1648 C1651 1.403 . S
H1649 C1655 0.930 . S
C1650 H1636 0.930 . S
C1650 C1648 1.395 . S
C1650 C1653 1.403 . S
C1651 C1648 1.403 . S
C1651 C1652 1.524 . S
C1651 C1655 1.400 . S
C1652 H1637 0.960 . S
C1652 H1638 0.960 . S
C1652 H1639 0.960 . S
C1652 C1651 1.524 . S
C1653 C1650 1.403 . S
C1653 C1654 1.392 . S
C1653 C1657 1.495 . S
C1654 C1653 1.392 . S
C1654 C1655 1.385 . S
C1654 C1656 1.478 . S
C1655 H1649 0.930 . S
C1655 C1651 1.400 . S
C1655 C1654 1.385 . S
C1656 C1654 1.478 . S
C1656 C1658 1.381 . S
C1656 C1662 1.383 . S
C1657 C1653 1.495 . S
C1657 H1663 0.959 . S
C1657 H1664 0.961 . S
C1657 H1665 0.960 . S
C1658 C1656 1.381 . S
C1658 C1659 1.394 . S
C1658 H1666 0.930 . S
C1659 C1658 1.394 . S
C1659 C1660 1.383 . S
C1659 H1667 0.929 . S
C1660 C1659 1.383 . S
C1660 C1661 1.377 . S
C1661 H1645 0.930 . S
C1661 C1660 1.377 . S
C1661 C1662 1.379 . S
C1662 H1646 0.931 . S
C1662 C1656 1.383 . S
C1662 C1661 1.379 . S
H1663 C1657 0.959 . S
H1664 C1657 0.961 . S
H1665 C1657 0.960 . S
H1666 C1658 0.930 . S
H1667 C1659 0.929 . S
H1668 C1676 0.929 . S
H1669 C1678 0.930 . S
H1670 C1680 0.930 . S
H1671 C1683 0.929 . S
H1672 C1686 0.930 . S
H1673 C1688 0.960 . S
H1674 C1688 0.960 . S
H1675 C1688 0.960 . S
C1676 H1668 0.929 . S
C1676 C1677 1.377 . S
C1676 C1678 1.384 . S
C1677 C1676 1.377 . S
C1677 C1683 1.390 . S
C1678 H1669 0.930 . S
C1678 C1676 1.384 . S
C1678 C1679 1.372 . S
C1679 C1678 1.372 . S
C1679 C1680 1.400 . S
C1679 C1684 1.490 . S
C1680 H1670 0.930 . S
C1680 C1679 1.400 . S
C1680 C1683 1.386 . S
H1681 C1697 0.930 . S
H1682 C1698 0.931 . S
C1683 H1671 0.929 . S
C1683 C1677 1.390 . S
C1683 C1680 1.386 . S
C1684 C1679 1.490 . S
C1684 C1686 1.395 . S
C1684 C1687 1.403 . S
H1685 C1691 0.930 . S
C1686 H1672 0.930 . S
C1686 C1684 1.395 . S
C1686 C1689 1.403 . S
C1687 C1684 1.403 . S
C1687 C1688 1.524 . S
C1687 C1691 1.400 . S
C1688 H1673 0.960 . S
C1688 H1674 0.960 . S
C1688 H1675 0.960 . S
C1688 C1687 1.524 . S
C1689 C1686 1.403 . S
C1689 C1690 1.392 . S
C1689 C1693 1.495 . S
C1690 C1689 1.392 . S
C1690 C1691 1.385 . S
C1690 C1692 1.478 . S
C1691 H1685 0.930 . S
C1691 C1687 1.400 . S
C1691 C1690 1.385 . S
C1692 C1690 1.478 . S
C1692 C1694 1.381 . S
C1692 C1698 1.383 . S
C1693 C1689 1.495 . S
C1693 H1699 0.959 . S
C1693 H1700 0.961 . S
C1693 H1701 0.960 . S
C1694 C1692 1.381 . S
C1694 C1695 1.394 . S
C1694 H1702 0.930 . S
C1695 C1694 1.394 . S
C1695 C1696 1.383 . S
C1695 H1703 0.929 . S
C1696 C1695 1.383 . S
C1696 C1697 1.377 . S
C1697 H1681 0.930 . S
C1697 C1696 1.377 . S
C1697 C1698 1.379 . S
C1698 H1682 0.931 . S
C1698 C1692 1.383 . S
C1698 C1697 1.379 . S
H1699 C1693 0.959 . S
H1700 C1693 0.961 . S
H1701 C1693 0.960 . S
H1702 C1694 0.930 . S
H1703 C1695 0.929 . S
H1704 C1712 0.929 . S
H1705 C1714 0.930 . S
H1706 C1716 0.930 . S
H1707 C1719 0.929 . S
H1708 C1722 0.930 . S
H1709 C1724 0.960 . S
H1710 C1724 0.960 . S
H1711 C1724 0.960 . S
C1712 H1704 0.929 . S
C1712 C1713 1.377 . S
C1712 C1714 1.384 . S
C1713 C1712 1.377 . S
C1713 C1719 1.390 1_556 S
C1714 H1705 0.930 . S
C1714 C1712 1.384 . S
C1714 C1715 1.372 . S
C1715 C1714 1.372 . S
C1715 C1716 1.400 1_556 S
C1715 C1720 1.490 . S
C1716 H1706 0.930 . S
C1716 C1715 1.400 1_554 S
C1716 C1719 1.386 . S
H1717 C1733 0.930 . S
H1718 C1734 0.931 . S
C1719 H1707 0.929 . S
C1719 C1713 1.390 1_554 S
C1719 C1716 1.386 . S
C1720 C1715 1.490 . S
C1720 C1722 1.395 . S
C1720 C1723 1.403 1_545 S
H1721 C1727 0.930 1_554 S
C1722 H1708 0.930 . S
C1722 C1720 1.395 . S
C1722 C1725 1.403 . S
C1723 C1720 1.403 1_565 S
C1723 C1724 1.524 1_556 S
C1723 C1727 1.400 . S
C1724 H1709 0.960 . S
C1724 H1710 0.960 . S
C1724 H1711 0.960 . S
C1724 C1723 1.524 1_554 S
C1725 C1722 1.403 . S
C1725 C1726 1.392 1_545 S
C1725 C1729 1.495 . S
C1726 C1725 1.392 1_565 S
C1726 C1727 1.385 . S
C1726 C1728 1.478 . S
C1727 H1721 0.930 1_556 S
C1727 C1723 1.400 . S
C1727 C1726 1.385 . S
C1728 C1726 1.478 . S
C1728 C1730 1.381 . S
C1728 C1734 1.383 1_556 S
C1729 C1725 1.495 . S
C1729 H1735 0.959 . S
C1729 H1736 0.961 . S
C1729 H1737 0.960 . S
C1730 C1728 1.381 . S
C1730 C1731 1.394 . S
C1730 H1738 0.930 . S
C1731 C1730 1.394 . S
C1731 C1732 1.383 . S
C1731 H1739 0.929 . S
C1732 C1731 1.383 . S
C1732 C1733 1.377 1_556 S
C1733 H1717 0.930 . S
C1733 C1732 1.377 1_554 S
C1733 C1734 1.379 . S
C1734 H1718 0.931 . S
C1734 C1728 1.383 1_554 S
C1734 C1733 1.379 . S
H1735 C1729 0.959 . S
H1736 C1729 0.961 . S
H1737 C1729 0.960 . S
H1738 C1730 0.930 . S
H1739 C1731 0.929 . S
H1740 C1748 0.929 . S
H1741 C1750 0.930 . S
H1742 C1752 0.930 . S
H1743 C1755 0.929 . S
H1744 C1758 0.930 . S
H1745 C1760 0.960 . S
H1746 C1760 0.960 1_556 S
H1747 C1760 0.960 . S
C1748 H1740 0.929 . S
C1748 C1749 1.377 . S
C1748 C1750 1.384 . S
C1749 C1748 1.377 . S
C1749 C1755 1.390 1_556 S
C1750 H1741 0.930 . S
C1750 C1748 1.384 . S
C1750 C1751 1.372 . S
C1751 C1750 1.372 . S
C1751 C1752 1.400 1_556 S
C1751 C1756 1.490 . S
C1752 H1742 0.930 . S
C1752 C1751 1.400 1_554 S
C1752 C1755 1.386 . S
H1753 C1769 0.930 . S
H1754 C1770 0.931 . S
C1755 H1743 0.929 . S
C1755 C1749 1.390 1_554 S
C1755 C1752 1.386 . S
C1756 C1751 1.490 . S
C1756 C1758 1.395 . S
C1756 C1759 1.403 . S
H1757 C1763 0.930 1_554 S
C1758 H1744 0.930 . S
C1758 C1756 1.395 . S
C1758 C1761 1.403 . S
C1759 C1756 1.403 . S
C1759 C1760 1.524 1_556 S
C1759 C1763 1.400 . S
C1760 H1745 0.960 . S
C1760 H1746 0.960 1_554 S
C1760 H1747 0.960 . S
C1760 C1759 1.524 1_554 S
C1761 C1758 1.403 . S
C1761 C1762 1.392 . S
C1761 C1765 1.495 . S
C1762 C1761 1.392 . S
C1762 C1763 1.385 . S
C1762 C1764 1.478 . S
C1763 H1757 0.930 1_556 S
C1763 C1759 1.400 . S
C1763 C1762 1.385 . S
C1764 C1762 1.478 . S
C1764 C1766 1.381 . S
C1764 C1770 1.383 1_556 S
C1765 C1761 1.495 . S
C1765 H1771 0.959 . S
C1765 H1772 0.961 . S
C1765 H1773 0.960 . S
C1766 C1764 1.381 . S
C1766 C1767 1.394 . S
C1766 H1774 0.930 . S
C1767 C1766 1.394 . S
C1767 C1768 1.383 . S
C1767 H1775 0.929 . S
C1768 C1767 1.383 . S
C1768 C1769 1.377 1_556 S
C1769 H1753 0.930 . S
C1769 C1768 1.377 1_554 S
C1769 C1770 1.379 . S
C1770 H1754 0.931 . S
C1770 C1764 1.383 1_554 S
C1770 C1769 1.379 . S
H1771 C1765 0.959 . S
H1772 C1765 0.961 . S
H1773 C1765 0.960 . S
H1774 C1766 0.930 . S
H1775 C1767 0.929 . S
H1776 C1784 0.929 . S
H1777 C1786 0.930 . S
H1778 C1788 0.930 . S
H1779 C1791 0.929 . S
H1780 C1794 0.930 . S
H1781 C1796 0.960 . S
H1782 C1796 0.960 . S
H1783 C1796 0.960 . S
C1784 H1776 0.929 . S
C1784 C1785 1.377 1_554 S
C1784 C1786 1.384 . S
C1785 C1784 1.377 1_556 S
C1785 C1791 1.390 . S
C1786 H1777 0.930 . S
C1786 C1784 1.384 . S
C1786 C1787 1.372 1_554 S
C1787 C1786 1.372 1_556 S
C1787 C1788 1.400 . S
C1787 C1792 1.490 . S
C1788 H1778 0.930 . S
C1788 C1787 1.400 . S
C1788 C1791 1.386 . S
H1789 C1805 0.930 . S
H1790 C1806 0.931 . S
C1791 H1779 0.929 . S
C1791 C1785 1.390 . S
C1791 C1788 1.386 . S
C1792 C1787 1.490 . S
C1792 C1794 1.395 1_655 S
C1792 C1795 1.403 . S
H1793 C1799 0.930 . S
C1794 H1780 0.930 . S
C1794 C1792 1.395 1_455 S
C1794 C1797 1.403 . S
C1795 C1792 1.403 . S
C1795 C1796 1.524 . S
C1795 C1799 1.400 . S
C1796 H1781 0.960 . S
C1796 H1782 0.960 . S
C1796 H1783 0.960 . S
C1796 C1795 1.524 . S
C1797 C1794 1.403 . S
C1797 C1798 1.392 . S
C1797 C1801 1.497 . S
C1798 C1797 1.392 . S
C1798 C1799 1.385 1_455 S
C1798 C1800 1.478 . S
C1799 H1793 0.930 . S
C1799 C1795 1.400 . S
C1799 C1798 1.385 1_655 S
C1800 C1798 1.478 . S
C1800 C1802 1.381 1_556 S
C1800 C1806 1.383 . S
C1801 C1797 1.497 . S
C1801 H1807 0.957 1_556 S
C1801 H1808 0.967 . S
C1801 H1809 0.954 1_556 S
C1802 C1800 1.381 1_554 S
C1802 C1803 1.394 . S
C1802 H1810 0.930 . S
C1803 C1802 1.394 . S
C1803 C1804 1.383 1_554 S
C1803 H1811 0.929 . S
C1804 C1803 1.383 1_556 S
C1804 C1805 1.377 . S
C1805 H1789 0.930 . S
C1805 C1804 1.377 . S
C1805 C1806 1.379 . S
C1806 H1790 0.931 . S
C1806 C1800 1.383 . S
C1806 C1805 1.379 . S
H1807 C1801 0.957 1_554 S
H1808 C1801 0.967 . S
H1809 C1801 0.954 1_554 S
H1810 C1802 0.930 . S
H1811 C1803 0.929 . S
H1812 C1820 0.929 . S
H1813 C1822 0.930 . S
H1814 C1824 0.930 . S
H1815 C1827 0.929 . S
H1816 C1830 0.930 . S
H1817 C1832 0.960 . S
H1818 C1832 0.960 . S
H1819 C1832 0.960 . S
C1820 H1812 0.929 . S
C1820 C1821 1.377 . S
C1820 C1822 1.384 . S
C1821 C1820 1.377 . S
C1821 C1827 1.390 . S
C1822 H1813 0.930 . S
C1822 C1820 1.384 . S
C1822 C1823 1.372 . S
C1823 C1822 1.372 . S
C1823 C1824 1.400 . S
C1823 C1828 1.490 . S
C1824 H1814 0.930 . S
C1824 C1823 1.400 . S
C1824 C1827 1.386 . S
H1825 C1841 0.930 . S
H1826 C1842 0.931 . S
C1827 H1815 0.929 . S
C1827 C1821 1.390 . S
C1827 C1824 1.386 . S
C1828 C1823 1.490 . S
C1828 C1830 1.395 . S
C1828 C1831 1.403 1_655 S
H1829 C1835 0.930 . S
C1830 H1816 0.930 . S
C1830 C1828 1.395 . S
C1830 C1833 1.403 . S
C1831 C1828 1.403 1_455 S
C1831 C1832 1.524 . S
C1831 C1835 1.400 . S
C1832 H1817 0.960 . S
C1832 H1818 0.960 . S
C1832 H1819 0.960 . S
C1832 C1831 1.524 . S
C1833 C1830 1.403 . S
C1833 C1834 1.392 1_655 S
C1833 C1837 1.495 . S
C1834 C1833 1.392 1_455 S
C1834 C1835 1.385 . S
C1834 C1836 1.478 . S
C1835 H1829 0.930 . S
C1835 C1831 1.400 . S
C1835 C1834 1.385 . S
C1836 C1834 1.478 . S
C1836 C1838 1.381 . S
C1836 C1842 1.383 . S
C1837 C1833 1.495 . S
C1837 H1843 0.959 . S
C1837 H1844 0.961 . S
C1837 H1845 0.960 . S
C1838 C1836 1.381 . S
C1838 C1839 1.394 . S
C1838 H1846 0.930 . S
C1839 C1838 1.394 . S
C1839 C1840 1.383 . S
C1839 H1847 0.929 . S
C1840 C1839 1.383 . S
C1840 C1841 1.377 . S
C1841 H1825 0.930 . S
C1841 C1840 1.377 . S
C1841 C1842 1.379 . S
C1842 H1826 0.931 . S
C1842 C1836 1.383 . S
C1842 C1841 1.379 . S
H1843 C1837 0.959 . S
H1844 C1837 0.961 . S
H1845 C1837 0.960 . S
H1846 C1838 0.930 . S
H1847 C1839 0.929 . S
H1848 C1856 0.929 . S
H1849 C1858 0.930 . S
H1850 C1860 0.930 . S
H1851 C1863 0.929 . S
H1852 C1866 0.930 . S
H1853 C1868 0.960 . S
H1854 C1868 0.960 . S
H1855 C1868 0.960 1_545 S
C1856 H1848 0.929 . S
C1856 C1857 1.377 . S
C1856 C1858 1.384 . S
C1857 C1856 1.377 . S
C1857 C1863 1.390 . S
C1858 H1849 0.930 . S
C1858 C1856 1.384 . S
C1858 C1859 1.372 . S
C1859 C1858 1.372 . S
C1859 C1860 1.400 . S
C1859 C1864 1.490 . S
C1860 H1850 0.930 . S
C1860 C1859 1.400 . S
C1860 C1863 1.386 . S
H1861 C1877 0.930 . S
H1862 C1878 0.931 . S
C1863 H1851 0.929 . S
C1863 C1857 1.390 . S
C1863 C1860 1.386 . S
C1864 C1859 1.490 . S
C1864 C1866 1.395 . S
C1864 C1867 1.403 1_545 S
H1865 C1871 0.930 . S
C1866 H1852 0.930 . S
C1866 C1864 1.395 . S
C1866 C1869 1.403 . S
C1867 C1864 1.403 1_565 S
C1867 C1868 1.524 . S
C1867 C1871 1.400 . S
C1868 H1853 0.960 . S
C1868 H1854 0.960 . S
C1868 H1855 0.960 1_565 S
C1868 C1867 1.524 . S
C1869 C1866 1.403 . S
C1869 C1870 1.392 1_545 S
C1869 C1873 1.495 . S
C1870 C1869 1.392 1_565 S
C1870 C1871 1.385 . S
C1870 C1872 1.478 . S
C1871 H1865 0.930 . S
C1871 C1867 1.400 . S
C1871 C1870 1.385 . S
C1872 C1870 1.478 . S
C1872 C1874 1.381 . S
C1872 C1878 1.383 . S
C1873 C1869 1.495 . S
C1873 H1879 0.959 . S
C1873 H1880 0.961 . S
C1873 H1881 0.960 1_545 S
C1874 C1872 1.381 . S
C1874 C1875 1.394 . S
C1874 H1882 0.930 . S
C1875 C1874 1.394 . S
C1875 C1876 1.383 . S
C1875 H1883 0.929 . S
C1876 C1875 1.383 . S
C1876 C1877 1.377 . S
C1877 H1861 0.930 . S
C1877 C1876 1.377 . S
C1877 C1878 1.379 . S
C1878 H1862 0.931 . S
C1878 C1872 1.383 . S
C1878 C1877 1.379 . S
H1879 C1873 0.959 . S
H1880 C1873 0.961 . S
H1881 C1873 0.960 1_565 S
H1882 C1874 0.930 . S
H1883 C1875 0.929 . S
H1884 C1892 0.929 . S
H1885 C1894 0.930 . S
H1886 C1896 0.930 . S
H1887 C1899 0.929 . S
H1888 C1902 0.930 . S
H1889 C1904 0.960 . S
H1890 C1904 0.960 . S
H1891 C1904 0.960 . S
C1892 H1884 0.929 . S
C1892 C1893 1.377 . S
C1892 C1894 1.384 . S
C1893 C1892 1.377 . S
C1893 C1899 1.390 . S
C1894 H1885 0.930 . S
C1894 C1892 1.384 . S
C1894 C1895 1.372 . S
C1895 C1894 1.372 . S
C1895 C1896 1.400 . S
C1895 C1900 1.490 . S
C1896 H1886 0.930 . S
C1896 C1895 1.400 . S
C1896 C1899 1.386 . S
H1897 C1913 0.930 . S
H1898 C1914 0.931 . S
C1899 H1887 0.929 . S
C1899 C1893 1.390 . S
C1899 C1896 1.386 . S
C1900 C1895 1.490 . S
C1900 C1902 1.395 . S
C1900 C1903 1.403 . S
H1901 C1907 0.930 . S
C1902 H1888 0.930 . S
C1902 C1900 1.395 . S
C1902 C1905 1.403 . S
C1903 C1900 1.403 . S
C1903 C1904 1.524 . S
C1903 C1907 1.400 . S
C1904 H1889 0.960 . S
C1904 H1890 0.960 . S
C1904 H1891 0.960 . S
C1904 C1903 1.524 . S
C1905 C1902 1.403 . S
C1905 C1906 1.392 . S
C1905 C1909 1.495 . S
C1906 C1905 1.392 . S
C1906 C1907 1.385 . S
C1906 C1908 1.478 . S
C1907 H1901 0.930 . S
C1907 C1903 1.400 . S
C1907 C1906 1.385 . S
C1908 C1906 1.478 . S
C1908 C1910 1.381 . S
C1908 C1914 1.383 . S
C1909 C1905 1.495 . S
C1909 H1915 0.959 . S
C1909 H1916 0.961 . S
C1909 H1917 0.960 . S
C1910 C1908 1.381 . S
C1910 C1911 1.394 . S
C1910 H1918 0.930 . S
C1911 C1910 1.394 . S
C1911 C1912 1.383 . S
C1911 H1919 0.929 . S
C1912 C1911 1.383 . S
C1912 C1913 1.377 . S
C1913 H1897 0.930 . S
C1913 C1912 1.377 . S
C1913 C1914 1.379 . S
C1914 H1898 0.931 . S
C1914 C1908 1.383 . S
C1914 C1913 1.379 . S
H1915 C1909 0.959 . S
H1916 C1909 0.961 . S
H1917 C1909 0.960 . S
H1918 C1910 0.930 . S
H1919 C1911 0.929 . S
C417 C28 0.600 . S
C436 C187 0.551 . S
C453 C40 0.599 . S
C472 C17 0.552 . S
C489 C96 0.587 . S
C508 C51 0.592 1_554 S
C525 C108 0.601 . S
C544 C85 0.556 . S
C561 C164 0.601 . S
C580 C119 0.554 . S
C597 C176 0.598 . S
C616 C153 0.553 1_554 S
C633 C210 0.595 . S
C652 C255 0.559 . S
C669 C266 0.601 . S
C688 C289 0.557 . S
C705 C278 0.598 . S
C724 C323 0.553 . S
C741 C357 0.590 . S
C760 C334 0.566 . S
C777 C391 0.597 . S
C796 C346 0.560 . S
C813 C221 0.586 . S
C832 C402 0.588 . S
C849 C287 1.622 . S
C868 C22 1.622 . S
C885 C328 1.630 . S
C904 C49 1.590 . S
C921 C90 1.627 . S
C940 C355 1.610 . S
C957 C396 1.630 . S
C976 C117 1.590 . S
C993 C158 1.620 . S
C1012 C219 1.633 . S
C1029 C185 1.630 . S
C1048 C260 1.590 . S
C1065 C389 2.106 . S
C1084 C124 2.088 . S
C1101 C151 2.117 . S
C1120 C226 2.139 . S
C1137 C192 2.116 . S
C1156 C253 2.139 . S
C1173 C15 2.116 . S
C1192 C294 2.139 . S
C1209 C56 2.109 . S
C1228 C321 2.109 . S
C1245 C83 2.114 . S
C1264 C362 2.124 . S
C1281 C74 0.943 . S
C1300 C1 0.852 . S
C1317 C130 0.943 . S
C1336 C37 0.845 . S
C1353 C69 0.886 . S
C1372 C142 0.941 . S
C1389 C105 0.878 . S
C1408 C198 0.936 . S
C1425 C6 0.943 . S
C1444 C137 0.850 . S
C1461 C62 0.943 . S
C1480 C173 0.851 . S
C1497 C207 0.903 . S
C1516 C368 0.950 . S
C1533 C239 0.903 . S
C1552 C380 0.950 . S
C1569 C232 0.944 . S
C1588 C275 0.865 . S
C1605 C244 0.943 . S
C1624 C307 0.837 . S
C1641 C300 0.944 . S
C1660 C343 0.896 . S
C1677 C375 0.903 . S
C1696 C312 0.950 . S
C1713 C3 2.514 . S
C1732 C103 2.530 . S
C1749 C35 2.514 . S
C1768 C139 2.530 . S
C1785 C71 2.504 . S
C1804 C171 2.481 . S
C1821 C205 2.514 . S
C1840 C309 2.530 . S
C1857 C341 2.514 . S
C1876 C241 2.530 . S
C1893 C377 2.509 . S
C1912 C273 2.509 . S
