# Generated by pormake.
# Topology whh, (6)-cn, num edge types: 1
# Building blocks:
#     Node 0, Type 0, BuildingBlock: MIFKUJ_clean_sbu_0, # of connection points: 6
#     Node 1, Type 0, BuildingBlock: MIFKUJ_clean_sbu_0, # of connection points: 6
#     Node 2, Type 0, BuildingBlock: MIFKUJ_clean_sbu_0, # of connection points: 6
#     Node 3, Type 0, BuildingBlock: MIFKUJ_clean_sbu_0, # of connection points: 6
#     Node 4, Type 0, BuildingBlock: MIFKUJ_clean_sbu_0, # of connection points: 6
#     Node 5, Type 0, BuildingBlock: MIFKUJ_clean_sbu_0, # of connection points: 6
#     Node 6, Type 0, BuildingBlock: MIFKUJ_clean_sbu_0, # of connection points: 6
#     Node 7, Type 0, BuildingBlock: MIFKUJ_clean_sbu_0, # of connection points: 6
#     Node 8, Type 0, BuildingBlock: MIFKUJ_clean_sbu_0, # of connection points: 6
#     Node 9, Type 0, BuildingBlock: MIFKUJ_clean_sbu_0, # of connection points: 6
#     Node 10, Type 0, BuildingBlock: MIFKUJ_clean_sbu_0, # of connection points: 6
#     Node 11, Type 0, BuildingBlock: MIFKUJ_clean_sbu_0, # of connection points: 6
#     Node 12, Type 0, BuildingBlock: MIFKUJ_clean_sbu_0, # of connection points: 6
#     Node 13, Type 0, BuildingBlock: MIFKUJ_clean_sbu_0, # of connection points: 6
#     Node 14, Type 0, BuildingBlock: MIFKUJ_clean_sbu_0, # of connection points: 6
#     Node 15, Type 0, BuildingBlock: MIFKUJ_clean_sbu_0, # of connection points: 6
#     Edge 16, Type (0, 0), BuildingBlock: UVAHIK_clean_linker_0, # of connection points: 2
#     Edge 17, Type (0, 0), BuildingBlock: UVAHIK_clean_linker_0, # of connection points: 2
#     Edge 18, Type (0, 0), BuildingBlock: UVAHIK_clean_linker_0, # of connection points: 2
#     Edge 19, Type (0, 0), BuildingBlock: UVAHIK_clean_linker_0, # of connection points: 2
#     Edge 20, Type (0, 0), BuildingBlock: UVAHIK_clean_linker_0, # of connection points: 2
#     Edge 21, Type (0, 0), BuildingBlock: UVAHIK_clean_linker_0, # of connection points: 2
#     Edge 22, Type (0, 0), BuildingBlock: UVAHIK_clean_linker_0, # of connection points: 2
#     Edge 23, Type (0, 0), BuildingBlock: UVAHIK_clean_linker_0, # of connection points: 2
#     Edge 24, Type (0, 0), BuildingBlock: UVAHIK_clean_linker_0, # of connection points: 2
#     Edge 25, Type (0, 0), BuildingBlock: UVAHIK_clean_linker_0, # of connection points: 2
#     Edge 26, Type (0, 0), BuildingBlock: UVAHIK_clean_linker_0, # of connection points: 2
#     Edge 27, Type (0, 0), BuildingBlock: UVAHIK_clean_linker_0, # of connection points: 2
#     Edge 28, Type (0, 0), BuildingBlock: UVAHIK_clean_linker_0, # of connection points: 2
#     Edge 29, Type (0, 0), BuildingBlock: UVAHIK_clean_linker_0, # of connection points: 2
#     Edge 30, Type (0, 0), BuildingBlock: UVAHIK_clean_linker_0, # of connection points: 2
#     Edge 31, Type (0, 0), BuildingBlock: UVAHIK_clean_linker_0, # of connection points: 2
#     Edge 32, Type (0, 0), BuildingBlock: UVAHIK_clean_linker_0, # of connection points: 2
#     Edge 33, Type (0, 0), BuildingBlock: UVAHIK_clean_linker_0, # of connection points: 2
#     Edge 34, Type (0, 0), BuildingBlock: UVAHIK_clean_linker_0, # of connection points: 2
#     Edge 35, Type (0, 0), BuildingBlock: UVAHIK_clean_linker_0, # of connection points: 2
#     Edge 36, Type (0, 0), BuildingBlock: UVAHIK_clean_linker_0, # of connection points: 2
#     Edge 37, Type (0, 0), BuildingBlock: UVAHIK_clean_linker_0, # of connection points: 2
#     Edge 38, Type (0, 0), BuildingBlock: UVAHIK_clean_linker_0, # of connection points: 2
#     Edge 39, Type (0, 0), BuildingBlock: UVAHIK_clean_linker_0, # of connection points: 2
#     Edge 40, Type (0, 0), BuildingBlock: UVAHIK_clean_linker_0, # of connection points: 2
#     Edge 41, Type (0, 0), BuildingBlock: UVAHIK_clean_linker_0, # of connection points: 2
#     Edge 42, Type (0, 0), BuildingBlock: UVAHIK_clean_linker_0, # of connection points: 2
#     Edge 43, Type (0, 0), BuildingBlock: UVAHIK_clean_linker_0, # of connection points: 2
#     Edge 44, Type (0, 0), BuildingBlock: UVAHIK_clean_linker_0, # of connection points: 2
#     Edge 45, Type (0, 0), BuildingBlock: UVAHIK_clean_linker_0, # of connection points: 2
#     Edge 46, Type (0, 0), BuildingBlock: UVAHIK_clean_linker_0, # of connection points: 2
#     Edge 47, Type (0, 0), BuildingBlock: UVAHIK_clean_linker_0, # of connection points: 2
#     Edge 48, Type (0, 0), BuildingBlock: UVAHIK_clean_linker_0, # of connection points: 2
#     Edge 49, Type (0, 0), BuildingBlock: UVAHIK_clean_linker_0, # of connection points: 2
#     Edge 50, Type (0, 0), BuildingBlock: UVAHIK_clean_linker_0, # of connection points: 2
#     Edge 51, Type (0, 0), BuildingBlock: UVAHIK_clean_linker_0, # of connection points: 2
#     Edge 52, Type (0, 0), BuildingBlock: UVAHIK_clean_linker_0, # of connection points: 2
#     Edge 53, Type (0, 0), BuildingBlock: UVAHIK_clean_linker_0, # of connection points: 2
#     Edge 54, Type (0, 0), BuildingBlock: UVAHIK_clean_linker_0, # of connection points: 2
#     Edge 55, Type (0, 0), BuildingBlock: UVAHIK_clean_linker_0, # of connection points: 2
#     Edge 56, Type (0, 0), BuildingBlock: UVAHIK_clean_linker_0, # of connection points: 2
#     Edge 57, Type (0, 0), BuildingBlock: UVAHIK_clean_linker_0, # of connection points: 2
#     Edge 58, Type (0, 0), BuildingBlock: UVAHIK_clean_linker_0, # of connection points: 2
#     Edge 59, Type (0, 0), BuildingBlock: UVAHIK_clean_linker_0, # of connection points: 2
#     Edge 60, Type (0, 0), BuildingBlock: UVAHIK_clean_linker_0, # of connection points: 2
#     Edge 61, Type (0, 0), BuildingBlock: UVAHIK_clean_linker_0, # of connection points: 2
#     Edge 62, Type (0, 0), BuildingBlock: UVAHIK_clean_linker_0, # of connection points: 2
#     Edge 63, Type (0, 0), BuildingBlock: UVAHIK_clean_linker_0, # of connection points: 2
# Relax obj value: 0.463
# Max RMSD: 0.305
# Mean RMSD: 0.288
data_MOF--net-whh--node1-MIFKUJ_clean_sbu_0--edge1-UVAHIK_clean_linker_0
_symmetry_space_group_name_H-M    P1
_symmetry_Int_Tables_number       1
_symmetry_cell_setting            triclinic
loop_
_symmetry_equiv_pos_as_xyz
'x, y, z'
_cell_length_a     46.15637
_cell_length_b     46.257472
_cell_length_c     56.161692
_cell_angle_alpha  93.008209
_cell_angle_beta   86.959611
_cell_angle_gamma 89.883491
loop_
_atom_site_label
_atom_site_type_symbol
_atom_site_fract_x
_atom_site_fract_y
_atom_site_fract_z
_atom_type_partial_charge
Zn0 Zn 0.0787 0.62623 0.13261 0.0
Zn1 Zn 0.01991 0.59822 0.13254 0.0
C2 C 0.06081 0.67635 0.10894 0.0
O3 O 0.08291 0.66867 0.09424 0.0
C4 C 0.04314 0.53818 0.13157 0.0
O5 O 0.02548 0.53202 0.11448 0.0
O6 O 0.11908 0.64217 0.13374 0.0
O7 O 0.06626 0.61434 0.16563 0.0
O8 O 0.02088 0.6262 0.16089 0.0
C9 C 0.12258 0.6627 0.14925 0.0
O10 O 0.10066 0.67057 0.16406 0.0
O11 O 0.05441 0.66104 0.12657 0.0
C12 C 0.97071 0.57254 0.10973 0.0
O13 O 0.9896 0.5692 0.09147 0.0
O14 O 0.97862 0.58457 0.12923 0.0
O15 O 0.03296 0.61392 0.10131 0.0
O16 O 0.07674 0.59712 0.10452 0.0
O17 O 0.04444 0.564 0.14037 0.0
C18 C 0.04221 0.62486 0.17424 0.0
C19 C 0.05558 0.60184 0.09166 0.0
Zn20 Zn 0.86963 0.06518 0.11443 0.0
Zn21 Zn 0.89795 0.00656 0.11653 0.0
C22 C 0.81985 0.04193 0.08953 0.0
O23 O 0.82427 0.06336 0.07534 0.0
C24 C 0.95787 0.02616 0.12261 0.0
O25 O 0.96526 0.00535 0.10663 0.0
O26 O 0.85379 0.10562 0.1125 0.0
O27 O 0.87637 0.05753 0.14878 0.0
O28 O 0.86759 0.01091 0.14272 0.0
C29 C 0.85047 0.12352 0.1304 0.0
O30 O 0.85911 0.11635 0.1512 0.0
O31 O 0.8366 0.03879 0.10643 0.0
C32 C 0.92354 0.95339 0.09588 0.0
O33 O 0.9269 0.96868 0.07688 0.0
O34 O 0.9115 0.96503 0.11491 0.0
O35 O 0.88602 0.01536 0.08408 0.0
O36 O 0.90248 0.05929 0.08923 0.0
O37 O 0.93113 0.03132 0.12768 0.0
C38 C 0.86726 0.0336 0.1565 0.0
C39 C 0.89931 0.03678 0.07572 0.0
Zn40 Zn 0.43178 0.85569 0.11418 0.0
Zn41 Zn 0.49349 0.87555 0.11476 0.0
C42 C 0.44235 0.80177 0.08503 0.0
O43 O 0.41413 0.80125 0.08304 0.0
C44 C 0.48328 0.93375 0.13721 0.0
O45 O 0.50288 0.94207 0.12123 0.0
O46 O 0.39005 0.84334 0.11576 0.0
O47 O 0.44607 0.85417 0.14736 0.0
O48 O 0.48953 0.83996 0.13325 0.0
C49 C 0.37366 0.84547 0.13467 0.0
O50 O 0.38321 0.85873 0.15395 0.0
O51 O 0.45376 0.82325 0.09593 0.0
C52 C 0.54519 0.89926 0.09268 0.0
O53 O 0.52656 0.90738 0.07744 0.0
O54 O 0.53618 0.88487 0.11027 0.0
O55 O 0.47739 0.87395 0.08229 0.0
O56 O 0.436 0.89248 0.09642 0.0
O57 O 0.47514 0.9075 0.1365 0.0
C58 C 0.46902 0.8393 0.14925 0.0
C59 C 0.45599 0.89055 0.07999 0.0
Zn60 Zn 0.61692 0.49069 0.13121 0.0
Zn61 Zn 0.64744 0.43135 0.14128 0.0
C62 C 0.61203 0.48434 0.08179 0.0
O63 O 0.6305 0.50587 0.08317 0.0
C64 C 0.65674 0.44458 0.19184 0.0
O65 O 0.63434 0.42778 0.19599 0.0
O66 O 0.60154 0.53088 0.12873 0.0
O67 O 0.5948 0.47403 0.15822 0.0
O68 O 0.60377 0.42782 0.14867 0.0
C69 C 0.57553 0.5332 0.12268 0.0
O70 O 0.55968 0.50975 0.1204 0.0
O71 O 0.60581 0.47075 0.10046 0.0
C72 C 0.67303 0.37813 0.11933 0.0
O73 O 0.66904 0.3903 0.09913 0.0
O74 O 0.66445 0.39122 0.13891 0.0
O75 O 0.66666 0.45262 0.11376 0.0
O76 O 0.65944 0.49425 0.13353 0.0
O77 O 0.66478 0.44945 0.17045 0.0
C78 C 0.58809 0.44757 0.15953 0.0
C79 C 0.67581 0.4776 0.12018 0.0
Zn80 Zn 0.07536 0.85775 0.36639 0.0
Zn81 Zn 0.01868 0.92424 0.3493 0.0
C82 C 0.0305 0.81274 0.37604 0.0
O83 O 0.01757 0.83083 0.39204 0.0
C84 C 0.05916 0.95936 0.32186 0.0
O85 O 0.07321 0.93477 0.31763 0.0
O86 O 0.11856 0.84765 0.36297 0.0
O87 O 0.0608 0.88254 0.34107 0.0
O88 O 0.0214 0.89228 0.32332 0.0
C89 C 0.12515 0.82331 0.35236 0.0
O90 O 0.10445 0.80698 0.344 0.0
O91 O 0.05338 0.8204 0.36458 0.0
C92 C 0.97058 0.95154 0.37544 0.0
O93 O 0.99172 0.96362 0.38713 0.0
O94 O 0.97675 0.93344 0.3581 0.0
O95 O 0.03727 0.90752 0.37766 0.0
O96 O 0.06425 0.87971 0.39807 0.0
O97 O 0.03716 0.96027 0.33652 0.0
C98 C 0.04243 0.87514 0.32585 0.0
C99 C 0.04587 0.90027 0.39761 0.0
Zn100 Zn 0.63269 0.06712 0.37246 0.0
Zn101 Zn 0.61099 0.00686 0.37907 0.0
C102 C 0.68247 0.06343 0.40222 0.0
O103 O 0.67883 0.09155 0.4055 0.0
C104 C 0.5522 0.01421 0.36162 0.0
O105 O 0.54265 0.00216 0.38117 0.0
O106 O 0.64775 0.10672 0.36503 0.0
O107 O 0.63147 0.04431 0.34118 0.0
O108 O 0.64744 0.00612 0.35801 0.0
C109 C 0.67164 0.10634 0.35262 0.0
O110 O 0.68324 0.08126 0.34539 0.0
O111 O 0.66437 0.04877 0.39037 0.0
C112 C 0.58716 0.96002 0.40607 0.0
O113 O 0.57654 0.98123 0.42043 0.0
O114 O 0.60275 0.96593 0.38763 0.0
O115 O 0.61027 0.03169 0.40957 0.0
O116 O 0.59522 0.06994 0.39234 0.0
O117 O 0.5792 0.01879 0.35821 0.0
C118 C 0.64755 0.02189 0.34015 0.0
C119 C 0.59427 0.05406 0.4101 0.0
Zn120 Zn 0.43729 0.63297 0.37572 0.0
Zn121 Zn 0.49792 0.60693 0.37066 0.0
C122 C 0.45638 0.68209 0.40556 0.0
O123 O 0.43142 0.67898 0.4175 0.0
C124 C 0.4821 0.546 0.3614 0.0
O125 O 0.49498 0.54137 0.38116 0.0
O126 O 0.39744 0.6509 0.37774 0.0
O127 O 0.4494 0.62623 0.34106 0.0
O128 O 0.49442 0.6385 0.34772 0.0
C129 C 0.37997 0.64752 0.3611 0.0
O130 O 0.38696 0.6297 0.3427 0.0
O131 O 0.46323 0.66468 0.38792 0.0
C132 C 0.54913 0.58572 0.39105 0.0
O133 O 0.53057 0.58256 0.40923 0.0
O134 O 0.54041 0.59663 0.37235 0.0
O135 O 0.48177 0.61448 0.40443 0.0
O136 O 0.4384 0.59895 0.39662 0.0
O137 O 0.47964 0.57179 0.35494 0.0
C138 C 0.47303 0.63814 0.33432 0.0
C139 C 0.45922 0.6005 0.4105 0.0
Zn140 Zn 0.87424 0.40959 0.37478 0.0
Zn141 Zn 0.94821 0.45381 0.35067 0.0
C142 C 0.82314 0.43853 0.39482 0.0
O143 O 0.82691 0.4209 0.412 0.0
C144 C 0.98173 0.41261 0.32021 0.0
O145 O 0.95604 0.40161 0.31647 0.0
O146 O 0.85637 0.37023 0.37242 0.0
O147 O 0.90042 0.41833 0.34655 0.0
O148 O 0.91693 0.45437 0.32674 0.0
C149 C 0.86254 0.35025 0.35658 0.0
O150 O 0.88386 0.35395 0.34061 0.0
O151 O 0.84141 0.4382 0.3771 0.0
C152 C 0.97184 0.50943 0.34295 0.0
O153 O 0.98073 0.49608 0.32263 0.0
O154 O 0.95784 0.49528 0.35852 0.0
O155 O 0.92946 0.43684 0.38013 0.0
O156 O 0.89859 0.41539 0.40401 0.0
O157 O 0.98375 0.4332 0.33592 0.0
C158 C 0.89616 0.43738 0.33166 0.0
C159 C 0.92233 0.42909 0.40095 0.0
Zn160 Zn 0.97645 0.3985 0.88401 0.0
Zn161 Zn 0.91689 0.36264 0.89447 0.0
C162 C 0.93081 0.44359 0.87486 0.0
O163 O 0.91015 0.42492 0.87933 0.0
C164 C 0.94462 0.31152 0.91226 0.0
O165 O 0.92151 0.31046 0.92688 0.0
O166 O 0.019 0.40793 0.88405 0.0
O167 O 0.96621 0.38381 0.91617 0.0
O168 O 0.92054 0.39581 0.9192 0.0
C169 C 0.02624 0.42952 0.8974 0.0
O170 O 0.00595 0.44393 0.91038 0.0
O171 O 0.95721 0.4366 0.87696 0.0
C172 C 0.87476 0.32105 0.8845 0.0
O173 O 0.89644 0.31246 0.86969 0.0
O174 O 0.87801 0.3434 0.89826 0.0
O175 O 0.92177 0.37196 0.85987 0.0
O176 O 0.96958 0.36937 0.8572 0.0
O177 O 0.94715 0.33199 0.89812 0.0
C178 C 0.94546 0.39697 0.92764 0.0
C179 C 0.94521 0.36458 0.8482 0.0
Zn180 Zn 0.10419 0.98891 0.84161 0.0
Zn181 Zn 0.12924 0.93008 0.84354 0.0
C182 C 0.04601 0.97157 0.8303 0.0
O183 O 0.03842 0.98919 0.8487 0.0
C184 C 0.1707 0.95339 0.87792 0.0
O185 O 0.16234 0.93228 0.89142 0.0
O186 O 0.09221 0.03071 0.84468 0.0
O187 O 0.1062 0.9767 0.87491 0.0
O188 O 0.09233 0.93275 0.86474 0.0
C189 C 0.10309 0.04771 0.86029 0.0
O190 O 0.12336 0.03792 0.87338 0.0
O191 O 0.07279 0.96739 0.82476 0.0
C192 C 0.17162 0.88549 0.83718 0.0
O193 O 0.1868 0.90724 0.82907 0.0
O194 O 0.14521 0.88969 0.8441 0.0
O195 O 0.12911 0.94076 0.80915 0.0
O196 O 0.1402 0.98534 0.82068 0.0
O197 O 0.1594 0.95598 0.85802 0.0
C198 C 0.09267 0.95391 0.88007 0.0
C199 C 0.14275 0.96412 0.80541 0.0
Zn200 Zn 0.48986 0.12338 0.87888 0.0
Zn201 Zn 0.55295 0.13969 0.88045 0.0
C202 C 0.49634 0.06522 0.85514 0.0
O203 O 0.47908 0.0564 0.87262 0.0
C204 C 0.54184 0.18896 0.91535 0.0
O205 O 0.56876 0.18576 0.92131 0.0
O206 O 0.44661 0.11678 0.88355 0.0
O207 O 0.50662 0.12119 0.91103 0.0
O208 O 0.54759 0.10195 0.89654 0.0
C209 C 0.43678 0.10329 0.90142 0.0
O210 O 0.45484 0.09494 0.91701 0.0
O211 O 0.50468 0.0914 0.85565 0.0
C212 C 0.60065 0.17541 0.87058 0.0
O213 O 0.57949 0.1899 0.86185 0.0
O214 O 0.59497 0.15131 0.87965 0.0
O215 O 0.53936 0.14276 0.84723 0.0
O216 O 0.4967 0.15949 0.86123 0.0
O217 O 0.53151 0.17152 0.89981 0.0
C218 C 0.52738 0.1036 0.91277 0.0
C219 C 0.51739 0.15902 0.8453 0.0
Zn220 Zn 0.35353 0.56794 0.86032 0.0
Zn221 Zn 0.38311 0.50755 0.87113 0.0
C222 C 0.3391 0.5681 0.81219 0.0
O223 O 0.35406 0.59218 0.81395 0.0
C224 C 0.38654 0.51482 0.9207 0.0
O225 O 0.36801 0.49333 0.91929 0.0
O226 O 0.33807 0.60873 0.86442 0.0
O227 O 0.33335 0.54588 0.88698 0.0
O228 O 0.34079 0.50416 0.86747 0.0
C229 C 0.3106 0.61149 0.86559 0.0
O230 O 0.29451 0.58809 0.86532 0.0
O231 O 0.33651 0.55254 0.83014 0.0
C232 C 0.42318 0.46428 0.8816 0.0
O233 O 0.43952 0.48727 0.88464 0.0
O234 O 0.39774 0.46731 0.87444 0.0
O235 O 0.40625 0.52352 0.84441 0.0
O236 O 0.39718 0.57014 0.85241 0.0
O237 O 0.39324 0.52802 0.90192 0.0
C238 C 0.32406 0.5211 0.8802 0.0
C239 C 0.4128 0.54988 0.84222 0.0
Zn240 Zn 0.97664 0.10581 0.62613 0.0
Zn241 Zn 0.91683 0.13902 0.61621 0.0
C242 C 0.93403 0.06018 0.64323 0.0
O243 O 0.91211 0.0781 0.64238 0.0
C244 C 0.94333 0.18518 0.5903 0.0
O245 O 0.92124 0.18076 0.57677 0.0
O246 O 0.01975 0.09853 0.62564 0.0
O247 O 0.96755 0.1129 0.59253 0.0
O248 O 0.92137 0.1026 0.59479 0.0
C249 C 0.02831 0.07502 0.61474 0.0
O250 O 0.00911 0.05831 0.60447 0.0
O251 O 0.95957 0.06811 0.63705 0.0
C252 C 0.87474 0.18191 0.62509 0.0
O253 O 0.89537 0.19051 0.63903 0.0
O254 O 0.87834 0.15847 0.61235 0.0
O255 O 0.91939 0.13535 0.65153 0.0
O256 O 0.96716 0.13767 0.65091 0.0
O257 O 0.94686 0.16863 0.60727 0.0
C258 C 0.94632 0.09891 0.58445 0.0
C259 C 0.9425 0.14305 0.66138 0.0
Zn260 Zn 0.43337 0.97294 0.6204 0.0
Zn261 Zn 0.36509 0.92261 0.61179 0.0
C262 C 0.47921 0.9298 0.62125 0.0
O263 O 0.49448 0.90709 0.61306 0.0
C264 C 0.30824 0.94035 0.60918 0.0
O265 O 0.31175 0.92015 0.59191 0.0
O266 O 0.44888 0.01309 0.61674 0.0
O267 O 0.39585 0.96886 0.60373 0.0
O268 O 0.37815 0.93684 0.57905 0.0
C269 C 0.46866 0.01806 0.60089 0.0
O270 O 0.48004 0.99635 0.58751 0.0
O271 O 0.46138 0.9412 0.60796 0.0
C272 C 0.35275 0.86425 0.62628 0.0
O273 O 0.36521 0.87277 0.6459 0.0
O274 O 0.35243 0.88109 0.60916 0.0
O275 O 0.39933 0.9303 0.63309 0.0
O276 O 0.41905 0.96523 0.65399 0.0
O277 O 0.32943 0.94628 0.62212 0.0
C278 C 0.39338 0.95938 0.58243 0.0
C279 C 0.3998 0.94562 0.65256 0.0
Zn280 Zn 0.49431 0.38307 0.61877 0.0
Zn281 Zn 0.55718 0.36417 0.61273 0.0
C282 C 0.50354 0.44413 0.63189 0.0
O283 O 0.48456 0.44861 0.61584 0.0
C284 C 0.54859 0.3133 0.58165 0.0
O285 O 0.57295 0.32158 0.57096 0.0
O286 O 0.45104 0.39071 0.61922 0.0
O287 O 0.50925 0.37801 0.58458 0.0
O288 O 0.55022 0.3986 0.59317 0.0
C289 C 0.43906 0.39868 0.60074 0.0
O290 O 0.45495 0.40106 0.58087 0.0
O291 O 0.51173 0.41839 0.63493 0.0
C292 C 0.61711 0.3569 0.62612 0.0
O293 O 0.60842 0.37052 0.64637 0.0
O294 O 0.59949 0.35345 0.60961 0.0
O295 O 0.54479 0.36605 0.64765 0.0
O296 O 0.50088 0.35067 0.64008 0.0
O297 O 0.53724 0.32898 0.59894 0.0
C298 C 0.52968 0.39511 0.57916 0.0
C299 C 0.522 0.35223 0.65373 0.0
Zn300 Zn 0.04666 0.53125 0.6478 0.0
Zn301 Zn 0.11828 0.5776 0.62399 0.0
C302 C 0.98784 0.54309 0.66657 0.0
O303 O 0.98163 0.52004 0.65316 0.0
C304 C 0.163 0.53881 0.60303 0.0
O305 O 0.15735 0.55143 0.58336 0.0
O306 O 0.03543 0.49049 0.63797 0.0
O307 O 0.06455 0.54959 0.61885 0.0
O308 O 0.09382 0.57232 0.59473 0.0
C309 C 0.05053 0.46862 0.64244 0.0
O310 O 0.0739 0.47237 0.65459 0.0
O311 O 0.01342 0.55318 0.66501 0.0
C312 C 0.16472 0.61759 0.63143 0.0
O313 O 0.17787 0.59357 0.63623 0.0
O314 O 0.13842 0.61664 0.62561 0.0
O315 O 0.0916 0.57041 0.65277 0.0
O316 O 0.07883 0.53154 0.67095 0.0
O317 O 0.14845 0.54602 0.62224 0.0
C318 C 0.07073 0.55767 0.598 0.0
C319 C 0.09717 0.55159 0.6676 0.0
C320 C 0.71622 0.51268 0.1248 0.0
C321 C 0.70603 0.48662 0.11438 0.0
C322 C 0.74484 0.52123 0.12061 0.0
C323 C 0.81779 0.49313 0.10144 0.0
H324 H 0.83505 0.57518 0.10104 0.0
C325 C 0.93404 0.54166 0.08926 0.0
C326 C 0.9407 0.56205 0.10762 0.0
C327 C 0.90566 0.53158 0.08735 0.0
C328 C 0.83051 0.5522 0.10109 0.0
H329 H 0.71796 0.44921 0.09102 0.0
H330 H 0.76821 0.46458 0.08315 0.0
H331 H 0.78481 0.55919 0.101 0.0
H332 H 0.92288 0.58805 0.1382 0.0
H333 H 0.87316 0.57098 0.13444 0.0
H334 H 0.86387 0.48644 0.10125 0.0
C335 C 0.75398 0.47815 0.09493 0.0
C336 C 0.80175 0.54299 0.10119 0.0
C337 C 0.72517 0.46942 0.09932 0.0
C338 C 0.91842 0.57231 0.1239 0.0
C339 C 0.88998 0.56267 0.1217 0.0
C340 C 0.84668 0.50238 0.10095 0.0
C341 C 0.76416 0.50417 0.10562 0.0
C342 C 0.79493 0.5134 0.10211 0.0
C343 C 0.88337 0.54218 0.10345 0.0
C344 C 0.85319 0.53204 0.10142 0.0
H345 H 0.70221 0.52641 0.13667 0.0
H346 H 0.75195 0.54098 0.12968 0.0
H347 H 0.8134 0.47022 0.10233 0.0
H348 H 0.9508 0.53329 0.07648 0.0
H349 H 0.90103 0.51584 0.0731 0.0
C350 C 0.02337 0.71341 0.12311 0.0
C351 C 0.04427 0.70308 0.1056 0.0
C352 C 0.00871 0.73941 0.12054 0.0
C353 C 0.01548 0.80743 0.0892 0.0
H354 H 0.93455 0.81735 0.11039 0.0
C355 C 0.95172 0.91206 0.0755 0.0
C356 C 0.93508 0.92354 0.09548 0.0
C357 C 0.96372 0.88432 0.07549 0.0
C358 C 0.95721 0.81492 0.10453 0.0
H359 H 0.0656 0.71147 0.07133 0.0
H360 H 0.03963 0.75657 0.06661 0.0
H361 H 0.95776 0.77013 0.11226 0.0
H362 H 0.9175 0.91468 0.13094 0.0
H363 H 0.93845 0.86621 0.13088 0.0
H364 H 0.01489 0.85223 0.08149 0.0
C365 C 0.03499 0.74489 0.08258 0.0
C366 C 0.97052 0.78791 0.10563 0.0
C367 C 0.04976 0.71896 0.08522 0.0
C368 C 0.93023 0.90647 0.11527 0.0
C369 C 0.94208 0.87865 0.11519 0.0
C370 C 0.00212 0.83438 0.08798 0.0
C371 C 0.01451 0.75558 0.10033 0.0
C372 C -0.00011 0.7839 0.09816 0.0
C373 C 0.95917 0.8674 0.09539 0.0
C374 C 0.97291 0.83846 0.0958 0.0
H375 H 0.0187 0.70173 0.13908 0.0
H376 H 0.99338 0.74719 0.13471 0.0
H377 H 0.03826 0.80527 0.08369 0.0
H378 H 0.95583 0.92464 0.05994 0.0
H379 H 0.97655 0.87609 0.05988 0.0
C380 C 0.58462 0.927 0.07204 0.0
C381 C 0.57569 0.90888 0.09033 0.0
C382 C 0.61285 0.93776 0.0706 0.0
C383 C 0.67435 0.95375 0.10811 0.0
H384 H 0.71577 0.9648 0.04736 0.0
C385 C 0.78961 0.00051 0.10305 0.0
C386 C 0.79451 0.02269 0.08715 0.0
C387 C 0.7646 0.98369 0.10217 0.0
C388 C 0.70438 0.96197 0.06444 0.0
H389 H 0.5897 0.88703 0.12101 0.0
H390 H 0.63918 0.90552 0.11829 0.0
H391 H 0.66908 0.94002 0.04823 0.0
H392 H 0.77748 0.04391 0.05728 0.0
H393 H 0.73362 0.01456 0.05584 0.0
H394 H 0.70944 0.97594 0.12431 0.0
C395 C 0.62416 0.9118 0.10529 0.0
C396 C 0.67765 0.9478 0.06495 0.0
C397 C 0.59586 0.90108 0.10678 0.0
C398 C 0.77432 0.02702 0.0698 0.0
C399 C 0.74927 0.01012 0.06889 0.0
C400 C 0.70108 0.96781 0.10759 0.0
C401 C 0.63286 0.93058 0.08737 0.0
C402 C 0.66219 0.9438 0.08679 0.0
C403 C 0.74393 0.9886 0.08534 0.0
C404 C 0.71627 0.97232 0.08575 0.0
H405 H 0.56962 0.93346 0.05908 0.0
H406 H 0.61868 0.95247 0.05676 0.0
H407 H 0.6628 0.95152 0.1252 0.0
H408 H 0.80483 0.99643 0.11654 0.0
H409 H 0.7613 0.96698 0.11484 0.0
C410 C 0.48995 0.77575 0.08275 0.0
C411 C 0.45995 0.77533 0.0795 0.0
C412 C 0.50568 0.74994 0.08248 0.0
C413 C 0.50281 0.67063 0.06879 0.0
H414 H 0.5488 0.66758 0.12446 0.0
C415 C 0.53616 0.56338 0.10758 0.0
C416 C 0.56414 0.56138 0.11609 0.0
C417 C 0.52576 0.58972 0.10038 0.0
C418 C 0.53647 0.66815 0.10861 0.0
H419 H 0.42346 0.7477 0.07142 0.0
H420 H 0.45088 0.70264 0.07117 0.0
H421 H 0.52744 0.71327 0.11478 0.0
H422 H 0.60325 0.58539 0.12356 0.0
H423 H 0.58509 0.63137 0.11095 0.0
H424 H 0.51138 0.62521 0.06301 0.0
C425 C 0.46227 0.7229 0.07385 0.0
C426 C 0.52427 0.69437 0.10301 0.0
C427 C 0.44651 0.74875 0.07407 0.0
C428 C 0.58151 0.58627 0.11726 0.0
C429 C 0.5711 0.61262 0.11007 0.0
C430 C 0.51506 0.64434 0.07439 0.0
C431 C 0.49175 0.7232 0.07898 0.0
C432 C 0.50701 0.69585 0.08321 0.0
C433 C 0.54311 0.61462 0.10154 0.0
C434 C 0.53168 0.64276 0.09457 0.0
H435 H 0.50104 0.79592 0.0867 0.0
H436 H 0.52853 0.75088 0.08596 0.0
H437 H 0.48985 0.67116 0.05329 0.0
H438 H 0.52226 0.54457 0.10638 0.0
H439 H 0.50394 0.59065 0.09424 0.0
C440 C 0.93244 0.97213 0.40483 0.0
C441 C 0.94008 0.95938 0.38213 0.0
C442 C 0.90373 0.98027 0.41101 0.0
C443 C 0.82799 0.97276 0.39035 0.0
H444 H 0.81521 0.04281 0.43047 0.0
C445 C 0.71286 0.01964 0.40775 0.0
C446 C 0.71023 0.04988 0.40759 0.0
C447 C 0.74007 0.00667 0.40919 0.0
C448 C 0.81832 0.02333 0.41906 0.0
H449 H 0.92374 0.94518 0.34803 0.0
H450 H 0.87409 0.96072 0.35817 0.0
H451 H 0.86406 0.02411 0.42285 0.0
H452 H 0.73388 0.0903 0.40954 0.0
H453 H 0.78121 0.06789 0.41102 0.0
H454 H 0.7826 0.97325 0.385 0.0
C455 C 0.88985 0.96349 0.37169 0.0
C456 C 0.84644 0.01224 0.415 0.0
C457 C 0.91844 0.95478 0.36574 0.0
C458 C 0.73515 0.06693 0.40987 0.0
C459 C 0.76239 0.05398 0.41082 0.0
C460 C 0.79997 0.98418 0.394 0.0
C461 C 0.88205 0.97647 0.3944 0.0
C462 C 0.85177 0.98702 0.40028 0.0
C463 C 0.76535 0.02362 0.40997 0.0
C464 C 0.79476 0.0099 0.40812 0.0
H465 H 0.94868 0.97576 0.41784 0.0
H466 H 0.89863 0.98957 0.42883 0.0
H467 H 0.83098 0.95292 0.37938 0.0
H468 H 0.69397 0.00595 0.40616 0.0
H469 H 0.74127 0.98329 0.40912 0.0
C470 C 0.5571 0.92337 0.42732 0.0
C471 C 0.57906 0.92971 0.41012 0.0
C472 C 0.54764 0.89492 0.42961 0.0
C473 C 0.54465 0.82603 0.39405 0.0
H474 H 0.51905 0.79488 0.45438 0.0
C475 C 0.50154 0.71044 0.3976 0.0
C476 C 0.47497 0.70741 0.41064 0.0
C477 C 0.51755 0.73585 0.40012 0.0
C478 C 0.52605 0.80336 0.43741 0.0
H479 H 0.60942 0.91104 0.3827 0.0
H480 H 0.59334 0.86141 0.387 0.0
H481 H 0.54146 0.84274 0.45402 0.0
H482 H 0.44516 0.72803 0.43752 0.0
H483 H 0.47307 0.77261 0.44175 0.0
H484 H 0.52894 0.78701 0.37739 0.0
C485 C 0.58291 0.87847 0.39834 0.0
C486 C 0.53884 0.83075 0.43719 0.0
C487 C 0.59222 0.90691 0.39595 0.0
C488 C 0.46551 0.72974 0.42718 0.0
C489 C 0.48157 0.75522 0.42969 0.0
C490 C 0.53201 0.7987 0.39429 0.0
C491 C 0.56007 0.87221 0.41482 0.0
C492 C 0.54808 0.84247 0.41547 0.0
C493 C 0.50736 0.75881 0.41571 0.0
C494 C 0.52238 0.78713 0.41593 0.0
H495 H 0.54651 0.94048 0.43851 0.0
H496 H 0.52982 0.89091 0.44232 0.0
H497 H 0.55091 0.83461 0.37697 0.0
H498 H 0.50962 0.69351 0.38489 0.0
H499 H 0.53762 0.73778 0.38943 0.0
C500 C 0.59868 0.57504 0.37185 0.0
C501 C 0.57905 0.57442 0.39183 0.0
C502 C 0.62618 0.56233 0.37229 0.0
C503 C 0.6644 0.50625 0.40265 0.0
H504 H 0.73435 0.54177 0.3766 0.0
C505 C 0.77693 0.45786 0.41498 0.0
C506 C 0.79683 0.45688 0.39516 0.0
C507 C 0.75119 0.47373 0.4147 0.0
C508 C 0.71496 0.53146 0.38373 0.0
H509 H 0.57326 0.56085 0.4282 0.0
H510 H 0.62111 0.53899 0.42896 0.0
H511 H 0.68781 0.56693 0.37567 0.0
H512 H 0.80564 0.47228 0.35972 0.0
H513 H 0.76048 0.4995 0.35899 0.0
H514 H 0.69125 0.4707 0.41052 0.0
C515 C 0.61514 0.54886 0.41284 0.0
C516 C 0.68834 0.54587 0.3832 0.0
C517 C 0.58776 0.56156 0.41243 0.0
C518 C 0.79074 0.47261 0.37525 0.0
C519 C 0.76492 0.48836 0.3749 0.0
C520 C 0.69092 0.49185 0.40312 0.0
C521 C 0.6345 0.54871 0.39268 0.0
C522 C 0.66281 0.53348 0.3928 0.0
C523 C 0.7447 0.48885 0.39454 0.0
C524 C 0.71655 0.50433 0.39381 0.0
H525 H 0.59261 0.58477 0.3557 0.0
H526 H 0.64059 0.5624 0.35642 0.0
H527 H 0.64503 0.49586 0.40974 0.0
H528 H 0.78105 0.44614 0.43065 0.0
H529 H 0.73632 0.47409 0.43029 0.0
C530 C 0.99735 0.77176 0.38658 0.0
C531 C 0.01978 0.7829 0.3719 0.0
C532 C 0.98889 0.74283 0.38332 0.0
C533 C 0.99186 0.68046 0.33958 0.0
H534 H 0.98835 0.63402 0.39516 0.0
C535 C 0.99388 0.55609 0.33072 0.0
C536 C 0.97639 0.54088 0.34698 0.0
C537 C 0.99721 0.58601 0.33395 0.0
C538 C 0.98877 0.64672 0.37949 0.0
H539 H 0.05045 0.77259 0.34196 0.0
H540 H 0.0356 0.72254 0.33626 0.0
H541 H 0.99585 0.68611 0.4001 0.0
H542 H 0.94874 0.5451 0.37946 0.0
H543 H 0.95411 0.59737 0.38485 0.0
H544 H 0.98485 0.64122 0.31891 0.0
C545 C 0.02442 0.7361 0.35017 0.0
C546 C 0.99305 0.67656 0.38235 0.0
C547 C 0.033 0.76479 0.35353 0.0
C548 C 0.9625 0.55618 0.36667 0.0
C549 C 0.96566 0.58615 0.36981 0.0
C550 C 0.98737 0.65067 0.33673 0.0
C551 C 0.0025 0.72471 0.36516 0.0
C552 C 0.99508 0.69364 0.36239 0.0
C553 C 0.98295 0.60145 0.35342 0.0
C554 C 0.98622 0.63336 0.35662 0.0
H555 H 0.98676 0.78516 0.40088 0.0
H556 H 0.97181 0.73459 0.39505 0.0
H557 H 0.99299 0.69319 0.32391 0.0
H558 H 0.00501 0.54491 0.31544 0.0
H559 H 0.01116 0.597 0.32125 0.0
C560 C 0.07863 0.42402 0.88375 0.0
C561 C 0.05678 0.43919 0.89761 0.0
C562 C 0.10723 0.43388 0.88321 0.0
C563 C 0.15804 0.48214 0.91529 0.0
H564 H 0.20167 0.47659 0.85429 0.0
C565 C 0.2735 0.53114 0.8981 0.0
C566 C 0.29337 0.51276 0.88481 0.0
C567 C 0.24419 0.5234 0.9009 0.0
C568 C 0.18982 0.47814 0.87149 0.0
H569 H 0.04797 0.47634 0.92219 0.0
H570 H 0.0978 0.49378 0.92092 0.0
H571 H 0.1515 0.46054 0.8568 0.0
H572 H 0.29812 0.47145 0.86468 0.0
H573 H 0.24745 0.45818 0.86957 0.0
H574 H 0.19663 0.49998 0.92983 0.0
C575 C 0.0929 0.47408 0.91066 0.0
C576 C 0.16109 0.46883 0.87296 0.0
C577 C 0.06428 0.46416 0.91127 0.0
C578 C 0.28345 0.48627 0.8749 0.0
C579 C 0.25433 0.47868 0.87757 0.0
C580 C 0.18685 0.49164 0.91378 0.0
C581 C 0.11468 0.45922 0.89643 0.0
C582 C 0.14494 0.47029 0.89492 0.0
C583 C 0.23429 0.49727 0.8903 0.0
C584 C 0.20314 0.4893 0.89191 0.0
H585 H 0.07364 0.40459 0.87316 0.0
H586 H 0.12356 0.42155 0.87243 0.0
H587 H 0.1463 0.48341 0.93253 0.0
H588 H 0.28047 0.55165 0.90601 0.0
H589 H 0.22917 0.53816 0.91079 0.0
C590 C 0.98976 0.28824 0.89347 0.0
C591 C 0.9658 0.28736 0.90995 0.0
C592 C 0.00806 0.26426 0.88925 0.0
C593 C 0.02913 0.19449 0.913 0.0
H594 H 0.04849 0.173 0.84635 0.0
C595 C 0.10132 0.09532 0.88378 0.0
C596 C 0.09128 0.07733 0.86504 0.0
C597 C 0.08869 0.1225 0.88934 0.0
C598 C 0.04323 0.17868 0.86504 0.0
H599 H 0.94296 0.26102 0.93564 0.0
H600 H 0.97482 0.21903 0.92811 0.0
H601 H 0.02147 0.21751 0.85695 0.0
H602 H 0.06054 0.07403 0.83711 0.0
H603 H 0.03847 0.12129 0.84688 0.0
H604 H 0.05009 0.1551 0.921 0.0
C605 C 0.97958 0.23837 0.91859 0.0
C606 C 0.02803 0.20436 0.87114 0.0
C607 C 0.96124 0.2624 0.92284 0.0
C608 C 0.06884 0.08737 0.85162 0.0
C609 C 0.05627 0.11454 0.85715 0.0
C610 C 0.0444 0.1688 0.90689 0.0
C611 C 0.00284 0.23884 0.9014 0.0
C612 C 0.02055 0.21242 0.89518 0.0
C613 C 0.06584 0.13229 0.87622 0.0
C614 C 0.05132 0.16046 0.88282 0.0
H615 H 0.99402 0.30721 0.88334 0.0
H616 H 0.02609 0.26548 0.87619 0.0
H617 H 0.02391 0.20023 0.93168 0.0
H618 H 0.11863 0.08826 0.89443 0.0
H619 H 0.09678 0.13583 0.90395 0.0
C620 C 0.20843 0.97001 0.90609 0.0
C621 C 0.19419 0.97326 0.8849 0.0
C622 C 0.232 0.98764 0.9116 0.0
C623 C 0.27036 0.05506 0.89521 0.0
H624 H 0.33774 0.01543 0.91628 0.0
C625 C 0.38724 0.09913 0.88521 0.0
C626 C 0.40611 0.09414 0.90341 0.0
C627 C 0.35922 0.08766 0.88608 0.0
C628 C 0.31898 0.02698 0.9108 0.0
H629 H 0.19284 -0.00175 0.85328 0.0
H630 H 0.23404 0.02847 0.86268 0.0
H631 H 0.29242 0.9893 0.91255 0.0
H632 H 0.40984 0.07454 0.93741 0.0
H633 H 0.361 0.05477 0.93894 0.0
H634 H 0.29737 0.09253 0.89277 0.0
C635 C 0.22689 0.01264 0.87523 0.0
C636 C 0.29296 0.01199 0.90869 0.0
C637 C 0.20337 0.9951 0.86975 0.0
C638 C 0.39595 0.07857 0.92298 0.0
C639 C 0.368 0.06711 0.92383 0.0
C640 C 0.29646 0.07004 0.89724 0.0
C641 C 0.24177 0.00885 0.89604 0.0
C642 C 0.26846 0.02571 0.90053 0.0
C643 C 0.34954 0.07099 0.90515 0.0
C644 C 0.32115 0.05603 0.90476 0.0
H645 H 0.20176 0.95351 0.9182 0.0
H646 H 0.24277 0.98444 0.92794 0.0
H647 H 0.25174 0.06637 0.88922 0.0
H648 H 0.39441 0.11105 0.8699 0.0
H649 H 0.34558 0.09083 0.87131 0.0
C650 C 0.4958 0.21728 0.91842 0.0
C651 C 0.52557 0.21581 0.92227 0.0
C652 C 0.48152 0.24393 0.91952 0.0
C653 C 0.48831 0.32256 0.93523 0.0
H654 H 0.44509 0.32968 0.87841 0.0
C655 C 0.46069 0.43262 0.89771 0.0
C656 C 0.43326 0.4357 0.88839 0.0
C657 C 0.46984 0.40576 0.90484 0.0
C658 C 0.45665 0.32801 0.89458 0.0
H659 H 0.56319 0.24069 0.93232 0.0
H660 H 0.53833 0.28738 0.93385 0.0
H661 H 0.46372 0.28272 0.88762 0.0
H662 H 0.39373 0.41317 0.87957 0.0
H663 H 0.40966 0.36639 0.89209 0.0
H664 H 0.4817 0.36822 0.94175 0.0
C665 C 0.52595 0.26794 0.93018 0.0
C666 C 0.46727 0.30104 0.89992 0.0
C667 C 0.54022 0.24118 0.92927 0.0
C668 C 0.41511 0.41145 0.88647 0.0
C669 C 0.42425 0.38463 0.89361 0.0
C670 C 0.47762 0.34965 0.92987 0.0
C671 C 0.49678 0.26965 0.92427 0.0
C672 C 0.48342 0.29802 0.92018 0.0
C673 C 0.45175 0.38146 0.9028 0.0
C674 C 0.46191 0.35266 0.90935 0.0
H675 H 0.48386 0.19798 0.91332 0.0
H676 H 0.45884 0.24451 0.91547 0.0
H677 H 0.50053 0.32086 0.95104 0.0
H678 H 0.47513 0.45093 0.89953 0.0
H679 H 0.49131 0.40392 0.91155 0.0
C680 C 0.06831 0.04143 0.5998 0.0
C681 C 0.05901 0.06569 0.61431 0.0
C682 C 0.09686 0.03156 0.59986 0.0
C683 C 0.16024 0.03085 0.63638 0.0
H684 H 0.19927 0.00372 0.57648 0.0
C685 C 0.27741 0.98151 0.62761 0.0
C686 C 0.28051 0.95655 0.61227 0.0
C687 C 0.25149 -0.00247 0.62901 0.0
C688 C 0.18861 0.01109 0.59337 0.0
H689 H 0.07245 0.09878 0.64018 0.0
H690 H 0.12263 0.08136 0.64029 0.0
H691 H 0.15231 0.0277 0.57625 0.0
H692 H 0.25851 0.92827 0.58704 0.0
H693 H 0.21368 0.95597 0.58952 0.0
H694 H 0.19655 0.01362 0.65347 0.0
C695 C 0.10765 0.07 0.62895 0.0
C696 C 0.16173 0.02484 0.59323 0.0
C697 C 0.07901 0.08005 0.62877 0.0
C698 C 0.25701 0.94755 0.59886 0.0
C699 C 0.23132 0.96352 0.60017 0.0
C700 C 0.18727 0.01703 0.63652 0.0
C701 C 0.11684 0.04563 0.61448 0.0
C702 C 0.1469 0.03422 0.61474 0.0
C703 C 0.22839 0.98893 0.61493 0.0
C704 C 0.20134 0.00635 0.61502 0.0
H705 H 0.05348 0.02985 0.58846 0.0
H706 H 0.10312 0.01247 0.58878 0.0
H707 H 0.14925 0.03775 0.65324 0.0
H708 H 0.2952 0.98908 0.63802 0.0
H709 H 0.24985 0.01705 0.64052 0.0
C710 C 0.51141 0.27499 0.5885 0.0
C711 C 0.53708 0.28396 0.57653 0.0
C712 C 0.5028 0.24609 0.58661 0.0
C713 C 0.53474 0.17398 0.5765 0.0
H714 H 0.45453 0.14928 0.57631 0.0
C715 C 0.50163 0.05378 0.58141 0.0
C716 C 0.4772 0.04812 0.59641 0.0
C717 C 0.50868 0.08218 0.57609 0.0
C718 C 0.47702 0.15587 0.57653 0.0
H719 H 0.57292 0.27 0.55202 0.0
H720 H 0.55776 0.21948 0.54867 0.0
H721 H 0.46641 0.19993 0.57065 0.0
H722 H 0.44135 0.0678 0.61803 0.0
H723 H 0.45403 0.11731 0.60925 0.0
H724 H 0.54532 0.13015 0.58302 0.0
C725 C 0.54454 0.23479 0.55976 0.0
C726 C 0.48382 0.18484 0.57321 0.0
C727 C 0.5531 0.26375 0.56156 0.0
C728 C 0.4603 0.07144 0.60638 0.0
C729 C 0.46737 0.0998 0.60111 0.0
C730 C 0.52795 0.14502 0.57987 0.0
C731 C 0.51971 0.22553 0.57276 0.0
C732 C 0.5127 0.1943 0.57355 0.0
C733 C 0.49151 0.1055 0.58577 0.0
C734 C 0.49896 0.13575 0.58035 0.0
H735 H 0.49852 0.29004 0.60012 0.0
H736 H 0.48368 0.23962 0.59699 0.0
H737 H 0.55717 0.18066 0.57721 0.0
H738 H 0.51508 0.03624 0.57347 0.0
H739 H 0.52729 0.08581 0.56406 0.0
C740 C 0.2048 0.51138 0.58249 0.0
C741 C 0.1879 0.51871 0.60347 0.0
C742 C 0.22964 0.49421 0.58322 0.0
C743 C 0.28449 0.47358 0.62441 0.0
H744 H 0.30723 0.41748 0.57305 0.0
C745 C 0.39154 0.40836 0.62368 0.0
C746 C 0.40811 0.40729 0.60191 0.0
C747 C 0.36286 0.41839 0.62485 0.0
C748 C 0.30122 0.43315 0.58748 0.0
H749 H 0.18336 0.51308 0.64164 0.0
H750 H 0.22656 0.4829 0.64284 0.0
H751 H 0.26002 0.44133 0.57333 0.0
H752 H 0.40731 0.41523 0.5642 0.0
H753 H 0.35752 0.4328 0.56629 0.0
H754 H 0.32591 0.46581 0.63832 0.0
C755 C 0.2208 0.49072 0.62586 0.0
C756 C 0.27419 0.44683 0.58763 0.0
C757 C 0.19594 0.50786 0.62513 0.0
C758 C 0.39517 0.41575 0.58126 0.0
C759 C 0.36652 0.42566 0.58242 0.0
C760 C 0.31151 0.45988 0.62427 0.0
C761 C 0.23814 0.48398 0.60495 0.0
C762 C 0.26572 0.46756 0.60588 0.0
C763 C 0.35013 0.4274 0.60426 0.0
C764 C 0.32038 0.43987 0.60559 0.0
H765 H 0.19924 0.51942 0.56554 0.0
H766 H 0.2427 0.48975 0.56684 0.0
H767 H 0.27881 0.48972 0.63857 0.0
H768 H 0.40087 0.40196 0.63991 0.0
H769 H 0.35068 0.41922 0.6419 0.0
C770 C 0.05526 0.41467 0.64204 0.0
C771 C 0.04208 0.43931 0.63369 0.0
C772 C 0.04702 0.38696 0.63396 0.0
C773 C 0.98649 0.34825 0.60593 0.0
H774 H 0.04236 0.28531 0.59745 0.0
C775 C 0.95202 0.23409 0.57432 0.0
C776 C 0.96038 0.21214 0.58896 0.0
C777 C 0.96483 0.2614 0.57609 0.0
C778 C 0.02655 0.3027 0.59975 0.0
H779 H 0.01048 0.45427 0.6098 0.0
H780 H 0.99655 0.40601 0.59531 0.0
H781 H 0.0589 0.33427 0.60784 0.0
H782 H 0.99013 0.20103 0.61575 0.0
H783 H 0.01253 0.24866 0.61874 0.0
H784 H 0.95415 0.31667 0.598 0.0
C785 C 0.01276 0.408 0.60854 0.0
C786 C 0.03596 0.33071 0.60581 0.0
C787 C 0.02081 0.43569 0.61679 0.0
C788 C 0.98313 0.21751 0.60427 0.0
C789 C 0.99605 0.24477 0.60592 0.0
C790 C 0.97714 0.32033 0.5997 0.0
C791 C 0.02559 0.38327 0.61716 0.0
C792 C 0.01598 0.35377 0.60929 0.0
C793 C 0.98641 0.26724 0.59239 0.0
C794 C 0.99699 0.29719 0.59683 0.0
H795 H 0.07166 0.41675 0.65511 0.0
H796 H 0.05702 0.36844 0.64129 0.0
H797 H 0.97041 0.36531 0.60886 0.0
H798 H 0.93465 0.23064 0.56227 0.0
H799 H 0.95727 0.27822 0.56519 0.0
C800 C 0.06637 0.64477 0.21036 0.0
C801 C 0.04102 0.64081 0.19777 0.0
C802 C 0.06684 0.66492 0.22971 0.0
C803 C 0.06598 0.72726 0.24895 0.0
H804 H 0.00633 0.74396 0.29903 0.0
C805 C 0.06909 0.83193 0.30821 0.0
C806 C 0.04262 0.84578 0.31454 0.0
C807 C 0.06969 0.80402 0.29754 0.0
C808 C 0.02306 0.73971 0.28502 0.0
H809 H 0.99547 0.65241 0.19727 0.0
H810 H 0.99634 0.68748 0.23115 0.0
H811 H 0.00559 0.69795 0.27553 0.0
H812 H 0.99587 0.84199 0.31422 0.0
H813 H 0.99674 0.79354 0.29476 0.0
H814 H 0.08262 0.76929 0.25717 0.0
C815 C 0.01586 0.67519 0.22591 0.0
C816 C 0.02272 0.71329 0.27174 0.0
C817 C 0.01544 0.65522 0.20641 0.0
C818 C 0.01661 0.83159 0.30961 0.0
C819 C 0.01715 0.8037 0.29875 0.0
C820 C 0.06613 0.75371 0.26197 0.0
C821 C 0.04189 0.68115 0.23701 0.0
C822 C 0.044 0.70703 0.25339 0.0
C823 C 0.04373 0.78957 0.29255 0.0
C824 C 0.04448 0.76047 0.27997 0.0
H825 H 0.08636 0.63371 0.20437 0.0
H826 H 0.08709 0.66891 0.23819 0.0
H827 H 0.0823 0.72326 0.23456 0.0
H828 H 0.08938 0.84282 0.31139 0.0
H829 H 0.09057 0.79376 0.29333 0.0
C830 C 0.67332 0.03872 0.30331 0.0
C831 C 0.67049 0.01828 0.32094 0.0
C832 C 0.69775 0.03851 0.28768 0.0
C833 C 0.75413 0.9954 0.25779 0.0
H834 H 0.79893 0.06633 0.25842 0.0
C835 C 0.85143 0.00642 0.19187 0.0
C836 C 0.85281 0.03263 0.18037 0.0
C837 C 0.83377 0.00399 0.21257 0.0
C838 C 0.78659 0.04644 0.2579 0.0
H839 H 0.68985 0.98016 0.33473 0.0
H840 H 0.73221 0.97925 0.30653 0.0
H841 H 0.75681 0.06225 0.28618 0.0
H842 H 0.83813 0.07721 0.18197 0.0
H843 H 0.80642 0.07282 0.21747 0.0
H844 H 0.78248 0.98007 0.22863 0.0
C845 C 0.71575 0.99579 0.30543 0.0
C846 C 0.76262 0.04411 0.27383 0.0
C847 C 0.69153 0.9963 0.32144 0.0
C848 C 0.83758 0.05683 0.1906 0.0
C849 C 0.81948 0.05427 0.21105 0.0
C850 C 0.77779 -0.00211 0.24154 0.0
C851 C 0.71937 0.01744 0.28899 0.0
C852 C 0.746 0.01877 0.27357 0.0
C853 C 0.81668 0.02756 0.22185 0.0
C854 C 0.79399 0.02366 0.24111 0.0
H855 H 0.65737 0.05576 0.3023 0.0
H856 H 0.70003 0.05512 0.27481 0.0
H857 H 0.74143 0.97572 0.25733 0.0
H858 H 0.86331 0.98753 0.18444 0.0
H859 H 0.83275 0.98334 0.2208 0.0
C860 C 0.44543 0.81086 0.18148 0.0
C861 C 0.47072 0.81921 0.16864 0.0
C862 C 0.44678 0.79006 0.19851 0.0
C863 C 0.49484 0.75717 0.23873 0.0
H864 H 0.44195 0.69221 0.23533 0.0
C865 C 0.50083 0.66504 0.30318 0.0
C866 C 0.47424 0.65478 0.3126 0.0
C867 C 0.50162 0.68307 0.28398 0.0
C868 C 0.45666 0.71035 0.23671 0.0
H869 H 0.51733 0.81297 0.16397 0.0
H870 H 0.51969 0.77701 0.19417 0.0
H871 H 0.44045 0.72913 0.20596 0.0
H872 H 0.42767 0.65478 0.30895 0.0
H873 H 0.42892 0.68681 0.27606 0.0
H874 H 0.51046 0.73916 0.26989 0.0
C875 C 0.49887 0.78645 0.19087 0.0
C876 C 0.45581 0.73142 0.21986 0.0
C877 C 0.49748 0.80694 0.17359 0.0
C878 C 0.44854 0.66219 0.30201 0.0
C879 C 0.44929 0.68048 0.28303 0.0
C880 C 0.49545 0.73632 0.25578 0.0
C881 C 0.47349 0.77757 0.20323 0.0
C882 C 0.47478 0.75506 0.22083 0.0
C883 C 0.47579 0.69149 0.274 0.0
C884 C 0.47625 0.71273 0.25506 0.0
H885 H 0.42448 0.81984 0.17797 0.0
H886 H 0.42696 0.78372 0.20801 0.0
H887 H 0.50954 0.77536 0.23991 0.0
H888 H 0.52102 0.65949 0.31086 0.0
H889 H 0.52246 0.69067 0.27715 0.0
C890 C 0.66642 0.45038 0.23537 0.0
C891 C 0.67527 0.45406 0.21141 0.0
C892 C 0.68568 0.45585 0.25348 0.0
C893 C 0.73641 0.446 0.28419 0.0
H894 H 0.80193 0.49714 0.27508 0.0
C895 C 0.84683 0.42152 0.32072 0.0
C896 C 0.86679 0.44388 0.32439 0.0
C897 C 0.81978 0.42737 0.312 0.0
C898 C 0.7836 0.48312 0.27847 0.0
H899 H 0.71077 0.46769 0.18773 0.0
H900 H 0.74445 0.4759 0.21877 0.0
H901 H 0.76021 0.50212 0.25146 0.0
H902 H 0.87363 0.49014 0.32348 0.0
H903 H 0.82599 0.50069 0.30944 0.0
H904 H 0.75937 0.42775 0.31188 0.0
C905 C 0.72254 0.46963 0.22399 0.0
C906 C 0.75974 0.48565 0.26448 0.0
C907 C 0.70321 0.46463 0.20602 0.0
C908 C 0.85877 0.47241 0.32034 0.0
C909 C 0.83148 0.47839 0.31215 0.0
C910 C 0.75998 0.44396 0.29865 0.0
C911 C 0.71431 0.46472 0.24793 0.0
C912 C 0.73647 0.4662 0.2663 0.0
C913 C 0.81187 0.45587 0.3072 0.0
C914 C 0.78452 0.46158 0.2952 0.0
H915 H 0.64488 0.44254 0.24009 0.0
H916 H 0.67834 0.45242 0.27174 0.0
H917 H 0.71895 0.4306 0.28624 0.0
H918 H 0.85258 0.39935 0.32367 0.0
H919 H 0.80568 0.40928 0.30808 0.0
C920 C 0.9662 0.17154 0.69385 0.0
C921 C 0.94069 0.16195 0.68343 0.0
C922 C 0.96495 0.19235 0.71273 0.0
C923 C 0.9195 0.25242 0.73777 0.0
H924 H 0.97075 0.25059 0.7902 0.0
C925 C 0.9169 0.33698 0.8178 0.0
C926 C 0.94384 0.3454 0.82643 0.0
C927 C 0.91541 0.31511 0.79981 0.0
C928 C 0.95654 0.25153 0.77551 0.0
H929 H 0.8937 0.16554 0.68552 0.0
H930 H 0.89158 0.20189 0.71868 0.0
H931 H 0.96924 0.20921 0.76161 0.0
H932 H 0.99044 0.3389 0.82178 0.0
H933 H 0.9878 0.30112 0.79016 0.0
H934 H 0.90695 0.29487 0.75167 0.0
C935 C 0.91254 0.19356 0.71192 0.0
C936 C 0.95559 0.22781 0.75923 0.0
C937 C 0.91377 0.17261 0.69306 0.0
C938 C 0.96933 0.33278 0.81569 0.0
C939 C 0.96782 0.31095 0.79773 0.0
C940 C 0.92042 0.27617 0.75411 0.0
C941 C 0.93817 0.20402 0.72162 0.0
C942 C 0.93733 0.22814 0.74003 0.0
C943 C 0.94083 0.30134 0.7901 0.0
C944 C 0.93923 0.27608 0.77296 0.0
H945 H 0.98729 0.16372 0.68691 0.0
H946 H 0.9851 0.20016 0.7197 0.0
H947 H 0.9055 0.25344 0.72296 0.0
H948 H 0.89685 0.34635 0.82565 0.0
H949 H 0.8943 0.30811 0.79429 0.0
C950 C 0.36361 0.92725 0.68215 0.0
C951 C 0.37317 0.94929 0.66761 0.0
C952 C 0.33706 0.92996 0.69517 0.0
C953 C 0.28023 0.98432 0.71594 0.0
H954 H 0.23636 0.91493 0.72858 0.0
C955 C 0.18819 0.98469 0.78791 0.0
C956 C 0.16534 0.9649 0.78596 0.0
C957 C 0.21132 0.98392 0.77099 0.0
C958 C 0.24794 0.93464 0.72483 0.0
H959 H 0.36349 0.9915 0.65515 0.0
H960 H 0.31673 0.99611 0.6772 0.0
H961 H 0.28085 0.91129 0.70371 0.0
H962 H 0.14799 0.9296 0.76426 0.0
H963 H 0.18786 0.9291 0.73384 0.0
H964 H 0.24653 0.00786 0.73591 0.0
C965 C 0.32964 0.97692 0.67917 0.0
C966 C 0.27391 0.93247 0.71095 0.0
C967 C 0.35639 0.97436 0.6665 0.0
C968 C 0.16547 0.94499 0.76622 0.0
C969 C 0.18842 0.9446 0.74893 0.0
C970 C 0.25392 0.98657 0.72928 0.0
C971 C 0.31946 0.95463 0.69352 0.0
C972 C 0.29078 0.95719 0.70684 0.0
C973 C 0.21192 0.96372 0.75136 0.0
C974 C 0.23784 0.96168 0.73449 0.0
H975 H 0.37671 0.90801 0.6835 0.0
H976 H 0.33051 0.91276 0.70661 0.0
H977 H 0.29258 0.00388 0.7134 0.0
H978 H 0.18888 9e-05 0.80309 0.0
H979 H 0.22924 -0.00148 0.77389 0.0
C980 C 0.54247 0.18424 0.81178 0.0
C981 C 0.51696 0.1789 0.82562 0.0
C982 C 0.54247 0.20435 0.79411 0.0
C983 C 0.49631 0.23867 0.75358 0.0
H984 H 0.55419 0.29934 0.75291 0.0
C985 C 0.49415 0.32724 0.68584 0.0
C986 C 0.52092 0.33599 0.67563 0.0
C987 C 0.4931 0.31 0.70551 0.0
C988 C 0.5381 0.28234 0.75264 0.0
H989 H 0.47131 0.1899 0.83143 0.0
H990 H 0.47124 0.22455 0.80004 0.0
H991 H 0.55373 0.26432 0.78395 0.0
H992 H 0.56758 0.334 0.67815 0.0
H993 H 0.56588 0.30305 0.71191 0.0
H994 H 0.48124 0.25572 0.72188 0.0
C995 C 0.49122 0.21334 0.80313 0.0
C996 C 0.53781 0.2624 0.77046 0.0
C997 C 0.49131 0.19359 0.82108 0.0
C998 C 0.54662 0.32773 0.68577 0.0
C999 C 0.5456 0.31008 0.70522 0.0
C1000 C 0.49685 0.25831 0.73555 0.0
C1001 C 0.51686 0.21908 0.78968 0.0
C1002 C 0.51694 0.2404 0.77104 0.0
C1003 C 0.51883 0.3007 0.71515 0.0
C1004 C 0.51778 0.28039 0.73482 0.0
H1005 H 0.56258 0.17327 0.81484 0.0
H1006 H 0.56244 0.20825 0.78378 0.0
H1007 H 0.48018 0.22168 0.75356 0.0
H1008 H 0.47398 0.33357 0.67852 0.0
H1009 H 0.47209 0.3038 0.71303 0.0
C1010 C 0.13616 0.52556 0.68752 0.0
C1011 C 0.1257 0.55088 0.67814 0.0
C1012 C 0.16274 0.5257 0.69838 0.0
C1013 C 0.21311 0.57714 0.7272 0.0
H1014 H 0.26413 0.51024 0.72553 0.0
C1015 C 0.31973 0.58239 0.77385 0.0
C1016 C 0.32166 0.56184 0.79126 0.0
C1017 C 0.29958 0.57899 0.75628 0.0
C1018 C 0.25006 0.52905 0.72602 0.0
H1019 H 0.13438 0.59613 0.67304 0.0
H1020 H 0.18125 0.59615 0.69071 0.0
H1021 H 0.22118 0.5088 0.70167 0.0
H1022 H 0.30567 0.52046 0.80277 0.0
H1023 H 0.27053 0.51449 0.77184 0.0
H1024 H 0.242 0.59742 0.75135 0.0
C1025 C 0.16893 0.57625 0.69016 0.0
C1026 C 0.2254 0.52821 0.71254 0.0
C1027 C 0.14227 0.57617 0.67965 0.0
C1028 C 0.30456 0.53675 0.78968 0.0
C1029 C 0.28456 0.53324 0.77192 0.0
C1030 C 0.23788 0.57811 0.7403 0.0
C1031 C 0.17933 0.55116 0.70002 0.0
C1032 C 0.20646 0.55219 0.71317 0.0
C1033 C 0.28122 0.55485 0.75564 0.0
C1034 C 0.25644 0.55403 0.74002 0.0
H1035 H 0.12369 0.50576 0.68672 0.0
H1036 H 0.1698 0.50609 0.7061 0.0
H1037 H 0.19875 0.59575 0.72868 0.0
H1038 H 0.33275 0.60185 0.77445 0.0
H1039 H 0.29756 0.5958 0.74374 0.0
C1040 C 0.15436 0.70042 0.16766 0.0
C1041 C 0.14968 0.67966 0.14909 0.0
C1042 C 0.17866 0.71834 0.16659 0.0
C1043 C 0.22998 0.74978 0.12349 0.0
H1044 H 0.27638 0.76597 0.17815 0.0
C1045 C 0.33813 0.81141 0.1163 0.0
C1046 C 0.34576 0.82977 0.13569 0.0
C1047 C 0.31338 0.79422 0.11801 0.0
C1048 C 0.26337 0.76207 0.16283 0.0
H1049 H 0.16718 0.66092 0.11511 0.0
H1050 H 0.20963 0.69234 0.11323 0.0
H1051 H 0.23567 0.73259 0.18136 0.0
H1052 H 0.33271 0.84532 0.17177 0.0
H1053 H 0.28901 0.81584 0.17456 0.0
H1054 H 0.25727 0.77948 0.10501 0.0
C1055 C 0.19436 0.69481 0.12854 0.0
C1056 C 0.24016 0.74282 0.16465 0.0
C1057 C 0.17019 0.67669 0.12971 0.0
C1058 C 0.32751 0.83131 0.15655 0.0
C1059 C 0.30259 0.81422 0.15821 0.0
C1060 C 0.25302 0.7692 0.12172 0.0
C1061 C 0.19864 0.71604 0.14683 0.0
C1062 C 0.22335 0.73636 0.14496 0.0
C1063 C 0.29549 0.79511 0.1391 0.0
C1064 C 0.27013 0.77546 0.14131 0.0
H1065 H 0.13897 0.70321 0.18286 0.0
H1066 H 0.18133 0.73462 0.18088 0.0
H1067 H 0.21705 0.74559 0.10815 0.0
H1068 H 0.35176 0.8096 0.09998 0.0
H1069 H 0.30883 0.77952 0.10304 0.0
C1070 C 0.8269 0.16882 0.14861 0.0
C1071 C 0.83477 0.1511 0.1282 0.0
C1072 C 0.81028 0.19381 0.14678 0.0
C1073 C 0.75957 0.22707 0.10719 0.0
H1074 H 0.7726 0.29608 0.14733 0.0
C1075 C 0.69968 0.3361 0.09815 0.0
C1076 C 0.68987 0.35089 0.11958 0.0
C1077 C 0.71733 0.31152 0.09851 0.0
C1078 C 0.76856 0.27687 0.13615 0.0
H1079 H 0.8321 0.14619 0.08975 0.0
H1080 H 0.80365 0.19012 0.0865 0.0
H1081 H 0.80467 0.25439 0.14891 0.0
H1082 H 0.69037 0.35103 0.15823 0.0
H1083 H 0.72105 0.30822 0.15879 0.0
H1084 H 0.72352 0.24978 0.09434 0.0
C1085 C 0.80978 0.18438 0.104 0.0
C1086 C 0.78691 0.25297 0.13706 0.0
C1087 C 0.82627 0.1593 0.10584 0.0
C1088 C 0.69759 0.34022 0.14137 0.0
C1089 C 0.71535 0.3158 0.14172 0.0
C1090 C 0.74131 0.25107 0.10617 0.0
C1091 C 0.80128 0.20176 0.12448 0.0
C1092 C 0.78251 0.22767 0.12275 0.0
C1093 C 0.72567 0.30137 0.1203 0.0
C1094 C 0.74546 0.27612 0.1208 0.0
H1095 H 0.83297 0.16307 0.16612 0.0
H1096 H 0.80383 0.20645 0.16298 0.0
H1097 H 0.75526 0.2078 0.09617 0.0
H1098 H 0.69414 0.34377 0.08106 0.0
H1099 H 0.72507 0.30091 0.08172 0.0
C1100 C 0.33444 0.66258 0.34271 0.0
C1101 C 0.35353 0.66572 0.36132 0.0
C1102 C 0.31053 0.68103 0.34206 0.0
C1103 C 0.28287 0.75291 0.3639 0.0
H1104 H 0.20891 0.72127 0.34614 0.0
C1105 C 0.17436 0.81856 0.36892 0.0
C1106 C 0.15492 0.81148 0.35113 0.0
C1107 C 0.20027 0.80286 0.36983 0.0
C1108 C 0.2295 0.73056 0.35081 0.0
H1109 H 0.3623 0.69054 0.39403 0.0
H1110 H 0.32039 0.72259 0.39293 0.0
H1111 H 0.25001 0.68898 0.34907 0.0
H1112 H 0.1483 0.78435 0.31924 0.0
H1113 H 0.19359 0.75775 0.32038 0.0
H1114 H 0.26218 0.7946 0.36558 0.0
C1115 C 0.32412 0.70604 0.37873 0.0
C1116 C 0.25305 0.712 0.35254 0.0
C1117 C 0.34798 0.6875 0.37944 0.0
C1118 C 0.16271 0.78998 0.33337 0.0
C1119 C 0.18856 0.77458 0.33413 0.0
C1120 C 0.25924 0.77157 0.36211 0.0
C1121 C 0.30522 0.70309 0.35996 0.0
C1122 C 0.28005 0.72295 0.35892 0.0
C1123 C 0.20712 0.78003 0.35286 0.0
C1124 C 0.23236 0.7606 0.3553 0.0
H1125 H 0.33815 0.64613 0.32842 0.0
H1126 H 0.29653 0.6784 0.32722 0.0
H1127 H 0.3035 0.76202 0.36867 0.0
H1128 H 0.16878 0.83498 0.38288 0.0
H1129 H 0.21414 0.80759 0.38448 0.0
C1130 C 0.81881 0.32274 0.37033 0.0
C1131 C 0.84375 0.32444 0.35496 0.0
C1132 C 0.79983 0.29949 0.368 0.0
C1133 C 0.79499 0.22425 0.34517 0.0
H1134 H 0.71221 0.2399 0.3483 0.0
C1135 C 0.71265 0.13247 0.33279 0.0
C1136 C 0.68827 0.13309 0.34889 0.0
C1137 C 0.73059 0.15658 0.3311 0.0
C1138 C 0.73523 0.23514 0.34759 0.0
H1139 H 0.86857 0.30271 0.32536 0.0
H1140 H 0.83537 0.26176 0.32144 0.0
H1141 H 0.7463 0.28006 0.35048 0.0
H1142 H 0.66295 0.15976 0.37526 0.0
H1143 H 0.69457 0.20178 0.37264 0.0
H1144 H 0.78404 0.17937 0.34289 0.0
C1145 C 0.83062 0.27857 0.33527 0.0
C1146 C 0.75474 0.25813 0.3488 0.0
C1147 C 0.84958 0.30201 0.3375 0.0
C1148 C 0.68153 0.1587 0.36261 0.0
C1149 C 0.69963 0.1828 0.36104 0.0
C1150 C 0.77548 0.20124 0.3441 0.0
C1151 C 0.80539 0.27728 0.35034 0.0
C1152 C 0.78481 0.25291 0.34783 0.0
C1153 C 0.72469 0.18181 0.3456 0.0
C1154 C 0.74535 0.2064 0.34548 0.0
H1155 H 0.81365 0.33961 0.38402 0.0
H1156 H 0.78082 0.29883 0.38013 0.0
H1157 H 0.81802 0.21957 0.34465 0.0
H1158 H 0.71825 0.11311 0.3218 0.0
H1159 H 0.74935 0.1553 0.31865 0.0
C1160 C 0.65157 0.17548 0.88419 0.0
C1161 C 0.62982 0.18839 0.87168 0.0
C1162 C 0.67846 0.18897 0.88643 0.0
C1163 C 0.71313 0.26074 0.88342 0.0
H1164 H 0.78477 0.21644 0.87775 0.0
C1165 C 0.8435 0.2814 0.86839 0.0
C1166 C 0.84708 0.30503 0.88473 0.0
C1167 C 0.81727 0.26647 0.86809 0.0
C1168 C 0.76495 0.22913 0.87928 0.0
H1169 H 0.61949 0.22516 0.85115 0.0
H1170 H 0.6664 0.24835 0.85471 0.0
H1171 H 0.73857 0.19161 0.87378 0.0
H1172 H 0.82605 0.33126 0.91383 0.0
H1173 H 0.78026 0.30495 0.91347 0.0
H1174 H 0.73949 0.29835 0.88821 0.0
C1175 C 0.66254 0.22813 0.86323 0.0
C1176 C 0.73847 0.21486 0.87726 0.0
C1177 C 0.63571 0.21471 0.86104 0.0
C1178 C 0.82393 0.31323 0.90095 0.0
C1179 C 0.79766 0.29823 0.90067 0.0
C1180 C 0.73959 0.275 0.88542 0.0
C1181 C 0.68412 0.21561 0.87618 0.0
C1182 C 0.71227 0.23054 0.87909 0.0
C1183 C 0.794 0.27476 0.88416 0.0
C1184 C 0.76583 0.2594 0.88318 0.0
H1185 H 0.64765 0.15525 0.89267 0.0
H1186 H 0.69455 0.17887 0.89667 0.0
H1187 H 0.6933 0.27341 0.88528 0.0
H1188 H 0.86086 0.27458 0.85558 0.0
H1189 H 0.81505 0.24879 0.8549 0.0
C1190 C 0.31343 0.66489 0.86012 0.0
C1191 C 0.2968 0.64031 0.8651 0.0
C1192 C 0.29995 0.69164 0.85782 0.0
C1193 C 0.22891 0.72309 0.84521 0.0
H1194 H 0.26336 0.79497 0.86816 0.0
C1195 C 0.16933 0.83332 0.84717 0.0
C1196 C 0.18564 0.85707 0.83955 0.0
C1197 C 0.18286 0.80682 0.85026 0.0
C1198 C 0.25362 0.77508 0.86147 0.0
H1199 H 0.25311 0.62471 0.87244 0.0
H1200 H 0.22971 0.67138 0.86899 0.0
H1201 H 0.28707 0.74904 0.87456 0.0
H1202 H 0.22892 0.87155 0.829 0.0
H1203 H 0.25247 0.8253 0.8344 0.0
H1204 H 0.19534 0.74917 0.83232 0.0
C1205 C 0.25309 0.66992 0.86626 0.0
C1206 C 0.26721 0.74876 0.86511 0.0
C1207 C 0.26653 0.64319 0.86841 0.0
C1208 C 0.21571 0.85369 0.8349 0.0
C1209 C 0.22926 0.82726 0.83815 0.0
C1210 C 0.21525 0.74938 0.8417 0.0
C1211 C 0.26957 0.69439 0.86059 0.0
C1212 C 0.25503 0.72244 0.85701 0.0
C1213 C 0.213 0.80358 0.84596 0.0
C1214 C 0.22748 0.77565 0.84975 0.0
H1215 H 0.33679 0.66335 0.85735 0.0
H1216 H 0.31329 0.70995 0.8532 0.0
H1217 H 0.2192 0.70329 0.83832 0.0
H1218 H 0.14612 0.83523 0.85093 0.0
H1219 H 0.16981 0.78902 0.85648 0.0
C1220 C 0.84308 0.22308 0.64084 0.0
C1221 C 0.8484 0.1999 0.62398 0.0
C1222 C 0.81876 0.2408 0.6397 0.0
C1223 C 0.74658 0.24364 0.6142 0.0
H1224 H 0.75321 0.32587 0.63032 0.0
C1225 C 0.65276 0.32346 0.60362 0.0
C1226 C 0.6458 0.3424 0.62354 0.0
C1227 C 0.67845 0.30734 0.60225 0.0
C1228 C 0.75102 0.30293 0.62589 0.0
H1229 H 0.83239 0.17712 0.59266 0.0
H1230 H 0.79008 0.20847 0.59035 0.0
H1231 H 0.79597 0.29481 0.63036 0.0
H1232 H 0.66095 0.36009 0.65716 0.0
H1233 H 0.70602 0.33205 0.65462 0.0
H1234 H 0.70163 0.25191 0.60959 0.0
C1235 C 0.80449 0.21264 0.60473 0.0
C1236 C 0.77547 0.28509 0.62598 0.0
C1237 C 0.82877 0.19472 0.60599 0.0
C1238 C 0.66566 0.34568 0.6416 0.0
C1239 C 0.69151 0.3297 0.64011 0.0
C1240 C 0.72219 0.26153 0.61392 0.0
C1241 C 0.79925 0.23598 0.62154 0.0
C1242 C 0.7735 0.25515 0.62037 0.0
C1243 C 0.69789 0.30997 0.62063 0.0
C1244 C 0.72411 0.29132 0.61996 0.0
H1245 H 0.85767 0.22753 0.65506 0.0
H1246 H 0.81513 0.25814 0.65326 0.0
H1247 H 0.74413 0.22065 0.61015 0.0
H1248 H 0.63799 0.32042 0.58936 0.0
H1249 H 0.683 0.29259 0.58687 0.0
C1250 C 0.31517 0.83289 0.60768 0.0
C1251 C 0.33514 0.83758 0.62551 0.0
C1252 C 0.29606 0.80957 0.60838 0.0
C1253 C 0.2637 0.75763 0.65034 0.0
H1254 H 0.23989 0.71785 0.59211 0.0
C1255 C 0.20496 0.64767 0.64679 0.0
C1256 C 0.18091 0.64502 0.63253 0.0
C1257 C 0.22191 0.67259 0.64672 0.0
C1258 C 0.24611 0.72903 0.60848 0.0
H1259 H 0.35152 0.8208 0.65754 0.0
H1260 H 0.31897 0.77939 0.65827 0.0
H1261 H 0.27504 0.75703 0.58976 0.0
H1262 H 0.15533 0.66645 0.60735 0.0
H1263 H 0.1856 0.71002 0.6068 0.0
H1264 H 0.23544 0.72872 0.66898 0.0
C1265 C 0.31741 0.79426 0.64413 0.0
C1266 C 0.26624 0.75149 0.60718 0.0
C1267 C 0.3363 0.81783 0.64359 0.0
C1268 C 0.17372 0.66802 0.61855 0.0
C1269 C 0.19107 0.69279 0.61814 0.0
C1270 C 0.2439 0.7349 0.65162 0.0
C1271 C 0.29668 0.79011 0.62677 0.0
C1272 C 0.27537 0.76605 0.6281 0.0
C1273 C 0.21544 0.69515 0.6321 0.0
C1274 C 0.23499 0.72037 0.63071 0.0
H1275 H 0.31351 0.84785 0.5936 0.0
H1276 H 0.28019 0.80738 0.59488 0.0
H1277 H 0.26965 0.76873 0.66681 0.0
H1278 H 0.2109 0.63032 0.65784 0.0
H1279 H 0.24067 0.67381 0.65753 0.0
C1280 C 0.93963 0.44626 0.94777 0.0
C1281 C 0.95291 0.41887 0.94611 0.0
C1282 C 0.95164 0.46888 0.96148 0.0
C1283 C 0.02206 0.4906 0.98452 0.0
H1284 H 0.97674 0.54493 0.02619 0.0
C1285 C 0.06606 0.56003 0.06266 0.0
C1286 C 0.05325 0.58728 0.06798 0.0
C1287 C 0.05683 0.54259 0.04347 0.0
C1288 C 0.98965 0.53026 0.01424 0.0
H1289 H 0.98759 0.39285 0.95852 0.0
H1290 H 0.00796 0.43191 0.98293 0.0
H1291 H 0.95209 0.50748 0.00285 0.0
H1292 H 0.02355 0.61922 0.0561 0.0
H1293 H 0.00774 0.58891 0.02245 0.0
H1294 H 0.05968 0.51287 -0.00345 0.0
C1295 C 0.98893 0.4363 0.97319 0.0
C1296 C 0.97552 0.5088 0.00096 0.0
C1297 C 0.97707 0.41388 0.95949 0.0
C1298 C 0.03348 0.59809 0.05245 0.0
C1299 C 0.02431 0.58074 0.03332 0.0
C1300 C 0.0362 0.512 -0.00213 0.0
C1301 C 0.97698 0.46424 0.97367 0.0
C1302 C 0.99162 0.48842 0.98635 0.0
C1303 C 0.03481 0.55232 0.02942 0.0
C1304 C 0.02013 0.53176 0.0131 0.0
H1305 H 0.9212 0.45067 0.93733 0.0
H1306 H 0.94198 0.49024 0.96159 0.0
H1307 H 0.03499 0.47553 0.97295 0.0
H1308 H 0.08123 0.55118 0.07446 0.0
H1309 H 0.06524 0.52071 0.04085 0.0
C1310 C 0.04863 0.93916 0.90423 0.0
C1311 C 0.07485 0.95439 0.90251 0.0
C1312 C 0.02923 0.94459 0.92395 0.0
C1313 C 0.02221 0.98035 0.98467 0.0
H1314 H 0.94423 -0.00142 0.96741 0.0
C1315 C 0.94344 0.0449 0.04941 0.0
C1316 C 0.91617 0.03204 0.05296 0.0
C1317 C 0.96202 0.03526 0.03019 0.0
C1318 C 0.96587 0.99339 0.97249 0.0
H1319 H 0.10258 0.98526 0.9206 0.0
H1320 H 0.06897 0.99467 0.95481 0.0
H1321 H 0.97894 0.97719 0.93718 0.0
H1322 H 0.8859 0.00085 0.03848 0.0
H1323 H 0.9182 0.98426 0.00482 0.0
H1324 H 0.00928 0.99703 0.01987 0.0
C1325 C 0.06318 0.97863 0.94114 0.0
C1326 C 0.98564 0.9809 0.95528 0.0
C1327 C 0.08236 0.97339 0.92147 0.0
C1328 C 0.9069 0.01103 0.0361 0.0
C1329 C 0.92535 0.00157 0.01684 0.0
C1330 C 0.00249 0.99292 0.00184 0.0
C1331 C 0.03603 0.96504 0.94222 0.0
C1332 C 0.01411 0.97461 0.96114 0.0
C1333 C 0.95343 0.01288 0.01419 0.0
C1334 C 0.97427 -0.00012 0.99582 0.0
H1335 H 0.04238 0.92446 0.88977 0.0
H1336 H 0.00853 0.93359 0.92452 0.0
H1337 H 0.04392 0.97542 0.98974 0.0
H1338 H 0.9511 0.06104 0.06225 0.0
H1339 H 0.98346 0.04462 0.02827 0.0
C1340 C 0.507 0.0897 0.95228 0.0
C1341 C 0.52513 0.083 0.93186 0.0
C1342 C 0.50055 0.06881 0.96867 0.0
C1343 C 0.49464 0.99044 0.97129 0.0
H1344 H 0.48613 0.00753 0.03966 0.0
C1345 C 0.47589 0.90373 0.04013 0.0
C1346 C 0.45772 0.91061 0.0605 0.0
C1347 C 0.48216 0.92439 0.02349 0.0
C1348 C 0.48797 0.0026 0.02057 0.0
H1349 H 0.55213 0.04981 0.91318 0.0
H1350 H 0.54107 0.01309 0.94216 0.0
H1351 H 0.50485 0.04454 0.01365 0.0
H1352 H 0.43038 0.94382 0.07878 0.0
H1353 H 0.44116 0.98012 0.0494 0.0
H1354 H 0.47781 0.94847 0.97824 0.0
C1355 C 0.53153 0.03447 0.94523 0.0
C1356 C 0.49888 0.02369 0.00571 0.0
C1357 C 0.53811 0.0555 0.92881 0.0
C1358 C 0.44443 0.93797 0.0632 0.0
C1359 C 0.45084 0.95878 0.04656 0.0
C1360 C 0.48375 0.96933 0.98615 0.0
C1361 C 0.51211 0.04076 0.96499 0.0
C1362 C 0.50229 0.01784 0.98092 0.0
C1363 C 0.4704 0.95238 0.02691 0.0
C1364 C 0.48028 0.97522 0.01094 0.0
H1365 H 0.49683 0.11082 0.95513 0.0
H1366 H 0.48537 0.07426 0.98361 0.0
H1367 H 0.49648 0.98551 0.9522 0.0
H1368 H 0.48632 0.8827 0.03758 0.0
H1369 H 0.49743 0.91886 0.00863 0.0
C1370 C 0.5678 0.46443 0.06294 0.0
C1371 C 0.59244 0.48223 0.06176 0.0
C1372 C 0.54585 0.46732 0.04701 0.0
C1373 C 0.51524 0.5226 0.01096 0.0
H1374 H 0.47056 0.45885 0.98466 0.0
C1375 C 0.43041 0.53498 0.93991 0.0
C1376 C 0.40581 0.5171 0.94093 0.0
C1377 C 0.45219 0.53217 0.956 0.0
C1378 C 0.48257 0.47691 0.99218 0.0
H1379 H 0.61443 0.51531 0.04167 0.0
H1380 H 0.57635 0.51996 0.01369 0.0
H1381 H 0.51229 0.44883 0.00787 0.0
H1382 H 0.38369 0.48401 0.96092 0.0
H1383 H 0.42148 0.47951 0.98919 0.0
H1384 H 0.48554 0.55068 0.99527 0.0
C1385 C 0.57369 0.5043 0.02731 0.0
C1386 C 0.50655 0.47114 0.00536 0.0
C1387 C 0.59564 0.50141 0.04321 0.0
C1388 C 0.40245 0.49798 0.95951 0.0
C1389 C 0.42424 0.49516 0.97557 0.0
C1390 C 0.49126 0.52837 -0.00222 0.0
C1391 C 0.54812 0.48801 0.02956 0.0
C1392 C 0.52319 0.49392 0.01486 0.0
C1393 C 0.4498 0.51149 0.97345 0.0
C1394 C 0.47463 0.50559 0.98826 0.0
H1395 H 0.56463 0.44943 0.07702 0.0
H1396 H 0.5264 0.45446 0.04925 0.0
H1397 H 0.52727 0.54066 0.01847 0.0
H1398 H 0.4337 0.54995 0.92583 0.0
H1399 H 0.47164 0.54506 0.95387 0.0
C1400 C 0.92994 0.05735 0.55778 0.0
C1401 C 0.9521 0.07573 0.56568 0.0
C1402 C 0.9365 0.03421 0.54126 0.0
C1403 C 0.99563 0.98564 0.52009 0.0
H1404 H 0.96047 0.98128 0.45893 0.0
C1405 C 0.05014 0.9253 0.4376 0.0
C1406 C 0.03278 0.91389 0.41975 0.0
C1407 C 0.03741 0.94076 0.45753 0.0
C1408 C 0.97011 0.98161 0.47607 0.0
H1409 H 0.99827 0.08479 0.56186 0.0
H1410 H 0.00955 0.04425 0.53373 0.0
H1411 H 0.94231 0.01638 0.48997 0.0
H1412 H 0.98877 0.90722 0.40924 0.0
H1413 H 0.96632 0.93319 0.44441 0.0
H1414 H 0.0235 0.95104 0.5064 0.0
C1415 C 0.98726 0.04759 0.54038 0.0
C1416 C 0.95968 0.00182 0.49381 0.0
C1417 C 0.98069 0.07089 0.55641 0.0
C1418 C 0.00253 0.91652 0.42266 0.0
C1419 C 0.98974 0.93148 0.44274 0.0
C1420 C 0.00578 0.96512 0.5025 0.0
C1421 C 0.96532 0.02892 0.53282 0.0
C1422 C 0.97295 0.00455 0.51566 0.0
C1423 C 0.00705 0.94449 0.46013 0.0
C1424 C 0.99376 0.96345 0.47999 0.0
H1425 H 0.90771 0.06059 0.56456 0.0
H1426 H 0.91924 0.02012 0.53546 0.0
H1427 H 0.00598 0.98723 0.53698 0.0
H1428 H 0.07355 0.92338 0.43563 0.0
H1429 H 0.05151 0.95075 0.47035 0.0
C1430 C 0.41287 0.00424 0.56581 0.0
C1431 C 0.40802 0.97437 0.56279 0.0
C1432 C 0.42778 0.01901 0.54808 0.0
C1433 C 0.45639 0.01339 0.485 0.0
H1434 H 0.51636 0.06372 0.5095 0.0
C1435 C 0.5754 0.04753 0.45151 0.0
C1436 C 0.57085 0.05715 0.42875 0.0
C1437 C 0.55209 0.04467 0.46796 0.0
C1438 C 0.4995 0.05002 0.5024 0.0
H1439 H 0.41348 0.93663 0.5385 0.0
H1440 H 0.44071 0.96231 0.50752 0.0
H1441 H 0.48074 0.04304 0.53704 0.0
H1442 H 0.53882 0.07248 0.40545 0.0
H1443 H 0.49768 0.06702 0.43433 0.0
H1444 H 0.47625 0.01943 0.45027 0.0
C1445 C 0.43254 0.97442 0.52351 0.0
C1446 C 0.47902 0.03826 0.51815 0.0
C1447 C 0.41722 0.95964 0.54126 0.0
C1448 C 0.54284 0.06535 0.42305 0.0
C1449 C 0.51935 0.06199 0.43942 0.0
C1450 C 0.47686 0.02532 0.46916 0.0
C1451 C 0.43846 0.00417 0.52698 0.0
C1452 C 0.45773 0.01919 0.50973 0.0
C1453 C 0.52377 0.05097 0.46178 0.0
C1454 C 0.49906 0.04305 0.47784 0.0
H1455 H 0.40528 0.01624 0.58204 0.0
H1456 H 0.43142 0.04201 0.55112 0.0
H1457 H 0.43999 -0.0009 0.47796 0.0
H1458 H 0.59683 0.04096 0.4562 0.0
H1459 H 0.55604 0.03585 0.48499 0.0
C1460 C 0.50632 0.40718 0.542 0.0
C1461 C 0.526 0.41449 0.55956 0.0
C1462 C 0.49907 0.4272 0.5256 0.0
C1463 C 0.52158 0.49537 0.49927 0.0
H1464 H 0.43934 0.50371 0.48974 0.0
C1465 C 0.47938 0.58944 0.44906 0.0
C1466 C 0.46041 0.58211 0.431 0.0
C1467 C 0.48545 0.56967 0.46598 0.0
C1468 C 0.46236 0.50146 0.4921 0.0
H1469 H 0.55474 0.44785 0.57296 0.0
H1470 H 0.54208 0.48296 0.54418 0.0
H1471 H 0.45582 0.46676 0.51548 0.0
H1472 H 0.4314 0.54923 0.41729 0.0
H1473 H 0.44207 0.51442 0.44698 0.0
H1474 H 0.52816 0.53 0.47588 0.0
C1475 C 0.5323 0.4617 0.54311 0.0
C1476 C 0.47182 0.48029 0.50675 0.0
C1477 C 0.53959 0.44161 0.55955 0.0
C1478 C 0.44599 0.55544 0.43113 0.0
C1479 C 0.45216 0.53552 0.44808 0.0
C1480 C 0.51213 0.51652 0.48464 0.0
C1481 C 0.5114 0.45492 0.52638 0.0
C1482 C 0.50153 0.47704 0.51048 0.0
C1483 C 0.47272 0.54213 0.46514 0.0
C1484 C 0.48242 0.51985 0.48097 0.0
H1485 H 0.49582 0.38624 0.54141 0.0
H1486 H 0.48339 0.42116 0.51256 0.0
H1487 H 0.54461 0.49312 0.50157 0.0
H1488 H 0.49053 0.61004 0.44949 0.0
H1489 H 0.50084 0.5756 0.47929 0.0
C1490 C 0.02899 0.53 0.58195 0.0
C1491 C 0.05375 0.54705 0.5778 0.0
C1492 C 0.01453 0.51737 0.56288 0.0
C1493 C 0.02684 0.49354 0.49974 0.0
H1494 H 0.94286 0.49001 0.50058 0.0
C1495 C 0.96444 0.45556 0.41762 0.0
C1496 C 0.93927 0.43899 0.4214 0.0
C1497 C 0.97896 0.46749 0.43693 0.0
C1498 C 0.96634 0.49046 0.50024 0.0
H1499 H 0.08215 0.56506 0.55042 0.0
H1500 H 0.05659 0.54327 0.51704 0.0
H1501 H 0.96632 0.51502 0.53362 0.0
H1502 H 0.91023 0.42102 0.44837 0.0
H1503 H 0.93589 0.44157 0.48216 0.0
H1504 H 0.02687 0.469 0.46637 0.0
C1505 C 0.0487 0.53932 0.53508 0.0
C1506 C 0.97976 0.50487 0.51912 0.0
C1507 C 0.06318 0.55199 0.55418 0.0
C1508 C 0.92951 0.43377 0.44489 0.0
C1509 C 0.94406 0.44572 0.46423 0.0
C1510 C 0.01342 0.47911 0.48087 0.0
C1511 C 0.02448 0.52153 0.53924 0.0
C1512 C 0.01015 0.50663 0.51904 0.0
C1513 C 0.96869 0.46308 0.46045 0.0
C1514 C 0.98302 0.47747 0.48089 0.0
H1515 H 0.02115 0.5258 0.59996 0.0
H1516 H 0.99609 0.50359 0.56667 0.0
H1517 H 0.05032 0.49407 0.49938 0.0
H1518 H 0.97254 0.46 0.39973 0.0
H1519 H 0.9977 0.48097 0.43341 0.0
C1520 C 0.00023 0.39521 0.27935 0.0
C1521 C 0.00582 0.4078 0.30195 0.0
C1522 C 0.01961 0.39904 0.25982 0.0
C1523 C 0.06706 0.4575 0.24258 0.0
H1524 H 0.06861 0.41513 0.18114 0.0
C1525 C 0.07865 0.52102 0.15983 0.0
C1526 C 0.05643 0.51475 0.14424 0.0
C1527 C 0.08638 0.50095 0.17614 0.0
C1528 C 0.06857 0.42722 0.19818 0.0
H1529 H 0.03817 0.43007 0.32261 0.0
H1530 H 0.07235 0.43602 0.28866 0.0
H1531 H 0.05728 0.38975 0.21755 0.0
H1532 H 0.02703 0.48149 0.13175 0.0
H1533 H 0.03947 0.44706 0.16076 0.0
H1534 H 0.07613 0.49524 0.22355 0.0
C1535 C 0.0525 0.42419 0.28581 0.0
C1536 C 0.06214 0.41265 0.21905 0.0
C1537 C 0.03296 0.42067 0.3053 0.0
C1538 C 0.04413 0.48701 0.14365 0.0
C1539 C 0.05147 0.46713 0.16026 0.0
C1540 C 0.07338 0.472 0.22183 0.0
C1541 C 0.04507 0.41527 0.26258 0.0
C1542 C 0.0599 0.42795 0.2414 0.0
C1543 C 0.07157 0.47448 0.17756 0.0
C1544 C 0.07279 0.45738 0.19926 0.0
H1545 H 0.97967 0.38484 0.2762 0.0
H1546 H 0.0131 0.39176 0.24226 0.0
H1547 H 0.06523 0.47022 0.25934 0.0
H1548 H 0.08891 0.54208 0.16036 0.0
H1549 H 0.1026 0.50701 0.1887 0.0
C1550 C 0.04775 0.00898 0.309 0.0
C1551 C 0.06342 0.98292 0.30517 0.0
C1552 C 0.04539 0.02773 0.29047 0.0
C1553 C 0.06754 0.03784 0.22596 0.0
H1554 H 0.98516 0.05199 0.22239 0.0
C1555 C 0.00633 0.02408 0.14041 0.0
C1556 C 0.97943 0.03802 0.13907 0.0
C1557 C 0.02321 0.02976 0.16006 0.0
C1558 C 0.00838 0.04908 0.22311 0.0
H1559 H 0.09178 0.95787 0.27982 0.0
H1560 H 0.08692 0.98984 0.24744 0.0
H1561 H 0.0039 0.03975 0.25981 0.0
H1562 H 0.95107 0.0717 0.1555 0.0
H1563 H 0.98085 0.08209 0.18944 0.0
H1564 H 0.07138 0.04537 0.18856 0.0
C1565 C 0.07662 0.99617 0.2647 0.0
C1566 C 0.01923 0.04203 0.24476 0.0
C1567 C 0.07928 0.97762 0.28332 0.0
C1568 C 0.97145 0.06019 0.15625 0.0
C1569 C 0.98845 0.06606 0.17577 0.0
C1570 C 0.05661 0.04484 0.20417 0.0
C1571 C 0.05832 0.02061 0.26764 0.0
C1572 C 0.04874 0.03508 0.24628 0.0
C1573 C 0.01363 0.04968 0.17862 0.0
C1574 C 0.02668 0.04935 0.20229 0.0
H1575 H 0.03571 0.01396 0.32581 0.0
H1576 H 0.03183 0.04683 0.29358 0.0
H1577 H 0.09048 0.0332 0.22658 0.0
H1578 H 0.01323 0.00701 0.12739 0.0
H1579 H 0.04242 0.01666 0.16162 0.0
C1580 C 0.54324 0.03099 0.32104 0.0
C1581 C 0.53287 0.01769 0.34174 0.0
C1582 C 0.52738 0.02961 0.30052 0.0
C1583 C 0.47839 0.97958 0.27143 0.0
H1584 H 0.48034 0.03623 0.22288 0.0
C1585 C 0.45459 0.94376 0.17588 0.0
C1586 C 0.47578 0.95248 0.15886 0.0
C1587 C 0.45188 0.95784 0.19853 0.0
C1588 C 0.47955 0.02017 0.23625 0.0
H1589 H 0.49653 0.99466 0.35777 0.0
H1590 H 0.46882 0.99223 0.32185 0.0
H1591 H 0.49344 0.05061 0.2634 0.0
H1592 H 0.50892 0.98445 0.15153 0.0
H1593 H 0.50481 0.00843 0.19106 0.0
H1594 H 0.46635 0.9487 0.24427 0.0
C1595 C 0.48942 0.00342 0.32145 0.0
C1596 C 0.48698 0.02845 0.25947 0.0
C1597 C 0.50525 0.00492 0.34205 0.0
C1598 C 0.49246 0.97709 0.16426 0.0
C1599 C 0.48996 0.99099 0.18699 0.0
C1600 C 0.47115 0.97128 0.24826 0.0
C1601 C 0.50081 0.01483 0.30021 0.0
C1602 C 0.48741 0.00799 0.27711 0.0
C1603 C 0.4705 0.98076 0.20474 0.0
C1604 C 0.47258 0.99121 0.23015 0.0
H1605 H 0.56433 0.04123 0.32026 0.0
H1606 H 0.53691 0.03846 0.28445 0.0
H1607 H 0.47886 0.96316 0.28446 0.0
H1608 H 0.44109 0.9251 0.17215 0.0
H1609 H 0.43613 0.94985 0.21155 0.0
C1610 C 0.46499 0.52712 0.32211 0.0
C1611 C 0.47653 0.52163 0.34409 0.0
C1612 C 0.46604 0.50592 0.30347 0.0
C1613 C 0.46918 0.45791 0.26512 0.0
H1614 H 0.54805 0.42852 0.25863 0.0
C1615 C 0.56487 0.4159 0.18997 0.0
C1616 C 0.56367 0.44027 0.17614 0.0
C1617 C 0.5456 0.41346 0.20991 0.0
C1618 C 0.52564 0.43568 0.26026 0.0
H1619 H 0.49511 0.48847 0.36463 0.0
H1620 H 0.4966 0.45126 0.33211 0.0
H1621 H 0.52868 0.44753 0.29724 0.0
H1622 H 0.53945 0.47923 0.17039 0.0
H1623 H 0.50571 0.47478 0.20463 0.0
H1624 H 0.4673 0.44826 0.22749 0.0
C1625 C 0.48739 0.47223 0.32912 0.0
C1626 C 0.51444 0.44665 0.28251 0.0
C1627 C 0.4864 0.49353 0.3478 0.0
C1628 C 0.54103 0.46038 0.18093 0.0
C1629 C 0.52152 0.45767 0.20048 0.0
C1630 C 0.48048 0.44711 0.24281 0.0
C1631 C 0.47854 0.47864 0.30637 0.0
C1632 C 0.48667 0.45942 0.28492 0.0
C1633 C 0.52449 0.43501 0.21589 0.0
C1634 C 0.50939 0.43738 0.23992 0.0
H1635 H 0.4569 0.54844 0.31871 0.0
H1636 H 0.45915 0.51184 0.28624 0.0
H1637 H 0.44743 0.46689 0.26648 0.0
H1638 H 0.58204 0.39999 0.18657 0.0
H1639 H 0.54825 0.39567 0.22141 0.0
C1640 C 0.97787 0.57309 0.70452 0.0
C1641 C 0.9688 0.55166 0.68786 0.0
C1642 C 0.96514 0.57521 0.72768 0.0
C1643 C 0.90787 0.54581 0.76897 0.0
H1644 H 0.97302 0.53303 0.80792 0.0
C1645 C 0.90305 0.46835 0.84495 0.0
C1646 C 0.92463 0.46943 0.86165 0.0
C1647 C 0.90205 0.48926 0.82793 0.0
C1648 C 0.95429 0.53739 0.79786 0.0
H1649 H 0.93653 0.51852 0.68143 0.0
H1650 H 0.91455 0.52207 0.72182 0.0
H1651 H 0.98144 0.55201 0.76909 0.0
H1652 H 0.9597 0.49494 0.87571 0.0
H1653 H 0.95681 0.53256 0.84709 0.0
H1654 H 0.88077 0.53033 0.79764 0.0
C1655 C 0.93156 0.53715 0.71708 0.0
C1656 C 0.95922 0.5483 0.77536 0.0
C1657 C 0.94432 0.53499 0.69391 0.0
C1658 C 0.94312 0.49343 0.86275 0.0
C1659 C 0.9416 0.5148 0.84616 0.0
C1660 C 0.90283 0.53528 0.79176 0.0
C1661 C 0.94305 0.55604 0.73458 0.0
C1662 C 0.93627 0.55148 0.76025 0.0
C1663 C 0.92225 0.51205 0.82758 0.0
C1664 C 0.92616 0.52965 0.80609 0.0
H1665 H 0.99635 0.58667 0.70033 0.0
H1666 H 0.97406 0.59036 0.74069 0.0
H1667 H 0.88972 0.54833 0.75778 0.0
H1668 H 0.88855 0.45001 0.84365 0.0
H1669 H 0.8869 0.48607 0.81398 0.0
C1670 C 0.91444 0.03463 0.67843 0.0
C1671 C 0.93098 0.03384 0.65672 0.0
C1672 C 0.91862 0.01359 0.69493 0.0
C1673 C 0.98015 0.96902 0.70986 0.0
H1674 H 0.93036 0.95595 0.76599 0.0
C1675 C 0.03235 0.94167 0.7943 0.0
C1676 C 0.02434 0.96162 0.81325 0.0
C1677 C 0.01463 0.93744 0.77504 0.0
C1678 C 0.94447 0.95915 0.75033 0.0
H1679 H 0.96169 0.00869 0.63366 0.0
H1680 H 0.9676 0.97089 0.6617 0.0
H1681 H 0.90908 0.97162 0.72982 0.0
H1682 H 0.99003 0.9903 0.82817 0.0
H1683 H 0.95955 0.98358 0.79431 0.0
H1684 H 0.01558 0.95799 0.73042 0.0
C1685 C 0.95254 0.98843 0.66666 0.0
C1686 C 0.93231 0.96822 0.72961 0.0
C1687 C 0.94897 0.00988 0.65047 0.0
C1688 C 0.99693 0.97496 0.81373 0.0
C1689 C 0.97932 0.97094 0.79434 0.0
C1690 C 0.99218 0.95977 0.73038 0.0
C1691 C 0.93904 0.99114 0.68976 0.0
C1692 C 0.95019 0.97455 0.70946 0.0
C1693 C 0.98873 0.95332 0.77422 0.0
C1694 C 0.97469 0.95595 0.7512 0.0
H1695 H 0.90049 0.05298 0.68368 0.0
H1696 H 0.90781 0.0166 0.71246 0.0
H1697 H 0.99488 0.97404 0.69503 0.0
H1698 H 0.05312 0.93062 0.79365 0.0
H1699 H 0.02217 0.92319 0.76005 0.0
C1700 C 0.48983 0.97071 0.64979 0.0
C1701 C 0.48249 0.9416 0.64575 0.0
C1702 C 0.49302 0.98221 0.67296 0.0
C1703 C 0.50311 0.96149 0.73524 0.0
H1704 H 0.47886 0.041 0.75003 0.0
C1705 C 0.48988 0.01883 0.83066 0.0
C1706 C 0.50115 0.04703 0.83276 0.0
C1707 C 0.49018 0.0037 0.80837 0.0
C1708 C 0.48594 0.01883 0.7461 0.0
H1709 H 0.47315 0.9013 0.66238 0.0
H1710 H 0.47765 0.92152 0.7032 0.0
H1711 H 0.47259 0.01919 0.71034 0.0
H1712 H 0.52328 0.08066 0.81331 0.0
H1713 H 0.5234 0.05441 0.7746 0.0
H1714 H 0.51552 0.96122 0.77158 0.0
C1715 C 0.48153 0.93549 0.6885 0.0
C1716 C 0.48247 0.00632 0.7233 0.0
C1717 C 0.47877 0.92391 0.66519 0.0
C1718 C 0.51422 0.05907 0.81237 0.0
C1719 C 0.51419 0.04413 0.79015 0.0
C1720 C 0.50617 0.97395 0.75825 0.0
C1721 C 0.48861 0.96487 0.69269 0.0
C1722 C 0.49135 0.97759 0.71742 0.0
C1723 C 0.50145 0.01667 0.78782 0.0
C1724 C 0.49794 0.00286 0.76375 0.0
H1725 H 0.49375 0.98443 0.63496 0.0
H1726 H 0.49934 0.00467 0.67532 0.0
H1727 H 0.5105 0.93944 0.73134 0.0
H1728 H 0.47975 0.00891 0.84602 0.0
H1729 H 0.48023 0.98253 0.80701 0.0
C1730 C 0.46315 0.54154 0.82585 0.0
C1731 C 0.4367 0.55627 0.825 0.0
C1732 C 0.48263 0.5398 0.80594 0.0
C1733 C 0.49294 0.55966 0.74179 0.0
H1734 H 0.51447 0.4786 0.73341 0.0
C1735 C 0.49275 0.49228 0.65297 0.0
C1736 C 0.51028 0.46734 0.64986 0.0
C1737 C 0.49428 0.51059 0.67348 0.0
C1738 C 0.50944 0.50151 0.73543 0.0
H1739 H 0.41073 0.58274 0.80367 0.0
H1740 H 0.44377 0.57851 0.76842 0.0
H1741 H 0.49836 0.49821 0.77236 0.0
H1742 H 0.5457 0.44409 0.6642 0.0
H1743 H 0.54881 0.47636 0.69968 0.0
H1744 H 0.50228 0.56197 0.70408 0.0
C1745 C 0.45022 0.56902 0.78455 0.0
C1746 C 0.50017 0.51291 0.758 0.0
C1747 C 0.43114 0.57145 0.80477 0.0
C1748 C 0.53152 0.46284 0.66632 0.0
C1749 C 0.53324 0.48129 0.68669 0.0
C1750 C 0.50209 0.54811 0.71904 0.0
C1751 C 0.47542 0.55174 0.78445 0.0
C1752 C 0.49087 0.5419 0.76142 0.0
C1753 C 0.51354 0.50443 0.69116 0.0
C1754 C 0.50957 0.51864 0.71551 0.0
H1755 H 0.46789 0.52975 0.84138 0.0
H1756 H 0.5023 0.5272 0.80686 0.0
H1757 H 0.48644 0.58219 0.74378 0.0
H1758 H 0.47627 0.49646 0.64054 0.0
H1759 H 0.47873 0.52815 0.67634 0.0
loop_
_geom_bond_atom_site_label_1
_geom_bond_atom_site_label_2
_geom_bond_distance
_geom_bond_site_symmetry_2
_ccdc_geom_bond_type
Zn0 O6 1.969 . S
Zn0 O7 1.965 . S
Zn0 O11 2.024 . S
Zn0 O16 1.969 . S
Zn1 O8 1.969 . S
Zn1 O14 1.969 1_455 S
Zn1 O15 1.965 . S
Zn1 O17 2.024 . S
C2 O3 1.229 . S
C2 O11 1.058 . S
O3 C2 1.229 . S
C4 O5 1.229 . S
C4 O17 1.058 . S
O5 C4 1.229 . S
O6 Zn0 1.969 . S
O6 C9 1.267 . S
O7 Zn0 1.965 . S
O7 C18 1.260 . S
O8 Zn1 1.969 . S
O8 C18 1.258 . S
C9 O6 1.267 . S
C9 O10 1.228 . S
O10 C9 1.228 . S
O11 Zn0 2.024 . S
O11 C2 1.058 . S
C12 O13 1.228 . S
C12 O14 1.267 . S
O13 C12 1.228 . S
O14 Zn1 1.969 1_655 S
O14 C12 1.267 . S
O15 Zn1 1.965 . S
O15 C19 1.260 . S
O16 Zn0 1.969 . S
O16 C19 1.258 . S
O17 Zn1 2.024 . S
O17 C4 1.058 . S
C18 O7 1.260 . S
C18 O8 1.258 . S
C19 O15 1.260 . S
C19 O16 1.258 . S
Zn20 O26 1.969 . S
Zn20 O27 1.965 . S
Zn20 O31 2.024 . S
Zn20 O36 1.969 . S
Zn21 O28 1.969 . S
Zn21 O34 1.969 1_545 S
Zn21 O35 1.965 . S
Zn21 O37 2.024 . S
C22 O23 1.229 . S
C22 O31 1.058 . S
O23 C22 1.229 . S
C24 O25 1.229 . S
C24 O37 1.058 . S
O25 C24 1.229 . S
O26 Zn20 1.969 . S
O26 C29 1.267 . S
O27 Zn20 1.965 . S
O27 C38 1.260 . S
O28 Zn21 1.969 . S
O28 C38 1.258 . S
C29 O26 1.267 . S
C29 O30 1.228 . S
O30 C29 1.228 . S
O31 Zn20 2.024 . S
O31 C22 1.058 . S
C32 O33 1.228 . S
C32 O34 1.267 . S
O33 C32 1.228 . S
O34 Zn21 1.969 1_565 S
O34 C32 1.267 . S
O35 Zn21 1.965 . S
O35 C39 1.260 . S
O36 Zn20 1.969 . S
O36 C39 1.258 . S
O37 Zn21 2.024 . S
O37 C24 1.058 . S
C38 O27 1.260 . S
C38 O28 1.258 . S
C39 O35 1.260 . S
C39 O36 1.258 . S
Zn40 O46 1.969 . S
Zn40 O47 1.965 . S
Zn40 O51 2.024 . S
Zn40 O56 1.969 . S
Zn41 O48 1.969 . S
Zn41 O54 1.969 . S
Zn41 O55 1.965 . S
Zn41 O57 2.024 . S
C42 O43 1.229 . S
C42 O51 1.058 . S
O43 C42 1.229 . S
C44 O45 1.229 . S
C44 O57 1.058 . S
O45 C44 1.229 . S
O46 Zn40 1.969 . S
O46 C49 1.267 . S
O47 Zn40 1.965 . S
O47 C58 1.260 . S
O48 Zn41 1.969 . S
O48 C58 1.258 . S
C49 O46 1.267 . S
C49 O50 1.228 . S
O50 C49 1.228 . S
O51 Zn40 2.024 . S
O51 C42 1.058 . S
C52 O53 1.228 . S
C52 O54 1.267 . S
O53 C52 1.228 . S
O54 Zn41 1.969 . S
O54 C52 1.267 . S
O55 Zn41 1.965 . S
O55 C59 1.260 . S
O56 Zn40 1.969 . S
O56 C59 1.258 . S
O57 Zn41 2.024 . S
O57 C44 1.058 . S
C58 O47 1.260 . S
C58 O48 1.258 . S
C59 O55 1.260 . S
C59 O56 1.258 . S
Zn60 O66 1.969 . S
Zn60 O67 1.965 . S
Zn60 O71 2.024 . S
Zn60 O76 1.969 . S
Zn61 O68 1.969 . S
Zn61 O74 1.969 . S
Zn61 O75 1.965 . S
Zn61 O77 2.024 . S
C62 O63 1.229 . S
C62 O71 1.058 . S
O63 C62 1.229 . S
C64 O65 1.229 . S
C64 O77 1.058 . S
O65 C64 1.229 . S
O66 Zn60 1.969 . S
O66 C69 1.267 . S
O67 Zn60 1.965 . S
O67 C78 1.260 . S
O68 Zn61 1.969 . S
O68 C78 1.258 . S
C69 O66 1.267 . S
C69 O70 1.228 . S
O70 C69 1.228 . S
O71 Zn60 2.024 . S
O71 C62 1.058 . S
C72 O73 1.228 . S
C72 O74 1.267 . S
O73 C72 1.228 . S
O74 Zn61 1.969 . S
O74 C72 1.267 . S
O75 Zn61 1.965 . S
O75 C79 1.260 . S
O76 Zn60 1.969 . S
O76 C79 1.258 . S
O77 Zn61 2.024 . S
O77 C64 1.058 . S
C78 O67 1.260 . S
C78 O68 1.258 . S
C79 O75 1.260 . S
C79 O76 1.258 . S
Zn80 O86 1.969 . S
Zn80 O87 1.965 . S
Zn80 O91 2.024 . S
Zn80 O96 1.969 . S
Zn81 O88 1.969 . S
Zn81 O94 1.969 1_455 S
Zn81 O95 1.965 . S
Zn81 O97 2.024 . S
C82 O83 1.229 . S
C82 O91 1.058 . S
O83 C82 1.229 . S
C84 O85 1.229 . S
C84 O97 1.058 . S
O85 C84 1.229 . S
O86 Zn80 1.969 . S
O86 C89 1.267 . S
O87 Zn80 1.965 . S
O87 C98 1.260 . S
O88 Zn81 1.969 . S
O88 C98 1.258 . S
C89 O86 1.267 . S
C89 O90 1.228 . S
O90 C89 1.228 . S
O91 Zn80 2.024 . S
O91 C82 1.058 . S
C92 O93 1.228 . S
C92 O94 1.267 . S
O93 C92 1.228 . S
O94 Zn81 1.969 1_655 S
O94 C92 1.267 . S
O95 Zn81 1.965 . S
O95 C99 1.260 . S
O96 Zn80 1.969 . S
O96 C99 1.258 . S
O97 Zn81 2.024 . S
O97 C84 1.058 . S
C98 O87 1.260 . S
C98 O88 1.258 . S
C99 O95 1.260 . S
C99 O96 1.258 . S
Zn100 O106 1.969 . S
Zn100 O107 1.965 . S
Zn100 O111 2.024 . S
Zn100 O116 1.969 . S
Zn101 O108 1.969 . S
Zn101 O114 1.969 1_545 S
Zn101 O115 1.965 . S
Zn101 O117 2.024 . S
C102 O103 1.229 . S
C102 O111 1.058 . S
O103 C102 1.229 . S
C104 O105 1.229 . S
C104 O117 1.058 . S
O105 C104 1.229 . S
O106 Zn100 1.969 . S
O106 C109 1.267 . S
O107 Zn100 1.965 . S
O107 C118 1.260 . S
O108 Zn101 1.969 . S
O108 C118 1.258 . S
C109 O106 1.267 . S
C109 O110 1.228 . S
O110 C109 1.228 . S
O111 Zn100 2.024 . S
O111 C102 1.058 . S
C112 O113 1.228 . S
C112 O114 1.267 . S
O113 C112 1.228 . S
O114 Zn101 1.969 1_565 S
O114 C112 1.267 . S
O115 Zn101 1.965 . S
O115 C119 1.260 . S
O116 Zn100 1.969 . S
O116 C119 1.258 . S
O117 Zn101 2.024 . S
O117 C104 1.058 . S
C118 O107 1.260 . S
C118 O108 1.258 . S
C119 O115 1.260 . S
C119 O116 1.258 . S
Zn120 O126 1.969 . S
Zn120 O127 1.965 . S
Zn120 O131 2.024 . S
Zn120 O136 1.969 . S
Zn121 O128 1.969 . S
Zn121 O134 1.969 . S
Zn121 O135 1.965 . S
Zn121 O137 2.024 . S
C122 O123 1.229 . S
C122 O131 1.058 . S
O123 C122 1.229 . S
C124 O125 1.229 . S
C124 O137 1.058 . S
O125 C124 1.229 . S
O126 Zn120 1.969 . S
O126 C129 1.267 . S
O127 Zn120 1.965 . S
O127 C138 1.260 . S
O128 Zn121 1.969 . S
O128 C138 1.258 . S
C129 O126 1.267 . S
C129 O130 1.228 . S
O130 C129 1.228 . S
O131 Zn120 2.024 . S
O131 C122 1.058 . S
C132 O133 1.228 . S
C132 O134 1.267 . S
O133 C132 1.228 . S
O134 Zn121 1.969 . S
O134 C132 1.267 . S
O135 Zn121 1.965 . S
O135 C139 1.260 . S
O136 Zn120 1.969 . S
O136 C139 1.258 . S
O137 Zn121 2.024 . S
O137 C124 1.058 . S
C138 O127 1.260 . S
C138 O128 1.258 . S
C139 O135 1.260 . S
C139 O136 1.258 . S
Zn140 O146 1.969 . S
Zn140 O147 1.965 . S
Zn140 O151 2.024 . S
Zn140 O156 1.969 . S
Zn141 O148 1.969 . S
Zn141 O154 1.969 . S
Zn141 O155 1.965 . S
Zn141 O157 2.024 . S
C142 O143 1.229 . S
C142 O151 1.058 . S
O143 C142 1.229 . S
C144 O145 1.229 . S
C144 O157 1.058 . S
O145 C144 1.229 . S
O146 Zn140 1.969 . S
O146 C149 1.267 . S
O147 Zn140 1.965 . S
O147 C158 1.260 . S
O148 Zn141 1.969 . S
O148 C158 1.258 . S
C149 O146 1.267 . S
C149 O150 1.228 . S
O150 C149 1.228 . S
O151 Zn140 2.024 . S
O151 C142 1.058 . S
C152 O153 1.228 . S
C152 O154 1.267 . S
O153 C152 1.228 . S
O154 Zn141 1.969 . S
O154 C152 1.267 . S
O155 Zn141 1.965 . S
O155 C159 1.260 . S
O156 Zn140 1.969 . S
O156 C159 1.258 . S
O157 Zn141 2.024 . S
O157 C144 1.058 . S
C158 O147 1.260 . S
C158 O148 1.258 . S
C159 O155 1.260 . S
C159 O156 1.258 . S
Zn160 O166 1.969 1_655 S
Zn160 O167 1.965 . S
Zn160 O171 2.024 . S
Zn160 O176 1.969 . S
Zn161 O168 1.969 . S
Zn161 O174 1.969 . S
Zn161 O175 1.965 . S
Zn161 O177 2.024 . S
C162 O163 1.229 . S
C162 O171 1.058 . S
O163 C162 1.229 . S
C164 O165 1.229 . S
C164 O177 1.058 . S
O165 C164 1.229 . S
O166 Zn160 1.969 1_455 S
O166 C169 1.267 . S
O167 Zn160 1.965 . S
O167 C178 1.260 . S
O168 Zn161 1.969 . S
O168 C178 1.258 . S
C169 O166 1.267 . S
C169 O170 1.228 . S
O170 C169 1.228 . S
O171 Zn160 2.024 . S
O171 C162 1.058 . S
C172 O173 1.228 . S
C172 O174 1.267 . S
O173 C172 1.228 . S
O174 Zn161 1.969 . S
O174 C172 1.267 . S
O175 Zn161 1.965 . S
O175 C179 1.260 . S
O176 Zn160 1.969 . S
O176 C179 1.258 . S
O177 Zn161 2.024 . S
O177 C164 1.058 . S
C178 O167 1.260 . S
C178 O168 1.258 . S
C179 O175 1.260 . S
C179 O176 1.258 . S
Zn180 O186 1.969 1_565 S
Zn180 O187 1.965 . S
Zn180 O191 2.024 . S
Zn180 O196 1.969 . S
Zn181 O188 1.969 . S
Zn181 O194 1.969 . S
Zn181 O195 1.965 . S
Zn181 O197 2.024 . S
C182 O183 1.229 . S
C182 O191 1.058 . S
O183 C182 1.229 . S
C184 O185 1.229 . S
C184 O197 1.058 . S
O185 C184 1.229 . S
O186 Zn180 1.969 1_545 S
O186 C189 1.267 . S
O187 Zn180 1.965 . S
O187 C198 1.260 . S
O188 Zn181 1.969 . S
O188 C198 1.258 . S
C189 O186 1.267 . S
C189 O190 1.228 . S
O190 C189 1.228 . S
O191 Zn180 2.024 . S
O191 C182 1.058 . S
C192 O193 1.228 . S
C192 O194 1.267 . S
O193 C192 1.228 . S
O194 Zn181 1.969 . S
O194 C192 1.267 . S
O195 Zn181 1.965 . S
O195 C199 1.260 . S
O196 Zn180 1.969 . S
O196 C199 1.258 . S
O197 Zn181 2.024 . S
O197 C184 1.058 . S
C198 O187 1.260 . S
C198 O188 1.258 . S
C199 O195 1.260 . S
C199 O196 1.258 . S
Zn200 O206 1.969 . S
Zn200 O207 1.965 . S
Zn200 O211 2.024 . S
Zn200 O216 1.969 . S
Zn201 O208 1.969 . S
Zn201 O214 1.969 . S
Zn201 O215 1.965 . S
Zn201 O217 2.024 . S
C202 O203 1.229 . S
C202 O211 1.058 . S
O203 C202 1.229 . S
C204 O205 1.229 . S
C204 O217 1.058 . S
O205 C204 1.229 . S
O206 Zn200 1.969 . S
O206 C209 1.267 . S
O207 Zn200 1.965 . S
O207 C218 1.260 . S
O208 Zn201 1.969 . S
O208 C218 1.258 . S
C209 O206 1.267 . S
C209 O210 1.228 . S
O210 C209 1.228 . S
O211 Zn200 2.024 . S
O211 C202 1.058 . S
C212 O213 1.228 . S
C212 O214 1.267 . S
O213 C212 1.228 . S
O214 Zn201 1.969 . S
O214 C212 1.267 . S
O215 Zn201 1.965 . S
O215 C219 1.260 . S
O216 Zn200 1.969 . S
O216 C219 1.258 . S
O217 Zn201 2.024 . S
O217 C204 1.058 . S
C218 O207 1.260 . S
C218 O208 1.258 . S
C219 O215 1.260 . S
C219 O216 1.258 . S
Zn220 O226 1.969 . S
Zn220 O227 1.965 . S
Zn220 O231 2.024 . S
Zn220 O236 1.969 . S
Zn221 O228 1.969 . S
Zn221 O234 1.969 . S
Zn221 O235 1.965 . S
Zn221 O237 2.024 . S
C222 O223 1.229 . S
C222 O231 1.058 . S
O223 C222 1.229 . S
C224 O225 1.229 . S
C224 O237 1.058 . S
O225 C224 1.229 . S
O226 Zn220 1.969 . S
O226 C229 1.267 . S
O227 Zn220 1.965 . S
O227 C238 1.260 . S
O228 Zn221 1.969 . S
O228 C238 1.258 . S
C229 O226 1.267 . S
C229 O230 1.228 . S
O230 C229 1.228 . S
O231 Zn220 2.024 . S
O231 C222 1.058 . S
C232 O233 1.228 . S
C232 O234 1.267 . S
O233 C232 1.228 . S
O234 Zn221 1.969 . S
O234 C232 1.267 . S
O235 Zn221 1.965 . S
O235 C239 1.260 . S
O236 Zn220 1.969 . S
O236 C239 1.258 . S
O237 Zn221 2.024 . S
O237 C224 1.058 . S
C238 O227 1.260 . S
C238 O228 1.258 . S
C239 O235 1.260 . S
C239 O236 1.258 . S
Zn240 O246 1.969 1_655 S
Zn240 O247 1.965 . S
Zn240 O251 2.024 . S
Zn240 O256 1.969 . S
Zn241 O248 1.969 . S
Zn241 O254 1.969 . S
Zn241 O255 1.965 . S
Zn241 O257 2.024 . S
C242 O243 1.229 . S
C242 O251 1.058 . S
O243 C242 1.229 . S
C244 O245 1.229 . S
C244 O257 1.058 . S
O245 C244 1.229 . S
O246 Zn240 1.969 1_455 S
O246 C249 1.267 . S
O247 Zn240 1.965 . S
O247 C258 1.260 . S
O248 Zn241 1.969 . S
O248 C258 1.258 . S
C249 O246 1.267 . S
C249 O250 1.228 . S
O250 C249 1.228 . S
O251 Zn240 2.024 . S
O251 C242 1.058 . S
C252 O253 1.228 . S
C252 O254 1.267 . S
O253 C252 1.228 . S
O254 Zn241 1.969 . S
O254 C252 1.267 . S
O255 Zn241 1.965 . S
O255 C259 1.260 . S
O256 Zn240 1.969 . S
O256 C259 1.258 . S
O257 Zn241 2.024 . S
O257 C244 1.058 . S
C258 O247 1.260 . S
C258 O248 1.258 . S
C259 O255 1.260 . S
C259 O256 1.258 . S
Zn260 O266 1.969 1_565 S
Zn260 O267 1.965 . S
Zn260 O271 2.024 . S
Zn260 O276 1.969 . S
Zn261 O268 1.969 . S
Zn261 O274 1.969 . S
Zn261 O275 1.965 . S
Zn261 O277 2.024 . S
C262 O263 1.229 . S
C262 O271 1.058 . S
O263 C262 1.229 . S
C264 O265 1.229 . S
C264 O277 1.058 . S
O265 C264 1.229 . S
O266 Zn260 1.969 1_545 S
O266 C269 1.267 . S
O267 Zn260 1.965 . S
O267 C278 1.260 . S
O268 Zn261 1.969 . S
O268 C278 1.258 . S
C269 O266 1.267 . S
C269 O270 1.228 . S
O270 C269 1.228 . S
O271 Zn260 2.024 . S
O271 C262 1.058 . S
C272 O273 1.228 . S
C272 O274 1.267 . S
O273 C272 1.228 . S
O274 Zn261 1.969 . S
O274 C272 1.267 . S
O275 Zn261 1.965 . S
O275 C279 1.260 . S
O276 Zn260 1.969 . S
O276 C279 1.258 . S
O277 Zn261 2.024 . S
O277 C264 1.058 . S
C278 O267 1.260 . S
C278 O268 1.258 . S
C279 O275 1.260 . S
C279 O276 1.258 . S
Zn280 O286 1.969 . S
Zn280 O287 1.965 . S
Zn280 O291 2.024 . S
Zn280 O296 1.969 . S
Zn281 O288 1.969 . S
Zn281 O294 1.969 . S
Zn281 O295 1.965 . S
Zn281 O297 2.024 . S
C282 O283 1.229 . S
C282 O291 1.058 . S
O283 C282 1.229 . S
C284 O285 1.229 . S
C284 O297 1.058 . S
O285 C284 1.229 . S
O286 Zn280 1.969 . S
O286 C289 1.267 . S
O287 Zn280 1.965 . S
O287 C298 1.260 . S
O288 Zn281 1.969 . S
O288 C298 1.258 . S
C289 O286 1.267 . S
C289 O290 1.228 . S
O290 C289 1.228 . S
O291 Zn280 2.024 . S
O291 C282 1.058 . S
C292 O293 1.228 . S
C292 O294 1.267 . S
O293 C292 1.228 . S
O294 Zn281 1.969 . S
O294 C292 1.267 . S
O295 Zn281 1.965 . S
O295 C299 1.260 . S
O296 Zn280 1.969 . S
O296 C299 1.258 . S
O297 Zn281 2.024 . S
O297 C284 1.058 . S
C298 O287 1.260 . S
C298 O288 1.258 . S
C299 O295 1.260 . S
C299 O296 1.258 . S
Zn300 O306 1.969 . S
Zn300 O307 1.965 . S
Zn300 O311 2.024 . S
Zn300 O316 1.969 . S
Zn301 O308 1.969 . S
Zn301 O314 1.969 . S
Zn301 O315 1.965 . S
Zn301 O317 2.024 . S
C302 O303 1.229 . S
C302 O311 1.058 . S
O303 C302 1.229 . S
C304 O305 1.229 . S
C304 O317 1.058 . S
O305 C304 1.229 . S
O306 Zn300 1.969 . S
O306 C309 1.267 . S
O307 Zn300 1.965 . S
O307 C318 1.260 . S
O308 Zn301 1.969 . S
O308 C318 1.258 . S
C309 O306 1.267 . S
C309 O310 1.228 . S
O310 C309 1.228 . S
O311 Zn300 2.024 . S
O311 C302 1.058 . S
C312 O313 1.228 . S
C312 O314 1.267 . S
O313 C312 1.228 . S
O314 Zn301 1.969 . S
O314 C312 1.267 . S
O315 Zn301 1.965 . S
O315 C319 1.260 . S
O316 Zn300 1.969 . S
O316 C319 1.258 . S
O317 Zn301 2.024 . S
O317 C304 1.058 . S
C318 O307 1.260 . S
C318 O308 1.258 . S
C319 O315 1.260 . S
C319 O316 1.258 . S
C320 C321 1.349 . S
C320 C322 1.327 . S
C320 H345 0.950 . S
C321 C320 1.349 . S
C321 C337 1.349 . S
C322 C320 1.327 . S
C322 C341 1.429 . S
C322 H346 0.950 . S
C323 C340 1.574 . S
C323 C342 1.368 . S
C323 H347 0.949 . S
H324 C328 0.949 . S
C325 C326 1.349 . S
C325 C327 1.327 . S
C325 H348 0.950 . S
C326 C325 1.349 . S
C326 C338 1.349 . S
C327 C325 1.327 . S
C327 C343 1.429 . S
C327 H349 0.950 . S
C328 H324 0.949 . S
C328 C336 1.574 . S
C328 C344 1.368 . S
H329 C337 0.950 . S
H330 C335 0.950 . S
H331 C336 0.949 . S
H332 C338 0.950 . S
H333 C339 0.950 . S
H334 C340 0.949 . S
C335 H330 0.950 . S
C335 C337 1.327 . S
C335 C341 1.429 . S
C336 C328 1.574 . S
C336 H331 0.949 . S
C336 C342 1.368 . S
C337 C321 1.349 . S
C337 H329 0.950 . S
C337 C335 1.327 . S
C338 C326 1.349 . S
C338 H332 0.950 . S
C338 C339 1.327 . S
C339 H333 0.950 . S
C339 C338 1.327 . S
C339 C343 1.429 . S
C340 C323 1.574 . S
C340 H334 0.949 . S
C340 C344 1.368 . S
C341 C322 1.429 . S
C341 C335 1.429 . S
C341 C342 1.523 . S
C342 C323 1.368 . S
C342 C336 1.368 . S
C342 C341 1.523 . S
C343 C327 1.429 . S
C343 C339 1.429 . S
C343 C344 1.523 . S
C344 C328 1.368 . S
C344 C340 1.368 . S
C344 C343 1.523 . S
H345 C320 0.950 . S
H346 C322 0.950 . S
H347 C323 0.949 . S
H348 C325 0.950 . S
H349 C327 0.950 . S
C350 C351 1.349 . S
C350 C352 1.327 . S
C350 H375 0.950 . S
C351 C350 1.349 . S
C351 C367 1.349 . S
C352 C350 1.327 . S
C352 C371 1.429 . S
C352 H376 0.950 . S
C353 C370 1.574 . S
C353 C372 1.368 1_655 S
C353 H377 0.949 . S
H354 C358 0.949 . S
C355 C356 1.349 . S
C355 C357 1.327 . S
C355 H378 0.950 . S
C356 C355 1.349 . S
C356 C368 1.349 . S
C357 C355 1.327 . S
C357 C373 1.429 . S
C357 H379 0.950 . S
C358 H354 0.949 . S
C358 C366 1.574 . S
C358 C374 1.368 1_455 S
H359 C367 0.950 . S
H360 C365 0.950 1_655 S
H361 C366 0.949 . S
H362 C368 0.950 . S
H363 C369 0.950 . S
H364 C370 0.949 . S
C365 H360 0.950 1_455 S
C365 C367 1.327 . S
C365 C371 1.429 . S
C366 C358 1.574 . S
C366 H361 0.949 . S
C366 C372 1.368 . S
C367 C351 1.349 . S
C367 H359 0.950 . S
C367 C365 1.327 . S
C368 C356 1.349 . S
C368 H362 0.950 . S
C368 C369 1.327 . S
C369 H363 0.950 . S
C369 C368 1.327 . S
C369 C373 1.429 . S
C370 C353 1.574 . S
C370 H364 0.949 . S
C370 C374 1.368 . S
C371 C352 1.429 . S
C371 C365 1.429 . S
C371 C372 1.523 . S
C372 C353 1.368 1_455 S
C372 C366 1.368 . S
C372 C371 1.523 . S
C373 C357 1.429 . S
C373 C369 1.429 . S
C373 C374 1.523 . S
C374 C358 1.368 1_655 S
C374 C370 1.368 . S
C374 C373 1.523 . S
H375 C350 0.950 . S
H376 C352 0.950 . S
H377 C353 0.949 . S
H378 C355 0.950 . S
H379 C357 0.950 . S
C380 C381 1.349 . S
C380 C382 1.327 . S
C380 H405 0.950 . S
C381 C380 1.349 . S
C381 C397 1.349 . S
C382 C380 1.327 . S
C382 C401 1.429 . S
C382 H406 0.950 . S
C383 C400 1.574 . S
C383 C402 1.368 . S
C383 H407 0.949 . S
H384 C388 0.949 1_545 S
C385 C386 1.349 . S
C385 C387 1.327 . S
C385 H408 0.950 . S
C386 C385 1.349 . S
C386 C398 1.349 . S
C387 C385 1.327 . S
C387 C403 1.429 . S
C387 H409 0.950 . S
C388 H384 0.949 1_565 S
C388 C396 1.574 . S
C388 C404 1.368 . S
H389 C397 0.950 . S
H390 C395 0.950 . S
H391 C396 0.949 . S
H392 C398 0.950 . S
H393 C399 0.950 . S
H394 C400 0.949 . S
C395 H390 0.950 . S
C395 C397 1.327 . S
C395 C401 1.429 . S
C396 C388 1.574 . S
C396 H391 0.949 . S
C396 C402 1.368 . S
C397 C381 1.349 . S
C397 H389 0.950 . S
C397 C395 1.327 . S
C398 C386 1.349 . S
C398 H392 0.950 . S
C398 C399 1.327 . S
C399 H393 0.950 . S
C399 C398 1.327 . S
C399 C403 1.429 . S
C400 C383 1.574 . S
C400 H394 0.949 . S
C400 C404 1.368 . S
C401 C382 1.429 . S
C401 C395 1.429 . S
C401 C402 1.523 . S
C402 C383 1.368 . S
C402 C396 1.368 . S
C402 C401 1.523 . S
C403 C387 1.429 . S
C403 C399 1.429 . S
C403 C404 1.523 1_545 S
C404 C388 1.368 . S
C404 C400 1.368 . S
C404 C403 1.523 1_565 S
H405 C380 0.950 . S
H406 C382 0.950 . S
H407 C383 0.949 . S
H408 C385 0.950 . S
H409 C387 0.950 . S
C410 C411 1.349 . S
C410 C412 1.327 . S
C410 H435 0.950 . S
C411 C410 1.349 . S
C411 C427 1.349 . S
C412 C410 1.327 . S
C412 C431 1.429 . S
C412 H436 0.950 . S
C413 C430 1.574 . S
C413 C432 1.368 . S
C413 H437 0.949 . S
H414 C418 0.949 . S
C415 C416 1.349 . S
C415 C417 1.327 . S
C415 H438 0.950 . S
C416 C415 1.349 . S
C416 C428 1.349 . S
C417 C415 1.327 . S
C417 C433 1.429 . S
C417 H439 0.950 . S
C418 H414 0.949 . S
C418 C426 1.574 . S
C418 C434 1.368 . S
H419 C427 0.950 . S
H420 C425 0.950 . S
H421 C426 0.949 . S
H422 C428 0.950 . S
H423 C429 0.950 . S
H424 C430 0.949 . S
C425 H420 0.950 . S
C425 C427 1.327 . S
C425 C431 1.429 . S
C426 C418 1.574 . S
C426 H421 0.949 . S
C426 C432 1.368 . S
C427 C411 1.349 . S
C427 H419 0.950 . S
C427 C425 1.327 . S
C428 C416 1.349 . S
C428 H422 0.950 . S
C428 C429 1.327 . S
C429 H423 0.950 . S
C429 C428 1.327 . S
C429 C433 1.429 . S
C430 C413 1.574 . S
C430 H424 0.949 . S
C430 C434 1.368 . S
C431 C412 1.429 . S
C431 C425 1.429 . S
C431 C432 1.523 . S
C432 C413 1.368 . S
C432 C426 1.368 . S
C432 C431 1.523 . S
C433 C417 1.429 . S
C433 C429 1.429 . S
C433 C434 1.523 . S
C434 C418 1.368 . S
C434 C430 1.368 . S
C434 C433 1.523 . S
H435 C410 0.950 . S
H436 C412 0.950 . S
H437 C413 0.949 . S
H438 C415 0.950 . S
H439 C417 0.950 . S
C440 C441 1.349 . S
C440 C442 1.327 . S
C440 H465 0.950 . S
C441 C440 1.349 . S
C441 C457 1.349 . S
C442 C440 1.327 . S
C442 C461 1.429 . S
C442 H466 0.950 . S
C443 C460 1.574 . S
C443 C462 1.368 . S
C443 H467 0.949 . S
H444 C448 0.949 . S
C445 C446 1.349 . S
C445 C447 1.327 . S
C445 H468 0.950 . S
C446 C445 1.349 . S
C446 C458 1.349 . S
C447 C445 1.327 . S
C447 C463 1.429 . S
C447 H469 0.950 . S
C448 H444 0.949 . S
C448 C456 1.574 1_545 S
C448 C464 1.368 . S
H449 C457 0.950 . S
H450 C455 0.950 . S
H451 C456 0.949 . S
H452 C458 0.950 . S
H453 C459 0.950 . S
H454 C460 0.949 . S
C455 H450 0.950 . S
C455 C457 1.327 . S
C455 C461 1.429 . S
C456 C448 1.574 1_565 S
C456 H451 0.949 . S
C456 C462 1.368 . S
C457 C441 1.349 . S
C457 H449 0.950 . S
C457 C455 1.327 . S
C458 C446 1.349 . S
C458 H452 0.950 . S
C458 C459 1.327 . S
C459 H453 0.950 . S
C459 C458 1.327 . S
C459 C463 1.429 . S
C460 C443 1.574 . S
C460 H454 0.949 . S
C460 C464 1.368 1_565 S
C461 C442 1.429 . S
C461 C455 1.429 . S
C461 C462 1.523 . S
C462 C443 1.368 . S
C462 C456 1.368 . S
C462 C461 1.523 . S
C463 C447 1.429 . S
C463 C459 1.429 . S
C463 C464 1.523 . S
C464 C448 1.368 . S
C464 C460 1.368 1_545 S
C464 C463 1.523 . S
H465 C440 0.950 . S
H466 C442 0.950 . S
H467 C443 0.949 . S
H468 C445 0.950 . S
H469 C447 0.950 . S
C470 C471 1.349 . S
C470 C472 1.327 . S
C470 H495 0.950 . S
C471 C470 1.349 . S
C471 C487 1.349 . S
C472 C470 1.327 . S
C472 C491 1.429 . S
C472 H496 0.950 . S
C473 C490 1.574 . S
C473 C492 1.368 . S
C473 H497 0.949 . S
H474 C478 0.949 . S
C475 C476 1.349 . S
C475 C477 1.327 . S
C475 H498 0.950 . S
C476 C475 1.349 . S
C476 C488 1.349 . S
C477 C475 1.327 . S
C477 C493 1.429 . S
C477 H499 0.950 . S
C478 H474 0.949 . S
C478 C486 1.574 . S
C478 C494 1.368 . S
H479 C487 0.950 . S
H480 C485 0.950 . S
H481 C486 0.949 . S
H482 C488 0.950 . S
H483 C489 0.950 . S
H484 C490 0.949 . S
C485 H480 0.950 . S
C485 C487 1.327 . S
C485 C491 1.429 . S
C486 C478 1.574 . S
C486 H481 0.949 . S
C486 C492 1.368 . S
C487 C471 1.349 . S
C487 H479 0.950 . S
C487 C485 1.327 . S
C488 C476 1.349 . S
C488 H482 0.950 . S
C488 C489 1.327 . S
C489 H483 0.950 . S
C489 C488 1.327 . S
C489 C493 1.429 . S
C490 C473 1.574 . S
C490 H484 0.949 . S
C490 C494 1.368 . S
C491 C472 1.429 . S
C491 C485 1.429 . S
C491 C492 1.523 . S
C492 C473 1.368 . S
C492 C486 1.368 . S
C492 C491 1.523 . S
C493 C477 1.429 . S
C493 C489 1.429 . S
C493 C494 1.523 . S
C494 C478 1.368 . S
C494 C490 1.368 . S
C494 C493 1.523 . S
H495 C470 0.950 . S
H496 C472 0.950 . S
H497 C473 0.949 . S
H498 C475 0.950 . S
H499 C477 0.950 . S
C500 C501 1.349 . S
C500 C502 1.327 . S
C500 H525 0.950 . S
C501 C500 1.349 . S
C501 C517 1.349 . S
C502 C500 1.327 . S
C502 C521 1.429 . S
C502 H526 0.950 . S
C503 C520 1.574 . S
C503 C522 1.368 . S
C503 H527 0.949 . S
H504 C508 0.949 . S
C505 C506 1.349 . S
C505 C507 1.327 . S
C505 H528 0.950 . S
C506 C505 1.349 . S
C506 C518 1.349 . S
C507 C505 1.327 . S
C507 C523 1.429 . S
C507 H529 0.950 . S
C508 H504 0.949 . S
C508 C516 1.574 . S
C508 C524 1.368 . S
H509 C517 0.950 . S
H510 C515 0.950 . S
H511 C516 0.949 . S
H512 C518 0.950 . S
H513 C519 0.950 . S
H514 C520 0.949 . S
C515 H510 0.950 . S
C515 C517 1.327 . S
C515 C521 1.429 . S
C516 C508 1.574 . S
C516 H511 0.949 . S
C516 C522 1.368 . S
C517 C501 1.349 . S
C517 H509 0.950 . S
C517 C515 1.327 . S
C518 C506 1.349 . S
C518 H512 0.950 . S
C518 C519 1.327 . S
C519 H513 0.950 . S
C519 C518 1.327 . S
C519 C523 1.429 . S
C520 C503 1.574 . S
C520 H514 0.949 . S
C520 C524 1.368 . S
C521 C502 1.429 . S
C521 C515 1.429 . S
C521 C522 1.523 . S
C522 C503 1.368 . S
C522 C516 1.368 . S
C522 C521 1.523 . S
C523 C507 1.429 . S
C523 C519 1.429 . S
C523 C524 1.523 . S
C524 C508 1.368 . S
C524 C520 1.368 . S
C524 C523 1.523 . S
H525 C500 0.950 . S
H526 C502 0.950 . S
H527 C503 0.949 . S
H528 C505 0.950 . S
H529 C507 0.950 . S
C530 C531 1.349 . S
C530 C532 1.327 . S
C530 H555 0.950 . S
C531 C530 1.349 . S
C531 C547 1.349 . S
C532 C530 1.327 . S
C532 C551 1.429 . S
C532 H556 0.950 . S
C533 C550 1.574 . S
C533 C552 1.368 . S
C533 H557 0.949 . S
H534 C538 0.949 . S
C535 C536 1.349 . S
C535 C537 1.327 . S
C535 H558 0.950 . S
C536 C535 1.349 . S
C536 C548 1.349 . S
C537 C535 1.327 . S
C537 C553 1.429 . S
C537 H559 0.950 . S
C538 H534 0.949 . S
C538 C546 1.574 . S
C538 C554 1.368 . S
H539 C547 0.950 . S
H540 C545 0.950 . S
H541 C546 0.949 . S
H542 C548 0.950 . S
H543 C549 0.950 . S
H544 C550 0.949 . S
C545 H540 0.950 . S
C545 C547 1.327 . S
C545 C551 1.429 . S
C546 C538 1.574 . S
C546 H541 0.949 . S
C546 C552 1.368 1_655 S
C547 C531 1.349 . S
C547 H539 0.950 . S
C547 C545 1.327 . S
C548 C536 1.349 . S
C548 H542 0.950 . S
C548 C549 1.327 . S
C549 H543 0.950 . S
C549 C548 1.327 . S
C549 C553 1.429 . S
C550 C533 1.574 . S
C550 H544 0.949 . S
C550 C554 1.368 1_455 S
C551 C532 1.429 . S
C551 C545 1.429 . S
C551 C552 1.523 . S
C552 C533 1.368 . S
C552 C546 1.368 1_455 S
C552 C551 1.523 . S
C553 C537 1.429 . S
C553 C549 1.429 . S
C553 C554 1.523 . S
C554 C538 1.368 . S
C554 C550 1.368 1_655 S
C554 C553 1.523 . S
H555 C530 0.950 . S
H556 C532 0.950 . S
H557 C533 0.949 . S
H558 C535 0.950 . S
H559 C537 0.950 . S
C560 C561 1.349 . S
C560 C562 1.327 . S
C560 H585 0.950 . S
C561 C560 1.349 . S
C561 C577 1.349 . S
C562 C560 1.327 . S
C562 C581 1.429 . S
C562 H586 0.950 . S
C563 C580 1.574 . S
C563 C582 1.368 . S
C563 H587 0.949 . S
H564 C568 0.949 . S
C565 C566 1.349 . S
C565 C567 1.327 . S
C565 H588 0.950 . S
C566 C565 1.349 . S
C566 C578 1.349 . S
C567 C565 1.327 . S
C567 C583 1.429 . S
C567 H589 0.950 . S
C568 H564 0.949 . S
C568 C576 1.574 . S
C568 C584 1.368 . S
H569 C577 0.950 . S
H570 C575 0.950 . S
H571 C576 0.949 . S
H572 C578 0.950 . S
H573 C579 0.950 . S
H574 C580 0.949 . S
C575 H570 0.950 . S
C575 C577 1.327 . S
C575 C581 1.429 . S
C576 C568 1.574 . S
C576 H571 0.949 . S
C576 C582 1.368 . S
C577 C561 1.349 . S
C577 H569 0.950 . S
C577 C575 1.327 . S
C578 C566 1.349 . S
C578 H572 0.950 . S
C578 C579 1.327 . S
C579 H573 0.950 . S
C579 C578 1.327 . S
C579 C583 1.429 . S
C580 C563 1.574 . S
C580 H574 0.949 . S
C580 C584 1.368 . S
C581 C562 1.429 . S
C581 C575 1.429 . S
C581 C582 1.523 . S
C582 C563 1.368 . S
C582 C576 1.368 . S
C582 C581 1.523 . S
C583 C567 1.429 . S
C583 C579 1.429 . S
C583 C584 1.523 . S
C584 C568 1.368 . S
C584 C580 1.368 . S
C584 C583 1.523 . S
H585 C560 0.950 . S
H586 C562 0.950 . S
H587 C563 0.949 . S
H588 C565 0.950 . S
H589 C567 0.950 . S
C590 C591 1.349 . S
C590 C592 1.327 . S
C590 H615 0.950 . S
C591 C590 1.349 . S
C591 C607 1.349 . S
C592 C590 1.327 . S
C592 C611 1.429 . S
C592 H616 0.950 . S
C593 C610 1.574 1_655 S
C593 C612 1.368 . S
C593 H617 0.949 . S
H594 C598 0.949 . S
C595 C596 1.349 . S
C595 C597 1.327 . S
C595 H618 0.950 . S
C596 C595 1.349 . S
C596 C608 1.349 . S
C597 C595 1.327 . S
C597 C613 1.429 . S
C597 H619 0.950 . S
C598 H594 0.949 . S
C598 C606 1.574 . S
C598 C614 1.368 . S
H599 C607 0.950 . S
H600 C605 0.950 . S
H601 C606 0.949 . S
H602 C608 0.950 . S
H603 C609 0.950 . S
H604 C610 0.949 . S
C605 H600 0.950 . S
C605 C607 1.327 . S
C605 C611 1.429 . S
C606 C598 1.574 . S
C606 H601 0.949 . S
C606 C612 1.368 1_455 S
C607 C591 1.349 . S
C607 H599 0.950 . S
C607 C605 1.327 . S
C608 C596 1.349 . S
C608 H602 0.950 . S
C608 C609 1.327 . S
C609 H603 0.950 . S
C609 C608 1.327 . S
C609 C613 1.429 . S
C610 C593 1.574 1_455 S
C610 H604 0.949 . S
C610 C614 1.368 . S
C611 C592 1.429 . S
C611 C605 1.429 . S
C611 C612 1.523 . S
C612 C593 1.368 . S
C612 C606 1.368 1_655 S
C612 C611 1.523 . S
C613 C597 1.429 . S
C613 C609 1.429 . S
C613 C614 1.523 . S
C614 C598 1.368 . S
C614 C610 1.368 . S
C614 C613 1.523 . S
H615 C590 0.950 . S
H616 C592 0.950 . S
H617 C593 0.949 . S
H618 C595 0.950 . S
H619 C597 0.950 . S
C620 C621 1.349 . S
C620 C622 1.327 . S
C620 H645 0.950 . S
C621 C620 1.349 . S
C621 C637 1.349 . S
C622 C620 1.327 . S
C622 C641 1.429 . S
C622 H646 0.950 . S
C623 C640 1.574 . S
C623 C642 1.368 . S
C623 H647 0.949 . S
H624 C628 0.949 . S
C625 C626 1.349 . S
C625 C627 1.327 . S
C625 H648 0.950 . S
C626 C625 1.349 . S
C626 C638 1.349 . S
C627 C625 1.327 . S
C627 C643 1.429 . S
C627 H649 0.950 . S
C628 H624 0.949 . S
C628 C636 1.574 1_545 S
C628 C644 1.368 . S
H629 C637 0.950 . S
H630 C635 0.950 1_545 S
H631 C636 0.949 . S
H632 C638 0.950 . S
H633 C639 0.950 . S
H634 C640 0.949 . S
C635 H630 0.950 1_565 S
C635 C637 1.327 . S
C635 C641 1.429 . S
C636 C628 1.574 1_565 S
C636 H631 0.949 . S
C636 C642 1.368 1_565 S
C637 C621 1.349 . S
C637 H629 0.950 . S
C637 C635 1.327 . S
C638 C626 1.349 . S
C638 H632 0.950 . S
C638 C639 1.327 . S
C639 H633 0.950 . S
C639 C638 1.327 . S
C639 C643 1.429 . S
C640 C623 1.574 . S
C640 H634 0.949 . S
C640 C644 1.368 . S
C641 C622 1.429 . S
C641 C635 1.429 . S
C641 C642 1.523 1_565 S
C642 C623 1.368 . S
C642 C636 1.368 1_545 S
C642 C641 1.523 1_545 S
C643 C627 1.429 . S
C643 C639 1.429 . S
C643 C644 1.523 . S
C644 C628 1.368 . S
C644 C640 1.368 . S
C644 C643 1.523 . S
H645 C620 0.950 . S
H646 C622 0.950 . S
H647 C623 0.949 . S
H648 C625 0.950 . S
H649 C627 0.950 . S
C650 C651 1.349 . S
C650 C652 1.327 . S
C650 H675 0.950 . S
C651 C650 1.349 . S
C651 C667 1.349 . S
C652 C650 1.327 . S
C652 C671 1.429 . S
C652 H676 0.950 . S
C653 C670 1.574 . S
C653 C672 1.368 . S
C653 H677 0.949 . S
H654 C658 0.949 . S
C655 C656 1.349 . S
C655 C657 1.327 . S
C655 H678 0.950 . S
C656 C655 1.349 . S
C656 C668 1.349 . S
C657 C655 1.327 . S
C657 C673 1.429 . S
C657 H679 0.950 . S
C658 H654 0.949 . S
C658 C666 1.574 . S
C658 C674 1.368 . S
H659 C667 0.950 . S
H660 C665 0.950 . S
H661 C666 0.949 . S
H662 C668 0.950 . S
H663 C669 0.950 . S
H664 C670 0.949 . S
C665 H660 0.950 . S
C665 C667 1.327 . S
C665 C671 1.429 . S
C666 C658 1.574 . S
C666 H661 0.949 . S
C666 C672 1.368 . S
C667 C651 1.349 . S
C667 H659 0.950 . S
C667 C665 1.327 . S
C668 C656 1.349 . S
C668 H662 0.950 . S
C668 C669 1.327 . S
C669 H663 0.950 . S
C669 C668 1.327 . S
C669 C673 1.429 . S
C670 C653 1.574 . S
C670 H664 0.949 . S
C670 C674 1.368 . S
C671 C652 1.429 . S
C671 C665 1.429 . S
C671 C672 1.523 . S
C672 C653 1.368 . S
C672 C666 1.368 . S
C672 C671 1.523 . S
C673 C657 1.429 . S
C673 C669 1.429 . S
C673 C674 1.523 . S
C674 C658 1.368 . S
C674 C670 1.368 . S
C674 C673 1.523 . S
H675 C650 0.950 . S
H676 C652 0.950 . S
H677 C653 0.949 . S
H678 C655 0.950 . S
H679 C657 0.950 . S
C680 C681 1.349 . S
C680 C682 1.327 . S
C680 H705 0.950 . S
C681 C680 1.349 . S
C681 C697 1.349 . S
C682 C680 1.327 . S
C682 C701 1.429 . S
C682 H706 0.950 . S
C683 C700 1.574 . S
C683 C702 1.368 . S
C683 H707 0.949 . S
H684 C688 0.949 . S
C685 C686 1.349 . S
C685 C687 1.327 . S
C685 H708 0.950 . S
C686 C685 1.349 . S
C686 C698 1.349 . S
C687 C685 1.327 . S
C687 C703 1.429 . S
C687 H709 0.950 . S
C688 H684 0.949 . S
C688 C696 1.574 1_565 S
C688 C704 1.368 . S
H689 C697 0.950 . S
H690 C695 0.950 . S
H691 C696 0.949 . S
H692 C698 0.950 . S
H693 C699 0.950 . S
H694 C700 0.949 . S
C695 H690 0.950 . S
C695 C697 1.327 . S
C695 C701 1.429 . S
C696 C688 1.574 1_545 S
C696 H691 0.949 . S
C696 C702 1.368 . S
C697 C681 1.349 . S
C697 H689 0.950 . S
C697 C695 1.327 . S
C698 C686 1.349 . S
C698 H692 0.950 . S
C698 C699 1.327 . S
C699 H693 0.950 . S
C699 C698 1.327 . S
C699 C703 1.429 . S
C700 C683 1.574 . S
C700 H694 0.949 . S
C700 C704 1.368 1_545 S
C701 C682 1.429 . S
C701 C695 1.429 . S
C701 C702 1.523 . S
C702 C683 1.368 . S
C702 C696 1.368 . S
C702 C701 1.523 . S
C703 C687 1.429 . S
C703 C699 1.429 . S
C703 C704 1.523 . S
C704 C688 1.368 . S
C704 C700 1.368 1_565 S
C704 C703 1.523 . S
H705 C680 0.950 . S
H706 C682 0.950 . S
H707 C683 0.949 . S
H708 C685 0.950 . S
H709 C687 0.950 . S
C710 C711 1.349 . S
C710 C712 1.327 . S
C710 H735 0.950 . S
C711 C710 1.349 . S
C711 C727 1.349 . S
C712 C710 1.327 . S
C712 C731 1.429 . S
C712 H736 0.950 . S
C713 C730 1.574 . S
C713 C732 1.368 . S
C713 H737 0.949 . S
H714 C718 0.949 . S
C715 C716 1.349 . S
C715 C717 1.327 . S
C715 H738 0.950 . S
C716 C715 1.349 . S
C716 C728 1.349 . S
C717 C715 1.327 . S
C717 C733 1.429 . S
C717 H739 0.950 . S
C718 H714 0.949 . S
C718 C726 1.574 . S
C718 C734 1.368 . S
H719 C727 0.950 . S
H720 C725 0.950 . S
H721 C726 0.949 . S
H722 C728 0.950 . S
H723 C729 0.950 . S
H724 C730 0.949 . S
C725 H720 0.950 . S
C725 C727 1.327 . S
C725 C731 1.429 . S
C726 C718 1.574 . S
C726 H721 0.949 . S
C726 C732 1.368 . S
C727 C711 1.349 . S
C727 H719 0.950 . S
C727 C725 1.327 . S
C728 C716 1.349 . S
C728 H722 0.950 . S
C728 C729 1.327 . S
C729 H723 0.950 . S
C729 C728 1.327 . S
C729 C733 1.429 . S
C730 C713 1.574 . S
C730 H724 0.949 . S
C730 C734 1.368 . S
C731 C712 1.429 . S
C731 C725 1.429 . S
C731 C732 1.523 . S
C732 C713 1.368 . S
C732 C726 1.368 . S
C732 C731 1.523 . S
C733 C717 1.429 . S
C733 C729 1.429 . S
C733 C734 1.523 . S
C734 C718 1.368 . S
C734 C730 1.368 . S
C734 C733 1.523 . S
H735 C710 0.950 . S
H736 C712 0.950 . S
H737 C713 0.949 . S
H738 C715 0.950 . S
H739 C717 0.950 . S
C740 C741 1.349 . S
C740 C742 1.327 . S
C740 H765 0.950 . S
C741 C740 1.349 . S
C741 C757 1.349 . S
C742 C740 1.327 . S
C742 C761 1.429 . S
C742 H766 0.950 . S
C743 C760 1.574 . S
C743 C762 1.368 . S
C743 H767 0.949 . S
H744 C748 0.949 . S
C745 C746 1.349 . S
C745 C747 1.327 . S
C745 H768 0.950 . S
C746 C745 1.349 . S
C746 C758 1.349 . S
C747 C745 1.327 . S
C747 C763 1.429 . S
C747 H769 0.950 . S
C748 H744 0.949 . S
C748 C756 1.574 . S
C748 C764 1.368 . S
H749 C757 0.950 . S
H750 C755 0.950 . S
H751 C756 0.949 . S
H752 C758 0.950 . S
H753 C759 0.950 . S
H754 C760 0.949 . S
C755 H750 0.950 . S
C755 C757 1.327 . S
C755 C761 1.429 . S
C756 C748 1.574 . S
C756 H751 0.949 . S
C756 C762 1.368 . S
C757 C741 1.349 . S
C757 H749 0.950 . S
C757 C755 1.327 . S
C758 C746 1.349 . S
C758 H752 0.950 . S
C758 C759 1.327 . S
C759 H753 0.950 . S
C759 C758 1.327 . S
C759 C763 1.429 . S
C760 C743 1.574 . S
C760 H754 0.949 . S
C760 C764 1.368 . S
C761 C742 1.429 . S
C761 C755 1.429 . S
C761 C762 1.523 . S
C762 C743 1.368 . S
C762 C756 1.368 . S
C762 C761 1.523 . S
C763 C747 1.429 . S
C763 C759 1.429 . S
C763 C764 1.523 . S
C764 C748 1.368 . S
C764 C760 1.368 . S
C764 C763 1.523 . S
H765 C740 0.950 . S
H766 C742 0.950 . S
H767 C743 0.949 . S
H768 C745 0.950 . S
H769 C747 0.950 . S
C770 C771 1.349 . S
C770 C772 1.327 . S
C770 H795 0.950 . S
C771 C770 1.349 . S
C771 C787 1.349 . S
C772 C770 1.327 . S
C772 C791 1.429 . S
C772 H796 0.950 . S
C773 C790 1.574 . S
C773 C792 1.368 . S
C773 H797 0.949 . S
H774 C778 0.949 . S
C775 C776 1.349 . S
C775 C777 1.327 . S
C775 H798 0.950 . S
C776 C775 1.349 . S
C776 C788 1.349 . S
C777 C775 1.327 . S
C777 C793 1.429 . S
C777 H799 0.950 . S
C778 H774 0.949 . S
C778 C786 1.574 . S
C778 C794 1.368 . S
H779 C787 0.950 . S
H780 C785 0.950 . S
H781 C786 0.949 . S
H782 C788 0.950 . S
H783 C789 0.950 . S
H784 C790 0.949 . S
C785 H780 0.950 . S
C785 C787 1.327 . S
C785 C791 1.429 . S
C786 C778 1.574 . S
C786 H781 0.949 . S
C786 C792 1.368 1_655 S
C787 C771 1.349 . S
C787 H779 0.950 . S
C787 C785 1.327 . S
C788 C776 1.349 . S
C788 H782 0.950 . S
C788 C789 1.327 . S
C789 H783 0.950 . S
C789 C788 1.327 . S
C789 C793 1.429 . S
C790 C773 1.574 . S
C790 H784 0.949 . S
C790 C794 1.368 1_455 S
C791 C772 1.429 . S
C791 C785 1.429 . S
C791 C792 1.523 . S
C792 C773 1.368 . S
C792 C786 1.368 1_455 S
C792 C791 1.523 . S
C793 C777 1.429 . S
C793 C789 1.429 . S
C793 C794 1.523 . S
C794 C778 1.368 . S
C794 C790 1.368 1_655 S
C794 C793 1.523 . S
H795 C770 0.950 . S
H796 C772 0.950 . S
H797 C773 0.949 . S
H798 C775 0.950 . S
H799 C777 0.950 . S
C800 C801 1.349 . S
C800 C802 1.327 . S
C800 H825 0.950 . S
C801 C800 1.349 . S
C801 C817 1.349 . S
C802 C800 1.327 . S
C802 C821 1.429 . S
C802 H826 0.950 . S
C803 C820 1.574 . S
C803 C822 1.368 . S
C803 H827 0.949 . S
H804 C808 0.949 . S
C805 C806 1.349 . S
C805 C807 1.327 . S
C805 H828 0.950 . S
C806 C805 1.349 . S
C806 C818 1.349 . S
C807 C805 1.327 . S
C807 C823 1.429 . S
C807 H829 0.950 . S
C808 H804 0.949 . S
C808 C816 1.574 . S
C808 C824 1.368 . S
H809 C817 0.950 . S
H810 C815 0.950 . S
H811 C816 0.949 . S
H812 C818 0.950 . S
H813 C819 0.950 . S
H814 C820 0.949 . S
C815 H810 0.950 . S
C815 C817 1.327 . S
C815 C821 1.429 . S
C816 C808 1.574 . S
C816 H811 0.949 . S
C816 C822 1.368 . S
C817 C801 1.349 . S
C817 H809 0.950 . S
C817 C815 1.327 . S
C818 C806 1.349 . S
C818 H812 0.950 . S
C818 C819 1.327 . S
C819 H813 0.950 . S
C819 C818 1.327 . S
C819 C823 1.429 . S
C820 C803 1.574 . S
C820 H814 0.949 . S
C820 C824 1.368 . S
C821 C802 1.429 . S
C821 C815 1.429 . S
C821 C822 1.523 . S
C822 C803 1.368 . S
C822 C816 1.368 . S
C822 C821 1.523 . S
C823 C807 1.429 . S
C823 C819 1.429 . S
C823 C824 1.523 . S
C824 C808 1.368 . S
C824 C820 1.368 . S
C824 C823 1.523 . S
H825 C800 0.950 . S
H826 C802 0.950 . S
H827 C803 0.949 . S
H828 C805 0.950 . S
H829 C807 0.950 . S
C830 C831 1.349 . S
C830 C832 1.327 . S
C830 H855 0.950 . S
C831 C830 1.349 . S
C831 C847 1.349 . S
C832 C830 1.327 . S
C832 C851 1.429 . S
C832 H856 0.950 . S
C833 C850 1.574 . S
C833 C852 1.368 . S
C833 H857 0.949 . S
H834 C838 0.949 . S
C835 C836 1.349 . S
C835 C837 1.327 . S
C835 H858 0.950 . S
C836 C835 1.349 . S
C836 C848 1.349 . S
C837 C835 1.327 . S
C837 C853 1.429 . S
C837 H859 0.950 . S
C838 H834 0.949 . S
C838 C846 1.574 . S
C838 C854 1.368 . S
H839 C847 0.950 . S
H840 C845 0.950 . S
H841 C846 0.949 . S
H842 C848 0.950 . S
H843 C849 0.950 . S
H844 C850 0.949 . S
C845 H840 0.950 . S
C845 C847 1.327 . S
C845 C851 1.429 . S
C846 C838 1.574 . S
C846 H841 0.949 . S
C846 C852 1.368 . S
C847 C831 1.349 . S
C847 H839 0.950 . S
C847 C845 1.327 . S
C848 C836 1.349 . S
C848 H842 0.950 . S
C848 C849 1.327 . S
C849 H843 0.950 . S
C849 C848 1.327 . S
C849 C853 1.429 . S
C850 C833 1.574 . S
C850 H844 0.949 . S
C850 C854 1.368 . S
C851 C832 1.429 . S
C851 C845 1.429 . S
C851 C852 1.523 . S
C852 C833 1.368 . S
C852 C846 1.368 . S
C852 C851 1.523 . S
C853 C837 1.429 . S
C853 C849 1.429 . S
C853 C854 1.523 . S
C854 C838 1.368 . S
C854 C850 1.368 . S
C854 C853 1.523 . S
H855 C830 0.950 . S
H856 C832 0.950 . S
H857 C833 0.949 . S
H858 C835 0.950 . S
H859 C837 0.950 . S
C860 C861 1.349 . S
C860 C862 1.327 . S
C860 H885 0.950 . S
C861 C860 1.349 . S
C861 C877 1.349 . S
C862 C860 1.327 . S
C862 C881 1.429 . S
C862 H886 0.950 . S
C863 C880 1.574 . S
C863 C882 1.368 . S
C863 H887 0.949 . S
H864 C868 0.949 . S
C865 C866 1.349 . S
C865 C867 1.327 . S
C865 H888 0.950 . S
C866 C865 1.349 . S
C866 C878 1.349 . S
C867 C865 1.327 . S
C867 C883 1.429 . S
C867 H889 0.950 . S
C868 H864 0.949 . S
C868 C876 1.574 . S
C868 C884 1.368 . S
H869 C877 0.950 . S
H870 C875 0.950 . S
H871 C876 0.949 . S
H872 C878 0.950 . S
H873 C879 0.950 . S
H874 C880 0.949 . S
C875 H870 0.950 . S
C875 C877 1.327 . S
C875 C881 1.429 . S
C876 C868 1.574 . S
C876 H871 0.949 . S
C876 C882 1.368 . S
C877 C861 1.349 . S
C877 H869 0.950 . S
C877 C875 1.327 . S
C878 C866 1.349 . S
C878 H872 0.950 . S
C878 C879 1.327 . S
C879 H873 0.950 . S
C879 C878 1.327 . S
C879 C883 1.429 . S
C880 C863 1.574 . S
C880 H874 0.949 . S
C880 C884 1.368 . S
C881 C862 1.429 . S
C881 C875 1.429 . S
C881 C882 1.523 . S
C882 C863 1.368 . S
C882 C876 1.368 . S
C882 C881 1.523 . S
C883 C867 1.429 . S
C883 C879 1.429 . S
C883 C884 1.523 . S
C884 C868 1.368 . S
C884 C880 1.368 . S
C884 C883 1.523 . S
H885 C860 0.950 . S
H886 C862 0.950 . S
H887 C863 0.949 . S
H888 C865 0.950 . S
H889 C867 0.950 . S
C890 C891 1.349 . S
C890 C892 1.327 . S
C890 H915 0.950 . S
C891 C890 1.349 . S
C891 C907 1.349 . S
C892 C890 1.327 . S
C892 C911 1.429 . S
C892 H916 0.950 . S
C893 C910 1.574 . S
C893 C912 1.368 . S
C893 H917 0.949 . S
H894 C898 0.949 . S
C895 C896 1.349 . S
C895 C897 1.327 . S
C895 H918 0.950 . S
C896 C895 1.349 . S
C896 C908 1.349 . S
C897 C895 1.327 . S
C897 C913 1.429 . S
C897 H919 0.950 . S
C898 H894 0.949 . S
C898 C906 1.574 . S
C898 C914 1.368 . S
H899 C907 0.950 . S
H900 C905 0.950 . S
H901 C906 0.949 . S
H902 C908 0.950 . S
H903 C909 0.950 . S
H904 C910 0.949 . S
C905 H900 0.950 . S
C905 C907 1.327 . S
C905 C911 1.429 . S
C906 C898 1.574 . S
C906 H901 0.949 . S
C906 C912 1.368 . S
C907 C891 1.349 . S
C907 H899 0.950 . S
C907 C905 1.327 . S
C908 C896 1.349 . S
C908 H902 0.950 . S
C908 C909 1.327 . S
C909 H903 0.950 . S
C909 C908 1.327 . S
C909 C913 1.429 . S
C910 C893 1.574 . S
C910 H904 0.949 . S
C910 C914 1.368 . S
C911 C892 1.429 . S
C911 C905 1.429 . S
C911 C912 1.523 . S
C912 C893 1.368 . S
C912 C906 1.368 . S
C912 C911 1.523 . S
C913 C897 1.429 . S
C913 C909 1.429 . S
C913 C914 1.523 . S
C914 C898 1.368 . S
C914 C910 1.368 . S
C914 C913 1.523 . S
H915 C890 0.950 . S
H916 C892 0.950 . S
H917 C893 0.949 . S
H918 C895 0.950 . S
H919 C897 0.950 . S
C920 C921 1.349 . S
C920 C922 1.327 . S
C920 H945 0.950 . S
C921 C920 1.349 . S
C921 C937 1.349 . S
C922 C920 1.327 . S
C922 C941 1.429 . S
C922 H946 0.950 . S
C923 C940 1.574 . S
C923 C942 1.368 . S
C923 H947 0.949 . S
H924 C928 0.949 . S
C925 C926 1.349 . S
C925 C927 1.327 . S
C925 H948 0.950 . S
C926 C925 1.349 . S
C926 C938 1.349 . S
C927 C925 1.327 . S
C927 C943 1.429 . S
C927 H949 0.950 . S
C928 H924 0.949 . S
C928 C936 1.574 . S
C928 C944 1.368 . S
H929 C937 0.950 . S
H930 C935 0.950 . S
H931 C936 0.949 . S
H932 C938 0.950 . S
H933 C939 0.950 . S
H934 C940 0.949 . S
C935 H930 0.950 . S
C935 C937 1.327 . S
C935 C941 1.429 . S
C936 C928 1.574 . S
C936 H931 0.949 . S
C936 C942 1.368 . S
C937 C921 1.349 . S
C937 H929 0.950 . S
C937 C935 1.327 . S
C938 C926 1.349 . S
C938 H932 0.950 . S
C938 C939 1.327 . S
C939 H933 0.950 . S
C939 C938 1.327 . S
C939 C943 1.429 . S
C940 C923 1.574 . S
C940 H934 0.949 . S
C940 C944 1.368 . S
C941 C922 1.429 . S
C941 C935 1.429 . S
C941 C942 1.523 . S
C942 C923 1.368 . S
C942 C936 1.368 . S
C942 C941 1.523 . S
C943 C927 1.429 . S
C943 C939 1.429 . S
C943 C944 1.523 . S
C944 C928 1.368 . S
C944 C940 1.368 . S
C944 C943 1.523 . S
H945 C920 0.950 . S
H946 C922 0.950 . S
H947 C923 0.949 . S
H948 C925 0.950 . S
H949 C927 0.950 . S
C950 C951 1.349 . S
C950 C952 1.327 . S
C950 H975 0.950 . S
C951 C950 1.349 . S
C951 C967 1.349 . S
C952 C950 1.327 . S
C952 C971 1.429 . S
C952 H976 0.950 . S
C953 C970 1.574 . S
C953 C972 1.368 . S
C953 H977 0.949 . S
H954 C958 0.949 . S
C955 C956 1.349 . S
C955 C957 1.327 . S
C955 H978 0.950 . S
C956 C955 1.349 . S
C956 C968 1.349 . S
C957 C955 1.327 . S
C957 C973 1.429 . S
C957 H979 0.950 . S
C958 H954 0.949 . S
C958 C966 1.574 . S
C958 C974 1.368 . S
H959 C967 0.950 . S
H960 C965 0.950 . S
H961 C966 0.949 . S
H962 C968 0.950 . S
H963 C969 0.950 . S
H964 C970 0.949 . S
C965 H960 0.950 . S
C965 C967 1.327 . S
C965 C971 1.429 . S
C966 C958 1.574 . S
C966 H961 0.949 . S
C966 C972 1.368 . S
C967 C951 1.349 . S
C967 H959 0.950 . S
C967 C965 1.327 . S
C968 C956 1.349 . S
C968 H962 0.950 . S
C968 C969 1.327 . S
C969 H963 0.950 . S
C969 C968 1.327 . S
C969 C973 1.429 . S
C970 C953 1.574 . S
C970 H964 0.949 . S
C970 C974 1.368 . S
C971 C952 1.429 . S
C971 C965 1.429 . S
C971 C972 1.523 . S
C972 C953 1.368 . S
C972 C966 1.368 . S
C972 C971 1.523 . S
C973 C957 1.429 . S
C973 C969 1.429 . S
C973 C974 1.523 . S
C974 C958 1.368 . S
C974 C970 1.368 . S
C974 C973 1.523 . S
H975 C950 0.950 . S
H976 C952 0.950 . S
H977 C953 0.949 . S
H978 C955 0.950 . S
H979 C957 0.950 . S
C980 C981 1.349 . S
C980 C982 1.327 . S
C980 H1005 0.950 . S
C981 C980 1.349 . S
C981 C997 1.349 . S
C982 C980 1.327 . S
C982 C1001 1.429 . S
C982 H1006 0.950 . S
C983 C1000 1.574 . S
C983 C1002 1.368 . S
C983 H1007 0.949 . S
H984 C988 0.949 . S
C985 C986 1.349 . S
C985 C987 1.327 . S
C985 H1008 0.950 . S
C986 C985 1.349 . S
C986 C998 1.349 . S
C987 C985 1.327 . S
C987 C1003 1.429 . S
C987 H1009 0.950 . S
C988 H984 0.949 . S
C988 C996 1.574 . S
C988 C1004 1.368 . S
H989 C997 0.950 . S
H990 C995 0.950 . S
H991 C996 0.949 . S
H992 C998 0.950 . S
H993 C999 0.950 . S
H994 C1000 0.949 . S
C995 H990 0.950 . S
C995 C997 1.327 . S
C995 C1001 1.429 . S
C996 C988 1.574 . S
C996 H991 0.949 . S
C996 C1002 1.368 . S
C997 C981 1.349 . S
C997 H989 0.950 . S
C997 C995 1.327 . S
C998 C986 1.349 . S
C998 H992 0.950 . S
C998 C999 1.327 . S
C999 H993 0.950 . S
C999 C998 1.327 . S
C999 C1003 1.429 . S
C1000 C983 1.574 . S
C1000 H994 0.949 . S
C1000 C1004 1.368 . S
C1001 C982 1.429 . S
C1001 C995 1.429 . S
C1001 C1002 1.523 . S
C1002 C983 1.368 . S
C1002 C996 1.368 . S
C1002 C1001 1.523 . S
C1003 C987 1.429 . S
C1003 C999 1.429 . S
C1003 C1004 1.523 . S
C1004 C988 1.368 . S
C1004 C1000 1.368 . S
C1004 C1003 1.523 . S
H1005 C980 0.950 . S
H1006 C982 0.950 . S
H1007 C983 0.949 . S
H1008 C985 0.950 . S
H1009 C987 0.950 . S
C1010 C1011 1.349 . S
C1010 C1012 1.327 . S
C1010 H1035 0.950 . S
C1011 C1010 1.349 . S
C1011 C1027 1.349 . S
C1012 C1010 1.327 . S
C1012 C1031 1.429 . S
C1012 H1036 0.950 . S
C1013 C1030 1.574 . S
C1013 C1032 1.368 . S
C1013 H1037 0.949 . S
H1014 C1018 0.949 . S
C1015 C1016 1.349 . S
C1015 C1017 1.327 . S
C1015 H1038 0.950 . S
C1016 C1015 1.349 . S
C1016 C1028 1.349 . S
C1017 C1015 1.327 . S
C1017 C1033 1.429 . S
C1017 H1039 0.950 . S
C1018 H1014 0.949 . S
C1018 C1026 1.574 . S
C1018 C1034 1.368 . S
H1019 C1027 0.950 . S
H1020 C1025 0.950 . S
H1021 C1026 0.949 . S
H1022 C1028 0.950 . S
H1023 C1029 0.950 . S
H1024 C1030 0.949 . S
C1025 H1020 0.950 . S
C1025 C1027 1.327 . S
C1025 C1031 1.429 . S
C1026 C1018 1.574 . S
C1026 H1021 0.949 . S
C1026 C1032 1.368 . S
C1027 C1011 1.349 . S
C1027 H1019 0.950 . S
C1027 C1025 1.327 . S
C1028 C1016 1.349 . S
C1028 H1022 0.950 . S
C1028 C1029 1.327 . S
C1029 H1023 0.950 . S
C1029 C1028 1.327 . S
C1029 C1033 1.429 . S
C1030 C1013 1.574 . S
C1030 H1024 0.949 . S
C1030 C1034 1.368 . S
C1031 C1012 1.429 . S
C1031 C1025 1.429 . S
C1031 C1032 1.523 . S
C1032 C1013 1.368 . S
C1032 C1026 1.368 . S
C1032 C1031 1.523 . S
C1033 C1017 1.429 . S
C1033 C1029 1.429 . S
C1033 C1034 1.523 . S
C1034 C1018 1.368 . S
C1034 C1030 1.368 . S
C1034 C1033 1.523 . S
H1035 C1010 0.950 . S
H1036 C1012 0.950 . S
H1037 C1013 0.949 . S
H1038 C1015 0.950 . S
H1039 C1017 0.950 . S
C1040 C1041 1.349 . S
C1040 C1042 1.327 . S
C1040 H1065 0.950 . S
C1041 C1040 1.349 . S
C1041 C1057 1.349 . S
C1042 C1040 1.327 . S
C1042 C1061 1.429 . S
C1042 H1066 0.950 . S
C1043 C1060 1.574 . S
C1043 C1062 1.368 . S
C1043 H1067 0.949 . S
H1044 C1048 0.949 . S
C1045 C1046 1.349 . S
C1045 C1047 1.327 . S
C1045 H1068 0.950 . S
C1046 C1045 1.349 . S
C1046 C1058 1.349 . S
C1047 C1045 1.327 . S
C1047 C1063 1.429 . S
C1047 H1069 0.950 . S
C1048 H1044 0.949 . S
C1048 C1056 1.574 . S
C1048 C1064 1.368 . S
H1049 C1057 0.950 . S
H1050 C1055 0.950 . S
H1051 C1056 0.949 . S
H1052 C1058 0.950 . S
H1053 C1059 0.950 . S
H1054 C1060 0.949 . S
C1055 H1050 0.950 . S
C1055 C1057 1.327 . S
C1055 C1061 1.429 . S
C1056 C1048 1.574 . S
C1056 H1051 0.949 . S
C1056 C1062 1.368 . S
C1057 C1041 1.349 . S
C1057 H1049 0.950 . S
C1057 C1055 1.327 . S
C1058 C1046 1.349 . S
C1058 H1052 0.950 . S
C1058 C1059 1.327 . S
C1059 H1053 0.950 . S
C1059 C1058 1.327 . S
C1059 C1063 1.429 . S
C1060 C1043 1.574 . S
C1060 H1054 0.949 . S
C1060 C1064 1.368 . S
C1061 C1042 1.429 . S
C1061 C1055 1.429 . S
C1061 C1062 1.523 . S
C1062 C1043 1.368 . S
C1062 C1056 1.368 . S
C1062 C1061 1.523 . S
C1063 C1047 1.429 . S
C1063 C1059 1.429 . S
C1063 C1064 1.523 . S
C1064 C1048 1.368 . S
C1064 C1060 1.368 . S
C1064 C1063 1.523 . S
H1065 C1040 0.950 . S
H1066 C1042 0.950 . S
H1067 C1043 0.949 . S
H1068 C1045 0.950 . S
H1069 C1047 0.950 . S
C1070 C1071 1.349 . S
C1070 C1072 1.327 . S
C1070 H1095 0.950 . S
C1071 C1070 1.349 . S
C1071 C1087 1.349 . S
C1072 C1070 1.327 . S
C1072 C1091 1.429 . S
C1072 H1096 0.950 . S
C1073 C1090 1.574 . S
C1073 C1092 1.368 . S
C1073 H1097 0.949 . S
H1074 C1078 0.949 . S
C1075 C1076 1.349 . S
C1075 C1077 1.327 . S
C1075 H1098 0.950 . S
C1076 C1075 1.349 . S
C1076 C1088 1.349 . S
C1077 C1075 1.327 . S
C1077 C1093 1.429 . S
C1077 H1099 0.950 . S
C1078 H1074 0.949 . S
C1078 C1086 1.574 . S
C1078 C1094 1.368 . S
H1079 C1087 0.950 . S
H1080 C1085 0.950 . S
H1081 C1086 0.949 . S
H1082 C1088 0.950 . S
H1083 C1089 0.950 . S
H1084 C1090 0.949 . S
C1085 H1080 0.950 . S
C1085 C1087 1.327 . S
C1085 C1091 1.429 . S
C1086 C1078 1.574 . S
C1086 H1081 0.949 . S
C1086 C1092 1.368 . S
C1087 C1071 1.349 . S
C1087 H1079 0.950 . S
C1087 C1085 1.327 . S
C1088 C1076 1.349 . S
C1088 H1082 0.950 . S
C1088 C1089 1.327 . S
C1089 H1083 0.950 . S
C1089 C1088 1.327 . S
C1089 C1093 1.429 . S
C1090 C1073 1.574 . S
C1090 H1084 0.949 . S
C1090 C1094 1.368 . S
C1091 C1072 1.429 . S
C1091 C1085 1.429 . S
C1091 C1092 1.523 . S
C1092 C1073 1.368 . S
C1092 C1086 1.368 . S
C1092 C1091 1.523 . S
C1093 C1077 1.429 . S
C1093 C1089 1.429 . S
C1093 C1094 1.523 . S
C1094 C1078 1.368 . S
C1094 C1090 1.368 . S
C1094 C1093 1.523 . S
H1095 C1070 0.950 . S
H1096 C1072 0.950 . S
H1097 C1073 0.949 . S
H1098 C1075 0.950 . S
H1099 C1077 0.950 . S
C1100 C1101 1.349 . S
C1100 C1102 1.327 . S
C1100 H1125 0.950 . S
C1101 C1100 1.349 . S
C1101 C1117 1.349 . S
C1102 C1100 1.327 . S
C1102 C1121 1.429 . S
C1102 H1126 0.950 . S
C1103 C1120 1.574 . S
C1103 C1122 1.368 . S
C1103 H1127 0.949 . S
H1104 C1108 0.949 . S
C1105 C1106 1.349 . S
C1105 C1107 1.327 . S
C1105 H1128 0.950 . S
C1106 C1105 1.349 . S
C1106 C1118 1.349 . S
C1107 C1105 1.327 . S
C1107 C1123 1.429 . S
C1107 H1129 0.950 . S
C1108 H1104 0.949 . S
C1108 C1116 1.574 . S
C1108 C1124 1.368 . S
H1109 C1117 0.950 . S
H1110 C1115 0.950 . S
H1111 C1116 0.949 . S
H1112 C1118 0.950 . S
H1113 C1119 0.950 . S
H1114 C1120 0.949 . S
C1115 H1110 0.950 . S
C1115 C1117 1.327 . S
C1115 C1121 1.429 . S
C1116 C1108 1.574 . S
C1116 H1111 0.949 . S
C1116 C1122 1.368 . S
C1117 C1101 1.349 . S
C1117 H1109 0.950 . S
C1117 C1115 1.327 . S
C1118 C1106 1.349 . S
C1118 H1112 0.950 . S
C1118 C1119 1.327 . S
C1119 H1113 0.950 . S
C1119 C1118 1.327 . S
C1119 C1123 1.429 . S
C1120 C1103 1.574 . S
C1120 H1114 0.949 . S
C1120 C1124 1.368 . S
C1121 C1102 1.429 . S
C1121 C1115 1.429 . S
C1121 C1122 1.523 . S
C1122 C1103 1.368 . S
C1122 C1116 1.368 . S
C1122 C1121 1.523 . S
C1123 C1107 1.429 . S
C1123 C1119 1.429 . S
C1123 C1124 1.523 . S
C1124 C1108 1.368 . S
C1124 C1120 1.368 . S
C1124 C1123 1.523 . S
H1125 C1100 0.950 . S
H1126 C1102 0.950 . S
H1127 C1103 0.949 . S
H1128 C1105 0.950 . S
H1129 C1107 0.950 . S
C1130 C1131 1.349 . S
C1130 C1132 1.327 . S
C1130 H1155 0.950 . S
C1131 C1130 1.349 . S
C1131 C1147 1.349 . S
C1132 C1130 1.327 . S
C1132 C1151 1.429 . S
C1132 H1156 0.950 . S
C1133 C1150 1.574 . S
C1133 C1152 1.368 . S
C1133 H1157 0.949 . S
H1134 C1138 0.949 . S
C1135 C1136 1.349 . S
C1135 C1137 1.327 . S
C1135 H1158 0.950 . S
C1136 C1135 1.349 . S
C1136 C1148 1.349 . S
C1137 C1135 1.327 . S
C1137 C1153 1.429 . S
C1137 H1159 0.950 . S
C1138 H1134 0.949 . S
C1138 C1146 1.574 . S
C1138 C1154 1.368 . S
H1139 C1147 0.950 . S
H1140 C1145 0.950 . S
H1141 C1146 0.949 . S
H1142 C1148 0.950 . S
H1143 C1149 0.950 . S
H1144 C1150 0.949 . S
C1145 H1140 0.950 . S
C1145 C1147 1.327 . S
C1145 C1151 1.429 . S
C1146 C1138 1.574 . S
C1146 H1141 0.949 . S
C1146 C1152 1.368 . S
C1147 C1131 1.349 . S
C1147 H1139 0.950 . S
C1147 C1145 1.327 . S
C1148 C1136 1.349 . S
C1148 H1142 0.950 . S
C1148 C1149 1.327 . S
C1149 H1143 0.950 . S
C1149 C1148 1.327 . S
C1149 C1153 1.429 . S
C1150 C1133 1.574 . S
C1150 H1144 0.949 . S
C1150 C1154 1.368 . S
C1151 C1132 1.429 . S
C1151 C1145 1.429 . S
C1151 C1152 1.523 . S
C1152 C1133 1.368 . S
C1152 C1146 1.368 . S
C1152 C1151 1.523 . S
C1153 C1137 1.429 . S
C1153 C1149 1.429 . S
C1153 C1154 1.523 . S
C1154 C1138 1.368 . S
C1154 C1150 1.368 . S
C1154 C1153 1.523 . S
H1155 C1130 0.950 . S
H1156 C1132 0.950 . S
H1157 C1133 0.949 . S
H1158 C1135 0.950 . S
H1159 C1137 0.950 . S
C1160 C1161 1.349 . S
C1160 C1162 1.327 . S
C1160 H1185 0.950 . S
C1161 C1160 1.349 . S
C1161 C1177 1.349 . S
C1162 C1160 1.327 . S
C1162 C1181 1.429 . S
C1162 H1186 0.950 . S
C1163 C1180 1.574 . S
C1163 C1182 1.368 . S
C1163 H1187 0.949 . S
H1164 C1168 0.949 . S
C1165 C1166 1.349 . S
C1165 C1167 1.327 . S
C1165 H1188 0.950 . S
C1166 C1165 1.349 . S
C1166 C1178 1.349 . S
C1167 C1165 1.327 . S
C1167 C1183 1.429 . S
C1167 H1189 0.950 . S
C1168 H1164 0.949 . S
C1168 C1176 1.574 . S
C1168 C1184 1.368 . S
H1169 C1177 0.950 . S
H1170 C1175 0.950 . S
H1171 C1176 0.949 . S
H1172 C1178 0.950 . S
H1173 C1179 0.950 . S
H1174 C1180 0.949 . S
C1175 H1170 0.950 . S
C1175 C1177 1.327 . S
C1175 C1181 1.429 . S
C1176 C1168 1.574 . S
C1176 H1171 0.949 . S
C1176 C1182 1.368 . S
C1177 C1161 1.349 . S
C1177 H1169 0.950 . S
C1177 C1175 1.327 . S
C1178 C1166 1.349 . S
C1178 H1172 0.950 . S
C1178 C1179 1.327 . S
C1179 H1173 0.950 . S
C1179 C1178 1.327 . S
C1179 C1183 1.429 . S
C1180 C1163 1.574 . S
C1180 H1174 0.949 . S
C1180 C1184 1.368 . S
C1181 C1162 1.429 . S
C1181 C1175 1.429 . S
C1181 C1182 1.523 . S
C1182 C1163 1.368 . S
C1182 C1176 1.368 . S
C1182 C1181 1.523 . S
C1183 C1167 1.429 . S
C1183 C1179 1.429 . S
C1183 C1184 1.523 . S
C1184 C1168 1.368 . S
C1184 C1180 1.368 . S
C1184 C1183 1.523 . S
H1185 C1160 0.950 . S
H1186 C1162 0.950 . S
H1187 C1163 0.949 . S
H1188 C1165 0.950 . S
H1189 C1167 0.950 . S
C1190 C1191 1.349 . S
C1190 C1192 1.327 . S
C1190 H1215 0.950 . S
C1191 C1190 1.349 . S
C1191 C1207 1.349 . S
C1192 C1190 1.327 . S
C1192 C1211 1.429 . S
C1192 H1216 0.950 . S
C1193 C1210 1.574 . S
C1193 C1212 1.368 . S
C1193 H1217 0.949 . S
H1194 C1198 0.949 . S
C1195 C1196 1.349 . S
C1195 C1197 1.327 . S
C1195 H1218 0.950 . S
C1196 C1195 1.349 . S
C1196 C1208 1.349 . S
C1197 C1195 1.327 . S
C1197 C1213 1.429 . S
C1197 H1219 0.950 . S
C1198 H1194 0.949 . S
C1198 C1206 1.574 . S
C1198 C1214 1.368 . S
H1199 C1207 0.950 . S
H1200 C1205 0.950 . S
H1201 C1206 0.949 . S
H1202 C1208 0.950 . S
H1203 C1209 0.950 . S
H1204 C1210 0.949 . S
C1205 H1200 0.950 . S
C1205 C1207 1.327 . S
C1205 C1211 1.429 . S
C1206 C1198 1.574 . S
C1206 H1201 0.949 . S
C1206 C1212 1.368 . S
C1207 C1191 1.349 . S
C1207 H1199 0.950 . S
C1207 C1205 1.327 . S
C1208 C1196 1.349 . S
C1208 H1202 0.950 . S
C1208 C1209 1.327 . S
C1209 H1203 0.950 . S
C1209 C1208 1.327 . S
C1209 C1213 1.429 . S
C1210 C1193 1.574 . S
C1210 H1204 0.949 . S
C1210 C1214 1.368 . S
C1211 C1192 1.429 . S
C1211 C1205 1.429 . S
C1211 C1212 1.523 . S
C1212 C1193 1.368 . S
C1212 C1206 1.368 . S
C1212 C1211 1.523 . S
C1213 C1197 1.429 . S
C1213 C1209 1.429 . S
C1213 C1214 1.523 . S
C1214 C1198 1.368 . S
C1214 C1210 1.368 . S
C1214 C1213 1.523 . S
H1215 C1190 0.950 . S
H1216 C1192 0.950 . S
H1217 C1193 0.949 . S
H1218 C1195 0.950 . S
H1219 C1197 0.950 . S
C1220 C1221 1.349 . S
C1220 C1222 1.327 . S
C1220 H1245 0.950 . S
C1221 C1220 1.349 . S
C1221 C1237 1.349 . S
C1222 C1220 1.327 . S
C1222 C1241 1.429 . S
C1222 H1246 0.950 . S
C1223 C1240 1.574 . S
C1223 C1242 1.368 . S
C1223 H1247 0.949 . S
H1224 C1228 0.949 . S
C1225 C1226 1.349 . S
C1225 C1227 1.327 . S
C1225 H1248 0.950 . S
C1226 C1225 1.349 . S
C1226 C1238 1.349 . S
C1227 C1225 1.327 . S
C1227 C1243 1.429 . S
C1227 H1249 0.950 . S
C1228 H1224 0.949 . S
C1228 C1236 1.574 . S
C1228 C1244 1.368 . S
H1229 C1237 0.950 . S
H1230 C1235 0.950 . S
H1231 C1236 0.949 . S
H1232 C1238 0.950 . S
H1233 C1239 0.950 . S
H1234 C1240 0.949 . S
C1235 H1230 0.950 . S
C1235 C1237 1.327 . S
C1235 C1241 1.429 . S
C1236 C1228 1.574 . S
C1236 H1231 0.949 . S
C1236 C1242 1.368 . S
C1237 C1221 1.349 . S
C1237 H1229 0.950 . S
C1237 C1235 1.327 . S
C1238 C1226 1.349 . S
C1238 H1232 0.950 . S
C1238 C1239 1.327 . S
C1239 H1233 0.950 . S
C1239 C1238 1.327 . S
C1239 C1243 1.429 . S
C1240 C1223 1.574 . S
C1240 H1234 0.949 . S
C1240 C1244 1.368 . S
C1241 C1222 1.429 . S
C1241 C1235 1.429 . S
C1241 C1242 1.523 . S
C1242 C1223 1.368 . S
C1242 C1236 1.368 . S
C1242 C1241 1.523 . S
C1243 C1227 1.429 . S
C1243 C1239 1.429 . S
C1243 C1244 1.523 . S
C1244 C1228 1.368 . S
C1244 C1240 1.368 . S
C1244 C1243 1.523 . S
H1245 C1220 0.950 . S
H1246 C1222 0.950 . S
H1247 C1223 0.949 . S
H1248 C1225 0.950 . S
H1249 C1227 0.950 . S
C1250 C1251 1.349 . S
C1250 C1252 1.327 . S
C1250 H1275 0.950 . S
C1251 C1250 1.349 . S
C1251 C1267 1.349 . S
C1252 C1250 1.327 . S
C1252 C1271 1.429 . S
C1252 H1276 0.950 . S
C1253 C1270 1.574 . S
C1253 C1272 1.368 . S
C1253 H1277 0.949 . S
H1254 C1258 0.949 . S
C1255 C1256 1.349 . S
C1255 C1257 1.327 . S
C1255 H1278 0.950 . S
C1256 C1255 1.349 . S
C1256 C1268 1.349 . S
C1257 C1255 1.327 . S
C1257 C1273 1.429 . S
C1257 H1279 0.950 . S
C1258 H1254 0.949 . S
C1258 C1266 1.574 . S
C1258 C1274 1.368 . S
H1259 C1267 0.950 . S
H1260 C1265 0.950 . S
H1261 C1266 0.949 . S
H1262 C1268 0.950 . S
H1263 C1269 0.950 . S
H1264 C1270 0.949 . S
C1265 H1260 0.950 . S
C1265 C1267 1.327 . S
C1265 C1271 1.429 . S
C1266 C1258 1.574 . S
C1266 H1261 0.949 . S
C1266 C1272 1.368 . S
C1267 C1251 1.349 . S
C1267 H1259 0.950 . S
C1267 C1265 1.327 . S
C1268 C1256 1.349 . S
C1268 H1262 0.950 . S
C1268 C1269 1.327 . S
C1269 H1263 0.950 . S
C1269 C1268 1.327 . S
C1269 C1273 1.429 . S
C1270 C1253 1.574 . S
C1270 H1264 0.949 . S
C1270 C1274 1.368 . S
C1271 C1252 1.429 . S
C1271 C1265 1.429 . S
C1271 C1272 1.523 . S
C1272 C1253 1.368 . S
C1272 C1266 1.368 . S
C1272 C1271 1.523 . S
C1273 C1257 1.429 . S
C1273 C1269 1.429 . S
C1273 C1274 1.523 . S
C1274 C1258 1.368 . S
C1274 C1270 1.368 . S
C1274 C1273 1.523 . S
H1275 C1250 0.950 . S
H1276 C1252 0.950 . S
H1277 C1253 0.949 . S
H1278 C1255 0.950 . S
H1279 C1257 0.950 . S
C1280 C1281 1.349 . S
C1280 C1282 1.327 . S
C1280 H1305 0.950 . S
C1281 C1280 1.349 . S
C1281 C1297 1.349 . S
C1282 C1280 1.327 . S
C1282 C1301 1.429 . S
C1282 H1306 0.950 . S
C1283 C1300 1.574 . S
C1283 C1302 1.368 1_454 S
C1283 H1307 0.949 . S
H1284 C1288 0.949 . S
C1285 C1286 1.349 . S
C1285 C1287 1.327 . S
C1285 H1308 0.950 . S
C1286 C1285 1.349 . S
C1286 C1298 1.349 . S
C1287 C1285 1.327 . S
C1287 C1303 1.429 . S
C1287 H1309 0.950 . S
C1288 H1284 0.949 . S
C1288 C1296 1.574 . S
C1288 C1304 1.368 1_656 S
H1289 C1297 0.950 . S
H1290 C1295 0.950 . S
H1291 C1296 0.949 . S
H1292 C1298 0.950 . S
H1293 C1299 0.950 . S
H1294 C1300 0.949 . S
C1295 H1290 0.950 . S
C1295 C1297 1.327 . S
C1295 C1301 1.429 . S
C1296 C1288 1.574 . S
C1296 H1291 0.949 . S
C1296 C1302 1.368 . S
C1297 C1281 1.349 . S
C1297 H1289 0.950 . S
C1297 C1295 1.327 . S
C1298 C1286 1.349 . S
C1298 H1292 0.950 . S
C1298 C1299 1.327 . S
C1299 H1293 0.950 . S
C1299 C1298 1.327 . S
C1299 C1303 1.429 . S
C1300 C1283 1.574 . S
C1300 H1294 0.949 . S
C1300 C1304 1.368 . S
C1301 C1282 1.429 . S
C1301 C1295 1.429 . S
C1301 C1302 1.523 . S
C1302 C1283 1.368 1_656 S
C1302 C1296 1.368 . S
C1302 C1301 1.523 . S
C1303 C1287 1.429 . S
C1303 C1299 1.429 . S
C1303 C1304 1.523 . S
C1304 C1288 1.368 1_454 S
C1304 C1300 1.368 . S
C1304 C1303 1.523 . S
H1305 C1280 0.950 . S
H1306 C1282 0.950 . S
H1307 C1283 0.949 . S
H1308 C1285 0.950 . S
H1309 C1287 0.950 . S
C1310 C1311 1.349 . S
C1310 C1312 1.327 . S
C1310 H1335 0.950 . S
C1311 C1310 1.349 . S
C1311 C1327 1.349 . S
C1312 C1310 1.327 . S
C1312 C1331 1.429 . S
C1312 H1336 0.950 . S
C1313 C1330 1.587 . S
C1313 C1332 1.354 1_544 S
C1313 H1337 0.950 . S
H1314 C1318 0.950 . S
C1315 C1316 1.349 . S
C1315 C1317 1.327 . S
C1315 H1338 0.950 . S
C1316 C1315 1.349 . S
C1316 C1328 1.349 . S
C1317 C1315 1.327 . S
C1317 C1333 1.429 . S
C1317 H1339 0.950 . S
C1318 H1314 0.950 . S
C1318 C1326 1.587 . S
C1318 C1334 1.354 1_566 S
H1319 C1327 0.950 . S
H1320 C1325 0.950 . S
H1321 C1326 0.949 . S
H1322 C1328 0.950 . S
H1323 C1329 0.950 . S
H1324 C1330 0.949 . S
C1325 H1320 0.950 . S
C1325 C1327 1.327 . S
C1325 C1331 1.429 . S
C1326 C1318 1.587 . S
C1326 H1321 0.949 . S
C1326 C1332 1.368 1_655 S
C1327 C1311 1.349 . S
C1327 H1319 0.950 . S
C1327 C1325 1.327 . S
C1328 C1316 1.349 . S
C1328 H1322 0.950 . S
C1328 C1329 1.327 . S
C1329 H1323 0.950 . S
C1329 C1328 1.327 . S
C1329 C1333 1.429 . S
C1330 C1313 1.587 . S
C1330 H1324 0.949 . S
C1330 C1334 1.368 1_455 S
C1331 C1312 1.429 . S
C1331 C1325 1.429 . S
C1331 C1332 1.523 . S
C1332 C1313 1.354 1_566 S
C1332 C1326 1.368 1_455 S
C1332 C1331 1.523 . S
C1333 C1317 1.429 . S
C1333 C1329 1.429 . S
C1333 C1334 1.523 . S
C1334 C1318 1.354 1_544 S
C1334 C1330 1.368 1_655 S
C1334 C1333 1.523 . S
H1335 C1310 0.950 . S
H1336 C1312 0.950 . S
H1337 C1313 0.950 . S
H1338 C1315 0.950 . S
H1339 C1317 0.950 . S
C1340 C1341 1.349 . S
C1340 C1342 1.327 . S
C1340 H1365 0.950 . S
C1341 C1340 1.349 . S
C1341 C1357 1.349 . S
C1342 C1340 1.327 . S
C1342 C1361 1.429 . S
C1342 H1366 0.950 . S
C1343 C1360 1.574 . S
C1343 C1362 1.368 1_565 S
C1343 H1367 0.949 . S
H1344 C1348 0.949 . S
C1345 C1346 1.349 . S
C1345 C1347 1.327 . S
C1345 H1368 0.950 . S
C1346 C1345 1.349 . S
C1346 C1358 1.349 . S
C1347 C1345 1.327 . S
C1347 C1363 1.429 . S
C1347 H1369 0.950 . S
C1348 H1344 0.949 . S
C1348 C1356 1.574 . S
C1348 C1364 1.368 1_545 S
H1349 C1357 0.950 . S
H1350 C1355 0.950 . S
H1351 C1356 0.949 . S
H1352 C1358 0.950 . S
H1353 C1359 0.950 . S
H1354 C1360 0.949 . S
C1355 H1350 0.950 . S
C1355 C1357 1.327 . S
C1355 C1361 1.429 . S
C1356 C1348 1.574 . S
C1356 H1351 0.949 . S
C1356 C1362 1.368 1_554 S
C1357 C1341 1.349 . S
C1357 H1349 0.950 . S
C1357 C1355 1.327 . S
C1358 C1346 1.349 . S
C1358 H1352 0.950 . S
C1358 C1359 1.327 . S
C1359 H1353 0.950 . S
C1359 C1358 1.327 . S
C1359 C1363 1.429 . S
C1360 C1343 1.574 . S
C1360 H1354 0.949 . S
C1360 C1364 1.368 1_556 S
C1361 C1342 1.429 . S
C1361 C1355 1.429 . S
C1361 C1362 1.523 . S
C1362 C1343 1.368 1_545 S
C1362 C1356 1.368 1_556 S
C1362 C1361 1.523 . S
C1363 C1347 1.429 . S
C1363 C1359 1.429 . S
C1363 C1364 1.523 . S
C1364 C1348 1.368 1_565 S
C1364 C1360 1.368 1_554 S
C1364 C1363 1.523 . S
H1365 C1340 0.950 . S
H1366 C1342 0.950 . S
H1367 C1343 0.949 . S
H1368 C1345 0.950 . S
H1369 C1347 0.950 . S
C1370 C1371 1.349 . S
C1370 C1372 1.327 . S
C1370 H1395 0.950 . S
C1371 C1370 1.349 . S
C1371 C1387 1.349 . S
C1372 C1370 1.327 . S
C1372 C1391 1.429 . S
C1372 H1396 0.950 . S
C1373 C1390 1.574 1_554 S
C1373 C1392 1.368 . S
C1373 H1397 0.949 . S
H1374 C1378 0.949 . S
C1375 C1376 1.349 . S
C1375 C1377 1.327 . S
C1375 H1398 0.950 . S
C1376 C1375 1.349 . S
C1376 C1388 1.349 . S
C1377 C1375 1.327 . S
C1377 C1393 1.429 . S
C1377 H1399 0.950 . S
C1378 H1374 0.949 . S
C1378 C1386 1.574 1_556 S
C1378 C1394 1.368 . S
H1379 C1387 0.950 . S
H1380 C1385 0.950 . S
H1381 C1386 0.949 . S
H1382 C1388 0.950 . S
H1383 C1389 0.950 . S
H1384 C1390 0.949 . S
C1385 H1380 0.950 . S
C1385 C1387 1.327 . S
C1385 C1391 1.429 . S
C1386 C1378 1.574 1_554 S
C1386 H1381 0.949 . S
C1386 C1392 1.368 . S
C1387 C1371 1.349 . S
C1387 H1379 0.950 . S
C1387 C1385 1.327 . S
C1388 C1376 1.349 . S
C1388 H1382 0.950 . S
C1388 C1389 1.327 . S
C1389 H1383 0.950 . S
C1389 C1388 1.327 . S
C1389 C1393 1.429 . S
C1390 C1373 1.574 1_556 S
C1390 H1384 0.949 . S
C1390 C1394 1.368 . S
C1391 C1372 1.429 . S
C1391 C1385 1.429 . S
C1391 C1392 1.523 . S
C1392 C1373 1.368 . S
C1392 C1386 1.368 . S
C1392 C1391 1.523 . S
C1393 C1377 1.429 . S
C1393 C1389 1.429 . S
C1393 C1394 1.523 . S
C1394 C1378 1.368 . S
C1394 C1390 1.368 . S
C1394 C1393 1.523 . S
H1395 C1370 0.950 . S
H1396 C1372 0.950 . S
H1397 C1373 0.949 . S
H1398 C1375 0.950 . S
H1399 C1377 0.950 . S
C1400 C1401 1.349 . S
C1400 C1402 1.327 . S
C1400 H1425 0.950 . S
C1401 C1400 1.349 . S
C1401 C1417 1.349 . S
C1402 C1400 1.327 . S
C1402 C1421 1.429 . S
C1402 H1426 0.950 . S
C1403 C1420 1.574 1_545 S
C1403 C1422 1.368 1_455 S
C1403 H1427 0.949 . S
H1404 C1408 0.949 . S
C1405 C1406 1.349 . S
C1405 C1407 1.327 . S
C1405 H1428 0.950 . S
C1406 C1405 1.349 . S
C1406 C1418 1.349 . S
C1407 C1405 1.327 . S
C1407 C1423 1.429 . S
C1407 H1429 0.950 . S
C1408 H1404 0.949 . S
C1408 C1416 1.574 1_565 S
C1408 C1424 1.368 1_655 S
H1409 C1417 0.950 . S
H1410 C1415 0.950 1_455 S
H1411 C1416 0.949 . S
H1412 C1418 0.950 . S
H1413 C1419 0.950 1_655 S
H1414 C1420 0.949 . S
C1415 H1410 0.950 1_655 S
C1415 C1417 1.327 . S
C1415 C1421 1.429 . S
C1416 C1408 1.574 1_545 S
C1416 H1411 0.949 . S
C1416 C1422 1.368 . S
C1417 C1401 1.349 . S
C1417 H1409 0.950 . S
C1417 C1415 1.327 . S
C1418 C1406 1.349 . S
C1418 H1412 0.950 . S
C1418 C1419 1.327 . S
C1419 H1413 0.950 1_455 S
C1419 C1418 1.327 . S
C1419 C1423 1.429 . S
C1420 C1403 1.574 1_565 S
C1420 H1414 0.949 . S
C1420 C1424 1.368 . S
C1421 C1402 1.429 . S
C1421 C1415 1.429 . S
C1421 C1422 1.523 . S
C1422 C1403 1.368 1_655 S
C1422 C1416 1.368 . S
C1422 C1421 1.523 . S
C1423 C1407 1.429 . S
C1423 C1419 1.429 . S
C1423 C1424 1.523 . S
C1424 C1408 1.368 1_455 S
C1424 C1420 1.368 . S
C1424 C1423 1.523 . S
H1425 C1400 0.950 . S
H1426 C1402 0.950 . S
H1427 C1403 0.949 . S
H1428 C1405 0.950 . S
H1429 C1407 0.950 . S
C1430 C1431 1.349 . S
C1430 C1432 1.327 . S
C1430 H1455 0.950 . S
C1431 C1430 1.349 . S
C1431 C1447 1.349 . S
C1432 C1430 1.327 . S
C1432 C1451 1.429 . S
C1432 H1456 0.950 1_565 S
C1433 C1450 1.574 . S
C1433 C1452 1.368 . S
C1433 H1457 0.949 . S
H1434 C1438 0.949 . S
C1435 C1436 1.349 . S
C1435 C1437 1.327 . S
C1435 H1458 0.950 . S
C1436 C1435 1.349 . S
C1436 C1448 1.349 . S
C1437 C1435 1.327 . S
C1437 C1453 1.429 . S
C1437 H1459 0.950 1_545 S
C1438 H1434 0.949 . S
C1438 C1446 1.574 . S
C1438 C1454 1.368 . S
H1439 C1447 0.950 . S
H1440 C1445 0.950 . S
H1441 C1446 0.949 . S
H1442 C1448 0.950 . S
H1443 C1449 0.950 . S
H1444 C1450 0.949 . S
C1445 H1440 0.950 . S
C1445 C1447 1.327 . S
C1445 C1451 1.429 . S
C1446 C1438 1.574 . S
C1446 H1441 0.949 . S
C1446 C1452 1.368 1_545 S
C1447 C1431 1.349 . S
C1447 H1439 0.950 . S
C1447 C1445 1.327 . S
C1448 C1436 1.349 . S
C1448 H1442 0.950 . S
C1448 C1449 1.327 . S
C1449 H1443 0.950 . S
C1449 C1448 1.327 . S
C1449 C1453 1.429 . S
C1450 C1433 1.574 . S
C1450 H1444 0.949 . S
C1450 C1454 1.368 1_565 S
C1451 C1432 1.429 . S
C1451 C1445 1.429 . S
C1451 C1452 1.523 . S
C1452 C1433 1.368 . S
C1452 C1446 1.368 1_565 S
C1452 C1451 1.523 . S
C1453 C1437 1.429 . S
C1453 C1449 1.429 . S
C1453 C1454 1.523 . S
C1454 C1438 1.368 . S
C1454 C1450 1.368 1_545 S
C1454 C1453 1.523 . S
H1455 C1430 0.950 . S
H1456 C1432 0.950 1_545 S
H1457 C1433 0.949 . S
H1458 C1435 0.950 . S
H1459 C1437 0.950 1_565 S
C1460 C1461 1.349 . S
C1460 C1462 1.327 . S
C1460 H1485 0.950 . S
C1461 C1460 1.349 . S
C1461 C1477 1.349 . S
C1462 C1460 1.327 . S
C1462 C1481 1.429 . S
C1462 H1486 0.950 . S
C1463 C1480 1.574 . S
C1463 C1482 1.368 . S
C1463 H1487 0.949 . S
H1464 C1468 0.949 . S
C1465 C1466 1.349 . S
C1465 C1467 1.327 . S
C1465 H1488 0.950 . S
C1466 C1465 1.349 . S
C1466 C1478 1.349 . S
C1467 C1465 1.327 . S
C1467 C1483 1.429 . S
C1467 H1489 0.950 . S
C1468 H1464 0.949 . S
C1468 C1476 1.574 . S
C1468 C1484 1.368 . S
H1469 C1477 0.950 . S
H1470 C1475 0.950 . S
H1471 C1476 0.949 . S
H1472 C1478 0.950 . S
H1473 C1479 0.950 . S
H1474 C1480 0.949 . S
C1475 H1470 0.950 . S
C1475 C1477 1.327 . S
C1475 C1481 1.429 . S
C1476 C1468 1.574 . S
C1476 H1471 0.949 . S
C1476 C1482 1.368 . S
C1477 C1461 1.349 . S
C1477 H1469 0.950 . S
C1477 C1475 1.327 . S
C1478 C1466 1.349 . S
C1478 H1472 0.950 . S
C1478 C1479 1.327 . S
C1479 H1473 0.950 . S
C1479 C1478 1.327 . S
C1479 C1483 1.429 . S
C1480 C1463 1.574 . S
C1480 H1474 0.949 . S
C1480 C1484 1.368 . S
C1481 C1462 1.429 . S
C1481 C1475 1.429 . S
C1481 C1482 1.523 . S
C1482 C1463 1.368 . S
C1482 C1476 1.368 . S
C1482 C1481 1.523 . S
C1483 C1467 1.429 . S
C1483 C1479 1.429 . S
C1483 C1484 1.523 . S
C1484 C1468 1.368 . S
C1484 C1480 1.368 . S
C1484 C1483 1.523 . S
H1485 C1460 0.950 . S
H1486 C1462 0.950 . S
H1487 C1463 0.949 . S
H1488 C1465 0.950 . S
H1489 C1467 0.950 . S
C1490 C1491 1.349 . S
C1490 C1492 1.327 . S
C1490 H1515 0.950 . S
C1491 C1490 1.349 . S
C1491 C1507 1.349 . S
C1492 C1490 1.327 . S
C1492 C1511 1.429 . S
C1492 H1516 0.950 . S
C1493 C1510 1.574 . S
C1493 C1512 1.368 . S
C1493 H1517 0.949 . S
H1494 C1498 0.949 . S
C1495 C1496 1.349 . S
C1495 C1497 1.327 . S
C1495 H1518 0.950 . S
C1496 C1495 1.349 . S
C1496 C1508 1.349 . S
C1497 C1495 1.327 . S
C1497 C1513 1.429 . S
C1497 H1519 0.950 . S
C1498 H1494 0.949 . S
C1498 C1506 1.574 . S
C1498 C1514 1.368 . S
H1499 C1507 0.950 . S
H1500 C1505 0.950 . S
H1501 C1506 0.949 . S
H1502 C1508 0.950 . S
H1503 C1509 0.950 . S
H1504 C1510 0.949 . S
C1505 H1500 0.950 . S
C1505 C1507 1.327 . S
C1505 C1511 1.429 . S
C1506 C1498 1.574 . S
C1506 H1501 0.949 . S
C1506 C1512 1.368 1_655 S
C1507 C1491 1.349 . S
C1507 H1499 0.950 . S
C1507 C1505 1.327 . S
C1508 C1496 1.349 . S
C1508 H1502 0.950 . S
C1508 C1509 1.327 . S
C1509 H1503 0.950 . S
C1509 C1508 1.327 . S
C1509 C1513 1.429 . S
C1510 C1493 1.574 . S
C1510 H1504 0.949 . S
C1510 C1514 1.368 1_455 S
C1511 C1492 1.429 . S
C1511 C1505 1.429 . S
C1511 C1512 1.523 . S
C1512 C1493 1.368 . S
C1512 C1506 1.368 1_455 S
C1512 C1511 1.523 . S
C1513 C1497 1.429 . S
C1513 C1509 1.429 . S
C1513 C1514 1.523 . S
C1514 C1498 1.368 . S
C1514 C1510 1.368 1_655 S
C1514 C1513 1.523 . S
H1515 C1490 0.950 . S
H1516 C1492 0.950 . S
H1517 C1493 0.949 . S
H1518 C1495 0.950 . S
H1519 C1497 0.950 . S
C1520 C1521 1.349 . S
C1520 C1522 1.327 . S
C1520 H1545 0.950 . S
C1521 C1520 1.349 . S
C1521 C1537 1.357 . S
C1522 C1520 1.327 . S
C1522 C1541 1.409 1_655 S
C1522 H1546 0.950 . S
C1523 C1540 1.574 . S
C1523 C1542 1.368 . S
C1523 H1547 0.949 . S
H1524 C1528 0.949 . S
C1525 C1526 1.349 . S
C1525 C1527 1.327 . S
C1525 H1548 0.950 . S
C1526 C1525 1.349 . S
C1526 C1538 1.349 . S
C1527 C1525 1.327 . S
C1527 C1543 1.429 . S
C1527 H1549 0.950 . S
C1528 H1524 0.949 . S
C1528 C1536 1.574 . S
C1528 C1544 1.368 . S
H1529 C1537 0.945 1_455 S
H1530 C1535 0.950 . S
H1531 C1536 0.949 1_655 S
H1532 C1538 0.950 . S
H1533 C1539 0.950 . S
H1534 C1540 0.949 . S
C1535 H1530 0.950 . S
C1535 C1537 1.323 1_455 S
C1535 C1541 1.440 . S
C1536 C1528 1.574 . S
C1536 H1531 0.949 1_455 S
C1536 C1542 1.368 . S
C1537 C1521 1.357 . S
C1537 H1529 0.945 1_655 S
C1537 C1535 1.323 1_655 S
C1538 C1526 1.349 . S
C1538 H1532 0.950 . S
C1538 C1539 1.327 . S
C1539 H1533 0.950 . S
C1539 C1538 1.327 . S
C1539 C1543 1.429 . S
C1540 C1523 1.574 . S
C1540 H1534 0.949 . S
C1540 C1544 1.368 . S
C1541 C1522 1.409 1_455 S
C1541 C1535 1.440 . S
C1541 C1542 1.532 . S
C1542 C1523 1.368 . S
C1542 C1536 1.368 . S
C1542 C1541 1.532 . S
C1543 C1527 1.429 . S
C1543 C1539 1.429 . S
C1543 C1544 1.523 . S
C1544 C1528 1.368 . S
C1544 C1540 1.368 . S
C1544 C1543 1.523 . S
H1545 C1520 0.950 . S
H1546 C1522 0.950 . S
H1547 C1523 0.949 . S
H1548 C1525 0.950 . S
H1549 C1527 0.950 . S
C1550 C1551 1.349 . S
C1550 C1552 1.327 . S
C1550 H1575 0.950 . S
C1551 C1550 1.349 . S
C1551 C1567 1.349 . S
C1552 C1550 1.327 . S
C1552 C1571 1.429 . S
C1552 H1576 0.950 1_455 S
C1553 C1570 1.574 . S
C1553 C1572 1.368 1_545 S
C1553 H1577 0.949 . S
H1554 C1558 0.949 . S
C1555 C1556 1.349 . S
C1555 C1557 1.327 1_655 S
C1555 H1578 0.950 1_655 S
C1556 C1555 1.349 . S
C1556 C1568 1.349 . S
C1557 C1555 1.327 1_455 S
C1557 C1573 1.429 1_455 S
C1557 H1579 0.950 . S
C1558 H1554 0.949 . S
C1558 C1566 1.574 1_545 S
C1558 C1574 1.368 1_655 S
H1559 C1567 0.950 . S
H1560 C1565 0.950 . S
H1561 C1566 0.949 . S
H1562 C1568 0.950 . S
H1563 C1569 0.950 . S
H1564 C1570 0.949 . S
C1565 H1560 0.950 . S
C1565 C1567 1.327 . S
C1565 C1571 1.429 . S
C1566 C1558 1.574 1_565 S
C1566 H1561 0.949 . S
C1566 C1572 1.368 1_655 S
C1567 C1551 1.349 . S
C1567 H1559 0.950 . S
C1567 C1565 1.327 . S
C1568 C1556 1.349 . S
C1568 H1562 0.950 . S
C1568 C1569 1.327 . S
C1569 H1563 0.950 . S
C1569 C1568 1.327 . S
C1569 C1573 1.429 . S
C1570 C1553 1.574 . S
C1570 H1564 0.949 . S
C1570 C1574 1.368 . S
C1571 C1552 1.429 . S
C1571 C1565 1.429 . S
C1571 C1572 1.523 . S
C1572 C1553 1.368 1_565 S
C1572 C1566 1.368 1_455 S
C1572 C1571 1.523 . S
C1573 C1557 1.429 1_655 S
C1573 C1569 1.429 . S
C1573 C1574 1.523 1_655 S
C1574 C1558 1.368 1_455 S
C1574 C1570 1.368 . S
C1574 C1573 1.523 1_455 S
H1575 C1550 0.950 . S
H1576 C1552 0.950 1_655 S
H1577 C1553 0.949 . S
H1578 C1555 0.950 1_455 S
H1579 C1557 0.950 . S
C1580 C1581 1.349 . S
C1580 C1582 1.327 . S
C1580 H1605 0.950 . S
C1581 C1580 1.349 . S
C1581 C1597 1.349 . S
C1582 C1580 1.327 . S
C1582 C1601 1.429 . S
C1582 H1606 0.950 . S
C1583 C1600 1.574 . S
C1583 C1602 1.368 1_565 S
C1583 H1607 0.949 . S
H1584 C1588 0.949 . S
C1585 C1586 1.349 . S
C1585 C1587 1.327 . S
C1585 H1608 0.950 . S
C1586 C1585 1.349 . S
C1586 C1598 1.349 . S
C1587 C1585 1.327 . S
C1587 C1603 1.429 . S
C1587 H1609 0.950 . S
C1588 H1584 0.949 . S
C1588 C1596 1.574 . S
C1588 C1604 1.368 1_545 S
H1589 C1597 0.950 . S
H1590 C1595 0.972 . S
H1591 C1596 0.949 . S
H1592 C1598 0.950 . S
H1593 C1599 0.930 1_545 S
H1594 C1600 0.949 . S
C1595 H1590 0.972 . S
C1595 C1597 1.327 . S
C1595 C1601 1.429 . S
C1596 C1588 1.574 . S
C1596 H1591 0.949 . S
C1596 C1602 1.368 . S
C1597 C1581 1.349 . S
C1597 H1589 0.950 . S
C1597 C1595 1.327 . S
C1598 C1586 1.349 . S
C1598 H1592 0.950 . S
C1598 C1599 1.327 . S
C1599 H1593 0.930 1_565 S
C1599 C1598 1.327 . S
C1599 C1603 1.429 . S
C1600 C1583 1.574 . S
C1600 H1594 0.949 . S
C1600 C1604 1.368 . S
C1601 C1582 1.429 . S
C1601 C1595 1.429 . S
C1601 C1602 1.523 . S
C1602 C1583 1.368 1_545 S
C1602 C1596 1.368 . S
C1602 C1601 1.523 . S
C1603 C1587 1.429 . S
C1603 C1599 1.429 . S
C1603 C1604 1.523 . S
C1604 C1588 1.368 1_565 S
C1604 C1600 1.368 . S
C1604 C1603 1.523 . S
H1605 C1580 0.950 . S
H1606 C1582 0.950 . S
H1607 C1583 0.949 . S
H1608 C1585 0.950 . S
H1609 C1587 0.950 . S
C1610 C1611 1.349 . S
C1610 C1612 1.327 . S
C1610 H1635 0.950 . S
C1611 C1610 1.349 . S
C1611 C1627 1.349 . S
C1612 C1610 1.327 . S
C1612 C1631 1.429 . S
C1612 H1636 0.950 . S
C1613 C1630 1.574 . S
C1613 C1632 1.368 . S
C1613 H1637 0.949 . S
H1614 C1618 0.949 . S
C1615 C1616 1.349 . S
C1615 C1617 1.327 . S
C1615 H1638 0.950 . S
C1616 C1615 1.349 . S
C1616 C1628 1.349 . S
C1617 C1615 1.327 . S
C1617 C1633 1.429 . S
C1617 H1639 0.950 . S
C1618 H1614 0.949 . S
C1618 C1626 1.574 . S
C1618 C1634 1.368 . S
H1619 C1627 0.950 . S
H1620 C1625 0.950 . S
H1621 C1626 0.949 . S
H1622 C1628 0.950 . S
H1623 C1629 0.950 . S
H1624 C1630 0.949 . S
C1625 H1620 0.950 . S
C1625 C1627 1.327 . S
C1625 C1631 1.429 . S
C1626 C1618 1.574 . S
C1626 H1621 0.949 . S
C1626 C1632 1.368 . S
C1627 C1611 1.349 . S
C1627 H1619 0.950 . S
C1627 C1625 1.327 . S
C1628 C1616 1.349 . S
C1628 H1622 0.950 . S
C1628 C1629 1.327 . S
C1629 H1623 0.950 . S
C1629 C1628 1.327 . S
C1629 C1633 1.429 . S
C1630 C1613 1.574 . S
C1630 H1624 0.949 . S
C1630 C1634 1.368 . S
C1631 C1612 1.429 . S
C1631 C1625 1.429 . S
C1631 C1632 1.523 . S
C1632 C1613 1.368 . S
C1632 C1626 1.368 . S
C1632 C1631 1.523 . S
C1633 C1617 1.429 . S
C1633 C1629 1.429 . S
C1633 C1634 1.523 . S
C1634 C1618 1.368 . S
C1634 C1630 1.368 . S
C1634 C1633 1.523 . S
H1635 C1610 0.950 . S
H1636 C1612 0.950 . S
H1637 C1613 0.949 . S
H1638 C1615 0.950 . S
H1639 C1617 0.950 . S
C1640 C1641 1.349 . S
C1640 C1642 1.327 . S
C1640 H1665 0.950 . S
C1641 C1640 1.349 . S
C1641 C1657 1.349 1_455 S
C1642 C1640 1.327 . S
C1642 C1661 1.393 1_455 S
C1642 H1666 0.950 . S
C1643 C1660 1.574 . S
C1643 C1662 1.368 . S
C1643 H1667 0.949 . S
H1644 C1648 0.949 . S
C1645 C1646 1.349 . S
C1645 C1647 1.327 . S
C1645 H1668 0.950 . S
C1646 C1645 1.349 . S
C1646 C1658 1.349 . S
C1647 C1645 1.327 . S
C1647 C1663 1.429 . S
C1647 H1669 0.950 . S
C1648 H1644 0.949 . S
C1648 C1656 1.574 . S
C1648 C1664 1.368 1_455 S
H1649 C1657 0.950 . S
H1650 C1655 0.950 . S
H1651 C1656 0.949 . S
H1652 C1658 0.950 . S
H1653 C1659 0.950 1_455 S
H1654 C1660 0.949 . S
C1655 H1650 0.950 . S
C1655 C1657 1.327 . S
C1655 C1661 1.455 . S
C1656 C1648 1.574 . S
C1656 H1651 0.949 . S
C1656 C1662 1.368 1_455 S
C1657 C1641 1.349 1_655 S
C1657 H1649 0.950 . S
C1657 C1655 1.327 . S
C1658 C1646 1.349 . S
C1658 H1652 0.950 . S
C1658 C1659 1.327 . S
C1659 H1653 0.950 1_655 S
C1659 C1658 1.327 . S
C1659 C1663 1.429 . S
C1660 C1643 1.574 . S
C1660 H1654 0.949 . S
C1660 C1664 1.368 . S
C1661 C1642 1.393 1_655 S
C1661 C1655 1.455 . S
C1661 C1662 1.532 . S
C1662 C1643 1.368 . S
C1662 C1656 1.368 1_655 S
C1662 C1661 1.532 . S
C1663 C1647 1.429 . S
C1663 C1659 1.429 . S
C1663 C1664 1.523 . S
C1664 C1648 1.368 1_655 S
C1664 C1660 1.368 . S
C1664 C1663 1.523 . S
H1665 C1640 0.950 . S
H1666 C1642 0.950 . S
H1667 C1643 0.949 . S
H1668 C1645 0.950 . S
H1669 C1647 0.950 . S
C1670 C1671 1.349 . S
C1670 C1672 1.327 . S
C1670 H1695 0.950 . S
C1671 C1670 1.349 . S
C1671 C1687 1.349 . S
C1672 C1670 1.327 . S
C1672 C1691 1.429 . S
C1672 H1696 0.950 . S
C1673 C1690 1.574 1_545 S
C1673 C1692 1.368 1_455 S
C1673 H1697 0.949 . S
H1674 C1678 0.949 . S
C1675 C1676 1.349 . S
C1675 C1677 1.327 . S
C1675 H1698 0.950 . S
C1676 C1675 1.349 . S
C1676 C1688 1.349 . S
C1677 C1675 1.327 . S
C1677 C1693 1.429 . S
C1677 H1699 0.950 . S
C1678 H1674 0.949 . S
C1678 C1686 1.562 1_565 S
C1678 C1694 1.368 . S
H1679 C1687 0.950 . S
H1680 C1685 0.950 1_455 S
H1681 C1686 0.954 . S
H1682 C1688 0.950 1_655 S
H1683 C1689 0.950 . S
H1684 C1690 0.949 . S
C1685 H1680 0.950 1_655 S
C1685 C1687 1.327 . S
C1685 C1691 1.429 . S
C1686 C1678 1.562 1_545 S
C1686 H1681 0.954 . S
C1686 C1692 1.375 . S
C1687 C1671 1.349 . S
C1687 H1679 0.950 . S
C1687 C1685 1.327 . S
C1688 C1676 1.349 . S
C1688 H1682 0.950 1_455 S
C1688 C1689 1.327 1_455 S
C1689 H1683 0.950 . S
C1689 C1688 1.327 1_655 S
C1689 C1693 1.429 1_655 S
C1690 C1673 1.574 1_565 S
C1690 H1684 0.949 . S
C1690 C1694 1.368 1_455 S
C1691 C1672 1.429 . S
C1691 C1685 1.429 . S
C1691 C1692 1.523 . S
C1692 C1673 1.368 1_655 S
C1692 C1686 1.375 . S
C1692 C1691 1.523 . S
C1693 C1677 1.429 . S
C1693 C1689 1.429 1_455 S
C1693 C1694 1.523 1_455 S
C1694 C1678 1.368 . S
C1694 C1690 1.368 1_655 S
C1694 C1693 1.523 1_655 S
H1695 C1670 0.950 . S
H1696 C1672 0.950 . S
H1697 C1673 0.949 . S
H1698 C1675 0.950 . S
H1699 C1677 0.950 . S
C1700 C1701 1.349 . S
C1700 C1702 1.327 . S
C1700 H1725 0.950 . S
C1701 C1700 1.349 . S
C1701 C1717 1.349 . S
C1702 C1700 1.327 . S
C1702 C1721 1.429 . S
C1702 H1726 0.950 1_565 S
C1703 C1720 1.574 . S
C1703 C1722 1.368 . S
C1703 H1727 0.949 . S
H1704 C1708 0.949 . S
C1705 C1706 1.349 . S
C1705 C1707 1.327 . S
C1705 H1728 0.950 . S
C1706 C1705 1.349 . S
C1706 C1718 1.349 . S
C1707 C1705 1.327 . S
C1707 C1723 1.429 . S
C1707 H1729 0.950 1_545 S
C1708 H1704 0.949 . S
C1708 C1716 1.574 . S
C1708 C1724 1.368 . S
H1709 C1717 0.950 . S
H1710 C1715 0.950 . S
H1711 C1716 0.949 . S
H1712 C1718 0.950 . S
H1713 C1719 0.950 . S
H1714 C1720 0.949 . S
C1715 H1710 0.950 . S
C1715 C1717 1.327 . S
C1715 C1721 1.429 . S
C1716 C1708 1.574 . S
C1716 H1711 0.949 . S
C1716 C1722 1.368 1_545 S
C1717 C1701 1.349 . S
C1717 H1709 0.950 . S
C1717 C1715 1.327 . S
C1718 C1706 1.349 . S
C1718 H1712 0.950 . S
C1718 C1719 1.327 . S
C1719 H1713 0.950 . S
C1719 C1718 1.327 . S
C1719 C1723 1.429 . S
C1720 C1703 1.574 . S
C1720 H1714 0.949 . S
C1720 C1724 1.368 1_565 S
C1721 C1702 1.429 . S
C1721 C1715 1.429 . S
C1721 C1722 1.523 . S
C1722 C1703 1.368 . S
C1722 C1716 1.368 1_565 S
C1722 C1721 1.523 . S
C1723 C1707 1.429 . S
C1723 C1719 1.429 . S
C1723 C1724 1.523 . S
C1724 C1708 1.368 . S
C1724 C1720 1.368 1_545 S
C1724 C1723 1.523 . S
H1725 C1700 0.950 . S
H1726 C1702 0.950 1_545 S
H1727 C1703 0.949 . S
H1728 C1705 0.950 . S
H1729 C1707 0.950 1_565 S
C1730 C1731 1.349 . S
C1730 C1732 1.327 . S
C1730 H1755 0.950 . S
C1731 C1730 1.349 . S
C1731 C1747 1.349 . S
C1732 C1730 1.327 . S
C1732 C1751 1.429 . S
C1732 H1756 0.950 . S
C1733 C1750 1.574 . S
C1733 C1752 1.368 . S
C1733 H1757 0.949 . S
H1734 C1738 0.949 . S
C1735 C1736 1.349 . S
C1735 C1737 1.327 . S
C1735 H1758 0.950 . S
C1736 C1735 1.349 . S
C1736 C1748 1.349 . S
C1737 C1735 1.327 . S
C1737 C1753 1.429 . S
C1737 H1759 0.950 . S
C1738 H1734 0.949 . S
C1738 C1746 1.574 . S
C1738 C1754 1.368 . S
H1739 C1747 0.950 . S
H1740 C1745 0.950 . S
H1741 C1746 0.949 . S
H1742 C1748 0.950 . S
H1743 C1749 0.950 . S
H1744 C1750 0.949 . S
C1745 H1740 0.950 . S
C1745 C1747 1.327 . S
C1745 C1751 1.429 . S
C1746 C1738 1.574 . S
C1746 H1741 0.949 . S
C1746 C1752 1.368 . S
C1747 C1731 1.349 . S
C1747 H1739 0.950 . S
C1747 C1745 1.327 . S
C1748 C1736 1.349 . S
C1748 H1742 0.950 . S
C1748 C1749 1.327 . S
C1749 H1743 0.950 . S
C1749 C1748 1.327 . S
C1749 C1753 1.429 . S
C1750 C1733 1.574 . S
C1750 H1744 0.949 . S
C1750 C1754 1.368 . S
C1751 C1732 1.429 . S
C1751 C1745 1.429 . S
C1751 C1752 1.523 . S
C1752 C1733 1.368 . S
C1752 C1746 1.368 . S
C1752 C1751 1.523 . S
C1753 C1737 1.429 . S
C1753 C1749 1.429 . S
C1753 C1754 1.523 . S
C1754 C1738 1.368 . S
C1754 C1750 1.368 . S
C1754 C1753 1.523 . S
H1755 C1730 0.950 . S
H1756 C1732 0.950 . S
H1757 C1733 0.949 . S
H1758 C1735 0.950 . S
H1759 C1737 0.950 . S
C321 C79 1.939 . S
C326 C12 1.952 . S
C351 C2 1.521 . S
C356 C32 1.539 . S
C381 C52 1.577 . S
C386 C22 1.576 . S
C411 C42 1.779 . S
C416 C69 1.781 . S
C441 C92 1.743 . S
C446 C102 1.730 . S
C471 C112 1.811 . S
C476 C122 1.786 . S
C501 C132 1.901 . S
C506 C142 1.870 . S
C531 C82 1.734 . S
C536 C152 1.763 . S
C561 C169 1.952 . S
C566 C238 1.939 . S
C591 C164 1.521 . S
C596 C189 1.539 . S
C621 C184 1.576 . S
C626 C209 1.577 . S
C651 C204 1.779 . S
C656 C232 1.781 . S
C681 C249 1.743 . S
C686 C264 1.730 . S
C711 C284 1.786 . S
C716 C269 1.811 . S
C741 C304 1.870 . S
C746 C289 1.901 . S
C771 C309 1.763 . S
C776 C244 1.734 . S
C801 C18 1.605 . S
C806 C98 1.602 . S
C831 C118 1.476 . S
C836 C38 1.476 . S
C861 C58 2.055 . S
C866 C138 2.058 . S
C891 C64 1.067 . S
C896 C158 1.100 . S
C921 C259 1.602 . S
C926 C179 1.605 . S
C951 C279 1.476 . S
C956 C199 1.476 . S
C981 C219 2.055 . S
C986 C299 2.058 . S
C1011 C319 1.100 . S
C1016 C222 1.067 . S
C1041 C9 1.008 . S
C1046 C49 1.010 . S
C1071 C29 0.708 . S
C1076 C72 0.708 . S
C1101 C129 1.159 . S
C1106 C89 1.159 . S
C1131 C149 1.005 . S
C1136 C109 1.006 . S
C1161 C212 1.010 . S
C1166 C172 1.008 . S
C1191 C229 0.708 . S
C1196 C192 0.708 . S
C1221 C252 1.159 . S
C1226 C292 1.159 . S
C1251 C272 1.006 . S
C1256 C312 1.005 . S
C1281 C178 1.320 . S
C1286 C19 1.320 . S
C1311 C198 1.379 . S
C1316 C39 1.379 . S
C1341 C218 1.689 . S
C1346 C59 1.689 . S
C1371 C62 0.886 . S
C1376 C224 0.886 . S
C1401 C258 1.272 . S
C1406 C99 1.272 . S
C1431 C278 1.175 . S
C1436 C119 1.175 . S
C1461 C298 1.494 . S
C1466 C139 1.494 . S
C1491 C318 1.286 . S
C1496 C159 1.286 . S
C1521 C144 0.760 . S
C1526 C4 0.769 . S
C1551 C84 0.763 . S
C1556 C24 0.763 . S
C1581 C104 0.787 . S
C1586 C44 0.790 . S
C1611 C124 0.808 . S
C1616 C78 0.873 . S
C1641 C302 0.760 . S
C1646 C162 0.769 . S
C1671 C242 0.763 . S
C1676 C182 0.763 . S
C1701 C262 0.787 . S
C1706 C202 0.790 . S
C1731 C239 0.873 . S
C1736 C282 0.808 . S
