# Generated by pormake.
# Topology gsi, (4)-cn, num edge types: 1
# Building blocks:
#     Node 0, Type 0, BuildingBlock: CEKHIL_clean_sbu_0, # of connection points: 4
#     Node 1, Type 0, BuildingBlock: CEKHIL_clean_sbu_0, # of connection points: 4
#     Node 2, Type 0, BuildingBlock: CEKHIL_clean_sbu_0, # of connection points: 4
#     Node 3, Type 0, BuildingBlock: CEKHIL_clean_sbu_0, # of connection points: 4
#     Node 4, Type 0, BuildingBlock: CEKHIL_clean_sbu_0, # of connection points: 4
#     Node 5, Type 0, BuildingBlock: CEKHIL_clean_sbu_0, # of connection points: 4
#     Node 6, Type 0, BuildingBlock: CEKHIL_clean_sbu_0, # of connection points: 4
#     Node 7, Type 0, BuildingBlock: CEKHIL_clean_sbu_0, # of connection points: 4
#     Node 8, Type 0, BuildingBlock: CEKHIL_clean_sbu_0, # of connection points: 4
#     Node 9, Type 0, BuildingBlock: CEKHIL_clean_sbu_0, # of connection points: 4
#     Node 10, Type 0, BuildingBlock: CEKHIL_clean_sbu_0, # of connection points: 4
#     Node 11, Type 0, BuildingBlock: CEKHIL_clean_sbu_0, # of connection points: 4
#     Node 12, Type 0, BuildingBlock: CEKHIL_clean_sbu_0, # of connection points: 4
#     Node 13, Type 0, BuildingBlock: CEKHIL_clean_sbu_0, # of connection points: 4
#     Node 14, Type 0, BuildingBlock: CEKHIL_clean_sbu_0, # of connection points: 4
#     Node 15, Type 0, BuildingBlock: CEKHIL_clean_sbu_0, # of connection points: 4
#     Edge 16, Type (0, 0), BuildingBlock: AJUNOK_clean_linker_0, # of connection points: 2
#     Edge 17, Type (0, 0), BuildingBlock: AJUNOK_clean_linker_0, # of connection points: 2
#     Edge 18, Type (0, 0), BuildingBlock: AJUNOK_clean_linker_0, # of connection points: 2
#     Edge 19, Type (0, 0), BuildingBlock: AJUNOK_clean_linker_0, # of connection points: 2
#     Edge 20, Type (0, 0), BuildingBlock: AJUNOK_clean_linker_0, # of connection points: 2
#     Edge 21, Type (0, 0), BuildingBlock: AJUNOK_clean_linker_0, # of connection points: 2
#     Edge 22, Type (0, 0), BuildingBlock: AJUNOK_clean_linker_0, # of connection points: 2
#     Edge 23, Type (0, 0), BuildingBlock: AJUNOK_clean_linker_0, # of connection points: 2
#     Edge 24, Type (0, 0), BuildingBlock: AJUNOK_clean_linker_0, # of connection points: 2
#     Edge 25, Type (0, 0), BuildingBlock: AJUNOK_clean_linker_0, # of connection points: 2
#     Edge 26, Type (0, 0), BuildingBlock: AJUNOK_clean_linker_0, # of connection points: 2
#     Edge 27, Type (0, 0), BuildingBlock: AJUNOK_clean_linker_0, # of connection points: 2
#     Edge 28, Type (0, 0), BuildingBlock: AJUNOK_clean_linker_0, # of connection points: 2
#     Edge 29, Type (0, 0), BuildingBlock: AJUNOK_clean_linker_0, # of connection points: 2
#     Edge 30, Type (0, 0), BuildingBlock: AJUNOK_clean_linker_0, # of connection points: 2
#     Edge 31, Type (0, 0), BuildingBlock: AJUNOK_clean_linker_0, # of connection points: 2
#     Edge 32, Type (0, 0), BuildingBlock: AJUNOK_clean_linker_0, # of connection points: 2
#     Edge 33, Type (0, 0), BuildingBlock: AJUNOK_clean_linker_0, # of connection points: 2
#     Edge 34, Type (0, 0), BuildingBlock: AJUNOK_clean_linker_0, # of connection points: 2
#     Edge 35, Type (0, 0), BuildingBlock: AJUNOK_clean_linker_0, # of connection points: 2
#     Edge 36, Type (0, 0), BuildingBlock: AJUNOK_clean_linker_0, # of connection points: 2
#     Edge 37, Type (0, 0), BuildingBlock: AJUNOK_clean_linker_0, # of connection points: 2
#     Edge 38, Type (0, 0), BuildingBlock: AJUNOK_clean_linker_0, # of connection points: 2
#     Edge 39, Type (0, 0), BuildingBlock: AJUNOK_clean_linker_0, # of connection points: 2
#     Edge 40, Type (0, 0), BuildingBlock: AJUNOK_clean_linker_0, # of connection points: 2
#     Edge 41, Type (0, 0), BuildingBlock: AJUNOK_clean_linker_0, # of connection points: 2
#     Edge 42, Type (0, 0), BuildingBlock: AJUNOK_clean_linker_0, # of connection points: 2
#     Edge 43, Type (0, 0), BuildingBlock: AJUNOK_clean_linker_0, # of connection points: 2
#     Edge 44, Type (0, 0), BuildingBlock: AJUNOK_clean_linker_0, # of connection points: 2
#     Edge 45, Type (0, 0), BuildingBlock: AJUNOK_clean_linker_0, # of connection points: 2
#     Edge 46, Type (0, 0), BuildingBlock: AJUNOK_clean_linker_0, # of connection points: 2
#     Edge 47, Type (0, 0), BuildingBlock: AJUNOK_clean_linker_0, # of connection points: 2
# Relax obj value: 0.144
# Max RMSD: 0.208
# Mean RMSD: 0.126
data_MOF--net-gsi--node1-CEKHIL_clean_sbu_0--edge1-AJUNOK_clean_linker_0
_symmetry_space_group_name_H-M    P1
_symmetry_Int_Tables_number       1
_symmetry_cell_setting            triclinic
loop_
_symmetry_equiv_pos_as_xyz
'x, y, z'
_cell_length_a     28.308578
_cell_length_b     31.712154
_cell_length_c     29.816011
_cell_angle_alpha  90.876254
_cell_angle_beta   93.515918
_cell_angle_gamma 97.418354
loop_
_atom_site_label
_atom_site_type_symbol
_atom_site_fract_x
_atom_site_fract_y
_atom_site_fract_z
_atom_type_partial_charge
Co0 Co 0.17396 0.15298 0.12727 0.0
O1 O 0.2109 0.11027 0.15306 0.0
O2 O 0.13734 0.11718 0.16863 0.0
C3 C 0.19659 0.14247 0.05553 0.0
O4 O 0.12143 0.19094 0.11003 0.0
Co5 Co 0.21275 0.23267 0.078 0.0
O6 O 0.14632 0.24608 0.06766 0.0
C7 C 0.23339 0.22681 0.17618 0.0
C8 C 0.17406 0.09695 0.17544 0.0
C9 C 0.11359 0.22452 0.08814 0.0
O10 O 0.20104 0.19432 0.17717 0.0
O11 O 0.24622 0.24384 0.13942 0.0
O12 O 0.16085 0.11825 0.07117 0.0
O13 O 0.21664 0.17215 0.08304 0.0
Co14 Co 0.8754 0.36588 0.14027 0.0
O15 O 0.83894 0.40687 0.16623 0.0
O16 O 0.91327 0.4005 0.18783 0.0
C17 C 0.8502 0.37802 0.06808 0.0
O18 O 0.92711 0.32858 0.12252 0.0
Co19 Co 0.83175 0.28732 0.08305 0.0
O20 O 0.89781 0.27655 0.07262 0.0
C21 C 0.81131 0.29636 0.17855 0.0
C22 C 0.87596 0.41958 0.19323 0.0
C23 C 0.93263 0.2969 0.09617 0.0
O24 O 0.84937 0.32336 0.18465 0.0
O25 O 0.79599 0.28117 0.13954 0.0
O26 O 0.88596 0.40268 0.08806 0.0
O27 O 0.83089 0.34798 0.09204 0.0
Co28 Co 0.18186 0.89177 0.33672 0.0
O29 O 0.21801 0.94301 0.31493 0.0
O30 O 0.13995 0.92733 0.30551 0.0
C31 C 0.22219 0.89444 0.40607 0.0
O32 O 0.13067 0.84209 0.35224 0.0
Co33 Co 0.22908 0.8122 0.36753 0.0
O34 O 0.16356 0.7849 0.37679 0.0
C35 C 0.22292 0.8374 0.27219 0.0
C36 C 0.17786 0.95332 0.29783 0.0
C37 C 0.12726 0.80328 0.36596 0.0
O38 O 0.19046 0.8611 0.27895 0.0
O39 O 0.2465 0.82083 0.30385 0.0
O40 O 0.18723 0.91696 0.39872 0.0
O41 O 0.23207 0.87305 0.37188 0.0
Co42 Co 0.88332 0.63411 0.3442 0.0
O43 O 0.93962 0.6567 0.31309 0.0
O44 O 0.92829 0.67125 0.38367 0.0
C45 C 0.8782 0.56564 0.31628 0.0
O46 O 0.83238 0.62023 0.39037 0.0
Co47 Co 0.78601 0.59474 0.29982 0.0
O48 O 0.7607 0.59155 0.36047 0.0
C49 C 0.82178 0.68511 0.28908 0.0
C50 C 0.95487 0.67811 0.34994 0.0
C51 C 0.78776 0.60653 0.39417 0.0
O52 O 0.85141 0.68367 0.32329 0.0
O53 O 0.7968 0.65182 0.27138 0.0
O54 O 0.90771 0.57834 0.35062 0.0
O55 O 0.85457 0.59439 0.29984 0.0
Co56 Co 0.37213 0.86884 0.64145 0.0
O57 O 0.33825 0.91108 0.66911 0.0
O58 O 0.41347 0.90396 0.6861 0.0
C59 C 0.34165 0.87877 0.57016 0.0
O60 O 0.42189 0.83052 0.62144 0.0
Co61 Co 0.32404 0.78864 0.58817 0.0
O62 O 0.38902 0.77672 0.57507 0.0
C63 C 0.31037 0.8014 0.68482 0.0
C64 C 0.37719 0.92368 0.69371 0.0
C65 C 0.42537 0.79771 0.59594 0.0
O66 O 0.34915 0.82769 0.68827 0.0
O67 O 0.29223 0.78547 0.64689 0.0
O68 O 0.3785 0.90416 0.58728 0.0
O69 O 0.3248 0.84955 0.59632 0.0
Co70 Co 0.87953 0.87188 0.90297 0.0
O71 O 0.90168 0.82014 0.92723 0.0
O72 O 0.94403 0.86612 0.8863 0.0
C73 C 0.84529 0.89073 0.9676 0.0
O74 O 0.87324 0.92908 0.8718 0.0
Co75 Co 0.77401 0.89022 0.8951 0.0
O76 O 0.79922 0.94711 0.8734 0.0
C77 C 0.80644 0.82559 0.83582 0.0
C78 C 0.94129 0.83073 0.90785 0.0
C79 C 0.8424 0.95504 0.86299 0.0
O80 O 0.85069 0.83935 0.84671 0.0
O81 O 0.77165 0.8384 0.8553 0.0
O82 O 0.89111 0.90019 0.9638 0.0
O83 O 0.82318 0.87002 0.93366 0.0
Co84 Co 0.15421 0.6795 0.89626 0.0
O85 O 0.13562 0.73011 0.9256 0.0
O86 O 0.08906 0.68822 0.87715 0.0
C87 C 0.19135 0.65418 0.95921 0.0
O88 O 0.15683 0.62437 0.8592 0.0
Co89 Co 0.25951 0.66039 0.89172 0.0
O90 O 0.23202 0.60891 0.85583 0.0
C91 C 0.22507 0.72996 0.84071 0.0
C92 C 0.09444 0.72183 0.90327 0.0
C93 C 0.18744 0.60106 0.84527 0.0
O94 O 0.18109 0.71472 0.84531 0.0
O95 O 0.26026 0.71683 0.86279 0.0
O96 O 0.14498 0.64703 0.9526 0.0
O97 O 0.21211 0.67735 0.92958 0.0
Co98 Co 0.85317 0.14864 0.68674 0.0
O99 O 0.79626 0.11686 0.65712 0.0
O100 O 0.85509 0.15148 0.62193 0.0
C101 C 0.86512 0.09821 0.74029 0.0
O102 O 0.91664 0.18724 0.70476 0.0
Co103 Co 0.85065 0.17763 0.78602 0.0
O104 O 0.91127 0.21367 0.77447 0.0
C105 C 0.79392 0.21453 0.71498 0.0
C106 C 0.81229 0.13045 0.61938 0.0
C107 C 0.93201 0.21364 0.73767 0.0
O108 O 0.81963 0.20061 0.68569 0.0
O109 O 0.79615 0.2039 0.75622 0.0
O110 O 0.88124 0.09537 0.70047 0.0
O111 O 0.84091 0.12944 0.74484 0.0
Co112 Co 0.18635 0.39483 0.68869 0.0
O113 O 0.24408 0.42306 0.66316 0.0
O114 O 0.18903 0.37869 0.62572 0.0
C115 C 0.16747 0.45329 0.72667 0.0
O116 O 0.12228 0.35812 0.7011 0.0
Co117 Co 0.17577 0.38766 0.79181 0.0
O118 O 0.1115 0.35679 0.77528 0.0
C119 C 0.24257 0.34016 0.7466 0.0
C120 C 0.23004 0.40246 0.62567 0.0
C121 C 0.09764 0.34573 0.73485 0.0
O122 O 0.22239 0.34696 0.70799 0.0
O123 O 0.23299 0.35819 0.78302 0.0
O124 O 0.1557 0.44773 0.68383 0.0
O125 O 0.19215 0.42556 0.74362 0.0
Co126 Co 0.65417 0.1804 0.39496 0.0
O127 O 0.63532 0.23244 0.42076 0.0
O128 O 0.58832 0.1871 0.37618 0.0
C129 C 0.69108 0.15872 0.45987 0.0
O130 O 0.65786 0.12379 0.36105 0.0
Co131 Co 0.76007 0.16122 0.39424 0.0
O132 O 0.73201 0.10512 0.36798 0.0
C133 C 0.72468 0.22571 0.33483 0.0
C134 C 0.5935 0.22214 0.40014 0.0
C135 C 0.68838 0.09797 0.35346 0.0
O136 O 0.68059 0.21283 0.34193 0.0
O137 O 0.76013 0.21307 0.35706 0.0
O138 O 0.64485 0.15084 0.45291 0.0
O139 O 0.71197 0.18053 0.42927 0.0
Co140 Co 0.66817 0.65605 0.62874 0.0
O141 O 0.70623 0.61454 0.65523 0.0
O142 O 0.63239 0.62026 0.67081 0.0
C143 C 0.69176 0.64472 0.55747 0.0
O144 O 0.61473 0.69294 0.61062 0.0
Co145 Co 0.70514 0.73512 0.5769 0.0
O146 O 0.63821 0.74655 0.5656 0.0
C147 C 0.72827 0.73042 0.6751 0.0
C148 C 0.66971 0.60082 0.67783 0.0
C149 C 0.60604 0.72531 0.58701 0.0
O150 O 0.69523 0.69861 0.67767 0.0
O151 O 0.74003 0.74651 0.6376 0.0
O152 O 0.65615 0.62021 0.57301 0.0
O153 O 0.71034 0.6752 0.58453 0.0
Co154 Co 0.68663 0.39608 0.83759 0.0
O155 O 0.72004 0.44838 0.81575 0.0
O156 O 0.64202 0.43112 0.80921 0.0
C157 C 0.73029 0.3974 0.90538 0.0
O158 O 0.6387 0.34461 0.85464 0.0
Co159 Co 0.74177 0.31875 0.85821 0.0
O160 O 0.6769 0.2865 0.86062 0.0
C161 C 0.73179 0.35195 0.76936 0.0
C162 C 0.67893 0.45795 0.80043 0.0
C163 C 0.63865 0.30394 0.85884 0.0
O164 O 0.69341 0.36672 0.7787 0.0
O165 O 0.76278 0.34488 0.80035 0.0
O166 O 0.69427 0.41916 0.90059 0.0
O167 O 0.73936 0.37844 0.86928 0.0
Co168 Co 0.38977 0.14007 0.84352 0.0
O169 O 0.44688 0.16209 0.81326 0.0
O170 O 0.43413 0.17768 0.88333 0.0
C171 C 0.38557 0.0717 0.81537 0.0
O172 O 0.33757 0.12581 0.88867 0.0
Co173 Co 0.29357 0.09926 0.79628 0.0
O174 O 0.26804 0.09392 0.85675 0.0
C175 C 0.32778 0.19064 0.78787 0.0
C176 C 0.46154 0.18369 0.85007 0.0
C177 C 0.29338 0.10974 0.89117 0.0
O178 O 0.35785 0.18948 0.82186 0.0
O179 O 0.30321 0.1573 0.76982 0.0
O180 O 0.41412 0.08417 0.85045 0.0
O181 O 0.36221 0.10049 0.79883 0.0
Co182 Co 0.37869 0.37234 0.40291 0.0
O183 O 0.39889 0.31935 0.42548 0.0
O184 O 0.44398 0.36679 0.38851 0.0
C185 C 0.34307 0.38993 0.46729 0.0
O186 O 0.37406 0.43039 0.37293 0.0
Co187 Co 0.27386 0.39189 0.39318 0.0
O188 O 0.30001 0.44872 0.37214 0.0
C189 C 0.30697 0.32632 0.33533 0.0
C190 C 0.43955 0.33029 0.40797 0.0
C191 C 0.34366 0.45655 0.36323 0.0
O192 O 0.35108 0.34101 0.34558 0.0
O193 O 0.27207 0.33936 0.35446 0.0
O194 O 0.38904 0.39909 0.46444 0.0
O195 O 0.32142 0.37019 0.43248 0.0
Co196 Co 0.35615 0.64782 0.18469 0.0
O197 O 0.29911 0.61545 0.15605 0.0
O198 O 0.35744 0.64917 0.11959 0.0
C199 C 0.36817 0.5983 0.23927 0.0
O200 O 0.41958 0.68691 0.20225 0.0
Co201 Co 0.35349 0.67806 0.28389 0.0
O202 O 0.41499 0.71252 0.2725 0.0
C203 C 0.2983 0.71537 0.21151 0.0
C204 C 0.31461 0.62813 0.11785 0.0
C205 C 0.43541 0.71281 0.23552 0.0
O206 O 0.32272 0.69977 0.18224 0.0
O207 O 0.301 0.70621 0.25317 0.0
O208 O 0.38428 0.59479 0.19954 0.0
O209 O 0.344 0.62963 0.24317 0.0
Co210 Co 0.69033 0.89418 0.1894 0.0
O211 O 0.74809 0.92268 0.16432 0.0
O212 O 0.69157 0.88083 0.12559 0.0
C213 C 0.67464 0.95164 0.23138 0.0
O214 O 0.62605 0.85776 0.20144 0.0
Co215 Co 0.6813 0.88335 0.29266 0.0
O216 O 0.61657 0.85353 0.27578 0.0
C217 C 0.74725 0.83807 0.2434 0.0
C218 C 0.73312 0.90384 0.1261 0.0
C219 C 0.60195 0.84417 0.23511 0.0
O220 O 0.72542 0.84487 0.20556 0.0
O221 O 0.73902 0.85559 0.28057 0.0
O222 O 0.66093 0.94818 0.18875 0.0
O223 O 0.69825 0.92212 0.24549 0.0
C224 C 0.29715 0.27724 0.21829 0.0
C225 C 0.25583 0.24709 0.21899 0.0
C226 C 0.31608 0.30069 0.25705 0.0
C227 C 0.29409 0.29517 0.29781 0.0
H228 H 0.3143 0.28386 0.18722 0.0
H229 H 0.34633 0.32501 0.25439 0.0
S230 S 0.18955 0.21659 0.31972 0.0
N231 N 0.19688 0.21008 0.26567 0.0
N232 N 0.23218 0.25447 0.33815 0.0
C233 C 0.25475 0.26335 0.29979 0.0
C234 C 0.23571 0.2392 0.26051 0.0
C235 C 0.80199 0.29623 0.26151 0.0
C236 C 0.78398 0.28242 0.21799 0.0
C237 C 0.77931 0.28094 0.29951 0.0
C238 C 0.73748 0.25154 0.29565 0.0
H239 H 0.83498 0.31767 0.26657 0.0
H240 H 0.79626 0.29031 0.33237 0.0
S241 S 0.67177 0.20944 0.18984 0.0
N242 N 0.71838 0.24083 0.17339 0.0
N243 N 0.67634 0.2121 0.2453 0.0
C244 C 0.71691 0.23994 0.25257 0.0
C245 C 0.74011 0.25526 0.21363 0.0
C246 C 0.22303 0.74664 0.20393 0.0
C247 C 0.27243 0.75093 0.19938 0.0
C248 C 0.20119 0.78193 0.21611 0.0
C249 C 0.2292 0.821 0.22723 0.0
H250 H 0.20253 0.71531 0.20381 0.0
H251 H 0.16474 0.77632 0.22588 0.0
S252 S 0.35604 0.85077 0.20521 0.0
N253 N 0.34545 0.79922 0.19336 0.0
N254 N 0.30463 0.86502 0.21911 0.0
C255 C 0.27588 0.82734 0.21314 0.0
C256 C 0.29794 0.79183 0.19949 0.0
C257 C 0.7801 0.72805 0.23365 0.0
C258 C 0.81236 0.72676 0.27145 0.0
C259 C 0.76274 0.76579 0.22141 0.0
C260 C 0.77693 0.80341 0.24667 0.0
H261 H 0.76581 0.69926 0.21483 0.0
H262 H 0.73507 0.76455 0.19446 0.0
S263 S 0.8695 0.81976 0.34103 0.0
N264 N 0.86461 0.76844 0.32849 0.0
N265 N 0.83145 0.83939 0.30547 0.0
C266 C 0.81315 0.80376 0.28115 0.0
C267 C 0.83104 0.76537 0.29356 0.0
C268 C 0.24194 0.76055 0.7216 0.0
C269 C 0.28492 0.78884 0.72569 0.0
C270 C 0.21896 0.74519 0.75951 0.0
C271 C 0.2382 0.75741 0.8029 0.0
H272 H 0.22673 0.74865 0.68891 0.0
H273 H 0.18819 0.72103 0.75479 0.0
S274 S 0.34451 0.83626 0.83256 0.0
N275 N 0.34172 0.83289 0.77713 0.0
N276 N 0.29876 0.80332 0.84822 0.0
C277 C 0.27871 0.78824 0.80756 0.0
C278 C 0.30207 0.80408 0.76903 0.0
C279 C 0.73275 0.74337 0.75854 0.0
C280 C 0.75293 0.75076 0.71699 0.0
C281 C 0.75228 0.76594 0.79755 0.0
C282 C 0.79322 0.79625 0.79678 0.0
H283 H 0.70038 0.72139 0.76072 0.0
H284 H 0.73414 0.7607 0.82833 0.0
S285 S 0.86291 0.82455 0.69798 0.0
N286 N 0.81886 0.78846 0.67844 0.0
N287 N 0.85525 0.8305 0.75204 0.0
C288 C 0.81557 0.80212 0.75628 0.0
C289 C 0.79545 0.77953 0.71632 0.0
C290 C 0.70293 0.28748 0.72641 0.0
C291 C 0.73302 0.32649 0.72823 0.0
C292 C 0.72103 0.24976 0.71578 0.0
C293 C 0.76844 0.25079 0.70411 0.0
H294 H 0.66881 0.28497 0.7415 0.0
H295 H 0.6999 0.21965 0.72195 0.0
S296 S 0.85468 0.34649 0.688 0.0
N297 N 0.80727 0.3651 0.70628 0.0
N298 N 0.84051 0.29434 0.6836 0.0
C299 C 0.79488 0.29022 0.69635 0.0
C300 C 0.7769 0.32842 0.70841 0.0
C301 C 0.30162 0.30383 0.79159 0.0
C302 C 0.27394 0.30649 0.75103 0.0
C303 C 0.32252 0.26732 0.80184 0.0
C304 C 0.31631 0.23214 0.77198 0.0
H305 H 0.3049 0.3291 0.81687 0.0
H306 H 0.34068 0.26566 0.83472 0.0
S307 S 0.25714 0.22689 0.65701 0.0
N308 N 0.24872 0.27375 0.6776 0.0
N309 N 0.28829 0.20502 0.69686 0.0
C310 C 0.29331 0.23616 0.7293 0.0
C311 C 0.27213 0.27346 0.71878 0.0
C312 C 0.21801 1.01125 0.25073 0.0
C313 C 0.17601 0.99105 0.26835 0.0
C314 C 0.21703 0.04516 0.22078 0.0
C315 C 0.17409 0.06087 0.20743 0.0
H316 H 0.25201 1.00032 0.25948 0.0
H317 H 0.25036 0.0592 0.20805 0.0
S318 S 0.0541 0.02011 0.24474 0.0
N319 N 0.09016 0.98995 0.2705 0.0
N320 N 0.08837 0.05372 0.21508 0.0
C321 C 0.1319 0.0414 0.22536 0.0
C322 C 0.13284 1.00657 0.25548 0.0
C323 C 0.91714 0.4705 0.2545 0.0
C324 C 0.87533 0.45397 0.22832 0.0
C325 C 0.91747 0.50476 0.28558 0.0
C326 C 0.87601 0.52388 0.29165 0.0
H327 H 0.95028 0.45775 0.25005 0.0
H328 H 0.95093 0.51769 0.30318 0.0
S329 S 0.75591 0.4894 0.236 0.0
N330 N 0.79038 0.45736 0.21418 0.0
N331 N 0.79114 0.52096 0.27191 0.0
C332 C 0.83361 0.50618 0.26744 0.0
C333 C 0.8332 0.4715 0.23601 0.0
C334 C 0.28886 0.14607 0.96646 0.0
C335 C 0.26924 0.11465 0.93426 0.0
C336 C 0.26463 0.15502 1.00465 0.0
C337 C 0.21966 0.13274 1.01312 0.0
H338 H 0.32282 0.1649 0.96163 0.0
H339 H 0.28166 0.17977 0.02789 0.0
S340 S 0.15298 0.04596 0.94072 0.0
N341 N 0.20194 0.06032 0.91434 0.0
N342 N 0.15713 0.07676 0.98634 0.0
C343 C 0.19989 0.10066 0.98176 0.0
C344 C 0.2244 0.09176 0.94246 0.0
C345 C 0.82986 0.3667 0.98579 0.0
C346 C 0.8245 0.38879 0.02584 0.0
C347 C 0.79939 0.37021 0.94735 0.0
C348 C 0.76156 0.39534 0.94746 0.0
H349 H 0.85701 0.34563 0.9845 0.0
H350 H 0.80521 0.35229 0.91743 0.0
S351 S 0.73202 0.45882 0.045 0.0
N352 N 0.77859 0.43631 0.06399 0.0
N353 N 0.72113 0.44287 0.99191 0.0
C354 C 0.75611 0.41784 0.98745 0.0
C355 C 0.78751 0.41447 0.02657 0.0
C356 C 0.29305 0.84899 0.50172 0.0
C357 C 0.31485 0.88506 0.52672 0.0
C358 C 0.26216 0.85256 0.4637 0.0
C359 C 0.25026 0.89225 0.44969 0.0
H360 H 0.29989 0.81752 0.51172 0.0
H361 H 0.24717 0.82377 0.44522 0.0
S362 S 0.29671 0.99669 0.50376 0.0
N363 N 0.32218 0.96204 0.53474 0.0
N364 N 0.26303 0.96862 0.46373 0.0
C365 C 0.27131 0.92868 0.47454 0.0
C366 C 0.3039 0.92513 0.51284 0.0
C367 C 0.69603 0.6025 0.48477 0.0
C368 C 0.71627 0.63462 0.51596 0.0
C369 C 0.7198 0.59262 0.44631 0.0
C370 C 0.76538 0.61378 0.43772 0.0
H371 H 0.66131 0.58512 0.48979 0.0
H372 H 0.70205 0.56835 0.4229 0.0
S373 S 0.8347 0.70006 0.50935 0.0
N374 N 0.78529 0.68737 0.5354 0.0
N375 N 0.82962 0.66839 0.46445 0.0
C376 C 0.7863 0.6454 0.46918 0.0
C377 C 0.76189 0.65592 0.50777 0.0
C378 C 1.00174 0.27661 0.05429 0.0
C379 C 0.98011 0.28075 0.09522 0.0
C380 C 0.0446 0.25832 0.05213 0.0
C381 C 0.06658 0.24156 0.09044 0.0
H382 H 0.98553 0.28787 0.02365 0.0
H383 H 0.06033 0.2568 0.02003 0.0
S384 S 0.02375 0.24344 0.20563 0.0
N385 N 0.98423 0.26656 0.17499 0.0
N386 N 0.06302 0.23064 0.17071 0.0
C387 C 0.04484 0.24496 0.13143 0.0
C388 C 1.00214 0.26486 0.13387 0.0
C389 C 1.01306 0.73327 0.39405 0.0
C390 C 0.99842 0.71091 0.35307 0.0
C391 C 0.05356 0.76454 0.39797 0.0
C392 C 0.08052 0.77546 0.36083 0.0
H393 H 0.99345 0.72621 0.42368 0.0
H394 H 0.06429 0.77975 0.43043 0.0
S395 S 0.05865 0.72697 0.24625 0.0
N396 N 1.01537 0.7024 0.27468 0.0
N397 N 0.09044 0.76122 0.28211 0.0
C398 C 0.06617 0.75384 0.31972 0.0
C399 C 0.02542 0.72169 0.31578 0.0
C400 C 0.54179 0.75308 0.62999 0.0
C401 C 0.55879 0.74179 0.58853 0.0
C402 C 0.49988 0.77283 0.63213 0.0
C403 C 0.47246 0.78115 0.59292 0.0
H404 H 0.56168 0.74749 0.66106 0.0
H405 H 0.48825 0.78072 0.6648 0.0
S406 S 0.50095 0.7574 0.47606 0.0
N407 N 0.54505 0.74124 0.50739 0.0
N408 N 0.46541 0.77592 0.51139 0.0
C409 C 0.48879 0.76948 0.55136 0.0
C410 C 0.53212 0.75057 0.54916 0.0
C411 C 0.88651 0.0268 0.76752 0.0
C412 C 0.86581 0.06428 0.77512 0.0
C413 C 0.88169 0.99253 0.79759 0.0
C414 C 0.85544 0.99407 0.83622 0.0
H415 H 0.90516 0.02323 0.73733 0.0
H416 H 0.89646 0.96377 0.78921 0.0
S417 S 0.79862 0.08616 0.87458 0.0
N418 N 0.8217 0.10171 0.82712 0.0
N419 N 0.81193 0.03751 0.88213 0.0
C420 C 0.83656 0.03198 0.84521 0.0
C421 C 0.84196 0.06695 0.81517 0.0
C422 C 0.17979 0.56849 0.76759 0.0
C423 C 0.17152 0.56465 0.8136 0.0
C424 C 0.17387 0.53261 0.73819 0.0
C425 C 0.16043 0.49149 0.75403 0.0
H426 H 0.19311 0.59921 0.75468 0.0
H427 H 0.18328 0.53676 0.70372 0.0
S428 S 0.13036 0.46501 0.87067 0.0
N429 N 0.14564 0.51712 0.87267 0.0
N430 N 0.13517 0.4498 0.81809 0.0
C431 C 0.14966 0.48772 0.79947 0.0
C432 C 0.1551 0.52425 0.82911 0.0
C433 C 0.74165 0.88955 0.04402 0.0
C434 C 0.7628 0.90551 0.08581 0.0
C435 C 0.7686 0.88672 1.00629 0.0
C436 C 0.81844 0.89935 1.00812 0.0
H437 H 0.70378 0.87832 0.04042 0.0
H438 H 0.74994 0.87336 0.97549 0.0
S439 S 0.8916 0.94518 0.10897 0.0
N440 N 0.83697 0.93588 0.12633 0.0
N441 N 0.88759 0.93005 0.05543 0.0
C442 C 0.84009 0.91658 0.04933 0.0
C443 C 0.81237 0.91976 0.08801 0.0
C444 C 0.2708 0.64583 0.99736 0.0
C445 C 0.22052 0.63967 0.99825 0.0
C446 C 0.30075 0.63939 0.03524 0.0
C447 C 0.28209 0.62624 0.07606 0.0
H448 H 0.28762 0.65746 0.9675 0.0
H449 H 0.33898 0.64651 0.03289 0.0
S450 S 0.15294 0.60182 0.09569 0.0
N451 N 0.15345 0.61673 0.04286 0.0
N452 N 0.20947 0.60427 0.11418 0.0
C453 C 0.23181 0.61746 0.07686 0.0
C454 C 0.20116 0.62423 0.03802 0.0
C455 C 0.77032 0.15235 0.49952 0.0
C456 C 0.72002 0.14467 0.49929 0.0
C457 C 0.79972 0.14503 0.53746 0.0
C458 C 0.78047 0.12958 0.57726 0.0
H459 H 0.78755 0.16565 0.47056 0.0
H460 H 0.83794 0.15323 0.53601 0.0
S461 S 0.65115 0.10069 0.59361 0.0
N462 N 0.65237 0.11793 0.54163 0.0
N463 N 0.70744 0.10402 0.61313 0.0
C464 C 0.73027 0.11952 0.57691 0.0
C465 C 0.70016 0.12711 0.53799 0.0
C466 C 0.2393 0.38586 0.54411 0.0
C467 C 0.25988 0.40353 0.58546 0.0
C468 C 0.26639 0.38316 0.50641 0.0
C469 C 0.31583 0.39759 0.50787 0.0
H470 H 0.20176 0.37336 0.54078 0.0
H471 H 0.2482 0.3686 0.47592 0.0
S472 S 0.3875 0.44784 0.60759 0.0
N473 N 0.33311 0.43708 0.62519 0.0
N474 N 0.38401 0.43147 0.55446 0.0
C475 C 0.33692 0.41622 0.54871 0.0
C476 C 0.30905 0.41931 0.58732 0.0
C477 C 0.03911 0.76932 0.8668 0.0
C478 C 0.05605 0.75002 0.90578 0.0
C479 C 1.0028 0.79591 0.86806 0.0
C480 C 0.98049 0.80305 0.90801 0.0
H481 H 0.0545 0.76425 0.83508 0.0
H482 H 0.99139 0.81032 0.83721 0.0
S483 S 1.01109 0.75939 0.01927 0.0
N484 N 0.04808 0.74047 0.98567 0.0
N485 N 0.97827 0.78826 0.98758 0.0
C486 C 0.99666 0.78342 0.94709 0.0
C487 C 0.0348 0.75754 0.9461 0.0
C488 C 0.05016 0.27674 0.70339 0.0
C489 C 0.05244 0.31527 0.72841 0.0
C490 C 1.01092 0.2441 0.70523 0.0
C491 C 0.97269 0.24863 0.73247 0.0
H492 H 0.07991 0.27092 0.68403 0.0
H493 H 1.01143 0.21462 0.68656 0.0
S494 S 0.95811 0.34636 0.79834 0.0
N495 N 1.01056 0.35758 0.77701 0.0
N496 N 0.93749 0.29765 0.78018 0.0
C497 C 0.9736 0.2882 0.7553 0.0
C498 C 1.0132 0.32101 0.7534 0.0
C499 C 0.5637 0.29365 0.40842 0.0
C500 C 0.55379 0.24902 0.40351 0.0
C501 C 0.52674 0.31959 0.40986 0.0
C502 C 0.47824 0.30201 0.40807 0.0
H503 H 0.60034 0.3088 0.41007 0.0
H504 H 0.5363 0.35376 0.41266 0.0
S505 S 0.43288 0.18695 0.39666 0.0
N506 N 0.49146 0.18853 0.39706 0.0
N507 N 0.42262 0.23686 0.40173 0.0
C508 C 0.46792 0.2574 0.40422 0.0
C509 C 0.50544 0.23109 0.40141 0.0
C510 C 0.71447 0.55058 0.72338 0.0
C511 C 0.67085 0.56509 0.71013 0.0
C512 C 0.71669 0.51686 0.75333 0.0
C513 C 0.67533 0.4956 0.77114 0.0
H514 H 0.7474 0.56539 0.7105 0.0
H515 H 0.75124 0.5069 0.76191 0.0
S516 S 0.552 0.52131 0.74786 0.0
N517 N 0.58512 0.55573 0.71808 0.0
N518 N 0.58927 0.4922 0.77357 0.0
C519 C 0.63146 0.50992 0.75845 0.0
C520 C 0.62924 0.54462 0.72826 0.0
C521 C 0.34237 1.01675 0.76135 0.0
C522 C 0.38273 0.02985 0.79077 0.0
C523 C 0.34071 0.98203 0.73121 0.0
C524 C 0.37955 0.95875 0.72849 0.0
H525 H 0.31195 0.03429 0.76061 0.0
H526 H 0.30899 0.97421 0.70894 0.0
S527 S 0.4928 0.97777 0.80018 0.0
N528 N 0.46169 1.01509 0.81694 0.0
N529 N 0.45889 0.94985 0.76024 0.0
C530 C 0.41958 0.97035 0.75893 0.0
C531 C 0.42106 1.00574 0.79007 0.0
C532 C 0.54556 0.20758 0.82916 0.0
C533 C 0.50616 0.21495 0.8533 0.0
C534 C 0.58796 0.23641 0.83173 0.0
C535 C 0.59252 0.27468 0.85744 0.0
H536 H 0.54393 0.17892 0.80856 0.0
H537 H 0.61737 0.22888 0.81278 0.0
S538 S 0.49907 0.31027 0.92543 0.0
N539 N 0.47428 0.26388 0.9035 0.0
N540 N 0.55316 0.31869 0.90669 0.0
C541 C 0.55304 0.28298 0.88095 0.0
C542 C 0.51021 0.25298 0.87936 0.0
C543 C 0.38932 0.52726 0.2677 0.0
C544 C 0.3688 0.56493 0.2747 0.0
C545 C 0.38416 0.49334 0.29816 0.0
C546 C 0.35773 0.49543 0.3366 0.0
H547 H 0.40801 0.52322 0.23762 0.0
H548 H 0.39866 0.46435 0.29016 0.0
S549 S 0.30147 0.58832 0.37357 0.0
N550 N 0.32485 0.60325 0.32606 0.0
N551 N 0.31438 0.53963 0.38177 0.0
C552 C 0.33915 0.53359 0.34508 0.0
C553 C 0.34491 0.56822 0.31464 0.0
C554 C 0.68841 0.0206 0.33792 0.0
C555 C 0.67436 0.05944 0.3241 0.0
C556 C 0.68516 0.98556 0.30814 0.0
C557 C 0.66871 0.98779 0.26263 0.0
H558 H 0.7038 1.01773 0.37174 0.0
H559 H 0.69793 0.95697 0.32074 0.0
S560 S 0.62545 0.08211 0.20995 0.0
N561 N 0.64094 0.09785 0.26252 0.0
N562 N 0.63577 0.03208 0.20601 0.0
C563 C 0.65245 0.02596 0.24876 0.0
C564 C 0.65512 0.06172 0.27958 0.0
C565 C 0.55352 0.7764 0.2017 0.0
C566 C 0.55646 0.81418 0.22811 0.0
C567 C 0.51406 0.74388 0.20288 0.0
C568 C 0.47624 0.7478 0.2308 0.0
H569 H 0.58297 0.77099 0.18175 0.0
H570 H 0.5141 0.71493 0.18316 0.0
S571 S 0.46348 0.84371 0.30057 0.0
N572 N 0.51568 0.85527 0.27887 0.0
N573 N 0.44217 0.79568 0.28083 0.0
C574 C 0.47779 0.78675 0.25505 0.0
C575 C 0.51763 0.8194 0.25383 0.0
loop_
_geom_bond_atom_site_label_1
_geom_bond_atom_site_label_2
_geom_bond_distance
_geom_bond_site_symmetry_2
_ccdc_geom_bond_type
Co0 O1 2.216 . S
Co0 O2 2.091 . S
Co0 O4 2.004 . S
Co0 O10 2.021 . S
Co0 O12 2.137 . S
Co0 O13 2.244 . S
O1 Co0 2.216 . S
O1 C8 1.247 . S
O2 Co0 2.091 . S
O2 C8 1.261 . S
C3 O12 1.247 . S
C3 O13 1.272 . S
O4 Co0 2.004 . S
O4 C9 1.259 . S
Co5 O6 2.061 . S
Co5 O11 2.052 . S
Co5 O13 2.135 . S
O6 Co5 2.061 . S
O6 C9 1.235 . S
C7 O10 1.238 . S
C7 O11 1.241 . S
C8 O1 1.247 . S
C8 O2 1.261 . S
C9 O4 1.259 . S
C9 O6 1.235 . S
O10 Co0 2.021 . S
O10 C7 1.238 . S
O11 Co5 2.052 . S
O11 C7 1.241 . S
O12 Co0 2.137 . S
O12 C3 1.247 . S
O13 Co0 2.244 . S
O13 C3 1.272 . S
O13 Co5 2.135 . S
Co14 O15 2.216 . S
Co14 O16 2.091 . S
Co14 O18 2.004 . S
Co14 O24 2.021 . S
Co14 O26 2.137 . S
Co14 O27 2.244 . S
O15 Co14 2.216 . S
O15 C22 1.247 . S
O16 Co14 2.091 . S
O16 C22 1.261 . S
C17 O26 1.247 . S
C17 O27 1.272 . S
O18 Co14 2.004 . S
O18 C23 1.259 . S
Co19 O20 2.061 . S
Co19 O25 2.052 . S
Co19 O27 2.135 . S
O20 Co19 2.061 . S
O20 C23 1.235 . S
C21 O24 1.238 . S
C21 O25 1.241 . S
C22 O15 1.247 . S
C22 O16 1.261 . S
C23 O18 1.259 . S
C23 O20 1.235 . S
O24 Co14 2.021 . S
O24 C21 1.238 . S
O25 Co19 2.052 . S
O25 C21 1.241 . S
O26 Co14 2.137 . S
O26 C17 1.247 . S
O27 Co14 2.244 . S
O27 C17 1.272 . S
O27 Co19 2.135 . S
Co28 O29 2.216 . S
Co28 O30 2.091 . S
Co28 O32 2.004 . S
Co28 O38 2.021 . S
Co28 O40 2.137 . S
Co28 O41 2.244 . S
O29 Co28 2.216 . S
O29 C36 1.247 . S
O30 Co28 2.091 . S
O30 C36 1.261 . S
C31 O40 1.247 . S
C31 O41 1.272 . S
O32 Co28 2.004 . S
O32 C37 1.259 . S
Co33 O34 2.061 . S
Co33 O39 2.052 . S
Co33 O41 2.135 . S
O34 Co33 2.061 . S
O34 C37 1.235 . S
C35 O38 1.238 . S
C35 O39 1.241 . S
C36 O29 1.247 . S
C36 O30 1.261 . S
C37 O32 1.259 . S
C37 O34 1.235 . S
O38 Co28 2.021 . S
O38 C35 1.238 . S
O39 Co33 2.052 . S
O39 C35 1.241 . S
O40 Co28 2.137 . S
O40 C31 1.247 . S
O41 Co28 2.244 . S
O41 C31 1.272 . S
O41 Co33 2.135 . S
Co42 O43 2.216 . S
Co42 O44 2.091 . S
Co42 O46 2.004 . S
Co42 O52 2.021 . S
Co42 O54 2.137 . S
Co42 O55 2.244 . S
O43 Co42 2.216 . S
O43 C50 1.247 . S
O44 Co42 2.091 . S
O44 C50 1.261 . S
C45 O54 1.247 . S
C45 O55 1.272 . S
O46 Co42 2.004 . S
O46 C51 1.259 . S
Co47 O48 2.061 . S
Co47 O53 2.052 . S
Co47 O55 2.135 . S
O48 Co47 2.061 . S
O48 C51 1.235 . S
C49 O52 1.238 . S
C49 O53 1.241 . S
C50 O43 1.247 . S
C50 O44 1.261 . S
C51 O46 1.259 . S
C51 O48 1.235 . S
O52 Co42 2.021 . S
O52 C49 1.238 . S
O53 Co47 2.052 . S
O53 C49 1.241 . S
O54 Co42 2.137 . S
O54 C45 1.247 . S
O55 Co42 2.244 . S
O55 C45 1.272 . S
O55 Co47 2.135 . S
Co56 O57 2.216 . S
Co56 O58 2.091 . S
Co56 O60 2.004 . S
Co56 O66 2.021 . S
Co56 O68 2.137 . S
Co56 O69 2.244 . S
O57 Co56 2.216 . S
O57 C64 1.247 . S
O58 Co56 2.091 . S
O58 C64 1.261 . S
C59 O68 1.247 . S
C59 O69 1.272 . S
O60 Co56 2.004 . S
O60 C65 1.259 . S
Co61 O62 2.061 . S
Co61 O67 2.052 . S
Co61 O69 2.135 . S
O62 Co61 2.061 . S
O62 C65 1.235 . S
C63 O66 1.238 . S
C63 O67 1.241 . S
C64 O57 1.247 . S
C64 O58 1.261 . S
C65 O60 1.259 . S
C65 O62 1.235 . S
O66 Co56 2.021 . S
O66 C63 1.238 . S
O67 Co61 2.052 . S
O67 C63 1.241 . S
O68 Co56 2.137 . S
O68 C59 1.247 . S
O69 Co56 2.244 . S
O69 C59 1.272 . S
O69 Co61 2.135 . S
Co70 O71 2.216 . S
Co70 O72 2.091 . S
Co70 O74 2.004 . S
Co70 O80 2.021 . S
Co70 O82 2.137 . S
Co70 O83 2.244 . S
O71 Co70 2.216 . S
O71 C78 1.247 . S
O72 Co70 2.091 . S
O72 C78 1.261 . S
C73 O82 1.247 . S
C73 O83 1.272 . S
O74 Co70 2.004 . S
O74 C79 1.259 . S
Co75 O76 2.061 . S
Co75 O81 2.052 . S
Co75 O83 2.135 . S
O76 Co75 2.061 . S
O76 C79 1.235 . S
C77 O80 1.238 . S
C77 O81 1.241 . S
C78 O71 1.247 . S
C78 O72 1.261 . S
C79 O74 1.259 . S
C79 O76 1.235 . S
O80 Co70 2.021 . S
O80 C77 1.238 . S
O81 Co75 2.052 . S
O81 C77 1.241 . S
O82 Co70 2.137 . S
O82 C73 1.247 . S
O83 Co70 2.244 . S
O83 C73 1.272 . S
O83 Co75 2.135 . S
Co84 O85 2.216 . S
Co84 O86 2.091 . S
Co84 O88 2.004 . S
Co84 O94 2.021 . S
Co84 O96 2.137 . S
Co84 O97 2.244 . S
O85 Co84 2.216 . S
O85 C92 1.247 . S
O86 Co84 2.091 . S
O86 C92 1.261 . S
C87 O96 1.247 . S
C87 O97 1.272 . S
O88 Co84 2.004 . S
O88 C93 1.259 . S
Co89 O90 2.061 . S
Co89 O95 2.052 . S
Co89 O97 2.135 . S
O90 Co89 2.061 . S
O90 C93 1.235 . S
C91 O94 1.238 . S
C91 O95 1.241 . S
C92 O85 1.247 . S
C92 O86 1.261 . S
C93 O88 1.259 . S
C93 O90 1.235 . S
O94 Co84 2.021 . S
O94 C91 1.238 . S
O95 Co89 2.052 . S
O95 C91 1.241 . S
O96 Co84 2.137 . S
O96 C87 1.247 . S
O97 Co84 2.244 . S
O97 C87 1.272 . S
O97 Co89 2.135 . S
Co98 O99 2.216 . S
Co98 O100 2.091 . S
Co98 O102 2.004 . S
Co98 O108 2.021 . S
Co98 O110 2.137 . S
Co98 O111 2.244 . S
O99 Co98 2.216 . S
O99 C106 1.247 . S
O100 Co98 2.091 . S
O100 C106 1.261 . S
C101 O110 1.247 . S
C101 O111 1.272 . S
O102 Co98 2.004 . S
O102 C107 1.259 . S
Co103 O104 2.061 . S
Co103 O109 2.052 . S
Co103 O111 2.135 . S
O104 Co103 2.061 . S
O104 C107 1.235 . S
C105 O108 1.238 . S
C105 O109 1.241 . S
C106 O99 1.247 . S
C106 O100 1.261 . S
C107 O102 1.259 . S
C107 O104 1.235 . S
O108 Co98 2.021 . S
O108 C105 1.238 . S
O109 Co103 2.052 . S
O109 C105 1.241 . S
O110 Co98 2.137 . S
O110 C101 1.247 . S
O111 Co98 2.244 . S
O111 C101 1.272 . S
O111 Co103 2.135 . S
Co112 O113 2.216 . S
Co112 O114 2.091 . S
Co112 O116 2.004 . S
Co112 O122 2.021 . S
Co112 O124 2.137 . S
Co112 O125 2.244 . S
O113 Co112 2.216 . S
O113 C120 1.247 . S
O114 Co112 2.091 . S
O114 C120 1.261 . S
C115 O124 1.247 . S
C115 O125 1.272 . S
O116 Co112 2.004 . S
O116 C121 1.259 . S
Co117 O118 2.061 . S
Co117 O123 2.052 . S
Co117 O125 2.135 . S
O118 Co117 2.061 . S
O118 C121 1.235 . S
C119 O122 1.238 . S
C119 O123 1.241 . S
C120 O113 1.247 . S
C120 O114 1.261 . S
C121 O116 1.259 . S
C121 O118 1.235 . S
O122 Co112 2.021 . S
O122 C119 1.238 . S
O123 Co117 2.052 . S
O123 C119 1.241 . S
O124 Co112 2.137 . S
O124 C115 1.247 . S
O125 Co112 2.244 . S
O125 C115 1.272 . S
O125 Co117 2.135 . S
Co126 O127 2.216 . S
Co126 O128 2.091 . S
Co126 O130 2.004 . S
Co126 O136 2.021 . S
Co126 O138 2.137 . S
Co126 O139 2.244 . S
O127 Co126 2.216 . S
O127 C134 1.247 . S
O128 Co126 2.091 . S
O128 C134 1.261 . S
C129 O138 1.247 . S
C129 O139 1.272 . S
O130 Co126 2.004 . S
O130 C135 1.259 . S
Co131 O132 2.061 . S
Co131 O137 2.052 . S
Co131 O139 2.135 . S
O132 Co131 2.061 . S
O132 C135 1.235 . S
C133 O136 1.238 . S
C133 O137 1.241 . S
C134 O127 1.247 . S
C134 O128 1.261 . S
C135 O130 1.259 . S
C135 O132 1.235 . S
O136 Co126 2.021 . S
O136 C133 1.238 . S
O137 Co131 2.052 . S
O137 C133 1.241 . S
O138 Co126 2.137 . S
O138 C129 1.247 . S
O139 Co126 2.244 . S
O139 C129 1.272 . S
O139 Co131 2.135 . S
Co140 O141 2.216 . S
Co140 O142 2.091 . S
Co140 O144 2.004 . S
Co140 O150 2.021 . S
Co140 O152 2.137 . S
Co140 O153 2.244 . S
O141 Co140 2.216 . S
O141 C148 1.247 . S
O142 Co140 2.091 . S
O142 C148 1.261 . S
C143 O152 1.247 . S
C143 O153 1.272 . S
O144 Co140 2.004 . S
O144 C149 1.259 . S
Co145 O146 2.061 . S
Co145 O151 2.052 . S
Co145 O153 2.135 . S
O146 Co145 2.061 . S
O146 C149 1.235 . S
C147 O150 1.238 . S
C147 O151 1.241 . S
C148 O141 1.247 . S
C148 O142 1.261 . S
C149 O144 1.259 . S
C149 O146 1.235 . S
O150 Co140 2.021 . S
O150 C147 1.238 . S
O151 Co145 2.052 . S
O151 C147 1.241 . S
O152 Co140 2.137 . S
O152 C143 1.247 . S
O153 Co140 2.244 . S
O153 C143 1.272 . S
O153 Co145 2.135 . S
Co154 O155 2.216 . S
Co154 O156 2.091 . S
Co154 O158 2.004 . S
Co154 O164 2.021 . S
Co154 O166 2.137 . S
Co154 O167 2.244 . S
O155 Co154 2.216 . S
O155 C162 1.247 . S
O156 Co154 2.091 . S
O156 C162 1.261 . S
C157 O166 1.247 . S
C157 O167 1.272 . S
O158 Co154 2.004 . S
O158 C163 1.259 . S
Co159 O160 2.061 . S
Co159 O165 2.052 . S
Co159 O167 2.135 . S
O160 Co159 2.061 . S
O160 C163 1.235 . S
C161 O164 1.238 . S
C161 O165 1.241 . S
C162 O155 1.247 . S
C162 O156 1.261 . S
C163 O158 1.259 . S
C163 O160 1.235 . S
O164 Co154 2.021 . S
O164 C161 1.238 . S
O165 Co159 2.052 . S
O165 C161 1.241 . S
O166 Co154 2.137 . S
O166 C157 1.247 . S
O167 Co154 2.244 . S
O167 C157 1.272 . S
O167 Co159 2.135 . S
Co168 O169 2.216 . S
Co168 O170 2.091 . S
Co168 O172 2.004 . S
Co168 O178 2.021 . S
Co168 O180 2.137 . S
Co168 O181 2.244 . S
O169 Co168 2.216 . S
O169 C176 1.247 . S
O170 Co168 2.091 . S
O170 C176 1.261 . S
C171 O180 1.247 . S
C171 O181 1.272 . S
O172 Co168 2.004 . S
O172 C177 1.259 . S
Co173 O174 2.061 . S
Co173 O179 2.052 . S
Co173 O181 2.135 . S
O174 Co173 2.061 . S
O174 C177 1.235 . S
C175 O178 1.238 . S
C175 O179 1.241 . S
C176 O169 1.247 . S
C176 O170 1.261 . S
C177 O172 1.259 . S
C177 O174 1.235 . S
O178 Co168 2.021 . S
O178 C175 1.238 . S
O179 Co173 2.052 . S
O179 C175 1.241 . S
O180 Co168 2.137 . S
O180 C171 1.247 . S
O181 Co168 2.244 . S
O181 C171 1.272 . S
O181 Co173 2.135 . S
Co182 O183 2.216 . S
Co182 O184 2.091 . S
Co182 O186 2.004 . S
Co182 O192 2.021 . S
Co182 O194 2.137 . S
Co182 O195 2.244 . S
O183 Co182 2.216 . S
O183 C190 1.247 . S
O184 Co182 2.091 . S
O184 C190 1.261 . S
C185 O194 1.247 . S
C185 O195 1.272 . S
O186 Co182 2.004 . S
O186 C191 1.259 . S
Co187 O188 2.061 . S
Co187 O193 2.052 . S
Co187 O195 2.135 . S
O188 Co187 2.061 . S
O188 C191 1.235 . S
C189 O192 1.238 . S
C189 O193 1.241 . S
C190 O183 1.247 . S
C190 O184 1.261 . S
C191 O186 1.259 . S
C191 O188 1.235 . S
O192 Co182 2.021 . S
O192 C189 1.238 . S
O193 Co187 2.052 . S
O193 C189 1.241 . S
O194 Co182 2.137 . S
O194 C185 1.247 . S
O195 Co182 2.244 . S
O195 C185 1.272 . S
O195 Co187 2.135 . S
Co196 O197 2.216 . S
Co196 O198 2.091 . S
Co196 O200 2.004 . S
Co196 O206 2.021 . S
Co196 O208 2.137 . S
Co196 O209 2.244 . S
O197 Co196 2.216 . S
O197 C204 1.247 . S
O198 Co196 2.091 . S
O198 C204 1.261 . S
C199 O208 1.247 . S
C199 O209 1.272 . S
O200 Co196 2.004 . S
O200 C205 1.259 . S
Co201 O202 2.061 . S
Co201 O207 2.052 . S
Co201 O209 2.135 . S
O202 Co201 2.061 . S
O202 C205 1.235 . S
C203 O206 1.238 . S
C203 O207 1.241 . S
C204 O197 1.247 . S
C204 O198 1.261 . S
C205 O200 1.259 . S
C205 O202 1.235 . S
O206 Co196 2.021 . S
O206 C203 1.238 . S
O207 Co201 2.052 . S
O207 C203 1.241 . S
O208 Co196 2.137 . S
O208 C199 1.247 . S
O209 Co196 2.244 . S
O209 C199 1.272 . S
O209 Co201 2.135 . S
Co210 O211 2.216 . S
Co210 O212 2.091 . S
Co210 O214 2.004 . S
Co210 O220 2.021 . S
Co210 O222 2.137 . S
Co210 O223 2.244 . S
O211 Co210 2.216 . S
O211 C218 1.247 . S
O212 Co210 2.091 . S
O212 C218 1.261 . S
C213 O222 1.247 . S
C213 O223 1.272 . S
O214 Co210 2.004 . S
O214 C219 1.259 . S
Co215 O216 2.061 . S
Co215 O221 2.052 . S
Co215 O223 2.135 . S
O216 Co215 2.061 . S
O216 C219 1.235 . S
C217 O220 1.238 . S
C217 O221 1.241 . S
C218 O211 1.247 . S
C218 O212 1.261 . S
C219 O214 1.259 . S
C219 O216 1.235 . S
O220 Co210 2.021 . S
O220 C217 1.238 . S
O221 Co215 2.052 . S
O221 C217 1.241 . S
O222 Co210 2.137 . S
O222 C213 1.247 . S
O223 Co210 2.244 . S
O223 C213 1.272 . S
O223 Co215 2.135 . S
C224 C225 1.369 . S
C224 C226 1.419 . S
C224 H228 0.930 . S
C225 C224 1.369 . S
C225 C234 1.429 . S
C226 C224 1.419 . S
C226 C227 1.363 . S
C226 H229 0.929 . S
C227 C226 1.363 . S
C227 C233 1.428 . S
H228 C224 0.930 . S
H229 C226 0.929 . S
S230 N231 1.613 . S
S230 N232 1.610 . S
N231 S230 1.613 . S
N231 C234 1.350 . S
N232 S230 1.610 . S
N232 C233 1.351 . S
C233 C227 1.428 . S
C233 N232 1.351 . S
C233 C234 1.434 . S
C234 C225 1.429 . S
C234 N231 1.350 . S
C234 C233 1.434 . S
C235 C236 1.369 . S
C235 C237 1.419 . S
C235 H239 0.930 . S
C236 C235 1.369 . S
C236 C245 1.429 . S
C237 C235 1.419 . S
C237 C238 1.363 . S
C237 H240 0.929 . S
C238 C237 1.363 . S
C238 C244 1.428 . S
H239 C235 0.930 . S
H240 C237 0.929 . S
S241 N242 1.613 . S
S241 N243 1.610 . S
N242 S241 1.613 . S
N242 C245 1.350 . S
N243 S241 1.610 . S
N243 C244 1.351 . S
C244 C238 1.428 . S
C244 N243 1.351 . S
C244 C245 1.434 . S
C245 C236 1.429 . S
C245 N242 1.350 . S
C245 C244 1.434 . S
C246 C247 1.369 . S
C246 C248 1.419 . S
C246 H250 0.930 . S
C247 C246 1.369 . S
C247 C256 1.429 . S
C248 C246 1.419 . S
C248 C249 1.363 . S
C248 H251 0.929 . S
C249 C248 1.363 . S
C249 C255 1.428 . S
H250 C246 0.930 . S
H251 C248 0.929 . S
S252 N253 1.613 . S
S252 N254 1.610 . S
N253 S252 1.613 . S
N253 C256 1.350 . S
N254 S252 1.610 . S
N254 C255 1.351 . S
C255 C249 1.428 . S
C255 N254 1.351 . S
C255 C256 1.434 . S
C256 C247 1.429 . S
C256 N253 1.350 . S
C256 C255 1.434 . S
C257 C258 1.369 . S
C257 C259 1.419 . S
C257 H261 0.930 . S
C258 C257 1.369 . S
C258 C267 1.429 . S
C259 C257 1.419 . S
C259 C260 1.363 . S
C259 H262 0.929 . S
C260 C259 1.363 . S
C260 C266 1.428 . S
H261 C257 0.930 . S
H262 C259 0.929 . S
S263 N264 1.613 . S
S263 N265 1.610 . S
N264 S263 1.613 . S
N264 C267 1.350 . S
N265 S263 1.610 . S
N265 C266 1.351 . S
C266 C260 1.428 . S
C266 N265 1.351 . S
C266 C267 1.434 . S
C267 C258 1.429 . S
C267 N264 1.350 . S
C267 C266 1.434 . S
C268 C269 1.369 . S
C268 C270 1.419 . S
C268 H272 0.930 . S
C269 C268 1.369 . S
C269 C278 1.429 . S
C270 C268 1.419 . S
C270 C271 1.363 . S
C270 H273 0.929 . S
C271 C270 1.363 . S
C271 C277 1.428 . S
H272 C268 0.930 . S
H273 C270 0.929 . S
S274 N275 1.613 . S
S274 N276 1.610 . S
N275 S274 1.613 . S
N275 C278 1.350 . S
N276 S274 1.610 . S
N276 C277 1.351 . S
C277 C271 1.428 . S
C277 N276 1.351 . S
C277 C278 1.434 . S
C278 C269 1.429 . S
C278 N275 1.350 . S
C278 C277 1.434 . S
C279 C280 1.369 . S
C279 C281 1.419 . S
C279 H283 0.930 . S
C280 C279 1.369 . S
C280 C289 1.429 . S
C281 C279 1.419 . S
C281 C282 1.363 . S
C281 H284 0.929 . S
C282 C281 1.363 . S
C282 C288 1.428 . S
H283 C279 0.930 . S
H284 C281 0.929 . S
S285 N286 1.613 . S
S285 N287 1.610 . S
N286 S285 1.613 . S
N286 C289 1.350 . S
N287 S285 1.610 . S
N287 C288 1.351 . S
C288 C282 1.428 . S
C288 N287 1.351 . S
C288 C289 1.434 . S
C289 C280 1.429 . S
C289 N286 1.350 . S
C289 C288 1.434 . S
C290 C291 1.369 . S
C290 C292 1.419 . S
C290 H294 0.930 . S
C291 C290 1.369 . S
C291 C300 1.429 . S
C292 C290 1.419 . S
C292 C293 1.363 . S
C292 H295 0.929 . S
C293 C292 1.363 . S
C293 C299 1.428 . S
H294 C290 0.930 . S
H295 C292 0.929 . S
S296 N297 1.613 . S
S296 N298 1.610 . S
N297 S296 1.613 . S
N297 C300 1.350 . S
N298 S296 1.610 . S
N298 C299 1.351 . S
C299 C293 1.428 . S
C299 N298 1.351 . S
C299 C300 1.434 . S
C300 C291 1.429 . S
C300 N297 1.350 . S
C300 C299 1.434 . S
C301 C302 1.369 . S
C301 C303 1.419 . S
C301 H305 0.930 . S
C302 C301 1.369 . S
C302 C311 1.429 . S
C303 C301 1.419 . S
C303 C304 1.363 . S
C303 H306 0.929 . S
C304 C303 1.363 . S
C304 C310 1.428 . S
H305 C301 0.930 . S
H306 C303 0.929 . S
S307 N308 1.613 . S
S307 N309 1.610 . S
N308 S307 1.613 . S
N308 C311 1.350 . S
N309 S307 1.610 . S
N309 C310 1.351 . S
C310 C304 1.428 . S
C310 N309 1.351 . S
C310 C311 1.434 . S
C311 C302 1.429 . S
C311 N308 1.350 . S
C311 C310 1.434 . S
C312 C313 1.369 1_545 S
C312 C314 1.419 . S
C312 H316 0.930 . S
C313 C312 1.369 1_565 S
C313 C322 1.429 . S
C314 C312 1.419 . S
C314 C315 1.363 . S
C314 H317 0.929 . S
C315 C314 1.363 . S
C315 C321 1.428 1_545 S
H316 C312 0.930 . S
H317 C314 0.929 . S
S318 N319 1.613 . S
S318 N320 1.610 . S
N319 S318 1.613 . S
N319 C322 1.350 . S
N320 S318 1.610 . S
N320 C321 1.351 . S
C321 C315 1.428 1_565 S
C321 N320 1.351 . S
C321 C322 1.434 . S
C322 C313 1.429 . S
C322 N319 1.350 . S
C322 C321 1.434 . S
C323 C324 1.369 . S
C323 C325 1.419 . S
C323 H327 0.930 . S
C324 C323 1.369 . S
C324 C333 1.429 . S
C325 C323 1.419 . S
C325 C326 1.363 . S
C325 H328 0.929 . S
C326 C325 1.363 . S
C326 C332 1.428 . S
H327 C323 0.930 . S
H328 C325 0.929 . S
S329 N330 1.613 . S
S329 N331 1.610 . S
N330 S329 1.613 . S
N330 C333 1.350 . S
N331 S329 1.610 . S
N331 C332 1.351 . S
C332 C326 1.428 . S
C332 N331 1.351 . S
C332 C333 1.434 . S
C333 C324 1.429 . S
C333 N330 1.350 . S
C333 C332 1.434 . S
C334 C335 1.369 . S
C334 C336 1.419 1_556 S
C334 H338 0.930 . S
C335 C334 1.369 . S
C335 C344 1.429 . S
C336 C334 1.419 1_554 S
C336 C337 1.363 . S
C336 H339 0.929 . S
C337 C336 1.363 . S
C337 C343 1.428 1_554 S
H338 C334 0.930 . S
H339 C336 0.929 . S
S340 N341 1.613 . S
S340 N342 1.610 . S
N341 S340 1.613 . S
N341 C344 1.350 . S
N342 S340 1.610 . S
N342 C343 1.351 . S
C343 C337 1.428 1_556 S
C343 N342 1.351 . S
C343 C344 1.434 . S
C344 C335 1.429 . S
C344 N341 1.350 . S
C344 C343 1.434 . S
C345 C346 1.369 1_556 S
C345 C347 1.419 . S
C345 H349 0.930 . S
C346 C345 1.369 1_554 S
C346 C355 1.429 . S
C347 C345 1.419 . S
C347 C348 1.363 . S
C347 H350 0.929 . S
C348 C347 1.363 . S
C348 C354 1.428 . S
H349 C345 0.930 . S
H350 C347 0.929 . S
S351 N352 1.613 . S
S351 N353 1.610 1_554 S
N352 S351 1.613 . S
N352 C355 1.350 . S
N353 S351 1.610 1_556 S
N353 C354 1.351 . S
C354 C348 1.428 . S
C354 N353 1.351 . S
C354 C355 1.434 1_556 S
C355 C346 1.429 . S
C355 N352 1.350 . S
C355 C354 1.434 1_554 S
C356 C357 1.369 . S
C356 C358 1.419 . S
C356 H360 0.930 . S
C357 C356 1.369 . S
C357 C366 1.429 . S
C358 C356 1.419 . S
C358 C359 1.363 . S
C358 H361 0.929 . S
C359 C358 1.363 . S
C359 C365 1.428 . S
H360 C356 0.930 . S
H361 C358 0.929 . S
S362 N363 1.613 . S
S362 N364 1.610 . S
N363 S362 1.613 . S
N363 C366 1.350 . S
N364 S362 1.610 . S
N364 C365 1.351 . S
C365 C359 1.428 . S
C365 N364 1.351 . S
C365 C366 1.434 . S
C366 C357 1.429 . S
C366 N363 1.350 . S
C366 C365 1.434 . S
C367 C368 1.369 . S
C367 C369 1.419 . S
C367 H371 0.930 . S
C368 C367 1.369 . S
C368 C377 1.429 . S
C369 C367 1.419 . S
C369 C370 1.363 . S
C369 H372 0.929 . S
C370 C369 1.363 . S
C370 C376 1.428 . S
H371 C367 0.930 . S
H372 C369 0.929 . S
S373 N374 1.613 . S
S373 N375 1.610 . S
N374 S373 1.613 . S
N374 C377 1.350 . S
N375 S373 1.610 . S
N375 C376 1.351 . S
C376 C370 1.428 . S
C376 N375 1.351 . S
C376 C377 1.434 . S
C377 C368 1.429 . S
C377 N374 1.350 . S
C377 C376 1.434 . S
C378 C379 1.369 . S
C378 C380 1.419 1_655 S
C378 H382 0.930 . S
C379 C378 1.369 . S
C379 C388 1.429 . S
C380 C378 1.419 1_455 S
C380 C381 1.363 . S
C380 H383 0.929 . S
C381 C380 1.363 . S
C381 C387 1.428 . S
H382 C378 0.930 . S
H383 C380 0.929 . S
S384 N385 1.613 1_455 S
S384 N386 1.610 . S
N385 S384 1.613 1_655 S
N385 C388 1.350 . S
N386 S384 1.610 . S
N386 C387 1.351 . S
C387 C381 1.428 . S
C387 N386 1.351 . S
C387 C388 1.434 1_455 S
C388 C379 1.429 . S
C388 N385 1.350 . S
C388 C387 1.434 1_655 S
C389 C390 1.369 . S
C389 C391 1.419 1_655 S
C389 H393 0.930 . S
C390 C389 1.369 . S
C390 C399 1.429 1_655 S
C391 C389 1.419 1_455 S
C391 C392 1.363 . S
C391 H394 0.929 . S
C392 C391 1.363 . S
C392 C398 1.428 . S
H393 C389 0.930 . S
H394 C391 0.929 . S
S395 N396 1.613 . S
S395 N397 1.610 . S
N396 S395 1.613 . S
N396 C399 1.350 . S
N397 S395 1.610 . S
N397 C398 1.351 . S
C398 C392 1.428 . S
C398 N397 1.351 . S
C398 C399 1.434 . S
C399 C390 1.429 1_455 S
C399 N396 1.350 . S
C399 C398 1.434 . S
C400 C401 1.369 . S
C400 C402 1.419 . S
C400 H404 0.930 . S
C401 C400 1.369 . S
C401 C410 1.429 . S
C402 C400 1.419 . S
C402 C403 1.363 . S
C402 H405 0.929 . S
C403 C402 1.363 . S
C403 C409 1.428 . S
H404 C400 0.930 . S
H405 C402 0.929 . S
S406 N407 1.613 . S
S406 N408 1.610 . S
N407 S406 1.613 . S
N407 C410 1.350 . S
N408 S406 1.610 . S
N408 C409 1.351 . S
C409 C403 1.428 . S
C409 N408 1.351 . S
C409 C410 1.434 . S
C410 C401 1.429 . S
C410 N407 1.350 . S
C410 C409 1.434 . S
C411 C412 1.369 . S
C411 C413 1.419 1_545 S
C411 H415 0.930 . S
C412 C411 1.369 . S
C412 C421 1.429 . S
C413 C411 1.419 1_565 S
C413 C414 1.363 . S
C413 H416 0.929 . S
C414 C413 1.363 . S
C414 C420 1.428 . S
H415 C411 0.930 . S
H416 C413 0.929 . S
S417 N418 1.613 . S
S417 N419 1.610 1_545 S
N418 S417 1.613 . S
N418 C421 1.350 . S
N419 S417 1.610 1_565 S
N419 C420 1.351 . S
C420 C414 1.428 . S
C420 N419 1.351 . S
C420 C421 1.434 1_565 S
C421 C412 1.429 . S
C421 N418 1.350 . S
C421 C420 1.434 1_545 S
C422 C423 1.369 . S
C422 C424 1.419 . S
C422 H426 0.930 . S
C423 C422 1.369 . S
C423 C432 1.429 . S
C424 C422 1.419 . S
C424 C425 1.363 . S
C424 H427 0.929 . S
C425 C424 1.363 . S
C425 C431 1.428 . S
H426 C422 0.930 . S
H427 C424 0.929 . S
S428 N429 1.613 . S
S428 N430 1.610 . S
N429 S428 1.613 . S
N429 C432 1.350 . S
N430 S428 1.610 . S
N430 C431 1.351 . S
C431 C425 1.428 . S
C431 N430 1.351 . S
C431 C432 1.434 . S
C432 C423 1.429 . S
C432 N429 1.350 . S
C432 C431 1.434 . S
C433 C434 1.369 . S
C433 C435 1.419 . S
C433 H437 0.930 . S
C434 C433 1.369 . S
C434 C443 1.429 . S
C435 C433 1.419 . S
C435 C436 1.363 1_554 S
C435 H438 0.936 . S
C436 C435 1.363 1_556 S
C436 C442 1.428 1_556 S
H437 C433 0.930 . S
H438 C435 0.936 . S
S439 N440 1.613 . S
S439 N441 1.610 1_554 S
N440 S439 1.613 . S
N440 C443 1.350 . S
N441 S439 1.610 1_556 S
N441 C442 1.351 1_556 S
C442 C436 1.428 1_554 S
C442 N441 1.351 1_554 S
C442 C443 1.434 . S
C443 C434 1.429 . S
C443 N440 1.350 . S
C443 C442 1.434 . S
C444 C445 1.369 . S
C444 C446 1.419 1_556 S
C444 H448 0.930 . S
C445 C444 1.369 . S
C445 C454 1.429 1_556 S
C446 C444 1.419 1_554 S
C446 C447 1.363 . S
C446 H449 0.929 . S
C447 C446 1.363 . S
C447 C453 1.428 . S
H448 C444 0.930 . S
H449 C446 0.929 . S
S450 N451 1.613 . S
S450 N452 1.610 . S
N451 S450 1.613 . S
N451 C454 1.350 . S
N452 S450 1.610 . S
N452 C453 1.351 . S
C453 C447 1.428 . S
C453 N452 1.351 . S
C453 C454 1.434 . S
C454 C445 1.429 1_554 S
C454 N451 1.350 . S
C454 C453 1.434 . S
C455 C456 1.369 . S
C455 C457 1.419 . S
C455 H459 0.930 . S
C456 C455 1.369 . S
C456 C465 1.429 . S
C457 C455 1.419 . S
C457 C458 1.363 . S
C457 H460 0.929 . S
C458 C457 1.363 . S
C458 C464 1.428 . S
H459 C455 0.930 . S
H460 C457 0.929 . S
S461 N462 1.613 . S
S461 N463 1.610 . S
N462 S461 1.613 . S
N462 C465 1.350 . S
N463 S461 1.610 . S
N463 C464 1.351 . S
C464 C458 1.428 . S
C464 N463 1.351 . S
C464 C465 1.434 . S
C465 C456 1.429 . S
C465 N462 1.350 . S
C465 C464 1.434 . S
C466 C467 1.369 . S
C466 C468 1.419 . S
C466 H470 0.930 . S
C467 C466 1.369 . S
C467 C476 1.429 . S
C468 C466 1.419 . S
C468 C469 1.363 . S
C468 H471 0.929 . S
C469 C468 1.363 . S
C469 C475 1.428 . S
H470 C466 0.930 . S
H471 C468 0.929 . S
S472 N473 1.613 . S
S472 N474 1.610 . S
N473 S472 1.613 . S
N473 C476 1.350 . S
N474 S472 1.610 . S
N474 C475 1.351 . S
C475 C469 1.428 . S
C475 N474 1.351 . S
C475 C476 1.434 . S
C476 C467 1.429 . S
C476 N473 1.350 . S
C476 C475 1.434 . S
C477 C478 1.369 . S
C477 C479 1.419 1_455 S
C477 H481 0.930 . S
C478 C477 1.369 . S
C478 C487 1.429 . S
C479 C477 1.419 1_655 S
C479 C480 1.363 . S
C479 H482 0.929 . S
C480 C479 1.363 . S
C480 C486 1.428 . S
H481 C477 0.930 . S
H482 C479 0.929 . S
S483 N484 1.613 1_655 S
S483 N485 1.610 . S
N484 S483 1.613 1_455 S
N484 C487 1.350 . S
N485 S483 1.610 . S
N485 C486 1.351 . S
C486 C480 1.428 . S
C486 N485 1.351 . S
C486 C487 1.434 1_655 S
C487 C478 1.429 . S
C487 N484 1.350 . S
C487 C486 1.434 1_455 S
C488 C489 1.369 . S
C488 C490 1.419 1_455 S
C488 H492 0.930 . S
C489 C488 1.369 . S
C489 C498 1.429 . S
C490 C488 1.419 1_655 S
C490 C491 1.363 . S
C490 H493 0.929 . S
C491 C490 1.363 . S
C491 C497 1.428 . S
H492 C488 0.930 . S
H493 C490 0.929 . S
S494 N495 1.613 . S
S494 N496 1.610 1_455 S
N495 S494 1.613 . S
N495 C498 1.350 . S
N496 S494 1.610 1_655 S
N496 C497 1.351 . S
C497 C491 1.428 . S
C497 N496 1.351 . S
C497 C498 1.434 1_655 S
C498 C489 1.429 . S
C498 N495 1.350 . S
C498 C497 1.434 1_455 S
C499 C500 1.369 . S
C499 C501 1.419 . S
C499 H503 0.930 . S
C500 C499 1.369 . S
C500 C509 1.429 . S
C501 C499 1.419 . S
C501 C502 1.363 . S
C501 H504 0.929 . S
C502 C501 1.363 . S
C502 C508 1.428 . S
H503 C499 0.930 . S
H504 C501 0.929 . S
S505 N506 1.613 . S
S505 N507 1.610 . S
N506 S505 1.613 . S
N506 C509 1.350 . S
N507 S505 1.610 . S
N507 C508 1.351 . S
C508 C502 1.428 . S
C508 N507 1.351 . S
C508 C509 1.434 . S
C509 C500 1.429 . S
C509 N506 1.350 . S
C509 C508 1.434 . S
C510 C511 1.369 . S
C510 C512 1.419 . S
C510 H514 0.930 . S
C511 C510 1.369 . S
C511 C520 1.429 . S
C512 C510 1.419 . S
C512 C513 1.363 . S
C512 H515 0.929 . S
C513 C512 1.363 . S
C513 C519 1.428 . S
H514 C510 0.930 . S
H515 C512 0.929 . S
S516 N517 1.613 . S
S516 N518 1.610 . S
N517 S516 1.613 . S
N517 C520 1.350 . S
N518 S516 1.610 . S
N518 C519 1.351 . S
C519 C513 1.428 . S
C519 N518 1.351 . S
C519 C520 1.434 . S
C520 C511 1.429 . S
C520 N517 1.350 . S
C520 C519 1.434 . S
C521 C522 1.369 . S
C521 C523 1.419 1_545 S
C521 H525 0.930 . S
C522 C521 1.369 . S
C522 C531 1.429 . S
C523 C521 1.419 1_565 S
C523 C524 1.363 . S
C523 H526 0.929 . S
C524 C523 1.363 . S
C524 C530 1.428 . S
H525 C521 0.930 . S
H526 C523 0.929 . S
S527 N528 1.613 1_565 S
S527 N529 1.610 . S
N528 S527 1.613 1_545 S
N528 C531 1.350 . S
N529 S527 1.610 . S
N529 C530 1.351 . S
C530 C524 1.428 . S
C530 N529 1.351 . S
C530 C531 1.434 1_565 S
C531 C522 1.429 . S
C531 N528 1.350 . S
C531 C530 1.434 1_545 S
C532 C533 1.369 . S
C532 C534 1.419 . S
C532 H536 0.930 . S
C533 C532 1.369 . S
C533 C542 1.429 . S
C534 C532 1.419 . S
C534 C535 1.363 . S
C534 H537 0.929 . S
C535 C534 1.363 . S
C535 C541 1.428 . S
H536 C532 0.930 . S
H537 C534 0.929 . S
S538 N539 1.613 . S
S538 N540 1.610 . S
N539 S538 1.613 . S
N539 C542 1.350 . S
N540 S538 1.610 . S
N540 C541 1.351 . S
C541 C535 1.428 . S
C541 N540 1.351 . S
C541 C542 1.434 . S
C542 C533 1.429 . S
C542 N539 1.350 . S
C542 C541 1.434 . S
C543 C544 1.369 . S
C543 C545 1.419 . S
C543 H547 0.930 . S
C544 C543 1.369 . S
C544 C553 1.429 . S
C545 C543 1.419 . S
C545 C546 1.363 . S
C545 H548 0.929 . S
C546 C545 1.363 . S
C546 C552 1.428 . S
H547 C543 0.930 . S
H548 C545 0.929 . S
S549 N550 1.613 . S
S549 N551 1.610 . S
N550 S549 1.613 . S
N550 C553 1.350 . S
N551 S549 1.610 . S
N551 C552 1.351 . S
C552 C546 1.428 . S
C552 N551 1.351 . S
C552 C553 1.434 . S
C553 C544 1.429 . S
C553 N550 1.350 . S
C553 C552 1.434 . S
C554 C555 1.369 1_565 S
C554 C556 1.419 . S
C554 H558 0.930 . S
C555 C554 1.369 1_545 S
C555 C564 1.429 . S
C556 C554 1.419 . S
C556 C557 1.363 . S
C556 H559 0.929 . S
C557 C556 1.363 . S
C557 C563 1.422 1_565 S
H558 C554 0.930 . S
H559 C556 0.929 . S
S560 N561 1.613 . S
S560 N562 1.610 . S
N561 S560 1.613 . S
N561 C564 1.350 . S
N562 S560 1.610 . S
N562 C563 1.352 . S
C563 C557 1.422 1_545 S
C563 N562 1.352 . S
C563 C564 1.440 . S
C564 C555 1.429 . S
C564 N561 1.350 . S
C564 C563 1.440 . S
C565 C566 1.369 . S
C565 C567 1.419 . S
C565 H569 0.930 . S
C566 C565 1.369 . S
C566 C575 1.429 . S
C567 C565 1.419 . S
C567 C568 1.363 . S
C567 H570 0.929 . S
C568 C567 1.363 . S
C568 C574 1.428 . S
H569 C565 0.930 . S
H570 C567 0.929 . S
S571 N572 1.613 . S
S571 N573 1.610 . S
N572 S571 1.613 . S
N572 C575 1.350 . S
N573 S571 1.610 . S
N573 C574 1.351 . S
C574 C568 1.428 . S
C574 N573 1.351 . S
C574 C575 1.434 . S
C575 C566 1.429 . S
C575 N572 1.350 . S
C575 C574 1.434 . S
C225 C7 1.375 . S
C227 C189 1.394 . S
C236 C21 1.441 . S
C238 C133 1.450 . S
C247 C203 0.779 . S
C249 C35 0.766 . S
C258 C49 0.965 . S
C260 C217 0.945 . S
C269 C63 1.444 . S
C271 C91 1.444 . S
C280 C147 1.365 . S
C282 C77 1.394 . S
C291 C161 0.786 . S
C293 C105 0.785 . S
C302 C119 0.948 . S
C304 C175 0.960 . S
C313 C36 1.550 . S
C315 C8 1.585 . S
C324 C22 1.613 . S
C326 C45 1.606 . S
C335 C177 1.528 . S
C337 C3 1.541 . S
C346 C17 1.610 . S
C348 C157 1.605 . S
C357 C59 1.612 . S
C359 C31 1.604 . S
C368 C143 1.542 . S
C370 C51 1.527 . S
C379 C23 1.851 . S
C381 C9 1.844 . S
C390 C50 1.539 . S
C392 C37 1.540 . S
C401 C149 1.846 . S
C403 C65 1.849 . S
C412 C101 1.785 . S
C414 C79 1.770 . S
C423 C93 1.521 . S
C425 C115 1.545 . S
C434 C218 1.782 . S
C436 C73 1.787 . S
C445 C87 1.458 . S
C447 C204 1.447 . S
C456 C129 1.459 . S
C458 C106 1.450 . S
C467 C120 1.783 . S
C469 C185 1.787 . S
C478 C92 1.557 . S
C480 C78 1.550 . S
C489 C121 1.638 . S
C491 C107 1.640 . S
C500 C134 1.558 . S
C502 C190 1.549 . S
C511 C148 1.583 . S
C513 C162 1.552 . S
C522 C171 1.605 . S
C524 C64 1.612 . S
C533 C176 1.535 . S
C535 C163 1.543 . S
C544 C199 1.785 . S
C546 C191 1.770 . S
C555 C135 1.515 . S
C557 C213 1.548 . S
C566 C219 1.639 . S
C568 C205 1.640 . S
