# Generated by pormake.
# Topology ech, (8)-cn, num edge types: 1
# Building blocks:
#     Node 0, Type 0, BuildingBlock: EBIMEJ_clean_sbu_0, # of connection points: 8
#     Node 1, Type 0, BuildingBlock: EBIMEJ_clean_sbu_0, # of connection points: 8
#     Node 2, Type 0, BuildingBlock: EBIMEJ_clean_sbu_0, # of connection points: 8
#     Node 3, Type 0, BuildingBlock: EBIMEJ_clean_sbu_0, # of connection points: 8
#     Node 4, Type 0, BuildingBlock: EBIMEJ_clean_sbu_0, # of connection points: 8
#     Node 5, Type 0, BuildingBlock: EBIMEJ_clean_sbu_0, # of connection points: 8
#     Node 6, Type 0, BuildingBlock: EBIMEJ_clean_sbu_0, # of connection points: 8
#     Node 7, Type 0, BuildingBlock: EBIMEJ_clean_sbu_0, # of connection points: 8
#     Node 8, Type 0, BuildingBlock: EBIMEJ_clean_sbu_0, # of connection points: 8
#     Node 9, Type 0, BuildingBlock: EBIMEJ_clean_sbu_0, # of connection points: 8
#     Node 10, Type 0, BuildingBlock: EBIMEJ_clean_sbu_0, # of connection points: 8
#     Node 11, Type 0, BuildingBlock: EBIMEJ_clean_sbu_0, # of connection points: 8
#     Node 12, Type 0, BuildingBlock: EBIMEJ_clean_sbu_0, # of connection points: 8
#     Node 13, Type 0, BuildingBlock: EBIMEJ_clean_sbu_0, # of connection points: 8
#     Node 14, Type 0, BuildingBlock: EBIMEJ_clean_sbu_0, # of connection points: 8
#     Node 15, Type 0, BuildingBlock: EBIMEJ_clean_sbu_0, # of connection points: 8
#     Node 16, Type 0, BuildingBlock: EBIMEJ_clean_sbu_0, # of connection points: 8
#     Node 17, Type 0, BuildingBlock: EBIMEJ_clean_sbu_0, # of connection points: 8
#     Node 18, Type 0, BuildingBlock: EBIMEJ_clean_sbu_0, # of connection points: 8
#     Node 19, Type 0, BuildingBlock: EBIMEJ_clean_sbu_0, # of connection points: 8
#     Node 20, Type 0, BuildingBlock: EBIMEJ_clean_sbu_0, # of connection points: 8
#     Node 21, Type 0, BuildingBlock: EBIMEJ_clean_sbu_0, # of connection points: 8
#     Node 22, Type 0, BuildingBlock: EBIMEJ_clean_sbu_0, # of connection points: 8
#     Node 23, Type 0, BuildingBlock: EBIMEJ_clean_sbu_0, # of connection points: 8
#     Edge 24, Type (0, 0), BuildingBlock: AJUNOK_clean_linker_0, # of connection points: 2
#     Edge 25, Type (0, 0), BuildingBlock: AJUNOK_clean_linker_0, # of connection points: 2
#     Edge 26, Type (0, 0), BuildingBlock: AJUNOK_clean_linker_0, # of connection points: 2
#     Edge 27, Type (0, 0), BuildingBlock: AJUNOK_clean_linker_0, # of connection points: 2
#     Edge 28, Type (0, 0), BuildingBlock: AJUNOK_clean_linker_0, # of connection points: 2
#     Edge 29, Type (0, 0), BuildingBlock: AJUNOK_clean_linker_0, # of connection points: 2
#     Edge 30, Type (0, 0), BuildingBlock: AJUNOK_clean_linker_0, # of connection points: 2
#     Edge 31, Type (0, 0), BuildingBlock: AJUNOK_clean_linker_0, # of connection points: 2
#     Edge 32, Type (0, 0), BuildingBlock: AJUNOK_clean_linker_0, # of connection points: 2
#     Edge 33, Type (0, 0), BuildingBlock: AJUNOK_clean_linker_0, # of connection points: 2
#     Edge 34, Type (0, 0), BuildingBlock: AJUNOK_clean_linker_0, # of connection points: 2
#     Edge 35, Type (0, 0), BuildingBlock: AJUNOK_clean_linker_0, # of connection points: 2
#     Edge 36, Type (0, 0), BuildingBlock: AJUNOK_clean_linker_0, # of connection points: 2
#     Edge 37, Type (0, 0), BuildingBlock: AJUNOK_clean_linker_0, # of connection points: 2
#     Edge 38, Type (0, 0), BuildingBlock: AJUNOK_clean_linker_0, # of connection points: 2
#     Edge 39, Type (0, 0), BuildingBlock: AJUNOK_clean_linker_0, # of connection points: 2
#     Edge 40, Type (0, 0), BuildingBlock: AJUNOK_clean_linker_0, # of connection points: 2
#     Edge 41, Type (0, 0), BuildingBlock: AJUNOK_clean_linker_0, # of connection points: 2
#     Edge 42, Type (0, 0), BuildingBlock: AJUNOK_clean_linker_0, # of connection points: 2
#     Edge 43, Type (0, 0), BuildingBlock: AJUNOK_clean_linker_0, # of connection points: 2
#     Edge 44, Type (0, 0), BuildingBlock: AJUNOK_clean_linker_0, # of connection points: 2
#     Edge 45, Type (0, 0), BuildingBlock: AJUNOK_clean_linker_0, # of connection points: 2
#     Edge 46, Type (0, 0), BuildingBlock: AJUNOK_clean_linker_0, # of connection points: 2
#     Edge 47, Type (0, 0), BuildingBlock: AJUNOK_clean_linker_0, # of connection points: 2
#     Edge 48, Type (0, 0), BuildingBlock: AJUNOK_clean_linker_0, # of connection points: 2
#     Edge 49, Type (0, 0), BuildingBlock: AJUNOK_clean_linker_0, # of connection points: 2
#     Edge 50, Type (0, 0), BuildingBlock: AJUNOK_clean_linker_0, # of connection points: 2
#     Edge 51, Type (0, 0), BuildingBlock: AJUNOK_clean_linker_0, # of connection points: 2
#     Edge 52, Type (0, 0), BuildingBlock: AJUNOK_clean_linker_0, # of connection points: 2
#     Edge 53, Type (0, 0), BuildingBlock: AJUNOK_clean_linker_0, # of connection points: 2
#     Edge 54, Type (0, 0), BuildingBlock: AJUNOK_clean_linker_0, # of connection points: 2
#     Edge 55, Type (0, 0), BuildingBlock: AJUNOK_clean_linker_0, # of connection points: 2
#     Edge 56, Type (0, 0), BuildingBlock: AJUNOK_clean_linker_0, # of connection points: 2
#     Edge 57, Type (0, 0), BuildingBlock: AJUNOK_clean_linker_0, # of connection points: 2
#     Edge 58, Type (0, 0), BuildingBlock: AJUNOK_clean_linker_0, # of connection points: 2
#     Edge 59, Type (0, 0), BuildingBlock: AJUNOK_clean_linker_0, # of connection points: 2
#     Edge 60, Type (0, 0), BuildingBlock: AJUNOK_clean_linker_0, # of connection points: 2
#     Edge 61, Type (0, 0), BuildingBlock: AJUNOK_clean_linker_0, # of connection points: 2
#     Edge 62, Type (0, 0), BuildingBlock: AJUNOK_clean_linker_0, # of connection points: 2
#     Edge 63, Type (0, 0), BuildingBlock: AJUNOK_clean_linker_0, # of connection points: 2
#     Edge 64, Type (0, 0), BuildingBlock: AJUNOK_clean_linker_0, # of connection points: 2
#     Edge 65, Type (0, 0), BuildingBlock: AJUNOK_clean_linker_0, # of connection points: 2
#     Edge 66, Type (0, 0), BuildingBlock: AJUNOK_clean_linker_0, # of connection points: 2
#     Edge 67, Type (0, 0), BuildingBlock: AJUNOK_clean_linker_0, # of connection points: 2
#     Edge 68, Type (0, 0), BuildingBlock: AJUNOK_clean_linker_0, # of connection points: 2
#     Edge 69, Type (0, 0), BuildingBlock: AJUNOK_clean_linker_0, # of connection points: 2
#     Edge 70, Type (0, 0), BuildingBlock: AJUNOK_clean_linker_0, # of connection points: 2
#     Edge 71, Type (0, 0), BuildingBlock: AJUNOK_clean_linker_0, # of connection points: 2
#     Edge 72, Type (0, 0), BuildingBlock: AJUNOK_clean_linker_0, # of connection points: 2
#     Edge 73, Type (0, 0), BuildingBlock: AJUNOK_clean_linker_0, # of connection points: 2
#     Edge 74, Type (0, 0), BuildingBlock: AJUNOK_clean_linker_0, # of connection points: 2
#     Edge 75, Type (0, 0), BuildingBlock: AJUNOK_clean_linker_0, # of connection points: 2
#     Edge 76, Type (0, 0), BuildingBlock: AJUNOK_clean_linker_0, # of connection points: 2
#     Edge 77, Type (0, 0), BuildingBlock: AJUNOK_clean_linker_0, # of connection points: 2
#     Edge 78, Type (0, 0), BuildingBlock: AJUNOK_clean_linker_0, # of connection points: 2
#     Edge 79, Type (0, 0), BuildingBlock: AJUNOK_clean_linker_0, # of connection points: 2
#     Edge 80, Type (0, 0), BuildingBlock: AJUNOK_clean_linker_0, # of connection points: 2
#     Edge 81, Type (0, 0), BuildingBlock: AJUNOK_clean_linker_0, # of connection points: 2
#     Edge 82, Type (0, 0), BuildingBlock: AJUNOK_clean_linker_0, # of connection points: 2
#     Edge 83, Type (0, 0), BuildingBlock: AJUNOK_clean_linker_0, # of connection points: 2
#     Edge 84, Type (0, 0), BuildingBlock: AJUNOK_clean_linker_0, # of connection points: 2
#     Edge 85, Type (0, 0), BuildingBlock: AJUNOK_clean_linker_0, # of connection points: 2
#     Edge 86, Type (0, 0), BuildingBlock: AJUNOK_clean_linker_0, # of connection points: 2
#     Edge 87, Type (0, 0), BuildingBlock: AJUNOK_clean_linker_0, # of connection points: 2
#     Edge 88, Type (0, 0), BuildingBlock: AJUNOK_clean_linker_0, # of connection points: 2
#     Edge 89, Type (0, 0), BuildingBlock: AJUNOK_clean_linker_0, # of connection points: 2
#     Edge 90, Type (0, 0), BuildingBlock: AJUNOK_clean_linker_0, # of connection points: 2
#     Edge 91, Type (0, 0), BuildingBlock: AJUNOK_clean_linker_0, # of connection points: 2
#     Edge 92, Type (0, 0), BuildingBlock: AJUNOK_clean_linker_0, # of connection points: 2
#     Edge 93, Type (0, 0), BuildingBlock: AJUNOK_clean_linker_0, # of connection points: 2
#     Edge 94, Type (0, 0), BuildingBlock: AJUNOK_clean_linker_0, # of connection points: 2
#     Edge 95, Type (0, 0), BuildingBlock: AJUNOK_clean_linker_0, # of connection points: 2
#     Edge 96, Type (0, 0), BuildingBlock: AJUNOK_clean_linker_0, # of connection points: 2
#     Edge 97, Type (0, 0), BuildingBlock: AJUNOK_clean_linker_0, # of connection points: 2
#     Edge 98, Type (0, 0), BuildingBlock: AJUNOK_clean_linker_0, # of connection points: 2
#     Edge 99, Type (0, 0), BuildingBlock: AJUNOK_clean_linker_0, # of connection points: 2
#     Edge 100, Type (0, 0), BuildingBlock: AJUNOK_clean_linker_0, # of connection points: 2
#     Edge 101, Type (0, 0), BuildingBlock: AJUNOK_clean_linker_0, # of connection points: 2
#     Edge 102, Type (0, 0), BuildingBlock: AJUNOK_clean_linker_0, # of connection points: 2
#     Edge 103, Type (0, 0), BuildingBlock: AJUNOK_clean_linker_0, # of connection points: 2
#     Edge 104, Type (0, 0), BuildingBlock: AJUNOK_clean_linker_0, # of connection points: 2
#     Edge 105, Type (0, 0), BuildingBlock: AJUNOK_clean_linker_0, # of connection points: 2
#     Edge 106, Type (0, 0), BuildingBlock: AJUNOK_clean_linker_0, # of connection points: 2
#     Edge 107, Type (0, 0), BuildingBlock: AJUNOK_clean_linker_0, # of connection points: 2
#     Edge 108, Type (0, 0), BuildingBlock: AJUNOK_clean_linker_0, # of connection points: 2
#     Edge 109, Type (0, 0), BuildingBlock: AJUNOK_clean_linker_0, # of connection points: 2
#     Edge 110, Type (0, 0), BuildingBlock: AJUNOK_clean_linker_0, # of connection points: 2
#     Edge 111, Type (0, 0), BuildingBlock: AJUNOK_clean_linker_0, # of connection points: 2
#     Edge 112, Type (0, 0), BuildingBlock: AJUNOK_clean_linker_0, # of connection points: 2
#     Edge 113, Type (0, 0), BuildingBlock: AJUNOK_clean_linker_0, # of connection points: 2
#     Edge 114, Type (0, 0), BuildingBlock: AJUNOK_clean_linker_0, # of connection points: 2
#     Edge 115, Type (0, 0), BuildingBlock: AJUNOK_clean_linker_0, # of connection points: 2
#     Edge 116, Type (0, 0), BuildingBlock: AJUNOK_clean_linker_0, # of connection points: 2
#     Edge 117, Type (0, 0), BuildingBlock: AJUNOK_clean_linker_0, # of connection points: 2
#     Edge 118, Type (0, 0), BuildingBlock: AJUNOK_clean_linker_0, # of connection points: 2
#     Edge 119, Type (0, 0), BuildingBlock: AJUNOK_clean_linker_0, # of connection points: 2
# Relax obj value: 0.222
# Max RMSD: 0.235
# Mean RMSD: 0.235
data_MOF--net-ech--node1-EBIMEJ_clean_sbu_0--edge1-AJUNOK_clean_linker_0
_symmetry_space_group_name_H-M    P1
_symmetry_Int_Tables_number       1
_symmetry_cell_setting            triclinic
loop_
_symmetry_equiv_pos_as_xyz
'x, y, z'
_cell_length_a     37.795886
_cell_length_b     37.805943
_cell_length_c     37.739236
_cell_angle_alpha  90.155812
_cell_angle_beta   89.957414
_cell_angle_gamma 90.10874
loop_
_atom_site_label
_atom_site_type_symbol
_atom_site_fract_x
_atom_site_fract_y
_atom_site_fract_z
_atom_type_partial_charge
Co0 Co 0.19421 0.26849 0.43138 0.0
Co1 Co 0.15239 0.30259 0.5049 0.0
Co2 Co 0.14603 0.33863 0.43445 0.0
H3 H 0.17132 0.3058 0.44241 0.0
O4 O 0.18209 0.30932 0.46226 0.0
H5 H 0.12508 0.33075 0.49318 0.0
O6 O 0.11487 0.32563 0.47347 0.0
Co7 Co 0.10195 0.36775 0.49949 0.0
O8 O 0.10001 0.35548 0.55078 0.0
O9 O 0.122 0.30016 0.54976 0.0
O10 O 0.11673 0.4069 0.46686 0.0
O11 O 0.11375 0.37635 0.41653 0.0
O12 O 0.2201 0.22635 0.40711 0.0
O13 O 0.24722 0.27249 0.41874 0.0
O14 O 0.14543 0.39283 0.51644 0.0
O15 O 0.17879 0.34489 0.52528 0.0
C16 C 0.19657 0.3292 0.37573 0.0
C17 C 0.20372 0.24568 0.5129 0.0
C18 C 0.0381 0.37021 0.48554 0.0
C19 C 0.1207 0.26921 0.40042 0.0
C20 C 0.1059 0.32588 0.56554 0.0
C21 C 0.11274 0.40577 0.43336 0.0
C22 C 0.24934 0.24223 0.40516 0.0
C23 C 0.17395 0.37837 0.52673 0.0
O24 O 0.20318 0.29708 0.38473 0.0
O25 O 0.17774 0.34969 0.39464 0.0
O26 O 0.1882 0.27242 0.52658 0.0
O27 O 0.20546 0.24023 0.47886 0.0
O28 O 0.05111 0.38111 0.51419 0.0
O29 O 0.06116 0.3579 0.46522 0.0
O30 O 0.14702 0.25083 0.41115 0.0
O31 O 0.11916 0.30264 0.40544 0.0
Co32 Co 0.36367 0.78616 0.93169 0.0
Co33 Co 0.40293 0.7515 1.00621 0.0
Co34 Co 0.41125 0.71554 0.93556 0.0
H35 H 0.38573 0.74844 0.94314 0.0
O36 O 0.37429 0.745 0.96265 0.0
H37 H 0.42967 0.72283 0.9949 0.0
O38 O 0.441 0.7278 0.97577 0.0
Co39 Co 0.45053 0.68491 1.00184 0.0
O40 O 0.45171 0.69719 0.05298 0.0
O41 O 0.43272 0.75356 0.0516 0.0
O42 O 0.43411 0.6481 0.96726 0.0
O43 O 0.44475 0.67818 0.91841 0.0
O44 O 0.31416 0.80978 0.93349 0.0
O45 O 0.34042 0.80472 0.88568 0.0
O46 O 0.40535 0.66083 1.01447 0.0
O47 O 0.37496 0.70992 1.02655 0.0
C48 C 0.3615 0.72466 0.87639 0.0
C49 C 0.35223 0.80926 1.01319 0.0
C50 C 0.51535 0.67806 0.99793 0.0
C51 C 0.43738 0.78494 0.90183 0.0
C52 C 0.44747 0.7272 0.06755 0.0
C53 C 0.4458 0.6492 0.93577 0.0
C54 C 0.31254 0.81493 0.90059 0.0
C55 C 0.3778 0.67613 1.02607 0.0
O56 O 0.35431 0.75658 0.88569 0.0
O57 O 0.38079 0.70447 0.89497 0.0
O58 O 0.3673 0.78252 1.02719 0.0
O59 O 0.35113 0.81442 0.9791 0.0
O60 O 0.49636 0.66407 1.02135 0.0
O61 O 0.49749 0.69642 0.97695 0.0
O62 O 0.41117 0.80356 0.91244 0.0
O63 O 0.43873 0.75158 0.90721 0.0
Co64 Co 0.69471 0.28604 0.62601 0.0
Co65 Co 0.65137 0.253 0.55207 0.0
Co66 Co 0.64583 0.21615 0.62233 0.0
H67 H 0.67182 0.24863 0.61416 0.0
O68 O 0.68227 0.2455 0.59405 0.0
H69 H 0.62554 0.22316 0.56358 0.0
O70 O 0.61491 0.22802 0.58315 0.0
Co71 Co 0.60442 0.18501 0.55669 0.0
O72 O 0.6047 0.19853 0.50537 0.0
O73 O 0.61865 0.25618 0.50919 0.0
O74 O 0.60655 0.14715 0.59385 0.0
O75 O 0.61174 0.18111 0.64215 0.0
O76 O 0.73818 0.32008 0.62555 0.0
O77 O 0.72199 0.29735 0.67245 0.0
O78 O 0.65104 0.16275 0.54514 0.0
O79 O 0.67863 0.21229 0.52894 0.0
C80 C 0.69807 0.2239 0.67993 0.0
C81 C 0.70413 0.30974 0.54441 0.0
C82 C 0.5399 0.17432 0.55934 0.0
C83 C 0.62117 0.2863 0.65561 0.0
C84 C 0.6048 0.22966 0.49263 0.0
C85 C 0.60312 0.15211 0.62706 0.0
C86 C 0.74436 0.31729 0.6582 0.0
C87 C 0.6773 0.17847 0.53123 0.0
O88 O 0.70612 0.25558 0.67065 0.0
O89 O 0.67722 0.20461 0.66201 0.0
O90 O 0.68544 0.28542 0.53004 0.0
O91 O 0.70801 0.3131 0.5785 0.0
O92 O 0.56167 0.15389 0.54464 0.0
O93 O 0.55484 0.20101 0.57232 0.0
O94 O 0.64732 0.30471 0.64446 0.0
O95 O 0.61995 0.25287 0.65098 0.0
Co96 Co 0.86158 0.77153 0.12605 0.0
Co97 Co 0.9044 0.80452 0.05232 0.0
Co98 Co 0.91143 0.84044 0.12319 0.0
H99 H 0.88483 0.80867 0.11463 0.0
O100 O 0.87416 0.81223 0.09474 0.0
H101 H 0.93069 0.83377 0.06409 0.0
O102 O 0.94159 0.82858 0.08338 0.0
Co103 Co 0.95216 0.87171 0.05775 0.0
O104 O 0.95111 0.85914 1.00602 0.0
O105 O 0.93647 0.80156 1.00882 0.0
O106 O 0.95382 0.90888 0.09616 0.0
O107 O 0.94633 0.87433 0.14361 0.0
O108 O 0.82927 0.72767 0.1358 0.0
O109 O 0.81774 0.77606 0.1584 0.0
O110 O 0.90627 0.8951 0.04592 0.0
O111 O 0.87799 0.84579 0.02978 0.0
C112 C 0.86244 0.83138 0.18291 0.0
C113 C 0.85128 0.74797 0.04464 0.0
C114 C 1.0169 0.87786 0.05935 0.0
C115 C 0.93548 0.7694 0.15441 0.0
C116 C 0.95006 0.8283 0.99243 0.0
C117 C 0.95636 0.9032 0.12933 0.0
C118 C 0.80853 0.74435 0.1559 0.0
C119 C 0.87992 0.87959 0.03194 0.0
O120 O 0.85465 0.79961 0.17347 0.0
O121 O 0.8808 0.85176 0.16362 0.0
O122 O 0.86944 0.77275 0.03037 0.0
O123 O 0.84823 0.74413 0.07873 0.0
O124 O 0.99686 0.89642 0.04044 0.0
O125 O 1.00003 0.85574 0.07745 0.0
O126 O 0.90874 0.75161 0.14361 0.0
O127 O 0.93721 0.80285 0.15041 0.0
Co128 Co 0.4319 0.19333 0.27051 0.0
Co129 Co 0.50555 0.15327 0.30481 0.0
Co130 Co 0.43476 0.14401 0.34009 0.0
H131 H 0.4427 0.17039 0.30794 0.0
O132 O 0.46214 0.18172 0.31193 0.0
H133 H 0.49395 0.1254 0.33246 0.0
O134 O 0.47474 0.11448 0.32689 0.0
Co135 Co 0.50024 0.10253 0.36952 0.0
O136 O 0.5512 0.10195 0.35761 0.0
O137 O 0.55105 0.12397 0.30226 0.0
O138 O 0.46584 0.11344 0.40833 0.0
O139 O 0.41686 0.10941 0.37611 0.0
O140 O 0.43452 0.24222 0.24561 0.0
O141 O 0.38614 0.21779 0.25326 0.0
O142 O 0.51411 0.14675 0.39541 0.0
O143 O 0.52535 0.17959 0.34762 0.0
C144 C 0.37631 0.1943 0.33168 0.0
C145 C 0.51314 0.20497 0.24812 0.0
C146 C 0.49428 0.03741 0.37151 0.0
C147 C 0.40166 0.11994 0.26958 0.0
C148 C 0.56643 0.10799 0.32824 0.0
C149 C 0.4334 0.10512 0.40537 0.0
C150 C 0.40156 0.24484 0.24172 0.0
C151 C 0.52522 0.17515 0.38126 0.0
O152 O 0.38584 0.20199 0.29993 0.0
O153 O 0.3944 0.17453 0.35184 0.0
O154 O 0.52682 0.18994 0.27511 0.0
O155 O 0.4792 0.20588 0.24248 0.0
O156 O 0.51829 0.05453 0.38696 0.0
O157 O 0.47392 0.05736 0.35467 0.0
O158 O 0.41341 0.14616 0.25174 0.0
O159 O 0.40625 0.11781 0.30307 0.0
Co160 Co 0.12516 0.86023 0.77085 0.0
Co161 Co 0.05197 0.90326 0.80421 0.0
Co162 Co 0.12246 0.90891 0.84006 0.0
H163 H 0.11356 0.88296 0.8081 0.0
O164 O 0.09358 0.87246 0.8116 0.0
H165 H 0.06412 0.92981 0.83334 0.0
O166 O 0.08371 0.94016 0.82811 0.0
Co167 Co 0.05807 0.952 0.87117 0.0
O168 O 1.00647 0.95108 0.85852 0.0
O169 O 1.00909 0.93565 0.80104 0.0
O170 O 0.09662 0.95375 0.9083 0.0
O171 O 0.14392 0.94291 0.87428 0.0
O172 O 0.16884 0.83592 0.7481 0.0
O173 O 0.12227 0.80795 0.75479 0.0
O174 O 0.04662 0.90608 0.89491 0.0
O175 O 0.02918 0.87759 0.84609 0.0
C176 C 0.18125 0.85924 0.83071 0.0
C177 C 0.04354 0.84973 0.74792 0.0
C178 C 0.0568 1.01685 0.87849 0.0
C179 C 0.15415 0.93344 0.7691 0.0
C180 C 0.99284 0.94953 0.82772 0.0
C181 C 0.12992 0.95419 0.90288 0.0
C182 C 0.15383 0.80648 0.74432 0.0
C183 C 0.03188 0.87981 0.87992 0.0
O184 O 0.17326 0.85401 0.79798 0.0
O185 O 0.16109 0.87651 0.85128 0.0
O186 O 0.0296 0.86822 0.77275 0.0
O187 O 0.07759 0.8466 0.74381 0.0
O188 O 0.03947 0.99549 0.89719 0.0
O189 O 0.07505 1.00121 0.85552 0.0
O190 O 0.14262 0.90729 0.75095 0.0
O191 O 0.15075 0.93448 0.80274 0.0
Co192 Co 0.93132 0.36397 0.78752 0.0
Co193 Co 1.0069 0.40498 0.75502 0.0
Co194 Co 0.93742 0.41125 0.71764 0.0
H195 H 0.94446 0.38618 0.75063 0.0
O196 O 0.96428 0.37524 0.74783 0.0
H197 H 0.9961 0.43124 0.72534 0.0
O198 O 0.97672 0.44213 0.73012 0.0
Co199 Co 1.00283 0.45198 0.68698 0.0
O200 O 0.05209 0.45971 0.70393 0.0
O201 O 0.05131 0.43591 0.75861 0.0
O202 O 0.96968 0.43284 0.65003 0.0
O203 O 0.9204 0.44335 0.67957 0.0
O204 O 0.88601 0.33729 0.80342 0.0
O205 O 0.93521 0.31436 0.80998 0.0
O206 O 0.02844 0.4111 0.66568 0.0
O207 O 0.02913 0.37724 0.71414 0.0
C208 C 0.87594 0.36483 0.72676 0.0
C209 C 1.01276 0.35312 0.8121 0.0
C210 C 0.9852 0.51224 0.66982 0.0
C211 C 0.90175 0.43741 0.78637 0.0
C212 C 0.06629 0.45425 0.73394 0.0
C213 C 0.93715 0.4414 0.65025 0.0
C214 C 0.90236 0.31036 0.81372 0.0
C215 C 0.03622 0.38254 0.68135 0.0
O216 O 0.8832 0.35963 0.7597 0.0
O217 O 0.89798 0.37952 0.70612 0.0
O218 O 1.02737 0.36999 0.78672 0.0
O219 O 0.97853 0.35068 0.81593 0.0
O220 O 1.00043 0.49064 0.64962 0.0
O221 O 0.98095 0.50006 0.70041 0.0
O222 O 0.91138 0.41093 0.80501 0.0
O223 O 0.90815 0.43903 0.75309 0.0
Co224 Co 0.62435 0.69368 0.28653 0.0
Co225 Co 0.55098 0.64949 0.25387 0.0
Co226 Co 0.62153 0.64333 0.21815 0.0
H227 H 0.61273 0.67001 0.2497 0.0
O228 O 0.59275 0.6804 0.24612 0.0
H229 H 0.56276 0.62407 0.22354 0.0
O230 O 0.58181 0.6129 0.22889 0.0
Co231 Co 0.55725 0.60442 0.1843 0.0
O232 O 0.50633 0.60103 0.19945 0.0
O233 O 0.50821 0.61681 0.25701 0.0
O234 O 0.59621 0.60812 0.14749 0.0
O235 O 0.64218 0.60872 0.18443 0.0
O236 O 0.66989 0.71869 0.3042 0.0
O237 O 0.62169 0.744 0.30868 0.0
O238 O 0.54214 0.65025 0.16259 0.0
O239 O 0.52693 0.67602 0.21356 0.0
C240 C 0.68123 0.6923 0.22723 0.0
C241 C 0.5431 0.70266 0.31071 0.0
C242 C 0.55946 0.54069 0.17074 0.0
C243 C 0.65306 0.6203 0.28962 0.0
C244 C 0.49267 0.60205 0.23034 0.0
C245 C 0.62891 0.60312 0.15395 0.0
C246 C 0.65449 0.74648 0.31384 0.0
C247 C 0.52779 0.67541 0.17962 0.0
O248 O 0.67226 0.69996 0.2592 0.0
O249 O 0.66132 0.67445 0.20699 0.0
O250 O 0.52903 0.68367 0.28638 0.0
O251 O 0.5771 0.70679 0.31403 0.0
O252 O 0.54585 0.56358 0.1509 0.0
O253 O 0.57192 0.55411 0.1985 0.0
O254 O 0.64177 0.64706 0.30694 0.0
O255 O 0.64881 0.6177 0.25615 0.0
Co256 Co 0.27293 0.43105 0.19448 0.0
Co257 Co 0.30395 0.5048 0.1514 0.0
Co258 Co 0.3416 0.43523 0.14436 0.0
H259 H 0.3096 0.44302 0.17085 0.0
O260 O 0.3128 0.46299 0.18151 0.0
H261 H 0.33252 0.49368 0.12424 0.0
O262 O 0.32786 0.47399 0.11375 0.0
Co263 Co 0.36937 0.5015 0.10138 0.0
O264 O 0.35655 0.55281 0.10458 0.0
O265 O 0.29927 0.54793 0.11936 0.0
O266 O 0.40888 0.46585 0.10139 0.0
O267 O 0.37728 0.41633 0.10979 0.0
O268 O 0.22992 0.41419 0.22486 0.0
O269 O 0.281 0.40752 0.24307 0.0
O270 O 0.39422 0.51367 0.14647 0.0
O271 O 0.34579 0.52744 0.1774 0.0
C272 C 0.33359 0.37569 0.19348 0.0
C273 C 0.2479 0.51166 0.20487 0.0
C274 C 0.36917 0.49576 0.03625 0.0
C275 C 0.27131 0.40091 0.12101 0.0
C276 C 0.32527 0.56519 0.1055 0.0
C277 C 0.40537 0.43234 0.09952 0.0
C278 C 0.24888 0.40225 0.24949 0.0
C279 C 0.37956 0.526 0.17413 0.0
O280 O 0.301 0.38359 0.19937 0.0
O281 O 0.35396 0.39616 0.17621 0.0
O282 O 0.2728 0.52619 0.18707 0.0
O283 O 0.24421 0.47757 0.20758 0.0
O284 O 0.38747 0.51811 0.05287 0.0
O285 O 0.3509 0.47712 0.05672 0.0
O286 O 0.25362 0.41265 0.14743 0.0
O287 O 0.30478 0.40563 0.11876 0.0
Co288 Co 0.77289 0.12385 0.86203 0.0
Co289 Co 0.80554 0.05033 0.90454 0.0
Co290 Co 0.84132 0.12044 0.91184 0.0
H291 H 0.80967 0.11213 0.88528 0.0
O292 O 0.81334 0.09235 0.87447 0.0
H293 H 0.83445 0.06207 0.93115 0.0
O294 O 0.82905 0.08125 0.94218 0.0
Co295 Co 0.87252 0.05604 0.95228 0.0
O296 O 0.85929 1.00455 0.95245 0.0
O297 O 0.80206 1.00705 0.93634 0.0
O298 O 0.91077 0.0934 0.94954 0.0
O299 O 0.87536 0.14048 0.94664 0.0
O300 O 0.73026 0.14035 0.83121 0.0
O301 O 0.78156 0.14658 0.81319 0.0
O302 O 0.89638 0.04403 0.90665 0.0
O303 O 0.84716 0.02775 0.87836 0.0
C304 C 0.83416 0.17901 0.86128 0.0
C305 C 0.74804 0.04277 0.85348 0.0
C306 C 0.87665 0.0588 1.01714 0.0
C307 C 0.77072 0.15344 0.93555 0.0
C308 C 0.82849 0.99092 0.95062 0.0
C309 C 0.90518 0.12642 0.95341 0.0
C310 C 0.74952 0.15181 0.80652 0.0
C311 C 0.88097 0.02992 0.8803 0.0
O312 O 0.80167 0.17107 0.85468 0.0
O313 O 0.85338 0.1595 0.88046 0.0
O314 O 0.77449 0.02877 0.86914 0.0
O315 O 0.74352 0.07683 0.85125 0.0
O316 O 0.89454 0.0382 0.99806 0.0
O317 O 0.85647 0.07803 0.99924 0.0
O318 O 0.75282 0.14259 0.90888 0.0
O319 O 0.80408 0.14873 0.93731 0.0
Co320 Co 0.78392 0.93277 0.36325 0.0
Co321 Co 0.75305 1.00613 0.40691 0.0
Co322 Co 0.71449 0.93685 0.41253 0.0
H323 H 0.74701 0.94455 0.38657 0.0
O324 O 0.74404 0.96461 0.37616 0.0
H325 H 0.724 0.99514 0.43348 0.0
O326 O 0.7282 0.97535 0.44385 0.0
Co327 Co 0.68692 1.00339 0.45563 0.0
O328 O 0.70123 0.05424 0.45635 0.0
O329 O 0.758 0.04945 0.43938 0.0
O330 O 0.64683 0.96909 0.44828 0.0
O331 O 0.67764 0.91875 0.44617 0.0
O332 O 0.82812 0.91649 0.33452 0.0
O333 O 0.77779 0.90808 0.31478 0.0
O334 O 0.66334 1.02417 0.41318 0.0
O335 O 0.71238 0.02981 0.3807 0.0
C336 C 0.72242 0.87786 0.36233 0.0
C337 C 0.80957 1.01327 0.35414 0.0
C338 C 0.68529 0.99445 0.52029 0.0
C339 C 0.78424 0.9022 0.43641 0.0
C340 C 0.73245 0.06668 0.45422 0.0
C341 C 0.64917 0.93582 0.45303 0.0
C342 C 0.81023 0.90367 0.30945 0.0
C343 C 0.67904 0.03389 0.38509 0.0
O344 O 0.75507 0.88581 0.3567 0.0
O345 O 0.70211 0.898 0.38008 0.0
O346 O 0.78441 0.02736 0.37177 0.0
O347 O 0.81325 0.97923 0.35074 0.0
O348 O 0.67181 1.02063 0.50497 0.0
O349 O 0.6996 0.97351 0.49888 0.0
O350 O 0.80227 0.91439 0.41048 0.0
O351 O 0.75071 0.90671 0.43832 0.0
Co352 Co 0.28659 0.62308 0.69461 0.0
Co353 Co 0.25415 0.54912 0.6504 0.0
Co354 Co 0.21753 0.61913 0.64585 0.0
H355 H 0.24997 0.61087 0.67125 0.0
O356 O 0.24702 0.59072 0.68151 0.0
H357 H 0.22404 0.56094 0.62492 0.0
O358 O 0.22907 0.58036 0.61417 0.0
Co359 Co 0.18494 0.55543 0.60513 0.0
O360 O 0.20021 0.50516 0.59945 0.0
O361 O 0.2569 0.50613 0.61786 0.0
O362 O 0.14767 0.59061 0.61989 0.0
O363 O 0.18094 0.63851 0.61358 0.0
O364 O 0.32956 0.64016 0.72488 0.0
O365 O 0.27843 0.64663 0.74326 0.0
O366 O 0.1632 0.53953 0.65057 0.0
O367 O 0.21367 0.52601 0.67805 0.0
C368 C 0.22557 0.67749 0.69682 0.0
C369 C 0.31131 0.54184 0.70279 0.0
C370 C 0.17038 0.56679 0.5426 0.0
C371 C 0.28722 0.65384 0.62159 0.0
C372 C 0.23072 0.49115 0.60178 0.0
C373 C 0.15063 0.62383 0.61499 0.0
C374 C 0.31052 0.65208 0.74955 0.0
C375 C 0.17975 0.5264 0.67662 0.0
O376 O 0.25845 0.67047 0.70183 0.0
O377 O 0.20581 0.65742 0.67862 0.0
O378 O 0.28676 0.52743 0.68437 0.0
O379 O 0.31463 0.57591 0.70662 0.0
O380 O 0.14788 0.56429 0.56693 0.0
O381 O 0.20131 0.56172 0.55345 0.0
O382 O 0.30531 0.64236 0.64775 0.0
O383 O 0.25382 0.64866 0.61962 0.0
Co384 Co 0.95324 0.68633 0.55633 0.0
Co385 Co 0.90827 0.71537 0.61995 0.0
Co386 Co 0.90463 0.75305 0.55042 0.0
H387 H 0.93112 0.72404 0.56235 0.0
O388 O 0.94093 0.72873 0.58238 0.0
H389 H 0.88411 0.74886 0.61246 0.0
O390 O 0.87368 0.74638 0.59226 0.0
Co391 Co 0.86229 0.78607 0.62507 0.0
O392 O 0.85213 0.75588 0.67085 0.0
O393 O 0.87479 0.70312 0.65738 0.0
O394 O 0.84918 0.81344 0.57717 0.0
O395 O 0.8699 0.78443 0.52865 0.0
O396 O 0.9924 0.65147 0.5693 0.0
O397 O 1.00364 0.70527 0.56601 0.0
O398 O 0.91003 0.80258 0.64425 0.0
O399 O 0.93518 0.74967 0.65144 0.0
C400 C 0.95581 0.73172 0.49221 0.0
C401 C 0.93538 0.64772 0.61896 0.0
C402 C 0.81211 0.81627 0.65621 0.0
C403 C 0.88223 0.6778 0.52617 0.0
C404 C 0.85652 0.72278 0.67751 0.0
C405 C 0.85225 0.80955 0.54294 0.0
C406 C 1.01534 0.67512 0.57311 0.0
C407 C 0.93511 0.78326 0.65605 0.0
O408 O 0.96157 0.70201 0.50681 0.0
O409 O 0.93671 0.75616 0.50665 0.0
O410 O 0.93856 0.67599 0.63727 0.0
O411 O 0.92815 0.65015 0.58623 0.0
O412 O 0.81783 0.8179 0.6234 0.0
O413 O 0.83537 0.79819 0.67133 0.0
O414 O 0.91039 0.66287 0.53665 0.0
O415 O 0.87761 0.71135 0.52854 0.0
Co416 Co 0.60339 0.36791 0.05221 0.0
Co417 Co 0.64346 0.3398 0.11945 0.0
Co418 Co 0.6509 0.30132 0.04984 0.0
H419 H 0.62446 0.33043 0.06056 0.0
O420 O 0.61343 0.32606 0.08001 0.0
H421 H 0.67015 0.30747 0.11229 0.0
O422 O 0.68084 0.31047 0.09227 0.0
Co423 Co 0.69396 0.27076 0.12445 0.0
O424 O 0.70542 0.30346 0.16767 0.0
O425 O 0.67396 0.35293 0.15954 0.0
O426 O 0.70759 0.24225 0.07772 0.0
O427 O 0.686 0.26947 0.02885 0.0
O428 O 0.55727 0.38819 0.03283 0.0
O429 O 0.55648 0.35543 0.07691 0.0
O430 O 0.64681 0.25231 0.14325 0.0
O431 O 0.61759 0.30333 0.14887 0.0
C432 C 0.60537 0.32269 0.98868 0.0
C433 C 0.60417 0.40476 0.11915 0.0
C434 C 0.74272 0.23998 0.15811 0.0
C435 C 0.67507 0.37585 1.02539 0.0
C436 C 0.69607 0.3348 0.17703 0.0
C437 C 0.70429 0.24521 0.04355 0.0
C438 C 0.53836 0.37368 0.05603 0.0
C439 C 0.62024 0.27006 0.15439 0.0
O440 O 0.60387 0.35392 1.00115 0.0
O441 O 0.61911 0.29674 1.00612 0.0
O442 O 0.60878 0.37613 0.13658 0.0
O443 O 0.61337 0.40699 0.08682 0.0
O444 O 0.73228 0.23105 0.12769 0.0
O445 O 0.72528 0.26586 0.16919 0.0
O446 O 0.64808 0.3919 0.03722 0.0
O447 O 0.67767 0.34205 1.0263 0.0
Co448 Co 0.44934 0.87248 0.49866 0.0
Co449 Co 0.40893 0.83976 0.43329 0.0
Co450 Co 0.40276 0.80458 0.50422 0.0
H451 H 0.42859 0.83411 0.49233 0.0
O452 O 0.43953 0.829 0.473 0.0
H453 H 0.38328 0.8074 0.44224 0.0
O454 O 0.37241 0.81114 0.46201 0.0
Co455 Co 0.36123 0.76938 0.43155 0.0
O456 O 0.35322 0.79629 0.38377 0.0
O457 O 0.37767 0.84948 0.39302 0.0
O458 O 0.34934 0.74141 0.4791 0.0
O459 O 0.36829 0.77299 0.5265 0.0
O460 O 0.49266 0.90077 0.51419 0.0
O461 O 0.49829 0.85775 0.48016 0.0
O462 O 0.40849 0.75065 0.41308 0.0
O463 O 0.43567 0.80253 0.40591 0.0
C464 C 0.4489 0.82872 0.56345 0.0
C465 C 0.45118 0.90421 0.4275 0.0
C466 C 0.30799 0.7414 0.40339 0.0
C467 C 0.37677 0.8794 0.52418 0.0
C468 C 0.35972 0.82823 0.37413 0.0
C469 C 0.35195 0.74655 0.51311 0.0
C470 C 0.51385 0.88211 0.49656 0.0
C471 C 0.43461 0.769 0.40183 0.0
O472 O 0.44878 0.85968 0.55025 0.0
O473 O 0.43515 0.80195 0.54727 0.0
O474 O 0.44274 0.87485 0.41293 0.0
O475 O 0.44808 0.9097 0.46067 0.0
O476 O 0.33618 0.74865 0.38732 0.0
O477 O 0.31046 0.7492 0.43572 0.0
O478 O 0.40292 0.8951 0.51008 0.0
O479 O 0.3755 0.8456 0.52663 0.0
Co480 Co 0.10149 0.1866 1.00224 0.0
Co481 Co 0.14344 0.21461 0.9363 0.0
Co482 Co 0.15043 0.2524 1.00594 0.0
H483 H 0.12353 0.22381 0.99466 0.0
O484 O 0.11288 0.22852 0.97508 0.0
H485 H 0.17 0.24671 0.94403 0.0
O486 O 0.18065 0.24351 0.96398 0.0
Co487 Co 0.19339 0.28364 0.9322 0.0
O488 O 0.20242 0.25281 0.88672 0.0
O489 O 0.17532 0.20134 0.89766 0.0
O490 O 0.2069 0.3122 0.97929 0.0
O491 O 0.18603 0.28324 1.02745 0.0
O492 O 0.05227 0.17166 1.01958 0.0
O493 O 0.05802 0.20207 0.97402 0.0
O494 O 0.14575 0.30276 0.91597 0.0
O495 O 0.11841 0.2513 0.9064 0.0
C496 C 0.10426 0.23065 0.06634 0.0
C497 C 0.09989 0.15073 0.93359 0.0
C498 C 0.24379 0.31214 0.89922 0.0
C499 C 0.17302 0.17744 0.02976 0.0
C500 C 0.19559 0.22037 0.87887 0.0
C501 C 0.20376 0.30837 1.01344 0.0
C502 C 0.03675 0.18698 0.99449 0.0
C503 C 0.11995 0.28494 0.90319 0.0
O504 O 0.10269 0.19955 0.05352 0.0
O505 O 0.11844 0.25674 0.04944 0.0
O506 O 0.10863 0.17917 0.91743 0.0
O507 O 0.10457 0.14699 0.9668 0.0
O508 O 0.218 0.29684 0.88491 0.0
O509 O 0.24055 0.31205 0.93242 0.0
O510 O 0.14557 0.1619 1.01809 0.0
O511 O 0.17639 0.21115 0.0289 0.0
Co512 Co 0.55636 0.95325 0.68563 0.0
Co513 Co 0.62069 0.91368 0.71729 0.0
Co514 Co 0.54985 0.90326 0.75158 0.0
H515 H 0.56143 0.93104 0.72343 0.0
O516 O 0.58017 0.94242 0.7297 0.0
H517 H 0.61295 0.8863 0.74834 0.0
O518 O 0.59347 0.87508 0.74431 0.0
Co519 Co 0.62515 0.86205 0.78443 0.0
O520 O 0.67292 0.85719 0.75625 0.0
O521 O 0.66096 0.8838 0.70503 0.0
O522 O 0.57789 0.84865 0.81198 0.0
O523 O 0.5291 0.86661 0.78193 0.0
O524 O 0.5414 0.99911 0.66145 0.0
O525 O 0.57797 1.00005 0.70269 0.0
O526 O 0.6442 0.90816 0.80526 0.0
O527 O 0.64815 0.9393 0.75536 0.0
C528 C 0.48925 0.94728 0.72676 0.0
C529 C 0.62599 0.95433 0.65315 0.0
C530 C 0.65389 0.80818 0.81051 0.0
C531 C 0.53075 0.88048 0.67522 0.0
C532 C 0.68137 0.86556 0.72427 0.0
C533 C 0.54378 0.85004 0.80753 0.0
C534 C 0.56102 1.01802 0.68061 0.0
C535 C 0.65419 0.93573 0.78844 0.0
O536 O 0.50513 0.95268 0.69754 0.0
O537 O 0.50426 0.9323 0.75356 0.0
O538 O 0.63981 0.94944 0.68355 0.0
O539 O 0.59328 0.94885 0.64739 0.0
O540 O 0.63604 0.83022 0.82804 0.0
O541 O 0.65482 0.81656 0.77843 0.0
O542 O 0.54299 0.90831 0.66086 0.0
O543 O 0.52994 0.87657 0.70894 0.0
Co544 Co 1.00061 0.102 0.18538 0.0
Co545 Co 0.93404 0.14338 0.21544 0.0
Co546 Co 1.00434 0.15044 0.25203 0.0
H547 H 0.99304 0.12395 0.22287 0.0
O548 O 0.97357 0.11315 0.22769 0.0
H549 H 0.94226 0.16987 0.24735 0.0
O550 O 0.96218 0.18054 0.244 0.0
Co551 Co 0.93059 0.19333 0.28431 0.0
O552 O 0.88197 0.19709 0.2578 0.0
O553 O 0.89376 0.17435 0.20437 0.0
O554 O 0.97775 0.20661 0.3125 0.0
O555 O 1.02594 0.18555 0.28361 0.0
O556 O 1.01866 0.05448 0.16612 0.0
O557 O 0.97855 0.05607 0.20379 0.0
O558 O 0.91353 0.14625 0.30398 0.0
O559 O 0.906 0.11737 0.25292 0.0
C560 C 0.06493 0.10572 0.22857 0.0
C561 C 0.93008 0.09853 0.15198 0.0
C562 C 0.90136 0.24765 0.30925 0.0
C563 C 1.02592 0.1747 0.17702 0.0
C564 C 0.87307 0.19033 0.22557 0.0
C565 C 1.01185 0.20355 0.30864 0.0
C566 C 0.99772 0.03664 0.18489 0.0
C567 C 0.90188 0.11972 0.28647 0.0
O568 O 0.05206 0.10538 0.19744 0.0
O569 O 0.04786 0.11857 0.25531 0.0
O570 O 0.91464 0.10872 0.18039 0.0
O571 O 0.9634 0.10103 0.14733 0.0
O572 O 0.88574 0.21898 0.30299 0.0
O573 O 0.93378 0.24512 0.30214 0.0
O574 O 1.01336 0.14761 0.16143 0.0
O575 O 1.02676 0.17718 0.21088 0.0
Co576 Co 0.05472 0.60415 0.37004 0.0
Co577 Co 0.11913 0.64453 0.33903 0.0
Co578 Co 0.04946 0.65158 0.30216 0.0
H579 H 0.06059 0.62499 0.33154 0.0
O580 O 0.07981 0.61396 0.32636 0.0
H581 H 0.11218 0.6698 0.30607 0.0
O582 O 0.09243 0.68085 0.30895 0.0
Co583 Co 0.12512 0.69233 0.26914 0.0
O584 O 0.17089 0.70131 0.29952 0.0
O585 O 0.158 0.67614 0.35136 0.0
O586 O 0.0779 0.70526 0.24105 0.0
O587 O 0.02882 0.68664 0.27041 0.0
O588 O 0.06179 0.56506 0.40639 0.0
O589 O 0.06494 0.55359 0.3524 0.0
O590 O 0.14428 0.64497 0.25151 0.0
O591 O 0.14877 0.6175 0.30359 0.0
C592 C 0.98947 0.60516 0.32563 0.0
C593 C 0.12109 0.61368 0.4065 0.0
C594 C 0.15592 0.74405 0.24088 0.0
C595 C 1.02729 0.67642 0.37727 0.0
C596 C 0.17783 0.69529 0.33234 0.0
C597 C 0.04369 0.70326 0.24497 0.0
C598 C 0.06754 0.54182 0.38332 0.0
C599 C 0.15458 0.61878 0.27023 0.0
O600 O 1.00454 0.59963 0.35519 0.0
O601 O 1.00446 0.62176 0.29983 0.0
O602 O 0.13671 0.612 0.37657 0.0
O603 O 0.08816 0.62042 0.40812 0.0
O604 O 0.12289 0.74081 0.24352 0.0
O605 O 0.17127 0.71747 0.2534 0.0
O606 O 0.0378 0.64867 0.39289 0.0
O607 O 0.02861 0.67977 0.34349 0.0
Co608 Co 0.4985 0.44966 0.87355 0.0
Co609 Co 0.43412 0.40913 0.84014 0.0
Co610 Co 0.50479 0.40413 0.80443 0.0
H611 H 0.49277 0.42948 0.83462 0.0
O612 O 0.47344 0.44028 0.82951 0.0
H613 H 0.44299 0.38344 0.80794 0.0
O614 O 0.46302 0.37305 0.81119 0.0
Co615 Co 0.4312 0.36061 0.77071 0.0
O616 O 0.38265 0.35488 0.79703 0.0
O617 O 0.39477 0.37698 0.85044 0.0
O618 O 0.47871 0.34837 0.74331 0.0
O619 O 0.52697 0.37038 0.7717 0.0
O620 O 0.50855 0.49049 0.90742 0.0
O621 O 0.48463 0.50006 0.85875 0.0
O622 O 0.41308 0.40755 0.75119 0.0
O623 O 0.40656 0.43546 0.80286 0.0
C624 C 0.56349 0.45037 0.82927 0.0
C625 C 0.42701 0.45132 0.90446 0.0
C626 C 0.40244 0.3061 0.74527 0.0
C627 C 0.52489 0.37735 0.87894 0.0
C628 C 0.37438 0.36017 0.82966 0.0
C629 C 0.51273 0.35213 0.74691 0.0
C630 C 0.49562 0.51341 0.88717 0.0
C631 C 0.40226 0.43401 0.76933 0.0
O632 O 0.5499 0.45053 0.86015 0.0
O633 O 0.54761 0.43681 0.8022 0.0
O634 O 0.41312 0.44283 0.87485 0.0
O635 O 0.45997 0.44814 0.91058 0.0
O636 O 0.40951 0.33351 0.72775 0.0
O637 O 0.41238 0.30957 0.77681 0.0
O638 O 0.51031 0.40292 0.89515 0.0
O639 O 0.52767 0.37677 0.84507 0.0
Co640 Co 0.68726 0.55502 0.95655 0.0
Co641 Co 0.71466 0.62095 0.91274 0.0
Co642 Co 0.75174 0.55105 0.90505 0.0
H643 H 0.72371 0.56229 0.93279 0.0
O644 O 0.72863 0.58198 0.94317 0.0
H645 H 0.74706 0.61347 0.88658 0.0
O646 O 0.74378 0.59367 0.87563 0.0
Co647 Co 0.78409 0.62542 0.86349 0.0
O648 O 0.75532 0.6721 0.85676 0.0
O649 O 0.7026 0.66062 0.88142 0.0
O650 O 0.81243 0.57842 0.85032 0.0
O651 O 0.78226 0.52992 0.86871 0.0
O652 O 0.67381 0.53709 1.00606 0.0
O653 O 0.70209 0.58393 1.00009 0.0
O654 O 0.80263 0.64482 0.91067 0.0
O655 O 0.75096 0.65036 0.93877 0.0
C656 C 0.72927 0.48982 0.95043 0.0
C657 C 0.64992 0.62263 0.95538 0.0
C658 C 0.80977 0.65374 0.80895 0.0
C659 C 0.6758 0.52926 0.88407 0.0
C660 C 0.72306 0.68051 0.86358 0.0
C661 C 0.80795 0.5443 0.8519 0.0
C662 C 0.68823 0.56281 1.02155 0.0
C663 C 0.78433 0.65567 0.93709 0.0
O664 O 0.69901 0.5037 0.95501 0.0
O665 O 0.75523 0.50645 0.93559 0.0
O666 O 0.67836 0.63915 0.94706 0.0
O667 O 0.64698 0.5892 0.95243 0.0
O668 O 0.80257 0.66996 0.83712 0.0
O669 O 0.80331 0.62126 0.8122 0.0
O670 O 0.66165 0.54026 0.91258 0.0
O671 O 0.70936 0.52977 0.87918 0.0
Co672 Co 0.18711 1.00038 0.10099 0.0
Co673 Co 0.21542 0.9349 0.14405 0.0
Co674 Co 0.25181 1.00505 0.15163 0.0
H675 H 0.22387 0.99341 0.12408 0.0
O676 O 0.22902 0.97387 0.11357 0.0
H677 H 0.24726 0.94301 0.17066 0.0
O678 O 0.24366 0.96284 0.18142 0.0
Co679 Co 0.28406 0.93165 0.1943 0.0
O680 O 0.25562 0.88434 0.20002 0.0
O681 O 0.20301 0.89578 0.17572 0.0
O682 O 0.31264 0.97882 0.20645 0.0
O683 O 0.28186 1.02668 0.18783 0.0
O684 O 0.1717 1.01909 0.05254 0.0
O685 O 0.20336 0.97435 0.05602 0.0
O686 O 0.30372 0.91375 0.14722 0.0
O687 O 0.25259 0.90579 0.11876 0.0
C688 C 0.22892 0.06582 0.10668 0.0
C689 C 0.15182 0.93137 0.1 0.0
C690 C 0.30939 0.90151 0.24797 0.0
C691 C 0.17594 1.02589 0.17346 0.0
C692 C 0.22322 0.87592 0.19369 0.0
C693 C 0.30797 1.01285 0.20417 0.0
C694 C 0.18772 0.99528 0.03567 0.0
C695 C 0.2861 0.9017 0.12091 0.0
O696 O 0.19842 0.05193 0.10348 0.0
O697 O 0.2553 0.04918 0.12055 0.0
O698 O 0.18028 0.91561 0.10925 0.0
O699 O 0.14788 0.96468 0.10301 0.0
O700 O 0.32763 0.91355 0.22279 0.0
O701 O 0.27715 0.90735 0.24287 0.0
O702 O 0.16145 1.01373 0.14558 0.0
O703 O 0.20959 1.02645 0.17736 0.0
Co704 Co 0.36912 0.05407 0.60404 0.0
Co705 Co 0.33902 0.12035 0.64473 0.0
Co706 Co 0.30116 0.05029 0.65034 0.0
H707 H 0.33097 0.06149 0.62464 0.0
O708 O 0.32666 0.08101 0.61382 0.0
H709 H 0.3067 0.11198 0.67082 0.0
O710 O 0.30994 0.09194 0.68126 0.0
Co711 Co 0.26948 0.12307 0.69409 0.0
O712 O 0.29741 0.17001 0.7022 0.0
O713 O 0.34998 0.1606 0.6763 0.0
O714 O 0.24046 0.0766 0.70654 0.0
O715 O 0.26889 0.02863 0.68469 0.0
O716 O 0.39871 0.04005 0.5612 0.0
O717 O 0.35576 0.07392 0.55527 0.0
O718 O 0.25094 0.14197 0.64709 0.0
O719 O 0.30222 0.14878 0.61849 0.0
C720 C 0.32206 0.99099 0.60212 0.0
C721 C 0.40438 0.12233 0.60544 0.0
C722 C 0.2429 0.15039 0.74861 0.0
C723 C 0.37502 1.02392 0.67449 0.0
C724 C 0.32935 0.1793 0.69524 0.0
C725 C 0.24406 0.04261 0.70288 0.0
C726 C 0.38073 0.05822 0.54002 0.0
C727 C 0.26881 0.1535 0.62074 0.0
O728 O 0.35316 1.00376 0.60008 0.0
O729 O 0.29641 1.00746 0.61754 0.0
O730 O 0.37532 0.13889 0.6107 0.0
O731 O 0.40746 0.08974 0.6132 0.0
O732 O 0.24645 0.16596 0.71946 0.0
O733 O 0.25363 0.11899 0.74644 0.0
O734 O 0.39172 0.03652 0.64826 0.0
O735 O 0.34122 1.02547 0.6767 0.0
Co736 Co 0.87246 0.49799 0.45075 0.0
Co737 Co 0.83896 0.43463 0.41026 0.0
Co738 Co 0.80269 0.50453 0.40607 0.0
H739 H 0.83312 0.49271 0.4313 0.0
O740 O 0.82797 0.47335 0.44207 0.0
H741 H 0.80647 0.44317 0.38497 0.0
O742 O 0.80975 0.46325 0.37468 0.0
Co743 Co 0.76933 0.43151 0.3622 0.0
O744 O 0.79767 0.38436 0.3532 0.0
O745 O 0.85011 0.39631 0.37747 0.0
O746 O 0.74012 0.47856 0.35203 0.0
O747 O 0.77041 0.52631 0.37226 0.0
O748 O 0.91019 0.49168 0.4887 0.0
O749 O 0.85669 0.48929 0.50216 0.0
O750 O 0.75052 0.41191 0.40923 0.0
O751 O 0.80257 0.40561 0.43604 0.0
C752 C 0.82581 0.56232 0.45495 0.0
C753 C 0.90516 0.42835 0.44376 0.0
C754 C 0.74614 0.40546 0.30555 0.0
C755 C 0.87648 0.53027 0.3808 0.0
C756 C 0.83048 0.37692 0.3584 0.0
C757 C 0.74443 0.51256 0.35554 0.0
C758 C 0.88795 0.48697 0.51299 0.0
C759 C 0.76919 0.4006 0.4351 0.0
O760 O 0.85628 0.54812 0.45742 0.0
O761 O 0.79969 0.5474 0.43873 0.0
O762 O 0.87448 0.4145 0.44306 0.0
O763 O 0.90963 0.46132 0.43826 0.0
O764 O 0.72693 0.41386 0.33151 0.0
O765 O 0.77795 0.41259 0.3117 0.0
O766 O 0.89368 0.51814 0.40688 0.0
O767 O 0.84271 0.52834 0.37889 0.0
C768 C 0.10318 0.50375 0.42188 0.0
C769 C 0.08121 0.50671 0.39219 0.0
C770 C 0.1152 0.47093 0.43314 0.0
C771 C 0.10503 0.43958 0.41567 0.0
H772 H 0.11078 0.52697 0.43695 0.0
H773 H 0.13161 0.47013 0.45667 0.0
S774 S 0.04974 0.43354 0.33477 0.0
N775 N 0.05178 0.47636 0.34358 0.0
N776 N 0.07348 0.41376 0.36567 0.0
C777 C 0.0845 0.44223 0.38473 0.0
C778 C 0.07269 0.47608 0.37282 0.0
C779 C 0.4614 0.60774 0.88596 0.0
C780 C 0.46318 0.61703 0.92198 0.0
C781 C 0.47349 0.57454 0.87429 0.0
C782 C 0.48831 0.5501 0.89821 0.0
H783 H 0.44898 0.62536 0.86712 0.0
H784 H 0.47011 0.5675 0.84665 0.0
S785 S 0.5019 0.56325 0.99466 0.0
N786 N 0.48293 0.59996 0.98098 0.0
N787 N 0.50631 0.53856 0.95889 0.0
C788 C 0.49215 0.56008 0.93379 0.0
C789 C 0.47938 0.59331 0.94572 0.0
C790 C 0.54795 0.07251 0.64704 0.0
C791 C 0.56743 0.05582 0.67384 0.0
C792 C 0.55826 0.1054 0.63402 0.0
C793 C 0.58806 0.12295 0.64762 0.0
H794 H 0.52588 0.05917 0.63443 0.0
H795 H 0.54395 0.11628 0.61178 0.0
S796 S 0.64549 0.09278 0.72089 0.0
N797 N 0.6159 0.06088 0.71616 0.0
N798 N 0.63505 0.12325 0.69141 0.0
C799 C 0.60593 0.10823 0.67654 0.0
C800 C 0.59561 0.07442 0.68977 0.0
C801 C 1.00356 0.94645 0.14317 0.0
C802 C 0.9704 0.93183 0.15146 0.0
C803 C 1.01389 0.9792 0.15712 0.0
C804 C 0.99115 0.9985 0.17942 0.0
H805 H 1.02062 0.93355 0.12403 0.0
H806 H 0.0387 0.99059 0.1483 0.0
S807 S 0.90253 0.96992 0.21102 0.0
N808 N 0.91595 0.93738 0.18502 0.0
N809 N 0.93521 0.99899 0.21162 0.0
C810 C 0.95914 0.98264 0.19025 0.0
C811 C 0.9487 0.94925 0.17601 0.0
C812 C 0.37034 0.08642 0.48095 0.0
C813 C 0.39119 0.06481 0.50302 0.0
C814 C 0.38288 0.09762 0.44774 0.0
C815 C 0.41683 0.08797 0.43616 0.0
H816 H 0.34485 0.09592 0.48997 0.0
H817 H 0.36694 0.11557 0.43215 0.0
S818 S 0.48009 0.02883 0.4824 0.0
N819 N 0.44579 0.03147 0.50926 0.0
N820 N 0.46973 0.05339 0.44792 0.0
C821 C 0.43693 0.06482 0.45719 0.0
C822 C 0.424 0.05297 0.4904 0.0
C823 C 0.18741 0.95371 0.98413 0.0
C824 C 0.1818 0.98801 0.99772 0.0
C825 C 0.17286 0.94346 0.95146 0.0
C826 C 0.15267 0.96732 0.93152 0.0
H827 H 0.20053 0.93385 1.00003 0.0
H828 H 0.17521 0.91612 0.94306 0.0
S829 S 0.13767 0.06188 0.95156 0.0
N830 N 0.15985 0.04708 0.98604 0.0
N831 N 0.13284 0.02781 0.92451 0.0
C832 C 0.15005 1.00244 0.94309 0.0
C833 C 0.16471 1.01285 0.97623 0.0
C834 C 0.9294 0.45588 0.55206 0.0
C835 C 0.8979 0.4749 0.54849 0.0
C836 C 0.94051 0.44384 0.58494 0.0
C837 C 0.92119 0.45128 0.61599 0.0
H838 H 0.9458 0.45022 0.52919 0.0
H839 H 0.96513 0.42923 0.58589 0.0
S840 S 0.83696 0.50126 0.62078 0.0
N841 N 0.84684 0.50045 0.57812 0.0
N842 N 0.86892 0.47944 0.64102 0.0
C843 C 0.88935 0.47023 0.61287 0.0
C844 C 0.87745 0.48171 0.57884 0.0
C845 C 0.68054 0.60753 0.06923 0.0
C846 C 0.68179 0.57171 0.05898 0.0
C847 C 0.66529 0.61755 0.10153 0.0
C848 C 0.6518 0.59199 0.12477 0.0
H849 H 0.68844 0.6281 0.05094 0.0
H850 H 0.66222 0.64544 0.10743 0.0
S851 S 0.65579 0.49484 0.1137 0.0
N852 N 0.67296 0.51063 0.07672 0.0
N853 N 0.64521 0.5296 0.13812 0.0
C854 C 0.65601 0.55612 0.11645 0.0
C855 C 0.67097 0.54591 0.08334 0.0
C856 C 0.45022 0.38389 0.10289 0.0
C857 C 0.43516 0.41227 0.08435 0.0
C858 C 0.48291 0.36965 0.09228 0.0
C859 C 0.50094 0.38292 0.06239 0.0
H860 H 0.43797 0.37431 0.12701 0.0
H861 H 0.49493 0.34945 0.10861 0.0
S862 S 0.46963 0.45342 1.00213 0.0
N863 N 0.43918 0.45106 0.03338 0.0
N864 N 0.49891 0.42273 1.01199 0.0
C865 C 0.4844 0.40903 0.04196 0.0
C866 C 0.45196 0.42421 0.05339 0.0
C867 C 0.99083 0.17631 0.94889 0.0
C868 C 0.99979 0.17983 0.98493 0.0
C869 C 0.95902 0.16027 0.93882 0.0
C870 C 0.93472 0.1488 0.96438 0.0
H871 H 1.00978 0.18302 0.9284 0.0
H872 H 0.95426 0.15496 0.91103 0.0
S873 S 0.94317 0.15746 0.06167 0.0
N874 N 0.98053 0.17385 0.04597 0.0
N875 N 0.91962 0.14539 1.02676 0.0
C876 C 0.94198 0.15487 1.00027 0.0
C877 C 0.9748 0.17023 1.01062 0.0
C878 C 0.60503 0.8863 0.45485 0.0
C879 C 0.61821 0.91815 0.46884 0.0
C880 C 0.5718 0.87335 0.4655 0.0
C881 C 0.55127 0.89161 0.49084 0.0
H882 H 0.61932 0.87261 0.43405 0.0
H883 H 0.56143 0.84992 0.45257 0.0
S884 S 0.57694 0.97316 0.53927 0.0
N885 N 0.60977 0.96575 0.51144 0.0
N886 N 0.54869 0.94049 0.53275 0.0
C887 C 0.56568 0.92178 0.50704 0.0
C888 C 0.59882 0.93533 0.49564 0.0
C889 C 0.08131 0.68115 0.57187 0.0
C890 C 0.05044 0.66808 0.58804 0.0
C891 C 0.11481 0.66906 0.58254 0.0
C892 C 0.11789 0.64396 0.6098 0.0
H893 H 0.07944 0.69894 0.54956 0.0
H894 H 0.13797 0.67736 0.5678 0.0
S895 S 0.04564 0.60927 0.66623 0.0
N896 N 1.02551 0.63399 0.63643 0.0
N897 N 0.08819 0.61194 0.65695 0.0
C898 C 0.08743 0.63393 0.62849 0.0
C899 C 0.05366 0.64577 0.61742 0.0
C900 C 0.963 0.57375 0.68142 0.0
C901 C 0.97047 0.54606 0.65756 0.0
C902 C 0.95072 0.60663 0.66916 0.0
C903 C 0.94474 0.61231 0.63281 0.0
H904 H 0.96787 0.57043 0.7095 0.0
H905 H 0.94662 0.62782 0.68809 0.0
S906 S 0.95521 0.54581 0.56053 0.0
N907 N 0.96807 0.52526 0.59671 0.0
N908 N 0.94349 0.58562 0.57374 0.0
C909 C 0.94984 0.5837 0.60919 0.0
C910 C 0.96315 0.55093 0.62154 0.0
C911 C 0.58307 0.47986 0.18243 0.0
C912 C 0.56485 0.50352 0.16014 0.0
C913 C 0.5938 0.44643 0.17006 0.0
C914 C 0.58698 0.43609 0.13494 0.0
H915 H 0.59057 0.48784 0.20897 0.0
H916 H 0.60941 0.42968 0.18725 0.0
S917 S 0.53646 0.48681 0.06763 0.0
N918 N 0.53724 0.51269 0.1028 0.0
N919 N 0.55796 0.45079 0.07933 0.0
C920 C 0.56674 0.45869 0.11336 0.0
C921 C 0.55551 0.49221 0.12603 0.0
C922 C 0.50822 0.98139 0.40264 0.0
C923 C 0.48669 0.99978 0.37859 0.0
C924 C 0.49755 0.94885 0.4165 0.0
C925 C 0.46544 0.93324 0.40619 0.0
H926 H 0.53234 0.99324 0.4127 0.0
H927 H 0.51368 0.93667 0.43679 0.0
S928 S 0.40139 0.9683 0.34107 0.0
N929 N 0.43312 0.99839 0.34267 0.0
N930 N 0.41351 0.93668 0.36863 0.0
C931 C 0.445 0.94977 0.38011 0.0
C932 C 0.45559 0.98323 0.36624 0.0
C933 C 0.09589 0.10896 0.8821 0.0
C934 C 0.0826 0.12128 0.91464 0.0
C935 C 0.08526 0.0759 0.86866 0.0
C936 C 0.06068 0.05471 0.88714 0.0
H937 H 0.11663 0.12344 0.86856 0.0
H938 H 0.09811 0.06589 0.84502 0.0
S939 S 1.01317 0.07865 0.96971 0.0
N940 N 0.04067 0.11178 0.96258 0.0
N941 N 1.01921 0.05116 0.93627 0.0
C942 C 0.04443 0.06871 0.91747 0.0
C943 C 0.05585 0.10165 0.93155 0.0
C944 C 0.67244 0.94907 0.56564 0.0
C945 C 0.67743 0.98493 0.55715 0.0
C946 C 0.65708 0.93927 0.59785 0.0
C947 C 0.64801 0.96484 0.62318 0.0
H948 H 0.67781 0.92858 0.54624 0.0
H949 H 0.65097 0.91163 0.60241 0.0
S950 S 0.65914 0.06176 0.6153 0.0
N951 N 0.67387 0.0459 0.57724 0.0
N952 N 0.64694 1.02708 0.63897 0.0
C953 C 0.65496 1.00053 0.61607 0.0
C954 C 0.66945 1.01068 0.58274 0.0
C955 C 0.88384 0.10442 0.10569 0.0
C956 C 0.90939 0.08369 0.12267 0.0
C957 C 0.87053 0.09451 0.07244 0.0
C958 C 0.88308 0.06395 0.05518 0.0
H959 H 0.87672 0.12996 0.11649 0.0
H960 H 0.85274 0.11241 0.05899 0.0
S961 S 0.94553 0.99818 0.09139 0.0
N962 N 0.94336 0.02938 0.12197 0.0
N963 N 0.91841 1.01061 0.05965 0.0
C964 C 0.90615 0.04152 0.07339 0.0
C965 C 0.91952 0.05158 0.10708 0.0
C966 C 0.13444 0.60518 0.50451 0.0
C967 C 0.16157 0.58017 0.50727 0.0
C968 C 0.12361 0.61768 0.47165 0.0
C969 C 0.13891 0.60502 0.44008 0.0
H970 H 0.12107 0.61491 0.52798 0.0
H971 H 0.10203 0.63652 0.471 0.0
S972 S 0.21226 0.54039 0.43324 0.0
N973 N 0.20524 0.54452 0.47629 0.0
N974 N 0.18386 0.56718 0.41369 0.0
C975 C 0.16727 0.58113 0.44243 0.0
C976 C 0.17877 0.56876 0.47629 0.0
C977 C 0.3934 0.51067 0.97682 0.0
C978 C 0.37525 0.48671 0.99876 0.0
C979 C 0.40785 0.49959 0.94447 0.0
C980 C 0.40463 0.4643 0.93328 0.0
H981 H 0.39836 0.53751 0.98568 0.0
H982 H 0.42331 0.51819 0.92912 0.0
S983 S 0.35911 0.39155 0.98032 0.0
N984 N 0.3532 0.42653 1.0059 0.0
N985 N 0.38185 0.40576 0.94579 0.0
C986 C 0.38502 0.44063 0.95389 0.0
C987 C 0.36974 0.45191 0.98649 0.0
C988 C 0.60454 0.67045 0.95284 0.0
C989 C 0.6195 0.64153 0.97054 0.0
C990 C 0.57145 0.68378 0.96321 0.0
C991 C 0.55275 0.66883 0.99186 0.0
H992 H 0.61722 0.68114 0.92946 0.0
H993 H 0.55972 0.70472 0.94765 0.0
S994 S 0.58298 0.59532 0.04917 0.0
N995 N 0.61443 0.5999 1.01918 0.0
N996 N 0.55352 0.62608 0.03991 0.0
C997 C 0.56884 0.64169 1.0113 0.0
C998 C 0.60189 0.62766 1.00023 0.0
C999 C 0.07329 0.8704 0.09296 0.0
C1000 C 0.05473 0.88546 0.06436 0.0
C1001 C 0.10674 0.88323 0.10285 0.0
C1002 C 0.12217 0.91158 0.08451 0.0
H1003 H 0.06101 0.8502 0.10913 0.0
H1004 H 0.11926 0.87279 0.12643 0.0
S1005 S 0.08703 0.95583 1.00433 0.0
N1006 N 0.05655 0.92642 1.01488 0.0
N1007 N 0.11849 0.95136 0.03426 0.0
C1008 C 0.10507 0.92475 0.05429 0.0
C1009 C 0.07153 0.91141 0.04393 0.0
C1010 C 0.45839 0.11802 0.56862 0.0
C1011 C 0.43542 0.13934 0.58883 0.0
C1012 C 0.49111 0.13057 0.55708 0.0
C1013 C 0.50252 0.16482 0.56574 0.0
H1014 H 0.45168 0.09079 0.56273 0.0
H1015 H 0.50834 0.11248 0.54297 0.0
S1016 S 0.45012 0.23321 0.61295 0.0
N1017 N 0.42437 0.19784 0.61315 0.0
N1018 N 0.48662 0.22157 0.59184 0.0
C1019 C 0.47885 0.18743 0.58363 0.0
C1020 C 0.44507 0.17467 0.59507 0.0
C1021 C 0.96616 0.40974 0.43 0.0
C1022 C 0.93632 0.40696 0.45197 0.0
C1023 C 0.99857 0.39539 0.44027 0.0
C1024 C 1.00238 0.37903 0.47342 0.0
H1025 H 0.96471 0.42417 0.40527 0.0
H1026 H 1.02128 0.3991 0.42313 0.0
S1027 S 0.93126 0.3614 0.53858 0.0
N1028 N 0.91135 0.383 0.50622 0.0
N1029 N 0.97325 0.35798 0.52673 0.0
C1030 C 0.97242 0.37455 0.49488 0.0
C1031 C 0.939 0.38798 0.48375 0.0
C1032 C 0.19984 0.3831 0.29055 0.0
C1033 C 0.23575 0.38201 0.28082 0.0
C1034 C 0.18738 0.36498 0.32065 0.0
C1035 C 0.21005 0.34417 0.34176 0.0
H1036 H 0.18135 0.39878 0.27532 0.0
H1037 H 0.15971 0.36758 0.32772 0.0
S1038 S 0.30618 0.33174 0.32726 0.0
N1039 N 0.29384 0.35816 0.29481 0.0
N1040 N 0.26999 0.32326 0.35033 0.0
C1041 C 0.24573 0.342 0.33172 0.0
C1042 C 0.25867 0.36115 0.3016 0.0
C1043 C 0.37067 0.68706 0.82256 0.0
C1044 C 0.34842 0.70972 0.84229 0.0
C1045 C 0.35856 0.66922 0.79218 0.0
C1046 C 0.32342 0.67265 0.78068 0.0
H1047 H 0.39773 0.68273 0.83095 0.0
H1048 H 0.3766 0.65184 0.7782 0.0
S1049 S 0.25463 0.72963 0.82202 0.0
N1050 N 0.28986 0.7355 0.84728 0.0
N1051 N 0.26675 0.70166 0.79059 0.0
C1052 C 0.30102 0.69581 0.79969 0.0
C1053 C 0.3136 0.71447 0.83032 0.0
C1054 C 0.68886 0.18793 0.73468 0.0
C1055 C 0.71172 0.20848 0.71346 0.0
C1056 C 0.70106 0.17016 0.76495 0.0
C1057 C 0.73683 0.17169 0.77496 0.0
H1058 H 0.66116 0.18542 0.7277 0.0
H1059 H 0.68245 0.15457 0.78021 0.0
S1060 S 0.80753 0.2224 0.72889 0.0
N1061 N 0.77169 0.22977 0.705 0.0
N1062 N 0.79491 0.19641 0.76168 0.0
C1063 C 0.75993 0.19261 0.75427 0.0
C1064 C 0.74732 0.21105 0.72365 0.0
C1065 C 0.81403 0.84569 0.22646 0.0
C1066 C 0.85004 0.84617 0.21729 0.0
C1067 C 0.80155 0.86413 0.25643 0.0
C1068 C 0.82463 0.88367 0.27852 0.0
H1069 H 0.79516 0.83236 0.20949 0.0
H1070 H 0.77345 0.86341 0.26208 0.0
S1071 S 0.92184 0.89132 0.26711 0.0
N1072 N 0.9089 0.86651 0.23342 0.0
N1073 N 0.88561 0.90081 0.2897 0.0
C1074 C 0.86087 0.88343 0.27015 0.0
C1075 C 0.87349 0.86487 0.23953 0.0
C1076 C 0.33984 0.24169 0.36007 0.0
C1077 C 0.34233 0.20731 0.34619 0.0
C1078 C 0.31 0.25233 0.3797 0.0
C1079 C 0.28113 0.22933 0.38552 0.0
H1080 H 0.36165 0.26004 0.35688 0.0
H1081 H 0.30976 0.2788 0.3907 0.0
S1082 S 0.27567 0.1359 0.35558 0.0
N1083 N 0.31442 0.14973 0.34073 0.0
N1084 N 0.25771 0.17009 0.37613 0.0
C1085 C 0.28338 0.19486 0.37153 0.0
C1086 C 0.31409 0.18383 0.35222 0.0
C1087 C 0.21883 0.84708 0.88403 0.0
C1088 C 0.21516 0.84633 0.84671 0.0
C1089 C 0.2504 0.83747 0.90088 0.0
C1090 C 0.28013 0.82672 0.88141 0.0
H1091 H 0.19702 0.85524 0.90077 0.0
H1092 H 0.2514 0.83844 0.92956 0.0
S1093 S 0.28533 0.81973 0.78324 0.0
N1094 N 0.2446 0.83362 0.79086 0.0
N1095 N 0.30414 0.81566 0.82252 0.0
C1096 C 0.27716 0.82573 0.84409 0.0
C1097 C 0.24469 0.83537 0.8268 0.0
C1098 C 0.78625 0.31905 0.71059 0.0
C1099 C 0.77612 0.33188 0.67693 0.0
C1100 C 0.81804 0.33001 0.72711 0.0
C1101 C 0.84082 0.35465 0.71085 0.0
H1102 H 0.76988 0.29976 0.72401 0.0
H1103 H 0.82511 0.31852 0.75237 0.0
S1104 S 0.82305 0.40086 0.62552 0.0
N1105 N 0.78946 0.37333 0.62998 0.0
N1106 N 0.84814 0.39468 0.66068 0.0
C1107 C 0.82969 0.36914 0.67806 0.0
C1108 C 0.79769 0.35765 0.66126 0.0
C1109 C 0.73101 0.73654 0.22062 0.0
C1110 C 0.71583 0.70374 0.21186 0.0
C1111 C 0.76124 0.74908 0.2027 0.0
C1112 C 0.7777 0.72927 0.17549 0.0
H1113 H 0.71867 0.75327 0.24039 0.0
H1114 H 0.77152 0.77477 0.21001 0.0
S1115 S 0.7502 0.64024 0.1446 0.0
N1116 N 0.72105 0.65056 0.17552 0.0
N1117 N 0.77759 0.67422 0.14231 0.0
C1118 C 0.76362 0.69584 0.16749 0.0
C1119 C 0.73279 0.68312 0.1855 0.0
C1120 C 0.40273 0.30536 0.21492 0.0
C1121 C 0.383 0.27721 0.22897 0.0
C1122 C 0.38637 0.33675 0.20392 0.0
C1123 C 0.34937 0.34174 0.20651 0.0
H1124 H 0.43121 0.30324 0.21243 0.0
H1125 H 0.40322 0.35738 0.19334 0.0
S1126 S 0.28543 0.27587 0.24165 0.0
N1127 N 0.32426 0.25621 0.24519 0.0
N1128 N 0.29347 0.31506 0.22413 0.0
C1129 C 0.32921 0.31368 0.22053 0.0
C1130 C 0.34598 0.28153 0.23178 0.0
C1131 C 0.83132 0.24089 0.83499 0.0
C1132 C 0.85132 0.212 0.84726 0.0
C1133 C 0.84783 0.2728 0.82453 0.0
C1134 C 0.88497 0.27701 0.82578 0.0
H1135 H 0.80273 0.23911 0.834 0.0
H1136 H 0.83133 0.29431 0.81542 0.0
S1137 S 0.94981 0.20924 0.85386 0.0
N1138 N 0.91098 0.18978 0.85833 0.0
N1139 N 0.94111 0.24932 0.8393 0.0
C1140 C 0.90519 0.24827 0.83743 0.0
C1141 C 0.88864 0.21595 0.84794 0.0
C1142 C 0.65312 0.80791 0.3389 0.0
C1143 C 0.67299 0.77916 0.32633 0.0
C1144 C 0.66946 0.83942 0.34996 0.0
C1145 C 0.70659 0.84405 0.34865 0.0
H1146 H 0.62456 0.80612 0.34031 0.0
H1147 H 0.65253 0.86044 0.3596 0.0
S1148 S 0.77091 0.77688 0.31699 0.0
N1149 N 0.73205 0.75722 0.31296 0.0
N1150 N 0.7627 0.81671 0.33306 0.0
C1151 C 0.72686 0.81557 0.33571 0.0
C1152 C 0.71014 0.78314 0.32481 0.0
C1153 C 0.20895 0.77318 0.72599 0.0
C1154 C 0.17219 0.77341 0.7329 0.0
C1155 C 0.22677 0.74188 0.71598 0.0
C1156 C 0.20837 0.70972 0.71203 0.0
H1157 H 0.22407 0.79744 0.72804 0.0
H1158 H 0.25482 0.74316 0.71022 0.0
S1159 S 0.11229 0.69561 0.72877 0.0
N1160 N 0.11856 0.73813 0.73649 0.0
N1161 N 0.15142 0.6799 0.71755 0.0
C1162 C 0.17173 0.70959 0.71961 0.0
C1163 C 0.15382 0.74121 0.72997 0.0
C1164 C 0.82318 0.70849 0.77268 0.0
C1165 C 0.82105 0.67125 0.77525 0.0
C1166 C 0.83331 0.72535 0.74082 0.0
C1167 C 0.84185 0.70563 0.71026 0.0
H1168 H 0.8171 0.7248 0.79551 0.0
H1169 H 0.83535 0.75393 0.74046 0.0
S1170 S 0.83836 0.60735 0.70249 0.0
N1171 N 0.82687 0.61546 0.74388 0.0
N1172 N 0.84567 0.64643 0.6846 0.0
C1173 C 0.83896 0.66834 0.71246 0.0
C1174 C 0.82867 0.65137 0.74472 0.0
C1175 C 0.68603 0.36886 0.23308 0.0
C1176 C 0.70962 0.35078 0.21044 0.0
C1177 C 0.69786 0.38602 0.264 0.0
C1178 C 0.7339 0.38646 0.27315 0.0
H1179 H 0.65807 0.36975 0.22683 0.0
H1180 H 0.67869 0.39954 0.28052 0.0
S1181 S 0.80659 0.34344 0.2226 0.0
N1182 N 0.77067 0.3346 0.19923 0.0
N1183 N 0.79312 0.36673 0.25714 0.0
C1184 C 0.75777 0.36831 0.25079 0.0
C1185 C 0.7456 0.35048 0.21953 0.0
C1186 C 0.29957 0.86156 0.3005 0.0
C1187 C 0.32316 0.88059 0.27852 0.0
C1188 C 0.31159 0.8424 0.33018 0.0
C1189 C 0.34762 0.84203 0.33931 0.0
H1190 H 0.27145 0.86178 0.295 0.0
H1191 H 0.29243 0.8292 0.34694 0.0
S1192 S 0.42063 0.88476 0.28923 0.0
N1193 N 0.38464 0.89545 0.26693 0.0
N1194 N 0.40702 0.86041 0.32287 0.0
C1195 C 0.37155 0.85992 0.31695 0.0
C1196 C 0.35942 0.87892 0.28654 0.0
C1197 C 0.21388 0.222 0.8144 0.0
C1198 C 0.21049 0.20334 0.84642 0.0
C1199 C 0.22416 0.20472 0.78285 0.0
C1200 C 0.23138 0.16808 0.78209 0.0
H1201 H 0.20731 0.24983 0.81341 0.0
H1202 H 0.22623 0.22019 0.75881 0.0
S1203 S 0.22746 0.10737 0.85914 0.0
N1204 N 0.21606 0.14624 0.87548 0.0
N1205 N 0.23519 0.11409 0.81664 0.0
C1206 C 0.22853 0.14931 0.81407 0.0
C1207 C 0.2181 0.16681 0.84604 0.0
C1208 C 0.77065 0.81939 0.70874 0.0
C1209 C 0.78012 0.83053 0.67431 0.0
C1210 C 0.73907 0.83094 0.7251 0.0
C1211 C 0.71573 0.85415 0.7077 0.0
H1212 H 0.7874 0.80105 0.72293 0.0
H1213 H 0.73277 0.82127 0.75134 0.0
S1214 S 0.73062 0.8933 0.61812 0.0
N1215 N 0.76496 0.86735 0.62431 0.0
N1216 N 0.70637 0.88951 0.65428 0.0
C1217 C 0.72581 0.86622 0.67352 0.0
C1218 C 0.75772 0.85429 0.65706 0.0
C1219 C 0.78865 0.24301 0.20665 0.0
C1220 C 0.77373 0.22487 0.17744 0.0
C1221 C 0.82006 0.23134 0.22311 0.0
C1222 C 0.83755 0.20067 0.21132 0.0
H1223 H 0.77641 0.26691 0.21645 0.0
H1224 H 0.83123 0.24704 0.2444 0.0
S1225 S 0.80428 0.13879 0.14202 0.0
N1226 N 0.77585 0.17183 0.14138 0.0
N1227 N 0.83378 0.14909 0.17264 0.0
C1228 C 0.8212 0.1808 0.18402 0.0
C1229 C 0.7896 0.19301 0.16706 0.0
C1230 C 0.24136 0.71708 0.33084 0.0
C1231 C 0.21039 0.70939 0.35007 0.0
C1232 C 0.27292 0.72708 0.3482 0.0
C1233 C 0.27482 0.72957 0.38552 0.0
H1234 H 0.24155 0.71432 0.30232 0.0
H1235 H 0.29605 0.7328 0.33222 0.0
S1236 S 0.20129 0.71255 0.4484 0.0
N1237 N 0.1838 0.70577 0.40893 0.0
N1238 N 0.24288 0.72359 0.44099 0.0
C1239 C 0.24408 0.72209 0.405 0.0
C1240 C 0.21201 0.71225 0.38747 0.0
C1241 C 0.3017 0.34407 0.8981 0.0
C1242 C 0.27569 0.32501 0.87972 0.0
C1243 C 0.3329 0.35502 0.88134 0.0
C1244 C 0.34009 0.34747 0.84532 0.0
H1245 H 0.29809 0.35049 0.92587 0.0
H1246 H 0.35174 0.3695 0.89718 0.0
S1247 S 0.28041 0.29776 0.78503 0.0
N1248 N 0.25887 0.29885 0.82314 0.0
N1249 N 0.31787 0.31932 0.7918 0.0
C1250 C 0.31417 0.32847 0.82643 0.0
C1251 C 0.28199 0.31736 0.84355 0.0
C1252 C 0.69718 0.7579 0.80418 0.0
C1253 C 0.67278 0.77687 0.82531 0.0
C1254 C 0.71479 0.7277 0.81707 0.0
C1255 C 0.70811 0.71485 0.85136 0.0
H1256 H 0.70255 0.76627 0.77729 0.0
H1257 H 0.73273 0.71362 0.79965 0.0
S1258 S 0.64896 0.75624 0.91833 0.0
N1259 N 0.64489 0.78168 0.88309 0.0
N1260 N 0.67712 0.72483 0.90702 0.0
C1261 C 0.68453 0.73413 0.87303 0.0
C1262 C 0.66709 0.7651 0.86012 0.0
C1263 C 0.17082 0.83589 0.20263 0.0
C1264 C 0.20757 0.84185 0.20668 0.0
C1265 C 0.15469 0.80423 0.21333 0.0
C1266 C 0.1744 0.77667 0.22837 0.0
H1267 H 0.15399 0.85595 0.19112 0.0
H1268 H 0.1264 0.80143 0.20983 0.0
S1269 S 0.27132 0.77808 0.24521 0.0
N1270 N 0.26314 0.81698 0.22723 0.0
N1271 N 0.23288 0.75729 0.24691 0.0
C1272 C 0.21117 0.78196 0.23254 0.0
C1273 C 0.22768 0.81452 0.22189 0.0
C1274 C 0.35075 0.21899 0.74431 0.0
C1275 C 0.34354 0.21363 0.70818 0.0
C1276 C 0.36972 0.24899 0.75596 0.0
C1277 C 0.38189 0.27496 0.73198 0.0
H1278 H 0.34285 0.19924 0.76352 0.0
H1279 H 0.37515 0.25166 0.78402 0.0
S1280 S 0.36633 0.27473 0.6349 0.0
N1281 N 0.34805 0.23752 0.64875 0.0
N1282 N 0.38273 0.29417 0.67056 0.0
C1283 C 0.37345 0.27048 0.69594 0.0
C1284 C 0.35458 0.23975 0.68409 0.0
C1285 C 0.82856 0.31402 0.33411 0.0
C1286 C 0.84781 0.34477 0.34278 0.0
C1287 C 0.84596 0.28265 0.32342 0.0
C1288 C 0.88324 0.2809 0.3207 0.0
H1289 H 0.8 0.31384 0.33655 0.0
H1290 H 0.83006 0.25954 0.31741 0.0
S1291 S 0.94584 0.3548 0.33737 0.0
N1292 N 0.90649 0.37173 0.34556 0.0
N1293 N 0.93844 0.31336 0.32573 0.0
C1294 C 0.90259 0.31174 0.32817 0.0
C1295 C 0.88509 0.34345 0.33907 0.0
C1296 C 0.21003 0.43344 0.52611 0.0
C1297 C 0.20094 0.4017 0.54311 0.0
C1298 C 0.22692 0.4609 0.54459 0.0
C1299 C 0.23424 0.45816 0.58109 0.0
H1300 H 0.20158 0.43815 0.4991 0.0
H1301 H 0.23003 0.48613 0.53133 0.0
S1302 S 0.22093 0.37834 0.63618 0.0
N1303 N 0.20549 0.36686 0.59684 0.0
N1304 N 0.23538 0.41945 0.63221 0.0
C1305 C 0.22865 0.42526 0.59738 0.0
C1306 C 0.21227 0.3968 0.57823 0.0
C1307 C 0.3286 0.59234 0.04688 0.0
C1308 C 0.32029 0.59672 0.083 0.0
C1309 C 0.34388 0.61978 1.02721 0.0
C1310 C 0.35044 0.6531 0.04253 0.0
H1311 H 0.32759 0.56622 0.035 0.0
H1312 H 0.35348 0.61389 1.00077 0.0
S1313 S 0.32338 0.68119 0.13278 0.0
N1314 N 0.31337 0.63862 0.13126 0.0
N1315 N 0.33983 0.69123 0.09344 0.0
C1316 C 0.33708 0.65945 0.07681 0.0
C1317 C 0.3225 0.63098 0.0973 0.0
C1318 C 0.71364 0.1235 0.5308 0.0
C1319 C 0.70477 0.15565 0.51438 0.0
C1320 C 0.73019 0.09615 0.51189 0.0
C1321 C 0.73763 0.0993 0.47545 0.0
H1322 H 0.7051 0.11833 0.55772 0.0
H1323 H 0.73279 0.07066 0.52474 0.0
S1324 S 0.7286 0.18119 0.42254 0.0
N1325 N 0.71176 0.19179 0.46161 0.0
N1326 N 0.74152 0.13954 0.42565 0.0
C1327 C 0.73319 0.13278 0.45998 0.0
C1328 C 0.71695 0.16113 0.47952 0.0
C1329 C 0.84929 0.89812 0.97615 0.0
C1330 C 0.85414 0.90225 1.01295 0.0
C1331 C 0.83512 0.92573 0.95548 0.0
C1332 C 0.82453 0.95789 0.97108 0.0
H1333 H 0.85995 0.8751 0.96277 0.0
H1334 H 0.83597 0.9233 0.92687 0.0
S1335 S 0.82698 0.97962 0.06687 0.0
N1336 N 0.84384 0.93941 0.06441 0.0
N1337 N 0.81619 0.99044 1.02591 0.0
C1338 C 0.82568 0.96055 1.00823 0.0
C1339 C 0.84084 0.93298 0.02909 0.0
C1340 C 0.59697 0.22828 0.42701 0.0
C1341 C 0.58222 0.23358 0.46087 0.0
C1342 C 0.5767 0.21351 0.39921 0.0
C1343 C 0.54173 0.20188 0.40506 0.0
H1344 H 0.62508 0.23221 0.42297 0.0
H1345 H 0.58959 0.20791 0.37421 0.0
S1346 S 0.48913 0.21616 0.48668 0.0
N1347 N 0.52868 0.23213 0.49637 0.0
N1348 N 0.49169 0.20205 0.44531 0.0
C1349 C 0.52579 0.21049 0.43753 0.0
C1350 C 0.54582 0.22692 0.46512 0.0
C1351 C 0.95557 0.83468 0.92694 0.0
C1352 C 0.97099 0.82482 0.95942 0.0
C1353 C 0.97625 0.84878 0.89914 0.0
C1354 C 1.01289 0.85444 0.90333 0.0
H1355 H 0.92703 0.83484 0.92429 0.0
H1356 H 0.96292 0.85867 0.87578 0.0
S1357 S 0.06635 0.83003 0.98181 0.0
N1358 N 1.02557 0.81847 0.99253 0.0
N1359 N 0.064 0.84605 0.9412 0.0
C1360 C 0.02887 0.84214 0.93455 0.0
C1361 C 1.00804 0.827 0.9623 0.0
C1362 C 0.11024 0.34134 0.62893 0.0
C1363 C 0.09178 0.32325 0.60197 0.0
C1364 C 0.09225 0.35726 0.65749 0.0
C1365 C 0.05518 0.35552 0.66016 0.0
H1366 H 0.1382 0.34684 0.62574 0.0
H1367 H 0.10707 0.3739 0.67559 0.0
S1368 S 0.99502 0.30765 0.59924 0.0
N1369 N 0.03476 0.30153 0.58201 0.0
N1370 N 1.00105 0.33131 0.63561 0.0
C1371 C 0.03684 0.33473 0.63536 0.0
C1372 C 0.05515 0.31845 0.60639 0.0
C1373 C 0.51817 0.72452 0.13576 0.0
C1374 C 0.50425 0.69912 0.15918 0.0
C1375 C 0.49706 0.73947 0.10882 0.0
C1376 C 0.46155 0.72901 0.10406 0.0
H1377 H 0.54614 0.73079 0.13651 0.0
H1378 H 0.50974 0.75603 0.08915 0.0
S1379 S 0.41314 0.6633 0.15837 0.0
N1380 N 0.45276 0.66524 0.17659 0.0
N1381 N 0.41363 0.69241 0.12586 0.0
C1382 C 0.44696 0.70556 0.12901 0.0
C1383 C 0.46823 0.69067 0.15643 0.0
C1384 C 0.42691 0.59669 0.22769 0.0
C1385 C 0.45999 0.5807 0.23372 0.0
C1386 C 0.39885 0.57766 0.21179 0.0
C1387 C 0.40328 0.54218 0.20112 0.0
H1388 H 0.42389 0.62487 0.23182 0.0
H1389 H 0.37501 0.59177 0.20457 0.0
S1390 S 0.48265 0.48687 0.21646 0.0
N1391 N 0.49354 0.52611 0.23245 0.0
N1392 N 0.44153 0.49071 0.20224 0.0
C1393 C 0.43486 0.52508 0.21055 0.0
C1394 C 0.46296 0.5442 0.22712 0.0
C1395 C 0.89986 0.97447 0.8491 0.0
C1396 C 0.90378 1.01119 0.85432 0.0
C1397 C 0.92761 0.95407 0.83465 0.0
C1398 C 0.95971 0.96987 0.82413 0.0
H1399 H 0.87688 0.96094 0.85965 0.0
H1400 H 0.92533 0.9255 0.83521 0.0
S1401 S 0.98106 0.06552 0.82794 0.0
N1402 N 0.94078 0.06277 0.84471 0.0
N1403 N 0.99206 1.02478 0.81654 0.0
C1404 C 0.96219 1.00695 0.82577 0.0
C1405 C 0.93449 0.02752 0.8412 0.0
C1406 C 0.61285 0.06323 0.31563 0.0
C1407 C 0.604 0.09733 0.32794 0.0
C1408 C 0.64005 0.04342 0.33187 0.0
C1409 C 0.65898 0.05717 0.36093 0.0
H1410 H 0.59606 0.05023 0.29631 0.0
H1411 H 0.64405 1.01622 0.32376 0.0
S1412 S 0.64628 0.14488 0.4026 0.0
N1413 N 0.61792 0.1442 0.36944 0.0
N1414 N 0.66776 0.10698 0.40037 0.0
C1415 C 0.65219 0.09204 0.37152 0.0
C1416 C 0.62526 0.11225 0.35465 0.0
C1417 C 0.12836 0.52733 0.71793 0.0
C1418 C 0.15792 0.50914 0.70448 0.0
C1419 C 0.10064 0.50927 0.73489 0.0
C1420 C 0.10086 0.47215 0.73825 0.0
H1421 H 0.1252 0.5553 0.7126 0.0
H1422 H 0.07679 0.52392 0.74111 0.0
S1423 S 0.17454 0.41298 0.71269 0.0
N1424 N 0.18813 0.45267 0.70035 0.0
N1425 N 0.13528 0.41861 0.73112 0.0
C1426 C 0.13196 0.45426 0.72851 0.0
C1427 C 0.16061 0.47276 0.7117 0.0
C1428 C 0.83178 0.59344 0.51154 0.0
C1429 C 0.8222 0.5955 0.47557 0.0
C1430 C 0.84795 0.62195 0.52892 0.0
C1431 C 0.85454 0.65404 0.51134 0.0
H1432 H 0.83091 0.56818 0.52507 0.0
H1433 H 0.85817 0.61775 0.55542 0.0
S1434 S 0.82481 0.67652 0.42057 0.0
N1435 N 0.81376 0.63443 0.42523 0.0
N1436 N 0.84338 0.68871 0.45837 0.0
C1437 C 0.84041 0.65825 0.47711 0.0
C1438 C 0.82429 0.62879 0.45912 0.0
C1439 C 0.73556 0.45229 1.00321 0.0
C1440 C 0.73257 0.45417 0.96604 0.0
C1441 C 0.71975 0.42461 1.02251 0.0
C1442 C 0.70108 0.39734 1.00528 0.0
H1443 H 0.74632 0.47458 1.0178 0.0
H1444 H 0.71965 0.42613 0.05119 0.0
S1445 S 0.68781 0.38841 0.90846 0.0
N1446 N 0.71125 0.42509 0.91287 0.0
N1447 N 0.68266 0.37259 0.9489 0.0
C1448 C 0.70076 0.39712 0.96806 0.0
C1449 C 0.7164 0.42556 0.94849 0.0
C1450 C 0.32392 0.96146 0.54445 0.0
C1451 C 0.31721 0.95828 0.58102 0.0
C1452 C 0.34019 0.93416 0.52523 0.0
C1453 C 0.34961 0.90212 0.54152 0.0
H1454 H 0.32088 0.98692 0.53164 0.0
H1455 H 0.34811 0.93932 0.49812 0.0
S1456 S 0.32938 0.87704 0.63433 0.0
N1457 N 0.31554 0.91839 0.63124 0.0
N1458 N 0.34493 0.86634 0.59477 0.0
C1459 C 0.33854 0.89671 0.57675 0.0
C1460 C 0.32251 0.92495 0.59657 0.0
C1461 C 0.21709 0.13009 0.10586 0.0
C1462 C 0.23226 0.10047 0.089 0.0
C1463 C 0.20112 0.15737 0.08616 0.0
C1464 C 0.19929 0.1556 0.04895 0.0
H1465 H 0.21401 0.13026 0.1344 0.0
H1466 H 0.18709 0.17805 0.10025 0.0
S1467 S 0.23922 0.08644 0.99199 0.0
N1468 N 0.24815 0.07352 0.03281 0.0
N1469 N 0.21745 0.12411 0.99594 0.0
C1470 C 0.21709 0.12789 0.03175 0.0
C1471 C 0.23394 0.10062 0.05176 0.0
C1472 C 0.52803 0.84912 0.61722 0.0
C1473 C 0.51363 0.85418 0.65122 0.0
C1474 C 0.50788 0.83446 0.58971 0.0
C1475 C 0.47216 0.82508 0.59473 0.0
H1476 H 0.55416 0.85925 0.61103 0.0
H1477 H 0.5191 0.83438 0.56326 0.0
S1478 S 0.42421 0.82568 0.68031 0.0
N1479 N 0.46371 0.84187 0.6901 0.0
N1480 N 0.42491 0.81677 0.6374 0.0
C1481 C 0.45863 0.82624 0.62936 0.0
C1482 C 0.47966 0.84017 0.65789 0.0
C1483 C 0.02754 0.21311 0.12337 0.0
C1484 C 0.04397 0.20155 0.15466 0.0
C1485 C 0.04698 0.22996 0.09653 0.0
C1486 C 0.08384 0.2349 0.09943 0.0
H1487 H 1.00003 0.20666 0.11843 0.0
H1488 H 0.03391 0.23489 0.07147 0.0
S1489 S 0.13843 0.21406 0.17793 0.0
N1490 N 0.09826 0.20076 0.18908 0.0
N1491 N 0.13505 0.23079 0.13769 0.0
C1492 C 0.09981 0.22673 0.13195 0.0
C1493 C 0.07984 0.21029 0.15975 0.0
C1494 C 0.97581 0.71371 0.39724 0.0
C1495 C 1.01182 0.70456 0.40006 0.0
C1496 C 0.95749 0.72883 0.42622 0.0
C1497 C 0.97501 0.7364 0.45831 0.0
H1498 H 0.96094 0.70586 0.37404 0.0
H1499 H 0.92893 0.73083 0.42484 0.0
S1500 S 0.07093 0.72538 0.47548 0.0
N1501 N 0.06533 0.70959 0.43505 0.0
N1502 N 0.03163 0.73945 0.48844 0.0
C1503 C 1.012 0.73218 0.45914 0.0
C1504 C 0.03024 0.71584 0.43031 0.0
C1505 C 0.5794 0.34349 0.89622 0.0
C1506 C 0.54311 0.35048 0.90115 0.0
C1507 C 0.59977 0.32785 0.92334 0.0
C1508 C 0.58441 0.31804 0.95591 0.0
H1509 H 0.59288 0.35353 0.87298 0.0
H1510 H 0.62824 0.32706 0.92028 0.0
S1511 S 0.48949 0.32561 0.97952 0.0
N1512 N 0.49204 0.34258 0.93933 0.0
N1513 N 0.52992 0.31239 0.9894 0.0
C1514 C 0.54745 0.32106 0.95916 0.0
C1515 C 0.52694 0.33766 0.93211 0.0
C1516 C 0.62899 0.45656 0.83326 0.0
C1517 C 0.59589 0.47209 0.82629 0.0
C1518 C 0.65686 0.47648 0.84828 0.0
C1519 C 0.65203 0.5122 0.8578 0.0
H1520 H 0.6322 0.42821 0.83052 0.0
H1521 H 0.68093 0.46295 0.85577 0.0
S1522 S 0.57182 0.56593 0.84155 0.0
N1523 N 0.56153 0.52623 0.82633 0.0
N1524 N 0.613 0.56301 0.85584 0.0
C1525 C 0.62017 0.5286 0.8482 0.0
C1526 C 0.59237 0.5087 0.83205 0.0
C1527 C 0.09342 0.04769 0.22554 0.0
C1528 C 0.09734 0.0842 0.23215 0.0
C1529 C 0.1203 0.02801 0.20909 0.0
C1530 C 0.15266 0.04378 0.19967 0.0
H1531 H 0.0678 0.03523 0.22906 0.0
H1532 H 0.11475 1.00093 0.20137 0.0
S1533 S 0.17876 0.13671 0.21711 0.0
N1534 N 0.1376 0.13419 0.23177 0.0
N1535 N 0.18901 0.09672 0.20269 0.0
C1536 C 0.15855 0.07908 0.21003 0.0
C1537 C 0.1307 0.09941 0.22593 0.0
C1538 C 0.44109 0.98998 0.74195 0.0
C1539 C 0.45156 0.95787 0.72606 0.0
C1540 C 0.41319 1.0103 0.72754 0.0
C1541 C 0.39499 0.99893 0.69698 0.0
H1542 H 0.457 1.00139 0.76295 0.0
H1543 H 0.40801 0.03633 0.7384 0.0
S1544 S 0.41261 0.91747 0.64546 0.0
N1545 N 0.44064 0.91575 0.67884 0.0
N1546 N 0.38905 0.95356 0.65203 0.0
C1547 C 0.40355 0.96581 0.68266 0.0
C1548 C 0.43145 0.94524 0.69732 0.0
C1549 C 0.944 0.55938 0.31286 0.0
C1550 C 0.95214 0.59373 0.32494 0.0
C1551 C 0.91639 0.53957 0.32845 0.0
C1552 C 0.89616 0.55365 0.35645 0.0
H1553 H 0.96157 0.54627 0.29435 0.0
H1554 H 0.91301 0.51214 0.3208 0.0
S1555 S 0.90711 0.64191 0.39749 0.0
N1556 N 0.93672 0.641 0.36541 0.0
N1557 N 0.88573 0.60389 0.3949 0.0
C1558 C 0.90234 0.58874 0.36677 0.0
C1559 C 0.92993 0.60886 0.35072 0.0
C1560 C 0.26511 0.17794 0.55795 0.0
C1561 C 0.25069 0.17492 0.59247 0.0
C1562 C 0.24933 0.19953 0.53169 0.0
C1563 C 0.21884 0.21967 0.53904 0.0
H1564 H 0.28898 0.16363 0.55116 0.0
H1565 H 0.26177 0.20132 0.50589 0.0
S1566 S 0.17024 0.22102 0.62502 0.0
N1567 N 0.2036 0.19384 0.63196 0.0
N1568 N 0.17428 0.23403 0.58353 0.0
C1569 C 0.20394 0.21637 0.57334 0.0
C1570 C 0.21971 0.1942 0.59973 0.0
C1571 C 0.29006 0.87678 0.05812 0.0
C1572 C 0.30456 0.88039 0.09257 0.0
C1573 C 0.30608 0.85517 0.03185 0.0
C1574 C 0.33694 0.8356 0.0391 0.0
H1575 H 0.26591 0.89059 0.05142 0.0
H1576 H 0.29353 0.85285 1.00616 0.0
S1577 S 0.38604 0.83613 0.12473 0.0
N1578 N 0.35224 0.86279 0.13178 0.0
N1579 N 0.38199 0.82258 0.08335 0.0
C1580 C 0.35197 0.8396 0.07328 0.0
C1581 C 0.33595 0.86178 0.09967 0.0
C1582 C 0.70203 0.34559 0.48825 0.0
C1583 C 0.72064 0.33569 0.51916 0.0
C1584 C 0.71734 0.36721 0.46194 0.0
C1585 C 0.75238 0.37968 0.46481 0.0
H1586 H 0.67525 0.33618 0.4841 0.0
H1587 H 0.70176 0.37342 0.43871 0.0
S1588 S 0.81313 0.36075 0.54013 0.0
N1589 N 0.77617 0.34004 0.55092 0.0
N1590 N 0.80528 0.38019 0.50184 0.0
C1591 C 0.77122 0.37025 0.4959 0.0
C1592 C 0.75534 0.34852 0.52291 0.0
C1593 C 0.8342 0.69426 0.95995 0.0
C1594 C 0.80179 0.67693 0.96619 0.0
C1595 C 0.84986 0.71641 0.98565 0.0
C1596 C 0.83434 0.72209 1.01931 0.0
H1597 H 0.84728 0.6915 0.93455 0.0
H1598 H 0.87449 0.72943 0.97884 0.0
S1599 S 0.75028 0.68184 0.05022 0.0
N1600 N 0.75513 0.66635 1.00953 0.0
N1601 N 0.78497 0.70741 0.0577 0.0
C1602 C 0.80249 0.70413 1.02644 0.0
C1603 C 0.78615 0.68187 0.99999 0.0
C1604 C 0.53169 0.25071 0.20181 0.0
C1605 C 0.5391 0.22021 0.22187 0.0
C1606 C 0.55775 0.26644 0.17981 0.0
C1607 C 0.59213 0.25197 0.17626 0.0
H1608 H 0.50599 0.26317 0.20396 0.0
H1609 H 0.5509 0.29031 0.16559 0.0
S1610 S 0.62456 0.17123 0.2217 0.0
N1611 N 0.58335 0.17548 0.23545 0.0
N1612 N 0.63142 0.20462 0.19447 0.0
C1613 C 0.59939 0.22092 0.19542 0.0
C1614 C 0.5732 0.20523 0.21802 0.0
C1615 C 0.95704 0.83051 0.69805 0.0
C1616 C 0.96418 0.80014 0.67765 0.0
C1617 C 0.98293 0.84603 0.72 0.0
C1618 C 1.01777 0.83253 0.72244 0.0
H1619 H 0.93083 0.84205 0.69779 0.0
H1620 H 0.9753 0.86905 0.73532 0.0
S1621 S 0.05126 0.75483 0.67222 0.0
N1622 N 1.00937 0.75784 0.66011 0.0
N1623 N 0.05817 0.78751 0.70058 0.0
C1624 C 1.02569 0.80277 0.70125 0.0
C1625 C 0.99896 0.78647 0.67925 0.0
C1626 C 0.03128 0.30524 0.85637 0.0
C1627 C 0.03829 0.33711 0.83833 0.0
C1628 C 0.05748 0.28867 0.87753 0.0
C1629 C 0.09164 0.30355 0.88213 0.0
H1630 H 1.00586 0.29237 0.85318 0.0
H1631 H 0.05096 0.26383 0.89021 0.0
S1632 S 0.12326 0.38735 0.84173 0.0
N1633 N 0.0821 0.38336 0.8278 0.0
N1634 N 0.13039 0.35248 0.86688 0.0
C1635 C 0.09852 0.33582 0.86496 0.0
C1636 C 0.07219 0.35246 0.84336 0.0
C1637 C 0.48355 0.70423 0.34095 0.0
C1638 C 0.51755 0.71938 0.33652 0.0
C1639 C 0.45762 0.71966 0.36287 0.0
C1640 C 0.46396 0.75146 0.38125 0.0
H1641 H 0.4766 0.68009 0.32706 0.0
H1642 H 0.43194 0.70699 0.36453 0.0
S1643 S 0.5489 0.80148 0.38071 0.0
N1644 N 0.55641 0.76754 0.35409 0.0
N1645 N 0.50772 0.79692 0.39472 0.0
C1646 C 0.49807 0.76665 0.37778 0.0
C1647 C 0.52477 0.75055 0.35574 0.0
C1648 C 0.19527 0.59657 0.22205 0.0
C1649 C 0.17601 0.58973 0.25321 0.0
C1650 C 0.21764 0.57098 0.2068 0.0
C1651 C 0.22169 0.53681 0.22147 0.0
H1652 H 0.19389 0.62236 0.20969 0.0
H1653 H 0.23212 0.57832 0.18314 0.0
S1654 S 0.17542 0.50416 0.3018 0.0
N1655 N 0.16147 0.54534 0.2976 0.0
N1656 N 0.20296 0.49721 0.26847 0.0
C1657 C 0.20169 0.52907 0.25199 0.0
C1658 C 0.17918 0.55546 0.26796 0.0
C1659 C 0.67916 0.99831 0.79245 0.0
C1660 C 0.67553 0.96397 0.80703 0.0
C1661 C 0.70126 1.02435 0.80809 0.0
C1662 C 0.72128 1.01703 0.83868 0.0
H1663 H 0.6651 1.00509 0.76842 0.0
H1664 H 0.7036 0.04992 0.79541 0.0
S1665 S 0.72041 0.93194 0.88835 0.0
N1666 N 0.69329 0.92496 0.85481 0.0
N1667 N 0.73436 0.97305 0.88391 0.0
C1668 C 0.71711 0.98308 0.85396 0.0
C1669 C 0.69446 0.95686 0.8383 0.0
C1670 C 0.85505 0.0313 0.30721 0.0
C1671 C 0.83569 0.03897 0.33824 0.0
C1672 C 0.87674 0.0572 0.29085 0.0
C1673 C 0.88058 0.09168 0.30516 0.0
H1674 H 0.8526 1.00552 0.29485 0.0
H1675 H 0.89043 0.05019 0.26661 0.0
S1676 S 0.83678 0.12506 0.38677 0.0
N1677 N 0.82313 0.08376 0.38317 0.0
N1678 N 0.86328 0.13151 0.35266 0.0
C1679 C 0.86211 0.09925 0.33664 0.0
C1680 C 0.83993 0.07323 0.35305 0.0
C1681 C 0.34128 0.48232 0.7046 0.0
C1682 C 0.33728 0.51656 0.71936 0.0
C1683 C 0.36312 0.45652 0.72012 0.0
C1684 C 0.38185 0.46325 0.75162 0.0
H1685 H 0.32707 0.47504 0.68074 0.0
H1686 H 0.36441 0.43064 0.7078 0.0
S1687 S 0.38268 0.54903 0.80036 0.0
N1688 N 0.35572 0.55613 0.76668 0.0
N1689 N 0.39625 0.50769 0.79625 0.0
C1690 C 0.37888 0.49764 0.76635 0.0
C1691 C 0.3569 0.5242 0.75015 0.0
C1692 C 0.80447 0.85413 0.52463 0.0
C1693 C 0.83596 0.83552 0.51721 0.0
C1694 C 0.78798 0.87574 0.4987 0.0
C1695 C 0.80256 0.8803 0.4644 0.0
H1696 H 0.79188 0.85119 0.55024 0.0
H1697 H 0.7635 0.88891 0.50562 0.0
S1698 S 0.88534 0.83851 0.43165 0.0
N1699 N 0.88148 0.82435 0.47276 0.0
N1700 N 0.85085 0.86431 0.42504 0.0
C1701 C 0.83442 0.86246 0.45707 0.0
C1702 C 0.85095 0.84036 0.4831 0.0
C1703 C 0.70503 0.21303 0.98494 0.0
C1704 C 0.72088 0.21894 1.01843 0.0
C1705 C 0.72053 0.19104 0.95905 0.0
C1706 C 0.75307 0.17405 0.96495 0.0
H1707 H 0.68031 0.22588 0.97833 0.0
H1708 H 0.70729 0.18826 0.93374 0.0
S1709 S 0.80522 0.17914 0.04856 0.0
N1710 N 0.77056 0.20454 0.05637 0.0
N1711 N 0.80004 0.16363 1.00793 0.0
C1712 C 0.76891 0.17897 0.99868 0.0
C1713 C 0.75277 0.20114 1.02529 0.0
C1714 C 0.29048 0.67867 0.55877 0.0
C1715 C 0.30505 0.67565 0.59323 0.0
C1716 C 0.30615 0.70037 0.53241 0.0
C1717 C 0.3367 0.72065 0.53952 0.0
H1718 H 0.26662 0.66423 0.5521 0.0
H1719 H 0.29361 0.70206 0.50667 0.0
S1720 S 0.38551 0.72226 0.62535 0.0
N1721 N 0.35224 0.69488 0.63243 0.0
N1722 N 0.38131 0.73526 0.58389 0.0
C1723 C 0.35166 0.71744 0.5738 0.0
C1724 C 0.33601 0.69515 0.60029 0.0
C1725 C 0.26753 0.375 0.0584 0.0
C1726 C 0.25289 0.37924 0.09276 0.0
C1727 C 0.25123 0.35336 0.03223 0.0
C1728 C 0.21986 0.3344 0.03943 0.0
H1729 H 0.29197 0.3884 0.05166 0.0
H1730 H 0.26387 0.35067 1.0066 0.0
S1731 S 0.17033 0.33658 0.12497 0.0
N1732 N 0.20465 0.36268 0.13188 0.0
N1733 N 0.17432 0.32264 0.08373 0.0
C1734 C 0.20477 0.33899 0.07357 0.0
C1735 C 0.22112 0.36112 0.09986 0.0
C1736 C 0.48472 0.84832 0.83847 0.0
C1737 C 0.5188 0.83358 0.83395 0.0
C1738 C 0.45933 0.83319 0.86118 0.0
C1739 C 0.46631 0.80205 0.88029 0.0
H1740 H 0.47732 0.87194 0.82409 0.0
H1741 H 0.43356 0.84556 0.86292 0.0
S1742 S 0.55172 0.75316 0.87928 0.0
N1743 N 0.55847 0.78649 0.85185 0.0
N1744 N 0.51074 0.75752 0.89395 0.0
C1745 C 0.50052 0.78722 0.87658 0.0
C1746 C 0.52669 0.80309 0.85374 0.0
C1747 C 0.07317 0.20792 0.33499 0.0
C1748 C 0.03772 0.22016 0.33444 0.0
C1749 C 0.0992 0.22306 0.35702 0.0
C1750 C 0.09156 0.25176 0.37946 0.0
H1751 H 0.08127 0.18627 0.31798 0.0
H1752 H 0.12589 0.21275 0.35562 0.0
S1753 S 1.00292 0.29279 0.39096 0.0
N1754 N 0.99631 0.26179 0.36069 0.0
N1755 N 0.04532 0.29082 0.40134 0.0
C1756 C 0.05619 0.26398 0.37997 0.0
C1757 C 0.02935 0.24807 0.35784 0.0
C1758 C 0.98465 0.70416 0.21407 0.0
C1759 C 1.01862 0.7194 0.21857 0.0
C1760 C 0.95865 0.7196 0.19237 0.0
C1761 C 0.96494 0.75148 0.17431 0.0
H1762 H 0.97774 0.68004 0.22791 0.0
H1763 H 0.93296 0.70697 0.19076 0.0
S1764 S 0.0499 0.80153 0.17504 0.0
N1765 N 0.05745 0.76753 0.20136 0.0
N1766 N 1.00875 0.79696 0.16101 0.0
C1767 C 0.99913 0.76661 0.17768 0.0
C1768 C 1.02586 0.7505 0.19952 0.0
C1769 C 0.57081 0.35247 0.71402 0.0
C1770 C 0.53803 0.3357 0.72086 0.0
C1771 C 0.59679 0.33701 0.69213 0.0
C1772 C 0.5917 0.30361 0.67632 0.0
H1773 H 0.57671 0.37786 0.72602 0.0
H1774 H 0.62154 0.35102 0.68847 0.0
S1775 S 0.51039 0.24848 0.68523 0.0
N1776 N 0.50174 0.28402 0.70922 0.0
N1777 N 0.55039 0.25455 0.66863 0.0
C1778 C 0.55871 0.28674 0.68244 0.0
C1779 C 0.532 0.30284 0.70441 0.0
C1780 C 0.83329 0.48285 0.8455 0.0
C1781 C 0.8339 0.51883 0.83504 0.0
C1782 C 0.85578 0.45734 0.83036 0.0
C1783 C 0.8799 0.46604 0.80338 0.0
H1784 H 0.81509 0.47395 0.86581 0.0
H1785 H 0.85355 0.43023 0.83936 0.0
S1786 S 0.89469 0.55623 0.76733 0.0
N1787 N 0.8629 0.5618 0.79694 0.0
N1788 N 0.90435 0.51363 0.76773 0.0
C1789 C 0.88142 0.50184 0.79279 0.0
C1790 C 0.85882 0.52818 0.80881 0.0
C1791 C 0.35423 0.03141 0.25016 0.0
C1792 C 0.33428 0.03878 0.21951 0.0
C1793 C 0.37626 0.05746 0.26595 0.0
C1794 C 0.37993 0.09178 0.25139 0.0
H1795 H 0.352 1.00576 0.26269 0.0
H1796 H 0.39038 0.05067 0.28994 0.0
S1797 S 0.33474 0.12425 0.17043 0.0
N1798 N 0.32096 0.08306 0.1746 0.0
N1799 N 0.3619 0.13106 0.20396 0.0
C1800 C 0.36089 0.09903 0.22024 0.0
C1801 C 0.33829 0.07286 0.20445 0.0
C1802 C 0.21583 0.98215 0.70525 0.0
C1803 C 0.21827 1.01688 0.71928 0.0
C1804 C 0.19424 0.95598 0.72065 0.0
C1805 C 0.17424 0.96283 0.7513 0.0
H1806 H 0.23109 0.97476 0.68209 0.0
H1807 H 0.19417 0.92976 0.70899 0.0
S1808 S 0.16857 0.04967 0.79757 0.0
N1809 N 0.1966 0.05695 0.76475 0.0
N1810 N 0.15664 1.00774 0.79415 0.0
C1811 C 0.17555 0.99762 0.76523 0.0
C1812 C 0.19724 1.02456 0.74912 0.0
C1813 C 0.67668 0.55742 0.29402 0.0
C1814 C 0.67389 0.59201 0.30825 0.0
C1815 C 0.69813 0.5312 0.30996 0.0
C1816 C 0.7183 0.53862 0.34049 0.0
H1817 H 0.6624 0.55058 0.27008 0.0
H1818 H 0.69983 0.50538 0.29758 0.0
S1819 S 0.72009 0.62489 0.38867 0.0
N1820 N 0.69296 0.6317 0.35518 0.0
N1821 N 0.7328 0.58335 0.38495 0.0
C1822 C 0.71509 0.57299 0.35529 0.0
C1823 C 0.69311 0.59936 0.3393 0.0
loop_
_geom_bond_atom_site_label_1
_geom_bond_atom_site_label_2
_geom_bond_distance
_geom_bond_site_symmetry_2
_ccdc_geom_bond_type
Co0 H3 2.400 . S
Co0 O4 2.009 . S
Co0 O12 2.115 . S
Co0 O13 2.315 . S
Co0 O24 2.053 . S
Co0 O27 2.094 . S
Co0 O30 2.122 . S
Co1 O4 2.126 . S
Co1 H5 2.388 . S
Co1 O6 2.053 . S
Co1 O9 2.047 . S
Co1 O15 2.113 . S
Co1 O26 2.063 . S
Co2 H3 2.388 . S
Co2 O4 2.053 . S
Co2 O6 2.126 . S
Co2 O11 2.063 . S
Co2 O25 2.047 . S
Co2 O31 2.113 . S
H3 Co0 2.400 . S
H3 Co2 2.388 . S
H3 O4 0.760 . S
O4 Co0 2.009 . S
O4 Co1 2.126 . S
O4 Co2 2.053 . S
O4 H3 0.760 . S
H5 Co1 2.388 . S
H5 O6 0.760 . S
H5 Co7 2.400 . S
O6 Co1 2.053 . S
O6 Co2 2.126 . S
O6 H5 0.760 . S
O6 Co7 2.009 . S
Co7 H5 2.400 . S
Co7 O6 2.009 . S
Co7 O8 2.053 . S
Co7 O10 2.094 . S
Co7 O14 2.122 . S
Co7 O28 2.115 . S
Co7 O29 2.315 . S
O8 Co7 2.053 . S
O8 C20 1.259 . S
O9 Co1 2.047 . S
O9 C20 1.257 . S
O10 Co7 2.094 . S
O10 C21 1.253 . S
O11 Co2 2.063 . S
O11 C21 1.268 . S
O12 Co0 2.115 . S
O12 C22 1.281 . S
O13 Co0 2.315 . S
O13 C22 1.252 . S
O14 Co7 2.122 . S
O14 C23 1.272 . S
O15 Co1 2.113 . S
O15 C23 1.245 . S
C16 O24 1.259 . S
C16 O25 1.257 . S
C17 O26 1.268 . S
C17 O27 1.253 . S
C18 O28 1.281 . S
C18 O29 1.252 . S
C19 O30 1.272 . S
C19 O31 1.245 . S
C20 O8 1.259 . S
C20 O9 1.257 . S
C21 O10 1.253 . S
C21 O11 1.268 . S
C22 O12 1.281 . S
C22 O13 1.252 . S
C23 O14 1.272 . S
C23 O15 1.245 . S
O24 Co0 2.053 . S
O24 C16 1.259 . S
O25 Co2 2.047 . S
O25 C16 1.257 . S
O26 Co1 2.063 . S
O26 C17 1.268 . S
O27 Co0 2.094 . S
O27 C17 1.253 . S
O28 Co7 2.115 . S
O28 C18 1.281 . S
O29 Co7 2.315 . S
O29 C18 1.252 . S
O30 Co0 2.122 . S
O30 C19 1.272 . S
O31 Co2 2.113 . S
O31 C19 1.245 . S
Co32 H35 2.400 . S
Co32 O36 2.009 . S
Co32 O44 2.115 . S
Co32 O45 2.315 . S
Co32 O56 2.053 . S
Co32 O59 2.094 . S
Co32 O62 2.122 . S
Co33 O36 2.126 . S
Co33 H37 2.388 . S
Co33 O38 2.053 . S
Co33 O41 2.047 1_556 S
Co33 O47 2.113 1_556 S
Co33 O58 2.063 1_556 S
Co34 H35 2.388 . S
Co34 O36 2.053 . S
Co34 O38 2.126 . S
Co34 O43 2.063 . S
Co34 O57 2.047 . S
Co34 O63 2.113 . S
H35 Co32 2.400 . S
H35 Co34 2.388 . S
H35 O36 0.760 . S
O36 Co32 2.009 . S
O36 Co33 2.126 . S
O36 Co34 2.053 . S
O36 H35 0.760 . S
H37 Co33 2.388 . S
H37 O38 0.760 . S
H37 Co39 2.400 . S
O38 Co33 2.053 . S
O38 Co34 2.126 . S
O38 H37 0.760 . S
O38 Co39 2.009 . S
Co39 H37 2.400 . S
Co39 O38 2.009 . S
Co39 O40 2.053 1_556 S
Co39 O42 2.094 . S
Co39 O46 2.122 . S
Co39 O60 2.115 . S
Co39 O61 2.315 . S
O40 Co39 2.053 1_554 S
O40 C52 1.259 . S
O41 Co33 2.047 1_554 S
O41 C52 1.257 . S
O42 Co39 2.094 . S
O42 C53 1.253 . S
O43 Co34 2.063 . S
O43 C53 1.268 . S
O44 Co32 2.115 . S
O44 C54 1.281 . S
O45 Co32 2.315 . S
O45 C54 1.252 . S
O46 Co39 2.122 . S
O46 C55 1.272 1_556 S
O47 Co33 2.113 1_554 S
O47 C55 1.245 . S
C48 O56 1.259 . S
C48 O57 1.257 . S
C49 O58 1.268 1_556 S
C49 O59 1.253 . S
C50 O60 1.281 . S
C50 O61 1.252 . S
C51 O62 1.272 . S
C51 O63 1.245 . S
C52 O40 1.259 . S
C52 O41 1.257 . S
C53 O42 1.253 . S
C53 O43 1.268 . S
C54 O44 1.281 . S
C54 O45 1.252 . S
C55 O46 1.272 1_554 S
C55 O47 1.245 . S
O56 Co32 2.053 . S
O56 C48 1.259 . S
O57 Co34 2.047 . S
O57 C48 1.257 . S
O58 Co33 2.063 1_554 S
O58 C49 1.268 1_554 S
O59 Co32 2.094 . S
O59 C49 1.253 . S
O60 Co39 2.115 . S
O60 C50 1.281 . S
O61 Co39 2.315 . S
O61 C50 1.252 . S
O62 Co32 2.122 . S
O62 C51 1.272 . S
O63 Co34 2.113 . S
O63 C51 1.245 . S
Co64 H67 2.400 . S
Co64 O68 2.009 . S
Co64 O76 2.115 . S
Co64 O77 2.315 . S
Co64 O88 2.053 . S
Co64 O91 2.094 . S
Co64 O94 2.122 . S
Co65 O68 2.126 . S
Co65 H69 2.388 . S
Co65 O70 2.053 . S
Co65 O73 2.047 . S
Co65 O79 2.113 . S
Co65 O90 2.063 . S
Co66 H67 2.388 . S
Co66 O68 2.053 . S
Co66 O70 2.126 . S
Co66 O75 2.063 . S
Co66 O89 2.047 . S
Co66 O95 2.113 . S
H67 Co64 2.400 . S
H67 Co66 2.388 . S
H67 O68 0.760 . S
O68 Co64 2.009 . S
O68 Co65 2.126 . S
O68 Co66 2.053 . S
O68 H67 0.760 . S
H69 Co65 2.388 . S
H69 O70 0.760 . S
H69 Co71 2.400 . S
O70 Co65 2.053 . S
O70 Co66 2.126 . S
O70 H69 0.760 . S
O70 Co71 2.009 . S
Co71 H69 2.400 . S
Co71 O70 2.009 . S
Co71 O72 2.053 . S
Co71 O74 2.094 . S
Co71 O78 2.122 . S
Co71 O92 2.115 . S
Co71 O93 2.315 . S
O72 Co71 2.053 . S
O72 C84 1.259 . S
O73 Co65 2.047 . S
O73 C84 1.257 . S
O74 Co71 2.094 . S
O74 C85 1.253 . S
O75 Co66 2.063 . S
O75 C85 1.268 . S
O76 Co64 2.115 . S
O76 C86 1.281 . S
O77 Co64 2.315 . S
O77 C86 1.252 . S
O78 Co71 2.122 . S
O78 C87 1.272 . S
O79 Co65 2.113 . S
O79 C87 1.245 . S
C80 O88 1.259 . S
C80 O89 1.257 . S
C81 O90 1.268 . S
C81 O91 1.253 . S
C82 O92 1.281 . S
C82 O93 1.252 . S
C83 O94 1.272 . S
C83 O95 1.245 . S
C84 O72 1.259 . S
C84 O73 1.257 . S
C85 O74 1.253 . S
C85 O75 1.268 . S
C86 O76 1.281 . S
C86 O77 1.252 . S
C87 O78 1.272 . S
C87 O79 1.245 . S
O88 Co64 2.053 . S
O88 C80 1.259 . S
O89 Co66 2.047 . S
O89 C80 1.257 . S
O90 Co65 2.063 . S
O90 C81 1.268 . S
O91 Co64 2.094 . S
O91 C81 1.253 . S
O92 Co71 2.115 . S
O92 C82 1.281 . S
O93 Co71 2.315 . S
O93 C82 1.252 . S
O94 Co64 2.122 . S
O94 C83 1.272 . S
O95 Co66 2.113 . S
O95 C83 1.245 . S
Co96 H99 2.400 . S
Co96 O100 2.009 . S
Co96 O108 2.115 . S
Co96 O109 2.315 . S
Co96 O120 2.053 . S
Co96 O123 2.094 . S
Co96 O126 2.122 . S
Co97 O100 2.126 . S
Co97 H101 2.388 . S
Co97 O102 2.053 . S
Co97 O105 2.047 1_554 S
Co97 O111 2.113 1_554 S
Co97 O122 2.063 1_554 S
Co98 H99 2.388 . S
Co98 O100 2.053 . S
Co98 O102 2.126 . S
Co98 O107 2.063 . S
Co98 O121 2.047 . S
Co98 O127 2.113 . S
H99 Co96 2.400 . S
H99 Co98 2.388 . S
H99 O100 0.760 . S
O100 Co96 2.009 . S
O100 Co97 2.126 . S
O100 Co98 2.053 . S
O100 H99 0.760 . S
H101 Co97 2.388 . S
H101 O102 0.760 . S
H101 Co103 2.400 . S
O102 Co97 2.053 . S
O102 Co98 2.126 . S
O102 H101 0.760 . S
O102 Co103 2.009 . S
Co103 H101 2.400 . S
Co103 O102 2.009 . S
Co103 O104 2.053 1_554 S
Co103 O106 2.094 . S
Co103 O110 2.122 . S
Co103 O124 2.115 . S
Co103 O125 2.315 . S
O104 Co103 2.053 1_556 S
O104 C116 1.259 . S
O105 Co97 2.047 1_556 S
O105 C116 1.257 . S
O106 Co103 2.094 . S
O106 C117 1.253 . S
O107 Co98 2.063 . S
O107 C117 1.268 . S
O108 Co96 2.115 . S
O108 C118 1.281 . S
O109 Co96 2.315 . S
O109 C118 1.252 . S
O110 Co103 2.122 . S
O110 C119 1.272 1_554 S
O111 Co97 2.113 1_556 S
O111 C119 1.245 . S
C112 O120 1.259 . S
C112 O121 1.257 . S
C113 O122 1.268 1_554 S
C113 O123 1.253 . S
C114 O124 1.281 . S
C114 O125 1.252 . S
C115 O126 1.272 . S
C115 O127 1.245 . S
C116 O104 1.259 . S
C116 O105 1.257 . S
C117 O106 1.253 . S
C117 O107 1.268 . S
C118 O108 1.281 . S
C118 O109 1.252 . S
C119 O110 1.272 1_556 S
C119 O111 1.245 . S
O120 Co96 2.053 . S
O120 C112 1.259 . S
O121 Co98 2.047 . S
O121 C112 1.257 . S
O122 Co97 2.063 1_556 S
O122 C113 1.268 1_556 S
O123 Co96 2.094 . S
O123 C113 1.253 . S
O124 Co103 2.115 . S
O124 C114 1.281 . S
O125 Co103 2.315 . S
O125 C114 1.252 . S
O126 Co96 2.122 . S
O126 C115 1.272 . S
O127 Co98 2.113 . S
O127 C115 1.245 . S
Co128 H131 2.400 . S
Co128 O132 2.009 . S
Co128 O140 2.115 . S
Co128 O141 2.315 . S
Co128 O152 2.053 . S
Co128 O155 2.094 . S
Co128 O158 2.122 . S
Co129 O132 2.126 . S
Co129 H133 2.388 . S
Co129 O134 2.053 . S
Co129 O137 2.047 . S
Co129 O143 2.113 . S
Co129 O154 2.063 . S
Co130 H131 2.388 . S
Co130 O132 2.053 . S
Co130 O134 2.126 . S
Co130 O139 2.063 . S
Co130 O153 2.047 . S
Co130 O159 2.113 . S
H131 Co128 2.400 . S
H131 Co130 2.388 . S
H131 O132 0.760 . S
O132 Co128 2.009 . S
O132 Co129 2.126 . S
O132 Co130 2.053 . S
O132 H131 0.760 . S
H133 Co129 2.388 . S
H133 O134 0.760 . S
H133 Co135 2.400 . S
O134 Co129 2.053 . S
O134 Co130 2.126 . S
O134 H133 0.760 . S
O134 Co135 2.009 . S
Co135 H133 2.400 . S
Co135 O134 2.009 . S
Co135 O136 2.053 . S
Co135 O138 2.094 . S
Co135 O142 2.122 . S
Co135 O156 2.115 . S
Co135 O157 2.315 . S
O136 Co135 2.053 . S
O136 C148 1.259 . S
O137 Co129 2.047 . S
O137 C148 1.257 . S
O138 Co135 2.094 . S
O138 C149 1.253 . S
O139 Co130 2.063 . S
O139 C149 1.268 . S
O140 Co128 2.115 . S
O140 C150 1.281 . S
O141 Co128 2.315 . S
O141 C150 1.252 . S
O142 Co135 2.122 . S
O142 C151 1.272 . S
O143 Co129 2.113 . S
O143 C151 1.245 . S
C144 O152 1.259 . S
C144 O153 1.257 . S
C145 O154 1.268 . S
C145 O155 1.253 . S
C146 O156 1.281 . S
C146 O157 1.252 . S
C147 O158 1.272 . S
C147 O159 1.245 . S
C148 O136 1.259 . S
C148 O137 1.257 . S
C149 O138 1.253 . S
C149 O139 1.268 . S
C150 O140 1.281 . S
C150 O141 1.252 . S
C151 O142 1.272 . S
C151 O143 1.245 . S
O152 Co128 2.053 . S
O152 C144 1.259 . S
O153 Co130 2.047 . S
O153 C144 1.257 . S
O154 Co129 2.063 . S
O154 C145 1.268 . S
O155 Co128 2.094 . S
O155 C145 1.253 . S
O156 Co135 2.115 . S
O156 C146 1.281 . S
O157 Co135 2.315 . S
O157 C146 1.252 . S
O158 Co128 2.122 . S
O158 C147 1.272 . S
O159 Co130 2.113 . S
O159 C147 1.245 . S
Co160 H163 2.400 . S
Co160 O164 2.009 . S
Co160 O172 2.115 . S
Co160 O173 2.315 . S
Co160 O184 2.053 . S
Co160 O187 2.094 . S
Co160 O190 2.122 . S
Co161 O164 2.126 . S
Co161 H165 2.388 . S
Co161 O166 2.053 . S
Co161 O169 2.047 1_455 S
Co161 O175 2.113 1_455 S
Co161 O186 2.063 1_455 S
Co162 H163 2.388 . S
Co162 O164 2.053 . S
Co162 O166 2.126 . S
Co162 O171 2.063 . S
Co162 O185 2.047 . S
Co162 O191 2.113 . S
H163 Co160 2.400 . S
H163 Co162 2.388 . S
H163 O164 0.760 . S
O164 Co160 2.009 . S
O164 Co161 2.126 . S
O164 Co162 2.053 . S
O164 H163 0.760 . S
H165 Co161 2.388 . S
H165 O166 0.760 . S
H165 Co167 2.400 . S
O166 Co161 2.053 . S
O166 Co162 2.126 . S
O166 H165 0.760 . S
O166 Co167 2.009 . S
Co167 H165 2.400 . S
Co167 O166 2.009 . S
Co167 O168 2.053 1_455 S
Co167 O170 2.094 . S
Co167 O174 2.122 . S
Co167 O188 2.115 . S
Co167 O189 2.315 . S
O168 Co167 2.053 1_655 S
O168 C180 1.259 . S
O169 Co161 2.047 1_655 S
O169 C180 1.257 . S
O170 Co167 2.094 . S
O170 C181 1.253 . S
O171 Co162 2.063 . S
O171 C181 1.268 . S
O172 Co160 2.115 . S
O172 C182 1.281 . S
O173 Co160 2.315 . S
O173 C182 1.252 . S
O174 Co167 2.122 . S
O174 C183 1.272 1_455 S
O175 Co161 2.113 1_655 S
O175 C183 1.245 . S
C176 O184 1.259 . S
C176 O185 1.257 . S
C177 O186 1.268 1_455 S
C177 O187 1.253 . S
C178 O188 1.281 . S
C178 O189 1.252 . S
C179 O190 1.272 . S
C179 O191 1.245 . S
C180 O168 1.259 . S
C180 O169 1.257 . S
C181 O170 1.253 . S
C181 O171 1.268 . S
C182 O172 1.281 . S
C182 O173 1.252 . S
C183 O174 1.272 1_655 S
C183 O175 1.245 . S
O184 Co160 2.053 . S
O184 C176 1.259 . S
O185 Co162 2.047 . S
O185 C176 1.257 . S
O186 Co161 2.063 1_655 S
O186 C177 1.268 1_655 S
O187 Co160 2.094 . S
O187 C177 1.253 . S
O188 Co167 2.115 . S
O188 C178 1.281 . S
O189 Co167 2.315 . S
O189 C178 1.252 . S
O190 Co160 2.122 . S
O190 C179 1.272 . S
O191 Co162 2.113 . S
O191 C179 1.245 . S
Co192 H195 2.400 . S
Co192 O196 2.009 . S
Co192 O204 2.115 . S
Co192 O205 2.315 . S
Co192 O216 2.053 . S
Co192 O219 2.094 . S
Co192 O222 2.122 . S
Co193 O196 2.126 . S
Co193 H197 2.388 . S
Co193 O198 2.053 . S
Co193 O201 2.047 1_655 S
Co193 O207 2.113 1_655 S
Co193 O218 2.063 1_655 S
Co194 H195 2.388 . S
Co194 O196 2.053 . S
Co194 O198 2.126 . S
Co194 O203 2.063 . S
Co194 O217 2.047 . S
Co194 O223 2.113 . S
H195 Co192 2.400 . S
H195 Co194 2.388 . S
H195 O196 0.760 . S
O196 Co192 2.009 . S
O196 Co193 2.126 . S
O196 Co194 2.053 . S
O196 H195 0.760 . S
H197 Co193 2.388 . S
H197 O198 0.760 . S
H197 Co199 2.400 . S
O198 Co193 2.053 . S
O198 Co194 2.126 . S
O198 H197 0.760 . S
O198 Co199 2.009 . S
Co199 H197 2.400 . S
Co199 O198 2.009 . S
Co199 O200 2.053 1_655 S
Co199 O202 2.094 . S
Co199 O206 2.122 . S
Co199 O220 2.115 . S
Co199 O221 2.315 . S
O200 Co199 2.053 1_455 S
O200 C212 1.259 . S
O201 Co193 2.047 1_455 S
O201 C212 1.257 . S
O202 Co199 2.094 . S
O202 C213 1.253 . S
O203 Co194 2.063 . S
O203 C213 1.268 . S
O204 Co192 2.115 . S
O204 C214 1.281 . S
O205 Co192 2.315 . S
O205 C214 1.252 . S
O206 Co199 2.122 . S
O206 C215 1.272 1_655 S
O207 Co193 2.113 1_455 S
O207 C215 1.245 . S
C208 O216 1.259 . S
C208 O217 1.257 . S
C209 O218 1.268 1_655 S
C209 O219 1.253 . S
C210 O220 1.281 . S
C210 O221 1.252 . S
C211 O222 1.272 . S
C211 O223 1.245 . S
C212 O200 1.259 . S
C212 O201 1.257 . S
C213 O202 1.253 . S
C213 O203 1.268 . S
C214 O204 1.281 . S
C214 O205 1.252 . S
C215 O206 1.272 1_455 S
C215 O207 1.245 . S
O216 Co192 2.053 . S
O216 C208 1.259 . S
O217 Co194 2.047 . S
O217 C208 1.257 . S
O218 Co193 2.063 1_455 S
O218 C209 1.268 1_455 S
O219 Co192 2.094 . S
O219 C209 1.253 . S
O220 Co199 2.115 . S
O220 C210 1.281 . S
O221 Co199 2.315 . S
O221 C210 1.252 . S
O222 Co192 2.122 . S
O222 C211 1.272 . S
O223 Co194 2.113 . S
O223 C211 1.245 . S
Co224 H227 2.400 . S
Co224 O228 2.009 . S
Co224 O236 2.115 . S
Co224 O237 2.315 . S
Co224 O248 2.053 . S
Co224 O251 2.094 . S
Co224 O254 2.122 . S
Co225 O228 2.126 . S
Co225 H229 2.388 . S
Co225 O230 2.053 . S
Co225 O233 2.047 . S
Co225 O239 2.113 . S
Co225 O250 2.063 . S
Co226 H227 2.388 . S
Co226 O228 2.053 . S
Co226 O230 2.126 . S
Co226 O235 2.063 . S
Co226 O249 2.047 . S
Co226 O255 2.113 . S
H227 Co224 2.400 . S
H227 Co226 2.388 . S
H227 O228 0.760 . S
O228 Co224 2.009 . S
O228 Co225 2.126 . S
O228 Co226 2.053 . S
O228 H227 0.760 . S
H229 Co225 2.388 . S
H229 O230 0.760 . S
H229 Co231 2.400 . S
O230 Co225 2.053 . S
O230 Co226 2.126 . S
O230 H229 0.760 . S
O230 Co231 2.009 . S
Co231 H229 2.400 . S
Co231 O230 2.009 . S
Co231 O232 2.053 . S
Co231 O234 2.094 . S
Co231 O238 2.122 . S
Co231 O252 2.115 . S
Co231 O253 2.315 . S
O232 Co231 2.053 . S
O232 C244 1.259 . S
O233 Co225 2.047 . S
O233 C244 1.257 . S
O234 Co231 2.094 . S
O234 C245 1.253 . S
O235 Co226 2.063 . S
O235 C245 1.268 . S
O236 Co224 2.115 . S
O236 C246 1.281 . S
O237 Co224 2.315 . S
O237 C246 1.252 . S
O238 Co231 2.122 . S
O238 C247 1.272 . S
O239 Co225 2.113 . S
O239 C247 1.245 . S
C240 O248 1.259 . S
C240 O249 1.257 . S
C241 O250 1.268 . S
C241 O251 1.253 . S
C242 O252 1.281 . S
C242 O253 1.252 . S
C243 O254 1.272 . S
C243 O255 1.245 . S
C244 O232 1.259 . S
C244 O233 1.257 . S
C245 O234 1.253 . S
C245 O235 1.268 . S
C246 O236 1.281 . S
C246 O237 1.252 . S
C247 O238 1.272 . S
C247 O239 1.245 . S
O248 Co224 2.053 . S
O248 C240 1.259 . S
O249 Co226 2.047 . S
O249 C240 1.257 . S
O250 Co225 2.063 . S
O250 C241 1.268 . S
O251 Co224 2.094 . S
O251 C241 1.253 . S
O252 Co231 2.115 . S
O252 C242 1.281 . S
O253 Co231 2.315 . S
O253 C242 1.252 . S
O254 Co224 2.122 . S
O254 C243 1.272 . S
O255 Co226 2.113 . S
O255 C243 1.245 . S
Co256 H259 2.400 . S
Co256 O260 2.009 . S
Co256 O268 2.115 . S
Co256 O269 2.315 . S
Co256 O280 2.053 . S
Co256 O283 2.094 . S
Co256 O286 2.122 . S
Co257 O260 2.126 . S
Co257 H261 2.388 . S
Co257 O262 2.053 . S
Co257 O265 2.047 . S
Co257 O271 2.113 . S
Co257 O282 2.063 . S
Co258 H259 2.388 . S
Co258 O260 2.053 . S
Co258 O262 2.126 . S
Co258 O267 2.063 . S
Co258 O281 2.047 . S
Co258 O287 2.113 . S
H259 Co256 2.400 . S
H259 Co258 2.388 . S
H259 O260 0.760 . S
O260 Co256 2.009 . S
O260 Co257 2.126 . S
O260 Co258 2.053 . S
O260 H259 0.760 . S
H261 Co257 2.388 . S
H261 O262 0.760 . S
H261 Co263 2.400 . S
O262 Co257 2.053 . S
O262 Co258 2.126 . S
O262 H261 0.760 . S
O262 Co263 2.009 . S
Co263 H261 2.400 . S
Co263 O262 2.009 . S
Co263 O264 2.053 . S
Co263 O266 2.094 . S
Co263 O270 2.122 . S
Co263 O284 2.115 . S
Co263 O285 2.315 . S
O264 Co263 2.053 . S
O264 C276 1.259 . S
O265 Co257 2.047 . S
O265 C276 1.257 . S
O266 Co263 2.094 . S
O266 C277 1.253 . S
O267 Co258 2.063 . S
O267 C277 1.268 . S
O268 Co256 2.115 . S
O268 C278 1.281 . S
O269 Co256 2.315 . S
O269 C278 1.252 . S
O270 Co263 2.122 . S
O270 C279 1.272 . S
O271 Co257 2.113 . S
O271 C279 1.245 . S
C272 O280 1.259 . S
C272 O281 1.257 . S
C273 O282 1.268 . S
C273 O283 1.253 . S
C274 O284 1.281 . S
C274 O285 1.252 . S
C275 O286 1.272 . S
C275 O287 1.245 . S
C276 O264 1.259 . S
C276 O265 1.257 . S
C277 O266 1.253 . S
C277 O267 1.268 . S
C278 O268 1.281 . S
C278 O269 1.252 . S
C279 O270 1.272 . S
C279 O271 1.245 . S
O280 Co256 2.053 . S
O280 C272 1.259 . S
O281 Co258 2.047 . S
O281 C272 1.257 . S
O282 Co257 2.063 . S
O282 C273 1.268 . S
O283 Co256 2.094 . S
O283 C273 1.253 . S
O284 Co263 2.115 . S
O284 C274 1.281 . S
O285 Co263 2.315 . S
O285 C274 1.252 . S
O286 Co256 2.122 . S
O286 C275 1.272 . S
O287 Co258 2.113 . S
O287 C275 1.245 . S
Co288 H291 2.400 . S
Co288 O292 2.009 . S
Co288 O300 2.115 . S
Co288 O301 2.315 . S
Co288 O312 2.053 . S
Co288 O315 2.094 . S
Co288 O318 2.122 . S
Co289 O292 2.126 . S
Co289 H293 2.388 . S
Co289 O294 2.053 . S
Co289 O297 2.047 1_545 S
Co289 O303 2.113 1_545 S
Co289 O314 2.063 1_545 S
Co290 H291 2.388 . S
Co290 O292 2.053 . S
Co290 O294 2.126 . S
Co290 O299 2.063 . S
Co290 O313 2.047 . S
Co290 O319 2.113 . S
H291 Co288 2.400 . S
H291 Co290 2.388 . S
H291 O292 0.760 . S
O292 Co288 2.009 . S
O292 Co289 2.126 . S
O292 Co290 2.053 . S
O292 H291 0.760 . S
H293 Co289 2.388 . S
H293 O294 0.760 . S
H293 Co295 2.400 . S
O294 Co289 2.053 . S
O294 Co290 2.126 . S
O294 H293 0.760 . S
O294 Co295 2.009 . S
Co295 H293 2.400 . S
Co295 O294 2.009 . S
Co295 O296 2.053 1_545 S
Co295 O298 2.094 . S
Co295 O302 2.122 . S
Co295 O316 2.115 . S
Co295 O317 2.315 . S
O296 Co295 2.053 1_565 S
O296 C308 1.259 . S
O297 Co289 2.047 1_565 S
O297 C308 1.257 . S
O298 Co295 2.094 . S
O298 C309 1.253 . S
O299 Co290 2.063 . S
O299 C309 1.268 . S
O300 Co288 2.115 . S
O300 C310 1.281 . S
O301 Co288 2.315 . S
O301 C310 1.252 . S
O302 Co295 2.122 . S
O302 C311 1.272 1_545 S
O303 Co289 2.113 1_565 S
O303 C311 1.245 . S
C304 O312 1.259 . S
C304 O313 1.257 . S
C305 O314 1.268 1_545 S
C305 O315 1.253 . S
C306 O316 1.281 . S
C306 O317 1.252 . S
C307 O318 1.272 . S
C307 O319 1.245 . S
C308 O296 1.259 . S
C308 O297 1.257 . S
C309 O298 1.253 . S
C309 O299 1.268 . S
C310 O300 1.281 . S
C310 O301 1.252 . S
C311 O302 1.272 1_565 S
C311 O303 1.245 . S
O312 Co288 2.053 . S
O312 C304 1.259 . S
O313 Co290 2.047 . S
O313 C304 1.257 . S
O314 Co289 2.063 1_565 S
O314 C305 1.268 1_565 S
O315 Co288 2.094 . S
O315 C305 1.253 . S
O316 Co295 2.115 . S
O316 C306 1.281 . S
O317 Co295 2.315 . S
O317 C306 1.252 . S
O318 Co288 2.122 . S
O318 C307 1.272 . S
O319 Co290 2.113 . S
O319 C307 1.245 . S
Co320 H323 2.400 . S
Co320 O324 2.009 . S
Co320 O332 2.115 . S
Co320 O333 2.315 . S
Co320 O344 2.053 . S
Co320 O347 2.094 . S
Co320 O350 2.122 . S
Co321 O324 2.126 . S
Co321 H325 2.388 . S
Co321 O326 2.053 . S
Co321 O329 2.047 1_565 S
Co321 O335 2.113 1_565 S
Co321 O346 2.063 1_565 S
Co322 H323 2.388 . S
Co322 O324 2.053 . S
Co322 O326 2.126 . S
Co322 O331 2.063 . S
Co322 O345 2.047 . S
Co322 O351 2.113 . S
H323 Co320 2.400 . S
H323 Co322 2.388 . S
H323 O324 0.760 . S
O324 Co320 2.009 . S
O324 Co321 2.126 . S
O324 Co322 2.053 . S
O324 H323 0.760 . S
H325 Co321 2.388 . S
H325 O326 0.760 . S
H325 Co327 2.400 . S
O326 Co321 2.053 . S
O326 Co322 2.126 . S
O326 H325 0.760 . S
O326 Co327 2.009 . S
Co327 H325 2.400 . S
Co327 O326 2.009 . S
Co327 O328 2.053 1_565 S
Co327 O330 2.094 . S
Co327 O334 2.122 . S
Co327 O348 2.115 . S
Co327 O349 2.315 . S
O328 Co327 2.053 1_545 S
O328 C340 1.259 . S
O329 Co321 2.047 1_545 S
O329 C340 1.257 . S
O330 Co327 2.094 . S
O330 C341 1.253 . S
O331 Co322 2.063 . S
O331 C341 1.268 . S
O332 Co320 2.115 . S
O332 C342 1.281 . S
O333 Co320 2.315 . S
O333 C342 1.252 . S
O334 Co327 2.122 . S
O334 C343 1.272 1_565 S
O335 Co321 2.113 1_545 S
O335 C343 1.245 . S
C336 O344 1.259 . S
C336 O345 1.257 . S
C337 O346 1.268 1_565 S
C337 O347 1.253 . S
C338 O348 1.281 . S
C338 O349 1.252 . S
C339 O350 1.272 . S
C339 O351 1.245 . S
C340 O328 1.259 . S
C340 O329 1.257 . S
C341 O330 1.253 . S
C341 O331 1.268 . S
C342 O332 1.281 . S
C342 O333 1.252 . S
C343 O334 1.272 1_545 S
C343 O335 1.245 . S
O344 Co320 2.053 . S
O344 C336 1.259 . S
O345 Co322 2.047 . S
O345 C336 1.257 . S
O346 Co321 2.063 1_545 S
O346 C337 1.268 1_545 S
O347 Co320 2.094 . S
O347 C337 1.253 . S
O348 Co327 2.115 . S
O348 C338 1.281 . S
O349 Co327 2.315 . S
O349 C338 1.252 . S
O350 Co320 2.122 . S
O350 C339 1.272 . S
O351 Co322 2.113 . S
O351 C339 1.245 . S
Co352 H355 2.400 . S
Co352 O356 2.009 . S
Co352 O364 2.115 . S
Co352 O365 2.315 . S
Co352 O376 2.053 . S
Co352 O379 2.094 . S
Co352 O382 2.122 . S
Co353 O356 2.126 . S
Co353 H357 2.388 . S
Co353 O358 2.053 . S
Co353 O361 2.047 . S
Co353 O367 2.113 . S
Co353 O378 2.063 . S
Co354 H355 2.388 . S
Co354 O356 2.053 . S
Co354 O358 2.126 . S
Co354 O363 2.063 . S
Co354 O377 2.047 . S
Co354 O383 2.113 . S
H355 Co352 2.400 . S
H355 Co354 2.388 . S
H355 O356 0.760 . S
O356 Co352 2.009 . S
O356 Co353 2.126 . S
O356 Co354 2.053 . S
O356 H355 0.760 . S
H357 Co353 2.388 . S
H357 O358 0.760 . S
H357 Co359 2.400 . S
O358 Co353 2.053 . S
O358 Co354 2.126 . S
O358 H357 0.760 . S
O358 Co359 2.009 . S
Co359 H357 2.400 . S
Co359 O358 2.009 . S
Co359 O360 2.053 . S
Co359 O362 2.094 . S
Co359 O366 2.122 . S
Co359 O380 2.115 . S
Co359 O381 2.315 . S
O360 Co359 2.053 . S
O360 C372 1.259 . S
O361 Co353 2.047 . S
O361 C372 1.257 . S
O362 Co359 2.094 . S
O362 C373 1.253 . S
O363 Co354 2.063 . S
O363 C373 1.268 . S
O364 Co352 2.115 . S
O364 C374 1.281 . S
O365 Co352 2.315 . S
O365 C374 1.252 . S
O366 Co359 2.122 . S
O366 C375 1.272 . S
O367 Co353 2.113 . S
O367 C375 1.245 . S
C368 O376 1.259 . S
C368 O377 1.257 . S
C369 O378 1.268 . S
C369 O379 1.253 . S
C370 O380 1.281 . S
C370 O381 1.252 . S
C371 O382 1.272 . S
C371 O383 1.245 . S
C372 O360 1.259 . S
C372 O361 1.257 . S
C373 O362 1.253 . S
C373 O363 1.268 . S
C374 O364 1.281 . S
C374 O365 1.252 . S
C375 O366 1.272 . S
C375 O367 1.245 . S
O376 Co352 2.053 . S
O376 C368 1.259 . S
O377 Co354 2.047 . S
O377 C368 1.257 . S
O378 Co353 2.063 . S
O378 C369 1.268 . S
O379 Co352 2.094 . S
O379 C369 1.253 . S
O380 Co359 2.115 . S
O380 C370 1.281 . S
O381 Co359 2.315 . S
O381 C370 1.252 . S
O382 Co352 2.122 . S
O382 C371 1.272 . S
O383 Co354 2.113 . S
O383 C371 1.245 . S
Co384 H387 2.400 . S
Co384 O388 2.009 . S
Co384 O396 2.115 . S
Co384 O397 2.315 . S
Co384 O408 2.053 . S
Co384 O411 2.094 . S
Co384 O414 2.122 . S
Co385 O388 2.126 . S
Co385 H389 2.388 . S
Co385 O390 2.053 . S
Co385 O393 2.047 . S
Co385 O399 2.113 . S
Co385 O410 2.063 . S
Co386 H387 2.388 . S
Co386 O388 2.053 . S
Co386 O390 2.126 . S
Co386 O395 2.063 . S
Co386 O409 2.047 . S
Co386 O415 2.113 . S
H387 Co384 2.400 . S
H387 Co386 2.388 . S
H387 O388 0.760 . S
O388 Co384 2.009 . S
O388 Co385 2.126 . S
O388 Co386 2.053 . S
O388 H387 0.760 . S
H389 Co385 2.388 . S
H389 O390 0.760 . S
H389 Co391 2.400 . S
O390 Co385 2.053 . S
O390 Co386 2.126 . S
O390 H389 0.760 . S
O390 Co391 2.009 . S
Co391 H389 2.400 . S
Co391 O390 2.009 . S
Co391 O392 2.053 . S
Co391 O394 2.094 . S
Co391 O398 2.122 . S
Co391 O412 2.115 . S
Co391 O413 2.315 . S
O392 Co391 2.053 . S
O392 C404 1.259 . S
O393 Co385 2.047 . S
O393 C404 1.257 . S
O394 Co391 2.094 . S
O394 C405 1.253 . S
O395 Co386 2.063 . S
O395 C405 1.268 . S
O396 Co384 2.115 . S
O396 C406 1.281 . S
O397 Co384 2.315 . S
O397 C406 1.252 . S
O398 Co391 2.122 . S
O398 C407 1.272 . S
O399 Co385 2.113 . S
O399 C407 1.245 . S
C400 O408 1.259 . S
C400 O409 1.257 . S
C401 O410 1.268 . S
C401 O411 1.253 . S
C402 O412 1.281 . S
C402 O413 1.252 . S
C403 O414 1.272 . S
C403 O415 1.245 . S
C404 O392 1.259 . S
C404 O393 1.257 . S
C405 O394 1.253 . S
C405 O395 1.268 . S
C406 O396 1.281 . S
C406 O397 1.252 . S
C407 O398 1.272 . S
C407 O399 1.245 . S
O408 Co384 2.053 . S
O408 C400 1.259 . S
O409 Co386 2.047 . S
O409 C400 1.257 . S
O410 Co385 2.063 . S
O410 C401 1.268 . S
O411 Co384 2.094 . S
O411 C401 1.253 . S
O412 Co391 2.115 . S
O412 C402 1.281 . S
O413 Co391 2.315 . S
O413 C402 1.252 . S
O414 Co384 2.122 . S
O414 C403 1.272 . S
O415 Co386 2.113 . S
O415 C403 1.245 . S
Co416 H419 2.400 . S
Co416 O420 2.009 . S
Co416 O428 2.115 . S
Co416 O429 2.315 . S
Co416 O440 2.053 1_554 S
Co416 O443 2.094 . S
Co416 O446 2.122 . S
Co417 O420 2.126 . S
Co417 H421 2.388 . S
Co417 O422 2.053 . S
Co417 O425 2.047 . S
Co417 O431 2.113 . S
Co417 O442 2.063 . S
Co418 H419 2.388 . S
Co418 O420 2.053 . S
Co418 O422 2.126 . S
Co418 O427 2.063 1_554 S
Co418 O441 2.047 1_554 S
Co418 O447 2.113 1_554 S
H419 Co416 2.400 . S
H419 Co418 2.388 . S
H419 O420 0.760 . S
O420 Co416 2.009 . S
O420 Co417 2.126 . S
O420 Co418 2.053 . S
O420 H419 0.760 . S
H421 Co417 2.388 . S
H421 O422 0.760 . S
H421 Co423 2.400 . S
O422 Co417 2.053 . S
O422 Co418 2.126 . S
O422 H421 0.760 . S
O422 Co423 2.009 . S
Co423 H421 2.400 . S
Co423 O422 2.009 . S
Co423 O424 2.053 . S
Co423 O426 2.094 . S
Co423 O430 2.122 . S
Co423 O444 2.115 . S
Co423 O445 2.315 . S
O424 Co423 2.053 . S
O424 C436 1.259 . S
O425 Co417 2.047 . S
O425 C436 1.257 . S
O426 Co423 2.094 . S
O426 C437 1.253 . S
O427 Co418 2.063 1_556 S
O427 C437 1.268 1_556 S
O428 Co416 2.115 . S
O428 C438 1.281 . S
O429 Co416 2.315 . S
O429 C438 1.252 . S
O430 Co423 2.122 . S
O430 C439 1.272 . S
O431 Co417 2.113 . S
O431 C439 1.245 . S
C432 O440 1.259 . S
C432 O441 1.257 . S
C433 O442 1.268 . S
C433 O443 1.253 . S
C434 O444 1.281 . S
C434 O445 1.252 . S
C435 O446 1.272 1_556 S
C435 O447 1.245 . S
C436 O424 1.259 . S
C436 O425 1.257 . S
C437 O426 1.253 . S
C437 O427 1.268 1_554 S
C438 O428 1.281 . S
C438 O429 1.252 . S
C439 O430 1.272 . S
C439 O431 1.245 . S
O440 Co416 2.053 1_556 S
O440 C432 1.259 . S
O441 Co418 2.047 1_556 S
O441 C432 1.257 . S
O442 Co417 2.063 . S
O442 C433 1.268 . S
O443 Co416 2.094 . S
O443 C433 1.253 . S
O444 Co423 2.115 . S
O444 C434 1.281 . S
O445 Co423 2.315 . S
O445 C434 1.252 . S
O446 Co416 2.122 . S
O446 C435 1.272 1_554 S
O447 Co418 2.113 1_556 S
O447 C435 1.245 . S
Co448 H451 2.400 . S
Co448 O452 2.009 . S
Co448 O460 2.115 . S
Co448 O461 2.315 . S
Co448 O472 2.053 . S
Co448 O475 2.094 . S
Co448 O478 2.122 . S
Co449 O452 2.126 . S
Co449 H453 2.388 . S
Co449 O454 2.053 . S
Co449 O457 2.047 . S
Co449 O463 2.113 . S
Co449 O474 2.063 . S
Co450 H451 2.388 . S
Co450 O452 2.053 . S
Co450 O454 2.126 . S
Co450 O459 2.063 . S
Co450 O473 2.047 . S
Co450 O479 2.113 . S
H451 Co448 2.400 . S
H451 Co450 2.388 . S
H451 O452 0.760 . S
O452 Co448 2.009 . S
O452 Co449 2.126 . S
O452 Co450 2.053 . S
O452 H451 0.760 . S
H453 Co449 2.388 . S
H453 O454 0.760 . S
H453 Co455 2.400 . S
O454 Co449 2.053 . S
O454 Co450 2.126 . S
O454 H453 0.760 . S
O454 Co455 2.009 . S
Co455 H453 2.400 . S
Co455 O454 2.009 . S
Co455 O456 2.053 . S
Co455 O458 2.094 . S
Co455 O462 2.122 . S
Co455 O476 2.115 . S
Co455 O477 2.315 . S
O456 Co455 2.053 . S
O456 C468 1.259 . S
O457 Co449 2.047 . S
O457 C468 1.257 . S
O458 Co455 2.094 . S
O458 C469 1.253 . S
O459 Co450 2.063 . S
O459 C469 1.268 . S
O460 Co448 2.115 . S
O460 C470 1.281 . S
O461 Co448 2.315 . S
O461 C470 1.252 . S
O462 Co455 2.122 . S
O462 C471 1.272 . S
O463 Co449 2.113 . S
O463 C471 1.245 . S
C464 O472 1.259 . S
C464 O473 1.257 . S
C465 O474 1.268 . S
C465 O475 1.253 . S
C466 O476 1.281 . S
C466 O477 1.252 . S
C467 O478 1.272 . S
C467 O479 1.245 . S
C468 O456 1.259 . S
C468 O457 1.257 . S
C469 O458 1.253 . S
C469 O459 1.268 . S
C470 O460 1.281 . S
C470 O461 1.252 . S
C471 O462 1.272 . S
C471 O463 1.245 . S
O472 Co448 2.053 . S
O472 C464 1.259 . S
O473 Co450 2.047 . S
O473 C464 1.257 . S
O474 Co449 2.063 . S
O474 C465 1.268 . S
O475 Co448 2.094 . S
O475 C465 1.253 . S
O476 Co455 2.115 . S
O476 C466 1.281 . S
O477 Co455 2.315 . S
O477 C466 1.252 . S
O478 Co448 2.122 . S
O478 C467 1.272 . S
O479 Co450 2.113 . S
O479 C467 1.245 . S
Co480 H483 2.400 . S
Co480 O484 2.009 . S
Co480 O492 2.115 . S
Co480 O493 2.315 . S
Co480 O504 2.053 1_556 S
Co480 O507 2.094 . S
Co480 O510 2.122 . S
Co481 O484 2.126 . S
Co481 H485 2.388 . S
Co481 O486 2.053 . S
Co481 O489 2.047 . S
Co481 O495 2.113 . S
Co481 O506 2.063 . S
Co482 H483 2.388 . S
Co482 O484 2.053 . S
Co482 O486 2.126 . S
Co482 O491 2.063 1_556 S
Co482 O505 2.047 1_556 S
Co482 O511 2.113 1_556 S
H483 Co480 2.400 . S
H483 Co482 2.388 . S
H483 O484 0.760 . S
O484 Co480 2.009 . S
O484 Co481 2.126 . S
O484 Co482 2.053 . S
O484 H483 0.760 . S
H485 Co481 2.388 . S
H485 O486 0.760 . S
H485 Co487 2.400 . S
O486 Co481 2.053 . S
O486 Co482 2.126 . S
O486 H485 0.760 . S
O486 Co487 2.009 . S
Co487 H485 2.400 . S
Co487 O486 2.009 . S
Co487 O488 2.053 . S
Co487 O490 2.094 . S
Co487 O494 2.122 . S
Co487 O508 2.115 . S
Co487 O509 2.315 . S
O488 Co487 2.053 . S
O488 C500 1.259 . S
O489 Co481 2.047 . S
O489 C500 1.257 . S
O490 Co487 2.094 . S
O490 C501 1.253 . S
O491 Co482 2.063 1_554 S
O491 C501 1.268 1_554 S
O492 Co480 2.115 . S
O492 C502 1.281 . S
O493 Co480 2.315 . S
O493 C502 1.252 . S
O494 Co487 2.122 . S
O494 C503 1.272 . S
O495 Co481 2.113 . S
O495 C503 1.245 . S
C496 O504 1.259 . S
C496 O505 1.257 . S
C497 O506 1.268 . S
C497 O507 1.253 . S
C498 O508 1.281 . S
C498 O509 1.252 . S
C499 O510 1.272 1_554 S
C499 O511 1.245 . S
C500 O488 1.259 . S
C500 O489 1.257 . S
C501 O490 1.253 . S
C501 O491 1.268 1_556 S
C502 O492 1.281 . S
C502 O493 1.252 . S
C503 O494 1.272 . S
C503 O495 1.245 . S
O504 Co480 2.053 1_554 S
O504 C496 1.259 . S
O505 Co482 2.047 1_554 S
O505 C496 1.257 . S
O506 Co481 2.063 . S
O506 C497 1.268 . S
O507 Co480 2.094 . S
O507 C497 1.253 . S
O508 Co487 2.115 . S
O508 C498 1.281 . S
O509 Co487 2.315 . S
O509 C498 1.252 . S
O510 Co480 2.122 . S
O510 C499 1.272 1_556 S
O511 Co482 2.113 1_554 S
O511 C499 1.245 . S
Co512 H515 2.400 . S
Co512 O516 2.009 . S
Co512 O524 2.115 . S
Co512 O525 2.315 . S
Co512 O536 2.053 . S
Co512 O539 2.094 . S
Co512 O542 2.122 . S
Co513 O516 2.126 . S
Co513 H517 2.388 . S
Co513 O518 2.053 . S
Co513 O521 2.047 . S
Co513 O527 2.113 . S
Co513 O538 2.063 . S
Co514 H515 2.388 . S
Co514 O516 2.053 . S
Co514 O518 2.126 . S
Co514 O523 2.063 . S
Co514 O537 2.047 . S
Co514 O543 2.113 . S
H515 Co512 2.400 . S
H515 Co514 2.388 . S
H515 O516 0.760 . S
O516 Co512 2.009 . S
O516 Co513 2.126 . S
O516 Co514 2.053 . S
O516 H515 0.760 . S
H517 Co513 2.388 . S
H517 O518 0.760 . S
H517 Co519 2.400 . S
O518 Co513 2.053 . S
O518 Co514 2.126 . S
O518 H517 0.760 . S
O518 Co519 2.009 . S
Co519 H517 2.400 . S
Co519 O518 2.009 . S
Co519 O520 2.053 . S
Co519 O522 2.094 . S
Co519 O526 2.122 . S
Co519 O540 2.115 . S
Co519 O541 2.315 . S
O520 Co519 2.053 . S
O520 C532 1.259 . S
O521 Co513 2.047 . S
O521 C532 1.257 . S
O522 Co519 2.094 . S
O522 C533 1.253 . S
O523 Co514 2.063 . S
O523 C533 1.268 . S
O524 Co512 2.115 . S
O524 C534 1.281 . S
O525 Co512 2.315 . S
O525 C534 1.252 . S
O526 Co519 2.122 . S
O526 C535 1.272 . S
O527 Co513 2.113 . S
O527 C535 1.245 . S
C528 O536 1.259 . S
C528 O537 1.257 . S
C529 O538 1.268 . S
C529 O539 1.253 . S
C530 O540 1.281 . S
C530 O541 1.252 . S
C531 O542 1.272 . S
C531 O543 1.245 . S
C532 O520 1.259 . S
C532 O521 1.257 . S
C533 O522 1.253 . S
C533 O523 1.268 . S
C534 O524 1.281 . S
C534 O525 1.252 . S
C535 O526 1.272 . S
C535 O527 1.245 . S
O536 Co512 2.053 . S
O536 C528 1.259 . S
O537 Co514 2.047 . S
O537 C528 1.257 . S
O538 Co513 2.063 . S
O538 C529 1.268 . S
O539 Co512 2.094 . S
O539 C529 1.253 . S
O540 Co519 2.115 . S
O540 C530 1.281 . S
O541 Co519 2.315 . S
O541 C530 1.252 . S
O542 Co512 2.122 . S
O542 C531 1.272 . S
O543 Co514 2.113 . S
O543 C531 1.245 . S
Co544 H547 2.400 . S
Co544 O548 2.009 . S
Co544 O556 2.115 . S
Co544 O557 2.315 . S
Co544 O568 2.053 1_655 S
Co544 O571 2.094 . S
Co544 O574 2.122 . S
Co545 O548 2.126 . S
Co545 H549 2.388 . S
Co545 O550 2.053 . S
Co545 O553 2.047 . S
Co545 O559 2.113 . S
Co545 O570 2.063 . S
Co546 H547 2.388 . S
Co546 O548 2.053 . S
Co546 O550 2.126 . S
Co546 O555 2.063 1_655 S
Co546 O569 2.047 1_655 S
Co546 O575 2.113 1_655 S
H547 Co544 2.400 . S
H547 Co546 2.388 . S
H547 O548 0.760 . S
O548 Co544 2.009 . S
O548 Co545 2.126 . S
O548 Co546 2.053 . S
O548 H547 0.760 . S
H549 Co545 2.388 . S
H549 O550 0.760 . S
H549 Co551 2.400 . S
O550 Co545 2.053 . S
O550 Co546 2.126 . S
O550 H549 0.760 . S
O550 Co551 2.009 . S
Co551 H549 2.400 . S
Co551 O550 2.009 . S
Co551 O552 2.053 . S
Co551 O554 2.094 . S
Co551 O558 2.122 . S
Co551 O572 2.115 . S
Co551 O573 2.315 . S
O552 Co551 2.053 . S
O552 C564 1.259 . S
O553 Co545 2.047 . S
O553 C564 1.257 . S
O554 Co551 2.094 . S
O554 C565 1.253 . S
O555 Co546 2.063 1_455 S
O555 C565 1.268 1_455 S
O556 Co544 2.115 . S
O556 C566 1.281 . S
O557 Co544 2.315 . S
O557 C566 1.252 . S
O558 Co551 2.122 . S
O558 C567 1.272 . S
O559 Co545 2.113 . S
O559 C567 1.245 . S
C560 O568 1.259 . S
C560 O569 1.257 . S
C561 O570 1.268 . S
C561 O571 1.253 . S
C562 O572 1.281 . S
C562 O573 1.252 . S
C563 O574 1.272 1_455 S
C563 O575 1.245 . S
C564 O552 1.259 . S
C564 O553 1.257 . S
C565 O554 1.253 . S
C565 O555 1.268 1_655 S
C566 O556 1.281 . S
C566 O557 1.252 . S
C567 O558 1.272 . S
C567 O559 1.245 . S
O568 Co544 2.053 1_455 S
O568 C560 1.259 . S
O569 Co546 2.047 1_455 S
O569 C560 1.257 . S
O570 Co545 2.063 . S
O570 C561 1.268 . S
O571 Co544 2.094 . S
O571 C561 1.253 . S
O572 Co551 2.115 . S
O572 C562 1.281 . S
O573 Co551 2.315 . S
O573 C562 1.252 . S
O574 Co544 2.122 . S
O574 C563 1.272 1_655 S
O575 Co546 2.113 1_455 S
O575 C563 1.245 . S
Co576 H579 2.400 . S
Co576 O580 2.009 . S
Co576 O588 2.115 . S
Co576 O589 2.315 . S
Co576 O600 2.053 1_455 S
Co576 O603 2.094 . S
Co576 O606 2.122 . S
Co577 O580 2.126 . S
Co577 H581 2.388 . S
Co577 O582 2.053 . S
Co577 O585 2.047 . S
Co577 O591 2.113 . S
Co577 O602 2.063 . S
Co578 H579 2.388 . S
Co578 O580 2.053 . S
Co578 O582 2.126 . S
Co578 O587 2.063 1_455 S
Co578 O601 2.047 1_455 S
Co578 O607 2.113 1_455 S
H579 Co576 2.400 . S
H579 Co578 2.388 . S
H579 O580 0.760 . S
O580 Co576 2.009 . S
O580 Co577 2.126 . S
O580 Co578 2.053 . S
O580 H579 0.760 . S
H581 Co577 2.388 . S
H581 O582 0.760 . S
H581 Co583 2.400 . S
O582 Co577 2.053 . S
O582 Co578 2.126 . S
O582 H581 0.760 . S
O582 Co583 2.009 . S
Co583 H581 2.400 . S
Co583 O582 2.009 . S
Co583 O584 2.053 . S
Co583 O586 2.094 . S
Co583 O590 2.122 . S
Co583 O604 2.115 . S
Co583 O605 2.315 . S
O584 Co583 2.053 . S
O584 C596 1.259 . S
O585 Co577 2.047 . S
O585 C596 1.257 . S
O586 Co583 2.094 . S
O586 C597 1.253 . S
O587 Co578 2.063 1_655 S
O587 C597 1.268 1_655 S
O588 Co576 2.115 . S
O588 C598 1.281 . S
O589 Co576 2.315 . S
O589 C598 1.252 . S
O590 Co583 2.122 . S
O590 C599 1.272 . S
O591 Co577 2.113 . S
O591 C599 1.245 . S
C592 O600 1.259 . S
C592 O601 1.257 . S
C593 O602 1.268 . S
C593 O603 1.253 . S
C594 O604 1.281 . S
C594 O605 1.252 . S
C595 O606 1.272 1_655 S
C595 O607 1.245 . S
C596 O584 1.259 . S
C596 O585 1.257 . S
C597 O586 1.253 . S
C597 O587 1.268 1_455 S
C598 O588 1.281 . S
C598 O589 1.252 . S
C599 O590 1.272 . S
C599 O591 1.245 . S
O600 Co576 2.053 1_655 S
O600 C592 1.259 . S
O601 Co578 2.047 1_655 S
O601 C592 1.257 . S
O602 Co577 2.063 . S
O602 C593 1.268 . S
O603 Co576 2.094 . S
O603 C593 1.253 . S
O604 Co583 2.115 . S
O604 C594 1.281 . S
O605 Co583 2.315 . S
O605 C594 1.252 . S
O606 Co576 2.122 . S
O606 C595 1.272 1_455 S
O607 Co578 2.113 1_655 S
O607 C595 1.245 . S
Co608 H611 2.400 . S
Co608 O612 2.009 . S
Co608 O620 2.115 . S
Co608 O621 2.315 . S
Co608 O632 2.053 . S
Co608 O635 2.094 . S
Co608 O638 2.122 . S
Co609 O612 2.126 . S
Co609 H613 2.388 . S
Co609 O614 2.053 . S
Co609 O617 2.047 . S
Co609 O623 2.113 . S
Co609 O634 2.063 . S
Co610 H611 2.388 . S
Co610 O612 2.053 . S
Co610 O614 2.126 . S
Co610 O619 2.063 . S
Co610 O633 2.047 . S
Co610 O639 2.113 . S
H611 Co608 2.400 . S
H611 Co610 2.388 . S
H611 O612 0.760 . S
O612 Co608 2.009 . S
O612 Co609 2.126 . S
O612 Co610 2.053 . S
O612 H611 0.760 . S
H613 Co609 2.388 . S
H613 O614 0.760 . S
H613 Co615 2.400 . S
O614 Co609 2.053 . S
O614 Co610 2.126 . S
O614 H613 0.760 . S
O614 Co615 2.009 . S
Co615 H613 2.400 . S
Co615 O614 2.009 . S
Co615 O616 2.053 . S
Co615 O618 2.094 . S
Co615 O622 2.122 . S
Co615 O636 2.115 . S
Co615 O637 2.315 . S
O616 Co615 2.053 . S
O616 C628 1.259 . S
O617 Co609 2.047 . S
O617 C628 1.257 . S
O618 Co615 2.094 . S
O618 C629 1.253 . S
O619 Co610 2.063 . S
O619 C629 1.268 . S
O620 Co608 2.115 . S
O620 C630 1.281 . S
O621 Co608 2.315 . S
O621 C630 1.252 . S
O622 Co615 2.122 . S
O622 C631 1.272 . S
O623 Co609 2.113 . S
O623 C631 1.245 . S
C624 O632 1.259 . S
C624 O633 1.257 . S
C625 O634 1.268 . S
C625 O635 1.253 . S
C626 O636 1.281 . S
C626 O637 1.252 . S
C627 O638 1.272 . S
C627 O639 1.245 . S
C628 O616 1.259 . S
C628 O617 1.257 . S
C629 O618 1.253 . S
C629 O619 1.268 . S
C630 O620 1.281 . S
C630 O621 1.252 . S
C631 O622 1.272 . S
C631 O623 1.245 . S
O632 Co608 2.053 . S
O632 C624 1.259 . S
O633 Co610 2.047 . S
O633 C624 1.257 . S
O634 Co609 2.063 . S
O634 C625 1.268 . S
O635 Co608 2.094 . S
O635 C625 1.253 . S
O636 Co615 2.115 . S
O636 C626 1.281 . S
O637 Co615 2.315 . S
O637 C626 1.252 . S
O638 Co608 2.122 . S
O638 C627 1.272 . S
O639 Co610 2.113 . S
O639 C627 1.245 . S
Co640 H643 2.400 . S
Co640 O644 2.009 . S
Co640 O652 2.115 . S
Co640 O653 2.315 . S
Co640 O664 2.053 . S
Co640 O667 2.094 . S
Co640 O670 2.122 . S
Co641 O644 2.126 . S
Co641 H645 2.388 . S
Co641 O646 2.053 . S
Co641 O649 2.047 . S
Co641 O655 2.113 . S
Co641 O666 2.063 . S
Co642 H643 2.388 . S
Co642 O644 2.053 . S
Co642 O646 2.126 . S
Co642 O651 2.063 . S
Co642 O665 2.047 . S
Co642 O671 2.113 . S
H643 Co640 2.400 . S
H643 Co642 2.388 . S
H643 O644 0.760 . S
O644 Co640 2.009 . S
O644 Co641 2.126 . S
O644 Co642 2.053 . S
O644 H643 0.760 . S
H645 Co641 2.388 . S
H645 O646 0.760 . S
H645 Co647 2.400 . S
O646 Co641 2.053 . S
O646 Co642 2.126 . S
O646 H645 0.760 . S
O646 Co647 2.009 . S
Co647 H645 2.400 . S
Co647 O646 2.009 . S
Co647 O648 2.053 . S
Co647 O650 2.094 . S
Co647 O654 2.122 . S
Co647 O668 2.115 . S
Co647 O669 2.315 . S
O648 Co647 2.053 . S
O648 C660 1.259 . S
O649 Co641 2.047 . S
O649 C660 1.257 . S
O650 Co647 2.094 . S
O650 C661 1.253 . S
O651 Co642 2.063 . S
O651 C661 1.268 . S
O652 Co640 2.115 . S
O652 C662 1.281 . S
O653 Co640 2.315 . S
O653 C662 1.252 . S
O654 Co647 2.122 . S
O654 C663 1.272 . S
O655 Co641 2.113 . S
O655 C663 1.245 . S
C656 O664 1.259 . S
C656 O665 1.257 . S
C657 O666 1.268 . S
C657 O667 1.253 . S
C658 O668 1.281 . S
C658 O669 1.252 . S
C659 O670 1.272 . S
C659 O671 1.245 . S
C660 O648 1.259 . S
C660 O649 1.257 . S
C661 O650 1.253 . S
C661 O651 1.268 . S
C662 O652 1.281 . S
C662 O653 1.252 . S
C663 O654 1.272 . S
C663 O655 1.245 . S
O664 Co640 2.053 . S
O664 C656 1.259 . S
O665 Co642 2.047 . S
O665 C656 1.257 . S
O666 Co641 2.063 . S
O666 C657 1.268 . S
O667 Co640 2.094 . S
O667 C657 1.253 . S
O668 Co647 2.115 . S
O668 C658 1.281 . S
O669 Co647 2.315 . S
O669 C658 1.252 . S
O670 Co640 2.122 . S
O670 C659 1.272 . S
O671 Co642 2.113 . S
O671 C659 1.245 . S
Co672 H675 2.400 . S
Co672 O676 2.009 . S
Co672 O684 2.115 . S
Co672 O685 2.315 . S
Co672 O696 2.053 1_565 S
Co672 O699 2.094 . S
Co672 O702 2.122 . S
Co673 O676 2.126 . S
Co673 H677 2.388 . S
Co673 O678 2.053 . S
Co673 O681 2.047 . S
Co673 O687 2.113 . S
Co673 O698 2.063 . S
Co674 H675 2.388 . S
Co674 O676 2.053 . S
Co674 O678 2.126 . S
Co674 O683 2.063 1_565 S
Co674 O697 2.047 1_565 S
Co674 O703 2.113 1_565 S
H675 Co672 2.400 . S
H675 Co674 2.388 . S
H675 O676 0.760 . S
O676 Co672 2.009 . S
O676 Co673 2.126 . S
O676 Co674 2.053 . S
O676 H675 0.760 . S
H677 Co673 2.388 . S
H677 O678 0.760 . S
H677 Co679 2.400 . S
O678 Co673 2.053 . S
O678 Co674 2.126 . S
O678 H677 0.760 . S
O678 Co679 2.009 . S
Co679 H677 2.400 . S
Co679 O678 2.009 . S
Co679 O680 2.053 . S
Co679 O682 2.094 . S
Co679 O686 2.122 . S
Co679 O700 2.115 . S
Co679 O701 2.315 . S
O680 Co679 2.053 . S
O680 C692 1.259 . S
O681 Co673 2.047 . S
O681 C692 1.257 . S
O682 Co679 2.094 . S
O682 C693 1.253 . S
O683 Co674 2.063 1_545 S
O683 C693 1.268 1_545 S
O684 Co672 2.115 . S
O684 C694 1.281 . S
O685 Co672 2.315 . S
O685 C694 1.252 . S
O686 Co679 2.122 . S
O686 C695 1.272 . S
O687 Co673 2.113 . S
O687 C695 1.245 . S
C688 O696 1.259 . S
C688 O697 1.257 . S
C689 O698 1.268 . S
C689 O699 1.253 . S
C690 O700 1.281 . S
C690 O701 1.252 . S
C691 O702 1.272 1_545 S
C691 O703 1.245 . S
C692 O680 1.259 . S
C692 O681 1.257 . S
C693 O682 1.253 . S
C693 O683 1.268 1_565 S
C694 O684 1.281 . S
C694 O685 1.252 . S
C695 O686 1.272 . S
C695 O687 1.245 . S
O696 Co672 2.053 1_545 S
O696 C688 1.259 . S
O697 Co674 2.047 1_545 S
O697 C688 1.257 . S
O698 Co673 2.063 . S
O698 C689 1.268 . S
O699 Co672 2.094 . S
O699 C689 1.253 . S
O700 Co679 2.115 . S
O700 C690 1.281 . S
O701 Co679 2.315 . S
O701 C690 1.252 . S
O702 Co672 2.122 . S
O702 C691 1.272 1_565 S
O703 Co674 2.113 1_545 S
O703 C691 1.245 . S
Co704 H707 2.400 . S
Co704 O708 2.009 . S
Co704 O716 2.115 . S
Co704 O717 2.315 . S
Co704 O728 2.053 1_545 S
Co704 O731 2.094 . S
Co704 O734 2.122 . S
Co705 O708 2.126 . S
Co705 H709 2.388 . S
Co705 O710 2.053 . S
Co705 O713 2.047 . S
Co705 O719 2.113 . S
Co705 O730 2.063 . S
Co706 H707 2.388 . S
Co706 O708 2.053 . S
Co706 O710 2.126 . S
Co706 O715 2.063 1_545 S
Co706 O729 2.047 1_545 S
Co706 O735 2.113 1_545 S
H707 Co704 2.400 . S
H707 Co706 2.388 . S
H707 O708 0.760 . S
O708 Co704 2.009 . S
O708 Co705 2.126 . S
O708 Co706 2.053 . S
O708 H707 0.760 . S
H709 Co705 2.388 . S
H709 O710 0.760 . S
H709 Co711 2.400 . S
O710 Co705 2.053 . S
O710 Co706 2.126 . S
O710 H709 0.760 . S
O710 Co711 2.009 . S
Co711 H709 2.400 . S
Co711 O710 2.009 . S
Co711 O712 2.053 . S
Co711 O714 2.094 . S
Co711 O718 2.122 . S
Co711 O732 2.115 . S
Co711 O733 2.315 . S
O712 Co711 2.053 . S
O712 C724 1.259 . S
O713 Co705 2.047 . S
O713 C724 1.257 . S
O714 Co711 2.094 . S
O714 C725 1.253 . S
O715 Co706 2.063 1_565 S
O715 C725 1.268 1_565 S
O716 Co704 2.115 . S
O716 C726 1.281 . S
O717 Co704 2.315 . S
O717 C726 1.252 . S
O718 Co711 2.122 . S
O718 C727 1.272 . S
O719 Co705 2.113 . S
O719 C727 1.245 . S
C720 O728 1.259 . S
C720 O729 1.257 . S
C721 O730 1.268 . S
C721 O731 1.253 . S
C722 O732 1.281 . S
C722 O733 1.252 . S
C723 O734 1.272 1_565 S
C723 O735 1.245 . S
C724 O712 1.259 . S
C724 O713 1.257 . S
C725 O714 1.253 . S
C725 O715 1.268 1_545 S
C726 O716 1.281 . S
C726 O717 1.252 . S
C727 O718 1.272 . S
C727 O719 1.245 . S
O728 Co704 2.053 1_565 S
O728 C720 1.259 . S
O729 Co706 2.047 1_565 S
O729 C720 1.257 . S
O730 Co705 2.063 . S
O730 C721 1.268 . S
O731 Co704 2.094 . S
O731 C721 1.253 . S
O732 Co711 2.115 . S
O732 C722 1.281 . S
O733 Co711 2.315 . S
O733 C722 1.252 . S
O734 Co704 2.122 . S
O734 C723 1.272 1_545 S
O735 Co706 2.113 1_565 S
O735 C723 1.245 . S
Co736 H739 2.400 . S
Co736 O740 2.009 . S
Co736 O748 2.115 . S
Co736 O749 2.315 . S
Co736 O760 2.053 . S
Co736 O763 2.094 . S
Co736 O766 2.122 . S
Co737 O740 2.126 . S
Co737 H741 2.388 . S
Co737 O742 2.053 . S
Co737 O745 2.047 . S
Co737 O751 2.113 . S
Co737 O762 2.063 . S
Co738 H739 2.388 . S
Co738 O740 2.053 . S
Co738 O742 2.126 . S
Co738 O747 2.063 . S
Co738 O761 2.047 . S
Co738 O767 2.113 . S
H739 Co736 2.400 . S
H739 Co738 2.388 . S
H739 O740 0.760 . S
O740 Co736 2.009 . S
O740 Co737 2.126 . S
O740 Co738 2.053 . S
O740 H739 0.760 . S
H741 Co737 2.388 . S
H741 O742 0.760 . S
H741 Co743 2.400 . S
O742 Co737 2.053 . S
O742 Co738 2.126 . S
O742 H741 0.760 . S
O742 Co743 2.009 . S
Co743 H741 2.400 . S
Co743 O742 2.009 . S
Co743 O744 2.053 . S
Co743 O746 2.094 . S
Co743 O750 2.122 . S
Co743 O764 2.115 . S
Co743 O765 2.315 . S
O744 Co743 2.053 . S
O744 C756 1.259 . S
O745 Co737 2.047 . S
O745 C756 1.257 . S
O746 Co743 2.094 . S
O746 C757 1.253 . S
O747 Co738 2.063 . S
O747 C757 1.268 . S
O748 Co736 2.115 . S
O748 C758 1.281 . S
O749 Co736 2.315 . S
O749 C758 1.252 . S
O750 Co743 2.122 . S
O750 C759 1.272 . S
O751 Co737 2.113 . S
O751 C759 1.245 . S
C752 O760 1.259 . S
C752 O761 1.257 . S
C753 O762 1.268 . S
C753 O763 1.253 . S
C754 O764 1.281 . S
C754 O765 1.252 . S
C755 O766 1.272 . S
C755 O767 1.245 . S
C756 O744 1.259 . S
C756 O745 1.257 . S
C757 O746 1.253 . S
C757 O747 1.268 . S
C758 O748 1.281 . S
C758 O749 1.252 . S
C759 O750 1.272 . S
C759 O751 1.245 . S
O760 Co736 2.053 . S
O760 C752 1.259 . S
O761 Co738 2.047 . S
O761 C752 1.257 . S
O762 Co737 2.063 . S
O762 C753 1.268 . S
O763 Co736 2.094 . S
O763 C753 1.253 . S
O764 Co743 2.115 . S
O764 C754 1.281 . S
O765 Co743 2.315 . S
O765 C754 1.252 . S
O766 Co736 2.122 . S
O766 C755 1.272 . S
O767 Co738 2.113 . S
O767 C755 1.245 . S
C768 C769 1.369 . S
C768 C770 1.419 . S
C768 H772 0.930 . S
C769 C768 1.369 . S
C769 C778 1.429 . S
C770 C768 1.419 . S
C770 C771 1.363 . S
C770 H773 0.929 . S
C771 C770 1.363 . S
C771 C777 1.428 . S
H772 C768 0.930 . S
H773 C770 0.929 . S
S774 N775 1.613 1_655 S
S774 N776 1.610 1_655 S
N775 S774 1.613 1_455 S
N775 C778 1.350 . S
N776 S774 1.610 1_455 S
N776 C777 1.351 . S
C777 C771 1.428 . S
C777 N776 1.351 . S
C777 C778 1.434 . S
C778 C769 1.429 . S
C778 N775 1.350 . S
C778 C777 1.434 . S
C779 C780 1.369 . S
C779 C781 1.419 . S
C779 H783 0.930 . S
C780 C779 1.369 . S
C780 C789 1.429 . S
C781 C779 1.419 . S
C781 C782 1.363 . S
C781 H784 0.929 . S
C782 C781 1.363 . S
C782 C788 1.428 . S
H783 C779 0.930 . S
H784 C781 0.929 . S
S785 N786 1.613 . S
S785 N787 1.610 . S
N786 S785 1.613 . S
N786 C789 1.350 . S
N787 S785 1.610 . S
N787 C788 1.351 . S
C788 C782 1.428 . S
C788 N787 1.351 . S
C788 C789 1.434 . S
C789 C780 1.429 . S
C789 N786 1.350 . S
C789 C788 1.434 . S
C790 C791 1.369 . S
C790 C792 1.419 . S
C790 H794 0.930 . S
C791 C790 1.369 . S
C791 C800 1.429 . S
C792 C790 1.419 . S
C792 C793 1.363 . S
C792 H795 0.929 . S
C793 C792 1.363 . S
C793 C799 1.428 . S
H794 C790 0.930 . S
H795 C792 0.929 . S
S796 N797 1.613 . S
S796 N798 1.610 . S
N797 S796 1.613 . S
N797 C800 1.350 . S
N798 S796 1.610 . S
N798 C799 1.351 . S
C799 C793 1.428 . S
C799 N798 1.351 . S
C799 C800 1.434 . S
C800 C791 1.429 . S
C800 N797 1.350 . S
C800 C799 1.434 . S
C801 C802 1.369 . S
C801 C803 1.419 . S
C801 H805 0.930 . S
C802 C801 1.369 . S
C802 C811 1.429 . S
C803 C801 1.419 . S
C803 C804 1.363 . S
C803 H806 0.929 1_655 S
C804 C803 1.363 . S
C804 C810 1.428 . S
H805 C801 0.930 . S
H806 C803 0.929 1_455 S
S807 N808 1.613 . S
S807 N809 1.610 . S
N808 S807 1.613 . S
N808 C811 1.350 . S
N809 S807 1.610 . S
N809 C810 1.351 . S
C810 C804 1.428 . S
C810 N809 1.351 . S
C810 C811 1.434 . S
C811 C802 1.429 . S
C811 N808 1.350 . S
C811 C810 1.434 . S
C812 C813 1.369 . S
C812 C814 1.419 . S
C812 H816 0.930 . S
C813 C812 1.369 . S
C813 C822 1.429 . S
C814 C812 1.419 . S
C814 C815 1.363 . S
C814 H817 0.929 . S
C815 C814 1.363 . S
C815 C821 1.428 . S
H816 C812 0.930 . S
H817 C814 0.929 . S
S818 N819 1.613 . S
S818 N820 1.610 . S
N819 S818 1.613 . S
N819 C822 1.350 . S
N820 S818 1.610 . S
N820 C821 1.351 . S
C821 C815 1.428 . S
C821 N820 1.351 . S
C821 C822 1.434 . S
C822 C813 1.429 . S
C822 N819 1.350 . S
C822 C821 1.434 . S
C823 C824 1.369 . S
C823 C825 1.419 . S
C823 H827 0.930 . S
C824 C823 1.369 . S
C824 C833 1.429 . S
C825 C823 1.419 . S
C825 C826 1.363 . S
C825 H828 0.929 . S
C826 C825 1.363 . S
C826 C832 1.428 . S
H827 C823 0.930 . S
H828 C825 0.929 . S
S829 N830 1.613 . S
S829 N831 1.610 1_545 S
N830 S829 1.613 . S
N830 C833 1.350 1_545 S
N831 S829 1.610 1_565 S
N831 C832 1.351 . S
C832 C826 1.428 . S
C832 N831 1.351 . S
C832 C833 1.434 . S
C833 C824 1.429 . S
C833 N830 1.350 1_565 S
C833 C832 1.434 . S
C834 C835 1.369 . S
C834 C836 1.419 . S
C834 H838 0.930 . S
C835 C834 1.369 . S
C835 C844 1.429 . S
C836 C834 1.419 . S
C836 C837 1.363 . S
C836 H839 0.929 . S
C837 C836 1.363 . S
C837 C843 1.428 . S
H838 C834 0.930 . S
H839 C836 0.929 . S
S840 N841 1.613 . S
S840 N842 1.610 . S
N841 S840 1.613 . S
N841 C844 1.350 . S
N842 S840 1.610 . S
N842 C843 1.351 . S
C843 C837 1.428 . S
C843 N842 1.351 . S
C843 C844 1.434 . S
C844 C835 1.429 . S
C844 N841 1.350 . S
C844 C843 1.434 . S
C845 C846 1.369 . S
C845 C847 1.419 . S
C845 H849 0.930 . S
C846 C845 1.369 . S
C846 C855 1.429 . S
C847 C845 1.419 . S
C847 C848 1.363 . S
C847 H850 0.929 . S
C848 C847 1.363 . S
C848 C854 1.428 . S
H849 C845 0.930 . S
H850 C847 0.929 . S
S851 N852 1.613 . S
S851 N853 1.610 . S
N852 S851 1.613 . S
N852 C855 1.350 . S
N853 S851 1.610 . S
N853 C854 1.351 . S
C854 C848 1.428 . S
C854 N853 1.351 . S
C854 C855 1.434 . S
C855 C846 1.429 . S
C855 N852 1.350 . S
C855 C854 1.434 . S
C856 C857 1.369 . S
C856 C858 1.419 . S
C856 H860 0.930 . S
C857 C856 1.369 . S
C857 C866 1.429 . S
C858 C856 1.419 . S
C858 C859 1.363 . S
C858 H861 0.929 . S
C859 C858 1.363 . S
C859 C865 1.428 . S
H860 C856 0.930 . S
H861 C858 0.929 . S
S862 N863 1.613 . S
S862 N864 1.610 . S
N863 S862 1.613 . S
N863 C866 1.350 . S
N864 S862 1.610 . S
N864 C865 1.351 . S
C865 C859 1.428 . S
C865 N864 1.351 . S
C865 C866 1.434 . S
C866 C857 1.429 . S
C866 N863 1.350 . S
C866 C865 1.434 . S
C867 C868 1.369 . S
C867 C869 1.419 . S
C867 H871 0.930 . S
C868 C867 1.369 . S
C868 C877 1.429 . S
C869 C867 1.419 . S
C869 C870 1.363 . S
C869 H872 0.929 . S
C870 C869 1.363 . S
C870 C876 1.428 . S
H871 C867 0.930 . S
H872 C869 0.929 . S
S873 N874 1.613 . S
S873 N875 1.610 1_554 S
N874 S873 1.613 . S
N874 C877 1.350 1_554 S
N875 S873 1.610 1_556 S
N875 C876 1.351 . S
C876 C870 1.428 . S
C876 N875 1.351 . S
C876 C877 1.434 . S
C877 C868 1.429 . S
C877 N874 1.350 1_556 S
C877 C876 1.434 . S
C878 C879 1.369 . S
C878 C880 1.419 . S
C878 H882 0.930 . S
C879 C878 1.369 . S
C879 C888 1.429 . S
C880 C878 1.419 . S
C880 C881 1.363 . S
C880 H883 0.929 . S
C881 C880 1.363 . S
C881 C887 1.428 . S
H882 C878 0.930 . S
H883 C880 0.929 . S
S884 N885 1.613 . S
S884 N886 1.610 . S
N885 S884 1.613 . S
N885 C888 1.350 . S
N886 S884 1.610 . S
N886 C887 1.351 . S
C887 C881 1.428 . S
C887 N886 1.351 . S
C887 C888 1.434 . S
C888 C879 1.429 . S
C888 N885 1.350 . S
C888 C887 1.434 . S
C889 C890 1.369 . S
C889 C891 1.419 . S
C889 H893 0.930 . S
C890 C889 1.369 . S
C890 C899 1.429 . S
C891 C889 1.419 . S
C891 C892 1.363 . S
C891 H894 0.929 . S
C892 C891 1.363 . S
C892 C898 1.428 . S
H893 C889 0.930 . S
H894 C891 0.929 . S
S895 N896 1.613 . S
S895 N897 1.610 . S
N896 S895 1.613 . S
N896 C899 1.350 . S
N897 S895 1.610 . S
N897 C898 1.351 . S
C898 C892 1.428 . S
C898 N897 1.351 . S
C898 C899 1.434 . S
C899 C890 1.429 . S
C899 N896 1.350 . S
C899 C898 1.434 . S
C900 C901 1.369 . S
C900 C902 1.419 . S
C900 H904 0.930 . S
C901 C900 1.369 . S
C901 C910 1.429 . S
C902 C900 1.419 . S
C902 C903 1.363 . S
C902 H905 0.929 . S
C903 C902 1.363 . S
C903 C909 1.428 . S
H904 C900 0.930 . S
H905 C902 0.929 . S
S906 N907 1.613 . S
S906 N908 1.610 . S
N907 S906 1.613 . S
N907 C910 1.350 . S
N908 S906 1.610 . S
N908 C909 1.351 . S
C909 C903 1.428 . S
C909 N908 1.351 . S
C909 C910 1.434 . S
C910 C901 1.429 . S
C910 N907 1.350 . S
C910 C909 1.434 . S
C911 C912 1.369 . S
C911 C913 1.419 . S
C911 H915 0.930 . S
C912 C911 1.369 . S
C912 C921 1.429 . S
C913 C911 1.419 . S
C913 C914 1.363 . S
C913 H916 0.929 . S
C914 C913 1.363 . S
C914 C920 1.428 . S
H915 C911 0.930 . S
H916 C913 0.929 . S
S917 N918 1.613 . S
S917 N919 1.610 . S
N918 S917 1.613 . S
N918 C921 1.350 . S
N919 S917 1.610 . S
N919 C920 1.351 . S
C920 C914 1.428 . S
C920 N919 1.351 . S
C920 C921 1.434 . S
C921 C912 1.429 . S
C921 N918 1.350 . S
C921 C920 1.434 . S
C922 C923 1.369 . S
C922 C924 1.419 . S
C922 H926 0.930 . S
C923 C922 1.369 . S
C923 C932 1.429 . S
C924 C922 1.419 . S
C924 C925 1.363 . S
C924 H927 0.929 . S
C925 C924 1.363 . S
C925 C931 1.428 . S
H926 C922 0.930 . S
H927 C924 0.929 . S
S928 N929 1.613 . S
S928 N930 1.610 . S
N929 S928 1.613 . S
N929 C932 1.350 . S
N930 S928 1.610 . S
N930 C931 1.351 . S
C931 C925 1.428 . S
C931 N930 1.351 . S
C931 C932 1.434 . S
C932 C923 1.429 . S
C932 N929 1.350 . S
C932 C931 1.434 . S
C933 C934 1.369 . S
C933 C935 1.419 . S
C933 H937 0.930 . S
C934 C933 1.369 . S
C934 C943 1.429 . S
C935 C933 1.419 . S
C935 C936 1.363 . S
C935 H938 0.929 . S
C936 C935 1.363 . S
C936 C942 1.428 . S
H937 C933 0.930 . S
H938 C935 0.929 . S
S939 N940 1.612 1_655 S
S939 N941 1.610 1_655 S
N940 S939 1.612 1_455 S
N940 C943 1.350 . S
N941 S939 1.610 1_455 S
N941 C942 1.351 . S
C942 C936 1.428 . S
C942 N941 1.351 . S
C942 C943 1.434 . S
C943 C934 1.429 . S
C943 N940 1.350 . S
C943 C942 1.434 . S
C944 C945 1.369 . S
C944 C946 1.419 . S
C944 H948 0.930 . S
C945 C944 1.369 . S
C945 C954 1.429 . S
C946 C944 1.419 . S
C946 C947 1.363 . S
C946 H949 0.929 . S
C947 C946 1.363 . S
C947 C953 1.428 . S
H948 C944 0.930 . S
H949 C946 0.929 . S
S950 N951 1.613 . S
S950 N952 1.610 1_545 S
N951 S950 1.613 . S
N951 C954 1.350 1_545 S
N952 S950 1.610 1_565 S
N952 C953 1.351 . S
C953 C947 1.428 . S
C953 N952 1.351 . S
C953 C954 1.434 . S
C954 C945 1.429 . S
C954 N951 1.350 1_565 S
C954 C953 1.434 . S
C955 C956 1.369 . S
C955 C957 1.419 . S
C955 H959 0.930 . S
C956 C955 1.369 . S
C956 C965 1.429 . S
C957 C955 1.419 . S
C957 C958 1.363 . S
C957 H960 0.929 . S
C958 C957 1.363 . S
C958 C964 1.428 . S
H959 C955 0.930 . S
H960 C957 0.929 . S
S961 N962 1.613 . S
S961 N963 1.610 . S
N962 S961 1.613 . S
N962 C965 1.350 . S
N963 S961 1.610 . S
N963 C964 1.351 . S
C964 C958 1.428 . S
C964 N963 1.351 . S
C964 C965 1.434 . S
C965 C956 1.429 . S
C965 N962 1.350 . S
C965 C964 1.434 . S
C966 C967 1.369 . S
C966 C968 1.419 . S
C966 H970 0.930 . S
C967 C966 1.369 . S
C967 C976 1.429 . S
C968 C966 1.419 . S
C968 C969 1.363 . S
C968 H971 0.929 . S
C969 C968 1.363 . S
C969 C975 1.428 . S
H970 C966 0.930 . S
H971 C968 0.929 . S
S972 N973 1.613 . S
S972 N974 1.610 . S
N973 S972 1.613 . S
N973 C976 1.350 . S
N974 S972 1.610 . S
N974 C975 1.351 . S
C975 C969 1.428 . S
C975 N974 1.351 . S
C975 C976 1.434 . S
C976 C967 1.429 . S
C976 N973 1.350 . S
C976 C975 1.434 . S
C977 C978 1.369 . S
C977 C979 1.419 . S
C977 H981 0.930 . S
C978 C977 1.369 . S
C978 C987 1.429 . S
C979 C977 1.419 . S
C979 C980 1.363 . S
C979 H982 0.929 . S
C980 C979 1.363 . S
C980 C986 1.428 . S
H981 C977 0.930 . S
H982 C979 0.929 . S
S983 N984 1.613 . S
S983 N985 1.610 . S
N984 S983 1.613 . S
N984 C987 1.350 . S
N985 S983 1.610 . S
N985 C986 1.351 . S
C986 C980 1.428 . S
C986 N985 1.351 . S
C986 C987 1.434 . S
C987 C978 1.429 . S
C987 N984 1.350 . S
C987 C986 1.434 . S
C988 C989 1.369 . S
C988 C990 1.419 . S
C988 H992 0.930 . S
C989 C988 1.369 . S
C989 C998 1.429 . S
C990 C988 1.419 . S
C990 C991 1.363 . S
C990 H993 0.929 . S
C991 C990 1.363 . S
C991 C997 1.428 . S
H992 C988 0.930 . S
H993 C990 0.929 . S
S994 N995 1.613 1_554 S
S994 N996 1.610 . S
N995 S994 1.613 1_556 S
N995 C998 1.350 . S
N996 S994 1.610 . S
N996 C997 1.351 1_554 S
C997 C991 1.428 . S
C997 N996 1.351 1_556 S
C997 C998 1.434 . S
C998 C989 1.429 . S
C998 N995 1.350 . S
C998 C997 1.434 . S
C999 C1000 1.369 . S
C999 C1001 1.419 . S
C999 H1003 0.930 . S
C1000 C999 1.369 . S
C1000 C1009 1.429 . S
C1001 C999 1.419 . S
C1001 C1002 1.363 . S
C1001 H1004 0.929 . S
C1002 C1001 1.363 . S
C1002 C1008 1.428 . S
H1003 C999 0.930 . S
H1004 C1001 0.929 . S
S1005 N1006 1.613 . S
S1005 N1007 1.610 . S
N1006 S1005 1.613 . S
N1006 C1009 1.350 . S
N1007 S1005 1.610 . S
N1007 C1008 1.351 . S
C1008 C1002 1.428 . S
C1008 N1007 1.351 . S
C1008 C1009 1.434 . S
C1009 C1000 1.429 . S
C1009 N1006 1.350 . S
C1009 C1008 1.434 . S
C1010 C1011 1.369 . S
C1010 C1012 1.419 . S
C1010 H1014 0.930 . S
C1011 C1010 1.369 . S
C1011 C1020 1.429 . S
C1012 C1010 1.419 . S
C1012 C1013 1.363 . S
C1012 H1015 0.929 . S
C1013 C1012 1.363 . S
C1013 C1019 1.428 . S
H1014 C1010 0.930 . S
H1015 C1012 0.929 . S
S1016 N1017 1.613 . S
S1016 N1018 1.610 . S
N1017 S1016 1.613 . S
N1017 C1020 1.350 . S
N1018 S1016 1.610 . S
N1018 C1019 1.351 . S
C1019 C1013 1.428 . S
C1019 N1018 1.351 . S
C1019 C1020 1.434 . S
C1020 C1011 1.429 . S
C1020 N1017 1.350 . S
C1020 C1019 1.434 . S
C1021 C1022 1.369 . S
C1021 C1023 1.419 . S
C1021 H1025 0.930 . S
C1022 C1021 1.369 . S
C1022 C1031 1.429 . S
C1023 C1021 1.419 . S
C1023 C1024 1.363 . S
C1023 H1026 0.929 . S
C1024 C1023 1.363 . S
C1024 C1030 1.428 . S
H1025 C1021 0.930 . S
H1026 C1023 0.929 . S
S1027 N1028 1.613 . S
S1027 N1029 1.610 . S
N1028 S1027 1.613 . S
N1028 C1031 1.350 . S
N1029 S1027 1.610 . S
N1029 C1030 1.351 . S
C1030 C1024 1.428 . S
C1030 N1029 1.351 . S
C1030 C1031 1.434 . S
C1031 C1022 1.429 . S
C1031 N1028 1.350 . S
C1031 C1030 1.434 . S
C1032 C1033 1.369 . S
C1032 C1034 1.419 . S
C1032 H1036 0.930 . S
C1033 C1032 1.369 . S
C1033 C1042 1.429 . S
C1034 C1032 1.419 . S
C1034 C1035 1.363 . S
C1034 H1037 0.929 . S
C1035 C1034 1.363 . S
C1035 C1041 1.428 . S
H1036 C1032 0.930 . S
H1037 C1034 0.929 . S
S1038 N1039 1.613 . S
S1038 N1040 1.610 . S
N1039 S1038 1.613 . S
N1039 C1042 1.350 . S
N1040 S1038 1.610 . S
N1040 C1041 1.351 . S
C1041 C1035 1.428 . S
C1041 N1040 1.351 . S
C1041 C1042 1.434 . S
C1042 C1033 1.429 . S
C1042 N1039 1.350 . S
C1042 C1041 1.434 . S
C1043 C1044 1.369 . S
C1043 C1045 1.419 . S
C1043 H1047 0.930 . S
C1044 C1043 1.369 . S
C1044 C1053 1.429 . S
C1045 C1043 1.419 . S
C1045 C1046 1.363 . S
C1045 H1048 0.929 . S
C1046 C1045 1.363 . S
C1046 C1052 1.428 . S
H1047 C1043 0.930 . S
H1048 C1045 0.929 . S
S1049 N1050 1.613 . S
S1049 N1051 1.610 . S
N1050 S1049 1.613 . S
N1050 C1053 1.350 . S
N1051 S1049 1.610 . S
N1051 C1052 1.351 . S
C1052 C1046 1.428 . S
C1052 N1051 1.351 . S
C1052 C1053 1.434 . S
C1053 C1044 1.429 . S
C1053 N1050 1.350 . S
C1053 C1052 1.434 . S
C1054 C1055 1.369 . S
C1054 C1056 1.419 . S
C1054 H1058 0.930 . S
C1055 C1054 1.369 . S
C1055 C1064 1.429 . S
C1056 C1054 1.419 . S
C1056 C1057 1.363 . S
C1056 H1059 0.929 . S
C1057 C1056 1.363 . S
C1057 C1063 1.428 . S
H1058 C1054 0.930 . S
H1059 C1056 0.929 . S
S1060 N1061 1.613 . S
S1060 N1062 1.610 . S
N1061 S1060 1.613 . S
N1061 C1064 1.350 . S
N1062 S1060 1.610 . S
N1062 C1063 1.351 . S
C1063 C1057 1.428 . S
C1063 N1062 1.351 . S
C1063 C1064 1.434 . S
C1064 C1055 1.429 . S
C1064 N1061 1.350 . S
C1064 C1063 1.434 . S
C1065 C1066 1.369 . S
C1065 C1067 1.419 . S
C1065 H1069 0.930 . S
C1066 C1065 1.369 . S
C1066 C1075 1.429 . S
C1067 C1065 1.419 . S
C1067 C1068 1.363 . S
C1067 H1070 0.929 . S
C1068 C1067 1.363 . S
C1068 C1074 1.428 . S
H1069 C1065 0.930 . S
H1070 C1067 0.929 . S
S1071 N1072 1.613 . S
S1071 N1073 1.610 . S
N1072 S1071 1.613 . S
N1072 C1075 1.350 . S
N1073 S1071 1.610 . S
N1073 C1074 1.351 . S
C1074 C1068 1.428 . S
C1074 N1073 1.351 . S
C1074 C1075 1.434 . S
C1075 C1066 1.429 . S
C1075 N1072 1.350 . S
C1075 C1074 1.434 . S
C1076 C1077 1.369 . S
C1076 C1078 1.419 . S
C1076 H1080 0.930 . S
C1077 C1076 1.369 . S
C1077 C1086 1.429 . S
C1078 C1076 1.419 . S
C1078 C1079 1.363 . S
C1078 H1081 0.929 . S
C1079 C1078 1.363 . S
C1079 C1085 1.428 . S
H1080 C1076 0.930 . S
H1081 C1078 0.929 . S
S1082 N1083 1.613 . S
S1082 N1084 1.610 . S
N1083 S1082 1.613 . S
N1083 C1086 1.350 . S
N1084 S1082 1.610 . S
N1084 C1085 1.351 . S
C1085 C1079 1.428 . S
C1085 N1084 1.351 . S
C1085 C1086 1.434 . S
C1086 C1077 1.429 . S
C1086 N1083 1.350 . S
C1086 C1085 1.434 . S
C1087 C1088 1.369 . S
C1087 C1089 1.419 . S
C1087 H1091 0.930 . S
C1088 C1087 1.369 . S
C1088 C1097 1.429 . S
C1089 C1087 1.419 . S
C1089 C1090 1.363 . S
C1089 H1092 0.929 . S
C1090 C1089 1.363 . S
C1090 C1096 1.428 . S
H1091 C1087 0.930 . S
H1092 C1089 0.929 . S
S1093 N1094 1.613 . S
S1093 N1095 1.610 . S
N1094 S1093 1.613 . S
N1094 C1097 1.350 . S
N1095 S1093 1.610 . S
N1095 C1096 1.351 . S
C1096 C1090 1.428 . S
C1096 N1095 1.351 . S
C1096 C1097 1.434 . S
C1097 C1088 1.429 . S
C1097 N1094 1.350 . S
C1097 C1096 1.434 . S
C1098 C1099 1.369 . S
C1098 C1100 1.419 . S
C1098 H1102 0.930 . S
C1099 C1098 1.369 . S
C1099 C1108 1.429 . S
C1100 C1098 1.419 . S
C1100 C1101 1.363 . S
C1100 H1103 0.929 . S
C1101 C1100 1.363 . S
C1101 C1107 1.428 . S
H1102 C1098 0.930 . S
H1103 C1100 0.929 . S
S1104 N1105 1.613 . S
S1104 N1106 1.610 . S
N1105 S1104 1.613 . S
N1105 C1108 1.350 . S
N1106 S1104 1.610 . S
N1106 C1107 1.351 . S
C1107 C1101 1.428 . S
C1107 N1106 1.351 . S
C1107 C1108 1.434 . S
C1108 C1099 1.429 . S
C1108 N1105 1.350 . S
C1108 C1107 1.434 . S
C1109 C1110 1.369 . S
C1109 C1111 1.419 . S
C1109 H1113 0.930 . S
C1110 C1109 1.369 . S
C1110 C1119 1.429 . S
C1111 C1109 1.419 . S
C1111 C1112 1.363 . S
C1111 H1114 0.929 . S
C1112 C1111 1.363 . S
C1112 C1118 1.428 . S
H1113 C1109 0.930 . S
H1114 C1111 0.929 . S
S1115 N1116 1.613 . S
S1115 N1117 1.610 . S
N1116 S1115 1.613 . S
N1116 C1119 1.350 . S
N1117 S1115 1.610 . S
N1117 C1118 1.351 . S
C1118 C1112 1.428 . S
C1118 N1117 1.351 . S
C1118 C1119 1.434 . S
C1119 C1110 1.429 . S
C1119 N1116 1.350 . S
C1119 C1118 1.434 . S
C1120 C1121 1.369 . S
C1120 C1122 1.419 . S
C1120 H1124 0.930 . S
C1121 C1120 1.369 . S
C1121 C1130 1.429 . S
C1122 C1120 1.419 . S
C1122 C1123 1.363 . S
C1122 H1125 0.929 . S
C1123 C1122 1.363 . S
C1123 C1129 1.428 . S
H1124 C1120 0.930 . S
H1125 C1122 0.929 . S
S1126 N1127 1.613 . S
S1126 N1128 1.610 . S
N1127 S1126 1.613 . S
N1127 C1130 1.350 . S
N1128 S1126 1.610 . S
N1128 C1129 1.351 . S
C1129 C1123 1.428 . S
C1129 N1128 1.351 . S
C1129 C1130 1.434 . S
C1130 C1121 1.429 . S
C1130 N1127 1.350 . S
C1130 C1129 1.434 . S
C1131 C1132 1.369 . S
C1131 C1133 1.419 . S
C1131 H1135 0.930 . S
C1132 C1131 1.369 . S
C1132 C1141 1.429 . S
C1133 C1131 1.419 . S
C1133 C1134 1.363 . S
C1133 H1136 0.929 . S
C1134 C1133 1.363 . S
C1134 C1140 1.428 . S
H1135 C1131 0.930 . S
H1136 C1133 0.929 . S
S1137 N1138 1.613 . S
S1137 N1139 1.610 . S
N1138 S1137 1.613 . S
N1138 C1141 1.350 . S
N1139 S1137 1.610 . S
N1139 C1140 1.351 . S
C1140 C1134 1.428 . S
C1140 N1139 1.351 . S
C1140 C1141 1.434 . S
C1141 C1132 1.429 . S
C1141 N1138 1.350 . S
C1141 C1140 1.434 . S
C1142 C1143 1.369 . S
C1142 C1144 1.419 . S
C1142 H1146 0.930 . S
C1143 C1142 1.369 . S
C1143 C1152 1.429 . S
C1144 C1142 1.419 . S
C1144 C1145 1.363 . S
C1144 H1147 0.929 . S
C1145 C1144 1.363 . S
C1145 C1151 1.428 . S
H1146 C1142 0.930 . S
H1147 C1144 0.929 . S
S1148 N1149 1.613 . S
S1148 N1150 1.610 . S
N1149 S1148 1.613 . S
N1149 C1152 1.350 . S
N1150 S1148 1.610 . S
N1150 C1151 1.351 . S
C1151 C1145 1.428 . S
C1151 N1150 1.351 . S
C1151 C1152 1.434 . S
C1152 C1143 1.429 . S
C1152 N1149 1.350 . S
C1152 C1151 1.434 . S
C1153 C1154 1.369 . S
C1153 C1155 1.419 . S
C1153 H1157 0.930 . S
C1154 C1153 1.369 . S
C1154 C1163 1.429 . S
C1155 C1153 1.419 . S
C1155 C1156 1.363 . S
C1155 H1158 0.929 . S
C1156 C1155 1.363 . S
C1156 C1162 1.428 . S
H1157 C1153 0.930 . S
H1158 C1155 0.929 . S
S1159 N1160 1.613 . S
S1159 N1161 1.610 . S
N1160 S1159 1.613 . S
N1160 C1163 1.350 . S
N1161 S1159 1.610 . S
N1161 C1162 1.351 . S
C1162 C1156 1.428 . S
C1162 N1161 1.351 . S
C1162 C1163 1.434 . S
C1163 C1154 1.429 . S
C1163 N1160 1.350 . S
C1163 C1162 1.434 . S
C1164 C1165 1.369 . S
C1164 C1166 1.419 . S
C1164 H1168 0.930 . S
C1165 C1164 1.369 . S
C1165 C1174 1.429 . S
C1166 C1164 1.419 . S
C1166 C1167 1.363 . S
C1166 H1169 0.929 . S
C1167 C1166 1.363 . S
C1167 C1173 1.428 . S
H1168 C1164 0.930 . S
H1169 C1166 0.929 . S
S1170 N1171 1.613 . S
S1170 N1172 1.610 . S
N1171 S1170 1.613 . S
N1171 C1174 1.350 . S
N1172 S1170 1.610 . S
N1172 C1173 1.351 . S
C1173 C1167 1.428 . S
C1173 N1172 1.351 . S
C1173 C1174 1.434 . S
C1174 C1165 1.429 . S
C1174 N1171 1.350 . S
C1174 C1173 1.434 . S
C1175 C1176 1.369 . S
C1175 C1177 1.419 . S
C1175 H1179 0.930 . S
C1176 C1175 1.369 . S
C1176 C1185 1.429 . S
C1177 C1175 1.419 . S
C1177 C1178 1.363 . S
C1177 H1180 0.929 . S
C1178 C1177 1.363 . S
C1178 C1184 1.428 . S
H1179 C1175 0.930 . S
H1180 C1177 0.929 . S
S1181 N1182 1.613 . S
S1181 N1183 1.610 . S
N1182 S1181 1.613 . S
N1182 C1185 1.350 . S
N1183 S1181 1.610 . S
N1183 C1184 1.351 . S
C1184 C1178 1.428 . S
C1184 N1183 1.351 . S
C1184 C1185 1.434 . S
C1185 C1176 1.429 . S
C1185 N1182 1.350 . S
C1185 C1184 1.434 . S
C1186 C1187 1.369 . S
C1186 C1188 1.419 . S
C1186 H1190 0.930 . S
C1187 C1186 1.369 . S
C1187 C1196 1.429 . S
C1188 C1186 1.419 . S
C1188 C1189 1.363 . S
C1188 H1191 0.929 . S
C1189 C1188 1.363 . S
C1189 C1195 1.428 . S
H1190 C1186 0.930 . S
H1191 C1188 0.929 . S
S1192 N1193 1.613 . S
S1192 N1194 1.610 . S
N1193 S1192 1.613 . S
N1193 C1196 1.350 . S
N1194 S1192 1.610 . S
N1194 C1195 1.351 . S
C1195 C1189 1.428 . S
C1195 N1194 1.351 . S
C1195 C1196 1.434 . S
C1196 C1187 1.429 . S
C1196 N1193 1.350 . S
C1196 C1195 1.434 . S
C1197 C1198 1.369 . S
C1197 C1199 1.419 . S
C1197 H1201 0.930 . S
C1198 C1197 1.369 . S
C1198 C1207 1.429 . S
C1199 C1197 1.419 . S
C1199 C1200 1.363 . S
C1199 H1202 0.929 . S
C1200 C1199 1.363 . S
C1200 C1206 1.428 . S
H1201 C1197 0.930 . S
H1202 C1199 0.929 . S
S1203 N1204 1.613 . S
S1203 N1205 1.610 . S
N1204 S1203 1.613 . S
N1204 C1207 1.350 . S
N1205 S1203 1.610 . S
N1205 C1206 1.351 . S
C1206 C1200 1.428 . S
C1206 N1205 1.351 . S
C1206 C1207 1.434 . S
C1207 C1198 1.429 . S
C1207 N1204 1.350 . S
C1207 C1206 1.434 . S
C1208 C1209 1.369 . S
C1208 C1210 1.419 . S
C1208 H1212 0.930 . S
C1209 C1208 1.369 . S
C1209 C1218 1.429 . S
C1210 C1208 1.419 . S
C1210 C1211 1.363 . S
C1210 H1213 0.929 . S
C1211 C1210 1.363 . S
C1211 C1217 1.428 . S
H1212 C1208 0.930 . S
H1213 C1210 0.929 . S
S1214 N1215 1.613 . S
S1214 N1216 1.610 . S
N1215 S1214 1.613 . S
N1215 C1218 1.350 . S
N1216 S1214 1.610 . S
N1216 C1217 1.351 . S
C1217 C1211 1.428 . S
C1217 N1216 1.351 . S
C1217 C1218 1.434 . S
C1218 C1209 1.429 . S
C1218 N1215 1.350 . S
C1218 C1217 1.434 . S
C1219 C1220 1.369 . S
C1219 C1221 1.419 . S
C1219 H1223 0.930 . S
C1220 C1219 1.369 . S
C1220 C1229 1.429 . S
C1221 C1219 1.419 . S
C1221 C1222 1.363 . S
C1221 H1224 0.929 . S
C1222 C1221 1.363 . S
C1222 C1228 1.428 . S
H1223 C1219 0.930 . S
H1224 C1221 0.929 . S
S1225 N1226 1.613 . S
S1225 N1227 1.610 . S
N1226 S1225 1.613 . S
N1226 C1229 1.350 . S
N1227 S1225 1.610 . S
N1227 C1228 1.351 . S
C1228 C1222 1.428 . S
C1228 N1227 1.351 . S
C1228 C1229 1.434 . S
C1229 C1220 1.429 . S
C1229 N1226 1.350 . S
C1229 C1228 1.434 . S
C1230 C1231 1.369 . S
C1230 C1232 1.419 . S
C1230 H1234 0.930 . S
C1231 C1230 1.369 . S
C1231 C1240 1.429 . S
C1232 C1230 1.419 . S
C1232 C1233 1.363 . S
C1232 H1235 0.929 . S
C1233 C1232 1.363 . S
C1233 C1239 1.428 . S
H1234 C1230 0.930 . S
H1235 C1232 0.929 . S
S1236 N1237 1.613 . S
S1236 N1238 1.610 . S
N1237 S1236 1.613 . S
N1237 C1240 1.350 . S
N1238 S1236 1.610 . S
N1238 C1239 1.351 . S
C1239 C1233 1.428 . S
C1239 N1238 1.351 . S
C1239 C1240 1.434 . S
C1240 C1231 1.429 . S
C1240 N1237 1.350 . S
C1240 C1239 1.434 . S
C1241 C1242 1.369 . S
C1241 C1243 1.419 . S
C1241 H1245 0.930 . S
C1242 C1241 1.369 . S
C1242 C1251 1.429 . S
C1243 C1241 1.419 . S
C1243 C1244 1.363 . S
C1243 H1246 0.929 . S
C1244 C1243 1.363 . S
C1244 C1250 1.428 . S
H1245 C1241 0.930 . S
H1246 C1243 0.929 . S
S1247 N1248 1.613 . S
S1247 N1249 1.610 . S
N1248 S1247 1.613 . S
N1248 C1251 1.350 . S
N1249 S1247 1.610 . S
N1249 C1250 1.351 . S
C1250 C1244 1.428 . S
C1250 N1249 1.351 . S
C1250 C1251 1.434 . S
C1251 C1242 1.429 . S
C1251 N1248 1.350 . S
C1251 C1250 1.434 . S
C1252 C1253 1.369 . S
C1252 C1254 1.419 . S
C1252 H1256 0.930 . S
C1253 C1252 1.369 . S
C1253 C1262 1.429 . S
C1254 C1252 1.419 . S
C1254 C1255 1.363 . S
C1254 H1257 0.929 . S
C1255 C1254 1.363 . S
C1255 C1261 1.428 . S
H1256 C1252 0.930 . S
H1257 C1254 0.929 . S
S1258 N1259 1.613 . S
S1258 N1260 1.610 . S
N1259 S1258 1.613 . S
N1259 C1262 1.350 . S
N1260 S1258 1.610 . S
N1260 C1261 1.351 . S
C1261 C1255 1.428 . S
C1261 N1260 1.351 . S
C1261 C1262 1.434 . S
C1262 C1253 1.429 . S
C1262 N1259 1.350 . S
C1262 C1261 1.434 . S
C1263 C1264 1.369 . S
C1263 C1265 1.419 . S
C1263 H1267 0.930 . S
C1264 C1263 1.369 . S
C1264 C1273 1.429 . S
C1265 C1263 1.419 . S
C1265 C1266 1.363 . S
C1265 H1268 0.929 . S
C1266 C1265 1.363 . S
C1266 C1272 1.428 . S
H1267 C1263 0.930 . S
H1268 C1265 0.929 . S
S1269 N1270 1.613 . S
S1269 N1271 1.610 . S
N1270 S1269 1.613 . S
N1270 C1273 1.350 . S
N1271 S1269 1.610 . S
N1271 C1272 1.351 . S
C1272 C1266 1.428 . S
C1272 N1271 1.351 . S
C1272 C1273 1.434 . S
C1273 C1264 1.429 . S
C1273 N1270 1.350 . S
C1273 C1272 1.434 . S
C1274 C1275 1.369 . S
C1274 C1276 1.419 . S
C1274 H1278 0.930 . S
C1275 C1274 1.369 . S
C1275 C1284 1.429 . S
C1276 C1274 1.419 . S
C1276 C1277 1.363 . S
C1276 H1279 0.929 . S
C1277 C1276 1.363 . S
C1277 C1283 1.428 . S
H1278 C1274 0.930 . S
H1279 C1276 0.929 . S
S1280 N1281 1.613 . S
S1280 N1282 1.610 . S
N1281 S1280 1.613 . S
N1281 C1284 1.350 . S
N1282 S1280 1.610 . S
N1282 C1283 1.351 . S
C1283 C1277 1.428 . S
C1283 N1282 1.351 . S
C1283 C1284 1.434 . S
C1284 C1275 1.429 . S
C1284 N1281 1.350 . S
C1284 C1283 1.434 . S
C1285 C1286 1.369 . S
C1285 C1287 1.419 . S
C1285 H1289 0.930 . S
C1286 C1285 1.369 . S
C1286 C1295 1.429 . S
C1287 C1285 1.419 . S
C1287 C1288 1.363 . S
C1287 H1290 0.929 . S
C1288 C1287 1.363 . S
C1288 C1294 1.428 . S
H1289 C1285 0.930 . S
H1290 C1287 0.929 . S
S1291 N1292 1.613 . S
S1291 N1293 1.610 . S
N1292 S1291 1.613 . S
N1292 C1295 1.350 . S
N1293 S1291 1.610 . S
N1293 C1294 1.351 . S
C1294 C1288 1.428 . S
C1294 N1293 1.351 . S
C1294 C1295 1.434 . S
C1295 C1286 1.429 . S
C1295 N1292 1.350 . S
C1295 C1294 1.434 . S
C1296 C1297 1.369 . S
C1296 C1298 1.419 . S
C1296 H1300 0.930 . S
C1297 C1296 1.369 . S
C1297 C1306 1.429 . S
C1298 C1296 1.419 . S
C1298 C1299 1.363 . S
C1298 H1301 0.929 . S
C1299 C1298 1.363 . S
C1299 C1305 1.428 . S
H1300 C1296 0.930 . S
H1301 C1298 0.929 . S
S1302 N1303 1.613 . S
S1302 N1304 1.610 . S
N1303 S1302 1.613 . S
N1303 C1306 1.350 . S
N1304 S1302 1.610 . S
N1304 C1305 1.351 . S
C1305 C1299 1.428 . S
C1305 N1304 1.351 . S
C1305 C1306 1.434 . S
C1306 C1297 1.429 . S
C1306 N1303 1.350 . S
C1306 C1305 1.434 . S
C1307 C1308 1.369 . S
C1307 C1309 1.419 . S
C1307 H1311 0.930 . S
C1308 C1307 1.369 . S
C1308 C1317 1.429 . S
C1309 C1307 1.419 . S
C1309 C1310 1.363 . S
C1309 H1312 0.929 1_554 S
C1310 C1309 1.363 . S
C1310 C1316 1.428 . S
H1311 C1307 0.930 . S
H1312 C1309 0.929 1_556 S
S1313 N1314 1.613 . S
S1313 N1315 1.610 . S
N1314 S1313 1.613 . S
N1314 C1317 1.350 . S
N1315 S1313 1.610 . S
N1315 C1316 1.351 . S
C1316 C1310 1.428 . S
C1316 N1315 1.351 . S
C1316 C1317 1.434 . S
C1317 C1308 1.429 . S
C1317 N1314 1.350 . S
C1317 C1316 1.434 . S
C1318 C1319 1.369 . S
C1318 C1320 1.419 . S
C1318 H1322 0.930 . S
C1319 C1318 1.369 . S
C1319 C1328 1.429 . S
C1320 C1318 1.419 . S
C1320 C1321 1.363 . S
C1320 H1323 0.929 . S
C1321 C1320 1.363 . S
C1321 C1327 1.428 . S
H1322 C1318 0.930 . S
H1323 C1320 0.929 . S
S1324 N1325 1.613 . S
S1324 N1326 1.610 . S
N1325 S1324 1.613 . S
N1325 C1328 1.350 . S
N1326 S1324 1.610 . S
N1326 C1327 1.351 . S
C1327 C1321 1.428 . S
C1327 N1326 1.351 . S
C1327 C1328 1.434 . S
C1328 C1319 1.429 . S
C1328 N1325 1.350 . S
C1328 C1327 1.434 . S
C1329 C1330 1.369 . S
C1329 C1331 1.419 . S
C1329 H1333 0.930 . S
C1330 C1329 1.369 . S
C1330 C1339 1.429 . S
C1331 C1329 1.419 . S
C1331 C1332 1.363 . S
C1331 H1334 0.929 . S
C1332 C1331 1.363 . S
C1332 C1338 1.428 . S
H1333 C1329 0.930 . S
H1334 C1331 0.929 . S
S1335 N1336 1.613 . S
S1335 N1337 1.610 1_554 S
N1336 S1335 1.613 . S
N1336 C1339 1.350 1_554 S
N1337 S1335 1.610 1_556 S
N1337 C1338 1.351 . S
C1338 C1332 1.428 . S
C1338 N1337 1.351 . S
C1338 C1339 1.434 . S
C1339 C1330 1.429 . S
C1339 N1336 1.350 1_556 S
C1339 C1338 1.434 . S
C1340 C1341 1.369 . S
C1340 C1342 1.419 . S
C1340 H1344 0.930 . S
C1341 C1340 1.369 . S
C1341 C1350 1.429 . S
C1342 C1340 1.419 . S
C1342 C1343 1.363 . S
C1342 H1345 0.929 . S
C1343 C1342 1.363 . S
C1343 C1349 1.428 . S
H1344 C1340 0.930 . S
H1345 C1342 0.929 . S
S1346 N1347 1.613 . S
S1346 N1348 1.610 . S
N1347 S1346 1.613 . S
N1347 C1350 1.350 . S
N1348 S1346 1.610 . S
N1348 C1349 1.351 . S
C1349 C1343 1.428 . S
C1349 N1348 1.351 . S
C1349 C1350 1.434 . S
C1350 C1341 1.429 . S
C1350 N1347 1.350 . S
C1350 C1349 1.434 . S
C1351 C1352 1.369 . S
C1351 C1353 1.419 . S
C1351 H1355 0.930 . S
C1352 C1351 1.369 . S
C1352 C1361 1.429 . S
C1353 C1351 1.419 . S
C1353 C1354 1.363 . S
C1353 H1356 0.929 . S
C1354 C1353 1.363 . S
C1354 C1360 1.428 . S
H1355 C1351 0.930 . S
H1356 C1353 0.929 . S
S1357 N1358 1.613 1_455 S
S1357 N1359 1.610 . S
N1358 S1357 1.613 1_655 S
N1358 C1361 1.350 . S
N1359 S1357 1.610 . S
N1359 C1360 1.351 1_455 S
C1360 C1354 1.428 . S
C1360 N1359 1.351 1_655 S
C1360 C1361 1.434 . S
C1361 C1352 1.429 . S
C1361 N1358 1.350 . S
C1361 C1360 1.434 . S
C1362 C1363 1.369 . S
C1362 C1364 1.419 . S
C1362 H1366 0.930 . S
C1363 C1362 1.369 . S
C1363 C1372 1.429 . S
C1364 C1362 1.419 . S
C1364 C1365 1.363 . S
C1364 H1367 0.929 . S
C1365 C1364 1.363 . S
C1365 C1371 1.428 . S
H1366 C1362 0.930 . S
H1367 C1364 0.929 . S
S1368 N1369 1.613 1_655 S
S1368 N1370 1.610 . S
N1369 S1368 1.613 1_455 S
N1369 C1372 1.350 . S
N1370 S1368 1.610 . S
N1370 C1371 1.351 1_655 S
C1371 C1365 1.428 . S
C1371 N1370 1.351 1_455 S
C1371 C1372 1.434 . S
C1372 C1363 1.429 . S
C1372 N1369 1.350 . S
C1372 C1371 1.434 . S
C1373 C1374 1.369 . S
C1373 C1375 1.419 . S
C1373 H1377 0.930 . S
C1374 C1373 1.369 . S
C1374 C1383 1.429 . S
C1375 C1373 1.419 . S
C1375 C1376 1.363 . S
C1375 H1378 0.929 . S
C1376 C1375 1.363 . S
C1376 C1382 1.428 . S
H1377 C1373 0.930 . S
H1378 C1375 0.929 . S
S1379 N1380 1.613 . S
S1379 N1381 1.610 . S
N1380 S1379 1.613 . S
N1380 C1383 1.350 . S
N1381 S1379 1.610 . S
N1381 C1382 1.351 . S
C1382 C1376 1.428 . S
C1382 N1381 1.351 . S
C1382 C1383 1.434 . S
C1383 C1374 1.429 . S
C1383 N1380 1.350 . S
C1383 C1382 1.434 . S
C1384 C1385 1.369 . S
C1384 C1386 1.419 . S
C1384 H1388 0.930 . S
C1385 C1384 1.369 . S
C1385 C1394 1.429 . S
C1386 C1384 1.419 . S
C1386 C1387 1.363 . S
C1386 H1389 0.929 . S
C1387 C1386 1.363 . S
C1387 C1393 1.428 . S
H1388 C1384 0.930 . S
H1389 C1386 0.929 . S
S1390 N1391 1.613 . S
S1390 N1392 1.610 . S
N1391 S1390 1.613 . S
N1391 C1394 1.350 . S
N1392 S1390 1.610 . S
N1392 C1393 1.351 . S
C1393 C1387 1.428 . S
C1393 N1392 1.351 . S
C1393 C1394 1.434 . S
C1394 C1385 1.429 . S
C1394 N1391 1.350 . S
C1394 C1393 1.434 . S
C1395 C1396 1.369 . S
C1395 C1397 1.419 . S
C1395 H1399 0.930 . S
C1396 C1395 1.369 . S
C1396 C1405 1.429 . S
C1397 C1395 1.419 . S
C1397 C1398 1.363 . S
C1397 H1400 0.929 . S
C1398 C1397 1.363 . S
C1398 C1404 1.428 . S
H1399 C1395 0.930 . S
H1400 C1397 0.929 . S
S1401 N1402 1.613 . S
S1401 N1403 1.610 1_545 S
N1402 S1401 1.613 . S
N1402 C1405 1.350 1_545 S
N1403 S1401 1.610 1_565 S
N1403 C1404 1.351 . S
C1404 C1398 1.428 . S
C1404 N1403 1.351 . S
C1404 C1405 1.434 . S
C1405 C1396 1.429 . S
C1405 N1402 1.350 1_565 S
C1405 C1404 1.434 . S
C1406 C1407 1.369 . S
C1406 C1408 1.419 . S
C1406 H1410 0.930 . S
C1407 C1406 1.369 . S
C1407 C1416 1.429 . S
C1408 C1406 1.419 . S
C1408 C1409 1.363 . S
C1408 H1411 0.929 . S
C1409 C1408 1.363 . S
C1409 C1415 1.428 . S
H1410 C1406 0.930 . S
H1411 C1408 0.929 . S
S1412 N1413 1.613 . S
S1412 N1414 1.610 . S
N1413 S1412 1.613 . S
N1413 C1416 1.350 . S
N1414 S1412 1.610 . S
N1414 C1415 1.351 . S
C1415 C1409 1.428 . S
C1415 N1414 1.351 . S
C1415 C1416 1.434 . S
C1416 C1407 1.429 . S
C1416 N1413 1.350 . S
C1416 C1415 1.434 . S
C1417 C1418 1.369 . S
C1417 C1419 1.419 . S
C1417 H1421 0.930 . S
C1418 C1417 1.369 . S
C1418 C1427 1.429 . S
C1419 C1417 1.419 . S
C1419 C1420 1.363 . S
C1419 H1422 0.929 . S
C1420 C1419 1.363 . S
C1420 C1426 1.428 . S
H1421 C1417 0.930 . S
H1422 C1419 0.929 . S
S1423 N1424 1.613 . S
S1423 N1425 1.610 . S
N1424 S1423 1.613 . S
N1424 C1427 1.350 . S
N1425 S1423 1.610 . S
N1425 C1426 1.351 . S
C1426 C1420 1.428 . S
C1426 N1425 1.351 . S
C1426 C1427 1.434 . S
C1427 C1418 1.429 . S
C1427 N1424 1.350 . S
C1427 C1426 1.434 . S
C1428 C1429 1.369 . S
C1428 C1430 1.419 . S
C1428 H1432 0.930 . S
C1429 C1428 1.369 . S
C1429 C1438 1.429 . S
C1430 C1428 1.419 . S
C1430 C1431 1.363 . S
C1430 H1433 0.929 . S
C1431 C1430 1.363 . S
C1431 C1437 1.428 . S
H1432 C1428 0.930 . S
H1433 C1430 0.929 . S
S1434 N1435 1.613 . S
S1434 N1436 1.610 . S
N1435 S1434 1.613 . S
N1435 C1438 1.350 . S
N1436 S1434 1.610 . S
N1436 C1437 1.351 . S
C1437 C1431 1.428 . S
C1437 N1436 1.351 . S
C1437 C1438 1.434 . S
C1438 C1429 1.429 . S
C1438 N1435 1.350 . S
C1438 C1437 1.434 . S
C1439 C1440 1.369 . S
C1439 C1441 1.419 . S
C1439 H1443 0.930 . S
C1440 C1439 1.369 . S
C1440 C1449 1.429 . S
C1441 C1439 1.419 . S
C1441 C1442 1.363 . S
C1441 H1444 0.929 . S
C1442 C1441 1.363 . S
C1442 C1448 1.428 . S
H1443 C1439 0.930 . S
H1444 C1441 0.929 . S
S1445 N1446 1.613 . S
S1445 N1447 1.610 . S
N1446 S1445 1.613 . S
N1446 C1449 1.350 . S
N1447 S1445 1.610 . S
N1447 C1448 1.351 . S
C1448 C1442 1.428 . S
C1448 N1447 1.351 . S
C1448 C1449 1.434 . S
C1449 C1440 1.429 . S
C1449 N1446 1.350 . S
C1449 C1448 1.434 . S
C1450 C1451 1.369 . S
C1450 C1452 1.419 . S
C1450 H1454 0.930 . S
C1451 C1450 1.369 . S
C1451 C1460 1.429 . S
C1452 C1450 1.419 . S
C1452 C1453 1.363 . S
C1452 H1455 0.929 . S
C1453 C1452 1.363 . S
C1453 C1459 1.428 . S
H1454 C1450 0.930 . S
H1455 C1452 0.929 . S
S1456 N1457 1.613 . S
S1456 N1458 1.610 . S
N1457 S1456 1.613 . S
N1457 C1460 1.350 . S
N1458 S1456 1.610 . S
N1458 C1459 1.351 . S
C1459 C1453 1.428 . S
C1459 N1458 1.351 . S
C1459 C1460 1.434 . S
C1460 C1451 1.429 . S
C1460 N1457 1.350 . S
C1460 C1459 1.434 . S
C1461 C1462 1.369 . S
C1461 C1463 1.419 . S
C1461 H1465 0.930 . S
C1462 C1461 1.369 . S
C1462 C1471 1.429 . S
C1463 C1461 1.419 . S
C1463 C1464 1.363 . S
C1463 H1466 0.929 . S
C1464 C1463 1.363 . S
C1464 C1470 1.428 . S
H1465 C1461 0.930 . S
H1466 C1463 0.929 . S
S1467 N1468 1.613 . S
S1467 N1469 1.610 . S
N1468 S1467 1.613 . S
N1468 C1471 1.350 1_556 S
N1469 S1467 1.610 . S
N1469 C1470 1.351 1_556 S
C1470 C1464 1.428 . S
C1470 N1469 1.351 1_554 S
C1470 C1471 1.434 . S
C1471 C1462 1.429 . S
C1471 N1468 1.350 1_554 S
C1471 C1470 1.434 . S
C1472 C1473 1.369 . S
C1472 C1474 1.419 . S
C1472 H1476 0.930 . S
C1473 C1472 1.369 . S
C1473 C1482 1.429 . S
C1474 C1472 1.419 . S
C1474 C1475 1.363 . S
C1474 H1477 0.929 . S
C1475 C1474 1.363 . S
C1475 C1481 1.428 . S
H1476 C1472 0.930 . S
H1477 C1474 0.929 . S
S1478 N1479 1.613 . S
S1478 N1480 1.610 . S
N1479 S1478 1.613 . S
N1479 C1482 1.350 . S
N1480 S1478 1.610 . S
N1480 C1481 1.351 . S
C1481 C1475 1.428 . S
C1481 N1480 1.351 . S
C1481 C1482 1.434 . S
C1482 C1473 1.429 . S
C1482 N1479 1.350 . S
C1482 C1481 1.434 . S
C1483 C1484 1.369 . S
C1483 C1485 1.419 . S
C1483 H1487 0.930 1_455 S
C1484 C1483 1.369 . S
C1484 C1493 1.429 . S
C1485 C1483 1.419 . S
C1485 C1486 1.363 . S
C1485 H1488 0.929 . S
C1486 C1485 1.363 . S
C1486 C1492 1.428 . S
H1487 C1483 0.930 1_655 S
H1488 C1485 0.929 . S
S1489 N1490 1.613 . S
S1489 N1491 1.610 . S
N1490 S1489 1.613 . S
N1490 C1493 1.350 . S
N1491 S1489 1.610 . S
N1491 C1492 1.351 . S
C1492 C1486 1.428 . S
C1492 N1491 1.351 . S
C1492 C1493 1.434 . S
C1493 C1484 1.429 . S
C1493 N1490 1.350 . S
C1493 C1492 1.434 . S
C1494 C1495 1.369 . S
C1494 C1496 1.419 . S
C1494 H1498 0.930 . S
C1495 C1494 1.369 . S
C1495 C1504 1.429 . S
C1496 C1494 1.419 . S
C1496 C1497 1.363 . S
C1496 H1499 0.929 . S
C1497 C1496 1.363 . S
C1497 C1503 1.428 . S
H1498 C1494 0.930 . S
H1499 C1496 0.929 . S
S1500 N1501 1.613 . S
S1500 N1502 1.610 1_455 S
N1501 S1500 1.613 . S
N1501 C1504 1.350 1_455 S
N1502 S1500 1.610 1_655 S
N1502 C1503 1.351 . S
C1503 C1497 1.428 . S
C1503 N1502 1.351 . S
C1503 C1504 1.434 . S
C1504 C1495 1.429 . S
C1504 N1501 1.350 1_655 S
C1504 C1503 1.434 . S
C1505 C1506 1.369 . S
C1505 C1507 1.419 . S
C1505 H1509 0.930 . S
C1506 C1505 1.369 . S
C1506 C1515 1.429 . S
C1507 C1505 1.419 . S
C1507 C1508 1.363 . S
C1507 H1510 0.929 . S
C1508 C1507 1.363 . S
C1508 C1514 1.428 . S
H1509 C1505 0.930 . S
H1510 C1507 0.929 . S
S1511 N1512 1.613 . S
S1511 N1513 1.610 . S
N1512 S1511 1.613 . S
N1512 C1515 1.350 . S
N1513 S1511 1.610 . S
N1513 C1514 1.351 . S
C1514 C1508 1.428 . S
C1514 N1513 1.351 . S
C1514 C1515 1.434 . S
C1515 C1506 1.429 . S
C1515 N1512 1.350 . S
C1515 C1514 1.434 . S
C1516 C1517 1.369 . S
C1516 C1518 1.419 . S
C1516 H1520 0.930 . S
C1517 C1516 1.369 . S
C1517 C1526 1.429 . S
C1518 C1516 1.419 . S
C1518 C1519 1.363 . S
C1518 H1521 0.929 . S
C1519 C1518 1.363 . S
C1519 C1525 1.428 . S
H1520 C1516 0.930 . S
H1521 C1518 0.929 . S
S1522 N1523 1.613 . S
S1522 N1524 1.610 . S
N1523 S1522 1.613 . S
N1523 C1526 1.350 . S
N1524 S1522 1.610 . S
N1524 C1525 1.351 . S
C1525 C1519 1.428 . S
C1525 N1524 1.351 . S
C1525 C1526 1.434 . S
C1526 C1517 1.429 . S
C1526 N1523 1.350 . S
C1526 C1525 1.434 . S
C1527 C1528 1.369 . S
C1527 C1529 1.419 . S
C1527 H1531 0.930 . S
C1528 C1527 1.369 . S
C1528 C1537 1.429 . S
C1529 C1527 1.419 . S
C1529 C1530 1.363 . S
C1529 H1532 0.929 1_545 S
C1530 C1529 1.363 . S
C1530 C1536 1.428 . S
H1531 C1527 0.930 . S
H1532 C1529 0.929 1_565 S
S1533 N1534 1.613 . S
S1533 N1535 1.610 . S
N1534 S1533 1.613 . S
N1534 C1537 1.350 . S
N1535 S1533 1.610 . S
N1535 C1536 1.351 . S
C1536 C1530 1.428 . S
C1536 N1535 1.351 . S
C1536 C1537 1.434 . S
C1537 C1528 1.429 . S
C1537 N1534 1.350 . S
C1537 C1536 1.434 . S
C1538 C1539 1.369 . S
C1538 C1540 1.419 . S
C1538 H1542 0.930 . S
C1539 C1538 1.369 . S
C1539 C1548 1.429 . S
C1540 C1538 1.419 . S
C1540 C1541 1.363 . S
C1540 H1543 0.929 . S
C1541 C1540 1.363 . S
C1541 C1547 1.428 . S
H1542 C1538 0.930 . S
H1543 C1540 0.929 . S
S1544 N1545 1.613 . S
S1544 N1546 1.610 . S
N1545 S1544 1.613 . S
N1545 C1548 1.350 . S
N1546 S1544 1.610 . S
N1546 C1547 1.351 . S
C1547 C1541 1.428 . S
C1547 N1546 1.351 . S
C1547 C1548 1.434 . S
C1548 C1539 1.429 . S
C1548 N1545 1.350 . S
C1548 C1547 1.434 . S
C1549 C1550 1.369 . S
C1549 C1551 1.419 . S
C1549 H1553 0.930 . S
C1550 C1549 1.369 . S
C1550 C1559 1.429 . S
C1551 C1549 1.419 . S
C1551 C1552 1.363 . S
C1551 H1554 0.929 . S
C1552 C1551 1.363 . S
C1552 C1558 1.428 . S
H1553 C1549 0.930 . S
H1554 C1551 0.929 . S
S1555 N1556 1.613 . S
S1555 N1557 1.610 . S
N1556 S1555 1.613 . S
N1556 C1559 1.350 . S
N1557 S1555 1.610 . S
N1557 C1558 1.351 . S
C1558 C1552 1.428 . S
C1558 N1557 1.351 . S
C1558 C1559 1.434 . S
C1559 C1550 1.429 . S
C1559 N1556 1.350 . S
C1559 C1558 1.434 . S
C1560 C1561 1.369 . S
C1560 C1562 1.419 . S
C1560 H1564 0.930 . S
C1561 C1560 1.369 . S
C1561 C1570 1.429 . S
C1562 C1560 1.419 . S
C1562 C1563 1.363 . S
C1562 H1565 0.929 . S
C1563 C1562 1.363 . S
C1563 C1569 1.428 . S
H1564 C1560 0.930 . S
H1565 C1562 0.929 . S
S1566 N1567 1.613 . S
S1566 N1568 1.610 . S
N1567 S1566 1.613 . S
N1567 C1570 1.350 . S
N1568 S1566 1.610 . S
N1568 C1569 1.351 . S
C1569 C1563 1.428 . S
C1569 N1568 1.351 . S
C1569 C1570 1.434 . S
C1570 C1561 1.429 . S
C1570 N1567 1.350 . S
C1570 C1569 1.434 . S
C1571 C1572 1.369 . S
C1571 C1573 1.419 . S
C1571 H1575 0.930 . S
C1572 C1571 1.369 . S
C1572 C1581 1.429 . S
C1573 C1571 1.419 . S
C1573 C1574 1.363 . S
C1573 H1576 0.929 . S
C1574 C1573 1.363 . S
C1574 C1580 1.428 . S
H1575 C1571 0.930 . S
H1576 C1573 0.929 . S
S1577 N1578 1.613 . S
S1577 N1579 1.610 . S
N1578 S1577 1.613 . S
N1578 C1581 1.350 . S
N1579 S1577 1.610 . S
N1579 C1580 1.351 . S
C1580 C1574 1.428 . S
C1580 N1579 1.351 . S
C1580 C1581 1.434 . S
C1581 C1572 1.429 . S
C1581 N1578 1.350 . S
C1581 C1580 1.434 . S
C1582 C1583 1.369 . S
C1582 C1584 1.419 . S
C1582 H1586 0.930 . S
C1583 C1582 1.369 . S
C1583 C1592 1.429 . S
C1584 C1582 1.419 . S
C1584 C1585 1.363 . S
C1584 H1587 0.929 . S
C1585 C1584 1.363 . S
C1585 C1591 1.428 . S
H1586 C1582 0.930 . S
H1587 C1584 0.929 . S
S1588 N1589 1.613 . S
S1588 N1590 1.610 . S
N1589 S1588 1.613 . S
N1589 C1592 1.350 . S
N1590 S1588 1.610 . S
N1590 C1591 1.351 . S
C1591 C1585 1.428 . S
C1591 N1590 1.351 . S
C1591 C1592 1.434 . S
C1592 C1583 1.429 . S
C1592 N1589 1.350 . S
C1592 C1591 1.434 . S
C1593 C1594 1.369 . S
C1593 C1595 1.419 . S
C1593 H1597 0.930 . S
C1594 C1593 1.369 . S
C1594 C1603 1.429 . S
C1595 C1593 1.419 . S
C1595 C1596 1.363 . S
C1595 H1598 0.929 . S
C1596 C1595 1.363 . S
C1596 C1602 1.428 . S
H1597 C1593 0.930 . S
H1598 C1595 0.929 . S
S1599 N1600 1.613 . S
S1599 N1601 1.610 . S
N1600 S1599 1.613 . S
N1600 C1603 1.350 . S
N1601 S1599 1.610 . S
N1601 C1602 1.351 . S
C1602 C1596 1.428 . S
C1602 N1601 1.351 . S
C1602 C1603 1.434 . S
C1603 C1594 1.429 . S
C1603 N1600 1.350 . S
C1603 C1602 1.434 . S
C1604 C1605 1.369 . S
C1604 C1606 1.419 . S
C1604 H1608 0.930 . S
C1605 C1604 1.369 . S
C1605 C1614 1.429 . S
C1606 C1604 1.419 . S
C1606 C1607 1.363 . S
C1606 H1609 0.929 . S
C1607 C1606 1.363 . S
C1607 C1613 1.428 . S
H1608 C1604 0.930 . S
H1609 C1606 0.929 . S
S1610 N1611 1.613 . S
S1610 N1612 1.610 . S
N1611 S1610 1.613 . S
N1611 C1614 1.350 . S
N1612 S1610 1.610 . S
N1612 C1613 1.351 . S
C1613 C1607 1.428 . S
C1613 N1612 1.351 . S
C1613 C1614 1.434 . S
C1614 C1605 1.429 . S
C1614 N1611 1.350 . S
C1614 C1613 1.434 . S
C1615 C1616 1.369 . S
C1615 C1617 1.419 . S
C1615 H1619 0.930 . S
C1616 C1615 1.369 . S
C1616 C1625 1.429 . S
C1617 C1615 1.419 . S
C1617 C1618 1.363 . S
C1617 H1620 0.929 . S
C1618 C1617 1.363 . S
C1618 C1624 1.428 . S
H1619 C1615 0.930 . S
H1620 C1617 0.929 . S
S1621 N1622 1.613 1_455 S
S1621 N1623 1.610 . S
N1622 S1621 1.613 1_655 S
N1622 C1625 1.350 . S
N1623 S1621 1.610 . S
N1623 C1624 1.351 1_455 S
C1624 C1618 1.428 . S
C1624 N1623 1.351 1_655 S
C1624 C1625 1.434 . S
C1625 C1616 1.429 . S
C1625 N1622 1.350 . S
C1625 C1624 1.434 . S
C1626 C1627 1.369 . S
C1626 C1628 1.419 . S
C1626 H1630 0.930 . S
C1627 C1626 1.369 . S
C1627 C1636 1.429 . S
C1628 C1626 1.419 . S
C1628 C1629 1.363 . S
C1628 H1631 0.929 . S
C1629 C1628 1.363 . S
C1629 C1635 1.428 . S
H1630 C1626 0.930 . S
H1631 C1628 0.929 . S
S1632 N1633 1.613 . S
S1632 N1634 1.610 . S
N1633 S1632 1.613 . S
N1633 C1636 1.350 . S
N1634 S1632 1.610 . S
N1634 C1635 1.351 . S
C1635 C1629 1.428 . S
C1635 N1634 1.351 . S
C1635 C1636 1.434 . S
C1636 C1627 1.429 . S
C1636 N1633 1.350 . S
C1636 C1635 1.434 . S
C1637 C1638 1.369 . S
C1637 C1639 1.419 . S
C1637 H1641 0.930 . S
C1638 C1637 1.369 . S
C1638 C1647 1.429 . S
C1639 C1637 1.419 . S
C1639 C1640 1.363 . S
C1639 H1642 0.929 . S
C1640 C1639 1.363 . S
C1640 C1646 1.428 . S
H1641 C1637 0.930 . S
H1642 C1639 0.929 . S
S1643 N1644 1.613 . S
S1643 N1645 1.610 . S
N1644 S1643 1.613 . S
N1644 C1647 1.350 . S
N1645 S1643 1.610 . S
N1645 C1646 1.351 . S
C1646 C1640 1.428 . S
C1646 N1645 1.351 . S
C1646 C1647 1.434 . S
C1647 C1638 1.429 . S
C1647 N1644 1.350 . S
C1647 C1646 1.434 . S
C1648 C1649 1.369 . S
C1648 C1650 1.419 . S
C1648 H1652 0.930 . S
C1649 C1648 1.369 . S
C1649 C1658 1.429 . S
C1650 C1648 1.419 . S
C1650 C1651 1.363 . S
C1650 H1653 0.929 . S
C1651 C1650 1.363 . S
C1651 C1657 1.428 . S
H1652 C1648 0.930 . S
H1653 C1650 0.929 . S
S1654 N1655 1.613 . S
S1654 N1656 1.610 . S
N1655 S1654 1.613 . S
N1655 C1658 1.350 . S
N1656 S1654 1.610 . S
N1656 C1657 1.351 . S
C1657 C1651 1.428 . S
C1657 N1656 1.351 . S
C1657 C1658 1.434 . S
C1658 C1649 1.429 . S
C1658 N1655 1.350 . S
C1658 C1657 1.434 . S
C1659 C1660 1.369 . S
C1659 C1661 1.419 . S
C1659 H1663 0.930 . S
C1660 C1659 1.369 . S
C1660 C1669 1.429 . S
C1661 C1659 1.419 . S
C1661 C1662 1.363 . S
C1661 H1664 0.929 . S
C1662 C1661 1.363 . S
C1662 C1668 1.428 . S
H1663 C1659 0.930 . S
H1664 C1661 0.929 . S
S1665 N1666 1.613 . S
S1665 N1667 1.610 . S
N1666 S1665 1.613 . S
N1666 C1669 1.350 . S
N1667 S1665 1.610 . S
N1667 C1668 1.351 . S
C1668 C1662 1.428 . S
C1668 N1667 1.351 . S
C1668 C1669 1.434 . S
C1669 C1660 1.429 . S
C1669 N1666 1.350 . S
C1669 C1668 1.434 . S
C1670 C1671 1.369 . S
C1670 C1672 1.419 . S
C1670 H1674 0.930 1_545 S
C1671 C1670 1.369 . S
C1671 C1680 1.429 . S
C1672 C1670 1.419 . S
C1672 C1673 1.363 . S
C1672 H1675 0.929 . S
C1673 C1672 1.363 . S
C1673 C1679 1.428 . S
H1674 C1670 0.930 1_565 S
H1675 C1672 0.929 . S
S1676 N1677 1.613 . S
S1676 N1678 1.610 . S
N1677 S1676 1.613 . S
N1677 C1680 1.350 . S
N1678 S1676 1.610 . S
N1678 C1679 1.351 . S
C1679 C1673 1.428 . S
C1679 N1678 1.351 . S
C1679 C1680 1.434 . S
C1680 C1671 1.429 . S
C1680 N1677 1.350 . S
C1680 C1679 1.434 . S
C1681 C1682 1.369 . S
C1681 C1683 1.419 . S
C1681 H1685 0.930 . S
C1682 C1681 1.369 . S
C1682 C1691 1.429 . S
C1683 C1681 1.419 . S
C1683 C1684 1.363 . S
C1683 H1686 0.929 . S
C1684 C1683 1.363 . S
C1684 C1690 1.428 . S
H1685 C1681 0.930 . S
H1686 C1683 0.929 . S
S1687 N1688 1.613 . S
S1687 N1689 1.610 . S
N1688 S1687 1.613 . S
N1688 C1691 1.350 . S
N1689 S1687 1.610 . S
N1689 C1690 1.351 . S
C1690 C1684 1.428 . S
C1690 N1689 1.351 . S
C1690 C1691 1.434 . S
C1691 C1682 1.429 . S
C1691 N1688 1.350 . S
C1691 C1690 1.434 . S
C1692 C1693 1.369 . S
C1692 C1694 1.419 . S
C1692 H1696 0.930 . S
C1693 C1692 1.369 . S
C1693 C1702 1.429 . S
C1694 C1692 1.419 . S
C1694 C1695 1.363 . S
C1694 H1697 0.929 . S
C1695 C1694 1.363 . S
C1695 C1701 1.428 . S
H1696 C1692 0.930 . S
H1697 C1694 0.929 . S
S1698 N1699 1.613 . S
S1698 N1700 1.610 . S
N1699 S1698 1.613 . S
N1699 C1702 1.350 . S
N1700 S1698 1.610 . S
N1700 C1701 1.351 . S
C1701 C1695 1.428 . S
C1701 N1700 1.351 . S
C1701 C1702 1.434 . S
C1702 C1693 1.429 . S
C1702 N1699 1.350 . S
C1702 C1701 1.434 . S
C1703 C1704 1.369 . S
C1703 C1705 1.419 . S
C1703 H1707 0.930 . S
C1704 C1703 1.369 . S
C1704 C1713 1.429 . S
C1705 C1703 1.419 . S
C1705 C1706 1.363 . S
C1705 H1708 0.929 . S
C1706 C1705 1.363 . S
C1706 C1712 1.428 . S
H1707 C1703 0.930 . S
H1708 C1705 0.929 . S
S1709 N1710 1.613 . S
S1709 N1711 1.610 1_554 S
N1710 S1709 1.613 . S
N1710 C1713 1.350 1_554 S
N1711 S1709 1.610 1_556 S
N1711 C1712 1.351 . S
C1712 C1706 1.428 . S
C1712 N1711 1.351 . S
C1712 C1713 1.434 . S
C1713 C1704 1.429 . S
C1713 N1710 1.350 1_556 S
C1713 C1712 1.434 . S
C1714 C1715 1.369 . S
C1714 C1716 1.419 . S
C1714 H1718 0.930 . S
C1715 C1714 1.369 . S
C1715 C1724 1.429 . S
C1716 C1714 1.419 . S
C1716 C1717 1.363 . S
C1716 H1719 0.929 . S
C1717 C1716 1.363 . S
C1717 C1723 1.428 . S
H1718 C1714 0.930 . S
H1719 C1716 0.929 . S
S1720 N1721 1.613 . S
S1720 N1722 1.610 . S
N1721 S1720 1.613 . S
N1721 C1724 1.350 . S
N1722 S1720 1.610 . S
N1722 C1723 1.351 . S
C1723 C1717 1.428 . S
C1723 N1722 1.351 . S
C1723 C1724 1.434 . S
C1724 C1715 1.429 . S
C1724 N1721 1.350 . S
C1724 C1723 1.434 . S
C1725 C1726 1.369 . S
C1725 C1727 1.419 . S
C1725 H1729 0.930 . S
C1726 C1725 1.369 . S
C1726 C1735 1.429 . S
C1727 C1725 1.419 . S
C1727 C1728 1.363 . S
C1727 H1730 0.929 . S
C1728 C1727 1.363 . S
C1728 C1734 1.428 . S
H1729 C1725 0.930 . S
H1730 C1727 0.929 . S
S1731 N1732 1.613 . S
S1731 N1733 1.610 . S
N1732 S1731 1.613 . S
N1732 C1735 1.350 . S
N1733 S1731 1.610 . S
N1733 C1734 1.351 . S
C1734 C1728 1.428 . S
C1734 N1733 1.351 . S
C1734 C1735 1.434 . S
C1735 C1726 1.429 . S
C1735 N1732 1.350 . S
C1735 C1734 1.434 . S
C1736 C1737 1.369 . S
C1736 C1738 1.419 . S
C1736 H1740 0.930 . S
C1737 C1736 1.369 . S
C1737 C1746 1.429 . S
C1738 C1736 1.419 . S
C1738 C1739 1.363 . S
C1738 H1741 0.929 . S
C1739 C1738 1.363 . S
C1739 C1745 1.428 . S
H1740 C1736 0.930 . S
H1741 C1738 0.929 . S
S1742 N1743 1.613 . S
S1742 N1744 1.610 . S
N1743 S1742 1.613 . S
N1743 C1746 1.350 . S
N1744 S1742 1.610 . S
N1744 C1745 1.351 . S
C1745 C1739 1.428 . S
C1745 N1744 1.351 . S
C1745 C1746 1.434 . S
C1746 C1737 1.429 . S
C1746 N1743 1.350 . S
C1746 C1745 1.434 . S
C1747 C1748 1.369 . S
C1747 C1749 1.419 . S
C1747 H1751 0.930 . S
C1748 C1747 1.369 . S
C1748 C1757 1.429 . S
C1749 C1747 1.419 . S
C1749 C1750 1.363 . S
C1749 H1752 0.929 . S
C1750 C1749 1.363 . S
C1750 C1756 1.428 . S
H1751 C1747 0.930 . S
H1752 C1749 0.929 . S
S1753 N1754 1.613 . S
S1753 N1755 1.610 1_655 S
N1754 S1753 1.613 . S
N1754 C1757 1.350 1_655 S
N1755 S1753 1.610 1_455 S
N1755 C1756 1.351 . S
C1756 C1750 1.428 . S
C1756 N1755 1.351 . S
C1756 C1757 1.434 . S
C1757 C1748 1.429 . S
C1757 N1754 1.350 1_455 S
C1757 C1756 1.434 . S
C1758 C1759 1.369 . S
C1758 C1760 1.419 . S
C1758 H1762 0.930 . S
C1759 C1758 1.369 . S
C1759 C1768 1.429 . S
C1760 C1758 1.419 . S
C1760 C1761 1.363 . S
C1760 H1763 0.929 . S
C1761 C1760 1.363 . S
C1761 C1767 1.428 . S
H1762 C1758 0.930 . S
H1763 C1760 0.929 . S
S1764 N1765 1.613 . S
S1764 N1766 1.610 1_455 S
N1765 S1764 1.613 . S
N1765 C1768 1.350 1_455 S
N1766 S1764 1.610 1_655 S
N1766 C1767 1.351 . S
C1767 C1761 1.428 . S
C1767 N1766 1.351 . S
C1767 C1768 1.434 . S
C1768 C1759 1.429 . S
C1768 N1765 1.350 1_655 S
C1768 C1767 1.434 . S
C1769 C1770 1.369 . S
C1769 C1771 1.419 . S
C1769 H1773 0.930 . S
C1770 C1769 1.369 . S
C1770 C1779 1.429 . S
C1771 C1769 1.419 . S
C1771 C1772 1.363 . S
C1771 H1774 0.929 . S
C1772 C1771 1.363 . S
C1772 C1778 1.428 . S
H1773 C1769 0.930 . S
H1774 C1771 0.929 . S
S1775 N1776 1.613 . S
S1775 N1777 1.610 . S
N1776 S1775 1.613 . S
N1776 C1779 1.350 . S
N1777 S1775 1.610 . S
N1777 C1778 1.351 . S
C1778 C1772 1.428 . S
C1778 N1777 1.351 . S
C1778 C1779 1.434 . S
C1779 C1770 1.429 . S
C1779 N1776 1.350 . S
C1779 C1778 1.434 . S
C1780 C1781 1.369 . S
C1780 C1782 1.419 . S
C1780 H1784 0.930 . S
C1781 C1780 1.369 . S
C1781 C1790 1.429 . S
C1782 C1780 1.419 . S
C1782 C1783 1.363 . S
C1782 H1785 0.929 . S
C1783 C1782 1.363 . S
C1783 C1789 1.428 . S
H1784 C1780 0.930 . S
H1785 C1782 0.929 . S
S1786 N1787 1.613 . S
S1786 N1788 1.610 . S
N1787 S1786 1.613 . S
N1787 C1790 1.350 . S
N1788 S1786 1.610 . S
N1788 C1789 1.351 . S
C1789 C1783 1.428 . S
C1789 N1788 1.351 . S
C1789 C1790 1.434 . S
C1790 C1781 1.429 . S
C1790 N1787 1.350 . S
C1790 C1789 1.434 . S
C1791 C1792 1.369 . S
C1791 C1793 1.419 . S
C1791 H1795 0.930 . S
C1792 C1791 1.369 . S
C1792 C1801 1.429 . S
C1793 C1791 1.419 . S
C1793 C1794 1.363 . S
C1793 H1796 0.929 . S
C1794 C1793 1.363 . S
C1794 C1800 1.428 . S
H1795 C1791 0.930 . S
H1796 C1793 0.929 . S
S1797 N1798 1.613 . S
S1797 N1799 1.610 . S
N1798 S1797 1.613 . S
N1798 C1801 1.350 . S
N1799 S1797 1.610 . S
N1799 C1800 1.351 . S
C1800 C1794 1.428 . S
C1800 N1799 1.351 . S
C1800 C1801 1.434 . S
C1801 C1792 1.429 . S
C1801 N1798 1.350 . S
C1801 C1800 1.434 . S
C1802 C1803 1.369 . S
C1802 C1804 1.419 . S
C1802 H1806 0.930 . S
C1803 C1802 1.369 . S
C1803 C1812 1.429 . S
C1804 C1802 1.419 . S
C1804 C1805 1.363 . S
C1804 H1807 0.929 . S
C1805 C1804 1.363 . S
C1805 C1811 1.428 . S
H1806 C1802 0.930 . S
H1807 C1804 0.929 . S
S1808 N1809 1.613 . S
S1808 N1810 1.610 . S
N1809 S1808 1.613 . S
N1809 C1812 1.350 . S
N1810 S1808 1.610 . S
N1810 C1811 1.351 . S
C1811 C1805 1.428 . S
C1811 N1810 1.351 . S
C1811 C1812 1.434 . S
C1812 C1803 1.429 . S
C1812 N1809 1.350 . S
C1812 C1811 1.434 . S
C1813 C1814 1.369 . S
C1813 C1815 1.419 . S
C1813 H1817 0.930 . S
C1814 C1813 1.369 . S
C1814 C1823 1.429 . S
C1815 C1813 1.419 . S
C1815 C1816 1.363 . S
C1815 H1818 0.929 . S
C1816 C1815 1.363 . S
C1816 C1822 1.428 . S
H1817 C1813 0.930 . S
H1818 C1815 0.929 . S
S1819 N1820 1.613 . S
S1819 N1821 1.610 . S
N1820 S1819 1.613 . S
N1820 C1823 1.350 . S
N1821 S1819 1.610 . S
N1821 C1822 1.351 . S
C1822 C1816 1.428 . S
C1822 N1821 1.351 . S
C1822 C1823 1.434 . S
C1823 C1814 1.429 . S
C1823 N1820 1.350 . S
C1823 C1822 1.434 . S
C769 C598 1.230 . S
C771 C21 1.223 . S
C780 C53 1.211 . S
C782 C630 1.237 . S
C791 C534 1.226 1_545 S
C793 C85 1.223 . S
C802 C117 1.213 . S
C804 C566 1.234 1_565 S
C813 C726 1.238 . S
C815 C149 1.212 . S
C824 C694 1.232 1_556 S
C826 C181 1.222 . S
C835 C758 1.233 . S
C837 C213 1.221 . S
C846 C662 1.234 1_554 S
C848 C245 1.220 . S
C857 C277 1.213 . S
C859 C438 1.238 . S
C868 C502 1.236 1_655 S
C870 C309 1.219 . S
C879 C341 1.211 . S
C881 C470 1.238 . S
C890 C406 1.228 1_455 S
C892 C373 1.219 . S
C901 C210 1.240 . S
C903 C401 1.212 . S
C912 C242 1.239 . S
C914 C433 1.212 . S
C923 C146 1.226 1_565 S
C925 C465 1.224 . S
C934 C497 1.212 . S
C936 C178 1.238 1_545 S
C945 C338 1.229 . S
C947 C529 1.223 . S
C956 C561 1.211 . S
C958 C306 1.238 1_554 S
C967 C370 1.226 . S
C969 C593 1.224 . S
C978 C274 1.233 1_556 S
C980 C625 1.216 . S
C989 C657 1.214 . S
C991 C50 1.238 . S
C1000 C114 1.238 1_455 S
C1002 C689 1.216 . S
C1011 C721 1.226 . S
C1013 C82 1.228 . S
C1022 C753 1.215 . S
C1024 C18 1.237 1_655 S
C1033 C278 2.002 . S
C1035 C16 2.134 . S
C1044 C48 2.130 . S
C1046 C374 2.008 . S
C1055 C80 2.130 . S
C1057 C310 2.008 . S
C1066 C112 2.134 . S
C1068 C342 2.005 . S
C1077 C144 2.135 . S
C1079 C22 2.004 . S
C1088 C176 2.132 . S
C1090 C54 2.006 . S
C1099 C86 2.011 . S
C1101 C208 2.131 . S
C1110 C240 2.130 . S
C1112 C118 2.010 . S
C1121 C150 2.001 . S
C1123 C272 2.135 . S
C1132 C304 2.129 . S
C1134 C214 2.010 . S
C1143 C246 2.005 . S
C1145 C336 2.134 . S
C1154 C182 2.007 . S
C1156 C368 2.132 . S
C1165 C658 2.011 . S
C1167 C404 2.130 . S
C1176 C436 2.133 . S
C1178 C754 2.006 . S
C1187 C690 2.005 . S
C1189 C468 2.134 . S
C1198 C500 2.131 . S
C1200 C722 2.008 . S
C1209 C402 2.009 . S
C1211 C532 2.132 . S
C1220 C434 2.008 . S
C1222 C564 2.132 . S
C1231 C596 2.129 . S
C1233 C466 2.010 . S
C1242 C498 2.002 . S
C1244 C628 2.135 . S
C1253 C530 2.009 . S
C1255 C660 2.132 . S
C1264 C692 2.135 . S
C1266 C594 2.003 . S
C1275 C724 2.132 . S
C1277 C626 2.008 . S
C1286 C756 2.130 . S
C1288 C562 2.010 . S
C1297 C23 1.303 . S
C1299 C372 1.255 . S
C1308 C276 1.258 . S
C1310 C55 1.304 . S
C1319 C87 1.305 . S
C1321 C340 1.258 . S
C1330 C119 1.296 . S
C1332 C308 1.254 . S
C1341 C84 1.250 . S
C1343 C151 1.298 . S
C1352 C116 1.250 . S
C1354 C183 1.297 . S
C1363 C20 1.251 . S
C1365 C215 1.297 . S
C1374 C247 1.299 . S
C1376 C52 1.252 . S
C1385 C244 1.251 . S
C1387 C279 1.297 . S
C1396 C311 1.302 . S
C1398 C180 1.261 . S
C1407 C148 1.249 . S
C1409 C343 1.298 . S
C1418 C375 1.303 . S
C1420 C212 1.255 . S
C1429 C752 1.250 . S
C1431 C403 1.301 . S
C1440 C656 1.250 . S
C1442 C435 1.298 . S
C1451 C720 1.250 . S
C1453 C467 1.300 . S
C1462 C688 1.258 . S
C1464 C499 1.298 . S
C1473 C531 1.305 . S
C1475 C464 1.260 . S
C1484 C563 1.305 . S
C1486 C496 1.259 . S
C1495 C595 1.297 . S
C1497 C400 1.252 . S
C1506 C627 1.296 . S
C1508 C432 1.254 . S
C1517 C624 1.252 . S
C1519 C659 1.297 . S
C1528 C560 1.255 . S
C1530 C691 1.303 . S
C1539 C528 1.250 . S
C1541 C723 1.298 . S
C1550 C592 1.250 . S
C1552 C755 1.298 . S
C1561 C727 2.316 . S
C1563 C17 2.313 . S
C1572 C695 2.315 . S
C1574 C49 2.314 1_554 S
C1583 C81 2.313 . S
C1585 C759 2.316 . S
C1594 C663 2.316 . S
C1596 C113 2.313 1_556 S
C1605 C145 2.313 . S
C1607 C439 2.316 . S
C1616 C407 2.316 . S
C1618 C177 2.313 1_655 S
C1627 C209 2.314 1_455 S
C1629 C503 2.315 . S
C1638 C241 2.314 . S
C1640 C471 2.316 . S
C1649 C599 2.316 . S
C1651 C273 2.313 . S
C1660 C535 2.316 . S
C1662 C305 2.313 1_565 S
C1671 C337 2.313 1_545 S
C1673 C567 2.316 . S
C1682 C369 2.314 . S
C1684 C631 2.316 . S
C1693 C405 2.313 . S
C1695 C339 2.316 . S
C1704 C437 2.314 1_556 S
C1706 C307 2.316 . S
C1715 C371 2.316 . S
C1717 C469 2.313 . S
C1726 C275 2.316 . S
C1728 C501 2.313 1_554 S
C1737 C533 2.313 . S
C1739 C51 2.316 . S
C1748 C565 2.314 1_455 S
C1750 C19 2.316 . S
C1759 C597 2.313 1_655 S
C1761 C115 2.316 . S
C1770 C629 2.314 . S
C1772 C83 2.316 . S
C1781 C661 2.314 . S
C1783 C211 2.316 . S
C1792 C693 2.314 1_545 S
C1794 C147 2.316 . S
C1803 C725 2.313 1_565 S
C1805 C179 2.316 . S
C1814 C243 2.316 . S
C1816 C757 2.313 . S
