# Generated by pormake.
# Topology smg, (6)-cn, num edge types: 1
# Building blocks:
#     Node 0, Type 0, BuildingBlock: IZENUY_clean_sbu_0, # of connection points: 6
#     Node 1, Type 0, BuildingBlock: IZENUY_clean_sbu_0, # of connection points: 6
#     Node 2, Type 0, BuildingBlock: IZENUY_clean_sbu_0, # of connection points: 6
#     Node 3, Type 0, BuildingBlock: IZENUY_clean_sbu_0, # of connection points: 6
#     Node 4, Type 0, BuildingBlock: IZENUY_clean_sbu_0, # of connection points: 6
#     Node 5, Type 0, BuildingBlock: IZENUY_clean_sbu_0, # of connection points: 6
#     Node 6, Type 0, BuildingBlock: IZENUY_clean_sbu_0, # of connection points: 6
#     Node 7, Type 0, BuildingBlock: IZENUY_clean_sbu_0, # of connection points: 6
#     Node 8, Type 0, BuildingBlock: IZENUY_clean_sbu_0, # of connection points: 6
#     Node 9, Type 0, BuildingBlock: IZENUY_clean_sbu_0, # of connection points: 6
#     Node 10, Type 0, BuildingBlock: IZENUY_clean_sbu_0, # of connection points: 6
#     Node 11, Type 0, BuildingBlock: IZENUY_clean_sbu_0, # of connection points: 6
#     Node 12, Type 0, BuildingBlock: IZENUY_clean_sbu_0, # of connection points: 6
#     Node 13, Type 0, BuildingBlock: IZENUY_clean_sbu_0, # of connection points: 6
#     Node 14, Type 0, BuildingBlock: IZENUY_clean_sbu_0, # of connection points: 6
#     Node 15, Type 0, BuildingBlock: IZENUY_clean_sbu_0, # of connection points: 6
#     Node 16, Type 0, BuildingBlock: IZENUY_clean_sbu_0, # of connection points: 6
#     Node 17, Type 0, BuildingBlock: IZENUY_clean_sbu_0, # of connection points: 6
#     Edge 18, Type (0, 0), BuildingBlock: OJICUG_clean_linker_0, # of connection points: 2
#     Edge 19, Type (0, 0), BuildingBlock: OJICUG_clean_linker_0, # of connection points: 2
#     Edge 20, Type (0, 0), BuildingBlock: OJICUG_clean_linker_0, # of connection points: 2
#     Edge 21, Type (0, 0), BuildingBlock: OJICUG_clean_linker_0, # of connection points: 2
#     Edge 22, Type (0, 0), BuildingBlock: OJICUG_clean_linker_0, # of connection points: 2
#     Edge 23, Type (0, 0), BuildingBlock: OJICUG_clean_linker_0, # of connection points: 2
#     Edge 24, Type (0, 0), BuildingBlock: OJICUG_clean_linker_0, # of connection points: 2
#     Edge 25, Type (0, 0), BuildingBlock: OJICUG_clean_linker_0, # of connection points: 2
#     Edge 26, Type (0, 0), BuildingBlock: OJICUG_clean_linker_0, # of connection points: 2
#     Edge 27, Type (0, 0), BuildingBlock: OJICUG_clean_linker_0, # of connection points: 2
#     Edge 28, Type (0, 0), BuildingBlock: OJICUG_clean_linker_0, # of connection points: 2
#     Edge 29, Type (0, 0), BuildingBlock: OJICUG_clean_linker_0, # of connection points: 2
#     Edge 30, Type (0, 0), BuildingBlock: OJICUG_clean_linker_0, # of connection points: 2
#     Edge 31, Type (0, 0), BuildingBlock: OJICUG_clean_linker_0, # of connection points: 2
#     Edge 32, Type (0, 0), BuildingBlock: OJICUG_clean_linker_0, # of connection points: 2
#     Edge 33, Type (0, 0), BuildingBlock: OJICUG_clean_linker_0, # of connection points: 2
#     Edge 34, Type (0, 0), BuildingBlock: OJICUG_clean_linker_0, # of connection points: 2
#     Edge 35, Type (0, 0), BuildingBlock: OJICUG_clean_linker_0, # of connection points: 2
#     Edge 36, Type (0, 0), BuildingBlock: OJICUG_clean_linker_0, # of connection points: 2
#     Edge 37, Type (0, 0), BuildingBlock: OJICUG_clean_linker_0, # of connection points: 2
#     Edge 38, Type (0, 0), BuildingBlock: OJICUG_clean_linker_0, # of connection points: 2
#     Edge 39, Type (0, 0), BuildingBlock: OJICUG_clean_linker_0, # of connection points: 2
#     Edge 40, Type (0, 0), BuildingBlock: OJICUG_clean_linker_0, # of connection points: 2
#     Edge 41, Type (0, 0), BuildingBlock: OJICUG_clean_linker_0, # of connection points: 2
#     Edge 42, Type (0, 0), BuildingBlock: OJICUG_clean_linker_0, # of connection points: 2
#     Edge 43, Type (0, 0), BuildingBlock: OJICUG_clean_linker_0, # of connection points: 2
#     Edge 44, Type (0, 0), BuildingBlock: OJICUG_clean_linker_0, # of connection points: 2
#     Edge 45, Type (0, 0), BuildingBlock: OJICUG_clean_linker_0, # of connection points: 2
#     Edge 46, Type (0, 0), BuildingBlock: OJICUG_clean_linker_0, # of connection points: 2
#     Edge 47, Type (0, 0), BuildingBlock: OJICUG_clean_linker_0, # of connection points: 2
#     Edge 48, Type (0, 0), BuildingBlock: OJICUG_clean_linker_0, # of connection points: 2
#     Edge 49, Type (0, 0), BuildingBlock: OJICUG_clean_linker_0, # of connection points: 2
#     Edge 50, Type (0, 0), BuildingBlock: OJICUG_clean_linker_0, # of connection points: 2
#     Edge 51, Type (0, 0), BuildingBlock: OJICUG_clean_linker_0, # of connection points: 2
#     Edge 52, Type (0, 0), BuildingBlock: OJICUG_clean_linker_0, # of connection points: 2
#     Edge 53, Type (0, 0), BuildingBlock: OJICUG_clean_linker_0, # of connection points: 2
#     Edge 54, Type (0, 0), BuildingBlock: OJICUG_clean_linker_0, # of connection points: 2
#     Edge 55, Type (0, 0), BuildingBlock: OJICUG_clean_linker_0, # of connection points: 2
#     Edge 56, Type (0, 0), BuildingBlock: OJICUG_clean_linker_0, # of connection points: 2
#     Edge 57, Type (0, 0), BuildingBlock: OJICUG_clean_linker_0, # of connection points: 2
#     Edge 58, Type (0, 0), BuildingBlock: OJICUG_clean_linker_0, # of connection points: 2
#     Edge 59, Type (0, 0), BuildingBlock: OJICUG_clean_linker_0, # of connection points: 2
#     Edge 60, Type (0, 0), BuildingBlock: OJICUG_clean_linker_0, # of connection points: 2
#     Edge 61, Type (0, 0), BuildingBlock: OJICUG_clean_linker_0, # of connection points: 2
#     Edge 62, Type (0, 0), BuildingBlock: OJICUG_clean_linker_0, # of connection points: 2
#     Edge 63, Type (0, 0), BuildingBlock: OJICUG_clean_linker_0, # of connection points: 2
#     Edge 64, Type (0, 0), BuildingBlock: OJICUG_clean_linker_0, # of connection points: 2
#     Edge 65, Type (0, 0), BuildingBlock: OJICUG_clean_linker_0, # of connection points: 2
#     Edge 66, Type (0, 0), BuildingBlock: OJICUG_clean_linker_0, # of connection points: 2
#     Edge 67, Type (0, 0), BuildingBlock: OJICUG_clean_linker_0, # of connection points: 2
#     Edge 68, Type (0, 0), BuildingBlock: OJICUG_clean_linker_0, # of connection points: 2
#     Edge 69, Type (0, 0), BuildingBlock: OJICUG_clean_linker_0, # of connection points: 2
#     Edge 70, Type (0, 0), BuildingBlock: OJICUG_clean_linker_0, # of connection points: 2
#     Edge 71, Type (0, 0), BuildingBlock: OJICUG_clean_linker_0, # of connection points: 2
# Relax obj value: 0.248
# Max RMSD: 0.243
# Mean RMSD: 0.241
data_MOF--net-smg--node1-IZENUY_clean_sbu_0--edge1-OJICUG_clean_linker_0
_symmetry_space_group_name_H-M    P1
_symmetry_Int_Tables_number       1
_symmetry_cell_setting            triclinic
loop_
_symmetry_equiv_pos_as_xyz
'x, y, z'
_cell_length_a     33.933067
_cell_length_b     33.907313
_cell_length_c     31.330344
_cell_angle_alpha  90.362014
_cell_angle_beta   89.935911
_cell_angle_gamma 120.1042
loop_
_atom_site_label
_atom_site_type_symbol
_atom_site_fract_x
_atom_site_fract_y
_atom_site_fract_z
_atom_type_partial_charge
Fe0 Fe 0.07661 0.62347 0.26158 0.0
Fe1 Fe 0.0219 0.67077 0.24389 0.0
O2 O 0.02512 0.6207 0.24663 0.0
Fe3 Fe 0.97665 0.56763 0.23404 0.0
O4 O 0.97477 0.5469 0.2872 0.0
O5 O 0.04717 0.56623 0.28755 0.0
O6 O 0.07506 0.64622 0.31283 0.0
C7 C 0.07101 0.68061 0.31952 0.0
C8 C 0.05094 0.56058 0.19864 0.0
O9 O 0.06044 0.6988 0.28971 0.0
C10 C 0.97718 0.62125 0.17005 0.0
O11 O 0.1148 0.6819 0.23951 0.0
O12 O 0.0662 0.69464 0.20524 0.0
O13 O 1.01059 0.54214 0.21367 0.0
O14 O 0.08062 0.60005 0.21056 0.0
C15 C 0.93992 0.61503 0.27891 0.0
O16 O 0.9823 0.65083 0.19791 0.0
O17 O 0.97709 0.58555 0.1804 0.0
C18 C 0.1064 0.70505 0.21293 0.0
O19 O 0.97792 0.65018 0.28254 0.0
O20 O 0.93395 0.584 0.25219 0.0
C21 C 1.00672 0.54252 0.30232 0.0
Fe22 Fe 0.43663 0.4796 0.26391 0.0
Fe23 Fe 0.48463 0.4282 0.23355 0.0
O24 O 0.43431 0.42815 0.24844 0.0
Fe25 Fe 0.38165 0.37708 0.24821 0.0
O26 O 0.35824 0.39945 0.21133 0.0
O27 O 0.377 0.46222 0.24626 0.0
O28 O 0.45651 0.50385 0.21177 0.0
C29 C 0.49363 0.50996 0.19666 0.0
C30 C 0.38382 0.42093 0.32534 0.0
O31 O 0.51124 0.4867 0.21046 0.0
C32 C 0.43278 0.3428 0.27736 0.0
O33 O 0.49556 0.50572 0.2855 0.0
O34 O 0.51012 0.44941 0.28549 0.0
O35 O 0.3602 0.3926 0.29618 0.0
O36 O 0.41848 0.45821 0.31646 0.0
C37 C 0.425 0.37407 0.17221 0.0
O38 O 0.46555 0.36876 0.25278 0.0
O39 O 0.40145 0.35098 0.28481 0.0
C40 C 0.51776 0.48741 0.2999 0.0
O41 O 0.46288 0.4081 0.18117 0.0
O42 O 0.39463 0.35351 0.20039 0.0
C43 C 0.35097 0.43109 0.22005 0.0
Fe44 Fe 0.62152 0.0742 0.23376 0.0
Fe45 Fe 0.5697 0.97383 0.26062 0.0
O46 O 0.62134 0.0238 0.2481 0.0
Fe47 Fe 0.67279 0.02308 0.25006 0.0
O48 O 0.69534 0.06685 0.28965 0.0
O49 O 0.67927 0.11404 0.25697 0.0
O50 O 0.5977 0.07704 0.28447 0.0
C51 C 0.55976 0.04599 0.29779 0.0
C52 C 0.67989 0.07189 0.17563 0.0
O53 O 0.54239 1.00549 0.28281 0.0
C54 C 0.61958 0.94045 0.21428 0.0
O55 O 0.5643 0.04278 0.20765 0.0
O56 O 0.54741 0.97101 0.20798 0.0
O57 O 0.69942 0.06289 0.20535 0.0
O58 O 0.64451 0.07393 0.1825 0.0
C59 C 0.6256 0.97654 0.32334 0.0
O60 O 0.58834 0.93314 0.24109 0.0
O61 O 0.65323 0.97954 0.21045 0.0
C62 C 0.54157 1.00202 0.193 0.0
O63 O 0.58903 0.97492 0.3137 0.0
O64 O 0.65495 0.98283 0.29507 0.0
C65 C 0.70169 0.10624 0.28505 0.0
Fe66 Fe 0.07567 0.47825 0.76909 0.0
Fe67 Fe 0.97918 0.42922 0.73191 0.0
O68 O 0.02762 0.42764 0.75015 0.0
Fe69 Fe 0.02783 0.3758 0.74918 0.0
O70 O 0.07703 0.39911 0.71626 0.0
O71 O 0.11888 0.46198 0.75254 0.0
O72 O 0.08402 0.50588 0.71812 0.0
C73 C 0.05445 0.51323 0.70179 0.0
C74 C 0.06676 0.41663 0.82876 0.0
O75 O 1.01267 0.48938 0.71288 0.0
C76 C 0.94021 0.34124 0.77145 0.0
O77 O 0.04067 0.5026 0.78969 0.0
O78 O 0.97008 0.44593 0.78425 0.0
O79 O 0.06023 0.38768 0.79963 0.0
O80 O 0.06983 0.45423 0.82069 0.0
C81 C 0.99174 0.38044 0.66986 0.0
O82 O 0.93665 0.3686 0.74617 0.0
O83 O 0.97853 0.34802 0.78198 0.0
C84 C 0.99904 0.48288 0.80148 0.0
O85 O 0.98694 0.41375 0.67938 0.0
O86 O 0.99539 0.35608 0.69855 0.0
C87 C 0.11525 0.43138 0.72641 0.0
Fe88 Fe 0.67773 0.67512 0.74938 0.0
Fe89 Fe 0.6216 0.57374 0.72812 0.0
O90 O 0.62473 0.62441 0.74774 0.0
Fe91 Fe 0.57476 0.62351 0.7651 0.0
O92 O 0.59721 0.64147 0.81765 0.0
O93 O 0.66622 0.69575 0.79995 0.0
O94 O 0.70126 0.64967 0.78251 0.0
C95 C 0.70835 0.61892 0.76993 0.0
C96 C 0.62598 0.71117 0.72531 0.0
O97 O 0.68185 0.59013 0.74231 0.0
C98 C 0.53964 0.56728 0.69692 0.0
O99 O 0.69733 0.66225 0.69852 0.0
O100 O 0.63783 0.59825 0.6763 0.0
O101 O 0.59295 0.6833 0.74857 0.0
O102 O 0.65829 0.70473 0.71695 0.0
C103 C 0.56813 0.5411 0.79754 0.0
O104 O 0.56152 0.54802 0.70949 0.0
O105 O 0.54844 0.60492 0.71291 0.0
C106 C 0.67272 0.63585 0.66848 0.0
O107 O 0.60401 0.54711 0.77955 0.0
O108 O 0.54935 0.56419 0.78624 0.0
C109 C 0.6354 0.67451 0.82759 0.0
Fe110 Fe 0.4822 0.07247 0.72517 0.0
Fe111 Fe 0.38106 0.02501 0.74899 0.0
O112 O 0.43311 0.02512 0.74679 0.0
Fe113 Fe 0.43603 0.97783 0.76613 0.0
O114 O 0.45132 0.96636 0.71433 0.0
O115 O 0.50592 0.03722 0.7038 0.0
O116 O 0.45471 0.0628 0.67462 0.0
C117 C 0.41635 0.05838 0.66778 0.0
C118 C 0.52101 0.05509 0.79242 0.0
O119 O 0.39077 0.05627 0.69834 0.0
C120 C 0.38812 0.99103 0.82837 0.0
O121 O 0.46592 0.11599 0.7418 0.0
O122 O 0.40566 0.07529 0.78118 0.0
O123 O 0.49656 0.01269 0.78345 0.0
O124 O 0.51344 0.08397 0.77479 0.0
C125 C 0.34704 0.93668 0.72764 0.0
O126 O 0.36305 0.99365 0.7998 0.0
O127 O 0.42205 0.98746 0.81869 0.0
C128 C 0.43691 0.11332 0.76937 0.0
O129 O 0.35229 0.9745 0.71717 0.0
O130 O 0.37526 0.93436 0.75293 0.0
C131 C 0.48624 0.99479 0.69436 0.0
Fe132 Fe 0.74097 0.95788 0.60031 0.0
Fe133 Fe 0.68572 1.00367 0.57803 0.0
O134 O 0.69041 0.9544 0.58123 0.0
Fe135 Fe 0.64414 0.90113 0.56501 0.0
O136 O 0.63763 0.87871 0.61812 0.0
O137 O 0.7103 0.89993 0.62474 0.0
O138 O 0.73461 0.97864 0.65092 0.0
C139 C 0.72858 1.01188 0.65706 0.0
C140 C 0.72223 0.89769 0.53581 0.0
O141 O 0.71928 0.03038 0.62668 0.0
C142 C 0.64921 0.95655 0.50092 0.0
O143 O 0.78003 0.01701 0.58053 0.0
O144 O 0.73375 0.0311 0.54354 0.0
O145 O 0.68091 0.87746 0.54832 0.0
O146 O 0.75009 0.93672 0.55009 0.0
C147 C 0.60041 0.94574 0.60363 0.0
O148 O 0.65106 0.9848 0.52881 0.0
O149 O 0.6494 0.921 0.51143 0.0
C150 C 0.77334 0.04102 0.55358 0.0
O151 O 0.63777 0.97994 0.61261 0.0
O152 O 0.59864 0.91536 0.57829 0.0
C153 C 0.66878 0.87536 0.63656 0.0
Fe154 Fe 0.15073 0.75988 0.56374 0.0
Fe155 Fe 0.09841 0.80335 0.60604 0.0
O156 O 0.10025 0.75653 0.58312 0.0
Fe157 Fe 0.0489 0.70307 0.57926 0.0
O158 O 0.07518 0.66861 0.57211 0.0
O159 O 0.14183 0.71106 0.59809 0.0
O160 O 0.1877 0.79672 0.60577 0.0
C161 C 0.18233 0.81604 0.63789 0.0
C162 C 0.08409 0.71691 0.49924 0.0
O163 O 0.14621 0.81805 0.6429 0.0
C164 C 1.01287 0.75811 0.56847 0.0
O165 O 0.16427 0.80911 0.52948 0.0
O166 O 0.13606 0.84466 0.56728 0.0
O167 O 0.04962 0.71014 0.52132 0.0
O168 O 0.12091 0.72422 0.51723 0.0
C169 C 0.05405 0.7289 0.66242 0.0
O170 O 0.05073 0.79477 0.5702 0.0
O171 O 1.01 0.72404 0.586 0.0
C172 C 0.15825 0.84289 0.53565 0.0
O173 O 0.06114 0.76742 0.64907 0.0
O174 O 0.0493 0.69731 0.637 0.0
C175 C 0.10671 0.67197 0.59488 0.0
Fe176 Fe 0.24018 0.31161 0.59959 0.0
Fe177 Fe 0.34215 0.36105 0.58087 0.0
O178 O 0.29002 0.36061 0.58155 0.0
Fe179 Fe 0.28771 0.40895 0.56443 0.0
O180 O 0.26817 0.41606 0.61585 0.0
O181 O 0.21377 0.34444 0.62088 0.0
O182 O 0.26443 0.31871 0.65147 0.0
C183 C 0.30259 0.32312 0.65948 0.0
C184 C 0.20599 0.33242 0.53113 0.0
O185 O 0.32927 0.32615 0.62956 0.0
C186 C 0.34018 0.4009 0.50332 0.0
O187 O 0.2584 0.26982 0.58235 0.0
O188 O 0.31977 0.31331 0.54544 0.0
O189 O 0.22869 0.37432 0.5427 0.0
O190 O 0.21302 0.30304 0.54836 0.0
C191 C 0.37178 0.44666 0.61058 0.0
O192 O 0.36361 0.39644 0.53243 0.0
O193 O 0.30585 0.40398 0.5122 0.0
C194 C 0.28855 0.27441 0.5553 0.0
O195 O 0.36775 0.40842 0.61628 0.0
O196 O 0.34703 0.45178 0.58298 0.0
C197 C 0.23208 0.38601 0.633 0.0
Fe198 Fe 0.74909 0.81698 0.09861 0.0
Fe199 Fe 0.70206 0.71407 0.08276 0.0
O200 O 0.70021 0.76493 0.08347 0.0
Fe201 Fe 0.64932 0.76417 0.06945 0.0
O202 O 0.64512 0.78345 0.12231 0.0
O203 O 0.71509 0.84154 0.12123 0.0
O204 O 0.74821 0.79596 0.15088 0.0
C205 C 0.74636 0.759 0.1595 0.0
C206 C 0.72073 0.84786 0.03352 0.0
O207 O 0.73849 0.72907 0.13094 0.0
C208 C 0.65584 0.71202 0.00678 0.0
O209 O 0.79185 0.80107 0.0795 0.0
O210 O 0.74822 0.73677 0.0462 0.0
O211 O 0.68004 0.82336 0.04751 0.0
O212 O 0.75208 0.84142 0.04683 0.0
C213 C 0.61627 0.67842 0.11172 0.0
O214 O 0.66595 0.69126 0.0345 0.0
O215 O 0.6513 0.7455 0.01651 0.0
C216 C 0.78687 0.76971 0.05369 0.0
O217 O 0.65592 0.68719 0.11921 0.0
O218 O 0.60933 0.70425 0.08737 0.0
C219 C 0.67457 0.82213 0.13602 0.0
Fe220 Fe 0.28824 0.90544 0.06396 0.0
Fe221 Fe 0.23833 0.95555 0.09173 0.0
O222 O 0.28956 0.95639 0.07977 0.0
Fe223 Fe 0.34213 1.00716 0.08329 0.0
O224 O 0.36259 0.98231 0.12069 0.0
O225 O 0.34755 0.92288 0.08236 0.0
O226 O 0.26706 0.88052 0.11558 0.0
C227 C 0.22931 0.87416 0.1294 0.0
C228 C 0.34287 0.96624 0.00524 0.0
O229 O 0.21162 0.89689 0.11433 0.0
C230 C 0.29238 0.04221 0.05122 0.0
O231 O 0.22966 0.87868 0.04151 0.0
O232 O 0.21635 0.93541 0.03839 0.0
O233 O 0.36551 0.99329 0.03564 0.0
O234 O 0.30789 0.92845 0.01224 0.0
C235 C 0.29394 1.0079 0.15659 0.0
O236 O 0.25759 0.01476 0.07283 0.0
O237 O 0.32529 0.0358 0.04681 0.0
C238 C 0.20805 0.89679 0.02551 0.0
O239 O 0.25649 0.97478 0.14507 0.0
O240 O 0.32673 0.02877 0.13076 0.0
C241 C 0.37202 0.9526 0.11019 0.0
Fe242 Fe 0.04575 0.35199 0.08251 0.0
Fe243 Fe 0.1487 0.40519 0.06664 0.0
O244 O 0.09893 0.35461 0.08204 0.0
Fe245 Fe 0.10227 0.30625 0.09763 0.0
O246 O 0.08473 0.31039 0.15037 0.0
O247 O 0.02532 0.31548 0.13049 0.0
O248 O 0.06542 0.3982 0.11913 0.0
C249 C 0.09835 0.4376 0.11456 0.0
C250 C 1.01575 0.26693 0.05476 0.0
O251 O 0.12984 0.44522 0.08788 0.0
C252 C 0.15771 0.33208 0.02893 0.0
O253 O 0.05761 0.3881 0.035 0.0
O254 O 0.12593 0.40292 0.01497 0.0
O255 O 0.04249 0.26307 0.08077 0.0
O256 O 0.02207 0.30541 0.04578 0.0
C257 C 0.18369 0.38114 0.13226 0.0
O258 O 0.17518 0.37344 0.0421 0.0
O259 O 0.12144 0.30097 0.04528 0.0
C260 C 0.08784 0.39846 0.00655 0.0
O261 O 0.17538 0.41065 0.11773 0.0
O262 O 0.16165 0.34013 0.11848 0.0
C263 C 0.04961 0.31204 0.15948 0.0
Fe264 Fe 0.41547 0.28915 0.92806 0.0
Fe265 Fe 0.36513 0.34237 0.91652 0.0
O266 O 0.3663 0.29112 0.91287 0.0
Fe267 Fe 0.31748 0.24119 0.89373 0.0
O268 O 0.30982 0.21337 0.94426 0.0
O269 O 0.38151 0.22971 0.94833 0.0
O270 O 0.41261 0.30648 0.98135 0.0
C271 C 0.4085 0.33975 0.99264 0.0
C272 C 0.39167 0.23388 0.85864 0.0
O273 O 0.39915 0.36199 0.96607 0.0
C274 C 0.3281 0.30481 0.83622 0.0
O275 O 0.4573 0.34904 0.91155 0.0
O276 O 0.41309 0.37155 0.88263 0.0
O277 O 0.35042 0.21531 0.87132 0.0
O278 O 0.42152 0.27072 0.87535 0.0
C279 C 0.27863 0.28698 0.93972 0.0
O280 O 0.33098 0.33081 0.86701 0.0
O281 O 0.32424 0.26661 0.84279 0.0
C282 C 0.45188 0.37724 0.88914 0.0
O283 O 0.31724 0.31727 0.95125 0.0
O284 O 0.27479 0.25812 0.91137 0.0
C285 C 0.33995 0.20672 0.96052 0.0
Fe286 Fe 0.76588 0.14687 0.93423 0.0
Fe287 Fe 0.81084 0.09417 0.89605 0.0
O288 O 0.76309 0.09619 0.91586 0.0
Fe289 Fe 0.70968 0.0449 0.91702 0.0
O290 O 0.67466 0.07087 0.91998 0.0
O291 O 0.71903 0.13872 0.89722 0.0
O292 O 0.80502 0.18331 0.89375 0.0
C293 C 0.82355 0.17679 0.86171 0.0
C294 C 0.71818 0.0802 0.99685 0.0
O295 O 0.82515 0.14026 0.85727 0.0
C296 C 0.76462 1.01032 0.93549 0.0
O297 O 0.81324 0.16003 0.97145 0.0
O298 O 0.851 0.13406 0.93439 0.0
O299 O 0.71256 0.0457 0.97535 0.0
O300 O 0.72744 0.11738 0.97869 0.0
C301 C 0.74068 0.04829 0.83621 0.0
O302 O 0.80148 0.04816 0.93424 0.0
O303 O 0.73162 1.00634 0.91458 0.0
C304 C 0.8479 0.15536 0.9661 0.0
O305 O 0.77706 0.05423 0.85378 0.0
O306 O 0.70791 0.04537 0.85858 0.0
C307 C 0.67967 0.10374 0.8984 0.0
Fe308 Fe 1.00522 0.68562 0.91695 0.0
Fe309 Fe 0.95756 0.73818 0.89221 0.0
O310 O 0.95481 0.68817 0.9122 0.0
Fe311 Fe 0.90225 0.6409 0.92716 0.0
O312 O 0.92173 0.64436 0.98081 0.0
O313 O 0.98622 0.64822 0.9641 0.0
O314 O 0.02811 0.73197 0.95379 0.0
C315 C 0.03699 0.77151 0.94488 0.0
C316 C 0.94901 0.60175 0.88436 0.0
O317 O 0.01643 0.77793 0.91385 0.0
C318 C 0.8749 0.66561 0.85602 0.0
O319 O 0.03306 0.72222 0.8703 0.0
O320 O 0.97836 0.73015 0.84217 0.0
O321 O 0.91791 0.59713 0.91031 0.0
O322 O 0.98477 0.63932 0.88041 0.0
C323 C 0.8984 0.71894 0.95779 0.0
O324 O 0.89974 0.70731 0.86727 0.0
O325 O 0.87896 0.63502 0.87438 0.0
C326 C 1.01278 0.72586 0.83793 0.0
O327 O 0.93563 0.74776 0.9412 0.0
O328 O 0.87865 0.67692 0.94663 0.0
C329 C 0.95713 0.64424 0.99167 0.0
Fe330 Fe 0.35102 0.03747 0.41242 0.0
Fe331 Fe 0.40216 0.13976 0.43132 0.0
O332 O 0.35208 0.08997 0.41401 0.0
Fe333 Fe 0.30365 0.09319 0.39863 0.0
O334 O 0.30524 0.07374 0.34599 0.0
O335 O 0.31571 0.0168 0.36375 0.0
O336 O 0.39808 0.05957 0.37677 0.0
C337 C 0.43736 0.08993 0.38657 0.0
C338 C 0.26531 1.00653 0.44092 0.0
O339 O 0.44303 0.12059 0.41363 0.0
C340 C 0.33017 0.1505 0.46655 0.0
O341 O 0.38624 0.04996 0.46117 0.0
O342 O 0.3961 0.11605 0.48315 0.0
O343 O 0.2608 0.03419 0.41676 0.0
O344 O 0.30358 1.01099 0.44756 0.0
C345 C 0.38004 0.17418 0.36411 0.0
O346 O 0.37105 0.16765 0.45322 0.0
O347 O 0.29919 0.1137 0.45079 0.0
C348 C 0.39101 0.07758 0.49105 0.0
O349 O 0.4095 0.16626 0.37998 0.0
O350 O 0.33853 0.15205 0.37669 0.0
C351 C 0.30737 0.03896 0.33624 0.0
Fe352 Fe 0.90894 0.28951 0.43093 0.0
Fe353 Fe 1.01121 0.33818 0.41415 0.0
O354 O 0.95802 0.28786 0.41508 0.0
Fe355 Fe 0.95371 0.23551 0.40018 0.0
O356 O 0.93475 0.21263 0.45299 0.0
O357 O 0.8811 0.23119 0.45414 0.0
O358 O 0.93225 0.30856 0.48293 0.0
C359 C 0.97106 0.34136 0.49139 0.0
C360 C 0.87264 0.22961 0.36608 0.0
O361 O 0.99966 0.36292 0.46208 0.0
C362 C 1.00621 0.29233 0.33748 0.0
O363 O 0.92927 0.34923 0.41209 0.0
O364 O 0.9913 0.36435 0.37774 0.0
O365 O 0.89428 0.21063 0.3803 0.0
O366 O 0.88253 0.26878 0.37911 0.0
C367 C 0.04035 0.28274 0.44221 0.0
O368 O 0.03081 0.32101 0.36603 0.0
O369 O 0.97103 0.25573 0.34712 0.0
C370 C 0.96134 0.37412 0.38647 0.0
O371 O 0.03479 0.31557 0.45064 0.0
O372 O 1.01324 0.25159 0.41659 0.0
C373 C 0.8982 0.20774 0.46845 0.0
Fe374 Fe 0.71857 0.69645 0.41352 0.0
Fe375 Fe 0.77026 0.64635 0.43065 0.0
O376 O 0.77044 0.69658 0.41519 0.0
Fe377 Fe 0.82227 0.74588 0.40136 0.0
O378 O 0.80204 0.74617 0.34886 0.0
O379 O 0.73351 0.73301 0.36599 0.0
O380 O 0.69479 0.65011 0.37639 0.0
C381 C 0.68576 0.61079 0.38576 0.0
C382 C 0.7734 0.78091 0.44775 0.0
O383 O 0.7103 0.60533 0.41306 0.0
C384 C 0.85341 0.71771 0.46674 0.0
O385 O 0.69566 0.66001 0.46145 0.0
O386 O 0.75249 0.65122 0.48309 0.0
O387 O 0.80573 0.78768 0.42246 0.0
O388 O 0.73838 0.7426 0.45014 0.0
C389 C 0.82663 0.67069 0.36329 0.0
O390 O 0.82945 0.67712 0.45238 0.0
O391 O 0.84696 0.74882 0.45314 0.0
C392 C 0.71855 0.65544 0.49125 0.0
O393 O 0.78902 0.64075 0.37831 0.0
O394 O 0.84644 0.71163 0.37782 0.0
C395 C 0.76484 0.74302 0.33879 0.0
C396 C 0.06543 0.45963 0.17455 0.0
C397 C 0.09423 0.47354 0.13852 0.0
H398 H 0.02832 0.47522 0.22016 0.0
C399 C 0.11134 0.51825 0.12359 0.0
H400 H 0.05207 0.42576 0.18763 0.0
C401 C 0.09799 0.54733 0.14332 0.0
C402 C 0.06653 0.5316 0.17736 0.0
H403 H 0.13326 0.52998 0.09586 0.0
H404 H 0.11093 0.58144 0.13109 0.0
C405 C 0.05127 0.48781 0.19313 0.0
C406 C 0.56122 0.55719 0.15054 0.0
C407 C 0.5208 0.55043 0.16915 0.0
H408 H 0.62181 0.60216 0.11693 0.0
C409 C 0.50865 0.58442 0.16377 0.0
H410 H 0.57142 0.53173 0.15337 0.0
C411 C 0.53796 0.62551 0.14269 0.0
C412 C 0.57981 0.63315 0.1267 0.0
H413 H 0.4775 0.58022 0.17752 0.0
H414 H 0.5291 0.65201 0.14101 0.0
C415 C 0.59013 0.59778 0.1296 0.0
C416 C 0.49405 0.02119 0.14603 0.0
C417 C 0.50146 0.98813 0.16477 0.0
H418 H 0.44778 0.0352 0.11271 0.0
C419 C 0.46806 0.94159 0.1593 0.0
H420 H 0.5191 0.05709 0.14896 0.0
C421 C 0.4266 0.92881 0.13854 0.0
C422 C 0.41812 0.96238 0.12281 0.0
H423 H 0.47281 0.91506 0.1731 0.0
H424 H 0.40033 0.89321 0.13728 0.0
C425 C 0.45307 1.00846 0.12519 0.0
C426 C 0.5155 0.1163 0.35484 0.0
C427 C 0.47425 0.08176 0.3715 0.0
H428 H 0.5752 0.13212 0.31825 0.0
C429 C 0.46418 0.03613 0.36768 0.0
H430 H 0.52403 0.1516 0.35695 0.0
C431 C 0.4927 0.02482 0.34521 0.0
C432 C 0.53252 0.05881 0.32606 0.0
H433 H 0.43283 1.0086 0.38061 0.0
H434 H 0.48272 0.98919 0.34174 0.0
C435 C 0.54449 0.10491 0.33237 0.0
C436 C 0.94831 0.46985 0.33845 0.0
C437 C 0.99441 0.50259 0.33018 0.0
H438 H 0.90109 0.40316 0.36307 0.0
C439 C 0.02842 0.49458 0.34562 0.0
H440 H 0.92109 0.47504 0.32724 0.0
C441 C 0.01683 0.45384 0.36613 0.0
C442 C 0.97089 0.41963 0.37175 0.0
H443 H 0.06409 0.51902 0.34044 0.0
H444 H 0.04427 0.44843 0.37631 0.0
C445 C 0.93664 0.42867 0.35911 0.0
C446 C 0.56421 0.55419 0.34768 0.0
C447 C 0.55816 0.51438 0.32786 0.0
H448 H 0.60865 0.61463 0.38252 0.0
C449 C 0.59262 0.50286 0.3326 0.0
H450 H 0.53829 0.56383 0.34538 0.0
C451 C 0.63358 0.53238 0.35414 0.0
C452 C 0.64049 0.5737 0.37129 0.0
H453 H 0.58893 0.47221 0.31786 0.0
H454 H 0.66061 0.52423 0.35514 0.0
C455 C 0.60464 0.58328 0.3691 0.0
C456 C 0.94272 0.52436 0.88127 0.0
C457 C 0.9492 0.56394 0.86079 0.0
H458 H 0.95393 0.46708 0.87829 0.0
C459 C 0.9689 0.57403 0.81985 0.0
H460 H 0.92857 0.5163 0.91314 0.0
C461 C 0.9853 0.54773 0.80126 0.0
C462 C 0.98137 0.50983 0.82256 0.0
H463 H 0.97455 0.60443 0.80337 0.0
H464 H 1.00174 0.55746 0.77036 0.0
C465 C 0.9582 0.49699 0.86186 0.0
C466 C 0.51048 0.49917 0.8543 0.0
C467 C 0.544 0.50159 0.82664 0.0
H468 H 0.45689 0.45841 0.89751 0.0
C469 C 0.55246 0.46475 0.8255 0.0
H470 H 0.50362 0.52707 0.85656 0.0
C471 C 0.52528 0.42484 0.84897 0.0
C472 C 0.4897 0.42154 0.87428 0.0
H473 H 0.57836 0.46568 0.80462 0.0
H474 H 0.53002 0.39574 0.84501 0.0
C475 C 0.48401 0.45988 0.87803 0.0
C476 C 0.55964 0.04252 0.85387 0.0
C477 C 0.56118 0.07097 0.82109 0.0
H478 H 0.59425 0.03148 0.90446 0.0
C479 C 0.60146 0.11352 0.81579 0.0
H480 H 0.5291 1.00998 0.85929 0.0
C481 C 0.6402 0.12603 0.84158 0.0
C482 C 0.63882 0.09657 0.87367 0.0
H483 H 0.60357 0.13632 0.79069 0.0
H484 H 0.67132 0.15782 0.8356 0.0
C485 C 0.5974 0.05528 0.87996 0.0
C486 C 0.52949 0.92002 0.64668 0.0
C487 C 0.56042 0.94938 0.61626 0.0
H488 H 0.48126 0.9114 0.69533 0.0
C489 C 0.56197 0.99093 0.60783 0.0
H490 H 0.52843 0.88844 0.65456 0.0
C491 C 0.53657 1.00495 0.63207 0.0
C492 C 0.5082 0.97728 0.66475 0.0
H493 H 0.58598 0.01447 0.5848 0.0
H494 H 0.54059 0.03827 0.62641 0.0
C495 C 0.50314 0.93367 0.67044 0.0
C496 C 0.03871 0.55515 0.64531 0.0
C497 C 0.06966 0.55351 0.67357 0.0
H498 H 0.02641 0.59235 0.59824 0.0
C499 C 0.11476 0.5909 0.67486 0.0
H500 H 1.00399 0.52703 0.64319 0.0
C501 C 0.128 0.62962 0.64916 0.0
C502 C 0.09661 0.63117 0.62105 0.0
H503 H 0.13954 0.59072 0.69648 0.0
H504 H 0.16238 0.65826 0.65162 0.0
C505 C 0.05201 0.59295 0.61928 0.0
C506 C 0.44254 0.52519 0.61573 0.0
C507 C 0.40996 0.4842 0.63479 0.0
H508 H 0.51002 0.5842 0.6207 0.0
C509 C 0.41953 0.47341 0.67548 0.0
H510 H 0.43658 0.53406 0.5842 0.0
C511 C 0.46166 0.50046 0.69505 0.0
C512 C 0.49516 0.53996 0.67521 0.0
H513 H 0.39517 0.44214 0.69118 0.0
H514 H 0.46829 0.49012 0.72563 0.0
C515 C 0.48478 0.55327 0.63618 0.0
C516 C 0.78361 0.86007 0.45731 0.0
C517 C 0.77146 0.81687 0.47356 0.0
H518 H 0.77735 0.92009 0.46459 0.0
C519 C 0.74665 0.80302 0.51204 0.0
H520 H 0.80203 0.87143 0.42751 0.0
C521 C 0.73087 0.82938 0.53174 0.0
C522 C 0.74063 0.87123 0.51446 0.0
H523 H 0.7369 0.77005 0.52567 0.0
H524 H 0.71046 0.81671 0.5604 0.0
C525 C 0.76875 0.8874 0.47807 0.0
C526 C 0.20184 0.96294 0.49242 0.0
C527 C 0.2267 0.96325 0.4566 0.0
H528 H 0.16077 0.92484 0.5454 0.0
C529 C 0.22492 0.92229 0.44434 0.0
H530 H 0.20372 0.9942 0.5034 0.0
C531 C 0.20142 0.88272 0.46888 0.0
C532 C 0.17899 0.88304 0.50643 0.0
H533 H 0.2447 0.92187 0.41734 0.0
H534 H 0.20255 0.85253 0.4594 0.0
C535 C 0.17798 0.92321 0.51689 0.0
C536 C 0.12344 0.33292 0.45056 0.0
C537 C 0.08501 0.28913 0.45551 0.0
H538 H 0.19127 0.38109 0.47086 0.0
C539 C 0.08863 0.25765 0.48152 0.0
H540 H 0.12156 0.35798 0.43067 0.0
C541 C 0.12905 0.27101 0.50448 0.0
C542 C 0.16602 0.31623 0.50228 0.0
H543 H 0.0594 0.22408 0.4865 0.0
H544 H 0.13025 0.24673 0.52597 0.0
C545 C 0.16326 0.34644 0.4739 0.0
C546 C 0.14876 0.38214 0.71551 0.0
C547 C 0.15391 0.42595 0.71233 0.0
H548 H 0.16866 0.33499 0.69267 0.0
C549 C 0.18885 0.4584 0.68668 0.0
H550 H 0.12188 0.35631 0.73498 0.0
C551 C 0.21595 0.44606 0.6624 0.0
C552 C 0.20793 0.4009 0.66289 0.0
H553 H 0.19297 0.49201 0.68294 0.0
H554 H 0.24131 0.47115 0.64129 0.0
C555 C 0.17512 0.36964 0.69089 0.0
C556 C 0.59838 0.75983 0.69021 0.0
C557 C 0.6325 0.75569 0.71125 0.0
H558 H 0.5831 0.80137 0.64995 0.0
C559 C 0.67714 0.7935 0.7122 0.0
H560 H 0.56391 0.73122 0.68865 0.0
C561 C 0.68844 0.83311 0.68966 0.0
C562 C 0.6553 0.83627 0.66584 0.0
H563 H 0.70418 0.79146 0.72858 0.0
H564 H 0.72358 0.86051 0.68953 0.0
C565 C 0.60968 0.79994 0.66776 0.0
C566 C 0.2225 0.86988 0.6996 0.0
C567 C 0.22172 0.83991 0.66806 0.0
H568 H 0.26312 0.92325 0.74417 0.0
C569 C 0.26114 0.83608 0.66283 0.0
H570 H 0.19301 0.87367 0.70486 0.0
C571 C 0.30131 0.86422 0.68584 0.0
C572 C 0.30294 0.89669 0.71471 0.0
H573 H 0.26185 0.81303 0.63917 0.0
H574 H 0.33192 0.86303 0.67858 0.0
C575 C 0.26265 0.89803 0.72241 0.0
C576 C 0.64867 0.9165 0.15313 0.0
C577 C 0.62376 0.90428 0.19151 0.0
H578 H 0.68587 0.90138 0.10714 0.0
C579 C 0.61315 0.86275 0.2107 0.0
H580 H 0.65686 0.94795 0.13718 0.0
C581 C 0.62936 0.83536 0.1927 0.0
C582 C 0.65744 0.85002 0.15627 0.0
H583 H 0.59456 0.85271 0.2405 0.0
H584 H 0.62139 0.80365 0.20801 0.0
C585 C 0.66592 0.89024 0.13619 0.0
C586 C 0.12926 0.78362 0.19036 0.0
C587 C 0.14171 0.75018 0.19691 0.0
H588 H 0.1469 0.84855 0.16473 0.0
C589 C 0.1856 0.75998 0.18532 0.0
H590 H 0.096 0.77771 0.19983 0.0
C591 C 0.21521 0.80134 0.16495 0.0
C592 C 0.20134 0.83347 0.15614 0.0
H593 H 0.19617 0.73504 0.19017 0.0
H594 H 0.24823 0.80732 0.15465 0.0
C595 C 0.15854 0.82454 0.17032 0.0
C596 C 0.25955 0.44256 0.16148 0.0
C597 C 0.2241 0.39647 0.16046 0.0
H598 H 0.32822 0.49047 0.18168 0.0
C599 C 0.22873 0.36476 0.18508 0.0
H600 H 0.2569 0.468 0.14297 0.0
C601 C 0.26878 0.37797 0.2079 0.0
C602 C 0.30574 0.4231 0.20625 0.0
H603 H 0.20195 0.32935 0.18568 0.0
H604 H 0.2719 0.35199 0.22504 0.0
C605 C 0.30025 0.45574 0.184 0.0
C606 C 0.22153 0.35161 0.97733 0.0
C607 C 0.18374 0.31845 -0.00029 0.0
H608 H 0.27964 0.36677 0.93929 0.0
C609 C 0.17297 0.27243 0.99604 0.0
H610 H 0.23058 0.38711 0.9788 0.0
C611 C 0.20143 0.26057 0.97326 0.0
C612 C 0.24089 0.29448 0.95341 0.0
H613 H 0.14389 0.2458 0.0127 0.0
H614 H 0.19424 0.22564 0.97361 0.0
C615 C 0.24947 0.33976 0.95441 0.0
C616 C 0.77931 0.92216 -0.00099 0.0
C617 C 0.73332 0.88946 0.00784 0.0
H618 H 0.82604 0.98662 0.96977 0.0
C619 C 0.69927 0.89801 0.99364 0.0
H620 H 0.80661 0.91691 0.00985 0.0
C621 C 0.71044 0.93752 0.97105 0.0
C622 C 0.75615 0.97021 0.96171 0.0
H623 H 0.66369 0.87417 6e-05 0.0
H624 H 0.68267 0.9424 0.96092 0.0
C625 C 0.79065 0.96232 0.97634 0.0
C626 C 0.14956 0.88063 0.96777 0.0
C627 C 0.16364 0.86727 0.00458 0.0
H628 H 0.09782 0.86061 0.91906 0.0
C629 C 0.13349 0.82574 0.02371 0.0
H630 H 0.17209 0.91312 0.953 0.0
C631 C 0.09094 0.79717 0.00577 0.0
C632 C 0.07757 0.8084 0.96721 0.0
H633 H 0.14276 0.81529 0.05287 0.0
H634 H 0.06905 0.76502 0.02144 0.0
C635 C 0.10691 0.85103 0.94878 0.0
C636 C 0.3745 0.17361 0.80318 0.0
C637 C 0.40642 0.20875 0.8294 0.0
H638 H 0.36037 0.11764 0.76185 0.0
C639 C 0.45184 0.21753 0.82932 0.0
H640 H 0.33955 0.16624 0.80189 0.0
C641 C 0.46393 0.18927 0.80631 0.0
C642 C 0.43096 0.15226 0.78242 0.0
H643 H 0.47745 0.24451 0.8491 0.0
H644 H 0.49795 0.1944 0.80964 0.0
C645 C 0.38668 0.14606 0.77986 0.0
C646 C 0.84012 0.2535 0.83438 0.0
C647 C 0.84662 0.21544 0.83104 0.0
H648 H 0.86395 0.3233 0.81716 0.0
C649 C 0.87823 0.2172 0.80115 0.0
H650 H 0.8156 0.25331 0.85666 0.0
C651 C 0.9054 0.25728 0.77822 0.0
C652 C 0.90143 0.29645 0.78423 0.0
H653 H 0.88405 0.18875 0.79741 0.0
H654 H 0.93188 0.25873 0.75778 0.0
C655 C 0.86727 0.29358 0.81128 0.0
C656 C 0.79933 0.60522 0.82556 0.0
C657 C 0.83537 0.65108 0.82665 0.0
H658 H 0.73024 0.55832 0.806 0.0
C659 C 0.83143 0.68313 0.80184 0.0
H660 H 0.80127 0.57941 0.84412 0.0
C661 C 0.79129 0.67057 0.77927 0.0
C662 C 0.75376 0.6258 0.78126 0.0
H663 H 0.85854 0.7184 0.80136 0.0
H664 H 0.78836 0.69687 0.76252 0.0
C665 C 0.75872 0.59275 0.80329 0.0
C666 C 0.88298 0.78044 0.98454 0.0
C667 C 0.87545 0.73556 0.98727 0.0
H668 H 0.86091 0.82741 0.00416 0.0
C669 C 0.84478 0.70623 0.01779 0.0
H670 H 0.90674 0.804 0.96141 0.0
C671 C 0.82012 0.72026 0.04307 0.0
C672 C 0.82467 0.76366 0.038 0.0
H673 H 0.83887 0.67191 0.02131 0.0
H674 H 0.79488 0.6958 0.06474 0.0
C675 C 0.8574 0.79425 0.00943 0.0
C676 C 0.27936 0.13099 0.98971 0.0
C677 C 0.32517 0.1669 0.98886 0.0
H678 H 0.23229 0.06259 0.01056 0.0
C679 C 0.35738 0.16334 0.01379 0.0
H680 H 0.25357 0.13291 0.97098 0.0
C681 C 0.34495 0.12383 0.03677 0.0
C682 C 0.30011 0.08644 0.03508 0.0
H683 H 0.39259 0.19058 0.01457 0.0
H684 H 0.37126 0.12169 0.05444 0.0
C685 C 0.26691 0.09087 0.01259 0.0
C686 C 0.89094 0.20657 0.02863 0.0
C687 C 0.88815 0.17733 0.99544 0.0
H688 H 0.93387 0.25673 0.07475 0.0
C689 C 0.92611 0.17136 0.98834 0.0
H690 H 0.86258 0.21181 0.0354 0.0
C691 C 0.96693 0.19688 0.01117 0.0
C692 C 0.97063 0.22861 0.04194 0.0
H693 H 0.92525 0.14867 0.96341 0.0
H694 H 0.99649 0.19434 0.00245 0.0
C695 C 0.9317 0.23191 0.0515 0.0
C696 C 0.27157 0.16736 0.49891 0.0
C697 C 0.31726 0.17739 0.49528 0.0
H698 H 0.22593 0.19003 0.52129 0.0
C699 C 0.35111 0.21541 0.51728 0.0
H700 H 0.24449 0.13809 0.48252 0.0
C701 C 0.34027 0.24432 0.5398 0.0
C702 C 0.29533 0.23644 0.54083 0.0
H703 H 0.38639 0.22383 0.51587 0.0
H704 H 0.36777 0.27449 0.55479 0.0
C705 C 0.26069 0.19676 0.52141 0.0
C706 C 0.82939 0.16146 0.5132 0.0
C707 C 0.87048 0.16798 0.4964 0.0
H708 H 0.76745 0.11673 0.54511 0.0
C709 C 0.88251 0.13421 0.50363 0.0
H710 H 0.81924 0.1868 0.50889 0.0
C711 C 0.85246 0.09347 0.5247 0.0
C712 C 0.80999 0.08597 0.53864 0.0
H713 H 0.91417 0.1383 0.49133 0.0
H714 H 0.86128 0.06704 0.5279 0.0
C715 C 0.79965 0.12112 0.53397 0.0
C716 C 0.96995 0.7854 0.52128 0.0
C717 C 0.97159 0.75112 0.54478 0.0
H718 H 0.9309 0.80193 0.47842 0.0
C719 C 0.93304 0.7067 0.54364 0.0
H720 H 0.99884 0.81976 0.52119 0.0
C721 C 0.89494 0.69634 0.51886 0.0
C722 C 0.8934 0.73008 0.49479 0.0
H723 H 0.93244 0.67901 0.56123 0.0
H724 H 0.86665 0.66161 0.51839 0.0
C725 C 0.931 0.77504 0.49679 0.0
C726 C 0.91392 0.63565 0.34397 0.0
C727 C 0.90321 0.6168 0.30255 0.0
H728 H 0.89964 0.66968 0.39422 0.0
C729 C 0.86512 0.61361 0.28161 0.0
H730 H 0.94317 0.63859 0.36081 0.0
C731 C 0.83974 0.63119 0.30122 0.0
C732 C 0.85327 0.65345 0.34111 0.0
H733 H 0.85676 0.60026 0.24935 0.0
H734 H 0.81066 0.62893 0.28466 0.0
C735 C 0.88974 0.65436 0.36273 0.0
C736 C 0.37806 0.26111 0.29041 0.0
C737 C 0.4236 0.29731 0.29179 0.0
H738 H 0.3287 0.19458 0.31202 0.0
C739 C 0.45603 0.29061 0.31315 0.0
H740 H 0.3522 0.26499 0.2738 0.0
C741 C 0.44231 0.24956 0.33507 0.0
C742 C 0.39592 0.21483 0.33626 0.0
H743 H 0.49115 0.31788 0.31512 0.0
H744 H 0.46768 0.24604 0.35292 0.0
C745 C 0.36437 0.22069 0.31249 0.0
C746 C 0.81204 0.21584 0.31146 0.0
C747 C 0.82755 0.20083 0.34605 0.0
H748 H 0.75925 0.19748 0.26421 0.0
C749 C 0.79859 0.15783 0.36334 0.0
H750 H 0.83363 0.24936 0.29814 0.0
C751 C 0.75599 0.12941 0.34541 0.0
C752 C 0.74141 0.14245 0.30875 0.0
H753 H 0.80898 0.14598 0.39085 0.0
H754 H 0.73515 0.09598 0.35929 0.0
C755 C 0.76933 0.18655 0.29251 0.0
C756 C 0.04792 0.7135 0.42792 0.0
C757 C 0.0812 0.71085 0.45243 0.0
H758 H 0.01989 0.70805 0.36512 0.0
C759 C 0.11397 0.70386 0.4316 0.0
H760 H 0.02276 0.71964 0.44307 0.0
C761 C 0.11228 0.69734 0.38775 0.0
C762 C 0.07825 0.69829 0.36338 0.0
H763 H 0.1404 0.70202 0.44929 0.0
H764 H 0.13674 0.68988 0.37299 0.0
C765 C 0.04673 0.70765 0.38344 0.0
C766 C 0.39719 0.42346 0.44471 0.0
C767 C 0.35186 0.40252 0.45805 0.0
H768 H 0.44257 0.44604 0.39148 0.0
C769 C 0.3166 0.38428 0.42741 0.0
H770 H 0.42478 0.43749 0.46774 0.0
C771 C 0.32656 0.38832 0.38392 0.0
C772 C 0.37193 0.41162 0.37059 0.0
H773 H 0.2812 0.36731 0.43715 0.0
H774 H 0.299 0.37495 0.36087 0.0
C775 C 0.40717 0.42845 0.40123 0.0
C776 C 0.663 0.94645 0.42495 0.0
C777 C 0.64491 0.96356 0.45558 0.0
H778 H 0.67181 0.93792 0.35834 0.0
C779 C 0.62253 0.98654 0.44242 0.0
H780 H 0.68103 0.92912 0.43462 0.0
C781 C 0.61664 0.99072 0.39911 0.0
C782 C 0.63395 0.97289 0.36846 0.0
H783 H 0.60858 1.00014 0.46551 0.0
H784 H 0.59849 1.00797 0.38954 0.0
C785 C 0.65804 0.9516 0.38153 0.0
C786 C 0.69495 0.10598 0.06107 0.0
C787 C 0.70926 0.07727 0.04297 0.0
H788 H 0.67567 0.12746 0.11745 0.0
C789 C 0.71822 0.04954 0.06967 0.0
H790 H 0.68809 0.12802 0.04136 0.0
C791 C 0.71218 0.05022 0.11391 0.0
C792 C 0.69621 0.07786 0.13148 0.0
H793 H 0.73015 0.0278 0.05644 0.0
H794 H 0.71813 0.02789 0.13406 0.0
C795 C 0.68826 0.10606 0.10471 0.0
C796 C 0.99056 0.611 0.09401 0.0
C797 C 0.97266 0.62834 0.12461 0.0
H798 H 1.0005 0.60324 0.02755 0.0
C799 C 0.95112 0.65212 0.11124 0.0
H800 H 1.00798 0.59307 0.10372 0.0
C801 C 0.94614 0.65706 0.06776 0.0
C802 C 0.96369 0.63935 0.03716 0.0
H803 H 0.93735 0.66594 0.13427 0.0
H804 H 0.92875 0.67501 0.05801 0.0
C805 C 0.98662 0.61697 0.05056 0.0
C806 C 0.44888 0.35247 0.10599 0.0
C807 C 0.41692 0.35987 0.12747 0.0
H808 H 0.47131 0.34072 0.04594 0.0
C809 C 0.38319 0.36284 0.10421 0.0
H810 H 0.47584 0.35129 0.12341 0.0
C811 C 0.38178 0.35882 0.05967 0.0
C812 C 0.41365 0.35104 0.03827 0.0
H813 H 0.35912 0.36996 0.12029 0.0
H814 H 0.35529 0.3607 0.0421 0.0
C815 C 0.44681 0.34736 0.06181 0.0
C816 C 1.00954 0.40627 0.59489 0.0
C817 C 0.99157 0.37016 0.62439 0.0
H818 H 0.01801 0.4255 0.52889 0.0
C819 C 0.97143 0.3252 0.6097 0.0
H820 H 0.0259 0.4414 0.60575 0.0
C821 C 0.96639 0.31634 0.56598 0.0
C822 C 0.98234 0.35235 0.53653 0.0
H823 H 0.95764 0.297 0.63186 0.0
H824 H 0.94897 0.28117 0.55511 0.0
C825 C 1.00539 0.39741 0.55111 0.0
C826 C 0.73081 0.66821 0.61069 0.0
C827 C 0.68527 0.6464 0.62349 0.0
H828 H 0.77676 0.68754 0.55804 0.0
C829 C 0.65053 0.63109 0.59246 0.0
H830 H 0.75802 0.68034 0.63404 0.0
C831 C 0.66108 0.63567 0.54908 0.0
C832 C 0.70645 0.65469 0.5363 0.0
H833 H 0.61503 0.61462 0.60182 0.0
H834 H 0.63381 0.62259 0.52574 0.0
C835 C 0.7413 0.6719 0.56734 0.0
C836 C 0.41853 0.03766 0.59231 0.0
C837 C 0.40343 0.05757 0.62311 0.0
H838 H 0.42572 0.02767 0.52569 0.0
C839 C 0.37982 0.07937 0.61022 0.0
H840 H 0.43635 0.02005 0.60181 0.0
C841 C 0.37448 0.08423 0.56684 0.0
C842 C 0.39189 0.06657 0.53599 0.0
H843 H 0.36779 0.09471 0.63344 0.0
H844 H 0.3578 0.10295 0.55733 0.0
C845 C 0.41238 0.04174 0.54893 0.0
C846 C 0.33165 0.97084 0.88673 0.0
C847 C 0.37685 0.98911 0.87369 0.0
H848 H 0.28577 0.94914 0.93948 0.0
C849 C 0.41177 1.00404 0.9045 0.0
H850 H 0.30431 0.95943 0.86358 0.0
C851 C 0.40135 0.99892 0.9479 0.0
C852 C 0.35586 0.97796 0.96069 0.0
H853 H 0.44711 0.01895 0.89499 0.0
H854 H 0.42844 1.00932 0.97117 0.0
C855 C 0.32119 0.96488 0.92998 0.0
C856 C 0.11469 0.4403 0.93905 0.0
C857 C 0.07955 0.40462 0.96202 0.0
H858 H 0.13824 0.47123 0.8781 0.0
C859 C 0.04105 0.37084 0.94034 0.0
H860 H 0.14503 0.4662 0.95517 0.0
C861 C 0.03803 0.37276 0.89592 0.0
C862 C 0.07324 0.40874 0.87322 0.0
H863 H 1.01419 0.34239 0.95751 0.0
H864 H 1.00779 0.34709 0.87951 0.0
C865 C 0.11129 0.44264 0.89509 0.0
C866 C 0.68091 0.69126 0.8945 0.0
C867 C 0.64294 0.68739 0.8728 0.0
H868 H 0.71372 0.70002 0.95533 0.0
C869 C 0.60817 0.68867 0.89591 0.0
H870 H 0.70752 0.68921 0.87723 0.0
C871 C 0.61163 0.69469 0.93998 0.0
C872 C 0.64923 0.6981 0.96187 0.0
H873 H 0.57825 0.68496 0.87978 0.0
H874 H 0.58505 0.69701 0.95703 0.0
C875 C 0.68385 0.69619 0.93899 0.0
C876 C 0.77103 0.03334 0.7243 0.0
C877 C 0.73433 0.02935 0.70067 0.0
H878 H 0.80139 0.04185 0.7851 0.0
C879 C 0.69973 0.03349 0.72121 0.0
H880 H 0.79782 0.02986 0.70902 0.0
C881 C 0.70109 0.03959 0.76565 0.0
C882 C 0.7372 0.04176 0.78951 0.0
H883 H 0.67064 0.02957 0.70334 0.0
H884 H 0.67381 0.04189 0.78126 0.0
C885 C 0.77259 0.03966 0.76806 0.0
C886 C 1.00184 0.6911 0.72277 0.0
C887 C 0.04594 0.72028 0.70803 0.0
H888 H 0.95694 0.67083 0.7764 0.0
C889 C 0.08069 0.7478 0.73707 0.0
H890 H 0.97461 0.67021 0.70065 0.0
C891 C 0.07093 0.74762 0.78044 0.0
C892 C 0.02602 0.72102 0.7946 0.0
H893 H 0.11489 0.77095 0.72586 0.0
H894 H 0.09761 0.77034 0.80222 0.0
C895 C 0.99182 0.69187 0.7658 0.0
C896 C 0.29584 0.34044 0.73523 0.0
C897 C 0.31462 0.32403 0.70448 0.0
H898 H 0.28624 0.34814 0.80184 0.0
C899 C 0.34258 0.30707 0.71754 0.0
H900 H 0.27486 0.35465 0.72568 0.0
C901 C 0.34864 0.30314 0.76093 0.0
C902 C 0.32755 0.31693 0.79164 0.0
H903 H 0.35774 0.29476 0.69443 0.0
H904 H 0.36861 0.28782 0.77056 0.0
C905 C 0.30259 0.33725 0.77865 0.0
C906 C 0.99247 0.28784 0.21806 0.0
C907 C 0.03784 0.30977 0.20472 0.0
H908 H 0.94713 0.2647 0.2713 0.0
C909 C 0.07311 0.32873 0.23529 0.0
H910 H 0.96489 0.27327 0.19503 0.0
C911 C 0.06316 0.32461 0.27875 0.0
C912 C 0.01782 0.30056 0.29212 0.0
H913 H 0.10851 0.34649 0.22553 0.0
H914 H 0.09077 0.33879 0.30175 0.0
C915 C 0.98253 0.2828 0.26154 0.0
C916 C 0.7942 0.78308 0.27028 0.0
C917 C 0.75807 0.74864 0.29352 0.0
H918 H 0.81877 0.81282 0.20892 0.0
C919 C 0.71924 0.71543 0.2718 0.0
H920 H 0.8248 0.80854 0.28639 0.0
C921 C 0.71676 0.7167 0.22726 0.0
C922 C 0.75277 0.75158 0.20426 0.0
H923 H 0.69152 0.68789 0.28908 0.0
H924 H 0.68618 0.69146 0.21096 0.0
C925 C 0.79122 0.78497 0.22609 0.0
C926 C 0.33772 0.02564 0.26916 0.0
C927 C 0.30206 0.02632 0.29118 0.0
H928 H 0.36406 0.02146 0.20799 0.0
C929 C 0.26526 0.02369 0.26846 0.0
H930 H 0.36702 0.029 0.28624 0.0
C931 C 0.26359 0.01949 0.22422 0.0
C932 C 0.29947 0.01946 0.202 0.0
H933 H 0.23801 0.02527 0.28499 0.0
H934 H 0.23424 0.01619 0.20729 0.0
C935 C 0.33665 0.02265 0.22462 0.0
loop_
_geom_bond_atom_site_label_1
_geom_bond_atom_site_label_2
_geom_bond_distance
_geom_bond_site_symmetry_2
_ccdc_geom_bond_type
Fe0 O2 1.918 . S
Fe0 O5 1.997 . S
Fe0 O6 2.002 . S
Fe0 O11 1.976 . S
Fe0 O14 1.996 . S
Fe1 O2 1.918 . S
Fe1 O9 1.997 . S
Fe1 O12 1.996 . S
Fe1 O16 1.976 1_455 S
Fe1 O19 2.002 1_455 S
O2 Fe0 1.918 . S
O2 Fe1 1.918 . S
O2 Fe3 1.918 1_455 S
Fe3 O2 1.918 1_655 S
Fe3 O4 2.002 . S
Fe3 O13 1.976 . S
Fe3 O17 1.996 . S
Fe3 O20 1.997 . S
O4 Fe3 2.002 . S
O4 C21 1.295 . S
O5 Fe0 1.997 . S
O5 C21 1.235 1_455 S
O6 Fe0 2.002 . S
O6 C7 1.295 . S
C7 O6 1.295 . S
C7 O9 1.235 . S
C8 O13 1.287 1_455 S
C8 O14 1.255 . S
O9 Fe1 1.997 . S
O9 C7 1.235 . S
C10 O16 1.287 . S
C10 O17 1.255 . S
O11 Fe0 1.976 . S
O11 C18 1.287 . S
O12 Fe1 1.996 . S
O12 C18 1.255 . S
O13 Fe3 1.976 . S
O13 C8 1.287 1_655 S
O14 Fe0 1.996 . S
O14 C8 1.255 . S
C15 O19 1.295 . S
C15 O20 1.235 . S
O16 Fe1 1.976 1_655 S
O16 C10 1.287 . S
O17 Fe3 1.996 . S
O17 C10 1.255 . S
C18 O11 1.287 . S
C18 O12 1.255 . S
O19 Fe1 2.002 1_655 S
O19 C15 1.295 . S
O20 Fe3 1.997 . S
O20 C15 1.235 . S
C21 O4 1.295 . S
C21 O5 1.235 1_655 S
Fe22 O24 1.918 . S
Fe22 O27 1.997 . S
Fe22 O28 2.002 . S
Fe22 O33 1.976 . S
Fe22 O36 1.996 . S
Fe23 O24 1.918 . S
Fe23 O31 1.997 . S
Fe23 O34 1.996 . S
Fe23 O38 1.976 . S
Fe23 O41 2.002 . S
O24 Fe22 1.918 . S
O24 Fe23 1.918 . S
O24 Fe25 1.918 . S
Fe25 O24 1.918 . S
Fe25 O26 2.002 . S
Fe25 O35 1.976 . S
Fe25 O39 1.996 . S
Fe25 O42 1.997 . S
O26 Fe25 2.002 . S
O26 C43 1.295 . S
O27 Fe22 1.997 . S
O27 C43 1.235 . S
O28 Fe22 2.002 . S
O28 C29 1.295 . S
C29 O28 1.295 . S
C29 O31 1.235 . S
C30 O35 1.287 . S
C30 O36 1.255 . S
O31 Fe23 1.997 . S
O31 C29 1.235 . S
C32 O38 1.287 . S
C32 O39 1.255 . S
O33 Fe22 1.976 . S
O33 C40 1.287 . S
O34 Fe23 1.996 . S
O34 C40 1.255 . S
O35 Fe25 1.976 . S
O35 C30 1.287 . S
O36 Fe22 1.996 . S
O36 C30 1.255 . S
C37 O41 1.295 . S
C37 O42 1.235 . S
O38 Fe23 1.976 . S
O38 C32 1.287 . S
O39 Fe25 1.996 . S
O39 C32 1.255 . S
C40 O33 1.287 . S
C40 O34 1.255 . S
O41 Fe23 2.002 . S
O41 C37 1.295 . S
O42 Fe25 1.997 . S
O42 C37 1.235 . S
C43 O26 1.295 . S
C43 O27 1.235 . S
Fe44 O46 1.918 . S
Fe44 O49 1.997 . S
Fe44 O50 2.002 . S
Fe44 O55 1.976 . S
Fe44 O58 1.996 . S
Fe45 O46 1.918 1_565 S
Fe45 O53 1.997 . S
Fe45 O56 1.996 . S
Fe45 O60 1.976 . S
Fe45 O63 2.002 . S
O46 Fe44 1.918 . S
O46 Fe45 1.918 1_545 S
O46 Fe47 1.918 . S
Fe47 O46 1.918 . S
Fe47 O48 2.002 . S
Fe47 O57 1.976 . S
Fe47 O61 1.996 1_545 S
Fe47 O64 1.997 1_545 S
O48 Fe47 2.002 . S
O48 C65 1.295 . S
O49 Fe44 1.997 . S
O49 C65 1.235 . S
O50 Fe44 2.002 . S
O50 C51 1.295 . S
C51 O50 1.295 . S
C51 O53 1.235 1_545 S
C52 O57 1.287 . S
C52 O58 1.255 . S
O53 Fe45 1.997 . S
O53 C51 1.235 1_565 S
C54 O60 1.287 . S
C54 O61 1.255 . S
O55 Fe44 1.976 . S
O55 C62 1.287 1_545 S
O56 Fe45 1.996 . S
O56 C62 1.255 . S
O57 Fe47 1.976 . S
O57 C52 1.287 . S
O58 Fe44 1.996 . S
O58 C52 1.255 . S
C59 O63 1.295 . S
C59 O64 1.235 . S
O60 Fe45 1.976 . S
O60 C54 1.287 . S
O61 Fe47 1.996 1_565 S
O61 C54 1.255 . S
C62 O55 1.287 1_565 S
C62 O56 1.255 . S
O63 Fe45 2.002 . S
O63 C59 1.295 . S
O64 Fe47 1.997 1_565 S
O64 C59 1.235 . S
C65 O48 1.295 . S
C65 O49 1.235 . S
Fe66 O68 1.918 . S
Fe66 O71 1.997 . S
Fe66 O72 2.002 . S
Fe66 O77 1.976 . S
Fe66 O80 1.996 . S
Fe67 O68 1.918 1_655 S
Fe67 O75 1.997 . S
Fe67 O78 1.996 . S
Fe67 O82 1.976 . S
Fe67 O85 2.002 . S
O68 Fe66 1.918 . S
O68 Fe67 1.918 1_455 S
O68 Fe69 1.918 . S
Fe69 O68 1.918 . S
Fe69 O70 2.002 . S
Fe69 O79 1.976 . S
Fe69 O83 1.996 1_455 S
Fe69 O86 1.997 1_455 S
O70 Fe69 2.002 . S
O70 C87 1.295 . S
O71 Fe66 1.997 . S
O71 C87 1.235 . S
O72 Fe66 2.002 . S
O72 C73 1.295 . S
C73 O72 1.295 . S
C73 O75 1.235 1_455 S
C74 O79 1.287 . S
C74 O80 1.255 . S
O75 Fe67 1.997 . S
O75 C73 1.235 1_655 S
C76 O82 1.287 . S
C76 O83 1.255 . S
O77 Fe66 1.976 . S
O77 C84 1.287 1_455 S
O78 Fe67 1.996 . S
O78 C84 1.255 . S
O79 Fe69 1.976 . S
O79 C74 1.287 . S
O80 Fe66 1.996 . S
O80 C74 1.255 . S
C81 O85 1.295 . S
C81 O86 1.235 . S
O82 Fe67 1.976 . S
O82 C76 1.287 . S
O83 Fe69 1.996 1_655 S
O83 C76 1.255 . S
C84 O77 1.287 1_655 S
C84 O78 1.255 . S
O85 Fe67 2.002 . S
O85 C81 1.295 . S
O86 Fe69 1.997 1_655 S
O86 C81 1.235 . S
C87 O70 1.295 . S
C87 O71 1.235 . S
Fe88 O90 1.918 . S
Fe88 O93 1.997 . S
Fe88 O94 2.002 . S
Fe88 O99 1.976 . S
Fe88 O102 1.996 . S
Fe89 O90 1.918 . S
Fe89 O97 1.997 . S
Fe89 O100 1.996 . S
Fe89 O104 1.976 . S
Fe89 O107 2.002 . S
O90 Fe88 1.918 . S
O90 Fe89 1.918 . S
O90 Fe91 1.918 . S
Fe91 O90 1.918 . S
Fe91 O92 2.002 . S
Fe91 O101 1.976 . S
Fe91 O105 1.996 . S
Fe91 O108 1.997 . S
O92 Fe91 2.002 . S
O92 C109 1.295 . S
O93 Fe88 1.997 . S
O93 C109 1.235 . S
O94 Fe88 2.002 . S
O94 C95 1.295 . S
C95 O94 1.295 . S
C95 O97 1.235 . S
C96 O101 1.287 . S
C96 O102 1.255 . S
O97 Fe89 1.997 . S
O97 C95 1.235 . S
C98 O104 1.287 . S
C98 O105 1.255 . S
O99 Fe88 1.976 . S
O99 C106 1.287 . S
O100 Fe89 1.996 . S
O100 C106 1.255 . S
O101 Fe91 1.976 . S
O101 C96 1.287 . S
O102 Fe88 1.996 . S
O102 C96 1.255 . S
C103 O107 1.295 . S
C103 O108 1.235 . S
O104 Fe89 1.976 . S
O104 C98 1.287 . S
O105 Fe91 1.996 . S
O105 C98 1.255 . S
C106 O99 1.287 . S
C106 O100 1.255 . S
O107 Fe89 2.002 . S
O107 C103 1.295 . S
O108 Fe91 1.997 . S
O108 C103 1.235 . S
C109 O92 1.295 . S
C109 O93 1.235 . S
Fe110 O112 1.918 . S
Fe110 O115 1.997 . S
Fe110 O116 2.002 . S
Fe110 O121 1.976 . S
Fe110 O124 1.996 . S
Fe111 O112 1.918 . S
Fe111 O119 1.997 . S
Fe111 O122 1.996 . S
Fe111 O126 1.976 1_545 S
Fe111 O129 2.002 1_545 S
O112 Fe110 1.918 . S
O112 Fe111 1.918 . S
O112 Fe113 1.918 1_545 S
Fe113 O112 1.918 1_565 S
Fe113 O114 2.002 . S
Fe113 O123 1.976 . S
Fe113 O127 1.996 . S
Fe113 O130 1.997 . S
O114 Fe113 2.002 . S
O114 C131 1.295 . S
O115 Fe110 1.997 . S
O115 C131 1.235 1_545 S
O116 Fe110 2.002 . S
O116 C117 1.295 . S
C117 O116 1.295 . S
C117 O119 1.235 . S
C118 O123 1.287 1_545 S
C118 O124 1.255 . S
O119 Fe111 1.997 . S
O119 C117 1.235 . S
C120 O126 1.287 . S
C120 O127 1.255 . S
O121 Fe110 1.976 . S
O121 C128 1.287 . S
O122 Fe111 1.996 . S
O122 C128 1.255 . S
O123 Fe113 1.976 . S
O123 C118 1.287 1_565 S
O124 Fe110 1.996 . S
O124 C118 1.255 . S
C125 O129 1.295 . S
C125 O130 1.235 . S
O126 Fe111 1.976 1_565 S
O126 C120 1.287 . S
O127 Fe113 1.996 . S
O127 C120 1.255 . S
C128 O121 1.287 . S
C128 O122 1.255 . S
O129 Fe111 2.002 1_565 S
O129 C125 1.295 . S
O130 Fe113 1.997 . S
O130 C125 1.235 . S
C131 O114 1.295 . S
C131 O115 1.235 1_565 S
Fe132 O134 1.918 . S
Fe132 O137 1.997 . S
Fe132 O138 2.002 . S
Fe132 O143 1.976 . S
Fe132 O146 1.996 . S
Fe133 O134 1.918 . S
Fe133 O141 1.997 1_565 S
Fe133 O144 1.996 1_565 S
Fe133 O148 1.976 . S
Fe133 O151 2.002 . S
O134 Fe132 1.918 . S
O134 Fe133 1.918 . S
O134 Fe135 1.918 . S
Fe135 O134 1.918 . S
Fe135 O136 2.002 . S
Fe135 O145 1.976 . S
Fe135 O149 1.996 . S
Fe135 O152 1.997 . S
O136 Fe135 2.002 . S
O136 C153 1.295 . S
O137 Fe132 1.997 . S
O137 C153 1.235 . S
O138 Fe132 2.002 . S
O138 C139 1.295 . S
C139 O138 1.295 . S
C139 O141 1.235 1_565 S
C140 O145 1.287 . S
C140 O146 1.255 . S
O141 Fe133 1.997 1_545 S
O141 C139 1.235 1_545 S
C142 O148 1.287 . S
C142 O149 1.255 . S
O143 Fe132 1.976 . S
O143 C150 1.287 1_565 S
O144 Fe133 1.996 1_545 S
O144 C150 1.255 . S
O145 Fe135 1.976 . S
O145 C140 1.287 . S
O146 Fe132 1.996 . S
O146 C140 1.255 . S
C147 O151 1.295 . S
C147 O152 1.235 . S
O148 Fe133 1.976 . S
O148 C142 1.287 . S
O149 Fe135 1.996 . S
O149 C142 1.255 . S
C150 O143 1.287 1_545 S
C150 O144 1.255 . S
O151 Fe133 2.002 . S
O151 C147 1.295 . S
O152 Fe135 1.997 . S
O152 C147 1.235 . S
C153 O136 1.295 . S
C153 O137 1.235 . S
Fe154 O156 1.918 . S
Fe154 O159 1.997 . S
Fe154 O160 2.002 . S
Fe154 O165 1.976 . S
Fe154 O168 1.996 . S
Fe155 O156 1.918 . S
Fe155 O163 1.997 . S
Fe155 O166 1.996 . S
Fe155 O170 1.976 . S
Fe155 O173 2.002 . S
O156 Fe154 1.918 . S
O156 Fe155 1.918 . S
O156 Fe157 1.918 . S
Fe157 O156 1.918 . S
Fe157 O158 2.002 . S
Fe157 O167 1.976 . S
Fe157 O171 1.978 1_455 S
Fe157 O174 1.997 . S
O158 Fe157 2.002 . S
O158 C175 1.295 . S
O159 Fe154 1.997 . S
O159 C175 1.235 . S
O160 Fe154 2.002 . S
O160 C161 1.295 . S
C161 O160 1.295 . S
C161 O163 1.235 . S
C162 O167 1.287 . S
C162 O168 1.255 . S
O163 Fe155 1.997 . S
O163 C161 1.235 . S
C164 O170 1.287 . S
C164 O171 1.262 1_455 S
O165 Fe154 1.976 . S
O165 C172 1.287 . S
O166 Fe155 1.996 . S
O166 C172 1.255 . S
O167 Fe157 1.976 . S
O167 C162 1.287 . S
O168 Fe154 1.996 . S
O168 C162 1.255 . S
C169 O173 1.295 . S
C169 O174 1.235 . S
O170 Fe155 1.976 . S
O170 C164 1.287 . S
O171 Fe157 1.978 1_655 S
O171 C164 1.262 1_655 S
C172 O165 1.287 . S
C172 O166 1.255 . S
O173 Fe155 2.002 . S
O173 C169 1.295 . S
O174 Fe157 1.997 . S
O174 C169 1.235 . S
C175 O158 1.295 . S
C175 O159 1.235 . S
Fe176 O178 1.918 . S
Fe176 O181 1.997 . S
Fe176 O182 2.002 . S
Fe176 O187 1.976 . S
Fe176 O190 1.996 . S
Fe177 O178 1.918 . S
Fe177 O185 1.997 . S
Fe177 O188 1.996 . S
Fe177 O192 1.976 . S
Fe177 O195 2.002 . S
O178 Fe176 1.918 . S
O178 Fe177 1.918 . S
O178 Fe179 1.918 . S
Fe179 O178 1.918 . S
Fe179 O180 2.002 . S
Fe179 O189 1.976 . S
Fe179 O193 1.996 . S
Fe179 O196 1.997 . S
O180 Fe179 2.002 . S
O180 C197 1.295 . S
O181 Fe176 1.997 . S
O181 C197 1.235 . S
O182 Fe176 2.002 . S
O182 C183 1.295 . S
C183 O182 1.295 . S
C183 O185 1.235 . S
C184 O189 1.287 . S
C184 O190 1.255 . S
O185 Fe177 1.997 . S
O185 C183 1.235 . S
C186 O192 1.287 . S
C186 O193 1.255 . S
O187 Fe176 1.976 . S
O187 C194 1.287 . S
O188 Fe177 1.996 . S
O188 C194 1.255 . S
O189 Fe179 1.976 . S
O189 C184 1.287 . S
O190 Fe176 1.996 . S
O190 C184 1.255 . S
C191 O195 1.295 . S
C191 O196 1.235 . S
O192 Fe177 1.976 . S
O192 C186 1.287 . S
O193 Fe179 1.996 . S
O193 C186 1.255 . S
C194 O187 1.287 . S
C194 O188 1.255 . S
O195 Fe177 2.002 . S
O195 C191 1.295 . S
O196 Fe179 1.997 . S
O196 C191 1.235 . S
C197 O180 1.295 . S
C197 O181 1.235 . S
Fe198 O200 1.918 . S
Fe198 O203 1.997 . S
Fe198 O204 2.002 . S
Fe198 O209 1.976 . S
Fe198 O212 1.996 . S
Fe199 O200 1.918 . S
Fe199 O207 1.997 . S
Fe199 O210 1.996 . S
Fe199 O214 1.976 . S
Fe199 O217 2.002 . S
O200 Fe198 1.918 . S
O200 Fe199 1.918 . S
O200 Fe201 1.918 . S
Fe201 O200 1.918 . S
Fe201 O202 2.002 . S
Fe201 O211 1.976 . S
Fe201 O215 1.996 . S
Fe201 O218 1.997 . S
O202 Fe201 2.002 . S
O202 C219 1.295 . S
O203 Fe198 1.997 . S
O203 C219 1.235 . S
O204 Fe198 2.002 . S
O204 C205 1.295 . S
C205 O204 1.295 . S
C205 O207 1.235 . S
C206 O211 1.287 . S
C206 O212 1.255 . S
O207 Fe199 1.997 . S
O207 C205 1.235 . S
C208 O214 1.287 1_556 S
C208 O215 1.255 1_556 S
O209 Fe198 1.976 . S
O209 C216 1.287 . S
O210 Fe199 1.996 . S
O210 C216 1.255 . S
O211 Fe201 1.976 . S
O211 C206 1.287 . S
O212 Fe198 1.996 . S
O212 C206 1.255 . S
C213 O217 1.295 . S
C213 O218 1.235 . S
O214 Fe199 1.976 . S
O214 C208 1.287 1_554 S
O215 Fe201 1.996 . S
O215 C208 1.255 1_554 S
C216 O209 1.287 . S
C216 O210 1.255 . S
O217 Fe199 2.002 . S
O217 C213 1.295 . S
O218 Fe201 1.997 . S
O218 C213 1.235 . S
C219 O202 1.295 . S
C219 O203 1.235 . S
Fe220 O222 1.918 . S
Fe220 O225 1.997 . S
Fe220 O226 2.002 . S
Fe220 O231 1.976 . S
Fe220 O234 1.996 . S
Fe221 O222 1.918 . S
Fe221 O229 1.997 . S
Fe221 O232 1.996 . S
Fe221 O236 1.976 . S
Fe221 O239 2.002 . S
O222 Fe220 1.918 . S
O222 Fe221 1.918 . S
O222 Fe223 1.918 . S
Fe223 O222 1.918 . S
Fe223 O224 2.002 . S
Fe223 O233 1.976 . S
Fe223 O237 1.996 1_565 S
Fe223 O240 1.997 1_565 S
O224 Fe223 2.002 . S
O224 C241 1.295 . S
O225 Fe220 1.997 . S
O225 C241 1.235 . S
O226 Fe220 2.002 . S
O226 C227 1.295 . S
C227 O226 1.295 . S
C227 O229 1.235 . S
C228 O233 1.273 1_556 S
C228 O234 1.249 1_556 S
O229 Fe221 1.997 . S
O229 C227 1.235 . S
C230 O236 1.287 1_545 S
C230 O237 1.255 . S
O231 Fe220 1.976 . S
O231 C238 1.287 . S
O232 Fe221 1.996 . S
O232 C238 1.255 . S
O233 Fe223 1.976 . S
O233 C228 1.273 1_554 S
O234 Fe220 1.996 . S
O234 C228 1.249 1_554 S
C235 O239 1.295 . S
C235 O240 1.235 1_565 S
O236 Fe221 1.976 . S
O236 C230 1.287 1_565 S
O237 Fe223 1.996 1_545 S
O237 C230 1.255 . S
C238 O231 1.287 . S
C238 O232 1.255 . S
O239 Fe221 2.002 . S
O239 C235 1.295 . S
O240 Fe223 1.997 1_545 S
O240 C235 1.235 1_545 S
C241 O224 1.295 . S
C241 O225 1.235 . S
Fe242 O244 1.918 . S
Fe242 O247 1.997 . S
Fe242 O248 2.002 . S
Fe242 O253 1.976 . S
Fe242 O256 1.996 1_455 S
Fe243 O244 1.918 . S
Fe243 O251 1.997 . S
Fe243 O254 1.996 . S
Fe243 O258 1.976 . S
Fe243 O261 2.002 . S
O244 Fe242 1.918 . S
O244 Fe243 1.918 . S
O244 Fe245 1.918 . S
Fe245 O244 1.918 . S
Fe245 O246 2.002 . S
Fe245 O255 1.976 . S
Fe245 O259 1.996 . S
Fe245 O262 1.997 . S
O246 Fe245 2.002 . S
O246 C263 1.295 . S
O247 Fe242 1.997 . S
O247 C263 1.235 . S
O248 Fe242 2.002 . S
O248 C249 1.295 . S
C249 O248 1.295 . S
C249 O251 1.235 . S
C250 O255 1.287 . S
C250 O256 1.256 1_455 S
O251 Fe243 1.997 . S
O251 C249 1.235 . S
C252 O258 1.287 . S
C252 O259 1.255 . S
O253 Fe242 1.976 . S
O253 C260 1.287 1_554 S
O254 Fe243 1.996 . S
O254 C260 1.255 1_554 S
O255 Fe245 1.976 . S
O255 C250 1.287 . S
O256 Fe242 1.996 1_655 S
O256 C250 1.256 1_655 S
C257 O261 1.295 . S
C257 O262 1.235 . S
O258 Fe243 1.976 . S
O258 C252 1.287 . S
O259 Fe245 1.996 . S
O259 C252 1.255 . S
C260 O253 1.287 1_556 S
C260 O254 1.255 1_556 S
O261 Fe243 2.002 . S
O261 C257 1.295 . S
O262 Fe245 1.997 . S
O262 C257 1.235 . S
C263 O246 1.295 . S
C263 O247 1.235 . S
Fe264 O266 1.918 . S
Fe264 O269 1.997 . S
Fe264 O270 2.002 . S
Fe264 O275 1.976 . S
Fe264 O278 1.996 . S
Fe265 O266 1.918 . S
Fe265 O273 1.997 . S
Fe265 O276 1.996 . S
Fe265 O280 1.976 . S
Fe265 O283 2.002 . S
O266 Fe264 1.918 . S
O266 Fe265 1.918 . S
O266 Fe267 1.918 . S
Fe267 O266 1.918 . S
Fe267 O268 2.002 . S
Fe267 O277 1.976 . S
Fe267 O281 1.996 . S
Fe267 O284 1.997 . S
O268 Fe267 2.002 . S
O268 C285 1.295 . S
O269 Fe264 1.997 . S
O269 C285 1.235 . S
O270 Fe264 2.002 . S
O270 C271 1.295 . S
C271 O270 1.295 . S
C271 O273 1.235 . S
C272 O277 1.287 . S
C272 O278 1.255 . S
O273 Fe265 1.997 . S
O273 C271 1.235 . S
C274 O280 1.287 . S
C274 O281 1.255 . S
O275 Fe264 1.976 . S
O275 C282 1.287 . S
O276 Fe265 1.996 . S
O276 C282 1.255 . S
O277 Fe267 1.976 . S
O277 C272 1.287 . S
O278 Fe264 1.996 . S
O278 C272 1.255 . S
C279 O283 1.295 . S
C279 O284 1.235 . S
O280 Fe265 1.976 . S
O280 C274 1.287 . S
O281 Fe267 1.996 . S
O281 C274 1.255 . S
C282 O275 1.287 . S
C282 O276 1.255 . S
O283 Fe265 2.002 . S
O283 C279 1.295 . S
O284 Fe267 1.997 . S
O284 C279 1.235 . S
C285 O268 1.295 . S
C285 O269 1.235 . S
Fe286 O288 1.918 . S
Fe286 O291 1.997 . S
Fe286 O292 2.002 . S
Fe286 O297 1.976 . S
Fe286 O300 1.996 . S
Fe287 O288 1.918 . S
Fe287 O295 1.997 . S
Fe287 O298 1.996 . S
Fe287 O302 1.976 . S
Fe287 O305 2.002 . S
O288 Fe286 1.918 . S
O288 Fe287 1.918 . S
O288 Fe289 1.918 . S
Fe289 O288 1.918 . S
Fe289 O290 2.002 . S
Fe289 O299 1.976 . S
Fe289 O303 1.996 1_545 S
Fe289 O306 1.997 . S
O290 Fe289 2.002 . S
O290 C307 1.295 . S
O291 Fe286 1.997 . S
O291 C307 1.235 . S
O292 Fe286 2.002 . S
O292 C293 1.295 . S
C293 O292 1.295 . S
C293 O295 1.235 . S
C294 O299 1.287 1_554 S
C294 O300 1.255 1_554 S
O295 Fe287 1.997 . S
O295 C293 1.235 . S
C296 O302 1.287 . S
C296 O303 1.255 1_545 S
O297 Fe286 1.976 . S
O297 C304 1.287 . S
O298 Fe287 1.996 . S
O298 C304 1.255 . S
O299 Fe289 1.976 . S
O299 C294 1.287 1_556 S
O300 Fe286 1.996 . S
O300 C294 1.255 1_556 S
C301 O305 1.295 . S
C301 O306 1.235 . S
O302 Fe287 1.976 . S
O302 C296 1.287 . S
O303 Fe289 1.996 1_565 S
O303 C296 1.255 1_565 S
C304 O297 1.287 . S
C304 O298 1.255 . S
O305 Fe287 2.002 . S
O305 C301 1.295 . S
O306 Fe289 1.997 . S
O306 C301 1.235 . S
C307 O290 1.295 . S
C307 O291 1.235 . S
Fe308 O310 1.918 . S
Fe308 O313 1.997 . S
Fe308 O314 2.002 1_655 S
Fe308 O319 1.976 1_655 S
Fe308 O322 1.996 . S
Fe309 O310 1.918 . S
Fe309 O317 1.997 . S
Fe309 O320 1.996 . S
Fe309 O324 1.976 . S
Fe309 O327 2.002 . S
O310 Fe308 1.918 . S
O310 Fe309 1.918 . S
O310 Fe311 1.918 . S
Fe311 O310 1.918 . S
Fe311 O312 2.002 . S
Fe311 O321 1.976 . S
Fe311 O325 1.996 . S
Fe311 O328 1.997 . S
O312 Fe311 2.002 . S
O312 C329 1.295 . S
O313 Fe308 1.997 . S
O313 C329 1.235 . S
O314 Fe308 2.002 1_455 S
O314 C315 1.295 . S
C315 O314 1.295 . S
C315 O317 1.235 1_455 S
C316 O321 1.287 . S
C316 O322 1.255 . S
O317 Fe309 1.997 . S
O317 C315 1.235 1_655 S
C318 O324 1.287 . S
C318 O325 1.255 . S
O319 Fe308 1.976 1_455 S
O319 C326 1.287 1_455 S
O320 Fe309 1.996 . S
O320 C326 1.255 . S
O321 Fe311 1.976 . S
O321 C316 1.287 . S
O322 Fe308 1.996 . S
O322 C316 1.255 . S
C323 O327 1.295 . S
C323 O328 1.235 . S
O324 Fe309 1.976 . S
O324 C318 1.287 . S
O325 Fe311 1.996 . S
O325 C318 1.255 . S
C326 O319 1.287 1_655 S
C326 O320 1.255 . S
O327 Fe309 2.002 . S
O327 C323 1.295 . S
O328 Fe311 1.997 . S
O328 C323 1.235 . S
C329 O312 1.295 . S
C329 O313 1.235 . S
Fe330 O332 1.918 . S
Fe330 O335 1.997 . S
Fe330 O336 2.002 . S
Fe330 O341 1.976 . S
Fe330 O344 1.996 1_545 S
Fe331 O332 1.918 . S
Fe331 O339 1.997 . S
Fe331 O342 1.996 . S
Fe331 O346 1.976 . S
Fe331 O349 2.002 . S
O332 Fe330 1.918 . S
O332 Fe331 1.918 . S
O332 Fe333 1.918 . S
Fe333 O332 1.918 . S
Fe333 O334 2.002 . S
Fe333 O343 1.976 . S
Fe333 O347 1.996 . S
Fe333 O350 1.997 . S
O334 Fe333 2.002 . S
O334 C351 1.295 . S
O335 Fe330 1.997 . S
O335 C351 1.235 . S
O336 Fe330 2.002 . S
O336 C337 1.295 . S
C337 O336 1.295 . S
C337 O339 1.235 . S
C338 O343 1.287 . S
C338 O344 1.255 1_545 S
O339 Fe331 1.997 . S
O339 C337 1.235 . S
C340 O346 1.287 . S
C340 O347 1.255 . S
O341 Fe330 1.976 . S
O341 C348 1.287 . S
O342 Fe331 1.996 . S
O342 C348 1.255 . S
O343 Fe333 1.976 . S
O343 C338 1.287 . S
O344 Fe330 1.996 1_565 S
O344 C338 1.255 1_565 S
C345 O349 1.295 . S
C345 O350 1.235 . S
O346 Fe331 1.976 . S
O346 C340 1.287 . S
O347 Fe333 1.996 . S
O347 C340 1.255 . S
C348 O341 1.287 . S
C348 O342 1.255 . S
O349 Fe331 2.002 . S
O349 C345 1.295 . S
O350 Fe333 1.997 . S
O350 C345 1.235 . S
C351 O334 1.295 . S
C351 O335 1.235 . S
Fe352 O354 1.918 . S
Fe352 O357 1.997 . S
Fe352 O358 2.002 . S
Fe352 O363 1.976 . S
Fe352 O366 1.996 . S
Fe353 O354 1.918 . S
Fe353 O361 1.997 . S
Fe353 O364 1.996 . S
Fe353 O368 1.976 1_655 S
Fe353 O371 2.002 1_655 S
O354 Fe352 1.918 . S
O354 Fe353 1.918 . S
O354 Fe355 1.918 . S
Fe355 O354 1.918 . S
Fe355 O356 2.002 . S
Fe355 O365 1.976 . S
Fe355 O369 1.996 . S
Fe355 O372 1.997 . S
O356 Fe355 2.002 . S
O356 C373 1.295 . S
O357 Fe352 1.997 . S
O357 C373 1.235 . S
O358 Fe352 2.002 . S
O358 C359 1.295 . S
C359 O358 1.295 . S
C359 O361 1.235 . S
C360 O365 1.287 . S
C360 O366 1.255 . S
O361 Fe353 1.997 . S
O361 C359 1.235 . S
C362 O368 1.287 1_655 S
C362 O369 1.255 . S
O363 Fe352 1.976 . S
O363 C370 1.287 . S
O364 Fe353 1.996 . S
O364 C370 1.255 . S
O365 Fe355 1.976 . S
O365 C360 1.287 . S
O366 Fe352 1.996 . S
O366 C360 1.255 . S
C367 O371 1.295 . S
C367 O372 1.235 1_455 S
O368 Fe353 1.976 1_455 S
O368 C362 1.287 1_455 S
O369 Fe355 1.996 . S
O369 C362 1.255 . S
C370 O363 1.287 . S
C370 O364 1.255 . S
O371 Fe353 2.002 1_455 S
O371 C367 1.295 . S
O372 Fe355 1.997 . S
O372 C367 1.235 1_655 S
C373 O356 1.295 . S
C373 O357 1.235 . S
Fe374 O376 1.918 . S
Fe374 O379 1.997 . S
Fe374 O380 2.002 . S
Fe374 O385 1.976 . S
Fe374 O388 1.996 . S
Fe375 O376 1.918 . S
Fe375 O383 1.997 . S
Fe375 O386 1.996 . S
Fe375 O390 1.976 . S
Fe375 O393 2.002 . S
O376 Fe374 1.918 . S
O376 Fe375 1.918 . S
O376 Fe377 1.918 . S
Fe377 O376 1.918 . S
Fe377 O378 2.002 . S
Fe377 O387 1.976 . S
Fe377 O391 1.996 . S
Fe377 O394 1.997 . S
O378 Fe377 2.002 . S
O378 C395 1.295 . S
O379 Fe374 1.997 . S
O379 C395 1.235 . S
O380 Fe374 2.002 . S
O380 C381 1.295 . S
C381 O380 1.295 . S
C381 O383 1.235 . S
C382 O387 1.287 . S
C382 O388 1.255 . S
O383 Fe375 1.997 . S
O383 C381 1.235 . S
C384 O390 1.287 . S
C384 O391 1.255 . S
O385 Fe374 1.976 . S
O385 C392 1.287 . S
O386 Fe375 1.996 . S
O386 C392 1.255 . S
O387 Fe377 1.976 . S
O387 C382 1.287 . S
O388 Fe374 1.996 . S
O388 C382 1.255 . S
C389 O393 1.295 . S
C389 O394 1.235 . S
O390 Fe375 1.976 . S
O390 C384 1.287 . S
O391 Fe377 1.996 . S
O391 C384 1.255 . S
C392 O385 1.287 . S
C392 O386 1.255 . S
O393 Fe375 2.002 . S
O393 C389 1.295 . S
O394 Fe377 1.997 . S
O394 C389 1.235 . S
C395 O378 1.295 . S
C395 O379 1.235 . S
C396 C397 1.387 . S
C396 H400 0.950 . S
C396 C405 1.390 . S
C397 C396 1.387 . S
C397 C399 1.387 . S
H398 C405 0.950 . S
C399 C397 1.387 . S
C399 C401 1.390 . S
C399 H403 0.950 . S
H400 C396 0.950 . S
C401 C399 1.390 . S
C401 C402 1.387 . S
C401 H404 0.950 . S
C402 C401 1.387 . S
C402 C405 1.387 . S
H403 C399 0.950 . S
H404 C401 0.950 . S
C405 C396 1.390 . S
C405 H398 0.950 . S
C405 C402 1.387 . S
C406 C407 1.387 . S
C406 H410 0.950 . S
C406 C415 1.390 . S
C407 C406 1.387 . S
C407 C409 1.387 . S
H408 C415 0.950 . S
C409 C407 1.387 . S
C409 C411 1.390 . S
C409 H413 0.950 . S
H410 C406 0.950 . S
C411 C409 1.390 . S
C411 C412 1.387 . S
C411 H414 0.950 . S
C412 C411 1.387 . S
C412 C415 1.387 . S
H413 C409 0.950 . S
H414 C411 0.950 . S
C415 C406 1.390 . S
C415 H408 0.950 . S
C415 C412 1.387 . S
C416 C417 1.387 . S
C416 H420 0.950 1_565 S
C416 C425 1.390 . S
C417 C416 1.387 . S
C417 C419 1.387 . S
H418 C425 0.950 . S
C419 C417 1.387 . S
C419 C421 1.390 . S
C419 H423 0.950 . S
H420 C416 0.950 1_545 S
C421 C419 1.390 . S
C421 C422 1.387 . S
C421 H424 0.950 . S
C422 C421 1.387 . S
C422 C425 1.387 . S
H423 C419 0.950 . S
H424 C421 0.950 . S
C425 C416 1.390 . S
C425 H418 0.950 . S
C425 C422 1.387 . S
C426 C427 1.387 . S
C426 H430 0.950 . S
C426 C435 1.390 . S
C427 C426 1.387 . S
C427 C429 1.387 . S
H428 C435 0.950 . S
C429 C427 1.387 . S
C429 C431 1.390 . S
C429 H433 0.950 . S
H430 C426 0.950 . S
C431 C429 1.390 . S
C431 C432 1.387 . S
C431 H434 0.950 . S
C432 C431 1.387 . S
C432 C435 1.387 . S
H433 C429 0.950 . S
H434 C431 0.950 . S
C435 C426 1.390 . S
C435 H428 0.950 . S
C435 C432 1.387 . S
C436 C437 1.387 . S
C436 H440 0.950 . S
C436 C445 1.390 . S
C437 C436 1.387 . S
C437 C439 1.387 . S
H438 C445 0.950 . S
C439 C437 1.387 . S
C439 C441 1.390 . S
C439 H443 0.950 1_655 S
H440 C436 0.950 . S
C441 C439 1.390 . S
C441 C442 1.387 . S
C441 H444 0.950 . S
C442 C441 1.387 . S
C442 C445 1.387 . S
H443 C439 0.950 1_455 S
H444 C441 0.950 . S
C445 C436 1.390 . S
C445 H438 0.950 . S
C445 C442 1.387 . S
C446 C447 1.387 . S
C446 H450 0.950 . S
C446 C455 1.390 . S
C447 C446 1.387 . S
C447 C449 1.387 . S
H448 C455 0.950 . S
C449 C447 1.387 . S
C449 C451 1.390 . S
C449 H453 0.950 . S
H450 C446 0.950 . S
C451 C449 1.390 . S
C451 C452 1.387 . S
C451 H454 0.950 . S
C452 C451 1.387 . S
C452 C455 1.387 . S
H453 C449 0.950 . S
H454 C451 0.950 . S
C455 C446 1.390 . S
C455 H448 0.950 . S
C455 C452 1.387 . S
C456 C457 1.387 . S
C456 H460 0.950 . S
C456 C465 1.390 . S
C457 C456 1.387 . S
C457 C459 1.387 . S
H458 C465 0.950 . S
C459 C457 1.387 . S
C459 C461 1.390 . S
C459 H463 0.950 . S
H460 C456 0.950 . S
C461 C459 1.390 . S
C461 C462 1.387 . S
C461 H464 0.950 . S
C462 C461 1.387 . S
C462 C465 1.387 . S
H463 C459 0.950 . S
H464 C461 0.950 . S
C465 C456 1.390 . S
C465 H458 0.950 . S
C465 C462 1.387 . S
C466 C467 1.387 . S
C466 H470 0.950 . S
C466 C475 1.390 . S
C467 C466 1.387 . S
C467 C469 1.387 . S
H468 C475 0.950 . S
C469 C467 1.387 . S
C469 C471 1.390 . S
C469 H473 0.950 . S
H470 C466 0.950 . S
C471 C469 1.390 . S
C471 C472 1.387 . S
C471 H474 0.950 . S
C472 C471 1.387 . S
C472 C475 1.387 . S
H473 C469 0.950 . S
H474 C471 0.950 . S
C475 C466 1.390 . S
C475 H468 0.950 . S
C475 C472 1.387 . S
C476 C477 1.387 . S
C476 H480 0.950 . S
C476 C485 1.390 . S
C477 C476 1.387 . S
C477 C479 1.387 . S
H478 C485 0.950 . S
C479 C477 1.387 . S
C479 C481 1.390 . S
C479 H483 0.950 . S
H480 C476 0.950 . S
C481 C479 1.390 . S
C481 C482 1.387 . S
C481 H484 0.950 . S
C482 C481 1.387 . S
C482 C485 1.387 . S
H483 C479 0.950 . S
H484 C481 0.950 . S
C485 C476 1.390 . S
C485 H478 0.950 . S
C485 C482 1.387 . S
C486 C487 1.387 . S
C486 H490 0.950 . S
C486 C495 1.390 . S
C487 C486 1.387 . S
C487 C489 1.387 . S
H488 C495 0.950 . S
C489 C487 1.387 . S
C489 C491 1.390 . S
C489 H493 0.950 . S
H490 C486 0.950 . S
C491 C489 1.390 . S
C491 C492 1.387 . S
C491 H494 0.950 1_565 S
C492 C491 1.387 . S
C492 C495 1.387 . S
H493 C489 0.950 . S
H494 C491 0.950 1_545 S
C495 C486 1.390 . S
C495 H488 0.950 . S
C495 C492 1.387 . S
C496 C497 1.387 . S
C496 H500 0.950 1_455 S
C496 C505 1.390 . S
C497 C496 1.387 . S
C497 C499 1.387 . S
H498 C505 0.950 . S
C499 C497 1.387 . S
C499 C501 1.390 . S
C499 H503 0.950 . S
H500 C496 0.950 1_655 S
C501 C499 1.390 . S
C501 C502 1.387 . S
C501 H504 0.950 . S
C502 C501 1.387 . S
C502 C505 1.387 . S
H503 C499 0.950 . S
H504 C501 0.950 . S
C505 C496 1.390 . S
C505 H498 0.950 . S
C505 C502 1.387 . S
C506 C507 1.387 . S
C506 H510 0.950 . S
C506 C515 1.390 . S
C507 C506 1.387 . S
C507 C509 1.387 . S
H508 C515 0.950 . S
C509 C507 1.387 . S
C509 C511 1.390 . S
C509 H513 0.950 . S
H510 C506 0.950 . S
C511 C509 1.390 . S
C511 C512 1.387 . S
C511 H514 0.950 . S
C512 C511 1.387 . S
C512 C515 1.387 . S
H513 C509 0.950 . S
H514 C511 0.950 . S
C515 C506 1.390 . S
C515 H508 0.950 . S
C515 C512 1.387 . S
C516 C517 1.387 . S
C516 H520 0.950 . S
C516 C525 1.390 . S
C517 C516 1.387 . S
C517 C519 1.387 . S
H518 C525 0.950 . S
C519 C517 1.387 . S
C519 C521 1.390 . S
C519 H523 0.950 . S
H520 C516 0.950 . S
C521 C519 1.390 . S
C521 C522 1.387 . S
C521 H524 0.950 . S
C522 C521 1.387 . S
C522 C525 1.387 . S
H523 C519 0.950 . S
H524 C521 0.950 . S
C525 C516 1.390 . S
C525 H518 0.950 . S
C525 C522 1.387 . S
C526 C527 1.387 . S
C526 H530 0.950 . S
C526 C535 1.390 . S
C527 C526 1.387 . S
C527 C529 1.387 . S
H528 C535 0.950 . S
C529 C527 1.387 . S
C529 C531 1.390 . S
C529 H533 0.950 . S
H530 C526 0.950 . S
C531 C529 1.390 . S
C531 C532 1.387 . S
C531 H534 0.950 . S
C532 C531 1.387 . S
C532 C535 1.387 . S
H533 C529 0.950 . S
H534 C531 0.950 . S
C535 C526 1.390 . S
C535 H528 0.950 . S
C535 C532 1.387 . S
C536 C537 1.387 . S
C536 H540 0.950 . S
C536 C545 1.390 . S
C537 C536 1.387 . S
C537 C539 1.387 . S
H538 C545 0.950 . S
C539 C537 1.387 . S
C539 C541 1.390 . S
C539 H543 0.950 . S
H540 C536 0.950 . S
C541 C539 1.390 . S
C541 C542 1.387 . S
C541 H544 0.950 . S
C542 C541 1.387 . S
C542 C545 1.387 . S
H543 C539 0.950 . S
H544 C541 0.950 . S
C545 C536 1.390 . S
C545 H538 0.950 . S
C545 C542 1.387 . S
C546 C547 1.387 . S
C546 H550 0.950 . S
C546 C555 1.390 . S
C547 C546 1.387 . S
C547 C549 1.387 . S
H548 C555 0.950 . S
C549 C547 1.387 . S
C549 C551 1.390 . S
C549 H553 0.950 . S
H550 C546 0.950 . S
C551 C549 1.390 . S
C551 C552 1.387 . S
C551 H554 0.950 . S
C552 C551 1.387 . S
C552 C555 1.387 . S
H553 C549 0.950 . S
H554 C551 0.950 . S
C555 C546 1.390 . S
C555 H548 0.950 . S
C555 C552 1.387 . S
C556 C557 1.387 . S
C556 H560 0.950 . S
C556 C565 1.390 . S
C557 C556 1.387 . S
C557 C559 1.387 . S
H558 C565 0.950 . S
C559 C557 1.387 . S
C559 C561 1.390 . S
C559 H563 0.950 . S
H560 C556 0.950 . S
C561 C559 1.390 . S
C561 C562 1.387 . S
C561 H564 0.950 . S
C562 C561 1.387 . S
C562 C565 1.387 . S
H563 C559 0.950 . S
H564 C561 0.950 . S
C565 C556 1.390 . S
C565 H558 0.950 . S
C565 C562 1.387 . S
C566 C567 1.387 . S
C566 H570 0.950 . S
C566 C575 1.390 . S
C567 C566 1.387 . S
C567 C569 1.387 . S
H568 C575 0.950 . S
C569 C567 1.387 . S
C569 C571 1.390 . S
C569 H573 0.950 . S
H570 C566 0.950 . S
C571 C569 1.390 . S
C571 C572 1.387 . S
C571 H574 0.950 . S
C572 C571 1.387 . S
C572 C575 1.387 . S
H573 C569 0.950 . S
H574 C571 0.950 . S
C575 C566 1.390 . S
C575 H568 0.950 . S
C575 C572 1.387 . S
C576 C577 1.387 . S
C576 H580 0.950 . S
C576 C585 1.390 . S
C577 C576 1.387 . S
C577 C579 1.387 . S
H578 C585 0.950 . S
C579 C577 1.387 . S
C579 C581 1.390 . S
C579 H583 0.950 . S
H580 C576 0.950 . S
C581 C579 1.390 . S
C581 C582 1.387 . S
C581 H584 0.950 . S
C582 C581 1.387 . S
C582 C585 1.387 . S
H583 C579 0.950 . S
H584 C581 0.950 . S
C585 C576 1.390 . S
C585 H578 0.950 . S
C585 C582 1.387 . S
C586 C587 1.387 . S
C586 H590 0.950 . S
C586 C595 1.390 . S
C587 C586 1.387 . S
C587 C589 1.387 . S
H588 C595 0.950 . S
C589 C587 1.387 . S
C589 C591 1.390 . S
C589 H593 0.950 . S
H590 C586 0.950 . S
C591 C589 1.390 . S
C591 C592 1.387 . S
C591 H594 0.950 . S
C592 C591 1.387 . S
C592 C595 1.387 . S
H593 C589 0.950 . S
H594 C591 0.950 . S
C595 C586 1.390 . S
C595 H588 0.950 . S
C595 C592 1.387 . S
C596 C597 1.387 . S
C596 H600 0.950 . S
C596 C605 1.390 . S
C597 C596 1.387 . S
C597 C599 1.387 . S
H598 C605 0.950 . S
C599 C597 1.387 . S
C599 C601 1.390 . S
C599 H603 0.950 . S
H600 C596 0.950 . S
C601 C599 1.390 . S
C601 C602 1.387 . S
C601 H604 0.950 . S
C602 C601 1.387 . S
C602 C605 1.387 . S
H603 C599 0.950 . S
H604 C601 0.950 . S
C605 C596 1.390 . S
C605 H598 0.950 . S
C605 C602 1.387 . S
C606 C607 1.387 1_556 S
C606 H610 0.950 . S
C606 C615 1.390 . S
C607 C606 1.387 1_554 S
C607 C609 1.387 . S
H608 C615 0.950 . S
C609 C607 1.387 . S
C609 C611 1.390 . S
C609 H613 0.950 . S
H610 C606 0.950 . S
C611 C609 1.390 . S
C611 C612 1.387 1_554 S
C611 H614 0.950 . S
C612 C611 1.387 1_556 S
C612 C615 1.387 . S
H613 C609 0.950 . S
H614 C611 0.950 . S
C615 C606 1.390 . S
C615 H608 0.950 . S
C615 C612 1.387 . S
C616 C617 1.387 1_556 S
C616 H620 0.950 1_556 S
C616 C625 1.390 . S
C617 C616 1.387 1_554 S
C617 C619 1.387 1_554 S
H618 C625 0.950 . S
C619 C617 1.387 1_556 S
C619 C621 1.390 . S
C619 H623 0.951 . S
H620 C616 0.950 1_554 S
C621 C619 1.390 . S
C621 C622 1.387 . S
C621 H624 0.950 . S
C622 C621 1.387 . S
C622 C625 1.387 . S
H623 C619 0.951 . S
H624 C621 0.950 . S
C625 C616 1.390 . S
C625 H618 0.950 . S
C625 C622 1.387 . S
C626 C627 1.387 1_556 S
C626 H630 0.950 . S
C626 C635 1.390 . S
C627 C626 1.387 1_554 S
C627 C629 1.387 . S
H628 C635 0.950 . S
C629 C627 1.387 . S
C629 C631 1.390 . S
C629 H633 0.950 . S
H630 C626 0.950 . S
C631 C629 1.390 . S
C631 C632 1.387 1_554 S
C631 H634 0.950 . S
C632 C631 1.387 1_556 S
C632 C635 1.387 . S
H633 C629 0.950 . S
H634 C631 0.950 . S
C635 C626 1.390 . S
C635 H628 0.950 . S
C635 C632 1.387 . S
C636 C637 1.387 . S
C636 H640 0.950 . S
C636 C645 1.390 . S
C637 C636 1.387 . S
C637 C639 1.387 . S
H638 C645 0.950 . S
C639 C637 1.387 . S
C639 C641 1.390 . S
C639 H643 0.950 . S
H640 C636 0.950 . S
C641 C639 1.390 . S
C641 C642 1.387 . S
C641 H644 0.950 . S
C642 C641 1.387 . S
C642 C645 1.387 . S
H643 C639 0.950 . S
H644 C641 0.950 . S
C645 C636 1.390 . S
C645 H638 0.950 . S
C645 C642 1.387 . S
C646 C647 1.387 . S
C646 H650 0.950 . S
C646 C655 1.390 . S
C647 C646 1.387 . S
C647 C649 1.387 . S
H648 C655 0.950 . S
C649 C647 1.387 . S
C649 C651 1.390 . S
C649 H653 0.950 . S
H650 C646 0.950 . S
C651 C649 1.390 . S
C651 C652 1.387 . S
C651 H654 0.950 . S
C652 C651 1.387 . S
C652 C655 1.387 . S
H653 C649 0.950 . S
H654 C651 0.950 . S
C655 C646 1.390 . S
C655 H648 0.950 . S
C655 C652 1.387 . S
C656 C657 1.387 . S
C656 H660 0.950 . S
C656 C665 1.390 . S
C657 C656 1.387 . S
C657 C659 1.387 . S
H658 C665 0.950 . S
C659 C657 1.387 . S
C659 C661 1.390 . S
C659 H663 0.950 . S
H660 C656 0.950 . S
C661 C659 1.390 . S
C661 C662 1.387 . S
C661 H664 0.950 . S
C662 C661 1.387 . S
C662 C665 1.387 . S
H663 C659 0.950 . S
H664 C661 0.950 . S
C665 C656 1.390 . S
C665 H658 0.950 . S
C665 C662 1.387 . S
C666 C667 1.387 . S
C666 H670 0.950 . S
C666 C675 1.390 1_556 S
C667 C666 1.387 . S
C667 C669 1.387 1_556 S
H668 C675 0.950 . S
C669 C667 1.387 1_554 S
C669 C671 1.390 . S
C669 H673 0.950 . S
H670 C666 0.950 . S
C671 C669 1.390 . S
C671 C672 1.387 . S
C671 H674 0.950 . S
C672 C671 1.387 . S
C672 C675 1.387 . S
H673 C669 0.950 . S
H674 C671 0.950 . S
C675 C666 1.390 1_554 S
C675 H668 0.950 . S
C675 C672 1.387 . S
C676 C677 1.387 1_554 S
C676 H680 0.950 . S
C676 C685 1.390 . S
C677 C676 1.387 1_556 S
C677 C679 1.387 1_556 S
H678 C685 0.950 . S
C679 C677 1.387 1_554 S
C679 C681 1.390 . S
C679 H683 0.950 1_554 S
H680 C676 0.950 . S
C681 C679 1.390 . S
C681 C682 1.387 . S
C681 H684 0.950 . S
C682 C681 1.387 . S
C682 C685 1.387 . S
H683 C679 0.950 1_556 S
H684 C681 0.950 . S
C685 C676 1.390 . S
C685 H678 0.950 . S
C685 C682 1.387 . S
C686 C687 1.387 1_554 S
C686 H690 0.950 . S
C686 C695 1.390 . S
C687 C686 1.387 1_556 S
C687 C689 1.387 . S
H688 C695 0.950 . S
C689 C687 1.387 . S
C689 C691 1.394 . S
C689 H693 0.950 . S
H690 C686 0.950 . S
C691 C689 1.394 . S
C691 C692 1.381 1_556 S
C691 H694 0.953 . S
C692 C691 1.381 1_554 S
C692 C695 1.387 . S
H693 C689 0.950 . S
H694 C691 0.953 . S
C695 C686 1.390 . S
C695 H688 0.950 . S
C695 C692 1.387 . S
C696 C697 1.387 . S
C696 H700 0.950 . S
C696 C705 1.390 . S
C697 C696 1.387 . S
C697 C699 1.387 . S
H698 C705 0.950 . S
C699 C697 1.387 . S
C699 C701 1.390 . S
C699 H703 0.950 . S
H700 C696 0.950 . S
C701 C699 1.390 . S
C701 C702 1.387 . S
C701 H704 0.950 . S
C702 C701 1.387 . S
C702 C705 1.387 . S
H703 C699 0.950 . S
H704 C701 0.950 . S
C705 C696 1.390 . S
C705 H698 0.950 . S
C705 C702 1.387 . S
C706 C707 1.387 . S
C706 H710 0.950 . S
C706 C715 1.390 . S
C707 C706 1.387 . S
C707 C709 1.387 . S
H708 C715 0.950 . S
C709 C707 1.387 . S
C709 C711 1.390 . S
C709 H713 0.950 . S
H710 C706 0.950 . S
C711 C709 1.390 . S
C711 C712 1.387 . S
C711 H714 0.950 . S
C712 C711 1.387 . S
C712 C715 1.387 . S
H713 C709 0.950 . S
H714 C711 0.950 . S
C715 C706 1.390 . S
C715 H708 0.950 . S
C715 C712 1.387 . S
C716 C717 1.387 . S
C716 H720 0.950 . S
C716 C725 1.390 . S
C717 C716 1.387 . S
C717 C719 1.387 . S
H718 C725 0.950 . S
C719 C717 1.387 . S
C719 C721 1.390 . S
C719 H723 0.950 . S
H720 C716 0.950 . S
C721 C719 1.390 . S
C721 C722 1.387 . S
C721 H724 0.950 . S
C722 C721 1.387 . S
C722 C725 1.387 . S
H723 C719 0.950 . S
H724 C721 0.950 . S
C725 C716 1.390 . S
C725 H718 0.950 . S
C725 C722 1.387 . S
C726 C727 1.387 . S
C726 H730 0.950 . S
C726 C735 1.390 . S
C727 C726 1.387 . S
C727 C729 1.387 . S
H728 C735 0.950 . S
C729 C727 1.387 . S
C729 C731 1.390 . S
C729 H733 0.950 . S
H730 C726 0.950 . S
C731 C729 1.390 . S
C731 C732 1.387 . S
C731 H734 0.950 . S
C732 C731 1.387 . S
C732 C735 1.387 . S
H733 C729 0.950 . S
H734 C731 0.950 . S
C735 C726 1.390 . S
C735 H728 0.950 . S
C735 C732 1.387 . S
C736 C737 1.387 . S
C736 H740 0.950 . S
C736 C745 1.390 . S
C737 C736 1.387 . S
C737 C739 1.387 . S
H738 C745 0.950 . S
C739 C737 1.387 . S
C739 C741 1.390 . S
C739 H743 0.950 . S
H740 C736 0.950 . S
C741 C739 1.390 . S
C741 C742 1.387 . S
C741 H744 0.950 . S
C742 C741 1.387 . S
C742 C745 1.387 . S
H743 C739 0.950 . S
H744 C741 0.950 . S
C745 C736 1.390 . S
C745 H738 0.950 . S
C745 C742 1.387 . S
C746 C747 1.387 . S
C746 H750 0.950 . S
C746 C755 1.390 . S
C747 C746 1.387 . S
C747 C749 1.387 . S
H748 C755 0.950 . S
C749 C747 1.387 . S
C749 C751 1.390 . S
C749 H753 0.950 . S
H750 C746 0.950 . S
C751 C749 1.390 . S
C751 C752 1.387 . S
C751 H754 0.950 . S
C752 C751 1.387 . S
C752 C755 1.387 . S
H753 C749 0.950 . S
H754 C751 0.950 . S
C755 C746 1.390 . S
C755 H748 0.950 . S
C755 C752 1.387 . S
C756 C757 1.387 . S
C756 H760 0.950 . S
C756 C765 1.390 . S
C757 C756 1.387 . S
C757 C759 1.387 . S
H758 C765 0.950 . S
C759 C757 1.387 . S
C759 C761 1.390 . S
C759 H763 0.950 . S
H760 C756 0.950 . S
C761 C759 1.390 . S
C761 C762 1.387 . S
C761 H764 0.950 . S
C762 C761 1.387 . S
C762 C765 1.387 . S
H763 C759 0.950 . S
H764 C761 0.950 . S
C765 C756 1.390 . S
C765 H758 0.950 . S
C765 C762 1.387 . S
C766 C767 1.387 . S
C766 H770 0.950 . S
C766 C775 1.390 . S
C767 C766 1.387 . S
C767 C769 1.387 . S
H768 C775 0.950 . S
C769 C767 1.387 . S
C769 C771 1.390 . S
C769 H773 0.950 . S
H770 C766 0.950 . S
C771 C769 1.390 . S
C771 C772 1.387 . S
C771 H774 0.950 . S
C772 C771 1.387 . S
C772 C775 1.387 . S
H773 C769 0.950 . S
H774 C771 0.950 . S
C775 C766 1.390 . S
C775 H768 0.950 . S
C775 C772 1.387 . S
C776 C777 1.387 . S
C776 H780 0.950 . S
C776 C785 1.390 . S
C777 C776 1.387 . S
C777 C779 1.387 . S
H778 C785 0.950 . S
C779 C777 1.387 . S
C779 C781 1.390 . S
C779 H783 0.950 1_565 S
H780 C776 0.950 . S
C781 C779 1.390 . S
C781 C782 1.387 . S
C781 H784 0.950 1_565 S
C782 C781 1.387 . S
C782 C785 1.387 . S
H783 C779 0.950 1_545 S
H784 C781 0.950 1_545 S
C785 C776 1.390 . S
C785 H778 0.950 . S
C785 C782 1.387 . S
C786 C787 1.387 . S
C786 H790 0.950 . S
C786 C795 1.390 . S
C787 C786 1.387 . S
C787 C789 1.387 . S
H788 C795 0.950 . S
C789 C787 1.387 . S
C789 C791 1.390 . S
C789 H793 0.950 . S
H790 C786 0.950 . S
C791 C789 1.390 . S
C791 C792 1.387 . S
C791 H794 0.950 . S
C792 C791 1.387 . S
C792 C795 1.387 . S
H793 C789 0.950 . S
H794 C791 0.950 . S
C795 C786 1.390 . S
C795 H788 0.950 . S
C795 C792 1.387 . S
C796 C797 1.387 . S
C796 H800 0.950 1_655 S
C796 C805 1.390 . S
C797 C796 1.387 . S
C797 C799 1.387 . S
H798 C805 0.950 . S
C799 C797 1.387 . S
C799 C801 1.390 . S
C799 H803 0.950 . S
H800 C796 0.950 1_455 S
C801 C799 1.390 . S
C801 C802 1.387 . S
C801 H804 0.950 . S
C802 C801 1.387 . S
C802 C805 1.387 . S
H803 C799 0.950 . S
H804 C801 0.950 . S
C805 C796 1.390 . S
C805 H798 0.950 . S
C805 C802 1.387 . S
C806 C807 1.387 . S
C806 H810 0.950 . S
C806 C815 1.390 . S
C807 C806 1.387 . S
C807 C809 1.387 . S
H808 C815 0.950 . S
C809 C807 1.387 . S
C809 C811 1.390 . S
C809 H813 0.950 . S
H810 C806 0.950 . S
C811 C809 1.390 . S
C811 C812 1.387 . S
C811 H814 0.950 . S
C812 C811 1.387 . S
C812 C815 1.387 . S
H813 C809 0.950 . S
H814 C811 0.950 . S
C815 C806 1.390 . S
C815 H808 0.950 . S
C815 C812 1.387 . S
C816 C817 1.387 . S
C816 H820 0.950 . S
C816 C825 1.390 . S
C817 C816 1.387 . S
C817 C819 1.387 . S
H818 C825 0.950 . S
C819 C817 1.387 . S
C819 C821 1.390 . S
C819 H823 0.950 . S
H820 C816 0.950 . S
C821 C819 1.390 . S
C821 C822 1.387 . S
C821 H824 0.950 . S
C822 C821 1.387 . S
C822 C825 1.387 . S
H823 C819 0.950 . S
H824 C821 0.950 . S
C825 C816 1.390 . S
C825 H818 0.950 . S
C825 C822 1.387 . S
C826 C827 1.387 . S
C826 H830 0.950 . S
C826 C835 1.390 . S
C827 C826 1.387 . S
C827 C829 1.387 . S
H828 C835 0.950 . S
C829 C827 1.387 . S
C829 C831 1.390 . S
C829 H833 0.950 . S
H830 C826 0.950 . S
C831 C829 1.390 . S
C831 C832 1.387 . S
C831 H834 0.950 . S
C832 C831 1.387 . S
C832 C835 1.387 . S
H833 C829 0.950 . S
H834 C831 0.950 . S
C835 C826 1.390 . S
C835 H828 0.950 . S
C835 C832 1.387 . S
C836 C837 1.387 . S
C836 H840 0.950 1_545 S
C836 C845 1.390 . S
C837 C836 1.387 . S
C837 C839 1.387 . S
H838 C845 0.950 . S
C839 C837 1.387 . S
C839 C841 1.390 . S
C839 H843 0.950 . S
H840 C836 0.950 1_565 S
C841 C839 1.390 . S
C841 C842 1.387 . S
C841 H844 0.950 . S
C842 C841 1.387 . S
C842 C845 1.387 . S
H843 C839 0.950 . S
H844 C841 0.950 . S
C845 C836 1.390 . S
C845 H838 0.950 . S
C845 C842 1.387 . S
C846 C847 1.387 . S
C846 H850 0.950 . S
C846 C855 1.390 . S
C847 C846 1.387 . S
C847 C849 1.387 . S
H848 C855 0.950 . S
C849 C847 1.387 . S
C849 C851 1.390 . S
C849 H853 0.950 1_565 S
H850 C846 0.950 . S
C851 C849 1.390 . S
C851 C852 1.387 . S
C851 H854 0.950 1_565 S
C852 C851 1.387 . S
C852 C855 1.387 . S
H853 C849 0.950 1_545 S
H854 C851 0.950 1_545 S
C855 C846 1.390 . S
C855 H848 0.950 . S
C855 C852 1.387 . S
C856 C857 1.387 . S
C856 H860 0.950 . S
C856 C865 1.390 . S
C857 C856 1.387 . S
C857 C859 1.387 . S
H858 C865 0.950 . S
C859 C857 1.387 . S
C859 C861 1.390 . S
C859 H863 0.950 . S
H860 C856 0.950 . S
C861 C859 1.390 . S
C861 C862 1.387 . S
C861 H864 0.950 . S
C862 C861 1.387 . S
C862 C865 1.387 . S
H863 C859 0.950 . S
H864 C861 0.950 . S
C865 C856 1.390 . S
C865 H858 0.950 . S
C865 C862 1.387 . S
C866 C867 1.387 . S
C866 H870 0.950 . S
C866 C875 1.390 . S
C867 C866 1.387 . S
C867 C869 1.387 . S
H868 C875 0.950 . S
C869 C867 1.387 . S
C869 C871 1.390 . S
C869 H873 0.950 . S
H870 C866 0.950 . S
C871 C869 1.390 . S
C871 C872 1.387 . S
C871 H874 0.950 . S
C872 C871 1.387 . S
C872 C875 1.387 . S
H873 C869 0.950 . S
H874 C871 0.950 . S
C875 C866 1.390 . S
C875 H868 0.950 . S
C875 C872 1.387 . S
C876 C877 1.387 1_565 S
C876 H880 0.950 . S
C876 C885 1.390 1_565 S
C877 C876 1.387 1_545 S
C877 C879 1.387 . S
H878 C885 0.950 1_565 S
C879 C877 1.387 . S
C879 C881 1.390 . S
C879 H883 0.950 . S
H880 C876 0.950 . S
C881 C879 1.390 . S
C881 C882 1.387 . S
C881 H884 0.950 . S
C882 C881 1.387 . S
C882 C885 1.387 . S
H883 C879 0.950 . S
H884 C881 0.950 . S
C885 C876 1.390 1_545 S
C885 H878 0.950 1_545 S
C885 C882 1.387 . S
C886 C887 1.387 1_655 S
C886 H890 0.950 . S
C886 C895 1.390 . S
C887 C886 1.387 1_455 S
C887 C889 1.387 . S
H888 C895 0.950 . S
C889 C887 1.387 . S
C889 C891 1.390 . S
C889 H893 0.950 . S
H890 C886 0.950 . S
C891 C889 1.390 . S
C891 C892 1.387 . S
C891 H894 0.950 . S
C892 C891 1.387 . S
C892 C895 1.387 1_455 S
H893 C889 0.950 . S
H894 C891 0.950 . S
C895 C886 1.390 . S
C895 H888 0.950 . S
C895 C892 1.387 1_655 S
C896 C897 1.387 . S
C896 H900 0.950 . S
C896 C905 1.390 . S
C897 C896 1.387 . S
C897 C899 1.387 . S
H898 C905 0.950 . S
C899 C897 1.387 . S
C899 C901 1.390 . S
C899 H903 0.950 . S
H900 C896 0.950 . S
C901 C899 1.390 . S
C901 C902 1.387 . S
C901 H904 0.950 . S
C902 C901 1.387 . S
C902 C905 1.387 . S
H903 C899 0.950 . S
H904 C901 0.950 . S
C905 C896 1.390 . S
C905 H898 0.950 . S
C905 C902 1.387 . S
C906 C907 1.387 1_655 S
C906 H910 0.950 . S
C906 C915 1.390 . S
C907 C906 1.387 1_455 S
C907 C909 1.387 . S
H908 C915 0.950 . S
C909 C907 1.387 . S
C909 C911 1.390 . S
C909 H913 0.950 . S
H910 C906 0.950 . S
C911 C909 1.390 . S
C911 C912 1.387 . S
C911 H914 0.950 . S
C912 C911 1.387 . S
C912 C915 1.387 1_455 S
H913 C909 0.950 . S
H914 C911 0.950 . S
C915 C906 1.390 . S
C915 H908 0.950 . S
C915 C912 1.387 1_655 S
C916 C917 1.387 . S
C916 H920 0.950 . S
C916 C925 1.390 . S
C917 C916 1.387 . S
C917 C919 1.387 . S
H918 C925 0.950 . S
C919 C917 1.387 . S
C919 C921 1.390 . S
C919 H923 0.950 . S
H920 C916 0.950 . S
C921 C919 1.390 . S
C921 C922 1.387 . S
C921 H924 0.950 . S
C922 C921 1.387 . S
C922 C925 1.387 . S
H923 C919 0.950 . S
H924 C921 0.950 . S
C925 C916 1.390 . S
C925 H918 0.950 . S
C925 C922 1.387 . S
C926 C927 1.387 1_565 S
C926 H930 0.950 . S
C926 C935 1.390 . S
C927 C926 1.387 1_545 S
C927 C929 1.387 . S
H928 C935 0.950 . S
C929 C927 1.387 . S
C929 C931 1.390 . S
C929 H933 0.950 . S
H930 C926 0.950 . S
C931 C929 1.390 . S
C931 C932 1.387 . S
C931 H934 0.950 . S
C932 C931 1.387 . S
C932 C935 1.387 1_545 S
H933 C929 0.950 . S
H934 C931 0.950 . S
C935 C926 1.390 . S
C935 H928 0.950 . S
C935 C932 1.387 1_565 S
C397 C249 1.382 . S
C402 C8 1.434 . S
C407 C29 1.433 . S
C412 C213 1.396 . S
C417 C62 1.395 . S
C422 C241 1.349 . S
C427 C337 1.379 . S
C432 C51 1.422 . S
C437 C21 1.415 . S
C442 C370 1.373 . S
C447 C40 1.405 . S
C452 C381 1.356 . S
C457 C316 1.333 . S
C462 C84 1.385 . S
C467 C103 1.406 . S
C472 C282 1.361 . S
C477 C118 1.395 . S
C482 C307 1.344 . S
C487 C147 1.377 . S
C492 C131 1.412 . S
C497 C73 1.453 . S
C502 C175 1.412 . S
C507 C191 1.361 . S
C512 C98 1.411 . S
C517 C382 1.362 . S
C522 C140 1.412 . S
C527 C338 1.329 1_565 S
C532 C172 1.382 . S
C537 C367 1.345 . S
C542 C184 1.392 . S
C547 C87 1.380 . S
C552 C197 1.418 . S
C557 C96 1.397 . S
C562 C153 1.440 . S
C567 C161 1.449 . S
C572 C125 1.414 . S
C577 C54 1.410 . S
C582 C219 1.447 . S
C587 C18 1.376 . S
C592 C227 1.419 . S
C597 C257 1.426 . S
C602 C43 1.391 . S
C607 C252 1.383 . S
C612 C279 1.332 . S
C617 C206 1.402 . S
C622 C296 1.350 1_565 S
C627 C238 1.413 . S
C632 C315 1.364 . S
C637 C272 1.408 . S
C642 C128 1.361 . S
C647 C293 1.428 . S
C652 C76 1.387 . S
C657 C318 1.418 . S
C662 C95 1.369 . S
C667 C323 1.397 . S
C672 C216 1.357 . S
C677 C285 1.437 . S
C682 C230 1.394 . S
C687 C304 1.396 . S
C692 C250 1.345 1_655 S
C697 C340 1.418 . S
C702 C194 1.367 . S
C707 C373 1.420 . S
C712 C150 1.378 . S
C717 C164 1.329 1_655 S
C722 C384 1.377 . S
C727 C15 1.408 . S
C732 C389 1.445 . S
C737 C32 1.398 . S
C742 C345 1.437 . S
C747 C360 1.427 . S
C752 C65 1.379 . S
C757 C162 1.279 . S
C762 C7 1.293 . S
C767 C186 1.262 . S
C772 C30 1.262 . S
C777 C142 1.279 . S
C782 C59 1.293 . S
C787 C294 1.261 . S
C792 C52 1.261 . S
C797 C10 1.286 . S
C802 C329 1.299 1_554 S
C807 C37 1.320 . S
C812 C271 1.319 1_554 S
C817 C81 1.321 . S
C822 C359 1.321 . S
C827 C106 1.262 . S
C832 C392 1.261 . S
C837 C117 1.298 . S
C842 C348 1.283 . S
C847 C120 1.266 . S
C852 C228 1.290 . S
C857 C260 1.265 . S
C862 C74 1.265 . S
C867 C109 1.293 . S
C872 C208 1.279 . S
C877 C139 1.319 1_545 S
C882 C301 1.319 . S
C887 C169 1.305 . S
C892 C326 1.293 1_455 S
C897 C183 1.303 . S
C902 C274 1.289 . S
C907 C263 1.303 . S
C912 C362 1.291 1_455 S
C917 C395 1.320 . S
C922 C205 1.319 . S
C927 C351 1.317 . S
C932 C235 1.318 1_545 S
