# Generated by pormake.
# Topology uof, (4)-cn, num edge types: 1
# Building blocks:
#     Node 0, Type 0, BuildingBlock: NAHDIM_clean_sbu_0, # of connection points: 4
#     Node 1, Type 0, BuildingBlock: NAHDIM_clean_sbu_0, # of connection points: 4
#     Node 2, Type 0, BuildingBlock: NAHDIM_clean_sbu_0, # of connection points: 4
#     Node 3, Type 0, BuildingBlock: NAHDIM_clean_sbu_0, # of connection points: 4
#     Node 4, Type 0, BuildingBlock: NAHDIM_clean_sbu_0, # of connection points: 4
#     Node 5, Type 0, BuildingBlock: NAHDIM_clean_sbu_0, # of connection points: 4
#     Node 6, Type 0, BuildingBlock: NAHDIM_clean_sbu_0, # of connection points: 4
#     Node 7, Type 0, BuildingBlock: NAHDIM_clean_sbu_0, # of connection points: 4
#     Node 8, Type 0, BuildingBlock: NAHDIM_clean_sbu_0, # of connection points: 4
#     Node 9, Type 0, BuildingBlock: NAHDIM_clean_sbu_0, # of connection points: 4
#     Node 10, Type 0, BuildingBlock: NAHDIM_clean_sbu_0, # of connection points: 4
#     Node 11, Type 0, BuildingBlock: NAHDIM_clean_sbu_0, # of connection points: 4
#     Edge 12, Type (0, 0), BuildingBlock: AJUNOK_clean_linker_0, # of connection points: 2
#     Edge 13, Type (0, 0), BuildingBlock: AJUNOK_clean_linker_0, # of connection points: 2
#     Edge 14, Type (0, 0), BuildingBlock: AJUNOK_clean_linker_0, # of connection points: 2
#     Edge 15, Type (0, 0), BuildingBlock: AJUNOK_clean_linker_0, # of connection points: 2
#     Edge 16, Type (0, 0), BuildingBlock: AJUNOK_clean_linker_0, # of connection points: 2
#     Edge 17, Type (0, 0), BuildingBlock: AJUNOK_clean_linker_0, # of connection points: 2
#     Edge 18, Type (0, 0), BuildingBlock: AJUNOK_clean_linker_0, # of connection points: 2
#     Edge 19, Type (0, 0), BuildingBlock: AJUNOK_clean_linker_0, # of connection points: 2
#     Edge 20, Type (0, 0), BuildingBlock: AJUNOK_clean_linker_0, # of connection points: 2
#     Edge 21, Type (0, 0), BuildingBlock: AJUNOK_clean_linker_0, # of connection points: 2
#     Edge 22, Type (0, 0), BuildingBlock: AJUNOK_clean_linker_0, # of connection points: 2
#     Edge 23, Type (0, 0), BuildingBlock: AJUNOK_clean_linker_0, # of connection points: 2
#     Edge 24, Type (0, 0), BuildingBlock: AJUNOK_clean_linker_0, # of connection points: 2
#     Edge 25, Type (0, 0), BuildingBlock: AJUNOK_clean_linker_0, # of connection points: 2
#     Edge 26, Type (0, 0), BuildingBlock: AJUNOK_clean_linker_0, # of connection points: 2
#     Edge 27, Type (0, 0), BuildingBlock: AJUNOK_clean_linker_0, # of connection points: 2
#     Edge 28, Type (0, 0), BuildingBlock: AJUNOK_clean_linker_0, # of connection points: 2
#     Edge 29, Type (0, 0), BuildingBlock: AJUNOK_clean_linker_0, # of connection points: 2
#     Edge 30, Type (0, 0), BuildingBlock: AJUNOK_clean_linker_0, # of connection points: 2
#     Edge 31, Type (0, 0), BuildingBlock: AJUNOK_clean_linker_0, # of connection points: 2
#     Edge 32, Type (0, 0), BuildingBlock: AJUNOK_clean_linker_0, # of connection points: 2
#     Edge 33, Type (0, 0), BuildingBlock: AJUNOK_clean_linker_0, # of connection points: 2
#     Edge 34, Type (0, 0), BuildingBlock: AJUNOK_clean_linker_0, # of connection points: 2
#     Edge 35, Type (0, 0), BuildingBlock: AJUNOK_clean_linker_0, # of connection points: 2
# Relax obj value: 0.212
# Max RMSD: 0.168
# Mean RMSD: 0.168
data_MOF--net-uof--node1-NAHDIM_clean_sbu_0--edge1-AJUNOK_clean_linker_0
_symmetry_space_group_name_H-M    P1
_symmetry_Int_Tables_number       1
_symmetry_cell_setting            triclinic
loop_
_symmetry_equiv_pos_as_xyz
'x, y, z'
_cell_length_a     24.22863
_cell_length_b     24.180686
_cell_length_c     44.728584
_cell_angle_alpha  89.987966
_cell_angle_beta   89.889155
_cell_angle_gamma 119.92864
loop_
_atom_site_label
_atom_site_type_symbol
_atom_site_fract_x
_atom_site_fract_y
_atom_site_fract_z
_atom_type_partial_charge
C0 C 0.10343 0.26899 0.19841 0.0
O1 O 0.11025 0.23023 0.21667 0.0
O2 O 0.21998 0.31371 0.25811 0.0
Zn3 Zn 0.22917 0.32938 0.21337 0.0
O4 O 0.23138 0.25412 0.19636 0.0
C5 C 0.34426 0.44613 0.22526 0.0
O6 O 0.31286 0.44274 0.24982 0.0
O7 O 0.15089 0.32459 0.19424 0.0
C8 C 0.28075 0.25231 0.18844 0.0
O9 O 0.33703 0.30382 0.19055 0.0
C10 C 0.25947 0.29945 0.26941 0.0
O11 O 0.3022 0.29794 0.2519 0.0
O12 O 0.31491 0.40666 0.20439 0.0
C13 C 0.80968 0.11999 0.53259 0.0
O14 O 0.81402 0.11006 0.56114 0.0
O15 O 0.91674 0.22252 0.58993 0.0
Zn16 Zn 0.9205 0.24322 0.54583 0.0
O17 O 0.99748 0.24362 0.52973 0.0
C18 C 0.96529 0.37328 0.56174 0.0
O19 O 0.96914 0.35022 0.58774 0.0
O20 O 0.84668 0.17516 0.5218 0.0
C21 C 0.05258 0.27998 0.54034 0.0
O22 O 0.0595 0.31959 0.56199 0.0
C23 C 0.94639 0.19548 0.60008 0.0
O24 O 0.9707 0.17139 0.58142 0.0
O25 O 0.93964 0.33476 0.54001 0.0
C26 C 0.69985 0.81444 0.85525 0.0
O27 O 0.72761 0.83113 0.8815 0.0
O28 O 0.6839 0.91097 0.91462 0.0
Zn29 Zn 0.66765 0.9111 0.87005 0.0
O30 O 0.74488 0.98983 0.85534 0.0
C31 C 0.55293 0.9124 0.8851 0.0
O32 O 0.55413 0.87898 0.90798 0.0
O33 O 0.66615 0.83832 0.84661 0.0
C34 C 0.74667 0.04233 0.85004 0.0
O35 O 0.69424 0.0455 0.85204 0.0
C36 C 0.69416 0.96213 0.92761 0.0
O37 O 0.69015 0.00569 0.91178 0.0
O38 O 0.5921 0.92446 0.86378 0.0
C39 C 0.8722 0.68253 0.19972 0.0
O40 O 0.88186 0.69392 0.2285 0.0
O41 O 0.77232 0.68764 0.25803 0.0
Zn42 Zn 0.75076 0.67299 0.21408 0.0
O43 O 0.75059 0.75038 0.19875 0.0
C44 C 0.62174 0.59057 0.23129 0.0
O45 O 0.64642 0.61914 0.25675 0.0
O46 O 0.81757 0.66676 0.18912 0.0
C47 C 0.71769 0.77204 0.21076 0.0
O48 O 0.68221 0.74286 0.23416 0.0
C49 C 0.7992 0.74318 0.26946 0.0
O50 O 0.82469 0.79333 0.25184 0.0
O51 O 0.65882 0.60137 0.20907 0.0
C52 C 0.20683 0.8946 0.52471 0.0
O53 O 0.19038 0.9015 0.55186 0.0
O54 O 0.08684 0.77922 0.57562 0.0
Zn55 Zn 0.10007 0.76554 0.53209 0.0
O56 O 0.02428 0.76151 0.51206 0.0
C57 C 0.10002 0.65082 0.54999 0.0
O58 O 0.12566 0.68438 0.5743 0.0
O59 O 0.17807 0.8395 0.5128 0.0
C60 C 0.97655 0.70937 0.50369 0.0
O61 O 0.97896 0.65643 0.50541 0.0
C62 C 0.03327 0.73713 0.58621 0.0
O63 O 0.99497 0.68915 0.56907 0.0
O64 O 0.09218 0.6784 0.52756 0.0
C65 C 0.30163 0.18906 0.86471 0.0
O66 O 0.27144 0.17182 0.89045 0.0
O67 O 0.30697 0.08444 0.92349 0.0
Zn68 Zn 0.32194 0.08516 0.87902 0.0
O69 O 0.23943 0.01426 0.86475 0.0
C70 C 0.42527 0.06239 0.89196 0.0
O71 O 0.42713 0.09305 0.9165 0.0
O72 O 0.3333 0.16276 0.85633 0.0
C73 C 0.23373 0.98302 0.84115 0.0
O74 O 0.28383 0.99989 0.82406 0.0
C75 C 0.28512 0.02889 0.93468 0.0
O76 O 0.27838 0.98232 0.91714 0.0
O77 O 0.38812 0.05861 0.87101 0.0
C78 C 0.71009 0.89819 0.45562 0.0
O79 O 0.7441 0.90599 0.43144 0.0
O80 O 0.7088 0.78439 0.40272 0.0
Zn81 Zn 0.67878 0.76837 0.44585 0.0
O82 O 0.74906 0.76369 0.46711 0.0
C83 C 0.56966 0.65068 0.42605 0.0
O84 O 0.58146 0.68224 0.40077 0.0
O85 O 0.67334 0.84168 0.46501 0.0
C86 C 0.74342 0.71161 0.47666 0.0
O87 O 0.68768 0.65932 0.47534 0.0
C88 C 0.72608 0.74597 0.39281 0.0
O89 O 0.7204 0.69987 0.41036 0.0
O90 O 0.59978 0.68064 0.44934 0.0
C91 C 0.81265 0.70841 0.77557 0.0
O92 O 0.83616 0.73925 0.75036 0.0
O93 O 0.91287 0.683 0.72032 0.0
Zn94 Zn 0.90729 0.67071 0.76517 0.0
O95 O 0.98572 0.74395 0.78171 0.0
C96 C 0.96857 0.59849 0.7677 0.0
O97 O 0.01317 0.65323 0.75683 0.0
O98 O 0.8326 0.67207 0.78533 0.0
C99 C 0.992 0.76275 0.80855 0.0
O100 O 0.94439 0.73249 0.82733 0.0
C101 C 0.9528 0.73671 0.70899 0.0
O102 O 0.983 0.7862 0.72669 0.0
O103 O 0.91441 0.59237 0.77387 0.0
C104 C 0.09536 0.8106 0.12403 0.0
O105 O 0.08921 0.84243 0.1017 0.0
O106 O 0.21858 0.91815 0.07104 0.0
Zn107 Zn 0.22539 0.90647 0.11554 0.0
O108 O 0.22442 0.97877 0.13648 0.0
C109 C 0.35906 0.96817 0.11428 0.0
O110 O 0.34811 0.01213 0.10325 0.0
O111 O 0.15121 0.8261 0.13273 0.0
C112 C 0.2604 0.01028 0.15799 0.0
O113 O 0.30014 0.99373 0.16921 0.0
C114 C 0.22586 0.97073 0.06099 0.0
O115 O 0.2314 0.01454 0.07999 0.0
O116 O 0.31177 0.9148 0.12211 0.0
C117 C 0.3259 0.12469 0.45326 0.0
O118 O 0.29808 0.11859 0.42734 0.0
O119 O 0.31311 0.23577 0.40475 0.0
Zn120 Zn 0.34179 0.24983 0.44779 0.0
O121 O 0.26844 0.24326 0.47055 0.0
C122 C 0.44098 0.37216 0.42785 0.0
O123 O 0.4326 0.33976 0.4031 0.0
O124 O 0.35496 0.17971 0.46529 0.0
C125 C 0.27409 0.2765 0.49345 0.0
O126 O 0.33121 0.31692 0.50351 0.0
C127 C 0.28463 0.26523 0.39615 0.0
O128 O 0.27421 0.29958 0.41567 0.0
O129 O 0.41327 0.34196 0.45161 0.0
C130 C 0.19157 0.29423 0.78407 0.0
O131 O 0.16691 0.26055 0.7597 0.0
O132 O 0.07304 0.28866 0.73244 0.0
Zn133 Zn 0.08897 0.32045 0.77549 0.0
O134 O 0.01882 0.25281 0.79985 0.0
C135 C 0.02438 0.39065 0.7726 0.0
O136 O 0.97893 0.33287 0.76587 0.0
O137 O 0.16958 0.32899 0.79368 0.0
C138 C 0.99058 0.26214 0.82149 0.0
O139 O 0.01062 0.32039 0.83114 0.0
C140 C 0.01706 0.24578 0.72489 0.0
O141 O 0.97213 0.22072 0.74528 0.0
O142 O 0.08018 0.39993 0.77763 0.0
C143 C 0.87959 0.14987 0.12214 0.0
O144 O 0.87115 0.09993 0.10676 0.0
O145 O 0.75666 0.06811 0.06464 0.0
Zn146 Zn 0.75277 0.08278 0.10895 0.0
O147 O 0.74896 0.0094 0.13105 0.0
C148 C 0.6215 0.02307 0.11391 0.0
O149 O 0.63221 0.97702 0.10589 0.0
O150 O 0.83283 0.15964 0.12477 0.0
C151 C 0.73261 0.99855 0.15833 0.0
O152 O 0.71811 0.03699 0.1727 0.0
C153 C 0.74786 0.01503 0.05454 0.0
O154 O 0.74088 0.97049 0.07346 0.0
O155 O 0.66883 0.07925 0.11697 0.0
C156 C 0.96641 0.14987 0.15132 0.0
C157 C 0.93732 0.18401 0.14092 0.0
C158 C 0.01942 0.17814 0.17005 0.0
C159 C 0.04682 0.24234 0.17876 0.0
H160 H 0.94735 0.10014 0.14545 0.0
H161 H 0.03955 0.14931 0.1775 0.0
S162 S 0.99008 0.35357 0.15725 0.0
N163 N 0.93971 0.28573 0.14071 0.0
N164 N 0.04168 0.33997 0.17527 0.0
C165 C 0.01917 0.27774 0.1682 0.0
C166 C 0.96373 0.24826 0.14954 0.0
C167 C 0.78889 0.07038 0.48167 0.0
C168 C 0.77314 0.06476 0.51226 0.0
C169 C 0.76499 0.01653 0.46313 0.0
C170 C 0.72392 0.95474 0.47428 0.0
H171 H 0.82288 0.11623 0.47222 0.0
H172 H 0.7813 0.02332 0.44015 0.0
S173 S 0.65918 0.91537 0.55156 0.0
N174 N 0.70746 0.99338 0.55198 0.0
N175 N 0.66221 0.89231 0.51715 0.0
C176 C 0.70357 0.94906 0.50423 0.0
C177 C 0.7283 0.00398 0.52319 0.0
C178 C 0.74659 0.74414 0.84544 0.0
C179 C 0.71744 0.77779 0.83429 0.0
C180 C 0.77358 0.71812 0.8262 0.0
C181 C 0.77339 0.72546 0.79498 0.0
H182 H 0.75074 0.73979 0.86933 0.0
H183 H 0.79781 0.69513 0.83604 0.0
S184 S 0.69705 0.8032 0.75408 0.0
N185 N 0.685 0.81184 0.78969 0.0
N186 N 0.73645 0.76381 0.75367 0.0
C187 C 0.74125 0.75579 0.78344 0.0
C188 C 0.71304 0.78163 0.80303 0.0
C189 C 0.92284 0.7168 0.14916 0.0
C190 C 0.92747 0.70242 0.17924 0.0
C191 C 0.97707 0.74828 0.13095 0.0
C192 C 0.03822 0.76623 0.14189 0.0
H193 H 0.87754 0.70718 0.14001 0.0
H194 H 0.97116 0.76117 0.10847 0.0
S195 S 0.07483 0.72973 0.21752 0.0
N196 N 0.99714 0.70136 0.21803 0.0
N197 N 0.09893 0.75999 0.18377 0.0
C198 C 0.04284 0.74733 0.17115 0.0
C199 C 0.98756 0.71565 0.18981 0.0
C200 C 0.30778 0.06907 0.50264 0.0
C201 C 0.30914 0.06659 0.47122 0.0
C202 C 0.27813 0.01307 0.51989 0.0
C203 C 0.24905 0.95224 0.50649 0.0
H204 H 0.32597 0.11443 0.51398 0.0
H205 H 0.27531 0.01772 0.54385 0.0
S206 S 0.25026 0.92006 0.42532 0.0
N207 N 0.28654 0.9986 0.42766 0.0
N208 N 0.23151 0.89349 0.45996 0.0
C209 C 0.25519 0.94927 0.47527 0.0
C210 C 0.28498 0.00636 0.45769 0.0
C211 C 0.25872 0.26224 0.85427 0.0
C212 C 0.28715 0.22759 0.84351 0.0
C213 C 0.23236 0.28824 0.83472 0.0
C214 C 0.23252 0.27986 0.80357 0.0
H215 H 0.25406 0.26685 0.8781 0.0
H216 H 0.20806 0.31145 0.84429 0.0
S217 S 0.30908 0.20111 0.76359 0.0
N218 N 0.32038 0.19285 0.79932 0.0
N219 N 0.27008 0.24089 0.7627 0.0
C220 C 0.2649 0.24944 0.79239 0.0
C221 C 0.29247 0.22359 0.8123 0.0
C222 C 0.51324 0.55054 0.25273 0.0
C223 C 0.55125 0.55304 0.22832 0.0
C224 C 0.4468 0.51806 0.25097 0.0
C225 C 0.41489 0.48599 0.22477 0.0
H226 H 0.53477 0.57398 0.27362 0.0
H227 H 0.42036 0.51718 0.27069 0.0
S228 S 0.49176 0.47877 0.15403 0.0
N229 N 0.55192 0.52159 0.17673 0.0
N230 N 0.42661 0.4598 0.17343 0.0
C231 C 0.45212 0.48854 0.19995 0.0
C232 C 0.52024 0.52208 0.20173 0.0
C233 C 0.06709 0.55014 0.5784 0.0
C234 C 0.06881 0.57997 0.55114 0.0
C235 C 0.03264 0.48372 0.5815 0.0
C236 C 0.9984 0.44369 0.55746 0.0
H237 H 0.09165 0.57824 0.59787 0.0
H238 H 0.03318 0.46379 0.60311 0.0
S239 S 0.98865 0.49723 0.48082 0.0
N240 N 0.03414 0.56398 0.49922 0.0
N241 N 0.96942 0.4389 0.50508 0.0
C242 C 1.00023 0.47262 0.52986 0.0
C243 C 0.03545 0.54065 0.52668 0.0
C244 C 0.47084 0.00554 0.86277 0.0
C245 C 0.45855 0.02486 0.89051 0.0
C246 C 0.50051 0.96832 0.86112 0.0
C247 C 0.51747 0.94763 0.88715 0.0
H248 H 0.45804 0.0198 0.84215 0.0
H249 H 0.51016 0.9556 0.83929 0.0
S250 S 0.49506 0.98452 0.96535 0.0
N251 N 0.46564 0.02013 0.94465 0.0
N252 N 0.52017 0.94972 0.94154 0.0
C253 C 0.50477 0.96602 0.91502 0.0
C254 C 0.47572 0.00479 0.9167 0.0
C255 C 0.52326 0.54566 0.45317 0.0
C256 C 0.53246 0.57959 0.42625 0.0
C257 C 0.4941 0.47878 0.45355 0.0
C258 C 0.47365 0.44305 0.42697 0.0
H259 H 0.53944 0.57093 0.47419 0.0
H260 H 0.48816 0.45499 0.47482 0.0
S261 S 0.48305 0.50801 0.35059 0.0
N262 N 0.51588 0.57147 0.37237 0.0
N263 N 0.46192 0.4465 0.37305 0.0
C264 C 0.48156 0.4762 0.39994 0.0
C265 C 0.51059 0.54416 0.39959 0.0
C266 C 0.04434 0.55639 0.76748 0.0
C267 C 0.98169 0.54501 0.77133 0.0
C268 C 0.05824 0.50666 0.76889 0.0
C269 C 0.00995 0.4434 0.77385 0.0
H270 H 0.08315 0.6041 0.76295 0.0
H271 H 0.10689 0.51768 0.76517 0.0
S272 S 0.83899 0.38825 0.78789 0.0
N273 N 0.87159 0.46581 0.78225 0.0
N274 N 0.89756 0.37239 0.78466 0.0
C275 C 0.94743 0.43147 0.77868 0.0
C276 C 0.93335 0.48221 0.77751 0.0
C277 C 0.4765 0.04395 0.11212 0.0
C278 C 0.42563 0.98144 0.11692 0.0
C279 C 0.53998 0.05773 0.11242 0.0
C280 C 0.55505 0.00939 0.11719 0.0
H281 H 0.46735 0.08266 0.10761 0.0
H282 H 0.57729 0.10616 0.10783 0.0
S283 S 0.44041 0.83901 0.1336 0.0
N284 N 0.39531 0.87162 0.12867 0.0
N285 N 0.51446 0.89737 0.12903 0.0
C286 C 0.50494 0.94714 0.12313 0.0
C287 C 0.44031 0.9332 0.12307 0.0
C288 C 0.32049 0.12068 0.17842 0.0
C289 C 0.26341 0.07022 0.16712 0.0
C290 C 0.32626 0.18008 0.18463 0.0
C291 C 0.2748 0.19061 0.18019 0.0
H292 H 0.36153 0.11481 0.18185 0.0
H293 H 0.37108 0.21768 0.19332 0.0
S294 S 0.11458 0.07338 0.15159 0.0
N295 N 0.15422 0.03425 0.15204 0.0
N296 N 0.16479 0.14564 0.16402 0.0
C297 C 0.2172 0.14027 0.16923 0.0
C298 C 0.21157 0.08011 0.16262 0.0
C299 C 0.16985 0.3223 0.53794 0.0
C300 C 0.10799 0.2762 0.52916 0.0
C301 C 0.22332 0.32106 0.52695 0.0
C302 C 0.21689 0.27363 0.50677 0.0
H303 H 0.17729 0.36043 0.55305 0.0
H304 H 0.27003 0.35846 0.53382 0.0
S305 S 0.06497 0.13818 0.47898 0.0
N306 N 0.04314 0.17918 0.5006 0.0
N307 N 0.14349 0.17672 0.48002 0.0
C308 C 0.15516 0.22592 0.49859 0.0
C309 C 0.10075 0.22725 0.50974 0.0
C310 C 0.9201 0.14605 0.82938 0.0
C311 C 0.92987 0.20821 0.83185 0.0
C312 C 0.86073 0.09293 0.83544 0.0
C313 C 0.80854 0.09988 0.84381 0.0
H314 H 0.9585 0.1383 0.82229 0.0
H315 H 0.85559 0.046 0.83302 0.0
S316 S 0.80963 0.25288 0.85385 0.0
N317 N 0.88314 0.27425 0.84367 0.0
N318 N 0.77089 0.17411 0.85496 0.0
C319 C 0.81782 0.16192 0.84675 0.0
C320 C 0.87874 0.2162 0.8409 0.0
C321 C 0.75373 0.90805 0.15809 0.0
C322 C 0.7289 0.94209 0.17302 0.0
C323 C 0.74994 0.85346 0.17061 0.0
C324 C 0.72086 0.83029 0.19855 0.0
H325 H 0.77641 0.92352 0.13642 0.0
H326 H 0.76963 0.82901 0.15804 0.0
S327 S 0.64951 0.90251 0.24727 0.0
N328 N 0.67497 0.94933 0.21757 0.0
N329 N 0.66783 0.84622 0.24124 0.0
C330 C 0.69616 0.86397 0.21395 0.0
C331 C 0.70028 0.92003 0.20118 0.0
C332 C 0.85975 0.76607 0.48723 0.0
C333 C 0.80118 0.70897 0.48475 0.0
C334 C 0.91616 0.7655 0.49281 0.0
C335 C 0.91645 0.7078 0.49607 0.0
H336 H 0.86235 0.81187 0.4847 0.0
H337 H 0.95989 0.81089 0.49462 0.0
S338 S 0.7757 0.54472 0.49172 0.0
N339 N 0.74675 0.59283 0.4861 0.0
N340 N 0.85296 0.59176 0.49659 0.0
C341 C 0.85823 0.65018 0.49368 0.0
C342 C 0.80056 0.65076 0.48812 0.0
C343 C 0.16199 0.89961 0.80511 0.0
C344 C 0.17155 0.92709 0.83362 0.0
C345 C 0.10378 0.84656 0.79738 0.0
C346 C 0.05282 0.81856 0.81789 0.0
H347 H 0.19957 0.91934 0.78849 0.0
H348 H 0.09897 0.82743 0.77502 0.0
S349 S 0.05393 0.8715 0.89588 0.0
N350 N 0.12555 0.92184 0.8828 0.0
N351 N 0.01605 0.82195 0.86816 0.0
C352 C 0.06178 0.84528 0.8466 0.0
C353 C 0.12113 0.89959 0.85447 0.0
C354 C 0.30188 0.2505 0.34241 0.0
C355 C 0.27169 0.26843 0.36404 0.0
C356 C 0.29634 0.25962 0.31193 0.0
C357 C 0.25993 0.28655 0.30175 0.0
H358 H 0.33182 0.23111 0.34903 0.0
H359 H 0.32173 0.24618 0.29626 0.0
S360 S 0.16696 0.3368 0.34917 0.0
N361 N 0.20079 0.31095 0.37313 0.0
N362 N 0.19023 0.32781 0.3157 0.0
C363 C 0.22733 0.30236 0.32303 0.0
C364 C 0.2333 0.29344 0.35419 0.0
C365 C 0.92023 0.19923 0.65363 0.0
C366 C 0.96372 0.20247 0.63198 0.0
C367 C 0.93766 0.21152 0.68376 0.0
C368 C 0.99979 0.22932 0.69319 0.0
H369 H 0.87255 0.18764 0.64719 0.0
H370 H 0.90265 0.20902 0.69964 0.0
S371 S 0.13155 0.24488 0.64509 0.0
N372 N 0.07133 0.22373 0.6219 0.0
N373 N 0.10458 0.2487 0.67853 0.0
C374 C 0.04367 0.23242 0.67178 0.0
C375 C 0.02546 0.21842 0.64116 0.0
C376 C 0.7343 0.04513 0.00283 0.0
C377 C 0.73817 0.00119 0.02203 0.0
C378 C 0.72035 0.03176 0.97249 0.0
C379 C 0.70982 0.97393 0.95986 0.0
H380 H 0.74091 0.08998 0.01131 0.0
H381 H 0.71731 0.06728 0.95893 0.0
S382 S 0.71763 0.84374 3e-05 0.0
N383 N 0.7326 0.89799 0.02597 0.0
N384 N 0.70646 0.87308 0.96876 0.0
C385 C 0.71483 0.92993 0.97859 0.0
C386 C 0.729 0.94352 0.00967 0.0
C387 C 0.7777 0.7003 0.32135 0.0
C388 C 0.78877 0.74981 0.30152 0.0
C389 C 0.75889 0.70056 0.3509 0.0
C390 C 0.74948 0.74994 0.36178 0.0
H391 H 0.78235 0.66023 0.31382 0.0
H392 H 0.75017 0.66064 0.36506 0.0
S393 S 0.77321 0.89163 0.31888 0.0
N394 N 0.79036 0.85053 0.29486 0.0
N395 N 0.75449 0.85079 0.35046 0.0
C396 C 0.76176 0.80062 0.34237 0.0
C397 C 0.78163 0.80067 0.31225 0.0
C398 C 0.95827 0.68761 0.62905 0.0
C399 C 0.01337 0.74029 0.61724 0.0
C400 C 0.93805 0.6878 0.65834 0.0
C401 C 0.97182 0.74084 0.67713 0.0
H402 H 0.9307 0.6451 0.61574 0.0
H403 H 0.89605 0.64545 0.66642 0.0
S404 S 0.1176 0.89253 0.65657 0.0
N405 N 0.10019 0.84804 0.62625 0.0
N406 N 0.06224 0.84879 0.68136 0.0
C407 C 0.02619 0.79468 0.66538 0.0
C408 C 0.04702 0.79427 0.63549 0.0
C409 C 0.237 0.9408 0.00875 0.0
C410 C 0.2366 0.98571 0.02857 0.0
C411 C 0.25237 0.95538 0.97854 0.0
C412 C 0.26818 0.01556 0.96677 0.0
H413 H 0.22642 0.89418 0.01667 0.0
H414 H 0.25262 0.91912 0.96442 0.0
S415 S 0.27079 0.14922 0.0087 0.0
N416 N 0.25085 0.09243 0.03389 0.0
N417 N 0.27994 0.11963 0.97704 0.0
C418 C 0.2667 0.0606 0.98611 0.0
C419 C 0.25078 0.04569 0.01697 0.0
loop_
_geom_bond_atom_site_label_1
_geom_bond_atom_site_label_2
_geom_bond_distance
_geom_bond_site_symmetry_2
_ccdc_geom_bond_type
C0 O1 1.160 . S
C0 O7 1.185 . S
O1 C0 1.160 . S
O2 Zn3 1.899 . S
O2 C10 1.284 . S
Zn3 O2 1.899 . S
Zn3 O4 2.032 . S
Zn3 O7 2.086 . S
Zn3 O12 1.977 . S
O4 Zn3 2.032 . S
O4 C8 1.278 . S
C5 O6 1.203 . S
C5 O12 1.267 . S
O6 C5 1.203 . S
O7 C0 1.185 . S
O7 Zn3 2.086 . S
C8 O4 1.278 . S
C8 O9 1.211 . S
O9 C8 1.211 . S
C10 O2 1.284 . S
C10 O11 1.273 . S
O11 C10 1.273 . S
O12 Zn3 1.977 . S
O12 C5 1.267 . S
C13 O14 1.160 . S
C13 O20 1.185 . S
O14 C13 1.160 . S
O15 Zn16 1.899 . S
O15 C23 1.284 . S
Zn16 O15 1.899 . S
Zn16 O17 2.032 . S
Zn16 O20 2.086 . S
Zn16 O25 1.977 . S
O17 Zn16 2.032 . S
O17 C21 1.278 1_655 S
C18 O19 1.203 . S
C18 O25 1.267 . S
O19 C18 1.203 . S
O20 C13 1.185 . S
O20 Zn16 2.086 . S
C21 O17 1.278 1_455 S
C21 O22 1.211 . S
O22 C21 1.211 . S
C23 O15 1.284 . S
C23 O24 1.273 1_655 S
O24 C23 1.273 1_455 S
O25 Zn16 1.977 . S
O25 C18 1.267 . S
C26 O27 1.160 . S
C26 O33 1.185 . S
O27 C26 1.160 . S
O28 Zn29 1.899 . S
O28 C36 1.284 . S
Zn29 O28 1.899 . S
Zn29 O30 2.032 . S
Zn29 O33 2.086 . S
Zn29 O38 1.977 . S
O30 Zn29 2.032 . S
O30 C34 1.278 1_565 S
C31 O32 1.203 . S
C31 O38 1.267 . S
O32 C31 1.203 . S
O33 C26 1.185 . S
O33 Zn29 2.086 . S
C34 O30 1.278 1_545 S
C34 O35 1.211 . S
O35 C34 1.211 . S
C36 O28 1.284 . S
C36 O37 1.273 1_565 S
O37 C36 1.273 1_545 S
O38 Zn29 1.977 . S
O38 C31 1.267 . S
C39 O40 1.160 . S
C39 O46 1.185 . S
O40 C39 1.160 . S
O41 Zn42 1.899 . S
O41 C49 1.284 . S
Zn42 O41 1.899 . S
Zn42 O43 2.032 . S
Zn42 O46 2.086 . S
Zn42 O51 1.977 . S
O43 Zn42 2.032 . S
O43 C47 1.278 . S
C44 O45 1.203 . S
C44 O51 1.267 . S
O45 C44 1.203 . S
O46 C39 1.185 . S
O46 Zn42 2.086 . S
C47 O43 1.278 . S
C47 O48 1.211 . S
O48 C47 1.211 . S
C49 O41 1.284 . S
C49 O50 1.273 . S
O50 C49 1.273 . S
O51 Zn42 1.977 . S
O51 C44 1.267 . S
C52 O53 1.160 . S
C52 O59 1.185 . S
O53 C52 1.160 . S
O54 Zn55 1.899 . S
O54 C62 1.284 . S
Zn55 O54 1.899 . S
Zn55 O56 2.032 . S
Zn55 O59 2.086 . S
Zn55 O64 1.977 . S
O56 Zn55 2.032 . S
O56 C60 1.278 1_455 S
C57 O58 1.203 . S
C57 O64 1.267 . S
O58 C57 1.203 . S
O59 C52 1.185 . S
O59 Zn55 2.086 . S
C60 O56 1.278 1_655 S
C60 O61 1.211 . S
O61 C60 1.211 . S
C62 O54 1.284 . S
C62 O63 1.273 1_455 S
O63 C62 1.273 1_655 S
O64 Zn55 1.977 . S
O64 C57 1.267 . S
C65 O66 1.160 . S
C65 O72 1.185 . S
O66 C65 1.160 . S
O67 Zn68 1.899 . S
O67 C75 1.284 . S
Zn68 O67 1.899 . S
Zn68 O69 2.032 . S
Zn68 O72 2.086 . S
Zn68 O77 1.977 . S
O69 Zn68 2.032 . S
O69 C73 1.278 1_545 S
C70 O71 1.203 . S
C70 O77 1.267 . S
O71 C70 1.203 . S
O72 C65 1.185 . S
O72 Zn68 2.086 . S
C73 O69 1.278 1_565 S
C73 O74 1.211 . S
O74 C73 1.211 . S
C75 O67 1.284 . S
C75 O76 1.273 1_545 S
O76 C75 1.273 1_565 S
O77 Zn68 1.977 . S
O77 C70 1.267 . S
C78 O79 1.160 . S
C78 O85 1.185 . S
O79 C78 1.160 . S
O80 Zn81 1.899 . S
O80 C88 1.284 . S
Zn81 O80 1.899 . S
Zn81 O82 2.032 . S
Zn81 O85 2.086 . S
Zn81 O90 1.977 . S
O82 Zn81 2.032 . S
O82 C86 1.278 . S
C83 O84 1.203 . S
C83 O90 1.267 . S
O84 C83 1.203 . S
O85 C78 1.185 . S
O85 Zn81 2.086 . S
C86 O82 1.278 . S
C86 O87 1.211 . S
O87 C86 1.211 . S
C88 O80 1.284 . S
C88 O89 1.273 . S
O89 C88 1.273 . S
O90 Zn81 1.977 . S
O90 C83 1.267 . S
C91 O92 1.160 . S
C91 O98 1.185 . S
O92 C91 1.160 . S
O93 Zn94 1.899 . S
O93 C101 1.284 . S
Zn94 O93 1.899 . S
Zn94 O95 2.032 . S
Zn94 O98 2.086 . S
Zn94 O103 1.977 . S
O95 Zn94 2.032 . S
O95 C99 1.278 1_655 S
C96 O97 1.203 . S
C96 O103 1.267 . S
O97 C96 1.203 . S
O98 C91 1.185 . S
O98 Zn94 2.086 . S
C99 O95 1.278 1_455 S
C99 O100 1.211 . S
O100 C99 1.211 . S
C101 O93 1.284 . S
C101 O102 1.273 1_655 S
O102 C101 1.273 1_455 S
O103 Zn94 1.977 . S
O103 C96 1.267 . S
C104 O105 1.160 . S
C104 O111 1.185 . S
O105 C104 1.160 . S
O106 Zn107 1.899 . S
O106 C114 1.284 . S
Zn107 O106 1.899 . S
Zn107 O108 2.032 . S
Zn107 O111 2.086 . S
Zn107 O116 1.977 . S
O108 Zn107 2.032 . S
O108 C112 1.278 1_565 S
C109 O110 1.203 . S
C109 O116 1.267 . S
O110 C109 1.203 . S
O111 C104 1.185 . S
O111 Zn107 2.086 . S
C112 O108 1.278 1_545 S
C112 O113 1.211 . S
O113 C112 1.211 . S
C114 O106 1.284 . S
C114 O115 1.273 1_565 S
O115 C114 1.273 1_545 S
O116 Zn107 1.977 . S
O116 C109 1.267 . S
C117 O118 1.160 . S
C117 O124 1.185 . S
O118 C117 1.160 . S
O119 Zn120 1.899 . S
O119 C127 1.284 . S
Zn120 O119 1.899 . S
Zn120 O121 2.032 . S
Zn120 O124 2.086 . S
Zn120 O129 1.977 . S
O121 Zn120 2.032 . S
O121 C125 1.278 . S
C122 O123 1.203 . S
C122 O129 1.267 . S
O123 C122 1.203 . S
O124 C117 1.185 . S
O124 Zn120 2.086 . S
C125 O121 1.278 . S
C125 O126 1.211 . S
O126 C125 1.211 . S
C127 O119 1.284 . S
C127 O128 1.273 . S
O128 C127 1.273 . S
O129 Zn120 1.977 . S
O129 C122 1.267 . S
C130 O131 1.160 . S
C130 O137 1.185 . S
O131 C130 1.160 . S
O132 Zn133 1.899 . S
O132 C140 1.284 . S
Zn133 O132 1.899 . S
Zn133 O134 2.032 . S
Zn133 O137 2.086 . S
Zn133 O142 1.977 . S
O134 Zn133 2.032 . S
O134 C138 1.278 1_455 S
C135 O136 1.203 . S
C135 O142 1.267 . S
O136 C135 1.203 . S
O137 C130 1.185 . S
O137 Zn133 2.086 . S
C138 O134 1.278 1_655 S
C138 O139 1.211 . S
O139 C138 1.211 . S
C140 O132 1.284 . S
C140 O141 1.273 1_455 S
O141 C140 1.273 1_655 S
O142 Zn133 1.977 . S
O142 C135 1.267 . S
C143 O144 1.160 . S
C143 O150 1.185 . S
O144 C143 1.160 . S
O145 Zn146 1.899 . S
O145 C153 1.284 . S
Zn146 O145 1.899 . S
Zn146 O147 2.032 . S
Zn146 O150 2.086 . S
Zn146 O155 1.977 . S
O147 Zn146 2.032 . S
O147 C151 1.278 1_545 S
C148 O149 1.203 . S
C148 O155 1.267 . S
O149 C148 1.203 . S
O150 C143 1.185 . S
O150 Zn146 2.086 . S
C151 O147 1.278 1_565 S
C151 O152 1.211 . S
O152 C151 1.211 . S
C153 O145 1.284 . S
C153 O154 1.273 1_545 S
O154 C153 1.273 1_565 S
O155 Zn146 1.977 . S
O155 C148 1.267 . S
C156 C157 1.369 . S
C156 C158 1.419 1_655 S
C156 H160 0.930 . S
C157 C156 1.369 . S
C157 C166 1.429 . S
C158 C156 1.419 1_455 S
C158 C159 1.363 . S
C158 H161 0.929 . S
C159 C158 1.363 . S
C159 C165 1.428 . S
H160 C156 0.930 . S
H161 C158 0.929 . S
S162 N163 1.613 1_455 S
S162 N164 1.610 . S
N163 S162 1.613 1_655 S
N163 C166 1.350 . S
N164 S162 1.610 . S
N164 C165 1.351 . S
C165 C159 1.428 . S
C165 N164 1.351 . S
C165 C166 1.434 1_455 S
C166 C157 1.429 . S
C166 N163 1.350 . S
C166 C165 1.434 1_655 S
C167 C168 1.369 . S
C167 C169 1.419 1_545 S
C167 H171 0.930 . S
C168 C167 1.369 . S
C168 C177 1.429 . S
C169 C167 1.419 1_565 S
C169 C170 1.363 . S
C169 H172 0.929 . S
C170 C169 1.363 . S
C170 C176 1.428 . S
H171 C167 0.930 . S
H172 C169 0.929 . S
S173 N174 1.613 1_565 S
S173 N175 1.610 . S
N174 S173 1.613 1_545 S
N174 C177 1.350 . S
N175 S173 1.610 . S
N175 C176 1.351 . S
C176 C170 1.428 . S
C176 N175 1.351 . S
C176 C177 1.434 1_565 S
C177 C168 1.429 . S
C177 N174 1.350 . S
C177 C176 1.434 1_545 S
C178 C179 1.369 . S
C178 C180 1.419 . S
C178 H182 0.930 . S
C179 C178 1.369 . S
C179 C188 1.429 . S
C180 C178 1.419 . S
C180 C181 1.363 . S
C180 H183 0.929 . S
C181 C180 1.363 . S
C181 C187 1.428 . S
H182 C178 0.930 . S
H183 C180 0.929 . S
S184 N185 1.613 . S
S184 N186 1.610 . S
N185 S184 1.613 . S
N185 C188 1.350 . S
N186 S184 1.610 . S
N186 C187 1.351 . S
C187 C181 1.428 . S
C187 N186 1.351 . S
C187 C188 1.434 . S
C188 C179 1.429 . S
C188 N185 1.350 . S
C188 C187 1.434 . S
C189 C190 1.369 . S
C189 C191 1.419 1_655 S
C189 H193 0.930 . S
C190 C189 1.369 . S
C190 C199 1.429 . S
C191 C189 1.419 1_455 S
C191 C192 1.363 . S
C191 H194 0.929 . S
C192 C191 1.363 . S
C192 C198 1.428 . S
H193 C189 0.930 . S
H194 C191 0.929 . S
S195 N196 1.613 1_455 S
S195 N197 1.610 . S
N196 S195 1.613 1_655 S
N196 C199 1.350 . S
N197 S195 1.610 . S
N197 C198 1.351 . S
C198 C192 1.428 . S
C198 N197 1.351 . S
C198 C199 1.434 1_455 S
C199 C190 1.429 . S
C199 N196 1.350 . S
C199 C198 1.434 1_655 S
C200 C201 1.369 . S
C200 C202 1.419 1_545 S
C200 H204 0.930 . S
C201 C200 1.369 . S
C201 C210 1.429 . S
C202 C200 1.419 1_565 S
C202 C203 1.363 . S
C202 H205 0.929 . S
C203 C202 1.363 . S
C203 C209 1.428 . S
H204 C200 0.930 . S
H205 C202 0.929 . S
S206 N207 1.613 1_565 S
S206 N208 1.610 . S
N207 S206 1.613 1_545 S
N207 C210 1.350 . S
N208 S206 1.610 . S
N208 C209 1.351 . S
C209 C203 1.428 . S
C209 N208 1.351 . S
C209 C210 1.434 1_565 S
C210 C201 1.429 . S
C210 N207 1.350 . S
C210 C209 1.434 1_545 S
C211 C212 1.369 . S
C211 C213 1.419 . S
C211 H215 0.930 . S
C212 C211 1.369 . S
C212 C221 1.429 . S
C213 C211 1.419 . S
C213 C214 1.363 . S
C213 H216 0.929 . S
C214 C213 1.363 . S
C214 C220 1.428 . S
H215 C211 0.930 . S
H216 C213 0.929 . S
S217 N218 1.613 . S
S217 N219 1.610 . S
N218 S217 1.613 . S
N218 C221 1.350 . S
N219 S217 1.610 . S
N219 C220 1.351 . S
C220 C214 1.428 . S
C220 N219 1.351 . S
C220 C221 1.434 . S
C221 C212 1.429 . S
C221 N218 1.350 . S
C221 C220 1.434 . S
C222 C223 1.369 . S
C222 C224 1.419 . S
C222 H226 0.930 . S
C223 C222 1.369 . S
C223 C232 1.429 . S
C224 C222 1.419 . S
C224 C225 1.363 . S
C224 H227 0.929 . S
C225 C224 1.363 . S
C225 C231 1.428 . S
H226 C222 0.930 . S
H227 C224 0.929 . S
S228 N229 1.613 . S
S228 N230 1.610 . S
N229 S228 1.613 . S
N229 C232 1.350 . S
N230 S228 1.610 . S
N230 C231 1.351 . S
C231 C225 1.428 . S
C231 N230 1.351 . S
C231 C232 1.434 . S
C232 C223 1.429 . S
C232 N229 1.350 . S
C232 C231 1.434 . S
C233 C234 1.369 . S
C233 C235 1.419 . S
C233 H237 0.930 . S
C234 C233 1.369 . S
C234 C243 1.429 1_455 S
C235 C233 1.419 . S
C235 C236 1.363 1_455 S
C235 H238 0.929 . S
C236 C235 1.363 1_655 S
C236 C242 1.428 . S
H237 C233 0.930 . S
H238 C235 0.929 . S
S239 N240 1.613 . S
S239 N241 1.610 . S
N240 S239 1.613 . S
N240 C243 1.350 . S
N241 S239 1.610 . S
N241 C242 1.351 . S
C242 C236 1.428 . S
C242 N241 1.351 . S
C242 C243 1.434 . S
C243 C234 1.429 1_655 S
C243 N240 1.350 . S
C243 C242 1.434 . S
C244 C245 1.369 1_565 S
C244 C246 1.419 . S
C244 H248 0.930 . S
C245 C244 1.369 1_545 S
C245 C254 1.429 . S
C246 C244 1.419 . S
C246 C247 1.363 . S
C246 H249 0.929 . S
C247 C246 1.363 . S
C247 C253 1.428 1_565 S
H248 C244 0.930 . S
H249 C246 0.929 . S
S250 N251 1.613 . S
S250 N252 1.610 . S
N251 S250 1.613 . S
N251 C254 1.350 . S
N252 S250 1.610 . S
N252 C253 1.351 . S
C253 C247 1.428 1_545 S
C253 N252 1.351 . S
C253 C254 1.434 . S
C254 C245 1.429 . S
C254 N251 1.350 . S
C254 C253 1.434 . S
C255 C256 1.369 . S
C255 C257 1.419 . S
C255 H259 0.930 . S
C256 C255 1.369 . S
C256 C265 1.429 . S
C257 C255 1.419 . S
C257 C258 1.363 . S
C257 H260 0.929 . S
C258 C257 1.363 . S
C258 C264 1.428 . S
H259 C255 0.930 . S
H260 C257 0.929 . S
S261 N262 1.613 . S
S261 N263 1.610 . S
N262 S261 1.613 . S
N262 C265 1.350 . S
N263 S261 1.610 . S
N263 C264 1.351 . S
C264 C258 1.428 . S
C264 N263 1.351 . S
C264 C265 1.434 . S
C265 C256 1.429 . S
C265 N262 1.350 . S
C265 C264 1.434 . S
C266 C267 1.369 1_455 S
C266 C268 1.419 . S
C266 H270 0.930 . S
C267 C266 1.369 1_655 S
C267 C276 1.429 . S
C268 C266 1.419 . S
C268 C269 1.363 . S
C268 H271 0.929 . S
C269 C268 1.363 . S
C269 C275 1.428 1_455 S
H270 C266 0.930 . S
H271 C268 0.929 . S
S272 N273 1.613 . S
S272 N274 1.610 . S
N273 S272 1.613 . S
N273 C276 1.350 . S
N274 S272 1.610 . S
N274 C275 1.351 . S
C275 C269 1.428 1_655 S
C275 N274 1.351 . S
C275 C276 1.434 . S
C276 C267 1.429 . S
C276 N273 1.350 . S
C276 C275 1.434 . S
C277 C278 1.369 1_545 S
C277 C279 1.419 . S
C277 H281 0.930 . S
C278 C277 1.369 1_565 S
C278 C287 1.429 . S
C279 C277 1.419 . S
C279 C280 1.363 . S
C279 H282 0.929 . S
C280 C279 1.363 . S
C280 C286 1.428 1_545 S
H281 C277 0.930 . S
H282 C279 0.929 . S
S283 N284 1.613 . S
S283 N285 1.610 . S
N284 S283 1.613 . S
N284 C287 1.350 . S
N285 S283 1.610 . S
N285 C286 1.351 . S
C286 C280 1.428 1_565 S
C286 N285 1.351 . S
C286 C287 1.434 . S
C287 C278 1.429 . S
C287 N284 1.350 . S
C287 C286 1.434 . S
C288 C289 1.369 . S
C288 C290 1.419 . S
C288 H292 0.930 . S
C289 C288 1.369 . S
C289 C298 1.429 . S
C290 C288 1.419 . S
C290 C291 1.363 . S
C290 H293 0.929 . S
C291 C290 1.363 . S
C291 C297 1.428 . S
H292 C288 0.930 . S
H293 C290 0.929 . S
S294 N295 1.613 . S
S294 N296 1.610 . S
N295 S294 1.613 . S
N295 C298 1.350 . S
N296 S294 1.610 . S
N296 C297 1.351 . S
C297 C291 1.428 . S
C297 N296 1.351 . S
C297 C298 1.434 . S
C298 C289 1.429 . S
C298 N295 1.350 . S
C298 C297 1.434 . S
C299 C300 1.369 . S
C299 C301 1.419 . S
C299 H303 0.930 . S
C300 C299 1.369 . S
C300 C309 1.429 . S
C301 C299 1.419 . S
C301 C302 1.363 . S
C301 H304 0.929 . S
C302 C301 1.363 . S
C302 C308 1.428 . S
H303 C299 0.930 . S
H304 C301 0.929 . S
S305 N306 1.613 . S
S305 N307 1.610 . S
N306 S305 1.613 . S
N306 C309 1.350 . S
N307 S305 1.610 . S
N307 C308 1.351 . S
C308 C302 1.428 . S
C308 N307 1.351 . S
C308 C309 1.434 . S
C309 C300 1.429 . S
C309 N306 1.350 . S
C309 C308 1.434 . S
C310 C311 1.369 . S
C310 C312 1.419 . S
C310 H314 0.930 . S
C311 C310 1.369 . S
C311 C320 1.429 . S
C312 C310 1.419 . S
C312 C313 1.363 . S
C312 H315 0.929 . S
C313 C312 1.363 . S
C313 C319 1.428 . S
H314 C310 0.930 . S
H315 C312 0.929 . S
S316 N317 1.613 . S
S316 N318 1.610 . S
N317 S316 1.613 . S
N317 C320 1.350 . S
N318 S316 1.610 . S
N318 C319 1.351 . S
C319 C313 1.428 . S
C319 N318 1.351 . S
C319 C320 1.434 . S
C320 C311 1.429 . S
C320 N317 1.350 . S
C320 C319 1.434 . S
C321 C322 1.369 . S
C321 C323 1.419 . S
C321 H325 0.930 . S
C322 C321 1.369 . S
C322 C331 1.429 . S
C323 C321 1.419 . S
C323 C324 1.363 . S
C323 H326 0.929 . S
C324 C323 1.363 . S
C324 C330 1.428 . S
H325 C321 0.930 . S
H326 C323 0.929 . S
S327 N328 1.613 . S
S327 N329 1.610 . S
N328 S327 1.613 . S
N328 C331 1.350 . S
N329 S327 1.610 . S
N329 C330 1.351 . S
C330 C324 1.428 . S
C330 N329 1.351 . S
C330 C331 1.434 . S
C331 C322 1.429 . S
C331 N328 1.350 . S
C331 C330 1.434 . S
C332 C333 1.369 . S
C332 C334 1.419 . S
C332 H336 0.930 . S
C333 C332 1.369 . S
C333 C342 1.429 . S
C334 C332 1.419 . S
C334 C335 1.363 . S
C334 H337 0.929 . S
C335 C334 1.363 . S
C335 C341 1.428 . S
H336 C332 0.930 . S
H337 C334 0.929 . S
S338 N339 1.613 . S
S338 N340 1.610 . S
N339 S338 1.613 . S
N339 C342 1.350 . S
N340 S338 1.610 . S
N340 C341 1.351 . S
C341 C335 1.428 . S
C341 N340 1.351 . S
C341 C342 1.434 . S
C342 C333 1.429 . S
C342 N339 1.350 . S
C342 C341 1.434 . S
C343 C344 1.369 . S
C343 C345 1.419 . S
C343 H347 0.930 . S
C344 C343 1.369 . S
C344 C353 1.429 . S
C345 C343 1.419 . S
C345 C346 1.363 . S
C345 H348 0.929 . S
C346 C345 1.363 . S
C346 C352 1.428 . S
H347 C343 0.930 . S
H348 C345 0.929 . S
S349 N350 1.613 . S
S349 N351 1.610 . S
N350 S349 1.613 . S
N350 C353 1.350 . S
N351 S349 1.610 . S
N351 C352 1.351 . S
C352 C346 1.428 . S
C352 N351 1.351 . S
C352 C353 1.434 . S
C353 C344 1.429 . S
C353 N350 1.350 . S
C353 C352 1.434 . S
C354 C355 1.369 . S
C354 C356 1.419 . S
C354 H358 0.930 . S
C355 C354 1.369 . S
C355 C364 1.429 . S
C356 C354 1.419 . S
C356 C357 1.363 . S
C356 H359 0.929 . S
C357 C356 1.363 . S
C357 C363 1.428 . S
H358 C354 0.930 . S
H359 C356 0.929 . S
S360 N361 1.613 . S
S360 N362 1.610 . S
N361 S360 1.613 . S
N361 C364 1.350 . S
N362 S360 1.610 . S
N362 C363 1.351 . S
C363 C357 1.428 . S
C363 N362 1.351 . S
C363 C364 1.434 . S
C364 C355 1.429 . S
C364 N361 1.350 . S
C364 C363 1.434 . S
C365 C366 1.369 . S
C365 C367 1.419 . S
C365 H369 0.930 . S
C366 C365 1.369 . S
C366 C375 1.429 1_655 S
C367 C365 1.419 . S
C367 C368 1.363 1_655 S
C367 H370 0.929 . S
C368 C367 1.363 1_455 S
C368 C374 1.428 . S
H369 C365 0.930 . S
H370 C367 0.929 . S
S371 N372 1.613 . S
S371 N373 1.610 . S
N372 S371 1.613 . S
N372 C375 1.350 . S
N373 S371 1.610 . S
N373 C374 1.351 . S
C374 C368 1.428 . S
C374 N373 1.351 . S
C374 C375 1.434 . S
C375 C366 1.429 1_455 S
C375 N372 1.350 . S
C375 C374 1.434 . S
C376 C377 1.369 . S
C376 C378 1.419 1_554 S
C376 H380 0.930 . S
C377 C376 1.369 . S
C377 C386 1.429 1_545 S
C378 C376 1.419 1_556 S
C378 C379 1.363 1_545 S
C378 H381 0.929 . S
C379 C378 1.363 1_565 S
C379 C385 1.428 . S
H380 C376 0.930 . S
H381 C378 0.929 . S
S382 N383 1.613 . S
S382 N384 1.610 1_554 S
N383 S382 1.613 . S
N383 C386 1.350 . S
N384 S382 1.610 1_556 S
N384 C385 1.351 . S
C385 C379 1.428 . S
C385 N384 1.351 . S
C385 C386 1.434 1_556 S
C386 C377 1.429 1_565 S
C386 N383 1.350 . S
C386 C385 1.434 1_554 S
C387 C388 1.369 . S
C387 C389 1.419 . S
C387 H391 0.930 . S
C388 C387 1.369 . S
C388 C397 1.429 . S
C389 C387 1.419 . S
C389 C390 1.363 . S
C389 H392 0.929 . S
C390 C389 1.363 . S
C390 C396 1.428 . S
H391 C387 0.930 . S
H392 C389 0.929 . S
S393 N394 1.613 . S
S393 N395 1.610 . S
N394 S393 1.613 . S
N394 C397 1.350 . S
N395 S393 1.610 . S
N395 C396 1.351 . S
C396 C390 1.428 . S
C396 N395 1.351 . S
C396 C397 1.434 . S
C397 C388 1.429 . S
C397 N394 1.350 . S
C397 C396 1.434 . S
C398 C399 1.369 1_655 S
C398 C400 1.419 . S
C398 H402 0.930 . S
C399 C398 1.369 1_455 S
C399 C408 1.429 . S
C400 C398 1.419 . S
C400 C401 1.363 . S
C400 H403 0.929 . S
C401 C400 1.363 . S
C401 C407 1.428 1_655 S
H402 C398 0.930 . S
H403 C400 0.929 . S
S404 N405 1.613 . S
S404 N406 1.610 . S
N405 S404 1.613 . S
N405 C408 1.350 . S
N406 S404 1.610 . S
N406 C407 1.351 . S
C407 C401 1.428 1_455 S
C407 N406 1.351 . S
C407 C408 1.434 . S
C408 C399 1.429 . S
C408 N405 1.350 . S
C408 C407 1.434 . S
C409 C410 1.369 . S
C409 C411 1.419 1_554 S
C409 H413 0.930 . S
C410 C409 1.369 . S
C410 C419 1.429 1_565 S
C411 C409 1.419 1_556 S
C411 C412 1.363 1_565 S
C411 H414 0.929 . S
C412 C411 1.363 1_545 S
C412 C418 1.428 . S
H413 C409 0.930 . S
H414 C411 0.929 . S
S415 N416 1.613 . S
S415 N417 1.610 1_554 S
N416 S415 1.613 . S
N416 C419 1.350 . S
N417 S415 1.610 1_556 S
N417 C418 1.351 . S
C418 C412 1.428 . S
C418 N417 1.351 . S
C418 C419 1.434 1_556 S
C419 C410 1.429 1_545 S
C419 N416 1.350 . S
C419 C418 1.434 1_554 S
C157 C143 1.504 . S
C159 C0 1.507 . S
C168 C13 1.500 . S
C170 C78 1.505 . S
C179 C26 1.504 . S
C181 C91 1.501 . S
C190 C39 1.501 . S
C192 C104 1.507 . S
C201 C117 1.502 . S
C203 C52 1.507 . S
C212 C65 1.504 . S
C214 C130 1.501 . S
C223 C44 1.270 . S
C225 C5 1.281 . S
C234 C57 1.270 . S
C236 C18 1.282 . S
C245 C70 1.279 . S
C247 C31 1.268 . S
C256 C83 1.281 . S
C258 C122 1.269 . S
C267 C96 1.282 . S
C269 C135 1.269 . S
C278 C109 1.283 . S
C280 C148 1.270 . S
C289 C112 0.867 . S
C291 C8 0.866 . S
C300 C21 0.867 . S
C302 C125 0.866 . S
C311 C138 0.860 . S
C313 C34 0.862 . S
C322 C151 0.860 . S
C324 C47 0.860 . S
C333 C86 0.863 . S
C335 C60 0.863 . S
C344 C73 0.861 . S
C346 C99 0.863 . S
C355 C127 1.538 . S
C357 C10 1.538 . S
C366 C23 1.537 . S
C368 C140 1.539 . S
C377 C153 1.534 . S
C379 C36 1.541 . S
C388 C49 1.534 . S
C390 C88 1.541 . S
C399 C62 1.542 . S
C401 C101 1.535 . S
C410 C114 1.534 . S
C412 C75 1.541 . S
