# Generated by pormake.
# Topology wgc, (5)-cn, num edge types: 1
# Building blocks:
#     Node 0, Type 0, BuildingBlock: BEQFEK_clean_sbu_0, # of connection points: 5
#     Node 1, Type 0, BuildingBlock: BEQFEK_clean_sbu_0, # of connection points: 5
#     Node 2, Type 0, BuildingBlock: BEQFEK_clean_sbu_0, # of connection points: 5
#     Node 3, Type 0, BuildingBlock: BEQFEK_clean_sbu_0, # of connection points: 5
#     Node 4, Type 0, BuildingBlock: BEQFEK_clean_sbu_0, # of connection points: 5
#     Node 5, Type 0, BuildingBlock: BEQFEK_clean_sbu_0, # of connection points: 5
#     Node 6, Type 0, BuildingBlock: BEQFEK_clean_sbu_0, # of connection points: 5
#     Node 7, Type 0, BuildingBlock: BEQFEK_clean_sbu_0, # of connection points: 5
#     Node 8, Type 0, BuildingBlock: BEQFEK_clean_sbu_0, # of connection points: 5
#     Node 9, Type 0, BuildingBlock: BEQFEK_clean_sbu_0, # of connection points: 5
#     Node 10, Type 0, BuildingBlock: BEQFEK_clean_sbu_0, # of connection points: 5
#     Node 11, Type 0, BuildingBlock: BEQFEK_clean_sbu_0, # of connection points: 5
#     Node 12, Type 0, BuildingBlock: BEQFEK_clean_sbu_0, # of connection points: 5
#     Node 13, Type 0, BuildingBlock: BEQFEK_clean_sbu_0, # of connection points: 5
#     Node 14, Type 0, BuildingBlock: BEQFEK_clean_sbu_0, # of connection points: 5
#     Node 15, Type 0, BuildingBlock: BEQFEK_clean_sbu_0, # of connection points: 5
#     Edge 16, Type (0, 0), BuildingBlock: TEMPAE_clean_linker_10, # of connection points: 2
#     Edge 17, Type (0, 0), BuildingBlock: TEMPAE_clean_linker_10, # of connection points: 2
#     Edge 18, Type (0, 0), BuildingBlock: TEMPAE_clean_linker_10, # of connection points: 2
#     Edge 19, Type (0, 0), BuildingBlock: TEMPAE_clean_linker_10, # of connection points: 2
#     Edge 20, Type (0, 0), BuildingBlock: TEMPAE_clean_linker_10, # of connection points: 2
#     Edge 21, Type (0, 0), BuildingBlock: TEMPAE_clean_linker_10, # of connection points: 2
#     Edge 22, Type (0, 0), BuildingBlock: TEMPAE_clean_linker_10, # of connection points: 2
#     Edge 23, Type (0, 0), BuildingBlock: TEMPAE_clean_linker_10, # of connection points: 2
#     Edge 24, Type (0, 0), BuildingBlock: TEMPAE_clean_linker_10, # of connection points: 2
#     Edge 25, Type (0, 0), BuildingBlock: TEMPAE_clean_linker_10, # of connection points: 2
#     Edge 26, Type (0, 0), BuildingBlock: TEMPAE_clean_linker_10, # of connection points: 2
#     Edge 27, Type (0, 0), BuildingBlock: TEMPAE_clean_linker_10, # of connection points: 2
#     Edge 28, Type (0, 0), BuildingBlock: TEMPAE_clean_linker_10, # of connection points: 2
#     Edge 29, Type (0, 0), BuildingBlock: TEMPAE_clean_linker_10, # of connection points: 2
#     Edge 30, Type (0, 0), BuildingBlock: TEMPAE_clean_linker_10, # of connection points: 2
#     Edge 31, Type (0, 0), BuildingBlock: TEMPAE_clean_linker_10, # of connection points: 2
#     Edge 32, Type (0, 0), BuildingBlock: TEMPAE_clean_linker_10, # of connection points: 2
#     Edge 33, Type (0, 0), BuildingBlock: TEMPAE_clean_linker_10, # of connection points: 2
#     Edge 34, Type (0, 0), BuildingBlock: TEMPAE_clean_linker_10, # of connection points: 2
#     Edge 35, Type (0, 0), BuildingBlock: TEMPAE_clean_linker_10, # of connection points: 2
#     Edge 36, Type (0, 0), BuildingBlock: TEMPAE_clean_linker_10, # of connection points: 2
#     Edge 37, Type (0, 0), BuildingBlock: TEMPAE_clean_linker_10, # of connection points: 2
#     Edge 38, Type (0, 0), BuildingBlock: TEMPAE_clean_linker_10, # of connection points: 2
#     Edge 39, Type (0, 0), BuildingBlock: TEMPAE_clean_linker_10, # of connection points: 2
#     Edge 40, Type (0, 0), BuildingBlock: TEMPAE_clean_linker_10, # of connection points: 2
#     Edge 41, Type (0, 0), BuildingBlock: TEMPAE_clean_linker_10, # of connection points: 2
#     Edge 42, Type (0, 0), BuildingBlock: TEMPAE_clean_linker_10, # of connection points: 2
#     Edge 43, Type (0, 0), BuildingBlock: TEMPAE_clean_linker_10, # of connection points: 2
#     Edge 44, Type (0, 0), BuildingBlock: TEMPAE_clean_linker_10, # of connection points: 2
#     Edge 45, Type (0, 0), BuildingBlock: TEMPAE_clean_linker_10, # of connection points: 2
#     Edge 46, Type (0, 0), BuildingBlock: TEMPAE_clean_linker_10, # of connection points: 2
#     Edge 47, Type (0, 0), BuildingBlock: TEMPAE_clean_linker_10, # of connection points: 2
#     Edge 48, Type (0, 0), BuildingBlock: TEMPAE_clean_linker_10, # of connection points: 2
#     Edge 49, Type (0, 0), BuildingBlock: TEMPAE_clean_linker_10, # of connection points: 2
#     Edge 50, Type (0, 0), BuildingBlock: TEMPAE_clean_linker_10, # of connection points: 2
#     Edge 51, Type (0, 0), BuildingBlock: TEMPAE_clean_linker_10, # of connection points: 2
#     Edge 52, Type (0, 0), BuildingBlock: TEMPAE_clean_linker_10, # of connection points: 2
#     Edge 53, Type (0, 0), BuildingBlock: TEMPAE_clean_linker_10, # of connection points: 2
#     Edge 54, Type (0, 0), BuildingBlock: TEMPAE_clean_linker_10, # of connection points: 2
#     Edge 55, Type (0, 0), BuildingBlock: TEMPAE_clean_linker_10, # of connection points: 2
# Relax obj value: 0.141
# Max RMSD: 0.131
# Mean RMSD: 0.131
data_MOF--net-wgc--node1-BEQFEK_clean_sbu_0--edge1-TEMPAE_clean_linker_10
_symmetry_space_group_name_H-M    P1
_symmetry_Int_Tables_number       1
_symmetry_cell_setting            triclinic
loop_
_symmetry_equiv_pos_as_xyz
'x, y, z'
_cell_length_a     40.661781
_cell_length_b     40.691182
_cell_length_c     55.914859
_cell_angle_alpha  90.010446
_cell_angle_beta   90.026109
_cell_angle_gamma 89.999966
loop_
_atom_site_label
_atom_site_type_symbol
_atom_site_fract_x
_atom_site_fract_y
_atom_site_fract_z
_atom_type_partial_charge
Co0 Co 0.22692 0.12058 0.00446 0.0
Co1 Co 0.30048 0.09717 0.00198 0.0
C2 C 0.26774 0.1218 0.95884 0.0
O3 O 0.24171 0.12557 0.97113 0.0
O4 O 0.29426 0.11113 0.9682 0.0
C5 C 0.1769 0.16598 0.99254 0.0
O6 O 0.20016 0.17749 0.9786 0.0
C7 C 0.36933 0.07575 0.9934 0.0
C8 C 0.38288 0.05955 0.02983 0.0
C9 C 0.3946 0.06172 0.00666 0.0
N10 N 0.34396 0.08183 0.00822 0.0
N11 N 0.35222 0.07182 0.02989 0.0
C12 C 0.36905 0.08315 0.9672 0.0
H13 H 0.35259 0.06543 0.958 0.0
H14 H 0.35904 0.10817 0.96421 0.0
H15 H 0.39408 0.08154 0.95941 0.0
C16 C 0.25374 0.1629 0.04233 0.0
N17 N 0.2576 0.13991 0.02531 0.0
N18 N 0.28883 0.1316 0.02387 0.0
C19 C 0.30604 0.1498 0.03977 0.0
C20 C 0.28425 0.16984 0.05222 0.0
C21 C 0.22148 0.17884 0.04803 0.0
H22 H 0.20307 0.15964 0.05245 0.0
H23 H 0.2126 0.19217 0.032 0.0
H24 H 0.22339 0.19664 0.06297 0.0
O25 O 0.22118 0.07348 0.01119 0.0
O26 O 0.27296 0.05757 0.00686 0.0
H27 H 0.34739 0.12846 0.05744 0.0
H28 H 0.35287 0.1708 0.05003 0.0
C29 C 0.3424 0.1473 0.04359 0.0
H30 H 0.35487 0.14026 0.02674 0.0
H31 H 0.33651 0.07256 0.04463 0.0
O32 O 0.18328 0.1421 0.00646 0.0
C33 C 0.24281 0.05093 0.01051 0.0
Co34 Co 0.11491 0.76902 0.99025 0.0
Co35 Co 0.09537 0.69476 0.99493 0.0
C36 C 0.11791 0.73026 0.0371 0.0
O37 O 0.12025 0.75571 0.02401 0.0
O38 O 0.10885 0.70267 0.02854 0.0
C39 C 0.1614 0.8181 0.0002 0.0
O40 O 0.17427 0.79398 0.01268 0.0
C41 C 0.07321 0.62633 0.00402 0.0
C42 C 0.06601 0.60924 0.96686 0.0
C43 C 0.06281 0.59964 0.99047 0.0
N44 N 0.08244 0.65044 0.98897 0.0
N45 N 0.07778 0.64007 0.96683 0.0
C46 C 0.07408 0.62921 0.03068 0.0
H47 H 0.09806 0.63962 0.03635 0.0
H48 H 0.07043 0.60501 0.03943 0.0
H49 H 0.05452 0.64643 0.03655 0.0
C50 C 0.1582 0.74249 0.95294 0.0
N51 N 0.13538 0.73848 0.97005 0.0
N52 N 0.12964 0.70698 0.97318 0.0
C53 C 0.14991 0.68975 0.95871 0.0
C54 C 0.16841 0.7117 0.9452 0.0
C55 C 0.16853 0.77531 0.94346 0.0
H56 H 0.14784 0.79299 0.94464 0.0
H57 H 0.18921 0.78481 0.95441 0.0
H58 H 0.17669 0.77348 0.92457 0.0
O59 O 0.06789 0.7727 0.98335 0.0
O60 O 0.05441 0.72056 0.98944 0.0
H61 H 0.13927 0.64173 0.94515 0.0
H62 H 0.18027 0.64657 0.95635 0.0
C63 C 0.15415 0.65323 0.95951 0.0
H64 H 0.1462 0.64337 0.97707 0.0
H65 H 0.08165 0.65448 0.95166 0.0
O66 O 0.13572 0.81278 0.98781 0.0
C67 C 0.04636 0.75015 0.98486 0.0
Co68 Co 0.7672 0.87949 0.00999 0.0
Co69 Co 0.69299 0.89883 0.00409 0.0
C70 C 0.73 0.87705 0.96249 0.0
O71 O 0.755 0.87482 0.97605 0.0
O72 O 0.70201 0.88566 0.97059 0.0
C73 C 0.81442 0.83149 0.00071 0.0
O74 O 0.78922 0.8189 0.98921 0.0
C75 C 0.62502 0.92084 0.99336 0.0
C76 C 0.60622 0.92846 0.03003 0.0
C77 C 0.59772 0.93144 0.00616 0.0
N78 N 0.64842 0.91175 0.00906 0.0
N79 N 0.63702 0.91662 0.0309 0.0
C80 C 0.62911 0.91956 0.96679 0.0
H81 H 0.63923 0.8953 0.96156 0.0
H82 H 0.6054 0.92358 0.9574 0.0
H83 H 0.64705 0.93863 0.96122 0.0
C84 C 0.7396 0.83586 0.04656 0.0
N85 N 0.73599 0.85877 0.02948 0.0
N86 N 0.70453 0.8645 0.02595 0.0
C87 C 0.68697 0.8442 0.04018 0.0
C88 C 0.70865 0.82562 0.05386 0.0
C89 C 0.77219 0.82551 0.05652 0.0
H90 H 0.78998 0.84612 0.0555 0.0
H91 H 0.78187 0.8047 0.0458 0.0
H92 H 0.76984 0.81748 0.07541 0.0
O93 O 0.77077 0.9264 0.0173 0.0
O94 O 0.71871 0.93961 0.0103 0.0
H95 H 0.63891 0.85522 0.05348 0.0
H96 H 0.64351 0.8142 0.04233 0.0
C97 C 0.6504 0.84024 0.03918 0.0
H98 H 0.64077 0.84826 0.02156 0.0
H99 H 0.65073 0.91288 0.04645 0.0
O100 O 0.81059 0.85792 0.01253 0.0
C101 C 0.74811 0.9478 0.01547 0.0
Co102 Co 0.87323 0.22877 0.98876 0.0
Co103 Co 0.89612 0.30241 0.99063 0.0
C104 C 0.87183 0.27038 0.03402 0.0
O105 O 0.86822 0.24418 0.02193 0.0
O106 O 0.88226 0.2968 0.02444 0.0
C107 C 0.82603 0.18091 0.00063 0.0
O108 O 0.81416 0.20555 0.0131 0.0
C109 C 0.91799 0.37098 -0.00096 0.0
C110 C 0.93312 0.3849 0.96245 0.0
C111 C 0.93187 0.39628 0.98576 0.0
N112 N 0.91121 0.34589 0.98412 0.0
N113 N 0.92052 0.35439 0.96235 0.0
C114 C 0.91133 0.3704 0.02534 0.0
H115 H 0.92897 0.35345 0.03413 0.0
H116 H 0.88617 0.36088 0.0286 0.0
H117 H 0.9136 0.39525 0.03335 0.0
C118 C 0.83167 0.25437 0.95005 0.0
N119 N 0.85407 0.25884 0.96742 0.0
N120 N 0.86176 0.29021 0.96884 0.0
C121 C 0.84345 0.30692 0.95272 0.0
C122 C 0.82423 0.28464 0.94008 0.0
C123 C 0.81693 0.22172 0.94391 0.0
H124 H 0.80109 0.21358 0.95891 0.0
H125 H 0.80168 0.22276 0.9275 0.0
H126 H 0.83678 0.20326 0.94165 0.0
O127 O 0.92033 0.22287 0.98222 0.0
O128 O 0.9359 0.27483 0.98601 0.0
H129 H 0.86276 0.34901 0.93478 0.0
H130 H 0.82048 0.35287 0.94313 0.0
C131 C 0.84468 0.34331 0.94903 0.0
H132 H 0.85201 0.35591 0.96578 0.0
H133 H 0.91919 0.3389 0.9475 0.0
O134 O 0.85113 0.18551 0.98749 0.0
C135 C 0.94275 0.24464 0.98271 0.0
Co136 Co 0.22718 0.37719 0.2363 0.0
Co137 Co 0.30087 0.40028 0.23909 0.0
C138 C 0.26728 0.37735 0.28229 0.0
O139 O 0.24151 0.37348 0.26975 0.0
O140 O 0.29417 0.38726 0.27305 0.0
C141 C 0.17825 0.33125 0.24866 0.0
O142 O 0.20227 0.31991 0.26201 0.0
C143 C 0.37003 0.42078 0.24784 0.0
C144 C 0.38332 0.43835 0.21171 0.0
C145 C 0.39526 0.43523 0.23478 0.0
N146 N 0.34446 0.41548 0.23301 0.0
N147 N 0.3526 0.42624 0.21152 0.0
C148 C 0.37002 0.41209 0.27383 0.0
H149 H 0.35886 0.38745 0.27633 0.0
H150 H 0.39531 0.41209 0.28129 0.0
H151 H 0.35475 0.43016 0.28371 0.0
C152 C 0.25428 0.33415 0.19902 0.0
N153 N 0.25809 0.35723 0.21597 0.0
N154 N 0.28932 0.36556 0.21744 0.0
C155 C 0.30655 0.34738 0.20155 0.0
C156 C 0.28479 0.32724 0.18913 0.0
C157 C 0.222 0.31825 0.19326 0.0
H158 H 0.21303 0.30501 0.20929 0.0
H159 H 0.22391 0.30036 0.17839 0.0
H160 H 0.20365 0.33747 0.18874 0.0
O161 O 0.22156 0.42413 0.22892 0.0
O162 O 0.27339 0.43973 0.23363 0.0
H163 H 0.34738 0.36977 0.18398 0.0
H164 H 0.35342 0.32721 0.19052 0.0
C165 C 0.34281 0.35036 0.19749 0.0
H166 H 0.35546 0.35699 0.21437 0.0
H167 H 0.33677 0.42611 0.19683 0.0
O168 O 0.18372 0.35532 0.23471 0.0
C169 C 0.24335 0.44654 0.22966 0.0
Co170 Co 0.37898 0.76847 0.76411 0.0
Co171 Co 0.39884 0.6946 0.75924 0.0
C172 C 0.37903 0.73013 0.71674 0.0
O173 O 0.37644 0.7552 0.7302 0.0
O174 O 0.38685 0.70207 0.72519 0.0
C175 C 0.33039 0.81411 0.7531 0.0
O176 O 0.31891 0.78842 0.74158 0.0
C177 C 0.42621 0.62756 0.75234 0.0
C178 C 0.43146 0.6127 0.79019 0.0
C179 C 0.438 0.60257 0.76704 0.0
N180 N 0.41305 0.65107 0.76634 0.0
N181 N 0.41645 0.64199 0.78888 0.0
C182 C 0.43127 0.63125 0.72598 0.0
H183 H 0.43344 0.65761 0.72118 0.0
H184 H 0.40968 0.6209 0.71646 0.0
H185 H 0.45366 0.61797 0.72005 0.0
C186 C 0.33402 0.74133 0.80004 0.0
N187 N 0.35759 0.73762 0.78344 0.0
N188 N 0.36343 0.70618 0.78012 0.0
C189 C 0.34256 0.68871 0.79396 0.0
C190 C 0.32344 0.71044 0.80722 0.0
C191 C 0.32343 0.77398 0.80972 0.0
H192 H 0.34401 0.79182 0.80874 0.0
H193 H 0.30272 0.78348 0.79879 0.0
H194 H 0.31516 0.7718 0.82856 0.0
O195 O 0.42535 0.77322 0.77269 0.0
O196 O 0.43883 0.72134 0.7657 0.0
H197 H 0.35268 0.64074 0.80782 0.0
H198 H 0.31247 0.64528 0.79514 0.0
C199 C 0.33872 0.65215 0.79295 0.0
H200 H 0.34804 0.64242 0.7757 0.0
H201 H 0.41001 0.6566 0.80348 0.0
O202 O 0.35645 0.81125 0.76547 0.0
C203 C 0.44687 0.75068 0.77104 0.0
Co204 Co 0.76879 0.61492 0.23408 0.0
Co205 Co 0.69428 0.59698 0.24072 0.0
C206 C 0.7324 0.61785 0.28199 0.0
O207 O 0.75715 0.61959 0.26817 0.0
O208 O 0.70407 0.60979 0.27417 0.0
C209 C 0.81745 0.66137 0.24361 0.0
O210 O 0.79262 0.67443 0.25525 0.0
C211 C 0.62639 0.57468 0.25155 0.0
C212 C 0.60653 0.56995 0.21491 0.0
C213 C 0.59867 0.56522 0.23873 0.0
N214 N 0.6494 0.58488 0.23591 0.0
N215 N 0.63737 0.58168 0.21407 0.0
C216 C 0.63134 0.57358 0.27804 0.0
H217 H 0.64925 0.55389 0.28242 0.0
H218 H 0.6419 0.59723 0.28423 0.0
H219 H 0.6079 0.56894 0.28761 0.0
C220 C 0.74113 0.6598 0.19822 0.0
N221 N 0.73757 0.63653 0.21506 0.0
N222 N 0.7061 0.63144 0.21905 0.0
C223 C 0.68855 0.65257 0.20546 0.0
C224 C 0.71017 0.67095 0.19161 0.0
C225 C 0.77364 0.66977 0.18796 0.0
H226 H 0.79114 0.64889 0.18865 0.0
H227 H 0.78389 0.69028 0.19872 0.0
H228 H 0.77096 0.67809 0.16916 0.0
O229 O 0.7712 0.56803 0.22647 0.0
O230 O 0.7191 0.55578 0.23411 0.0
H231 H 0.63945 0.64401 0.19313 0.0
H232 H 0.64617 0.68421 0.20522 0.0
C233 C 0.65222 0.65778 0.20751 0.0
H234 H 0.64314 0.64924 0.22514 0.0
H235 H 0.6507 0.58636 0.1985 0.0
O236 O 0.81278 0.63544 0.23138 0.0
C237 C 0.74818 0.54706 0.22851 0.0
Co238 Co 0.62647 0.22628 0.74893 0.0
Co239 Co 0.59322 0.29586 0.75369 0.0
C240 C 0.62205 0.27355 0.70767 0.0
O241 O 0.63113 0.24694 0.71754 0.0
O242 O 0.60646 0.29562 0.71924 0.0
C243 C 0.66062 0.17132 0.72925 0.0
O244 O 0.65318 0.18567 0.70893 0.0
C245 C 0.56446 0.36262 0.74966 0.0
C246 C 0.54411 0.36824 0.7861 0.0
C247 C 0.54608 0.38359 0.76405 0.0
N248 N 0.57317 0.33631 0.76282 0.0
N249 N 0.56079 0.33985 0.78451 0.0
C250 C 0.56987 0.36507 0.72324 0.0
H251 H 0.56287 0.34153 0.71463 0.0
H252 H 0.5964 0.36927 0.71973 0.0
H253 H 0.55523 0.38513 0.71509 0.0
C254 C 0.66548 0.25176 0.78918 0.0
N255 N 0.64165 0.25538 0.77274 0.0
N256 N 0.62932 0.28524 0.7742 0.0
C257 C 0.64543 0.30179 0.79158 0.0
C258 C 0.66859 0.28094 0.80181 0.0
C259 C 0.68578 0.22127 0.79183 0.0
H260 H 0.66961 0.20052 0.79708 0.0
H261 H 0.69703 0.21504 0.77434 0.0
H262 H 0.70563 0.22428 0.80526 0.0
O263 O 0.57983 0.21438 0.75329 0.0
O264 O 0.5574 0.2637 0.75786 0.0
H265 H 0.61768 0.33602 0.81226 0.0
H266 H 0.65938 0.34832 0.80741 0.0
C267 C 0.63787 0.33634 0.79894 0.0
H268 H 0.63005 0.35099 0.78323 0.0
H269 H 0.56267 0.32221 0.79799 0.0
O270 O 0.65195 0.18473 0.74881 0.0
C271 C 0.55496 0.23261 0.75694 0.0
Co272 Co 0.72838 0.62185 0.50051 0.0
Co273 Co 0.80122 0.59612 0.502 0.0
C274 C 0.77411 0.62409 0.45771 0.0
O275 O 0.74707 0.62901 0.46852 0.0
O276 O 0.79876 0.61125 0.46825 0.0
C277 C 0.6683 0.64489 0.48188 0.0
O278 O 0.68008 0.63092 0.46252 0.0
C279 C 0.87001 0.57345 0.4962 0.0
C280 C 0.8806 0.55627 0.53291 0.0
C281 C 0.894 0.55874 0.51025 0.0
N282 N 0.84372 0.5797 0.51008 0.0
N283 N 0.85017 0.56907 0.53191 0.0
C284 C 0.87176 0.58123 0.47009 0.0
H285 H 0.8639 0.60701 0.46711 0.0
H286 H 0.897 0.57783 0.46297 0.0
H287 H 0.85446 0.56503 0.46024 0.0
C288 C 0.75205 0.66204 0.54061 0.0
N289 N 0.75705 0.63923 0.52363 0.0
N290 N 0.78811 0.6301 0.5238 0.0
C291 C 0.8041 0.64756 0.54078 0.0
C292 C 0.78161 0.66799 0.5522 0.0
C293 C 0.71978 0.67888 0.54463 0.0
H294 H 0.7115 0.6903 0.52765 0.0
H295 H 0.72143 0.69825 0.55854 0.0
H296 H 0.70107 0.66039 0.54989 0.0
O297 O 0.72091 0.57449 0.50528 0.0
O298 O 0.77251 0.55703 0.50462 0.0
H299 H 0.84312 0.62486 0.56026 0.0
H300 H 0.85026 0.66721 0.55376 0.0
C301 C 0.83992 0.64414 0.54645 0.0
H302 H 0.85388 0.63723 0.5302 0.0
H303 H 0.83339 0.56975 0.54602 0.0
O304 O 0.68505 0.64397 0.50108 0.0
C305 C 0.74182 0.55129 0.50585 0.0
Co306 Co 0.61435 0.2689 0.48275 0.0
Co307 Co 0.59702 0.19444 0.49012 0.0
C308 C 0.61499 0.23423 0.53137 0.0
O309 O 0.61707 0.25849 0.51712 0.0
O310 O 0.60803 0.20549 0.52381 0.0
C311 C 0.65932 0.31887 0.49276 0.0
O312 O 0.67173 0.29519 0.50593 0.0
C313 C 0.57543 0.1263 0.50126 0.0
C314 C 0.57137 0.10615 0.46467 0.0
C315 C 0.56641 0.09839 0.48849 0.0
N316 N 0.58556 0.14932 0.4856 0.0
N317 N 0.58278 0.13709 0.4638 0.0
C318 C 0.57403 0.13138 0.52773 0.0
H319 H 0.59711 0.14314 0.53393 0.0
H320 H 0.57051 0.10779 0.53736 0.0
H321 H 0.55341 0.14825 0.532 0.0
C322 C 0.66086 0.24101 0.44826 0.0
N323 N 0.63727 0.23748 0.46486 0.0
N324 N 0.63237 0.20606 0.46908 0.0
C325 C 0.65396 0.18852 0.45587 0.0
C326 C 0.67247 0.2101 0.44205 0.0
C327 C 0.67036 0.2734 0.43759 0.0
H328 H 0.64906 0.29042 0.43774 0.0
H329 H 0.69039 0.28443 0.44842 0.0
H330 H 0.67913 0.2704 0.41892 0.0
O331 O 0.56804 0.27051 0.47369 0.0
O332 O 0.55583 0.21861 0.48196 0.0
H333 H 0.64547 0.13944 0.44358 0.0
H334 H 0.68558 0.14616 0.45588 0.0
C335 C 0.65912 0.15222 0.45801 0.0
H336 H 0.65035 0.14321 0.4756 0.0
H337 H 0.58754 0.15035 0.44821 0.0
O338 O 0.63444 0.31295 0.47968 0.0
C339 C 0.54718 0.24739 0.47555 0.0
Co340 Co 0.26827 0.37367 0.50412 0.0
Co341 Co 0.19466 0.39672 0.50323 0.0
C342 C 0.22669 0.37578 0.45891 0.0
O343 O 0.25283 0.37142 0.47094 0.0
O344 O 0.20013 0.38538 0.46879 0.0
C345 C 0.31527 0.32679 0.4903 0.0
O346 O 0.29007 0.31581 0.47798 0.0
C347 C 0.12611 0.4194 0.49592 0.0
C348 C 0.1125 0.43205 0.53307 0.0
C349 C 0.1009 0.43217 0.50983 0.0
N350 N 0.15136 0.41167 0.51044 0.0
N351 N 0.14311 0.41964 0.53256 0.0
C352 C 0.12658 0.41502 0.46937 0.0
H353 H 0.1446 0.4324 0.46147 0.0
H354 H 0.13483 0.38973 0.465 0.0
H355 H 0.10197 0.41936 0.4614 0.0
C356 C 0.24266 0.32894 0.54084 0.0
N357 N 0.23812 0.35266 0.52446 0.0
N358 N 0.2068 0.36078 0.52367 0.0
C359 C 0.19021 0.34175 0.53939 0.0
C360 C 0.21252 0.32136 0.55106 0.0
C361 C 0.27525 0.31314 0.54575 0.0
H362 H 0.29386 0.33238 0.54959 0.0
H363 H 0.28326 0.29962 0.52957 0.0
H364 H 0.27423 0.29536 0.56073 0.0
O365 O 0.27433 0.42015 0.51279 0.0
O366 O 0.2223 0.43576 0.50961 0.0
H367 H 0.14955 0.36134 0.5589 0.0
H368 H 0.14364 0.31993 0.54928 0.0
C369 C 0.154 0.34398 0.54396 0.0
H370 H 0.14097 0.35266 0.52775 0.0
H371 H 0.1588 0.41749 0.54724 0.0
O372 O 0.31139 0.35126 0.50417 0.0
C373 C 0.25244 0.44247 0.51329 0.0
Co374 Co 0.37011 0.72916 0.49578 0.0
Co375 Co 0.39832 0.8011 0.49462 0.0
C376 C 0.3751 0.77164 0.54 0.0
O377 O 0.36787 0.74551 0.52872 0.0
O378 O 0.38744 0.79649 0.52937 0.0
C379 C 0.32722 0.67791 0.51118 0.0
O380 O 0.31976 0.6991 0.52802 0.0
C381 C 0.42118 0.86993 0.50133 0.0
C382 C 0.43837 0.88104 0.46472 0.0
C383 C 0.43608 0.89411 0.48751 0.0
N384 N 0.41484 0.84387 0.48721 0.0
N385 N 0.4254 0.85069 0.46542 0.0
C386 C 0.41299 0.87142 0.52738 0.0
H387 H 0.43065 0.85592 0.53746 0.0
H388 H 0.38797 0.86136 0.53036 0.0
H389 H 0.41411 0.89699 0.53423 0.0
C390 C 0.32706 0.75579 0.45842 0.0
N391 N 0.35099 0.75965 0.47474 0.0
N392 N 0.36142 0.79029 0.47449 0.0
C393 C 0.34374 0.80711 0.45803 0.0
C394 C 0.32176 0.78562 0.44709 0.0
C395 C 0.30935 0.72405 0.4542 0.0
H396 H 0.29838 0.71552 0.47125 0.0
H397 H 0.28946 0.72657 0.44075 0.0
H398 H 0.3272 0.70512 0.44823 0.0
O399 O 0.41635 0.72099 0.48767 0.0
O400 O 0.43617 0.77169 0.48782 0.0
H401 H 0.36827 0.84444 0.43804 0.0
H402 H 0.32622 0.85374 0.4446 0.0
C403 C 0.34891 0.84253 0.45192 0.0
H404 H 0.35669 0.85645 0.468 0.0
H405 H 0.42451 0.83423 0.45113 0.0
O406 O 0.34734 0.68615 0.49485 0.0
C407 C 0.44029 0.74085 0.48551 0.0
Co408 Co 0.73007 0.87015 0.74208 0.0
Co409 Co 0.80355 0.89364 0.7418 0.0
C410 C 0.7729 0.87135 0.78651 0.0
O411 O 0.74635 0.86661 0.77504 0.0
O412 O 0.79874 0.88192 0.77618 0.0
C413 C 0.68122 0.82493 0.75621 0.0
O414 O 0.70544 0.81379 0.76946 0.0
C415 C 0.87189 0.91638 0.74924 0.0
C416 C 0.88567 0.9295 0.71222 0.0
C417 C 0.89702 0.92973 0.73554 0.0
N418 N 0.84691 0.90836 0.73455 0.0
N419 N 0.85529 0.91652 0.7125 0.0
C420 C 0.87123 0.91175 0.77577 0.0
H421 H 0.85313 0.92901 0.7837 0.0
H422 H 0.86307 0.88639 0.77998 0.0
H423 H 0.89578 0.91603 0.78386 0.0
C424 C 0.75443 0.82673 0.70413 0.0
N425 N 0.75952 0.84985 0.72086 0.0
N426 N 0.79089 0.85791 0.72129 0.0
C427 C 0.80696 0.83917 0.70509 0.0
C428 C 0.78425 0.81927 0.69344 0.0
C429 C 0.72156 0.81166 0.69904 0.0
H430 H 0.70335 0.83136 0.69542 0.0
H431 H 0.71321 0.79801 0.71508 0.0
H432 H 0.72236 0.79431 0.68376 0.0
O433 O 0.72406 0.91681 0.73427 0.0
O434 O 0.77603 0.93304 0.73574 0.0
H435 H 0.84755 0.85827 0.68526 0.0
H436 H 0.85284 0.81665 0.6947 0.0
C437 C 0.8431 0.84092 0.7002 0.0
H438 H 0.85656 0.84931 0.71631 0.0
H439 H 0.83974 0.91433 0.69774 0.0
O440 O 0.68653 0.84855 0.74184 0.0
C441 C 0.74562 0.93938 0.73299 0.0
Co442 Co 0.87574 0.26892 0.25662 0.0
Co443 Co 0.89755 0.19527 0.25282 0.0
C444 C 0.87418 0.22908 0.21024 0.0
O445 O 0.87103 0.25468 0.22307 0.0
O446 O 0.88403 0.20195 0.2191 0.0
C447 C 0.82675 0.31502 0.24614 0.0
O448 O 0.81463 0.28946 0.23481 0.0
C449 C 0.92115 0.12729 0.24433 0.0
C450 C 0.92942 0.11112 0.2816 0.0
C451 C 0.93225 0.10109 0.25805 0.0
N452 N 0.91183 0.15155 0.25922 0.0
N453 N 0.91716 0.14176 0.28142 0.0
C454 C 0.91956 0.12954 0.21766 0.0
H455 H 0.93781 0.14789 0.21138 0.0
H456 H 0.89484 0.13827 0.21219 0.0
H457 H 0.92456 0.10545 0.20909 0.0
C458 C 0.83343 0.24188 0.29434 0.0
N459 N 0.8562 0.23821 0.27715 0.0
N460 N 0.86291 0.20683 0.27438 0.0
C461 C 0.84336 0.18931 0.28918 0.0
C462 C 0.82431 0.21098 0.30251 0.0
C463 C 0.82222 0.27458 0.30354 0.0
H464 H 0.84223 0.29294 0.30181 0.0
H465 H 0.8009 0.28305 0.29279 0.0
H466 H 0.81465 0.27294 0.32257 0.0
O467 O 0.92266 0.27442 0.26352 0.0
O468 O 0.93754 0.2225 0.2582 0.0
H469 H 0.85599 0.14211 0.30333 0.0
H470 H 0.81464 0.14514 0.29247 0.0
C471 C 0.84044 0.15264 0.28895 0.0
H472 H 0.84845 0.14258 0.27147 0.0
H473 H 0.91327 0.15641 0.29647 0.0
O474 O 0.85308 0.31178 0.25819 0.0
C475 C 0.9448 0.25241 0.26238 0.0
Co476 Co 0.26856 0.11356 0.73772 0.0
Co477 Co 0.19408 0.09454 0.74008 0.0
C478 C 0.2274 0.11998 0.78275 0.0
O479 O 0.2537 0.12206 0.77056 0.0
O480 O 0.20063 0.10968 0.77353 0.0
C481 C 0.32051 0.15964 0.74368 0.0
O482 O 0.29679 0.17967 0.75014 0.0
C483 C 0.12479 0.07521 0.74875 0.0
C484 C 0.11003 0.06108 0.71211 0.0
C485 C 0.0989 0.06246 0.73546 0.0
N486 N 0.14993 0.08143 0.73377 0.0
N487 N 0.14095 0.07265 0.71197 0.0
C488 C 0.12608 0.08073 0.77518 0.0
H489 H 0.13595 0.10563 0.77888 0.0
H490 H 0.10139 0.07831 0.78344 0.0
H491 H 0.14311 0.06261 0.78334 0.0
C492 C 0.24482 0.15516 0.69792 0.0
N493 N 0.23971 0.13344 0.71567 0.0
N494 N 0.208 0.12735 0.71754 0.0
C495 C 0.19175 0.14619 0.70152 0.0
C496 C 0.21459 0.164 0.68834 0.0
C497 C 0.27798 0.16845 0.69135 0.0
H498 H 0.28428 0.18877 0.70373 0.0
H499 H 0.27857 0.17849 0.67296 0.0
H500 H 0.29686 0.14894 0.69312 0.0
O501 O 0.27149 0.06611 0.73252 0.0
O502 O 0.21893 0.05297 0.73632 0.0
H503 H 0.14629 0.17127 0.69293 0.0
H504 H 0.14283 0.14006 0.71554 0.0
C505 C 0.15514 0.14675 0.69855 0.0
H506 H 0.14802 0.12911 0.68436 0.0
H507 H 0.15643 0.07342 0.69711 0.0
O508 O 0.31371 0.13082 0.73657 0.0
C509 C 0.24878 0.04473 0.73325 0.0
Co510 Co 0.11916 0.7286 0.25804 0.0
Co511 Co 0.09543 0.80198 0.257 0.0
C512 C 0.12091 0.77137 0.21336 0.0
O513 O 0.12466 0.74487 0.22508 0.0
O514 O 0.11 0.79738 0.22326 0.0
C515 C 0.16498 0.6797 0.24509 0.0
O516 O 0.17654 0.70381 0.23195 0.0
C517 C 0.07434 0.87086 0.24921 0.0
C518 C 0.05728 0.88372 0.28556 0.0
C519 C 0.06003 0.89586 0.26254 0.0
N520 N 0.07998 0.8452 0.26384 0.0
N521 N 0.0695 0.85304 0.28547 0.0
C522 C 0.08253 0.87114 0.22314 0.0
H523 H 0.10793 0.8619 0.22051 0.0
H524 H 0.08052 0.89621 0.21547 0.0
H525 H 0.06556 0.85434 0.21353 0.0
C526 C 0.16036 0.75381 0.29722 0.0
N527 N 0.1378 0.75831 0.27996 0.0
N528 N 0.12949 0.78955 0.27904 0.0
C529 C 0.14738 0.80615 0.29547 0.0
C530 C 0.16715 0.78393 0.30774 0.0
C531 C 0.17605 0.72134 0.3026 0.0
H532 H 0.15665 0.70271 0.30592 0.0
H533 H 0.19036 0.71326 0.28678 0.0
H534 H 0.1929 0.7226 0.31816 0.0
O535 O 0.07187 0.72224 0.26387 0.0
O536 O 0.0557 0.77406 0.26056 0.0
H537 H 0.12592 0.84704 0.31358 0.0
H538 H 0.1685 0.85242 0.30671 0.0
C539 C 0.14502 0.84236 0.29985 0.0
H540 H 0.13835 0.85538 0.28313 0.0
H541 H 0.06988 0.83706 0.30005 0.0
O542 O 0.14094 0.68513 0.25907 0.0
C543 C 0.04917 0.74371 0.26328 0.0
C544 C 0.24223 0.15014 0.92412 0.0
C545 C 0.26547 0.12767 0.93288 0.0
C546 C 0.23556 0.15251 0.89962 0.0
C547 C 0.2522 0.13152 0.88354 0.0
C548 C 0.27672 0.10972 0.89215 0.0
C549 C 0.28331 0.10829 0.91678 0.0
C550 C 0.20988 0.17663 0.89108 0.0
C551 C 0.29482 0.08682 0.87548 0.0
C552 C 0.21098 0.10871 0.82493 0.0
C553 C 0.22969 0.12681 0.80857 0.0
C554 C 0.21763 0.1105 0.84953 0.0
C555 C 0.24309 0.1314 0.85784 0.0
C556 C 0.2606 0.15126 0.84148 0.0
C557 C 0.2539 0.14848 0.817 0.0
C558 C 0.19858 0.0888 0.86649 0.0
C559 C 0.28727 0.1745 0.84972 0.0
H560 H 0.22864 0.16541 0.93653 0.0
H561 H 0.3011 0.09074 0.92354 0.0
H562 H 0.21991 0.19205 0.87644 0.0
H563 H 0.18844 0.16311 0.88376 0.0
H564 H 0.20113 0.19299 0.90567 0.0
H565 H 0.31397 0.07224 0.88488 0.0
H566 H 0.2771 0.06961 0.86704 0.0
H567 H 0.30669 0.10096 0.86089 0.0
H568 H 0.19246 0.09175 0.81841 0.0
H569 H 0.26827 0.16266 0.80433 0.0
H570 H 0.18741 0.10378 0.88094 0.0
H571 H 0.21554 0.071 0.8751 0.0
H572 H 0.17876 0.07489 0.85729 0.0
H573 H 0.27803 0.19043 0.86435 0.0
H574 H 0.29641 0.19036 0.83498 0.0
H575 H 0.30828 0.16024 0.85696 0.0
C576 C 0.10662 0.7152 0.07964 0.0
C577 C 0.12385 0.73423 0.06297 0.0
C578 C 0.10844 0.72238 0.10417 0.0
C579 C 0.12849 0.74873 0.11212 0.0
C580 C 0.14719 0.76691 0.09543 0.0
C581 C 0.14439 0.75964 0.07104 0.0
C582 C 0.08792 0.70263 0.12148 0.0
C583 C 0.16948 0.7946 0.10326 0.0
C584 C 0.106 0.78748 0.1717 0.0
C585 C 0.12652 0.77012 0.18734 0.0
C586 C 0.10687 0.78128 0.147 0.0
C587 C 0.12926 0.75771 0.13785 0.0
C588 C 0.15144 0.74171 0.15346 0.0
C589 C 0.14959 0.74791 0.17805 0.0
C590 C 0.08266 0.79863 0.13087 0.0
C591 C 0.17624 0.71709 0.14433 0.0
H592 H 0.09052 0.69574 0.07342 0.0
H593 H 0.15795 0.77426 0.05819 0.0
H594 H 0.10381 0.69167 0.13549 0.0
H595 H 0.07009 0.71902 0.13062 0.0
H596 H 0.07409 0.68258 0.11247 0.0
H597 H 0.18394 0.80491 0.08816 0.0
H598 H 0.15464 0.81465 0.11127 0.0
H599 H 0.18678 0.78585 0.11723 0.0
H600 H 0.08796 0.80443 0.17889 0.0
H601 H 0.16567 0.73467 0.19012 0.0
H602 H 0.06562 0.78038 0.12287 0.0
H603 H 0.09575 0.81089 0.11594 0.0
H604 H 0.06793 0.81733 0.14061 0.0
H605 H 0.16328 0.69515 0.13726 0.0
H606 H 0.19355 0.70898 0.15853 0.0
H607 H 0.19062 0.72778 0.12937 0.0
C608 C 0.76127 0.85157 0.92908 0.0
C609 C 0.73493 0.87126 0.9367 0.0
C610 C 0.76917 0.84873 0.90481 0.0
C611 C 0.75061 0.86648 0.88778 0.0
C612 C 0.72344 0.88574 0.89528 0.0
C613 C 0.7157 0.88765 0.91971 0.0
C614 C 0.79776 0.82728 0.89746 0.0
C615 C 0.70324 0.90518 0.87757 0.0
C616 C 0.78866 0.88828 0.82784 0.0
C617 C 0.77197 0.86667 0.81261 0.0
C618 C 0.78254 0.888 0.85256 0.0
C619 C 0.75972 0.86515 0.86211 0.0
C620 C 0.7445 0.84191 0.84693 0.0
C621 C 0.75062 0.84315 0.82232 0.0
C622 C 0.79909 0.91327 0.86825 0.0
C623 C 0.72069 0.81663 0.8565 0.0
H624 H 0.77608 0.83866 0.94219 0.0
H625 H 0.69551 0.90308 0.92558 0.0
H626 H 0.7897 0.80915 0.88384 0.0
H627 H 0.81723 0.84258 0.88916 0.0
H628 H 0.80861 0.81381 0.91284 0.0
H629 H 0.68279 0.91876 0.88629 0.0
H630 H 0.71921 0.9231 0.86815 0.0
H631 H 0.69274 0.88855 0.86383 0.0
H632 H 0.80497 0.90664 0.8203 0.0
H633 H 0.73795 0.82621 0.81055 0.0
H634 H 0.81161 0.90112 0.8835 0.0
H635 H 0.78028 0.93006 0.87583 0.0
H636 H 0.81743 0.92815 0.85828 0.0
H637 H 0.73184 0.80313 0.87171 0.0
H638 H 0.71318 0.79858 0.84261 0.0
H639 H 0.6983 0.82907 0.86331 0.0
C640 C 0.8859 0.2864 0.07588 0.0
C641 C 0.86628 0.2684 0.06002 0.0
C642 C 0.88493 0.27997 0.10055 0.0
C643 C 0.86335 0.25548 0.10943 0.0
C644 C 0.84208 0.2387 0.09359 0.0
C645 C 0.84402 0.24516 0.06905 0.0
C646 C 0.90815 0.2982 0.11694 0.0
C647 C 0.81814 0.21305 0.10244 0.0
C648 C 0.88654 0.21402 0.16789 0.0
C649 C 0.86829 0.23244 0.18434 0.0
C650 C 0.88486 0.22102 0.14333 0.0
C651 C 0.86393 0.24653 0.13515 0.0
C652 C 0.84418 0.26398 0.15162 0.0
C653 C 0.84684 0.25692 0.17604 0.0
C654 C 0.90648 0.20207 0.12625 0.0
C655 C 0.82094 0.29074 0.14353 0.0
H656 H 0.90331 0.30416 0.0689 0.0
H657 H 0.82863 0.23139 0.05681 0.0
H658 H 0.89429 0.31002 0.13169 0.0
H659 H 0.92564 0.28058 0.12518 0.0
H660 H 0.92244 0.31738 0.10735 0.0
H661 H 0.80152 0.20419 0.08803 0.0
H662 H 0.83184 0.1917 0.1097 0.0
H663 H 0.80296 0.22316 0.11719 0.0
H664 H 0.90333 0.19529 0.1743 0.0
H665 H 0.83251 0.27106 0.18874 0.0
H666 H 0.92391 0.21913 0.11736 0.0
H667 H 0.89133 0.19058 0.11203 0.0
H668 H 0.92081 0.18252 0.1354 0.0
H669 H 0.83514 0.31139 0.13572 0.0
H670 H 0.80573 0.30043 0.15846 0.0
H671 H 0.80435 0.28132 0.12935 0.0
C672 C 0.23989 0.35118 0.3171 0.0
C673 C 0.26426 0.37239 0.30832 0.0
C674 C 0.23283 0.34951 0.34155 0.0
C675 C 0.25032 0.36986 0.35759 0.0
C676 C 0.27573 0.39057 0.34898 0.0
C677 C 0.28263 0.39138 0.32437 0.0
C678 C 0.20611 0.32654 0.35011 0.0
C679 C 0.29481 0.4127 0.36564 0.0
C680 C 0.2109 0.39131 0.4172 0.0
C681 C 0.22887 0.37129 0.43281 0.0
C682 C 0.21738 0.39087 0.39252 0.0
C683 C 0.24193 0.36951 0.3834 0.0
C684 C 0.25886 0.34808 0.39901 0.0
C685 C 0.25225 0.34939 0.42353 0.0
C686 C 0.19894 0.41415 0.37633 0.0
C687 C 0.28465 0.32443 0.38993 0.0
H688 H 0.22581 0.33626 0.30475 0.0
H689 H 0.30126 0.40801 0.31759 0.0
H690 H 0.21588 0.30993 0.36415 0.0
H691 H 0.18582 0.34091 0.35826 0.0
H692 H 0.19581 0.31135 0.33538 0.0
H693 H 0.31414 0.42692 0.35616 0.0
H694 H 0.27777 0.43022 0.37446 0.0
H695 H 0.30661 0.39795 0.37994 0.0
H696 H 0.19303 0.40844 0.42439 0.0
H697 H 0.26598 0.33367 0.43555 0.0
H698 H 0.18679 0.40033 0.36169 0.0
H699 H 0.21647 0.43156 0.36792 0.0
H700 H 0.17996 0.42848 0.38611 0.0
H701 H 0.27427 0.30883 0.3755 0.0
H702 H 0.2943 0.30822 0.4043 0.0
H703 H 0.30552 0.33833 0.38213 0.0
C704 C 0.35654 0.76257 0.68275 0.0
C705 C 0.37439 0.73515 0.69078 0.0
C706 C 0.3547 0.77038 0.65841 0.0
C707 C 0.37144 0.75051 0.64165 0.0
C708 C 0.38891 0.72234 0.64953 0.0
C709 C 0.38998 0.71482 0.67406 0.0
C710 C 0.33525 0.80019 0.6507 0.0
C711 C 0.40716 0.70064 0.63211 0.0
C712 C 0.34667 0.75142 0.57639 0.0
C713 C 0.37127 0.77111 0.56622 0.0
C714 C 0.34586 0.74533 0.60102 0.0
C715 C 0.37047 0.75905 0.61583 0.0
C716 C 0.39452 0.78024 0.60584 0.0
C717 C 0.39448 0.78624 0.58108 0.0
C718 C 0.31937 0.72324 0.61103 0.0
C719 C 0.42116 0.79529 0.62113 0.0
H720 H 0.34425 0.7783 0.69559 0.0
H721 H 0.40401 0.6938 0.6802 0.0
H722 H 0.3518 0.81826 0.642 0.0
H723 H 0.31642 0.79305 0.6373 0.0
H724 H 0.32273 0.81243 0.66596 0.0
H725 H 0.41949 0.67964 0.64109 0.0
H726 H 0.38991 0.69085 0.61848 0.0
H727 H 0.42601 0.71528 0.6225 0.0
H728 H 0.32844 0.74003 0.56494 0.0
H729 H 0.41367 0.80125 0.57321 0.0
H730 H 0.30656 0.73559 0.62606 0.0
H731 H 0.33063 0.70046 0.61823 0.0
H732 H 0.30085 0.71626 0.59731 0.0
H733 H 0.41014 0.80888 0.63634 0.0
H734 H 0.43708 0.81238 0.61084 0.0
H735 H 0.43678 0.77554 0.62878 0.0
C736 C 0.79123 0.60801 0.41658 0.0
C737 C 0.77462 0.62981 0.43171 0.0
C738 C 0.78551 0.60844 0.39182 0.0
C739 C 0.76327 0.63171 0.38211 0.0
C740 C 0.74844 0.65537 0.39716 0.0
C741 C 0.75403 0.6539 0.42185 0.0
C742 C 0.80156 0.58264 0.37632 0.0
C743 C 0.72534 0.68114 0.38739 0.0
C744 C 0.76471 0.64327 0.31493 0.0
C745 C 0.73787 0.62399 0.30769 0.0
C746 C 0.77278 0.64673 0.33914 0.0
C747 C 0.7539 0.62998 0.35649 0.0
C748 C 0.72628 0.61107 0.34936 0.0
C749 C 0.71836 0.60857 0.32498 0.0
C750 C 0.80187 0.66777 0.34608 0.0
C751 C 0.70576 0.59261 0.36741 0.0
H752 H 0.80688 0.58916 0.42424 0.0
H753 H 0.74128 0.67088 0.43358 0.0
H754 H 0.78244 0.56589 0.36909 0.0
H755 H 0.814 0.59426 0.36083 0.0
H756 H 0.81987 0.56778 0.38634 0.0
H757 H 0.71898 0.7 0.401 0.0
H758 H 0.73645 0.69358 0.3717 0.0
H759 H 0.70227 0.66927 0.38126 0.0
H760 H 0.77973 0.65544 0.3016 0.0
H761 H 0.69778 0.59346 0.31941 0.0
H762 H 0.82108 0.65231 0.35457 0.0
H763 H 0.79429 0.68645 0.35945 0.0
H764 H 0.81291 0.68056 0.33047 0.0
H765 H 0.72141 0.57468 0.37713 0.0
H766 H 0.68502 0.57916 0.35895 0.0
H767 H 0.69564 0.60988 0.38087 0.0
C768 C 0.60694 0.21947 0.57449 0.0
C769 C 0.61976 0.24072 0.55715 0.0
C770 C 0.60884 0.22745 0.5989 0.0
C771 C 0.62437 0.25708 0.60604 0.0
C772 C 0.63818 0.27812 0.58864 0.0
C773 C 0.63552 0.26978 0.56443 0.0
C774 C 0.59369 0.20449 0.61703 0.0
C775 C 0.65547 0.30958 0.59556 0.0
C776 C 0.60137 0.28976 0.6674 0.0
C777 C 0.62616 0.2759 0.68156 0.0
C778 C 0.60099 0.28472 0.64255 0.0
C779 C 0.6263 0.26591 0.63176 0.0
C780 C 0.65266 0.25404 0.64582 0.0
C781 C 0.65213 0.25899 0.67059 0.0
C782 C 0.57244 0.2977 0.62809 0.0
C783 C 0.6805 0.23457 0.63491 0.0
H784 H 0.59456 0.19712 0.56896 0.0
H785 H 0.64568 0.28629 0.55114 0.0
H786 H 0.61267 0.19614 0.62992 0.0
H787 H 0.57452 0.21767 0.62739 0.0
H788 H 0.58236 0.18255 0.60855 0.0
H789 H 0.66575 0.32274 0.57983 0.0
H790 H 0.63808 0.32621 0.60488 0.0
H791 H 0.6758 0.3042 0.60821 0.0
H792 H 0.58109 0.30252 0.67589 0.0
H793 H 0.67141 0.24838 0.68155 0.0
H794 H 0.55766 0.27679 0.62123 0.0
H795 H 0.58144 0.31166 0.61237 0.0
H796 H 0.55612 0.3139 0.63881 0.0
H797 H 0.67113 0.2105 0.62855 0.0
H798 H 0.70069 0.23003 0.64789 0.0
H799 H 0.69072 0.24767 0.61918 0.0
C800 C 0.20152 0.00756 0.0208 0.0
C801 C 0.23253 0.01614 0.01181 0.0
C802 C 0.19057 0.97487 0.02016 0.0
C803 C 0.21088 0.95041 0.00985 0.0
C804 C 0.24247 0.9588 0.00121 0.0
C805 C 0.25304 0.99152 0.00251 0.0
C806 C 0.15701 0.96662 0.03003 0.0
C807 C 0.26462 0.93347 0.98979 0.0
C808 C 0.19362 0.86042 0.02227 0.0
C809 C 0.17502 0.85156 0.00216 0.0
C810 C 0.20522 0.89263 0.02515 0.0
C811 C 0.1986 0.91625 0.00722 0.0
C812 C 0.18037 0.90726 0.98665 0.0
C813 C 0.16847 0.87505 0.98448 0.0
C814 C 0.2241 0.90148 0.0475 0.0
C815 C 0.17341 0.93166 0.96693 0.0
H816 H 0.18566 0.02646 0.02813 0.0
H817 H 0.27697 -0.002 0.99539 0.0
H818 H 0.1407 0.95824 0.01534 0.0
H819 H 0.15891 0.94615 0.04307 0.0
H820 H 0.14529 0.98798 0.03899 0.0
H821 H 0.2889 0.94382 0.98466 0.0
H822 H 0.26871 0.91262 0.00221 0.0
H823 H 0.25264 0.9234 0.97353 0.0
H824 H 0.19843 0.84237 0.0361 0.0
H825 H 0.15421 0.86817 0.96887 0.0
H826 H 0.21138 0.92171 0.05708 0.0
H827 H 0.24897 0.91052 0.04272 0.0
H828 H 0.22676 0.8803 0.05989 0.0
H829 H 0.15886 0.95253 0.97407 0.0
H830 H 0.15966 0.92048 0.95181 0.0
H831 H 0.19685 0.94188 0.96 0.0
C832 C 0.98751 0.73836 0.99416 0.0
C833 C 0.01115 0.75904 0.98378 0.0
C834 C 0.95464 0.74833 0.99624 0.0
C835 C 0.94513 0.77946 0.98734 0.0
C836 C 0.9685 0.79972 0.97576 0.0
C837 C 0.00134 0.78939 0.9743 0.0
C838 C 0.93046 0.72622 0.00893 0.0
C839 C 0.95906 0.83279 0.96559 0.0
C840 C 0.85443 0.79711 0.97812 0.0
C841 C 0.84732 0.81674 -0.00192 0.0
C842 C 0.88618 0.78471 0.97438 0.0
C843 C 0.91115 0.79161 0.99127 0.0
C844 C 0.90387 0.8107 0.01179 0.0
C845 C 0.87207 0.82334 0.01482 0.0
C846 C 0.89319 0.76495 0.95209 0.0
C847 C 0.92977 0.81803 0.03041 0.0
H848 H 0.99495 0.71493 0.00164 0.0
H849 H 0.01946 0.80536 0.96612 0.0
H850 H 0.92197 0.73829 0.02563 0.0
H851 H 0.90845 0.72204 -0.00239 0.0
H852 H 0.94134 0.70201 0.01361 0.0
H853 H 0.97948 0.84429 0.95539 0.0
H854 H 0.93745 0.83027 0.95361 0.0
H855 H 0.95193 0.8496 0.98032 0.0
H856 H 0.83539 0.79223 0.96501 0.0
H857 H 0.86654 0.83838 0.03031 0.0
H858 H 0.90306 0.74044 0.95697 0.0
H859 H 0.91226 0.77751 0.94124 0.0
H860 H 0.87091 0.76148 0.94086 0.0
H861 H 0.94068 0.79479 0.0371 0.0
H862 H 0.91971 0.83196 0.04585 0.0
H863 H 0.94996 0.83259 0.02229 0.0
C864 C 0.73548 0.00666 0.00697 0.0
C865 C 0.75666 0.98306 0.01685 0.0
C866 C 0.74501 0.03966 0.00516 0.0
C867 C 0.77624 0.04934 0.0138 0.0
C868 C 0.79705 0.02599 0.0249 0.0
C869 C 0.78711 0.99303 0.02613 0.0
C870 C 0.7223 0.06383 0.993 0.0
C871 C 0.83027 0.0356 0.03475 0.0
C872 C 0.81831 0.12336 0.98627 0.0
C873 C 0.81188 0.14775 0.00331 0.0
C874 C 0.80628 0.09134 0.98928 0.0
C875 C 0.78793 0.08349 0.01003 0.0
C876 C 0.78118 0.10808 0.02721 0.0
C877 C 0.79301 0.14005 0.02354 0.0
C878 C 0.81347 0.06583 0.97036 0.0
C879 C 0.7621 0.10047 0.04971 0.0
H880 H 0.71195 -0.00085 -0.00034 0.0
H881 H 0.80349 0.97495 0.03393 0.0
H882 H 0.71821 0.08557 0.00458 0.0
H883 H 0.73384 0.07274 0.97623 0.0
H884 H 0.69807 0.05279 0.98855 0.0
H885 H 0.84224 0.01513 0.04462 0.0
H886 H 0.84666 0.04317 0.01988 0.0
H887 H 0.82781 0.05695 0.04696 0.0
H888 H 0.83275 0.12932 0.97056 0.0
H889 H 0.78822 0.1588 0.03687 0.0
H890 H 0.79016 0.05482 0.96383 0.0
H891 H 0.8284 0.04567 0.97813 0.0
H892 H 0.82697 0.07627 0.95484 0.0
H893 H 0.73758 0.09035 0.04509 0.0
H894 H 0.75864 0.1225 0.06117 0.0
H895 H 0.77521 0.08141 0.06023 0.0
C896 C 0.13342 0.19639 0.97026 0.0
C897 C 0.14319 0.17915 0.99078 0.0
C898 C 0.101 0.20753 0.96762 0.0
C899 C 0.07804 0.2018 0.98615 0.0
C900 C 0.08792 0.18494 0.00711 0.0
C901 C 0.12035 0.17352 0.00908 0.0
C902 C 0.09121 0.22499 0.94486 0.0
C903 C 0.06421 0.17892 0.02743 0.0
C904 C 0.00225 0.25573 0.99005 0.0
C905 C 0.97765 0.23454 0.98155 0.0
C906 C 0.0351 0.2455 0.99141 0.0
C907 C 0.04364 0.21352 0.98368 0.0
C908 C 0.01916 0.19243 0.97425 0.0
C909 C 0.98635 0.2031 0.9735 0.0
C910 C 0.06048 0.26853 0.00184 0.0
C911 C 0.02752 0.15837 0.9654 0.0
H912 H 0.15094 0.20052 0.95596 0.0
H913 H 0.12789 0.16032 0.02501 0.0
H914 H 0.07088 0.21148 0.936 0.0
H915 H 0.08197 0.24998 0.94905 0.0
H916 H 0.112 0.22721 0.93208 0.0
H917 H 0.07604 0.16619 0.04276 0.0
H918 H 0.05394 0.20261 0.0338 0.0
H919 H 0.04327 0.16375 0.0211 0.0
H920 H 0.9957 0.28001 0.99646 0.0
H921 H 0.96748 0.18668 0.9668 0.0
H922 H 0.08094 0.27218 0.98901 0.0
H923 H 0.07115 0.25755 0.01827 0.0
H924 H 0.04996 0.29292 0.00644 0.0
H925 H 0.04754 0.15966 0.95196 0.0
H926 H 0.00601 0.14582 0.95723 0.0
H927 H 0.0366 0.14316 0.98048 0.0
C928 C 0.1945 0.63755 0.22097 0.0
C929 C 0.17798 0.64614 0.24207 0.0
C930 C 0.20541 0.6053 0.21714 0.0
C931 C 0.20023 0.58133 0.23506 0.0
C932 C 0.18403 0.59001 0.25658 0.0
C933 C 0.17279 0.6223 0.25973 0.0
C934 C 0.22211 0.59679 0.19382 0.0
C935 C 0.17865 0.5652 0.27628 0.0
C936 C 0.20172 0.49022 0.22073 0.0
C937 C 0.23333 0.48143 0.22844 0.0
C938 C 0.19098 0.52295 0.22197 0.0
C939 C 0.21218 0.54723 0.23154 0.0
C940 C 0.24441 0.53867 0.23871 0.0
C941 C 0.2547 0.50593 0.23687 0.0
C942 C 0.15666 0.53139 0.21368 0.0
C943 C 0.26758 0.56383 0.24926 0.0
H944 H 0.19823 0.65586 0.20715 0.0
H945 H 0.16011 0.62894 0.27608 0.0
H946 H 0.24735 0.58765 0.19729 0.0
H947 H 0.20848 0.57675 0.18471 0.0
H948 H 0.22364 0.61818 0.18152 0.0
H949 H 0.16619 0.57609 0.29209 0.0
H950 H 0.1635 0.5445 0.26956 0.0
H951 H 0.2026 0.55482 0.28208 0.0
H952 H 0.18516 0.47144 0.21407 0.0
H953 H 0.27913 0.49935 0.24298 0.0
H954 H 0.15744 0.5522 0.20086 0.0
H955 H 0.1416 0.53935 0.22917 0.0
H956 H 0.14423 0.51023 0.20495 0.0
H957 H 0.27051 0.5849 0.23686 0.0
H958 H 0.29228 0.55341 0.2531 0.0
H959 H 0.25714 0.57359 0.26616 0.0
C960 C 0.62363 0.81737 0.74184 0.0
C961 C 0.64772 0.81174 0.75928 0.0
C962 C 0.59134 0.80619 0.74509 0.0
C963 C 0.58292 0.7895 0.76645 0.0
C964 C 0.60717 0.78366 0.78408 0.0
C965 C 0.63941 0.79462 0.78018 0.0
C966 C 0.5662 0.81237 0.7257 0.0
C967 C 0.59894 0.76634 0.8072 0.0
C968 C 0.49199 0.7901 0.78126 0.0
C969 C 0.48213 0.75918 0.77281 0.0
C970 C 0.52506 0.79979 0.78024 0.0
C971 C 0.54864 0.77822 0.77022 0.0
C972 C 0.53906 0.74654 0.7625 0.0
C973 C 0.50595 0.7373 0.76406 0.0
C974 C 0.53457 0.83355 0.78908 0.0
C975 C 0.56348 0.72298 0.75152 0.0
H976 H 0.63005 0.83046 0.72562 0.0
H977 H 0.65792 0.79048 0.79381 0.0
H978 H 0.55521 0.78875 0.7198 0.0
H979 H 0.54594 0.8278 0.7328 0.0
H980 H 0.57698 0.82489 0.70989 0.0
H981 H 0.62069 0.76372 0.81909 0.0
H982 H 0.57962 0.78022 0.81692 0.0
H983 H 0.58889 0.74154 0.80342 0.0
H984 H 0.47375 0.80704 0.78819 0.0
H985 H 0.49856 0.71337 0.75743 0.0
H986 H 0.54247 0.84897 0.77376 0.0
H987 H 0.55569 0.83183 0.80158 0.0
H988 H 0.51392 0.84614 0.79832 0.0
H989 H 0.5729 0.73334 0.73449 0.0
H990 H 0.55246 0.69853 0.74776 0.0
H991 H 0.5849 0.71958 0.76356 0.0
C992 C 0.79227 0.35422 0.22282 0.0
C993 C 0.81177 0.34771 0.24296 0.0
C994 C 0.77996 0.38586 0.21851 0.0
C995 C 0.78683 0.41131 0.235 0.0
C996 C 0.80569 0.40461 0.25573 0.0
C997 C 0.81823 0.37292 0.25935 0.0
C998 C 0.76038 0.39223 0.19602 0.0
C999 C 0.813 0.43104 0.27395 0.0
C1000 C 0.78609 0.50117 0.21736 0.0
C1001 C 0.75605 0.51166 0.227 0.0
C1002 C 0.7957 0.46813 0.21877 0.0
C1003 C 0.77499 0.44523 0.23045 0.0
C1004 C 0.74402 0.45536 0.23928 0.0
C1005 C 0.73479 0.48844 0.23727 0.0
C1006 C 0.82861 0.45802 0.20867 0.0
C1007 C 0.7214 0.4317 0.25202 0.0
H1008 H 0.78749 0.33481 0.20999 0.0
H1009 H 0.83315 0.36786 0.275 0.0
H1010 H 0.73602 0.40276 0.20059 0.0
H1011 H 0.77335 0.41058 0.18477 0.0
H1012 H 0.75657 0.36956 0.1853 0.0
H1013 H 0.8267 0.42141 0.28965 0.0
H1014 H 0.8278 0.45084 0.26557 0.0
H1015 H 0.78974 0.44231 0.28031 0.0
H1016 H 0.80249 0.51893 0.20921 0.0
H1017 H 0.71155 0.49634 0.24483 0.0
H1018 H 0.82584 0.43602 0.19711 0.0
H1019 H 0.84547 0.45128 0.22349 0.0
H1020 H 0.84023 0.47796 0.19806 0.0
H1021 H 0.71745 0.40934 0.24105 0.0
H1022 H 0.6971 0.44284 0.25612 0.0
H1023 H 0.73294 0.42376 0.26906 0.0
C1024 C 0.36606 0.19948 0.73759 0.0
C1025 C 0.35498 0.16939 0.74652 0.0
C1026 C 0.39922 0.20852 0.73985 0.0
C1027 C 0.4212 0.18751 0.75225 0.0
C1028 C 0.40973 0.15749 0.7619 0.0
C1029 C 0.37681 0.14846 0.75846 0.0
C1030 C 0.41082 0.24023 0.72864 0.0
C1031 C 0.43209 0.13511 0.77604 0.0
C1032 C 0.51246 0.19588 0.7398 0.0
C1033 C 0.52198 0.21804 0.75764 0.0
C1034 C 0.47966 0.18558 0.73788 0.0
C1035 C 0.45631 0.1968 0.75481 0.0
C1036 C 0.46631 0.21783 0.77364 0.0
C1037 C 0.49897 0.22883 0.7745 0.0
C1038 C 0.46971 0.16402 0.71711 0.0
C1039 C 0.4424 0.22922 0.79256 0.0
H1040 H 0.34898 0.21547 0.72829 0.0
H1041 H 0.36789 0.12533 0.76559 0.0
H1042 H 0.42043 0.25699 0.74263 0.0
H1043 H 0.43131 0.23517 0.71605 0.0
H1044 H 0.39087 0.25306 0.71878 0.0
H1045 H 0.41883 0.11352 0.78343 0.0
H1046 H 0.45241 0.12615 0.76453 0.0
H1047 H 0.44342 0.14892 0.79105 0.0
H1048 H 0.53029 0.18804 0.72656 0.0
H1049 H 0.50653 0.24603 0.78826 0.0
H1050 H 0.45126 0.17704 0.70596 0.0
H1051 H 0.45798 0.14116 0.72369 0.0
H1052 H 0.49096 0.15726 0.70563 0.0
H1053 H 0.42382 0.24576 0.78446 0.0
H1054 H 0.45487 0.24262 0.80731 0.0
H1055 H 0.42903 0.20789 0.80021 0.0
C1056 C 0.7514 0.49165 0.49828 0.0
C1057 C 0.73036 0.51682 0.50604 0.0
C1058 C 0.74027 0.45918 0.49634 0.0
C1059 C 0.70751 0.45158 0.50277 0.0
C1060 C 0.68642 0.47665 0.51132 0.0
C1061 C 0.69801 0.50908 0.51263 0.0
C1062 C 0.76333 0.43317 0.48683 0.0
C1063 C 0.65152 0.46926 0.51881 0.0
C1064 C 0.66794 0.37527 0.47639 0.0
C1065 C 0.67232 0.35253 0.49491 0.0
C1066 C 0.67957 0.40759 0.47863 0.0
C1067 C 0.69518 0.41744 0.50012 0.0
C1068 C 0.69937 0.3946 0.51895 0.0
C1069 C 0.68823 0.36227 0.51599 0.0
C1070 C 0.6753 0.43112 0.45798 0.0
C1071 C 0.71531 0.4044 0.54229 0.0
H1072 H 0.77637 0.49748 0.49297 0.0
H1073 H 0.6817 0.52841 0.51874 0.0
H1074 H 0.76593 0.41296 0.5 0.0
H1075 H 0.753 0.42233 0.47023 0.0
H1076 H 0.78817 0.44311 0.4828 0.0
H1077 H 0.63885 0.4912 0.52623 0.0
H1078 H 0.63726 0.46019 0.50324 0.0
H1079 H 0.65131 0.44952 0.5325 0.0
H1080 H 0.65573 0.36768 0.46005 0.0
H1081 H 0.69126 0.3448 0.53047 0.0
H1082 H 0.69962 0.44076 0.45232 0.0
H1083 H 0.66025 0.45248 0.46366 0.0
H1084 H 0.66325 0.41938 0.44233 0.0
H1085 H 0.74092 0.41265 0.53907 0.0
H1086 H 0.71578 0.38391 0.55542 0.0
H1087 H 0.70184 0.4254 0.55031 0.0
C1088 C 0.48813 0.23377 0.48267 0.0
C1089 C 0.51182 0.25503 0.47299 0.0
C1090 C 0.45501 0.2431 0.48402 0.0
C1091 C 0.44536 0.27422 0.47519 0.0
C1092 C 0.46874 0.29485 0.46398 0.0
C1093 C 0.50178 0.28509 0.46315 0.0
C1094 C 0.43077 0.22052 0.49621 0.0
C1095 C 0.45919 0.32796 0.45394 0.0
C1096 C 0.35473 0.29291 0.46672 0.0
C1097 C 0.34802 0.31192 0.48708 0.0
C1098 C 0.3863 0.28026 0.46262 0.0
C1099 C 0.4115 0.2864 0.47948 0.0
C1100 C 0.40465 0.3049 0.50035 0.0
C1101 C 0.373 0.31767 0.50381 0.0
C1102 C 0.39287 0.26101 0.44003 0.0
C1103 C 0.43084 0.31154 0.51889 0.0
H1104 H 0.49568 0.21049 0.49033 0.0
H1105 H 0.5199 0.3015 0.45543 0.0
H1106 H 0.42271 0.2317 0.51333 0.0
H1107 H 0.40852 0.2172 0.48498 0.0
H1108 H 0.4415 0.19597 0.50006 0.0
H1109 H 0.47946 0.33941 0.44356 0.0
H1110 H 0.43733 0.32559 0.44218 0.0
H1111 H 0.45244 0.34475 0.46879 0.0
H1112 H 0.33551 0.28862 0.45364 0.0
H1113 H 0.36782 0.33219 0.51962 0.0
H1114 H 0.40294 0.23643 0.4445 0.0
H1115 H 0.41166 0.27387 0.42912 0.0
H1116 H 0.37036 0.25773 0.42902 0.0
H1117 H 0.44159 0.28804 0.52523 0.0
H1118 H 0.42113 0.32521 0.53457 0.0
H1119 H 0.45107 0.32609 0.51083 0.0
C1120 C 0.31706 0.62316 0.49243 0.0
C1121 C 0.31434 0.64405 0.51226 0.0
C1122 C 0.30633 0.59047 0.49364 0.0
C1123 C 0.29297 0.57834 0.51529 0.0
C1124 C 0.28999 0.59935 0.53533 0.0
C1125 C 0.3005 0.63207 0.53352 0.0
C1126 C 0.30939 0.56887 0.47178 0.0
C1127 C 0.27614 0.58714 0.55876 0.0
C1128 C 0.2396 0.50235 0.51086 0.0
C1129 C 0.2622 0.47728 0.51614 0.0
C1130 C 0.24914 0.53542 0.51098 0.0
C1131 C 0.28195 0.54366 0.51683 0.0
C1132 C 0.30456 0.51865 0.52313 0.0
C1133 C 0.29446 0.48568 0.52256 0.0
C1134 C 0.22442 0.56141 0.50398 0.0
C1135 C 0.33963 0.52665 0.52984 0.0
H1136 H 0.3276 0.63238 0.47594 0.0
H1137 H 0.29854 0.64806 0.54896 0.0
H1138 H 0.32556 0.5476 0.47577 0.0
H1139 H 0.28493 0.55893 0.46679 0.0
H1140 H 0.31967 0.5823 0.45618 0.0
H1141 H 0.27553 0.60665 0.57266 0.0
H1142 H 0.25079 0.57776 0.55608 0.0
H1143 H 0.29119 0.56636 0.56549 0.0
H1144 H 0.21462 0.49613 0.50582 0.0
H1145 H 0.312 0.46647 0.52679 0.0
H1146 H 0.23258 0.57379 0.48732 0.0
H1147 H 0.22278 0.58052 0.51808 0.0
H1148 H 0.19949 0.55104 0.50095 0.0
H1149 H 0.35256 0.53739 0.51422 0.0
H1150 H 0.35345 0.50461 0.53589 0.0
H1151 H 0.3401 0.54529 0.54433 0.0
C1152 C 0.50089 0.74907 0.48006 0.0
C1153 C 0.47391 0.7277 0.48197 0.0
C1154 C 0.53312 0.73688 0.47886 0.0
C1155 C 0.53847 0.70254 0.47967 0.0
C1156 C 0.51135 0.68082 0.48088 0.0
C1157 C 0.4794 0.69365 0.48195 0.0
C1158 C 0.56148 0.76076 0.47736 0.0
C1159 C 0.51613 0.64402 0.48175 0.0
C1160 C 0.61971 0.66622 0.45942 0.0
C1161 C 0.63568 0.66087 0.48132 0.0
C1162 C 0.58833 0.68047 0.45856 0.0
C1163 C 0.57246 0.68924 0.48014 0.0
C1164 C 0.58862 0.68431 0.50229 0.0
C1165 C 0.62014 0.67034 0.50261 0.0
C1166 C 0.572 0.68573 0.4346 0.0
C1167 C 0.57233 0.69319 0.52569 0.0
H1168 H 0.49692 0.77541 0.47997 0.0
H1169 H 0.45875 0.67692 0.48338 0.0
H1170 H 0.57681 0.75883 0.49372 0.0
H1171 H 0.57745 0.75459 0.46192 0.0
H1172 H 0.55307 0.78661 0.47548 0.0
H1173 H 0.49241 0.63047 0.4818 0.0
H1174 H 0.53082 0.63574 0.46616 0.0
H1175 H 0.53006 0.63728 0.4981 0.0
H1176 H 0.63169 0.65921 0.44287 0.0
H1177 H 0.63237 0.66628 0.51959 0.0
H1178 H 0.56464 0.71184 0.4326 0.0
H1179 H 0.54927 0.67073 0.43346 0.0
H1180 H 0.58831 0.679 0.41943 0.0
H1181 H 0.56529 0.71953 0.52567 0.0
H1182 H 0.58853 0.6885 0.54132 0.0
H1183 H 0.54941 0.6787 0.5279 0.0
C1184 C 0.75808 -0.00042 0.73173 0.0
C1185 C 0.7351 0.97395 0.72986 0.0
C1186 C 0.74809 0.03255 0.73089 0.0
C1187 C 0.71436 0.04003 0.72801 0.0
C1188 C 0.69117 0.01434 0.72537 0.0
C1189 C 0.70181 0.9816 0.72636 0.0
C1190 C 0.77351 0.05934 0.73373 0.0
C1191 C 0.65498 0.02143 0.72209 0.0
C1192 C 0.68063 0.12115 0.75058 0.0
C1193 C 0.67677 0.13877 0.72922 0.0
C1194 C 0.69356 0.0892 0.75049 0.0
C1195 C 0.70301 0.07468 0.72854 0.0
C1196 C 0.70026 0.09276 0.70702 0.0
C1197 C 0.68709 0.12459 0.70762 0.0
C1198 C 0.69622 0.07065 0.77381 0.0
C1199 C 0.71039 0.07815 0.68331 0.0
H1200 H 0.78387 0.99395 0.73444 0.0
H1201 H 0.68389 0.96199 0.72479 0.0
H1202 H 0.77192 0.07692 0.71861 0.0
H1203 H 0.76862 0.07338 0.75036 0.0
H1204 H 0.79894 0.04943 0.73458 0.0
H1205 H 0.64031 -0.0013 0.71937 0.0
H1206 H 0.64535 0.03446 0.73806 0.0
H1207 H 0.65123 0.03783 0.70648 0.0
H1208 H 0.67282 0.13199 0.76735 0.0
H1209 H 0.68442 0.13815 0.69105 0.0
H1210 H 0.72172 0.06165 0.77641 0.0
H1211 H 0.67991 0.0488 0.77332 0.0
H1212 H 0.68928 0.086 0.78944 0.0
H1213 H 0.73606 0.06902 0.68428 0.0
H1214 H 0.70856 0.09616 0.66844 0.0
H1215 H 0.69448 0.05677 0.67907 0.0
C1216 C 0.13594 0.30108 0.27221 0.0
C1217 C 0.1448 0.31772 0.25121 0.0
C1218 C 0.10375 0.28971 0.27563 0.0
C1219 C 0.0801 0.29455 0.2574 0.0
C1220 C 0.08909 0.31075 0.23596 0.0
C1221 C 0.12131 0.32246 0.23322 0.0
C1222 C 0.0949 0.27303 0.29888 0.0
C1223 C 0.06464 0.31582 0.21596 0.0
C1224 C 0.00425 0.24053 0.25533 0.0
C1225 C 0.97983 0.26209 0.26361 0.0
C1226 C 0.03713 0.25059 0.25363 0.0
C1227 C 0.04586 0.28279 0.26072 0.0
C1228 C 0.02163 0.30419 0.27009 0.0
C1229 C 0.98882 0.29366 0.27126 0.0
C1230 C 0.06227 0.22718 0.24335 0.0
C1231 C 0.0302 0.33852 0.27825 0.0
H1232 H 0.15398 0.29768 0.28627 0.0
H1233 H 0.12817 0.3352 0.21694 0.0
H1234 H 0.07489 0.28681 0.3079 0.0
H1235 H 0.08556 0.24788 0.29535 0.0
H1236 H 0.11618 0.27131 0.31129 0.0
H1237 H 0.07585 0.32798 0.20015 0.0
H1238 H 0.05428 0.29183 0.21027 0.0
H1239 H 0.04385 0.33114 0.22234 0.0
H1240 H -0.00247 0.21613 0.24928 0.0
H1241 H 0.97012 0.31037 0.27781 0.0
H1242 H 0.08324 0.22431 0.25587 0.0
H1243 H 0.07223 0.23737 0.22644 0.0
H1244 H 0.05174 0.20251 0.23962 0.0
H1245 H 0.05079 0.33773 0.29127 0.0
H1246 H 0.00898 0.35121 0.28669 0.0
H1247 H 0.03855 0.35333 0.26275 0.0
C1248 C 0.29657 0.8531 0.7292 0.0
C1249 C 0.31494 0.84651 0.74987 0.0
C1250 C 0.2839 0.88457 0.72489 0.0
C1251 C 0.28922 0.90973 0.74192 0.0
C1252 C 0.30684 0.90289 0.76319 0.0
C1253 C 0.31982 0.87138 0.7668 0.0
C1254 C 0.26572 0.89116 0.70182 0.0
C1255 C 0.31245 0.929 0.78196 0.0
C1256 C 0.28855 -0.00042 0.7245 0.0
C1257 C 0.25758 0.00955 0.73275 0.0
C1258 C 0.29861 0.96676 0.72643 0.0
C1259 C 0.27737 0.94356 0.73724 0.0
C1260 C 0.24563 0.95321 0.74484 0.0
C1261 C 0.23599 0.98609 0.74231 0.0
C1262 C 0.3324 0.95716 0.71767 0.0
C1263 C 0.22248 0.92918 0.75669 0.0
H1264 H 0.29304 0.83393 0.71597 0.0
H1265 H 0.33385 0.86621 0.78286 0.0
H1266 H 0.24094 0.90126 0.70564 0.0
H1267 H 0.27916 0.9099 0.69123 0.0
H1268 H 0.26293 0.86866 0.69074 0.0
H1269 H 0.32504 0.91916 0.79808 0.0
H1270 H 0.32767 0.94911 0.77442 0.0
H1271 H 0.28863 0.93991 0.7875 0.0
H1272 H 0.30521 0.01758 0.71691 0.0
H1273 H 0.21205 0.99367 0.74882 0.0
H1274 H 0.33076 0.93542 0.70574 0.0
H1275 H 0.34808 0.9502 0.7331 0.0
H1276 H 0.3447 0.97743 0.70781 0.0
H1277 H 0.21934 0.90699 0.7454 0.0
H1278 H 0.19788 0.94008 0.76014 0.0
H1279 H 0.23309 0.92102 0.77398 0.0
C1280 C 0.00566 0.7015 0.2711 0.0
C1281 C 0.0144 0.73302 0.26323 0.0
C1282 C 0.97318 0.69015 0.26897 0.0
C1283 C 0.94913 0.71059 0.25828 0.0
C1284 C 0.95768 0.74265 0.25072 0.0
C1285 C 0.99013 0.7536 0.25352 0.0
C1286 C 0.96475 0.65609 0.27774 0.0
C1287 C 0.93282 0.76498 0.23892 0.0
C1288 C 0.87536 0.66887 0.22978 0.0
C1289 C 0.85084 0.67478 0.24681 0.0
C1290 C 0.90744 0.68072 0.23317 0.0
C1291 C 0.91522 0.69817 0.25436 0.0
C1292 C 0.89055 0.70398 0.27169 0.0
C1293 C 0.85854 0.69254 0.26757 0.0
C1294 C 0.93297 0.67466 0.21407 0.0
C1295 C 0.89807 0.72189 0.29472 0.0
H1296 H 0.02428 0.68555 0.2787 0.0
H1297 H 0.99674 0.77791 0.24721 0.0
H1298 H 0.94351 0.65717 0.29017 0.0
H1299 H 0.9574 0.64041 0.26242 0.0
H1300 H 0.98572 0.64417 0.28707 0.0
H1301 H 0.94327 0.78947 0.23452 0.0
H1302 H 0.92374 0.75347 0.22218 0.0
H1303 H 0.91125 0.76851 0.25078 0.0
H1304 H 0.86939 0.65521 0.2137 0.0
H1305 H 0.83969 0.69678 0.28093 0.0
H1306 H 0.95356 0.66 0.22152 0.0
H1307 H 0.94339 0.6984 0.2079 0.0
H1308 H 0.92271 0.66142 0.19837 0.0
H1309 H 0.91808 0.70907 0.30447 0.0
H1310 H 0.87627 0.72361 0.30663 0.0
H1311 H 0.90687 0.74711 0.29077 0.0
C1312 C 0.4275 0.02554 0.9795 0.0
C1313 C 0.42618 0.04759 -0.00127 0.0
C1314 C 0.45595 0.00679 0.9752 0.0
C1315 C 0.48342 0.01026 0.99058 0.0
C1316 C 0.48286 0.03426 0.00893 0.0
C1317 C 0.45414 0.05242 0.01288 0.0
C1318 C 0.45562 0.98159 0.95541 0.0
C1319 C 0.51173 0.03906 0.02559 0.0
C1320 C 0.53749 0.93929 0.009 0.0
C1321 C 0.56716 0.94719 -0.00227 0.0
C1322 C 0.5092 0.95821 0.00523 0.0
C1323 C 0.5108 0.98604 0.99006 0.0
C1324 C 0.54015 0.99284 0.97736 0.0
C1325 C 0.56813 0.97331 0.98141 0.0
C1326 C 0.47832 0.94983 0.01894 0.0
C1327 C 0.54281 0.02216 0.96097 0.0
H1328 H 0.40566 0.0213 0.96881 0.0
H1329 H 0.45304 0.0695 0.02776 0.0
H1330 H 0.47938 0.98147 0.94566 0.0
H1331 H 0.45215 0.95677 0.96324 0.0
H1332 H 0.43541 0.98613 0.94245 0.0
H1333 H 0.50876 0.06111 0.03712 0.0
H1334 H 0.51432 0.0172 0.0373 0.0
H1335 H 0.53487 0.04159 0.01526 0.0
H1336 H 0.53681 0.91908 0.02164 0.0
H1337 H 0.59125 0.97989 0.97304 0.0
H1338 H 0.45666 0.94992 0.00688 0.0
H1339 H 0.47401 0.96869 0.03294 0.0
H1340 H 0.47996 0.92541 0.02775 0.0
H1341 H 0.52043 0.02463 0.94975 0.0
H1342 H 0.56466 0.02049 0.94912 0.0
H1343 H 0.545 0.04485 0.97187 0.0
C1344 C 0.05525 0.53959 0.98606 0.0
C1345 C 0.04706 0.56866 -0.00199 0.0
C1346 C 0.03639 0.51108 0.98897 0.0
C1347 C 0.00831 0.51188 0.00394 0.0
C1348 C 0.00116 0.5406 0.01728 0.0
C1349 C 0.02067 0.56879 0.01411 0.0
C1350 C 0.04514 0.48088 0.9746 0.0
C1351 C 0.97153 0.54238 0.03345 0.0
C1352 C 0.94209 0.45575 0.97994 0.0
C1353 C 0.9467 0.42749 0.99379 0.0
C1354 C 0.96041 0.48428 0.98428 0.0
C1355 C 0.98432 0.48434 0.00271 0.0
C1356 C 0.98775 0.45646 0.01766 0.0
C1357 C 0.96889 0.42823 0.01298 0.0
C1358 C 0.95571 0.51357 0.96803 0.0
C1359 C 0.01293 0.45558 0.03748 0.0
H1360 H 0.07567 0.53957 0.97358 0.0
H1361 H 0.01388 0.59147 0.023 0.0
H1362 H 0.045 0.45872 0.98615 0.0
H1363 H 0.0265 0.47709 0.96036 0.0
H1364 H 0.0697 0.48303 0.96604 0.0
H1365 H 0.97267 0.56391 0.04564 0.0
H1366 H 0.94896 0.5445 0.02239 0.0
H1367 H 0.96925 0.51969 0.04432 0.0
H1368 H 0.92495 0.45511 0.96508 0.0
H1369 H 0.97304 0.40614 0.02338 0.0
H1370 H 0.97775 0.51661 0.95654 0.0
H1371 H 0.95293 0.53638 0.97871 0.0
H1372 H 0.93383 0.51084 0.95629 0.0
H1373 H 0.03783 0.45281 0.02963 0.0
H1374 H 0.00863 0.43477 0.04996 0.0
H1375 H 0.0127 0.47888 0.04779 0.0
C1376 C 0.53831 0.55798 0.23655 0.0
C1377 C 0.56828 0.5489 0.24691 0.0
C1378 C 0.51005 0.53882 0.23977 0.0
C1379 C 0.51199 0.50955 0.2534 0.0
C1380 C 0.54169 0.50145 0.26527 0.0
C1381 C 0.56963 0.52126 0.26183 0.0
C1382 C 0.4788 0.54862 0.227 0.0
C1383 C 0.54471 0.47057 0.28003 0.0
C1384 C 0.42891 0.46914 0.2631 0.0
C1385 C 0.42702 0.44888 0.24286 0.0
C1386 C 0.45749 0.48745 0.26792 0.0
C1387 C 0.48451 0.48548 0.252 0.0
C1388 C 0.4834 0.46331 0.23249 0.0
C1389 C 0.45458 0.44546 0.22809 0.0
C1390 C 0.45778 0.51066 0.28896 0.0
C1391 C 0.51174 0.46018 0.21518 0.0
H1392 H 0.53735 0.57936 0.22499 0.0
H1393 H 0.59297 0.51382 0.26947 0.0
H1394 H 0.47403 0.53123 0.2121 0.0
H1395 H 0.4575 0.54736 0.23935 0.0
H1396 H 0.48027 0.57386 0.2195 0.0
H1397 H 0.56695 0.47099 0.29158 0.0
H1398 H 0.52268 0.46708 0.29145 0.0
H1399 H 0.54645 0.44901 0.26794 0.0
H1400 H 0.4074 0.47237 0.27429 0.0
H1401 H 0.45309 0.42978 0.21244 0.0
H1402 H 0.45413 0.53618 0.2825 0.0
H1403 H 0.48182 0.50981 0.29834 0.0
H1404 H 0.43794 0.50487 0.30195 0.0
H1405 H 0.51406 0.48318 0.20465 0.0
H1406 H 0.50837 0.43938 0.20254 0.0
H1407 H 0.53518 0.45657 0.22499 0.0
C1408 C 0.54528 0.43907 0.74445 0.0
C1409 C 0.52946 0.4148 0.758 0.0
C1410 C 0.5309 0.47019 0.74133 0.0
C1411 C 0.50031 0.47716 0.75234 0.0
C1412 C 0.48363 0.45218 0.76511 0.0
C1413 C 0.49847 0.42136 0.76782 0.0
C1414 C 0.54931 0.49615 0.72748 0.0
C1415 C 0.45103 0.45856 0.7772 0.0
C1416 C 0.4812 0.5616 0.77662 0.0
C1417 C 0.45667 0.57253 0.76091 0.0
C1418 C 0.49686 0.53137 0.7732 0.0
C1419 C 0.48774 0.51141 0.75356 0.0
C1420 C 0.46414 0.52297 0.73692 0.0
C1421 C 0.44869 0.55343 0.74086 0.0
C1422 C 0.5219 0.52003 0.7914 0.0
C1423 C 0.45398 0.50245 0.71569 0.0
H1424 H 0.56957 0.43432 0.73727 0.0
H1425 H 0.48614 0.40257 0.77823 0.0
H1426 H 0.53247 0.50946 0.71523 0.0
H1427 H 0.55972 0.51445 0.7401 0.0
H1428 H 0.5698 0.4855 0.71686 0.0
H1429 H 0.43986 0.43573 0.78445 0.0
H1430 H 0.45459 0.47612 0.79217 0.0
H1431 H 0.43346 0.46992 0.76447 0.0
H1432 H 0.48765 0.57643 0.79204 0.0
H1433 H 0.42936 0.56148 0.72889 0.0
H1434 H 0.54486 0.51215 0.78237 0.0
H1435 H 0.51213 0.49847 0.80127 0.0
H1436 H 0.52806 0.53953 0.80457 0.0
H1437 H 0.4759 0.49222 0.70651 0.0
H1438 H 0.43931 0.51683 0.70259 0.0
H1439 H 0.43889 0.48139 0.72189 0.0
C1440 C 0.95343 0.55013 0.51757 0.0
C1441 C 0.92582 0.54435 0.50326 0.0
C1442 C 0.98257 0.53244 0.51409 0.0
C1443 C 0.98378 0.50778 0.49622 0.0
C1444 C 0.95644 0.50299 0.4809 0.0
C1445 C 0.92769 0.52148 0.48458 0.0
C1446 C 0.01133 0.53872 0.53057 0.0
C1447 C 0.95668 0.47678 0.46181 0.0
C1448 C 0.06907 0.4728 0.48568 0.0
C1449 C 0.06957 0.44725 0.50246 0.0
C1450 C 0.04054 0.49172 0.48226 0.0
C1451 C 0.01204 0.48461 0.49586 0.0
C1452 C 0.01193 0.45733 0.5116 0.0
C1453 C 0.04087 0.43925 0.51492 0.0
C1454 C 0.04171 0.52073 0.46548 0.0
C1455 C 0.9819 0.44854 0.52615 0.0
H1456 H 0.95182 0.56781 0.53204 0.0
H1457 H 0.90606 0.51657 0.47382 0.0
H1458 H 0.01453 0.51747 0.5428 0.0
H1459 H 0.03438 0.54135 0.52014 0.0
H1460 H 0.00782 0.56119 0.54157 0.0
H1461 H 0.93582 0.47958 0.44914 0.0
H1462 H 0.98006 0.47737 0.4516 0.0
H1463 H 0.95485 0.45225 0.47037 0.0
H1464 H 0.09153 0.47934 0.47638 0.0
H1465 H 0.04142 0.4195 0.52794 0.0
H1466 H 0.0428 0.54377 0.47607 0.0
H1467 H 0.01918 0.52181 0.45431 0.0
H1468 H 0.06355 0.51985 0.45355 0.0
H1469 H 0.97766 0.46769 0.53994 0.0
H1470 H 0.9846 0.42445 0.53528 0.0
H1471 H 0.95975 0.44769 0.51458 0.0
C1472 C 0.55932 0.03802 0.48612 0.0
C1473 C 0.55026 0.06788 0.49664 0.0
C1474 C 0.54039 0.00963 0.48946 0.0
C1475 C 0.51137 0.01129 0.50341 0.0
C1476 C 0.50325 0.0409 0.51536 0.0
C1477 C 0.52283 0.06897 0.51179 0.0
C1478 C 0.55019 0.9785 0.47658 0.0
C1479 C 0.47259 0.04365 0.53041 0.0
C1480 C 0.44684 0.95304 0.47954 0.0
C1481 C 0.45054 0.92592 0.49468 0.0
C1482 C 0.46486 0.98192 0.48328 0.0
C1483 C 0.48759 0.9835 0.50246 0.0
C1484 C 0.49011 0.95682 0.51862 0.0
C1485 C 0.47151 0.92822 0.51452 0.0
C1486 C 0.46112 0.00991 0.46575 0.0
C1487 C 0.51404 0.95755 0.53924 0.0
H1488 H 0.58053 0.03723 0.47437 0.0
H1489 H 0.51535 0.09221 0.51955 0.0
H1490 H 0.54937 0.9572 0.48894 0.0
H1491 H 0.53251 0.97358 0.46188 0.0
H1492 H 0.57527 0.98019 0.4688 0.0
H1493 H 0.47285 0.06606 0.54177 0.0
H1494 H 0.45075 0.04478 0.51854 0.0
H1495 H 0.46973 0.02177 0.54207 0.0
H1496 H 0.43062 0.95121 0.46419 0.0
H1497 H 0.47494 0.90701 0.52597 0.0
H1498 H 0.48387 0.01222 0.45492 0.0
H1499 H 0.45756 0.03347 0.47539 0.0
H1500 H 0.44003 0.00617 0.4534 0.0
H1501 H 0.53942 0.95446 0.53231 0.0
H1502 H 0.50912 0.93761 0.55233 0.0
H1503 H 0.51302 0.98154 0.54863 0.0
C1504 C 0.9566 0.93987 0.73029 0.0
C1505 C 0.92776 0.94579 0.74319 0.0
C1506 C 0.98475 0.95901 0.73402 0.0
C1507 C 0.98374 0.98515 0.75074 0.0
C1508 C 0.9552 0.99007 0.76479 0.0
C1509 C 0.92742 0.97025 0.76083 0.0
C1510 C 0.01483 0.95262 0.71886 0.0
C1511 C 0.95313 0.01771 0.78272 0.0
C1512 C 0.06723 0.02393 0.76151 0.0
C1513 C 0.06764 0.04786 0.7435 0.0
C1514 C 0.03907 0.00464 0.76541 0.0
C1515 C 0.01092 0.00957 0.75092 0.0
C1516 C 0.01055 0.03542 0.73397 0.0
C1517 C 0.03906 0.05405 0.73032 0.0
C1518 C 0.0404 0.97737 0.78366 0.0
C1519 C 0.98091 0.04183 0.71836 0.0
H1520 H 0.95673 0.92096 0.71661 0.0
H1521 H 0.90485 0.9753 0.77047 0.0
H1522 H 0.01808 0.97303 0.70591 0.0
H1523 H 0.03721 0.95168 0.7302 0.0
H1524 H 0.01291 0.92924 0.7087 0.0
H1525 H 0.93184 0.01475 0.79497 0.0
H1526 H 0.97599 0.01924 0.7935 0.0
H1527 H 0.95036 0.04139 0.77308 0.0
H1528 H 0.08957 0.01868 0.77138 0.0
H1529 H 0.03951 0.07255 0.71636 0.0
H1530 H 0.04336 0.95348 0.77432 0.0
H1531 H 0.0172 0.97618 0.79405 0.0
H1532 H 0.06131 0.98049 0.79625 0.0
H1533 H 0.97804 0.02142 0.70535 0.0
H1534 H 0.98315 0.06521 0.70823 0.0
H1535 H 0.95821 0.04278 0.72932 0.0
C1536 C 0.97458 0.07018 0.23473 0.0
C1537 C 0.94795 0.0701 0.25062 0.0
C1538 C 0.99393 0.04187 0.23159 0.0
C1539 C 0.98629 0.01307 0.24468 0.0
C1540 C 0.95799 0.01237 0.25944 0.0
C1541 C 0.93936 0.04102 0.26239 0.0
C1542 C 0.02388 0.0436 0.21573 0.0
C1543 C 0.94868 0.98207 0.27349 0.0
C1544 C 0.0245 0.92903 0.23514 0.0
C1545 C 0.04614 0.92752 0.25463 0.0
C1546 C 0.00627 0.95769 0.23053 0.0
C1547 C 0.00988 0.98521 0.24581 0.0
C1548 C 0.03338 0.98438 0.26451 0.0
C1549 C 0.05099 0.95541 0.26881 0.0
C1550 C 0.98146 0.9576 0.21046 0.0
C1551 C 0.03832 0.01331 0.28106 0.0
H1552 H 0.98161 0.09289 0.22598 0.0
H1553 H 0.91877 0.04108 0.27471 0.0
H1554 H 0.04626 0.04531 0.22702 0.0
H1555 H 0.02613 0.02105 0.20469 0.0
H1556 H 0.02318 0.06533 0.20371 0.0
H1557 H 0.92403 0.98437 0.28189 0.0
H1558 H 0.94874 0.96008 0.26176 0.0
H1559 H 0.96707 0.97784 0.28784 0.0
H1560 H 0.02023 0.90722 0.22446 0.0
H1561 H 0.06774 0.95414 0.28389 0.0
H1562 H 0.9823 0.98106 0.20038 0.0
H1563 H 0.95637 0.95514 0.21804 0.0
H1564 H 0.98562 0.93693 0.19783 0.0
H1565 H 0.04148 0.03628 0.27063 0.0
H1566 H 0.06006 0.01008 0.29287 0.0
H1567 H 0.01622 0.01642 0.29249 0.0
C1568 C 0.3138 0.27979 0.16993 0.0
C1569 C 0.29144 0.30586 0.16834 0.0
C1570 C 0.31784 0.25781 0.15078 0.0
C1571 C 0.2982 0.2615 0.13003 0.0
C1572 C 0.27626 0.28839 0.12816 0.0
C1573 C 0.27356 0.31054 0.14723 0.0
C1574 C 0.34216 0.22998 0.15312 0.0
C1575 C 0.25434 0.29284 0.10658 0.0
C1576 C 0.3131 0.21761 0.07112 0.0
C1577 C 0.29095 0.19139 0.07291 0.0
C1578 C 0.31734 0.23963 0.09023 0.0
C1579 C 0.29811 0.2358 0.11116 0.0
C1580 C 0.27633 0.2088 0.1132 0.0
C1581 C 0.27341 0.18665 0.09415 0.0
C1582 C 0.34142 0.26762 0.08767 0.0
C1583 C 0.25485 0.2042 0.13498 0.0
H1584 H 0.32729 0.27593 0.18641 0.0
H1585 H 0.25649 0.33095 0.146 0.0
H1586 H 0.32875 0.20645 0.15539 0.0
H1587 H 0.35725 0.22785 0.13666 0.0
H1588 H 0.3588 0.23334 0.1687 0.0
H1589 H 0.23936 0.31563 0.10766 0.0
H1590 H 0.2693 0.29373 0.09003 0.0
H1591 H 0.23744 0.27153 0.10498 0.0
H1592 H 0.32629 0.22156 0.05453 0.0
H1593 H 0.25647 0.16614 0.09551 0.0
H1594 H 0.35682 0.26982 0.10399 0.0
H1595 H 0.32783 0.29107 0.08556 0.0
H1596 H 0.35778 0.26439 0.07193 0.0
H1597 H 0.27014 0.20338 0.15139 0.0
H1598 H 0.24 0.18132 0.13404 0.0
H1599 H 0.23786 0.22541 0.13676 0.0
C1600 C 0.30539 0.68007 0.84381 0.0
C1601 C 0.29859 0.70293 0.82574 0.0
C1602 C 0.28388 0.6761 0.86325 0.0
C1603 C 0.25534 0.69593 0.86473 0.0
C1604 C 0.24759 0.71781 0.84587 0.0
C1605 C 0.26915 0.72074 0.82646 0.0
C1606 C 0.29258 0.65197 0.88274 0.0
C1607 C 0.21748 0.73952 0.8468 0.0
C1608 C 0.18536 0.68129 0.90833 0.0
C1609 C 0.19262 0.70435 0.92619 0.0
C1610 C 0.20654 0.67684 0.88876 0.0
C1611 C 0.23522 0.69639 0.8869 0.0
C1612 C 0.24333 0.71865 0.90546 0.0
C1613 C 0.22208 0.72206 0.92502 0.0
C1614 C 0.19746 0.65235 0.86959 0.0
C1615 C 0.27359 0.7401 0.9041 0.0
H1616 H 0.32825 0.66642 0.84339 0.0
H1617 H 0.26353 0.73786 0.81219 0.0
H1618 H 0.30069 0.66555 0.89891 0.0
H1619 H 0.27075 0.63717 0.88782 0.0
H1620 H 0.31265 0.63508 0.87723 0.0
H1621 H 0.21405 0.75386 0.83008 0.0
H1622 H 0.19513 0.72452 0.84995 0.0
H1623 H 0.21972 0.75699 0.86197 0.0
H1624 H 0.16247 0.66771 0.90909 0.0
H1625 H 0.22808 0.73932 0.93912 0.0
H1626 H 0.21905 0.63709 0.86472 0.0
H1627 H 0.18956 0.66562 0.85324 0.0
H1628 H 0.17713 0.6359 0.87532 0.0
H1629 H 0.29582 0.72478 0.90134 0.0
H1630 H 0.2771 0.7551 0.92051 0.0
H1631 H 0.27156 0.75693 0.88855 0.0
C1632 C 0.71843 0.77166 0.07358 0.0
C1633 C 0.70102 0.80129 0.07268 0.0
C1634 C 0.71528 0.75043 0.09314 0.0
C1635 C 0.69368 0.75882 0.11204 0.0
C1636 C 0.67433 0.78766 0.11044 0.0
C1637 C 0.67841 0.80875 0.09078 0.0
C1638 C 0.73642 0.71993 0.09418 0.0
C1639 C 0.65059 0.79708 0.13001 0.0
C1640 C 0.67852 0.68915 0.15566 0.0
C1641 C 0.70233 0.69573 0.17314 0.0
C1642 C 0.67388 0.7106 0.13629 0.0
C1643 C 0.69393 0.7389 0.13429 0.0
C1644 C 0.71679 0.74647 0.15259 0.0
C1645 C 0.72047 0.72491 0.17192 0.0
C1646 C 0.64881 0.70206 0.11738 0.0
C1647 C 0.7387 0.77638 0.15109 0.0
H1648 H 0.73539 0.7656 0.05929 0.0
H1649 H 0.66505 0.83177 0.09017 0.0
H1650 H 0.75403 0.72195 0.10928 0.0
H1651 H 0.72097 0.69794 0.09747 0.0
H1652 H 0.7506 0.71606 0.07743 0.0
H1653 H 0.63402 0.81742 0.12447 0.0
H1654 H 0.63539 0.77564 0.13533 0.0
H1655 H 0.66453 0.80511 0.14604 0.0
H1656 H 0.6646 0.66648 0.15649 0.0
H1657 H 0.73834 0.73035 0.18575 0.0
H1658 H 0.66161 0.69369 0.10095 0.0
H1659 H 0.63402 0.724 0.11254 0.0
H1660 H 0.63192 0.68223 0.12334 0.0
H1661 H 0.75557 0.7739 0.13559 0.0
H1662 H 0.75372 0.77981 0.16751 0.0
H1663 H 0.72374 0.7988 0.14817 0.0
C1664 C 0.71308 0.31236 0.8226 0.0
C1665 C 0.68987 0.28696 0.82274 0.0
C1666 C 0.73486 0.31656 0.84187 0.0
C1667 C 0.73362 0.29443 0.86139 0.0
C1668 C 0.70963 0.2692 0.86177 0.0
C1669 C 0.68793 0.26591 0.84246 0.0
C1670 C 0.75989 0.34393 0.84096 0.0
C1671 C 0.70769 0.24488 0.88213 0.0
C1672 C 0.80989 0.27511 0.89754 0.0
C1673 C 0.80293 0.29079 0.91921 0.0
C1674 C 0.78809 0.2772 0.8782 0.0
C1675 C 0.75883 0.29578 0.8806 0.0
C1676 C 0.75256 0.31309 0.90211 0.0
C1677 C 0.77467 0.31018 0.9213 0.0
C1678 C 0.79559 0.25817 0.85566 0.0
C1679 C 0.72183 0.33345 0.9052 0.0
H1680 H 0.71484 0.32831 0.80713 0.0
H1681 H 0.66981 0.24635 0.8425 0.0
H1682 H 0.75962 0.35808 0.85792 0.0
H1683 H 0.78489 0.33337 0.83894 0.0
H1684 H 0.75534 0.36106 0.82585 0.0
H1685 H 0.68673 0.22758 0.88013 0.0
H1686 H 0.73079 0.23041 0.88302 0.0
H1687 H 0.70508 0.25803 0.8994 0.0
H1688 H 0.83195 0.26027 0.89602 0.0
H1689 H 0.76925 0.32205 0.93821 0.0
H1690 H 0.79422 0.27455 0.83984 0.0
H1691 H 0.77694 0.23856 0.85316 0.0
H1692 H 0.82033 0.24661 0.85616 0.0
H1693 H 0.71842 0.35008 0.88966 0.0
H1694 H 0.72253 0.34844 0.9218 0.0
H1695 H 0.70007 0.31705 0.90598 0.0
C1696 C 0.76738 0.6845 0.59366 0.0
C1697 C 0.78684 0.68914 0.57331 0.0
C1698 C 0.77 0.70563 0.61335 0.0
C1699 C 0.79307 0.73167 0.61276 0.0
C1700 C 0.81362 0.73577 0.59253 0.0
C1701 C 0.80993 0.71464 0.57285 0.0
C1702 C 0.74724 0.70077 0.6344 0.0
C1703 C 0.83878 0.76299 0.59141 0.0
C1704 C 0.77146 0.80499 0.65133 0.0
C1705 C 0.78934 0.79842 0.67217 0.0
C1706 C 0.77319 0.7839 0.63158 0.0
C1707 C 0.7938 0.75591 0.63262 0.0
C1708 C 0.81311 0.75 0.65327 0.0
C1709 C 0.81038 0.77124 0.67298 0.0
C1710 C 0.75187 0.79085 0.61003 0.0
C1711 C 0.83574 0.72069 0.65485 0.0
H1712 H 0.74959 0.66465 0.59394 0.0
H1713 H 0.82449 0.71861 0.55688 0.0
H1714 H 0.76168 0.69821 0.65112 0.0
H1715 H 0.73121 0.72265 0.63649 0.0
H1716 H 0.73138 0.67872 0.63232 0.0
H1717 H 0.85508 0.76073 0.57556 0.0
H1718 H 0.82612 0.78712 0.5906 0.0
H1719 H 0.85418 0.76294 0.6078 0.0
H1720 H 0.75537 0.82623 0.65077 0.0
H1721 H 0.82389 0.76602 0.68926 0.0
H1722 H 0.73383 0.77064 0.60765 0.0
H1723 H 0.76712 0.79184 0.59361 0.0
H1724 H 0.7382 0.81437 0.61174 0.0
H1725 H 0.82098 0.69777 0.65539 0.0
H1726 H 0.8516 0.72153 0.67102 0.0
H1727 H 0.85167 0.71938 0.63876 0.0
C1728 C 0.80927 0.18113 0.34003 0.0
C1729 C 0.80078 0.20334 0.3219 0.0
C1730 C 0.78875 0.17662 0.35996 0.0
C1731 C 0.75949 0.19527 0.36188 0.0
C1732 C 0.75015 0.21661 0.34307 0.0
C1733 C 0.77077 0.22008 0.32317 0.0
C1734 C 0.79915 0.15311 0.37941 0.0
C1735 C 0.71921 0.23707 0.34447 0.0
C1736 C 0.69091 0.17848 0.40615 0.0
C1737 C 0.69734 0.20234 0.42361 0.0
C1738 C 0.71215 0.17433 0.38659 0.0
C1739 C 0.74001 0.19496 0.38434 0.0
C1740 C 0.7475 0.21782 0.40265 0.0
C1741 C 0.72622 0.22094 0.42221 0.0
C1742 C 0.70378 0.14917 0.36771 0.0
C1743 C 0.77689 0.24039 0.40089 0.0
H1744 H 0.83259 0.16832 0.33919 0.0
H1745 H 0.76386 0.23668 0.30887 0.0
H1746 H 0.80715 0.16719 0.39537 0.0
H1747 H 0.77818 0.13739 0.38493 0.0
H1748 H 0.81978 0.13706 0.37364 0.0
H1749 H 0.71476 0.25135 0.32785 0.0
H1750 H 0.69759 0.22111 0.34783 0.0
H1751 H 0.72107 0.25451 0.35968 0.0
H1752 H 0.66847 0.1642 0.4071 0.0
H1753 H 0.73154 0.23889 0.43601 0.0
H1754 H 0.72598 0.13498 0.36254 0.0
H1755 H 0.69467 0.16183 0.35144 0.0
H1756 H 0.68452 0.13177 0.37388 0.0
H1757 H 0.7996 0.22598 0.39766 0.0
H1758 H 0.78034 0.25537 0.41732 0.0
H1759 H 0.77368 0.25728 0.38548 0.0
C1760 C 0.22432 0.17995 0.64603 0.0
C1761 C 0.20857 0.18604 0.66782 0.0
C1762 C 0.22173 0.20216 0.627 0.0
C1763 C 0.20156 0.23031 0.62951 0.0
C1764 C 0.18392 0.23549 0.651 0.0
C1765 C 0.18829 0.21366 0.67017 0.0
C1766 C 0.24184 0.19629 0.60469 0.0
C1767 C 0.1612 0.26453 0.654 0.0
C1768 C 0.22588 0.30422 0.59252 0.0
C1769 C 0.20686 0.29981 0.5719 0.0
C1770 C 0.22402 0.28201 0.61157 0.0
C1771 C 0.2014 0.25562 0.6104 0.0
C1772 C 0.18058 0.25227 0.59024 0.0
C1773 C 0.18411 0.27403 0.57091 0.0
C1774 C 0.24742 0.28589 0.63239 0.0
C1775 C 0.15529 0.22519 0.58877 0.0
H1776 H 0.23956 0.15823 0.64416 0.0
H1777 H 0.17652 0.21867 0.68716 0.0
H1778 H 0.2256 0.19523 0.58878 0.0
H1779 H 0.25917 0.21703 0.60198 0.0
H1780 H 0.25622 0.17311 0.60563 0.0
H1781 H 0.14555 0.2622 0.67019 0.0
H1782 H 0.17585 0.28741 0.65557 0.0
H1783 H 0.14506 0.26717 0.6381 0.0
H1784 H 0.24319 0.32447 0.59334 0.0
H1785 H 0.16979 0.27024 0.5548 0.0
H1786 H 0.26318 0.26371 0.6339 0.0
H1787 H 0.23352 0.28817 0.64935 0.0
H1788 H 0.26356 0.30777 0.63046 0.0
H1789 H 0.16777 0.20124 0.58612 0.0
H1790 H 0.13781 0.22902 0.57376 0.0
H1791 H 0.14118 0.22361 0.60572 0.0
C1792 C 0.27557 0.81471 0.42632 0.0
C1793 C 0.30082 0.79134 0.42589 0.0
C1794 C 0.25385 0.81791 0.40688 0.0
C1795 C 0.25728 0.79681 0.38687 0.0
C1796 C 0.28343 0.77385 0.38616 0.0
C1797 C 0.30501 0.7716 0.40562 0.0
C1798 C 0.22656 0.84299 0.40813 0.0
C1799 C 0.28778 0.75065 0.36531 0.0
C1800 C 0.18295 0.77281 0.3499 0.0
C1801 C 0.18857 0.79002 0.32863 0.0
C1802 C 0.20458 0.77567 0.36931 0.0
C1803 C 0.23223 0.79668 0.36748 0.0
C1804 C 0.23719 0.81527 0.34636 0.0
C1805 C 0.21541 0.81145 0.32704 0.0
C1806 C 0.19859 0.75512 0.39137 0.0
C1807 C 0.26613 0.83823 0.34387 0.0
H1808 H 0.27213 0.82969 0.44215 0.0
H1809 H 0.32474 0.75366 0.40532 0.0
H1810 H 0.22575 0.8577 0.39143 0.0
H1811 H 0.20255 0.83026 0.40982 0.0
H1812 H 0.2295 0.85992 0.42357 0.0
H1813 H 0.3102 0.73524 0.36709 0.0
H1814 H 0.2661 0.73418 0.36396 0.0
H1815 H 0.28934 0.76465 0.34833 0.0
H1816 H 0.16201 0.75638 0.35108 0.0
H1817 H 0.21996 0.82441 0.31043 0.0
H1818 H 0.19805 0.77095 0.40752 0.0
H1819 H 0.21904 0.73734 0.39371 0.0
H1820 H 0.17511 0.74121 0.39037 0.0
H1821 H 0.26793 0.85455 0.35971 0.0
H1822 H 0.26437 0.85366 0.32753 0.0
H1823 H 0.28922 0.82376 0.34297 0.0
loop_
_geom_bond_atom_site_label_1
_geom_bond_atom_site_label_2
_geom_bond_distance
_geom_bond_site_symmetry_2
_ccdc_geom_bond_type
Co0 O3 1.970 1_554 S
Co0 N17 1.989 . S
Co0 O25 1.967 . S
Co0 O32 1.920 . S
Co1 O4 1.966 1_554 S
Co1 N10 2.022 . S
Co1 N18 1.993 . S
Co1 O26 1.941 . S
C2 O3 1.258 . S
C2 O4 1.263 . S
O3 Co0 1.970 1_556 S
O3 C2 1.258 . S
O4 Co1 1.966 1_556 S
O4 C2 1.263 . S
C5 O6 1.226 1_554 S
C5 O32 1.298 . S
O6 C5 1.226 1_556 S
C7 C9 1.400 . S
C7 N10 1.351 . S
C7 C12 1.501 1_554 S
C8 C9 1.387 . S
C8 N11 1.341 . S
C9 C7 1.400 . S
C9 C8 1.387 . S
N10 Co1 2.022 . S
N10 C7 1.351 . S
N10 N11 1.365 . S
N11 C8 1.341 . S
N11 N10 1.365 . S
N11 H31 0.862 . S
C12 C7 1.501 1_556 S
C12 H13 0.961 . S
C12 H14 0.961 . S
C12 H15 0.960 . S
H13 C12 0.961 . S
H14 C12 0.961 . S
H15 C12 0.960 . S
C16 N17 1.342 . S
C16 C20 1.401 . S
C16 C21 1.499 . S
N17 Co0 1.989 . S
N17 C16 1.342 . S
N17 N18 1.388 . S
N18 Co1 1.993 . S
N18 N17 1.388 . S
N18 C19 1.346 . S
C19 N18 1.346 . S
C19 C20 1.396 . S
C19 C29 1.510 . S
C20 C16 1.401 . S
C20 C19 1.396 . S
C21 C16 1.499 . S
C21 H22 0.959 . S
C21 H23 0.960 . S
C21 H24 0.961 . S
H22 C21 0.959 . S
H23 C21 0.960 . S
H24 C21 0.961 . S
O25 Co0 1.967 . S
O25 C33 1.258 . S
O26 Co1 1.941 . S
O26 C33 1.266 . S
H27 C29 0.959 . S
H28 C29 0.961 . S
C29 C19 1.510 . S
C29 H27 0.959 . S
C29 H28 0.961 . S
C29 H30 0.960 . S
H30 C29 0.960 . S
H31 N11 0.862 . S
O32 Co0 1.920 . S
O32 C5 1.298 . S
C33 O25 1.258 . S
C33 O26 1.266 . S
Co34 O37 1.970 1_556 S
Co34 N51 1.989 . S
Co34 O59 1.967 . S
Co34 O66 1.920 . S
Co35 O38 1.966 1_556 S
Co35 N44 2.022 . S
Co35 N52 1.993 . S
Co35 O60 1.941 . S
C36 O37 1.258 . S
C36 O38 1.263 . S
O37 Co34 1.970 1_554 S
O37 C36 1.258 . S
O38 Co35 1.966 1_554 S
O38 C36 1.263 . S
C39 O40 1.226 1_556 S
C39 O66 1.298 . S
O40 C39 1.226 1_554 S
C41 C43 1.400 . S
C41 N44 1.351 . S
C41 C46 1.501 1_556 S
C42 C43 1.387 . S
C42 N45 1.341 . S
C43 C41 1.400 . S
C43 C42 1.387 . S
N44 Co35 2.022 . S
N44 C41 1.351 . S
N44 N45 1.365 . S
N45 C42 1.341 . S
N45 N44 1.365 . S
N45 H65 0.862 . S
C46 C41 1.501 1_554 S
C46 H47 0.961 . S
C46 H48 0.961 . S
C46 H49 0.960 . S
H47 C46 0.961 . S
H48 C46 0.961 . S
H49 C46 0.960 . S
C50 N51 1.342 . S
C50 C54 1.401 . S
C50 C55 1.499 . S
N51 Co34 1.989 . S
N51 C50 1.342 . S
N51 N52 1.388 . S
N52 Co35 1.993 . S
N52 N51 1.388 . S
N52 C53 1.346 . S
C53 N52 1.346 . S
C53 C54 1.396 . S
C53 C63 1.510 . S
C54 C50 1.401 . S
C54 C53 1.396 . S
C55 C50 1.499 . S
C55 H56 0.959 . S
C55 H57 0.960 . S
C55 H58 0.961 . S
H56 C55 0.959 . S
H57 C55 0.960 . S
H58 C55 0.961 . S
O59 Co34 1.967 . S
O59 C67 1.258 . S
O60 Co35 1.941 . S
O60 C67 1.266 . S
H61 C63 0.959 . S
H62 C63 0.961 . S
C63 C53 1.510 . S
C63 H61 0.959 . S
C63 H62 0.961 . S
C63 H64 0.960 . S
H64 C63 0.960 . S
H65 N45 0.862 . S
O66 Co34 1.920 . S
O66 C39 1.298 . S
C67 O59 1.258 . S
C67 O60 1.266 . S
Co68 O71 1.970 1_554 S
Co68 N85 1.989 . S
Co68 O93 1.967 . S
Co68 O100 1.920 . S
Co69 O72 1.966 1_554 S
Co69 N78 2.022 . S
Co69 N86 1.993 . S
Co69 O94 1.941 . S
C70 O71 1.258 . S
C70 O72 1.263 . S
O71 Co68 1.970 1_556 S
O71 C70 1.258 . S
O72 Co69 1.966 1_556 S
O72 C70 1.263 . S
C73 O74 1.226 1_554 S
C73 O100 1.298 . S
O74 C73 1.226 1_556 S
C75 C77 1.400 . S
C75 N78 1.351 . S
C75 C80 1.501 1_554 S
C76 C77 1.387 . S
C76 N79 1.341 . S
C77 C75 1.400 . S
C77 C76 1.387 . S
N78 Co69 2.022 . S
N78 C75 1.351 . S
N78 N79 1.365 . S
N79 C76 1.341 . S
N79 N78 1.365 . S
N79 H99 0.862 . S
C80 C75 1.501 1_556 S
C80 H81 0.961 . S
C80 H82 0.961 . S
C80 H83 0.960 . S
H81 C80 0.961 . S
H82 C80 0.961 . S
H83 C80 0.960 . S
C84 N85 1.342 . S
C84 C88 1.401 . S
C84 C89 1.499 . S
N85 Co68 1.989 . S
N85 C84 1.342 . S
N85 N86 1.388 . S
N86 Co69 1.993 . S
N86 N85 1.388 . S
N86 C87 1.346 . S
C87 N86 1.346 . S
C87 C88 1.396 . S
C87 C97 1.510 . S
C88 C84 1.401 . S
C88 C87 1.396 . S
C89 C84 1.499 . S
C89 H90 0.959 . S
C89 H91 0.960 . S
C89 H92 0.961 . S
H90 C89 0.959 . S
H91 C89 0.960 . S
H92 C89 0.961 . S
O93 Co68 1.967 . S
O93 C101 1.258 . S
O94 Co69 1.941 . S
O94 C101 1.266 . S
H95 C97 0.959 . S
H96 C97 0.961 . S
C97 C87 1.510 . S
C97 H95 0.959 . S
C97 H96 0.961 . S
C97 H98 0.960 . S
H98 C97 0.960 . S
H99 N79 0.862 . S
O100 Co68 1.920 . S
O100 C73 1.298 . S
C101 O93 1.258 . S
C101 O94 1.266 . S
Co102 O105 1.970 1_556 S
Co102 N119 1.989 . S
Co102 O127 1.967 . S
Co102 O134 1.920 . S
Co103 O106 1.966 1_556 S
Co103 N112 2.022 . S
Co103 N120 1.993 . S
Co103 O128 1.941 . S
C104 O105 1.258 . S
C104 O106 1.263 . S
O105 Co102 1.970 1_554 S
O105 C104 1.258 . S
O106 Co103 1.966 1_554 S
O106 C104 1.263 . S
C107 O108 1.226 1_556 S
C107 O134 1.298 . S
O108 C107 1.226 1_554 S
C109 C111 1.400 . S
C109 N112 1.351 . S
C109 C114 1.501 1_556 S
C110 C111 1.387 . S
C110 N113 1.341 . S
C111 C109 1.400 . S
C111 C110 1.387 . S
N112 Co103 2.022 . S
N112 C109 1.351 . S
N112 N113 1.365 . S
N113 C110 1.341 . S
N113 N112 1.365 . S
N113 H133 0.862 . S
C114 C109 1.501 1_554 S
C114 H115 0.961 . S
C114 H116 0.961 . S
C114 H117 0.960 . S
H115 C114 0.961 . S
H116 C114 0.961 . S
H117 C114 0.960 . S
C118 N119 1.342 . S
C118 C122 1.401 . S
C118 C123 1.499 . S
N119 Co102 1.989 . S
N119 C118 1.342 . S
N119 N120 1.388 . S
N120 Co103 1.993 . S
N120 N119 1.388 . S
N120 C121 1.346 . S
C121 N120 1.346 . S
C121 C122 1.396 . S
C121 C131 1.510 . S
C122 C118 1.401 . S
C122 C121 1.396 . S
C123 C118 1.499 . S
C123 H124 0.959 . S
C123 H125 0.960 . S
C123 H126 0.961 . S
H124 C123 0.959 . S
H125 C123 0.960 . S
H126 C123 0.961 . S
O127 Co102 1.967 . S
O127 C135 1.258 . S
O128 Co103 1.941 . S
O128 C135 1.266 . S
H129 C131 0.959 . S
H130 C131 0.961 . S
C131 C121 1.510 . S
C131 H129 0.959 . S
C131 H130 0.961 . S
C131 H132 0.960 . S
H132 C131 0.960 . S
H133 N113 0.862 . S
O134 Co102 1.920 . S
O134 C107 1.298 . S
C135 O127 1.258 . S
C135 O128 1.266 . S
Co136 O139 1.970 . S
Co136 N153 1.989 . S
Co136 O161 1.967 . S
Co136 O168 1.920 . S
Co137 O140 1.966 . S
Co137 N146 2.022 . S
Co137 N154 1.993 . S
Co137 O162 1.941 . S
C138 O139 1.258 . S
C138 O140 1.263 . S
O139 Co136 1.970 . S
O139 C138 1.258 . S
O140 Co137 1.966 . S
O140 C138 1.263 . S
C141 O142 1.235 . S
C141 O168 1.289 . S
O142 C141 1.235 . S
C143 C145 1.400 . S
C143 N146 1.351 . S
C143 C148 1.501 . S
C144 C145 1.387 . S
C144 N147 1.341 . S
C145 C143 1.400 . S
C145 C144 1.387 . S
N146 Co137 2.022 . S
N146 C143 1.351 . S
N146 N147 1.365 . S
N147 C144 1.341 . S
N147 N146 1.365 . S
N147 H167 0.862 . S
C148 C143 1.501 . S
C148 H149 0.961 . S
C148 H150 0.961 . S
C148 H151 0.960 . S
H149 C148 0.961 . S
H150 C148 0.961 . S
H151 C148 0.960 . S
C152 N153 1.342 . S
C152 C156 1.401 . S
C152 C157 1.499 . S
N153 Co136 1.989 . S
N153 C152 1.342 . S
N153 N154 1.388 . S
N154 Co137 1.993 . S
N154 N153 1.388 . S
N154 C155 1.346 . S
C155 N154 1.346 . S
C155 C156 1.396 . S
C155 C165 1.510 . S
C156 C152 1.401 . S
C156 C155 1.396 . S
C157 C152 1.499 . S
C157 H158 0.959 . S
C157 H159 0.960 . S
C157 H160 0.961 . S
H158 C157 0.959 . S
H159 C157 0.960 . S
H160 C157 0.961 . S
O161 Co136 1.967 . S
O161 C169 1.258 . S
O162 Co137 1.941 . S
O162 C169 1.266 . S
H163 C165 0.959 . S
H164 C165 0.961 . S
C165 C155 1.510 . S
C165 H163 0.959 . S
C165 H164 0.961 . S
C165 H166 0.960 . S
H166 C165 0.960 . S
H167 N147 0.862 . S
O168 Co136 1.920 . S
O168 C141 1.289 . S
C169 O161 1.258 . S
C169 O162 1.266 . S
Co170 O173 1.970 . S
Co170 N187 1.989 . S
Co170 O195 1.967 . S
Co170 O202 1.920 . S
Co171 O174 1.966 . S
Co171 N180 2.022 . S
Co171 N188 1.993 . S
Co171 O196 1.941 . S
C172 O173 1.258 . S
C172 O174 1.263 . S
O173 Co170 1.970 . S
O173 C172 1.258 . S
O174 Co171 1.966 . S
O174 C172 1.263 . S
C175 O176 1.235 . S
C175 O202 1.289 . S
O176 C175 1.235 . S
C177 C179 1.400 . S
C177 N180 1.351 . S
C177 C182 1.501 . S
C178 C179 1.387 . S
C178 N181 1.341 . S
C179 C177 1.400 . S
C179 C178 1.387 . S
N180 Co171 2.022 . S
N180 C177 1.351 . S
N180 N181 1.365 . S
N181 C178 1.341 . S
N181 N180 1.365 . S
N181 H201 0.862 . S
C182 C177 1.501 . S
C182 H183 0.961 . S
C182 H184 0.961 . S
C182 H185 0.960 . S
H183 C182 0.961 . S
H184 C182 0.961 . S
H185 C182 0.960 . S
C186 N187 1.342 . S
C186 C190 1.401 . S
C186 C191 1.499 . S
N187 Co170 1.989 . S
N187 C186 1.342 . S
N187 N188 1.388 . S
N188 Co171 1.993 . S
N188 N187 1.388 . S
N188 C189 1.346 . S
C189 N188 1.346 . S
C189 C190 1.396 . S
C189 C199 1.510 . S
C190 C186 1.401 . S
C190 C189 1.396 . S
C191 C186 1.499 . S
C191 H192 0.959 . S
C191 H193 0.960 . S
C191 H194 0.961 . S
H192 C191 0.959 . S
H193 C191 0.960 . S
H194 C191 0.961 . S
O195 Co170 1.967 . S
O195 C203 1.258 . S
O196 Co171 1.941 . S
O196 C203 1.266 . S
H197 C199 0.959 . S
H198 C199 0.961 . S
C199 C189 1.510 . S
C199 H197 0.959 . S
C199 H198 0.961 . S
C199 H200 0.960 . S
H200 C199 0.960 . S
H201 N181 0.862 . S
O202 Co170 1.920 . S
O202 C175 1.289 . S
C203 O195 1.258 . S
C203 O196 1.266 . S
Co204 O207 1.970 . S
Co204 N221 1.989 . S
Co204 O229 1.967 . S
Co204 O236 1.920 . S
Co205 O208 1.966 . S
Co205 N214 2.022 . S
Co205 N222 1.993 . S
Co205 O230 1.941 . S
C206 O207 1.258 . S
C206 O208 1.263 . S
O207 Co204 1.970 . S
O207 C206 1.258 . S
O208 Co205 1.966 . S
O208 C206 1.263 . S
C209 O210 1.235 . S
C209 O236 1.289 . S
O210 C209 1.235 . S
C211 C213 1.400 . S
C211 N214 1.351 . S
C211 C216 1.501 . S
C212 C213 1.387 . S
C212 N215 1.341 . S
C213 C211 1.400 . S
C213 C212 1.387 . S
N214 Co205 2.022 . S
N214 C211 1.351 . S
N214 N215 1.365 . S
N215 C212 1.341 . S
N215 N214 1.365 . S
N215 H235 0.862 . S
C216 C211 1.501 . S
C216 H217 0.961 . S
C216 H218 0.961 . S
C216 H219 0.960 . S
H217 C216 0.961 . S
H218 C216 0.961 . S
H219 C216 0.960 . S
C220 N221 1.342 . S
C220 C224 1.401 . S
C220 C225 1.499 . S
N221 Co204 1.989 . S
N221 C220 1.342 . S
N221 N222 1.388 . S
N222 Co205 1.993 . S
N222 N221 1.388 . S
N222 C223 1.346 . S
C223 N222 1.346 . S
C223 C224 1.396 . S
C223 C233 1.510 . S
C224 C220 1.401 . S
C224 C223 1.396 . S
C225 C220 1.499 . S
C225 H226 0.959 . S
C225 H227 0.960 . S
C225 H228 0.961 . S
H226 C225 0.959 . S
H227 C225 0.960 . S
H228 C225 0.961 . S
O229 Co204 1.967 . S
O229 C237 1.258 . S
O230 Co205 1.941 . S
O230 C237 1.266 . S
H231 C233 0.959 . S
H232 C233 0.961 . S
C233 C223 1.510 . S
C233 H231 0.959 . S
C233 H232 0.961 . S
C233 H234 0.960 . S
H234 C233 0.960 . S
H235 N215 0.862 . S
O236 Co204 1.920 . S
O236 C209 1.289 . S
C237 O229 1.258 . S
C237 O230 1.266 . S
Co238 O241 1.970 . S
Co238 N255 1.989 . S
Co238 O263 1.967 . S
Co238 O270 1.920 . S
Co239 O242 1.966 . S
Co239 N248 2.022 . S
Co239 N256 1.993 . S
Co239 O264 1.941 . S
C240 O241 1.258 . S
C240 O242 1.263 . S
O241 Co238 1.970 . S
O241 C240 1.258 . S
O242 Co239 1.966 . S
O242 C240 1.263 . S
C243 O244 1.235 . S
C243 O270 1.289 . S
O244 C243 1.235 . S
C245 C247 1.400 . S
C245 N248 1.351 . S
C245 C250 1.501 . S
C246 C247 1.387 . S
C246 N249 1.341 . S
C247 C245 1.400 . S
C247 C246 1.387 . S
N248 Co239 2.022 . S
N248 C245 1.351 . S
N248 N249 1.365 . S
N249 C246 1.341 . S
N249 N248 1.365 . S
N249 H269 0.862 . S
C250 C245 1.501 . S
C250 H251 0.961 . S
C250 H252 0.961 . S
C250 H253 0.960 . S
H251 C250 0.961 . S
H252 C250 0.961 . S
H253 C250 0.960 . S
C254 N255 1.342 . S
C254 C258 1.401 . S
C254 C259 1.499 . S
N255 Co238 1.989 . S
N255 C254 1.342 . S
N255 N256 1.388 . S
N256 Co239 1.993 . S
N256 N255 1.388 . S
N256 C257 1.346 . S
C257 N256 1.346 . S
C257 C258 1.396 . S
C257 C267 1.510 . S
C258 C254 1.401 . S
C258 C257 1.396 . S
C259 C254 1.499 . S
C259 H260 0.959 . S
C259 H261 0.960 . S
C259 H262 0.961 . S
H260 C259 0.959 . S
H261 C259 0.960 . S
H262 C259 0.961 . S
O263 Co238 1.967 . S
O263 C271 1.258 . S
O264 Co239 1.941 . S
O264 C271 1.266 . S
H265 C267 0.959 . S
H266 C267 0.961 . S
C267 C257 1.510 . S
C267 H265 0.959 . S
C267 H266 0.961 . S
C267 H268 0.960 . S
H268 C267 0.960 . S
H269 N249 0.862 . S
O270 Co238 1.920 . S
O270 C243 1.289 . S
C271 O263 1.258 . S
C271 O264 1.266 . S
Co272 O275 1.970 . S
Co272 N289 1.989 . S
Co272 O297 1.967 . S
Co272 O304 1.920 . S
Co273 O276 1.966 . S
Co273 N282 2.022 . S
Co273 N290 1.993 . S
Co273 O298 1.941 . S
C274 O275 1.258 . S
C274 O276 1.263 . S
O275 Co272 1.970 . S
O275 C274 1.258 . S
O276 Co273 1.966 . S
O276 C274 1.263 . S
C277 O278 1.235 . S
C277 O304 1.289 . S
O278 C277 1.235 . S
C279 C281 1.400 . S
C279 N282 1.351 . S
C279 C284 1.501 . S
C280 C281 1.387 . S
C280 N283 1.341 . S
C281 C279 1.400 . S
C281 C280 1.387 . S
N282 Co273 2.022 . S
N282 C279 1.351 . S
N282 N283 1.365 . S
N283 C280 1.341 . S
N283 N282 1.365 . S
N283 H303 0.862 . S
C284 C279 1.501 . S
C284 H285 0.961 . S
C284 H286 0.961 . S
C284 H287 0.960 . S
H285 C284 0.961 . S
H286 C284 0.961 . S
H287 C284 0.960 . S
C288 N289 1.342 . S
C288 C292 1.401 . S
C288 C293 1.499 . S
N289 Co272 1.989 . S
N289 C288 1.342 . S
N289 N290 1.388 . S
N290 Co273 1.993 . S
N290 N289 1.388 . S
N290 C291 1.346 . S
C291 N290 1.346 . S
C291 C292 1.396 . S
C291 C301 1.510 . S
C292 C288 1.401 . S
C292 C291 1.396 . S
C293 C288 1.499 . S
C293 H294 0.959 . S
C293 H295 0.960 . S
C293 H296 0.961 . S
H294 C293 0.959 . S
H295 C293 0.960 . S
H296 C293 0.961 . S
O297 Co272 1.967 . S
O297 C305 1.258 . S
O298 Co273 1.941 . S
O298 C305 1.266 . S
H299 C301 0.959 . S
H300 C301 0.961 . S
C301 C291 1.510 . S
C301 H299 0.959 . S
C301 H300 0.961 . S
C301 H302 0.960 . S
H302 C301 0.960 . S
H303 N283 0.862 . S
O304 Co272 1.920 . S
O304 C277 1.289 . S
C305 O297 1.258 . S
C305 O298 1.266 . S
Co306 O309 1.970 . S
Co306 N323 1.989 . S
Co306 O331 1.967 . S
Co306 O338 1.920 . S
Co307 O310 1.966 . S
Co307 N316 2.022 . S
Co307 N324 1.993 . S
Co307 O332 1.941 . S
C308 O309 1.258 . S
C308 O310 1.263 . S
O309 Co306 1.970 . S
O309 C308 1.258 . S
O310 Co307 1.966 . S
O310 C308 1.263 . S
C311 O312 1.235 . S
C311 O338 1.289 . S
O312 C311 1.235 . S
C313 C315 1.400 . S
C313 N316 1.351 . S
C313 C318 1.501 . S
C314 C315 1.387 . S
C314 N317 1.341 . S
C315 C313 1.400 . S
C315 C314 1.387 . S
N316 Co307 2.022 . S
N316 C313 1.351 . S
N316 N317 1.365 . S
N317 C314 1.341 . S
N317 N316 1.365 . S
N317 H337 0.862 . S
C318 C313 1.501 . S
C318 H319 0.961 . S
C318 H320 0.961 . S
C318 H321 0.960 . S
H319 C318 0.961 . S
H320 C318 0.961 . S
H321 C318 0.960 . S
C322 N323 1.342 . S
C322 C326 1.401 . S
C322 C327 1.499 . S
N323 Co306 1.989 . S
N323 C322 1.342 . S
N323 N324 1.388 . S
N324 Co307 1.993 . S
N324 N323 1.388 . S
N324 C325 1.346 . S
C325 N324 1.346 . S
C325 C326 1.396 . S
C325 C335 1.510 . S
C326 C322 1.401 . S
C326 C325 1.396 . S
C327 C322 1.499 . S
C327 H328 0.959 . S
C327 H329 0.960 . S
C327 H330 0.961 . S
H328 C327 0.959 . S
H329 C327 0.960 . S
H330 C327 0.961 . S
O331 Co306 1.967 . S
O331 C339 1.258 . S
O332 Co307 1.941 . S
O332 C339 1.266 . S
H333 C335 0.959 . S
H334 C335 0.961 . S
C335 C325 1.510 . S
C335 H333 0.959 . S
C335 H334 0.961 . S
C335 H336 0.960 . S
H336 C335 0.960 . S
H337 N317 0.862 . S
O338 Co306 1.920 . S
O338 C311 1.289 . S
C339 O331 1.258 . S
C339 O332 1.266 . S
Co340 O343 1.970 . S
Co340 N357 1.989 . S
Co340 O365 1.967 . S
Co340 O372 1.920 . S
Co341 O344 1.966 . S
Co341 N350 2.022 . S
Co341 N358 1.993 . S
Co341 O366 1.941 . S
C342 O343 1.258 . S
C342 O344 1.263 . S
O343 Co340 1.970 . S
O343 C342 1.258 . S
O344 Co341 1.966 . S
O344 C342 1.263 . S
C345 O346 1.235 . S
C345 O372 1.289 . S
O346 C345 1.235 . S
C347 C349 1.400 . S
C347 N350 1.351 . S
C347 C352 1.501 . S
C348 C349 1.387 . S
C348 N351 1.341 . S
C349 C347 1.400 . S
C349 C348 1.387 . S
N350 Co341 2.022 . S
N350 C347 1.351 . S
N350 N351 1.365 . S
N351 C348 1.341 . S
N351 N350 1.365 . S
N351 H371 0.862 . S
C352 C347 1.501 . S
C352 H353 0.961 . S
C352 H354 0.961 . S
C352 H355 0.960 . S
H353 C352 0.961 . S
H354 C352 0.961 . S
H355 C352 0.960 . S
C356 N357 1.342 . S
C356 C360 1.401 . S
C356 C361 1.499 . S
N357 Co340 1.989 . S
N357 C356 1.342 . S
N357 N358 1.388 . S
N358 Co341 1.993 . S
N358 N357 1.388 . S
N358 C359 1.346 . S
C359 N358 1.346 . S
C359 C360 1.396 . S
C359 C369 1.510 . S
C360 C356 1.401 . S
C360 C359 1.396 . S
C361 C356 1.499 . S
C361 H362 0.959 . S
C361 H363 0.960 . S
C361 H364 0.961 . S
H362 C361 0.959 . S
H363 C361 0.960 . S
H364 C361 0.961 . S
O365 Co340 1.967 . S
O365 C373 1.258 . S
O366 Co341 1.941 . S
O366 C373 1.266 . S
H367 C369 0.959 . S
H368 C369 0.961 . S
C369 C359 1.510 . S
C369 H367 0.959 . S
C369 H368 0.961 . S
C369 H370 0.960 . S
H370 C369 0.960 . S
H371 N351 0.862 . S
O372 Co340 1.920 . S
O372 C345 1.289 . S
C373 O365 1.258 . S
C373 O366 1.266 . S
Co374 O377 1.970 . S
Co374 N391 1.989 . S
Co374 O399 1.967 . S
Co374 O406 1.920 . S
Co375 O378 1.966 . S
Co375 N384 2.022 . S
Co375 N392 1.993 . S
Co375 O400 1.941 . S
C376 O377 1.258 . S
C376 O378 1.263 . S
O377 Co374 1.970 . S
O377 C376 1.258 . S
O378 Co375 1.966 . S
O378 C376 1.263 . S
C379 O380 1.235 . S
C379 O406 1.289 . S
O380 C379 1.235 . S
C381 C383 1.400 . S
C381 N384 1.351 . S
C381 C386 1.501 . S
C382 C383 1.387 . S
C382 N385 1.341 . S
C383 C381 1.400 . S
C383 C382 1.387 . S
N384 Co375 2.022 . S
N384 C381 1.351 . S
N384 N385 1.365 . S
N385 C382 1.341 . S
N385 N384 1.365 . S
N385 H405 0.862 . S
C386 C381 1.501 . S
C386 H387 0.961 . S
C386 H388 0.961 . S
C386 H389 0.960 . S
H387 C386 0.961 . S
H388 C386 0.961 . S
H389 C386 0.960 . S
C390 N391 1.342 . S
C390 C394 1.401 . S
C390 C395 1.499 . S
N391 Co374 1.989 . S
N391 C390 1.342 . S
N391 N392 1.388 . S
N392 Co375 1.993 . S
N392 N391 1.388 . S
N392 C393 1.346 . S
C393 N392 1.346 . S
C393 C394 1.396 . S
C393 C403 1.510 . S
C394 C390 1.401 . S
C394 C393 1.396 . S
C395 C390 1.499 . S
C395 H396 0.959 . S
C395 H397 0.960 . S
C395 H398 0.961 . S
H396 C395 0.959 . S
H397 C395 0.960 . S
H398 C395 0.961 . S
O399 Co374 1.967 . S
O399 C407 1.258 . S
O400 Co375 1.941 . S
O400 C407 1.266 . S
H401 C403 0.959 . S
H402 C403 0.961 . S
C403 C393 1.510 . S
C403 H401 0.959 . S
C403 H402 0.961 . S
C403 H404 0.960 . S
H404 C403 0.960 . S
H405 N385 0.862 . S
O406 Co374 1.920 . S
O406 C379 1.289 . S
C407 O399 1.258 . S
C407 O400 1.266 . S
Co408 O411 1.970 . S
Co408 N425 1.989 . S
Co408 O433 1.967 . S
Co408 O440 1.920 . S
Co409 O412 1.966 . S
Co409 N418 2.022 . S
Co409 N426 1.993 . S
Co409 O434 1.941 . S
C410 O411 1.258 . S
C410 O412 1.263 . S
O411 Co408 1.970 . S
O411 C410 1.258 . S
O412 Co409 1.966 . S
O412 C410 1.263 . S
C413 O414 1.235 . S
C413 O440 1.289 . S
O414 C413 1.235 . S
C415 C417 1.400 . S
C415 N418 1.351 . S
C415 C420 1.501 . S
C416 C417 1.387 . S
C416 N419 1.341 . S
C417 C415 1.400 . S
C417 C416 1.387 . S
N418 Co409 2.022 . S
N418 C415 1.351 . S
N418 N419 1.365 . S
N419 C416 1.341 . S
N419 N418 1.365 . S
N419 H439 0.862 . S
C420 C415 1.501 . S
C420 H421 0.961 . S
C420 H422 0.961 . S
C420 H423 0.960 . S
H421 C420 0.961 . S
H422 C420 0.961 . S
H423 C420 0.960 . S
C424 N425 1.342 . S
C424 C428 1.401 . S
C424 C429 1.499 . S
N425 Co408 1.989 . S
N425 C424 1.342 . S
N425 N426 1.388 . S
N426 Co409 1.993 . S
N426 N425 1.388 . S
N426 C427 1.346 . S
C427 N426 1.346 . S
C427 C428 1.396 . S
C427 C437 1.510 . S
C428 C424 1.401 . S
C428 C427 1.396 . S
C429 C424 1.499 . S
C429 H430 0.959 . S
C429 H431 0.960 . S
C429 H432 0.961 . S
H430 C429 0.959 . S
H431 C429 0.960 . S
H432 C429 0.961 . S
O433 Co408 1.967 . S
O433 C441 1.258 . S
O434 Co409 1.941 . S
O434 C441 1.266 . S
H435 C437 0.959 . S
H436 C437 0.961 . S
C437 C427 1.510 . S
C437 H435 0.959 . S
C437 H436 0.961 . S
C437 H438 0.960 . S
H438 C437 0.960 . S
H439 N419 0.862 . S
O440 Co408 1.920 . S
O440 C413 1.289 . S
C441 O433 1.258 . S
C441 O434 1.266 . S
Co442 O445 1.970 . S
Co442 N459 1.989 . S
Co442 O467 1.967 . S
Co442 O474 1.920 . S
Co443 O446 1.966 . S
Co443 N452 2.022 . S
Co443 N460 1.993 . S
Co443 O468 1.941 . S
C444 O445 1.258 . S
C444 O446 1.263 . S
O445 Co442 1.970 . S
O445 C444 1.258 . S
O446 Co443 1.966 . S
O446 C444 1.263 . S
C447 O448 1.235 . S
C447 O474 1.289 . S
O448 C447 1.235 . S
C449 C451 1.400 . S
C449 N452 1.351 . S
C449 C454 1.501 . S
C450 C451 1.387 . S
C450 N453 1.341 . S
C451 C449 1.400 . S
C451 C450 1.387 . S
N452 Co443 2.022 . S
N452 C449 1.351 . S
N452 N453 1.365 . S
N453 C450 1.341 . S
N453 N452 1.365 . S
N453 H473 0.862 . S
C454 C449 1.501 . S
C454 H455 0.961 . S
C454 H456 0.961 . S
C454 H457 0.960 . S
H455 C454 0.961 . S
H456 C454 0.961 . S
H457 C454 0.960 . S
C458 N459 1.342 . S
C458 C462 1.401 . S
C458 C463 1.499 . S
N459 Co442 1.989 . S
N459 C458 1.342 . S
N459 N460 1.388 . S
N460 Co443 1.993 . S
N460 N459 1.388 . S
N460 C461 1.346 . S
C461 N460 1.346 . S
C461 C462 1.396 . S
C461 C471 1.510 . S
C462 C458 1.401 . S
C462 C461 1.396 . S
C463 C458 1.499 . S
C463 H464 0.959 . S
C463 H465 0.960 . S
C463 H466 0.961 . S
H464 C463 0.959 . S
H465 C463 0.960 . S
H466 C463 0.961 . S
O467 Co442 1.967 . S
O467 C475 1.258 . S
O468 Co443 1.941 . S
O468 C475 1.266 . S
H469 C471 0.959 . S
H470 C471 0.961 . S
C471 C461 1.510 . S
C471 H469 0.959 . S
C471 H470 0.961 . S
C471 H472 0.960 . S
H472 C471 0.960 . S
H473 N453 0.862 . S
O474 Co442 1.920 . S
O474 C447 1.289 . S
C475 O467 1.258 . S
C475 O468 1.266 . S
Co476 O479 1.970 . S
Co476 N493 1.989 . S
Co476 O501 1.967 . S
Co476 O508 1.920 . S
Co477 O480 1.966 . S
Co477 N486 2.022 . S
Co477 N494 1.993 . S
Co477 O502 1.941 . S
C478 O479 1.258 . S
C478 O480 1.263 . S
O479 Co476 1.970 . S
O479 C478 1.258 . S
O480 Co477 1.966 . S
O480 C478 1.263 . S
C481 O482 1.235 . S
C481 O508 1.289 . S
O482 C481 1.235 . S
C483 C485 1.400 . S
C483 N486 1.351 . S
C483 C488 1.501 . S
C484 C485 1.387 . S
C484 N487 1.341 . S
C485 C483 1.400 . S
C485 C484 1.387 . S
N486 Co477 2.022 . S
N486 C483 1.351 . S
N486 N487 1.365 . S
N487 C484 1.341 . S
N487 N486 1.365 . S
N487 H507 0.862 . S
C488 C483 1.501 . S
C488 H489 0.961 . S
C488 H490 0.961 . S
C488 H491 0.960 . S
H489 C488 0.961 . S
H490 C488 0.961 . S
H491 C488 0.960 . S
C492 N493 1.342 . S
C492 C496 1.401 . S
C492 C497 1.499 . S
N493 Co476 1.989 . S
N493 C492 1.342 . S
N493 N494 1.388 . S
N494 Co477 1.993 . S
N494 N493 1.388 . S
N494 C495 1.346 . S
C495 N494 1.346 . S
C495 C496 1.396 . S
C495 C505 1.510 . S
C496 C492 1.401 . S
C496 C495 1.396 . S
C497 C492 1.499 . S
C497 H498 0.959 . S
C497 H499 0.960 . S
C497 H500 0.961 . S
H498 C497 0.959 . S
H499 C497 0.960 . S
H500 C497 0.961 . S
O501 Co476 1.967 . S
O501 C509 1.258 . S
O502 Co477 1.941 . S
O502 C509 1.266 . S
H503 C505 0.959 . S
H504 C505 0.961 . S
C505 C495 1.510 . S
C505 H503 0.959 . S
C505 H504 0.961 . S
C505 H506 0.960 . S
H506 C505 0.960 . S
H507 N487 0.862 . S
O508 Co476 1.920 . S
O508 C481 1.289 . S
C509 O501 1.258 . S
C509 O502 1.266 . S
Co510 O513 1.970 . S
Co510 N527 1.989 . S
Co510 O535 1.967 . S
Co510 O542 1.920 . S
Co511 O514 1.966 . S
Co511 N520 2.022 . S
Co511 N528 1.993 . S
Co511 O536 1.941 . S
C512 O513 1.258 . S
C512 O514 1.263 . S
O513 Co510 1.970 . S
O513 C512 1.258 . S
O514 Co511 1.966 . S
O514 C512 1.263 . S
C515 O516 1.235 . S
C515 O542 1.289 . S
O516 C515 1.235 . S
C517 C519 1.400 . S
C517 N520 1.351 . S
C517 C522 1.501 . S
C518 C519 1.387 . S
C518 N521 1.341 . S
C519 C517 1.400 . S
C519 C518 1.387 . S
N520 Co511 2.022 . S
N520 C517 1.351 . S
N520 N521 1.365 . S
N521 C518 1.341 . S
N521 N520 1.365 . S
N521 H541 0.862 . S
C522 C517 1.501 . S
C522 H523 0.961 . S
C522 H524 0.961 . S
C522 H525 0.960 . S
H523 C522 0.961 . S
H524 C522 0.961 . S
H525 C522 0.960 . S
C526 N527 1.342 . S
C526 C530 1.401 . S
C526 C531 1.499 . S
N527 Co510 1.989 . S
N527 C526 1.342 . S
N527 N528 1.388 . S
N528 Co511 1.993 . S
N528 N527 1.388 . S
N528 C529 1.346 . S
C529 N528 1.346 . S
C529 C530 1.396 . S
C529 C539 1.510 . S
C530 C526 1.401 . S
C530 C529 1.396 . S
C531 C526 1.499 . S
C531 H532 0.959 . S
C531 H533 0.960 . S
C531 H534 0.961 . S
H532 C531 0.959 . S
H533 C531 0.960 . S
H534 C531 0.961 . S
O535 Co510 1.967 . S
O535 C543 1.258 . S
O536 Co511 1.941 . S
O536 C543 1.266 . S
H537 C539 0.959 . S
H538 C539 0.961 . S
C539 C529 1.510 . S
C539 H537 0.959 . S
C539 H538 0.961 . S
C539 H540 0.960 . S
H540 C539 0.960 . S
H541 N521 0.862 . S
O542 Co510 1.920 . S
O542 C515 1.289 . S
C543 O535 1.258 . S
C543 O536 1.266 . S
C544 C545 1.391 . S
C544 C546 1.394 . S
C544 H560 0.931 . S
C545 C544 1.391 . S
C545 C549 1.376 . S
C546 C544 1.394 . S
C546 C547 1.369 . S
C546 C550 1.531 . S
C547 C546 1.369 . S
C547 C548 1.410 . S
C547 C555 1.503 . S
C548 C547 1.410 . S
C548 C549 1.392 . S
C548 C551 1.511 . S
C549 C545 1.376 . S
C549 C548 1.392 . S
C549 H561 0.929 . S
C550 C546 1.531 . S
C550 H562 0.960 . S
C550 H563 0.962 . S
C550 H564 0.960 . S
C551 C548 1.511 . S
C551 H565 0.961 . S
C551 H566 0.961 . S
C551 H567 0.961 . S
C552 C553 1.370 . S
C552 C554 1.363 . S
C552 H568 0.931 . S
C553 C552 1.370 . S
C553 C557 1.408 . S
C554 C552 1.363 . S
C554 C555 1.370 . S
C554 C558 1.524 . S
C555 C547 1.503 . S
C555 C554 1.370 . S
C555 C556 1.403 . S
C556 C555 1.403 . S
C556 C557 1.404 . S
C556 C559 1.539 . S
C557 C553 1.408 . S
C557 C556 1.404 . S
C557 H569 0.930 . S
C558 C554 1.524 . S
C558 H570 0.956 . S
C558 H571 0.961 . S
C558 H572 0.961 . S
C559 C556 1.539 . S
C559 H573 0.958 . S
C559 H574 0.961 . S
C559 H575 0.960 . S
H560 C544 0.931 . S
H561 C549 0.929 . S
H562 C550 0.960 . S
H563 C550 0.962 . S
H564 C550 0.960 . S
H565 C551 0.961 . S
H566 C551 0.961 . S
H567 C551 0.961 . S
H568 C552 0.931 . S
H569 C557 0.930 . S
H570 C558 0.956 . S
H571 C558 0.961 . S
H572 C558 0.961 . S
H573 C559 0.958 . S
H574 C559 0.961 . S
H575 C559 0.960 . S
C576 C577 1.391 . S
C576 C578 1.394 . S
C576 H592 0.931 . S
C577 C576 1.391 . S
C577 C581 1.376 . S
C578 C576 1.394 . S
C578 C579 1.369 . S
C578 C582 1.531 . S
C579 C578 1.369 . S
C579 C580 1.410 . S
C579 C587 1.503 . S
C580 C579 1.410 . S
C580 C581 1.392 . S
C580 C583 1.511 . S
C581 C577 1.376 . S
C581 C580 1.392 . S
C581 H593 0.929 . S
C582 C578 1.531 . S
C582 H594 0.960 . S
C582 H595 0.962 . S
C582 H596 0.960 . S
C583 C580 1.511 . S
C583 H597 0.961 . S
C583 H598 0.961 . S
C583 H599 0.961 . S
C584 C585 1.370 . S
C584 C586 1.363 . S
C584 H600 0.931 . S
C585 C584 1.370 . S
C585 C589 1.408 . S
C586 C584 1.363 . S
C586 C587 1.370 . S
C586 C590 1.524 . S
C587 C579 1.503 . S
C587 C586 1.370 . S
C587 C588 1.403 . S
C588 C587 1.403 . S
C588 C589 1.404 . S
C588 C591 1.539 . S
C589 C585 1.408 . S
C589 C588 1.404 . S
C589 H601 0.930 . S
C590 C586 1.524 . S
C590 H602 0.956 . S
C590 H603 0.961 . S
C590 H604 0.961 . S
C591 C588 1.539 . S
C591 H605 0.958 . S
C591 H606 0.961 . S
C591 H607 0.960 . S
H592 C576 0.931 . S
H593 C581 0.929 . S
H594 C582 0.960 . S
H595 C582 0.962 . S
H596 C582 0.960 . S
H597 C583 0.961 . S
H598 C583 0.961 . S
H599 C583 0.961 . S
H600 C584 0.931 . S
H601 C589 0.930 . S
H602 C590 0.956 . S
H603 C590 0.961 . S
H604 C590 0.961 . S
H605 C591 0.958 . S
H606 C591 0.961 . S
H607 C591 0.960 . S
C608 C609 1.391 . S
C608 C610 1.394 . S
C608 H624 0.931 . S
C609 C608 1.391 . S
C609 C613 1.376 . S
C610 C608 1.394 . S
C610 C611 1.369 . S
C610 C614 1.531 . S
C611 C610 1.369 . S
C611 C612 1.410 . S
C611 C619 1.503 . S
C612 C611 1.410 . S
C612 C613 1.392 . S
C612 C615 1.511 . S
C613 C609 1.376 . S
C613 C612 1.392 . S
C613 H625 0.929 . S
C614 C610 1.531 . S
C614 H626 0.960 . S
C614 H627 0.962 . S
C614 H628 0.960 . S
C615 C612 1.511 . S
C615 H629 0.961 . S
C615 H630 0.961 . S
C615 H631 0.961 . S
C616 C617 1.370 . S
C616 C618 1.363 . S
C616 H632 0.931 . S
C617 C616 1.370 . S
C617 C621 1.408 . S
C618 C616 1.363 . S
C618 C619 1.370 . S
C618 C622 1.524 . S
C619 C611 1.503 . S
C619 C618 1.370 . S
C619 C620 1.403 . S
C620 C619 1.403 . S
C620 C621 1.404 . S
C620 C623 1.539 . S
C621 C617 1.408 . S
C621 C620 1.404 . S
C621 H633 0.930 . S
C622 C618 1.524 . S
C622 H634 0.956 . S
C622 H635 0.961 . S
C622 H636 0.961 . S
C623 C620 1.539 . S
C623 H637 0.958 . S
C623 H638 0.961 . S
C623 H639 0.960 . S
H624 C608 0.931 . S
H625 C613 0.929 . S
H626 C614 0.960 . S
H627 C614 0.962 . S
H628 C614 0.960 . S
H629 C615 0.961 . S
H630 C615 0.961 . S
H631 C615 0.961 . S
H632 C616 0.931 . S
H633 C621 0.930 . S
H634 C622 0.956 . S
H635 C622 0.961 . S
H636 C622 0.961 . S
H637 C623 0.958 . S
H638 C623 0.961 . S
H639 C623 0.960 . S
C640 C641 1.391 . S
C640 C642 1.394 . S
C640 H656 0.931 . S
C641 C640 1.391 . S
C641 C645 1.376 . S
C642 C640 1.394 . S
C642 C643 1.369 . S
C642 C646 1.531 . S
C643 C642 1.369 . S
C643 C644 1.410 . S
C643 C651 1.503 . S
C644 C643 1.410 . S
C644 C645 1.392 . S
C644 C647 1.511 . S
C645 C641 1.376 . S
C645 C644 1.392 . S
C645 H657 0.929 . S
C646 C642 1.531 . S
C646 H658 0.960 . S
C646 H659 0.962 . S
C646 H660 0.960 . S
C647 C644 1.511 . S
C647 H661 0.961 . S
C647 H662 0.961 . S
C647 H663 0.961 . S
C648 C649 1.370 . S
C648 C650 1.363 . S
C648 H664 0.931 . S
C649 C648 1.370 . S
C649 C653 1.408 . S
C650 C648 1.363 . S
C650 C651 1.370 . S
C650 C654 1.524 . S
C651 C643 1.503 . S
C651 C650 1.370 . S
C651 C652 1.403 . S
C652 C651 1.403 . S
C652 C653 1.404 . S
C652 C655 1.539 . S
C653 C649 1.408 . S
C653 C652 1.404 . S
C653 H665 0.930 . S
C654 C650 1.524 . S
C654 H666 0.956 . S
C654 H667 0.961 . S
C654 H668 0.961 . S
C655 C652 1.539 . S
C655 H669 0.958 . S
C655 H670 0.961 . S
C655 H671 0.960 . S
H656 C640 0.931 . S
H657 C645 0.929 . S
H658 C646 0.960 . S
H659 C646 0.962 . S
H660 C646 0.960 . S
H661 C647 0.961 . S
H662 C647 0.961 . S
H663 C647 0.961 . S
H664 C648 0.931 . S
H665 C653 0.930 . S
H666 C654 0.956 . S
H667 C654 0.961 . S
H668 C654 0.961 . S
H669 C655 0.958 . S
H670 C655 0.961 . S
H671 C655 0.960 . S
C672 C673 1.391 . S
C672 C674 1.394 . S
C672 H688 0.931 . S
C673 C672 1.391 . S
C673 C677 1.376 . S
C674 C672 1.394 . S
C674 C675 1.369 . S
C674 C678 1.531 . S
C675 C674 1.369 . S
C675 C676 1.410 . S
C675 C683 1.503 . S
C676 C675 1.410 . S
C676 C677 1.392 . S
C676 C679 1.511 . S
C677 C673 1.376 . S
C677 C676 1.392 . S
C677 H689 0.929 . S
C678 C674 1.531 . S
C678 H690 0.960 . S
C678 H691 0.962 . S
C678 H692 0.960 . S
C679 C676 1.511 . S
C679 H693 0.961 . S
C679 H694 0.961 . S
C679 H695 0.961 . S
C680 C681 1.370 . S
C680 C682 1.363 . S
C680 H696 0.931 . S
C681 C680 1.370 . S
C681 C685 1.408 . S
C682 C680 1.363 . S
C682 C683 1.370 . S
C682 C686 1.524 . S
C683 C675 1.503 . S
C683 C682 1.370 . S
C683 C684 1.403 . S
C684 C683 1.403 . S
C684 C685 1.404 . S
C684 C687 1.539 . S
C685 C681 1.408 . S
C685 C684 1.404 . S
C685 H697 0.930 . S
C686 C682 1.524 . S
C686 H698 0.956 . S
C686 H699 0.961 . S
C686 H700 0.961 . S
C687 C684 1.539 . S
C687 H701 0.958 . S
C687 H702 0.961 . S
C687 H703 0.960 . S
H688 C672 0.931 . S
H689 C677 0.929 . S
H690 C678 0.960 . S
H691 C678 0.962 . S
H692 C678 0.960 . S
H693 C679 0.961 . S
H694 C679 0.961 . S
H695 C679 0.961 . S
H696 C680 0.931 . S
H697 C685 0.930 . S
H698 C686 0.956 . S
H699 C686 0.961 . S
H700 C686 0.961 . S
H701 C687 0.958 . S
H702 C687 0.961 . S
H703 C687 0.960 . S
C704 C705 1.391 . S
C704 C706 1.394 . S
C704 H720 0.931 . S
C705 C704 1.391 . S
C705 C709 1.376 . S
C706 C704 1.394 . S
C706 C707 1.369 . S
C706 C710 1.531 . S
C707 C706 1.369 . S
C707 C708 1.410 . S
C707 C715 1.503 . S
C708 C707 1.410 . S
C708 C709 1.392 . S
C708 C711 1.511 . S
C709 C705 1.376 . S
C709 C708 1.392 . S
C709 H721 0.929 . S
C710 C706 1.531 . S
C710 H722 0.960 . S
C710 H723 0.962 . S
C710 H724 0.960 . S
C711 C708 1.511 . S
C711 H725 0.961 . S
C711 H726 0.961 . S
C711 H727 0.961 . S
C712 C713 1.370 . S
C712 C714 1.363 . S
C712 H728 0.931 . S
C713 C712 1.370 . S
C713 C717 1.408 . S
C714 C712 1.363 . S
C714 C715 1.370 . S
C714 C718 1.524 . S
C715 C707 1.503 . S
C715 C714 1.370 . S
C715 C716 1.403 . S
C716 C715 1.403 . S
C716 C717 1.404 . S
C716 C719 1.539 . S
C717 C713 1.408 . S
C717 C716 1.404 . S
C717 H729 0.930 . S
C718 C714 1.524 . S
C718 H730 0.956 . S
C718 H731 0.961 . S
C718 H732 0.961 . S
C719 C716 1.539 . S
C719 H733 0.958 . S
C719 H734 0.961 . S
C719 H735 0.960 . S
H720 C704 0.931 . S
H721 C709 0.929 . S
H722 C710 0.960 . S
H723 C710 0.962 . S
H724 C710 0.960 . S
H725 C711 0.961 . S
H726 C711 0.961 . S
H727 C711 0.961 . S
H728 C712 0.931 . S
H729 C717 0.930 . S
H730 C718 0.956 . S
H731 C718 0.961 . S
H732 C718 0.961 . S
H733 C719 0.958 . S
H734 C719 0.961 . S
H735 C719 0.960 . S
C736 C737 1.391 . S
C736 C738 1.394 . S
C736 H752 0.931 . S
C737 C736 1.391 . S
C737 C741 1.376 . S
C738 C736 1.394 . S
C738 C739 1.369 . S
C738 C742 1.531 . S
C739 C738 1.369 . S
C739 C740 1.410 . S
C739 C747 1.503 . S
C740 C739 1.410 . S
C740 C741 1.392 . S
C740 C743 1.511 . S
C741 C737 1.376 . S
C741 C740 1.392 . S
C741 H753 0.929 . S
C742 C738 1.531 . S
C742 H754 0.960 . S
C742 H755 0.962 . S
C742 H756 0.960 . S
C743 C740 1.511 . S
C743 H757 0.961 . S
C743 H758 0.961 . S
C743 H759 0.961 . S
C744 C745 1.370 . S
C744 C746 1.363 . S
C744 H760 0.931 . S
C745 C744 1.370 . S
C745 C749 1.408 . S
C746 C744 1.363 . S
C746 C747 1.370 . S
C746 C750 1.524 . S
C747 C739 1.503 . S
C747 C746 1.370 . S
C747 C748 1.403 . S
C748 C747 1.403 . S
C748 C749 1.404 . S
C748 C751 1.539 . S
C749 C745 1.408 . S
C749 C748 1.404 . S
C749 H761 0.930 . S
C750 C746 1.524 . S
C750 H762 0.956 . S
C750 H763 0.961 . S
C750 H764 0.961 . S
C751 C748 1.539 . S
C751 H765 0.958 . S
C751 H766 0.961 . S
C751 H767 0.960 . S
H752 C736 0.931 . S
H753 C741 0.929 . S
H754 C742 0.960 . S
H755 C742 0.962 . S
H756 C742 0.960 . S
H757 C743 0.961 . S
H758 C743 0.961 . S
H759 C743 0.961 . S
H760 C744 0.931 . S
H761 C749 0.930 . S
H762 C750 0.956 . S
H763 C750 0.961 . S
H764 C750 0.961 . S
H765 C751 0.958 . S
H766 C751 0.961 . S
H767 C751 0.960 . S
C768 C769 1.391 . S
C768 C770 1.394 . S
C768 H784 0.931 . S
C769 C768 1.391 . S
C769 C773 1.376 . S
C770 C768 1.394 . S
C770 C771 1.369 . S
C770 C774 1.531 . S
C771 C770 1.369 . S
C771 C772 1.410 . S
C771 C779 1.503 . S
C772 C771 1.410 . S
C772 C773 1.392 . S
C772 C775 1.511 . S
C773 C769 1.376 . S
C773 C772 1.392 . S
C773 H785 0.929 . S
C774 C770 1.531 . S
C774 H786 0.960 . S
C774 H787 0.962 . S
C774 H788 0.960 . S
C775 C772 1.511 . S
C775 H789 0.961 . S
C775 H790 0.961 . S
C775 H791 0.961 . S
C776 C777 1.370 . S
C776 C778 1.363 . S
C776 H792 0.931 . S
C777 C776 1.370 . S
C777 C781 1.408 . S
C778 C776 1.363 . S
C778 C779 1.370 . S
C778 C782 1.524 . S
C779 C771 1.503 . S
C779 C778 1.370 . S
C779 C780 1.403 . S
C780 C779 1.403 . S
C780 C781 1.404 . S
C780 C783 1.539 . S
C781 C777 1.408 . S
C781 C780 1.404 . S
C781 H793 0.930 . S
C782 C778 1.524 . S
C782 H794 0.956 . S
C782 H795 0.961 . S
C782 H796 0.961 . S
C783 C780 1.539 . S
C783 H797 0.958 . S
C783 H798 0.961 . S
C783 H799 0.960 . S
H784 C768 0.931 . S
H785 C773 0.929 . S
H786 C774 0.960 . S
H787 C774 0.962 . S
H788 C774 0.960 . S
H789 C775 0.961 . S
H790 C775 0.961 . S
H791 C775 0.961 . S
H792 C776 0.931 . S
H793 C781 0.930 . S
H794 C782 0.956 . S
H795 C782 0.961 . S
H796 C782 0.961 . S
H797 C783 0.958 . S
H798 C783 0.961 . S
H799 C783 0.960 . S
C800 C801 1.391 1_565 S
C800 C802 1.394 . S
C800 H816 0.921 1_565 S
C801 C800 1.391 1_545 S
C801 C805 1.376 1_554 S
C802 C800 1.394 . S
C802 C803 1.369 . S
C802 C806 1.531 . S
C803 C802 1.369 . S
C803 C804 1.410 1_554 S
C803 C811 1.503 . S
C804 C803 1.410 1_556 S
C804 C805 1.392 1_565 S
C804 C807 1.511 . S
C805 C801 1.376 1_556 S
C805 C804 1.392 1_545 S
C805 H817 0.929 . S
C806 C802 1.531 . S
C806 H818 0.960 . S
C806 H819 0.962 . S
C806 H820 0.960 . S
C807 C804 1.511 . S
C807 H821 0.961 . S
C807 H822 0.961 . S
C807 H823 0.961 . S
C808 C809 1.372 . S
C808 C810 1.363 1_556 S
C808 H824 0.931 . S
C809 C808 1.372 . S
C809 C813 1.402 1_556 S
C810 C808 1.363 1_554 S
C810 C811 1.370 . S
C810 C814 1.524 1_554 S
C811 C803 1.503 . S
C811 C810 1.370 . S
C811 C812 1.403 . S
C812 C811 1.403 . S
C812 C813 1.404 . S
C812 C815 1.539 . S
C813 C809 1.402 1_554 S
C813 C812 1.404 . S
C813 H825 0.930 . S
C814 C810 1.524 1_556 S
C814 H826 0.956 1_556 S
C814 H827 0.961 . S
C814 H828 0.961 . S
C815 C812 1.539 . S
C815 H829 0.958 . S
C815 H830 0.961 . S
C815 H831 0.960 . S
H816 C800 0.921 1_545 S
H817 C805 0.929 . S
H818 C806 0.960 . S
H819 C806 0.962 . S
H820 C806 0.960 . S
H821 C807 0.961 . S
H822 C807 0.961 . S
H823 C807 0.961 . S
H824 C808 0.931 . S
H825 C813 0.930 . S
H826 C814 0.956 1_554 S
H827 C814 0.961 . S
H828 C814 0.961 . S
H829 C815 0.958 . S
H830 C815 0.961 . S
H831 C815 0.960 . S
C832 C833 1.391 1_655 S
C832 C834 1.394 . S
C832 H848 0.931 . S
C833 C832 1.391 1_455 S
C833 C837 1.376 . S
C834 C832 1.394 . S
C834 C835 1.369 . S
C834 C838 1.531 . S
C835 C834 1.369 . S
C835 C836 1.410 1_556 S
C835 C843 1.503 . S
C836 C835 1.410 1_554 S
C836 C837 1.392 1_654 S
C836 C839 1.511 . S
C837 C833 1.376 . S
C837 C836 1.392 1_456 S
C837 H849 0.931 . S
C838 C834 1.531 . S
C838 H850 0.960 . S
C838 H851 0.962 . S
C838 H852 0.960 . S
C839 C836 1.511 . S
C839 H853 0.961 . S
C839 H854 0.961 . S
C839 H855 0.961 . S
C840 C841 1.370 1_556 S
C840 C842 1.363 . S
C840 H856 0.931 . S
C841 C840 1.370 1_554 S
C841 C845 1.408 . S
C842 C840 1.363 . S
C842 C843 1.370 . S
C842 C846 1.524 . S
C843 C835 1.503 . S
C843 C842 1.370 . S
C843 C844 1.403 1_556 S
C844 C843 1.403 1_554 S
C844 C845 1.404 . S
C844 C847 1.539 . S
C845 C841 1.408 . S
C845 C844 1.404 . S
C845 H857 0.930 . S
C846 C842 1.524 . S
C846 H858 0.956 . S
C846 H859 0.961 . S
C846 H860 0.961 . S
C847 C844 1.539 . S
C847 H861 0.958 . S
C847 H862 0.961 . S
C847 H863 0.960 . S
H848 C832 0.931 . S
H849 C837 0.931 . S
H850 C838 0.960 . S
H851 C838 0.962 . S
H852 C838 0.960 . S
H853 C839 0.961 . S
H854 C839 0.961 . S
H855 C839 0.961 . S
H856 C840 0.931 . S
H857 C845 0.930 . S
H858 C846 0.956 . S
H859 C846 0.961 . S
H860 C846 0.961 . S
H861 C847 0.958 . S
H862 C847 0.961 . S
H863 C847 0.960 . S
C864 C865 1.391 1_556 S
C864 C866 1.394 1_565 S
C864 H880 0.931 . S
C865 C864 1.391 1_554 S
C865 C869 1.376 1_565 S
C866 C864 1.394 1_545 S
C866 C867 1.369 1_556 S
C866 C870 1.531 . S
C867 C866 1.369 1_554 S
C867 C868 1.410 . S
C867 C875 1.503 . S
C868 C867 1.410 . S
C868 C869 1.392 . S
C868 C871 1.511 . S
C869 C865 1.376 1_545 S
C869 C868 1.392 . S
C869 H881 0.929 . S
C870 C866 1.531 . S
C870 H882 0.960 . S
C870 H883 0.962 . S
C870 H884 0.960 . S
C871 C868 1.511 . S
C871 H885 0.961 . S
C871 H886 0.961 . S
C871 H887 0.961 . S
C872 C873 1.364 1_554 S
C872 C874 1.363 . S
C872 H888 0.931 . S
C873 C872 1.364 1_556 S
C873 C877 1.413 . S
C874 C872 1.363 . S
C874 C875 1.370 . S
C874 C878 1.524 . S
C875 C867 1.503 . S
C875 C874 1.370 . S
C875 C876 1.403 1_554 S
C876 C875 1.403 1_556 S
C876 C877 1.404 . S
C876 C879 1.539 . S
C877 C873 1.413 . S
C877 C876 1.404 . S
C877 H889 0.930 . S
C878 C874 1.524 . S
C878 H890 0.956 . S
C878 H891 0.961 . S
C878 H892 0.961 . S
C879 C876 1.539 . S
C879 H893 0.958 . S
C879 H894 0.947 1_556 S
C879 H895 0.960 1_556 S
H880 C864 0.931 . S
H881 C869 0.929 . S
H882 C870 0.960 . S
H883 C870 0.962 . S
H884 C870 0.960 . S
H885 C871 0.961 . S
H886 C871 0.961 . S
H887 C871 0.961 . S
H888 C872 0.931 . S
H889 C877 0.930 . S
H890 C878 0.956 . S
H891 C878 0.961 . S
H892 C878 0.961 . S
H893 C879 0.958 . S
H894 C879 0.947 1_554 S
H895 C879 0.960 1_554 S
C896 C897 1.391 . S
C896 C898 1.394 . S
C896 H912 0.931 . S
C897 C896 1.391 . S
C897 C901 1.376 . S
C898 C896 1.394 . S
C898 C899 1.369 . S
C898 C902 1.531 . S
C899 C898 1.369 . S
C899 C900 1.410 . S
C899 C907 1.503 . S
C900 C899 1.410 . S
C900 C901 1.392 . S
C900 C903 1.511 . S
C901 C897 1.376 . S
C901 C900 1.392 . S
C901 H913 0.929 . S
C902 C898 1.531 . S
C902 H914 0.960 . S
C902 H915 0.962 1_556 S
C902 H916 0.960 . S
C903 C900 1.511 . S
C903 H917 0.961 . S
C903 H918 0.961 . S
C903 H919 0.961 . S
C904 C905 1.370 1_454 S
C904 C906 1.363 . S
C904 H920 0.931 1_455 S
C905 C904 1.370 1_656 S
C905 C909 1.408 1_655 S
C906 C904 1.363 . S
C906 C907 1.370 1_554 S
C906 C910 1.524 . S
C907 C899 1.503 . S
C907 C906 1.370 1_556 S
C907 C908 1.403 . S
C908 C907 1.403 . S
C908 C909 1.404 . S
C908 C911 1.539 . S
C909 C905 1.408 1_455 S
C909 C908 1.404 . S
C909 H921 0.930 1_455 S
C910 C906 1.524 . S
C910 H922 0.956 . S
C910 H923 0.961 . S
C910 H924 0.961 . S
C911 C908 1.539 . S
C911 H925 0.958 . S
C911 H926 0.961 . S
C911 H927 0.960 . S
H912 C896 0.931 . S
H913 C901 0.929 . S
H914 C902 0.960 . S
H915 C902 0.962 1_554 S
H916 C902 0.960 . S
H917 C903 0.961 . S
H918 C903 0.961 . S
H919 C903 0.961 . S
H920 C904 0.931 1_655 S
H921 C909 0.930 1_655 S
H922 C910 0.956 . S
H923 C910 0.961 . S
H924 C910 0.961 . S
H925 C911 0.958 . S
H926 C911 0.961 . S
H927 C911 0.960 . S
C928 C929 1.391 . S
C928 C930 1.394 . S
C928 H944 0.931 . S
C929 C928 1.391 . S
C929 C933 1.376 . S
C930 C928 1.394 . S
C930 C931 1.369 . S
C930 C934 1.531 . S
C931 C930 1.369 . S
C931 C932 1.410 . S
C931 C939 1.503 . S
C932 C931 1.410 . S
C932 C933 1.392 . S
C932 C935 1.511 . S
C933 C929 1.376 . S
C933 C932 1.392 . S
C933 H945 0.929 . S
C934 C930 1.531 . S
C934 H946 0.960 . S
C934 H947 0.962 . S
C934 H948 0.960 . S
C935 C932 1.511 . S
C935 H949 0.961 . S
C935 H950 0.961 . S
C935 H951 0.961 . S
C936 C937 1.370 . S
C936 C938 1.363 . S
C936 H952 0.931 . S
C937 C936 1.370 . S
C937 C941 1.408 . S
C938 C936 1.363 . S
C938 C939 1.370 . S
C938 C942 1.524 . S
C939 C931 1.503 . S
C939 C938 1.370 . S
C939 C940 1.403 . S
C940 C939 1.403 . S
C940 C941 1.404 . S
C940 C943 1.539 . S
C941 C937 1.408 . S
C941 C940 1.404 . S
C941 H953 0.930 . S
C942 C938 1.524 . S
C942 H954 0.956 . S
C942 H955 0.961 . S
C942 H956 0.961 . S
C943 C940 1.539 . S
C943 H957 0.958 . S
C943 H958 0.961 . S
C943 H959 0.960 . S
H944 C928 0.931 . S
H945 C933 0.929 . S
H946 C934 0.960 . S
H947 C934 0.962 . S
H948 C934 0.960 . S
H949 C935 0.961 . S
H950 C935 0.961 . S
H951 C935 0.961 . S
H952 C936 0.931 . S
H953 C941 0.930 . S
H954 C942 0.956 . S
H955 C942 0.961 . S
H956 C942 0.961 . S
H957 C943 0.958 . S
H958 C943 0.961 . S
H959 C943 0.960 . S
C960 C961 1.391 . S
C960 C962 1.394 . S
C960 H976 0.931 . S
C961 C960 1.391 . S
C961 C965 1.376 . S
C962 C960 1.394 . S
C962 C963 1.369 . S
C962 C966 1.531 . S
C963 C962 1.369 . S
C963 C964 1.410 . S
C963 C971 1.503 . S
C964 C963 1.410 . S
C964 C965 1.392 . S
C964 C967 1.511 . S
C965 C961 1.376 . S
C965 C964 1.392 . S
C965 H977 0.929 . S
C966 C962 1.531 . S
C966 H978 0.960 . S
C966 H979 0.962 . S
C966 H980 0.960 . S
C967 C964 1.511 . S
C967 H981 0.961 . S
C967 H982 0.961 . S
C967 H983 0.961 . S
C968 C969 1.370 . S
C968 C970 1.363 . S
C968 H984 0.931 . S
C969 C968 1.370 . S
C969 C973 1.408 . S
C970 C968 1.363 . S
C970 C971 1.370 . S
C970 C974 1.524 . S
C971 C963 1.503 . S
C971 C970 1.370 . S
C971 C972 1.403 . S
C972 C971 1.403 . S
C972 C973 1.404 . S
C972 C975 1.539 . S
C973 C969 1.408 . S
C973 C972 1.404 . S
C973 H985 0.930 . S
C974 C970 1.524 . S
C974 H986 0.956 . S
C974 H987 0.961 . S
C974 H988 0.961 . S
C975 C972 1.539 . S
C975 H989 0.958 . S
C975 H990 0.961 . S
C975 H991 0.960 . S
H976 C960 0.931 . S
H977 C965 0.929 . S
H978 C966 0.960 . S
H979 C966 0.962 . S
H980 C966 0.960 . S
H981 C967 0.961 . S
H982 C967 0.961 . S
H983 C967 0.961 . S
H984 C968 0.931 . S
H985 C973 0.930 . S
H986 C974 0.956 . S
H987 C974 0.961 . S
H988 C974 0.961 . S
H989 C975 0.958 . S
H990 C975 0.961 . S
H991 C975 0.960 . S
C992 C993 1.391 . S
C992 C994 1.394 . S
C992 H1008 0.931 . S
C993 C992 1.391 . S
C993 C997 1.376 . S
C994 C992 1.394 . S
C994 C995 1.369 . S
C994 C998 1.531 . S
C995 C994 1.369 . S
C995 C996 1.410 . S
C995 C1003 1.503 . S
C996 C995 1.410 . S
C996 C997 1.392 . S
C996 C999 1.511 . S
C997 C993 1.376 . S
C997 C996 1.392 . S
C997 H1009 0.929 . S
C998 C994 1.531 . S
C998 H1010 0.960 . S
C998 H1011 0.962 . S
C998 H1012 0.960 . S
C999 C996 1.511 . S
C999 H1013 0.961 . S
C999 H1014 0.961 . S
C999 H1015 0.961 . S
C1000 C1001 1.370 . S
C1000 C1002 1.363 . S
C1000 H1016 0.931 . S
C1001 C1000 1.370 . S
C1001 C1005 1.408 . S
C1002 C1000 1.363 . S
C1002 C1003 1.370 . S
C1002 C1006 1.524 . S
C1003 C995 1.503 . S
C1003 C1002 1.370 . S
C1003 C1004 1.403 . S
C1004 C1003 1.403 . S
C1004 C1005 1.404 . S
C1004 C1007 1.539 . S
C1005 C1001 1.408 . S
C1005 C1004 1.404 . S
C1005 H1017 0.930 . S
C1006 C1002 1.524 . S
C1006 H1018 0.956 . S
C1006 H1019 0.961 . S
C1006 H1020 0.961 . S
C1007 C1004 1.539 . S
C1007 H1021 0.958 . S
C1007 H1022 0.961 . S
C1007 H1023 0.960 . S
H1008 C992 0.931 . S
H1009 C997 0.929 . S
H1010 C998 0.960 . S
H1011 C998 0.962 . S
H1012 C998 0.960 . S
H1013 C999 0.961 . S
H1014 C999 0.961 . S
H1015 C999 0.961 . S
H1016 C1000 0.931 . S
H1017 C1005 0.930 . S
H1018 C1006 0.956 . S
H1019 C1006 0.961 . S
H1020 C1006 0.961 . S
H1021 C1007 0.958 . S
H1022 C1007 0.961 . S
H1023 C1007 0.960 . S
C1024 C1025 1.391 . S
C1024 C1026 1.394 . S
C1024 H1040 0.931 . S
C1025 C1024 1.391 . S
C1025 C1029 1.376 . S
C1026 C1024 1.394 . S
C1026 C1027 1.369 . S
C1026 C1030 1.531 . S
C1027 C1026 1.369 . S
C1027 C1028 1.410 . S
C1027 C1035 1.503 . S
C1028 C1027 1.410 . S
C1028 C1029 1.392 . S
C1028 C1031 1.511 . S
C1029 C1025 1.376 . S
C1029 C1028 1.392 . S
C1029 H1041 0.929 . S
C1030 C1026 1.531 . S
C1030 H1042 0.960 . S
C1030 H1043 0.962 . S
C1030 H1044 0.960 . S
C1031 C1028 1.511 . S
C1031 H1045 0.961 . S
C1031 H1046 0.961 . S
C1031 H1047 0.961 . S
C1032 C1033 1.370 . S
C1032 C1034 1.363 . S
C1032 H1048 0.931 . S
C1033 C1032 1.370 . S
C1033 C1037 1.408 . S
C1034 C1032 1.363 . S
C1034 C1035 1.370 . S
C1034 C1038 1.524 . S
C1035 C1027 1.503 . S
C1035 C1034 1.370 . S
C1035 C1036 1.403 . S
C1036 C1035 1.403 . S
C1036 C1037 1.404 . S
C1036 C1039 1.539 . S
C1037 C1033 1.408 . S
C1037 C1036 1.404 . S
C1037 H1049 0.930 . S
C1038 C1034 1.524 . S
C1038 H1050 0.956 . S
C1038 H1051 0.961 . S
C1038 H1052 0.961 . S
C1039 C1036 1.539 . S
C1039 H1053 0.958 . S
C1039 H1054 0.961 . S
C1039 H1055 0.960 . S
H1040 C1024 0.931 . S
H1041 C1029 0.929 . S
H1042 C1030 0.960 . S
H1043 C1030 0.962 . S
H1044 C1030 0.960 . S
H1045 C1031 0.961 . S
H1046 C1031 0.961 . S
H1047 C1031 0.961 . S
H1048 C1032 0.931 . S
H1049 C1037 0.930 . S
H1050 C1038 0.956 . S
H1051 C1038 0.961 . S
H1052 C1038 0.961 . S
H1053 C1039 0.958 . S
H1054 C1039 0.961 . S
H1055 C1039 0.960 . S
C1056 C1057 1.391 . S
C1056 C1058 1.394 . S
C1056 H1072 0.931 . S
C1057 C1056 1.391 . S
C1057 C1061 1.376 . S
C1058 C1056 1.394 . S
C1058 C1059 1.369 . S
C1058 C1062 1.531 . S
C1059 C1058 1.369 . S
C1059 C1060 1.410 . S
C1059 C1067 1.503 . S
C1060 C1059 1.410 . S
C1060 C1061 1.392 . S
C1060 C1063 1.511 . S
C1061 C1057 1.376 . S
C1061 C1060 1.392 . S
C1061 H1073 0.929 . S
C1062 C1058 1.531 . S
C1062 H1074 0.960 . S
C1062 H1075 0.962 . S
C1062 H1076 0.960 . S
C1063 C1060 1.511 . S
C1063 H1077 0.961 . S
C1063 H1078 0.961 . S
C1063 H1079 0.961 . S
C1064 C1065 1.370 . S
C1064 C1066 1.363 . S
C1064 H1080 0.931 . S
C1065 C1064 1.370 . S
C1065 C1069 1.408 . S
C1066 C1064 1.363 . S
C1066 C1067 1.370 . S
C1066 C1070 1.524 . S
C1067 C1059 1.503 . S
C1067 C1066 1.370 . S
C1067 C1068 1.403 . S
C1068 C1067 1.403 . S
C1068 C1069 1.404 . S
C1068 C1071 1.539 . S
C1069 C1065 1.408 . S
C1069 C1068 1.404 . S
C1069 H1081 0.930 . S
C1070 C1066 1.524 . S
C1070 H1082 0.956 . S
C1070 H1083 0.961 . S
C1070 H1084 0.961 . S
C1071 C1068 1.539 . S
C1071 H1085 0.958 . S
C1071 H1086 0.961 . S
C1071 H1087 0.960 . S
H1072 C1056 0.931 . S
H1073 C1061 0.929 . S
H1074 C1062 0.960 . S
H1075 C1062 0.962 . S
H1076 C1062 0.960 . S
H1077 C1063 0.961 . S
H1078 C1063 0.961 . S
H1079 C1063 0.961 . S
H1080 C1064 0.931 . S
H1081 C1069 0.930 . S
H1082 C1070 0.956 . S
H1083 C1070 0.961 . S
H1084 C1070 0.961 . S
H1085 C1071 0.958 . S
H1086 C1071 0.961 . S
H1087 C1071 0.960 . S
C1088 C1089 1.391 . S
C1088 C1090 1.394 . S
C1088 H1104 0.931 . S
C1089 C1088 1.391 . S
C1089 C1093 1.376 . S
C1090 C1088 1.394 . S
C1090 C1091 1.369 . S
C1090 C1094 1.531 . S
C1091 C1090 1.369 . S
C1091 C1092 1.410 . S
C1091 C1099 1.503 . S
C1092 C1091 1.410 . S
C1092 C1093 1.392 . S
C1092 C1095 1.511 . S
C1093 C1089 1.376 . S
C1093 C1092 1.392 . S
C1093 H1105 0.929 . S
C1094 C1090 1.531 . S
C1094 H1106 0.960 . S
C1094 H1107 0.962 . S
C1094 H1108 0.960 . S
C1095 C1092 1.511 . S
C1095 H1109 0.961 . S
C1095 H1110 0.961 . S
C1095 H1111 0.961 . S
C1096 C1097 1.370 . S
C1096 C1098 1.363 . S
C1096 H1112 0.931 . S
C1097 C1096 1.370 . S
C1097 C1101 1.408 . S
C1098 C1096 1.363 . S
C1098 C1099 1.370 . S
C1098 C1102 1.524 . S
C1099 C1091 1.503 . S
C1099 C1098 1.370 . S
C1099 C1100 1.403 . S
C1100 C1099 1.403 . S
C1100 C1101 1.404 . S
C1100 C1103 1.539 . S
C1101 C1097 1.408 . S
C1101 C1100 1.404 . S
C1101 H1113 0.930 . S
C1102 C1098 1.524 . S
C1102 H1114 0.956 . S
C1102 H1115 0.961 . S
C1102 H1116 0.961 . S
C1103 C1100 1.539 . S
C1103 H1117 0.958 . S
C1103 H1118 0.961 . S
C1103 H1119 0.960 . S
H1104 C1088 0.931 . S
H1105 C1093 0.929 . S
H1106 C1094 0.960 . S
H1107 C1094 0.962 . S
H1108 C1094 0.960 . S
H1109 C1095 0.961 . S
H1110 C1095 0.961 . S
H1111 C1095 0.961 . S
H1112 C1096 0.931 . S
H1113 C1101 0.930 . S
H1114 C1102 0.956 . S
H1115 C1102 0.961 . S
H1116 C1102 0.961 . S
H1117 C1103 0.958 . S
H1118 C1103 0.961 . S
H1119 C1103 0.960 . S
C1120 C1121 1.391 . S
C1120 C1122 1.394 . S
C1120 H1136 0.931 . S
C1121 C1120 1.391 . S
C1121 C1125 1.376 . S
C1122 C1120 1.394 . S
C1122 C1123 1.369 . S
C1122 C1126 1.531 . S
C1123 C1122 1.369 . S
C1123 C1124 1.410 . S
C1123 C1131 1.503 . S
C1124 C1123 1.410 . S
C1124 C1125 1.392 . S
C1124 C1127 1.511 . S
C1125 C1121 1.376 . S
C1125 C1124 1.392 . S
C1125 H1137 0.929 . S
C1126 C1122 1.531 . S
C1126 H1138 0.960 . S
C1126 H1139 0.962 . S
C1126 H1140 0.960 . S
C1127 C1124 1.511 . S
C1127 H1141 0.961 . S
C1127 H1142 0.961 . S
C1127 H1143 0.961 . S
C1128 C1129 1.370 . S
C1128 C1130 1.363 . S
C1128 H1144 0.931 . S
C1129 C1128 1.370 . S
C1129 C1133 1.408 . S
C1130 C1128 1.363 . S
C1130 C1131 1.370 . S
C1130 C1134 1.524 . S
C1131 C1123 1.503 . S
C1131 C1130 1.370 . S
C1131 C1132 1.403 . S
C1132 C1131 1.403 . S
C1132 C1133 1.404 . S
C1132 C1135 1.539 . S
C1133 C1129 1.408 . S
C1133 C1132 1.404 . S
C1133 H1145 0.930 . S
C1134 C1130 1.524 . S
C1134 H1146 0.956 . S
C1134 H1147 0.961 . S
C1134 H1148 0.961 . S
C1135 C1132 1.539 . S
C1135 H1149 0.958 . S
C1135 H1150 0.961 . S
C1135 H1151 0.960 . S
H1136 C1120 0.931 . S
H1137 C1125 0.929 . S
H1138 C1126 0.960 . S
H1139 C1126 0.962 . S
H1140 C1126 0.960 . S
H1141 C1127 0.961 . S
H1142 C1127 0.961 . S
H1143 C1127 0.961 . S
H1144 C1128 0.931 . S
H1145 C1133 0.930 . S
H1146 C1134 0.956 . S
H1147 C1134 0.961 . S
H1148 C1134 0.961 . S
H1149 C1135 0.958 . S
H1150 C1135 0.961 . S
H1151 C1135 0.960 . S
C1152 C1153 1.391 . S
C1152 C1154 1.394 . S
C1152 H1168 0.931 . S
C1153 C1152 1.391 . S
C1153 C1157 1.376 . S
C1154 C1152 1.394 . S
C1154 C1155 1.369 . S
C1154 C1158 1.531 . S
C1155 C1154 1.369 . S
C1155 C1156 1.410 . S
C1155 C1163 1.503 . S
C1156 C1155 1.410 . S
C1156 C1157 1.392 . S
C1156 C1159 1.511 . S
C1157 C1153 1.376 . S
C1157 C1156 1.392 . S
C1157 H1169 0.929 . S
C1158 C1154 1.531 . S
C1158 H1170 0.960 . S
C1158 H1171 0.962 . S
C1158 H1172 0.960 . S
C1159 C1156 1.511 . S
C1159 H1173 0.961 . S
C1159 H1174 0.961 . S
C1159 H1175 0.961 . S
C1160 C1161 1.370 . S
C1160 C1162 1.363 . S
C1160 H1176 0.931 . S
C1161 C1160 1.370 . S
C1161 C1165 1.408 . S
C1162 C1160 1.363 . S
C1162 C1163 1.370 . S
C1162 C1166 1.524 . S
C1163 C1155 1.503 . S
C1163 C1162 1.370 . S
C1163 C1164 1.403 . S
C1164 C1163 1.403 . S
C1164 C1165 1.404 . S
C1164 C1167 1.539 . S
C1165 C1161 1.408 . S
C1165 C1164 1.404 . S
C1165 H1177 0.930 . S
C1166 C1162 1.524 . S
C1166 H1178 0.956 . S
C1166 H1179 0.961 . S
C1166 H1180 0.961 . S
C1167 C1164 1.539 . S
C1167 H1181 0.958 . S
C1167 H1182 0.961 . S
C1167 H1183 0.960 . S
H1168 C1152 0.931 . S
H1169 C1157 0.929 . S
H1170 C1158 0.960 . S
H1171 C1158 0.962 . S
H1172 C1158 0.960 . S
H1173 C1159 0.961 . S
H1174 C1159 0.961 . S
H1175 C1159 0.961 . S
H1176 C1160 0.931 . S
H1177 C1165 0.930 . S
H1178 C1166 0.956 . S
H1179 C1166 0.961 . S
H1180 C1166 0.961 . S
H1181 C1167 0.958 . S
H1182 C1167 0.961 . S
H1183 C1167 0.960 . S
C1184 C1185 1.391 1_545 S
C1184 C1186 1.394 . S
C1184 H1200 0.931 . S
C1185 C1184 1.391 1_565 S
C1185 C1189 1.376 . S
C1186 C1184 1.394 . S
C1186 C1187 1.369 . S
C1186 C1190 1.531 . S
C1187 C1186 1.369 . S
C1187 C1188 1.410 . S
C1187 C1195 1.503 . S
C1188 C1187 1.410 . S
C1188 C1189 1.392 1_545 S
C1188 C1191 1.511 . S
C1189 C1185 1.376 . S
C1189 C1188 1.392 1_565 S
C1189 H1201 0.929 . S
C1190 C1186 1.531 . S
C1190 H1202 0.960 . S
C1190 H1203 0.962 . S
C1190 H1204 0.960 . S
C1191 C1188 1.511 . S
C1191 H1205 0.961 . S
C1191 H1206 0.961 . S
C1191 H1207 0.961 . S
C1192 C1193 1.370 . S
C1192 C1194 1.363 . S
C1192 H1208 0.931 . S
C1193 C1192 1.370 . S
C1193 C1197 1.408 . S
C1194 C1192 1.363 . S
C1194 C1195 1.370 . S
C1194 C1198 1.524 . S
C1195 C1187 1.503 . S
C1195 C1194 1.370 . S
C1195 C1196 1.403 . S
C1196 C1195 1.403 . S
C1196 C1197 1.404 . S
C1196 C1199 1.539 . S
C1197 C1193 1.408 . S
C1197 C1196 1.404 . S
C1197 H1209 0.930 . S
C1198 C1194 1.524 . S
C1198 H1210 0.956 . S
C1198 H1211 0.961 . S
C1198 H1212 0.961 . S
C1199 C1196 1.539 . S
C1199 H1213 0.958 . S
C1199 H1214 0.961 . S
C1199 H1215 0.960 . S
H1200 C1184 0.931 . S
H1201 C1189 0.929 . S
H1202 C1190 0.960 . S
H1203 C1190 0.962 . S
H1204 C1190 0.960 . S
H1205 C1191 0.961 . S
H1206 C1191 0.961 . S
H1207 C1191 0.961 . S
H1208 C1192 0.931 . S
H1209 C1197 0.930 . S
H1210 C1198 0.956 . S
H1211 C1198 0.961 . S
H1212 C1198 0.961 . S
H1213 C1199 0.958 . S
H1214 C1199 0.961 . S
H1215 C1199 0.960 . S
C1216 C1217 1.391 . S
C1216 C1218 1.394 . S
C1216 H1232 0.931 . S
C1217 C1216 1.391 . S
C1217 C1221 1.376 . S
C1218 C1216 1.394 . S
C1218 C1219 1.369 . S
C1218 C1222 1.531 . S
C1219 C1218 1.369 . S
C1219 C1220 1.410 . S
C1219 C1227 1.503 . S
C1220 C1219 1.410 . S
C1220 C1221 1.392 . S
C1220 C1223 1.511 . S
C1221 C1217 1.376 . S
C1221 C1220 1.392 . S
C1221 H1233 0.929 . S
C1222 C1218 1.531 . S
C1222 H1234 0.960 . S
C1222 H1235 0.962 . S
C1222 H1236 0.960 . S
C1223 C1220 1.511 . S
C1223 H1237 0.961 . S
C1223 H1238 0.961 . S
C1223 H1239 0.961 . S
C1224 C1225 1.370 1_455 S
C1224 C1226 1.363 . S
C1224 H1240 0.931 . S
C1225 C1224 1.370 1_655 S
C1225 C1229 1.408 . S
C1226 C1224 1.363 . S
C1226 C1227 1.370 . S
C1226 C1230 1.524 . S
C1227 C1219 1.503 . S
C1227 C1226 1.370 . S
C1227 C1228 1.403 . S
C1228 C1227 1.403 . S
C1228 C1229 1.404 1_455 S
C1228 C1231 1.539 . S
C1229 C1225 1.408 . S
C1229 C1228 1.404 1_655 S
C1229 H1241 0.930 . S
C1230 C1226 1.524 . S
C1230 H1242 0.956 . S
C1230 H1243 0.961 . S
C1230 H1244 0.961 . S
C1231 C1228 1.539 . S
C1231 H1245 0.958 . S
C1231 H1246 0.961 . S
C1231 H1247 0.960 . S
H1232 C1216 0.931 . S
H1233 C1221 0.929 . S
H1234 C1222 0.960 . S
H1235 C1222 0.962 . S
H1236 C1222 0.960 . S
H1237 C1223 0.961 . S
H1238 C1223 0.961 . S
H1239 C1223 0.961 . S
H1240 C1224 0.931 . S
H1241 C1229 0.930 . S
H1242 C1230 0.956 . S
H1243 C1230 0.961 . S
H1244 C1230 0.961 . S
H1245 C1231 0.958 . S
H1246 C1231 0.961 . S
H1247 C1231 0.960 . S
C1248 C1249 1.391 . S
C1248 C1250 1.394 . S
C1248 H1264 0.931 . S
C1249 C1248 1.391 . S
C1249 C1253 1.376 . S
C1250 C1248 1.394 . S
C1250 C1251 1.369 . S
C1250 C1254 1.531 . S
C1251 C1250 1.369 . S
C1251 C1252 1.410 . S
C1251 C1259 1.503 . S
C1252 C1251 1.410 . S
C1252 C1253 1.392 . S
C1252 C1255 1.511 . S
C1253 C1249 1.376 . S
C1253 C1252 1.392 . S
C1253 H1265 0.929 . S
C1254 C1250 1.531 . S
C1254 H1266 0.960 . S
C1254 H1267 0.962 . S
C1254 H1268 0.960 . S
C1255 C1252 1.511 . S
C1255 H1269 0.961 . S
C1255 H1270 0.961 . S
C1255 H1271 0.961 . S
C1256 C1257 1.370 . S
C1256 C1258 1.363 1_545 S
C1256 H1272 0.931 . S
C1257 C1256 1.370 . S
C1257 C1261 1.408 1_545 S
C1258 C1256 1.363 1_565 S
C1258 C1259 1.370 . S
C1258 C1262 1.524 . S
C1259 C1251 1.503 . S
C1259 C1258 1.370 . S
C1259 C1260 1.403 . S
C1260 C1259 1.403 . S
C1260 C1261 1.404 . S
C1260 C1263 1.539 . S
C1261 C1257 1.408 1_565 S
C1261 C1260 1.404 . S
C1261 H1273 0.930 . S
C1262 C1258 1.524 . S
C1262 H1274 0.956 . S
C1262 H1275 0.961 . S
C1262 H1276 0.961 . S
C1263 C1260 1.539 . S
C1263 H1277 0.958 . S
C1263 H1278 0.961 . S
C1263 H1279 0.960 . S
H1264 C1248 0.931 . S
H1265 C1253 0.929 . S
H1266 C1254 0.960 . S
H1267 C1254 0.962 . S
H1268 C1254 0.960 . S
H1269 C1255 0.961 . S
H1270 C1255 0.961 . S
H1271 C1255 0.961 . S
H1272 C1256 0.931 . S
H1273 C1261 0.930 . S
H1274 C1262 0.956 . S
H1275 C1262 0.961 . S
H1276 C1262 0.961 . S
H1277 C1263 0.958 . S
H1278 C1263 0.961 . S
H1279 C1263 0.960 . S
C1280 C1281 1.391 1_655 S
C1280 C1282 1.394 . S
C1280 H1296 0.931 . S
C1281 C1280 1.391 1_455 S
C1281 C1285 1.377 . S
C1282 C1280 1.394 . S
C1282 C1283 1.369 . S
C1282 C1286 1.531 . S
C1283 C1282 1.369 . S
C1283 C1284 1.410 . S
C1283 C1291 1.503 . S
C1284 C1283 1.410 . S
C1284 C1285 1.388 1_655 S
C1284 C1287 1.511 . S
C1285 C1281 1.377 . S
C1285 C1284 1.388 1_455 S
C1285 H1297 0.932 . S
C1286 C1282 1.531 . S
C1286 H1298 0.960 . S
C1286 H1299 0.962 . S
C1286 H1300 0.960 . S
C1287 C1284 1.511 . S
C1287 H1301 0.961 . S
C1287 H1302 0.961 . S
C1287 H1303 0.961 . S
C1288 C1289 1.370 . S
C1288 C1290 1.363 . S
C1288 H1304 0.931 . S
C1289 C1288 1.370 . S
C1289 C1293 1.408 . S
C1290 C1288 1.363 . S
C1290 C1291 1.370 . S
C1290 C1294 1.524 . S
C1291 C1283 1.503 . S
C1291 C1290 1.370 . S
C1291 C1292 1.403 . S
C1292 C1291 1.403 . S
C1292 C1293 1.404 . S
C1292 C1295 1.539 . S
C1293 C1289 1.408 . S
C1293 C1292 1.404 . S
C1293 H1305 0.930 . S
C1294 C1290 1.524 . S
C1294 H1306 0.956 . S
C1294 H1307 0.961 . S
C1294 H1308 0.961 . S
C1295 C1292 1.539 . S
C1295 H1309 0.958 . S
C1295 H1310 0.961 . S
C1295 H1311 0.960 . S
H1296 C1280 0.931 . S
H1297 C1285 0.932 . S
H1298 C1286 0.960 . S
H1299 C1286 0.962 . S
H1300 C1286 0.960 . S
H1301 C1287 0.961 . S
H1302 C1287 0.961 . S
H1303 C1287 0.961 . S
H1304 C1288 0.931 . S
H1305 C1293 0.930 . S
H1306 C1294 0.956 . S
H1307 C1294 0.961 . S
H1308 C1294 0.961 . S
H1309 C1295 0.958 . S
H1310 C1295 0.961 . S
H1311 C1295 0.960 . S
C1312 C1313 1.391 . S
C1312 C1314 1.376 1_545 S
C1312 H1328 0.931 . S
C1313 C1312 1.391 . S
C1313 C1317 1.376 . S
C1314 C1312 1.376 1_565 S
C1314 C1315 1.357 1_565 S
C1314 C1318 1.561 1_554 S
C1315 C1314 1.357 1_545 S
C1315 C1316 1.410 . S
C1315 C1323 1.503 1_545 S
C1316 C1315 1.410 . S
C1316 C1317 1.392 . S
C1316 C1319 1.511 . S
C1317 C1313 1.376 . S
C1317 C1316 1.392 . S
C1317 H1329 0.929 . S
C1318 C1314 1.561 1_556 S
C1318 H1330 0.960 . S
C1318 H1331 0.962 1_556 S
C1318 H1332 0.960 . S
C1319 C1316 1.511 . S
C1319 H1333 0.961 . S
C1319 H1334 0.961 . S
C1319 H1335 0.961 . S
C1320 C1321 1.370 . S
C1320 C1322 1.363 . S
C1320 H1336 0.931 . S
C1321 C1320 1.370 . S
C1321 C1325 1.408 1_554 S
C1322 C1320 1.363 . S
C1322 C1323 1.370 . S
C1322 C1326 1.524 . S
C1323 C1315 1.503 1_565 S
C1323 C1322 1.370 . S
C1323 C1324 1.403 1_554 S
C1324 C1323 1.403 1_556 S
C1324 C1325 1.404 . S
C1324 C1327 1.539 1_565 S
C1325 C1321 1.408 1_556 S
C1325 C1324 1.404 . S
C1325 H1337 0.930 . S
C1326 C1322 1.524 . S
C1326 H1338 0.956 . S
C1326 H1339 0.961 1_565 S
C1326 H1340 0.961 . S
C1327 C1324 1.539 1_545 S
C1327 H1341 0.958 1_545 S
C1327 H1342 0.961 . S
C1327 H1343 0.960 . S
H1328 C1312 0.931 . S
H1329 C1317 0.929 . S
H1330 C1318 0.960 . S
H1331 C1318 0.962 1_554 S
H1332 C1318 0.960 . S
H1333 C1319 0.961 . S
H1334 C1319 0.961 . S
H1335 C1319 0.961 . S
H1336 C1320 0.931 . S
H1337 C1325 0.930 . S
H1338 C1326 0.956 . S
H1339 C1326 0.961 1_545 S
H1340 C1326 0.961 . S
H1341 C1327 0.958 1_565 S
H1342 C1327 0.961 . S
H1343 C1327 0.960 . S
C1344 C1345 1.391 . S
C1344 C1346 1.394 . S
C1344 H1360 0.931 . S
C1345 C1344 1.391 . S
C1345 C1349 1.376 1_556 S
C1346 C1344 1.394 . S
C1346 C1347 1.369 . S
C1346 C1350 1.531 . S
C1347 C1346 1.369 . S
C1347 C1348 1.410 1_556 S
C1347 C1355 1.503 1_455 S
C1348 C1347 1.410 1_554 S
C1348 C1349 1.392 . S
C1348 C1351 1.511 1_455 S
C1349 C1345 1.376 1_554 S
C1349 C1348 1.392 . S
C1349 H1361 0.929 . S
C1350 C1346 1.531 . S
C1350 H1362 0.960 . S
C1350 H1363 0.962 . S
C1350 H1364 0.960 . S
C1351 C1348 1.511 1_655 S
C1351 H1365 0.961 . S
C1351 H1366 0.961 . S
C1351 H1367 0.961 1_655 S
C1352 C1353 1.370 . S
C1352 C1354 1.363 . S
C1352 H1368 0.931 . S
C1353 C1352 1.370 . S
C1353 C1357 1.408 . S
C1354 C1352 1.363 . S
C1354 C1355 1.370 . S
C1354 C1358 1.524 . S
C1355 C1347 1.503 1_655 S
C1355 C1354 1.370 . S
C1355 C1356 1.403 1_655 S
C1356 C1355 1.403 1_455 S
C1356 C1357 1.404 1_455 S
C1356 C1359 1.539 1_556 S
C1357 C1353 1.408 . S
C1357 C1356 1.404 1_655 S
C1357 H1369 0.930 1_556 S
C1358 C1354 1.524 . S
C1358 H1370 0.956 . S
C1358 H1371 0.961 . S
C1358 H1372 0.961 . S
C1359 C1356 1.539 1_554 S
C1359 H1373 0.958 . S
C1359 H1374 0.961 . S
C1359 H1375 0.960 . S
H1360 C1344 0.931 . S
H1361 C1349 0.929 . S
H1362 C1350 0.960 . S
H1363 C1350 0.962 . S
H1364 C1350 0.960 . S
H1365 C1351 0.961 . S
H1366 C1351 0.961 . S
H1367 C1351 0.961 1_455 S
H1368 C1352 0.931 . S
H1369 C1357 0.930 1_554 S
H1370 C1358 0.956 . S
H1371 C1358 0.961 . S
H1372 C1358 0.961 . S
H1373 C1359 0.958 . S
H1374 C1359 0.961 . S
H1375 C1359 0.960 . S
C1376 C1377 1.391 . S
C1376 C1378 1.394 . S
C1376 H1392 0.931 . S
C1377 C1376 1.391 . S
C1377 C1381 1.376 . S
C1378 C1376 1.394 . S
C1378 C1379 1.369 . S
C1378 C1382 1.531 . S
C1379 C1378 1.369 . S
C1379 C1380 1.410 . S
C1379 C1387 1.503 . S
C1380 C1379 1.410 . S
C1380 C1381 1.392 . S
C1380 C1383 1.511 . S
C1381 C1377 1.376 . S
C1381 C1380 1.392 . S
C1381 H1393 0.929 . S
C1382 C1378 1.531 . S
C1382 H1394 0.960 . S
C1382 H1395 0.962 . S
C1382 H1396 0.960 . S
C1383 C1380 1.511 . S
C1383 H1397 0.961 . S
C1383 H1398 0.961 . S
C1383 H1399 0.961 . S
C1384 C1385 1.370 . S
C1384 C1386 1.363 . S
C1384 H1400 0.931 . S
C1385 C1384 1.370 . S
C1385 C1389 1.408 . S
C1386 C1384 1.363 . S
C1386 C1387 1.370 . S
C1386 C1390 1.524 . S
C1387 C1379 1.503 . S
C1387 C1386 1.370 . S
C1387 C1388 1.403 . S
C1388 C1387 1.403 . S
C1388 C1389 1.404 . S
C1388 C1391 1.539 . S
C1389 C1385 1.408 . S
C1389 C1388 1.404 . S
C1389 H1401 0.930 . S
C1390 C1386 1.524 . S
C1390 H1402 0.956 . S
C1390 H1403 0.961 . S
C1390 H1404 0.961 . S
C1391 C1388 1.539 . S
C1391 H1405 0.958 . S
C1391 H1406 0.961 . S
C1391 H1407 0.960 . S
H1392 C1376 0.931 . S
H1393 C1381 0.929 . S
H1394 C1382 0.960 . S
H1395 C1382 0.962 . S
H1396 C1382 0.960 . S
H1397 C1383 0.961 . S
H1398 C1383 0.961 . S
H1399 C1383 0.961 . S
H1400 C1384 0.931 . S
H1401 C1389 0.930 . S
H1402 C1390 0.956 . S
H1403 C1390 0.961 . S
H1404 C1390 0.961 . S
H1405 C1391 0.958 . S
H1406 C1391 0.961 . S
H1407 C1391 0.960 . S
C1408 C1409 1.391 . S
C1408 C1410 1.394 . S
C1408 H1424 0.931 . S
C1409 C1408 1.391 . S
C1409 C1413 1.376 . S
C1410 C1408 1.394 . S
C1410 C1411 1.369 . S
C1410 C1414 1.531 . S
C1411 C1410 1.369 . S
C1411 C1412 1.410 . S
C1411 C1419 1.503 . S
C1412 C1411 1.410 . S
C1412 C1413 1.392 . S
C1412 C1415 1.511 . S
C1413 C1409 1.376 . S
C1413 C1412 1.392 . S
C1413 H1425 0.929 . S
C1414 C1410 1.531 . S
C1414 H1426 0.960 . S
C1414 H1427 0.962 . S
C1414 H1428 0.960 . S
C1415 C1412 1.511 . S
C1415 H1429 0.961 . S
C1415 H1430 0.961 . S
C1415 H1431 0.961 . S
C1416 C1417 1.370 . S
C1416 C1418 1.363 . S
C1416 H1432 0.931 . S
C1417 C1416 1.370 . S
C1417 C1421 1.408 . S
C1418 C1416 1.363 . S
C1418 C1419 1.370 . S
C1418 C1422 1.524 . S
C1419 C1411 1.503 . S
C1419 C1418 1.370 . S
C1419 C1420 1.403 . S
C1420 C1419 1.403 . S
C1420 C1421 1.404 . S
C1420 C1423 1.539 . S
C1421 C1417 1.408 . S
C1421 C1420 1.404 . S
C1421 H1433 0.930 . S
C1422 C1418 1.524 . S
C1422 H1434 0.956 . S
C1422 H1435 0.961 . S
C1422 H1436 0.961 . S
C1423 C1420 1.539 . S
C1423 H1437 0.958 . S
C1423 H1438 0.961 . S
C1423 H1439 0.960 . S
H1424 C1408 0.931 . S
H1425 C1413 0.929 . S
H1426 C1414 0.960 . S
H1427 C1414 0.962 . S
H1428 C1414 0.960 . S
H1429 C1415 0.961 . S
H1430 C1415 0.961 . S
H1431 C1415 0.961 . S
H1432 C1416 0.931 . S
H1433 C1421 0.930 . S
H1434 C1422 0.956 . S
H1435 C1422 0.961 . S
H1436 C1422 0.961 . S
H1437 C1423 0.958 . S
H1438 C1423 0.961 . S
H1439 C1423 0.960 . S
C1440 C1441 1.391 . S
C1440 C1442 1.394 . S
C1440 H1456 0.931 . S
C1441 C1440 1.391 . S
C1441 C1445 1.376 . S
C1442 C1440 1.394 . S
C1442 C1443 1.369 . S
C1442 C1446 1.531 . S
C1443 C1442 1.369 . S
C1443 C1444 1.410 . S
C1443 C1451 1.503 1_655 S
C1444 C1443 1.410 . S
C1444 C1445 1.392 . S
C1444 C1447 1.511 . S
C1445 C1441 1.376 . S
C1445 C1444 1.392 . S
C1445 H1457 0.929 . S
C1446 C1442 1.531 . S
C1446 H1458 0.960 1_655 S
C1446 H1459 0.962 1_655 S
C1446 H1460 0.960 . S
C1447 C1444 1.511 . S
C1447 H1461 0.961 . S
C1447 H1462 0.961 . S
C1447 H1463 0.961 . S
C1448 C1449 1.370 . S
C1448 C1450 1.363 . S
C1448 H1464 0.931 . S
C1449 C1448 1.370 . S
C1449 C1453 1.408 . S
C1450 C1448 1.363 . S
C1450 C1451 1.370 . S
C1450 C1454 1.524 . S
C1451 C1443 1.503 1_455 S
C1451 C1450 1.370 . S
C1451 C1452 1.403 . S
C1452 C1451 1.403 . S
C1452 C1453 1.404 . S
C1452 C1455 1.539 1_455 S
C1453 C1449 1.408 . S
C1453 C1452 1.404 . S
C1453 H1465 0.930 . S
C1454 C1450 1.524 . S
C1454 H1466 0.956 . S
C1454 H1467 0.961 . S
C1454 H1468 0.961 . S
C1455 C1452 1.539 1_655 S
C1455 H1469 0.958 . S
C1455 H1470 0.961 . S
C1455 H1471 0.960 . S
H1456 C1440 0.931 . S
H1457 C1445 0.929 . S
H1458 C1446 0.960 1_455 S
H1459 C1446 0.962 1_455 S
H1460 C1446 0.960 . S
H1461 C1447 0.961 . S
H1462 C1447 0.961 . S
H1463 C1447 0.961 . S
H1464 C1448 0.931 . S
H1465 C1453 0.930 . S
H1466 C1454 0.956 . S
H1467 C1454 0.961 . S
H1468 C1454 0.961 . S
H1469 C1455 0.958 . S
H1470 C1455 0.961 . S
H1471 C1455 0.960 . S
C1472 C1473 1.391 . S
C1472 C1474 1.394 . S
C1472 H1488 0.931 . S
C1473 C1472 1.391 . S
C1473 C1477 1.376 . S
C1474 C1472 1.394 . S
C1474 C1475 1.369 . S
C1474 C1478 1.531 . S
C1475 C1474 1.369 . S
C1475 C1476 1.410 . S
C1475 C1483 1.503 1_545 S
C1476 C1475 1.410 . S
C1476 C1477 1.392 . S
C1476 C1479 1.497 1_545 S
C1477 C1473 1.376 . S
C1477 C1476 1.392 . S
C1477 H1489 0.929 . S
C1478 C1474 1.531 . S
C1478 H1490 0.960 1_545 S
C1478 H1491 0.962 . S
C1478 H1492 0.960 . S
C1479 C1476 1.497 1_565 S
C1479 H1493 0.945 1_565 S
C1479 H1494 0.973 . S
C1479 H1495 0.979 . S
C1480 C1481 1.370 . S
C1480 C1482 1.363 . S
C1480 H1496 0.931 . S
C1481 C1480 1.370 . S
C1481 C1485 1.408 . S
C1482 C1480 1.363 . S
C1482 C1483 1.370 . S
C1482 C1486 1.524 1_565 S
C1483 C1475 1.503 1_565 S
C1483 C1482 1.370 . S
C1483 C1484 1.403 . S
C1484 C1483 1.403 . S
C1484 C1485 1.404 . S
C1484 C1487 1.539 . S
C1485 C1481 1.408 . S
C1485 C1484 1.404 . S
C1485 H1497 0.930 . S
C1486 C1482 1.524 1_545 S
C1486 H1498 0.956 . S
C1486 H1499 0.961 . S
C1486 H1500 0.961 . S
C1487 C1484 1.539 . S
C1487 H1501 0.958 . S
C1487 H1502 0.961 . S
C1487 H1503 0.960 . S
H1488 C1472 0.931 . S
H1489 C1477 0.929 . S
H1490 C1478 0.960 1_565 S
H1491 C1478 0.962 . S
H1492 C1478 0.960 . S
H1493 C1479 0.945 1_545 S
H1494 C1479 0.973 . S
H1495 C1479 0.979 . S
H1496 C1480 0.931 . S
H1497 C1485 0.930 . S
H1498 C1486 0.956 . S
H1499 C1486 0.961 . S
H1500 C1486 0.961 . S
H1501 C1487 0.958 . S
H1502 C1487 0.961 . S
H1503 C1487 0.960 . S
C1504 C1505 1.391 . S
C1504 C1506 1.394 . S
C1504 H1520 0.931 . S
C1505 C1504 1.391 . S
C1505 C1509 1.376 . S
C1506 C1504 1.394 . S
C1506 C1507 1.369 . S
C1506 C1510 1.531 1_655 S
C1507 C1506 1.369 . S
C1507 C1508 1.410 1_565 S
C1507 C1515 1.503 1_665 S
C1508 C1507 1.410 1_545 S
C1508 C1509 1.392 1_545 S
C1508 C1511 1.511 . S
C1509 C1505 1.376 . S
C1509 C1508 1.392 1_565 S
C1509 H1521 0.929 . S
C1510 C1506 1.531 1_455 S
C1510 H1522 0.960 . S
C1510 H1523 0.962 . S
C1510 H1524 0.960 . S
C1511 C1508 1.511 . S
C1511 H1525 0.961 . S
C1511 H1526 0.961 . S
C1511 H1527 0.961 . S
C1512 C1513 1.370 . S
C1512 C1514 1.363 . S
C1512 H1528 0.931 . S
C1513 C1512 1.370 . S
C1513 C1517 1.408 . S
C1514 C1512 1.363 . S
C1514 C1515 1.370 . S
C1514 C1518 1.524 1_545 S
C1515 C1507 1.503 1_445 S
C1515 C1514 1.370 . S
C1515 C1516 1.403 . S
C1516 C1515 1.403 . S
C1516 C1517 1.404 . S
C1516 C1519 1.539 . S
C1517 C1513 1.408 . S
C1517 C1516 1.404 . S
C1517 H1529 0.930 . S
C1518 C1514 1.524 1_565 S
C1518 H1530 0.956 . S
C1518 H1531 0.955 1_465 S
C1518 H1532 0.961 1_565 S
C1519 C1516 1.539 . S
C1519 H1533 0.958 . S
C1519 H1534 0.961 . S
C1519 H1535 0.960 1_455 S
H1520 C1504 0.931 . S
H1521 C1509 0.929 . S
H1522 C1510 0.960 . S
H1523 C1510 0.962 . S
H1524 C1510 0.960 . S
H1525 C1511 0.961 . S
H1526 C1511 0.961 . S
H1527 C1511 0.961 . S
H1528 C1512 0.931 . S
H1529 C1517 0.930 . S
H1530 C1518 0.956 . S
H1531 C1518 0.955 1_645 S
H1532 C1518 0.961 1_545 S
H1533 C1519 0.958 . S
H1534 C1519 0.961 . S
H1535 C1519 0.960 1_655 S
C1536 C1537 1.391 . S
C1536 C1538 1.394 1_655 S
C1536 H1552 0.931 . S
C1537 C1536 1.391 . S
C1537 C1541 1.376 . S
C1538 C1536 1.394 1_455 S
C1538 C1539 1.369 1_455 S
C1538 C1542 1.531 . S
C1539 C1538 1.369 1_655 S
C1539 C1540 1.410 . S
C1539 C1547 1.503 1_645 S
C1540 C1539 1.410 . S
C1540 C1541 1.392 . S
C1540 C1543 1.511 1_545 S
C1541 C1537 1.376 . S
C1541 C1540 1.392 . S
C1541 H1553 0.929 . S
C1542 C1538 1.531 . S
C1542 H1554 0.960 . S
C1542 H1555 0.962 . S
C1542 H1556 0.960 . S
C1543 C1540 1.511 1_565 S
C1543 H1557 0.961 . S
C1543 H1558 0.961 . S
C1543 H1559 0.961 . S
C1544 C1545 1.370 . S
C1544 C1546 1.363 . S
C1544 H1560 0.931 . S
C1545 C1544 1.370 . S
C1545 C1549 1.408 . S
C1546 C1544 1.363 . S
C1546 C1547 1.370 . S
C1546 C1550 1.524 1_455 S
C1547 C1539 1.503 1_465 S
C1547 C1546 1.370 . S
C1547 C1548 1.403 . S
C1548 C1547 1.403 . S
C1548 C1549 1.404 . S
C1548 C1551 1.539 . S
C1549 C1545 1.408 . S
C1549 C1548 1.404 . S
C1549 H1561 0.930 . S
C1550 C1546 1.524 1_655 S
C1550 H1562 0.956 . S
C1550 H1563 0.961 . S
C1550 H1564 0.961 . S
C1551 C1548 1.539 . S
C1551 H1565 0.958 1_565 S
C1551 H1566 0.961 . S
C1551 H1567 0.960 1_565 S
H1552 C1536 0.931 . S
H1553 C1541 0.929 . S
H1554 C1542 0.960 . S
H1555 C1542 0.962 . S
H1556 C1542 0.960 . S
H1557 C1543 0.961 . S
H1558 C1543 0.961 . S
H1559 C1543 0.961 . S
H1560 C1544 0.931 . S
H1561 C1549 0.930 . S
H1562 C1550 0.956 . S
H1563 C1550 0.961 . S
H1564 C1550 0.961 . S
H1565 C1551 0.958 1_545 S
H1566 C1551 0.961 . S
H1567 C1551 0.960 1_545 S
C1568 C1569 1.391 . S
C1568 C1570 1.394 . S
C1568 H1584 0.931 . S
C1569 C1568 1.391 . S
C1569 C1573 1.376 . S
C1570 C1568 1.394 . S
C1570 C1571 1.369 . S
C1570 C1574 1.531 . S
C1571 C1570 1.369 . S
C1571 C1572 1.410 . S
C1571 C1579 1.503 . S
C1572 C1571 1.410 . S
C1572 C1573 1.392 . S
C1572 C1575 1.511 . S
C1573 C1569 1.376 . S
C1573 C1572 1.392 . S
C1573 H1585 0.929 . S
C1574 C1570 1.531 . S
C1574 H1586 0.960 . S
C1574 H1587 0.962 . S
C1574 H1588 0.960 . S
C1575 C1572 1.511 . S
C1575 H1589 0.961 . S
C1575 H1590 0.961 . S
C1575 H1591 0.961 . S
C1576 C1577 1.370 . S
C1576 C1578 1.363 . S
C1576 H1592 0.931 . S
C1577 C1576 1.370 . S
C1577 C1581 1.408 . S
C1578 C1576 1.363 . S
C1578 C1579 1.370 . S
C1578 C1582 1.524 . S
C1579 C1571 1.503 . S
C1579 C1578 1.370 . S
C1579 C1580 1.403 . S
C1580 C1579 1.403 . S
C1580 C1581 1.404 . S
C1580 C1583 1.539 . S
C1581 C1577 1.408 . S
C1581 C1580 1.404 . S
C1581 H1593 0.930 . S
C1582 C1578 1.524 . S
C1582 H1594 0.956 . S
C1582 H1595 0.961 . S
C1582 H1596 0.961 . S
C1583 C1580 1.539 . S
C1583 H1597 0.958 . S
C1583 H1598 0.961 . S
C1583 H1599 0.960 . S
H1584 C1568 0.931 . S
H1585 C1573 0.929 . S
H1586 C1574 0.960 . S
H1587 C1574 0.962 . S
H1588 C1574 0.960 . S
H1589 C1575 0.961 . S
H1590 C1575 0.961 . S
H1591 C1575 0.961 . S
H1592 C1576 0.931 . S
H1593 C1581 0.930 . S
H1594 C1582 0.956 . S
H1595 C1582 0.961 . S
H1596 C1582 0.961 . S
H1597 C1583 0.958 . S
H1598 C1583 0.961 . S
H1599 C1583 0.960 . S
C1600 C1601 1.391 . S
C1600 C1602 1.394 . S
C1600 H1616 0.931 . S
C1601 C1600 1.391 . S
C1601 C1605 1.376 . S
C1602 C1600 1.394 . S
C1602 C1603 1.369 . S
C1602 C1606 1.531 . S
C1603 C1602 1.369 . S
C1603 C1604 1.410 . S
C1603 C1611 1.503 . S
C1604 C1603 1.410 . S
C1604 C1605 1.392 . S
C1604 C1607 1.511 . S
C1605 C1601 1.376 . S
C1605 C1604 1.392 . S
C1605 H1617 0.929 . S
C1606 C1602 1.531 . S
C1606 H1618 0.960 . S
C1606 H1619 0.962 . S
C1606 H1620 0.960 . S
C1607 C1604 1.511 . S
C1607 H1621 0.961 . S
C1607 H1622 0.961 . S
C1607 H1623 0.961 . S
C1608 C1609 1.370 . S
C1608 C1610 1.363 . S
C1608 H1624 0.931 . S
C1609 C1608 1.370 . S
C1609 C1613 1.408 . S
C1610 C1608 1.363 . S
C1610 C1611 1.370 . S
C1610 C1614 1.524 . S
C1611 C1603 1.503 . S
C1611 C1610 1.370 . S
C1611 C1612 1.403 . S
C1612 C1611 1.403 . S
C1612 C1613 1.404 . S
C1612 C1615 1.539 . S
C1613 C1609 1.408 . S
C1613 C1612 1.404 . S
C1613 H1625 0.930 . S
C1614 C1610 1.524 . S
C1614 H1626 0.956 . S
C1614 H1627 0.961 . S
C1614 H1628 0.961 . S
C1615 C1612 1.539 . S
C1615 H1629 0.958 . S
C1615 H1630 0.961 . S
C1615 H1631 0.960 . S
H1616 C1600 0.931 . S
H1617 C1605 0.929 . S
H1618 C1606 0.960 . S
H1619 C1606 0.962 . S
H1620 C1606 0.960 . S
H1621 C1607 0.961 . S
H1622 C1607 0.961 . S
H1623 C1607 0.961 . S
H1624 C1608 0.931 . S
H1625 C1613 0.930 . S
H1626 C1614 0.956 . S
H1627 C1614 0.961 . S
H1628 C1614 0.961 . S
H1629 C1615 0.958 . S
H1630 C1615 0.961 . S
H1631 C1615 0.960 . S
C1632 C1633 1.391 . S
C1632 C1634 1.394 . S
C1632 H1648 0.931 . S
C1633 C1632 1.391 . S
C1633 C1637 1.376 . S
C1634 C1632 1.394 . S
C1634 C1635 1.369 . S
C1634 C1638 1.531 . S
C1635 C1634 1.369 . S
C1635 C1636 1.410 . S
C1635 C1643 1.503 . S
C1636 C1635 1.410 . S
C1636 C1637 1.392 . S
C1636 C1639 1.511 . S
C1637 C1633 1.376 . S
C1637 C1636 1.392 . S
C1637 H1649 0.929 . S
C1638 C1634 1.531 . S
C1638 H1650 0.960 . S
C1638 H1651 0.962 . S
C1638 H1652 0.960 . S
C1639 C1636 1.511 . S
C1639 H1653 0.961 . S
C1639 H1654 0.961 . S
C1639 H1655 0.961 . S
C1640 C1641 1.370 . S
C1640 C1642 1.363 . S
C1640 H1656 0.931 . S
C1641 C1640 1.370 . S
C1641 C1645 1.408 . S
C1642 C1640 1.363 . S
C1642 C1643 1.370 . S
C1642 C1646 1.524 . S
C1643 C1635 1.503 . S
C1643 C1642 1.370 . S
C1643 C1644 1.403 . S
C1644 C1643 1.403 . S
C1644 C1645 1.404 . S
C1644 C1647 1.539 . S
C1645 C1641 1.408 . S
C1645 C1644 1.404 . S
C1645 H1657 0.930 . S
C1646 C1642 1.524 . S
C1646 H1658 0.956 . S
C1646 H1659 0.961 . S
C1646 H1660 0.961 . S
C1647 C1644 1.539 . S
C1647 H1661 0.958 . S
C1647 H1662 0.961 . S
C1647 H1663 0.960 . S
H1648 C1632 0.931 . S
H1649 C1637 0.929 . S
H1650 C1638 0.960 . S
H1651 C1638 0.962 . S
H1652 C1638 0.960 . S
H1653 C1639 0.961 . S
H1654 C1639 0.961 . S
H1655 C1639 0.961 . S
H1656 C1640 0.931 . S
H1657 C1645 0.930 . S
H1658 C1646 0.956 . S
H1659 C1646 0.961 . S
H1660 C1646 0.961 . S
H1661 C1647 0.958 . S
H1662 C1647 0.961 . S
H1663 C1647 0.960 . S
C1664 C1665 1.391 . S
C1664 C1666 1.394 . S
C1664 H1680 0.931 . S
C1665 C1664 1.391 . S
C1665 C1669 1.376 . S
C1666 C1664 1.394 . S
C1666 C1667 1.369 . S
C1666 C1670 1.531 . S
C1667 C1666 1.369 . S
C1667 C1668 1.410 . S
C1667 C1675 1.503 . S
C1668 C1667 1.410 . S
C1668 C1669 1.392 . S
C1668 C1671 1.511 . S
C1669 C1665 1.376 . S
C1669 C1668 1.392 . S
C1669 H1681 0.929 . S
C1670 C1666 1.531 . S
C1670 H1682 0.960 . S
C1670 H1683 0.962 . S
C1670 H1684 0.960 . S
C1671 C1668 1.511 . S
C1671 H1685 0.961 . S
C1671 H1686 0.961 . S
C1671 H1687 0.961 . S
C1672 C1673 1.370 . S
C1672 C1674 1.363 . S
C1672 H1688 0.931 . S
C1673 C1672 1.370 . S
C1673 C1677 1.408 . S
C1674 C1672 1.363 . S
C1674 C1675 1.370 . S
C1674 C1678 1.524 . S
C1675 C1667 1.503 . S
C1675 C1674 1.370 . S
C1675 C1676 1.403 . S
C1676 C1675 1.403 . S
C1676 C1677 1.404 . S
C1676 C1679 1.539 . S
C1677 C1673 1.408 . S
C1677 C1676 1.404 . S
C1677 H1689 0.930 . S
C1678 C1674 1.524 . S
C1678 H1690 0.956 . S
C1678 H1691 0.961 . S
C1678 H1692 0.961 . S
C1679 C1676 1.539 . S
C1679 H1693 0.958 . S
C1679 H1694 0.961 . S
C1679 H1695 0.960 . S
H1680 C1664 0.931 . S
H1681 C1669 0.929 . S
H1682 C1670 0.960 . S
H1683 C1670 0.962 . S
H1684 C1670 0.960 . S
H1685 C1671 0.961 . S
H1686 C1671 0.961 . S
H1687 C1671 0.961 . S
H1688 C1672 0.931 . S
H1689 C1677 0.930 . S
H1690 C1678 0.956 . S
H1691 C1678 0.961 . S
H1692 C1678 0.961 . S
H1693 C1679 0.958 . S
H1694 C1679 0.961 . S
H1695 C1679 0.960 . S
C1696 C1697 1.391 . S
C1696 C1698 1.394 . S
C1696 H1712 0.931 . S
C1697 C1696 1.391 . S
C1697 C1701 1.376 . S
C1698 C1696 1.394 . S
C1698 C1699 1.369 . S
C1698 C1702 1.531 . S
C1699 C1698 1.369 . S
C1699 C1700 1.410 . S
C1699 C1707 1.503 . S
C1700 C1699 1.410 . S
C1700 C1701 1.392 . S
C1700 C1703 1.511 . S
C1701 C1697 1.376 . S
C1701 C1700 1.392 . S
C1701 H1713 0.929 . S
C1702 C1698 1.531 . S
C1702 H1714 0.960 . S
C1702 H1715 0.962 . S
C1702 H1716 0.960 . S
C1703 C1700 1.511 . S
C1703 H1717 0.961 . S
C1703 H1718 0.961 . S
C1703 H1719 0.961 . S
C1704 C1705 1.370 . S
C1704 C1706 1.363 . S
C1704 H1720 0.931 . S
C1705 C1704 1.370 . S
C1705 C1709 1.408 . S
C1706 C1704 1.363 . S
C1706 C1707 1.370 . S
C1706 C1710 1.524 . S
C1707 C1699 1.503 . S
C1707 C1706 1.370 . S
C1707 C1708 1.403 . S
C1708 C1707 1.403 . S
C1708 C1709 1.404 . S
C1708 C1711 1.539 . S
C1709 C1705 1.408 . S
C1709 C1708 1.404 . S
C1709 H1721 0.930 . S
C1710 C1706 1.524 . S
C1710 H1722 0.956 . S
C1710 H1723 0.961 . S
C1710 H1724 0.961 . S
C1711 C1708 1.539 . S
C1711 H1725 0.958 . S
C1711 H1726 0.961 . S
C1711 H1727 0.960 . S
H1712 C1696 0.931 . S
H1713 C1701 0.929 . S
H1714 C1702 0.960 . S
H1715 C1702 0.962 . S
H1716 C1702 0.960 . S
H1717 C1703 0.961 . S
H1718 C1703 0.961 . S
H1719 C1703 0.961 . S
H1720 C1704 0.931 . S
H1721 C1709 0.930 . S
H1722 C1710 0.956 . S
H1723 C1710 0.961 . S
H1724 C1710 0.961 . S
H1725 C1711 0.958 . S
H1726 C1711 0.961 . S
H1727 C1711 0.960 . S
C1728 C1729 1.391 . S
C1728 C1730 1.394 . S
C1728 H1744 0.931 . S
C1729 C1728 1.391 . S
C1729 C1733 1.376 . S
C1730 C1728 1.394 . S
C1730 C1731 1.369 . S
C1730 C1734 1.531 . S
C1731 C1730 1.369 . S
C1731 C1732 1.410 . S
C1731 C1739 1.503 . S
C1732 C1731 1.410 . S
C1732 C1733 1.392 . S
C1732 C1735 1.511 . S
C1733 C1729 1.376 . S
C1733 C1732 1.392 . S
C1733 H1745 0.929 . S
C1734 C1730 1.531 . S
C1734 H1746 0.960 . S
C1734 H1747 0.962 . S
C1734 H1748 0.960 . S
C1735 C1732 1.511 . S
C1735 H1749 0.961 . S
C1735 H1750 0.961 . S
C1735 H1751 0.961 . S
C1736 C1737 1.370 . S
C1736 C1738 1.363 . S
C1736 H1752 0.931 . S
C1737 C1736 1.370 . S
C1737 C1741 1.408 . S
C1738 C1736 1.363 . S
C1738 C1739 1.370 . S
C1738 C1742 1.524 . S
C1739 C1731 1.503 . S
C1739 C1738 1.370 . S
C1739 C1740 1.403 . S
C1740 C1739 1.403 . S
C1740 C1741 1.404 . S
C1740 C1743 1.539 . S
C1741 C1737 1.408 . S
C1741 C1740 1.404 . S
C1741 H1753 0.930 . S
C1742 C1738 1.524 . S
C1742 H1754 0.956 . S
C1742 H1755 0.961 . S
C1742 H1756 0.961 . S
C1743 C1740 1.539 . S
C1743 H1757 0.958 . S
C1743 H1758 0.961 . S
C1743 H1759 0.960 . S
H1744 C1728 0.931 . S
H1745 C1733 0.929 . S
H1746 C1734 0.960 . S
H1747 C1734 0.962 . S
H1748 C1734 0.960 . S
H1749 C1735 0.961 . S
H1750 C1735 0.961 . S
H1751 C1735 0.961 . S
H1752 C1736 0.931 . S
H1753 C1741 0.930 . S
H1754 C1742 0.956 . S
H1755 C1742 0.961 . S
H1756 C1742 0.961 . S
H1757 C1743 0.958 . S
H1758 C1743 0.961 . S
H1759 C1743 0.960 . S
C1760 C1761 1.391 . S
C1760 C1762 1.394 . S
C1760 H1776 0.931 . S
C1761 C1760 1.391 . S
C1761 C1765 1.376 . S
C1762 C1760 1.394 . S
C1762 C1763 1.369 . S
C1762 C1766 1.531 . S
C1763 C1762 1.369 . S
C1763 C1764 1.410 . S
C1763 C1771 1.503 . S
C1764 C1763 1.410 . S
C1764 C1765 1.392 . S
C1764 C1767 1.511 . S
C1765 C1761 1.376 . S
C1765 C1764 1.392 . S
C1765 H1777 0.929 . S
C1766 C1762 1.531 . S
C1766 H1778 0.960 . S
C1766 H1779 0.962 . S
C1766 H1780 0.960 . S
C1767 C1764 1.511 . S
C1767 H1781 0.961 . S
C1767 H1782 0.961 . S
C1767 H1783 0.961 . S
C1768 C1769 1.370 . S
C1768 C1770 1.363 . S
C1768 H1784 0.931 . S
C1769 C1768 1.370 . S
C1769 C1773 1.408 . S
C1770 C1768 1.363 . S
C1770 C1771 1.370 . S
C1770 C1774 1.524 . S
C1771 C1763 1.503 . S
C1771 C1770 1.370 . S
C1771 C1772 1.403 . S
C1772 C1771 1.403 . S
C1772 C1773 1.404 . S
C1772 C1775 1.539 . S
C1773 C1769 1.408 . S
C1773 C1772 1.404 . S
C1773 H1785 0.930 . S
C1774 C1770 1.524 . S
C1774 H1786 0.956 . S
C1774 H1787 0.961 . S
C1774 H1788 0.961 . S
C1775 C1772 1.539 . S
C1775 H1789 0.958 . S
C1775 H1790 0.961 . S
C1775 H1791 0.960 . S
H1776 C1760 0.931 . S
H1777 C1765 0.929 . S
H1778 C1766 0.960 . S
H1779 C1766 0.962 . S
H1780 C1766 0.960 . S
H1781 C1767 0.961 . S
H1782 C1767 0.961 . S
H1783 C1767 0.961 . S
H1784 C1768 0.931 . S
H1785 C1773 0.930 . S
H1786 C1774 0.956 . S
H1787 C1774 0.961 . S
H1788 C1774 0.961 . S
H1789 C1775 0.958 . S
H1790 C1775 0.961 . S
H1791 C1775 0.960 . S
C1792 C1793 1.391 . S
C1792 C1794 1.394 . S
C1792 H1808 0.931 . S
C1793 C1792 1.391 . S
C1793 C1797 1.376 . S
C1794 C1792 1.394 . S
C1794 C1795 1.369 . S
C1794 C1798 1.531 . S
C1795 C1794 1.369 . S
C1795 C1796 1.410 . S
C1795 C1803 1.503 . S
C1796 C1795 1.410 . S
C1796 C1797 1.392 . S
C1796 C1799 1.511 . S
C1797 C1793 1.376 . S
C1797 C1796 1.392 . S
C1797 H1809 0.929 . S
C1798 C1794 1.531 . S
C1798 H1810 0.960 . S
C1798 H1811 0.962 . S
C1798 H1812 0.960 . S
C1799 C1796 1.511 . S
C1799 H1813 0.961 . S
C1799 H1814 0.961 . S
C1799 H1815 0.961 . S
C1800 C1801 1.370 . S
C1800 C1802 1.363 . S
C1800 H1816 0.931 . S
C1801 C1800 1.370 . S
C1801 C1805 1.408 . S
C1802 C1800 1.363 . S
C1802 C1803 1.370 . S
C1802 C1806 1.524 . S
C1803 C1795 1.503 . S
C1803 C1802 1.370 . S
C1803 C1804 1.403 . S
C1804 C1803 1.403 . S
C1804 C1805 1.404 . S
C1804 C1807 1.539 . S
C1805 C1801 1.408 . S
C1805 C1804 1.404 . S
C1805 H1817 0.930 . S
C1806 C1802 1.524 . S
C1806 H1818 0.956 . S
C1806 H1819 0.961 . S
C1806 H1820 0.961 . S
C1807 C1804 1.539 . S
C1807 H1821 0.958 . S
C1807 H1822 0.961 . S
C1807 H1823 0.960 . S
H1808 C1792 0.931 . S
H1809 C1797 0.929 . S
H1810 C1798 0.960 . S
H1811 C1798 0.962 . S
H1812 C1798 0.960 . S
H1813 C1799 0.961 . S
H1814 C1799 0.961 . S
H1815 C1799 0.961 . S
H1816 C1800 0.931 . S
H1817 C1805 0.930 . S
H1818 C1806 0.956 . S
H1819 C1806 0.961 . S
H1820 C1806 0.961 . S
H1821 C1807 0.958 . S
H1822 C1807 0.961 . S
H1823 C1807 0.960 . S
C545 C2 1.514 . S
C553 C478 1.505 . S
C577 C36 1.522 . S
C585 C512 1.503 . S
C609 C70 1.516 . S
C617 C410 1.504 . S
C641 C104 1.518 . S
C649 C444 1.505 . S
C673 C138 1.504 . S
C681 C342 1.508 . S
C705 C172 1.494 . S
C713 C376 1.514 . S
C737 C274 1.489 . S
C745 C206 1.516 . S
C769 C308 1.518 . S
C777 C240 1.504 . S
C801 C33 0.936 . S
C809 C39 0.928 . S
C833 C67 0.891 . S
C841 C73 0.929 . S
C865 C101 0.899 . S
C873 C107 0.916 . S
C897 C5 0.903 1_556 S
C905 C135 0.930 . S
C929 C515 0.936 . S
C937 C169 0.911 . S
C961 C413 0.927 . S
C969 C203 0.908 . S
C993 C447 0.912 . S
C1001 C237 0.909 . S
C1025 C481 0.902 . S
C1033 C271 0.928 . S
C1057 C305 0.943 . S
C1065 C311 0.918 . S
C1089 C339 0.928 . S
C1097 C345 0.928 . S
C1121 C379 0.938 . S
C1129 C373 0.924 . S
C1153 C407 0.905 . S
C1161 C277 0.930 . S
C1185 C441 0.945 . S
C1193 C243 0.923 . S
C1217 C141 0.940 . S
C1225 C475 0.912 . S
C1249 C175 0.901 . S
C1257 C509 0.916 . S
C1281 C543 0.901 . S
C1289 C209 0.918 . S
C1313 C9 1.515 . S
C1321 C77 1.490 . S
C1345 C43 1.533 . S
C1353 C111 1.482 . S
C1377 C213 1.462 . S
C1385 C145 1.492 . S
C1409 C247 1.460 . S
C1417 C179 1.511 . S
C1441 C281 1.441 . S
C1449 C349 1.507 . S
C1473 C315 1.525 . S
C1481 C383 1.472 . S
C1505 C417 1.460 . S
C1513 C485 1.493 . S
C1537 C451 1.457 . S
C1545 C519 1.488 . S
C1569 C156 1.972 . S
C1577 C20 2.002 . S
C1601 C190 1.994 . S
C1609 C54 1.992 . S
C1633 C88 2.005 . S
C1641 C224 1.989 . S
C1665 C258 2.005 . S
C1673 C122 1.998 . S
C1697 C292 2.013 . S
C1705 C428 1.994 . S
C1729 C462 1.989 . S
C1737 C326 1.994 . S
C1761 C496 2.011 . S
C1769 C360 1.990 . S
C1793 C394 2.012 . S
C1801 C530 1.993 . S
