# Generated by pormake.
# Topology wiv, (6)-cn, num edge types: 1
# Building blocks:
#     Node 0, Type 0, BuildingBlock: PAMTUU_clean_sbu_0, # of connection points: 6
#     Node 1, Type 0, BuildingBlock: PAMTUU_clean_sbu_0, # of connection points: 6
#     Node 2, Type 0, BuildingBlock: PAMTUU_clean_sbu_0, # of connection points: 6
#     Node 3, Type 0, BuildingBlock: PAMTUU_clean_sbu_0, # of connection points: 6
#     Node 4, Type 0, BuildingBlock: PAMTUU_clean_sbu_0, # of connection points: 6
#     Node 5, Type 0, BuildingBlock: PAMTUU_clean_sbu_0, # of connection points: 6
#     Node 6, Type 0, BuildingBlock: PAMTUU_clean_sbu_0, # of connection points: 6
#     Node 7, Type 0, BuildingBlock: PAMTUU_clean_sbu_0, # of connection points: 6
#     Node 8, Type 0, BuildingBlock: PAMTUU_clean_sbu_0, # of connection points: 6
#     Node 9, Type 0, BuildingBlock: PAMTUU_clean_sbu_0, # of connection points: 6
#     Node 10, Type 0, BuildingBlock: PAMTUU_clean_sbu_0, # of connection points: 6
#     Node 11, Type 0, BuildingBlock: PAMTUU_clean_sbu_0, # of connection points: 6
#     Node 12, Type 0, BuildingBlock: PAMTUU_clean_sbu_0, # of connection points: 6
#     Node 13, Type 0, BuildingBlock: PAMTUU_clean_sbu_0, # of connection points: 6
#     Node 14, Type 0, BuildingBlock: PAMTUU_clean_sbu_0, # of connection points: 6
#     Node 15, Type 0, BuildingBlock: PAMTUU_clean_sbu_0, # of connection points: 6
#     Edge 16, Type (0, 0), BuildingBlock: AJUNOK_clean_linker_0, # of connection points: 2
#     Edge 17, Type (0, 0), BuildingBlock: AJUNOK_clean_linker_0, # of connection points: 2
#     Edge 18, Type (0, 0), BuildingBlock: AJUNOK_clean_linker_0, # of connection points: 2
#     Edge 19, Type (0, 0), BuildingBlock: AJUNOK_clean_linker_0, # of connection points: 2
#     Edge 20, Type (0, 0), BuildingBlock: AJUNOK_clean_linker_0, # of connection points: 2
#     Edge 21, Type (0, 0), BuildingBlock: AJUNOK_clean_linker_0, # of connection points: 2
#     Edge 22, Type (0, 0), BuildingBlock: AJUNOK_clean_linker_0, # of connection points: 2
#     Edge 23, Type (0, 0), BuildingBlock: AJUNOK_clean_linker_0, # of connection points: 2
#     Edge 24, Type (0, 0), BuildingBlock: AJUNOK_clean_linker_0, # of connection points: 2
#     Edge 25, Type (0, 0), BuildingBlock: AJUNOK_clean_linker_0, # of connection points: 2
#     Edge 26, Type (0, 0), BuildingBlock: AJUNOK_clean_linker_0, # of connection points: 2
#     Edge 27, Type (0, 0), BuildingBlock: AJUNOK_clean_linker_0, # of connection points: 2
#     Edge 28, Type (0, 0), BuildingBlock: AJUNOK_clean_linker_0, # of connection points: 2
#     Edge 29, Type (0, 0), BuildingBlock: AJUNOK_clean_linker_0, # of connection points: 2
#     Edge 30, Type (0, 0), BuildingBlock: AJUNOK_clean_linker_0, # of connection points: 2
#     Edge 31, Type (0, 0), BuildingBlock: AJUNOK_clean_linker_0, # of connection points: 2
#     Edge 32, Type (0, 0), BuildingBlock: AJUNOK_clean_linker_0, # of connection points: 2
#     Edge 33, Type (0, 0), BuildingBlock: AJUNOK_clean_linker_0, # of connection points: 2
#     Edge 34, Type (0, 0), BuildingBlock: AJUNOK_clean_linker_0, # of connection points: 2
#     Edge 35, Type (0, 0), BuildingBlock: AJUNOK_clean_linker_0, # of connection points: 2
#     Edge 36, Type (0, 0), BuildingBlock: AJUNOK_clean_linker_0, # of connection points: 2
#     Edge 37, Type (0, 0), BuildingBlock: AJUNOK_clean_linker_0, # of connection points: 2
#     Edge 38, Type (0, 0), BuildingBlock: AJUNOK_clean_linker_0, # of connection points: 2
#     Edge 39, Type (0, 0), BuildingBlock: AJUNOK_clean_linker_0, # of connection points: 2
#     Edge 40, Type (0, 0), BuildingBlock: AJUNOK_clean_linker_0, # of connection points: 2
#     Edge 41, Type (0, 0), BuildingBlock: AJUNOK_clean_linker_0, # of connection points: 2
#     Edge 42, Type (0, 0), BuildingBlock: AJUNOK_clean_linker_0, # of connection points: 2
#     Edge 43, Type (0, 0), BuildingBlock: AJUNOK_clean_linker_0, # of connection points: 2
#     Edge 44, Type (0, 0), BuildingBlock: AJUNOK_clean_linker_0, # of connection points: 2
#     Edge 45, Type (0, 0), BuildingBlock: AJUNOK_clean_linker_0, # of connection points: 2
#     Edge 46, Type (0, 0), BuildingBlock: AJUNOK_clean_linker_0, # of connection points: 2
#     Edge 47, Type (0, 0), BuildingBlock: AJUNOK_clean_linker_0, # of connection points: 2
#     Edge 48, Type (0, 0), BuildingBlock: AJUNOK_clean_linker_0, # of connection points: 2
#     Edge 49, Type (0, 0), BuildingBlock: AJUNOK_clean_linker_0, # of connection points: 2
#     Edge 50, Type (0, 0), BuildingBlock: AJUNOK_clean_linker_0, # of connection points: 2
#     Edge 51, Type (0, 0), BuildingBlock: AJUNOK_clean_linker_0, # of connection points: 2
#     Edge 52, Type (0, 0), BuildingBlock: AJUNOK_clean_linker_0, # of connection points: 2
#     Edge 53, Type (0, 0), BuildingBlock: AJUNOK_clean_linker_0, # of connection points: 2
#     Edge 54, Type (0, 0), BuildingBlock: AJUNOK_clean_linker_0, # of connection points: 2
#     Edge 55, Type (0, 0), BuildingBlock: AJUNOK_clean_linker_0, # of connection points: 2
#     Edge 56, Type (0, 0), BuildingBlock: AJUNOK_clean_linker_0, # of connection points: 2
#     Edge 57, Type (0, 0), BuildingBlock: AJUNOK_clean_linker_0, # of connection points: 2
#     Edge 58, Type (0, 0), BuildingBlock: AJUNOK_clean_linker_0, # of connection points: 2
#     Edge 59, Type (0, 0), BuildingBlock: AJUNOK_clean_linker_0, # of connection points: 2
#     Edge 60, Type (0, 0), BuildingBlock: AJUNOK_clean_linker_0, # of connection points: 2
#     Edge 61, Type (0, 0), BuildingBlock: AJUNOK_clean_linker_0, # of connection points: 2
#     Edge 62, Type (0, 0), BuildingBlock: AJUNOK_clean_linker_0, # of connection points: 2
#     Edge 63, Type (0, 0), BuildingBlock: AJUNOK_clean_linker_0, # of connection points: 2
# Relax obj value: 0.198
# Max RMSD: 0.230
# Mean RMSD: 0.230
data_MOF--net-wiv--node1-PAMTUU_clean_sbu_0--edge1-AJUNOK_clean_linker_0
_symmetry_space_group_name_H-M    P1
_symmetry_Int_Tables_number       1
_symmetry_cell_setting            triclinic
loop_
_symmetry_equiv_pos_as_xyz
'x, y, z'
_cell_length_a     35.223059
_cell_length_b     35.170316
_cell_length_c     19.96489
_cell_angle_alpha  89.895709
_cell_angle_beta   89.839431
_cell_angle_gamma 89.979702
loop_
_atom_site_label
_atom_site_type_symbol
_atom_site_fract_x
_atom_site_fract_y
_atom_site_fract_z
_atom_type_partial_charge
Tb0 Tb 0.39004 0.09746 0.08055 0.0
Tb1 Tb 0.32472 0.08985 0.19778 0.0
C2 C 0.37466 0.02392 0.16038 0.0
C3 C 0.42115 0.09863 0.90453 0.0
C4 C 0.39227 0.09664 0.77166 0.0
C5 C 0.40205 0.06288 0.80552 0.0
C6 C 0.4162 0.06385 0.87094 0.0
C7 C 0.41399 0.13251 0.8692 0.0
C8 C 0.39998 0.13152 0.80353 0.0
C9 C 0.43136 0.09923 0.97696 0.0
O10 O 0.33861 0.07531 1.03537 0.0
O11 O 0.29276 0.09989 0.10392 0.0
O12 O 0.34347 0.14825 0.20112 0.0
O13 O 0.36307 0.15343 0.09209 0.0
O14 O 0.30165 0.05139 0.26753 0.0
O15 O 0.28198 0.10937 0.26337 0.0
O16 O 0.37918 0.09162 0.25017 0.0
O17 O 0.42153 0.11349 0.17006 0.0
O18 O 0.4018 0.04686 0.14078 0.0
O19 O 0.33967 0.03557 0.15426 0.0
C20 C 0.30384 0.08757 1.04427 0.0
O21 O 0.42202 0.1295 1.01102 0.0
O22 O 0.42386 0.06835 1.01069 0.0
C23 C 0.35295 0.16916 0.1494 0.0
C24 C 0.29427 0.08232 0.37156 0.0
C25 C 0.32182 0.08791 0.50512 0.0
C26 C 0.31645 0.12068 0.46557 0.0
C27 C 0.3027 0.11795 0.39985 0.0
C28 C 0.29934 0.04961 0.41123 0.0
C29 C 0.31274 0.05236 0.47709 0.0
C30 C 0.28394 0.07839 0.29951 0.0
C31 C 0.41272 0.10513 0.2328 0.0
H32 H 0.39716 0.0354 0.78278 0.0
H33 H 0.422 0.03714 0.89598 0.0
H34 H 0.41838 0.15986 0.8928 0.0
H35 H 0.39496 0.15823 0.77804 0.0
H36 H 0.32405 0.14845 0.48454 0.0
H37 H 0.29974 0.14376 0.37065 0.0
H38 H 0.29331 0.02171 0.39094 0.0
H39 H 0.31621 0.02652 0.506 0.0
Tb40 Tb 0.09079 0.68247 0.90665 0.0
Tb41 Tb 0.09557 0.61689 1.02543 0.0
C42 C 0.16814 0.6506 0.95652 0.0
C43 C 0.08725 0.71208 0.7326 0.0
C44 C 0.09407 0.68435 0.59948 0.0
C45 C 0.12262 0.70735 0.62756 0.0
C46 C 0.11932 0.72088 0.69345 0.0
C47 C 0.05827 0.68995 0.70375 0.0
C48 C 0.06169 0.67626 0.63829 0.0
C49 C 0.08506 0.72379 0.8042 0.0
O50 O 0.08822 0.62745 0.85555 0.0
O51 O 0.11205 0.58582 0.93526 0.0
O52 O 0.04393 0.60708 0.96694 0.0
O53 O 0.03531 0.66951 0.9474 0.0
O54 O 0.12597 0.58018 0.0893 0.0
O55 O 0.06551 0.58752 0.10051 0.0
O56 O 0.07927 0.66963 0.07383 0.0
O57 O 0.10027 0.7152 0.99955 0.0
O58 O 0.14775 0.66027 0.90469 0.0
O59 O 0.15203 0.64226 1.01437 0.0
C60 C 0.10286 0.59435 0.8729 0.0
O61 O 0.05602 0.71128 0.83814 0.0
O62 O 0.11624 0.72119 0.83904 0.0
C63 C 0.02249 0.63468 0.94391 0.0
C64 C 0.10114 0.58674 0.20004 0.0
C65 C 0.10255 0.61661 0.33188 0.0
C66 C 0.07393 0.5911 0.31222 0.0
C67 C 0.07334 0.5762 0.24713 0.0
C68 C 0.13028 0.6116 0.22015 0.0
C69 C 0.13102 0.62626 0.28538 0.0
C70 C 0.09666 0.57561 0.12874 0.0
C71 C 0.09033 0.70443 0.06077 0.0
H72 H 0.14746 0.71509 0.59854 0.0
H73 H 0.14196 0.73812 0.71393 0.0
H74 H 0.03312 0.68241 0.7321 0.0
H75 H 0.03923 0.6585 0.61859 0.0
H76 H 0.05168 0.58305 0.34703 0.0
H77 H 0.05038 0.55741 0.23287 0.0
H78 H 0.1518 0.62085 0.18485 0.0
H79 H 0.15309 0.6463 0.29867 0.0
Tb80 Tb 0.61889 0.90927 0.08428 0.0
Tb81 Tb 0.68373 0.90853 0.2007 0.0
C82 C 0.63991 0.98069 0.16812 0.0
C83 C 0.59041 0.90779 0.9081 0.0
C84 C 0.6195 0.90531 0.77551 0.0
C85 C 0.60111 0.93806 0.79958 0.0
C86 C 0.58652 0.93918 0.86494 0.0
C87 C 0.6084 0.87481 0.88365 0.0
C88 C 0.62265 0.87358 0.81806 0.0
C89 C 0.57896 0.91122 0.97965 0.0
O90 O 0.67208 0.92798 1.04086 0.0
O91 O 0.71428 0.89601 0.106 0.0
O92 O 0.65714 0.85361 0.20317 0.0
O93 O 0.6417 0.851 0.09269 0.0
O94 O 0.71627 0.94076 0.26761 0.0
O95 O 0.72053 0.87977 0.26715 0.0
O96 O 0.62937 0.91353 0.2541 0.0
O97 O 0.58587 0.89529 0.17351 0.0
O98 O 0.61125 0.96093 0.14448 0.0
O99 O 0.67391 0.96587 0.16497 0.0
C100 C 0.70479 0.91086 1.04741 0.0
O101 O 0.58237 0.88105 1.01738 0.0
O102 O 0.59125 0.94151 1.01018 0.0
C103 C 0.6484 0.83383 0.15029 0.0
C104 C 0.71419 0.90996 0.37334 0.0
C105 C 0.68584 0.9068 0.50645 0.0
C106 C 0.70409 0.87513 0.47776 0.0
C107 C 0.71819 0.87673 0.41198 0.0
C108 C 0.69652 0.94181 0.40276 0.0
C109 C 0.68279 0.9403 0.4685 0.0
C110 C 0.72608 0.91073 0.30165 0.0
C111 C 0.595 0.9025 0.23639 0.0
H112 H 0.59817 0.96291 0.76785 0.0
H113 H 0.57302 0.96504 0.8824 0.0
H114 H 0.61237 0.85022 0.91561 0.0
H115 H 0.63714 0.84815 0.80124 0.0
H116 H 0.70756 0.84915 0.50628 0.0
H117 H 0.73184 0.85181 0.39105 0.0
H118 H 0.69274 0.96794 0.37482 0.0
H119 H 0.66885 0.96514 0.48911 0.0
Tb120 Tb 0.91597 0.32336 0.90282 0.0
Tb121 Tb 0.91329 0.38858 1.02207 0.0
C122 C 0.83995 0.35718 0.95258 0.0
C123 C 0.91838 0.29453 0.73035 0.0
C124 C 0.91712 0.32761 0.60068 0.0
C125 C 0.88342 0.32324 0.63774 0.0
C126 C 0.88401 0.30693 0.70175 0.0
C127 C 0.95197 0.29815 0.69252 0.0
C128 C 0.95131 0.31429 0.62829 0.0
C129 C 0.91991 0.28156 0.80133 0.0
O130 O 0.9193 0.37814 0.85083 0.0
O131 O 0.89821 0.42057 0.93187 0.0
O132 O 0.96471 0.39829 0.96302 0.0
O133 O 0.97221 0.3358 0.9404 0.0
O134 O 0.88333 0.42425 0.08845 0.0
O135 O 0.94394 0.41803 0.09577 0.0
O136 O 0.9307 0.33488 0.0667 0.0
O137 O 0.90339 0.29174 0.99564 0.0
O138 O 0.86028 0.34814 0.90027 0.0
O139 O 0.85613 0.36454 1.01065 0.0
C140 C 0.90653 0.41182 0.86912 0.0
O141 O 0.94959 0.29223 0.83504 0.0
O142 O 0.88901 0.28522 0.83695 0.0
C143 C 0.98542 0.37059 0.93858 0.0
C144 C 0.90993 0.41866 0.19669 0.0
C145 C 0.91102 0.39288 0.33115 0.0
C146 C 0.92162 0.43047 0.31508 0.0
C147 C 0.92113 0.44322 0.24832 0.0
C148 C 0.89868 0.38151 0.21288 0.0
C149 C 0.89924 0.36873 0.27918 0.0
C150 C 0.91323 0.42997 0.12557 0.0
C151 C 0.91588 0.30134 0.05554 0.0
H152 H 0.85654 0.33252 0.6172 0.0
H153 H 0.85755 0.30468 0.7292 0.0
H154 H 0.97891 0.289 0.71306 0.0
H155 H 0.97769 0.3171 0.6007 0.0
H156 H 0.93145 0.44962 0.35375 0.0
H157 H 0.93038 0.47189 0.23686 0.0
H158 H 0.89024 0.36211 0.17376 0.0
H159 H 0.89078 0.33973 0.28981 0.0
Tb160 Tb 0.3903 0.40223 0.26971 0.0
Tb161 Tb 0.32677 0.41545 0.15283 0.0
C162 C 0.3802 0.47848 0.19461 0.0
C163 C 0.41609 0.39921 0.44584 0.0
C164 C 0.38529 0.40481 0.57675 0.0
C165 C 0.38399 0.43593 0.53261 0.0
C166 C 0.39922 0.43322 0.46811 0.0
C167 C 0.41751 0.36805 0.49004 0.0
C168 C 0.40215 0.37078 0.55482 0.0
C169 C 0.42881 0.39512 0.37517 0.0
O170 O 0.34043 0.4281 0.3143 0.0
O171 O 0.29453 0.40457 0.24604 0.0
O172 O 0.34322 0.35661 0.14306 0.0
O173 O 0.36197 0.34755 0.25147 0.0
O174 O 0.30675 0.45552 0.08332 0.0
O175 O 0.28177 0.39957 0.08925 0.0
O176 O 0.38136 0.41058 0.1011 0.0
O177 O 0.4221 0.38586 0.18091 0.0
O178 O 0.40562 0.45331 0.21284 0.0
O179 O 0.34436 0.46898 0.19685 0.0
C180 C 0.30563 0.41617 0.30583 0.0
O181 O 0.4147 0.36635 0.34262 0.0
O182 O 0.42859 0.42588 0.33859 0.0
C183 C 0.35246 0.33393 0.19235 0.0
C184 C 0.29501 0.42538 0.98061 0.0
C185 C 0.32083 0.41942 0.8462 0.0
C186 C 0.31962 0.38724 0.8882 0.0
C187 C 0.307 0.39018 0.95465 0.0
C188 C 0.29547 0.45735 0.93836 0.0
C189 C 0.30791 0.45438 0.87188 0.0
C190 C 0.2861 0.43021 1.05282 0.0
C191 C 0.41408 0.39519 0.11841 0.0
H192 H 0.37057 0.46231 0.54764 0.0
H193 H 0.39694 0.45765 0.43528 0.0
H194 H 0.42989 0.34137 0.47405 0.0
H195 H 0.40363 0.34638 0.58791 0.0
H196 H 0.32964 0.35995 0.87036 0.0
H197 H 0.30767 0.36507 0.98611 0.0
H198 H 0.28655 0.48485 0.9571 0.0
H199 H 0.3074 0.47955 0.8406 0.0
Tb200 Tb 0.40555 0.68733 0.96292 0.0
Tb201 Tb 0.40628 0.62259 0.84461 0.0
C202 C 0.33192 0.64894 0.91534 0.0
C203 C 0.4033 0.71833 0.1355 0.0
C204 C 0.3962 0.69158 0.26937 0.0
C205 C 0.36664 0.71234 0.23896 0.0
C206 C 0.37003 0.7252 0.17259 0.0
C207 C 0.43294 0.69795 0.16616 0.0
C208 C 0.42933 0.68462 0.23179 0.0
C209 C 0.40611 0.72981 0.0639 0.0
O210 O 0.41122 0.63309 1.01583 0.0
O211 O 0.39793 0.58787 0.93451 0.0
O212 O 0.45894 0.61603 0.90114 0.0
O213 O 0.46286 0.67853 0.92641 0.0
O214 O 0.37762 0.58463 0.78099 0.0
O215 O 0.43709 0.59731 0.76622 0.0
O216 O 0.42233 0.67609 0.79911 0.0
O217 O 0.39368 0.71882 0.8694 0.0
O218 O 0.35193 0.65828 0.96747 0.0
O219 O 0.34822 0.64438 0.85654 0.0
C220 C 0.40358 0.59786 0.99759 0.0
O221 O 0.43673 0.71923 1.03226 0.0
O222 O 0.37592 0.7245 1.02735 0.0
C223 C 0.47816 0.64461 0.92628 0.0
C224 C 0.39949 0.59488 0.66933 0.0
C225 C 0.39358 0.6256 0.53866 0.0
C226 C 0.42272 0.5998 0.55469 0.0
C227 C 0.42554 0.58449 0.6193 0.0
C228 C 0.36976 0.61994 0.65292 0.0
C229 C 0.36679 0.63506 0.58816 0.0
C230 C 0.4064 0.58329 0.7396 0.0
C231 C 0.40706 0.70939 0.80976 0.0
H232 H 0.34113 0.71933 0.26663 0.0
H233 H 0.34668 0.74076 0.15037 0.0
H234 H 0.45887 0.69153 0.13917 0.0
H235 H 0.45248 0.66822 0.25272 0.0
H236 H 0.44367 0.5919 0.51741 0.0
H237 H 0.44887 0.56551 0.63084 0.0
H238 H 0.34958 0.62897 0.69071 0.0
H239 H 0.3444 0.6553 0.57755 0.0
Tb240 Tb 0.61743 0.59874 0.27291 0.0
Tb241 Tb 0.68199 0.58866 0.15425 0.0
C242 C 0.63227 0.5239 0.19592 0.0
C243 C 0.58878 0.59879 0.44936 0.0
C244 C 0.6172 0.59403 0.58222 0.0
C245 C 0.61033 0.56095 0.54471 0.0
C246 C 0.59617 0.56327 0.47935 0.0
C247 C 0.595 0.63187 0.48735 0.0
C248 C 0.60918 0.62952 0.55282 0.0
C249 C 0.57726 0.60138 0.37761 0.0
O250 O 0.66939 0.5804 0.32092 0.0
O251 O 0.71517 0.59956 0.24604 0.0
O252 O 0.66461 0.6473 0.14654 0.0
O253 O 0.64154 0.65542 0.25337 0.0
O254 O 0.70244 0.54911 0.08438 0.0
O255 O 0.72641 0.60544 0.08955 0.0
O256 O 0.62667 0.59154 0.10367 0.0
O257 O 0.58625 0.61646 0.18456 0.0
O258 O 0.60523 0.54709 0.21514 0.0
O259 O 0.66715 0.53573 0.20246 0.0
C260 C 0.70422 0.59104 0.30779 0.0
O261 O 0.5882 0.63156 0.34474 0.0
O262 O 0.58177 0.57077 0.3417 0.0
C263 C 0.65241 0.66934 0.1948 0.0
C264 C 0.71286 0.57953 0.98156 0.0
C265 C 0.68445 0.58465 0.84933 0.0
C266 C 0.68437 0.61664 0.89133 0.0
C267 C 0.69798 0.61402 0.95708 0.0
C268 C 0.71407 0.5479 0.93865 0.0
C269 C 0.69981 0.55037 0.87334 0.0
C270 C 0.72255 0.57473 0.05335 0.0
C271 C 0.59439 0.60767 0.12197 0.0
H272 H 0.61682 0.53318 0.56525 0.0
H273 H 0.59185 0.53712 0.45185 0.0
H274 H 0.58955 0.65968 0.46603 0.0
H275 H 0.61393 0.65554 0.58051 0.0
H276 H 0.67254 0.64334 0.87404 0.0
H277 H 0.69607 0.63878 0.98908 0.0
H278 H 0.72502 0.52092 0.9564 0.0
H279 H 0.70041 0.52537 0.84172 0.0
Tb280 Tb 0.60026 0.32041 0.95266 0.0
Tb281 Tb 0.60363 0.38663 0.83602 0.0
C282 C 0.67629 0.35624 0.90897 0.0
C283 C 0.5961 0.28927 0.12475 0.0
C284 C 0.59814 0.31927 0.2571 0.0
C285 C 0.63109 0.30413 0.22691 0.0
C286 C 0.63017 0.28973 0.16136 0.0
C287 C 0.56304 0.30331 0.15571 0.0
C288 C 0.56426 0.31903 0.21986 0.0
C289 C 0.59537 0.27751 0.05301 0.0
O290 O 0.59714 0.37507 1.00603 0.0
O291 O 0.61595 0.41952 0.92613 0.0
O292 O 0.55178 0.39603 0.8942 0.0
O293 O 0.54413 0.33329 0.91554 0.0
O294 O 0.63455 0.41998 0.76708 0.0
O295 O 0.57358 0.41707 0.76239 0.0
O296 O 0.58218 0.3344 0.79339 0.0
O297 O 0.61189 0.28999 0.85758 0.0
O298 O 0.65527 0.34579 0.9594 0.0
O299 O 0.66107 0.36318 0.84989 0.0
C300 C 0.60818 0.40965 0.98863 0.0
O301 O 0.56605 0.28871 1.01853 0.0
O302 O 0.62672 0.28174 1.0188 0.0
C303 C 0.53092 0.36801 0.9174 0.0
C304 C 0.60607 0.41487 0.65888 0.0
C305 C 0.60377 0.38677 0.52576 0.0
C306 C 0.57522 0.41124 0.54972 0.0
C307 C 0.57647 0.42525 0.61543 0.0
C308 C 0.63503 0.39096 0.63441 0.0
C309 C 0.634 0.37731 0.56848 0.0
C310 C 0.60454 0.42637 0.73054 0.0
C311 C 0.59658 0.30036 0.79993 0.0
H312 H 0.65768 0.3033 0.25393 0.0
H313 H 0.65618 0.27901 0.13933 0.0
H314 H 0.53607 0.30278 0.13001 0.0
H315 H 0.53852 0.33167 0.23938 0.0
H316 H 0.55177 0.41931 0.51772 0.0
H317 H 0.55373 0.44351 0.6329 0.0
H318 H 0.65807 0.382 0.66661 0.0
H319 H 0.65626 0.35835 0.5515 0.0
Tb320 Tb 0.88995 0.59685 0.58173 0.0
Tb321 Tb 0.82416 0.59233 0.69814 0.0
C322 C 0.8721 0.52348 0.66252 0.0
C323 C 0.91925 0.60114 0.40533 0.0
C324 C 0.89268 0.60164 0.27117 0.0
C325 C 0.91958 0.57462 0.29242 0.0
C326 C 0.93284 0.57451 0.35865 0.0
C327 C 0.89249 0.62831 0.38399 0.0
C328 C 0.87953 0.62865 0.31765 0.0
C329 C 0.93034 0.59801 0.47695 0.0
O330 O 0.83779 0.57591 0.53813 0.0
O331 O 0.793 0.60387 0.60396 0.0
O332 O 0.84794 0.64846 0.70335 0.0
O333 O 0.86516 0.65398 0.5936 0.0
O334 O 0.79415 0.55735 0.76507 0.0
O335 O 0.78545 0.61787 0.7655 0.0
O336 O 0.87859 0.58896 0.751 0.0
O337 O 0.92161 0.61141 0.6721 0.0
O338 O 0.89993 0.54496 0.64016 0.0
O339 O 0.83741 0.53656 0.65869 0.0
C340 C 0.80377 0.59022 0.54514 0.0
O341 O 0.92465 0.6277 0.51485 0.0
O342 O 0.9197 0.56687 0.50697 0.0
C343 C 0.85784 0.66947 0.65238 0.0
C344 C 0.79531 0.58782 0.871 0.0
C345 C 0.82611 0.59378 1.00222 0.0
C346 C 0.80255 0.62257 0.97598 0.0
C347 C 0.78781 0.61985 0.91089 0.0
C348 C 0.81802 0.55859 0.89792 0.0
C349 C 0.83331 0.56163 0.96228 0.0
C350 C 0.78254 0.5864 0.7999 0.0
C351 C 0.91228 0.60245 0.73434 0.0
H352 H 0.93012 0.55335 0.25787 0.0
H353 H 0.95307 0.55297 0.37389 0.0
H354 H 0.88078 0.64872 0.41895 0.0
H355 H 0.85817 0.64926 0.30331 0.0
H356 H 0.79521 0.64719 1.00577 0.0
H357 H 0.77057 0.6429 0.89166 0.0
H358 H 0.82495 0.53361 0.86871 0.0
H359 H 0.85157 0.53903 0.98013 0.0
Tb360 Tb 0.59241 0.18484 0.40387 0.0
Tb361 Tb 0.59992 0.11889 0.52156 0.0
C362 C 0.67127 0.15356 0.44662 0.0
C363 C 0.58636 0.21354 0.2321 0.0
C364 C 0.58873 0.181 0.10204 0.0
C365 C 0.62164 0.1829 0.14155 0.0
C366 C 0.62047 0.19882 0.20576 0.0
C367 C 0.55354 0.21212 0.19218 0.0
C368 C 0.55476 0.19626 0.12774 0.0
C369 C 0.58399 0.22652 0.30296 0.0
O370 O 0.59378 0.12976 0.35155 0.0
O371 O 0.61694 0.08785 0.43189 0.0
O372 O 0.54891 0.10678 0.46225 0.0
O373 O 0.53755 0.16886 0.44321 0.0
O374 O 0.63211 0.08947 0.59413 0.0
O375 O 0.57145 0.083 0.58933 0.0
O376 O 0.58005 0.17084 0.56825 0.0
O377 O 0.60391 0.21626 0.49738 0.0
O378 O 0.64964 0.16454 0.39734 0.0
O379 O 0.65683 0.14323 0.50504 0.0
C380 C 0.60839 0.09661 0.36931 0.0
O381 O 0.55555 0.21319 0.33741 0.0
O382 O 0.61524 0.2258 0.33792 0.0
C383 C 0.52649 0.13349 0.43902 0.0
C384 C 0.59866 0.08905 0.69789 0.0
C385 C 0.59493 0.1152 0.83249 0.0
C386 C 0.56312 0.11762 0.79029 0.0
C387 C 0.56491 0.10474 0.724 0.0
C388 C 0.63027 0.08594 0.7404 0.0
C389 C 0.6285 0.09898 0.80678 0.0
C390 C 0.6017 0.07819 0.62586 0.0
C391 C 0.59332 0.20507 0.55788 0.0
H392 H 0.64839 0.17204 0.12277 0.0
H393 H 0.64631 0.1991 0.23501 0.0
H394 H 0.52677 0.22282 0.21123 0.0
H395 H 0.52893 0.19524 0.09848 0.0
H396 H 0.53674 0.12968 0.8085 0.0
H397 H 0.53991 0.10772 0.693 0.0
H398 H 0.6567 0.07418 0.72182 0.0
H399 H 0.65378 0.0973 0.83737 0.0
Tb400 Tb 0.12149 0.41116 0.58104 0.0
Tb401 Tb 0.18688 0.41441 0.69945 0.0
C402 C 0.13877 0.48345 0.66534 0.0
C403 C 0.08822 0.41438 0.40585 0.0
C404 C 0.11443 0.41735 0.2713 0.0
C405 C 0.10917 0.4509 0.30845 0.0
C406 C 0.09633 0.44944 0.37479 0.0
C407 C 0.09071 0.38107 0.36715 0.0
C408 C 0.10347 0.38258 0.30054 0.0
C409 C 0.07923 0.41257 0.47882 0.0
O410 O 0.17442 0.42892 0.53492 0.0
O411 O 0.21896 0.4038 0.60625 0.0
O412 O 0.16433 0.35738 0.70112 0.0
O413 O 0.14459 0.35341 0.59216 0.0
O414 O 0.21687 0.44932 0.76613 0.0
O415 O 0.22446 0.38871 0.7682 0.0
O416 O 0.13231 0.41689 0.75136 0.0
O417 O 0.09025 0.39508 0.67118 0.0
O418 O 0.11149 0.46222 0.64108 0.0
O419 O 0.17365 0.47077 0.66223 0.0
C420 C 0.20843 0.4152 0.54592 0.0
O421 O 0.08827 0.3814 0.51058 0.0
O422 O 0.08808 0.44251 0.51383 0.0
C423 C 0.15392 0.33716 0.64943 0.0
C424 C 0.21529 0.4201 0.87313 0.0
C425 C 0.18469 0.41981 1.00485 0.0
C426 C 0.1947 0.38558 0.97309 0.0
C427 C 0.21005 0.38572 0.90818 0.0
C428 C 0.20559 0.45435 0.90546 0.0
C429 C 0.19065 0.45421 0.97053 0.0
C430 C 0.22788 0.42034 0.80172 0.0
C431 C 0.09882 0.40361 0.73383 0.0
H432 H 0.11556 0.47838 0.2866 0.0
H433 H 0.09376 0.47585 0.40225 0.0
H434 H 0.0841 0.35365 0.38903 0.0
H435 H 0.10668 0.35621 0.27317 0.0
H436 H 0.19065 0.35867 0.99856 0.0
H437 H 0.21719 0.35881 0.88508 0.0
H438 H 0.20916 0.48139 0.88017 0.0
H439 H 0.18286 0.48101 0.99342 0.0
Tb440 Tb 0.40648 0.82641 0.41646 0.0
Tb441 Tb 0.4092 0.89586 0.52877 0.0
C442 C 0.33209 0.85802 0.4772 0.0
C443 C 0.40913 0.80089 0.24031 0.0
C444 C 0.41226 0.83062 0.10766 0.0
C445 C 0.37821 0.83113 0.14447 0.0
C446 C 0.37667 0.81664 0.20981 0.0
C447 C 0.44325 0.80021 0.20331 0.0
C448 C 0.44485 0.81515 0.13793 0.0
C449 C 0.40766 0.78707 0.31121 0.0
O450 O 0.3953 0.87991 0.36414 0.0
O451 O 0.40446 0.92969 0.43837 0.0
O452 O 0.46046 0.90215 0.46752 0.0
O453 O 0.46467 0.83949 0.44211 0.0
O454 O 0.38101 0.93049 0.59923 0.0
O455 O 0.44202 0.9273 0.59696 0.0
O456 O 0.41906 0.84223 0.58103 0.0
O457 O 0.40604 0.79267 0.50894 0.0
O458 O 0.35071 0.82726 0.46064 0.0
O459 O 0.34959 0.88904 0.49766 0.0
C460 C 0.39726 0.91643 0.37809 0.0
O461 O 0.43764 0.79282 0.34791 0.0
O462 O 0.37675 0.79453 0.34468 0.0
C463 C 0.47863 0.87389 0.43912 0.0
C464 C 0.41284 0.92715 0.70477 0.0
C465 C 0.4135 0.89888 0.83863 0.0
C466 C 0.44765 0.90622 0.80418 0.0
C467 C 0.44733 0.91994 0.73809 0.0
C468 C 0.3788 0.92243 0.74092 0.0
C469 C 0.37914 0.9086 0.80687 0.0
C470 C 0.41233 0.93731 0.63197 0.0
C471 C 0.41337 0.8059 0.56951 0.0
H472 H 0.35274 0.8433 0.12296 0.0
H473 H 0.34988 0.81797 0.23644 0.0
H474 H 0.46878 0.78833 0.22507 0.0
H475 H 0.47149 0.81424 0.11073 0.0
H476 H 0.4747 0.89973 0.82718 0.0
H477 H 0.47419 0.92378 0.71242 0.0
H478 H 0.35171 0.92856 0.71773 0.0
H479 H 0.35232 0.90513 0.83276 0.0
Tb480 Tb 0.88912 0.90824 0.77043 0.0
Tb481 Tb 0.82306 0.91243 0.65401 0.0
C482 C 0.87245 0.97997 0.6867 0.0
C483 C 0.91794 0.9122 0.94679 0.0
C484 C 0.89291 0.9129 0.08192 0.0
C485 C 0.87912 0.93971 1.03577 0.0
C486 C 0.89126 0.93925 0.96903 0.0
C487 C 0.93241 0.88586 0.99319 0.0
C488 C 0.91998 0.88614 0.06009 0.0
C489 C 0.92915 0.91025 0.87504 0.0
O490 O 0.83552 0.92482 0.8166 0.0
O491 O 0.79018 0.90128 0.74554 0.0
O492 O 0.83906 0.85342 0.65208 0.0
O493 O 0.87097 0.84918 0.75283 0.0
O494 O 0.80476 0.95204 0.58261 0.0
O495 O 0.77843 0.8967 0.5894 0.0
O496 O 0.87657 0.89872 0.60264 0.0
O497 O 0.92392 0.89629 0.68333 0.0
O498 O 0.90005 0.95762 0.70577 0.0
O499 O 0.83791 0.96755 0.69471 0.0
C500 C 0.8014 0.91115 0.80609 0.0
O501 O 0.92086 0.87883 0.84366 0.0
O502 O 0.92127 0.94004 0.83863 0.0
C503 C 0.85586 0.83344 0.69892 0.0
C504 C 0.79468 0.92126 0.48147 0.0
C505 C 0.82593 0.91641 0.35076 0.0
C506 C 0.83201 0.88729 0.39802 0.0
C507 C 0.81644 0.88959 0.46241 0.0
C508 C 0.78894 0.95063 0.43495 0.0
C509 C 0.80409 0.94812 0.37015 0.0
C510 C 0.78386 0.92695 0.55227 0.0
C511 C 0.91228 0.89383 0.62085 0.0
H512 H 0.85798 0.9604 1.05086 0.0
H513 H 0.87913 0.95972 0.93461 0.0
H514 H 0.95293 0.8647 0.97745 0.0
H515 H 0.93143 0.86538 0.09471 0.0
H516 H 0.8499 0.86324 0.38616 0.0
H517 H 0.8227 0.86722 0.49808 0.0
H518 H 0.7732 0.97586 0.44911 0.0
H519 H 0.79871 0.9711 0.33528 0.0
Tb520 Tb 0.91362 0.18607 0.45051 0.0
Tb521 Tb 0.907 0.12187 0.33319 0.0
C522 C 0.83507 0.15795 0.40189 0.0
C523 C 0.92297 0.21632 0.62287 0.0
C524 C 0.9189 0.18819 0.75609 0.0
C525 C 0.88585 0.19965 0.72204 0.0
C526 C 0.88784 0.21349 0.65622 0.0
C527 C 0.95602 0.2053 0.65731 0.0
C528 C 0.95399 0.19118 0.72274 0.0
C529 C 0.92536 0.22725 0.55094 0.0
O530 O 0.90729 0.13182 0.50408 0.0
O531 O 0.88853 0.0901 0.4208 0.0
O532 O 0.95546 0.10727 0.39632 0.0
O533 O 0.96877 0.16899 0.41209 0.0
O534 O 0.87535 0.08995 0.26381 0.0
O535 O 0.93649 0.08945 0.26171 0.0
O536 O 0.93093 0.17351 0.29081 0.0
O537 O 0.90255 0.21791 0.35699 0.0
O538 O 0.85541 0.16776 0.4537 0.0
O539 O 0.85116 0.14893 0.34428 0.0
C540 C 0.89383 0.09857 0.48449 0.0
O541 O 0.95235 0.21066 0.51714 0.0
O542 O 0.89379 0.22843 0.51677 0.0
C543 C 0.97902 0.13342 0.41727 0.0
C544 C 0.90567 0.09274 0.15681 0.0
C545 C 0.90939 0.1219 1.02459 0.0
C546 C 0.9413 0.10475 0.05399 0.0
C547 C 0.93941 0.09018 0.11921 0.0
C548 C 0.87332 0.10867 0.12634 0.0
C549 C 0.87515 0.12294 0.06083 0.0
C550 C 0.90556 0.08163 0.22875 0.0
C551 C 0.91651 0.2075 0.29832 0.0
H552 H 0.85839 0.19801 0.74641 0.0
H553 H 0.86178 0.22161 0.63133 0.0
H554 H 0.98354 0.2068 0.63308 0.0
H555 H 0.97992 0.18171 0.74654 0.0
H556 H 0.96787 0.10292 1.0267 0.0
H557 H 0.96474 0.07781 0.14093 0.0
H558 H 0.8468 0.11106 0.15359 0.0
H559 H 0.8501 0.13591 1.03924 0.0
Tb560 Tb 0.11734 0.10154 0.77181 0.0
Tb561 Tb 0.18262 0.09172 0.6538 0.0
C562 C 0.13336 0.02686 0.69518 0.0
C563 C 0.08848 0.10095 0.94796 0.0
C564 C 0.11798 0.09882 0.08011 0.0
C565 C 0.11565 0.0655 1.04161 0.0
C566 C 0.10116 0.06653 0.97642 0.0
C567 C 0.08944 0.13402 0.98744 0.0
C568 C 0.10408 0.13299 1.0527 0.0
C569 C 0.07694 0.10289 0.87625 0.0
O570 O 0.16941 0.0838 0.82039 0.0
O571 O 0.21588 0.10179 0.74559 0.0
O572 O 0.16669 0.15076 0.6476 0.0
O573 O 0.14002 0.1588 0.75213 0.0
O574 O 0.20134 0.0517 0.58318 0.0
O575 O 0.22733 0.10715 0.58907 0.0
O576 O 0.1281 0.09828 0.60199 0.0
O577 O 0.08431 0.11578 0.68378 0.0
O578 O 0.10622 0.05033 0.71257 0.0
O579 O 0.16814 0.03863 0.70192 0.0
C580 C 0.20452 0.09356 0.80723 0.0
O581 O 0.08671 0.13345 0.84324 0.0
O582 O 0.08282 0.07238 0.84068 0.0
C583 C 0.153 0.17266 0.69484 0.0
C584 C 0.213 0.08221 0.48055 0.0
C585 C 0.18532 0.0898 0.34779 0.0
C586 C 0.18962 0.1219 0.38912 0.0
C587 C 0.20335 0.11818 0.45467 0.0
C588 C 0.20919 0.05025 0.43898 0.0
C589 C 0.19567 0.05399 0.37343 0.0
C590 C 0.22236 0.07678 0.55244 0.0
C591 C 0.09421 0.11043 0.62076 0.0
H592 H 0.12601 0.03872 0.06129 0.0
H593 H 0.10078 0.04037 0.94789 0.0
H594 H 0.07958 0.16089 0.96736 0.0
H595 H 0.10463 0.15897 0.0817 0.0
H596 H 0.1811 0.1498 0.37172 0.0
H597 H 0.20518 0.14335 0.48567 0.0
H598 H 0.21605 0.02214 0.45772 0.0
H599 H 0.19303 0.02871 0.34289 0.0
Tb600 Tb 0.09028 0.82604 0.45013 0.0
Tb601 Tb 0.09974 0.89271 0.33379 0.0
C602 C 0.17141 0.85562 0.40849 0.0
C603 C 0.08127 0.79814 0.6231 0.0
C604 C 0.08897 0.82935 0.75334 0.0
C605 C 0.11788 0.83391 0.70531 0.0
C606 C 0.11404 0.81862 0.64089 0.0
C607 C 0.05266 0.79296 0.67141 0.0
C608 C 0.05659 0.80814 0.73601 0.0
C609 C 0.07433 0.78741 0.55235 0.0
O610 O 0.10011 0.87972 0.50329 0.0
O611 O 0.11073 0.92638 0.42264 0.0
O612 O 0.04902 0.90417 0.39418 0.0
O613 O 0.03766 0.84195 0.40221 0.0
O614 O 0.13111 0.92615 0.26572 0.0
O615 O 0.07016 0.92327 0.25967 0.0
O616 O 0.08105 0.84033 0.28646 0.0
O617 O 0.10008 0.79291 0.35779 0.0
O618 O 0.1498 0.83919 0.45353 0.0
O619 O 0.15781 0.87268 0.35451 0.0
C620 C 0.10902 0.91477 0.48542 0.0
O621 O 0.04997 0.80928 0.52196 0.0
O622 O 0.10397 0.78045 0.51455 0.0
C623 C 0.02578 0.87666 0.41071 0.0
C624 C 0.10363 0.92086 0.15756 0.0
C625 C 0.10181 0.89404 1.02335 0.0
C626 C 0.08394 0.92848 1.04126 0.0
C627 C 0.08501 0.94178 0.10754 0.0
C628 C 0.12151 0.88654 0.13995 0.0
C629 C 0.12078 0.87342 0.07373 0.0
C630 C 0.10134 0.93285 0.2287 0.0
C631 C 0.09036 0.80476 0.29721 0.0
H632 H 0.1434 0.84954 0.71753 0.0
H633 H 0.13631 0.82373 0.60444 0.0
H634 H 0.02686 0.77788 0.65869 0.0
H635 H 0.03387 0.8041 0.77199 0.0
H636 H 0.06807 0.94462 1.0046 0.0
H637 H 0.07041 0.96796 0.12007 0.0
H638 H 0.13549 0.86941 0.17771 0.0
H639 H 0.13483 0.84684 0.06212 0.0
C640 C 0.41644 0.97403 0.31219 0.0
C641 C 0.39162 0.94321 0.32176 0.0
C642 C 0.4124 0.99855 0.25696 0.0
C643 C 0.38268 0.99381 0.21055 0.0
H644 H 0.43937 0.97898 0.34718 0.0
H645 H 0.43188 0.02221 0.25214 0.0
S646 S 0.31082 0.91679 0.21257 0.0
N647 N 0.33739 0.90826 0.27894 0.0
N648 N 0.32874 0.95532 0.17715 0.0
C649 C 0.35801 0.96281 0.21933 0.0
C650 C 0.36273 0.9373 0.27443 0.0
C651 C 0.95562 0.64583 0.79585 0.0
C652 C 0.93975 0.60954 0.78877 0.0
C653 C 0.98014 0.6542 0.849 0.0
C654 C 0.99136 0.62614 0.89558 0.0
H655 H 0.94853 0.66819 0.76063 0.0
H656 H 0.991 0.68285 0.85231 0.0
S657 S 0.95617 0.52662 0.89985 0.0
N658 N 0.93459 0.54579 0.83464 0.0
N659 N 0.98304 0.56053 0.9318 0.0
C660 C 0.97515 0.58969 0.88934 0.0
C661 C 0.94889 0.58163 0.83655 0.0
C662 C 0.59595 0.02794 0.22368 0.0
C663 C 0.63307 0.01392 0.2134 0.0
C664 C 0.5881 0.05531 0.27334 0.0
C665 C 0.61685 0.06872 0.31594 0.0
H666 H 0.57258 0.01715 0.19416 0.0
H667 H 0.55917 0.06515 0.27984 0.0
S668 S 0.71914 0.04506 0.30646 0.0
N669 N 0.69953 0.01964 0.24634 0.0
N670 N 0.68388 0.06835 0.34233 0.0
C671 C 0.65403 0.05594 0.30533 0.0
C672 C 0.66238 0.02931 0.25334 0.0
C673 C 0.01393 0.36282 0.82537 0.0
C674 C 0.01551 0.37968 0.88909 0.0
C675 C 0.04048 0.37129 0.77549 0.0
C676 C 0.07007 0.3971 0.78711 0.0
H677 H 0.99136 0.34362 0.81278 0.0
H678 H 0.03787 0.35708 0.72762 0.0
S679 S 0.08553 0.45158 0.94419 0.0
N680 N 0.04775 0.4252 0.96023 0.0
N681 N 0.09849 0.4412 0.86674 0.0
C682 C 0.07175 0.41499 0.85038 0.0
C683 C 0.04419 0.40645 0.90115 0.0
C684 C 0.41134 0.50365 0.09098 0.0
C685 C 0.39107 0.51066 0.1506 0.0
C686 C 0.41537 0.53189 1.04147 0.0
C687 C 0.40063 0.56864 1.05114 0.0
H688 H 0.42277 0.47569 0.08119 0.0
H689 H 0.43003 0.52487 0.99533 0.0
S690 S 0.34903 0.60255 0.20193 0.0
N691 N 0.35765 0.55727 0.2178 0.0
N692 N 0.36777 0.6113 0.12758 0.0
C693 C 0.38238 0.57661 0.11243 0.0
C694 C 0.37694 0.54739 0.16144 0.0
C695 C 0.55412 0.59053 1.02325 0.0
C696 C 0.56687 0.61782 0.0693 0.0
C697 C 0.52667 0.59981 0.97481 0.0
C698 C 0.51186 0.637 0.96948 0.0
H699 H 0.5644 0.56153 1.02625 0.0
H700 H 0.5163 0.57739 0.94257 0.0
S701 S 0.54115 0.7199 0.07294 0.0
N702 N 0.56534 0.68378 0.10397 0.0
N703 N 0.51603 0.70218 1.0107 0.0
C704 C 0.52664 0.66504 1.01279 0.0
C705 C 0.55349 0.65518 0.06336 0.0
C706 C 0.65517 0.47324 0.11695 0.0
C707 C 0.62443 0.49215 0.14801 0.0
C708 C 0.64958 0.44718 0.06471 0.0
C709 C 0.613 0.43805 1.04246 0.0
H710 H 0.68409 0.47921 0.13184 0.0
H711 H 0.67413 0.43406 1.04155 0.0
S712 S 0.52249 0.47687 0.10811 0.0
N713 N 0.55554 0.49845 0.15274 0.0
N714 N 0.54536 0.44823 0.05635 0.0
C715 C 0.58186 0.45536 0.07415 0.0
C716 C 0.58747 0.4826 0.12658 0.0
C717 C 0.47657 0.36892 0.08077 0.0
C718 C 0.44336 0.38927 0.06557 0.0
C719 C 0.50446 0.36257 1.03211 0.0
C720 C 0.50057 0.37618 0.96635 0.0
H721 H 0.48124 0.35768 0.13063 0.0
H722 H 0.52984 0.34762 1.04651 0.0
S723 S 0.42091 0.43315 0.90097 0.0
N724 N 0.40897 0.42437 0.9794 0.0
N725 N 0.46245 0.41257 0.88882 0.0
C726 C 0.46833 0.39744 0.95049 0.0
C727 C 0.43942 0.40374 0.9998 0.0
C728 C 0.92653 0.45408 0.77398 0.0
C729 C 0.89777 0.43934 0.81549 0.0
C730 C 0.91797 0.48005 0.72235 0.0
C731 C 0.8802 0.49115 0.70907 0.0
H732 H 0.95588 0.44633 0.78272 0.0
H733 H 0.94122 0.49219 0.69387 0.0
S734 S 0.79435 0.45458 0.7974 0.0
N735 N 0.8303 0.4347 0.83707 0.0
N736 N 0.81354 0.4806 0.73731 0.0
C737 C 0.85111 0.47408 0.74765 0.0
C738 C 0.86006 0.44898 0.80162 0.0
C739 C 0.50159 0.13861 0.32246 0.0
C740 C 0.49763 0.1239 0.3877 0.0
C741 C 0.47436 0.13214 0.27286 0.0
C742 C 0.44189 0.11019 0.28604 0.0
H743 H 0.52639 0.15466 0.30869 0.0
H744 H 0.47883 0.14476 0.22393 0.0
S745 S 0.42125 0.05967 0.44574 0.0
N746 N 0.4611 0.0828 0.46086 0.0
N747 N 0.40937 0.07022 0.368 0.0
C748 C 0.43843 0.09357 0.35037 0.0
C749 C 0.4665 0.10027 0.40091 0.0
C750 C 0.14695 0.54974 0.8151 0.0
C751 C 0.11093 0.56659 0.81913 0.0
C752 C 0.15625 0.52486 0.76275 0.0
C753 C 0.12948 0.51455 0.71355 0.0
H754 H 0.16841 0.55638 0.85209 0.0
H755 H 0.18456 0.51307 0.76204 0.0
S756 S 0.03104 0.55192 0.70148 0.0
N757 N 0.04868 0.57298 0.76842 0.0
N758 N 0.06528 0.52443 0.67201 0.0
C759 C 0.09329 0.5316 0.7169 0.0
C760 C 0.08424 0.55797 0.7692 0.0
C761 C 0.53768 0.8689 0.28019 0.0
C762 C 0.5659 0.89659 0.2895 0.0
C763 C 0.51059 0.86132 0.32989 0.0
C764 C 0.50991 0.8815 0.39074 0.0
H765 H 0.53673 0.85247 0.23436 0.0
H766 H 0.48938 0.83999 0.31953 0.0
S767 S 0.57696 0.9577 0.43979 0.0
N768 N 0.5916 0.94455 0.3646 0.0
N769 N 0.5396 0.93097 0.45719 0.0
C770 C 0.5376 0.90969 0.40061 0.0
C771 C 0.5659 0.91695 0.35036 0.0
C772 C 0.87653 0.04898 0.65281 0.0
C773 C 0.87942 0.01027 0.636 0.0
C774 C 0.88102 0.07759 0.60371 0.0
C775 C 0.88756 0.06839 0.53578 0.0
H776 H 0.87085 0.05719 0.70413 0.0
H777 H 0.87908 0.10707 0.61899 0.0
S778 S 0.8974 0.97113 0.466 0.0
N779 N 0.88953 0.96473 0.54662 0.0
N780 N 0.89702 0.01757 0.45508 0.0
C781 C 0.89008 0.02977 0.5186 0.0
C782 C 0.88629 1.00098 0.56853 0.0
C783 C 0.07136 0.14058 0.51459 0.0
C784 C 0.06521 0.11536 0.56828 0.0
C785 C 0.04378 0.14555 0.46446 0.0
C786 C 0.0102 0.12382 0.46426 0.0
H787 H 0.09711 0.15735 0.51242 0.0
H788 H 0.04863 0.16668 0.42582 0.0
S789 S 0.98275 0.05142 0.59113 0.0
N790 N 0.02339 0.06859 0.61861 0.0
N791 N 0.97416 0.07399 0.52017 0.0
C792 C 0.00496 0.09701 0.51593 0.0
C793 C 0.03179 0.09381 0.56908 0.0
C794 C 0.09365 0.97594 0.54286 0.0
C795 C 0.11549 0.94263 0.53957 0.0
C796 C 0.09842 1.002 0.59535 0.0
C797 C 0.12579 0.99629 0.64565 0.0
H798 H 0.07253 0.98181 0.50484 0.0
H799 H 0.08162 0.02758 0.59486 0.0
S800 S 0.19204 0.91456 0.65665 0.0
N801 N 0.16596 0.90537 0.58994 0.0
N802 N 0.17637 0.95547 0.68653 0.0
C803 C 0.14838 0.96338 0.64196 0.0
C804 C 0.14277 0.93624 0.58958 0.0
C805 C 0.9994 0.90979 0.51171 0.0
C806 C 0.9947 0.88318 0.45975 0.0
C807 C 0.97317 0.91228 0.56475 0.0
C808 C 0.9408 0.88889 0.56689 0.0
H809 H 0.0242 0.92792 0.51276 0.0
H810 H 0.97797 0.93304 0.60385 0.0
S811 S 0.91475 0.81535 0.44255 0.0
N812 N 0.95515 0.83303 0.41404 0.0
N813 N 0.90498 0.83903 0.51188 0.0
C814 C 0.93521 0.86295 0.51444 0.0
C815 C 0.9624 0.85971 0.46142 0.0
C816 C 0.3497 0.22697 0.2229 0.0
C817 C 0.35283 0.21134 0.15796 0.0
C818 C 0.34985 0.26643 0.23368 0.0
C819 C 0.35264 0.29213 0.17996 0.0
H820 H 0.34738 0.2086 0.26633 0.0
H821 H 0.34739 0.27681 0.28456 0.0
S822 S 0.3625 0.26644 1.00005 0.0
N823 N 0.3596 0.22514 1.03916 0.0
N824 N 0.35961 0.29911 0.05909 0.0
C825 C 0.35592 0.27701 0.11468 0.0
C826 C 0.35613 0.23676 0.10378 0.0
C827 C 0.2655 0.65736 0.87355 0.0
C828 C 0.2903 0.64578 0.9244 0.0
C829 C 0.22618 0.65879 0.88474 0.0
C830 C 0.21003 0.64837 0.9471 0.0
H831 H 0.27658 0.66663 0.82554 0.0
H832 H 0.20842 0.66863 0.84405 0.0
S833 S 0.26289 0.61151 0.09396 0.0
N834 N 0.29604 0.62071 1.03761 0.0
N835 N 0.22226 0.62316 0.05845 0.0
C836 C 0.23456 0.63529 0.99747 0.0
C837 C 0.27462 0.63403 0.98614 0.0
C838 C 0.64569 0.77608 0.22361 0.0
C839 C 0.64709 0.79169 0.15835 0.0
C840 C 0.647 0.73674 0.23486 0.0
C841 C 0.65017 0.71105 0.18144 0.0
H842 H 0.64379 0.79444 0.267 0.0
H843 H 0.64615 0.7265 0.28605 0.0
S844 S 0.65218 0.73668 1.00036 0.0
N845 N 0.64976 0.77799 1.0393 0.0
N846 N 0.65256 0.70404 0.05989 0.0
C847 C 0.65071 0.72612 0.11562 0.0
C848 C 0.64897 0.76634 0.10422 0.0
C849 C 0.78276 0.35736 0.87822 0.0
C850 C 0.79811 0.35901 0.94355 0.0
C851 C 0.74348 0.35772 0.86705 0.0
C852 C 0.71783 0.35911 0.92078 0.0
H853 H 0.80121 0.35559 0.83484 0.0
H854 H 0.73323 0.3559 0.81605 0.0
S855 S 0.74304 0.36551 0.1016 0.0
N856 N 0.78432 0.36364 0.06248 0.0
N857 N 0.7106 0.36377 1.04222 0.0
C858 C 0.73274 0.36153 0.98644 0.0
C859 C 0.77279 0.3616 0.99765 0.0
C860 C 0.85357 0.73703 0.61142 0.0
C861 C 0.86034 0.71119 0.66365 0.0
C862 C 0.85229 0.77636 0.62356 0.0
C863 C 0.85833 0.79156 0.68824 0.0
H864 H 0.84809 0.72679 0.56123 0.0
H865 H 0.84632 0.79498 0.58162 0.0
S866 S 0.88035 0.7359 0.84131 0.0
N867 N 0.87526 0.70363 0.78211 0.0
N868 N 0.8733 0.7773 0.80434 0.0
C869 C 0.8665 0.76602 0.74039 0.0
C870 C 0.86737 0.72598 0.72825 0.0
C871 C 0.77787 0.15456 0.47647 0.0
C872 C 0.79323 0.15592 0.41104 0.0
C873 C 0.73857 0.15295 0.48775 0.0
C874 C 0.71292 0.15311 0.43412 0.0
H875 H 0.79635 0.15461 0.51975 0.0
H876 H 0.72827 0.15229 0.53892 0.0
S877 S 0.7384 0.15479 0.25282 0.0
N878 N 0.7796 0.15597 0.2919 0.0
N879 N 0.70588 0.15342 0.31242 0.0
C880 C 0.72792 0.15391 0.36824 0.0
C881 C 0.76798 0.15513 0.35688 0.0
C882 C 0.15027 0.27971 0.72377 0.0
C883 C 0.15219 0.2951 0.65843 0.0
C884 C 0.14994 0.2403 0.73515 0.0
C885 C 0.15208 0.21443 0.68176 0.0
H886 H 0.14897 0.29828 0.76695 0.0
H887 H 0.14867 0.23009 0.78634 0.0
S888 S 0.1561 0.23973 0.50066 0.0
N889 N 0.155 0.28113 0.53945 0.0
N890 N 0.15484 0.2072 0.56034 0.0
C891 C 0.15349 0.2294 0.61596 0.0
C892 C 0.15336 0.26962 0.60442 0.0
C893 C 0.27289 0.89013 0.43513 0.0
C894 C 0.29057 0.8582 0.46432 0.0
C895 C 0.23471 0.88878 0.4141 0.0
C896 C 0.21279 0.85561 0.42247 0.0
H897 H 0.28893 0.916 0.4268 0.0
H898 H 0.22205 0.91406 0.39258 0.0
S899 S 0.2456 0.76448 0.49653 0.0
N900 N 0.28311 0.79254 0.50009 0.0
N901 N 0.21164 0.79024 0.46213 0.0
C902 C 0.23014 0.8237 0.45203 0.0
C903 C 0.26892 0.82492 0.4725 0.0
C904 C 0.22061 0.11061 0.92636 0.0
C905 C 0.2313 0.09333 0.86525 0.0
C906 C 0.24358 0.10824 0.9842 0.0
C907 C 0.27796 0.08774 0.98405 0.0
H908 H 0.19416 0.12626 0.92947 0.0
H909 H 0.23439 0.12282 1.02913 0.0
S910 S 0.31508 0.03176 0.83943 0.0
N911 N 0.27646 0.05225 0.8099 0.0
N912 N 0.31913 0.04637 0.91766 0.0
C913 C 0.2881 0.06912 0.92346 0.0
C914 C 0.265 0.07227 0.86446 0.0
C915 C 0.1098 0.72067 0.17868 0.0
C916 C 0.09113 0.73128 0.11889 0.0
C917 C 0.10886 0.74376 0.23661 0.0
C918 C 0.08881 0.77843 0.23761 0.0
H919 H 0.12553 0.69424 0.18056 0.0
H920 H 0.1244 0.73458 0.2805 0.0
S921 S 0.03013 0.81612 0.09705 0.0
N922 N 0.04883 0.77664 0.06676 0.0
N923 N 0.04678 0.82018 0.17391 0.0
C924 C 0.06895 0.78863 0.1784 0.0
C925 C 0.07017 0.76512 0.11961 0.0
C926 C 0.71732 0.92558 0.9251 0.0
C927 C 0.73004 0.90932 0.98626 0.0
C928 C 0.73951 0.92482 0.86612 0.0
C929 C 0.77568 0.90813 0.86558 0.0
H930 H 0.68985 0.93932 0.92239 0.0
H931 H 0.7287 0.93838 0.82128 0.0
S932 S 0.82059 0.85684 1.00715 0.0
N933 N 0.78021 0.87258 1.03895 0.0
N934 N 0.82195 0.87191 0.92887 0.0
C935 C 0.78834 0.89073 0.92517 0.0
C936 C 0.76561 0.8911 0.98512 0.0
C937 C 0.94448 0.25109 0.12945 0.0
C938 C 0.91361 0.27472 0.11358 0.0
C939 C 0.94535 0.23018 0.18979 0.0
C940 C 0.91597 0.2329 0.23794 0.0
H941 H 0.96842 0.24917 0.09542 0.0
H942 H 0.96957 0.21195 0.19914 0.0
S943 S 0.8278 0.28954 0.21853 0.0
N944 N 0.85204 0.29829 0.1492 0.0
N945 N 0.85425 0.26021 0.26333 0.0
C946 C 0.88487 0.2564 0.22237 0.0
C947 C 0.88359 0.27698 0.16015 0.0
C948 C 0.29201 0.43251 0.42705 0.0
C949 C 0.27999 0.41554 0.36629 0.0
C950 C 0.26984 0.43096 0.48603 0.0
C951 C 0.23438 0.41276 0.48674 0.0
H952 H 0.31883 0.44744 0.42925 0.0
H953 H 0.28004 0.44506 0.53069 0.0
S954 S 0.19133 0.36023 0.34493 0.0
N955 N 0.23123 0.37728 0.31349 0.0
N956 N 0.18929 0.37523 0.4232 0.0
C957 C 0.22226 0.39512 0.42711 0.0
C958 C 0.24501 0.39631 0.36731 0.0
C959 C 0.38764 0.72565 0.69216 0.0
C960 C 0.40654 0.7361 0.75163 0.0
C961 C 0.39085 0.74735 0.63275 0.0
C962 C 0.41354 0.78031 0.63004 0.0
H963 H 0.37019 0.70035 0.69162 0.0
H964 H 0.37492 0.73857 0.5891 0.0
S965 S 0.4735 0.81633 0.76955 0.0
N966 N 0.4513 0.77938 0.80232 0.0
N967 N 0.45804 0.82005 0.69177 0.0
C968 C 0.43348 0.79031 0.68903 0.0
C969 C 0.42984 0.76831 0.74941 0.0
C970 C 0.71869 0.60743 0.42797 0.0
C971 C 0.73094 0.59224 0.36597 0.0
C972 C 0.74192 0.6067 0.48561 0.0
C973 C 0.77825 0.58994 0.48439 0.0
H974 H 0.69074 0.62015 0.43196 0.0
H975 H 0.73122 0.61928 0.53141 0.0
S976 S 0.82144 0.54156 0.33639 0.0
N977 N 0.78054 0.5578 0.30816 0.0
N978 N 0.82381 0.555 0.41536 0.0
C979 C 0.79029 0.57371 0.42267 0.0
C980 C 0.76685 0.57524 0.36391 0.0
C981 C 0.61942 0.22194 0.67144 0.0
C982 C 0.59527 0.23084 0.61717 0.0
C983 C 0.61934 0.2436 0.73118 0.0
C984 C 0.59456 0.2747 0.73961 0.0
H985 H 0.6386 0.19795 0.66761 0.0
H986 H 0.63912 0.2362 0.77053 0.0
S987 S 0.52088 0.30511 0.61717 0.0
N988 N 0.54329 0.27008 0.57882 0.0
N989 N 0.54214 0.31019 0.69009 0.0
C990 C 0.56915 0.28266 0.68639 0.0
C991 C 0.56971 0.26094 0.6256 0.0
C992 C 0.36682 0.06453 0.59429 0.0
C993 C 0.33857 0.09046 0.57402 0.0
C994 C 0.38438 0.0672 0.65716 0.0
C995 C 0.3736 0.09511 0.70411 0.0
H996 H 0.376 0.04212 0.56098 0.0
H997 H 0.40683 0.04721 0.66867 0.0
S998 S 0.2964 0.16604 0.68052 0.0
N999 N 0.29868 0.1434 0.60829 0.0
N1000 N 0.32923 0.14645 0.72827 0.0
C1001 C 0.344 0.12011 0.68581 0.0
C1002 C 0.32706 0.1182 0.62068 0.0
C1003 C 0.06634 0.66874 0.48668 0.0
C1004 C 0.09773 0.66832 0.53034 0.0
C1005 C 0.06819 0.65201 0.4229 0.0
C1006 C 0.1016 0.63437 0.39971 0.0
H1007 H 0.04002 0.68216 0.50189 0.0
H1008 H 0.04329 0.65314 0.39122 0.0
S1009 S 0.19141 0.62408 0.49465 0.0
N1010 N 0.16301 0.64753 0.546 0.0
N1011 N 0.16661 0.61685 0.42576 0.0
C1012 C 0.13331 0.63398 0.44239 0.0
C1013 C 0.13137 0.65076 0.50764 0.0
C1014 C 0.67736 0.93416 0.62188 0.0
C1015 C 0.66949 0.90512 0.57544 0.0
C1016 C 0.66113 0.93399 0.68628 0.0
C1017 C 0.63638 0.90476 0.7069 0.0
H1018 H 0.69639 0.95715 0.60839 0.0
H1019 H 0.66825 0.95679 0.72044 0.0
S1020 S 0.60434 0.82364 0.60292 0.0
N1021 N 0.63379 0.84734 0.55371 0.0
N1022 N 0.60354 0.84692 0.6747 0.0
C1023 C 0.62811 0.87568 0.66091 0.0
C1024 C 0.64458 0.87588 0.59529 0.0
C1025 C 0.93105 0.34252 0.41321 0.0
C1026 C 0.91349 0.3779 0.40108 0.0
C1027 C 0.93275 0.32688 0.4779 0.0
C1028 C 0.91648 0.34568 0.53308 0.0
H1029 H 0.94369 0.32675 0.37226 0.0
H1030 H 0.94632 0.29951 0.48451 0.0
S1031 S 0.86852 0.43966 0.5294 0.0
N1032 N 0.88037 0.43172 0.45052 0.0
N1033 N 0.88367 0.40235 0.57201 0.0
C1034 C 0.89936 0.38133 0.52202 0.0
C1035 C 0.89792 0.39745 0.45617 0.0
C1036 C 0.34297 0.38182 0.67059 0.0
C1037 C 0.36936 0.40839 0.64566 0.0
C1038 C 0.32705 0.38577 0.73497 0.0
C1039 C 0.33669 0.4166 0.77673 0.0
H1040 H 0.33427 0.35804 0.63984 0.0
H1041 H 0.30677 0.36468 0.75194 0.0
S1042 S 0.40719 0.49171 0.73661 0.0
N1043 N 0.40655 0.46471 0.66926 0.0
N1044 N 0.37556 0.47334 0.7884 0.0
C1045 C 0.3631 0.44327 0.752 0.0
C1046 C 0.37974 0.43882 0.68714 0.0
C1047 C 0.42552 0.67816 0.38173 0.0
C1048 C 0.39333 0.67708 0.33986 0.0
C1049 C 0.42517 0.66173 0.44578 0.0
C1050 C 0.39248 0.6439 0.47136 0.0
H1051 H 0.45146 0.69166 0.36476 0.0
H1052 H 0.45077 0.66303 0.47564 0.0
S1053 S 0.30016 0.63407 0.3843 0.0
N1054 N 0.32734 0.65708 0.33028 0.0
N1055 N 0.32675 0.62681 0.45109 0.0
C1056 C 0.35969 0.64359 0.43137 0.0
C1057 C 0.36007 0.66009 0.36571 0.0
C1058 C 0.68071 0.61262 0.73356 0.0
C1059 C 0.66708 0.58665 0.78158 0.0
C1060 C 0.6644 0.61491 0.66943 0.0
C1061 C 0.63358 0.59157 0.6511 0.0
H1062 H 0.70441 0.631 0.74546 0.0
H1063 H 0.67634 0.63479 0.63363 0.0
S1064 S 0.58486 0.52195 0.76179 0.0
N1065 N 0.61968 0.53887 0.80823 0.0
N1066 N 0.58848 0.54362 0.68859 0.0
C1067 C 0.61922 0.5661 0.69946 0.0
C1068 C 0.63606 0.56357 0.76442 0.0
C1069 C 0.63226 0.37323 0.4124 0.0
C1070 C 0.60153 0.37002 0.45721 0.0
C1071 C 0.63095 0.35686 0.34817 0.0
C1072 C 0.59919 0.33574 0.3265 0.0
H1073 H 0.65734 0.38902 0.42677 0.0
H1074 H 0.65492 0.36129 0.315 0.0
S1075 S 0.51256 0.31631 0.42787 0.0
N1076 N 0.53875 0.34379 0.47616 0.0
N1077 N 0.53736 0.31034 0.3585 0.0
C1078 C 0.56869 0.33151 0.37197 0.0
C1079 C 0.5696 0.34927 0.43638 0.0
C1080 C 0.8454 0.56448 0.11249 0.0
C1081 C 0.84327 0.59683 0.07075 0.0
C1082 C 0.86216 0.56611 0.1762 0.0
C1083 C 0.87674 0.60034 0.20191 0.0
H1084 H 0.83375 0.53758 0.09611 0.0
H1085 H 0.86313 0.54037 0.20598 0.0
S1086 S 0.88164 0.69245 0.11153 0.0
N1087 N 0.8603 0.66358 0.05849 0.0
N1088 N 0.89005 0.66686 0.17931 0.0
C1089 C 0.87522 0.63282 0.16077 0.0
C1090 C 0.85885 0.63104 0.0952 0.0
C1091 C 0.57695 0.16697 0.91368 0.0
C1092 C 0.59326 0.13094 0.90209 0.0
C1093 C 0.57516 0.18268 0.97831 0.0
C1094 C 0.58995 0.16324 1.03413 0.0
H1095 H 0.5659 0.1835 0.87223 0.0
H1096 H 0.56259 0.21055 0.98439 0.0
S1097 S 0.63217 0.06652 1.0326 0.0
N1098 N 0.62201 0.07515 0.95329 0.0
N1099 N 0.61914 0.1049 0.0743 0.0
C1100 C 0.60573 0.12693 1.0236 0.0
C1101 C 0.60732 0.11079 0.95783 0.0
C1102 C 0.11819 0.39644 0.15046 0.0
C1103 C 0.13267 0.41847 0.20348 0.0
C1104 C 0.13527 0.39685 0.08667 0.0
C1105 C 0.1673 0.41957 0.07308 0.0
H1106 H 0.09321 0.379 0.15806 0.0
H1107 H 0.12295 0.37966 1.04734 0.0
S1108 S 0.2183 0.48008 0.19533 0.0
N1109 N 0.18292 0.46148 0.23876 0.0
N1110 N 0.21364 0.46355 0.11846 0.0
C1111 C 0.18218 0.44155 0.12554 0.0
C1112 C 0.16526 0.44066 0.19074 0.0
C1113 C 0.44004 0.87466 1.02022 0.0
C1114 C 0.41345 0.84647 1.03805 0.0
C1115 C 0.44004 0.89137 0.95594 0.0
C1116 C 0.41367 0.88031 0.90652 0.0
H1117 H 0.46042 0.88457 0.05679 0.0
H1118 H 0.46043 0.91363 0.94537 0.0
S1119 S 0.34163 0.8038 0.92534 0.0
N1120 N 0.3619 0.80638 0.99964 0.0
N1121 N 0.36295 0.83617 0.87857 0.0
C1122 C 0.38802 0.85096 0.92313 0.0
C1123 C 0.38764 0.83449 0.98878 0.0
C1124 C 0.8597 0.94724 0.2533 0.0
C1125 C 0.84345 0.91448 0.28243 0.0
C1126 C 0.87616 0.94631 0.18916 0.0
C1127 C 0.87778 0.91244 0.1518 0.0
H1128 H 0.85992 0.9739 0.28037 0.0
H1129 H 0.88786 0.97236 0.16867 0.0
S1130 S 0.8385 0.81898 0.20353 0.0
N1131 N 0.82862 0.84748 0.26682 0.0
N1132 N 0.86169 0.84532 0.14851 0.0
C1133 C 0.86229 0.87935 0.18058 0.0
C1134 C 0.84463 0.88047 0.24519 0.0
C1135 C 0.88606 0.12943 0.90645 0.0
C1136 C 0.91203 0.13944 0.95682 0.0
C1137 C 0.88839 0.14542 0.84202 0.0
C1138 C 0.91663 0.17228 0.82548 0.0
H1139 H 0.86413 0.1086 0.91665 0.0
H1140 H 0.86826 0.13616 0.80452 0.0
S1141 S 0.98924 0.21066 0.94185 0.0
N1142 N 0.96542 0.17944 0.98731 0.0
N1143 N 0.96973 0.20971 0.86677 0.0
C1144 C 0.94231 0.18304 0.87604 0.0
C1145 C 0.94 0.16662 0.94149 0.0
C1146 C 0.12413 0.06939 0.19448 0.0
C1147 C 0.13514 0.09769 0.1484 0.0
C1148 C 0.14041 0.06719 0.25851 0.0
C1149 C 0.1685 0.09313 0.2793 0.0
H1150 H 0.10249 0.0489 0.18112 0.0
H1151 H 0.13057 0.04515 0.29231 0.0
S1152 S 0.20941 0.17085 0.17571 0.0
N1153 N 0.17729 0.15105 0.12682 0.0
N1154 N 0.20765 0.14713 0.24711 0.0
C1155 C 0.17995 0.12143 0.2335 0.0
C1156 C 0.16338 0.12363 0.16819 0.0
C1157 C 0.08785 0.82415 0.87892 0.0
C1158 C 0.09252 0.84671 0.82131 0.0
C1159 C 0.09161 0.83958 0.94339 0.0
C1160 C 0.09922 0.8785 0.9535 0.0
H1161 H 0.08165 0.79415 0.87426 0.0
H1162 H 0.0882 0.82076 0.98572 0.0
S1163 S 0.11384 0.95005 0.81883 0.0
N1164 N 0.10527 0.91011 0.77819 0.0
N1165 N 0.1121 0.93916 0.89925 0.0
C1166 C 0.10391 0.90146 0.8961 0.0
C1167 C 0.10063 0.88558 0.83024 0.0
loop_
_geom_bond_atom_site_label_1
_geom_bond_atom_site_label_2
_geom_bond_distance
_geom_bond_site_symmetry_2
_ccdc_geom_bond_type
Tb0 C9 2.764 1_554 S
Tb0 O10 2.325 . S
Tb0 O13 2.303 . S
Tb0 O17 2.322 . S
Tb0 O18 2.349 . S
Tb0 O21 2.415 1_554 S
Tb0 O22 2.399 1_554 S
Tb1 O11 2.322 . S
Tb1 O12 2.349 . S
Tb1 O14 2.415 . S
Tb1 O15 2.399 . S
Tb1 O16 2.325 . S
Tb1 O19 2.303 . S
Tb1 C30 2.764 . S
C2 O18 1.261 . S
C2 O19 1.257 . S
C3 C6 1.358 . S
C3 C7 1.332 . S
C3 C9 1.504 . S
C4 C5 1.373 . S
C4 C8 1.308 . S
C5 C4 1.373 . S
C5 C6 1.429 . S
C5 H32 0.932 . S
C6 C3 1.358 . S
C6 C5 1.429 . S
C6 H33 0.930 . S
C7 C3 1.332 . S
C7 C8 1.394 . S
C7 H34 0.932 . S
C8 C4 1.308 . S
C8 C7 1.394 . S
C8 H35 0.929 . S
C9 Tb0 2.764 1_556 S
C9 C3 1.504 . S
C9 O21 1.239 . S
C9 O22 1.263 . S
O10 Tb0 2.325 . S
O10 C20 1.236 . S
O11 Tb1 2.322 . S
O11 C20 1.257 . S
O12 Tb1 2.349 . S
O12 C23 1.261 . S
O13 Tb0 2.303 . S
O13 C23 1.257 . S
O14 Tb1 2.415 . S
O14 C30 1.239 . S
O15 Tb1 2.399 . S
O15 C30 1.263 . S
O16 Tb1 2.325 . S
O16 C31 1.236 . S
O17 Tb0 2.322 . S
O17 C31 1.257 . S
O18 Tb0 2.349 . S
O18 C2 1.261 . S
O19 Tb1 2.303 . S
O19 C2 1.257 . S
C20 O10 1.236 . S
C20 O11 1.257 . S
O21 Tb0 2.415 1_556 S
O21 C9 1.239 . S
O22 Tb0 2.399 1_556 S
O22 C9 1.263 . S
C23 O12 1.261 . S
C23 O13 1.257 . S
C24 C27 1.358 . S
C24 C28 1.332 . S
C24 C30 1.504 . S
C25 C26 1.373 . S
C25 C29 1.308 . S
C26 C25 1.373 . S
C26 C27 1.429 . S
C26 H36 0.932 . S
C27 C24 1.358 . S
C27 C26 1.429 . S
C27 H37 0.930 . S
C28 C24 1.332 . S
C28 C29 1.394 . S
C28 H38 0.932 . S
C29 C25 1.308 . S
C29 C28 1.394 . S
C29 H39 0.929 . S
C30 Tb1 2.764 . S
C30 O14 1.239 . S
C30 O15 1.263 . S
C30 C24 1.504 . S
C31 O16 1.236 . S
C31 O17 1.257 . S
H32 C5 0.932 . S
H33 C6 0.930 . S
H34 C7 0.932 . S
H35 C8 0.929 . S
H36 C26 0.932 . S
H37 C27 0.930 . S
H38 C28 0.932 . S
H39 C29 0.929 . S
Tb40 C49 2.764 . S
Tb40 O50 2.325 . S
Tb40 O53 2.303 . S
Tb40 O57 2.322 . S
Tb40 O58 2.349 . S
Tb40 O61 2.415 . S
Tb40 O62 2.399 . S
Tb41 O51 2.322 . S
Tb41 O52 2.349 . S
Tb41 O54 2.415 1_556 S
Tb41 O55 2.399 1_556 S
Tb41 O56 2.325 . S
Tb41 O59 2.303 . S
Tb41 C70 2.764 1_556 S
C42 O58 1.261 . S
C42 O59 1.257 . S
C43 C46 1.358 . S
C43 C47 1.332 . S
C43 C49 1.504 . S
C44 C45 1.373 . S
C44 C48 1.308 . S
C45 C44 1.373 . S
C45 C46 1.429 . S
C45 H72 0.932 . S
C46 C43 1.358 . S
C46 C45 1.429 . S
C46 H73 0.930 . S
C47 C43 1.332 . S
C47 C48 1.394 . S
C47 H74 0.932 . S
C48 C44 1.308 . S
C48 C47 1.394 . S
C48 H75 0.929 . S
C49 Tb40 2.764 . S
C49 C43 1.504 . S
C49 O61 1.239 . S
C49 O62 1.263 . S
O50 Tb40 2.325 . S
O50 C60 1.236 . S
O51 Tb41 2.322 . S
O51 C60 1.257 . S
O52 Tb41 2.349 . S
O52 C63 1.261 . S
O53 Tb40 2.303 . S
O53 C63 1.257 . S
O54 Tb41 2.415 1_554 S
O54 C70 1.239 . S
O55 Tb41 2.399 1_554 S
O55 C70 1.263 . S
O56 Tb41 2.325 . S
O56 C71 1.236 . S
O57 Tb40 2.322 . S
O57 C71 1.257 . S
O58 Tb40 2.349 . S
O58 C42 1.261 . S
O59 Tb41 2.303 . S
O59 C42 1.257 . S
C60 O50 1.236 . S
C60 O51 1.257 . S
O61 Tb40 2.415 . S
O61 C49 1.239 . S
O62 Tb40 2.399 . S
O62 C49 1.263 . S
C63 O52 1.261 . S
C63 O53 1.257 . S
C64 C67 1.358 . S
C64 C68 1.332 . S
C64 C70 1.504 . S
C65 C66 1.373 . S
C65 C69 1.308 . S
C66 C65 1.373 . S
C66 C67 1.429 . S
C66 H76 0.932 . S
C67 C64 1.358 . S
C67 C66 1.429 . S
C67 H77 0.930 . S
C68 C64 1.332 . S
C68 C69 1.394 . S
C68 H78 0.932 . S
C69 C65 1.308 . S
C69 C68 1.394 . S
C69 H79 0.929 . S
C70 Tb41 2.764 1_554 S
C70 O54 1.239 . S
C70 O55 1.263 . S
C70 C64 1.504 . S
C71 O56 1.236 . S
C71 O57 1.257 . S
H72 C45 0.932 . S
H73 C46 0.930 . S
H74 C47 0.932 . S
H75 C48 0.929 . S
H76 C66 0.932 . S
H77 C67 0.930 . S
H78 C68 0.932 . S
H79 C69 0.929 . S
Tb80 C89 2.764 1_554 S
Tb80 O90 2.325 . S
Tb80 O93 2.303 . S
Tb80 O97 2.322 . S
Tb80 O98 2.349 . S
Tb80 O101 2.415 1_554 S
Tb80 O102 2.399 1_554 S
Tb81 O91 2.322 . S
Tb81 O92 2.349 . S
Tb81 O94 2.415 . S
Tb81 O95 2.399 . S
Tb81 O96 2.325 . S
Tb81 O99 2.303 . S
Tb81 C110 2.764 . S
C82 O98 1.261 . S
C82 O99 1.257 . S
C83 C86 1.358 . S
C83 C87 1.332 . S
C83 C89 1.504 . S
C84 C85 1.373 . S
C84 C88 1.308 . S
C85 C84 1.373 . S
C85 C86 1.429 . S
C85 H112 0.932 . S
C86 C83 1.358 . S
C86 C85 1.429 . S
C86 H113 0.930 . S
C87 C83 1.332 . S
C87 C88 1.394 . S
C87 H114 0.932 . S
C88 C84 1.308 . S
C88 C87 1.394 . S
C88 H115 0.929 . S
C89 Tb80 2.764 1_556 S
C89 C83 1.504 . S
C89 O101 1.239 . S
C89 O102 1.263 . S
O90 Tb80 2.325 . S
O90 C100 1.236 . S
O91 Tb81 2.322 . S
O91 C100 1.257 . S
O92 Tb81 2.349 . S
O92 C103 1.261 . S
O93 Tb80 2.303 . S
O93 C103 1.257 . S
O94 Tb81 2.415 . S
O94 C110 1.239 . S
O95 Tb81 2.399 . S
O95 C110 1.263 . S
O96 Tb81 2.325 . S
O96 C111 1.236 . S
O97 Tb80 2.322 . S
O97 C111 1.257 . S
O98 Tb80 2.349 . S
O98 C82 1.261 . S
O99 Tb81 2.303 . S
O99 C82 1.257 . S
C100 O90 1.236 . S
C100 O91 1.257 . S
O101 Tb80 2.415 1_556 S
O101 C89 1.239 . S
O102 Tb80 2.399 1_556 S
O102 C89 1.263 . S
C103 O92 1.261 . S
C103 O93 1.257 . S
C104 C107 1.358 . S
C104 C108 1.332 . S
C104 C110 1.504 . S
C105 C106 1.373 . S
C105 C109 1.308 . S
C106 C105 1.373 . S
C106 C107 1.429 . S
C106 H116 0.932 . S
C107 C104 1.358 . S
C107 C106 1.429 . S
C107 H117 0.930 . S
C108 C104 1.332 . S
C108 C109 1.394 . S
C108 H118 0.932 . S
C109 C105 1.308 . S
C109 C108 1.394 . S
C109 H119 0.929 . S
C110 Tb81 2.764 . S
C110 O94 1.239 . S
C110 O95 1.263 . S
C110 C104 1.504 . S
C111 O96 1.236 . S
C111 O97 1.257 . S
H112 C85 0.932 . S
H113 C86 0.930 . S
H114 C87 0.932 . S
H115 C88 0.929 . S
H116 C106 0.932 . S
H117 C107 0.930 . S
H118 C108 0.932 . S
H119 C109 0.929 . S
Tb120 C129 2.764 . S
Tb120 O130 2.325 . S
Tb120 O133 2.303 . S
Tb120 O137 2.322 . S
Tb120 O138 2.349 . S
Tb120 O141 2.415 . S
Tb120 O142 2.399 . S
Tb121 O131 2.322 . S
Tb121 O132 2.349 . S
Tb121 O134 2.415 1_556 S
Tb121 O135 2.399 1_556 S
Tb121 O136 2.325 . S
Tb121 O139 2.303 . S
Tb121 C150 2.764 1_556 S
C122 O138 1.261 . S
C122 O139 1.257 . S
C123 C126 1.358 . S
C123 C127 1.332 . S
C123 C129 1.504 . S
C124 C125 1.373 . S
C124 C128 1.308 . S
C125 C124 1.373 . S
C125 C126 1.429 . S
C125 H152 0.932 . S
C126 C123 1.358 . S
C126 C125 1.429 . S
C126 H153 0.930 . S
C127 C123 1.332 . S
C127 C128 1.394 . S
C127 H154 0.932 . S
C128 C124 1.308 . S
C128 C127 1.394 . S
C128 H155 0.929 . S
C129 Tb120 2.764 . S
C129 C123 1.504 . S
C129 O141 1.239 . S
C129 O142 1.263 . S
O130 Tb120 2.325 . S
O130 C140 1.236 . S
O131 Tb121 2.322 . S
O131 C140 1.257 . S
O132 Tb121 2.349 . S
O132 C143 1.261 . S
O133 Tb120 2.303 . S
O133 C143 1.257 . S
O134 Tb121 2.415 1_554 S
O134 C150 1.239 . S
O135 Tb121 2.399 1_554 S
O135 C150 1.263 . S
O136 Tb121 2.325 . S
O136 C151 1.236 . S
O137 Tb120 2.322 . S
O137 C151 1.257 . S
O138 Tb120 2.349 . S
O138 C122 1.261 . S
O139 Tb121 2.303 . S
O139 C122 1.257 . S
C140 O130 1.236 . S
C140 O131 1.257 . S
O141 Tb120 2.415 . S
O141 C129 1.239 . S
O142 Tb120 2.399 . S
O142 C129 1.263 . S
C143 O132 1.261 . S
C143 O133 1.257 . S
C144 C147 1.358 . S
C144 C148 1.332 . S
C144 C150 1.504 . S
C145 C146 1.373 . S
C145 C149 1.308 . S
C146 C145 1.373 . S
C146 C147 1.429 . S
C146 H156 0.932 . S
C147 C144 1.358 . S
C147 C146 1.429 . S
C147 H157 0.930 . S
C148 C144 1.332 . S
C148 C149 1.394 . S
C148 H158 0.932 . S
C149 C145 1.308 . S
C149 C148 1.394 . S
C149 H159 0.929 . S
C150 Tb121 2.764 1_554 S
C150 O134 1.239 . S
C150 O135 1.263 . S
C150 C144 1.504 . S
C151 O136 1.236 . S
C151 O137 1.257 . S
H152 C125 0.932 . S
H153 C126 0.930 . S
H154 C127 0.932 . S
H155 C128 0.929 . S
H156 C146 0.932 . S
H157 C147 0.930 . S
H158 C148 0.932 . S
H159 C149 0.929 . S
Tb160 C169 2.764 . S
Tb160 O170 2.325 . S
Tb160 O173 2.303 . S
Tb160 O177 2.322 . S
Tb160 O178 2.349 . S
Tb160 O181 2.415 . S
Tb160 O182 2.399 . S
Tb161 O171 2.322 . S
Tb161 O172 2.349 . S
Tb161 O174 2.415 1_554 S
Tb161 O175 2.399 1_554 S
Tb161 O176 2.325 . S
Tb161 O179 2.303 . S
Tb161 C190 2.764 1_554 S
C162 O178 1.261 . S
C162 O179 1.257 . S
C163 C166 1.358 . S
C163 C167 1.332 . S
C163 C169 1.504 . S
C164 C165 1.373 . S
C164 C168 1.308 . S
C165 C164 1.373 . S
C165 C166 1.429 . S
C165 H192 0.932 . S
C166 C163 1.358 . S
C166 C165 1.429 . S
C166 H193 0.930 . S
C167 C163 1.332 . S
C167 C168 1.394 . S
C167 H194 0.932 . S
C168 C164 1.308 . S
C168 C167 1.394 . S
C168 H195 0.929 . S
C169 Tb160 2.764 . S
C169 C163 1.504 . S
C169 O181 1.239 . S
C169 O182 1.263 . S
O170 Tb160 2.325 . S
O170 C180 1.236 . S
O171 Tb161 2.322 . S
O171 C180 1.257 . S
O172 Tb161 2.349 . S
O172 C183 1.261 . S
O173 Tb160 2.303 . S
O173 C183 1.257 . S
O174 Tb161 2.415 1_556 S
O174 C190 1.239 . S
O175 Tb161 2.399 1_556 S
O175 C190 1.263 . S
O176 Tb161 2.325 . S
O176 C191 1.236 . S
O177 Tb160 2.322 . S
O177 C191 1.257 . S
O178 Tb160 2.349 . S
O178 C162 1.261 . S
O179 Tb161 2.303 . S
O179 C162 1.257 . S
C180 O170 1.236 . S
C180 O171 1.257 . S
O181 Tb160 2.415 . S
O181 C169 1.239 . S
O182 Tb160 2.399 . S
O182 C169 1.263 . S
C183 O172 1.261 . S
C183 O173 1.257 . S
C184 C187 1.358 . S
C184 C188 1.332 . S
C184 C190 1.504 . S
C185 C186 1.373 . S
C185 C189 1.308 . S
C186 C185 1.373 . S
C186 C187 1.429 . S
C186 H196 0.932 . S
C187 C184 1.358 . S
C187 C186 1.429 . S
C187 H197 0.930 . S
C188 C184 1.332 . S
C188 C189 1.394 . S
C188 H198 0.932 . S
C189 C185 1.308 . S
C189 C188 1.394 . S
C189 H199 0.929 . S
C190 Tb161 2.764 1_556 S
C190 O174 1.239 . S
C190 O175 1.263 . S
C190 C184 1.504 . S
C191 O176 1.236 . S
C191 O177 1.257 . S
H192 C165 0.932 . S
H193 C166 0.930 . S
H194 C167 0.932 . S
H195 C168 0.929 . S
H196 C186 0.932 . S
H197 C187 0.930 . S
H198 C188 0.932 . S
H199 C189 0.929 . S
Tb200 C209 2.764 1_556 S
Tb200 O210 2.325 . S
Tb200 O213 2.303 . S
Tb200 O217 2.322 . S
Tb200 O218 2.349 . S
Tb200 O221 2.415 1_556 S
Tb200 O222 2.399 1_556 S
Tb201 O211 2.322 . S
Tb201 O212 2.349 . S
Tb201 O214 2.415 . S
Tb201 O215 2.399 . S
Tb201 O216 2.325 . S
Tb201 O219 2.303 . S
Tb201 C230 2.764 . S
C202 O218 1.261 . S
C202 O219 1.257 . S
C203 C206 1.358 . S
C203 C207 1.332 . S
C203 C209 1.504 . S
C204 C205 1.373 . S
C204 C208 1.308 . S
C205 C204 1.373 . S
C205 C206 1.429 . S
C205 H232 0.932 . S
C206 C203 1.358 . S
C206 C205 1.429 . S
C206 H233 0.930 . S
C207 C203 1.332 . S
C207 C208 1.394 . S
C207 H234 0.932 . S
C208 C204 1.308 . S
C208 C207 1.394 . S
C208 H235 0.929 . S
C209 Tb200 2.764 1_554 S
C209 C203 1.504 . S
C209 O221 1.239 . S
C209 O222 1.263 . S
O210 Tb200 2.325 . S
O210 C220 1.236 . S
O211 Tb201 2.322 . S
O211 C220 1.257 . S
O212 Tb201 2.349 . S
O212 C223 1.261 . S
O213 Tb200 2.303 . S
O213 C223 1.257 . S
O214 Tb201 2.415 . S
O214 C230 1.239 . S
O215 Tb201 2.399 . S
O215 C230 1.263 . S
O216 Tb201 2.325 . S
O216 C231 1.236 . S
O217 Tb200 2.322 . S
O217 C231 1.257 . S
O218 Tb200 2.349 . S
O218 C202 1.261 . S
O219 Tb201 2.303 . S
O219 C202 1.257 . S
C220 O210 1.236 . S
C220 O211 1.257 . S
O221 Tb200 2.415 1_554 S
O221 C209 1.239 . S
O222 Tb200 2.399 1_554 S
O222 C209 1.263 . S
C223 O212 1.261 . S
C223 O213 1.257 . S
C224 C227 1.358 . S
C224 C228 1.332 . S
C224 C230 1.504 . S
C225 C226 1.373 . S
C225 C229 1.308 . S
C226 C225 1.373 . S
C226 C227 1.429 . S
C226 H236 0.932 . S
C227 C224 1.358 . S
C227 C226 1.429 . S
C227 H237 0.930 . S
C228 C224 1.332 . S
C228 C229 1.394 . S
C228 H238 0.932 . S
C229 C225 1.308 . S
C229 C228 1.394 . S
C229 H239 0.929 . S
C230 Tb201 2.764 . S
C230 O214 1.239 . S
C230 O215 1.263 . S
C230 C224 1.504 . S
C231 O216 1.236 . S
C231 O217 1.257 . S
H232 C205 0.932 . S
H233 C206 0.930 . S
H234 C207 0.932 . S
H235 C208 0.929 . S
H236 C226 0.932 . S
H237 C227 0.930 . S
H238 C228 0.932 . S
H239 C229 0.929 . S
Tb240 C249 2.764 . S
Tb240 O250 2.325 . S
Tb240 O253 2.303 . S
Tb240 O257 2.322 . S
Tb240 O258 2.349 . S
Tb240 O261 2.415 . S
Tb240 O262 2.399 . S
Tb241 O251 2.322 . S
Tb241 O252 2.349 . S
Tb241 O254 2.415 1_554 S
Tb241 O255 2.399 1_554 S
Tb241 O256 2.325 . S
Tb241 O259 2.303 . S
Tb241 C270 2.764 1_554 S
C242 O258 1.261 . S
C242 O259 1.257 . S
C243 C246 1.358 . S
C243 C247 1.332 . S
C243 C249 1.504 . S
C244 C245 1.373 . S
C244 C248 1.308 . S
C245 C244 1.373 . S
C245 C246 1.429 . S
C245 H272 0.932 . S
C246 C243 1.358 . S
C246 C245 1.429 . S
C246 H273 0.930 . S
C247 C243 1.332 . S
C247 C248 1.394 . S
C247 H274 0.932 . S
C248 C244 1.308 . S
C248 C247 1.394 . S
C248 H275 0.929 . S
C249 Tb240 2.764 . S
C249 C243 1.504 . S
C249 O261 1.239 . S
C249 O262 1.263 . S
O250 Tb240 2.325 . S
O250 C260 1.236 . S
O251 Tb241 2.322 . S
O251 C260 1.257 . S
O252 Tb241 2.349 . S
O252 C263 1.261 . S
O253 Tb240 2.303 . S
O253 C263 1.257 . S
O254 Tb241 2.415 1_556 S
O254 C270 1.239 . S
O255 Tb241 2.399 1_556 S
O255 C270 1.263 . S
O256 Tb241 2.325 . S
O256 C271 1.236 . S
O257 Tb240 2.322 . S
O257 C271 1.257 . S
O258 Tb240 2.349 . S
O258 C242 1.261 . S
O259 Tb241 2.303 . S
O259 C242 1.257 . S
C260 O250 1.236 . S
C260 O251 1.257 . S
O261 Tb240 2.415 . S
O261 C249 1.239 . S
O262 Tb240 2.399 . S
O262 C249 1.263 . S
C263 O252 1.261 . S
C263 O253 1.257 . S
C264 C267 1.358 . S
C264 C268 1.332 . S
C264 C270 1.504 . S
C265 C266 1.373 . S
C265 C269 1.308 . S
C266 C265 1.373 . S
C266 C267 1.429 . S
C266 H276 0.932 . S
C267 C264 1.358 . S
C267 C266 1.429 . S
C267 H277 0.930 . S
C268 C264 1.332 . S
C268 C269 1.394 . S
C268 H278 0.932 . S
C269 C265 1.308 . S
C269 C268 1.394 . S
C269 H279 0.929 . S
C270 Tb241 2.764 1_556 S
C270 O254 1.239 . S
C270 O255 1.263 . S
C270 C264 1.504 . S
C271 O256 1.236 . S
C271 O257 1.257 . S
H272 C245 0.932 . S
H273 C246 0.930 . S
H274 C247 0.932 . S
H275 C248 0.929 . S
H276 C266 0.932 . S
H277 C267 0.930 . S
H278 C268 0.932 . S
H279 C269 0.929 . S
Tb280 C289 2.764 1_556 S
Tb280 O290 2.325 . S
Tb280 O293 2.303 . S
Tb280 O297 2.322 . S
Tb280 O298 2.349 . S
Tb280 O301 2.415 1_556 S
Tb280 O302 2.399 1_556 S
Tb281 O291 2.322 . S
Tb281 O292 2.349 . S
Tb281 O294 2.415 . S
Tb281 O295 2.399 . S
Tb281 O296 2.325 . S
Tb281 O299 2.303 . S
Tb281 C310 2.764 . S
C282 O298 1.261 . S
C282 O299 1.257 . S
C283 C286 1.358 . S
C283 C287 1.332 . S
C283 C289 1.504 . S
C284 C285 1.373 . S
C284 C288 1.308 . S
C285 C284 1.373 . S
C285 C286 1.429 . S
C285 H312 0.932 . S
C286 C283 1.358 . S
C286 C285 1.429 . S
C286 H313 0.930 . S
C287 C283 1.332 . S
C287 C288 1.394 . S
C287 H314 0.932 . S
C288 C284 1.308 . S
C288 C287 1.394 . S
C288 H315 0.929 . S
C289 Tb280 2.764 1_554 S
C289 C283 1.504 . S
C289 O301 1.239 . S
C289 O302 1.263 . S
O290 Tb280 2.325 . S
O290 C300 1.236 . S
O291 Tb281 2.322 . S
O291 C300 1.257 . S
O292 Tb281 2.349 . S
O292 C303 1.261 . S
O293 Tb280 2.303 . S
O293 C303 1.257 . S
O294 Tb281 2.415 . S
O294 C310 1.239 . S
O295 Tb281 2.399 . S
O295 C310 1.263 . S
O296 Tb281 2.325 . S
O296 C311 1.236 . S
O297 Tb280 2.322 . S
O297 C311 1.257 . S
O298 Tb280 2.349 . S
O298 C282 1.261 . S
O299 Tb281 2.303 . S
O299 C282 1.257 . S
C300 O290 1.236 . S
C300 O291 1.257 . S
O301 Tb280 2.415 1_554 S
O301 C289 1.239 . S
O302 Tb280 2.399 1_554 S
O302 C289 1.263 . S
C303 O292 1.261 . S
C303 O293 1.257 . S
C304 C307 1.358 . S
C304 C308 1.332 . S
C304 C310 1.504 . S
C305 C306 1.373 . S
C305 C309 1.308 . S
C306 C305 1.373 . S
C306 C307 1.429 . S
C306 H316 0.932 . S
C307 C304 1.358 . S
C307 C306 1.429 . S
C307 H317 0.930 . S
C308 C304 1.332 . S
C308 C309 1.394 . S
C308 H318 0.932 . S
C309 C305 1.308 . S
C309 C308 1.394 . S
C309 H319 0.929 . S
C310 Tb281 2.764 . S
C310 O294 1.239 . S
C310 O295 1.263 . S
C310 C304 1.504 . S
C311 O296 1.236 . S
C311 O297 1.257 . S
H312 C285 0.932 . S
H313 C286 0.930 . S
H314 C287 0.932 . S
H315 C288 0.929 . S
H316 C306 0.932 . S
H317 C307 0.930 . S
H318 C308 0.932 . S
H319 C309 0.929 . S
Tb320 C329 2.764 . S
Tb320 O330 2.325 . S
Tb320 O333 2.303 . S
Tb320 O337 2.322 . S
Tb320 O338 2.349 . S
Tb320 O341 2.415 . S
Tb320 O342 2.399 . S
Tb321 O331 2.322 . S
Tb321 O332 2.349 . S
Tb321 O334 2.415 . S
Tb321 O335 2.399 . S
Tb321 O336 2.325 . S
Tb321 O339 2.303 . S
Tb321 C350 2.764 . S
C322 O338 1.261 . S
C322 O339 1.257 . S
C323 C326 1.358 . S
C323 C327 1.332 . S
C323 C329 1.504 . S
C324 C325 1.373 . S
C324 C328 1.308 . S
C325 C324 1.373 . S
C325 C326 1.429 . S
C325 H352 0.932 . S
C326 C323 1.358 . S
C326 C325 1.429 . S
C326 H353 0.930 . S
C327 C323 1.332 . S
C327 C328 1.394 . S
C327 H354 0.932 . S
C328 C324 1.308 . S
C328 C327 1.394 . S
C328 H355 0.929 . S
C329 Tb320 2.764 . S
C329 C323 1.504 . S
C329 O341 1.239 . S
C329 O342 1.263 . S
O330 Tb320 2.325 . S
O330 C340 1.236 . S
O331 Tb321 2.322 . S
O331 C340 1.257 . S
O332 Tb321 2.349 . S
O332 C343 1.261 . S
O333 Tb320 2.303 . S
O333 C343 1.257 . S
O334 Tb321 2.415 . S
O334 C350 1.239 . S
O335 Tb321 2.399 . S
O335 C350 1.263 . S
O336 Tb321 2.325 . S
O336 C351 1.236 . S
O337 Tb320 2.322 . S
O337 C351 1.257 . S
O338 Tb320 2.349 . S
O338 C322 1.261 . S
O339 Tb321 2.303 . S
O339 C322 1.257 . S
C340 O330 1.236 . S
C340 O331 1.257 . S
O341 Tb320 2.415 . S
O341 C329 1.239 . S
O342 Tb320 2.399 . S
O342 C329 1.263 . S
C343 O332 1.261 . S
C343 O333 1.257 . S
C344 C347 1.358 . S
C344 C348 1.332 . S
C344 C350 1.504 . S
C345 C346 1.373 1_554 S
C345 C349 1.308 1_554 S
C346 C345 1.373 1_556 S
C346 C347 1.429 . S
C346 H356 0.932 1_556 S
C347 C344 1.358 . S
C347 C346 1.429 . S
C347 H357 0.930 . S
C348 C344 1.332 . S
C348 C349 1.394 . S
C348 H358 0.932 . S
C349 C345 1.308 1_556 S
C349 C348 1.394 . S
C349 H359 0.929 1_556 S
C350 Tb321 2.764 . S
C350 O334 1.239 . S
C350 O335 1.263 . S
C350 C344 1.504 . S
C351 O336 1.236 . S
C351 O337 1.257 . S
H352 C325 0.932 . S
H353 C326 0.930 . S
H354 C327 0.932 . S
H355 C328 0.929 . S
H356 C346 0.932 1_554 S
H357 C347 0.930 . S
H358 C348 0.932 . S
H359 C349 0.929 1_554 S
Tb360 C369 2.764 . S
Tb360 O370 2.325 . S
Tb360 O373 2.303 . S
Tb360 O377 2.322 . S
Tb360 O378 2.349 . S
Tb360 O381 2.415 . S
Tb360 O382 2.399 . S
Tb361 O371 2.322 . S
Tb361 O372 2.349 . S
Tb361 O374 2.415 . S
Tb361 O375 2.399 . S
Tb361 O376 2.325 . S
Tb361 O379 2.303 . S
Tb361 C390 2.764 . S
C362 O378 1.261 . S
C362 O379 1.257 . S
C363 C366 1.358 . S
C363 C367 1.332 . S
C363 C369 1.504 . S
C364 C365 1.373 1_556 S
C364 C368 1.308 1_556 S
C365 C364 1.373 1_554 S
C365 C366 1.429 . S
C365 H392 0.932 1_554 S
C366 C363 1.358 . S
C366 C365 1.429 . S
C366 H393 0.930 . S
C367 C363 1.332 . S
C367 C368 1.394 . S
C367 H394 0.932 . S
C368 C364 1.308 1_554 S
C368 C367 1.394 . S
C368 H395 0.929 1_554 S
C369 Tb360 2.764 . S
C369 C363 1.504 . S
C369 O381 1.239 . S
C369 O382 1.263 . S
O370 Tb360 2.325 . S
O370 C380 1.236 . S
O371 Tb361 2.322 . S
O371 C380 1.257 . S
O372 Tb361 2.349 . S
O372 C383 1.261 . S
O373 Tb360 2.303 . S
O373 C383 1.257 . S
O374 Tb361 2.415 . S
O374 C390 1.239 . S
O375 Tb361 2.399 . S
O375 C390 1.263 . S
O376 Tb361 2.325 . S
O376 C391 1.236 . S
O377 Tb360 2.322 . S
O377 C391 1.257 . S
O378 Tb360 2.349 . S
O378 C362 1.261 . S
O379 Tb361 2.303 . S
O379 C362 1.257 . S
C380 O370 1.236 . S
C380 O371 1.257 . S
O381 Tb360 2.415 . S
O381 C369 1.239 . S
O382 Tb360 2.399 . S
O382 C369 1.263 . S
C383 O372 1.261 . S
C383 O373 1.257 . S
C384 C387 1.358 . S
C384 C388 1.332 . S
C384 C390 1.504 . S
C385 C386 1.373 . S
C385 C389 1.308 . S
C386 C385 1.373 . S
C386 C387 1.429 . S
C386 H396 0.932 . S
C387 C384 1.358 . S
C387 C386 1.429 . S
C387 H397 0.930 . S
C388 C384 1.332 . S
C388 C389 1.394 . S
C388 H398 0.932 . S
C389 C385 1.308 . S
C389 C388 1.394 . S
C389 H399 0.929 . S
C390 Tb361 2.764 . S
C390 O374 1.239 . S
C390 O375 1.263 . S
C390 C384 1.504 . S
C391 O376 1.236 . S
C391 O377 1.257 . S
H392 C365 0.932 1_556 S
H393 C366 0.930 . S
H394 C367 0.932 . S
H395 C368 0.929 1_556 S
H396 C386 0.932 . S
H397 C387 0.930 . S
H398 C388 0.932 . S
H399 C389 0.929 . S
Tb400 C409 2.764 . S
Tb400 O410 2.325 . S
Tb400 O413 2.303 . S
Tb400 O417 2.322 . S
Tb400 O418 2.349 . S
Tb400 O421 2.415 . S
Tb400 O422 2.399 . S
Tb401 O411 2.322 . S
Tb401 O412 2.349 . S
Tb401 O414 2.415 . S
Tb401 O415 2.399 . S
Tb401 O416 2.325 . S
Tb401 O419 2.303 . S
Tb401 C430 2.764 . S
C402 O418 1.261 . S
C402 O419 1.257 . S
C403 C406 1.358 . S
C403 C407 1.332 . S
C403 C409 1.504 . S
C404 C405 1.373 . S
C404 C408 1.308 . S
C405 C404 1.373 . S
C405 C406 1.429 . S
C405 H432 0.932 . S
C406 C403 1.358 . S
C406 C405 1.429 . S
C406 H433 0.930 . S
C407 C403 1.332 . S
C407 C408 1.394 . S
C407 H434 0.932 . S
C408 C404 1.308 . S
C408 C407 1.394 . S
C408 H435 0.929 . S
C409 Tb400 2.764 . S
C409 C403 1.504 . S
C409 O421 1.239 . S
C409 O422 1.263 . S
O410 Tb400 2.325 . S
O410 C420 1.236 . S
O411 Tb401 2.322 . S
O411 C420 1.257 . S
O412 Tb401 2.349 . S
O412 C423 1.261 . S
O413 Tb400 2.303 . S
O413 C423 1.257 . S
O414 Tb401 2.415 . S
O414 C430 1.239 . S
O415 Tb401 2.399 . S
O415 C430 1.263 . S
O416 Tb401 2.325 . S
O416 C431 1.236 . S
O417 Tb400 2.322 . S
O417 C431 1.257 . S
O418 Tb400 2.349 . S
O418 C402 1.261 . S
O419 Tb401 2.303 . S
O419 C402 1.257 . S
C420 O410 1.236 . S
C420 O411 1.257 . S
O421 Tb400 2.415 . S
O421 C409 1.239 . S
O422 Tb400 2.399 . S
O422 C409 1.263 . S
C423 O412 1.261 . S
C423 O413 1.257 . S
C424 C427 1.358 . S
C424 C428 1.332 . S
C424 C430 1.504 . S
C425 C426 1.373 1_554 S
C425 C429 1.308 1_554 S
C426 C425 1.373 1_556 S
C426 C427 1.429 . S
C426 H436 0.932 1_556 S
C427 C424 1.358 . S
C427 C426 1.429 . S
C427 H437 0.930 . S
C428 C424 1.332 . S
C428 C429 1.394 . S
C428 H438 0.932 . S
C429 C425 1.308 1_556 S
C429 C428 1.394 . S
C429 H439 0.929 1_556 S
C430 Tb401 2.764 . S
C430 O414 1.239 . S
C430 O415 1.263 . S
C430 C424 1.504 . S
C431 O416 1.236 . S
C431 O417 1.257 . S
H432 C405 0.932 . S
H433 C406 0.930 . S
H434 C407 0.932 . S
H435 C408 0.929 . S
H436 C426 0.932 1_554 S
H437 C427 0.930 . S
H438 C428 0.932 . S
H439 C429 0.929 1_554 S
Tb440 C449 2.764 . S
Tb440 O450 2.325 . S
Tb440 O453 2.303 . S
Tb440 O457 2.322 . S
Tb440 O458 2.349 . S
Tb440 O461 2.415 . S
Tb440 O462 2.399 . S
Tb441 O451 2.322 . S
Tb441 O452 2.349 . S
Tb441 O454 2.415 . S
Tb441 O455 2.399 . S
Tb441 O456 2.325 . S
Tb441 O459 2.303 . S
Tb441 C470 2.764 . S
C442 O458 1.261 . S
C442 O459 1.257 . S
C443 C446 1.358 . S
C443 C447 1.332 . S
C443 C449 1.504 . S
C444 C445 1.373 1_556 S
C444 C448 1.308 1_556 S
C445 C444 1.373 1_554 S
C445 C446 1.429 . S
C445 H472 0.932 1_554 S
C446 C443 1.358 . S
C446 C445 1.429 . S
C446 H473 0.930 . S
C447 C443 1.332 . S
C447 C448 1.394 . S
C447 H474 0.932 . S
C448 C444 1.308 1_554 S
C448 C447 1.394 . S
C448 H475 0.929 1_554 S
C449 Tb440 2.764 . S
C449 C443 1.504 . S
C449 O461 1.239 . S
C449 O462 1.263 . S
O450 Tb440 2.325 . S
O450 C460 1.236 . S
O451 Tb441 2.322 . S
O451 C460 1.257 . S
O452 Tb441 2.349 . S
O452 C463 1.261 . S
O453 Tb440 2.303 . S
O453 C463 1.257 . S
O454 Tb441 2.415 . S
O454 C470 1.239 . S
O455 Tb441 2.399 . S
O455 C470 1.263 . S
O456 Tb441 2.325 . S
O456 C471 1.236 . S
O457 Tb440 2.322 . S
O457 C471 1.257 . S
O458 Tb440 2.349 . S
O458 C442 1.261 . S
O459 Tb441 2.303 . S
O459 C442 1.257 . S
C460 O450 1.236 . S
C460 O451 1.257 . S
O461 Tb440 2.415 . S
O461 C449 1.239 . S
O462 Tb440 2.399 . S
O462 C449 1.263 . S
C463 O452 1.261 . S
C463 O453 1.257 . S
C464 C467 1.358 . S
C464 C468 1.332 . S
C464 C470 1.504 . S
C465 C466 1.373 . S
C465 C469 1.308 . S
C466 C465 1.373 . S
C466 C467 1.429 . S
C466 H476 0.932 . S
C467 C464 1.358 . S
C467 C466 1.429 . S
C467 H477 0.930 . S
C468 C464 1.332 . S
C468 C469 1.394 . S
C468 H478 0.932 . S
C469 C465 1.308 . S
C469 C468 1.394 . S
C469 H479 0.929 . S
C470 Tb441 2.764 . S
C470 O454 1.239 . S
C470 O455 1.263 . S
C470 C464 1.504 . S
C471 O456 1.236 . S
C471 O457 1.257 . S
H472 C445 0.932 1_556 S
H473 C446 0.930 . S
H474 C447 0.932 . S
H475 C448 0.929 1_556 S
H476 C466 0.932 . S
H477 C467 0.930 . S
H478 C468 0.932 . S
H479 C469 0.929 . S
Tb480 C489 2.764 . S
Tb480 O490 2.325 . S
Tb480 O493 2.303 . S
Tb480 O497 2.322 . S
Tb480 O498 2.349 . S
Tb480 O501 2.415 . S
Tb480 O502 2.399 . S
Tb481 O491 2.322 . S
Tb481 O492 2.349 . S
Tb481 O494 2.415 . S
Tb481 O495 2.399 . S
Tb481 O496 2.325 . S
Tb481 O499 2.303 . S
Tb481 C510 2.764 . S
C482 O498 1.261 . S
C482 O499 1.257 . S
C483 C486 1.358 . S
C483 C487 1.332 . S
C483 C489 1.504 . S
C484 C485 1.373 1_554 S
C484 C488 1.308 1_554 S
C485 C484 1.373 1_556 S
C485 C486 1.429 . S
C485 H512 0.932 1_556 S
C486 C483 1.358 . S
C486 C485 1.429 . S
C486 H513 0.930 . S
C487 C483 1.332 . S
C487 C488 1.394 . S
C487 H514 0.932 . S
C488 C484 1.308 1_556 S
C488 C487 1.394 . S
C488 H515 0.929 1_556 S
C489 Tb480 2.764 . S
C489 C483 1.504 . S
C489 O501 1.239 . S
C489 O502 1.263 . S
O490 Tb480 2.325 . S
O490 C500 1.236 . S
O491 Tb481 2.322 . S
O491 C500 1.257 . S
O492 Tb481 2.349 . S
O492 C503 1.261 . S
O493 Tb480 2.303 . S
O493 C503 1.257 . S
O494 Tb481 2.415 . S
O494 C510 1.239 . S
O495 Tb481 2.399 . S
O495 C510 1.263 . S
O496 Tb481 2.325 . S
O496 C511 1.236 . S
O497 Tb480 2.322 . S
O497 C511 1.257 . S
O498 Tb480 2.349 . S
O498 C482 1.261 . S
O499 Tb481 2.303 . S
O499 C482 1.257 . S
C500 O490 1.236 . S
C500 O491 1.257 . S
O501 Tb480 2.415 . S
O501 C489 1.239 . S
O502 Tb480 2.399 . S
O502 C489 1.263 . S
C503 O492 1.261 . S
C503 O493 1.257 . S
C504 C507 1.358 . S
C504 C508 1.332 . S
C504 C510 1.504 . S
C505 C506 1.373 . S
C505 C509 1.308 . S
C506 C505 1.373 . S
C506 C507 1.429 . S
C506 H516 0.932 . S
C507 C504 1.358 . S
C507 C506 1.429 . S
C507 H517 0.930 . S
C508 C504 1.332 . S
C508 C509 1.394 . S
C508 H518 0.932 . S
C509 C505 1.308 . S
C509 C508 1.394 . S
C509 H519 0.929 . S
C510 Tb481 2.764 . S
C510 O494 1.239 . S
C510 O495 1.263 . S
C510 C504 1.504 . S
C511 O496 1.236 . S
C511 O497 1.257 . S
H512 C485 0.932 1_554 S
H513 C486 0.930 . S
H514 C487 0.932 . S
H515 C488 0.929 1_554 S
H516 C506 0.932 . S
H517 C507 0.930 . S
H518 C508 0.932 . S
H519 C509 0.929 . S
Tb520 C529 2.764 . S
Tb520 O530 2.325 . S
Tb520 O533 2.303 . S
Tb520 O537 2.322 . S
Tb520 O538 2.349 . S
Tb520 O541 2.415 . S
Tb520 O542 2.399 . S
Tb521 O531 2.322 . S
Tb521 O532 2.349 . S
Tb521 O534 2.415 . S
Tb521 O535 2.399 . S
Tb521 O536 2.325 . S
Tb521 O539 2.303 . S
Tb521 C550 2.764 . S
C522 O538 1.261 . S
C522 O539 1.257 . S
C523 C526 1.358 . S
C523 C527 1.332 . S
C523 C529 1.504 . S
C524 C525 1.373 . S
C524 C528 1.308 . S
C525 C524 1.373 . S
C525 C526 1.429 . S
C525 H552 0.932 . S
C526 C523 1.358 . S
C526 C525 1.429 . S
C526 H553 0.930 . S
C527 C523 1.332 . S
C527 C528 1.394 . S
C527 H554 0.932 . S
C528 C524 1.308 . S
C528 C527 1.394 . S
C528 H555 0.929 . S
C529 Tb520 2.764 . S
C529 C523 1.504 . S
C529 O541 1.239 . S
C529 O542 1.263 . S
O530 Tb520 2.325 . S
O530 C540 1.236 . S
O531 Tb521 2.322 . S
O531 C540 1.257 . S
O532 Tb521 2.349 . S
O532 C543 1.261 . S
O533 Tb520 2.303 . S
O533 C543 1.257 . S
O534 Tb521 2.415 . S
O534 C550 1.239 . S
O535 Tb521 2.399 . S
O535 C550 1.263 . S
O536 Tb521 2.325 . S
O536 C551 1.236 . S
O537 Tb520 2.322 . S
O537 C551 1.257 . S
O538 Tb520 2.349 . S
O538 C522 1.261 . S
O539 Tb521 2.303 . S
O539 C522 1.257 . S
C540 O530 1.236 . S
C540 O531 1.257 . S
O541 Tb520 2.415 . S
O541 C529 1.239 . S
O542 Tb520 2.399 . S
O542 C529 1.263 . S
C543 O532 1.261 . S
C543 O533 1.257 . S
C544 C547 1.358 . S
C544 C548 1.332 . S
C544 C550 1.504 . S
C545 C546 1.373 1_556 S
C545 C549 1.308 1_556 S
C546 C545 1.373 1_554 S
C546 C547 1.429 . S
C546 H556 0.932 1_554 S
C547 C544 1.358 . S
C547 C546 1.429 . S
C547 H557 0.930 . S
C548 C544 1.332 . S
C548 C549 1.394 . S
C548 H558 0.932 . S
C549 C545 1.308 1_554 S
C549 C548 1.394 . S
C549 H559 0.929 1_554 S
C550 Tb521 2.764 . S
C550 O534 1.239 . S
C550 O535 1.263 . S
C550 C544 1.504 . S
C551 O536 1.236 . S
C551 O537 1.257 . S
H552 C525 0.932 . S
H553 C526 0.930 . S
H554 C527 0.932 . S
H555 C528 0.929 . S
H556 C546 0.932 1_556 S
H557 C547 0.930 . S
H558 C548 0.932 . S
H559 C549 0.929 1_556 S
Tb560 C569 2.764 . S
Tb560 O570 2.325 . S
Tb560 O573 2.303 . S
Tb560 O577 2.322 . S
Tb560 O578 2.349 . S
Tb560 O581 2.415 . S
Tb560 O582 2.399 . S
Tb561 O571 2.322 . S
Tb561 O572 2.349 . S
Tb561 O574 2.415 . S
Tb561 O575 2.399 . S
Tb561 O576 2.325 . S
Tb561 O579 2.303 . S
Tb561 C590 2.764 . S
C562 O578 1.261 . S
C562 O579 1.257 . S
C563 C566 1.358 . S
C563 C567 1.332 . S
C563 C569 1.504 . S
C564 C565 1.373 1_554 S
C564 C568 1.308 1_554 S
C565 C564 1.373 1_556 S
C565 C566 1.429 . S
C565 H592 0.932 1_556 S
C566 C563 1.358 . S
C566 C565 1.429 . S
C566 H593 0.930 . S
C567 C563 1.332 . S
C567 C568 1.394 . S
C567 H594 0.932 . S
C568 C564 1.308 1_556 S
C568 C567 1.394 . S
C568 H595 0.929 1_556 S
C569 Tb560 2.764 . S
C569 C563 1.504 . S
C569 O581 1.239 . S
C569 O582 1.263 . S
O570 Tb560 2.325 . S
O570 C580 1.236 . S
O571 Tb561 2.322 . S
O571 C580 1.257 . S
O572 Tb561 2.349 . S
O572 C583 1.261 . S
O573 Tb560 2.303 . S
O573 C583 1.257 . S
O574 Tb561 2.415 . S
O574 C590 1.239 . S
O575 Tb561 2.399 . S
O575 C590 1.263 . S
O576 Tb561 2.325 . S
O576 C591 1.236 . S
O577 Tb560 2.322 . S
O577 C591 1.257 . S
O578 Tb560 2.349 . S
O578 C562 1.261 . S
O579 Tb561 2.303 . S
O579 C562 1.257 . S
C580 O570 1.236 . S
C580 O571 1.257 . S
O581 Tb560 2.415 . S
O581 C569 1.239 . S
O582 Tb560 2.399 . S
O582 C569 1.263 . S
C583 O572 1.261 . S
C583 O573 1.257 . S
C584 C587 1.358 . S
C584 C588 1.332 . S
C584 C590 1.504 . S
C585 C586 1.373 . S
C585 C589 1.308 . S
C586 C585 1.373 . S
C586 C587 1.429 . S
C586 H596 0.932 . S
C587 C584 1.358 . S
C587 C586 1.429 . S
C587 H597 0.930 . S
C588 C584 1.332 . S
C588 C589 1.394 . S
C588 H598 0.932 . S
C589 C585 1.308 . S
C589 C588 1.394 . S
C589 H599 0.929 . S
C590 Tb561 2.764 . S
C590 O574 1.239 . S
C590 O575 1.263 . S
C590 C584 1.504 . S
C591 O576 1.236 . S
C591 O577 1.257 . S
H592 C565 0.932 1_554 S
H593 C566 0.930 . S
H594 C567 0.932 . S
H595 C568 0.929 1_554 S
H596 C586 0.932 . S
H597 C587 0.930 . S
H598 C588 0.932 . S
H599 C589 0.929 . S
Tb600 C609 2.764 . S
Tb600 O610 2.325 . S
Tb600 O613 2.303 . S
Tb600 O617 2.322 . S
Tb600 O618 2.349 . S
Tb600 O621 2.415 . S
Tb600 O622 2.399 . S
Tb601 O611 2.322 . S
Tb601 O612 2.349 . S
Tb601 O614 2.415 . S
Tb601 O615 2.399 . S
Tb601 O616 2.325 . S
Tb601 O619 2.303 . S
Tb601 C630 2.764 . S
C602 O618 1.261 . S
C602 O619 1.257 . S
C603 C606 1.358 . S
C603 C607 1.332 . S
C603 C609 1.504 . S
C604 C605 1.373 . S
C604 C608 1.308 . S
C605 C604 1.373 . S
C605 C606 1.429 . S
C605 H632 0.932 . S
C606 C603 1.358 . S
C606 C605 1.429 . S
C606 H633 0.930 . S
C607 C603 1.332 . S
C607 C608 1.394 . S
C607 H634 0.932 . S
C608 C604 1.308 . S
C608 C607 1.394 . S
C608 H635 0.929 . S
C609 Tb600 2.764 . S
C609 C603 1.504 . S
C609 O621 1.239 . S
C609 O622 1.263 . S
O610 Tb600 2.325 . S
O610 C620 1.236 . S
O611 Tb601 2.322 . S
O611 C620 1.257 . S
O612 Tb601 2.349 . S
O612 C623 1.261 . S
O613 Tb600 2.303 . S
O613 C623 1.257 . S
O614 Tb601 2.415 . S
O614 C630 1.239 . S
O615 Tb601 2.399 . S
O615 C630 1.263 . S
O616 Tb601 2.325 . S
O616 C631 1.236 . S
O617 Tb600 2.322 . S
O617 C631 1.257 . S
O618 Tb600 2.349 . S
O618 C602 1.261 . S
O619 Tb601 2.303 . S
O619 C602 1.257 . S
C620 O610 1.236 . S
C620 O611 1.257 . S
O621 Tb600 2.415 . S
O621 C609 1.239 . S
O622 Tb600 2.399 . S
O622 C609 1.263 . S
C623 O612 1.261 . S
C623 O613 1.257 . S
C624 C627 1.358 . S
C624 C628 1.332 . S
C624 C630 1.504 . S
C625 C626 1.373 1_556 S
C625 C629 1.308 1_556 S
C626 C625 1.373 1_554 S
C626 C627 1.429 . S
C626 H636 0.932 1_554 S
C627 C624 1.358 . S
C627 C626 1.429 . S
C627 H637 0.930 . S
C628 C624 1.332 . S
C628 C629 1.394 . S
C628 H638 0.932 . S
C629 C625 1.308 1_554 S
C629 C628 1.394 . S
C629 H639 0.929 1_554 S
C630 Tb601 2.764 . S
C630 O614 1.239 . S
C630 O615 1.263 . S
C630 C624 1.504 . S
C631 O616 1.236 . S
C631 O617 1.257 . S
H632 C605 0.932 . S
H633 C606 0.930 . S
H634 C607 0.932 . S
H635 C608 0.929 . S
H636 C626 0.932 1_556 S
H637 C627 0.930 . S
H638 C628 0.932 . S
H639 C629 0.929 1_556 S
C640 C641 1.369 . S
C640 C642 1.419 . S
C640 H644 0.930 . S
C641 C640 1.369 . S
C641 C650 1.429 . S
C642 C640 1.419 . S
C642 C643 1.363 . S
C642 H645 0.929 . S
C643 C642 1.363 . S
C643 C649 1.428 . S
H644 C640 0.930 . S
H645 C642 0.929 . S
S646 N647 1.613 . S
S646 N648 1.610 . S
N647 S646 1.613 . S
N647 C650 1.350 . S
N648 S646 1.610 . S
N648 C649 1.351 . S
C649 C643 1.428 . S
C649 N648 1.351 . S
C649 C650 1.434 . S
C650 C641 1.429 . S
C650 N647 1.350 . S
C650 C649 1.434 . S
C651 C652 1.369 . S
C651 C653 1.419 . S
C651 H655 0.930 . S
C652 C651 1.369 . S
C652 C661 1.429 . S
C653 C651 1.419 . S
C653 C654 1.363 . S
C653 H656 0.929 . S
C654 C653 1.363 . S
C654 C660 1.428 . S
H655 C651 0.930 . S
H656 C653 0.929 . S
S657 N658 1.613 1_455 S
S657 N659 1.610 . S
N658 S657 1.613 1_655 S
N658 C661 1.350 . S
N659 S657 1.610 . S
N659 C660 1.351 1_455 S
C660 C654 1.428 . S
C660 N659 1.351 1_655 S
C660 C661 1.434 . S
C661 C652 1.429 . S
C661 N658 1.350 . S
C661 C660 1.434 . S
C662 C663 1.369 . S
C662 C664 1.419 . S
C662 H666 0.930 1_545 S
C663 C662 1.369 . S
C663 C672 1.429 . S
C664 C662 1.419 . S
C664 C665 1.363 . S
C664 H667 0.929 . S
C665 C664 1.363 . S
C665 C671 1.428 . S
H666 C662 0.930 1_565 S
H667 C664 0.929 . S
S668 N669 1.613 . S
S668 N670 1.610 . S
N669 S668 1.613 . S
N669 C672 1.350 . S
N670 S668 1.610 . S
N670 C671 1.351 . S
C671 C665 1.428 . S
C671 N670 1.351 . S
C671 C672 1.434 . S
C672 C663 1.429 . S
C672 N669 1.350 . S
C672 C671 1.434 . S
C673 C674 1.369 . S
C673 C675 1.419 . S
C673 H677 0.930 1_455 S
C674 C673 1.369 . S
C674 C683 1.429 . S
C675 C673 1.419 . S
C675 C676 1.363 . S
C675 H678 0.929 . S
C676 C675 1.363 . S
C676 C682 1.428 . S
H677 C673 0.930 1_655 S
H678 C675 0.929 . S
S679 N680 1.613 . S
S679 N681 1.610 . S
N680 S679 1.613 . S
N680 C683 1.350 . S
N681 S679 1.610 . S
N681 C682 1.351 . S
C682 C676 1.428 . S
C682 N681 1.351 . S
C682 C683 1.434 . S
C683 C674 1.429 . S
C683 N680 1.350 . S
C683 C682 1.434 . S
C684 C685 1.369 . S
C684 C686 1.419 1_554 S
C684 H688 0.930 1_554 S
C685 C684 1.369 . S
C685 C694 1.429 . S
C686 C684 1.419 1_556 S
C686 C687 1.363 . S
C686 H689 0.929 . S
C687 C686 1.363 . S
C687 C693 1.428 1_556 S
H688 C684 0.930 1_556 S
H689 C686 0.929 . S
S690 N691 1.613 . S
S690 N692 1.610 . S
N691 S690 1.613 . S
N691 C694 1.350 . S
N692 S690 1.610 . S
N692 C693 1.351 . S
C693 C687 1.428 1_554 S
C693 N692 1.351 . S
C693 C694 1.434 . S
C694 C685 1.429 . S
C694 N691 1.350 . S
C694 C693 1.434 . S
C695 C696 1.369 1_556 S
C695 C697 1.419 . S
C695 H699 0.930 . S
C696 C695 1.369 1_554 S
C696 C705 1.429 . S
C697 C695 1.419 . S
C697 C698 1.363 . S
C697 H700 0.929 . S
C698 C697 1.363 . S
C698 C704 1.428 . S
H699 C695 0.930 . S
H700 C697 0.929 . S
S701 N702 1.613 . S
S701 N703 1.610 . S
N702 S701 1.613 . S
N702 C705 1.350 . S
N703 S701 1.610 . S
N703 C704 1.351 1_554 S
C704 C698 1.428 . S
C704 N703 1.351 1_556 S
C704 C705 1.434 1_556 S
C705 C696 1.429 . S
C705 N702 1.350 . S
C705 C704 1.434 1_554 S
C706 C707 1.369 . S
C706 C708 1.419 1_554 S
C706 H710 0.930 . S
C707 C706 1.369 . S
C707 C716 1.429 . S
C708 C706 1.419 1_556 S
C708 C709 1.363 . S
C708 H711 0.929 . S
C709 C708 1.363 . S
C709 C715 1.428 1_556 S
H710 C706 0.930 . S
H711 C708 0.929 . S
S712 N713 1.613 . S
S712 N714 1.610 . S
N713 S712 1.613 . S
N713 C716 1.350 . S
N714 S712 1.610 . S
N714 C715 1.351 . S
C715 C709 1.428 1_554 S
C715 N714 1.351 . S
C715 C716 1.434 . S
C716 C707 1.429 . S
C716 N713 1.350 . S
C716 C715 1.434 . S
C717 C718 1.369 . S
C717 C719 1.419 1_554 S
C717 H721 0.930 . S
C718 C717 1.369 . S
C718 C727 1.429 1_554 S
C719 C717 1.419 1_556 S
C719 C720 1.363 . S
C719 H722 0.929 1_556 S
C720 C719 1.363 . S
C720 C726 1.428 . S
H721 C717 0.930 . S
H722 C719 0.929 1_554 S
S723 N724 1.613 . S
S723 N725 1.610 . S
N724 S723 1.613 . S
N724 C727 1.350 . S
N725 S723 1.610 . S
N725 C726 1.351 . S
C726 C720 1.428 . S
C726 N725 1.351 . S
C726 C727 1.434 . S
C727 C718 1.429 1_556 S
C727 N724 1.350 . S
C727 C726 1.434 . S
C728 C729 1.369 . S
C728 C730 1.419 . S
C728 H732 0.930 . S
C729 C728 1.369 . S
C729 C738 1.429 . S
C730 C728 1.419 . S
C730 C731 1.363 . S
C730 H733 0.929 . S
C731 C730 1.363 . S
C731 C737 1.428 . S
H732 C728 0.930 . S
H733 C730 0.929 . S
S734 N735 1.613 . S
S734 N736 1.610 . S
N735 S734 1.613 . S
N735 C738 1.350 . S
N736 S734 1.610 . S
N736 C737 1.351 . S
C737 C731 1.428 . S
C737 N736 1.351 . S
C737 C738 1.434 . S
C738 C729 1.429 . S
C738 N735 1.350 . S
C738 C737 1.434 . S
C739 C740 1.369 . S
C739 C741 1.419 . S
C739 H743 0.930 . S
C740 C739 1.369 . S
C740 C749 1.429 . S
C741 C739 1.419 . S
C741 C742 1.363 . S
C741 H744 0.929 . S
C742 C741 1.363 . S
C742 C748 1.428 . S
H743 C739 0.930 . S
H744 C741 0.929 . S
S745 N746 1.613 . S
S745 N747 1.610 . S
N746 S745 1.613 . S
N746 C749 1.350 . S
N747 S745 1.610 . S
N747 C748 1.351 . S
C748 C742 1.428 . S
C748 N747 1.351 . S
C748 C749 1.434 . S
C749 C740 1.429 . S
C749 N746 1.350 . S
C749 C748 1.434 . S
C750 C751 1.369 . S
C750 C752 1.419 . S
C750 H754 0.930 . S
C751 C750 1.369 . S
C751 C760 1.429 . S
C752 C750 1.419 . S
C752 C753 1.363 . S
C752 H755 0.929 . S
C753 C752 1.363 . S
C753 C759 1.428 . S
H754 C750 0.930 . S
H755 C752 0.929 . S
S756 N757 1.613 . S
S756 N758 1.610 . S
N757 S756 1.613 . S
N757 C760 1.350 . S
N758 S756 1.610 . S
N758 C759 1.351 . S
C759 C753 1.428 . S
C759 N758 1.351 . S
C759 C760 1.434 . S
C760 C751 1.429 . S
C760 N757 1.350 . S
C760 C759 1.434 . S
C761 C762 1.369 . S
C761 C763 1.419 . S
C761 H765 0.930 . S
C762 C761 1.369 . S
C762 C771 1.429 . S
C763 C761 1.419 . S
C763 C764 1.363 . S
C763 H766 0.929 . S
C764 C763 1.363 . S
C764 C770 1.428 . S
H765 C761 0.930 . S
H766 C763 0.929 . S
S767 N768 1.613 . S
S767 N769 1.610 . S
N768 S767 1.613 . S
N768 C771 1.350 . S
N769 S767 1.610 . S
N769 C770 1.351 . S
C770 C764 1.428 . S
C770 N769 1.351 . S
C770 C771 1.434 . S
C771 C762 1.429 . S
C771 N768 1.350 . S
C771 C770 1.434 . S
C772 C773 1.369 . S
C772 C774 1.419 . S
C772 H776 0.930 . S
C773 C772 1.369 . S
C773 C782 1.429 . S
C774 C772 1.419 . S
C774 C775 1.363 . S
C774 H777 0.929 . S
C775 C774 1.363 . S
C775 C781 1.428 . S
H776 C772 0.930 . S
H777 C774 0.929 . S
S778 N779 1.613 . S
S778 N780 1.610 1_565 S
N779 S778 1.613 . S
N779 C782 1.350 1_565 S
N780 S778 1.610 1_545 S
N780 C781 1.351 . S
C781 C775 1.428 . S
C781 N780 1.351 . S
C781 C782 1.434 . S
C782 C773 1.429 . S
C782 N779 1.350 1_545 S
C782 C781 1.434 . S
C783 C784 1.369 . S
C783 C785 1.419 . S
C783 H787 0.930 . S
C784 C783 1.369 . S
C784 C793 1.429 . S
C785 C783 1.419 . S
C785 C786 1.363 . S
C785 H788 0.929 . S
C786 C785 1.363 . S
C786 C792 1.428 . S
H787 C783 0.930 . S
H788 C785 0.929 . S
S789 N790 1.613 1_655 S
S789 N791 1.610 . S
N790 S789 1.613 1_455 S
N790 C793 1.350 . S
N791 S789 1.610 . S
N791 C792 1.351 1_655 S
C792 C786 1.428 . S
C792 N791 1.351 1_455 S
C792 C793 1.434 . S
C793 C784 1.429 . S
C793 N790 1.350 . S
C793 C792 1.434 . S
C794 C795 1.369 . S
C794 C796 1.419 . S
C794 H798 0.930 . S
C795 C794 1.369 . S
C795 C804 1.429 . S
C796 C794 1.419 . S
C796 C797 1.363 . S
C796 H799 0.929 1_565 S
C797 C796 1.363 . S
C797 C803 1.428 . S
H798 C794 0.930 . S
H799 C796 0.929 1_545 S
S800 N801 1.613 . S
S800 N802 1.610 . S
N801 S800 1.613 . S
N801 C804 1.350 . S
N802 S800 1.610 . S
N802 C803 1.351 . S
C803 C797 1.428 . S
C803 N802 1.351 . S
C803 C804 1.434 . S
C804 C795 1.429 . S
C804 N801 1.350 . S
C804 C803 1.434 . S
C805 C806 1.369 . S
C805 C807 1.419 . S
C805 H809 0.930 1_655 S
C806 C805 1.369 . S
C806 C815 1.429 . S
C807 C805 1.419 . S
C807 C808 1.363 . S
C807 H810 0.929 . S
C808 C807 1.363 . S
C808 C814 1.428 . S
H809 C805 0.930 1_455 S
H810 C807 0.929 . S
S811 N812 1.613 . S
S811 N813 1.610 . S
N812 S811 1.613 . S
N812 C815 1.350 . S
N813 S811 1.610 . S
N813 C814 1.351 . S
C814 C808 1.428 . S
C814 N813 1.351 . S
C814 C815 1.434 . S
C815 C806 1.429 . S
C815 N812 1.350 . S
C815 C814 1.434 . S
C816 C817 1.369 . S
C816 C818 1.419 . S
C816 H820 0.930 . S
C817 C816 1.369 . S
C817 C826 1.429 . S
C818 C816 1.419 . S
C818 C819 1.363 . S
C818 H821 0.929 . S
C819 C818 1.363 . S
C819 C825 1.428 . S
H820 C816 0.930 . S
H821 C818 0.929 . S
S822 N823 1.613 1_556 S
S822 N824 1.610 1_556 S
N823 S822 1.613 1_554 S
N823 C826 1.350 . S
N824 S822 1.610 1_554 S
N824 C825 1.351 . S
C825 C819 1.428 . S
C825 N824 1.351 . S
C825 C826 1.434 . S
C826 C817 1.429 . S
C826 N823 1.350 . S
C826 C825 1.434 . S
C827 C828 1.369 . S
C827 C829 1.419 . S
C827 H831 0.930 . S
C828 C827 1.369 . S
C828 C837 1.429 . S
C829 C827 1.419 . S
C829 C830 1.363 . S
C829 H832 0.929 . S
C830 C829 1.363 . S
C830 C836 1.428 . S
H831 C827 0.930 . S
H832 C829 0.929 . S
S833 N834 1.613 1_554 S
S833 N835 1.610 1_554 S
N834 S833 1.613 1_556 S
N834 C837 1.350 . S
N835 S833 1.610 1_556 S
N835 C836 1.351 . S
C836 C830 1.428 . S
C836 N835 1.351 . S
C836 C837 1.434 . S
C837 C828 1.429 . S
C837 N834 1.350 . S
C837 C836 1.434 . S
C838 C839 1.369 . S
C838 C840 1.419 . S
C838 H842 0.930 . S
C839 C838 1.369 . S
C839 C848 1.429 . S
C840 C838 1.419 . S
C840 C841 1.363 . S
C840 H843 0.929 . S
C841 C840 1.363 . S
C841 C847 1.428 . S
H842 C838 0.930 . S
H843 C840 0.929 . S
S844 N845 1.613 . S
S844 N846 1.610 . S
N845 S844 1.613 . S
N845 C848 1.350 . S
N846 S844 1.610 . S
N846 C847 1.351 . S
C847 C841 1.428 . S
C847 N846 1.351 . S
C847 C848 1.434 . S
C848 C839 1.429 . S
C848 N845 1.350 . S
C848 C847 1.434 . S
C849 C850 1.369 . S
C849 C851 1.419 . S
C849 H853 0.930 . S
C850 C849 1.369 . S
C850 C859 1.429 . S
C851 C849 1.419 . S
C851 C852 1.363 . S
C851 H854 0.929 . S
C852 C851 1.363 . S
C852 C858 1.428 . S
H853 C849 0.930 . S
H854 C851 0.929 . S
S855 N856 1.613 1_554 S
S855 N857 1.610 1_554 S
N856 S855 1.613 1_556 S
N856 C859 1.350 . S
N857 S855 1.610 1_556 S
N857 C858 1.351 . S
C858 C852 1.428 . S
C858 N857 1.351 . S
C858 C859 1.434 . S
C859 C850 1.429 . S
C859 N856 1.350 . S
C859 C858 1.434 . S
C860 C861 1.369 . S
C860 C862 1.419 . S
C860 H864 0.930 . S
C861 C860 1.369 . S
C861 C870 1.429 . S
C862 C860 1.419 . S
C862 C863 1.363 . S
C862 H865 0.929 . S
C863 C862 1.363 . S
C863 C869 1.428 . S
H864 C860 0.930 . S
H865 C862 0.929 . S
S866 N867 1.613 . S
S866 N868 1.610 . S
N867 S866 1.613 . S
N867 C870 1.350 . S
N868 S866 1.610 . S
N868 C869 1.351 . S
C869 C863 1.428 . S
C869 N868 1.351 . S
C869 C870 1.434 . S
C870 C861 1.429 . S
C870 N867 1.350 . S
C870 C869 1.434 . S
C871 C872 1.369 . S
C871 C873 1.419 . S
C871 H875 0.930 . S
C872 C871 1.369 . S
C872 C881 1.429 . S
C873 C871 1.419 . S
C873 C874 1.363 . S
C873 H876 0.929 . S
C874 C873 1.363 . S
C874 C880 1.428 . S
H875 C871 0.930 . S
H876 C873 0.929 . S
S877 N878 1.613 . S
S877 N879 1.610 . S
N878 S877 1.613 . S
N878 C881 1.350 . S
N879 S877 1.610 . S
N879 C880 1.351 . S
C880 C874 1.428 . S
C880 N879 1.351 . S
C880 C881 1.434 . S
C881 C872 1.429 . S
C881 N878 1.350 . S
C881 C880 1.434 . S
C882 C883 1.369 . S
C882 C884 1.419 . S
C882 H886 0.930 . S
C883 C882 1.369 . S
C883 C892 1.429 . S
C884 C882 1.419 . S
C884 C885 1.363 . S
C884 H887 0.929 . S
C885 C884 1.363 . S
C885 C891 1.428 . S
H886 C882 0.930 . S
H887 C884 0.929 . S
S888 N889 1.613 . S
S888 N890 1.610 . S
N889 S888 1.613 . S
N889 C892 1.350 . S
N890 S888 1.610 . S
N890 C891 1.351 . S
C891 C885 1.428 . S
C891 N890 1.351 . S
C891 C892 1.434 . S
C892 C883 1.429 . S
C892 N889 1.350 . S
C892 C891 1.434 . S
C893 C894 1.369 . S
C893 C895 1.419 . S
C893 H897 0.930 . S
C894 C893 1.369 . S
C894 C903 1.429 . S
C895 C893 1.419 . S
C895 C896 1.363 . S
C895 H898 0.929 . S
C896 C895 1.363 . S
C896 C902 1.428 . S
H897 C893 0.930 . S
H898 C895 0.929 . S
S899 N900 1.613 . S
S899 N901 1.610 . S
N900 S899 1.613 . S
N900 C903 1.350 . S
N901 S899 1.610 . S
N901 C902 1.351 . S
C902 C896 1.428 . S
C902 N901 1.351 . S
C902 C903 1.434 . S
C903 C894 1.429 . S
C903 N900 1.350 . S
C903 C902 1.434 . S
C904 C905 1.369 . S
C904 C906 1.419 . S
C904 H908 0.930 . S
C905 C904 1.369 . S
C905 C914 1.429 . S
C906 C904 1.419 . S
C906 C907 1.363 . S
C906 H909 0.929 . S
C907 C906 1.363 . S
C907 C913 1.428 . S
H908 C904 0.930 . S
H909 C906 0.929 . S
S910 N911 1.613 . S
S910 N912 1.610 . S
N911 S910 1.613 . S
N911 C914 1.350 . S
N912 S910 1.610 . S
N912 C913 1.351 . S
C913 C907 1.428 . S
C913 N912 1.351 . S
C913 C914 1.434 . S
C914 C905 1.429 . S
C914 N911 1.350 . S
C914 C913 1.434 . S
C915 C916 1.369 . S
C915 C917 1.419 . S
C915 H919 0.930 . S
C916 C915 1.369 . S
C916 C925 1.429 . S
C917 C915 1.419 . S
C917 C918 1.363 . S
C917 H920 0.929 . S
C918 C917 1.363 . S
C918 C924 1.428 . S
H919 C915 0.930 . S
H920 C917 0.929 . S
S921 N922 1.613 . S
S921 N923 1.610 . S
N922 S921 1.613 . S
N922 C925 1.350 . S
N923 S921 1.610 . S
N923 C924 1.351 . S
C924 C918 1.428 . S
C924 N923 1.351 . S
C924 C925 1.434 . S
C925 C916 1.429 . S
C925 N922 1.350 . S
C925 C924 1.434 . S
C926 C927 1.369 . S
C926 C928 1.419 . S
C926 H930 0.930 . S
C927 C926 1.369 . S
C927 C936 1.429 . S
C928 C926 1.419 . S
C928 C929 1.363 . S
C928 H931 0.929 . S
C929 C928 1.363 . S
C929 C935 1.428 . S
H930 C926 0.930 . S
H931 C928 0.929 . S
S932 N933 1.613 . S
S932 N934 1.610 . S
N933 S932 1.613 . S
N933 C936 1.350 . S
N934 S932 1.610 . S
N934 C935 1.351 . S
C935 C929 1.428 . S
C935 N934 1.351 . S
C935 C936 1.434 . S
C936 C927 1.429 . S
C936 N933 1.350 . S
C936 C935 1.434 . S
C937 C938 1.369 . S
C937 C939 1.419 . S
C937 H941 0.930 . S
C938 C937 1.369 . S
C938 C947 1.429 . S
C939 C937 1.419 . S
C939 C940 1.363 . S
C939 H942 0.929 . S
C940 C939 1.363 . S
C940 C946 1.428 . S
H941 C937 0.930 . S
H942 C939 0.929 . S
S943 N944 1.613 . S
S943 N945 1.610 . S
N944 S943 1.613 . S
N944 C947 1.350 . S
N945 S943 1.610 . S
N945 C946 1.351 . S
C946 C940 1.428 . S
C946 N945 1.351 . S
C946 C947 1.434 . S
C947 C938 1.429 . S
C947 N944 1.350 . S
C947 C946 1.434 . S
C948 C949 1.369 . S
C948 C950 1.419 . S
C948 H952 0.930 . S
C949 C948 1.369 . S
C949 C958 1.429 . S
C950 C948 1.419 . S
C950 C951 1.363 . S
C950 H953 0.929 . S
C951 C950 1.363 . S
C951 C957 1.428 . S
H952 C948 0.930 . S
H953 C950 0.929 . S
S954 N955 1.613 . S
S954 N956 1.610 . S
N955 S954 1.613 . S
N955 C958 1.350 . S
N956 S954 1.610 . S
N956 C957 1.351 . S
C957 C951 1.428 . S
C957 N956 1.351 . S
C957 C958 1.434 . S
C958 C949 1.429 . S
C958 N955 1.350 . S
C958 C957 1.434 . S
C959 C960 1.369 . S
C959 C961 1.419 . S
C959 H963 0.930 . S
C960 C959 1.369 . S
C960 C969 1.429 . S
C961 C959 1.419 . S
C961 C962 1.363 . S
C961 H964 0.929 . S
C962 C961 1.363 . S
C962 C968 1.428 . S
H963 C959 0.930 . S
H964 C961 0.929 . S
S965 N966 1.613 . S
S965 N967 1.610 . S
N966 S965 1.613 . S
N966 C969 1.350 . S
N967 S965 1.610 . S
N967 C968 1.351 . S
C968 C962 1.428 . S
C968 N967 1.351 . S
C968 C969 1.434 . S
C969 C960 1.429 . S
C969 N966 1.350 . S
C969 C968 1.434 . S
C970 C971 1.369 . S
C970 C972 1.419 . S
C970 H974 0.930 . S
C971 C970 1.369 . S
C971 C980 1.429 . S
C972 C970 1.419 . S
C972 C973 1.363 . S
C972 H975 0.929 . S
C973 C972 1.363 . S
C973 C979 1.428 . S
H974 C970 0.930 . S
H975 C972 0.929 . S
S976 N977 1.613 . S
S976 N978 1.610 . S
N977 S976 1.613 . S
N977 C980 1.350 . S
N978 S976 1.610 . S
N978 C979 1.351 . S
C979 C973 1.428 . S
C979 N978 1.351 . S
C979 C980 1.434 . S
C980 C971 1.429 . S
C980 N977 1.350 . S
C980 C979 1.434 . S
C981 C982 1.369 . S
C981 C983 1.419 . S
C981 H985 0.930 . S
C982 C981 1.369 . S
C982 C991 1.429 . S
C983 C981 1.419 . S
C983 C984 1.363 . S
C983 H986 0.929 . S
C984 C983 1.363 . S
C984 C990 1.428 . S
H985 C981 0.930 . S
H986 C983 0.929 . S
S987 N988 1.613 . S
S987 N989 1.610 . S
N988 S987 1.613 . S
N988 C991 1.350 . S
N989 S987 1.610 . S
N989 C990 1.351 . S
C990 C984 1.428 . S
C990 N989 1.351 . S
C990 C991 1.434 . S
C991 C982 1.429 . S
C991 N988 1.350 . S
C991 C990 1.434 . S
C992 C993 1.369 . S
C992 C994 1.419 . S
C992 H996 0.930 . S
C993 C992 1.369 . S
C993 C1002 1.429 . S
C994 C992 1.419 . S
C994 C995 1.363 . S
C994 H997 0.929 . S
C995 C994 1.363 . S
C995 C1001 1.428 . S
H996 C992 0.930 . S
H997 C994 0.929 . S
S998 N999 1.613 . S
S998 N1000 1.610 . S
N999 S998 1.613 . S
N999 C1002 1.350 . S
N1000 S998 1.610 . S
N1000 C1001 1.351 . S
C1001 C995 1.428 . S
C1001 N1000 1.351 . S
C1001 C1002 1.434 . S
C1002 C993 1.429 . S
C1002 N999 1.350 . S
C1002 C1001 1.434 . S
C1003 C1004 1.369 . S
C1003 C1005 1.419 . S
C1003 H1007 0.930 . S
C1004 C1003 1.369 . S
C1004 C1013 1.429 . S
C1005 C1003 1.419 . S
C1005 C1006 1.363 . S
C1005 H1008 0.929 . S
C1006 C1005 1.363 . S
C1006 C1012 1.428 . S
H1007 C1003 0.930 . S
H1008 C1005 0.929 . S
S1009 N1010 1.613 . S
S1009 N1011 1.610 . S
N1010 S1009 1.613 . S
N1010 C1013 1.350 . S
N1011 S1009 1.610 . S
N1011 C1012 1.351 . S
C1012 C1006 1.428 . S
C1012 N1011 1.351 . S
C1012 C1013 1.434 . S
C1013 C1004 1.429 . S
C1013 N1010 1.350 . S
C1013 C1012 1.434 . S
C1014 C1015 1.369 . S
C1014 C1016 1.419 . S
C1014 H1018 0.930 . S
C1015 C1014 1.369 . S
C1015 C1024 1.429 . S
C1016 C1014 1.419 . S
C1016 C1017 1.363 . S
C1016 H1019 0.929 . S
C1017 C1016 1.363 . S
C1017 C1023 1.428 . S
H1018 C1014 0.930 . S
H1019 C1016 0.929 . S
S1020 N1021 1.613 . S
S1020 N1022 1.610 . S
N1021 S1020 1.613 . S
N1021 C1024 1.350 . S
N1022 S1020 1.610 . S
N1022 C1023 1.351 . S
C1023 C1017 1.428 . S
C1023 N1022 1.351 . S
C1023 C1024 1.434 . S
C1024 C1015 1.429 . S
C1024 N1021 1.350 . S
C1024 C1023 1.434 . S
C1025 C1026 1.369 . S
C1025 C1027 1.419 . S
C1025 H1029 0.930 . S
C1026 C1025 1.369 . S
C1026 C1035 1.429 . S
C1027 C1025 1.419 . S
C1027 C1028 1.363 . S
C1027 H1030 0.929 . S
C1028 C1027 1.363 . S
C1028 C1034 1.428 . S
H1029 C1025 0.930 . S
H1030 C1027 0.929 . S
S1031 N1032 1.613 . S
S1031 N1033 1.610 . S
N1032 S1031 1.613 . S
N1032 C1035 1.350 . S
N1033 S1031 1.610 . S
N1033 C1034 1.351 . S
C1034 C1028 1.428 . S
C1034 N1033 1.351 . S
C1034 C1035 1.434 . S
C1035 C1026 1.429 . S
C1035 N1032 1.350 . S
C1035 C1034 1.434 . S
C1036 C1037 1.369 . S
C1036 C1038 1.419 . S
C1036 H1040 0.930 . S
C1037 C1036 1.369 . S
C1037 C1046 1.429 . S
C1038 C1036 1.419 . S
C1038 C1039 1.363 . S
C1038 H1041 0.929 . S
C1039 C1038 1.363 . S
C1039 C1045 1.428 . S
H1040 C1036 0.930 . S
H1041 C1038 0.929 . S
S1042 N1043 1.613 . S
S1042 N1044 1.610 . S
N1043 S1042 1.613 . S
N1043 C1046 1.350 . S
N1044 S1042 1.610 . S
N1044 C1045 1.351 . S
C1045 C1039 1.428 . S
C1045 N1044 1.351 . S
C1045 C1046 1.434 . S
C1046 C1037 1.429 . S
C1046 N1043 1.350 . S
C1046 C1045 1.434 . S
C1047 C1048 1.369 . S
C1047 C1049 1.419 . S
C1047 H1051 0.930 . S
C1048 C1047 1.369 . S
C1048 C1057 1.429 . S
C1049 C1047 1.419 . S
C1049 C1050 1.363 . S
C1049 H1052 0.929 . S
C1050 C1049 1.363 . S
C1050 C1056 1.428 . S
H1051 C1047 0.930 . S
H1052 C1049 0.929 . S
S1053 N1054 1.613 . S
S1053 N1055 1.610 . S
N1054 S1053 1.613 . S
N1054 C1057 1.350 . S
N1055 S1053 1.610 . S
N1055 C1056 1.351 . S
C1056 C1050 1.428 . S
C1056 N1055 1.351 . S
C1056 C1057 1.434 . S
C1057 C1048 1.429 . S
C1057 N1054 1.350 . S
C1057 C1056 1.434 . S
C1058 C1059 1.369 . S
C1058 C1060 1.419 . S
C1058 H1062 0.930 . S
C1059 C1058 1.369 . S
C1059 C1068 1.429 . S
C1060 C1058 1.419 . S
C1060 C1061 1.363 . S
C1060 H1063 0.929 . S
C1061 C1060 1.363 . S
C1061 C1067 1.428 . S
H1062 C1058 0.930 . S
H1063 C1060 0.929 . S
S1064 N1065 1.613 . S
S1064 N1066 1.610 . S
N1065 S1064 1.613 . S
N1065 C1068 1.350 . S
N1066 S1064 1.610 . S
N1066 C1067 1.351 . S
C1067 C1061 1.428 . S
C1067 N1066 1.351 . S
C1067 C1068 1.434 . S
C1068 C1059 1.429 . S
C1068 N1065 1.350 . S
C1068 C1067 1.434 . S
C1069 C1070 1.369 . S
C1069 C1071 1.419 . S
C1069 H1073 0.930 . S
C1070 C1069 1.369 . S
C1070 C1079 1.429 . S
C1071 C1069 1.419 . S
C1071 C1072 1.363 . S
C1071 H1074 0.929 . S
C1072 C1071 1.363 . S
C1072 C1078 1.428 . S
H1073 C1069 0.930 . S
H1074 C1071 0.929 . S
S1075 N1076 1.613 . S
S1075 N1077 1.610 . S
N1076 S1075 1.613 . S
N1076 C1079 1.350 . S
N1077 S1075 1.610 . S
N1077 C1078 1.351 . S
C1078 C1072 1.428 . S
C1078 N1077 1.351 . S
C1078 C1079 1.434 . S
C1079 C1070 1.429 . S
C1079 N1076 1.350 . S
C1079 C1078 1.434 . S
C1080 C1081 1.369 . S
C1080 C1082 1.419 . S
C1080 H1084 0.930 . S
C1081 C1080 1.369 . S
C1081 C1090 1.429 . S
C1082 C1080 1.419 . S
C1082 C1083 1.363 . S
C1082 H1085 0.929 . S
C1083 C1082 1.363 . S
C1083 C1089 1.428 . S
H1084 C1080 0.930 . S
H1085 C1082 0.929 . S
S1086 N1087 1.613 . S
S1086 N1088 1.610 . S
N1087 S1086 1.613 . S
N1087 C1090 1.350 . S
N1088 S1086 1.610 . S
N1088 C1089 1.351 . S
C1089 C1083 1.428 . S
C1089 N1088 1.351 . S
C1089 C1090 1.434 . S
C1090 C1081 1.429 . S
C1090 N1087 1.350 . S
C1090 C1089 1.434 . S
C1091 C1092 1.369 . S
C1091 C1093 1.419 . S
C1091 H1095 0.930 . S
C1092 C1091 1.369 . S
C1092 C1101 1.429 . S
C1093 C1091 1.419 . S
C1093 C1094 1.363 . S
C1093 H1096 0.929 . S
C1094 C1093 1.363 . S
C1094 C1100 1.428 . S
H1095 C1091 0.930 . S
H1096 C1093 0.929 . S
S1097 N1098 1.613 . S
S1097 N1099 1.610 . S
N1098 S1097 1.613 . S
N1098 C1101 1.350 . S
N1099 S1097 1.610 . S
N1099 C1100 1.351 . S
C1100 C1094 1.428 . S
C1100 N1099 1.351 . S
C1100 C1101 1.434 . S
C1101 C1092 1.429 . S
C1101 N1098 1.350 . S
C1101 C1100 1.434 . S
C1102 C1103 1.369 . S
C1102 C1104 1.419 . S
C1102 H1106 0.930 . S
C1103 C1102 1.369 . S
C1103 C1112 1.429 . S
C1104 C1102 1.419 . S
C1104 C1105 1.363 . S
C1104 H1107 0.929 . S
C1105 C1104 1.363 . S
C1105 C1111 1.428 . S
H1106 C1102 0.930 . S
H1107 C1104 0.929 . S
S1108 N1109 1.613 . S
S1108 N1110 1.610 . S
N1109 S1108 1.613 . S
N1109 C1112 1.350 . S
N1110 S1108 1.610 . S
N1110 C1111 1.351 . S
C1111 C1105 1.428 . S
C1111 N1110 1.351 . S
C1111 C1112 1.434 . S
C1112 C1103 1.429 . S
C1112 N1109 1.350 . S
C1112 C1111 1.434 . S
C1113 C1114 1.369 . S
C1113 C1115 1.419 . S
C1113 H1117 0.930 . S
C1114 C1113 1.369 . S
C1114 C1123 1.429 . S
C1115 C1113 1.419 . S
C1115 C1116 1.363 . S
C1115 H1118 0.929 . S
C1116 C1115 1.363 . S
C1116 C1122 1.428 . S
H1117 C1113 0.930 . S
H1118 C1115 0.929 . S
S1119 N1120 1.613 . S
S1119 N1121 1.610 . S
N1120 S1119 1.613 . S
N1120 C1123 1.350 . S
N1121 S1119 1.610 . S
N1121 C1122 1.351 . S
C1122 C1116 1.428 . S
C1122 N1121 1.351 . S
C1122 C1123 1.434 . S
C1123 C1114 1.429 . S
C1123 N1120 1.350 . S
C1123 C1122 1.434 . S
C1124 C1125 1.369 . S
C1124 C1126 1.419 . S
C1124 H1128 0.930 . S
C1125 C1124 1.369 . S
C1125 C1134 1.429 . S
C1126 C1124 1.419 . S
C1126 C1127 1.363 . S
C1126 H1129 0.929 . S
C1127 C1126 1.363 . S
C1127 C1133 1.428 . S
H1128 C1124 0.930 . S
H1129 C1126 0.929 . S
S1130 N1131 1.613 . S
S1130 N1132 1.610 . S
N1131 S1130 1.613 . S
N1131 C1134 1.350 . S
N1132 S1130 1.610 . S
N1132 C1133 1.351 . S
C1133 C1127 1.428 . S
C1133 N1132 1.351 . S
C1133 C1134 1.434 . S
C1134 C1125 1.429 . S
C1134 N1131 1.350 . S
C1134 C1133 1.434 . S
C1135 C1136 1.369 . S
C1135 C1137 1.419 . S
C1135 H1139 0.930 . S
C1136 C1135 1.369 . S
C1136 C1145 1.429 . S
C1137 C1135 1.419 . S
C1137 C1138 1.363 . S
C1137 H1140 0.929 . S
C1138 C1137 1.363 . S
C1138 C1144 1.428 . S
H1139 C1135 0.930 . S
H1140 C1137 0.929 . S
S1141 N1142 1.613 . S
S1141 N1143 1.610 . S
N1142 S1141 1.613 . S
N1142 C1145 1.350 . S
N1143 S1141 1.610 . S
N1143 C1144 1.351 . S
C1144 C1138 1.428 . S
C1144 N1143 1.351 . S
C1144 C1145 1.434 . S
C1145 C1136 1.429 . S
C1145 N1142 1.350 . S
C1145 C1144 1.434 . S
C1146 C1147 1.369 . S
C1146 C1148 1.419 . S
C1146 H1150 0.930 . S
C1147 C1146 1.369 . S
C1147 C1156 1.429 . S
C1148 C1146 1.419 . S
C1148 C1149 1.363 . S
C1148 H1151 0.929 . S
C1149 C1148 1.363 . S
C1149 C1155 1.428 . S
H1150 C1146 0.930 . S
H1151 C1148 0.929 . S
S1152 N1153 1.613 . S
S1152 N1154 1.610 . S
N1153 S1152 1.613 . S
N1153 C1156 1.350 . S
N1154 S1152 1.610 . S
N1154 C1155 1.351 . S
C1155 C1149 1.428 . S
C1155 N1154 1.351 . S
C1155 C1156 1.434 . S
C1156 C1147 1.429 . S
C1156 N1153 1.350 . S
C1156 C1155 1.434 . S
C1157 C1158 1.369 . S
C1157 C1159 1.419 . S
C1157 H1161 0.930 . S
C1158 C1157 1.369 . S
C1158 C1167 1.429 . S
C1159 C1157 1.419 . S
C1159 C1160 1.363 . S
C1159 H1162 0.929 . S
C1160 C1159 1.363 . S
C1160 C1166 1.428 . S
H1161 C1157 0.930 . S
H1162 C1159 0.929 . S
S1163 N1164 1.613 . S
S1163 N1165 1.610 . S
N1164 S1163 1.613 . S
N1164 C1167 1.350 . S
N1165 S1163 1.610 . S
N1165 C1166 1.351 . S
C1166 C1160 1.428 . S
C1166 N1165 1.351 . S
C1166 C1167 1.434 . S
C1167 C1158 1.429 . S
C1167 N1164 1.350 . S
C1167 C1166 1.434 . S
C641 C460 1.747 . S
C643 C2 1.746 1_565 S
C652 C351 1.751 . S
C654 C63 1.742 1_655 S
C663 C82 1.747 1_545 S
C665 C380 1.747 . S
C674 C143 1.743 1_455 S
C676 C431 1.750 . S
C685 C162 1.746 . S
C687 C220 1.748 . S
C696 C271 1.748 . S
C698 C223 1.745 . S
C707 C242 1.742 . S
C709 C300 1.751 . S
C718 C191 1.748 . S
C720 C303 1.745 . S
C729 C140 1.747 . S
C731 C322 1.746 . S
C740 C383 1.745 . S
C742 C31 1.749 . S
C751 C60 1.751 . S
C753 C402 1.742 . S
C762 C111 1.747 . S
C764 C463 1.746 . S
C773 C482 1.742 1_545 S
C775 C540 1.750 . S
C784 C591 1.750 . S
C786 C543 1.743 1_455 S
C795 C620 1.748 . S
C797 C562 1.745 1_565 S
C806 C623 1.742 1_655 S
C808 C511 1.751 . S
C817 C23 1.240 . S
C819 C183 1.229 . S
C828 C202 1.227 . S
C830 C42 1.240 . S
C839 C103 1.234 . S
C841 C263 1.234 . S
C850 C122 1.241 . S
C852 C282 1.228 . S
C861 C343 1.226 . S
C863 C503 1.240 . S
C872 C522 1.242 . S
C874 C362 1.228 . S
C883 C423 1.242 . S
C885 C583 1.227 . S
C894 C442 1.229 . S
C896 C602 1.236 . S
C905 C580 2.609 . S
C907 C20 2.608 1_556 S
C916 C71 2.612 1_554 S
C918 C631 2.607 . S
C927 C100 2.612 1_556 S
C929 C500 2.607 . S
C938 C151 2.607 1_554 S
C940 C551 2.610 . S
C949 C180 2.611 . S
C951 C420 2.608 . S
C960 C231 2.612 . S
C962 C471 2.606 . S
C971 C260 2.610 . S
C973 C340 2.608 . S
C982 C391 2.613 . S
C984 C311 2.606 . S
C993 C25 1.334 . S
C995 C4 1.320 . S
C1004 C44 1.327 . S
C1006 C65 1.326 . S
C1015 C105 1.324 . S
C1017 C84 1.327 . S
C1026 C145 1.334 . S
C1028 C124 1.320 . S
C1037 C164 1.334 . S
C1039 C185 1.321 . S
C1048 C204 1.327 . S
C1050 C225 1.326 . S
C1059 C265 1.319 . S
C1061 C244 1.332 . S
C1070 C305 1.319 . S
C1072 C284 1.332 . S
C1081 C345 1.319 . S
C1083 C324 1.332 . S
C1092 C385 1.334 . S
C1094 C364 1.321 . S
C1103 C404 1.329 . S
C1105 C425 1.325 . S
C1114 C444 1.333 . S
C1116 C465 1.321 . S
C1125 C505 1.333 . S
C1127 C484 1.321 . S
C1136 C545 1.320 . S
C1138 C524 1.331 . S
C1147 C564 1.319 . S
C1149 C585 1.332 . S
C1158 C604 1.321 . S
C1160 C625 1.331 . S
