# Generated by pormake.
# Topology smd, (6)-cn, num edge types: 1
# Building blocks:
#     Node 0, Type 0, BuildingBlock: BETDEL_clean_sbu_0, # of connection points: 6
#     Node 1, Type 0, BuildingBlock: BETDEL_clean_sbu_0, # of connection points: 6
#     Node 2, Type 0, BuildingBlock: BETDEL_clean_sbu_0, # of connection points: 6
#     Node 3, Type 0, BuildingBlock: BETDEL_clean_sbu_0, # of connection points: 6
#     Node 4, Type 0, BuildingBlock: BETDEL_clean_sbu_0, # of connection points: 6
#     Node 5, Type 0, BuildingBlock: BETDEL_clean_sbu_0, # of connection points: 6
#     Node 6, Type 0, BuildingBlock: BETDEL_clean_sbu_0, # of connection points: 6
#     Node 7, Type 0, BuildingBlock: BETDEL_clean_sbu_0, # of connection points: 6
#     Node 8, Type 0, BuildingBlock: BETDEL_clean_sbu_0, # of connection points: 6
#     Node 9, Type 0, BuildingBlock: BETDEL_clean_sbu_0, # of connection points: 6
#     Node 10, Type 0, BuildingBlock: BETDEL_clean_sbu_0, # of connection points: 6
#     Node 11, Type 0, BuildingBlock: BETDEL_clean_sbu_0, # of connection points: 6
#     Node 12, Type 0, BuildingBlock: BETDEL_clean_sbu_0, # of connection points: 6
#     Node 13, Type 0, BuildingBlock: BETDEL_clean_sbu_0, # of connection points: 6
#     Node 14, Type 0, BuildingBlock: BETDEL_clean_sbu_0, # of connection points: 6
#     Node 15, Type 0, BuildingBlock: BETDEL_clean_sbu_0, # of connection points: 6
#     Node 16, Type 0, BuildingBlock: BETDEL_clean_sbu_0, # of connection points: 6
#     Node 17, Type 0, BuildingBlock: BETDEL_clean_sbu_0, # of connection points: 6
#     Edge 18, Type (0, 0), BuildingBlock: XIVTED_clean_linker_0, # of connection points: 2
#     Edge 19, Type (0, 0), BuildingBlock: XIVTED_clean_linker_0, # of connection points: 2
#     Edge 20, Type (0, 0), BuildingBlock: XIVTED_clean_linker_0, # of connection points: 2
#     Edge 21, Type (0, 0), BuildingBlock: XIVTED_clean_linker_0, # of connection points: 2
#     Edge 22, Type (0, 0), BuildingBlock: XIVTED_clean_linker_0, # of connection points: 2
#     Edge 23, Type (0, 0), BuildingBlock: XIVTED_clean_linker_0, # of connection points: 2
#     Edge 24, Type (0, 0), BuildingBlock: XIVTED_clean_linker_0, # of connection points: 2
#     Edge 25, Type (0, 0), BuildingBlock: XIVTED_clean_linker_0, # of connection points: 2
#     Edge 26, Type (0, 0), BuildingBlock: XIVTED_clean_linker_0, # of connection points: 2
#     Edge 27, Type (0, 0), BuildingBlock: XIVTED_clean_linker_0, # of connection points: 2
#     Edge 28, Type (0, 0), BuildingBlock: XIVTED_clean_linker_0, # of connection points: 2
#     Edge 29, Type (0, 0), BuildingBlock: XIVTED_clean_linker_0, # of connection points: 2
#     Edge 30, Type (0, 0), BuildingBlock: XIVTED_clean_linker_0, # of connection points: 2
#     Edge 31, Type (0, 0), BuildingBlock: XIVTED_clean_linker_0, # of connection points: 2
#     Edge 32, Type (0, 0), BuildingBlock: XIVTED_clean_linker_0, # of connection points: 2
#     Edge 33, Type (0, 0), BuildingBlock: XIVTED_clean_linker_0, # of connection points: 2
#     Edge 34, Type (0, 0), BuildingBlock: XIVTED_clean_linker_0, # of connection points: 2
#     Edge 35, Type (0, 0), BuildingBlock: XIVTED_clean_linker_0, # of connection points: 2
#     Edge 36, Type (0, 0), BuildingBlock: XIVTED_clean_linker_0, # of connection points: 2
#     Edge 37, Type (0, 0), BuildingBlock: XIVTED_clean_linker_0, # of connection points: 2
#     Edge 38, Type (0, 0), BuildingBlock: XIVTED_clean_linker_0, # of connection points: 2
#     Edge 39, Type (0, 0), BuildingBlock: XIVTED_clean_linker_0, # of connection points: 2
#     Edge 40, Type (0, 0), BuildingBlock: XIVTED_clean_linker_0, # of connection points: 2
#     Edge 41, Type (0, 0), BuildingBlock: XIVTED_clean_linker_0, # of connection points: 2
#     Edge 42, Type (0, 0), BuildingBlock: XIVTED_clean_linker_0, # of connection points: 2
#     Edge 43, Type (0, 0), BuildingBlock: XIVTED_clean_linker_0, # of connection points: 2
#     Edge 44, Type (0, 0), BuildingBlock: XIVTED_clean_linker_0, # of connection points: 2
#     Edge 45, Type (0, 0), BuildingBlock: XIVTED_clean_linker_0, # of connection points: 2
#     Edge 46, Type (0, 0), BuildingBlock: XIVTED_clean_linker_0, # of connection points: 2
#     Edge 47, Type (0, 0), BuildingBlock: XIVTED_clean_linker_0, # of connection points: 2
#     Edge 48, Type (0, 0), BuildingBlock: XIVTED_clean_linker_0, # of connection points: 2
#     Edge 49, Type (0, 0), BuildingBlock: XIVTED_clean_linker_0, # of connection points: 2
#     Edge 50, Type (0, 0), BuildingBlock: XIVTED_clean_linker_0, # of connection points: 2
#     Edge 51, Type (0, 0), BuildingBlock: XIVTED_clean_linker_0, # of connection points: 2
#     Edge 52, Type (0, 0), BuildingBlock: XIVTED_clean_linker_0, # of connection points: 2
#     Edge 53, Type (0, 0), BuildingBlock: XIVTED_clean_linker_0, # of connection points: 2
#     Edge 54, Type (0, 0), BuildingBlock: XIVTED_clean_linker_0, # of connection points: 2
#     Edge 55, Type (0, 0), BuildingBlock: XIVTED_clean_linker_0, # of connection points: 2
#     Edge 56, Type (0, 0), BuildingBlock: XIVTED_clean_linker_0, # of connection points: 2
#     Edge 57, Type (0, 0), BuildingBlock: XIVTED_clean_linker_0, # of connection points: 2
#     Edge 58, Type (0, 0), BuildingBlock: XIVTED_clean_linker_0, # of connection points: 2
#     Edge 59, Type (0, 0), BuildingBlock: XIVTED_clean_linker_0, # of connection points: 2
#     Edge 60, Type (0, 0), BuildingBlock: XIVTED_clean_linker_0, # of connection points: 2
#     Edge 61, Type (0, 0), BuildingBlock: XIVTED_clean_linker_0, # of connection points: 2
#     Edge 62, Type (0, 0), BuildingBlock: XIVTED_clean_linker_0, # of connection points: 2
#     Edge 63, Type (0, 0), BuildingBlock: XIVTED_clean_linker_0, # of connection points: 2
#     Edge 64, Type (0, 0), BuildingBlock: XIVTED_clean_linker_0, # of connection points: 2
#     Edge 65, Type (0, 0), BuildingBlock: XIVTED_clean_linker_0, # of connection points: 2
#     Edge 66, Type (0, 0), BuildingBlock: XIVTED_clean_linker_0, # of connection points: 2
#     Edge 67, Type (0, 0), BuildingBlock: XIVTED_clean_linker_0, # of connection points: 2
#     Edge 68, Type (0, 0), BuildingBlock: XIVTED_clean_linker_0, # of connection points: 2
#     Edge 69, Type (0, 0), BuildingBlock: XIVTED_clean_linker_0, # of connection points: 2
#     Edge 70, Type (0, 0), BuildingBlock: XIVTED_clean_linker_0, # of connection points: 2
#     Edge 71, Type (0, 0), BuildingBlock: XIVTED_clean_linker_0, # of connection points: 2
# Relax obj value: 0.243
# Max RMSD: 0.294
# Mean RMSD: 0.266
data_MOF--net-smd--node1-BETDEL_clean_sbu_0--edge1-XIVTED_clean_linker_0
_symmetry_space_group_name_H-M    P1
_symmetry_Int_Tables_number       1
_symmetry_cell_setting            triclinic
loop_
_symmetry_equiv_pos_as_xyz
'x, y, z'
_cell_length_a     66.907589
_cell_length_b     67.51473
_cell_length_c     18.249006
_cell_angle_alpha  92.84542
_cell_angle_beta   92.761739
_cell_angle_gamma 119.86878
loop_
_atom_site_label
_atom_site_type_symbol
_atom_site_fract_x
_atom_site_fract_y
_atom_site_fract_z
_atom_type_partial_charge
Dy0 Dy 0.02729 0.24107 0.58014 0.0
C1 C 1.00558 0.22642 0.25982 0.0
C2 C 0.02709 0.25001 0.72699 0.0
Dy3 Dy 1.0086 0.22963 0.40991 0.0
O4 O 0.04522 0.25309 0.69443 0.0
O5 O 1.00941 0.24272 0.67898 0.0
O6 O 0.04968 0.2247 0.57881 0.0
O7 O 0.03028 0.22321 0.48482 0.0
C8 C 0.04477 0.21788 0.50903 0.0
C9 C 0.99074 0.2488 0.49939 0.0
O10 O 0.98686 0.19518 0.44902 0.0
O11 O 0.99314 0.20751 0.57437 0.0
O12 O 0.99733 0.23646 0.30075 0.0
O13 O 0.01483 0.2174 0.30087 0.0
O14 O 0.97885 0.23435 0.44287 0.0
O15 O 1.0113 0.25302 0.50162 0.0
O16 O 0.05218 0.27446 0.53391 0.0
O17 O 0.04334 0.2607 0.40966 0.0
C18 C 0.98187 0.1916 0.51834 0.0
C19 C 0.05638 0.27675 0.463 0.0
Dy20 Dy 0.79764 0.78234 0.4737 0.0
C21 C 0.79679 0.79712 0.78223 0.0
C22 C 0.79499 0.77855 0.32329 0.0
Dy23 Dy 0.79513 0.79373 0.63191 0.0
O24 O 0.8137 0.7858 0.36629 0.0
O25 O 0.77749 0.77281 0.36242 0.0
O26 O 0.82566 0.77508 0.50433 0.0
O27 O 0.82448 0.80188 0.56491 0.0
C28 C 0.83493 0.79054 0.55965 0.0
C29 C 0.75731 0.78255 0.54151 0.0
O30 O 0.81146 0.82934 0.60084 0.0
O31 O 0.80184 0.81809 0.47638 0.0
O32 O 0.7782 0.78922 0.73811 0.0
O33 O 0.81464 0.80368 0.74427 0.0
O34 O 0.76487 0.79847 0.59554 0.0
O35 O 0.76947 0.77322 0.54148 0.0
O36 O 0.78 0.74642 0.50958 0.0
O37 O 0.7915 0.75886 0.63282 0.0
C38 C 0.80918 0.83406 0.53267 0.0
C39 C 0.78272 0.74229 0.57872 0.0
Dy40 Dy 0.23788 0.01523 0.58753 0.0
C41 C 0.23498 0.02182 0.27971 0.0
C42 C 0.24364 0.01359 0.73557 0.0
Dy43 Dy 0.2392 0.01963 0.42804 0.0
O44 O 0.22856 0.99671 0.69036 0.0
O45 O 0.256 0.03126 0.6997 0.0
O46 O 0.20006 1.0023 0.57799 0.0
O47 O 0.21423 0.9927 0.4928 0.0
C48 C 0.19568 0.99078 0.51462 0.0
C49 C 0.2806 0.04385 0.50732 0.0
O50 O 0.22193 0.03965 0.45814 0.0
O51 O 0.23359 0.04615 0.58235 0.0
O52 O 0.25071 0.03797 0.32554 0.0
O53 O 0.22116 1.00462 0.31506 0.0
O54 O 0.27783 0.03316 0.44334 0.0
O55 O 0.26167 0.04169 0.52379 0.0
O56 O 0.25592 0.99561 0.55153 0.0
O57 O 0.24186 0.9884 0.42951 0.0
C58 C 0.22474 0.05066 0.52322 0.0
C59 C 0.25226 0.98458 0.48545 0.0
Dy60 Dy 0.02235 0.80078 0.59412 0.0
C61 C 1.00719 0.78284 0.27718 0.0
C62 C 0.02519 0.80306 0.74345 0.0
Dy63 Dy 1.00626 0.79068 0.42369 0.0
O64 O 0.03366 0.79342 0.70178 0.0
O65 O 0.01552 0.81196 0.70365 0.0
O66 O 0.0556 0.80267 0.56403 0.0
O67 O 0.02455 0.7807 0.50056 0.0
C68 C 0.04603 0.78843 0.50555 0.0
C69 C 0.98404 0.80929 0.49316 0.0
O70 O 0.98453 0.75544 0.46379 0.0
O71 O 0.98949 0.76712 0.58916 0.0
O72 O 0.98842 0.7767 0.31031 0.0
O73 O 0.02528 0.79286 0.32424 0.0
O74 O 0.98096 0.80373 0.42266 0.0
O75 O 0.99917 0.80516 0.51956 0.0
O76 O 0.0419 0.83629 0.56012 0.0
O77 O 0.03885 0.8257 0.43454 0.0
C78 C 0.97903 0.75136 0.53293 0.0
C79 C 0.0483 0.84113 0.49259 0.0
Dy80 Dy 0.23287 0.23315 0.37429 0.0
C81 C 0.23333 0.2513 0.68273 0.0
C82 C 0.23064 0.22892 0.22326 0.0
Dy83 Dy 0.23005 0.24648 0.53169 0.0
O84 O 0.24897 0.23502 0.26707 0.0
O85 O 0.2133 0.22435 0.26206 0.0
O86 O 0.26448 0.23098 0.41359 0.0
O87 O 0.25816 0.25563 0.46347 0.0
C88 C 0.27133 0.2474 0.46571 0.0
C89 C 0.1924 0.23589 0.44371 0.0
O90 O 0.24611 0.28168 0.48972 0.0
O91 O 0.23575 0.26738 0.36747 0.0
O92 O 0.2147 0.24487 0.64002 0.0
O93 O 0.25046 0.25591 0.64281 0.0
O94 O 0.20097 0.25182 0.49782 0.0
O95 O 0.20356 0.22519 0.44161 0.0
O96 O 0.21691 0.19813 0.40995 0.0
O97 O 0.22627 0.21099 0.5336 0.0
C98 C 0.24366 0.28463 0.41891 0.0
C99 C 0.21912 0.1944 0.47938 0.0
Dy100 Dy 0.7934 0.01343 0.61648 0.0
C101 C 0.79145 0.02081 0.30999 0.0
C102 C 0.7966 0.01055 0.76461 0.0
Dy103 Dy 0.79619 0.0185 0.45799 0.0
O104 O 0.77841 0.9977 0.72011 0.0
O105 O 0.81332 0.02475 0.72806 0.0
O106 O 0.75515 1.00127 0.59686 0.0
O107 O 0.77156 0.992 0.51918 0.0
C108 C 0.7527 0.99036 0.53353 0.0
C109 C 0.83783 0.04182 0.53457 0.0
O110 O 0.78035 0.04036 0.4937 0.0
O111 O 0.79299 0.04591 0.61673 0.0
O112 O 0.80896 0.03551 0.35412 0.0
O113 O 0.77621 1.00505 0.34689 0.0
O114 O 0.83362 0.02988 0.47211 0.0
O115 O 0.81929 0.04048 0.55413 0.0
O116 O 0.80833 0.99109 0.58708 0.0
O117 O 0.79876 0.98652 0.46169 0.0
C118 C 0.78388 0.05104 0.56045 0.0
C119 C 0.80612 0.9807 0.52123 0.0
Dy120 Dy 0.6713 0.55707 0.74352 0.0
C121 C 0.69241 0.56249 0.06201 0.0
C122 C 0.67242 0.56616 0.59986 0.0
Dy123 Dy 0.68922 0.56225 0.91265 0.0
O124 O 0.65359 0.55363 0.63168 0.0
O125 O 0.69039 0.5741 0.64699 0.0
O126 O 0.64527 0.5191 0.73406 0.0
O127 O 0.66507 0.53546 0.832 0.0
C128 C 0.64928 0.51646 0.80224 0.0
C129 C 0.71208 0.59837 0.83286 0.0
O130 O 0.70754 0.5456 0.8646 0.0
O131 O 0.70309 0.55324 0.74321 0.0
O132 O 0.70167 0.58057 0.02558 0.0
O133 O 0.68191 0.54409 0.01672 0.0
O134 O 0.72213 0.59362 0.88643 0.0
O135 O 0.69062 0.58471 0.82861 0.0
O136 O 0.65033 0.57075 0.79753 0.0
O137 O 0.65686 0.56376 0.91795 0.0
C138 C 0.71289 0.54689 0.79526 0.0
C139 C 0.64592 0.56943 0.86829 0.0
Dy140 Dy 0.46933 0.13014 0.77595 0.0
C141 C 0.46743 0.14862 0.08484 0.0
C142 C 0.4665 0.1249 0.62478 0.0
Dy143 Dy 0.46628 0.14463 0.93388 0.0
O144 O 0.48529 0.13295 0.66811 0.0
O145 O 0.449 0.11881 0.66423 0.0
O146 O 0.49927 0.1263 0.80939 0.0
O147 O 0.49544 0.15234 0.86584 0.0
C148 C 0.50711 0.14214 0.86369 0.0
C149 C 0.42746 0.12818 0.84193 0.0
O150 O 0.48064 0.179 0.89455 0.0
O151 O 0.47152 0.16495 0.77156 0.0
O152 O 0.44889 0.13883 0.03986 0.0
O153 O 0.48549 0.15711 0.04719 0.0
O154 O 0.4334 0.14447 0.89389 0.0
O155 O 0.44156 0.12109 0.84535 0.0
O156 O 0.45435 0.0956 0.82431 0.0
O157 O 0.46709 0.11245 0.94349 0.0
C158 C 0.47818 0.18189 0.82436 0.0
C159 C 0.4579 0.09418 0.89601 0.0
Dy160 Dy 0.92165 0.36426 0.73982 0.0
C161 C 0.91407 0.35504 0.04483 0.0
C162 C 0.92843 0.36633 0.5938 0.0
Dy163 Dy 0.91984 0.35832 0.89827 0.0
O164 O 0.92553 0.38093 0.63396 0.0
O165 O 0.92816 0.35085 0.63371 0.0
O166 O 0.89669 0.37681 0.74543 0.0
O167 O 0.92164 0.38594 0.83435 0.0
C168 C 0.90458 0.38774 0.81009 0.0
C169 C 0.93556 0.33445 0.82086 0.0
O170 O 0.88221 0.33693 0.8611 0.0
O171 O 0.88621 0.33312 0.73693 0.0
O172 O 0.92127 0.34381 0.00509 0.0
O173 O 0.9096 0.36784 1.00432 0.0
O174 O 0.94462 0.34481 0.88567 0.0
O175 O 0.91868 0.33691 0.80244 0.0
O176 O 0.95968 0.38527 0.7842 0.0
O177 O 0.95291 0.39087 0.90399 0.0
C178 C 0.87335 0.32738 0.79371 0.0
C179 C 0.96708 0.39583 0.85163 0.0
Dy180 Dy 0.6921 0.14801 0.90084 0.0
C181 C 0.67293 0.13245 0.58793 0.0
C182 C 0.69505 0.1511 0.05138 0.0
Dy183 Dy 0.67542 0.13681 0.73839 0.0
O184 O 0.70055 0.13866 0.01004 0.0
O185 O 0.68853 0.16242 0.01052 0.0
O186 O 0.72525 0.14909 0.87214 0.0
O187 O 0.69402 0.12638 0.81153 0.0
C188 C 0.71544 0.13396 0.81588 0.0
C189 C 0.64942 0.14733 0.81908 0.0
O190 O 0.65495 0.10161 0.77919 0.0
O191 O 0.65817 0.11592 0.89985 0.0
O192 O 0.66488 0.14308 0.6269 0.0
O193 O 0.6818 0.1236 0.63115 0.0
O194 O 0.64129 0.13263 0.76151 0.0
O195 O 0.67133 0.15717 0.8279 0.0
O196 O 0.71319 0.18309 0.86804 0.0
O197 O 0.70879 0.17123 0.7439 0.0
C198 C 0.64869 0.09885 0.84777 0.0
C199 C 0.71908 0.1872 0.8001 0.0
Dy200 Dy 0.9086 0.57459 0.86906 0.0
C201 C 0.9204 0.57261 0.56266 0.0
C202 C 0.90879 0.574 0.01766 0.0
Dy203 Dy 0.91358 0.56743 0.70713 0.0
O204 O 0.91746 0.59243 0.98276 0.0
O205 O 0.89961 0.55588 0.97142 0.0
O206 O 0.8997 0.60203 0.8407 0.0
O207 O 0.92273 0.59687 0.78124 0.0
C208 C 0.91235 0.60795 0.78503 0.0
C209 C 0.89754 0.5291 0.77864 0.0
O210 O 0.95136 0.58521 0.75022 0.0
O211 O 0.94601 0.58617 0.87556 0.0
O212 O 0.92517 0.55956 0.60128 0.0
O213 O 0.91203 0.58265 0.60288 0.0
O214 O 0.89108 0.52954 0.71082 0.0
O215 O 0.91303 0.54904 0.80347 0.0
O216 O 0.87185 0.55266 0.82738 0.0
O217 O 0.87783 0.56321 0.70864 0.0
C218 C 0.9594 0.59009 0.82085 0.0
C219 C 0.86387 0.55417 0.76172 0.0
Dy220 Dy 0.45411 0.35108 0.90473 0.0
C221 C 0.44647 0.3574 0.59681 0.0
C222 C 0.45113 0.35037 0.05259 0.0
Dy223 Dy 0.45819 0.36215 0.74349 0.0
O224 O 0.44028 0.35682 0.00784 0.0
O225 O 0.46375 0.34419 0.01675 0.0
O226 O 0.42175 0.31725 0.86469 0.0
O227 O 0.42993 0.34666 0.81232 0.0
C228 C 0.41602 0.32558 0.81041 0.0
C229 C 0.50096 0.38586 0.81074 0.0
O230 O 0.44673 0.38597 0.79203 0.0
O231 O 0.46094 0.38694 0.91103 0.0
O232 O 0.45593 0.37674 0.63754 0.0
O233 O 0.44311 0.34073 0.63646 0.0
O234 O 0.49609 0.38622 0.74132 0.0
O235 O 0.48278 0.37268 0.8406 0.0
O236 O 0.47273 0.33335 0.87019 0.0
O237 O 0.46118 0.33006 0.74636 0.0
C238 C 0.45275 0.39518 0.86123 0.0
C239 C 0.47006 0.32419 0.80231 0.0
Dy240 Dy 0.36769 0.9158 0.2776 0.0
C241 C 0.34565 0.898 0.95644 0.0
C242 C 0.36663 0.92439 0.42434 0.0
Dy243 Dy 0.34892 0.90138 0.10662 0.0
O244 O 0.38534 0.92945 0.3919 0.0
O245 O 0.34883 0.91542 0.37618 0.0
O246 O 0.39296 0.90264 0.27833 0.0
O247 O 0.37256 0.89877 0.18411 0.0
C248 C 0.38812 0.8951 0.20914 0.0
C249 C 0.32687 0.91607 0.19443 0.0
O250 O 0.33076 0.86708 0.14961 0.0
O251 O 0.33558 0.88073 0.27347 0.0
O252 O 0.33729 0.90789 0.9976 0.0
O253 O 0.35513 0.88913 0.99735 0.0
O254 O 0.31641 0.90078 0.13874 0.0
O255 O 0.34828 0.9235 0.19683 0.0
O256 O 0.38888 0.94949 0.22768 0.0
O257 O 0.38221 0.93407 0.10544 0.0
C258 C 0.32574 0.86402 0.21915 0.0
C259 C 0.39335 0.95129 0.15694 0.0
Dy260 Dy 0.14773 0.46303 0.13029 0.0
C261 C 0.14241 0.47826 0.4461 0.0
C262 C 0.1377 0.45476 0.98195 0.0
Dy263 Dy 0.1427 0.4753 0.2968 0.0
O264 O 0.15084 0.44904 0.01954 0.0
O265 O 0.12968 0.4644 0.02569 0.0
O266 O 0.18619 0.47713 0.13732 0.0
O267 O 0.17003 0.47941 0.22949 0.0
C268 C 0.18925 0.48408 0.20673 0.0
C269 C 0.10602 0.46079 0.1975 0.0
O270 O 0.15949 0.51014 0.25925 0.0
O271 O 0.15105 0.49833 0.13358 0.0
O272 O 0.12412 0.46857 0.39987 0.0
O273 O 0.16096 0.48699 0.41071 0.0
O274 O 0.11079 0.47598 0.25231 0.0
O275 O 0.12013 0.45369 0.20146 0.0
O276 O 0.13602 0.42888 0.17778 0.0
O277 O 0.14302 0.44266 0.30173 0.0
C278 C 0.15795 0.51436 0.18973 0.0
C279 C 0.13791 0.42618 0.24936 0.0
Dy280 Dy 0.57672 0.68844 0.24598 0.0
C281 C 0.57849 0.70585 0.93509 0.0
C282 C 0.58797 0.69024 0.3924 0.0
Dy283 Dy 0.58 0.70386 0.08425 0.0
O284 O 0.57458 0.67152 0.3505 0.0
O285 O 0.59589 0.70786 0.35353 0.0
O286 O 0.53843 0.66547 0.2454 0.0
O287 O 0.55282 0.68211 0.15193 0.0
C288 C 0.53412 0.66842 0.17796 0.0
C289 C 0.61846 0.72511 0.17864 0.0
O290 O 0.56192 0.72069 0.13099 0.0
O291 O 0.57395 0.72078 0.25306 0.0
O292 O 0.59455 0.72136 0.98199 0.0
O293 O 0.56287 0.68967 0.9699 0.0
O294 O 0.61359 0.73571 0.12953 0.0
O295 O 0.60345 0.70427 0.17193 0.0
O296 O 0.58535 0.66342 0.1881 0.0
O297 O 0.58116 0.67173 0.06746 0.0
C298 C 0.5649 0.72801 0.20139 0.0
C299 C 0.58411 0.65911 0.11527 0.0
Dy300 Dy 0.37032 0.48767 0.2667 0.0
C301 C 0.351 0.4664 0.94912 0.0
C302 C 0.37336 0.49128 0.41686 0.0
Dy303 Dy 0.35011 0.47419 0.09635 0.0
O304 O 0.38437 0.48412 0.37661 0.0
O305 O 0.36137 0.49733 0.37504 0.0
O306 O 0.40216 0.48743 0.23097 0.0
O307 O 0.36977 0.46583 0.17382 0.0
C308 C 0.39102 0.47264 0.17444 0.0
C309 C 0.3307 0.49479 0.17058 0.0
O310 O 0.32845 0.44014 0.14371 0.0
O311 O 0.33823 0.45377 0.26823 0.0
O312 O 0.33225 0.46074 0.98216 0.0
O313 O 0.36893 0.47567 0.9968 0.0
O314 O 0.32514 0.48763 0.10111 0.0
O315 O 0.3462 0.4907 0.19283 0.0
O316 O 0.38793 0.52229 0.22544 0.0
O317 O 0.38181 0.50962 0.10025 0.0
C318 C 0.32557 0.43737 0.21524 0.0
C319 C 0.39203 0.526 0.1555 0.0
Dy320 Dy 0.57373 0.90722 0.0802 0.0
C321 C 0.57474 0.92796 0.39007 0.0
C322 C 0.56984 0.90215 0.92893 0.0
Dy323 Dy 0.5714 0.92286 0.23877 0.0
O324 O 0.58724 0.9045 0.97107 0.0
O325 O 0.5542 0.90158 0.96963 0.0
O326 O 0.60574 0.90574 0.11962 0.0
O327 O 0.59875 0.92994 0.16903 0.0
C328 C 0.61206 0.92191 0.17235 0.0
C329 C 0.53409 0.91159 0.14818 0.0
O330 O 0.58839 0.9576 0.19303 0.0
O331 O 0.57915 0.94227 0.07094 0.0
O332 O 0.55659 0.92322 0.34722 0.0
O333 O 0.59138 0.93085 0.35008 0.0
O334 O 0.54231 0.92784 0.20135 0.0
O335 O 0.54526 0.90093 0.14907 0.0
O336 O 0.55649 0.87286 0.12106 0.0
O337 O 0.5667 0.88713 0.24381 0.0
C338 C 0.58705 0.95985 0.12109 0.0
C339 C 0.55882 0.86995 0.19136 0.0
Dy340 Dy 0.13284 0.6851 0.27425 0.0
C341 C 0.13524 0.69134 0.96265 0.0
C342 C 0.13418 0.67972 0.41944 0.0
Dy343 Dy 0.13948 0.69457 0.11051 0.0
O344 O 0.11606 0.66799 0.37354 0.0
O345 O 0.15164 0.69425 0.38607 0.0
O346 O 0.09469 0.67071 0.24206 0.0
O347 O 0.11561 0.66653 0.16877 0.0
C348 C 0.09552 0.66255 0.17703 0.0
C349 C 0.1782 0.72551 0.19063 0.0
O350 O 0.12145 0.71393 0.14788 0.0
O351 O 0.13235 0.71759 0.27292 0.0
O352 O 0.15308 0.69417 1.00292 0.0
O353 O 0.1193 0.6904 1.00307 0.0
O354 O 0.17534 0.7249 0.11974 0.0
O355 O 0.16013 0.70984 0.21413 0.0
O356 O 0.14932 0.66441 0.24519 0.0
O357 O 0.14609 0.66498 0.1179 0.0
C358 C 0.12378 0.72323 0.21622 0.0
C359 C 0.15135 0.65761 0.17804 0.0
H360 H 0.11476 0.38314 0.17328 0.0
H361 H 0.0809 0.31974 0.53903 0.0
H362 H 0.14703 0.41764 0.38762 0.0
H363 H 0.07314 0.2837 0.32786 0.0
H364 H 0.10535 0.35607 0.48545 0.0
H365 H 0.09924 0.34625 0.22789 0.0
C366 C 0.11895 0.38299 0.23124 0.0
C367 C 0.13193 0.40357 0.27586 0.0
C368 C 0.0985 0.34012 0.45131 0.0
C369 C 0.11388 0.36161 0.33898 0.0
C370 C 0.08464 0.3194 0.48206 0.0
C371 C 0.07463 0.29863 0.43787 0.0
C372 C 0.10208 0.34 0.37583 0.0
C373 C 0.08007 0.29928 0.36401 0.0
C374 C 0.11002 0.36196 0.26255 0.0
C375 C 0.13674 0.40228 0.351 0.0
N376 N 0.09306 0.31957 0.33512 0.0
N377 N 0.12743 0.38175 0.38029 0.0
H378 H 0.73444 0.74272 0.45493 0.0
H379 H 0.64937 0.77073 0.22181 0.0
H380 H 0.73361 0.80523 0.50847 0.0
H381 H 0.63374 0.70212 0.26004 0.0
H382 H 0.68327 0.78592 0.31286 0.0
H383 H 0.70073 0.72976 0.36762 0.0
C384 C 0.72712 0.75374 0.44829 0.0
C385 C 0.73671 0.77501 0.48937 0.0
C386 C 0.6723 0.76757 0.30122 0.0
C387 C 0.69814 0.76033 0.38851 0.0
C388 C 0.65309 0.75892 0.24922 0.0
C389 C 0.63883 0.73516 0.23323 0.0
C390 C 0.67741 0.75229 0.33594 0.0
C391 C 0.64429 0.72056 0.27051 0.0
C392 C 0.70783 0.74629 0.39854 0.0
C393 C 0.72656 0.78861 0.47824 0.0
N394 N 0.66319 0.72934 0.31946 0.0
N395 N 0.70783 0.78111 0.42837 0.0
H396 H 0.29608 0.99254 0.52253 0.0
H397 H 0.28056 0.89745 0.20748 0.0
H398 H 0.23119 0.944 0.4029 0.0
H399 H 0.34706 0.95122 0.30371 0.0
H400 H 0.26179 0.91048 0.2939 0.0
H401 H 0.31452 0.97328 0.46086 0.0
C402 C 0.28557 0.97731 0.48546 0.0
C403 C 0.26208 0.96973 0.46797 0.0
C404 C 0.2805 0.91937 0.2966 0.0
C405 C 0.28305 0.94808 0.39581 0.0
C406 C 0.2912 0.91196 0.24704 0.0
C407 C 0.31537 0.92334 0.2482 0.0
C408 C 0.29405 0.93839 0.34771 0.0
C409 C 0.32834 0.94198 0.30095 0.0
C410 C 0.29613 0.96654 0.4494 0.0
C411 C 0.24935 0.95032 0.41801 0.0
N412 N 0.31754 0.949 0.34836 0.0
N413 N 0.26 0.94032 0.38328 0.0
H414 H 0.32129 0.04424 0.49239 0.0
H415 H 0.3924 0.13847 0.8312 0.0
H416 H 0.29 0.07341 0.62888 0.0
H417 H 0.4133 0.09217 0.73938 0.0
H418 H 0.35665 0.11864 0.74809 0.0
H419 H 0.35735 0.06569 0.57244 0.0
C420 C 0.32207 0.05525 0.53901 0.0
C421 C 0.30266 0.05704 0.55411 0.0
C422 C 0.36916 0.11293 0.74606 0.0
C423 C 0.34385 0.08173 0.64578 0.0
C424 C 0.38954 0.12427 0.79333 0.0
C425 C 0.40594 0.11709 0.79178 0.0
C426 C 0.36532 0.09449 0.69647 0.0
C427 C 0.40131 0.09851 0.74182 0.0
C428 C 0.3426 0.06743 0.58484 0.0
C429 C 0.30457 0.0715 0.61545 0.0
N430 N 0.38156 0.08795 0.69611 0.0
N431 N 0.3248 0.08334 0.65891 0.0
H432 H 0.91342 0.30666 0.69535 0.0
H433 H 0.01528 0.28116 0.61364 0.0
H434 H 0.97518 0.33197 0.8418 0.0
H435 H 0.94738 0.2438 0.49797 0.0
H436 H 1.00171 0.30127 0.69419 0.0
H437 H 0.92636 0.28515 0.61858 0.0
C438 C 0.92972 0.30768 0.71138 0.0
C439 C 0.94326 0.32113 0.77508 0.0
C440 C 0.98972 0.28861 0.65147 0.0
C441 C 0.95824 0.29654 0.68716 0.0
C442 C 0.99744 0.27707 0.60549 0.0
C443 C 0.98237 0.26062 0.54931 0.0
C444 C 0.96681 0.28398 0.64063 0.0
C445 C 0.95955 0.25627 0.54073 0.0
C446 C 0.93707 0.29532 0.6676 0.0
C447 C 0.96419 0.32176 0.79327 0.0
N448 N 0.9525 0.26795 0.58563 0.0
N449 N 0.9711 0.30973 0.74937 0.0
H450 H 0.74417 0.70206 0.52221 0.0
H451 H 0.75826 0.62961 0.83648 0.0
H452 H 0.80223 0.72926 0.68558 0.0
H453 H 0.69244 0.61139 0.72417 0.0
H454 H 0.777 0.6627 0.76338 0.0
H455 H 0.72756 0.66491 0.57632 0.0
C456 C 0.75367 0.70003 0.56819 0.0
C457 C 0.77454 0.71873 0.59969 0.0
C458 C 0.75847 0.65135 0.75429 0.0
C459 C 0.75569 0.67657 0.66195 0.0
C460 C 0.74778 0.63248 0.79603 0.0
C461 C 0.72377 0.61777 0.78648 0.0
C462 C 0.74509 0.65549 0.70219 0.0
C463 C 0.71103 0.62228 0.73313 0.0
C464 C 0.7441 0.67895 0.59951 0.0
C465 C 0.78601 0.7153 0.65992 0.0
N466 N 0.72182 0.64075 0.69305 0.0
N467 N 0.77643 0.69473 0.68918 0.0
H468 H 0.97187 0.71011 0.47139 0.0
H469 H 0.89606 0.63842 0.79245 0.0
H470 H 0.9496 0.73956 0.64143 0.0
H471 H 0.94096 0.6219 0.67479 0.0
H472 H 0.90746 0.6716 0.71911 0.0
H473 H 0.95143 0.67303 0.52479 0.0
C474 C 0.96213 0.70861 0.51857 0.0
C475 C 0.96253 0.72793 0.55227 0.0
C476 C 0.9145 0.66044 0.70882 0.0
C477 C 0.93937 0.68577 0.61409 0.0
C478 C 0.90801 0.64156 0.75062 0.0
C479 C 0.91743 0.62727 0.7394 0.0
C480 C 0.93026 0.66482 0.65492 0.0
C481 C 0.93296 0.6322 0.68465 0.0
C482 C 0.95068 0.68754 0.54955 0.0
C483 C 0.94986 0.72509 0.61408 0.0
N484 N 0.93885 0.65048 0.64458 0.0
N485 N 0.93895 0.7045 0.64329 0.0
H486 H 0.29827 0.22841 0.50393 0.0
H487 H 0.39844 0.34418 0.71698 0.0
H488 H 0.29343 0.28943 0.5404 0.0
H489 H 0.38645 0.2789 0.78267 0.0
H490 H 0.36363 0.32433 0.63201 0.0
H491 H 0.334 0.24648 0.5881 0.0
C492 C 0.30476 0.24558 0.52931 0.0
C493 C 0.29293 0.25747 0.51509 0.0
C494 C 0.36859 0.31431 0.66495 0.0
C495 C 0.33366 0.27821 0.60981 0.0
C496 C 0.38849 0.32562 0.71337 0.0
C497 C 0.39522 0.31317 0.75752 0.0
C498 C 0.35539 0.29028 0.6593 0.0
C499 C 0.38171 0.28912 0.75005 0.0
C500 C 0.32501 0.2558 0.57744 0.0
C501 C 0.30197 0.27962 0.54975 0.0
N502 N 0.36243 0.2784 0.70158 0.0
N503 N 0.32182 0.28931 0.59479 0.0
H504 H 0.76165 0.14791 0.8175 0.0
H505 H 0.74346 0.04927 0.51035 0.0
H506 H 0.69524 0.09855 0.70787 0.0
H507 H 0.80584 0.08968 0.65326 0.0
H508 H 0.72737 0.07194 0.56451 0.0
H509 H 0.77975 0.13101 0.74245 0.0
C510 C 0.75091 0.13363 0.77729 0.0
C511 C 0.72691 0.12465 0.76897 0.0
C512 C 0.74475 0.0761 0.58301 0.0
C513 C 0.74748 0.10523 0.68242 0.0
C514 C 0.75402 0.06336 0.55136 0.0
C515 C 0.77602 0.06765 0.57726 0.0
C516 C 0.75765 0.0933 0.64049 0.0
C517 C 0.78879 0.0858 0.63177 0.0
C518 C 0.76123 0.12399 0.73433 0.0
C519 C 0.71383 0.10614 0.71579 0.0
N520 N 0.7794 0.09781 0.66179 0.0
N521 N 0.72424 0.09701 0.67478 0.0
H522 H 0.62724 0.95791 0.27517 0.0
H523 H 0.74387 0.96134 0.41148 0.0
H524 H 0.64404 0.90765 0.19082 0.0
H525 H 0.71352 0.99355 0.53866 0.0
H526 H 0.70937 0.94365 0.32398 0.0
H527 H 0.66057 0.97333 0.36547 0.0
C528 C 0.63787 0.94998 0.27599 0.0
C529 C 0.63264 0.93122 0.226 0.0
C530 C 0.71019 0.95445 0.37125 0.0
C531 C 0.67134 0.94927 0.32862 0.0
C532 C 0.72987 0.96461 0.42109 0.0
C533 C 0.7315 0.97892 0.48239 0.0
C534 C 0.69211 0.95889 0.3822 0.0
C535 C 0.7129 0.98256 0.49228 0.0
C536 C 0.65695 0.95885 0.32761 0.0
C537 C 0.64738 0.92203 0.22864 0.0
N538 N 0.69406 0.97276 0.44241 0.0
N539 N 0.66616 0.93122 0.27897 0.0
H540 H 0.09268 0.80656 0.50215 0.0
H541 H 0.08154 0.71792 0.17081 0.0
H542 H 0.02757 0.75609 0.38765 0.0
H543 H 0.14417 0.76187 0.30875 0.0
H544 H 0.06272 0.73682 0.23225 0.0
H545 H 0.11282 0.79491 0.41684 0.0
C546 C 0.08264 0.79309 0.4588 0.0
C547 C 0.05844 0.78218 0.45227 0.0
C548 C 0.08074 0.74267 0.24788 0.0
C549 C 0.08134 0.76873 0.354 0.0
C550 C 0.09156 0.73212 0.21202 0.0
C551 C 0.11444 0.73844 0.23464 0.0
C552 C 0.09299 0.75965 0.30642 0.0
C553 C 0.12649 0.75653 0.28967 0.0
C554 C 0.09412 0.78647 0.40991 0.0
C555 C 0.04627 0.76492 0.39472 0.0
N556 N 0.1156 0.76633 0.32404 0.0
N557 N 0.05783 0.75863 0.34806 0.0
H558 H 0.30109 0.39487 0.13594 0.0
H559 H 0.2675 0.32717 0.49765 0.0
H560 H 0.31238 0.42831 0.35434 0.0
H561 H 0.23836 0.29465 0.27897 0.0
H562 H 0.28435 0.36463 0.44648 0.0
H563 H 0.27798 0.35774 0.18665 0.0
C564 C 0.29851 0.39448 0.19409 0.0
C565 C 0.30898 0.41479 0.24079 0.0
C566 C 0.27405 0.34923 0.40998 0.0
C567 C 0.28292 0.37246 0.2994 0.0
C568 C 0.26439 0.32787 0.4393 0.0
C569 C 0.25167 0.30768 0.39273 0.0
C570 C 0.27113 0.35034 0.33356 0.0
C571 C 0.24826 0.30968 0.31724 0.0
C572 C 0.28538 0.37329 0.22315 0.0
C573 C 0.30501 0.41316 0.31601 0.0
N574 N 0.25812 0.33054 0.29002 0.0
N575 N 0.29258 0.39244 0.34295 0.0
H576 H 0.98593 0.43725 0.92819 0.0
H577 H 0.09263 0.42664 0.08792 0.0
H578 H 1.00338 0.38852 0.83506 0.0
H579 H 0.07843 0.47927 0.16684 0.0
H580 H 0.0627 0.41508 0.98659 0.0
H581 H 0.02276 0.45632 1.00364 0.0
C582 C 0.99799 0.43111 0.92172 0.0
C583 C 0.99176 0.41145 0.87493 0.0
C584 C 0.0662 0.42926 0.02563 0.0
C585 C 0.03353 0.43248 0.96381 0.0
C586 C 0.08323 0.43582 0.08372 0.0
C587 C 0.08798 0.45392 0.13596 0.0
C588 C 0.0535 0.44065 0.02016 0.0
C589 C 0.07525 0.46516 0.12797 0.0
C590 C 0.01891 0.44182 0.96549 0.0
C591 C 1.00774 0.40388 0.86958 0.0
N592 N 0.05851 0.45825 0.07147 0.0
N593 N 0.02774 0.41415 0.91463 0.0
H594 H 0.62688 0.59281 0.80151 0.0
H595 H 0.60171 0.63437 0.18217 0.0
H596 H 0.62973 0.56361 1.00441 0.0
H597 H 0.57463 0.64184 0.97208 0.0
H598 H 0.61214 0.60814 0.11909 0.0
H599 H 0.60734 0.61084 0.86261 0.0
C600 C 0.62306 0.58984 0.85824 0.0
C601 C 0.6303 0.57696 0.89794 0.0
C602 C 0.60365 0.61538 0.0872 0.0
C603 C 0.60847 0.59786 0.96861 0.0
C604 C 0.59767 0.63029 0.12328 0.0
C605 C 0.58766 0.64067 0.08247 0.0
C606 C 0.59976 0.61108 0.00997 0.0
C607 C 0.58278 0.63468 0.00598 0.0
C608 C 0.61201 0.6002 0.8933 0.0
C609 C 0.62488 0.57374 0.97168 0.0
N610 N 0.58916 0.62061 0.97224 0.0
N611 N 0.61467 0.5844 0.00488 0.0
H612 H 0.45266 0.05237 0.83983 0.0
H613 H 0.4056 0.9945 0.21606 0.0
H614 H 0.44329 0.08605 0.03159 0.0
H615 H 0.41558 0.95882 0.03136 0.0
H616 H 0.42303 0.02946 0.15148 0.0
H617 H 0.44069 0.01803 0.90855 0.0
C618 C 0.44801 0.05252 0.89579 0.0
C619 C 0.44923 0.07218 0.93007 0.0
C620 C 0.42167 0.01404 0.12534 0.0
C621 C 0.43585 0.03344 0.00886 0.0
C622 C 0.41199 0.99416 0.16286 0.0
C623 C 0.40892 0.97369 0.1289 0.0
C624 C 0.42823 0.01338 0.0533 0.0
C625 C 0.41733 0.97421 0.05924 0.0
C626 C 0.44139 0.03307 0.93525 0.0
C627 C 0.44305 0.07148 1.00297 0.0
N628 N 0.42631 0.99361 0.02334 0.0
N629 N 0.43671 0.05258 0.03958 0.0
H630 H 0.64435 0.05762 0.8007 0.0
H631 H 0.57973 0.99617 0.15296 0.0
H632 H 0.61976 0.08894 0.95669 0.0
H633 H 0.61646 0.9735 0.016 0.0
H634 H 0.59107 0.02904 0.07787 0.0
H635 H 0.62847 0.02353 0.86997 0.0
C636 C 0.63493 0.057 0.848 0.0
C637 C 0.63342 0.07608 0.87316 0.0
C638 C 0.59678 0.01693 0.06489 0.0
C639 C 0.61596 0.03766 0.95416 0.0
C640 C 0.59063 0.99846 0.10841 0.0
C641 C 0.59733 0.98232 0.0907 0.0
C642 C 0.60949 0.01892 1.00345 0.0
C643 C 0.61097 0.98565 0.03136 0.0
C644 C 0.62622 0.03774 0.8884 0.0
C645 C 0.62137 0.07456 0.93568 0.0
N646 N 0.61645 1.00343 0.98971 0.0
N647 N 0.61334 0.05581 0.97458 0.0
H648 H 0.05793 0.66831 0.1625 0.0
H649 H 0.99094 0.57554 0.83292 0.0
H650 H 0.09161 0.63619 0.0537 0.0
H651 H 0.98276 0.63458 0.8676 0.0
H652 H 0.02723 0.59544 0.9135 0.0
H653 H 0.02807 0.65334 0.05884 0.0
C654 C 0.05892 0.658 0.11694 0.0
C655 C 0.07704 0.65329 0.11657 0.0
C656 C 0.01784 0.60427 0.90146 0.0
C657 C 0.04315 0.63614 0.99845 0.0
C658 C 0.99737 0.59307 0.85479 0.0
C659 C 0.98424 0.6037 0.84287 0.0
C660 C 0.02454 0.62581 0.93773 0.0
C661 C 0.99272 0.62605 0.87473 0.0
C662 C 0.04208 0.64968 0.05758 0.0
C663 C 0.07777 0.64008 0.0559 0.0
N664 N 1.01208 0.6362 0.92194 0.0
N665 N 0.06088 0.63169 0.99952 0.0
H666 H 0.36848 0.43963 0.06083 0.0
H667 H 0.47763 0.43012 0.96675 0.0
H668 H 0.43684 0.48647 0.16321 0.0
H669 H 0.41483 0.39911 0.82273 0.0
H670 H 0.46392 0.4524 0.03541 0.0
H671 H 0.38533 0.42537 0.97123 0.0
C672 C 0.3871 0.44707 0.06404 0.0
C673 C 0.40131 0.46437 0.11932 0.0
C674 C 0.45331 0.44111 0.98789 0.0
C675 C 0.42071 0.44776 0.01761 0.0
C676 C 0.46118 0.42847 0.94843 0.0
C677 C 0.44734 0.41278 0.88895 0.0
C678 C 0.43115 0.43766 0.9689 0.0
C679 C 0.42612 0.41118 0.86782 0.0
C680 C 0.3967 0.43894 0.01272 0.0
C681 C 0.42526 0.47313 0.12146 0.0
N682 N 0.41846 0.42313 0.90868 0.0
N683 N 0.4342 0.46459 0.07177 0.0
H684 H 0.05805 0.18742 0.54238 0.0
H685 H 0.1745 0.25872 0.37476 0.0
H686 H 0.06614 0.23567 0.38443 0.0
H687 H 0.1553 0.19307 0.45394 0.0
H688 H 0.13372 0.24818 0.36336 0.0
H689 H 0.09121 0.18589 0.49821 0.0
C690 C 0.06636 0.19708 0.49645 0.0
C691 C 0.05931 0.21158 0.46667 0.0
C692 C 0.13825 0.23573 0.38098 0.0
C693 C 0.09801 0.2108 0.41805 0.0
C694 C 0.16152 0.24171 0.38708 0.0
C695 C 0.16817 0.22665 0.41467 0.0
C696 C 0.12156 0.21483 0.40519 0.0
C697 C 0.15081 0.20502 0.43148 0.0
C698 C 0.08538 0.1963 0.47146 0.0
C699 C 0.07089 0.22407 0.40825 0.0
N700 N 0.12833 0.19996 0.42821 0.0
N701 N 0.09007 0.22386 0.38709 0.0
H702 H 0.82744 0.96843 0.62618 0.0
H703 H 0.796 0.84883 0.41061 0.0
H704 H 0.79443 0.94802 0.40501 0.0
H705 H 0.83029 0.87225 0.6297 0.0
H706 H 0.79805 0.88599 0.40143 0.0
H707 H 0.83133 0.93444 0.62261 0.0
C708 C 0.82111 0.95687 0.57654 0.0
C709 C 0.81043 0.96109 0.516 0.0
C710 C 0.80532 0.88303 0.45116 0.0
C711 C 0.8147 0.9217 0.51169 0.0
C712 C 0.80426 0.86185 0.45631 0.0
C713 C 0.81283 0.85727 0.52126 0.0
C714 C 0.81506 0.89975 0.51133 0.0
C715 C 0.82324 0.87481 0.57877 0.0
C716 C 0.82336 0.93738 0.5745 0.0
C717 C 0.80276 0.94548 0.45305 0.0
N718 N 0.82391 0.8951 0.57259 0.0
N719 N 0.80485 0.92636 0.45275 0.0
H720 H 0.07835 0.85427 0.38346 0.0
H721 H 0.15531 0.98326 0.56572 0.0
H722 H 0.06359 0.88072 0.58094 0.0
H723 H 0.18272 0.95247 0.41875 0.0
H724 H 0.11799 0.94787 0.55081 0.0
H725 H 0.11312 0.89189 0.37682 0.0
C726 C 0.0822 0.86805 0.42477 0.0
C727 C 0.06803 0.86429 0.48304 0.0
C728 C 0.13206 0.94886 0.52118 0.0
C729 C 0.10769 0.90733 0.47544 0.0
C730 C 0.15338 0.96913 0.52935 0.0
C731 C 0.17227 0.97076 0.4941 0.0
C732 C 0.1294 0.92993 0.47711 0.0
C733 C 0.16864 0.95192 0.44717 0.0
C734 C 0.10212 0.88946 0.42113 0.0
C735 C 0.07403 0.88274 0.53533 0.0
N736 N 0.14766 0.93217 0.44051 0.0
N737 N 0.09333 0.90337 0.53025 0.0
H738 H 0.1958 0.15462 0.39043 0.0
H739 H 0.23725 0.08456 0.63568 0.0
H740 H 0.23377 0.1818 0.6034 0.0
H741 H 0.20076 0.06037 0.41967 0.0
H742 H 0.2324 0.11827 0.63312 0.0
H743 H 0.19356 0.11814 0.40867 0.0
C744 C 0.20352 0.15287 0.44146 0.0
C745 C 0.2152 0.17143 0.49514 0.0
C746 C 0.22526 0.10544 0.5867 0.0
C747 C 0.2129 0.12949 0.51621 0.0
C748 C 0.22794 0.08614 0.58821 0.0
C749 C 0.2196 0.06967 0.52748 0.0
C750 C 0.21409 0.10823 0.52411 0.0
C751 C 0.20772 0.07268 0.46746 0.0
C752 C 0.20224 0.13196 0.45186 0.0
C753 C 0.22463 0.16797 0.56047 0.0
N754 N 0.20548 0.09159 0.46716 0.0
N755 N 0.22352 0.14749 0.56884 0.0
H756 H 0.8784 0.04829 0.48855 0.0
H757 H 0.95404 0.18097 0.6333 0.0
H758 H 0.85024 0.08184 0.62028 0.0
H759 H 0.96521 0.15065 0.43717 0.0
H760 H 0.92032 0.14352 0.6514 0.0
H761 H 0.91513 0.08426 0.4949 0.0
C762 C 0.88009 0.06315 0.52006 0.0
C763 C 0.86112 0.06212 0.55313 0.0
C764 C 0.93031 0.14512 0.60481 0.0
C765 C 0.90321 0.10352 0.56009 0.0
C766 C 0.94957 0.16641 0.59454 0.0
C767 C 0.96238 0.16896 0.53332 0.0
C768 C 0.92418 0.12619 0.55438 0.0
C769 C 0.95574 0.14955 0.48471 0.0
C770 C 0.90103 0.08372 0.52323 0.0
C771 C 0.8644 0.08191 0.59374 0.0
N772 N 0.93719 0.12904 0.49639 0.0
N773 N 0.88501 0.10192 0.59547 0.0
H774 H 0.9691 0.83832 0.45692 0.0
H775 H 0.85232 0.76587 0.61915 0.0
H776 H 0.96199 0.79061 0.61581 0.0
H777 H 0.87251 0.83339 0.55482 0.0
H778 H 0.893 0.77592 0.62883 0.0
H779 H 0.93541 0.83903 0.50031 0.0
C780 C 0.96082 0.82855 0.50267 0.0
C781 C 0.96835 0.81451 0.53321 0.0
C782 C 0.88868 0.78882 0.61484 0.0
C783 C 0.92915 0.8144 0.58104 0.0
C784 C 0.86548 0.78311 0.60963 0.0
C785 C 0.85917 0.79891 0.5868 0.0
C786 C 0.90561 0.81021 0.59441 0.0
C787 C 0.87676 0.82086 0.57354 0.0
C788 C 0.94155 0.82889 0.52732 0.0
C789 C 0.95684 0.80187 0.59149 0.0
N790 N 0.89915 0.82569 0.57575 0.0
N791 N 0.93742 0.80164 0.6123 0.0
H792 H 0.82918 0.52611 0.84277 0.0
H793 H 0.73829 0.55941 0.67459 0.0
H794 H 0.84236 0.56767 0.65925 0.0
H795 H 0.7317 0.52603 0.87503 0.0
H796 H 0.77312 0.55717 0.65451 0.0
H797 H 0.79021 0.52023 0.84045 0.0
C798 C 0.82378 0.53382 0.80134 0.0
C799 C 0.83918 0.54766 0.7517 0.0
C800 C 0.76387 0.55012 0.7024 0.0
C801 C 0.79442 0.54117 0.74929 0.0
C802 C 0.74393 0.55129 0.71378 0.0
C803 C 0.73214 0.54307 0.77702 0.0
C804 C 0.77198 0.54053 0.75433 0.0
C805 C 0.74032 0.53282 0.82594 0.0
C806 C 0.80148 0.53047 0.80012 0.0
C807 C 0.83106 0.55693 0.69866 0.0
N808 N 0.75975 0.53197 0.81377 0.0
N809 N 0.8093 0.55377 0.69942 0.0
H810 H 0.50052 0.31791 0.8874 0.0
H811 H 0.45988 0.1922 0.7031 0.0
H812 H 0.45271 0.28847 0.69326 0.0
H813 H 0.50347 0.22284 0.90543 0.0
H814 H 0.46128 0.2288 0.68582 0.0
H815 H 0.50626 0.28508 0.8814 0.0
C816 C 0.49134 0.30457 0.84298 0.0
C817 C 0.47588 0.30581 0.79131 0.0
C818 C 0.47076 0.22753 0.73343 0.0
C819 C 0.48215 0.26772 0.78456 0.0
C820 C 0.47006 0.2067 0.74313 0.0
C821 C 0.48137 0.20439 0.80624 0.0
C822 C 0.48299 0.24613 0.78699 0.0
C823 C 0.49422 0.2237 0.85646 0.0
C824 C 0.49462 0.28576 0.83956 0.0
C825 C 0.46475 0.28815 0.73435 0.0
N826 N 0.49455 0.2436 0.84596 0.0
N827 N 0.46784 0.26962 0.73305 0.0
H828 H 0.73731 0.22637 0.89133 0.0
H829 H 0.85049 0.29514 0.67577 0.0
H830 H 0.7466 0.19968 0.68391 0.0
H831 H 0.84027 0.31732 0.88959 0.0
H832 H 0.8108 0.26245 0.66834 0.0
H833 H 0.77297 0.26216 0.88157 0.0
C834 C 0.74677 0.2281 0.84329 0.0
C835 C 0.73906 0.20987 0.78876 0.0
C836 C 0.81723 0.27463 0.71648 0.0
C837 C 0.78031 0.25097 0.77751 0.0
C838 C 0.83984 0.29331 0.72068 0.0
C839 C 0.84882 0.30887 0.78377 0.0
C840 C 0.80353 0.27161 0.77562 0.0
C841 C 0.83425 0.30564 0.84029 0.0
C842 C 0.76721 0.2486 0.83774 0.0
C843 C 0.75195 0.21328 0.72733 0.0
N844 N 0.81246 0.28738 0.83499 0.0
N845 N 0.77213 0.23335 0.72375 0.0
H846 H 0.86287 0.48566 0.74014 0.0
H847 H 0.93367 0.42817 0.89505 0.0
H848 H 0.92683 0.52399 0.87741 0.0
H849 H 0.86707 0.39132 0.77125 0.0
H850 H 0.92952 0.46242 0.90554 0.0
H851 H 0.86188 0.45016 0.76695 0.0
C852 C 0.87654 0.48654 0.77695 0.0
C853 C 0.89503 0.50776 0.80605 0.0
C854 C 0.91564 0.44671 0.87728 0.0
C855 C 0.89438 0.46712 0.83596 0.0
C856 C 0.91795 0.42713 0.87169 0.0
C857 C 0.90078 0.40698 0.83152 0.0
C858 C 0.89602 0.44601 0.84243 0.0
C859 C 0.88083 0.40659 0.80201 0.0
C860 C 0.87603 0.46625 0.79219 0.0
C861 C 0.91226 0.50793 0.85371 0.0
N862 N 0.87913 0.42582 0.80732 0.0
N863 N 0.91174 0.48792 0.86623 0.0
H864 H 0.51715 0.42059 0.92126 0.0
H865 H 0.64004 0.47356 0.76381 0.0
H866 H 0.53855 0.38426 0.77382 0.0
H867 H 0.62236 0.5121 0.91569 0.0
H868 H 0.60632 0.43824 0.79303 0.0
H869 H 0.55781 0.45134 0.94536 0.0
C870 C 0.53055 0.41864 0.89663 0.0
C871 C 0.52466 0.39988 0.84594 0.0
C872 C 0.60998 0.45427 0.82164 0.0
C873 C 0.57088 0.43505 0.87124 0.0
C874 C 0.62941 0.47442 0.80539 0.0
C875 C 0.63403 0.49563 0.83792 0.0
C876 C 0.59448 0.45537 0.86886 0.0
C877 C 0.61949 0.49596 0.8903 0.0
C878 C 0.55371 0.43629 0.90964 0.0
C879 C 0.54248 0.39842 0.81363 0.0
N880 N 0.60001 0.47614 0.90298 0.0
N881 N 0.56468 0.41585 0.8261 0.0
H882 H 0.64957 0.18805 0.83742 0.0
H883 H 0.52025 0.11966 0.95362 0.0
H884 H 0.61376 0.11789 0.89126 0.0
H885 H 0.5469 0.18225 0.8463 0.0
H886 H 0.55937 0.12574 0.97192 0.0
H887 H 0.61711 0.19232 0.87768 0.0
C888 C 0.63531 0.17387 0.86054 0.0
C889 C 0.6343 0.15264 0.86181 0.0
C890 C 0.55688 0.13856 0.94629 0.0
C891 C 0.59725 0.15722 0.90681 0.0
C892 C 0.53458 0.13524 0.93679 0.0
C893 C 0.53047 0.1506 0.8992 0.0
C894 C 0.57519 0.15711 0.91622 0.0
C895 C 0.5495 0.17022 0.87665 0.0
C896 C 0.61673 0.17622 0.88279 0.0
C897 C 0.61524 0.13458 0.89018 0.0
N898 N 0.57104 0.1727 0.8841 0.0
N899 N 0.59744 0.13722 0.91105 0.0
H900 H 0.49795 0.86811 0.15464 0.0
H901 H 0.40675 0.91007 0.07881 0.0
H902 H 0.5155 0.93383 0.07899 0.0
H903 H 0.40355 0.86675 0.24872 0.0
H904 H 0.43992 0.90817 0.03377 0.0
H905 H 0.45686 0.85713 0.14256 0.0
C906 C 0.49304 0.87979 0.1323 0.0
C907 C 0.50997 0.90188 0.11778 0.0
C908 C 0.43141 0.89846 0.07932 0.0
C909 C 0.46336 0.88962 0.10448 0.0
C910 C 0.41241 0.89939 0.10458 0.0
C911 C 0.40258 0.88859 0.16758 0.0
C912 C 0.44019 0.88633 0.11675 0.0
C913 C 0.41078 0.87533 0.20002 0.0
C914 C 0.46967 0.87363 0.1261 0.0
C915 C 0.50283 0.91663 0.09061 0.0
N916 N 0.42924 0.87472 0.17468 0.0
N917 N 0.48007 0.91035 0.08559 0.0
H918 H 0.17433 0.64692 0.28145 0.0
H919 H 0.14427 0.52828 0.067 0.0
H920 H 0.14244 0.62687 0.0589 0.0
H921 H 0.18126 0.55334 0.28213 0.0
H922 H 0.14684 0.56557 0.05567 0.0
H923 H 0.18042 0.61427 0.27587 0.0
C924 C 0.16876 0.63572 0.23107 0.0
C925 C 0.15763 0.6395 0.17085 0.0
C926 C 0.15465 0.56296 0.10486 0.0
C927 C 0.16432 0.60171 0.16423 0.0
C928 C 0.15327 0.54171 0.11124 0.0
C929 C 0.16228 0.53756 0.17606 0.0
C930 C 0.16512 0.58008 0.1637 0.0
C931 C 0.17372 0.55558 0.23163 0.0
C932 C 0.17227 0.61704 0.22781 0.0
C933 C 0.15105 0.62455 0.10669 0.0
N934 N 0.17461 0.5759 0.22442 0.0
N935 N 0.15419 0.60609 0.10537 0.0
H936 H 0.4953 0.66727 0.2152 0.0
H937 H 0.41845 0.53852 0.03734 0.0
H938 H 0.5206 0.63643 0.06083 0.0
H939 H 0.4058 0.56654 0.23576 0.0
H940 H 0.45041 0.5769 0.01877 0.0
H941 H 0.45655 0.63393 0.19136 0.0
C942 C 0.4924 0.65387 0.17358 0.0
C943 C 0.511 0.65456 0.13949 0.0
C944 C 0.44037 0.57464 0.06566 0.0
C945 C 0.46705 0.61581 0.11486 0.0
C946 C 0.42214 0.55279 0.07633 0.0
C947 C 0.40966 0.54929 0.13881 0.0
C948 C 0.44586 0.59313 0.11722 0.0
C949 C 0.41518 0.56837 0.18749 0.0
C950 C 0.47037 0.63467 0.16087 0.0
C951 C 0.50654 0.63659 0.08732 0.0
N952 N 0.43291 0.5894 0.17583 0.0
N953 N 0.48504 0.61761 0.07771 0.0
H954 H 0.5845 0.76279 0.31337 0.0
H955 H 0.52873 0.8288 0.11775 0.0
H956 H 0.53198 0.73404 0.13123 0.0
H957 H 0.57859 0.85916 0.30673 0.0
H958 H 0.52556 0.79194 0.13614 0.0
H959 H 0.57869 0.796 0.32637 0.0
C960 C 0.57142 0.76323 0.27728 0.0
C961 C 0.55897 0.74588 0.22035 0.0
C962 C 0.53703 0.80653 0.17435 0.0
C963 C 0.55234 0.78363 0.23444 0.0
C964 C 0.53882 0.82761 0.16377 0.0
C965 C 0.55414 0.84709 0.21023 0.0
C966 C 0.551 0.8049 0.23101 0.0
C967 C 0.5666 0.84452 0.26954 0.0
C968 C 0.56818 0.78221 0.28444 0.0
C969 C 0.54227 0.74727 0.17498 0.0
N970 N 0.56509 0.82386 0.27752 0.0
N971 N 0.53963 0.76588 0.18253 0.0
H972 H 0.31278 0.82241 0.1483 0.0
H973 H 0.1896 0.76128 0.293 0.0
H974 H 0.29583 0.8542 0.32696 0.0
H975 H 0.21763 0.72535 0.17383 0.0
H976 H 0.22898 0.79419 0.32 0.0
H977 H 0.2789 0.78572 0.16644 0.0
C978 C 0.30202 0.82158 0.19191 0.0
C979 C 0.30698 0.84135 0.23575 0.0
C980 C 0.2266 0.77879 0.29022 0.0
C981 C 0.26788 0.79945 0.25634 0.0
C982 C 0.20418 0.75996 0.27568 0.0
C983 C 0.2006 0.7407 0.23168 0.0
C984 C 0.24521 0.77825 0.25916 0.0
C985 C 0.21985 0.73995 0.20836 0.0
C986 C 0.28272 0.8006 0.20261 0.0
C987 C 0.29258 0.8393 0.29193 0.0
N988 N 0.24128 0.75861 0.22121 0.0
N989 N 0.27338 0.81878 0.29974 0.0
H990 H 0.32378 0.53019 0.14972 0.0
H991 H 0.20323 0.46395 0.30697 0.0
H992 H 0.30603 0.47464 0.28686 0.0
H993 H 0.22667 0.52524 0.19417 0.0
H994 H 0.24353 0.47321 0.33055 0.0
H995 H 0.2925 0.53483 0.19468 0.0
C996 C 0.31369 0.51948 0.19139 0.0
C997 C 0.31741 0.5021 0.21492 0.0
C998 C 0.23999 0.48514 0.30322 0.0
C999 C 0.28065 0.50631 0.26376 0.0
C1000 C 0.217 0.47999 0.29069 0.0
C1001 C 0.2118 0.49397 0.24899 0.0
C1002 C 0.25766 0.50419 0.27269 0.0
C1003 C 0.23009 0.51415 0.22698 0.0
C1004 C 0.29569 0.52198 0.2168 0.0
C1005 C 0.30373 0.48839 0.26804 0.0
N1006 N 0.25215 0.51845 0.23786 0.0
N1007 N 0.2855 0.49037 0.28933 0.0
H1008 H 0.03267 0.2172 0.17369 0.0
H1009 H 0.99247 0.24915 0.80171 0.0
H1010 H 0.98394 0.2414 0.16621 0.0
H1011 H 0.05719 0.24999 0.83339 0.0
H1012 H 0.98687 0.24339 0.9323 0.0
H1013 H 0.03908 0.22497 0.04452 0.0
C1014 C 0.02312 0.22387 0.14449 0.0
C1015 C 1.0077 0.2286 0.18028 0.0
C1016 C 1.00241 0.24507 0.91084 0.0
C1017 C 0.01504 0.23767 0.03326 0.0
C1018 C 1.00564 0.24843 0.83652 0.0
C1019 C 0.02533 0.25007 0.80709 0.0
C1020 C 0.01878 0.2429 0.95554 0.0
C1021 C 0.04184 0.24893 0.85422 0.0
C1022 C 0.02694 0.22852 0.07115 0.0
C1023 C 0.99593 0.23747 0.14037 0.0
N1024 N 0.03806 0.24514 0.92606 0.0
N1025 N 0.99979 0.24166 0.06883 0.0
H1026 H 0.75774 0.7675 0.22649 0.0
H1027 H 0.83393 0.80925 0.88042 0.0
H1028 H 0.83114 0.79271 0.23786 0.0
H1029 H 0.76012 0.78176 0.86618 0.0
H1030 H 0.83337 0.80414 0.01232 0.0
H1031 H 0.75811 0.77261 0.09442 0.0
C1032 C 0.77387 0.77392 0.20095 0.0
C1033 C 0.79443 0.77966 0.24283 0.0
C1034 C 0.81729 0.79929 0.98047 0.0
C1035 C 0.79509 0.78581 0.09241 0.0
C1036 C 0.81765 0.80232 0.90531 0.0
C1037 C 0.79705 0.79594 0.86264 0.0
C1038 C 0.79618 0.7898 0.01306 0.0
C1039 C 0.77639 0.78693 0.89733 0.0
C1040 C 0.77412 0.77693 0.12572 0.0
C1041 C 0.8149 0.78803 0.20737 0.0
N1042 N 0.77646 0.78407 0.97051 0.0
N1043 N 0.81473 0.79093 0.13426 0.0
H1044 H 0.26441 0.05603 0.20007 0.0
H1045 H 0.21584 0.97884 0.8164 0.0
H1046 H 0.20665 0.98682 0.17718 0.0
H1047 H 0.27134 0.04919 0.83715 0.0
H1048 H 0.21315 0.98098 0.94935 0.0
H1049 H 0.26744 0.05387 0.06729 0.0
C1050 C 0.25222 0.04047 0.16683 0.0
C1051 C 0.23525 0.02158 0.19924 0.0
C1052 C 0.22601 0.99593 0.92497 0.0
C1053 C 0.23879 0.01882 0.04786 0.0
C1054 C 0.22763 0.99465 0.84921 0.0
C1055 C 0.24382 0.01388 0.81613 0.0
C1056 C 0.24067 0.01658 0.96774 0.0
C1057 C 0.25864 0.03398 0.86079 0.0
C1058 C 0.25402 0.03918 0.09117 0.0
C1059 C 0.21994 1.00178 0.15405 0.0
N1060 N 0.25665 0.03486 0.93445 0.0
N1061 N 0.22213 1.00087 0.08055 0.0
H1062 H 0.05008 0.7913 0.8351 0.0
H1063 H 0.97376 0.77628 0.17171 0.0
H1064 H 0.99666 0.8094 0.83108 0.0
H1065 H 0.04367 0.78904 0.20187 0.0
H1066 H 0.97832 0.7812 0.04017 0.0
H1067 H 0.04501 0.78437 0.96524 0.0
C1068 C 0.03743 0.79399 0.86195 0.0
C1069 C 0.02384 0.80105 0.82294 0.0
C1070 C 0.99257 0.78276 0.07564 0.0
C1071 C 0.01758 0.79263 0.97027 0.0
C1072 C 0.98991 0.77974 0.15028 0.0
C1073 C 1.00841 0.78236 0.19718 0.0
C1074 C 0.01375 0.78808 0.04802 0.0
C1075 C 0.02905 0.78699 0.16719 0.0
C1076 C 0.03451 0.78998 0.93589 0.0
C1077 C 1.00759 0.80416 0.85971 0.0
N1078 N 0.03119 0.78972 0.09426 0.0
N1079 N 1.00474 0.79973 0.93143 0.0
H1080 H 0.19419 0.22029 0.12654 0.0
H1081 H 0.27011 0.25985 0.77849 0.0
H1082 H 0.26682 0.24199 0.13726 0.0
H1083 H 0.19767 0.23889 0.77005 0.0
H1084 H 0.26952 0.25382 0.91002 0.0
H1085 H 0.19507 0.22652 0.9954 0.0
C1086 C 0.21027 0.22615 0.10104 0.0
C1087 C 0.23044 0.23056 0.14269 0.0
C1088 C 0.25377 0.25064 0.87952 0.0
C1089 C 0.2317 0.23804 0.99275 0.0
C1090 C 0.25415 0.25421 0.80455 0.0
C1091 C 0.23392 0.24992 0.76344 0.0
C1092 C 0.233 0.24267 0.91358 0.0
C1093 C 0.21367 0.24247 0.79976 0.0
C1094 C 0.21082 0.22983 0.02625 0.0
C1095 C 0.25085 0.2383 0.10703 0.0
N1096 N 0.2137 0.23902 0.87258 0.0
N1097 N 0.25099 0.24185 0.03422 0.0
H1098 H 0.75724 0.98941 0.21009 0.0
H1099 H 0.83162 0.04017 0.86569 0.0
H1100 H 0.8247 0.05026 0.22736 0.0
H1101 H 0.76193 0.98267 0.84597 0.0
H1102 H 0.83003 0.04323 0.99926 0.0
H1103 H 0.75869 0.9863 0.07646 0.0
C1104 C 0.77223 1.00223 0.18551 0.0
C1105 C 0.79087 0.0201 0.22936 0.0
C1106 C 0.81512 0.02988 0.96576 0.0
C1107 C 0.79285 0.01652 0.07734 0.0
C1108 C 0.81609 0.02806 0.88971 0.0
C1109 C 0.79688 0.01116 0.84519 0.0
C1110 C 0.79478 0.01467 0.99717 0.0
C1111 C 0.77712 0.99594 0.87864 0.0
C1112 C 0.77313 1.00041 0.10942 0.0
C1113 C 0.80995 0.03623 0.19521 0.0
N1114 N 0.77654 0.99809 0.95272 0.0
N1115 N 0.81051 0.034 0.12114 0.0
H1116 H 0.71786 0.59871 0.16338 0.0
H1117 H 0.63929 0.53926 0.48973 0.0
H1118 H 0.6627 0.52823 0.14173 0.0
H1119 H 0.70918 0.59594 0.52909 0.0
H1120 H 0.64436 0.53843 0.35754 0.0
H1121 H 0.7123 0.60091 0.29467 0.0
C1122 C 0.70473 0.58365 0.18655 0.0
C1123 C 0.69081 0.56321 0.14213 0.0
C1124 C 0.6585 0.55114 0.39517 0.0
C1125 C 0.68398 0.56577 0.29118 0.0
C1126 C 0.65554 0.55177 0.4703 0.0
C1127 C 0.67387 0.56766 0.51999 0.0
C1128 C 0.67982 0.56672 0.36981 0.0
C1129 C 0.69466 0.58338 0.49232 0.0
C1130 C 0.70153 0.58493 0.26123 0.0
C1131 C 0.67392 0.54423 0.17446 0.0
N1132 N 0.69709 0.58253 0.41895 0.0
N1133 N 0.67083 0.54602 0.24707 0.0
H1134 H 0.42881 0.11203 0.5271 0.0
H1135 H 0.50495 0.16322 0.18463 0.0
H1136 H 0.50291 0.14182 0.53918 0.0
H1137 H 0.43046 0.12912 0.16783 0.0
H1138 H 0.50462 0.15661 0.31558 0.0
H1139 H 0.42893 0.11832 0.39581 0.0
C1140 C 0.44507 0.11967 0.5019 0.0
C1141 C 0.46587 0.12635 0.544 0.0
C1142 C 0.48833 0.15065 0.2834 0.0
C1143 C 0.46623 0.13396 0.39408 0.0
C1144 C 0.48854 0.15456 0.20874 0.0
C1145 C 0.46771 0.14679 0.16542 0.0
C1146 C 0.46713 0.13888 0.31509 0.0
C1147 C 0.44693 0.13548 0.19933 0.0
C1148 C 0.44516 0.12337 0.42703 0.0
C1149 C 0.48646 0.13634 0.5087 0.0
N1150 N 0.44716 0.13183 0.272 0.0
N1151 N 0.48614 0.13992 0.436 0.0
H1152 H 0.90513 0.38211 0.13743 0.0
H1153 H 0.93247 0.33564 0.50203 0.0
H1154 H 0.9239 0.32953 0.13463 0.0
H1155 H 0.92329 0.39454 0.50313 0.0
H1156 H 0.92806 0.33211 0.36729 0.0
H1157 H 0.90931 0.38529 0.27214 0.0
C1158 C 0.90991 0.37109 0.16533 0.0
C1159 C 0.91421 0.35556 0.12533 0.0
C1160 C 0.92715 0.34589 0.39699 0.0
C1161 C 0.91926 0.35923 0.2787 0.0
C1162 C 0.92977 0.34795 0.47373 0.0
C1163 C 0.92826 0.36541 0.51328 0.0
C1164 C 0.92285 0.36132 0.35992 0.0
C1165 C 0.92462 0.38087 0.47439 0.0
C1166 C 0.91244 0.373 0.24207 0.0
C1167 C 0.92044 0.34173 0.16375 0.0
N1168 N 0.92191 0.37839 0.39972 0.0
N1169 N 0.92284 0.34392 0.23845 0.0
H1170 H 0.67869 0.17205 0.14273 0.0
H1171 H 0.69217 0.11363 0.49986 0.0
H1172 H 0.70667 0.12667 0.14131 0.0
H1173 H 0.65859 0.15402 0.49464 0.0
H1174 H 0.69827 0.11859 0.36911 0.0
H1175 H 0.6726 0.16684 0.27323 0.0
C1176 C 0.68375 0.16117 0.17017 0.0
C1177 C 0.69323 0.14982 0.13144 0.0
C1178 C 0.68946 0.12627 0.39644 0.0
C1179 C 0.68611 0.14354 0.28033 0.0
C1180 C 0.68589 0.12334 0.47092 0.0
C1181 C 0.67483 0.13339 0.50784 0.0
C1182 C 0.68201 0.13944 0.35888 0.0
C1183 C 0.66715 0.14594 0.46807 0.0
C1184 C 0.68016 0.15808 0.24451 0.0
C1185 C 0.69935 0.13579 0.16935 0.0
N1186 N 0.67097 0.14869 0.39584 0.0
N1187 N 0.69565 0.13301 0.24169 0.0
H1188 H 0.8997 0.53761 0.09631 0.0
H1189 H 0.92016 0.6056 0.48499 0.0
H1190 H 0.92319 0.60999 0.12048 0.0
H1191 H 0.9238 0.54361 0.4608 0.0
H1192 H 0.91859 0.60653 0.35126 0.0
H1193 H 0.90504 0.53805 0.2303 0.0
C1194 C 0.90587 0.55354 0.13 0.0
C1195 C 0.91094 0.57378 0.09788 0.0
C1196 C 0.91996 0.59285 0.37518 0.0
C1197 C 0.9171 0.57442 0.25009 0.0
C1198 C 0.92084 0.5923 0.4513 0.0
C1199 C 0.92205 0.57447 0.48334 0.0
C1200 C 0.91986 0.57519 0.33099 0.0
C1201 C 0.92293 0.55767 0.43776 0.0
C1202 C 0.90908 0.55382 0.20615 0.0
C1203 C 0.91904 0.59403 0.14346 0.0
N1204 N 0.92153 0.55827 0.36346 0.0
N1205 N 0.92175 0.59382 0.21752 0.0
H1206 H 0.46379 0.32846 0.15038 0.0
H1207 H 0.44716 0.38858 0.50598 0.0
H1208 H 0.43445 0.3725 0.13517 0.0
H1209 H 0.4401 0.32147 0.5051 0.0
H1210 H 0.44683 0.38605 0.37123 0.0
H1211 H 0.46023 0.3289 0.28371 0.0
C1212 C 0.45665 0.33822 0.17527 0.0
C1213 C 0.44938 0.35044 0.13235 0.0
C1214 C 0.44512 0.37182 0.40068 0.0
C1215 C 0.44548 0.3512 0.28346 0.0
C1216 C 0.44529 0.37325 0.47722 0.0
C1217 C 0.44364 0.3552 0.51613 0.0
C1218 C 0.44384 0.35245 0.36355 0.0
C1219 C 0.44133 0.33571 0.47678 0.0
C1220 C 0.4545 0.33836 0.25092 0.0
C1221 C 0.44018 0.3628 0.16671 0.0
N1222 N 0.44181 0.33495 0.40248 0.0
N1223 N 0.43867 0.36305 0.24058 0.0
H1224 H 0.33065 0.92029 0.49869 0.0
H1225 H 0.37406 0.89084 0.86985 0.0
H1226 H 0.39786 0.92648 0.53113 0.0
H1227 H 0.32252 0.91143 0.86311 0.0
H1228 H 0.38026 0.89926 0.74088 0.0
H1229 H 0.32514 0.91368 0.62889 0.0
C1230 C 0.34437 0.92058 0.53361 0.0
C1231 C 0.36476 0.92401 0.50447 0.0
C1232 C 0.36754 0.90185 0.76764 0.0
C1233 C 0.35833 0.91581 0.65251 0.0
C1234 C 0.36383 0.89682 0.84084 0.0
C1235 C 0.34769 0.90036 0.87682 0.0
C1236 C 0.35477 0.91017 0.73006 0.0
C1237 C 0.33508 0.90841 0.83715 0.0
C1238 C 0.34119 0.91672 0.60771 0.0
C1239 C 0.38196 0.92407 0.55174 0.0
N1240 N 0.33883 0.91298 0.76579 0.0
N1241 N 0.37824 0.91974 0.62335 0.0
H1242 H 0.10622 0.45969 0.89665 0.0
H1243 H 0.17797 0.48571 0.54433 0.0
H1244 H 0.16555 0.45082 0.88503 0.0
H1245 H 0.10558 0.46518 0.52835 0.0
H1246 H 0.17569 0.47797 0.67443 0.0
H1247 H 0.10694 0.46547 0.76497 0.0
C1248 C 0.11919 0.45866 0.86601 0.0
C1249 C 0.13583 0.45475 0.90132 0.0
C1250 C 0.16034 0.47522 0.64242 0.0
C1251 C 0.13716 0.46194 0.75194 0.0
C1252 C 0.16169 0.47986 0.56855 0.0
C1253 C 0.14194 0.47612 0.52595 0.0
C1254 C 0.13918 0.46714 0.67393 0.0
C1255 C 0.1212 0.4683 0.55959 0.0
C1256 C 0.11964 0.46201 0.79112 0.0
C1257 C 0.15235 0.45366 0.85953 0.0
N1258 N 0.12036 0.46414 0.63181 0.0
N1259 N 0.15279 0.45754 0.78709 0.0
H1260 H 0.61015 0.73841 0.85448 0.0
H1261 H 0.56524 0.65581 0.48112 0.0
H1262 H 0.55057 0.6703 0.83394 0.0
H1263 H 0.61364 0.72837 0.48761 0.0
H1264 H 0.56325 0.65981 0.6141 0.0
H1265 H 0.61439 0.73445 0.72269 0.0
C1266 C 0.59784 0.72272 0.82199 0.0
C1267 C 0.57992 0.7047 0.8548 0.0
C1268 C 0.57444 0.67484 0.58657 0.0
C1269 C 0.58491 0.69985 0.70485 0.0
C1270 C 0.57573 0.67253 0.51081 0.0
C1271 C 0.58958 0.69181 0.47351 0.0
C1272 C 0.58716 0.69659 0.6253 0.0
C1273 C 0.60274 0.71309 0.51447 0.0
C1274 C 0.60032 0.72042 0.74697 0.0
C1275 C 0.56454 0.68466 0.81056 0.0
N1276 N 0.60114 0.71494 0.58823 0.0
N1277 N 0.56746 0.68273 0.73792 0.0
H1278 H 0.31836 0.46117 0.84179 0.0
H1279 H 0.39953 0.48186 0.51252 0.0
H1280 H 0.38772 0.47265 0.87488 0.0
H1281 H 0.34196 0.49389 0.50084 0.0
H1282 H 0.39329 0.47372 0.64149 0.0
H1283 H 0.32393 0.46724 0.7111 0.0
C1284 C 0.3346 0.46458 0.8212 0.0
C1285 C 0.35264 0.46648 0.8689 0.0
C1286 C 0.38212 0.47828 0.61081 0.0
C1287 C 0.3592 0.47361 0.7203 0.0
C1288 C 0.38573 0.48301 0.53742 0.0
C1289 C 0.37134 0.48872 0.49638 0.0
C1290 C 0.36375 0.4789 0.64289 0.0
C1291 C 0.35357 0.48976 0.5309 0.0
C1292 C 0.33786 0.46827 0.74694 0.0
C1293 C 0.37342 0.47112 0.83976 0.0
N1294 N 0.35016 0.48474 0.60208 0.0
N1295 N 0.37615 0.47456 0.76731 0.0
H1296 H 0.53538 0.89995 0.83604 0.0
H1297 H 0.61006 0.93226 0.48423 0.0
H1298 H 0.60415 0.90959 0.83899 0.0
H1299 H 0.53987 0.91878 0.47894 0.0
H1300 H 0.60877 0.92525 0.61495 0.0
H1301 H 0.53681 0.90707 0.7056 0.0
C1302 C 0.5507 0.90332 0.80897 0.0
C1303 C 0.56963 0.90408 0.84834 0.0
C1304 C 0.59367 0.92393 0.58537 0.0
C1305 C 0.57158 0.91263 0.69904 0.0
C1306 C 0.59446 0.92807 0.51083 0.0
C1307 C 0.57506 0.92616 0.47073 0.0
C1308 C 0.57332 0.91782 0.62021 0.0
C1309 C 0.55525 0.92052 0.50783 0.0
C1310 C 0.55157 0.90752 0.73453 0.0
C1311 C 0.58911 0.90872 0.81061 0.0
N1312 N 0.55487 0.9165 0.58029 0.0
N1313 N 0.58962 0.91291 0.73823 0.0
H1314 H 0.1714 0.6999 0.51908 0.0
H1315 H 0.0973 0.67759 0.86515 0.0
H1316 H 0.09694 0.65826 0.49925 0.0
H1317 H 0.1701 0.69948 0.87944 0.0
H1318 H 0.09633 0.67277 0.73018 0.0
H1319 H 0.17101 0.70198 0.65256 0.0
C1320 C 0.155 0.69101 0.54316 0.0
C1321 C 0.13419 0.67892 0.49896 0.0
C1322 C 0.11244 0.67857 0.76325 0.0
C1323 C 0.13349 0.68144 0.65063 0.0
C1324 C 0.11301 0.68145 0.83971 0.0
C1325 C 0.1338 0.68899 0.88257 0.0
C1326 C 0.13287 0.68351 0.7307 0.0
C1327 C 0.15371 0.69363 0.84797 0.0
C1328 C 0.15474 0.6922 0.61912 0.0
C1329 C 0.11334 0.6677 0.53215 0.0
N1330 N 0.15277 0.69088 0.77393 0.0
N1331 N 0.11346 0.66939 0.60653 0.0
loop_
_geom_bond_atom_site_label_1
_geom_bond_atom_site_label_2
_geom_bond_distance
_geom_bond_site_symmetry_2
_ccdc_geom_bond_type
Dy0 O4 2.398 . S
Dy0 O5 2.491 1_455 S
Dy0 O6 2.403 . S
Dy0 O7 2.664 . S
Dy0 O11 2.328 . S
Dy0 O15 2.310 1_455 S
Dy0 O16 2.351 . S
C1 O12 1.185 1_455 S
C1 O13 1.355 . S
C2 O4 1.185 . S
C2 O5 1.355 1_455 S
Dy3 O7 2.310 1_655 S
Dy3 O10 2.351 . S
Dy3 O12 2.398 . S
Dy3 O13 2.491 1_655 S
Dy3 O14 2.403 . S
Dy3 O15 2.664 . S
Dy3 O17 2.326 1_655 S
O4 Dy0 2.398 . S
O4 C2 1.185 . S
O5 Dy0 2.491 1_655 S
O5 C2 1.355 1_655 S
O6 Dy0 2.403 . S
O6 C8 1.254 . S
O7 Dy0 2.664 . S
O7 Dy3 2.310 1_455 S
O7 C8 1.268 . S
C8 O6 1.254 . S
C8 O7 1.268 . S
C9 O14 1.254 . S
C9 O15 1.268 . S
O10 Dy3 2.351 . S
O10 C18 1.249 . S
O11 Dy0 2.328 . S
O11 C18 1.258 1_455 S
O12 C1 1.185 1_655 S
O12 Dy3 2.398 . S
O13 C1 1.355 . S
O13 Dy3 2.491 1_455 S
O14 Dy3 2.403 . S
O14 C9 1.254 . S
O15 Dy0 2.310 1_655 S
O15 Dy3 2.664 . S
O15 C9 1.268 . S
O16 Dy0 2.351 . S
O16 C19 1.249 . S
O17 Dy3 2.326 1_455 S
O17 C19 1.267 . S
C18 O10 1.249 . S
C18 O11 1.258 1_655 S
C19 O16 1.249 . S
C19 O17 1.267 . S
Dy20 O24 2.398 . S
Dy20 O25 2.491 . S
Dy20 O26 2.403 . S
Dy20 O27 2.664 . S
Dy20 O31 2.326 . S
Dy20 O35 2.310 . S
Dy20 O36 2.351 . S
C21 O32 1.185 . S
C21 O33 1.355 . S
C22 O24 1.185 . S
C22 O25 1.355 . S
Dy23 O27 2.310 . S
Dy23 O30 2.351 . S
Dy23 O32 2.398 . S
Dy23 O33 2.491 . S
Dy23 O34 2.403 . S
Dy23 O35 2.664 . S
Dy23 O37 2.326 . S
O24 Dy20 2.398 . S
O24 C22 1.185 . S
O25 Dy20 2.491 . S
O25 C22 1.355 . S
O26 Dy20 2.403 . S
O26 C28 1.254 . S
O27 Dy20 2.664 . S
O27 Dy23 2.310 . S
O27 C28 1.268 . S
C28 O26 1.254 . S
C28 O27 1.268 . S
C29 O34 1.254 . S
C29 O35 1.268 . S
O30 Dy23 2.351 . S
O30 C38 1.249 . S
O31 Dy20 2.326 . S
O31 C38 1.267 . S
O32 C21 1.185 . S
O32 Dy23 2.398 . S
O33 C21 1.355 . S
O33 Dy23 2.491 . S
O34 Dy23 2.403 . S
O34 C29 1.254 . S
O35 Dy20 2.310 . S
O35 Dy23 2.664 . S
O35 C29 1.268 . S
O36 Dy20 2.351 . S
O36 C39 1.249 . S
O37 Dy23 2.326 . S
O37 C39 1.267 . S
C38 O30 1.249 . S
C38 O31 1.267 . S
C39 O36 1.249 . S
C39 O37 1.267 . S
Dy40 O44 2.399 1_545 S
Dy40 O45 2.491 . S
Dy40 O46 2.403 1_545 S
Dy40 O47 2.664 1_545 S
Dy40 O51 2.326 . S
Dy40 O55 2.310 . S
Dy40 O56 2.351 1_545 S
C41 O52 1.185 . S
C41 O53 1.355 1_545 S
C42 O44 1.178 1_545 S
C42 O45 1.355 . S
Dy43 O47 2.310 1_545 S
Dy43 O50 2.351 . S
Dy43 O52 2.398 . S
Dy43 O53 2.491 1_545 S
Dy43 O54 2.403 . S
Dy43 O55 2.664 . S
Dy43 O57 2.383 . S
O44 Dy40 2.399 1_565 S
O44 C42 1.178 1_565 S
O45 Dy40 2.491 . S
O45 C42 1.355 . S
O46 Dy40 2.403 1_565 S
O46 C48 1.254 . S
O47 Dy40 2.664 1_565 S
O47 Dy43 2.310 1_565 S
O47 C48 1.268 . S
C48 O46 1.254 . S
C48 O47 1.268 . S
C49 O54 1.254 . S
C49 O55 1.268 . S
O50 Dy43 2.351 . S
O50 C58 1.249 . S
O51 Dy40 2.326 . S
O51 C58 1.267 . S
O52 C41 1.185 . S
O52 Dy43 2.398 . S
O53 C41 1.355 1_565 S
O53 Dy43 2.491 1_565 S
O54 Dy43 2.403 . S
O54 C49 1.254 . S
O55 Dy40 2.310 . S
O55 Dy43 2.664 . S
O55 C49 1.268 . S
O56 Dy40 2.351 1_565 S
O56 C59 1.249 . S
O57 Dy43 2.383 . S
O57 C59 1.217 1_545 S
C58 O50 1.249 . S
C58 O51 1.267 . S
C59 O56 1.249 . S
C59 O57 1.217 1_565 S
Dy60 O64 2.398 . S
Dy60 O65 2.491 1_455 S
Dy60 O66 2.403 . S
Dy60 O67 2.664 . S
Dy60 O71 2.326 1_455 S
Dy60 O75 2.310 1_455 S
Dy60 O76 2.351 . S
C61 O72 1.185 1_455 S
C61 O73 1.355 . S
C62 O64 1.185 . S
C62 O65 1.355 1_455 S
Dy63 O67 2.310 1_655 S
Dy63 O70 2.351 . S
Dy63 O72 2.398 . S
Dy63 O73 2.491 1_655 S
Dy63 O74 2.403 . S
Dy63 O75 2.664 . S
Dy63 O77 2.326 1_655 S
O64 Dy60 2.398 . S
O64 C62 1.185 . S
O65 Dy60 2.491 1_655 S
O65 C62 1.355 1_655 S
O66 Dy60 2.403 . S
O66 C68 1.254 . S
O67 Dy60 2.664 . S
O67 Dy63 2.310 1_455 S
O67 C68 1.268 . S
C68 O66 1.254 . S
C68 O67 1.268 . S
C69 O74 1.254 . S
C69 O75 1.268 . S
O70 Dy63 2.351 . S
O70 C78 1.249 . S
O71 Dy60 2.326 1_655 S
O71 C78 1.268 . S
O72 C61 1.185 1_655 S
O72 Dy63 2.398 . S
O73 C61 1.355 . S
O73 Dy63 2.491 1_455 S
O74 Dy63 2.403 . S
O74 C69 1.254 . S
O75 Dy60 2.310 1_655 S
O75 Dy63 2.664 . S
O75 C69 1.268 . S
O76 Dy60 2.351 . S
O76 C79 1.249 . S
O77 Dy63 2.326 1_455 S
O77 C79 1.267 . S
C78 O70 1.249 . S
C78 O71 1.268 . S
C79 O76 1.249 . S
C79 O77 1.267 . S
Dy80 O84 2.398 . S
Dy80 O85 2.491 . S
Dy80 O86 2.403 . S
Dy80 O87 2.664 . S
Dy80 O91 2.326 . S
Dy80 O95 2.310 . S
Dy80 O96 2.351 . S
C81 O92 1.185 . S
C81 O93 1.355 . S
C82 O84 1.185 . S
C82 O85 1.355 . S
Dy83 O87 2.310 . S
Dy83 O90 2.351 . S
Dy83 O92 2.398 . S
Dy83 O93 2.491 . S
Dy83 O94 2.403 . S
Dy83 O95 2.664 . S
Dy83 O97 2.326 . S
O84 Dy80 2.398 . S
O84 C82 1.185 . S
O85 Dy80 2.491 . S
O85 C82 1.355 . S
O86 Dy80 2.403 . S
O86 C88 1.254 . S
O87 Dy80 2.664 . S
O87 Dy83 2.310 . S
O87 C88 1.268 . S
C88 O86 1.254 . S
C88 O87 1.268 . S
C89 O94 1.254 . S
C89 O95 1.268 . S
O90 Dy83 2.351 . S
O90 C98 1.249 . S
O91 Dy80 2.326 . S
O91 C98 1.267 . S
O92 C81 1.185 . S
O92 Dy83 2.398 . S
O93 C81 1.355 . S
O93 Dy83 2.491 . S
O94 Dy83 2.403 . S
O94 C89 1.254 . S
O95 Dy80 2.310 . S
O95 Dy83 2.664 . S
O95 C89 1.268 . S
O96 Dy80 2.351 . S
O96 C99 1.249 . S
O97 Dy83 2.326 . S
O97 C99 1.267 . S
C98 O90 1.249 . S
C98 O91 1.267 . S
C99 O96 1.249 . S
C99 O97 1.267 . S
Dy100 O104 2.398 . S
Dy100 O105 2.491 . S
Dy100 O106 2.403 1_545 S
Dy100 O107 2.664 1_545 S
Dy100 O111 2.326 . S
Dy100 O115 2.310 . S
Dy100 O116 2.351 1_545 S
C101 O112 1.185 . S
C101 O113 1.355 1_545 S
C102 O104 1.185 . S
C102 O105 1.355 . S
Dy103 O107 2.310 1_545 S
Dy103 O110 2.351 . S
Dy103 O112 2.398 . S
Dy103 O113 2.491 1_545 S
Dy103 O114 2.403 . S
Dy103 O115 2.664 . S
Dy103 O117 2.326 . S
O104 Dy100 2.398 . S
O104 C102 1.185 . S
O105 Dy100 2.491 . S
O105 C102 1.355 . S
O106 Dy100 2.403 1_565 S
O106 C108 1.254 . S
O107 Dy100 2.664 1_565 S
O107 Dy103 2.310 1_565 S
O107 C108 1.268 . S
C108 O106 1.254 . S
C108 O107 1.268 . S
C109 O114 1.254 . S
C109 O115 1.268 . S
O110 Dy103 2.351 . S
O110 C118 1.249 . S
O111 Dy100 2.326 . S
O111 C118 1.267 . S
O112 C101 1.185 . S
O112 Dy103 2.398 . S
O113 C101 1.355 1_565 S
O113 Dy103 2.491 1_565 S
O114 Dy103 2.403 . S
O114 C109 1.254 . S
O115 Dy100 2.310 . S
O115 Dy103 2.664 . S
O115 C109 1.268 . S
O116 Dy100 2.351 1_565 S
O116 C119 1.249 . S
O117 Dy103 2.326 . S
O117 C119 1.267 1_545 S
C118 O110 1.249 . S
C118 O111 1.267 . S
C119 O116 1.249 . S
C119 O117 1.267 1_565 S
Dy120 O124 2.398 . S
Dy120 O125 2.491 . S
Dy120 O126 2.403 . S
Dy120 O127 2.664 . S
Dy120 O131 2.326 . S
Dy120 O135 2.310 . S
Dy120 O136 2.351 . S
C121 O132 1.185 1_554 S
C121 O133 1.355 1_554 S
C122 O124 1.185 . S
C122 O125 1.355 . S
Dy123 O127 2.310 . S
Dy123 O130 2.351 . S
Dy123 O132 2.398 . S
Dy123 O133 2.491 . S
Dy123 O134 2.403 . S
Dy123 O135 2.664 . S
Dy123 O137 2.326 . S
O124 Dy120 2.398 . S
O124 C122 1.185 . S
O125 Dy120 2.491 . S
O125 C122 1.355 . S
O126 Dy120 2.403 . S
O126 C128 1.254 . S
O127 Dy120 2.664 . S
O127 Dy123 2.310 . S
O127 C128 1.268 . S
C128 O126 1.254 . S
C128 O127 1.268 . S
C129 O134 1.254 . S
C129 O135 1.268 . S
O130 Dy123 2.351 . S
O130 C138 1.249 . S
O131 Dy120 2.326 . S
O131 C138 1.267 . S
O132 C121 1.185 1_556 S
O132 Dy123 2.398 . S
O133 C121 1.355 1_556 S
O133 Dy123 2.491 . S
O134 Dy123 2.403 . S
O134 C129 1.254 . S
O135 Dy120 2.310 . S
O135 Dy123 2.664 . S
O135 C129 1.268 . S
O136 Dy120 2.351 . S
O136 C139 1.249 . S
O137 Dy123 2.326 . S
O137 C139 1.267 . S
C138 O130 1.249 . S
C138 O131 1.267 . S
C139 O136 1.249 . S
C139 O137 1.267 . S
Dy140 O144 2.398 . S
Dy140 O145 2.491 . S
Dy140 O146 2.403 . S
Dy140 O147 2.664 . S
Dy140 O151 2.326 . S
Dy140 O155 2.310 . S
Dy140 O156 2.351 . S
C141 O152 1.185 . S
C141 O153 1.355 . S
C142 O144 1.185 . S
C142 O145 1.355 . S
Dy143 O147 2.310 . S
Dy143 O150 2.351 . S
Dy143 O152 2.398 . S
Dy143 O153 2.491 . S
Dy143 O154 2.403 . S
Dy143 O155 2.664 . S
Dy143 O157 2.326 . S
O144 Dy140 2.398 . S
O144 C142 1.185 . S
O145 Dy140 2.491 . S
O145 C142 1.355 . S
O146 Dy140 2.403 . S
O146 C148 1.254 . S
O147 Dy140 2.664 . S
O147 Dy143 2.310 . S
O147 C148 1.268 . S
C148 O146 1.254 . S
C148 O147 1.268 . S
C149 O154 1.254 . S
C149 O155 1.268 . S
O150 Dy143 2.351 . S
O150 C158 1.249 . S
O151 Dy140 2.326 . S
O151 C158 1.267 . S
O152 C141 1.185 . S
O152 Dy143 2.398 . S
O153 C141 1.355 . S
O153 Dy143 2.491 . S
O154 Dy143 2.403 . S
O154 C149 1.254 . S
O155 Dy140 2.310 . S
O155 Dy143 2.664 . S
O155 C149 1.268 . S
O156 Dy140 2.351 . S
O156 C159 1.249 . S
O157 Dy143 2.326 . S
O157 C159 1.267 . S
C158 O150 1.249 . S
C158 O151 1.267 . S
C159 O156 1.249 . S
C159 O157 1.267 . S
Dy160 O164 2.398 . S
Dy160 O165 2.491 . S
Dy160 O166 2.403 . S
Dy160 O167 2.664 . S
Dy160 O171 2.326 . S
Dy160 O175 2.310 . S
Dy160 O176 2.351 . S
C161 O172 1.185 1_554 S
C161 O173 1.355 1_554 S
C162 O164 1.185 . S
C162 O165 1.355 . S
Dy163 O167 2.310 . S
Dy163 O170 2.351 . S
Dy163 O172 2.398 . S
Dy163 O173 2.491 . S
Dy163 O174 2.403 . S
Dy163 O175 2.664 . S
Dy163 O177 2.326 . S
O164 Dy160 2.398 . S
O164 C162 1.185 . S
O165 Dy160 2.491 . S
O165 C162 1.355 . S
O166 Dy160 2.403 . S
O166 C168 1.254 . S
O167 Dy160 2.664 . S
O167 Dy163 2.310 . S
O167 C168 1.268 . S
C168 O166 1.254 . S
C168 O167 1.268 . S
C169 O174 1.254 . S
C169 O175 1.268 . S
O170 Dy163 2.351 . S
O170 C178 1.249 . S
O171 Dy160 2.326 . S
O171 C178 1.267 . S
O172 C161 1.185 1_556 S
O172 Dy163 2.398 . S
O173 C161 1.355 1_556 S
O173 Dy163 2.491 . S
O174 Dy163 2.403 . S
O174 C169 1.254 . S
O175 Dy160 2.310 . S
O175 Dy163 2.664 . S
O175 C169 1.268 . S
O176 Dy160 2.351 . S
O176 C179 1.249 . S
O177 Dy163 2.326 . S
O177 C179 1.267 . S
C178 O170 1.249 . S
C178 O171 1.267 . S
C179 O176 1.249 . S
C179 O177 1.267 . S
Dy180 O184 2.398 1_556 S
Dy180 O185 2.491 . S
Dy180 O186 2.403 . S
Dy180 O187 2.664 . S
Dy180 O191 2.326 . S
Dy180 O195 2.310 . S
Dy180 O196 2.351 . S
C181 O192 1.185 . S
C181 O193 1.355 . S
C182 O184 1.185 . S
C182 O185 1.355 1_554 S
Dy183 O187 2.310 . S
Dy183 O190 2.351 . S
Dy183 O192 2.398 . S
Dy183 O193 2.491 . S
Dy183 O194 2.403 . S
Dy183 O195 2.664 . S
Dy183 O197 2.326 . S
O184 Dy180 2.398 1_554 S
O184 C182 1.185 . S
O185 Dy180 2.491 . S
O185 C182 1.355 1_556 S
O186 Dy180 2.403 . S
O186 C188 1.254 . S
O187 Dy180 2.664 . S
O187 Dy183 2.310 . S
O187 C188 1.268 . S
C188 O186 1.254 . S
C188 O187 1.268 . S
C189 O194 1.254 . S
C189 O195 1.268 . S
O190 Dy183 2.351 . S
O190 C198 1.249 . S
O191 Dy180 2.326 . S
O191 C198 1.267 . S
O192 C181 1.185 . S
O192 Dy183 2.398 . S
O193 C181 1.355 . S
O193 Dy183 2.491 . S
O194 Dy183 2.403 . S
O194 C189 1.254 . S
O195 Dy180 2.310 . S
O195 Dy183 2.664 . S
O195 C189 1.268 . S
O196 Dy180 2.351 . S
O196 C199 1.249 . S
O197 Dy183 2.326 . S
O197 C199 1.267 . S
C198 O190 1.249 . S
C198 O191 1.267 . S
C199 O196 1.249 . S
C199 O197 1.267 . S
Dy200 O204 2.398 1_556 S
Dy200 O205 2.491 1_556 S
Dy200 O206 2.403 . S
Dy200 O207 2.664 . S
Dy200 O211 2.326 . S
Dy200 O215 2.310 . S
Dy200 O216 2.351 . S
C201 O212 1.185 . S
C201 O213 1.355 . S
C202 O204 1.185 . S
C202 O205 1.355 . S
Dy203 O207 2.310 . S
Dy203 O210 2.351 . S
Dy203 O212 2.398 . S
Dy203 O213 2.491 . S
Dy203 O214 2.403 . S
Dy203 O215 2.664 . S
Dy203 O217 2.326 . S
O204 Dy200 2.398 1_554 S
O204 C202 1.185 . S
O205 Dy200 2.491 1_554 S
O205 C202 1.355 . S
O206 Dy200 2.403 . S
O206 C208 1.254 . S
O207 Dy200 2.664 . S
O207 Dy203 2.310 . S
O207 C208 1.268 . S
C208 O206 1.254 . S
C208 O207 1.268 . S
C209 O214 1.254 . S
C209 O215 1.268 . S
O210 Dy203 2.351 . S
O210 C218 1.249 . S
O211 Dy200 2.326 . S
O211 C218 1.267 . S
O212 C201 1.185 . S
O212 Dy203 2.398 . S
O213 C201 1.355 . S
O213 Dy203 2.491 . S
O214 Dy203 2.403 . S
O214 C209 1.254 . S
O215 Dy200 2.310 . S
O215 Dy203 2.664 . S
O215 C209 1.268 . S
O216 Dy200 2.351 . S
O216 C219 1.249 . S
O217 Dy203 2.326 . S
O217 C219 1.267 . S
C218 O210 1.249 . S
C218 O211 1.267 . S
C219 O216 1.249 . S
C219 O217 1.267 . S
Dy220 O224 2.398 1_556 S
Dy220 O225 2.503 . S
Dy220 O226 2.403 . S
Dy220 O227 2.664 . S
Dy220 O231 2.326 . S
Dy220 O235 2.310 . S
Dy220 O236 2.351 . S
C221 O232 1.185 . S
C221 O233 1.355 . S
C222 O224 1.185 . S
C222 O225 1.346 1_554 S
Dy223 O227 2.310 . S
Dy223 O230 2.351 . S
Dy223 O232 2.398 . S
Dy223 O233 2.491 . S
Dy223 O234 2.403 . S
Dy223 O235 2.664 . S
Dy223 O237 2.326 . S
O224 Dy220 2.398 1_554 S
O224 C222 1.185 . S
O225 Dy220 2.503 . S
O225 C222 1.346 1_556 S
O226 Dy220 2.403 . S
O226 C228 1.254 . S
O227 Dy220 2.664 . S
O227 Dy223 2.310 . S
O227 C228 1.268 . S
C228 O226 1.254 . S
C228 O227 1.268 . S
C229 O234 1.254 . S
C229 O235 1.268 . S
O230 Dy223 2.351 . S
O230 C238 1.249 . S
O231 Dy220 2.326 . S
O231 C238 1.267 . S
O232 C221 1.185 . S
O232 Dy223 2.398 . S
O233 C221 1.355 . S
O233 Dy223 2.491 . S
O234 Dy223 2.403 . S
O234 C229 1.254 . S
O235 Dy220 2.310 . S
O235 Dy223 2.664 . S
O235 C229 1.268 . S
O236 Dy220 2.351 . S
O236 C239 1.249 . S
O237 Dy223 2.326 . S
O237 C239 1.267 . S
C238 O230 1.249 . S
C238 O231 1.267 . S
C239 O236 1.249 . S
C239 O237 1.267 . S
Dy240 O244 2.398 . S
Dy240 O245 2.491 . S
Dy240 O246 2.403 . S
Dy240 O247 2.664 . S
Dy240 O251 2.326 . S
Dy240 O255 2.310 . S
Dy240 O256 2.351 . S
C241 O252 1.185 . S
C241 O253 1.355 . S
C242 O244 1.185 . S
C242 O245 1.355 . S
Dy243 O247 2.310 . S
Dy243 O250 2.351 . S
Dy243 O252 2.398 1_554 S
Dy243 O253 2.491 1_554 S
Dy243 O254 2.403 . S
Dy243 O255 2.664 . S
Dy243 O257 2.326 . S
O244 Dy240 2.398 . S
O244 C242 1.185 . S
O245 Dy240 2.491 . S
O245 C242 1.355 . S
O246 Dy240 2.403 . S
O246 C248 1.254 . S
O247 Dy240 2.664 . S
O247 Dy243 2.310 . S
O247 C248 1.268 . S
C248 O246 1.254 . S
C248 O247 1.268 . S
C249 O254 1.254 . S
C249 O255 1.268 . S
O250 Dy243 2.351 . S
O250 C258 1.249 . S
O251 Dy240 2.326 . S
O251 C258 1.267 . S
O252 C241 1.185 . S
O252 Dy243 2.398 1_556 S
O253 C241 1.355 . S
O253 Dy243 2.491 1_556 S
O254 Dy243 2.403 . S
O254 C249 1.254 . S
O255 Dy240 2.310 . S
O255 Dy243 2.664 . S
O255 C249 1.268 . S
O256 Dy240 2.351 . S
O256 C259 1.249 . S
O257 Dy243 2.326 . S
O257 C259 1.267 . S
C258 O250 1.249 . S
C258 O251 1.267 . S
C259 O256 1.249 . S
C259 O257 1.267 . S
Dy260 O264 2.398 1_554 S
Dy260 O265 2.491 1_554 S
Dy260 O266 2.403 . S
Dy260 O267 2.664 . S
Dy260 O271 2.326 . S
Dy260 O275 2.310 . S
Dy260 O276 2.351 . S
C261 O272 1.185 . S
C261 O273 1.355 . S
C262 O264 1.185 . S
C262 O265 1.355 . S
Dy263 O267 2.310 . S
Dy263 O270 2.351 . S
Dy263 O272 2.398 . S
Dy263 O273 2.491 . S
Dy263 O274 2.403 . S
Dy263 O275 2.664 . S
Dy263 O277 2.326 . S
O264 Dy260 2.398 1_556 S
O264 C262 1.185 . S
O265 Dy260 2.491 1_556 S
O265 C262 1.355 . S
O266 Dy260 2.403 . S
O266 C268 1.254 . S
O267 Dy260 2.664 . S
O267 Dy263 2.310 . S
O267 C268 1.268 . S
C268 O266 1.254 . S
C268 O267 1.268 . S
C269 O274 1.254 . S
C269 O275 1.268 . S
O270 Dy263 2.351 . S
O270 C278 1.249 . S
O271 Dy260 2.326 . S
O271 C278 1.267 . S
O272 C261 1.185 . S
O272 Dy263 2.398 . S
O273 C261 1.355 . S
O273 Dy263 2.491 . S
O274 Dy263 2.403 . S
O274 C269 1.254 . S
O275 Dy260 2.310 . S
O275 Dy263 2.664 . S
O275 C269 1.268 . S
O276 Dy260 2.351 . S
O276 C279 1.249 . S
O277 Dy263 2.326 . S
O277 C279 1.267 . S
C278 O270 1.249 . S
C278 O271 1.267 . S
C279 O276 1.249 . S
C279 O277 1.267 . S
Dy280 O284 2.398 . S
Dy280 O285 2.491 . S
Dy280 O286 2.403 . S
Dy280 O287 2.664 . S
Dy280 O291 2.326 . S
Dy280 O295 2.310 . S
Dy280 O296 2.351 . S
C281 O292 1.185 . S
C281 O293 1.355 . S
C282 O284 1.185 . S
C282 O285 1.355 . S
Dy283 O287 2.310 . S
Dy283 O290 2.351 . S
Dy283 O292 2.398 1_554 S
Dy283 O293 2.491 1_554 S
Dy283 O294 2.403 . S
Dy283 O295 2.664 . S
Dy283 O297 2.326 . S
O284 Dy280 2.398 . S
O284 C282 1.185 . S
O285 Dy280 2.491 . S
O285 C282 1.355 . S
O286 Dy280 2.403 . S
O286 C288 1.254 . S
O287 Dy280 2.664 . S
O287 Dy283 2.310 . S
O287 C288 1.268 . S
C288 O286 1.254 . S
C288 O287 1.268 . S
C289 O294 1.254 . S
C289 O295 1.268 . S
O290 Dy283 2.351 . S
O290 C298 1.249 . S
O291 Dy280 2.326 . S
O291 C298 1.267 . S
O292 C281 1.185 . S
O292 Dy283 2.398 1_556 S
O293 C281 1.355 . S
O293 Dy283 2.491 1_556 S
O294 Dy283 2.403 . S
O294 C289 1.254 . S
O295 Dy280 2.310 . S
O295 Dy283 2.664 . S
O295 C289 1.268 . S
O296 Dy280 2.351 . S
O296 C299 1.249 . S
O297 Dy283 2.326 . S
O297 C299 1.267 . S
C298 O290 1.249 . S
C298 O291 1.267 . S
C299 O296 1.249 . S
C299 O297 1.267 . S
Dy300 O304 2.398 . S
Dy300 O305 2.491 . S
Dy300 O306 2.403 . S
Dy300 O307 2.664 . S
Dy300 O311 2.326 . S
Dy300 O315 2.310 . S
Dy300 O316 2.351 . S
C301 O312 1.185 . S
C301 O313 1.355 . S
C302 O304 1.185 . S
C302 O305 1.355 . S
Dy303 O307 2.310 . S
Dy303 O310 2.351 . S
Dy303 O312 2.398 1_554 S
Dy303 O313 2.491 1_554 S
Dy303 O314 2.403 . S
Dy303 O315 2.664 . S
Dy303 O317 2.326 . S
O304 Dy300 2.398 . S
O304 C302 1.185 . S
O305 Dy300 2.491 . S
O305 C302 1.355 . S
O306 Dy300 2.403 . S
O306 C308 1.254 . S
O307 Dy300 2.664 . S
O307 Dy303 2.310 . S
O307 C308 1.268 . S
C308 O306 1.254 . S
C308 O307 1.268 . S
C309 O314 1.254 . S
C309 O315 1.268 . S
O310 Dy303 2.351 . S
O310 C318 1.249 . S
O311 Dy300 2.326 . S
O311 C318 1.267 . S
O312 C301 1.185 . S
O312 Dy303 2.398 1_556 S
O313 C301 1.355 . S
O313 Dy303 2.491 1_556 S
O314 Dy303 2.403 . S
O314 C309 1.254 . S
O315 Dy300 2.310 . S
O315 Dy303 2.664 . S
O315 C309 1.268 . S
O316 Dy300 2.351 . S
O316 C319 1.249 . S
O317 Dy303 2.326 . S
O317 C319 1.267 . S
C318 O310 1.249 . S
C318 O311 1.267 . S
C319 O316 1.249 . S
C319 O317 1.267 . S
Dy320 O324 2.398 . S
Dy320 O325 2.491 . S
Dy320 O326 2.403 . S
Dy320 O327 2.664 . S
Dy320 O331 2.326 . S
Dy320 O335 2.310 . S
Dy320 O336 2.351 . S
C321 O332 1.185 . S
C321 O333 1.355 . S
C322 O324 1.185 1_556 S
C322 O325 1.355 1_556 S
Dy323 O327 2.310 . S
Dy323 O330 2.351 . S
Dy323 O332 2.398 . S
Dy323 O333 2.491 . S
Dy323 O334 2.403 . S
Dy323 O335 2.664 . S
Dy323 O337 2.326 . S
O324 Dy320 2.398 . S
O324 C322 1.185 1_554 S
O325 Dy320 2.491 . S
O325 C322 1.355 1_554 S
O326 Dy320 2.403 . S
O326 C328 1.254 . S
O327 Dy320 2.664 . S
O327 Dy323 2.310 . S
O327 C328 1.268 . S
C328 O326 1.254 . S
C328 O327 1.268 . S
C329 O334 1.254 . S
C329 O335 1.268 . S
O330 Dy323 2.351 . S
O330 C338 1.249 . S
O331 Dy320 2.326 . S
O331 C338 1.267 . S
O332 C321 1.185 . S
O332 Dy323 2.398 . S
O333 C321 1.355 . S
O333 Dy323 2.491 . S
O334 Dy323 2.403 . S
O334 C329 1.254 . S
O335 Dy320 2.310 . S
O335 Dy323 2.664 . S
O335 C329 1.268 . S
O336 Dy320 2.351 . S
O336 C339 1.249 . S
O337 Dy323 2.326 . S
O337 C339 1.267 . S
C338 O330 1.249 . S
C338 O331 1.267 . S
C339 O336 1.249 . S
C339 O337 1.267 . S
Dy340 O344 2.398 . S
Dy340 O345 2.491 . S
Dy340 O346 2.403 . S
Dy340 O347 2.664 . S
Dy340 O351 2.326 . S
Dy340 O355 2.310 . S
Dy340 O356 2.351 . S
C341 O352 1.185 1_556 S
C341 O353 1.355 1_556 S
C342 O344 1.185 . S
C342 O345 1.355 . S
Dy343 O347 2.310 . S
Dy343 O350 2.351 . S
Dy343 O352 2.398 . S
Dy343 O353 2.491 . S
Dy343 O354 2.403 . S
Dy343 O355 2.664 . S
Dy343 O357 2.326 . S
O344 Dy340 2.398 . S
O344 C342 1.185 . S
O345 Dy340 2.491 . S
O345 C342 1.355 . S
O346 Dy340 2.403 . S
O346 C348 1.254 . S
O347 Dy340 2.664 . S
O347 Dy343 2.310 . S
O347 C348 1.268 . S
C348 O346 1.254 . S
C348 O347 1.268 . S
C349 O354 1.254 . S
C349 O355 1.268 . S
O350 Dy343 2.351 . S
O350 C358 1.249 . S
O351 Dy340 2.326 . S
O351 C358 1.267 . S
O352 C341 1.185 1_554 S
O352 Dy343 2.398 . S
O353 C341 1.355 1_554 S
O353 Dy343 2.491 . S
O354 Dy343 2.403 . S
O354 C349 1.254 . S
O355 Dy340 2.310 . S
O355 Dy343 2.664 . S
O355 C349 1.268 . S
O356 Dy340 2.351 . S
O356 C359 1.249 . S
O357 Dy343 2.326 . S
O357 C359 1.267 . S
C358 O350 1.249 . S
C358 O351 1.267 . S
C359 O356 1.249 . S
C359 O357 1.267 . S
H360 C366 0.930 . S
H361 C370 0.930 . S
H362 C375 0.929 . S
H363 C373 0.929 . S
H364 C368 0.929 . S
H365 C374 0.929 . S
C366 H360 0.930 . S
C366 C367 1.367 . S
C366 C374 1.378 . S
C367 C366 1.367 . S
C367 C375 1.433 . S
C368 H364 0.929 . S
C368 C370 1.378 . S
C368 C372 1.350 . S
C369 C372 1.463 . S
C369 C374 1.350 . S
C369 N377 1.427 . S
C370 H361 0.930 . S
C370 C368 1.378 . S
C370 C371 1.367 . S
C371 C370 1.367 . S
C371 C373 1.433 . S
C372 C368 1.350 . S
C372 C369 1.463 . S
C372 N376 1.427 . S
C373 H363 0.929 . S
C373 C371 1.433 . S
C373 N376 1.384 . S
C374 H365 0.929 . S
C374 C366 1.378 . S
C374 C369 1.350 . S
C375 H362 0.929 . S
C375 C367 1.433 . S
C375 N377 1.384 . S
N376 C372 1.427 . S
N376 C373 1.384 . S
N377 C369 1.427 . S
N377 C375 1.384 . S
H378 C384 0.930 . S
H379 C388 0.930 . S
H380 C393 0.929 . S
H381 C391 0.929 . S
H382 C386 0.929 . S
H383 C392 0.929 . S
C384 H378 0.930 . S
C384 C385 1.367 . S
C384 C392 1.378 . S
C385 C384 1.367 . S
C385 C393 1.433 . S
C386 H382 0.929 . S
C386 C388 1.378 . S
C386 C390 1.350 . S
C387 C390 1.463 . S
C387 C392 1.350 . S
C387 N395 1.427 . S
C388 H379 0.930 . S
C388 C386 1.378 . S
C388 C389 1.367 . S
C389 C388 1.367 . S
C389 C391 1.433 . S
C390 C386 1.350 . S
C390 C387 1.463 . S
C390 N394 1.427 . S
C391 H381 0.929 . S
C391 C389 1.433 . S
C391 N394 1.384 . S
C392 H383 0.929 . S
C392 C384 1.378 . S
C392 C387 1.350 . S
C393 H380 0.929 . S
C393 C385 1.433 . S
C393 N395 1.384 . S
N394 C390 1.427 . S
N394 C391 1.384 . S
N395 C387 1.427 . S
N395 C393 1.384 . S
H396 C402 0.930 . S
H397 C406 0.930 . S
H398 C411 0.929 . S
H399 C409 0.929 . S
H400 C404 0.929 . S
H401 C410 0.929 . S
C402 H396 0.930 . S
C402 C403 1.367 . S
C402 C410 1.378 . S
C403 C402 1.367 . S
C403 C411 1.433 . S
C404 H400 0.929 . S
C404 C406 1.378 . S
C404 C408 1.350 . S
C405 C408 1.463 . S
C405 C410 1.350 . S
C405 N413 1.427 . S
C406 H397 0.930 . S
C406 C404 1.378 . S
C406 C407 1.367 . S
C407 C406 1.367 . S
C407 C409 1.433 . S
C408 C404 1.350 . S
C408 C405 1.463 . S
C408 N412 1.427 . S
C409 H399 0.929 . S
C409 C407 1.433 . S
C409 N412 1.384 . S
C410 H401 0.929 . S
C410 C402 1.378 . S
C410 C405 1.350 . S
C411 H398 0.929 . S
C411 C403 1.433 . S
C411 N413 1.384 . S
N412 C408 1.427 . S
N412 C409 1.384 . S
N413 C405 1.427 . S
N413 C411 1.384 . S
H414 C420 0.930 . S
H415 C424 0.930 . S
H416 C429 0.929 . S
H417 C427 0.929 . S
H418 C422 0.929 . S
H419 C428 0.929 . S
C420 H414 0.930 . S
C420 C421 1.367 . S
C420 C428 1.378 . S
C421 C420 1.367 . S
C421 C429 1.433 . S
C422 H418 0.929 . S
C422 C424 1.378 . S
C422 C426 1.350 . S
C423 C426 1.463 . S
C423 C428 1.350 . S
C423 N431 1.427 . S
C424 H415 0.930 . S
C424 C422 1.378 . S
C424 C425 1.367 . S
C425 C424 1.367 . S
C425 C427 1.433 . S
C426 C422 1.350 . S
C426 C423 1.463 . S
C426 N430 1.427 . S
C427 H417 0.929 . S
C427 C425 1.433 . S
C427 N430 1.384 . S
C428 H419 0.929 . S
C428 C420 1.378 . S
C428 C423 1.350 . S
C429 H416 0.929 . S
C429 C421 1.433 . S
C429 N431 1.384 . S
N430 C426 1.427 . S
N430 C427 1.384 . S
N431 C423 1.427 . S
N431 C429 1.384 . S
H432 C438 0.930 . S
H433 C442 0.930 . S
H434 C447 0.929 . S
H435 C445 0.929 . S
H436 C440 0.929 . S
H437 C446 0.929 . S
C438 H432 0.930 . S
C438 C439 1.367 . S
C438 C446 1.378 . S
C439 C438 1.367 . S
C439 C447 1.433 . S
C440 H436 0.929 . S
C440 C442 1.378 . S
C440 C444 1.350 . S
C441 C444 1.463 . S
C441 C446 1.350 . S
C441 N449 1.427 . S
C442 H433 0.930 . S
C442 C440 1.378 . S
C442 C443 1.367 . S
C443 C442 1.367 . S
C443 C445 1.433 . S
C444 C440 1.350 . S
C444 C441 1.463 . S
C444 N448 1.427 . S
C445 H435 0.929 . S
C445 C443 1.433 . S
C445 N448 1.384 . S
C446 H437 0.929 . S
C446 C438 1.378 . S
C446 C441 1.350 . S
C447 H434 0.929 . S
C447 C439 1.433 . S
C447 N449 1.384 . S
N448 C444 1.427 . S
N448 C445 1.384 . S
N449 C441 1.427 . S
N449 C447 1.384 . S
H450 C456 0.930 . S
H451 C460 0.930 . S
H452 C465 0.929 . S
H453 C463 0.929 . S
H454 C458 0.929 . S
H455 C464 0.929 . S
C456 H450 0.930 . S
C456 C457 1.367 . S
C456 C464 1.378 . S
C457 C456 1.367 . S
C457 C465 1.433 . S
C458 H454 0.929 . S
C458 C460 1.378 . S
C458 C462 1.350 . S
C459 C462 1.463 . S
C459 C464 1.350 . S
C459 N467 1.427 . S
C460 H451 0.930 . S
C460 C458 1.378 . S
C460 C461 1.367 . S
C461 C460 1.367 . S
C461 C463 1.433 . S
C462 C458 1.350 . S
C462 C459 1.463 . S
C462 N466 1.427 . S
C463 H453 0.929 . S
C463 C461 1.433 . S
C463 N466 1.384 . S
C464 H455 0.929 . S
C464 C456 1.378 . S
C464 C459 1.350 . S
C465 H452 0.929 . S
C465 C457 1.433 . S
C465 N467 1.384 . S
N466 C462 1.427 . S
N466 C463 1.384 . S
N467 C459 1.427 . S
N467 C465 1.384 . S
H468 C474 0.930 . S
H469 C478 0.930 . S
H470 C483 0.929 . S
H471 C481 0.929 . S
H472 C476 0.929 . S
H473 C482 0.929 . S
C474 H468 0.930 . S
C474 C475 1.367 . S
C474 C482 1.378 . S
C475 C474 1.367 . S
C475 C483 1.433 . S
C476 H472 0.929 . S
C476 C478 1.378 . S
C476 C480 1.350 . S
C477 C480 1.463 . S
C477 C482 1.350 . S
C477 N485 1.427 . S
C478 H469 0.930 . S
C478 C476 1.378 . S
C478 C479 1.367 . S
C479 C478 1.367 . S
C479 C481 1.433 . S
C480 C476 1.350 . S
C480 C477 1.463 . S
C480 N484 1.427 . S
C481 H471 0.929 . S
C481 C479 1.433 . S
C481 N484 1.384 . S
C482 H473 0.929 . S
C482 C474 1.378 . S
C482 C477 1.350 . S
C483 H470 0.929 . S
C483 C475 1.433 . S
C483 N485 1.384 . S
N484 C480 1.427 . S
N484 C481 1.384 . S
N485 C477 1.427 . S
N485 C483 1.384 . S
H486 C492 0.930 . S
H487 C496 0.930 . S
H488 C501 0.929 . S
H489 C499 0.929 . S
H490 C494 0.929 . S
H491 C500 0.929 . S
C492 H486 0.930 . S
C492 C493 1.367 . S
C492 C500 1.378 . S
C493 C492 1.367 . S
C493 C501 1.433 . S
C494 H490 0.929 . S
C494 C496 1.378 . S
C494 C498 1.350 . S
C495 C498 1.463 . S
C495 C500 1.350 . S
C495 N503 1.427 . S
C496 H487 0.930 . S
C496 C494 1.378 . S
C496 C497 1.367 . S
C497 C496 1.367 . S
C497 C499 1.433 . S
C498 C494 1.350 . S
C498 C495 1.463 . S
C498 N502 1.427 . S
C499 H489 0.929 . S
C499 C497 1.433 . S
C499 N502 1.384 . S
C500 H491 0.929 . S
C500 C492 1.378 . S
C500 C495 1.350 . S
C501 H488 0.929 . S
C501 C493 1.433 . S
C501 N503 1.384 . S
N502 C498 1.427 . S
N502 C499 1.384 . S
N503 C495 1.427 . S
N503 C501 1.384 . S
H504 C510 0.930 . S
H505 C514 0.930 . S
H506 C519 0.929 . S
H507 C517 0.929 . S
H508 C512 0.929 . S
H509 C518 0.929 . S
C510 H504 0.930 . S
C510 C511 1.367 . S
C510 C518 1.378 . S
C511 C510 1.367 . S
C511 C519 1.433 . S
C512 H508 0.929 . S
C512 C514 1.378 . S
C512 C516 1.350 . S
C513 C516 1.463 . S
C513 C518 1.350 . S
C513 N521 1.427 . S
C514 H505 0.930 . S
C514 C512 1.378 . S
C514 C515 1.367 . S
C515 C514 1.367 . S
C515 C517 1.433 . S
C516 C512 1.350 . S
C516 C513 1.463 . S
C516 N520 1.427 . S
C517 H507 0.929 . S
C517 C515 1.433 . S
C517 N520 1.384 . S
C518 H509 0.929 . S
C518 C510 1.378 . S
C518 C513 1.350 . S
C519 H506 0.929 . S
C519 C511 1.433 . S
C519 N521 1.384 . S
N520 C516 1.427 . S
N520 C517 1.384 . S
N521 C513 1.427 . S
N521 C519 1.384 . S
H522 C528 0.930 . S
H523 C532 0.930 . S
H524 C537 0.929 . S
H525 C535 0.929 . S
H526 C530 0.929 . S
H527 C536 0.929 . S
C528 H522 0.930 . S
C528 C529 1.367 . S
C528 C536 1.378 . S
C529 C528 1.367 . S
C529 C537 1.433 . S
C530 H526 0.929 . S
C530 C532 1.378 . S
C530 C534 1.350 . S
C531 C534 1.463 . S
C531 C536 1.350 . S
C531 N539 1.427 . S
C532 H523 0.930 . S
C532 C530 1.378 . S
C532 C533 1.367 . S
C533 C532 1.367 . S
C533 C535 1.433 . S
C534 C530 1.350 . S
C534 C531 1.463 . S
C534 N538 1.427 . S
C535 H525 0.929 . S
C535 C533 1.433 . S
C535 N538 1.384 . S
C536 H527 0.929 . S
C536 C528 1.378 . S
C536 C531 1.350 . S
C537 H524 0.929 . S
C537 C529 1.433 . S
C537 N539 1.384 . S
N538 C534 1.427 . S
N538 C535 1.384 . S
N539 C531 1.427 . S
N539 C537 1.384 . S
H540 C546 0.930 . S
H541 C550 0.930 . S
H542 C555 0.929 . S
H543 C553 0.929 . S
H544 C548 0.929 . S
H545 C554 0.929 . S
C546 H540 0.930 . S
C546 C547 1.367 . S
C546 C554 1.378 . S
C547 C546 1.367 . S
C547 C555 1.433 . S
C548 H544 0.929 . S
C548 C550 1.378 . S
C548 C552 1.350 . S
C549 C552 1.463 . S
C549 C554 1.350 . S
C549 N557 1.427 . S
C550 H541 0.930 . S
C550 C548 1.378 . S
C550 C551 1.367 . S
C551 C550 1.367 . S
C551 C553 1.433 . S
C552 C548 1.350 . S
C552 C549 1.463 . S
C552 N556 1.427 . S
C553 H543 0.929 . S
C553 C551 1.433 . S
C553 N556 1.384 . S
C554 H545 0.929 . S
C554 C546 1.378 . S
C554 C549 1.350 . S
C555 H542 0.929 . S
C555 C547 1.433 . S
C555 N557 1.384 . S
N556 C552 1.427 . S
N556 C553 1.384 . S
N557 C549 1.427 . S
N557 C555 1.384 . S
H558 C564 0.930 . S
H559 C568 0.930 . S
H560 C573 0.929 . S
H561 C571 0.929 . S
H562 C566 0.929 . S
H563 C572 0.929 . S
C564 H558 0.930 . S
C564 C565 1.367 . S
C564 C572 1.378 . S
C565 C564 1.367 . S
C565 C573 1.433 . S
C566 H562 0.929 . S
C566 C568 1.378 . S
C566 C570 1.350 . S
C567 C570 1.463 . S
C567 C572 1.350 . S
C567 N575 1.427 . S
C568 H559 0.930 . S
C568 C566 1.378 . S
C568 C569 1.367 . S
C569 C568 1.367 . S
C569 C571 1.433 . S
C570 C566 1.350 . S
C570 C567 1.463 . S
C570 N574 1.427 . S
C571 H561 0.929 . S
C571 C569 1.433 . S
C571 N574 1.384 . S
C572 H563 0.929 . S
C572 C564 1.378 . S
C572 C567 1.350 . S
C573 H560 0.929 . S
C573 C565 1.433 . S
C573 N575 1.384 . S
N574 C570 1.427 . S
N574 C571 1.384 . S
N575 C567 1.427 . S
N575 C573 1.384 . S
H576 C582 0.930 . S
H577 C586 0.930 . S
H578 C591 0.929 . S
H579 C589 0.935 . S
H580 C584 0.929 . S
H581 C590 0.929 1_455 S
C582 H576 0.930 . S
C582 C583 1.367 . S
C582 C590 1.378 . S
C583 C582 1.367 . S
C583 C591 1.433 . S
C584 H580 0.929 . S
C584 C586 1.378 . S
C584 C588 1.350 . S
C585 C588 1.463 1_656 S
C585 C590 1.350 . S
C585 N593 1.427 . S
C586 H577 0.930 . S
C586 C584 1.378 . S
C586 C587 1.367 . S
C587 C586 1.367 . S
C587 C589 1.433 . S
C588 C584 1.350 . S
C588 C585 1.463 1_454 S
C588 N592 1.427 1_554 S
C589 H579 0.935 . S
C589 C587 1.433 . S
C589 N592 1.384 1_554 S
C590 H581 0.929 1_655 S
C590 C582 1.378 . S
C590 C585 1.350 . S
C591 H578 0.929 . S
C591 C583 1.433 . S
C591 N593 1.384 . S
N592 C588 1.427 1_556 S
N592 C589 1.384 1_556 S
N593 C585 1.427 . S
N593 C591 1.384 . S
H594 C600 0.930 . S
H595 C604 0.930 . S
H596 C609 0.929 . S
H597 C607 0.929 1_556 S
H598 C602 0.929 . S
H599 C608 0.929 . S
C600 H594 0.930 . S
C600 C601 1.367 . S
C600 C608 1.378 . S
C601 C600 1.367 . S
C601 C609 1.433 . S
C602 H598 0.929 . S
C602 C604 1.378 . S
C602 C606 1.350 . S
C603 C606 1.463 1_556 S
C603 C608 1.350 . S
C603 N611 1.427 . S
C604 H595 0.930 . S
C604 C602 1.378 . S
C604 C605 1.367 . S
C605 C604 1.367 . S
C605 C607 1.433 . S
C606 C602 1.350 . S
C606 C603 1.463 1_554 S
C606 N610 1.427 1_554 S
C607 H597 0.929 1_554 S
C607 C605 1.433 . S
C607 N610 1.384 1_554 S
C608 H599 0.929 . S
C608 C600 1.378 . S
C608 C603 1.350 . S
C609 H596 0.929 . S
C609 C601 1.433 . S
C609 N611 1.384 . S
N610 C606 1.427 1_556 S
N610 C607 1.384 1_556 S
N611 C603 1.427 . S
N611 C609 1.384 . S
H612 C618 0.930 . S
H613 C622 0.930 . S
H614 C627 0.929 . S
H615 C625 0.929 . S
H616 C620 0.929 . S
H617 C626 0.929 . S
C618 H612 0.930 . S
C618 C619 1.367 . S
C618 C626 1.378 . S
C619 C618 1.367 . S
C619 C627 1.433 . S
C620 H616 0.929 . S
C620 C622 1.378 1_545 S
C620 C624 1.350 1_554 S
C621 C624 1.463 . S
C621 C626 1.350 . S
C621 N629 1.427 . S
C622 H613 0.930 . S
C622 C620 1.378 1_565 S
C622 C623 1.367 . S
C623 C622 1.367 . S
C623 C625 1.433 1_554 S
C624 C620 1.350 1_556 S
C624 C621 1.463 . S
C624 N628 1.427 1_545 S
C625 H615 0.929 . S
C625 C623 1.433 1_556 S
C625 N628 1.384 . S
C626 H617 0.929 . S
C626 C618 1.378 . S
C626 C621 1.350 . S
C627 H614 0.929 . S
C627 C619 1.433 . S
C627 N629 1.384 . S
N628 C624 1.427 1_565 S
N628 C625 1.384 . S
N629 C621 1.427 . S
N629 C627 1.384 . S
H630 C636 0.930 . S
H631 C640 0.930 . S
H632 C645 0.929 . S
H633 C643 0.929 . S
H634 C638 0.929 . S
H635 C644 0.929 . S
C636 H630 0.930 . S
C636 C637 1.367 . S
C636 C644 1.378 . S
C637 C636 1.367 . S
C637 C645 1.433 . S
C638 H634 0.929 . S
C638 C640 1.378 1_545 S
C638 C642 1.350 . S
C639 C642 1.463 1_556 S
C639 C644 1.350 . S
C639 N647 1.427 1_556 S
C640 H631 0.930 . S
C640 C638 1.378 1_565 S
C640 C641 1.367 . S
C641 C640 1.367 . S
C641 C643 1.433 . S
C642 C638 1.350 . S
C642 C639 1.463 1_554 S
C642 N646 1.427 1_545 S
C643 H633 0.929 . S
C643 C641 1.433 . S
C643 N646 1.384 . S
C644 H635 0.929 . S
C644 C636 1.378 . S
C644 C639 1.350 . S
C645 H632 0.929 . S
C645 C637 1.433 . S
C645 N647 1.384 1_556 S
N646 C642 1.427 1_565 S
N646 C643 1.384 . S
N647 C639 1.427 1_554 S
N647 C645 1.384 1_554 S
H648 C654 0.930 . S
H649 C658 0.930 . S
H650 C663 0.929 . S
H651 C661 0.929 1_554 S
H652 C656 0.929 1_455 S
H653 C662 0.929 . S
C654 H648 0.930 . S
C654 C655 1.367 . S
C654 C662 1.378 . S
C655 C654 1.367 . S
C655 C663 1.433 . S
C656 H652 0.929 1_655 S
C656 C658 1.378 . S
C656 C660 1.342 1_556 S
C657 C660 1.441 1_455 S
C657 C662 1.350 . S
C657 N665 1.427 . S
C658 H649 0.930 . S
C658 C656 1.378 . S
C658 C659 1.367 . S
C659 C658 1.367 . S
C659 C661 1.433 . S
C660 C656 1.342 1_554 S
C660 C657 1.441 1_655 S
C660 N664 1.458 . S
C661 H651 0.929 1_556 S
C661 C659 1.433 . S
C661 N664 1.384 1_556 S
C662 H653 0.929 . S
C662 C654 1.378 . S
C662 C657 1.350 . S
C663 H650 0.929 . S
C663 C655 1.433 . S
C663 N665 1.384 . S
N664 C660 1.458 . S
N664 C661 1.384 1_554 S
N665 C657 1.427 . S
N665 C663 1.384 . S
H666 C672 0.930 . S
H667 C676 0.930 . S
H668 C681 0.929 . S
H669 C679 0.929 . S
H670 C674 0.929 . S
H671 C680 0.929 1_556 S
C672 H666 0.930 . S
C672 C673 1.367 . S
C672 C680 1.378 . S
C673 C672 1.367 . S
C673 C681 1.433 . S
C674 H670 0.929 . S
C674 C676 1.378 1_554 S
C674 C678 1.350 1_554 S
C675 C678 1.463 1_554 S
C675 C680 1.350 . S
C675 N683 1.427 . S
C676 H667 0.930 . S
C676 C674 1.378 1_556 S
C676 C677 1.367 . S
C677 C676 1.367 . S
C677 C679 1.433 . S
C678 C674 1.350 1_556 S
C678 C675 1.463 1_556 S
C678 N682 1.427 . S
C679 H669 0.929 . S
C679 C677 1.433 . S
C679 N682 1.384 . S
C680 H671 0.929 1_554 S
C680 C672 1.378 . S
C680 C675 1.350 . S
C681 H668 0.929 . S
C681 C673 1.433 . S
C681 N683 1.384 . S
N682 C678 1.427 . S
N682 C679 1.384 . S
N683 C675 1.427 . S
N683 C681 1.384 . S
H684 C690 0.930 . S
H685 C694 0.930 . S
H686 C699 0.929 . S
H687 C697 0.929 . S
H688 C692 0.929 . S
H689 C698 0.929 . S
C690 H684 0.930 . S
C690 C691 1.367 . S
C690 C698 1.378 . S
C691 C690 1.367 . S
C691 C699 1.433 . S
C692 H688 0.929 . S
C692 C694 1.378 . S
C692 C696 1.350 . S
C693 C696 1.463 . S
C693 C698 1.350 . S
C693 N701 1.427 . S
C694 H685 0.930 . S
C694 C692 1.378 . S
C694 C695 1.367 . S
C695 C694 1.367 . S
C695 C697 1.433 . S
C696 C692 1.350 . S
C696 C693 1.463 . S
C696 N700 1.427 . S
C697 H687 0.929 . S
C697 C695 1.433 . S
C697 N700 1.384 . S
C698 H689 0.929 . S
C698 C690 1.378 . S
C698 C693 1.350 . S
C699 H686 0.929 . S
C699 C691 1.433 . S
C699 N701 1.384 . S
N700 C696 1.427 . S
N700 C697 1.384 . S
N701 C693 1.427 . S
N701 C699 1.384 . S
H702 C708 0.930 . S
H703 C712 0.930 . S
H704 C717 0.929 . S
H705 C715 0.929 . S
H706 C710 0.929 . S
H707 C716 0.929 . S
C708 H702 0.930 . S
C708 C709 1.367 . S
C708 C716 1.378 . S
C709 C708 1.367 . S
C709 C717 1.433 . S
C710 H706 0.929 . S
C710 C712 1.378 . S
C710 C714 1.350 . S
C711 C714 1.463 . S
C711 C716 1.350 . S
C711 N719 1.427 . S
C712 H703 0.930 . S
C712 C710 1.378 . S
C712 C713 1.367 . S
C713 C712 1.367 . S
C713 C715 1.433 . S
C714 C710 1.350 . S
C714 C711 1.463 . S
C714 N718 1.427 . S
C715 H705 0.929 . S
C715 C713 1.433 . S
C715 N718 1.384 . S
C716 H707 0.929 . S
C716 C708 1.378 . S
C716 C711 1.350 . S
C717 H704 0.929 . S
C717 C709 1.433 . S
C717 N719 1.384 . S
N718 C714 1.427 . S
N718 C715 1.384 . S
N719 C711 1.427 . S
N719 C717 1.384 . S
H720 C726 0.930 . S
H721 C730 0.930 . S
H722 C735 0.929 . S
H723 C733 0.929 . S
H724 C728 0.929 . S
H725 C734 0.929 . S
C726 H720 0.930 . S
C726 C727 1.367 . S
C726 C734 1.378 . S
C727 C726 1.367 . S
C727 C735 1.433 . S
C728 H724 0.929 . S
C728 C730 1.378 . S
C728 C732 1.350 . S
C729 C732 1.463 . S
C729 C734 1.350 . S
C729 N737 1.427 . S
C730 H721 0.930 . S
C730 C728 1.378 . S
C730 C731 1.367 . S
C731 C730 1.367 . S
C731 C733 1.433 . S
C732 C728 1.350 . S
C732 C729 1.463 . S
C732 N736 1.427 . S
C733 H723 0.929 . S
C733 C731 1.433 . S
C733 N736 1.384 . S
C734 H725 0.929 . S
C734 C726 1.378 . S
C734 C729 1.350 . S
C735 H722 0.929 . S
C735 C727 1.433 . S
C735 N737 1.384 . S
N736 C732 1.427 . S
N736 C733 1.384 . S
N737 C729 1.427 . S
N737 C735 1.384 . S
H738 C744 0.930 . S
H739 C748 0.930 . S
H740 C753 0.929 . S
H741 C751 0.929 . S
H742 C746 0.929 . S
H743 C752 0.929 . S
C744 H738 0.930 . S
C744 C745 1.367 . S
C744 C752 1.378 . S
C745 C744 1.367 . S
C745 C753 1.433 . S
C746 H742 0.929 . S
C746 C748 1.378 . S
C746 C750 1.350 . S
C747 C750 1.463 . S
C747 C752 1.350 . S
C747 N755 1.427 . S
C748 H739 0.930 . S
C748 C746 1.378 . S
C748 C749 1.367 . S
C749 C748 1.367 . S
C749 C751 1.433 . S
C750 C746 1.350 . S
C750 C747 1.463 . S
C750 N754 1.427 . S
C751 H741 0.929 . S
C751 C749 1.433 . S
C751 N754 1.384 . S
C752 H743 0.929 . S
C752 C744 1.378 . S
C752 C747 1.350 . S
C753 H740 0.929 . S
C753 C745 1.433 . S
C753 N755 1.384 . S
N754 C750 1.427 . S
N754 C751 1.384 . S
N755 C747 1.427 . S
N755 C753 1.384 . S
H756 C762 0.930 . S
H757 C766 0.930 . S
H758 C771 0.929 . S
H759 C769 0.929 . S
H760 C764 0.929 . S
H761 C770 0.929 . S
C762 H756 0.930 . S
C762 C763 1.367 . S
C762 C770 1.378 . S
C763 C762 1.367 . S
C763 C771 1.433 . S
C764 H760 0.929 . S
C764 C766 1.378 . S
C764 C768 1.350 . S
C765 C768 1.463 . S
C765 C770 1.350 . S
C765 N773 1.427 . S
C766 H757 0.930 . S
C766 C764 1.378 . S
C766 C767 1.367 . S
C767 C766 1.367 . S
C767 C769 1.433 . S
C768 C764 1.350 . S
C768 C765 1.463 . S
C768 N772 1.427 . S
C769 H759 0.929 . S
C769 C767 1.433 . S
C769 N772 1.384 . S
C770 H761 0.929 . S
C770 C762 1.378 . S
C770 C765 1.350 . S
C771 H758 0.929 . S
C771 C763 1.433 . S
C771 N773 1.384 . S
N772 C768 1.427 . S
N772 C769 1.384 . S
N773 C765 1.427 . S
N773 C771 1.384 . S
H774 C780 0.930 . S
H775 C784 0.930 . S
H776 C789 0.929 . S
H777 C787 0.929 . S
H778 C782 0.929 . S
H779 C788 0.929 . S
C780 H774 0.930 . S
C780 C781 1.367 . S
C780 C788 1.378 . S
C781 C780 1.367 . S
C781 C789 1.433 . S
C782 H778 0.929 . S
C782 C784 1.378 . S
C782 C786 1.350 . S
C783 C786 1.463 . S
C783 C788 1.350 . S
C783 N791 1.427 . S
C784 H775 0.930 . S
C784 C782 1.378 . S
C784 C785 1.367 . S
C785 C784 1.367 . S
C785 C787 1.433 . S
C786 C782 1.350 . S
C786 C783 1.463 . S
C786 N790 1.427 . S
C787 H777 0.929 . S
C787 C785 1.433 . S
C787 N790 1.384 . S
C788 H779 0.929 . S
C788 C780 1.378 . S
C788 C783 1.350 . S
C789 H776 0.929 . S
C789 C781 1.433 . S
C789 N791 1.384 . S
N790 C786 1.427 . S
N790 C787 1.384 . S
N791 C783 1.427 . S
N791 C789 1.384 . S
H792 C798 0.930 . S
H793 C802 0.930 . S
H794 C807 0.929 . S
H795 C805 0.929 . S
H796 C800 0.929 . S
H797 C806 0.929 . S
C798 H792 0.930 . S
C798 C799 1.367 . S
C798 C806 1.378 . S
C799 C798 1.367 . S
C799 C807 1.433 . S
C800 H796 0.929 . S
C800 C802 1.378 . S
C800 C804 1.350 . S
C801 C804 1.463 . S
C801 C806 1.350 . S
C801 N809 1.427 . S
C802 H793 0.930 . S
C802 C800 1.378 . S
C802 C803 1.367 . S
C803 C802 1.367 . S
C803 C805 1.433 . S
C804 C800 1.350 . S
C804 C801 1.463 . S
C804 N808 1.427 . S
C805 H795 0.929 . S
C805 C803 1.433 . S
C805 N808 1.384 . S
C806 H797 0.929 . S
C806 C798 1.378 . S
C806 C801 1.350 . S
C807 H794 0.929 . S
C807 C799 1.433 . S
C807 N809 1.384 . S
N808 C804 1.427 . S
N808 C805 1.384 . S
N809 C801 1.427 . S
N809 C807 1.384 . S
H810 C816 0.930 . S
H811 C820 0.930 . S
H812 C825 0.929 . S
H813 C823 0.929 . S
H814 C818 0.929 . S
H815 C824 0.929 . S
C816 H810 0.930 . S
C816 C817 1.367 . S
C816 C824 1.378 . S
C817 C816 1.367 . S
C817 C825 1.433 . S
C818 H814 0.929 . S
C818 C820 1.378 . S
C818 C822 1.350 . S
C819 C822 1.463 . S
C819 C824 1.350 . S
C819 N827 1.427 . S
C820 H811 0.930 . S
C820 C818 1.378 . S
C820 C821 1.367 . S
C821 C820 1.367 . S
C821 C823 1.433 . S
C822 C818 1.350 . S
C822 C819 1.463 . S
C822 N826 1.427 . S
C823 H813 0.929 . S
C823 C821 1.433 . S
C823 N826 1.384 . S
C824 H815 0.929 . S
C824 C816 1.378 . S
C824 C819 1.350 . S
C825 H812 0.929 . S
C825 C817 1.433 . S
C825 N827 1.384 . S
N826 C822 1.427 . S
N826 C823 1.384 . S
N827 C819 1.427 . S
N827 C825 1.384 . S
H828 C834 0.930 . S
H829 C838 0.930 . S
H830 C843 0.929 . S
H831 C841 0.929 . S
H832 C836 0.929 . S
H833 C842 0.929 . S
C834 H828 0.930 . S
C834 C835 1.367 . S
C834 C842 1.378 . S
C835 C834 1.367 . S
C835 C843 1.433 . S
C836 H832 0.929 . S
C836 C838 1.378 . S
C836 C840 1.350 . S
C837 C840 1.463 . S
C837 C842 1.350 . S
C837 N845 1.427 . S
C838 H829 0.930 . S
C838 C836 1.378 . S
C838 C839 1.367 . S
C839 C838 1.367 . S
C839 C841 1.433 . S
C840 C836 1.350 . S
C840 C837 1.463 . S
C840 N844 1.427 . S
C841 H831 0.929 . S
C841 C839 1.433 . S
C841 N844 1.384 . S
C842 H833 0.929 . S
C842 C834 1.378 . S
C842 C837 1.350 . S
C843 H830 0.929 . S
C843 C835 1.433 . S
C843 N845 1.384 . S
N844 C840 1.427 . S
N844 C841 1.384 . S
N845 C837 1.427 . S
N845 C843 1.384 . S
H846 C852 0.930 . S
H847 C856 0.930 . S
H848 C861 0.929 . S
H849 C859 0.929 . S
H850 C854 0.929 . S
H851 C860 0.929 . S
C852 H846 0.930 . S
C852 C853 1.367 . S
C852 C860 1.378 . S
C853 C852 1.367 . S
C853 C861 1.433 . S
C854 H850 0.929 . S
C854 C856 1.378 . S
C854 C858 1.350 . S
C855 C858 1.463 . S
C855 C860 1.350 . S
C855 N863 1.427 . S
C856 H847 0.930 . S
C856 C854 1.378 . S
C856 C857 1.367 . S
C857 C856 1.367 . S
C857 C859 1.433 . S
C858 C854 1.350 . S
C858 C855 1.463 . S
C858 N862 1.427 . S
C859 H849 0.929 . S
C859 C857 1.433 . S
C859 N862 1.384 . S
C860 H851 0.929 . S
C860 C852 1.378 . S
C860 C855 1.350 . S
C861 H848 0.929 . S
C861 C853 1.433 . S
C861 N863 1.384 . S
N862 C858 1.427 . S
N862 C859 1.384 . S
N863 C855 1.427 . S
N863 C861 1.384 . S
H864 C870 0.930 . S
H865 C874 0.930 . S
H866 C879 0.929 . S
H867 C877 0.929 . S
H868 C872 0.929 . S
H869 C878 0.929 . S
C870 H864 0.930 . S
C870 C871 1.367 . S
C870 C878 1.378 . S
C871 C870 1.367 . S
C871 C879 1.433 . S
C872 H868 0.929 . S
C872 C874 1.378 . S
C872 C876 1.350 . S
C873 C876 1.463 . S
C873 C878 1.350 . S
C873 N881 1.427 . S
C874 H865 0.930 . S
C874 C872 1.378 . S
C874 C875 1.367 . S
C875 C874 1.367 . S
C875 C877 1.433 . S
C876 C872 1.350 . S
C876 C873 1.463 . S
C876 N880 1.427 . S
C877 H867 0.929 . S
C877 C875 1.433 . S
C877 N880 1.384 . S
C878 H869 0.929 . S
C878 C870 1.378 . S
C878 C873 1.350 . S
C879 H866 0.929 . S
C879 C871 1.433 . S
C879 N881 1.384 . S
N880 C876 1.427 . S
N880 C877 1.384 . S
N881 C873 1.427 . S
N881 C879 1.384 . S
H882 C888 0.930 . S
H883 C892 0.930 . S
H884 C897 0.929 . S
H885 C895 0.929 . S
H886 C890 0.929 . S
H887 C896 0.929 . S
C888 H882 0.930 . S
C888 C889 1.367 . S
C888 C896 1.378 . S
C889 C888 1.367 . S
C889 C897 1.433 . S
C890 H886 0.929 . S
C890 C892 1.378 . S
C890 C894 1.350 . S
C891 C894 1.463 . S
C891 C896 1.350 . S
C891 N899 1.427 . S
C892 H883 0.930 . S
C892 C890 1.378 . S
C892 C893 1.367 . S
C893 C892 1.367 . S
C893 C895 1.433 . S
C894 C890 1.350 . S
C894 C891 1.463 . S
C894 N898 1.427 . S
C895 H885 0.929 . S
C895 C893 1.433 . S
C895 N898 1.384 . S
C896 H887 0.929 . S
C896 C888 1.378 . S
C896 C891 1.350 . S
C897 H884 0.929 . S
C897 C889 1.433 . S
C897 N899 1.384 . S
N898 C894 1.427 . S
N898 C895 1.384 . S
N899 C891 1.427 . S
N899 C897 1.384 . S
H900 C906 0.930 . S
H901 C910 0.930 . S
H902 C915 0.929 . S
H903 C913 0.929 . S
H904 C908 0.929 . S
H905 C914 0.929 . S
C906 H900 0.930 . S
C906 C907 1.367 . S
C906 C914 1.378 . S
C907 C906 1.367 . S
C907 C915 1.433 . S
C908 H904 0.929 . S
C908 C910 1.378 . S
C908 C912 1.350 . S
C909 C912 1.463 . S
C909 C914 1.350 . S
C909 N917 1.427 . S
C910 H901 0.930 . S
C910 C908 1.378 . S
C910 C911 1.367 . S
C911 C910 1.367 . S
C911 C913 1.433 . S
C912 C908 1.350 . S
C912 C909 1.463 . S
C912 N916 1.427 . S
C913 H903 0.929 . S
C913 C911 1.433 . S
C913 N916 1.384 . S
C914 H905 0.929 . S
C914 C906 1.378 . S
C914 C909 1.350 . S
C915 H902 0.929 . S
C915 C907 1.433 . S
C915 N917 1.384 . S
N916 C912 1.427 . S
N916 C913 1.384 . S
N917 C909 1.427 . S
N917 C915 1.384 . S
H918 C924 0.930 . S
H919 C928 0.930 . S
H920 C933 0.929 . S
H921 C931 0.929 . S
H922 C926 0.929 . S
H923 C932 0.929 . S
C924 H918 0.930 . S
C924 C925 1.367 . S
C924 C932 1.378 . S
C925 C924 1.367 . S
C925 C933 1.433 . S
C926 H922 0.929 . S
C926 C928 1.378 . S
C926 C930 1.350 . S
C927 C930 1.463 . S
C927 C932 1.350 . S
C927 N935 1.427 . S
C928 H919 0.930 . S
C928 C926 1.378 . S
C928 C929 1.367 . S
C929 C928 1.367 . S
C929 C931 1.433 . S
C930 C926 1.350 . S
C930 C927 1.463 . S
C930 N934 1.427 . S
C931 H921 0.929 . S
C931 C929 1.433 . S
C931 N934 1.384 . S
C932 H923 0.929 . S
C932 C924 1.378 . S
C932 C927 1.350 . S
C933 H920 0.929 . S
C933 C925 1.433 . S
C933 N935 1.384 . S
N934 C930 1.427 . S
N934 C931 1.384 . S
N935 C927 1.427 . S
N935 C933 1.384 . S
H936 C942 0.930 . S
H937 C946 0.930 . S
H938 C951 0.929 . S
H939 C949 0.929 . S
H940 C944 0.929 . S
H941 C950 0.929 . S
C942 H936 0.930 . S
C942 C943 1.367 . S
C942 C950 1.378 . S
C943 C942 1.367 . S
C943 C951 1.433 . S
C944 H940 0.929 . S
C944 C946 1.378 . S
C944 C948 1.350 . S
C945 C948 1.463 . S
C945 C950 1.350 . S
C945 N953 1.427 . S
C946 H937 0.930 . S
C946 C944 1.378 . S
C946 C947 1.367 . S
C947 C946 1.367 . S
C947 C949 1.433 . S
C948 C944 1.350 . S
C948 C945 1.463 . S
C948 N952 1.427 . S
C949 H939 0.929 . S
C949 C947 1.433 . S
C949 N952 1.384 . S
C950 H941 0.929 . S
C950 C942 1.378 . S
C950 C945 1.350 . S
C951 H938 0.929 . S
C951 C943 1.433 . S
C951 N953 1.384 . S
N952 C948 1.427 . S
N952 C949 1.384 . S
N953 C945 1.427 . S
N953 C951 1.384 . S
H954 C960 0.930 . S
H955 C964 0.930 . S
H956 C969 0.929 . S
H957 C967 0.929 . S
H958 C962 0.929 . S
H959 C968 0.929 . S
C960 H954 0.930 . S
C960 C961 1.367 . S
C960 C968 1.378 . S
C961 C960 1.367 . S
C961 C969 1.433 . S
C962 H958 0.929 . S
C962 C964 1.378 . S
C962 C966 1.350 . S
C963 C966 1.463 . S
C963 C968 1.350 . S
C963 N971 1.427 . S
C964 H955 0.930 . S
C964 C962 1.378 . S
C964 C965 1.367 . S
C965 C964 1.367 . S
C965 C967 1.433 . S
C966 C962 1.350 . S
C966 C963 1.463 . S
C966 N970 1.427 . S
C967 H957 0.929 . S
C967 C965 1.433 . S
C967 N970 1.384 . S
C968 H959 0.929 . S
C968 C960 1.378 . S
C968 C963 1.350 . S
C969 H956 0.929 . S
C969 C961 1.433 . S
C969 N971 1.384 . S
N970 C966 1.427 . S
N970 C967 1.384 . S
N971 C963 1.427 . S
N971 C969 1.384 . S
H972 C978 0.930 . S
H973 C982 0.930 . S
H974 C987 0.929 . S
H975 C985 0.929 . S
H976 C980 0.929 . S
H977 C986 0.929 . S
C978 H972 0.930 . S
C978 C979 1.367 . S
C978 C986 1.378 . S
C979 C978 1.367 . S
C979 C987 1.433 . S
C980 H976 0.929 . S
C980 C982 1.378 . S
C980 C984 1.350 . S
C981 C984 1.463 . S
C981 C986 1.350 . S
C981 N989 1.427 . S
C982 H973 0.930 . S
C982 C980 1.378 . S
C982 C983 1.367 . S
C983 C982 1.367 . S
C983 C985 1.433 . S
C984 C980 1.350 . S
C984 C981 1.463 . S
C984 N988 1.427 . S
C985 H975 0.929 . S
C985 C983 1.433 . S
C985 N988 1.384 . S
C986 H977 0.929 . S
C986 C978 1.378 . S
C986 C981 1.350 . S
C987 H974 0.929 . S
C987 C979 1.433 . S
C987 N989 1.384 . S
N988 C984 1.427 . S
N988 C985 1.384 . S
N989 C981 1.427 . S
N989 C987 1.384 . S
H990 C996 0.930 . S
H991 C1000 0.930 . S
H992 C1005 0.929 . S
H993 C1003 0.929 . S
H994 C998 0.929 . S
H995 C1004 0.929 . S
C996 H990 0.930 . S
C996 C997 1.367 . S
C996 C1004 1.378 . S
C997 C996 1.367 . S
C997 C1005 1.433 . S
C998 H994 0.929 . S
C998 C1000 1.378 . S
C998 C1002 1.350 . S
C999 C1002 1.463 . S
C999 C1004 1.350 . S
C999 N1007 1.427 . S
C1000 H991 0.930 . S
C1000 C998 1.378 . S
C1000 C1001 1.367 . S
C1001 C1000 1.367 . S
C1001 C1003 1.433 . S
C1002 C998 1.350 . S
C1002 C999 1.463 . S
C1002 N1006 1.427 . S
C1003 H993 0.929 . S
C1003 C1001 1.433 . S
C1003 N1006 1.384 . S
C1004 H995 0.929 . S
C1004 C996 1.378 . S
C1004 C999 1.350 . S
C1005 H992 0.929 . S
C1005 C997 1.433 . S
C1005 N1007 1.384 . S
N1006 C1002 1.427 . S
N1006 C1003 1.384 . S
N1007 C999 1.427 . S
N1007 C1005 1.384 . S
H1008 C1014 0.930 . S
H1009 C1018 0.930 1_655 S
H1010 C1023 0.929 . S
H1011 C1021 0.929 . S
H1012 C1016 0.929 . S
H1013 C1022 0.929 . S
C1014 H1008 0.930 . S
C1014 C1015 1.367 . S
C1014 C1022 1.378 . S
C1015 C1014 1.367 . S
C1015 C1023 1.433 . S
C1016 H1012 0.929 . S
C1016 C1018 1.378 . S
C1016 C1020 1.350 . S
C1017 C1020 1.463 1_554 S
C1017 C1022 1.350 . S
C1017 N1025 1.427 . S
C1018 H1009 0.930 1_455 S
C1018 C1016 1.378 . S
C1018 C1019 1.367 . S
C1019 C1018 1.367 . S
C1019 C1021 1.433 . S
C1020 C1016 1.350 . S
C1020 C1017 1.463 1_556 S
C1020 N1024 1.427 . S
C1021 H1011 0.929 . S
C1021 C1019 1.433 . S
C1021 N1024 1.384 . S
C1022 H1013 0.929 . S
C1022 C1014 1.378 . S
C1022 C1017 1.350 . S
C1023 H1010 0.929 . S
C1023 C1015 1.433 . S
C1023 N1025 1.384 . S
N1024 C1020 1.427 . S
N1024 C1021 1.384 . S
N1025 C1017 1.427 . S
N1025 C1023 1.384 . S
H1026 C1032 0.930 . S
H1027 C1036 0.930 . S
H1028 C1041 0.929 . S
H1029 C1039 0.929 . S
H1030 C1034 0.929 . S
H1031 C1040 0.929 . S
C1032 H1026 0.930 . S
C1032 C1033 1.367 . S
C1032 C1040 1.378 . S
C1033 C1032 1.367 . S
C1033 C1041 1.433 . S
C1034 H1030 0.929 . S
C1034 C1036 1.378 . S
C1034 C1038 1.350 . S
C1035 C1038 1.463 1_554 S
C1035 C1040 1.350 . S
C1035 N1043 1.427 . S
C1036 H1027 0.930 . S
C1036 C1034 1.378 . S
C1036 C1037 1.367 . S
C1037 C1036 1.367 . S
C1037 C1039 1.433 . S
C1038 C1034 1.350 . S
C1038 C1035 1.463 1_556 S
C1038 N1042 1.427 . S
C1039 H1029 0.929 . S
C1039 C1037 1.433 . S
C1039 N1042 1.384 . S
C1040 H1031 0.929 . S
C1040 C1032 1.378 . S
C1040 C1035 1.350 . S
C1041 H1028 0.929 . S
C1041 C1033 1.433 . S
C1041 N1043 1.384 . S
N1042 C1038 1.427 . S
N1042 C1039 1.384 . S
N1043 C1035 1.427 . S
N1043 C1041 1.384 . S
H1044 C1050 0.930 . S
H1045 C1054 0.930 1_565 S
H1046 C1059 0.929 . S
H1047 C1057 0.929 . S
H1048 C1052 0.929 . S
H1049 C1058 0.929 . S
C1050 H1044 0.930 . S
C1050 C1051 1.367 . S
C1050 C1058 1.378 . S
C1051 C1050 1.367 . S
C1051 C1059 1.433 1_545 S
C1052 H1048 0.929 . S
C1052 C1054 1.378 1_565 S
C1052 C1056 1.350 1_565 S
C1053 C1056 1.463 1_554 S
C1053 C1058 1.350 . S
C1053 N1061 1.427 1_545 S
C1054 H1045 0.930 1_545 S
C1054 C1052 1.378 1_545 S
C1054 C1055 1.367 . S
C1055 C1054 1.367 . S
C1055 C1057 1.433 . S
C1056 C1052 1.350 1_545 S
C1056 C1053 1.463 1_556 S
C1056 N1060 1.427 . S
C1057 H1047 0.929 . S
C1057 C1055 1.433 . S
C1057 N1060 1.384 . S
C1058 H1049 0.929 . S
C1058 C1050 1.378 . S
C1058 C1053 1.350 . S
C1059 H1046 0.929 . S
C1059 C1051 1.433 1_565 S
C1059 N1061 1.384 . S
N1060 C1056 1.427 . S
N1060 C1057 1.384 . S
N1061 C1053 1.427 1_565 S
N1061 C1059 1.384 . S
H1062 C1068 0.930 . S
H1063 C1072 0.910 1_655 S
H1064 C1077 0.929 . S
H1065 C1075 0.929 . S
H1066 C1070 0.927 . S
H1067 C1076 0.929 1_554 S
C1068 H1062 0.930 . S
C1068 C1069 1.367 . S
C1068 C1076 1.378 . S
C1069 C1068 1.367 . S
C1069 C1077 1.433 1_455 S
C1070 H1066 0.927 . S
C1070 C1072 1.381 1_655 S
C1070 C1074 1.352 1_655 S
C1071 C1074 1.463 . S
C1071 C1076 1.350 1_554 S
C1071 N1079 1.427 1_454 S
C1072 H1063 0.910 1_455 S
C1072 C1070 1.381 1_455 S
C1072 C1073 1.384 . S
C1073 C1072 1.384 . S
C1073 C1075 1.433 . S
C1074 C1070 1.352 1_455 S
C1074 C1071 1.463 . S
C1074 N1078 1.427 . S
C1075 H1065 0.929 . S
C1075 C1073 1.433 . S
C1075 N1078 1.384 . S
C1076 H1067 0.929 1_556 S
C1076 C1068 1.378 . S
C1076 C1071 1.350 1_556 S
C1077 H1064 0.929 . S
C1077 C1069 1.433 1_655 S
C1077 N1079 1.384 . S
N1078 C1074 1.427 . S
N1078 C1075 1.384 . S
N1079 C1071 1.427 1_656 S
N1079 C1077 1.384 . S
H1080 C1086 0.930 . S
H1081 C1090 0.930 . S
H1082 C1095 0.929 . S
H1083 C1093 0.929 . S
H1084 C1088 0.929 1_554 S
H1085 C1094 0.929 . S
C1086 H1080 0.930 . S
C1086 C1087 1.367 . S
C1086 C1094 1.378 . S
C1087 C1086 1.367 . S
C1087 C1095 1.433 . S
C1088 H1084 0.929 1_556 S
C1088 C1090 1.378 . S
C1088 C1092 1.350 1_556 S
C1089 C1092 1.463 . S
C1089 C1094 1.350 . S
C1089 N1097 1.427 . S
C1090 H1081 0.930 . S
C1090 C1088 1.378 . S
C1090 C1091 1.367 . S
C1091 C1090 1.367 . S
C1091 C1093 1.433 . S
C1092 C1088 1.350 1_554 S
C1092 C1089 1.463 . S
C1092 N1096 1.427 1_554 S
C1093 H1083 0.929 . S
C1093 C1091 1.433 . S
C1093 N1096 1.384 . S
C1094 H1085 0.929 . S
C1094 C1086 1.378 . S
C1094 C1089 1.350 . S
C1095 H1082 0.929 . S
C1095 C1087 1.433 . S
C1095 N1097 1.384 . S
N1096 C1092 1.427 1_556 S
N1096 C1093 1.384 . S
N1097 C1089 1.427 . S
N1097 C1095 1.384 . S
H1098 C1104 0.930 . S
H1099 C1108 0.930 . S
H1100 C1113 0.929 . S
H1101 C1111 0.929 1_565 S
H1102 C1106 0.929 . S
H1103 C1112 0.929 . S
C1104 H1098 0.930 . S
C1104 C1105 1.367 1_565 S
C1104 C1112 1.378 . S
C1105 C1104 1.367 1_545 S
C1105 C1113 1.433 . S
C1106 H1102 0.929 . S
C1106 C1108 1.378 . S
C1106 C1110 1.350 . S
C1107 C1110 1.463 1_554 S
C1107 C1112 1.350 1_545 S
C1107 N1115 1.427 . S
C1108 H1099 0.930 . S
C1108 C1106 1.378 . S
C1108 C1109 1.367 . S
C1109 C1108 1.367 . S
C1109 C1111 1.433 . S
C1110 C1106 1.350 . S
C1110 C1107 1.463 1_556 S
C1110 N1114 1.435 . S
C1111 H1101 0.929 1_545 S
C1111 C1109 1.433 . S
C1111 N1114 1.388 . S
C1112 H1103 0.929 . S
C1112 C1104 1.378 . S
C1112 C1107 1.350 1_565 S
C1113 H1100 0.929 . S
C1113 C1105 1.433 . S
C1113 N1115 1.384 . S
N1114 C1110 1.435 . S
N1114 C1111 1.388 . S
N1115 C1107 1.427 . S
N1115 C1113 1.384 . S
H1116 C1122 0.930 . S
H1117 C1126 0.930 . S
H1118 C1131 0.929 . S
H1119 C1129 0.929 . S
H1120 C1124 0.929 . S
H1121 C1130 0.929 . S
C1122 H1116 0.930 . S
C1122 C1123 1.367 . S
C1122 C1130 1.378 . S
C1123 C1122 1.367 . S
C1123 C1131 1.433 . S
C1124 H1120 0.929 . S
C1124 C1126 1.378 . S
C1124 C1128 1.350 . S
C1125 C1128 1.463 . S
C1125 C1130 1.350 . S
C1125 N1133 1.427 . S
C1126 H1117 0.930 . S
C1126 C1124 1.378 . S
C1126 C1127 1.367 . S
C1127 C1126 1.367 . S
C1127 C1129 1.433 . S
C1128 C1124 1.350 . S
C1128 C1125 1.463 . S
C1128 N1132 1.427 . S
C1129 H1119 0.929 . S
C1129 C1127 1.433 . S
C1129 N1132 1.384 . S
C1130 H1121 0.929 . S
C1130 C1122 1.378 . S
C1130 C1125 1.350 . S
C1131 H1118 0.929 . S
C1131 C1123 1.433 . S
C1131 N1133 1.384 . S
N1132 C1128 1.427 . S
N1132 C1129 1.384 . S
N1133 C1125 1.427 . S
N1133 C1131 1.384 . S
H1134 C1140 0.930 . S
H1135 C1144 0.930 . S
H1136 C1149 0.929 . S
H1137 C1147 0.929 . S
H1138 C1142 0.929 . S
H1139 C1148 0.929 . S
C1140 H1134 0.930 . S
C1140 C1141 1.367 . S
C1140 C1148 1.378 . S
C1141 C1140 1.367 . S
C1141 C1149 1.433 . S
C1142 H1138 0.929 . S
C1142 C1144 1.378 . S
C1142 C1146 1.350 . S
C1143 C1146 1.463 . S
C1143 C1148 1.350 . S
C1143 N1151 1.427 . S
C1144 H1135 0.930 . S
C1144 C1142 1.378 . S
C1144 C1145 1.367 . S
C1145 C1144 1.367 . S
C1145 C1147 1.433 . S
C1146 C1142 1.350 . S
C1146 C1143 1.463 . S
C1146 N1150 1.427 . S
C1147 H1137 0.929 . S
C1147 C1145 1.433 . S
C1147 N1150 1.384 . S
C1148 H1139 0.929 . S
C1148 C1140 1.378 . S
C1148 C1143 1.350 . S
C1149 H1136 0.929 . S
C1149 C1141 1.433 . S
C1149 N1151 1.384 . S
N1150 C1146 1.427 . S
N1150 C1147 1.384 . S
N1151 C1143 1.427 . S
N1151 C1149 1.384 . S
H1152 C1158 0.930 . S
H1153 C1162 0.930 . S
H1154 C1167 0.929 . S
H1155 C1165 0.929 . S
H1156 C1160 0.929 . S
H1157 C1166 0.929 . S
C1158 H1152 0.930 . S
C1158 C1159 1.367 . S
C1158 C1166 1.378 . S
C1159 C1158 1.367 . S
C1159 C1167 1.433 . S
C1160 H1156 0.929 . S
C1160 C1162 1.378 . S
C1160 C1164 1.350 . S
C1161 C1164 1.463 . S
C1161 C1166 1.350 . S
C1161 N1169 1.427 . S
C1162 H1153 0.930 . S
C1162 C1160 1.378 . S
C1162 C1163 1.367 . S
C1163 C1162 1.367 . S
C1163 C1165 1.433 . S
C1164 C1160 1.350 . S
C1164 C1161 1.463 . S
C1164 N1168 1.427 . S
C1165 H1155 0.929 . S
C1165 C1163 1.433 . S
C1165 N1168 1.384 . S
C1166 H1157 0.929 . S
C1166 C1158 1.378 . S
C1166 C1161 1.350 . S
C1167 H1154 0.929 . S
C1167 C1159 1.433 . S
C1167 N1169 1.384 . S
N1168 C1164 1.427 . S
N1168 C1165 1.384 . S
N1169 C1161 1.427 . S
N1169 C1167 1.384 . S
H1170 C1176 0.930 . S
H1171 C1180 0.930 . S
H1172 C1185 0.929 . S
H1173 C1183 0.929 . S
H1174 C1178 0.929 . S
H1175 C1184 0.929 . S
C1176 H1170 0.930 . S
C1176 C1177 1.367 . S
C1176 C1184 1.378 . S
C1177 C1176 1.367 . S
C1177 C1185 1.433 . S
C1178 H1174 0.929 . S
C1178 C1180 1.378 . S
C1178 C1182 1.350 . S
C1179 C1182 1.463 . S
C1179 C1184 1.350 . S
C1179 N1187 1.427 . S
C1180 H1171 0.930 . S
C1180 C1178 1.378 . S
C1180 C1181 1.367 . S
C1181 C1180 1.367 . S
C1181 C1183 1.433 . S
C1182 C1178 1.350 . S
C1182 C1179 1.463 . S
C1182 N1186 1.427 . S
C1183 H1173 0.929 . S
C1183 C1181 1.433 . S
C1183 N1186 1.384 . S
C1184 H1175 0.929 . S
C1184 C1176 1.378 . S
C1184 C1179 1.350 . S
C1185 H1172 0.929 . S
C1185 C1177 1.433 . S
C1185 N1187 1.384 . S
N1186 C1182 1.427 . S
N1186 C1183 1.384 . S
N1187 C1179 1.427 . S
N1187 C1185 1.384 . S
H1188 C1194 0.930 . S
H1189 C1198 0.930 . S
H1190 C1203 0.929 . S
H1191 C1201 0.929 . S
H1192 C1196 0.929 . S
H1193 C1202 0.929 . S
C1194 H1188 0.930 . S
C1194 C1195 1.367 . S
C1194 C1202 1.378 . S
C1195 C1194 1.367 . S
C1195 C1203 1.433 . S
C1196 H1192 0.929 . S
C1196 C1198 1.378 . S
C1196 C1200 1.350 . S
C1197 C1200 1.463 . S
C1197 C1202 1.350 . S
C1197 N1205 1.427 . S
C1198 H1189 0.930 . S
C1198 C1196 1.378 . S
C1198 C1199 1.367 . S
C1199 C1198 1.367 . S
C1199 C1201 1.433 . S
C1200 C1196 1.350 . S
C1200 C1197 1.463 . S
C1200 N1204 1.427 . S
C1201 H1191 0.929 . S
C1201 C1199 1.433 . S
C1201 N1204 1.384 . S
C1202 H1193 0.929 . S
C1202 C1194 1.378 . S
C1202 C1197 1.350 . S
C1203 H1190 0.929 . S
C1203 C1195 1.433 . S
C1203 N1205 1.384 . S
N1204 C1200 1.427 . S
N1204 C1201 1.384 . S
N1205 C1197 1.427 . S
N1205 C1203 1.384 . S
H1206 C1212 0.930 . S
H1207 C1216 0.930 . S
H1208 C1221 0.929 . S
H1209 C1219 0.929 . S
H1210 C1214 0.929 . S
H1211 C1220 0.929 . S
C1212 H1206 0.930 . S
C1212 C1213 1.367 . S
C1212 C1220 1.378 . S
C1213 C1212 1.367 . S
C1213 C1221 1.433 . S
C1214 H1210 0.929 . S
C1214 C1216 1.378 . S
C1214 C1218 1.350 . S
C1215 C1218 1.463 . S
C1215 C1220 1.350 . S
C1215 N1223 1.427 . S
C1216 H1207 0.930 . S
C1216 C1214 1.378 . S
C1216 C1217 1.367 . S
C1217 C1216 1.367 . S
C1217 C1219 1.433 . S
C1218 C1214 1.350 . S
C1218 C1215 1.463 . S
C1218 N1222 1.427 . S
C1219 H1209 0.929 . S
C1219 C1217 1.433 . S
C1219 N1222 1.384 . S
C1220 H1211 0.929 . S
C1220 C1212 1.378 . S
C1220 C1215 1.350 . S
C1221 H1208 0.929 . S
C1221 C1213 1.433 . S
C1221 N1223 1.384 . S
N1222 C1218 1.427 . S
N1222 C1219 1.384 . S
N1223 C1215 1.427 . S
N1223 C1221 1.384 . S
H1224 C1230 0.930 . S
H1225 C1234 0.930 . S
H1226 C1239 0.929 . S
H1227 C1237 0.929 . S
H1228 C1232 0.929 . S
H1229 C1238 0.929 . S
C1230 H1224 0.930 . S
C1230 C1231 1.367 . S
C1230 C1238 1.378 . S
C1231 C1230 1.367 . S
C1231 C1239 1.433 . S
C1232 H1228 0.929 . S
C1232 C1234 1.378 . S
C1232 C1236 1.350 . S
C1233 C1236 1.463 . S
C1233 C1238 1.350 . S
C1233 N1241 1.427 . S
C1234 H1225 0.930 . S
C1234 C1232 1.378 . S
C1234 C1235 1.367 . S
C1235 C1234 1.367 . S
C1235 C1237 1.433 . S
C1236 C1232 1.350 . S
C1236 C1233 1.463 . S
C1236 N1240 1.427 . S
C1237 H1227 0.929 . S
C1237 C1235 1.433 . S
C1237 N1240 1.384 . S
C1238 H1229 0.929 . S
C1238 C1230 1.378 . S
C1238 C1233 1.350 . S
C1239 H1226 0.929 . S
C1239 C1231 1.433 . S
C1239 N1241 1.384 . S
N1240 C1236 1.427 . S
N1240 C1237 1.384 . S
N1241 C1233 1.427 . S
N1241 C1239 1.384 . S
H1242 C1248 0.930 . S
H1243 C1252 0.930 . S
H1244 C1257 0.929 . S
H1245 C1255 0.929 . S
H1246 C1250 0.929 . S
H1247 C1256 0.929 . S
C1248 H1242 0.930 . S
C1248 C1249 1.367 . S
C1248 C1256 1.378 . S
C1249 C1248 1.367 . S
C1249 C1257 1.433 . S
C1250 H1246 0.929 . S
C1250 C1252 1.378 . S
C1250 C1254 1.350 . S
C1251 C1254 1.463 . S
C1251 C1256 1.350 . S
C1251 N1259 1.427 . S
C1252 H1243 0.930 . S
C1252 C1250 1.378 . S
C1252 C1253 1.367 . S
C1253 C1252 1.367 . S
C1253 C1255 1.433 . S
C1254 C1250 1.350 . S
C1254 C1251 1.463 . S
C1254 N1258 1.427 . S
C1255 H1245 0.929 . S
C1255 C1253 1.433 . S
C1255 N1258 1.384 . S
C1256 H1247 0.929 . S
C1256 C1248 1.378 . S
C1256 C1251 1.350 . S
C1257 H1244 0.929 . S
C1257 C1249 1.433 . S
C1257 N1259 1.384 . S
N1258 C1254 1.427 . S
N1258 C1255 1.384 . S
N1259 C1251 1.427 . S
N1259 C1257 1.384 . S
H1260 C1266 0.930 . S
H1261 C1270 0.930 . S
H1262 C1275 0.929 . S
H1263 C1273 0.929 . S
H1264 C1268 0.929 . S
H1265 C1274 0.929 . S
C1266 H1260 0.930 . S
C1266 C1267 1.367 . S
C1266 C1274 1.378 . S
C1267 C1266 1.367 . S
C1267 C1275 1.433 . S
C1268 H1264 0.929 . S
C1268 C1270 1.378 . S
C1268 C1272 1.350 . S
C1269 C1272 1.463 . S
C1269 C1274 1.350 . S
C1269 N1277 1.427 . S
C1270 H1261 0.930 . S
C1270 C1268 1.378 . S
C1270 C1271 1.367 . S
C1271 C1270 1.367 . S
C1271 C1273 1.433 . S
C1272 C1268 1.350 . S
C1272 C1269 1.463 . S
C1272 N1276 1.427 . S
C1273 H1263 0.929 . S
C1273 C1271 1.433 . S
C1273 N1276 1.384 . S
C1274 H1265 0.929 . S
C1274 C1266 1.378 . S
C1274 C1269 1.350 . S
C1275 H1262 0.929 . S
C1275 C1267 1.433 . S
C1275 N1277 1.384 . S
N1276 C1272 1.427 . S
N1276 C1273 1.384 . S
N1277 C1269 1.427 . S
N1277 C1275 1.384 . S
H1278 C1284 0.930 . S
H1279 C1288 0.930 . S
H1280 C1293 0.929 . S
H1281 C1291 0.929 . S
H1282 C1286 0.929 . S
H1283 C1292 0.929 . S
C1284 H1278 0.930 . S
C1284 C1285 1.367 . S
C1284 C1292 1.378 . S
C1285 C1284 1.367 . S
C1285 C1293 1.433 . S
C1286 H1282 0.929 . S
C1286 C1288 1.378 . S
C1286 C1290 1.350 . S
C1287 C1290 1.463 . S
C1287 C1292 1.350 . S
C1287 N1295 1.427 . S
C1288 H1279 0.930 . S
C1288 C1286 1.378 . S
C1288 C1289 1.367 . S
C1289 C1288 1.367 . S
C1289 C1291 1.433 . S
C1290 C1286 1.350 . S
C1290 C1287 1.463 . S
C1290 N1294 1.427 . S
C1291 H1281 0.929 . S
C1291 C1289 1.433 . S
C1291 N1294 1.384 . S
C1292 H1283 0.929 . S
C1292 C1284 1.378 . S
C1292 C1287 1.350 . S
C1293 H1280 0.929 . S
C1293 C1285 1.433 . S
C1293 N1295 1.384 . S
N1294 C1290 1.427 . S
N1294 C1291 1.384 . S
N1295 C1287 1.427 . S
N1295 C1293 1.384 . S
H1296 C1302 0.930 . S
H1297 C1306 0.930 . S
H1298 C1311 0.929 . S
H1299 C1309 0.929 . S
H1300 C1304 0.929 . S
H1301 C1310 0.929 . S
C1302 H1296 0.930 . S
C1302 C1303 1.367 . S
C1302 C1310 1.378 . S
C1303 C1302 1.367 . S
C1303 C1311 1.433 . S
C1304 H1300 0.929 . S
C1304 C1306 1.378 . S
C1304 C1308 1.350 . S
C1305 C1308 1.463 . S
C1305 C1310 1.350 . S
C1305 N1313 1.427 . S
C1306 H1297 0.930 . S
C1306 C1304 1.378 . S
C1306 C1307 1.367 . S
C1307 C1306 1.367 . S
C1307 C1309 1.433 . S
C1308 C1304 1.350 . S
C1308 C1305 1.463 . S
C1308 N1312 1.427 . S
C1309 H1299 0.929 . S
C1309 C1307 1.433 . S
C1309 N1312 1.384 . S
C1310 H1301 0.929 . S
C1310 C1302 1.378 . S
C1310 C1305 1.350 . S
C1311 H1298 0.929 . S
C1311 C1303 1.433 . S
C1311 N1313 1.384 . S
N1312 C1308 1.427 . S
N1312 C1309 1.384 . S
N1313 C1305 1.427 . S
N1313 C1311 1.384 . S
H1314 C1320 0.930 . S
H1315 C1324 0.930 . S
H1316 C1329 0.929 . S
H1317 C1327 0.929 . S
H1318 C1322 0.929 . S
H1319 C1328 0.929 . S
C1320 H1314 0.930 . S
C1320 C1321 1.367 . S
C1320 C1328 1.378 . S
C1321 C1320 1.367 . S
C1321 C1329 1.433 . S
C1322 H1318 0.929 . S
C1322 C1324 1.378 . S
C1322 C1326 1.350 . S
C1323 C1326 1.463 . S
C1323 C1328 1.350 . S
C1323 N1331 1.427 . S
C1324 H1315 0.930 . S
C1324 C1322 1.378 . S
C1324 C1325 1.367 . S
C1325 C1324 1.367 . S
C1325 C1327 1.433 . S
C1326 C1322 1.350 . S
C1326 C1323 1.463 . S
C1326 N1330 1.427 . S
C1327 H1317 0.929 . S
C1327 C1325 1.433 . S
C1327 N1330 1.384 . S
C1328 H1319 0.929 . S
C1328 C1320 1.378 . S
C1328 C1323 1.350 . S
C1329 H1316 0.929 . S
C1329 C1321 1.433 . S
C1329 N1331 1.384 . S
N1330 C1326 1.427 . S
N1330 C1327 1.384 . S
N1331 C1323 1.427 . S
N1331 C1329 1.384 . S
C367 C279 1.910 . S
C371 C19 1.912 . S
C385 C29 1.504 . S
C389 C289 1.506 . S
C403 C59 1.709 . S
C407 C249 1.765 . S
C421 C49 1.410 . S
C425 C149 1.408 . S
C439 C169 1.624 . S
C443 C9 1.626 . S
C457 C39 1.766 . S
C461 C129 1.816 . S
C475 C78 1.724 . S
C479 C208 1.763 . S
C493 C88 1.337 . S
C497 C228 1.337 . S
C511 C188 1.561 . S
C515 C118 1.510 . S
C529 C328 1.513 . S
C533 C108 1.512 . S
C547 C68 1.758 . S
C551 C358 1.712 . S
C565 C318 1.920 . S
C569 C98 1.908 . S
C583 C179 1.630 . S
C587 C269 1.672 . S
C601 C139 1.837 . S
C605 C299 1.829 . S
C619 C159 2.017 . S
C623 C259 2.026 . S
C637 C198 2.095 . S
C641 C338 2.095 . S
C655 C348 1.765 . S
C659 C218 1.730 . S
C673 C308 1.966 . S
C677 C238 1.914 . S
C691 C8 1.388 . S
C695 C89 1.410 . S
C709 C119 1.687 . S
C713 C38 1.695 . S
C727 C79 1.560 . S
C731 C48 1.428 . S
C745 C99 1.708 . S
C749 C58 1.747 . S
C763 C109 1.537 . S
C767 C18 1.587 . S
C781 C69 1.461 . S
C785 C28 1.495 . S
C799 C219 1.757 . S
C803 C138 1.750 . S
C817 C239 1.806 . S
C821 C158 1.804 . S
C835 C199 1.805 . S
C839 C178 1.755 . S
C853 C209 1.445 . S
C857 C168 1.437 . S
C871 C229 1.407 . S
C875 C128 1.452 . S
C889 C189 1.409 . S
C893 C148 1.411 . S
C907 C329 1.494 . S
C911 C248 1.445 . S
C925 C359 1.736 . S
C929 C278 1.704 . S
C943 C288 1.516 . S
C947 C319 1.590 . S
C961 C298 1.833 . S
C965 C339 1.825 . S
C979 C258 1.659 . S
C983 C349 1.541 . S
C997 C309 1.465 . S
C1001 C268 1.460 . S
C1015 C1 1.351 . S
C1019 C2 1.351 . S
C1033 C22 1.398 . S
C1037 C21 1.398 . S
C1051 C41 1.375 . S
C1055 C42 1.375 . S
C1069 C62 1.379 . S
C1073 C61 1.379 . S
C1087 C82 1.363 . S
C1091 C81 1.363 . S
C1105 C101 1.418 . S
C1109 C102 1.418 . S
C1123 C121 1.443 . S
C1127 C122 1.443 . S
C1141 C142 1.347 . S
C1145 C141 1.347 1_554 S
C1159 C161 1.453 . S
C1163 C162 1.453 . S
C1177 C182 1.351 . S
C1181 C181 1.351 . S
C1195 C202 1.432 . S
C1199 C201 1.432 . S
C1213 C222 1.360 . S
C1217 C221 1.360 . S
C1231 C242 1.348 . S
C1235 C241 1.348 . S
C1249 C262 1.387 . S
C1253 C261 1.387 . S
C1267 C281 1.368 . S
C1271 C282 1.368 . S
C1285 C301 1.390 . S
C1289 C302 1.390 . S
C1303 C322 1.350 . S
C1307 C321 1.350 . S
C1321 C342 1.379 . S
C1325 C341 1.379 . S
