# Generated by pormake.
# Topology vbk, (5)-cn, num edge types: 1
# Building blocks:
#     Node 0, Type 0, BuildingBlock: BEQFEK_clean_sbu_0, # of connection points: 5
#     Node 1, Type 0, BuildingBlock: BEQFEK_clean_sbu_0, # of connection points: 5
#     Node 2, Type 0, BuildingBlock: BEQFEK_clean_sbu_0, # of connection points: 5
#     Node 3, Type 0, BuildingBlock: BEQFEK_clean_sbu_0, # of connection points: 5
#     Node 4, Type 0, BuildingBlock: BEQFEK_clean_sbu_0, # of connection points: 5
#     Node 5, Type 0, BuildingBlock: BEQFEK_clean_sbu_0, # of connection points: 5
#     Node 6, Type 0, BuildingBlock: BEQFEK_clean_sbu_0, # of connection points: 5
#     Node 7, Type 0, BuildingBlock: BEQFEK_clean_sbu_0, # of connection points: 5
#     Node 8, Type 0, BuildingBlock: BEQFEK_clean_sbu_0, # of connection points: 5
#     Node 9, Type 0, BuildingBlock: BEQFEK_clean_sbu_0, # of connection points: 5
#     Node 10, Type 0, BuildingBlock: BEQFEK_clean_sbu_0, # of connection points: 5
#     Node 11, Type 0, BuildingBlock: BEQFEK_clean_sbu_0, # of connection points: 5
#     Node 12, Type 0, BuildingBlock: BEQFEK_clean_sbu_0, # of connection points: 5
#     Node 13, Type 0, BuildingBlock: BEQFEK_clean_sbu_0, # of connection points: 5
#     Node 14, Type 0, BuildingBlock: BEQFEK_clean_sbu_0, # of connection points: 5
#     Node 15, Type 0, BuildingBlock: BEQFEK_clean_sbu_0, # of connection points: 5
#     Edge 16, Type (0, 0), None
#     Edge 17, Type (0, 0), None
#     Edge 18, Type (0, 0), None
#     Edge 19, Type (0, 0), None
#     Edge 20, Type (0, 0), None
#     Edge 21, Type (0, 0), None
#     Edge 22, Type (0, 0), None
#     Edge 23, Type (0, 0), None
#     Edge 24, Type (0, 0), None
#     Edge 25, Type (0, 0), None
#     Edge 26, Type (0, 0), None
#     Edge 27, Type (0, 0), None
#     Edge 28, Type (0, 0), None
#     Edge 29, Type (0, 0), None
#     Edge 30, Type (0, 0), None
#     Edge 31, Type (0, 0), None
#     Edge 32, Type (0, 0), None
#     Edge 33, Type (0, 0), None
#     Edge 34, Type (0, 0), None
#     Edge 35, Type (0, 0), None
#     Edge 36, Type (0, 0), None
#     Edge 37, Type (0, 0), None
#     Edge 38, Type (0, 0), None
#     Edge 39, Type (0, 0), None
#     Edge 40, Type (0, 0), None
#     Edge 41, Type (0, 0), None
#     Edge 42, Type (0, 0), None
#     Edge 43, Type (0, 0), None
#     Edge 44, Type (0, 0), None
#     Edge 45, Type (0, 0), None
#     Edge 46, Type (0, 0), None
#     Edge 47, Type (0, 0), None
#     Edge 48, Type (0, 0), None
#     Edge 49, Type (0, 0), None
#     Edge 50, Type (0, 0), None
#     Edge 51, Type (0, 0), None
#     Edge 52, Type (0, 0), None
#     Edge 53, Type (0, 0), None
#     Edge 54, Type (0, 0), None
#     Edge 55, Type (0, 0), None
# Relax obj value: 0.031
# Max RMSD: 0.053
# Mean RMSD: 0.053
data_MOF--net-vbk--node1-BEQFEK_clean_sbu_0--edge1-none
_symmetry_space_group_name_H-M    P1
_symmetry_Int_Tables_number       1
_symmetry_cell_setting            triclinic
loop_
_symmetry_equiv_pos_as_xyz
'x, y, z'
_cell_length_a     43.78263
_cell_length_b     19.549802
_cell_length_c     13.022507
_cell_angle_alpha  89.997802
_cell_angle_beta   90.000089
_cell_angle_gamma 90.00953
loop_
_atom_site_label
_atom_site_type_symbol
_atom_site_fract_x
_atom_site_fract_y
_atom_site_fract_z
_atom_type_partial_charge
Co0 Co 0.08407 0.14053 0.11055 0.0
Co1 Co 0.15631 0.14645 0.12029 0.0
C2 C 0.12635 0.0274 0.02992 0.0
O3 O 0.10063 0.05544 0.04815 0.0
O4 O 0.15144 0.05461 0.05821 0.0
C5 C 0.0249 0.07549 0.144 0.0
O6 O 0.04022 0.01916 0.16299 0.0
C7 C 0.22214 0.1372 0.19334 0.0
C8 C 0.23347 0.24666 0.17715 0.0
C9 C 0.24476 0.18574 0.21602 0.0
N10 N 0.1985 0.16981 0.14714 0.0
N11 N 0.20603 0.23465 0.13596 0.0
C12 C 0.22078 0.06398 0.22618 0.0
H13 H 0.19716 0.04393 0.21848 0.0
H14 H 0.22843 0.05883 0.30696 0.0
H15 H 0.23589 0.03296 0.17629 0.0
C16 C 0.09206 0.19265 0.3235 0.0
N17 N 0.10294 0.16312 0.23721 0.0
N18 N 0.13289 0.15868 0.24379 0.0
C19 C 0.14167 0.18205 0.33672 0.0
C20 C 0.11639 0.2066 0.38914 0.0
C21 C 0.05976 0.21642 0.33683 0.0
H22 H 0.04507 0.19999 0.27271 0.0
H23 H 0.05043 0.19616 0.41002 0.0
H24 H 0.05925 0.27312 0.34095 0.0
O25 O 0.0911 0.21405 0.01276 0.0
O26 O 0.14174 0.2134 0.01271 0.0
H27 H 0.18637 0.22617 0.34485 0.0
H28 H 0.17443 0.18178 0.45969 0.0
C29 C 0.17374 0.18132 0.37506 0.0
H30 H 0.18475 0.13345 0.35087 0.0
H31 H 0.19129 0.27215 0.1085 0.0
O32 O 0.03907 0.13033 0.12217 0.0
C33 C 0.11634 0.23624 0.97862 0.0
Co34 Co 0.43207 0.84822 0.61053 0.0
Co35 Co 0.35983 0.84231 0.6203 0.0
C36 C 0.38978 0.96135 0.52992 0.0
O37 O 0.41551 0.93331 0.54814 0.0
O38 O 0.36469 0.93415 0.55822 0.0
C39 C 0.49123 0.91324 0.64402 0.0
O40 O 0.47592 0.96957 0.66304 0.0
C41 C 0.294 0.85155 0.69335 0.0
C42 C 0.28267 0.74208 0.67725 0.0
C43 C 0.27139 0.80301 0.71607 0.0
N44 N 0.31764 0.81894 0.64717 0.0
N45 N 0.31011 0.75409 0.63605 0.0
C46 C 0.29535 0.92478 0.72614 0.0
H47 H 0.31897 0.94483 0.71842 0.0
H48 H 0.2877 0.92994 0.80691 0.0
H49 H 0.28024 0.95578 0.67623 0.0
C50 C 0.42408 0.79608 0.82348 0.0
N51 N 0.41319 0.82562 0.73719 0.0
N52 N 0.38325 0.83008 0.74379 0.0
C53 C 0.37447 0.80673 0.83673 0.0
C54 C 0.39975 0.78215 0.88914 0.0
C55 C 0.45637 0.77227 0.83678 0.0
H56 H 0.47106 0.78864 0.7726 0.0
H57 H 0.46572 0.79257 0.90992 0.0
H58 H 0.45688 0.71557 0.84099 0.0
O59 O 0.42504 0.77469 0.51274 0.0
O60 O 0.37439 0.77535 0.51271 0.0
H61 H 0.32977 0.76264 0.84498 0.0
H62 H 0.34173 0.80709 0.95973 0.0
C63 C 0.3424 0.8075 0.8751 0.0
H64 H 0.3314 0.85536 0.85086 0.0
H65 H 0.32486 0.71658 0.60862 0.0
O66 O 0.47707 0.85841 0.62216 0.0
C67 C 0.39979 0.75251 0.47862 0.0
Co68 Co 0.08394 0.84865 0.89432 0.0
Co69 Co 0.15614 0.84353 0.88313 0.0
C70 C 0.12637 0.96219 0.97413 0.0
O71 O 0.10065 0.93386 0.95645 0.0
O72 O 0.15146 0.9353 0.94525 0.0
C73 C 0.02473 0.91336 0.8605 0.0
O74 O 0.04 0.96975 0.84134 0.0
C75 C 0.22192 0.85189 0.80934 0.0
C76 C 0.23253 0.74184 0.82178 0.0
C77 C 0.24416 0.80293 0.78464 0.0
N78 N 0.19815 0.81942 0.85496 0.0
N79 N 0.20524 0.75416 0.86384 0.0
C80 C 0.22099 0.92556 0.77869 0.0
H81 H 0.19751 0.94622 0.78718 0.0
H82 H 0.22863 0.93155 0.69802 0.0
H83 H 0.23631 0.95547 0.8294 0.0
C84 C 0.09175 0.79592 0.68172 0.0
N85 N 0.10263 0.82601 0.76759 0.0
N86 N 0.13251 0.83157 0.76018 0.0
C87 C 0.14121 0.80872 0.66692 0.0
C88 C 0.11602 0.78306 0.61532 0.0
C89 C 0.05964 0.77069 0.66962 0.0
H90 H 0.04523 0.78499 0.73565 0.0
H91 H 0.04964 0.79196 0.5981 0.0
H92 H 0.05965 0.71409 0.66284 0.0
O93 O 0.09111 0.7752 0.99192 0.0
O94 O 0.14173 0.77672 0.99114 0.0
H95 H 0.18616 0.76662 0.65266 0.0
H96 H 0.173 0.81402 0.54202 0.0
C97 C 0.17303 0.81192 0.62668 0.0
H98 H 0.18386 0.85942 0.65331 0.0
H99 H 0.19026 0.71675 0.89034 0.0
O100 O 0.03894 0.85866 0.88266 0.0
C101 C 0.11646 0.75345 0.02571 0.0
Co102 Co 0.43219 0.14012 0.39434 0.0
Co103 Co 0.35999 0.14523 0.38314 0.0
C104 C 0.38977 0.02657 0.47413 0.0
O105 O 0.41548 0.0549 0.45645 0.0
O106 O 0.36467 0.05346 0.44525 0.0
C107 C 0.4914 0.07541 0.36048 0.0
O108 O 0.47613 0.01904 0.34128 0.0
C109 C 0.29421 0.13686 0.30933 0.0
C110 C 0.2836 0.24691 0.32175 0.0
C111 C 0.27198 0.18582 0.28461 0.0
N112 N 0.31799 0.16934 0.35495 0.0
N113 N 0.3109 0.23459 0.36383 0.0
C114 C 0.29515 0.06319 0.2787 0.0
H115 H 0.31863 0.04254 0.28719 0.0
H116 H 0.2875 0.0572 0.19803 0.0
H117 H 0.27983 0.03328 0.32941 0.0
C118 C 0.42438 0.19285 0.18173 0.0
N119 N 0.4135 0.16276 0.2676 0.0
N120 N 0.38362 0.15719 0.26019 0.0
C121 C 0.37493 0.18004 0.16692 0.0
C122 C 0.40012 0.2057 0.11532 0.0
C123 C 0.4565 0.21809 0.16963 0.0
H124 H 0.47091 0.2038 0.23568 0.0
H125 H 0.4665 0.19681 0.09812 0.0
H126 H 0.45648 0.27469 0.16283 0.0
O127 O 0.42502 0.21356 0.49193 0.0
O128 O 0.37441 0.21205 0.49114 0.0
H129 H 0.32998 0.22212 0.15263 0.0
H130 H 0.34314 0.17472 0.04201 0.0
C131 C 0.34311 0.17683 0.12667 0.0
H132 H 0.33227 0.12933 0.15331 0.0
H133 H 0.32587 0.27201 0.39032 0.0
O134 O 0.47719 0.13011 0.38268 0.0
C135 C 0.39967 0.23531 0.52572 0.0
Co136 Co 0.93207 0.84823 0.89387 0.0
Co137 Co 0.85982 0.84231 0.88413 0.0
C138 C 0.88978 0.96135 0.97449 0.0
O139 O 0.91551 0.93332 0.95627 0.0
O140 O 0.86469 0.93415 0.9462 0.0
C141 C 0.99123 0.91326 0.86041 0.0
O142 O 0.97591 0.9696 0.84144 0.0
C143 C 0.794 0.85156 0.81108 0.0
C144 C 0.78266 0.7421 0.82727 0.0
C145 C 0.77138 0.80302 0.7884 0.0
N146 N 0.81763 0.81895 0.85728 0.0
N147 N 0.8101 0.75411 0.86846 0.0
C148 C 0.79536 0.92478 0.77823 0.0
H149 H 0.81897 0.94483 0.78592 0.0
H150 H 0.7877 0.92992 0.69745 0.0
H151 H 0.78024 0.9558 0.82812 0.0
C152 C 0.92408 0.79611 0.68091 0.0
N153 N 0.91319 0.82564 0.76721 0.0
N154 N 0.88324 0.83007 0.76063 0.0
C155 C 0.87446 0.80671 0.66769 0.0
C156 C 0.89974 0.78215 0.61527 0.0
C157 C 0.95637 0.77234 0.66758 0.0
H158 H 0.97106 0.78878 0.7317 0.0
H159 H 0.9657 0.7926 0.59439 0.0
H160 H 0.95689 0.71564 0.66347 0.0
O161 O 0.92504 0.7747 0.99166 0.0
O162 O 0.87439 0.77535 0.99171 0.0
H163 H 0.82976 0.76258 0.65957 0.0
H164 H 0.8417 0.80696 0.54473 0.0
C165 C 0.84239 0.80743 0.62936 0.0
H166 H 0.83138 0.8553 0.65354 0.0
H167 H 0.82484 0.71661 0.89593 0.0
O168 O 0.97706 0.85842 0.88224 0.0
C169 C 0.89979 0.75251 0.0258 0.0
Co170 Co 0.58406 0.14054 0.39389 0.0
Co171 Co 0.65631 0.14645 0.38412 0.0
C172 C 0.62635 0.02741 0.47449 0.0
O173 O 0.60062 0.05544 0.45628 0.0
O174 O 0.65144 0.05461 0.4462 0.0
C175 C 0.5249 0.07552 0.36039 0.0
O176 O 0.54022 0.01919 0.34137 0.0
C177 C 0.72213 0.13721 0.31107 0.0
C178 C 0.73346 0.24668 0.32717 0.0
C179 C 0.74475 0.18575 0.28835 0.0
N180 N 0.69849 0.16982 0.35724 0.0
N181 N 0.70602 0.23467 0.36837 0.0
C182 C 0.72078 0.06398 0.27828 0.0
H183 H 0.69716 0.04392 0.286 0.0
H184 H 0.72843 0.05882 0.1975 0.0
H185 H 0.7359 0.03298 0.32819 0.0
C186 C 0.59205 0.19268 0.18094 0.0
N187 N 0.60294 0.16314 0.26722 0.0
N188 N 0.63288 0.15868 0.26063 0.0
C189 C 0.64166 0.18203 0.16768 0.0
C190 C 0.61639 0.20661 0.11528 0.0
C191 C 0.55976 0.21648 0.16764 0.0
H192 H 0.54508 0.20011 0.23181 0.0
H193 H 0.55041 0.19618 0.09449 0.0
H194 H 0.55926 0.27318 0.16342 0.0
O195 O 0.59109 0.21406 0.49167 0.0
O196 O 0.64174 0.2134 0.4917 0.0
H197 H 0.68637 0.22612 0.15944 0.0
H198 H 0.6744 0.18167 0.04468 0.0
C199 C 0.67373 0.18126 0.12932 0.0
H200 H 0.68473 0.1334 0.15355 0.0
H201 H 0.69127 0.27217 0.3958 0.0
O202 O 0.53907 0.13035 0.38226 0.0
C203 C 0.61634 0.23625 0.5258 0.0
Co204 Co 0.93219 0.14011 0.11009 0.0
Co205 Co 0.85999 0.14522 0.12129 0.0
C206 C 0.88977 0.02656 0.03029 0.0
O207 O 0.91548 0.0549 0.04797 0.0
O208 O 0.86467 0.05345 0.05917 0.0
C209 C 0.9914 0.07539 0.14392 0.0
O210 O 0.97613 0.01901 0.16308 0.0
C211 C 0.79421 0.13687 0.19508 0.0
C212 C 0.78361 0.24692 0.18265 0.0
C213 C 0.77198 0.18583 0.21978 0.0
N214 N 0.81799 0.16934 0.14946 0.0
N215 N 0.8109 0.23459 0.14058 0.0
C216 C 0.79514 0.06319 0.22572 0.0
H217 H 0.81863 0.04254 0.21723 0.0
H218 H 0.7875 0.05721 0.30639 0.0
H219 H 0.77982 0.03328 0.17501 0.0
C220 C 0.92438 0.19283 0.32269 0.0
N221 N 0.9135 0.16275 0.23682 0.0
N222 N 0.88362 0.15718 0.24424 0.0
C223 C 0.87492 0.18003 0.3375 0.0
C224 C 0.90011 0.20569 0.3891 0.0
C225 C 0.9565 0.21807 0.33479 0.0
H226 H 0.97091 0.20378 0.26875 0.0
H227 H 0.9665 0.1968 0.40631 0.0
H228 H 0.95648 0.27467 0.34158 0.0
O229 O 0.92502 0.21356 0.01249 0.0
O230 O 0.87441 0.21204 0.01327 0.0
H231 H 0.82998 0.22213 0.35177 0.0
H232 H 0.84314 0.17472 0.4624 0.0
C233 C 0.84311 0.17683 0.37774 0.0
H234 H 0.83227 0.12933 0.35111 0.0
H235 H 0.82587 0.27201 0.11409 0.0
O236 O 0.97719 0.1301 0.12175 0.0
C237 C 0.89967 0.2353 0.9787 0.0
Co238 Co 0.58394 0.84864 0.61008 0.0
Co239 Co 0.65614 0.84353 0.62128 0.0
C240 C 0.62636 0.96219 0.53028 0.0
O241 O 0.60065 0.93386 0.54796 0.0
O242 O 0.65146 0.9353 0.55916 0.0
C243 C 0.52474 0.91334 0.64394 0.0
O244 O 0.54 0.96972 0.66313 0.0
C245 C 0.72192 0.8519 0.69508 0.0
C246 C 0.73253 0.74185 0.68266 0.0
C247 C 0.74416 0.80294 0.7198 0.0
N248 N 0.69815 0.81942 0.64946 0.0
N249 N 0.70524 0.75417 0.64058 0.0
C250 C 0.72099 0.92557 0.72572 0.0
H251 H 0.6975 0.94622 0.71724 0.0
H252 H 0.72863 0.93155 0.80639 0.0
H253 H 0.73631 0.95548 0.67501 0.0
C254 C 0.59175 0.79591 0.82268 0.0
N255 N 0.60263 0.826 0.73681 0.0
N256 N 0.63251 0.83156 0.74423 0.0
C257 C 0.64121 0.80872 0.83749 0.0
C258 C 0.61602 0.78306 0.88909 0.0
C259 C 0.55964 0.77068 0.83479 0.0
H260 H 0.54523 0.78497 0.76875 0.0
H261 H 0.54963 0.79195 0.9063 0.0
H262 H 0.55965 0.71408 0.84159 0.0
O263 O 0.59111 0.7752 0.51248 0.0
O264 O 0.64173 0.77671 0.51327 0.0
H265 H 0.68616 0.76662 0.85177 0.0
H266 H 0.67299 0.81402 0.9624 0.0
C267 C 0.67302 0.81191 0.87774 0.0
H268 H 0.68386 0.85942 0.85111 0.0
H269 H 0.69027 0.71675 0.61408 0.0
O270 O 0.53894 0.85865 0.62173 0.0
C271 C 0.61647 0.75345 0.4787 0.0
Co272 Co 0.58408 0.64051 0.11057 0.0
Co273 Co 0.65633 0.64649 0.12017 0.0
C274 C 0.62634 0.5274 0.02991 0.0
O275 O 0.60061 0.55542 0.04818 0.0
O276 O 0.65143 0.55464 0.05812 0.0
C277 C 0.52491 0.57551 0.1441 0.0
O278 O 0.54022 0.51919 0.16314 0.0
C279 C 0.72215 0.6371 0.19331 0.0
C280 C 0.73358 0.74647 0.17666 0.0
C281 C 0.7448 0.68558 0.21585 0.0
N282 N 0.69855 0.66971 0.14691 0.0
N283 N 0.70614 0.73449 0.13543 0.0
C284 C 0.72074 0.56394 0.22647 0.0
H285 H 0.6971 0.54397 0.21891 0.0
H286 H 0.72842 0.55891 0.30723 0.0
H287 H 0.73582 0.53278 0.17666 0.0
C288 C 0.59209 0.69268 0.32348 0.0
N289 N 0.60298 0.66312 0.2372 0.0
N290 N 0.63293 0.65877 0.24372 0.0
C291 C 0.64172 0.68224 0.33659 0.0
C292 C 0.61643 0.70682 0.38896 0.0
C293 C 0.55978 0.71634 0.33687 0.0
H294 H 0.54509 0.69986 0.27279 0.0
H295 H 0.55048 0.69604 0.41008 0.0
H296 H 0.55922 0.77304 0.34101 0.0
O297 O 0.5911 0.71405 0.01277 0.0
O298 O 0.64175 0.71352 0.01267 0.0
H299 H 0.6864 0.72648 0.34411 0.0
H300 H 0.67455 0.68251 0.45939 0.0
C301 C 0.67381 0.68174 0.37478 0.0
H302 H 0.68481 0.63379 0.35095 0.0
H303 H 0.69144 0.772 0.10774 0.0
O304 O 0.53907 0.63034 0.12221 0.0
C305 C 0.61634 0.73632 0.97865 0.0
Co306 Co 0.93206 0.34823 0.61055 0.0
Co307 Co 0.8598 0.34226 0.62017 0.0
C308 C 0.88979 0.46135 0.5299 0.0
O309 O 0.91552 0.43333 0.54817 0.0
O310 O 0.8647 0.4341 0.55811 0.0
C311 C 0.99123 0.41322 0.64411 0.0
O312 O 0.97591 0.46954 0.66319 0.0
C313 C 0.79399 0.35166 0.69332 0.0
C314 C 0.78255 0.24229 0.67667 0.0
C315 C 0.77134 0.30318 0.71586 0.0
N316 N 0.81758 0.31904 0.64691 0.0
N317 N 0.80999 0.25426 0.63543 0.0
C318 C 0.7954 0.42481 0.72647 0.0
H319 H 0.81904 0.44478 0.71891 0.0
H320 H 0.78771 0.42985 0.80723 0.0
H321 H 0.78032 0.45598 0.67666 0.0
C322 C 0.92405 0.29606 0.82347 0.0
N323 N 0.91316 0.32562 0.73719 0.0
N324 N 0.88321 0.32998 0.74371 0.0
C325 C 0.87442 0.3065 0.83659 0.0
C326 C 0.8997 0.28193 0.88896 0.0
C327 C 0.95635 0.27239 0.83686 0.0
H328 H 0.97104 0.28885 0.77275 0.0
H329 H 0.96566 0.29271 0.91004 0.0
H330 H 0.95691 0.21569 0.84104 0.0
O331 O 0.92503 0.2747 0.51276 0.0
O332 O 0.87438 0.27523 0.51267 0.0
H333 H 0.82973 0.26227 0.84411 0.0
H334 H 0.84158 0.30624 0.95939 0.0
C335 C 0.84233 0.30702 0.87478 0.0
H336 H 0.83132 0.35496 0.85095 0.0
H337 H 0.82469 0.21676 0.60773 0.0
O338 O 0.97706 0.35841 0.62219 0.0
C339 C 0.8998 0.25243 0.47864 0.0
Co340 Co 0.58395 0.34866 0.89431 0.0
Co341 Co 0.65616 0.34347 0.88326 0.0
C342 C 0.62636 0.46218 0.97416 0.0
O343 O 0.60064 0.43387 0.95643 0.0
O344 O 0.65145 0.43525 0.94537 0.0
C345 C 0.52473 0.41335 0.86041 0.0
O346 O 0.54 0.46972 0.84118 0.0
C347 C 0.72193 0.35199 0.80939 0.0
C348 C 0.73263 0.24201 0.82219 0.0
C349 C 0.74419 0.30308 0.78478 0.0
N350 N 0.69819 0.3195 0.85519 0.0
N351 N 0.70534 0.25429 0.86432 0.0
C352 C 0.72095 0.42561 0.77846 0.0
H353 H 0.69745 0.44619 0.78681 0.0
H354 H 0.72862 0.4315 0.69781 0.0
H355 H 0.73624 0.45566 0.82911 0.0
C356 C 0.59178 0.2959 0.68176 0.0
N357 N 0.60266 0.32601 0.76761 0.0
N358 N 0.63255 0.33148 0.76026 0.0
C359 C 0.64125 0.30852 0.66706 0.0
C360 C 0.61606 0.28285 0.6155 0.0
C361 C 0.55965 0.27078 0.66958 0.0
H362 H 0.54524 0.2851 0.73559 0.0
H363 H 0.54967 0.29211 0.59806 0.0
H364 H 0.55962 0.21418 0.66276 0.0
O365 O 0.59111 0.2752 0.99191 0.0
O366 O 0.64174 0.27658 0.99119 0.0
H367 H 0.68619 0.26626 0.65342 0.0
H368 H 0.67313 0.31327 0.54229 0.0
C369 C 0.67309 0.31148 0.62696 0.0
H370 H 0.68394 0.35906 0.65325 0.0
H371 H 0.69041 0.21686 0.89099 0.0
O372 O 0.53895 0.35866 0.88264 0.0
C373 C 0.61645 0.25336 0.02569 0.0
Co374 Co 0.93219 0.64011 0.39433 0.0
Co375 Co 0.85998 0.64528 0.38326 0.0
C376 C 0.88978 0.52658 0.47416 0.0
O377 O 0.9155 0.55489 0.45644 0.0
O378 O 0.86468 0.55351 0.44537 0.0
C379 C 0.9914 0.57543 0.36039 0.0
O380 O 0.97613 0.51906 0.34112 0.0
C381 C 0.79421 0.63677 0.30938 0.0
C382 C 0.78351 0.74676 0.32211 0.0
C383 C 0.77195 0.68569 0.28475 0.0
N384 N 0.81795 0.66927 0.35516 0.0
N385 N 0.8108 0.73447 0.36425 0.0
C386 C 0.79518 0.56314 0.2785 0.0
H387 H 0.81869 0.54256 0.28686 0.0
H388 H 0.78752 0.55724 0.19784 0.0
H389 H 0.77989 0.53311 0.32915 0.0
C390 C 0.92436 0.69288 0.18177 0.0
N391 N 0.91348 0.66276 0.26762 0.0
N392 N 0.88359 0.65728 0.26026 0.0
C393 C 0.87489 0.68022 0.16705 0.0
C394 C 0.90008 0.70591 0.1155 0.0
C395 C 0.95649 0.71802 0.16961 0.0
H396 H 0.97089 0.70373 0.23565 0.0
H397 H 0.96647 0.69668 0.09812 0.0
H398 H 0.95651 0.77462 0.16274 0.0
O399 O 0.92502 0.71356 0.49192 0.0
O400 O 0.8744 0.71218 0.49118 0.0
H401 H 0.82995 0.72245 0.1533 0.0
H402 H 0.84303 0.67538 0.04226 0.0
C403 C 0.84305 0.67722 0.12692 0.0
H404 H 0.83221 0.62964 0.15327 0.0
H405 H 0.82574 0.77191 0.3909 0.0
O406 O 0.97719 0.63011 0.38266 0.0
C407 C 0.89968 0.73539 0.52569 0.0
Co408 Co 0.43206 0.34824 0.89385 0.0
Co409 Co 0.3598 0.34227 0.88424 0.0
C410 C 0.38979 0.46135 0.9745 0.0
O411 O 0.41552 0.43334 0.95624 0.0
O412 O 0.3647 0.43411 0.9463 0.0
C413 C 0.49123 0.41325 0.86032 0.0
O414 O 0.47591 0.46957 0.84128 0.0
C415 C 0.29399 0.35166 0.8111 0.0
C416 C 0.28255 0.24229 0.82777 0.0
C417 C 0.27134 0.30318 0.78857 0.0
N418 N 0.31758 0.31905 0.85751 0.0
N419 N 0.30999 0.25427 0.86901 0.0
C420 C 0.2954 0.42481 0.77794 0.0
H421 H 0.31903 0.44479 0.78549 0.0
H422 H 0.28771 0.42985 0.69717 0.0
H423 H 0.28031 0.45598 0.82774 0.0
C424 C 0.42405 0.29608 0.68093 0.0
N425 N 0.41316 0.32564 0.76721 0.0
N426 N 0.3832 0.32998 0.76069 0.0
C427 C 0.37441 0.30651 0.66783 0.0
C428 C 0.3997 0.28194 0.61545 0.0
C429 C 0.45635 0.27242 0.66753 0.0
H430 H 0.47105 0.28891 0.73161 0.0
H431 H 0.46565 0.29272 0.59432 0.0
H432 H 0.45691 0.21572 0.66341 0.0
O433 O 0.42503 0.27471 0.99164 0.0
O434 O 0.37438 0.27524 0.99175 0.0
H435 H 0.32973 0.26226 0.66033 0.0
H436 H 0.34157 0.30622 0.54503 0.0
C437 C 0.34232 0.30701 0.62964 0.0
H438 H 0.33132 0.35495 0.65347 0.0
H439 H 0.32469 0.21676 0.8967 0.0
O440 O 0.47706 0.35842 0.88221 0.0
C441 C 0.3998 0.25244 0.02577 0.0
Co442 Co 0.08408 0.64053 0.39386 0.0
Co443 Co 0.15633 0.64649 0.38425 0.0
C444 C 0.12634 0.52741 0.47451 0.0
O445 O 0.10061 0.55543 0.45625 0.0
O446 O 0.15143 0.55465 0.44631 0.0
C447 C 0.02491 0.57553 0.3603 0.0
O448 O 0.04022 0.51921 0.34122 0.0
C449 C 0.22214 0.6371 0.3111 0.0
C450 C 0.23358 0.74647 0.32773 0.0
C451 C 0.24479 0.68558 0.28854 0.0
N452 N 0.19855 0.66971 0.3575 0.0
N453 N 0.20614 0.7345 0.36898 0.0
C454 C 0.22073 0.56394 0.27795 0.0
H455 H 0.1971 0.54397 0.28551 0.0
H456 H 0.22842 0.5589 0.19719 0.0
H457 H 0.23582 0.53278 0.32776 0.0
C458 C 0.09208 0.6927 0.18095 0.0
N459 N 0.10297 0.66313 0.26722 0.0
N460 N 0.13292 0.65878 0.2607 0.0
C461 C 0.14172 0.68225 0.16783 0.0
C462 C 0.11643 0.70683 0.11545 0.0
C463 C 0.05978 0.71637 0.16756 0.0
H464 H 0.04509 0.69992 0.23167 0.0
H465 H 0.05047 0.69605 0.09438 0.0
H466 H 0.05923 0.77307 0.16338 0.0
O467 O 0.0911 0.71406 0.49165 0.0
O468 O 0.14175 0.71353 0.49175 0.0
H469 H 0.1864 0.72648 0.16029 0.0
H470 H 0.17455 0.6825 0.04502 0.0
C471 C 0.1738 0.68173 0.12963 0.0
H472 H 0.18481 0.63379 0.15347 0.0
H473 H 0.19144 0.772 0.39667 0.0
O474 O 0.03907 0.63035 0.38222 0.0
C475 C 0.11634 0.73632 0.52577 0.0
Co476 Co 0.43218 0.6401 0.1101 0.0
Co477 Co 0.35997 0.64528 0.12115 0.0
C478 C 0.38978 0.52658 0.03025 0.0
O479 O 0.41549 0.55489 0.04798 0.0
O480 O 0.36468 0.55351 0.05904 0.0
C481 C 0.4914 0.57541 0.14401 0.0
O482 O 0.47613 0.51903 0.16324 0.0
C483 C 0.2942 0.63676 0.19502 0.0
C484 C 0.2835 0.74675 0.18222 0.0
C485 C 0.27194 0.68568 0.21963 0.0
N486 N 0.31794 0.66926 0.14922 0.0
N487 N 0.31079 0.73446 0.14009 0.0
C488 C 0.29518 0.56314 0.22595 0.0
H489 H 0.31869 0.54257 0.21761 0.0
H490 H 0.28751 0.55726 0.30661 0.0
H491 H 0.27989 0.5331 0.17531 0.0
C492 C 0.42436 0.69286 0.32266 0.0
N493 N 0.41347 0.66275 0.23681 0.0
N494 N 0.38358 0.65728 0.24416 0.0
C495 C 0.37488 0.68024 0.33735 0.0
C496 C 0.40007 0.7059 0.38892 0.0
C497 C 0.45648 0.71798 0.33483 0.0
H498 H 0.4709 0.70365 0.26882 0.0
H499 H 0.46646 0.69665 0.40636 0.0
H500 H 0.45651 0.77457 0.34165 0.0
O501 O 0.42502 0.71356 0.01251 0.0
O502 O 0.3744 0.71218 0.01323 0.0
H503 H 0.32994 0.7225 0.35099 0.0
H504 H 0.343 0.67549 0.46212 0.0
C505 C 0.34304 0.67728 0.37745 0.0
H506 H 0.3322 0.6297 0.35116 0.0
H507 H 0.32572 0.7719 0.11342 0.0
O508 O 0.47719 0.6301 0.12178 0.0
C509 C 0.39968 0.73539 0.97873 0.0
Co510 Co 0.08395 0.34865 0.61009 0.0
Co511 Co 0.15616 0.34348 0.62116 0.0
C512 C 0.12635 0.46218 0.53025 0.0
O513 O 0.10064 0.43386 0.54798 0.0
O514 O 0.15145 0.43525 0.55905 0.0
C515 C 0.02473 0.41333 0.64402 0.0
O516 O 0.04 0.4697 0.66329 0.0
C517 C 0.22193 0.35199 0.69504 0.0
C518 C 0.23262 0.242 0.6823 0.0
C519 C 0.24419 0.30307 0.71967 0.0
N520 N 0.19819 0.31949 0.64925 0.0
N521 N 0.20533 0.25428 0.64016 0.0
C522 C 0.22095 0.42562 0.72592 0.0
H523 H 0.19745 0.4462 0.71756 0.0
H524 H 0.22862 0.43152 0.80658 0.0
H525 H 0.23624 0.45565 0.67527 0.0
C526 C 0.09177 0.29588 0.82265 0.0
N527 N 0.10266 0.32599 0.73679 0.0
N528 N 0.13254 0.33148 0.74416 0.0
C529 C 0.14125 0.30853 0.83736 0.0
C530 C 0.11605 0.28285 0.88891 0.0
C531 C 0.05965 0.27074 0.8348 0.0
H532 H 0.04524 0.28504 0.76877 0.0
H533 H 0.04966 0.29208 0.9063 0.0
H534 H 0.05963 0.21414 0.84167 0.0
O535 O 0.09111 0.27519 0.51249 0.0
O536 O 0.14174 0.27658 0.51324 0.0
H537 H 0.18618 0.26631 0.8511 0.0
H538 H 0.17311 0.31337 0.96215 0.0
C539 C 0.17308 0.31153 0.87749 0.0
H540 H 0.18392 0.35911 0.85115 0.0
H541 H 0.1904 0.21685 0.61351 0.0
O542 O 0.03894 0.35864 0.62176 0.0
C543 C 0.11646 0.25336 0.47872 0.0
loop_
_geom_bond_atom_site_label_1
_geom_bond_atom_site_label_2
_geom_bond_distance
_geom_bond_site_symmetry_2
_ccdc_geom_bond_type
Co0 O3 1.970 . S
Co0 N17 1.989 . S
Co0 O25 1.967 1_554 S
Co0 O32 1.920 . S
Co1 O4 1.966 . S
Co1 N10 2.022 . S
Co1 N18 1.993 . S
Co1 O26 1.941 1_554 S
C2 O3 1.258 . S
C2 O4 1.263 . S
O3 Co0 1.970 . S
O3 C2 1.258 . S
O4 Co1 1.966 . S
O4 C2 1.263 . S
C5 O6 1.235 . S
C5 O32 1.289 . S
O6 C5 1.235 . S
C7 C9 1.400 . S
C7 N10 1.351 . S
C7 C12 1.501 . S
C8 C9 1.387 . S
C8 N11 1.341 . S
C9 C7 1.400 . S
C9 C8 1.387 . S
N10 Co1 2.022 . S
N10 C7 1.351 . S
N10 N11 1.365 . S
N11 C8 1.341 . S
N11 N10 1.365 . S
N11 H31 0.862 . S
C12 C7 1.501 . S
C12 H13 0.961 . S
C12 H14 0.961 . S
C12 H15 0.960 . S
H13 C12 0.961 . S
H14 C12 0.961 . S
H15 C12 0.960 . S
C16 N17 1.342 . S
C16 C20 1.401 . S
C16 C21 1.499 . S
N17 Co0 1.989 . S
N17 C16 1.342 . S
N17 N18 1.388 . S
N18 Co1 1.993 . S
N18 N17 1.388 . S
N18 C19 1.346 . S
C19 N18 1.346 . S
C19 C20 1.396 . S
C19 C29 1.510 . S
C20 C16 1.401 . S
C20 C19 1.396 . S
C21 C16 1.499 . S
C21 H22 0.959 . S
C21 H23 0.960 . S
C21 H24 0.961 . S
H22 C21 0.959 . S
H23 C21 0.960 . S
H24 C21 0.961 . S
O25 Co0 1.967 1_556 S
O25 C33 1.258 . S
O26 Co1 1.941 1_556 S
O26 C33 1.266 . S
H27 C29 0.959 . S
H28 C29 0.961 . S
C29 C19 1.510 . S
C29 H27 0.959 . S
C29 H28 0.961 . S
C29 H30 0.960 . S
H30 C29 0.960 . S
H31 N11 0.862 . S
O32 Co0 1.920 . S
O32 C5 1.289 . S
C33 O25 1.258 . S
C33 O26 1.266 . S
Co34 O37 1.970 . S
Co34 N51 1.989 . S
Co34 O59 1.967 . S
Co34 O66 1.920 . S
Co35 O38 1.966 . S
Co35 N44 2.022 . S
Co35 N52 1.993 . S
Co35 O60 1.941 . S
C36 O37 1.258 . S
C36 O38 1.263 . S
O37 Co34 1.970 . S
O37 C36 1.258 . S
O38 Co35 1.966 . S
O38 C36 1.263 . S
C39 O40 1.235 . S
C39 O66 1.289 . S
O40 C39 1.235 . S
C41 C43 1.400 . S
C41 N44 1.351 . S
C41 C46 1.501 . S
C42 C43 1.387 . S
C42 N45 1.341 . S
C43 C41 1.400 . S
C43 C42 1.387 . S
N44 Co35 2.022 . S
N44 C41 1.351 . S
N44 N45 1.365 . S
N45 C42 1.341 . S
N45 N44 1.365 . S
N45 H65 0.862 . S
C46 C41 1.501 . S
C46 H47 0.961 . S
C46 H48 0.961 . S
C46 H49 0.960 . S
H47 C46 0.961 . S
H48 C46 0.961 . S
H49 C46 0.960 . S
C50 N51 1.342 . S
C50 C54 1.401 . S
C50 C55 1.499 . S
N51 Co34 1.989 . S
N51 C50 1.342 . S
N51 N52 1.388 . S
N52 Co35 1.993 . S
N52 N51 1.388 . S
N52 C53 1.346 . S
C53 N52 1.346 . S
C53 C54 1.396 . S
C53 C63 1.510 . S
C54 C50 1.401 . S
C54 C53 1.396 . S
C55 C50 1.499 . S
C55 H56 0.959 . S
C55 H57 0.960 . S
C55 H58 0.961 . S
H56 C55 0.959 . S
H57 C55 0.960 . S
H58 C55 0.961 . S
O59 Co34 1.967 . S
O59 C67 1.258 . S
O60 Co35 1.941 . S
O60 C67 1.266 . S
H61 C63 0.959 . S
H62 C63 0.961 . S
C63 C53 1.510 . S
C63 H61 0.959 . S
C63 H62 0.961 . S
C63 H64 0.960 . S
H64 C63 0.960 . S
H65 N45 0.862 . S
O66 Co34 1.920 . S
O66 C39 1.289 . S
C67 O59 1.258 . S
C67 O60 1.266 . S
Co68 O71 1.970 . S
Co68 N85 1.989 . S
Co68 O93 1.967 1_556 S
Co68 O100 1.920 . S
Co69 O72 1.966 . S
Co69 N78 2.022 . S
Co69 N86 1.993 . S
Co69 O94 1.941 1_556 S
C70 O71 1.258 . S
C70 O72 1.263 . S
O71 Co68 1.970 . S
O71 C70 1.258 . S
O72 Co69 1.966 . S
O72 C70 1.263 . S
C73 O74 1.235 . S
C73 O100 1.289 . S
O74 C73 1.235 . S
C75 C77 1.400 . S
C75 N78 1.351 . S
C75 C80 1.501 . S
C76 C77 1.387 . S
C76 N79 1.341 . S
C77 C75 1.400 . S
C77 C76 1.387 . S
N78 Co69 2.022 . S
N78 C75 1.351 . S
N78 N79 1.365 . S
N79 C76 1.341 . S
N79 N78 1.365 . S
N79 H99 0.862 . S
C80 C75 1.501 . S
C80 H81 0.961 . S
C80 H82 0.961 . S
C80 H83 0.960 . S
H81 C80 0.961 . S
H82 C80 0.961 . S
H83 C80 0.960 . S
C84 N85 1.342 . S
C84 C88 1.401 . S
C84 C89 1.499 . S
N85 Co68 1.989 . S
N85 C84 1.342 . S
N85 N86 1.388 . S
N86 Co69 1.993 . S
N86 N85 1.388 . S
N86 C87 1.346 . S
C87 N86 1.346 . S
C87 C88 1.396 . S
C87 C97 1.510 . S
C88 C84 1.401 . S
C88 C87 1.396 . S
C89 C84 1.499 . S
C89 H90 0.959 . S
C89 H91 0.960 . S
C89 H92 0.961 . S
H90 C89 0.959 . S
H91 C89 0.960 . S
H92 C89 0.961 . S
O93 Co68 1.967 1_554 S
O93 C101 1.258 . S
O94 Co69 1.941 1_554 S
O94 C101 1.266 . S
H95 C97 0.959 . S
H96 C97 0.961 . S
C97 C87 1.510 . S
C97 H95 0.959 . S
C97 H96 0.961 . S
C97 H98 0.960 . S
H98 C97 0.960 . S
H99 N79 0.862 . S
O100 Co68 1.920 . S
O100 C73 1.289 . S
C101 O93 1.258 . S
C101 O94 1.266 . S
Co102 O105 1.970 . S
Co102 N119 1.989 . S
Co102 O127 1.967 . S
Co102 O134 1.920 . S
Co103 O106 1.966 . S
Co103 N112 2.022 . S
Co103 N120 1.993 . S
Co103 O128 1.941 . S
C104 O105 1.258 . S
C104 O106 1.263 . S
O105 Co102 1.970 . S
O105 C104 1.258 . S
O106 Co103 1.966 . S
O106 C104 1.263 . S
C107 O108 1.235 . S
C107 O134 1.289 . S
O108 C107 1.235 . S
C109 C111 1.400 . S
C109 N112 1.351 . S
C109 C114 1.501 . S
C110 C111 1.387 . S
C110 N113 1.341 . S
C111 C109 1.400 . S
C111 C110 1.387 . S
N112 Co103 2.022 . S
N112 C109 1.351 . S
N112 N113 1.365 . S
N113 C110 1.341 . S
N113 N112 1.365 . S
N113 H133 0.862 . S
C114 C109 1.501 . S
C114 H115 0.961 . S
C114 H116 0.961 . S
C114 H117 0.960 . S
H115 C114 0.961 . S
H116 C114 0.961 . S
H117 C114 0.960 . S
C118 N119 1.342 . S
C118 C122 1.401 . S
C118 C123 1.499 . S
N119 Co102 1.989 . S
N119 C118 1.342 . S
N119 N120 1.388 . S
N120 Co103 1.993 . S
N120 N119 1.388 . S
N120 C121 1.346 . S
C121 N120 1.346 . S
C121 C122 1.396 . S
C121 C131 1.510 . S
C122 C118 1.401 . S
C122 C121 1.396 . S
C123 C118 1.499 . S
C123 H124 0.959 . S
C123 H125 0.960 . S
C123 H126 0.961 . S
H124 C123 0.959 . S
H125 C123 0.960 . S
H126 C123 0.961 . S
O127 Co102 1.967 . S
O127 C135 1.258 . S
O128 Co103 1.941 . S
O128 C135 1.266 . S
H129 C131 0.959 . S
H130 C131 0.961 . S
C131 C121 1.510 . S
C131 H129 0.959 . S
C131 H130 0.961 . S
C131 H132 0.960 . S
H132 C131 0.960 . S
H133 N113 0.862 . S
O134 Co102 1.920 . S
O134 C107 1.289 . S
C135 O127 1.258 . S
C135 O128 1.266 . S
Co136 O139 1.970 . S
Co136 N153 1.989 . S
Co136 O161 1.967 1_556 S
Co136 O168 1.920 . S
Co137 O140 1.966 . S
Co137 N146 2.022 . S
Co137 N154 1.993 . S
Co137 O162 1.941 1_556 S
C138 O139 1.258 . S
C138 O140 1.263 . S
O139 Co136 1.970 . S
O139 C138 1.258 . S
O140 Co137 1.966 . S
O140 C138 1.263 . S
C141 O142 1.235 . S
C141 O168 1.289 . S
O142 C141 1.235 . S
C143 C145 1.400 . S
C143 N146 1.351 . S
C143 C148 1.501 . S
C144 C145 1.387 . S
C144 N147 1.341 . S
C145 C143 1.400 . S
C145 C144 1.387 . S
N146 Co137 2.022 . S
N146 C143 1.351 . S
N146 N147 1.365 . S
N147 C144 1.341 . S
N147 N146 1.365 . S
N147 H167 0.862 . S
C148 C143 1.501 . S
C148 H149 0.961 . S
C148 H150 0.961 . S
C148 H151 0.960 . S
H149 C148 0.961 . S
H150 C148 0.961 . S
H151 C148 0.960 . S
C152 N153 1.342 . S
C152 C156 1.401 . S
C152 C157 1.499 . S
N153 Co136 1.989 . S
N153 C152 1.342 . S
N153 N154 1.388 . S
N154 Co137 1.993 . S
N154 N153 1.388 . S
N154 C155 1.346 . S
C155 N154 1.346 . S
C155 C156 1.396 . S
C155 C165 1.510 . S
C156 C152 1.401 . S
C156 C155 1.396 . S
C157 C152 1.499 . S
C157 H158 0.959 . S
C157 H159 0.960 . S
C157 H160 0.961 . S
H158 C157 0.959 . S
H159 C157 0.960 . S
H160 C157 0.961 . S
O161 Co136 1.967 1_554 S
O161 C169 1.258 . S
O162 Co137 1.941 1_554 S
O162 C169 1.266 . S
H163 C165 0.959 . S
H164 C165 0.961 . S
C165 C155 1.510 . S
C165 H163 0.959 . S
C165 H164 0.961 . S
C165 H166 0.960 . S
H166 C165 0.960 . S
H167 N147 0.862 . S
O168 Co136 1.920 . S
O168 C141 1.289 . S
C169 O161 1.258 . S
C169 O162 1.266 . S
Co170 O173 1.970 . S
Co170 N187 1.989 . S
Co170 O195 1.967 . S
Co170 O202 1.920 . S
Co171 O174 1.966 . S
Co171 N180 2.022 . S
Co171 N188 1.993 . S
Co171 O196 1.941 . S
C172 O173 1.258 . S
C172 O174 1.263 . S
O173 Co170 1.970 . S
O173 C172 1.258 . S
O174 Co171 1.966 . S
O174 C172 1.263 . S
C175 O176 1.235 . S
C175 O202 1.289 . S
O176 C175 1.235 . S
C177 C179 1.400 . S
C177 N180 1.351 . S
C177 C182 1.501 . S
C178 C179 1.387 . S
C178 N181 1.341 . S
C179 C177 1.400 . S
C179 C178 1.387 . S
N180 Co171 2.022 . S
N180 C177 1.351 . S
N180 N181 1.365 . S
N181 C178 1.341 . S
N181 N180 1.365 . S
N181 H201 0.862 . S
C182 C177 1.501 . S
C182 H183 0.961 . S
C182 H184 0.961 . S
C182 H185 0.960 . S
H183 C182 0.961 . S
H184 C182 0.961 . S
H185 C182 0.960 . S
C186 N187 1.342 . S
C186 C190 1.401 . S
C186 C191 1.499 . S
N187 Co170 1.989 . S
N187 C186 1.342 . S
N187 N188 1.388 . S
N188 Co171 1.993 . S
N188 N187 1.388 . S
N188 C189 1.346 . S
C189 N188 1.346 . S
C189 C190 1.396 . S
C189 C199 1.510 . S
C190 C186 1.401 . S
C190 C189 1.396 . S
C191 C186 1.499 . S
C191 H192 0.959 . S
C191 H193 0.960 . S
C191 H194 0.961 . S
H192 C191 0.959 . S
H193 C191 0.960 . S
H194 C191 0.961 . S
O195 Co170 1.967 . S
O195 C203 1.258 . S
O196 Co171 1.941 . S
O196 C203 1.266 . S
H197 C199 0.959 . S
H198 C199 0.961 . S
C199 C189 1.510 . S
C199 H197 0.959 . S
C199 H198 0.961 . S
C199 H200 0.960 . S
H200 C199 0.960 . S
H201 N181 0.862 . S
O202 Co170 1.920 . S
O202 C175 1.289 . S
C203 O195 1.258 . S
C203 O196 1.266 . S
Co204 O207 1.970 . S
Co204 N221 1.989 . S
Co204 O229 1.967 1_554 S
Co204 O236 1.920 . S
Co205 O208 1.966 . S
Co205 N214 2.022 . S
Co205 N222 1.993 . S
Co205 O230 1.941 1_554 S
C206 O207 1.258 . S
C206 O208 1.263 . S
O207 Co204 1.970 . S
O207 C206 1.258 . S
O208 Co205 1.966 . S
O208 C206 1.263 . S
C209 O210 1.235 . S
C209 O236 1.289 . S
O210 C209 1.235 . S
C211 C213 1.400 . S
C211 N214 1.351 . S
C211 C216 1.501 . S
C212 C213 1.387 . S
C212 N215 1.341 . S
C213 C211 1.400 . S
C213 C212 1.387 . S
N214 Co205 2.022 . S
N214 C211 1.351 . S
N214 N215 1.365 . S
N215 C212 1.341 . S
N215 N214 1.365 . S
N215 H235 0.862 . S
C216 C211 1.501 . S
C216 H217 0.961 . S
C216 H218 0.961 . S
C216 H219 0.960 . S
H217 C216 0.961 . S
H218 C216 0.961 . S
H219 C216 0.960 . S
C220 N221 1.342 . S
C220 C224 1.401 . S
C220 C225 1.499 . S
N221 Co204 1.989 . S
N221 C220 1.342 . S
N221 N222 1.388 . S
N222 Co205 1.993 . S
N222 N221 1.388 . S
N222 C223 1.346 . S
C223 N222 1.346 . S
C223 C224 1.396 . S
C223 C233 1.510 . S
C224 C220 1.401 . S
C224 C223 1.396 . S
C225 C220 1.499 . S
C225 H226 0.959 . S
C225 H227 0.960 . S
C225 H228 0.961 . S
H226 C225 0.959 . S
H227 C225 0.960 . S
H228 C225 0.961 . S
O229 Co204 1.967 1_556 S
O229 C237 1.258 . S
O230 Co205 1.941 1_556 S
O230 C237 1.266 . S
H231 C233 0.959 . S
H232 C233 0.961 . S
C233 C223 1.510 . S
C233 H231 0.959 . S
C233 H232 0.961 . S
C233 H234 0.960 . S
H234 C233 0.960 . S
H235 N215 0.862 . S
O236 Co204 1.920 . S
O236 C209 1.289 . S
C237 O229 1.258 . S
C237 O230 1.266 . S
Co238 O241 1.970 . S
Co238 N255 1.989 . S
Co238 O263 1.967 . S
Co238 O270 1.920 . S
Co239 O242 1.966 . S
Co239 N248 2.022 . S
Co239 N256 1.993 . S
Co239 O264 1.941 . S
C240 O241 1.258 . S
C240 O242 1.263 . S
O241 Co238 1.970 . S
O241 C240 1.258 . S
O242 Co239 1.966 . S
O242 C240 1.263 . S
C243 O244 1.235 . S
C243 O270 1.289 . S
O244 C243 1.235 . S
C245 C247 1.400 . S
C245 N248 1.351 . S
C245 C250 1.501 . S
C246 C247 1.387 . S
C246 N249 1.341 . S
C247 C245 1.400 . S
C247 C246 1.387 . S
N248 Co239 2.022 . S
N248 C245 1.351 . S
N248 N249 1.365 . S
N249 C246 1.341 . S
N249 N248 1.365 . S
N249 H269 0.862 . S
C250 C245 1.501 . S
C250 H251 0.961 . S
C250 H252 0.961 . S
C250 H253 0.960 . S
H251 C250 0.961 . S
H252 C250 0.961 . S
H253 C250 0.960 . S
C254 N255 1.342 . S
C254 C258 1.401 . S
C254 C259 1.499 . S
N255 Co238 1.989 . S
N255 C254 1.342 . S
N255 N256 1.388 . S
N256 Co239 1.993 . S
N256 N255 1.388 . S
N256 C257 1.346 . S
C257 N256 1.346 . S
C257 C258 1.396 . S
C257 C267 1.510 . S
C258 C254 1.401 . S
C258 C257 1.396 . S
C259 C254 1.499 . S
C259 H260 0.959 . S
C259 H261 0.960 . S
C259 H262 0.961 . S
H260 C259 0.959 . S
H261 C259 0.960 . S
H262 C259 0.961 . S
O263 Co238 1.967 . S
O263 C271 1.258 . S
O264 Co239 1.941 . S
O264 C271 1.266 . S
H265 C267 0.959 . S
H266 C267 0.961 . S
C267 C257 1.510 . S
C267 H265 0.959 . S
C267 H266 0.961 . S
C267 H268 0.960 . S
H268 C267 0.960 . S
H269 N249 0.862 . S
O270 Co238 1.920 . S
O270 C243 1.289 . S
C271 O263 1.258 . S
C271 O264 1.266 . S
Co272 O275 1.970 . S
Co272 N289 1.989 . S
Co272 O297 1.967 1_554 S
Co272 O304 1.920 . S
Co273 O276 1.966 . S
Co273 N282 2.022 . S
Co273 N290 1.993 . S
Co273 O298 1.941 1_554 S
C274 O275 1.258 . S
C274 O276 1.263 . S
O275 Co272 1.970 . S
O275 C274 1.258 . S
O276 Co273 1.966 . S
O276 C274 1.263 . S
C277 O278 1.235 . S
C277 O304 1.289 . S
O278 C277 1.235 . S
C279 C281 1.400 . S
C279 N282 1.351 . S
C279 C284 1.501 . S
C280 C281 1.387 . S
C280 N283 1.341 . S
C281 C279 1.400 . S
C281 C280 1.387 . S
N282 Co273 2.022 . S
N282 C279 1.351 . S
N282 N283 1.365 . S
N283 C280 1.341 . S
N283 N282 1.365 . S
N283 H303 0.862 . S
C284 C279 1.501 . S
C284 H285 0.961 . S
C284 H286 0.961 . S
C284 H287 0.960 . S
H285 C284 0.961 . S
H286 C284 0.961 . S
H287 C284 0.960 . S
C288 N289 1.342 . S
C288 C292 1.401 . S
C288 C293 1.499 . S
N289 Co272 1.989 . S
N289 C288 1.342 . S
N289 N290 1.388 . S
N290 Co273 1.993 . S
N290 N289 1.388 . S
N290 C291 1.346 . S
C291 N290 1.346 . S
C291 C292 1.396 . S
C291 C301 1.510 . S
C292 C288 1.401 . S
C292 C291 1.396 . S
C293 C288 1.499 . S
C293 H294 0.959 . S
C293 H295 0.960 . S
C293 H296 0.961 . S
H294 C293 0.959 . S
H295 C293 0.960 . S
H296 C293 0.961 . S
O297 Co272 1.967 1_556 S
O297 C305 1.258 . S
O298 Co273 1.941 1_556 S
O298 C305 1.266 . S
H299 C301 0.959 . S
H300 C301 0.961 . S
C301 C291 1.510 . S
C301 H299 0.959 . S
C301 H300 0.961 . S
C301 H302 0.960 . S
H302 C301 0.960 . S
H303 N283 0.862 . S
O304 Co272 1.920 . S
O304 C277 1.289 . S
C305 O297 1.258 . S
C305 O298 1.266 . S
Co306 O309 1.970 . S
Co306 N323 1.989 . S
Co306 O331 1.967 . S
Co306 O338 1.920 . S
Co307 O310 1.966 . S
Co307 N316 2.022 . S
Co307 N324 1.993 . S
Co307 O332 1.941 . S
C308 O309 1.258 . S
C308 O310 1.263 . S
O309 Co306 1.970 . S
O309 C308 1.258 . S
O310 Co307 1.966 . S
O310 C308 1.263 . S
C311 O312 1.235 . S
C311 O338 1.289 . S
O312 C311 1.235 . S
C313 C315 1.400 . S
C313 N316 1.351 . S
C313 C318 1.501 . S
C314 C315 1.387 . S
C314 N317 1.341 . S
C315 C313 1.400 . S
C315 C314 1.387 . S
N316 Co307 2.022 . S
N316 C313 1.351 . S
N316 N317 1.365 . S
N317 C314 1.341 . S
N317 N316 1.365 . S
N317 H337 0.862 . S
C318 C313 1.501 . S
C318 H319 0.961 . S
C318 H320 0.961 . S
C318 H321 0.960 . S
H319 C318 0.961 . S
H320 C318 0.961 . S
H321 C318 0.960 . S
C322 N323 1.342 . S
C322 C326 1.401 . S
C322 C327 1.499 . S
N323 Co306 1.989 . S
N323 C322 1.342 . S
N323 N324 1.388 . S
N324 Co307 1.993 . S
N324 N323 1.388 . S
N324 C325 1.346 . S
C325 N324 1.346 . S
C325 C326 1.396 . S
C325 C335 1.510 . S
C326 C322 1.401 . S
C326 C325 1.396 . S
C327 C322 1.499 . S
C327 H328 0.959 . S
C327 H329 0.960 . S
C327 H330 0.961 . S
H328 C327 0.959 . S
H329 C327 0.960 . S
H330 C327 0.961 . S
O331 Co306 1.967 . S
O331 C339 1.258 . S
O332 Co307 1.941 . S
O332 C339 1.266 . S
H333 C335 0.959 . S
H334 C335 0.961 . S
C335 C325 1.510 . S
C335 H333 0.959 . S
C335 H334 0.961 . S
C335 H336 0.960 . S
H336 C335 0.960 . S
H337 N317 0.862 . S
O338 Co306 1.920 . S
O338 C311 1.289 . S
C339 O331 1.258 . S
C339 O332 1.266 . S
Co340 O343 1.970 . S
Co340 N357 1.989 . S
Co340 O365 1.967 1_556 S
Co340 O372 1.920 . S
Co341 O344 1.966 . S
Co341 N350 2.022 . S
Co341 N358 1.993 . S
Co341 O366 1.941 1_556 S
C342 O343 1.258 . S
C342 O344 1.263 . S
O343 Co340 1.970 . S
O343 C342 1.258 . S
O344 Co341 1.966 . S
O344 C342 1.263 . S
C345 O346 1.235 . S
C345 O372 1.289 . S
O346 C345 1.235 . S
C347 C349 1.400 . S
C347 N350 1.351 . S
C347 C352 1.501 . S
C348 C349 1.387 . S
C348 N351 1.341 . S
C349 C347 1.400 . S
C349 C348 1.387 . S
N350 Co341 2.022 . S
N350 C347 1.351 . S
N350 N351 1.365 . S
N351 C348 1.341 . S
N351 N350 1.365 . S
N351 H371 0.862 . S
C352 C347 1.501 . S
C352 H353 0.961 . S
C352 H354 0.961 . S
C352 H355 0.960 . S
H353 C352 0.961 . S
H354 C352 0.961 . S
H355 C352 0.960 . S
C356 N357 1.342 . S
C356 C360 1.401 . S
C356 C361 1.499 . S
N357 Co340 1.989 . S
N357 C356 1.342 . S
N357 N358 1.388 . S
N358 Co341 1.993 . S
N358 N357 1.388 . S
N358 C359 1.346 . S
C359 N358 1.346 . S
C359 C360 1.396 . S
C359 C369 1.510 . S
C360 C356 1.401 . S
C360 C359 1.396 . S
C361 C356 1.499 . S
C361 H362 0.959 . S
C361 H363 0.960 . S
C361 H364 0.961 . S
H362 C361 0.959 . S
H363 C361 0.960 . S
H364 C361 0.961 . S
O365 Co340 1.967 1_554 S
O365 C373 1.258 . S
O366 Co341 1.941 1_554 S
O366 C373 1.266 . S
H367 C369 0.959 . S
H368 C369 0.961 . S
C369 C359 1.510 . S
C369 H367 0.959 . S
C369 H368 0.961 . S
C369 H370 0.960 . S
H370 C369 0.960 . S
H371 N351 0.862 . S
O372 Co340 1.920 . S
O372 C345 1.289 . S
C373 O365 1.258 . S
C373 O366 1.266 . S
Co374 O377 1.970 . S
Co374 N391 1.989 . S
Co374 O399 1.967 . S
Co374 O406 1.920 . S
Co375 O378 1.966 . S
Co375 N384 2.022 . S
Co375 N392 1.993 . S
Co375 O400 1.941 . S
C376 O377 1.258 . S
C376 O378 1.263 . S
O377 Co374 1.970 . S
O377 C376 1.258 . S
O378 Co375 1.966 . S
O378 C376 1.263 . S
C379 O380 1.235 . S
C379 O406 1.289 . S
O380 C379 1.235 . S
C381 C383 1.400 . S
C381 N384 1.351 . S
C381 C386 1.501 . S
C382 C383 1.387 . S
C382 N385 1.341 . S
C383 C381 1.400 . S
C383 C382 1.387 . S
N384 Co375 2.022 . S
N384 C381 1.351 . S
N384 N385 1.365 . S
N385 C382 1.341 . S
N385 N384 1.365 . S
N385 H405 0.862 . S
C386 C381 1.501 . S
C386 H387 0.961 . S
C386 H388 0.961 . S
C386 H389 0.960 . S
H387 C386 0.961 . S
H388 C386 0.961 . S
H389 C386 0.960 . S
C390 N391 1.342 . S
C390 C394 1.401 . S
C390 C395 1.499 . S
N391 Co374 1.989 . S
N391 C390 1.342 . S
N391 N392 1.388 . S
N392 Co375 1.993 . S
N392 N391 1.388 . S
N392 C393 1.346 . S
C393 N392 1.346 . S
C393 C394 1.396 . S
C393 C403 1.510 . S
C394 C390 1.401 . S
C394 C393 1.396 . S
C395 C390 1.499 . S
C395 H396 0.959 . S
C395 H397 0.960 . S
C395 H398 0.961 . S
H396 C395 0.959 . S
H397 C395 0.960 . S
H398 C395 0.961 . S
O399 Co374 1.967 . S
O399 C407 1.258 . S
O400 Co375 1.941 . S
O400 C407 1.266 . S
H401 C403 0.959 . S
H402 C403 0.961 . S
C403 C393 1.510 . S
C403 H401 0.959 . S
C403 H402 0.961 . S
C403 H404 0.960 . S
H404 C403 0.960 . S
H405 N385 0.862 . S
O406 Co374 1.920 . S
O406 C379 1.289 . S
C407 O399 1.258 . S
C407 O400 1.266 . S
Co408 O411 1.970 . S
Co408 N425 1.989 . S
Co408 O433 1.967 1_556 S
Co408 O440 1.920 . S
Co409 O412 1.966 . S
Co409 N418 2.022 . S
Co409 N426 1.993 . S
Co409 O434 1.941 1_556 S
C410 O411 1.258 . S
C410 O412 1.263 . S
O411 Co408 1.970 . S
O411 C410 1.258 . S
O412 Co409 1.966 . S
O412 C410 1.263 . S
C413 O414 1.235 . S
C413 O440 1.289 . S
O414 C413 1.235 . S
C415 C417 1.400 . S
C415 N418 1.351 . S
C415 C420 1.501 . S
C416 C417 1.387 . S
C416 N419 1.341 . S
C417 C415 1.400 . S
C417 C416 1.387 . S
N418 Co409 2.022 . S
N418 C415 1.351 . S
N418 N419 1.365 . S
N419 C416 1.341 . S
N419 N418 1.365 . S
N419 H439 0.862 . S
C420 C415 1.501 . S
C420 H421 0.961 . S
C420 H422 0.961 . S
C420 H423 0.960 . S
H421 C420 0.961 . S
H422 C420 0.961 . S
H423 C420 0.960 . S
C424 N425 1.342 . S
C424 C428 1.401 . S
C424 C429 1.499 . S
N425 Co408 1.989 . S
N425 C424 1.342 . S
N425 N426 1.388 . S
N426 Co409 1.993 . S
N426 N425 1.388 . S
N426 C427 1.346 . S
C427 N426 1.346 . S
C427 C428 1.396 . S
C427 C437 1.510 . S
C428 C424 1.401 . S
C428 C427 1.396 . S
C429 C424 1.499 . S
C429 H430 0.959 . S
C429 H431 0.960 . S
C429 H432 0.961 . S
H430 C429 0.959 . S
H431 C429 0.960 . S
H432 C429 0.961 . S
O433 Co408 1.967 1_554 S
O433 C441 1.258 . S
O434 Co409 1.941 1_554 S
O434 C441 1.266 . S
H435 C437 0.959 . S
H436 C437 0.961 . S
C437 C427 1.510 . S
C437 H435 0.959 . S
C437 H436 0.961 . S
C437 H438 0.960 . S
H438 C437 0.960 . S
H439 N419 0.862 . S
O440 Co408 1.920 . S
O440 C413 1.289 . S
C441 O433 1.258 . S
C441 O434 1.266 . S
Co442 O445 1.970 . S
Co442 N459 1.989 . S
Co442 O467 1.967 . S
Co442 O474 1.920 . S
Co443 O446 1.966 . S
Co443 N452 2.022 . S
Co443 N460 1.993 . S
Co443 O468 1.941 . S
C444 O445 1.258 . S
C444 O446 1.263 . S
O445 Co442 1.970 . S
O445 C444 1.258 . S
O446 Co443 1.966 . S
O446 C444 1.263 . S
C447 O448 1.235 . S
C447 O474 1.289 . S
O448 C447 1.235 . S
C449 C451 1.400 . S
C449 N452 1.351 . S
C449 C454 1.501 . S
C450 C451 1.387 . S
C450 N453 1.341 . S
C451 C449 1.400 . S
C451 C450 1.387 . S
N452 Co443 2.022 . S
N452 C449 1.351 . S
N452 N453 1.365 . S
N453 C450 1.341 . S
N453 N452 1.365 . S
N453 H473 0.862 . S
C454 C449 1.501 . S
C454 H455 0.961 . S
C454 H456 0.961 . S
C454 H457 0.960 . S
H455 C454 0.961 . S
H456 C454 0.961 . S
H457 C454 0.960 . S
C458 N459 1.342 . S
C458 C462 1.401 . S
C458 C463 1.499 . S
N459 Co442 1.989 . S
N459 C458 1.342 . S
N459 N460 1.388 . S
N460 Co443 1.993 . S
N460 N459 1.388 . S
N460 C461 1.346 . S
C461 N460 1.346 . S
C461 C462 1.396 . S
C461 C471 1.510 . S
C462 C458 1.401 . S
C462 C461 1.396 . S
C463 C458 1.499 . S
C463 H464 0.959 . S
C463 H465 0.960 . S
C463 H466 0.961 . S
H464 C463 0.959 . S
H465 C463 0.960 . S
H466 C463 0.961 . S
O467 Co442 1.967 . S
O467 C475 1.258 . S
O468 Co443 1.941 . S
O468 C475 1.266 . S
H469 C471 0.959 . S
H470 C471 0.961 . S
C471 C461 1.510 . S
C471 H469 0.959 . S
C471 H470 0.961 . S
C471 H472 0.960 . S
H472 C471 0.960 . S
H473 N453 0.862 . S
O474 Co442 1.920 . S
O474 C447 1.289 . S
C475 O467 1.258 . S
C475 O468 1.266 . S
Co476 O479 1.970 . S
Co476 N493 1.989 . S
Co476 O501 1.967 1_554 S
Co476 O508 1.920 . S
Co477 O480 1.966 . S
Co477 N486 2.022 . S
Co477 N494 1.993 . S
Co477 O502 1.941 1_554 S
C478 O479 1.258 . S
C478 O480 1.263 . S
O479 Co476 1.970 . S
O479 C478 1.258 . S
O480 Co477 1.966 . S
O480 C478 1.263 . S
C481 O482 1.235 . S
C481 O508 1.289 . S
O482 C481 1.235 . S
C483 C485 1.400 . S
C483 N486 1.351 . S
C483 C488 1.501 . S
C484 C485 1.387 . S
C484 N487 1.341 . S
C485 C483 1.400 . S
C485 C484 1.387 . S
N486 Co477 2.022 . S
N486 C483 1.351 . S
N486 N487 1.365 . S
N487 C484 1.341 . S
N487 N486 1.365 . S
N487 H507 0.862 . S
C488 C483 1.501 . S
C488 H489 0.961 . S
C488 H490 0.961 . S
C488 H491 0.960 . S
H489 C488 0.961 . S
H490 C488 0.961 . S
H491 C488 0.960 . S
C492 N493 1.342 . S
C492 C496 1.401 . S
C492 C497 1.499 . S
N493 Co476 1.989 . S
N493 C492 1.342 . S
N493 N494 1.388 . S
N494 Co477 1.993 . S
N494 N493 1.388 . S
N494 C495 1.346 . S
C495 N494 1.346 . S
C495 C496 1.396 . S
C495 C505 1.510 . S
C496 C492 1.401 . S
C496 C495 1.396 . S
C497 C492 1.499 . S
C497 H498 0.959 . S
C497 H499 0.960 . S
C497 H500 0.961 . S
H498 C497 0.959 . S
H499 C497 0.960 . S
H500 C497 0.961 . S
O501 Co476 1.967 1_556 S
O501 C509 1.258 . S
O502 Co477 1.941 1_556 S
O502 C509 1.266 . S
H503 C505 0.959 . S
H504 C505 0.961 . S
C505 C495 1.510 . S
C505 H503 0.959 . S
C505 H504 0.961 . S
C505 H506 0.960 . S
H506 C505 0.960 . S
H507 N487 0.862 . S
O508 Co476 1.920 . S
O508 C481 1.289 . S
C509 O501 1.258 . S
C509 O502 1.266 . S
Co510 O513 1.970 . S
Co510 N527 1.989 . S
Co510 O535 1.967 . S
Co510 O542 1.920 . S
Co511 O514 1.966 . S
Co511 N520 2.022 . S
Co511 N528 1.993 . S
Co511 O536 1.941 . S
C512 O513 1.258 . S
C512 O514 1.263 . S
O513 Co510 1.970 . S
O513 C512 1.258 . S
O514 Co511 1.966 . S
O514 C512 1.263 . S
C515 O516 1.235 . S
C515 O542 1.289 . S
O516 C515 1.235 . S
C517 C519 1.400 . S
C517 N520 1.351 . S
C517 C522 1.501 . S
C518 C519 1.387 . S
C518 N521 1.341 . S
C519 C517 1.400 . S
C519 C518 1.387 . S
N520 Co511 2.022 . S
N520 C517 1.351 . S
N520 N521 1.365 . S
N521 C518 1.341 . S
N521 N520 1.365 . S
N521 H541 0.862 . S
C522 C517 1.501 . S
C522 H523 0.961 . S
C522 H524 0.961 . S
C522 H525 0.960 . S
H523 C522 0.961 . S
H524 C522 0.961 . S
H525 C522 0.960 . S
C526 N527 1.342 . S
C526 C530 1.401 . S
C526 C531 1.499 . S
N527 Co510 1.989 . S
N527 C526 1.342 . S
N527 N528 1.388 . S
N528 Co511 1.993 . S
N528 N527 1.388 . S
N528 C529 1.346 . S
C529 N528 1.346 . S
C529 C530 1.396 . S
C529 C539 1.510 . S
C530 C526 1.401 . S
C530 C529 1.396 . S
C531 C526 1.499 . S
C531 H532 0.959 . S
C531 H533 0.960 . S
C531 H534 0.961 . S
H532 C531 0.959 . S
H533 C531 0.960 . S
H534 C531 0.961 . S
O535 Co510 1.967 . S
O535 C543 1.258 . S
O536 Co511 1.941 . S
O536 C543 1.266 . S
H537 C539 0.959 . S
H538 C539 0.961 . S
C539 C529 1.510 . S
C539 H537 0.959 . S
C539 H538 0.961 . S
C539 H540 0.960 . S
H540 C539 0.960 . S
H541 N521 0.862 . S
O542 Co510 1.920 . S
O542 C515 1.289 . S
C543 O535 1.258 . S
C543 O536 1.266 . S
C9 C111 1.500 . S
C77 C43 1.500 . S
C247 C145 1.500 . S
C179 C213 1.500 . S
C281 C383 1.500 . S
C315 C349 1.500 . S
C519 C417 1.500 . S
C451 C485 1.500 . S
C209 C5 1.476 1_655 S
C243 C39 1.476 . S
C141 C73 1.476 1_655 S
C175 C107 1.476 . S
C481 C277 1.476 . S
C515 C311 1.476 1_455 S
C413 C345 1.476 . S
C379 C447 1.476 1_655 S
C2 C70 1.612 1_544 S
C36 C104 1.612 1_565 S
C138 C206 1.612 1_566 S
C172 C240 1.612 1_545 S
C274 C342 1.612 1_554 S
C308 C376 1.612 . S
C410 C478 1.612 1_556 S
C444 C512 1.612 . S
C530 C33 1.442 . S
C67 C496 1.442 . S
C101 C462 1.442 . S
C428 C135 1.442 . S
C394 C169 1.442 . S
C203 C360 1.442 . S
C237 C326 1.442 . S
C271 C292 1.442 . S
C305 C258 1.442 . S
C224 C339 1.442 . S
C190 C373 1.442 . S
C407 C156 1.442 . S
C441 C122 1.442 . S
C88 C475 1.442 . S
C54 C509 1.442 . S
C20 C543 1.442 . S
