# Generated by pormake.
# Topology whh, (6)-cn, num edge types: 1
# Building blocks:
#     Node 0, Type 0, BuildingBlock: OJICUG_clean_sbu_0, # of connection points: 6
#     Node 1, Type 0, BuildingBlock: OJICUG_clean_sbu_0, # of connection points: 6
#     Node 2, Type 0, BuildingBlock: OJICUG_clean_sbu_0, # of connection points: 6
#     Node 3, Type 0, BuildingBlock: OJICUG_clean_sbu_0, # of connection points: 6
#     Node 4, Type 0, BuildingBlock: OJICUG_clean_sbu_0, # of connection points: 6
#     Node 5, Type 0, BuildingBlock: OJICUG_clean_sbu_0, # of connection points: 6
#     Node 6, Type 0, BuildingBlock: OJICUG_clean_sbu_0, # of connection points: 6
#     Node 7, Type 0, BuildingBlock: OJICUG_clean_sbu_0, # of connection points: 6
#     Node 8, Type 0, BuildingBlock: OJICUG_clean_sbu_0, # of connection points: 6
#     Node 9, Type 0, BuildingBlock: OJICUG_clean_sbu_0, # of connection points: 6
#     Node 10, Type 0, BuildingBlock: OJICUG_clean_sbu_0, # of connection points: 6
#     Node 11, Type 0, BuildingBlock: OJICUG_clean_sbu_0, # of connection points: 6
#     Node 12, Type 0, BuildingBlock: OJICUG_clean_sbu_0, # of connection points: 6
#     Node 13, Type 0, BuildingBlock: OJICUG_clean_sbu_0, # of connection points: 6
#     Node 14, Type 0, BuildingBlock: OJICUG_clean_sbu_0, # of connection points: 6
#     Node 15, Type 0, BuildingBlock: OJICUG_clean_sbu_0, # of connection points: 6
#     Edge 16, Type (0, 0), None
#     Edge 17, Type (0, 0), None
#     Edge 18, Type (0, 0), None
#     Edge 19, Type (0, 0), None
#     Edge 20, Type (0, 0), None
#     Edge 21, Type (0, 0), None
#     Edge 22, Type (0, 0), None
#     Edge 23, Type (0, 0), None
#     Edge 24, Type (0, 0), None
#     Edge 25, Type (0, 0), None
#     Edge 26, Type (0, 0), None
#     Edge 27, Type (0, 0), None
#     Edge 28, Type (0, 0), None
#     Edge 29, Type (0, 0), None
#     Edge 30, Type (0, 0), None
#     Edge 31, Type (0, 0), None
#     Edge 32, Type (0, 0), None
#     Edge 33, Type (0, 0), None
#     Edge 34, Type (0, 0), None
#     Edge 35, Type (0, 0), None
#     Edge 36, Type (0, 0), None
#     Edge 37, Type (0, 0), None
#     Edge 38, Type (0, 0), None
#     Edge 39, Type (0, 0), None
#     Edge 40, Type (0, 0), None
#     Edge 41, Type (0, 0), None
#     Edge 42, Type (0, 0), None
#     Edge 43, Type (0, 0), None
#     Edge 44, Type (0, 0), None
#     Edge 45, Type (0, 0), None
#     Edge 46, Type (0, 0), None
#     Edge 47, Type (0, 0), None
#     Edge 48, Type (0, 0), None
#     Edge 49, Type (0, 0), None
#     Edge 50, Type (0, 0), None
#     Edge 51, Type (0, 0), None
#     Edge 52, Type (0, 0), None
#     Edge 53, Type (0, 0), None
#     Edge 54, Type (0, 0), None
#     Edge 55, Type (0, 0), None
#     Edge 56, Type (0, 0), None
#     Edge 57, Type (0, 0), None
#     Edge 58, Type (0, 0), None
#     Edge 59, Type (0, 0), None
#     Edge 60, Type (0, 0), None
#     Edge 61, Type (0, 0), None
#     Edge 62, Type (0, 0), None
#     Edge 63, Type (0, 0), None
# Relax obj value: 0.385
# Max RMSD: 0.252
# Mean RMSD: 0.252
data_MOF--net-whh--node1-OJICUG_clean_sbu_0--edge1-none
_symmetry_space_group_name_H-M    P1
_symmetry_Int_Tables_number       1
_symmetry_cell_setting            triclinic
loop_
_symmetry_equiv_pos_as_xyz
'x, y, z'
_cell_length_a     16.711613
_cell_length_b     16.711458
_cell_length_c     23.213261
_cell_angle_alpha  90.002534
_cell_angle_beta   89.998884
_cell_angle_gamma 90.000271
loop_
_atom_site_label
_atom_site_type_symbol
_atom_site_fract_x
_atom_site_fract_y
_atom_site_fract_z
_atom_type_partial_charge
Sc0 Sc 0.05984 0.72448 -0.01502 0.0
Sc1 Sc 0.14101 0.61527 0.09917 0.0
Sc2 Sc 1.00173 0.75547 0.12597 0.0
O3 O 0.06513 0.69669 0.07044 0.0
C4 C 0.96145 0.85077 0.02986 0.0
C5 C 0.23736 0.75269 0.02918 0.0
C6 C 0.16348 0.76553 0.18555 0.0
C7 C 0.06074 0.54964 -0.01808 0.0
C8 C 0.89979 0.66175 0.03082 0.0
C9 C 1.01035 0.58925 0.19418 0.0
O10 O 0.99422 0.83256 -0.01641 0.0
O11 O 0.23599 0.67956 0.04797 0.0
O12 O 0.10953 0.8045 0.15963 0.0
O13 O 0.09766 0.60796 0.95879 0.0
O14 O 0.90539 0.69732 0.08002 0.0
O15 O 0.05817 0.55594 0.15875 0.0
O16 O 0.94526 0.67207 -0.01277 0.0
O17 O 0.07971 0.53407 0.03425 0.0
O18 O 0.99208 0.66273 0.19012 0.0
O19 O 0.17621 0.78167 0.00275 0.0
O20 O 1.00539 0.85325 0.07294 0.0
O21 O 0.17954 0.69243 0.17208 0.0
Sc22 Sc 0.82882 0.05983 -0.01501 0.0
Sc23 Sc 0.93802 0.14102 0.09918 0.0
Sc24 Sc 0.79781 1.00176 0.12598 0.0
O25 O 0.8566 0.06513 0.07044 0.0
C26 C 0.70251 0.96145 0.02986 0.0
C27 C 0.8006 0.23736 0.02918 0.0
C28 C 0.78777 0.16351 0.18555 0.0
C29 C 1.00365 0.06074 -0.01808 0.0
C30 C 0.89141 0.89969 0.03082 0.0
C31 C 0.96404 1.01037 0.19419 0.0
O32 O 0.72073 0.99423 -0.0164 0.0
O33 O 0.87373 0.236 0.04797 0.0
O34 O 0.74879 0.10958 0.15961 0.0
O35 O 0.94532 0.09766 0.9588 0.0
O36 O 0.85594 0.90538 0.08005 0.0
O37 O 0.99735 0.05818 0.15875 0.0
O38 O 0.88122 0.94525 -0.01275 0.0
O39 O 1.01921 0.07972 0.03425 0.0
O40 O 0.89056 0.99212 0.19013 0.0
O41 O 0.77163 0.17621 0.00275 0.0
O42 O 0.70003 1.0054 0.07295 0.0
O43 O 0.86087 0.17956 0.17209 0.0
Sc44 Sc 0.49346 0.82882 -0.01502 0.0
Sc45 Sc 0.41229 0.93802 0.09918 0.0
Sc46 Sc 0.55155 0.7978 0.12597 0.0
O47 O 0.48817 0.8566 0.07044 0.0
C48 C 0.59185 0.70252 0.02984 0.0
C49 C 0.31594 0.80061 0.02918 0.0
C50 C 0.3898 0.78776 0.18554 0.0
C51 C 0.49255 1.00365 -0.01808 0.0
C52 C 0.6536 0.89141 0.03081 0.0
C53 C 0.54294 0.96401 0.19419 0.0
O54 O 0.55907 0.72074 -0.01642 0.0
O55 O 0.3173 0.87373 0.04798 0.0
O56 O 0.44373 0.74877 0.15961 0.0
O57 O 0.45562 0.94533 0.9588 0.0
O58 O 0.64791 0.85593 0.08004 0.0
O59 O 0.49513 0.99734 0.15876 0.0
O60 O 0.60804 0.88123 -0.01275 0.0
O61 O 0.47358 1.01921 0.03425 0.0
O62 O 0.56119 0.89053 0.19013 0.0
O63 O 0.37708 0.77163 0.00275 0.0
O64 O 0.54791 0.70002 0.07292 0.0
O65 O 0.37375 0.86086 0.17209 0.0
Sc66 Sc 0.72445 0.49345 -0.01503 0.0
Sc67 Sc 0.61527 0.41228 0.09918 0.0
Sc68 Sc 0.75548 0.55156 0.12595 0.0
O69 O 0.69668 0.48817 0.07043 0.0
C70 C 0.85084 0.59175 0.02984 0.0
C71 C 0.75268 0.31594 0.02918 0.0
C72 C 0.76553 0.38981 0.18554 0.0
C73 C 0.54963 0.49255 -0.01808 0.0
C74 C 0.6619 0.6536 0.03078 0.0
C75 C 0.58927 0.54297 0.19418 0.0
O76 O 0.83252 0.55909 -0.01645 0.0
O77 O 0.67956 0.3173 0.04796 0.0
O78 O 0.80449 0.44377 0.15963 0.0
O79 O 0.60794 0.45561 0.95879 0.0
O80 O 0.6974 0.64793 0.07999 0.0
O81 O 0.55595 0.49511 0.15877 0.0
O82 O 0.67205 0.60803 -0.01278 0.0
O83 O 0.53407 0.47359 0.03425 0.0
O84 O 0.66274 0.56126 0.19009 0.0
O85 O 0.78166 0.37709 0.00274 0.0
O86 O 0.85326 0.54781 0.07292 0.0
O87 O 0.69243 0.37374 0.17208 0.0
Sc88 Sc 1.00206 0.79775 0.30535 0.0
Sc89 Sc 0.14105 0.9381 0.33229 0.0
Sc90 Sc 0.05978 0.82877 0.44639 0.0
O91 O 0.06521 0.85661 0.36097 0.0
C92 C 0.89986 0.89153 0.40037 0.0
C93 C 1.01057 0.96396 0.2372 0.0
C94 C 0.06072 1.00362 0.44958 0.0
C95 C 0.16382 0.78784 0.24602 0.0
C96 C 0.96139 0.7025 0.40137 0.0
C97 C 0.23737 0.80061 0.4023 0.0
O98 O 0.9056 0.85603 0.35113 0.0
O99 O 0.05809 0.9974 0.27278 0.0
O100 O 0.09758 0.94526 0.4727 0.0
O101 O 0.11015 0.74874 0.27212 0.0
O102 O 0.99414 0.72069 0.44766 0.0
O103 O 0.23602 0.87372 0.38347 0.0
O104 O 1.0054 0.69995 0.35834 0.0
O105 O 0.17961 0.86107 0.25928 0.0
O106 O 0.1762 0.77163 0.42872 0.0
O107 O 0.99265 0.89039 0.24111 0.0
O108 O 0.94522 0.88115 0.44401 0.0
O109 O 0.07975 1.01921 0.39727 0.0
Sc110 Sc 0.72451 0.0598 0.44641 0.0
Sc111 Sc 0.6152 0.14105 0.33229 0.0
Sc112 Sc 0.75555 1.00206 0.30538 0.0
O113 O 0.69667 0.06521 0.36099 0.0
C114 C 0.85086 0.9615 0.40139 0.0
C115 C 0.75268 0.23736 0.40231 0.0
C116 C 0.76544 0.16381 0.24602 0.0
C117 C 0.54966 0.06073 0.44959 0.0
C118 C 0.66179 0.89986 0.4004 0.0
C119 C 0.58934 1.01053 0.23721 0.0
O120 O 0.83256 0.99411 0.44771 0.0
O121 O 0.67956 0.23602 0.38348 0.0
O122 O 0.80454 0.11012 0.2721 0.0
O123 O 0.60801 0.0976 0.4727 0.0
O124 O 0.69732 0.90558 0.35119 0.0
O125 O 0.5559 0.05809 0.27277 0.0
O126 O 0.67212 0.94523 0.44405 0.0
O127 O 0.53407 0.07974 0.39726 0.0
O128 O 0.6629 0.99257 0.24115 0.0
O129 O 0.78165 0.1762 0.42872 0.0
O130 O 0.85334 1.00552 0.35836 0.0
O131 O 0.69222 0.17961 0.25929 0.0
Sc132 Sc 0.55122 0.75556 0.30538 0.0
Sc133 Sc 0.41225 0.61519 0.33228 0.0
Sc134 Sc 0.49349 0.7245 0.44641 0.0
O135 O 0.48808 0.69668 0.36098 0.0
C136 C 0.65343 0.66178 0.40039 0.0
C137 C 0.54275 0.58936 0.2372 0.0
C138 C 0.49256 0.54965 0.44958 0.0
C139 C 0.38948 0.76544 0.24602 0.0
C140 C 0.59181 0.85085 0.4014 0.0
C141 C 0.31593 0.75267 0.4023 0.0
O142 O 0.6477 0.69731 0.35117 0.0
O143 O 0.49521 0.55591 0.27277 0.0
O144 O 0.45568 0.60802 0.4727 0.0
O145 O 0.44315 0.80455 0.27211 0.0
O146 O 0.55918 0.83256 0.44771 0.0
O147 O 0.31727 0.67956 0.38347 0.0
O148 O 0.54781 0.85336 0.35837 0.0
O149 O 0.37369 0.69222 0.25928 0.0
O150 O 0.37709 0.78165 0.42873 0.0
O151 O 0.56068 0.66293 0.24114 0.0
O152 O 0.60805 0.67212 0.44403 0.0
O153 O 0.47355 0.53407 0.39726 0.0
Sc154 Sc 0.79773 0.5512 0.30537 0.0
Sc155 Sc 0.9381 0.41224 0.33228 0.0
Sc156 Sc 0.82879 0.4935 0.4464 0.0
O157 O 0.85662 0.48808 0.36098 0.0
C158 C 0.89138 0.65353 0.4004 0.0
C159 C 0.96394 0.54273 0.2372 0.0
C160 C 1.00363 0.49256 0.44958 0.0
C161 C 0.78785 0.38945 0.24602 0.0
C162 C 0.70243 0.5918 0.40139 0.0
C163 C 0.80062 0.31593 0.4023 0.0
O164 O 0.85594 0.64771 0.35115 0.0
O165 O 0.99739 0.4952 0.27277 0.0
O166 O 0.94527 0.45569 0.4727 0.0
O167 O 0.74875 0.4431 0.27213 0.0
O168 O 0.72073 0.55918 0.44769 0.0
O169 O 0.87373 0.31727 0.38346 0.0
O170 O 0.69992 0.54779 0.35835 0.0
O171 O 0.86108 0.37367 0.25927 0.0
O172 O 0.77164 0.37709 0.42873 0.0
O173 O 0.89037 0.56065 0.24113 0.0
O174 O 0.88117 0.60807 0.44401 0.0
O175 O 1.01922 0.47355 0.39726 0.0
Sc176 Sc 0.05159 0.29779 0.80558 0.0
Sc177 Sc 0.9123 0.438 0.83232 0.0
Sc178 Sc 0.99343 0.32883 0.94654 0.0
O179 O 0.98818 0.35659 0.86108 0.0
C180 C 0.09186 0.20256 0.90172 0.0
C181 C 0.88991 0.28773 0.74595 0.0
C182 C 0.81592 0.3006 0.90231 0.0
C183 C 0.04299 0.46398 0.73732 0.0
C184 C 0.15351 0.39153 0.90073 0.0
C185 C 0.99255 0.50366 0.94957 0.0
O186 O 0.04792 0.20004 0.85863 0.0
O187 O 0.8738 0.36082 0.75941 0.0
O188 O 0.87706 0.27164 0.92875 0.0
O189 O 0.06127 0.3905 0.7414 0.0
O190 O 0.10802 0.38122 0.94431 0.0
O191 O 0.97357 0.51923 0.89724 0.0
O192 O 0.14792 0.35596 0.85153 0.0
O193 O 0.99516 0.4973 0.77274 0.0
O194 O 0.9556 0.44536 -0.02731 0.0
O195 O 0.9438 0.24874 0.77192 0.0
O196 O 0.05903 0.22073 0.94798 0.0
O197 O 0.81729 0.37372 0.88351 0.0
Sc198 Sc 0.22445 0.99344 0.94654 0.0
Sc199 Sc 0.11527 0.91229 0.83231 0.0
Sc200 Sc 0.25549 0.05158 0.80557 0.0
O201 O 0.19668 0.98818 0.86108 0.0
C202 C 0.16188 0.15361 0.90074 0.0
C203 C 0.04962 0.99255 0.94957 0.0
C204 C 0.08929 0.04297 0.73731 0.0
C205 C 0.25267 0.81592 0.90231 0.0
C206 C 0.35072 0.09186 0.90171 0.0
C207 C 0.26554 0.88989 0.74595 0.0
O208 O 0.17205 0.10804 0.94429 0.0
O209 O 0.03405 0.97356 0.89724 0.0
O210 O 0.16277 0.06124 0.74139 0.0
O211 O 0.28163 0.87707 0.92876 0.0
O212 O 0.35324 0.04793 0.85863 0.0
O213 O 0.19245 0.87379 0.7594 0.0
O214 O 0.33254 0.05903 0.94797 0.0
O215 O 0.17956 0.81729 0.88351 0.0
O216 O 0.30453 0.94376 0.77194 0.0
O217 O 0.10793 0.95561 -0.02731 0.0
O218 O 0.19735 0.14793 0.85151 0.0
O219 O 0.05597 0.99515 0.77274 0.0
Sc220 Sc 0.50169 0.25551 0.80558 0.0
Sc221 Sc 0.64097 0.11528 0.83231 0.0
Sc222 Sc 0.55983 0.22445 0.94654 0.0
O223 O 0.56509 0.19669 0.86108 0.0
C224 C 0.4614 0.35072 0.90173 0.0
C225 C 0.66337 0.26555 0.74595 0.0
C226 C 0.73734 0.25268 0.90231 0.0
C227 C 0.51029 0.08932 0.73731 0.0
C228 C 0.39967 0.16188 0.90074 0.0
C229 C 0.56073 0.04962 0.94956 0.0
O230 O 0.50533 0.35326 0.85864 0.0
O231 O 0.67946 0.19246 0.7594 0.0
O232 O 0.6762 0.28164 0.92876 0.0
O233 O 0.49203 0.1628 0.74139 0.0
O234 O 0.44524 0.17205 0.94429 0.0
O235 O 0.5797 0.03406 0.89723 0.0
O236 O 0.40534 0.19736 0.85151 0.0
O237 O 0.5581 0.05599 0.77274 0.0
O238 O 0.59768 0.10793 -0.02731 0.0
O239 O 0.6095 0.30455 0.77194 0.0
O240 O 0.49424 0.33254 0.94798 0.0
O241 O 0.73598 0.17956 0.88351 0.0
Sc242 Sc 0.29777 0.50169 0.80559 0.0
Sc243 Sc 0.438 0.64097 0.83231 0.0
Sc244 Sc 0.32884 0.55985 0.94656 0.0
O245 O 0.3566 0.56509 0.86109 0.0
C246 C 0.20249 0.46151 0.90173 0.0
C247 C 0.28773 0.66337 0.74595 0.0
C248 C 0.3006 0.73734 0.90231 0.0
C249 C 0.46397 0.51027 0.73732 0.0
C250 C 0.39138 0.39967 0.90077 0.0
C251 C 0.50366 0.56074 0.94957 0.0
O252 O 0.20002 0.50544 0.85864 0.0
O253 O 0.36082 0.67948 0.75941 0.0
O254 O 0.27164 0.67621 0.92876 0.0
O255 O 0.3905 0.49197 0.74143 0.0
O256 O 0.38124 0.44526 0.94432 0.0
O257 O 0.51922 0.5797 0.89723 0.0
O258 O 0.35588 0.40533 0.85155 0.0
O259 O 0.49729 0.55812 0.77273 0.0
O260 O 0.44536 0.5977 -0.0273 0.0
O261 O 0.24875 0.60947 0.77192 0.0
O262 O 0.22077 0.49422 0.94801 0.0
O263 O 0.37372 0.73598 0.88352 0.0
Sc264 Sc 0.99348 0.22449 0.48507 0.0
Sc265 Sc 0.91226 0.11521 0.59922 0.0
Sc266 Sc 0.05129 0.25555 0.62608 0.0
O267 O 0.9881 0.19668 0.5705 0.0
C268 C 0.15344 0.16176 0.53105 0.0
C269 C 0.99255 0.04964 0.48193 0.0
C270 C 0.04277 0.08937 0.69429 0.0
C271 C 0.81591 0.25267 0.5292 0.0
C272 C 0.09192 0.35073 0.53002 0.0
C273 C 0.88959 0.26548 0.68547 0.0
O274 O 0.10806 0.17212 0.48742 0.0
O275 O 0.97353 0.03405 0.53425 0.0
O276 O 0.06073 0.16294 0.69035 0.0
O277 O 0.87707 0.28163 0.50277 0.0
O278 O 0.04792 0.35332 0.57307 0.0
O279 O 0.87374 0.19227 0.67222 0.0
O280 O 0.05911 0.33259 0.48375 0.0
O281 O 0.81727 0.17956 0.54804 0.0
O282 O 0.94322 0.30458 0.65934 0.0
O283 O 0.95568 0.10799 0.45881 0.0
O284 O 0.14772 0.19726 0.58029 0.0
O285 O 0.99524 0.05592 0.65873 0.0
Sc286 Sc 0.3288 0.99347 0.48504 0.0
Sc287 Sc 0.43807 0.91226 0.59922 0.0
Sc288 Sc 0.29771 0.05129 0.62606 0.0
O289 O 0.35661 0.98811 0.57048 0.0
C290 C 0.39149 0.15345 0.53102 0.0
C291 C 0.50365 0.99255 0.48193 0.0
C292 C 0.46389 0.04281 0.69428 0.0
C293 C 0.30061 0.81592 0.52919 0.0
C294 C 0.20248 0.0918 0.53001 0.0
C295 C 0.2878 0.8896 0.68547 0.0
O296 O 0.38118 0.10804 0.48739 0.0
O297 O 0.51923 0.97354 0.53425 0.0
O298 O 0.39034 0.06081 0.6903 0.0
O299 O 0.27165 0.87707 0.50276 0.0
O300 O 0.19995 0.0478 0.57305 0.0
O301 O 0.36101 0.87374 0.67221 0.0
O302 O 0.22073 0.05913 0.48371 0.0
O303 O 0.37372 0.81727 0.54803 0.0
O304 O 0.2487 0.94325 0.65935 0.0
O305 O 0.44531 0.95566 0.4588 0.0
O306 O 0.35596 0.14774 0.58024 0.0
O307 O 0.49734 0.99524 0.65874 0.0
Sc308 Sc 0.5598 0.3288 0.48505 0.0
Sc309 Sc 0.64101 0.43807 0.59922 0.0
Sc310 Sc 0.50199 0.29771 0.62606 0.0
O311 O 0.56517 0.3566 0.57049 0.0
C312 C 0.39984 0.39151 0.53103 0.0
C313 C 0.56073 0.50365 0.48193 0.0
C314 C 0.51047 0.46388 0.69429 0.0
C315 C 0.73735 0.30062 0.5292 0.0
C316 C 0.46145 0.20249 0.53 0.0
C317 C 0.66367 0.28781 0.68548 0.0
O318 O 0.44524 0.38119 0.4874 0.0
O319 O 0.57974 0.51923 0.53425 0.0
O320 O 0.4925 0.39033 0.69032 0.0
O321 O 0.6762 0.27165 0.50276 0.0
O322 O 0.50544 0.19994 0.57304 0.0
O323 O 0.67952 0.36102 0.67221 0.0
O324 O 0.49414 0.22073 0.4837 0.0
O325 O 0.736 0.37372 0.54804 0.0
O326 O 0.61004 0.2487 0.65934 0.0
O327 O 0.59762 0.44531 0.45881 0.0
O328 O 0.40554 0.35597 0.58025 0.0
O329 O 0.55803 0.49734 0.65874 0.0
Sc330 Sc 0.22447 0.5598 0.48506 0.0
Sc331 Sc 0.1152 0.64102 0.59922 0.0
Sc332 Sc 0.25557 0.50201 0.62607 0.0
O333 O 0.19666 0.56517 0.57049 0.0
C334 C 0.1619 0.39974 0.53102 0.0
C335 C 0.04963 0.56073 0.48193 0.0
C336 C 0.08939 0.51049 0.69429 0.0
C337 C 0.25266 0.73736 0.5292 0.0
C338 C 0.3508 0.46146 0.53001 0.0
C339 C 0.26547 0.66371 0.68548 0.0
O340 O 0.17209 0.44522 0.48742 0.0
O341 O 0.03405 0.57975 0.53425 0.0
O342 O 0.16295 0.49253 0.69032 0.0
O343 O 0.28162 0.6762 0.50276 0.0
O344 O 0.35334 0.50545 0.57306 0.0
O345 O 0.19225 0.67954 0.67222 0.0
O346 O 0.33254 0.49414 0.48372 0.0
O347 O 0.17956 0.73601 0.54805 0.0
O348 O 0.30458 0.61009 0.65933 0.0
O349 O 0.10798 0.59762 0.45881 0.0
O350 O 0.19735 0.40553 0.58027 0.0
O351 O 0.05593 0.55804 0.65874 0.0
loop_
_geom_bond_atom_site_label_1
_geom_bond_atom_site_label_2
_geom_bond_distance
_geom_bond_site_symmetry_2
_ccdc_geom_bond_type
Sc0 O3 2.025 . S
Sc0 O10 2.105 1_455 S
Sc0 O13 2.105 1_554 S
Sc0 O16 2.105 1_455 S
Sc0 O19 2.105 . S
Sc1 O3 2.025 . S
Sc1 O11 2.105 . S
Sc1 O15 2.105 . S
Sc1 O17 2.105 . S
Sc1 O21 2.105 . S
Sc2 O3 2.025 1_655 S
Sc2 O12 2.105 1_655 S
Sc2 O14 2.105 . S
Sc2 O18 2.105 . S
Sc2 O20 2.105 . S
O3 Sc0 2.025 . S
O3 Sc1 2.025 . S
O3 Sc2 2.025 1_455 S
C4 O10 1.268 . S
C4 O20 1.268 . S
C5 O11 1.268 . S
C5 O19 1.268 . S
C6 O12 1.268 . S
C6 O21 1.268 . S
C7 O13 1.268 1_554 S
C7 O17 1.268 . S
C8 O14 1.268 . S
C8 O16 1.268 . S
C9 O15 1.268 1_655 S
C9 O18 1.268 . S
O10 Sc0 2.105 1_655 S
O10 C4 1.268 . S
O11 Sc1 2.105 . S
O11 C5 1.268 . S
O12 Sc2 2.105 1_455 S
O12 C6 1.268 . S
O13 Sc0 2.105 1_556 S
O13 C7 1.268 1_556 S
O14 Sc2 2.105 . S
O14 C8 1.268 . S
O15 Sc1 2.105 . S
O15 C9 1.268 1_455 S
O16 Sc0 2.105 1_655 S
O16 C8 1.268 . S
O17 Sc1 2.105 . S
O17 C7 1.268 . S
O18 Sc2 2.105 . S
O18 C9 1.268 . S
O19 Sc0 2.105 . S
O19 C5 1.268 . S
O20 Sc2 2.105 . S
O20 C4 1.268 . S
O21 Sc1 2.105 . S
O21 C6 1.268 . S
Sc22 O25 2.025 . S
Sc22 O32 2.105 1_545 S
Sc22 O35 2.105 1_554 S
Sc22 O38 2.105 1_545 S
Sc22 O41 2.105 . S
Sc23 O25 2.025 . S
Sc23 O33 2.105 . S
Sc23 O37 2.105 . S
Sc23 O39 2.105 . S
Sc23 O43 2.105 . S
Sc24 O25 2.025 1_565 S
Sc24 O34 2.105 1_565 S
Sc24 O36 2.105 . S
Sc24 O40 2.105 . S
Sc24 O42 2.105 . S
O25 Sc22 2.025 . S
O25 Sc23 2.025 . S
O25 Sc24 2.025 1_545 S
C26 O32 1.268 . S
C26 O42 1.268 . S
C27 O33 1.268 . S
C27 O41 1.268 . S
C28 O34 1.268 . S
C28 O43 1.268 . S
C29 O35 1.268 1_554 S
C29 O39 1.268 . S
C30 O36 1.268 . S
C30 O38 1.268 . S
C31 O37 1.268 1_565 S
C31 O40 1.268 . S
O32 Sc22 2.105 1_565 S
O32 C26 1.268 . S
O33 Sc23 2.105 . S
O33 C27 1.268 . S
O34 Sc24 2.105 1_545 S
O34 C28 1.268 . S
O35 Sc22 2.105 1_556 S
O35 C29 1.268 1_556 S
O36 Sc24 2.105 . S
O36 C30 1.268 . S
O37 Sc23 2.105 . S
O37 C31 1.268 1_545 S
O38 Sc22 2.105 1_565 S
O38 C30 1.268 . S
O39 Sc23 2.105 . S
O39 C29 1.268 . S
O40 Sc24 2.105 . S
O40 C31 1.268 . S
O41 Sc22 2.105 . S
O41 C27 1.268 . S
O42 Sc24 2.105 . S
O42 C26 1.268 . S
O43 Sc23 2.105 . S
O43 C28 1.268 . S
Sc44 O47 2.025 . S
Sc44 O54 2.105 . S
Sc44 O57 2.105 1_554 S
Sc44 O60 2.105 . S
Sc44 O63 2.105 . S
Sc45 O47 2.025 . S
Sc45 O55 2.105 . S
Sc45 O59 2.105 . S
Sc45 O61 2.105 . S
Sc45 O65 2.105 . S
Sc46 O47 2.025 . S
Sc46 O56 2.105 . S
Sc46 O58 2.105 . S
Sc46 O62 2.105 . S
Sc46 O64 2.105 . S
O47 Sc44 2.025 . S
O47 Sc45 2.025 . S
O47 Sc46 2.025 . S
C48 O54 1.268 . S
C48 O64 1.268 . S
C49 O55 1.268 . S
C49 O63 1.268 . S
C50 O56 1.268 . S
C50 O65 1.268 . S
C51 O57 1.268 1_554 S
C51 O61 1.268 . S
C52 O58 1.268 . S
C52 O60 1.268 . S
C53 O59 1.268 . S
C53 O62 1.268 . S
O54 Sc44 2.105 . S
O54 C48 1.268 . S
O55 Sc45 2.105 . S
O55 C49 1.268 . S
O56 Sc46 2.105 . S
O56 C50 1.268 . S
O57 Sc44 2.105 1_556 S
O57 C51 1.268 1_556 S
O58 Sc46 2.105 . S
O58 C52 1.268 . S
O59 Sc45 2.105 . S
O59 C53 1.268 . S
O60 Sc44 2.105 . S
O60 C52 1.268 . S
O61 Sc45 2.105 . S
O61 C51 1.268 . S
O62 Sc46 2.105 . S
O62 C53 1.268 . S
O63 Sc44 2.105 . S
O63 C49 1.268 . S
O64 Sc46 2.105 . S
O64 C48 1.268 . S
O65 Sc45 2.105 . S
O65 C50 1.268 . S
Sc66 O69 2.025 . S
Sc66 O76 2.105 . S
Sc66 O79 2.105 1_554 S
Sc66 O82 2.105 . S
Sc66 O85 2.105 . S
Sc67 O69 2.025 . S
Sc67 O77 2.105 . S
Sc67 O81 2.105 . S
Sc67 O83 2.105 . S
Sc67 O87 2.105 . S
Sc68 O69 2.025 . S
Sc68 O78 2.105 . S
Sc68 O80 2.105 . S
Sc68 O84 2.105 . S
Sc68 O86 2.105 . S
O69 Sc66 2.025 . S
O69 Sc67 2.025 . S
O69 Sc68 2.025 . S
C70 O76 1.268 . S
C70 O86 1.268 . S
C71 O77 1.268 . S
C71 O85 1.268 . S
C72 O78 1.268 . S
C72 O87 1.268 . S
C73 O79 1.268 1_554 S
C73 O83 1.268 . S
C74 O80 1.268 . S
C74 O82 1.268 . S
C75 O81 1.268 . S
C75 O84 1.268 . S
O76 Sc66 2.105 . S
O76 C70 1.268 . S
O77 Sc67 2.105 . S
O77 C71 1.268 . S
O78 Sc68 2.105 . S
O78 C72 1.268 . S
O79 Sc66 2.105 1_556 S
O79 C73 1.268 1_556 S
O80 Sc68 2.105 . S
O80 C74 1.268 . S
O81 Sc67 2.105 . S
O81 C75 1.268 . S
O82 Sc66 2.105 . S
O82 C74 1.268 . S
O83 Sc67 2.105 . S
O83 C73 1.268 . S
O84 Sc68 2.105 . S
O84 C75 1.268 . S
O85 Sc66 2.105 . S
O85 C71 1.268 . S
O86 Sc68 2.105 . S
O86 C70 1.268 . S
O87 Sc67 2.105 . S
O87 C72 1.268 . S
Sc88 O91 2.025 1_655 S
Sc88 O98 2.105 . S
Sc88 O101 2.105 1_655 S
Sc88 O104 2.105 . S
Sc88 O107 2.105 . S
Sc89 O91 2.025 . S
Sc89 O99 2.105 . S
Sc89 O103 2.105 . S
Sc89 O105 2.105 . S
Sc89 O109 2.105 . S
Sc90 O91 2.025 . S
Sc90 O100 2.105 . S
Sc90 O102 2.105 1_455 S
Sc90 O106 2.105 . S
Sc90 O108 2.105 1_455 S
O91 Sc88 2.025 1_455 S
O91 Sc89 2.025 . S
O91 Sc90 2.025 . S
C92 O98 1.268 . S
C92 O108 1.268 . S
C93 O99 1.268 1_655 S
C93 O107 1.268 . S
C94 O100 1.268 . S
C94 O109 1.268 . S
C95 O101 1.268 . S
C95 O105 1.268 . S
C96 O102 1.268 . S
C96 O104 1.268 . S
C97 O103 1.268 . S
C97 O106 1.268 . S
O98 Sc88 2.105 . S
O98 C92 1.268 . S
O99 Sc89 2.105 . S
O99 C93 1.268 1_455 S
O100 Sc90 2.105 . S
O100 C94 1.268 . S
O101 Sc88 2.105 1_455 S
O101 C95 1.268 . S
O102 Sc90 2.105 1_655 S
O102 C96 1.268 . S
O103 Sc89 2.105 . S
O103 C97 1.268 . S
O104 Sc88 2.105 . S
O104 C96 1.268 . S
O105 Sc89 2.105 . S
O105 C95 1.268 . S
O106 Sc90 2.105 . S
O106 C97 1.268 . S
O107 Sc88 2.105 . S
O107 C93 1.268 . S
O108 Sc90 2.105 1_655 S
O108 C92 1.268 . S
O109 Sc89 2.105 . S
O109 C94 1.268 . S
Sc110 O113 2.025 . S
Sc110 O120 2.105 1_545 S
Sc110 O123 2.105 . S
Sc110 O126 2.105 1_545 S
Sc110 O129 2.105 . S
Sc111 O113 2.025 . S
Sc111 O121 2.105 . S
Sc111 O125 2.105 . S
Sc111 O127 2.105 . S
Sc111 O131 2.105 . S
Sc112 O113 2.025 1_565 S
Sc112 O122 2.105 1_565 S
Sc112 O124 2.105 . S
Sc112 O128 2.105 . S
Sc112 O130 2.105 . S
O113 Sc110 2.025 . S
O113 Sc111 2.025 . S
O113 Sc112 2.025 1_545 S
C114 O120 1.268 . S
C114 O130 1.268 . S
C115 O121 1.268 . S
C115 O129 1.268 . S
C116 O122 1.268 . S
C116 O131 1.268 . S
C117 O123 1.268 . S
C117 O127 1.268 . S
C118 O124 1.268 . S
C118 O126 1.268 . S
C119 O125 1.268 1_565 S
C119 O128 1.268 . S
O120 Sc110 2.105 1_565 S
O120 C114 1.268 . S
O121 Sc111 2.105 . S
O121 C115 1.268 . S
O122 Sc112 2.105 1_545 S
O122 C116 1.268 . S
O123 Sc110 2.105 . S
O123 C117 1.268 . S
O124 Sc112 2.105 . S
O124 C118 1.268 . S
O125 Sc111 2.105 . S
O125 C119 1.268 1_545 S
O126 Sc110 2.105 1_565 S
O126 C118 1.268 . S
O127 Sc111 2.105 . S
O127 C117 1.268 . S
O128 Sc112 2.105 . S
O128 C119 1.268 . S
O129 Sc110 2.105 . S
O129 C115 1.268 . S
O130 Sc112 2.105 . S
O130 C114 1.268 . S
O131 Sc111 2.105 . S
O131 C116 1.268 . S
Sc132 O135 2.025 . S
Sc132 O142 2.105 . S
Sc132 O145 2.105 . S
Sc132 O148 2.105 . S
Sc132 O151 2.105 . S
Sc133 O135 2.025 . S
Sc133 O143 2.105 . S
Sc133 O147 2.105 . S
Sc133 O149 2.105 . S
Sc133 O153 2.105 . S
Sc134 O135 2.025 . S
Sc134 O144 2.105 . S
Sc134 O146 2.105 . S
Sc134 O150 2.105 . S
Sc134 O152 2.105 . S
O135 Sc132 2.025 . S
O135 Sc133 2.025 . S
O135 Sc134 2.025 . S
C136 O142 1.268 . S
C136 O152 1.268 . S
C137 O143 1.268 . S
C137 O151 1.268 . S
C138 O144 1.268 . S
C138 O153 1.268 . S
C139 O145 1.268 . S
C139 O149 1.268 . S
C140 O146 1.268 . S
C140 O148 1.268 . S
C141 O147 1.268 . S
C141 O150 1.268 . S
O142 Sc132 2.105 . S
O142 C136 1.268 . S
O143 Sc133 2.105 . S
O143 C137 1.268 . S
O144 Sc134 2.105 . S
O144 C138 1.268 . S
O145 Sc132 2.105 . S
O145 C139 1.268 . S
O146 Sc134 2.105 . S
O146 C140 1.268 . S
O147 Sc133 2.105 . S
O147 C141 1.268 . S
O148 Sc132 2.105 . S
O148 C140 1.268 . S
O149 Sc133 2.105 . S
O149 C139 1.268 . S
O150 Sc134 2.105 . S
O150 C141 1.268 . S
O151 Sc132 2.105 . S
O151 C137 1.268 . S
O152 Sc134 2.105 . S
O152 C136 1.268 . S
O153 Sc133 2.105 . S
O153 C138 1.268 . S
Sc154 O157 2.025 . S
Sc154 O164 2.105 . S
Sc154 O167 2.105 . S
Sc154 O170 2.105 . S
Sc154 O173 2.105 . S
Sc155 O157 2.025 . S
Sc155 O165 2.105 . S
Sc155 O169 2.105 . S
Sc155 O171 2.105 . S
Sc155 O175 2.105 . S
Sc156 O157 2.025 . S
Sc156 O166 2.105 . S
Sc156 O168 2.105 . S
Sc156 O172 2.105 . S
Sc156 O174 2.105 . S
O157 Sc154 2.025 . S
O157 Sc155 2.025 . S
O157 Sc156 2.025 . S
C158 O164 1.268 . S
C158 O174 1.268 . S
C159 O165 1.268 . S
C159 O173 1.268 . S
C160 O166 1.268 . S
C160 O175 1.268 . S
C161 O167 1.268 . S
C161 O171 1.268 . S
C162 O168 1.268 . S
C162 O170 1.268 . S
C163 O169 1.268 . S
C163 O172 1.268 . S
O164 Sc154 2.105 . S
O164 C158 1.268 . S
O165 Sc155 2.105 . S
O165 C159 1.268 . S
O166 Sc156 2.105 . S
O166 C160 1.268 . S
O167 Sc154 2.105 . S
O167 C161 1.268 . S
O168 Sc156 2.105 . S
O168 C162 1.268 . S
O169 Sc155 2.105 . S
O169 C163 1.268 . S
O170 Sc154 2.105 . S
O170 C162 1.268 . S
O171 Sc155 2.105 . S
O171 C161 1.268 . S
O172 Sc156 2.105 . S
O172 C163 1.268 . S
O173 Sc154 2.105 . S
O173 C159 1.268 . S
O174 Sc156 2.105 . S
O174 C158 1.268 . S
O175 Sc155 2.105 . S
O175 C160 1.268 . S
Sc176 O179 2.025 1_455 S
Sc176 O186 2.105 . S
Sc176 O189 2.105 . S
Sc176 O192 2.105 . S
Sc176 O195 2.105 1_455 S
Sc177 O179 2.025 . S
Sc177 O187 2.105 . S
Sc177 O191 2.105 . S
Sc177 O193 2.105 . S
Sc177 O197 2.105 . S
Sc178 O179 2.025 . S
Sc178 O188 2.105 . S
Sc178 O190 2.105 1_655 S
Sc178 O194 2.105 1_556 S
Sc178 O196 2.105 1_655 S
O179 Sc176 2.025 1_655 S
O179 Sc177 2.025 . S
O179 Sc178 2.025 . S
C180 O186 1.268 . S
C180 O196 1.268 . S
C181 O187 1.268 . S
C181 O195 1.268 . S
C182 O188 1.268 . S
C182 O197 1.268 . S
C183 O189 1.268 . S
C183 O193 1.268 1_455 S
C184 O190 1.268 . S
C184 O192 1.268 . S
C185 O191 1.268 . S
C185 O194 1.268 1_556 S
O186 Sc176 2.105 . S
O186 C180 1.268 . S
O187 Sc177 2.105 . S
O187 C181 1.268 . S
O188 Sc178 2.105 . S
O188 C182 1.268 . S
O189 Sc176 2.105 . S
O189 C183 1.268 . S
O190 Sc178 2.105 1_455 S
O190 C184 1.268 . S
O191 Sc177 2.105 . S
O191 C185 1.268 . S
O192 Sc176 2.105 . S
O192 C184 1.268 . S
O193 Sc177 2.105 . S
O193 C183 1.268 1_655 S
O194 Sc178 2.105 1_554 S
O194 C185 1.268 1_554 S
O195 Sc176 2.105 1_655 S
O195 C181 1.268 . S
O196 Sc178 2.105 1_455 S
O196 C180 1.268 . S
O197 Sc177 2.105 . S
O197 C182 1.268 . S
Sc198 O201 2.025 . S
Sc198 O208 2.105 1_565 S
Sc198 O211 2.105 . S
Sc198 O214 2.105 1_565 S
Sc198 O217 2.105 1_556 S
Sc199 O201 2.025 . S
Sc199 O209 2.105 . S
Sc199 O213 2.105 . S
Sc199 O215 2.105 . S
Sc199 O219 2.105 . S
Sc200 O201 2.025 1_545 S
Sc200 O210 2.105 . S
Sc200 O212 2.105 . S
Sc200 O216 2.105 1_545 S
Sc200 O218 2.105 . S
O201 Sc198 2.025 . S
O201 Sc199 2.025 . S
O201 Sc200 2.025 1_565 S
C202 O208 1.268 . S
C202 O218 1.268 . S
C203 O209 1.268 . S
C203 O217 1.268 1_556 S
C204 O210 1.268 . S
C204 O219 1.268 1_545 S
C205 O211 1.268 . S
C205 O215 1.268 . S
C206 O212 1.268 . S
C206 O214 1.268 . S
C207 O213 1.268 . S
C207 O216 1.268 . S
O208 Sc198 2.105 1_545 S
O208 C202 1.268 . S
O209 Sc199 2.105 . S
O209 C203 1.268 . S
O210 Sc200 2.105 . S
O210 C204 1.268 . S
O211 Sc198 2.105 . S
O211 C205 1.268 . S
O212 Sc200 2.105 . S
O212 C206 1.268 . S
O213 Sc199 2.105 . S
O213 C207 1.268 . S
O214 Sc198 2.105 1_545 S
O214 C206 1.268 . S
O215 Sc199 2.105 . S
O215 C205 1.268 . S
O216 Sc200 2.105 1_565 S
O216 C207 1.268 . S
O217 Sc198 2.105 1_554 S
O217 C203 1.268 1_554 S
O218 Sc200 2.105 . S
O218 C202 1.268 . S
O219 Sc199 2.105 . S
O219 C204 1.268 1_565 S
Sc220 O223 2.025 . S
Sc220 O230 2.105 . S
Sc220 O233 2.105 . S
Sc220 O236 2.105 . S
Sc220 O239 2.105 . S
Sc221 O223 2.025 . S
Sc221 O231 2.105 . S
Sc221 O235 2.105 . S
Sc221 O237 2.105 . S
Sc221 O241 2.105 . S
Sc222 O223 2.025 . S
Sc222 O232 2.105 . S
Sc222 O234 2.105 . S
Sc222 O238 2.105 1_556 S
Sc222 O240 2.105 . S
O223 Sc220 2.025 . S
O223 Sc221 2.025 . S
O223 Sc222 2.025 . S
C224 O230 1.268 . S
C224 O240 1.268 . S
C225 O231 1.268 . S
C225 O239 1.268 . S
C226 O232 1.268 . S
C226 O241 1.268 . S
C227 O233 1.268 . S
C227 O237 1.268 . S
C228 O234 1.268 . S
C228 O236 1.268 . S
C229 O235 1.268 . S
C229 O238 1.268 1_556 S
O230 Sc220 2.105 . S
O230 C224 1.268 . S
O231 Sc221 2.105 . S
O231 C225 1.268 . S
O232 Sc222 2.105 . S
O232 C226 1.268 . S
O233 Sc220 2.105 . S
O233 C227 1.268 . S
O234 Sc222 2.105 . S
O234 C228 1.268 . S
O235 Sc221 2.105 . S
O235 C229 1.268 . S
O236 Sc220 2.105 . S
O236 C228 1.268 . S
O237 Sc221 2.105 . S
O237 C227 1.268 . S
O238 Sc222 2.105 1_554 S
O238 C229 1.268 1_554 S
O239 Sc220 2.105 . S
O239 C225 1.268 . S
O240 Sc222 2.105 . S
O240 C224 1.268 . S
O241 Sc221 2.105 . S
O241 C226 1.268 . S
Sc242 O245 2.025 . S
Sc242 O252 2.105 . S
Sc242 O255 2.105 . S
Sc242 O258 2.105 . S
Sc242 O261 2.105 . S
Sc243 O245 2.025 . S
Sc243 O253 2.105 . S
Sc243 O257 2.105 . S
Sc243 O259 2.105 . S
Sc243 O263 2.105 . S
Sc244 O245 2.025 . S
Sc244 O254 2.105 . S
Sc244 O256 2.105 . S
Sc244 O260 2.105 1_556 S
Sc244 O262 2.105 . S
O245 Sc242 2.025 . S
O245 Sc243 2.025 . S
O245 Sc244 2.025 . S
C246 O252 1.268 . S
C246 O262 1.268 . S
C247 O253 1.268 . S
C247 O261 1.268 . S
C248 O254 1.268 . S
C248 O263 1.268 . S
C249 O255 1.268 . S
C249 O259 1.268 . S
C250 O256 1.268 . S
C250 O258 1.268 . S
C251 O257 1.268 . S
C251 O260 1.268 1_556 S
O252 Sc242 2.105 . S
O252 C246 1.268 . S
O253 Sc243 2.105 . S
O253 C247 1.268 . S
O254 Sc244 2.105 . S
O254 C248 1.268 . S
O255 Sc242 2.105 . S
O255 C249 1.268 . S
O256 Sc244 2.105 . S
O256 C250 1.268 . S
O257 Sc243 2.105 . S
O257 C251 1.268 . S
O258 Sc242 2.105 . S
O258 C250 1.268 . S
O259 Sc243 2.105 . S
O259 C249 1.268 . S
O260 Sc244 2.105 1_554 S
O260 C251 1.268 1_554 S
O261 Sc242 2.105 . S
O261 C247 1.268 . S
O262 Sc244 2.105 . S
O262 C246 1.268 . S
O263 Sc243 2.105 . S
O263 C248 1.268 . S
Sc264 O267 2.025 . S
Sc264 O274 2.105 1_655 S
Sc264 O277 2.105 . S
Sc264 O280 2.105 1_655 S
Sc264 O283 2.105 . S
Sc265 O267 2.025 . S
Sc265 O275 2.105 . S
Sc265 O279 2.105 . S
Sc265 O281 2.105 . S
Sc265 O285 2.105 . S
Sc266 O267 2.025 1_455 S
Sc266 O276 2.105 . S
Sc266 O278 2.105 . S
Sc266 O282 2.105 1_455 S
Sc266 O284 2.105 . S
O267 Sc264 2.025 . S
O267 Sc265 2.025 . S
O267 Sc266 2.025 1_655 S
C268 O274 1.268 . S
C268 O284 1.268 . S
C269 O275 1.268 . S
C269 O283 1.268 . S
C270 O276 1.268 . S
C270 O285 1.268 1_455 S
C271 O277 1.268 . S
C271 O281 1.268 . S
C272 O278 1.268 . S
C272 O280 1.268 . S
C273 O279 1.268 . S
C273 O282 1.268 . S
O274 Sc264 2.105 1_455 S
O274 C268 1.268 . S
O275 Sc265 2.105 . S
O275 C269 1.268 . S
O276 Sc266 2.105 . S
O276 C270 1.268 . S
O277 Sc264 2.105 . S
O277 C271 1.268 . S
O278 Sc266 2.105 . S
O278 C272 1.268 . S
O279 Sc265 2.105 . S
O279 C273 1.268 . S
O280 Sc264 2.105 1_455 S
O280 C272 1.268 . S
O281 Sc265 2.105 . S
O281 C271 1.268 . S
O282 Sc266 2.105 1_655 S
O282 C273 1.268 . S
O283 Sc264 2.105 . S
O283 C269 1.268 . S
O284 Sc266 2.105 . S
O284 C268 1.268 . S
O285 Sc265 2.105 . S
O285 C270 1.268 1_655 S
Sc286 O289 2.025 . S
Sc286 O296 2.105 1_565 S
Sc286 O299 2.105 . S
Sc286 O302 2.105 1_565 S
Sc286 O305 2.105 . S
Sc287 O289 2.025 . S
Sc287 O297 2.105 . S
Sc287 O301 2.105 . S
Sc287 O303 2.105 . S
Sc287 O307 2.105 . S
Sc288 O289 2.025 1_545 S
Sc288 O298 2.105 . S
Sc288 O300 2.105 . S
Sc288 O304 2.105 1_545 S
Sc288 O306 2.105 . S
O289 Sc286 2.025 . S
O289 Sc287 2.025 . S
O289 Sc288 2.025 1_565 S
C290 O296 1.268 . S
C290 O306 1.268 . S
C291 O297 1.268 . S
C291 O305 1.268 . S
C292 O298 1.268 . S
C292 O307 1.268 1_545 S
C293 O299 1.268 . S
C293 O303 1.268 . S
C294 O300 1.268 . S
C294 O302 1.268 . S
C295 O301 1.268 . S
C295 O304 1.268 . S
O296 Sc286 2.105 1_545 S
O296 C290 1.268 . S
O297 Sc287 2.105 . S
O297 C291 1.268 . S
O298 Sc288 2.105 . S
O298 C292 1.268 . S
O299 Sc286 2.105 . S
O299 C293 1.268 . S
O300 Sc288 2.105 . S
O300 C294 1.268 . S
O301 Sc287 2.105 . S
O301 C295 1.268 . S
O302 Sc286 2.105 1_545 S
O302 C294 1.268 . S
O303 Sc287 2.105 . S
O303 C293 1.268 . S
O304 Sc288 2.105 1_565 S
O304 C295 1.268 . S
O305 Sc286 2.105 . S
O305 C291 1.268 . S
O306 Sc288 2.105 . S
O306 C290 1.268 . S
O307 Sc287 2.105 . S
O307 C292 1.268 1_565 S
Sc308 O311 2.025 . S
Sc308 O318 2.105 . S
Sc308 O321 2.105 . S
Sc308 O324 2.105 . S
Sc308 O327 2.105 . S
Sc309 O311 2.025 . S
Sc309 O319 2.105 . S
Sc309 O323 2.105 . S
Sc309 O325 2.105 . S
Sc309 O329 2.105 . S
Sc310 O311 2.025 . S
Sc310 O320 2.105 . S
Sc310 O322 2.105 . S
Sc310 O326 2.105 . S
Sc310 O328 2.105 . S
O311 Sc308 2.025 . S
O311 Sc309 2.025 . S
O311 Sc310 2.025 . S
C312 O318 1.268 . S
C312 O328 1.268 . S
C313 O319 1.268 . S
C313 O327 1.268 . S
C314 O320 1.268 . S
C314 O329 1.268 . S
C315 O321 1.268 . S
C315 O325 1.268 . S
C316 O322 1.268 . S
C316 O324 1.268 . S
C317 O323 1.268 . S
C317 O326 1.268 . S
O318 Sc308 2.105 . S
O318 C312 1.268 . S
O319 Sc309 2.105 . S
O319 C313 1.268 . S
O320 Sc310 2.105 . S
O320 C314 1.268 . S
O321 Sc308 2.105 . S
O321 C315 1.268 . S
O322 Sc310 2.105 . S
O322 C316 1.268 . S
O323 Sc309 2.105 . S
O323 C317 1.268 . S
O324 Sc308 2.105 . S
O324 C316 1.268 . S
O325 Sc309 2.105 . S
O325 C315 1.268 . S
O326 Sc310 2.105 . S
O326 C317 1.268 . S
O327 Sc308 2.105 . S
O327 C313 1.268 . S
O328 Sc310 2.105 . S
O328 C312 1.268 . S
O329 Sc309 2.105 . S
O329 C314 1.268 . S
Sc330 O333 2.025 . S
Sc330 O340 2.105 . S
Sc330 O343 2.105 . S
Sc330 O346 2.105 . S
Sc330 O349 2.105 . S
Sc331 O333 2.025 . S
Sc331 O341 2.105 . S
Sc331 O345 2.105 . S
Sc331 O347 2.105 . S
Sc331 O351 2.105 . S
Sc332 O333 2.025 . S
Sc332 O342 2.105 . S
Sc332 O344 2.105 . S
Sc332 O348 2.105 . S
Sc332 O350 2.105 . S
O333 Sc330 2.025 . S
O333 Sc331 2.025 . S
O333 Sc332 2.025 . S
C334 O340 1.268 . S
C334 O350 1.268 . S
C335 O341 1.268 . S
C335 O349 1.268 . S
C336 O342 1.268 . S
C336 O351 1.268 . S
C337 O343 1.268 . S
C337 O347 1.268 . S
C338 O344 1.268 . S
C338 O346 1.268 . S
C339 O345 1.268 . S
C339 O348 1.268 . S
O340 Sc330 2.105 . S
O340 C334 1.268 . S
O341 Sc331 2.105 . S
O341 C335 1.268 . S
O342 Sc332 2.105 . S
O342 C336 1.268 . S
O343 Sc330 2.105 . S
O343 C337 1.268 . S
O344 Sc332 2.105 . S
O344 C338 1.268 . S
O345 Sc331 2.105 . S
O345 C339 1.268 . S
O346 Sc330 2.105 . S
O346 C338 1.268 . S
O347 Sc331 2.105 . S
O347 C337 1.268 . S
O348 Sc332 2.105 . S
O348 C339 1.268 . S
O349 Sc330 2.105 . S
O349 C335 1.268 . S
O350 Sc332 2.105 . S
O350 C334 1.268 . S
O351 Sc331 2.105 . S
O351 C336 1.268 . S
C70 C8 1.720 . S
C4 C30 1.721 . S
C52 C26 1.720 . S
C48 C74 1.720 . S
C92 C114 1.721 . S
C118 C140 1.720 . S
C136 C162 1.720 . S
C96 C158 1.720 . S
C184 C246 1.720 . S
C180 C202 1.721 . S
C206 C228 1.720 . S
C224 C250 1.720 . S
C268 C294 1.721 . S
C316 C290 1.720 . S
C338 C312 1.720 . S
C334 C272 1.720 . S
C6 C95 0.738 . S
C116 C28 0.738 . S
C50 C139 0.738 . S
C72 C161 0.738 . S
C273 C181 0.738 . S
C295 C207 0.738 . S
C225 C317 0.738 . S
C339 C247 0.738 . S
C5 C49 2.295 . S
C27 C71 2.295 . S
C141 C97 2.295 . S
C163 C115 2.295 . S
C226 C182 2.295 . S
C248 C205 2.295 . S
C271 C315 2.295 . S
C293 C337 2.295 . S
C185 C7 3.679 1_656 S
C203 C29 3.679 1_466 S
C229 C51 3.679 1_546 S
C73 C251 3.679 1_554 S
C269 C94 3.679 1_645 S
C291 C117 3.679 1_565 S
C313 C138 3.679 . S
C335 C160 3.679 1_455 S
C159 C9 1.342 . S
C93 C31 1.342 . S
C119 C53 1.342 . S
C137 C75 1.342 . S
C336 C183 1.342 . S
C270 C204 1.342 . S
C292 C227 1.342 . S
C249 C314 1.342 . S
