# Generated by pormake.
# Topology wje, (4)-cn, num edge types: 1
# Building blocks:
#     Node 0, Type 0, BuildingBlock: KUFVIS_clean_sbu_0, # of connection points: 4
#     Node 1, Type 0, BuildingBlock: KUFVIS_clean_sbu_0, # of connection points: 4
#     Node 2, Type 0, BuildingBlock: KUFVIS_clean_sbu_0, # of connection points: 4
#     Node 3, Type 0, BuildingBlock: KUFVIS_clean_sbu_0, # of connection points: 4
#     Node 4, Type 0, BuildingBlock: KUFVIS_clean_sbu_0, # of connection points: 4
#     Node 5, Type 0, BuildingBlock: KUFVIS_clean_sbu_0, # of connection points: 4
#     Node 6, Type 0, BuildingBlock: KUFVIS_clean_sbu_0, # of connection points: 4
#     Node 7, Type 0, BuildingBlock: KUFVIS_clean_sbu_0, # of connection points: 4
#     Node 8, Type 0, BuildingBlock: KUFVIS_clean_sbu_0, # of connection points: 4
#     Node 9, Type 0, BuildingBlock: KUFVIS_clean_sbu_0, # of connection points: 4
#     Node 10, Type 0, BuildingBlock: KUFVIS_clean_sbu_0, # of connection points: 4
#     Node 11, Type 0, BuildingBlock: KUFVIS_clean_sbu_0, # of connection points: 4
#     Edge 12, Type (0, 0), None
#     Edge 13, Type (0, 0), None
#     Edge 14, Type (0, 0), None
#     Edge 15, Type (0, 0), None
#     Edge 16, Type (0, 0), None
#     Edge 17, Type (0, 0), None
#     Edge 18, Type (0, 0), None
#     Edge 19, Type (0, 0), None
#     Edge 20, Type (0, 0), None
#     Edge 21, Type (0, 0), None
#     Edge 22, Type (0, 0), None
#     Edge 23, Type (0, 0), None
#     Edge 24, Type (0, 0), None
#     Edge 25, Type (0, 0), None
#     Edge 26, Type (0, 0), None
#     Edge 27, Type (0, 0), None
#     Edge 28, Type (0, 0), None
#     Edge 29, Type (0, 0), None
#     Edge 30, Type (0, 0), None
#     Edge 31, Type (0, 0), None
#     Edge 32, Type (0, 0), None
#     Edge 33, Type (0, 0), None
#     Edge 34, Type (0, 0), None
#     Edge 35, Type (0, 0), None
# Relax obj value: 0.141
# Max RMSD: 0.104
# Mean RMSD: 0.104
data_MOF--net-wje--node1-KUFVIS_clean_sbu_0--edge1-none
_symmetry_space_group_name_H-M    P1
_symmetry_Int_Tables_number       1
_symmetry_cell_setting            triclinic
loop_
_symmetry_equiv_pos_as_xyz
'x, y, z'
_cell_length_a     17.305247
_cell_length_b     17.302814
_cell_length_c     19.098263
_cell_angle_alpha  90.000902
_cell_angle_beta   89.999527
_cell_angle_gamma 119.98453
loop_
_atom_site_label
_atom_site_type_symbol
_atom_site_fract_x
_atom_site_fract_y
_atom_site_fract_z
_atom_type_partial_charge
Mn0 Mn 0.34369 0.04471 0.31401 0.0
Mn1 Mn 0.27344 0.91798 0.17188 0.0
C2 C 0.18846 0.90798 0.30936 0.0
C3 C 0.3257 0.00806 0.43995 0.0
C4 C 0.30811 0.11516 0.16825 0.0
O5 O 0.45703 0.06362 0.26112 0.0
O6 O 0.40096 0.95406 0.18231 0.0
C7 C 0.30713 0.77692 0.21849 0.0
N8 N 0.24601 0.79919 0.19608 0.0
C9 C 0.30158 0.81519 0.07873 0.0
C10 C 0.35929 0.78559 0.10066 0.0
C11 C 0.36555 0.77126 0.17155 0.0
C12 C 0.24623 0.82361 0.12896 0.0
H13 H 0.31766 0.7732 0.27329 0.0
C14 C 0.46323 0.00628 0.22237 0.0
O15 O 0.27262 0.0258 0.40519 0.0
O16 O 0.37908 0.99661 0.40074 0.0
N17 N 0.15142 0.88017 0.16203 0.0
C18 C 0.11551 0.93291 0.14918 0.0
C19 C 0.10704 0.95381 0.08047 0.0
C20 C 0.14432 0.92757 0.02737 0.0
C21 C 0.20068 0.89445 0.04336 0.0
C22 C 0.20012 0.86708 0.1123 0.0
H23 H 0.08407 0.94887 0.19105 0.0
O24 O 0.20689 0.97594 0.3471 0.0
O25 O 0.25829 0.92496 0.27355 0.0
O26 O 0.31114 0.11689 0.23596 0.0
O27 O 0.30454 0.04647 0.13855 0.0
C28 C 0.25777 0.88935 -0.00605 0.0
C29 C 0.30791 0.84964 0.0115 0.0
H30 H 0.40423 0.78058 0.06447 0.0
H31 H 0.41785 0.75996 0.19055 0.0
H32 H 0.06866 0.98573 0.06808 0.0
H33 H 0.12485 0.9283 0.97426 0.0
H34 H 0.26677 0.91942 0.94302 0.0
H35 H 0.35528 0.85112 0.97425 0.0
Mn36 Mn 0.30195 0.34228 0.64733 0.0
Mn37 Mn 0.35838 0.27195 0.5052 0.0
C38 C 0.28343 0.187 0.64269 0.0
C39 C 0.32058 0.32428 0.77327 0.0
C40 C 0.1959 0.30668 0.50159 0.0
O41 O 0.39639 0.45562 0.59443 0.0
O42 O 0.44982 0.39948 0.51561 0.0
C43 C 0.53307 0.30555 0.55177 0.0
N44 N 0.4497 0.24446 0.52938 0.0
C45 C 0.48922 0.3 0.41202 0.0
C46 C 0.57654 0.35765 0.43392 0.0
C47 C 0.59714 0.36392 0.50481 0.0
C48 C 0.42548 0.24469 0.46226 0.0
H49 H 0.54735 0.3161 0.60656 0.0
C50 C 0.45991 0.46178 0.55568 0.0
O51 O 0.24978 0.27121 0.73851 0.0
O52 O 0.3854 0.37764 0.73407 0.0
N53 N 0.27415 0.14993 0.49537 0.0
C54 C 0.18553 0.11406 0.48253 0.0
C55 C 0.15616 0.1056 0.41383 0.0
C56 C 0.21965 0.14285 0.36071 0.0
C57 C 0.3091 0.1992 0.37669 0.0
C58 C 0.33592 0.19863 0.44563 0.0
H59 H 0.13816 0.08264 0.52441 0.0
O60 O 0.23393 0.20547 0.68042 0.0
O61 O 0.33628 0.25683 0.60687 0.0
O62 O 0.19724 0.30975 0.5693 0.0
O63 O 0.26101 0.30311 0.47188 0.0
C64 C 0.37127 0.25628 0.32728 0.0
C65 C 0.4611 0.30637 0.3448 0.0
H66 H 0.62647 0.40254 0.39771 0.0
H67 H 0.66074 0.41619 0.52379 0.0
H68 H 0.08587 0.06723 0.40144 0.0
H69 H 0.19945 0.12336 0.30761 0.0
H70 H 0.35018 0.2653 0.27635 0.0
H71 H 0.50697 0.35372 0.30754 0.0
Mn72 Mn 0.96264 0.30047 -0.01934 0.0
Mn73 Mn 0.08936 0.35688 0.83853 0.0
C74 C 0.0994 0.28195 0.97602 0.0
C75 C 0.99926 0.3191 0.1066 0.0
C76 C 0.89219 0.19445 0.83492 0.0
O77 O 0.94373 0.39491 0.92775 0.0
O78 O 0.0533 0.44836 0.84896 0.0
C79 C 0.23043 0.53156 0.88516 0.0
N80 N 0.20814 0.44817 0.86274 0.0
C81 C 0.19213 0.48778 0.7454 0.0
C82 C 0.2218 0.5751 0.76734 0.0
C83 C 0.23616 0.59568 0.83823 0.0
C84 C 0.1837 0.42399 0.79562 0.0
H85 H 0.23416 0.5458 0.93996 0.0
C86 C 1.0011 0.45845 0.88903 0.0
O87 O 0.98155 0.24829 0.07184 0.0
O88 O 0.01071 0.38394 0.0674 0.0
N89 N 0.12714 0.27262 0.82868 0.0
C90 C 0.07441 0.184 0.8158 0.0
C91 C 0.05353 0.15467 0.74709 0.0
C92 C 0.07977 0.2182 0.694 0.0
C93 C 0.11284 0.30765 0.71001 0.0
C94 C 0.1402 0.33443 0.77896 0.0
H95 H 0.05844 0.1366 0.85767 0.0
O96 O 0.03145 0.23244 0.01375 0.0
O97 O 0.08238 0.33478 0.9402 0.0
O98 O 0.89048 0.19576 0.90262 0.0
O99 O 0.96086 0.25955 0.80521 0.0
C100 C 0.11793 0.36986 0.66062 0.0
C101 C 0.15766 0.4597 0.67818 0.0
H102 H 0.22684 0.62508 0.73115 0.0
H103 H 0.24752 0.6593 0.85723 0.0
H104 H 0.02162 0.08437 0.73468 0.0
H105 H 0.07905 0.19802 0.64088 0.0
H106 H 0.08785 0.34881 0.60969 0.0
H107 H 0.15618 0.5056 0.64093 0.0
Mn108 Mn 0.66515 0.9612 0.31401 0.0
Mn109 Mn 0.7354 0.08793 0.17188 0.0
C110 C 0.82039 0.09793 0.30936 0.0
C111 C 0.68314 0.99785 0.43995 0.0
C112 C 0.70073 0.89075 0.16825 0.0
O113 O 0.55181 0.94229 0.26112 0.0
O114 O 0.60788 0.05184 0.18231 0.0
C115 C 0.70171 0.22898 0.2185 0.0
N116 N 0.76282 0.20672 0.19608 0.0
C117 C 0.70726 0.19072 0.07873 0.0
C118 C 0.64954 0.22032 0.10067 0.0
C119 C 0.64328 0.23464 0.17156 0.0
C120 C 0.76261 0.1823 0.12896 0.0
H121 H 0.69117 0.2327 0.2733 0.0
C122 C 0.54561 0.99963 0.22237 0.0
O123 O 0.73623 0.98011 0.40519 0.0
O124 O 0.62977 0.00931 0.40074 0.0
N125 N 0.85742 0.12574 0.16203 0.0
C126 C 0.89333 0.073 0.14918 0.0
C127 C 0.9018 0.0521 0.08047 0.0
C128 C 0.86452 0.07835 0.02736 0.0
C129 C 0.80816 0.11146 0.04336 0.0
C130 C 0.80872 0.13883 0.1123 0.0
H131 H 0.92477 0.05704 0.19105 0.0
O132 O 0.80195 0.02997 0.3471 0.0
O133 O 0.75055 0.08095 0.27355 0.0
O134 O 0.69769 0.88902 0.23596 0.0
O135 O 0.7043 0.95944 0.13855 0.0
C136 C 0.75107 0.11656 -0.00605 0.0
C137 C 0.70093 0.15627 0.0115 0.0
H138 H 0.6046 0.22532 0.06447 0.0
H139 H 0.59099 0.24595 0.19055 0.0
H140 H 0.94019 0.02018 0.06808 0.0
H141 H 0.88399 0.07761 0.97426 0.0
H142 H 0.74207 0.08649 0.94302 0.0
H143 H 0.65356 0.15478 0.97425 0.0
Mn144 Mn 0.70689 0.66363 0.64732 0.0
Mn145 Mn 0.65047 0.73396 0.5052 0.0
C146 C 0.72542 0.81891 0.64269 0.0
C147 C 0.68827 0.68163 0.77327 0.0
C148 C 0.81294 0.69923 0.50159 0.0
O149 O 0.61245 0.5503 0.59443 0.0
O150 O 0.55902 0.60643 0.51561 0.0
C151 C 0.47577 0.70036 0.55177 0.0
N152 N 0.55915 0.76145 0.52938 0.0
C153 C 0.51962 0.70591 0.41202 0.0
C154 C 0.4323 0.64826 0.43393 0.0
C155 C 0.4117 0.64199 0.50481 0.0
C156 C 0.58336 0.76122 0.46227 0.0
H157 H 0.4615 0.68981 0.60657 0.0
C158 C 0.54893 0.54413 0.55568 0.0
O159 O 0.75906 0.7347 0.73851 0.0
O160 O 0.62344 0.62827 0.73406 0.0
N161 N 0.73469 0.85598 0.49537 0.0
C162 C 0.82331 0.89185 0.48252 0.0
C163 C 0.85268 0.90031 0.41382 0.0
C164 C 0.78919 0.86306 0.36071 0.0
C165 C 0.69974 0.80671 0.37669 0.0
C166 C 0.67292 0.80728 0.44563 0.0
H167 H 0.87068 0.92327 0.5244 0.0
O168 O 0.77492 0.80044 0.68042 0.0
O169 O 0.67257 0.74908 0.60687 0.0
O170 O 0.81161 0.69616 0.56929 0.0
O171 O 0.74783 0.7028 0.47188 0.0
C172 C 0.63757 0.74963 0.32727 0.0
C173 C 0.54773 0.69954 0.3448 0.0
H174 H 0.38236 0.60337 0.39772 0.0
H175 H 0.3481 0.58972 0.52379 0.0
H176 H 0.92297 0.93868 0.40144 0.0
H177 H 0.80939 0.88254 0.30761 0.0
H178 H 0.65865 0.74061 0.27635 0.0
H179 H 0.50187 0.65219 0.30754 0.0
Mn180 Mn 0.04621 0.70545 -0.01934 0.0
Mn181 Mn 0.91949 0.64903 0.83853 0.0
C182 C 0.90945 0.72396 0.97602 0.0
C183 C 0.00959 0.68682 0.1066 0.0
C184 C 0.11665 0.81147 0.83491 0.0
O185 O 0.06511 0.61101 0.92775 0.0
O186 O 0.95555 0.55755 0.84896 0.0
C187 C 0.77841 0.47436 0.88516 0.0
N188 N 0.80071 0.55774 0.86274 0.0
C189 C 0.8167 0.51813 0.7454 0.0
C190 C 0.78703 0.4308 0.76734 0.0
C191 C 0.77268 0.41023 0.83823 0.0
C192 C 0.82514 0.58192 0.79562 0.0
H193 H 0.7747 0.46012 0.93997 0.0
C194 C 0.00775 0.54747 0.88903 0.0
O195 O 0.0273 0.75762 0.07184 0.0
O196 O 0.99814 0.62198 0.06739 0.0
N197 N 0.88171 0.73329 0.82868 0.0
C198 C 0.93444 0.82191 0.8158 0.0
C199 C 0.95531 0.85124 0.74709 0.0
C200 C 0.92907 0.78771 0.69399 0.0
C201 C 0.896 0.69826 0.71001 0.0
C202 C 0.86864 0.67148 0.77896 0.0
H203 H 0.95041 0.86932 0.85766 0.0
O204 O 0.9774 0.77348 0.01375 0.0
O205 O 0.92647 0.67113 0.9402 0.0
O206 O 0.11837 0.81016 0.90262 0.0
O207 O 0.04799 0.74636 0.80521 0.0
C208 C 0.89091 0.63604 0.66062 0.0
C209 C 0.85117 0.5462 0.67818 0.0
H210 H 0.78199 0.38083 0.73115 0.0
H211 H 0.76132 0.34661 0.85723 0.0
H212 H 0.98722 0.92153 0.73467 0.0
H213 H 0.92979 0.80788 0.64088 0.0
H214 H 0.92098 0.65709 0.60968 0.0
H215 H 0.85265 0.50029 0.64093 0.0
Mn216 Mn 0.96265 0.66368 0.31014 0.0
Mn217 Mn 0.08938 0.73395 0.45226 0.0
C218 C 0.0994 0.81891 0.31475 0.0
C219 C 0.99929 0.68167 0.1842 0.0
C220 C 0.8922 0.69926 0.45589 0.0
O221 O 0.94375 0.55034 0.36304 0.0
O222 O 0.05331 0.60642 0.44183 0.0
C223 C 0.23043 0.7003 0.40562 0.0
N224 N 0.20815 0.7614 0.42805 0.0
C225 C 0.19214 0.70579 0.54539 0.0
C226 C 0.22178 0.6481 0.52344 0.0
C227 C 0.23612 0.64187 0.45255 0.0
C228 C 0.18372 0.76115 0.49517 0.0
H229 H 0.23416 0.68978 0.35082 0.0
C230 C 1.0011 0.54414 0.40177 0.0
O231 O 0.98155 0.73476 0.21895 0.0
O232 O 0.01073 0.62828 0.2234 0.0
N233 N 0.12716 0.85599 0.46211 0.0
C234 C 0.07442 0.89189 0.47498 0.0
C235 C 0.05355 0.90036 0.54369 0.0
C236 C 0.07979 0.86306 0.59679 0.0
C237 C 0.11287 0.80668 0.58078 0.0
C238 C 0.14023 0.80725 0.51183 0.0
H239 H 0.05846 0.92334 0.43312 0.0
O240 O 0.03143 0.8005 0.27705 0.0
O241 O 0.08239 0.74908 0.35059 0.0
O242 O 0.89048 0.69624 0.38818 0.0
O243 O 0.96088 0.70282 0.48559 0.0
C244 C 0.11798 0.74956 0.63018 0.0
C245 C 0.15769 0.69943 0.61261 0.0
H246 H 0.2268 0.60315 0.55962 0.0
H247 H 0.24746 0.58959 0.43354 0.0
H248 H 0.02164 0.93875 0.5561 0.0
H249 H 0.07906 0.88252 0.6499 0.0
H250 H 0.08791 0.74056 0.68111 0.0
H251 H 0.15621 0.65205 0.64986 0.0
Mn252 Mn 0.30194 0.96114 0.64349 0.0
Mn253 Mn 0.35833 0.08789 0.78561 0.0
C254 C 0.28344 0.09792 0.64809 0.0
C255 C 0.32056 0.99776 0.51754 0.0
C256 C 0.1959 0.8907 0.78922 0.0
O257 O 0.39638 0.94225 0.6964 0.0
O258 O 0.44981 0.05183 0.77519 0.0
C259 C 0.53299 0.229 0.73901 0.0
N260 N 0.44961 0.20669 0.76141 0.0
C261 C 0.48918 0.19067 0.87876 0.0
C262 C 0.5765 0.22037 0.85684 0.0
C263 C 0.5971 0.23473 0.78595 0.0
C264 C 0.42541 0.18223 0.82853 0.0
H265 H 0.54725 0.23273 0.68421 0.0
C266 C 0.45991 0.99962 0.73512 0.0
O267 O 0.24976 0.98003 0.5523 0.0
O268 O 0.38539 0.00921 0.55675 0.0
N269 N 0.27407 0.12566 0.79544 0.0
C270 C 0.18546 0.07292 0.80831 0.0
C271 C 0.15611 0.05203 0.87701 0.0
C272 C 0.21962 0.07826 0.93012 0.0
C273 C 0.30907 0.11134 0.91411 0.0
C274 C 0.33586 0.13871 0.84516 0.0
H275 H 0.13807 0.05696 0.76644 0.0
O276 O 0.2339 0.02994 0.61039 0.0
O277 O 0.33625 0.08091 0.68394 0.0
O278 O 0.19722 0.88897 0.72151 0.0
O279 O 0.261 0.95937 0.81893 0.0
C280 C 0.37126 0.11642 0.96351 0.0
C281 C 0.46109 0.15618 0.94597 0.0
H282 H 0.62647 0.22543 0.89304 0.0
H283 H 0.66071 0.24609 0.76696 0.0
H284 H 0.08583 0.02012 0.88942 0.0
H285 H 0.19944 0.07755 -0.01678 0.0
H286 H 0.35019 0.08633 0.01444 0.0
H287 H 0.50698 0.1547 -0.01677 0.0
Mn288 Mn 0.34373 0.30047 0.97681 0.0
Mn289 Mn 0.27343 0.35693 0.11893 0.0
C290 C 0.18849 0.28199 -0.01858 0.0
C291 C 0.32573 0.31912 0.85087 0.0
C292 C 0.30813 0.19443 0.12255 0.0
O293 O 0.45706 0.39491 0.0297 0.0
O294 O 0.40095 0.44837 0.10852 0.0
C295 C 0.30707 0.53166 0.07235 0.0
N296 N 0.24597 0.44828 0.09474 0.0
C297 C 0.3015 0.4878 0.2121 0.0
C298 C 0.35918 0.57512 0.19019 0.0
C299 C 0.36546 0.59572 0.1193 0.0
C300 C 0.24619 0.42406 0.16186 0.0
H301 H 0.31761 0.54594 0.01755 0.0
C302 C 0.46324 0.45844 0.06845 0.0
O303 O 0.27267 0.24831 0.88562 0.0
O304 O 0.3791 0.38394 0.89007 0.0
N305 N 0.15141 0.27272 0.12875 0.0
C306 C 0.11553 0.18408 0.14159 0.0
C307 C 0.10706 0.1547 0.21029 0.0
C308 C 0.14432 0.2182 0.26341 0.0
C309 C 0.20067 0.30766 0.24743 0.0
C310 C 0.2001 0.33449 0.17849 0.0
H311 H 0.0841 0.1367 0.09971 0.0
O312 O 0.20694 0.23245 0.94371 0.0
O313 O 0.2583 0.33482 0.01726 0.0
O314 O 0.31119 0.19575 0.05484 0.0
O315 O 0.30456 0.25954 0.15225 0.0
C316 C 0.25774 0.36983 0.29685 0.0
C317 C 0.30785 0.45968 0.27932 0.0
H318 H 0.40409 0.62505 0.2264 0.0
H319 H 0.41775 0.65931 0.10032 0.0
H320 H 0.06869 0.0844 0.22267 0.0
H321 H 0.12483 0.19799 0.31651 0.0
H322 H 0.26674 0.34874 0.34778 0.0
H323 H 0.3552 0.50554 0.31659 0.0
Mn324 Mn 0.04619 0.34222 0.31014 0.0
Mn325 Mn 0.91947 0.27196 0.45226 0.0
C326 C 0.90944 0.187 0.31475 0.0
C327 C 0.00955 0.32424 0.1842 0.0
C328 C 0.11664 0.30665 0.45589 0.0
O329 O 0.0651 0.45557 0.36304 0.0
O330 O 0.95553 0.39949 0.44183 0.0
C331 C 0.77841 0.30561 0.40562 0.0
N332 N 0.80069 0.24451 0.42804 0.0
C333 C 0.81669 0.30011 0.54538 0.0
C334 C 0.78706 0.3578 0.52344 0.0
C335 C 0.77272 0.36403 0.45254 0.0
C336 C 0.82512 0.24476 0.49517 0.0
H337 H 0.77469 0.31612 0.35081 0.0
C338 C 0.00774 0.46176 0.40177 0.0
O339 O 0.02729 0.27115 0.21895 0.0
O340 O 0.99811 0.37763 0.22341 0.0
N341 N 0.88169 0.14992 0.46211 0.0
C342 C 0.93442 0.11402 0.47498 0.0
C343 C 0.9553 0.10556 0.5437 0.0
C344 C 0.92906 0.14286 0.59679 0.0
C345 C 0.89597 0.19924 0.58078 0.0
C346 C 0.86861 0.19866 0.51183 0.0
H347 H 0.95038 0.08257 0.43312 0.0
O348 O 0.97741 0.20541 0.27705 0.0
O349 O 0.92645 0.25683 0.3506 0.0
O350 O 0.11836 0.30966 0.38818 0.0
O351 O 0.04796 0.30309 0.48559 0.0
C352 C 0.89086 0.25635 0.63018 0.0
C353 C 0.85114 0.30648 0.61261 0.0
H354 H 0.78203 0.40275 0.55962 0.0
H355 H 0.76138 0.41631 0.43354 0.0
H356 H 0.98721 0.06716 0.55611 0.0
H357 H 0.92979 0.1234 0.6499 0.0
H358 H 0.92092 0.26535 0.68111 0.0
H359 H 0.85262 0.35386 0.64986 0.0
Mn360 Mn 0.70691 0.04477 0.64349 0.0
Mn361 Mn 0.65051 0.91803 0.78561 0.0
C362 C 0.7254 0.90799 0.64809 0.0
C363 C 0.68829 0.00815 0.51755 0.0
C364 C 0.81294 0.11521 0.78922 0.0
O365 O 0.61246 0.06366 0.6964 0.0
O366 O 0.55903 0.95408 0.77519 0.0
C367 C 0.47585 0.77692 0.739 0.0
N368 N 0.55923 0.79923 0.76141 0.0
C369 C 0.51966 0.81523 0.87876 0.0
C370 C 0.43233 0.78554 0.85684 0.0
C371 C 0.41175 0.77118 0.78595 0.0
C372 C 0.58343 0.82368 0.82852 0.0
H373 H 0.4616 0.77319 0.6842 0.0
C374 C 0.54893 0.00629 0.73512 0.0
O375 O 0.75909 0.02588 0.5523 0.0
O376 O 0.62346 0.9967 0.55675 0.0
N377 N 0.73477 0.88025 0.79544 0.0
C378 C 0.82338 0.93299 0.80831 0.0
C379 C 0.85273 0.95388 0.87702 0.0
C380 C 0.78921 0.92764 0.93012 0.0
C381 C 0.69977 0.89457 0.91412 0.0
C382 C 0.67298 0.8672 0.84516 0.0
H383 H 0.87077 0.94895 0.76644 0.0
O384 O 0.77494 0.97597 0.61039 0.0
O385 O 0.67259 0.92501 0.68394 0.0
O386 O 0.81162 0.11694 0.72152 0.0
O387 O 0.74784 0.04654 0.81893 0.0
C388 C 0.63758 0.88948 0.96352 0.0
C389 C 0.54775 0.84973 0.94597 0.0
H390 H 0.38237 0.78048 0.89304 0.0
H391 H 0.34813 0.75982 0.76696 0.0
H392 H 0.92301 0.98579 0.88942 0.0
H393 H 0.80939 0.92836 -0.01677 0.0
H394 H 0.65864 0.91957 0.01444 0.0
H395 H 0.50185 0.85121 -0.01678 0.0
Mn396 Mn 0.66511 0.70543 0.97681 0.0
Mn397 Mn 0.73541 0.64898 0.11893 0.0
C398 C 0.82036 0.72392 -0.01858 0.0
C399 C 0.68312 0.68679 0.85086 0.0
C400 C 0.70071 0.81148 0.12255 0.0
O401 O 0.55178 0.611 0.0297 0.0
O402 O 0.60789 0.55754 0.10851 0.0
C403 C 0.70177 0.47424 0.07234 0.0
N404 N 0.76287 0.55762 0.09473 0.0
C405 C 0.70734 0.51811 0.2121 0.0
C406 C 0.64966 0.43079 0.19019 0.0
C407 C 0.64338 0.41018 0.1193 0.0
C408 C 0.76265 0.58185 0.16185 0.0
H409 H 0.69122 0.45996 0.01755 0.0
C410 C 0.5456 0.54747 0.06845 0.0
O411 O 0.73617 0.7576 0.88562 0.0
O412 O 0.62975 0.62197 0.89007 0.0
N413 N 0.85743 0.73319 0.12875 0.0
C414 C 0.89331 0.82182 0.14159 0.0
C415 C 0.90178 0.85121 0.21029 0.0
C416 C 0.86452 0.78771 0.26341 0.0
C417 C 0.80818 0.69825 0.24743 0.0
C418 C 0.80874 0.67142 0.17849 0.0
H419 H 0.92475 0.8692 0.09972 0.0
O420 O 0.8019 0.77346 0.94371 0.0
O421 O 0.75054 0.67109 0.01726 0.0
O422 O 0.69764 0.81016 0.05484 0.0
O423 O 0.70429 0.74637 0.15225 0.0
C424 C 0.7511 0.63607 0.29685 0.0
C425 C 0.70099 0.54623 0.27932 0.0
H426 H 0.60475 0.38086 0.22639 0.0
H427 H 0.59109 0.34659 0.10032 0.0
H428 H 0.94016 0.92151 0.22268 0.0
H429 H 0.88401 0.80792 0.31651 0.0
H430 H 0.7421 0.65717 0.34777 0.0
H431 H 0.65364 0.50037 0.31658 0.0
loop_
_geom_bond_atom_site_label_1
_geom_bond_atom_site_label_2
_geom_bond_distance
_geom_bond_site_symmetry_2
_ccdc_geom_bond_type
Mn0 O5 2.095 . S
Mn0 O15 2.162 . S
Mn0 O16 2.297 1_545 S
Mn0 O24 2.385 1_545 S
Mn0 O25 2.209 1_545 S
Mn0 O26 2.094 . S
Mn1 O6 2.121 . S
Mn1 N8 2.257 . S
Mn1 N17 2.282 . S
Mn1 O25 2.215 . S
Mn1 O27 2.117 1_565 S
C2 O24 1.234 . S
C2 O25 1.283 . S
C3 O15 1.281 . S
C3 O16 1.236 1_545 S
C4 O26 1.240 . S
C4 O27 1.264 . S
O5 Mn0 2.095 . S
O5 C14 1.250 . S
O6 Mn1 2.121 . S
O6 C14 1.258 1_565 S
C7 N8 1.326 . S
C7 C11 1.460 . S
C7 H13 0.929 . S
N8 Mn1 2.257 . S
N8 C7 1.326 . S
N8 C12 1.362 . S
C9 C10 1.258 . S
C9 C12 1.431 . S
C9 C29 1.449 . S
C10 C9 1.258 . S
C10 C11 1.477 . S
C10 H30 0.931 . S
C11 C7 1.460 . S
C11 C10 1.477 . S
C11 H31 0.930 . S
C12 N8 1.362 . S
C12 C9 1.431 . S
C12 C22 1.476 . S
H13 C7 0.929 . S
C14 O5 1.250 . S
C14 O6 1.258 1_545 S
O15 Mn0 2.162 . S
O15 C3 1.281 . S
O16 Mn0 2.297 1_565 S
O16 C3 1.236 1_565 S
N17 Mn1 2.282 . S
N17 C18 1.328 . S
N17 C22 1.318 . S
C18 N17 1.328 . S
C18 C19 1.457 . S
C18 H23 0.929 . S
C19 C18 1.457 . S
C19 C20 1.291 1_455 S
C19 H32 0.931 1_455 S
C20 C19 1.291 1_655 S
C20 C21 1.373 1_655 S
C20 H33 0.929 . S
C21 C20 1.373 1_455 S
C21 C22 1.396 . S
C21 C28 1.403 . S
C22 C12 1.476 . S
C22 N17 1.318 . S
C22 C21 1.396 . S
H23 C18 0.929 . S
O24 Mn0 2.385 1_565 S
O24 C2 1.234 . S
O25 Mn0 2.209 1_565 S
O25 Mn1 2.215 . S
O25 C2 1.283 . S
O26 Mn0 2.094 . S
O26 C4 1.240 . S
O27 Mn1 2.117 1_545 S
O27 C4 1.264 . S
C28 C21 1.403 . S
C28 C29 1.399 . S
C28 H34 0.929 1_455 S
C29 C9 1.449 . S
C29 C28 1.399 . S
C29 H35 0.930 . S
H30 C10 0.931 . S
H31 C11 0.930 . S
H32 C19 0.931 1_655 S
H33 C20 0.929 . S
H34 C28 0.929 1_655 S
H35 C29 0.930 . S
Mn36 O41 2.095 . S
Mn36 O51 2.162 . S
Mn36 O52 2.297 . S
Mn36 O60 2.385 . S
Mn36 O61 2.209 . S
Mn36 O62 2.094 . S
Mn37 O42 2.121 . S
Mn37 N44 2.257 . S
Mn37 N53 2.282 . S
Mn37 O61 2.215 . S
Mn37 O63 2.117 . S
C38 O60 1.234 . S
C38 O61 1.283 . S
C39 O51 1.281 . S
C39 O52 1.236 . S
C40 O62 1.240 . S
C40 O63 1.264 . S
O41 Mn36 2.095 . S
O41 C50 1.250 . S
O42 Mn37 2.121 . S
O42 C50 1.258 . S
C43 N44 1.326 . S
C43 C47 1.460 . S
C43 H49 0.929 . S
N44 Mn37 2.257 . S
N44 C43 1.326 . S
N44 C48 1.362 . S
C45 C46 1.258 . S
C45 C48 1.431 . S
C45 C65 1.449 . S
C46 C45 1.258 . S
C46 C47 1.477 . S
C46 H66 0.931 . S
C47 C43 1.460 . S
C47 C46 1.477 . S
C47 H67 0.930 . S
C48 N44 1.362 . S
C48 C45 1.431 . S
C48 C58 1.476 . S
H49 C43 0.929 . S
C50 O41 1.250 . S
C50 O42 1.258 . S
O51 Mn36 2.162 . S
O51 C39 1.281 . S
O52 Mn36 2.297 . S
O52 C39 1.236 . S
N53 Mn37 2.282 . S
N53 C54 1.328 . S
N53 C58 1.318 . S
C54 N53 1.328 . S
C54 C55 1.457 . S
C54 H59 0.929 . S
C55 C54 1.457 . S
C55 C56 1.291 1_545 S
C55 H68 0.931 1_545 S
C56 C55 1.291 1_565 S
C56 C57 1.373 1_565 S
C56 H69 0.929 . S
C57 C56 1.373 1_545 S
C57 C58 1.396 . S
C57 C64 1.403 . S
C58 C48 1.476 . S
C58 N53 1.318 . S
C58 C57 1.396 . S
H59 C54 0.929 . S
O60 Mn36 2.385 . S
O60 C38 1.234 . S
O61 Mn36 2.209 . S
O61 Mn37 2.215 . S
O61 C38 1.283 . S
O62 Mn36 2.094 . S
O62 C40 1.240 . S
O63 Mn37 2.117 . S
O63 C40 1.264 . S
C64 C57 1.403 . S
C64 C65 1.399 . S
C64 H70 0.929 1_545 S
C65 C45 1.449 . S
C65 C64 1.399 . S
C65 H71 0.930 . S
H66 C46 0.931 . S
H67 C47 0.930 . S
H68 C55 0.931 1_565 S
H69 C56 0.929 . S
H70 C64 0.929 1_565 S
H71 C65 0.930 . S
Mn72 O77 2.095 . S
Mn72 O87 2.162 1_556 S
Mn72 O88 2.297 1_656 S
Mn72 O96 2.385 1_655 S
Mn72 O97 2.209 1_655 S
Mn72 O98 2.094 . S
Mn73 O78 2.121 . S
Mn73 N80 2.257 . S
Mn73 N89 2.282 . S
Mn73 O97 2.215 . S
Mn73 O99 2.117 1_455 S
C74 O96 1.234 . S
C74 O97 1.283 . S
C75 O87 1.281 . S
C75 O88 1.236 1_655 S
C76 O98 1.240 . S
C76 O99 1.264 . S
O77 Mn72 2.095 . S
O77 C86 1.250 . S
O78 Mn73 2.121 . S
O78 C86 1.258 1_455 S
C79 N80 1.326 . S
C79 C83 1.460 . S
C79 H85 0.929 . S
N80 Mn73 2.257 . S
N80 C79 1.326 . S
N80 C84 1.362 . S
C81 C82 1.258 . S
C81 C84 1.431 . S
C81 C101 1.449 . S
C82 C81 1.258 . S
C82 C83 1.477 . S
C82 H102 0.931 . S
C83 C79 1.460 . S
C83 C82 1.477 . S
C83 H103 0.930 . S
C84 N80 1.362 . S
C84 C81 1.431 . S
C84 C94 1.476 . S
H85 C79 0.929 . S
C86 O77 1.250 . S
C86 O78 1.258 1_655 S
O87 Mn72 2.162 1_554 S
O87 C75 1.281 . S
O88 Mn72 2.297 1_454 S
O88 C75 1.236 1_455 S
N89 Mn73 2.282 . S
N89 C90 1.328 . S
N89 C94 1.318 . S
C90 N89 1.328 . S
C90 C91 1.457 . S
C90 H95 0.929 . S
C91 C90 1.457 . S
C91 C92 1.291 . S
C91 H104 0.931 . S
C92 C91 1.291 . S
C92 C93 1.373 . S
C92 H105 0.929 . S
C93 C92 1.373 . S
C93 C94 1.396 . S
C93 C100 1.403 . S
C94 C84 1.476 . S
C94 N89 1.318 . S
C94 C93 1.396 . S
H95 C90 0.929 . S
O96 Mn72 2.385 1_455 S
O96 C74 1.234 . S
O97 Mn72 2.209 1_455 S
O97 Mn73 2.215 . S
O97 C74 1.283 . S
O98 Mn72 2.094 . S
O98 C76 1.240 . S
O99 Mn73 2.117 1_655 S
O99 C76 1.264 . S
C100 C93 1.403 . S
C100 C101 1.399 . S
C100 H106 0.929 . S
C101 C81 1.449 . S
C101 C100 1.399 . S
C101 H107 0.930 . S
H102 C82 0.931 . S
H103 C83 0.930 . S
H104 C91 0.931 . S
H105 C92 0.929 . S
H106 C100 0.929 . S
H107 C101 0.930 . S
Mn108 O113 2.095 . S
Mn108 O123 2.162 . S
Mn108 O124 2.297 1_565 S
Mn108 O132 2.385 1_565 S
Mn108 O133 2.209 1_565 S
Mn108 O134 2.094 . S
Mn109 O114 2.121 . S
Mn109 N116 2.257 . S
Mn109 N125 2.282 . S
Mn109 O133 2.215 . S
Mn109 O135 2.117 1_545 S
C110 O132 1.234 . S
C110 O133 1.283 . S
C111 O123 1.281 . S
C111 O124 1.236 1_565 S
C112 O134 1.240 . S
C112 O135 1.264 . S
O113 Mn108 2.095 . S
O113 C122 1.250 . S
O114 Mn109 2.121 . S
O114 C122 1.258 1_545 S
C115 N116 1.326 . S
C115 C119 1.460 . S
C115 H121 0.929 . S
N116 Mn109 2.257 . S
N116 C115 1.326 . S
N116 C120 1.362 . S
C117 C118 1.258 . S
C117 C120 1.431 . S
C117 C137 1.449 . S
C118 C117 1.258 . S
C118 C119 1.477 . S
C118 H138 0.931 . S
C119 C115 1.460 . S
C119 C118 1.477 . S
C119 H139 0.930 . S
C120 N116 1.362 . S
C120 C117 1.431 . S
C120 C130 1.476 . S
H121 C115 0.929 . S
C122 O113 1.250 . S
C122 O114 1.258 1_565 S
O123 Mn108 2.162 . S
O123 C111 1.281 . S
O124 Mn108 2.297 1_545 S
O124 C111 1.236 1_545 S
N125 Mn109 2.282 . S
N125 C126 1.328 . S
N125 C130 1.318 . S
C126 N125 1.328 . S
C126 C127 1.457 . S
C126 H131 0.929 . S
C127 C126 1.457 . S
C127 C128 1.291 1_655 S
C127 H140 0.931 1_655 S
C128 C127 1.291 1_455 S
C128 C129 1.373 1_455 S
C128 H141 0.929 . S
C129 C128 1.373 1_655 S
C129 C130 1.396 . S
C129 C136 1.403 . S
C130 C120 1.476 . S
C130 N125 1.318 . S
C130 C129 1.396 . S
H131 C126 0.929 . S
O132 Mn108 2.385 1_545 S
O132 C110 1.234 . S
O133 Mn108 2.209 1_545 S
O133 Mn109 2.215 . S
O133 C110 1.283 . S
O134 Mn108 2.094 . S
O134 C112 1.240 . S
O135 Mn109 2.117 1_565 S
O135 C112 1.264 . S
C136 C129 1.403 . S
C136 C137 1.399 . S
C136 H142 0.929 1_655 S
C137 C117 1.449 . S
C137 C136 1.399 . S
C137 H143 0.930 . S
H138 C118 0.931 . S
H139 C119 0.930 . S
H140 C127 0.931 1_455 S
H141 C128 0.929 . S
H142 C136 0.929 1_455 S
H143 C137 0.930 . S
Mn144 O149 2.095 . S
Mn144 O159 2.162 . S
Mn144 O160 2.297 . S
Mn144 O168 2.385 . S
Mn144 O169 2.209 . S
Mn144 O170 2.094 . S
Mn145 O150 2.121 . S
Mn145 N152 2.257 . S
Mn145 N161 2.282 . S
Mn145 O169 2.215 . S
Mn145 O171 2.117 . S
C146 O168 1.234 . S
C146 O169 1.283 . S
C147 O159 1.281 . S
C147 O160 1.236 . S
C148 O170 1.240 . S
C148 O171 1.264 . S
O149 Mn144 2.095 . S
O149 C158 1.250 . S
O150 Mn145 2.121 . S
O150 C158 1.258 . S
C151 N152 1.326 . S
C151 C155 1.460 . S
C151 H157 0.929 . S
N152 Mn145 2.257 . S
N152 C151 1.326 . S
N152 C156 1.362 . S
C153 C154 1.258 . S
C153 C156 1.431 . S
C153 C173 1.449 . S
C154 C153 1.258 . S
C154 C155 1.477 . S
C154 H174 0.931 . S
C155 C151 1.460 . S
C155 C154 1.477 . S
C155 H175 0.930 . S
C156 N152 1.362 . S
C156 C153 1.431 . S
C156 C166 1.476 . S
H157 C151 0.929 . S
C158 O149 1.250 . S
C158 O150 1.258 . S
O159 Mn144 2.162 . S
O159 C147 1.281 . S
O160 Mn144 2.297 . S
O160 C147 1.236 . S
N161 Mn145 2.282 . S
N161 C162 1.328 . S
N161 C166 1.318 . S
C162 N161 1.328 . S
C162 C163 1.457 . S
C162 H167 0.929 . S
C163 C162 1.457 . S
C163 C164 1.291 1_565 S
C163 H176 0.931 1_565 S
C164 C163 1.291 1_545 S
C164 C165 1.373 1_545 S
C164 H177 0.929 . S
C165 C164 1.373 1_565 S
C165 C166 1.396 . S
C165 C172 1.403 . S
C166 C156 1.476 . S
C166 N161 1.318 . S
C166 C165 1.396 . S
H167 C162 0.929 . S
O168 Mn144 2.385 . S
O168 C146 1.234 . S
O169 Mn144 2.209 . S
O169 Mn145 2.215 . S
O169 C146 1.283 . S
O170 Mn144 2.094 . S
O170 C148 1.240 . S
O171 Mn145 2.117 . S
O171 C148 1.264 . S
C172 C165 1.403 . S
C172 C173 1.399 . S
C172 H178 0.929 1_565 S
C173 C153 1.449 . S
C173 C172 1.399 . S
C173 H179 0.930 . S
H174 C154 0.931 . S
H175 C155 0.930 . S
H176 C163 0.931 1_545 S
H177 C164 0.929 . S
H178 C172 0.929 1_545 S
H179 C173 0.930 . S
Mn180 O185 2.095 . S
Mn180 O195 2.162 1_556 S
Mn180 O196 2.297 1_456 S
Mn180 O204 2.385 1_455 S
Mn180 O205 2.209 1_455 S
Mn180 O206 2.094 . S
Mn181 O186 2.121 . S
Mn181 N188 2.257 . S
Mn181 N197 2.282 . S
Mn181 O205 2.215 . S
Mn181 O207 2.117 1_655 S
C182 O204 1.234 . S
C182 O205 1.283 . S
C183 O195 1.281 . S
C183 O196 1.236 1_455 S
C184 O206 1.240 . S
C184 O207 1.264 . S
O185 Mn180 2.095 . S
O185 C194 1.250 . S
O186 Mn181 2.121 . S
O186 C194 1.258 1_655 S
C187 N188 1.326 . S
C187 C191 1.460 . S
C187 H193 0.929 . S
N188 Mn181 2.257 . S
N188 C187 1.326 . S
N188 C192 1.362 . S
C189 C190 1.258 . S
C189 C192 1.431 . S
C189 C209 1.449 . S
C190 C189 1.258 . S
C190 C191 1.477 . S
C190 H210 0.931 . S
C191 C187 1.460 . S
C191 C190 1.477 . S
C191 H211 0.930 . S
C192 N188 1.362 . S
C192 C189 1.431 . S
C192 C202 1.476 . S
H193 C187 0.929 . S
C194 O185 1.250 . S
C194 O186 1.258 1_455 S
O195 Mn180 2.162 1_554 S
O195 C183 1.281 . S
O196 Mn180 2.297 1_654 S
O196 C183 1.236 1_655 S
N197 Mn181 2.282 . S
N197 C198 1.328 . S
N197 C202 1.318 . S
C198 N197 1.328 . S
C198 C199 1.457 . S
C198 H203 0.929 . S
C199 C198 1.457 . S
C199 C200 1.291 . S
C199 H212 0.931 . S
C200 C199 1.291 . S
C200 C201 1.373 . S
C200 H213 0.929 . S
C201 C200 1.373 . S
C201 C202 1.396 . S
C201 C208 1.403 . S
C202 C192 1.476 . S
C202 N197 1.318 . S
C202 C201 1.396 . S
H203 C198 0.929 . S
O204 Mn180 2.385 1_655 S
O204 C182 1.234 . S
O205 Mn180 2.209 1_655 S
O205 Mn181 2.215 . S
O205 C182 1.283 . S
O206 Mn180 2.094 . S
O206 C184 1.240 . S
O207 Mn181 2.117 1_455 S
O207 C184 1.264 . S
C208 C201 1.403 . S
C208 C209 1.399 . S
C208 H214 0.929 . S
C209 C189 1.449 . S
C209 C208 1.399 . S
C209 H215 0.930 . S
H210 C190 0.931 . S
H211 C191 0.930 . S
H212 C199 0.931 . S
H213 C200 0.929 . S
H214 C208 0.929 . S
H215 C209 0.930 . S
Mn216 O221 2.095 . S
Mn216 O231 2.162 . S
Mn216 O232 2.297 1_655 S
Mn216 O240 2.385 1_655 S
Mn216 O241 2.209 1_655 S
Mn216 O242 2.094 . S
Mn217 O222 2.121 . S
Mn217 N224 2.257 . S
Mn217 N233 2.282 . S
Mn217 O241 2.215 . S
Mn217 O243 2.117 1_455 S
C218 O240 1.234 . S
C218 O241 1.283 . S
C219 O231 1.281 . S
C219 O232 1.236 1_655 S
C220 O242 1.240 . S
C220 O243 1.264 . S
O221 Mn216 2.095 . S
O221 C230 1.250 . S
O222 Mn217 2.121 . S
O222 C230 1.258 1_455 S
C223 N224 1.326 . S
C223 C227 1.460 . S
C223 H229 0.929 . S
N224 Mn217 2.257 . S
N224 C223 1.326 . S
N224 C228 1.362 . S
C225 C226 1.258 . S
C225 C228 1.431 . S
C225 C245 1.449 . S
C226 C225 1.258 . S
C226 C227 1.477 . S
C226 H246 0.931 . S
C227 C223 1.460 . S
C227 C226 1.477 . S
C227 H247 0.930 . S
C228 N224 1.362 . S
C228 C225 1.431 . S
C228 C238 1.476 . S
H229 C223 0.929 . S
C230 O221 1.250 . S
C230 O222 1.258 1_655 S
O231 Mn216 2.162 . S
O231 C219 1.281 . S
O232 Mn216 2.297 1_455 S
O232 C219 1.236 1_455 S
N233 Mn217 2.282 . S
N233 C234 1.328 . S
N233 C238 1.318 . S
C234 N233 1.328 . S
C234 C235 1.457 . S
C234 H239 0.929 . S
C235 C234 1.457 . S
C235 C236 1.291 1_565 S
C235 H248 0.931 1_565 S
C236 C235 1.291 1_545 S
C236 C237 1.373 1_545 S
C236 H249 0.929 . S
C237 C236 1.373 1_565 S
C237 C238 1.396 . S
C237 C244 1.403 . S
C238 C228 1.476 . S
C238 N233 1.318 . S
C238 C237 1.396 . S
H239 C234 0.929 . S
O240 Mn216 2.385 1_455 S
O240 C218 1.234 . S
O241 Mn216 2.209 1_455 S
O241 Mn217 2.215 . S
O241 C218 1.283 . S
O242 Mn216 2.094 . S
O242 C220 1.240 . S
O243 Mn217 2.117 1_655 S
O243 C220 1.264 . S
C244 C237 1.403 . S
C244 C245 1.399 . S
C244 H250 0.929 1_565 S
C245 C225 1.449 . S
C245 C244 1.399 . S
C245 H251 0.930 . S
H246 C226 0.931 . S
H247 C227 0.930 . S
H248 C235 0.931 1_545 S
H249 C236 0.929 . S
H250 C244 0.929 1_545 S
H251 C245 0.930 . S
Mn252 O257 2.095 . S
Mn252 O267 2.162 . S
Mn252 O268 2.297 1_565 S
Mn252 O276 2.385 1_565 S
Mn252 O277 2.209 1_565 S
Mn252 O278 2.094 . S
Mn253 O258 2.121 . S
Mn253 N260 2.257 . S
Mn253 N269 2.282 . S
Mn253 O277 2.215 . S
Mn253 O279 2.117 1_545 S
C254 O276 1.234 . S
C254 O277 1.283 . S
C255 O267 1.281 . S
C255 O268 1.236 1_565 S
C256 O278 1.240 . S
C256 O279 1.264 . S
O257 Mn252 2.095 . S
O257 C266 1.250 . S
O258 Mn253 2.121 . S
O258 C266 1.258 1_545 S
C259 N260 1.326 . S
C259 C263 1.460 . S
C259 H265 0.929 . S
N260 Mn253 2.257 . S
N260 C259 1.326 . S
N260 C264 1.362 . S
C261 C262 1.258 . S
C261 C264 1.431 . S
C261 C281 1.449 . S
C262 C261 1.258 . S
C262 C263 1.477 . S
C262 H282 0.931 . S
C263 C259 1.460 . S
C263 C262 1.477 . S
C263 H283 0.930 . S
C264 N260 1.362 . S
C264 C261 1.431 . S
C264 C274 1.476 . S
H265 C259 0.929 . S
C266 O257 1.250 . S
C266 O258 1.258 1_565 S
O267 Mn252 2.162 . S
O267 C255 1.281 . S
O268 Mn252 2.297 1_545 S
O268 C255 1.236 1_545 S
N269 Mn253 2.282 . S
N269 C270 1.328 . S
N269 C274 1.318 . S
C270 N269 1.328 . S
C270 C271 1.457 . S
C270 H275 0.929 . S
C271 C270 1.457 . S
C271 C272 1.291 . S
C271 H284 0.931 . S
C272 C271 1.291 . S
C272 C273 1.373 . S
C272 H285 0.929 . S
C273 C272 1.373 . S
C273 C274 1.396 . S
C273 C280 1.403 . S
C274 C264 1.476 . S
C274 N269 1.318 . S
C274 C273 1.396 . S
H275 C270 0.929 . S
O276 Mn252 2.385 1_545 S
O276 C254 1.234 . S
O277 Mn252 2.209 1_545 S
O277 Mn253 2.215 . S
O277 C254 1.283 . S
O278 Mn252 2.094 . S
O278 C256 1.240 . S
O279 Mn253 2.117 1_565 S
O279 C256 1.264 . S
C280 C273 1.403 . S
C280 C281 1.399 . S
C280 H286 0.929 . S
C281 C261 1.449 . S
C281 C280 1.399 . S
C281 H287 0.930 . S
H282 C262 0.931 . S
H283 C263 0.930 . S
H284 C271 0.931 . S
H285 C272 0.929 . S
H286 C280 0.929 . S
H287 C281 0.930 . S
Mn288 O293 2.095 . S
Mn288 O303 2.162 1_554 S
Mn288 O304 2.297 1_554 S
Mn288 O312 2.385 . S
Mn288 O313 2.209 . S
Mn288 O314 2.094 . S
Mn289 O294 2.121 . S
Mn289 N296 2.257 . S
Mn289 N305 2.282 . S
Mn289 O313 2.215 . S
Mn289 O315 2.117 . S
C290 O312 1.234 . S
C290 O313 1.283 . S
C291 O303 1.281 . S
C291 O304 1.236 . S
C292 O314 1.240 . S
C292 O315 1.264 . S
O293 Mn288 2.095 . S
O293 C302 1.250 . S
O294 Mn289 2.121 . S
O294 C302 1.258 . S
C295 N296 1.326 . S
C295 C299 1.460 . S
C295 H301 0.929 . S
N296 Mn289 2.257 . S
N296 C295 1.326 . S
N296 C300 1.362 . S
C297 C298 1.258 . S
C297 C300 1.431 . S
C297 C317 1.449 . S
C298 C297 1.258 . S
C298 C299 1.477 . S
C298 H318 0.931 . S
C299 C295 1.460 . S
C299 C298 1.477 . S
C299 H319 0.930 . S
C300 N296 1.362 . S
C300 C297 1.431 . S
C300 C310 1.476 . S
H301 C295 0.929 . S
C302 O293 1.250 . S
C302 O294 1.258 . S
O303 Mn288 2.162 1_556 S
O303 C291 1.281 . S
O304 Mn288 2.297 1_556 S
O304 C291 1.236 . S
N305 Mn289 2.282 . S
N305 C306 1.328 . S
N305 C310 1.318 . S
C306 N305 1.328 . S
C306 C307 1.457 . S
C306 H311 0.929 . S
C307 C306 1.457 . S
C307 C308 1.291 1_455 S
C307 H320 0.931 1_455 S
C308 C307 1.291 1_655 S
C308 C309 1.373 1_655 S
C308 H321 0.929 . S
C309 C308 1.373 1_455 S
C309 C310 1.396 . S
C309 C316 1.403 . S
C310 C300 1.476 . S
C310 N305 1.318 . S
C310 C309 1.396 . S
H311 C306 0.929 . S
O312 Mn288 2.385 . S
O312 C290 1.234 . S
O313 Mn288 2.209 . S
O313 Mn289 2.215 . S
O313 C290 1.283 . S
O314 Mn288 2.094 . S
O314 C292 1.240 . S
O315 Mn289 2.117 . S
O315 C292 1.264 . S
C316 C309 1.403 . S
C316 C317 1.399 . S
C316 H322 0.929 1_455 S
C317 C297 1.449 . S
C317 C316 1.399 . S
C317 H323 0.930 . S
H318 C298 0.931 . S
H319 C299 0.930 . S
H320 C307 0.931 1_655 S
H321 C308 0.929 . S
H322 C316 0.929 1_655 S
H323 C317 0.930 . S
Mn324 O329 2.095 . S
Mn324 O339 2.162 . S
Mn324 O340 2.297 1_455 S
Mn324 O348 2.385 1_455 S
Mn324 O349 2.209 1_455 S
Mn324 O350 2.094 . S
Mn325 O330 2.121 . S
Mn325 N332 2.257 . S
Mn325 N341 2.282 . S
Mn325 O349 2.215 . S
Mn325 O351 2.117 1_655 S
C326 O348 1.234 . S
C326 O349 1.283 . S
C327 O339 1.281 . S
C327 O340 1.236 1_455 S
C328 O350 1.240 . S
C328 O351 1.264 . S
O329 Mn324 2.095 . S
O329 C338 1.250 . S
O330 Mn325 2.121 . S
O330 C338 1.258 1_655 S
C331 N332 1.326 . S
C331 C335 1.460 . S
C331 H337 0.929 . S
N332 Mn325 2.257 . S
N332 C331 1.326 . S
N332 C336 1.362 . S
C333 C334 1.258 . S
C333 C336 1.431 . S
C333 C353 1.449 . S
C334 C333 1.258 . S
C334 C335 1.477 . S
C334 H354 0.931 . S
C335 C331 1.460 . S
C335 C334 1.477 . S
C335 H355 0.930 . S
C336 N332 1.362 . S
C336 C333 1.431 . S
C336 C346 1.476 . S
H337 C331 0.929 . S
C338 O329 1.250 . S
C338 O330 1.258 1_455 S
O339 Mn324 2.162 . S
O339 C327 1.281 . S
O340 Mn324 2.297 1_655 S
O340 C327 1.236 1_655 S
N341 Mn325 2.282 . S
N341 C342 1.328 . S
N341 C346 1.318 . S
C342 N341 1.328 . S
C342 C343 1.457 . S
C342 H347 0.929 . S
C343 C342 1.457 . S
C343 C344 1.291 1_545 S
C343 H356 0.931 1_545 S
C344 C343 1.291 1_565 S
C344 C345 1.373 1_565 S
C344 H357 0.929 . S
C345 C344 1.373 1_545 S
C345 C346 1.396 . S
C345 C352 1.403 . S
C346 C336 1.476 . S
C346 N341 1.318 . S
C346 C345 1.396 . S
H347 C342 0.929 . S
O348 Mn324 2.385 1_655 S
O348 C326 1.234 . S
O349 Mn324 2.209 1_655 S
O349 Mn325 2.215 . S
O349 C326 1.283 . S
O350 Mn324 2.094 . S
O350 C328 1.240 . S
O351 Mn325 2.117 1_455 S
O351 C328 1.264 . S
C352 C345 1.403 . S
C352 C353 1.399 . S
C352 H358 0.929 1_545 S
C353 C333 1.449 . S
C353 C352 1.399 . S
C353 H359 0.930 . S
H354 C334 0.931 . S
H355 C335 0.930 . S
H356 C343 0.931 1_565 S
H357 C344 0.929 . S
H358 C352 0.929 1_565 S
H359 C353 0.930 . S
Mn360 O365 2.095 . S
Mn360 O375 2.162 . S
Mn360 O376 2.297 1_545 S
Mn360 O384 2.385 1_545 S
Mn360 O385 2.209 1_545 S
Mn360 O386 2.094 . S
Mn361 O366 2.121 . S
Mn361 N368 2.257 . S
Mn361 N377 2.282 . S
Mn361 O385 2.215 . S
Mn361 O387 2.117 1_565 S
C362 O384 1.234 . S
C362 O385 1.283 . S
C363 O375 1.281 . S
C363 O376 1.236 1_545 S
C364 O386 1.240 . S
C364 O387 1.264 . S
O365 Mn360 2.095 . S
O365 C374 1.250 . S
O366 Mn361 2.121 . S
O366 C374 1.258 1_565 S
C367 N368 1.326 . S
C367 C371 1.460 . S
C367 H373 0.929 . S
N368 Mn361 2.257 . S
N368 C367 1.326 . S
N368 C372 1.362 . S
C369 C370 1.258 . S
C369 C372 1.431 . S
C369 C389 1.449 . S
C370 C369 1.258 . S
C370 C371 1.477 . S
C370 H390 0.931 . S
C371 C367 1.460 . S
C371 C370 1.477 . S
C371 H391 0.930 . S
C372 N368 1.362 . S
C372 C369 1.431 . S
C372 C382 1.476 . S
H373 C367 0.929 . S
C374 O365 1.250 . S
C374 O366 1.258 1_545 S
O375 Mn360 2.162 . S
O375 C363 1.281 . S
O376 Mn360 2.297 1_565 S
O376 C363 1.236 1_565 S
N377 Mn361 2.282 . S
N377 C378 1.328 . S
N377 C382 1.318 . S
C378 N377 1.328 . S
C378 C379 1.457 . S
C378 H383 0.929 . S
C379 C378 1.457 . S
C379 C380 1.291 . S
C379 H392 0.931 . S
C380 C379 1.291 . S
C380 C381 1.373 . S
C380 H393 0.929 . S
C381 C380 1.373 . S
C381 C382 1.396 . S
C381 C388 1.403 . S
C382 C372 1.476 . S
C382 N377 1.318 . S
C382 C381 1.396 . S
H383 C378 0.929 . S
O384 Mn360 2.385 1_565 S
O384 C362 1.234 . S
O385 Mn360 2.209 1_565 S
O385 Mn361 2.215 . S
O385 C362 1.283 . S
O386 Mn360 2.094 . S
O386 C364 1.240 . S
O387 Mn361 2.117 1_545 S
O387 C364 1.264 . S
C388 C381 1.403 . S
C388 C389 1.399 . S
C388 H394 0.929 . S
C389 C369 1.449 . S
C389 C388 1.399 . S
C389 H395 0.930 . S
H390 C370 0.931 . S
H391 C371 0.930 . S
H392 C379 0.931 . S
H393 C380 0.929 . S
H394 C388 0.929 . S
H395 C389 0.930 . S
Mn396 O401 2.095 . S
Mn396 O411 2.162 1_554 S
Mn396 O412 2.297 1_554 S
Mn396 O420 2.385 . S
Mn396 O421 2.209 . S
Mn396 O422 2.094 . S
Mn397 O402 2.121 . S
Mn397 N404 2.257 . S
Mn397 N413 2.282 . S
Mn397 O421 2.215 . S
Mn397 O423 2.117 . S
C398 O420 1.234 . S
C398 O421 1.283 . S
C399 O411 1.281 . S
C399 O412 1.236 . S
C400 O422 1.240 . S
C400 O423 1.264 . S
O401 Mn396 2.095 . S
O401 C410 1.250 . S
O402 Mn397 2.121 . S
O402 C410 1.258 . S
C403 N404 1.326 . S
C403 C407 1.460 . S
C403 H409 0.929 . S
N404 Mn397 2.257 . S
N404 C403 1.326 . S
N404 C408 1.362 . S
C405 C406 1.258 . S
C405 C408 1.431 . S
C405 C425 1.449 . S
C406 C405 1.258 . S
C406 C407 1.477 . S
C406 H426 0.931 . S
C407 C403 1.460 . S
C407 C406 1.477 . S
C407 H427 0.930 . S
C408 N404 1.362 . S
C408 C405 1.431 . S
C408 C418 1.476 . S
H409 C403 0.929 . S
C410 O401 1.250 . S
C410 O402 1.258 . S
O411 Mn396 2.162 1_556 S
O411 C399 1.281 . S
O412 Mn396 2.297 1_556 S
O412 C399 1.236 . S
N413 Mn397 2.282 . S
N413 C414 1.328 . S
N413 C418 1.318 . S
C414 N413 1.328 . S
C414 C415 1.457 . S
C414 H419 0.929 . S
C415 C414 1.457 . S
C415 C416 1.291 1_655 S
C415 H428 0.931 1_655 S
C416 C415 1.291 1_455 S
C416 C417 1.373 1_455 S
C416 H429 0.929 . S
C417 C416 1.373 1_655 S
C417 C418 1.396 . S
C417 C424 1.403 . S
C418 C408 1.476 . S
C418 N413 1.318 . S
C418 C417 1.396 . S
H419 C414 0.929 . S
O420 Mn396 2.385 . S
O420 C398 1.234 . S
O421 Mn396 2.209 . S
O421 Mn397 2.215 . S
O421 C398 1.283 . S
O422 Mn396 2.094 . S
O422 C400 1.240 . S
O423 Mn397 2.117 . S
O423 C400 1.264 . S
C424 C417 1.403 . S
C424 C425 1.399 . S
C424 H430 0.929 1_655 S
C425 C405 1.449 . S
C425 C424 1.399 . S
C425 H431 0.930 . S
H426 C406 0.931 . S
H427 C407 0.930 . S
H428 C415 0.931 1_455 S
H429 C416 0.929 . S
H430 C424 0.929 1_455 S
H431 C425 0.930 . S
C4 C292 1.729 . S
C40 C328 1.729 . S
C364 C76 1.729 . S
C400 C112 1.729 . S
C220 C148 1.729 . S
C256 C184 1.729 . S
C14 C122 1.497 1_545 S
C158 C50 1.497 . S
C194 C86 1.497 1_455 S
C230 C338 1.497 1_655 S
C374 C266 1.497 1_545 S
C302 C410 1.497 . S
C218 C2 1.380 . S
C38 C254 1.379 . S
C290 C74 1.379 1_554 S
C326 C110 1.380 . S
C146 C362 1.379 . S
C398 C182 1.379 1_554 S
C3 C255 1.444 1_545 S
C291 C39 1.444 . S
C327 C75 1.444 1_455 S
C111 C363 1.444 1_565 S
C399 C147 1.444 . S
C219 C183 1.444 1_655 S
