# Generated by pormake.
# Topology snp, (6)-cn, num edge types: 1
# Building blocks:
#     Node 0, Type 0, BuildingBlock: KUMBOL_clean_sbu_1, # of connection points: 6
#     Node 1, Type 0, BuildingBlock: KUMBOL_clean_sbu_1, # of connection points: 6
#     Node 2, Type 0, BuildingBlock: KUMBOL_clean_sbu_1, # of connection points: 6
#     Node 3, Type 0, BuildingBlock: KUMBOL_clean_sbu_1, # of connection points: 6
#     Edge 4, Type (0, 0), BuildingBlock: KIFKEQ_clean_linker_1, # of connection points: 2
#     Edge 5, Type (0, 0), BuildingBlock: KIFKEQ_clean_linker_1, # of connection points: 2
#     Edge 6, Type (0, 0), BuildingBlock: KIFKEQ_clean_linker_1, # of connection points: 2
#     Edge 7, Type (0, 0), BuildingBlock: KIFKEQ_clean_linker_1, # of connection points: 2
#     Edge 8, Type (0, 0), BuildingBlock: KIFKEQ_clean_linker_1, # of connection points: 2
#     Edge 9, Type (0, 0), BuildingBlock: KIFKEQ_clean_linker_1, # of connection points: 2
#     Edge 10, Type (0, 0), BuildingBlock: KIFKEQ_clean_linker_1, # of connection points: 2
#     Edge 11, Type (0, 0), BuildingBlock: KIFKEQ_clean_linker_1, # of connection points: 2
#     Edge 12, Type (0, 0), BuildingBlock: KIFKEQ_clean_linker_1, # of connection points: 2
#     Edge 13, Type (0, 0), BuildingBlock: KIFKEQ_clean_linker_1, # of connection points: 2
#     Edge 14, Type (0, 0), BuildingBlock: KIFKEQ_clean_linker_1, # of connection points: 2
#     Edge 15, Type (0, 0), BuildingBlock: KIFKEQ_clean_linker_1, # of connection points: 2
# Relax obj value: 0.189
# Max RMSD: 0.242
# Mean RMSD: 0.242
data_MOF--net-snp--node1-KUMBOL_clean_sbu_1--edge1-KIFKEQ_clean_linker_1
_symmetry_space_group_name_H-M    P1
_symmetry_Int_Tables_number       1
_symmetry_cell_setting            triclinic
loop_
_symmetry_equiv_pos_as_xyz
'x, y, z'
_cell_length_a     25.112552
_cell_length_b     25.182194
_cell_length_c     34.128754
_cell_angle_alpha  110.99526
_cell_angle_beta   68.994611
_cell_angle_gamma 155.45064
loop_
_atom_site_label
_atom_site_type_symbol
_atom_site_fract_x
_atom_site_fract_y
_atom_site_fract_z
_atom_type_partial_charge
C0 C 0.63675 0.24687 0.19927 0.0
C1 C 0.77809 0.3508 0.24374 0.0
C2 C 0.73949 0.35267 0.22371 0.0
C3 C 0.71046 0.23961 0.23886 0.0
C4 C 0.57046 0.13587 0.1933 0.0
C5 C 0.60708 0.13245 0.21353 0.0
N6 N 0.60096 0.25213 0.1817 0.0
C7 C 0.49814 0.1476 0.15775 0.0
C8 C 0.46877 0.03128 0.16745 0.0
C9 C 0.43273 0.03742 0.14949 0.0
Gd10 Gd 0.91772 0.70508 0.1237 0.0
Gd11 Gd 0.7115 0.43971 0.20105 0.0
N12 N 0.80223 0.45812 0.22785 0.0
C13 C 0.88375 0.46095 0.26797 0.0
C14 C 0.90419 0.56529 0.25201 0.0
C15 C 0.94727 0.56883 0.27202 0.0
H16 H 0.95138 0.64769 0.25643 0.0
H17 H 0.02835 0.65415 0.291 0.0
H18 H 0.73361 0.65484 0.14273 0.0
H19 H 0.46216 0.14612 0.14619 0.0
H20 H 0.74007 0.76337 0.18273 0.0
H21 H 0.91673 0.46356 0.28371 0.0
H22 H 0.73847 0.23614 0.254 0.0
H23 H 0.16271 0.86556 0.15293 0.0
H24 H 0.41634 0.94487 0.16172 0.0
H25 H 0.35189 0.95578 0.13032 0.0
H26 H 0.11847 0.12709 0.2571 0.0
H27 H 0.55685 0.04784 0.20949 0.0
H28 H 0.34309 0.16031 0.2461 0.0
H29 H 0.30795 0.02768 0.20998 0.0
N30 N 0.09416 0.88756 0.16442 0.0
C31 C 0.10534 0.95448 0.18698 0.0
C32 C 0.17071 0.91743 0.17058 0.0
C33 C 0.27383 0.08538 0.2233 0.0
C34 C 0.25668 0.01231 0.20174 0.0
C35 C 0.19692 0.05636 0.21673 0.0
H36 H 0.27198 0.19803 0.26398 0.0
N37 N 0.91169 0.79733 0.1621 0.0
C38 C 0.01389 0.91043 0.18468 0.0
C39 C 0.91918 0.91987 0.20842 0.0
C40 C 0.01783 -0.02759 0.20968 0.0
C41 C 0.81371 0.74399 0.1613 0.0
C42 C 0.81667 0.80498 0.18413 0.0
O43 O 0.66418 0.36241 0.13207 0.0
O44 O 0.7976 0.52139 0.0896 0.0
O45 O 0.05974 0.83388 0.072 0.0
O46 O 0.87963 0.71489 0.08136 0.0
O47 O 0.91599 0.61977 0.17533 0.0
O48 O -0.02582 0.66122 0.10883 0.0
O49 O 0.83952 0.67643 0.19331 0.0
O50 O 0.88551 0.65069 0.21954 0.0
O51 O 0.65419 0.39438 0.26426 0.0
O52 O 0.59477 0.40835 0.24436 0.0
O53 O 0.70638 0.52534 0.12904 0.0
O54 O 0.58613 0.37733 0.17388 0.0
C55 C 0.70711 0.40508 0.09539 0.0
C56 C 0.95379 0.61889 0.13749 0.0
C57 C -0.02273 0.77463 1.01204 0.0
C58 C 0.95858 0.78425 0.94831 0.0
C59 C 0.91418 0.6475 0.94738 0.0
C60 C 0.94266 0.68793 0.98896 0.0
C61 C 0.91915 0.69207 0.92775 0.0
C62 C -0.01345 0.82402 0.99152 0.0
C63 C -0.01216 0.79997 0.05849 0.0
C64 C 0.11419 0.07873 0.23736 0.0
C65 C 0.20185 0.11899 0.24136 0.0
H66 H 0.9193 0.96506 0.22697 0.0
C67 C 0.87737 0.69711 0.22456 0.0
C68 C 0.59937 0.4191 0.14837 0.0
C69 C 0.48774 0.30396 0.30905 0.0
C70 C 0.39196 0.20109 0.3716 0.0
C71 C 0.31525 0.21031 0.35399 0.0
C72 C 0.40732 0.27962 0.31966 0.0
C73 C 0.30829 0.17233 0.38008 0.0
C74 C 0.47873 0.2634 0.33537 0.0
C75 C 0.59456 0.38904 0.27528 0.0
H76 H 0.88423 0.57763 0.93035 0.0
H77 H 0.93325 0.64776 1.00365 0.0
H78 H 0.88842 0.6497 0.89632 0.0
H79 H 0.01323 0.89095 1.00961 0.0
H80 H 0.25066 0.18806 0.36116 0.0
H81 H 0.41646 0.31503 0.30152 0.0
H82 H 0.23834 0.12168 0.40722 0.0
H83 H 0.54459 0.28728 0.32929 0.0
C84 C 0.24499 0.56711 0.53664 0.0
C85 C 0.33491 0.67955 0.481 0.0
C86 C 0.34107 0.6507 0.50562 0.0
C87 C 0.22996 0.62249 0.48823 0.0
C88 C 0.13984 0.51045 0.54434 0.0
C89 C 0.1324 0.53779 0.51978 0.0
N90 N 0.25419 0.54097 0.55917 0.0
C91 C 0.15865 0.4562 0.58955 0.0
C92 C 0.04678 0.43031 0.57713 0.0
C93 C 0.05798 0.40554 0.60047 0.0
Gd94 Gd 0.71912 0.87908 0.6132 0.0
Gd95 Gd 0.42743 0.63003 0.53726 0.0
N96 N 0.44062 0.70361 0.49937 0.0
C97 C 0.43366 0.76366 0.4495 0.0
C98 C 0.53539 0.78299 0.46791 0.0
C99 C 0.53417 0.81523 0.44284 0.0
H100 H 0.61034 0.81886 0.46101 0.0
H101 H 0.60957 0.87802 0.4179 0.0
H102 H 0.86106 0.88646 0.60772 0.0
H103 H 0.15515 0.42222 0.60475 0.0
H104 H 0.03039 -0.02708 0.56227 0.0
H105 H 0.43225 0.78786 0.42982 0.0
H106 H 0.22342 0.64333 0.46965 0.0
H107 H 0.81092 0.0969 0.6108 0.0
H108 H 0.96569 0.38658 0.58452 0.0
H109 H -0.01513 0.34128 0.62533 0.0
H110 H 0.17379 0.19047 0.4635 0.0
H111 H 0.05236 0.49511 0.52528 0.0
H112 H 0.00871 0.22896 0.48821 0.0
H113 H 0.88151 0.18427 0.54849 0.0
N114 N 0.86982 0.06279 0.58174 0.0
C115 C 0.95339 0.10204 0.55172 0.0
C116 C 0.85926 0.10821 0.58379 0.0
C117 C -0.02518 0.18729 0.51512 0.0
C118 C 0.90343 0.16252 0.54912 0.0
C119 C 0.00556 0.16227 0.51714 0.0
H120 H 0.10283 0.21493 0.45523 0.0
N121 N 0.9042 -0.01002 0.58228 0.0
C122 C -0.02303 0.07069 0.55362 0.0
C123 C 0.08686 0.0784 0.52778 0.0
C124 C 0.06419 0.11035 0.52373 0.0
C125 C 0.9226 0.95496 0.58589 0.0
C126 C 0.01682 0.00171 0.55953 0.0
O127 O 0.36253 0.58152 0.60597 0.0
O128 O 0.53497 0.75579 0.64943 0.0
O129 O 0.69471 0.80771 0.65397 0.0
O130 O 0.8349 -0.0002 0.66771 0.0
O131 O 0.5917 0.83355 0.56 0.0
O132 O 0.62485 0.88349 0.62777 0.0
O133 O 0.7083 0.80766 0.54533 0.0
O134 O 0.63889 0.80308 0.51248 0.0
O135 O 0.27194 0.45677 0.49857 0.0
O136 O 0.45139 0.57061 0.4846 0.0
O137 O 0.59923 0.69655 0.57728 0.0
O138 O 0.39333 0.53802 0.57109 0.0
C139 C 0.41131 0.63907 0.64316 0.0
C140 C 0.57862 0.85802 0.59856 0.0
C141 C 0.75586 0.89533 0.72412 0.0
C142 C 0.77639 0.88246 0.78523 0.0
C143 C 0.61447 0.80777 0.78794 0.0
C144 C 0.6571 0.84405 0.74764 0.0
C145 C 0.67107 0.8243 0.80612 0.0
C146 C 0.8167 0.91578 0.74318 0.0
C147 C 0.78377 0.91266 0.67847 0.0
C148 C 0.11467 0.16822 0.48868 0.0
C149 C 0.07852 0.18657 0.48442 0.0
H150 H 0.15408 0.10802 0.50567 0.0
C151 C 0.70881 0.82246 0.51167 0.0
C152 C 0.47385 0.57858 0.58107 0.0
C153 C 0.32236 0.44437 0.42777 0.0
C154 C 0.27081 0.42565 0.36959 0.0
C155 C 0.28496 0.33863 0.36006 0.0
C156 C 0.31154 0.37723 0.40196 0.0
C157 C 0.26536 0.36324 0.34386 0.0
C158 C 0.30019 0.46719 0.41146 0.0
C159 C 0.33749 0.47187 0.47282 0.0
H160 H 0.53499 0.76428 0.80513 0.0
H161 H 0.60965 0.82789 0.73417 0.0
H162 H 0.63011 0.78972 0.83687 0.0
H163 H 0.89419 0.95681 0.7252 0.0
H164 H 0.27815 0.28846 0.34002 0.0
H165 H 0.3212 0.35243 0.4144 0.0
H166 H 0.24207 0.33014 0.31147 0.0
H167 H 0.30025 0.51167 0.43145 0.0
C168 C 0.40994 0.59423 0.05548 0.0
C169 C 0.38288 0.46969 1.01684 0.0
C170 C 0.42354 0.5508 0.0518 0.0
C171 C 0.33626 0.44073 0.98399 0.0
C172 C 0.35712 0.56051 0.02376 0.0
C173 C 0.32564 0.48815 0.98705 0.0
N174 N 0.45691 0.67696 0.08905 0.0
C175 C 0.42328 0.70223 0.09808 0.0
C176 C 0.34485 0.60689 0.0291 0.0
C177 C 0.3763 0.67658 0.06689 0.0
Gd178 Gd 0.89215 0.08532 0.03652 0.0
Gd179 Gd 0.62805 0.79748 0.11674 0.0
N180 N 0.49471 0.60424 0.07946 0.0
C181 C 0.40566 0.4341 1.01369 0.0
C182 C 0.5143 0.56759 0.07763 0.0
C183 C 0.47035 0.48219 0.04465 0.0
H184 H 0.57449 0.61358 0.09914 0.0
H185 H 0.49413 0.46065 0.04176 0.0
H186 H 0.711 0.9148 0.9597 0.0
H187 H 0.44223 0.75163 0.12778 0.0
H188 H 0.65789 0.92489 0.91835 0.0
H189 H 0.37863 0.37419 0.9867 0.0
H190 H 0.31499 0.38777 0.95532 0.0
H191 H 0.09454 0.34996 0.10981 0.0
H192 H 0.30749 0.58599 1.00507 0.0
H193 H 0.36273 0.70903 0.07231 0.0
H194 H 0.89564 0.31008 0.97633 0.0
H195 H 0.29249 0.46783 0.96102 0.0
H196 H 0.1289 0.54102 0.09545 0.0
H197 H 0.16594 0.51195 0.13516 0.0
N198 N -0.0157 0.25995 0.06231 0.0
C199 C 0.96041 0.27303 0.0408 0.0
C200 C 0.06323 0.34918 0.09452 0.0
C201 C 0.08827 0.46228 0.08576 0.0
C202 C 0.10897 0.44587 0.10832 0.0
C203 C 0.01597 0.37733 0.05091 0.0
H204 H 0.03733 0.47161 0.03406 0.0
N205 N 0.82441 0.08039 1.00032 0.0
C206 C 0.87904 0.18119 1.00869 0.0
C207 C 0.7723 0.09864 0.95266 0.0
C208 C 0.85416 0.19295 0.98512 0.0
C209 C 0.74728 -0.01005 0.96803 0.0
C210 C 0.71886 -0.00323 0.94402 0.0
O211 O 0.68602 0.78958 0.0487 0.0
O212 O 0.70888 0.87391 1.01543 0.0
O213 O 0.06201 0.24041 0.99749 0.0
O214 O 0.94235 0.05808 0.97901 0.0
O215 O 0.80462 0.90134 0.0903 0.0
O216 O -0.02941 0.0888 0.05794 0.0
O217 O 0.95999 0.15417 0.10017 0.0
O218 O 0.78079 -0.00364 0.14793 0.0
O219 O 0.50288 0.69103 0.17421 0.0
O220 O 0.66357 0.7789 0.15483 0.0
O221 O 0.69827 0.94662 0.06308 0.0
O222 O 0.66061 0.92376 0.13145 0.0
C223 C 0.69036 0.80496 1.01378 0.0
C224 C 0.92184 0.00581 0.07213 0.0
C225 C 0.07471 0.19584 0.92505 0.0
C226 C 0.08829 0.24478 0.86801 0.0
C227 C 0.17264 0.22645 0.85597 0.0
C228 C 0.13725 0.20199 0.89791 0.0
C229 C 0.14712 0.24645 0.84092 0.0
C230 C 0.05286 0.22039 0.91022 0.0
C231 C 0.04424 0.1746 0.96929 0.0
C232 C 0.91293 0.29896 0.99422 0.0
C233 C -0.00606 0.39112 0.02697 0.0
H234 H 0.75127 0.10455 0.93375 0.0
C235 C 0.9033 0.11514 0.13869 0.0
C236 C 0.68693 -0.02935 0.10233 0.0
C237 C 0.59564 0.74568 0.2272 0.0
C238 C 0.61743 0.72998 0.28658 0.0
C239 C 0.70568 0.90097 0.28796 0.0
C240 C 0.66111 0.85375 0.24912 0.0
C241 C 0.68711 0.84256 0.30588 0.0
C242 C 0.57242 0.68248 0.24632 0.0
C243 C 0.56706 0.71058 0.18263 0.0
H244 H 0.21976 0.22982 0.8351 0.0
H245 H 0.15794 0.18702 0.9093 0.0
H246 H 0.17631 0.26659 0.80833 0.0
H247 H 0.01124 0.22307 0.93129 0.0
H248 H 0.75719 -0.0146 0.30418 0.0
H249 H 0.68129 0.90433 0.23554 0.0
H250 H 0.72932 0.88787 0.33521 0.0
H251 H 0.52133 0.59838 0.22967 0.0
C252 C 0.55628 0.39158 0.68189 0.0
C253 C 0.51136 0.453 0.70446 0.0
C254 C 0.58463 0.47015 0.67949 0.0
C255 C 0.41239 0.35924 0.73328 0.0
C256 C 0.45851 0.29945 0.71155 0.0
C257 C 0.38638 0.28307 0.73678 0.0
N258 N 0.63294 0.41463 0.65881 0.0
C259 C 0.61124 0.34347 0.66239 0.0
C260 C 0.44325 0.23399 0.71751 0.0
C261 C 0.51999 0.25634 0.69313 0.0
Gd262 Gd 0.08346 0.81287 0.70135 0.0
Gd263 Gd 0.81558 0.60049 0.62257 0.0
N264 N 0.69312 0.57284 0.65651 0.0
C265 C 0.54603 0.53696 0.70196 0.0
C266 C 0.72804 0.65534 0.6537 0.0
C267 C 0.65456 0.63817 0.67621 0.0
H268 H 0.81346 0.73538 0.63447 0.0
H269 H 0.68273 0.70396 0.67415 0.0
H270 H 0.87306 0.58076 0.76292 0.0
H271 H 0.66663 0.3563 0.64296 0.0
H272 H 0.86366 0.50389 0.79926 0.0
H273 H 0.49156 0.52627 0.72046 0.0
H274 H 0.35687 0.34636 0.75358 0.0
H275 H 0.36553 0.03455 0.63585 0.0
H276 H 0.37641 0.1703 0.74204 0.0
H277 H 0.51144 0.20931 0.69899 0.0
H278 H 0.26947 0.77022 0.75699 0.0
H279 H 0.31062 0.21237 0.75933 0.0
H280 H 0.55447 0.0697 0.65563 0.0
H281 H 0.54505 0.12976 0.61929 0.0
N282 N 0.25661 0.90122 0.67646 0.0
C283 C 0.2606 0.86686 0.69649 0.0
C284 C 0.35897 -0.00383 0.64937 0.0
C285 C 0.47064 0.02171 0.66161 0.0
C286 C 0.46504 0.05486 0.64075 0.0
C287 C 0.36874 0.9282 0.69033 0.0
H288 H 0.45489 0.94162 0.70893 0.0
N289 N 0.05553 0.71587 0.72985 0.0
C290 C 0.15712 0.77165 0.72407 0.0
C291 C 0.05049 0.6356 0.77261 0.0
C292 C 0.15806 0.73413 0.74574 0.0
C293 C 0.95163 0.62177 0.75684 0.0
C294 C 0.94658 0.57884 0.77804 0.0
O295 O 0.83066 0.6678 0.69286 0.0
O296 O 0.87235 0.64059 0.72285 0.0
O297 O 0.21383 0.94316 0.74983 0.0
O298 O 0.07766 0.88856 0.75544 0.0
O299 O -0.02684 0.80489 0.63893 0.0
O300 O 0.1274 0.92782 0.68084 0.0
O301 O 0.16091 0.87963 0.63583 0.0
O302 O -0.0063 0.70806 0.59095 0.0
O303 O 0.67847 0.46135 0.57439 0.0
O304 O 0.84124 0.66048 0.57296 0.0
O305 O 0.90847 0.60763 0.67629 0.0
O306 O 0.87517 0.55975 0.6089 0.0
C307 C 0.81313 0.63377 0.72475 0.0
C308 C 0.07516 0.91 0.66048 0.0
C309 C 0.21703 0.02865 0.8132 0.0
C310 C 0.31639 0.12033 0.87604 0.0
C311 C 0.28488 0.17936 0.8631 0.0
C312 C 0.22841 0.09809 0.82617 0.0
C313 C 0.32792 0.19002 0.88809 0.0
C314 C 0.26108 0.03988 0.83839 0.0
C315 C 0.16753 0.95159 0.77225 0.0
C316 C 0.26649 0.79687 0.74034 0.0
C317 C 0.37205 0.89449 0.713 0.0
H318 H 0.04728 0.60364 0.78961 0.0
C319 C 0.1164 0.82618 0.59817 0.0
C320 C 0.91394 0.57577 0.63777 0.0
C321 C 0.72842 0.52495 0.50957 0.0
C322 C 0.69441 0.52106 0.44689 0.0
C323 C 0.73204 0.45578 0.43979 0.0
C324 C 0.74269 0.48091 0.48284 0.0
C325 C 0.70811 0.47493 0.42217 0.0
C326 C 0.70377 0.54484 0.49143 0.0
C327 C 0.73471 0.54504 0.55626 0.0
H328 H 0.29608 0.23488 0.87232 0.0
H329 H 0.19297 0.08898 0.80795 0.0
H330 H 0.37036 0.2529 0.91687 0.0
H331 H 0.25428 -0.01214 0.8284 0.0
H332 H 0.74114 0.41956 0.41973 0.0
H333 H 0.76069 0.4643 0.49539 0.0
H334 H 0.69688 0.44934 0.38878 0.0
H335 H 0.69275 0.57909 0.51189 0.0
H336 H 0.8785 0.89436 0.11431 0.0
H337 H 0.14872 0.17227 0.02379 0.0
H338 H 0.0343 -0.02965 0.12306 0.0
H339 H 0.30227 0.2429 0.03223 0.0
H340 H 0.5566 0.35232 0.06686 0.0
H341 H 0.37681 0.21942 0.0375 0.0
H342 H 0.2291 0.19046 0.16315 0.0
H343 H 0.40462 0.315 0.19245 0.0
C344 C -0.02912 -0.02859 0.09625 0.0
C345 C 0.00598 0.03477 0.07077 0.0
C346 C 0.05916 0.01408 0.10149 0.0
C347 C 0.18292 0.11956 0.08155 0.0
C348 C 0.21077 0.16866 0.05064 0.0
C349 C 0.12339 0.12826 0.04584 0.0
C350 C 0.48041 0.30965 0.08828 0.0
C351 C 0.48554 0.33148 0.13219 0.0
C352 C 0.37961 0.23646 0.07139 0.0
C353 C 0.28557 0.18911 0.09828 0.0
C354 C 0.29524 0.21775 0.14212 0.0
C355 C 0.39431 0.28791 0.15898 0.0
H356 H 0.18861 0.00922 0.58709 0.0
H357 H 0.10687 0.0449 0.71638 0.0
H358 H 0.29562 0.18285 0.57131 0.0
H359 H 0.19893 0.20835 0.69923 0.0
H360 H 0.23608 0.36391 0.61922 0.0
H361 H 0.14595 0.20942 0.6441 0.0
H362 H 0.49814 0.42784 0.59859 0.0
H363 H 0.59114 0.58593 0.57522 0.0
C364 C 0.19879 0.05845 0.61243 0.0
C365 C 0.14839 0.02134 0.65349 0.0
C366 C 0.25699 0.15515 0.60324 0.0
C367 C 0.25841 0.21041 0.63446 0.0
C368 C 0.2008 0.16799 0.67506 0.0
C369 C 0.14866 0.07554 0.68485 0.0
C370 C 0.29459 0.37945 0.61492 0.0
C371 C 0.42026 0.48617 0.59542 0.0
C372 C 0.24351 0.29208 0.62948 0.0
C373 C 0.31638 0.30888 0.62348 0.0
C374 C 0.44146 0.41475 0.60368 0.0
C375 C 0.4941 0.50431 0.59029 0.0
H376 H 0.60611 0.96514 0.0615 0.0
H377 H 0.81775 0.16355 0.16594 0.0
H378 H 0.66971 0.11761 0.06875 0.0
H379 H 0.88876 0.32168 0.17294 0.0
H380 H 0.04111 0.6301 0.17756 0.0
H381 H -0.02764 0.47406 0.17234 0.0
H382 H 0.76654 0.2776 0.06472 0.0
H383 H 0.84965 0.44337 0.06834 0.0
C384 C 0.66623 0.04184 0.08646 0.0
C385 C 0.70859 0.05276 0.1126 0.0
C386 C 0.70548 0.13259 0.09049 0.0
C387 C 0.7926 0.24137 0.12017 0.0
C388 C 0.82593 0.24499 0.14851 0.0
C389 C 0.78377 0.15207 0.14498 0.0
C390 C -0.02071 0.55185 0.15319 0.0
C391 C 0.93797 0.54122 0.12657 0.0
C392 C 0.93786 0.45963 0.15009 0.0
C393 C 0.85027 0.35029 0.12064 0.0
C394 C 0.82333 0.35046 0.09058 0.0
C395 C 0.87024 0.44646 0.09273 0.0
H396 H 0.38794 0.7313 0.66401 0.0
H397 H 0.57473 0.92752 0.55616 0.0
H398 H 0.22294 0.65142 0.66965 0.0
H399 H 0.4168 0.85712 0.56257 0.0
H400 H 0.10806 0.70766 0.57286 0.0
H401 H 0.27189 0.78642 0.56668 0.0
H402 H 0.06137 0.55403 0.66612 0.0
H403 H 0.90571 0.48788 0.67448 0.0
C404 C 0.3944 0.7584 0.64152 0.0
C405 C 0.49271 0.83211 0.60863 0.0
C406 C 0.29785 0.71171 0.6445 0.0
C407 C 0.29833 0.74143 0.61578 0.0
C408 C 0.40551 0.82628 0.58532 0.0
C409 C 0.49908 0.86887 0.58156 0.0
C410 C 0.09854 0.6762 0.59423 0.0
C411 C -0.00266 0.59813 0.62621 0.0
C412 C 0.19401 0.72123 0.59057 0.0
C413 C 0.18941 0.68502 0.61745 0.0
C414 C 0.07767 0.59307 0.64589 0.0
C415 C -0.01487 0.55232 0.65053 0.0
H416 H 0.80045 0.79542 0.48869 0.0
H417 H 0.80314 0.93887 0.44543 0.0
H418 H 0.90013 0.82448 0.42088 0.0
H419 H 0.90906 -0.02512 0.37813 0.0
H420 H 0.8217 0.76006 0.25193 0.0
H421 H 0.8507 0.85907 0.31875 0.0
H422 H 0.02159 0.88888 0.36005 0.0
H423 H 0.00169 0.79857 0.29038 0.0
C424 C 0.82343 0.83441 0.46472 0.0
C425 C 0.78619 0.85723 0.47186 0.0
C426 C 0.88282 0.853 0.42552 0.0
C427 C 0.90704 0.89513 0.39204 0.0
C428 C 0.88502 0.93403 0.40146 0.0
C429 C 0.82339 0.91305 0.44036 0.0
C430 C 0.87044 0.79257 0.2745 0.0
C431 C 0.90684 0.76871 0.26549 0.0
C432 C 0.88666 0.84938 0.31371 0.0
C433 C 0.93213 0.87685 0.34682 0.0
C434 C -0.01969 0.8642 0.33658 0.0
C435 C 0.96832 0.81142 0.29642 0.0
H436 H 0.45109 0.61055 0.68785 0.0
H437 H 0.18433 0.49481 0.68006 0.0
H438 H 0.33543 0.50713 0.75257 0.0
H439 H 0.0634 0.38515 0.74552 0.0
H440 H 0.91672 0.10017 0.81579 0.0
H441 H 0.96284 0.18782 0.76426 0.0
H442 H 0.28604 0.56183 0.83115 0.0
H443 H 0.24071 0.4735 0.88182 0.0
C444 C 0.36763 0.56319 0.70024 0.0
C445 C 0.32799 0.5627 0.6796 0.0
C446 C 0.30164 0.5042 0.73723 0.0
C447 C 0.19343 0.44213 0.75443 0.0
C448 C 0.1485 0.4351 0.73297 0.0
C449 C 0.21638 0.49616 0.69555 0.0
C450 C -0.00711 0.19915 0.82051 0.0
C451 C 0.07666 0.28064 0.8518 0.0
C452 C 0.01856 0.2492 0.79142 0.0
C453 C 0.1285 0.38149 0.79375 0.0
C454 C 0.20009 0.45917 0.82906 0.0
C455 C 0.17446 0.40889 0.85798 0.0
H456 H 0.56243 0.508 0.47744 0.0
H457 H 0.76904 0.58014 0.36441 0.0
H458 H 0.52184 0.53502 0.44001 0.0
H459 H 0.71614 0.59289 0.327 0.0
H460 H 0.58602 0.58274 0.25495 0.0
H461 H 0.58883 0.51951 0.29276 0.0
H462 H 0.59761 0.66851 0.40999 0.0
H463 H 0.59398 0.73054 0.37298 0.0
C464 C 0.59845 0.52818 0.44469 0.0
C465 C 0.66885 0.54011 0.42479 0.0
C466 C 0.57305 0.54196 0.42262 0.0
C467 C 0.61386 0.56533 0.37933 0.0
C468 C 0.68176 0.57471 0.35971 0.0
C469 C 0.71103 0.56547 0.38175 0.0
C470 C 0.58623 0.60037 0.2889 0.0
C471 C 0.5959 0.66838 0.30981 0.0
C472 C 0.58732 0.56305 0.31112 0.0
C473 C 0.59597 0.58992 0.3554 0.0
C474 C 0.59544 0.64884 0.37625 0.0
C475 C 0.59463 0.68617 0.35433 0.0
H476 H 0.20006 0.93496 0.90336 0.0
H477 H 0.54963 0.3449 0.90731 0.0
H478 H 0.28416 -0.03253 0.95046 0.0
H479 H 0.63243 0.37719 0.95384 0.0
H480 H 0.8128 0.45126 1.01526 0.0
H481 H 0.7067 0.35044 0.95342 0.0
H482 H 0.3412 0.05737 0.02762 0.0
H483 H 0.4471 0.15696 0.08941 0.0
C484 C 0.29517 0.03167 0.9139 0.0
C485 C 0.36813 0.13743 0.90199 0.0
C486 C 0.34312 0.05018 0.94074 0.0
C487 C 0.46602 0.17492 0.95509 0.0
C488 C 0.53909 0.28003 0.94237 0.0
C489 C 0.49091 0.26159 0.91619 0.0
C490 C 0.70882 0.36112 1.01794 0.0
C491 C 0.63884 0.31362 0.05749 0.0
C492 C 0.64812 0.30396 0.98253 0.0
C493 C 0.51668 0.19929 0.98619 0.0
C494 C 0.4429 0.13851 0.02392 0.0
C495 C 0.50384 0.19514 0.05946 0.0
H496 H 0.71713 0.71298 0.9899 0.0
H497 H 0.58423 0.72148 0.94621 0.0
H498 H 0.68773 0.61386 0.92192 0.0
H499 H 0.54601 0.61493 0.87913 0.0
H500 H 0.72795 0.6674 0.74944 0.0
H501 H 0.63744 0.64723 0.81749 0.0
H502 H 0.63302 0.50208 0.86151 0.0
H503 H 0.7206 0.51934 0.79194 0.0
C504 C 0.68057 0.69276 0.96574 0.0
C505 C 0.66008 0.73222 0.97308 0.0
C506 C 0.66155 0.63348 0.92635 0.0
C507 C 0.62106 0.61126 0.89271 0.0
C508 C 0.58576 0.63703 0.90223 0.0
C509 C 0.60804 0.69924 0.94119 0.0
C510 C 0.70489 0.62825 0.77326 0.0
C511 C 0.73795 0.60118 0.76524 0.0
C512 C 0.65244 0.61666 0.81317 0.0
C513 C 0.63532 0.58192 0.84737 0.0
C514 C 0.65221 0.53798 0.83761 0.0
C515 C 0.70301 0.54784 0.79727 0.0
H516 H 0.39774 0.09141 0.35514 0.0
H517 H 0.39124 0.24862 0.45671 0.0
H518 H 0.38057 0.02827 0.40666 0.0
H519 H 0.37671 0.1882 0.50763 0.0
H520 H 0.07716 0.73739 0.51537 0.0
H521 H 0.18881 0.85656 0.45659 0.0
H522 H 0.47299 0.20854 0.53752 0.0
H523 H 0.36 0.0889 0.59696 0.0
C524 C 0.39489 0.11435 0.38838 0.0
C525 C 0.39297 0.17232 0.40201 0.0
C526 C 0.38561 0.07878 0.41778 0.0
C527 C 0.37691 0.103 0.4612 0.0
C528 C 0.38365 0.16858 0.4745 0.0
C529 C 0.38995 0.2014 0.44532 0.0
C530 C 0.16591 0.84081 0.5205 0.0
C531 C 0.20741 0.90301 0.56121 0.0
C532 C 0.23069 0.90939 0.48657 0.0
C533 C 0.33807 0.04151 0.49269 0.0
C534 C 0.38944 0.10637 0.53212 0.0
C535 C 0.32526 0.03771 0.5661 0.0
H536 H 0.78845 0.92016 0.87175 0.0
H537 H 0.91321 0.90221 0.75328 0.0
H538 H 0.85252 0.91877 0.90871 0.0
H539 H -0.01229 0.91169 0.79094 0.0
H540 H 0.95431 0.75829 0.86109 0.0
H541 H 0.93175 0.80163 0.82501 0.0
H542 H -0.02463 -0.01671 0.93898 0.0
H543 H -0.01588 0.92725 0.97761 0.0
C544 C 0.829 0.91521 0.85301 0.0
C545 C 0.83934 0.90552 0.80842 0.0
C546 C 0.86847 0.91664 0.87491 0.0
C547 C 0.92377 0.91194 0.85397 0.0
C548 C 0.94506 0.91422 0.80947 0.0
C549 C 0.90329 0.91046 0.78728 0.0
C550 C 0.95432 0.80292 0.88008 0.0
C551 C 0.96414 0.83115 0.92426 0.0
C552 C 0.94427 0.83133 0.85814 0.0
C553 C 0.94853 0.8945 0.87806 0.0
C554 C 0.96841 0.93218 0.92158 0.0
C555 C -0.02503 0.90051 0.94417 0.0
H556 H 0.81965 0.11747 0.21445 0.0
H557 H 0.15637 0.32331 0.14545 0.0
H558 H 0.92733 0.24396 0.27892 0.0
H559 H 0.26161 0.44419 0.21096 0.0
H560 H 0.42095 0.62004 0.33096 0.0
H561 H 0.3486 0.58592 0.27577 0.0
H562 H 0.95501 0.20795 0.31631 0.0
H563 H 0.02891 0.24133 0.36898 0.0
C564 C 0.91808 0.19201 0.21293 0.0
C565 C -0.02077 0.20953 0.17512 0.0
C566 C -0.02034 0.26429 0.24996 0.0
C567 C 0.1018 0.35207 0.25037 0.0
C568 C 0.1678 0.37805 0.21178 0.0
C569 C 0.10717 0.30788 0.17428 0.0
C570 C 0.31942 0.53162 0.32824 0.0
C571 C 0.23051 0.43175 0.35268 0.0
C572 C 0.27778 0.51188 0.29694 0.0
C573 C 0.14616 0.39251 0.29069 0.0
C574 C 0.057 0.30062 0.31983 0.0
C575 C 0.09895 0.31971 0.35035 0.0
loop_
_geom_bond_atom_site_label_1
_geom_bond_atom_site_label_2
_geom_bond_distance
_geom_bond_site_symmetry_2
_ccdc_geom_bond_type
C0 C2 1.422 . S
C0 C4 1.415 1_545 S
C0 N6 1.369 . S
C1 C2 1.421 1_565 S
C1 C3 1.417 . S
C1 C13 1.422 . S
C2 C0 1.422 . S
C2 C1 1.421 1_545 S
C2 N12 1.359 . S
C3 C1 1.417 . S
C3 C5 1.329 . S
C3 H22 0.930 . S
C4 C0 1.415 1_565 S
C4 C5 1.437 . S
C4 C8 1.413 . S
C5 C3 1.329 . S
C5 C4 1.437 . S
C5 H27 0.929 1_455 S
N6 C0 1.369 . S
N6 C7 1.338 . S
N6 Gd11 2.622 . S
C7 N6 1.338 . S
C7 C9 1.378 1_545 S
C7 H19 0.929 . S
C8 C4 1.413 . S
C8 C9 1.348 . S
C8 H24 0.931 1_455 S
C9 C7 1.378 1_565 S
C9 C8 1.348 . S
C9 H25 0.930 . S
Gd10 N30 2.622 1_655 S
Gd10 N37 2.570 1_655 S
Gd10 O44 2.353 . S
Gd10 O45 2.468 . S
Gd10 O46 2.427 1_655 S
Gd10 O48 2.388 1_655 S
Gd10 O49 2.386 . S
Gd10 O53 2.307 . S
Gd10 C63 2.805 1_655 S
Gd11 N6 2.622 . S
Gd11 N12 2.570 . S
Gd11 O43 2.386 . S
Gd11 O47 2.307 . S
Gd11 O50 2.353 . S
Gd11 O51 2.468 . S
Gd11 O52 2.427 . S
Gd11 O54 2.388 . S
Gd11 C75 2.805 . S
N12 C2 1.359 . S
N12 Gd11 2.570 . S
N12 C14 1.343 . S
C13 C1 1.422 . S
C13 C15 1.321 1_565 S
C13 H21 0.931 . S
C14 N12 1.343 . S
C14 C15 1.390 . S
C14 H16 0.931 . S
C15 C13 1.321 1_545 S
C15 C14 1.390 . S
C15 H17 0.930 . S
H16 C14 0.931 . S
H17 C15 0.930 . S
H18 C41 0.931 1_655 S
H19 C7 0.929 . S
H20 C42 0.930 . S
H21 C13 0.931 . S
H22 C3 0.930 . S
H23 C32 0.929 . S
H24 C8 0.931 1_655 S
H25 C9 0.930 . S
H26 C64 0.930 . S
H27 C5 0.929 1_655 S
H28 C33 0.931 . S
H29 C34 0.930 . S
N30 Gd10 2.622 1_455 S
N30 C31 1.369 1_565 S
N30 C32 1.338 . S
C31 N30 1.369 1_545 S
C31 C35 1.415 . S
C31 C38 1.422 . S
C32 H23 0.929 . S
C32 N30 1.338 . S
C32 C34 1.378 1_565 S
C33 H28 0.931 . S
C33 C34 1.348 . S
C33 C35 1.413 . S
C34 H29 0.930 . S
C34 C32 1.378 1_545 S
C34 C33 1.348 . S
C35 C31 1.415 . S
C35 C33 1.413 . S
C35 C65 1.437 . S
H36 C65 0.929 . S
N37 Gd10 2.570 1_455 S
N37 C38 1.359 1_565 S
N37 C41 1.343 . S
C38 C31 1.422 . S
C38 N37 1.359 1_545 S
C38 C40 1.421 . S
C39 C40 1.422 . S
C39 C42 1.321 . S
C39 H66 0.931 . S
C40 C38 1.421 . S
C40 C39 1.422 . S
C40 C64 1.417 . S
C41 H18 0.931 1_455 S
C41 N37 1.343 . S
C41 C42 1.390 1_565 S
C42 H20 0.930 . S
C42 C39 1.321 . S
C42 C41 1.390 1_545 S
O43 Gd11 2.386 . S
O43 C55 1.265 . S
O44 Gd10 2.353 . S
O44 C55 1.242 . S
O45 Gd10 2.468 . S
O45 C63 1.263 1_655 S
O46 Gd10 2.427 1_455 S
O46 C63 1.252 . S
O47 Gd11 2.307 . S
O47 C56 1.261 . S
O48 Gd10 2.388 1_455 S
O48 C56 1.252 1_455 S
O49 Gd10 2.386 . S
O49 C67 1.265 . S
O50 Gd11 2.353 . S
O50 C67 1.242 . S
O51 Gd11 2.468 . S
O51 C75 1.263 . S
O52 Gd11 2.427 . S
O52 C75 1.252 . S
O53 Gd10 2.307 . S
O53 C68 1.261 . S
O54 Gd11 2.388 . S
O54 C68 1.252 . S
C55 O43 1.265 . S
C55 O44 1.242 . S
C56 O47 1.261 . S
C56 O48 1.252 1_655 S
C57 C60 1.394 . S
C57 C62 1.370 . S
C57 C63 1.500 1_556 S
C58 C61 1.383 1_565 S
C58 C62 1.395 . S
C59 C60 1.396 1_545 S
C59 C61 1.365 . S
C59 H76 0.929 . S
C60 C57 1.394 . S
C60 C59 1.396 1_565 S
C60 H77 0.930 . S
C61 C58 1.383 1_545 S
C61 C59 1.365 . S
C61 H78 0.931 . S
C62 C57 1.370 . S
C62 C58 1.395 . S
C62 H79 0.930 1_455 S
C63 Gd10 2.805 1_455 S
C63 O45 1.263 1_455 S
C63 O46 1.252 . S
C63 C57 1.500 1_554 S
C64 H26 0.930 . S
C64 C40 1.417 . S
C64 C65 1.329 . S
C65 C35 1.437 . S
C65 H36 0.929 . S
C65 C64 1.329 . S
H66 C39 0.931 . S
C67 O49 1.265 . S
C67 O50 1.242 . S
C68 O53 1.261 . S
C68 O54 1.252 . S
C69 C72 1.394 . S
C69 C74 1.370 . S
C69 C75 1.500 . S
C70 C73 1.383 . S
C70 C74 1.395 . S
C71 C72 1.396 . S
C71 C73 1.365 . S
C71 H80 0.929 . S
C72 C69 1.394 . S
C72 C71 1.396 . S
C72 H81 0.930 . S
C73 C70 1.383 . S
C73 C71 1.365 . S
C73 H82 0.931 . S
C74 C69 1.370 . S
C74 C70 1.395 . S
C74 H83 0.930 . S
C75 Gd11 2.805 . S
C75 O51 1.263 . S
C75 O52 1.252 . S
C75 C69 1.500 . S
H76 C59 0.929 . S
H77 C60 0.930 . S
H78 C61 0.931 . S
H79 C62 0.930 1_655 S
H80 C71 0.929 . S
H81 C72 0.930 . S
H82 C73 0.931 . S
H83 C74 0.930 . S
C84 C86 1.422 . S
C84 C88 1.415 1_455 S
C84 N90 1.369 . S
C85 C86 1.421 1_655 S
C85 C87 1.417 . S
C85 C97 1.422 . S
C86 C84 1.422 . S
C86 C85 1.421 1_455 S
C86 N96 1.359 . S
C87 C85 1.417 . S
C87 C89 1.329 . S
C87 H106 0.930 . S
C88 C84 1.415 1_655 S
C88 C89 1.437 . S
C88 C92 1.413 . S
C89 C87 1.329 . S
C89 C88 1.437 . S
C89 H111 0.929 1_545 S
N90 C84 1.369 . S
N90 C91 1.338 . S
N90 Gd95 2.622 . S
C91 N90 1.338 . S
C91 C93 1.378 . S
C91 H103 0.929 . S
C92 C88 1.413 . S
C92 C93 1.348 1_655 S
C92 H108 0.931 1_545 S
C93 C91 1.378 . S
C93 C92 1.348 1_455 S
C93 H109 0.930 . S
Gd94 N114 2.622 1_665 S
Gd94 N121 2.570 1_565 S
Gd94 O128 2.353 . S
Gd94 O129 2.468 . S
Gd94 O130 2.427 1_565 S
Gd94 O132 2.388 . S
Gd94 O133 2.386 . S
Gd94 O137 2.307 . S
Gd94 C147 2.805 1_565 S
Gd95 N90 2.622 . S
Gd95 N96 2.570 . S
Gd95 O127 2.386 . S
Gd95 O131 2.307 . S
Gd95 O134 2.353 . S
Gd95 O135 2.468 . S
Gd95 O136 2.427 . S
Gd95 O138 2.388 . S
Gd95 C159 2.805 . S
N96 C86 1.359 . S
N96 Gd95 2.570 . S
N96 C98 1.343 . S
C97 C85 1.422 . S
C97 C99 1.321 1_655 S
C97 H105 0.931 . S
C98 N96 1.343 . S
C98 C99 1.390 . S
C98 H100 0.931 . S
C99 C97 1.321 1_455 S
C99 C98 1.390 . S
C99 H101 0.930 . S
H100 C98 0.931 . S
H101 C99 0.930 . S
H102 C125 0.931 . S
H103 C91 0.929 . S
H104 C126 0.929 1_565 S
H105 C97 0.931 . S
H106 C87 0.930 . S
H107 C116 0.929 1_655 S
H108 C92 0.931 1_565 S
H109 C93 0.930 . S
H110 C148 0.930 . S
H111 C89 0.929 1_565 S
H112 C117 0.931 . S
H113 C118 0.930 . S
N114 Gd94 2.622 1_445 S
N114 C115 1.369 . S
N114 C116 1.338 . S
C115 N114 1.369 . S
C115 C119 1.415 . S
C115 C122 1.422 . S
C116 H107 0.929 1_455 S
C116 N114 1.338 . S
C116 C118 1.378 . S
C117 H112 0.931 . S
C117 C118 1.348 . S
C117 C119 1.413 . S
C118 H113 0.930 . S
C118 C116 1.378 . S
C118 C117 1.348 . S
C119 C115 1.415 . S
C119 C117 1.413 . S
C119 C149 1.437 . S
H120 C149 0.929 . S
N121 Gd94 2.570 1_545 S
N121 C122 1.359 1_655 S
N121 C125 1.343 1_545 S
C122 C115 1.422 . S
C122 N121 1.359 1_455 S
C122 C124 1.421 . S
C123 C124 1.422 . S
C123 C126 1.321 . S
C123 H150 0.931 . S
C124 C122 1.421 . S
C124 C123 1.422 . S
C124 C148 1.417 . S
C125 H102 0.931 . S
C125 N121 1.343 1_565 S
C125 C126 1.390 1_665 S
C126 H104 0.929 1_545 S
C126 C123 1.321 . S
C126 C125 1.390 1_445 S
O127 Gd95 2.386 . S
O127 C139 1.265 . S
O128 Gd94 2.353 . S
O128 C139 1.242 . S
O129 Gd94 2.468 . S
O129 C147 1.263 1_565 S
O130 Gd94 2.427 1_545 S
O130 C147 1.252 . S
O131 Gd95 2.307 . S
O131 C140 1.261 . S
O132 Gd94 2.388 . S
O132 C140 1.252 . S
O133 Gd94 2.386 . S
O133 C151 1.265 . S
O134 Gd95 2.353 . S
O134 C151 1.242 . S
O135 Gd95 2.468 . S
O135 C159 1.263 . S
O136 Gd95 2.427 . S
O136 C159 1.252 . S
O137 Gd94 2.307 . S
O137 C152 1.261 . S
O138 Gd95 2.388 . S
O138 C152 1.252 . S
C139 O127 1.265 . S
C139 O128 1.242 . S
C140 O131 1.261 . S
C140 O132 1.252 . S
C141 C144 1.394 1_655 S
C141 C146 1.370 . S
C141 C147 1.500 . S
C142 C145 1.383 1_655 S
C142 C146 1.395 . S
C143 C144 1.396 . S
C143 C145 1.365 . S
C143 H160 0.929 . S
C144 C141 1.394 1_455 S
C144 C143 1.396 . S
C144 H161 0.930 . S
C145 C142 1.383 1_455 S
C145 C143 1.365 . S
C145 H162 0.931 . S
C146 C141 1.370 . S
C146 C142 1.395 . S
C146 H163 0.930 1_545 S
C147 Gd94 2.805 1_545 S
C147 O129 1.263 1_545 S
C147 O130 1.252 . S
C147 C141 1.500 . S
C148 H110 0.930 . S
C148 C124 1.417 . S
C148 C149 1.329 . S
C149 C119 1.437 . S
C149 H120 0.929 . S
C149 C148 1.329 . S
H150 C123 0.931 . S
C151 O133 1.265 . S
C151 O134 1.242 . S
C152 O137 1.261 . S
C152 O138 1.252 . S
C153 C156 1.394 . S
C153 C158 1.370 . S
C153 C159 1.500 . S
C154 C157 1.383 . S
C154 C158 1.395 . S
C155 C156 1.396 . S
C155 C157 1.365 . S
C155 H164 0.929 . S
C156 C153 1.394 . S
C156 C155 1.396 . S
C156 H165 0.930 . S
C157 C154 1.383 . S
C157 C155 1.365 . S
C157 H166 0.931 . S
C158 C153 1.370 . S
C158 C154 1.395 . S
C158 H167 0.930 . S
C159 Gd95 2.805 . S
C159 O135 1.263 . S
C159 O136 1.252 . S
C159 C153 1.500 . S
H160 C143 0.929 . S
H161 C144 0.930 . S
H162 C145 0.931 . S
H163 C146 0.930 1_565 S
H164 C155 0.929 . S
H165 C156 0.930 . S
H166 C157 0.931 . S
H167 C158 0.930 . S
C168 C170 1.422 . S
C168 C172 1.415 . S
C168 N174 1.369 . S
C169 C170 1.421 . S
C169 C171 1.417 . S
C169 C181 1.422 . S
C170 C168 1.422 . S
C170 C169 1.421 . S
C170 N180 1.359 . S
C171 C169 1.417 . S
C171 C173 1.329 . S
C171 H190 0.930 . S
C172 C168 1.415 . S
C172 C173 1.437 . S
C172 C176 1.413 . S
C173 C171 1.329 . S
C173 C172 1.437 . S
C173 H195 0.929 . S
N174 C168 1.369 . S
N174 C175 1.338 . S
N174 Gd179 2.622 . S
C175 N174 1.338 . S
C175 C177 1.378 . S
C175 H187 0.929 . S
C176 C172 1.413 . S
C176 C177 1.348 . S
C176 H192 0.931 . S
C177 C175 1.378 . S
C177 C176 1.348 . S
C177 H193 0.930 . S
Gd178 N198 2.622 . S
Gd178 N205 2.570 . S
Gd178 O212 2.353 1_445 S
Gd178 O213 2.485 . S
Gd178 O214 2.427 1_554 S
Gd178 O216 2.388 . S
Gd178 O217 2.384 . S
Gd178 O221 2.307 1_455 S
Gd178 C231 2.805 1_554 S
Gd179 N174 2.622 . S
Gd179 N180 2.570 . S
Gd179 O211 2.386 . S
Gd179 O215 2.307 . S
Gd179 O218 2.353 1_565 S
Gd179 O219 2.468 . S
Gd179 O220 2.427 . S
Gd179 O222 2.388 . S
Gd179 C243 2.805 . S
N180 C170 1.359 . S
N180 Gd179 2.570 . S
N180 C182 1.343 . S
C181 C169 1.422 . S
C181 C183 1.321 . S
C181 H189 0.931 . S
C182 N180 1.343 . S
C182 C183 1.390 . S
C182 H184 0.931 . S
C183 C181 1.321 . S
C183 C182 1.390 . S
C183 H185 0.930 . S
H184 C182 0.931 . S
H185 C183 0.930 . S
H186 C209 0.931 1_655 S
H187 C175 0.929 . S
H188 C210 0.930 . S
H189 C181 0.931 . S
H190 C171 0.930 . S
H191 C200 0.929 . S
H192 C176 0.931 . S
H193 C177 0.930 . S
H194 C232 0.930 . S
H195 C173 0.929 . S
H196 C201 0.931 . S
H197 C202 0.930 . S
N198 Gd178 2.622 . S
N198 C199 1.369 . S
N198 C200 1.338 . S
C199 N198 1.369 . S
C199 C203 1.415 . S
C199 C206 1.422 . S
C200 H191 0.929 . S
C200 N198 1.338 . S
C200 C202 1.378 . S
C201 H196 0.931 . S
C201 C202 1.348 . S
C201 C203 1.413 . S
C202 H197 0.930 . S
C202 C200 1.378 . S
C202 C201 1.348 . S
C203 C199 1.415 . S
C203 C201 1.413 . S
C203 C233 1.437 . S
H204 C233 0.929 . S
N205 Gd178 2.570 . S
N205 C206 1.359 . S
N205 C209 1.343 . S
C206 C199 1.422 . S
C206 N205 1.359 . S
C206 C208 1.421 . S
C207 C208 1.422 . S
C207 C210 1.321 . S
C207 H234 0.931 . S
C208 C206 1.421 . S
C208 C207 1.422 . S
C208 C232 1.417 . S
C209 H186 0.931 1_455 S
C209 N205 1.343 . S
C209 C210 1.390 . S
C210 H188 0.930 . S
C210 C207 1.321 . S
C210 C209 1.390 . S
O211 Gd179 2.386 . S
O211 C223 1.265 . S
O212 Gd178 2.353 1_665 S
O212 C223 1.242 . S
O213 Gd178 2.485 . S
O213 C231 1.278 1_554 S
O214 Gd178 2.427 1_556 S
O214 C231 1.252 . S
O215 Gd179 2.307 . S
O215 C224 1.261 1_565 S
O216 Gd178 2.388 . S
O216 C224 1.252 1_455 S
O217 Gd178 2.384 . S
O217 C235 1.264 1_455 S
O218 Gd179 2.353 1_545 S
O218 C235 1.242 . S
O219 Gd179 2.468 . S
O219 C243 1.263 . S
O220 Gd179 2.427 . S
O220 C243 1.252 . S
O221 Gd178 2.307 1_655 S
O221 C236 1.261 1_545 S
O222 Gd179 2.388 . S
O222 C236 1.252 . S
C223 O211 1.265 . S
C223 O212 1.242 . S
C224 O215 1.261 1_545 S
C224 O216 1.252 1_655 S
C225 C228 1.394 . S
C225 C230 1.370 . S
C225 C231 1.500 . S
C226 C229 1.383 . S
C226 C230 1.395 . S
C227 C228 1.396 . S
C227 C229 1.365 . S
C227 H244 0.929 . S
C228 C225 1.394 . S
C228 C227 1.396 . S
C228 H245 0.930 . S
C229 C226 1.383 . S
C229 C227 1.365 . S
C229 H246 0.931 . S
C230 C225 1.370 . S
C230 C226 1.395 . S
C230 H247 0.930 . S
C231 Gd178 2.805 1_556 S
C231 O213 1.278 1_556 S
C231 O214 1.252 . S
C231 C225 1.500 . S
C232 H194 0.930 . S
C232 C208 1.417 . S
C232 C233 1.329 . S
C233 C203 1.437 . S
C233 H204 0.929 . S
C233 C232 1.329 . S
H234 C207 0.931 . S
C235 O217 1.264 1_655 S
C235 O218 1.242 . S
C236 O221 1.261 1_565 S
C236 O222 1.252 . S
C237 C240 1.394 . S
C237 C242 1.370 . S
C237 C243 1.500 . S
C238 C241 1.383 . S
C238 C242 1.395 . S
C239 C240 1.396 . S
C239 C241 1.365 . S
C239 H248 0.929 . S
C240 C237 1.394 . S
C240 C239 1.396 . S
C240 H249 0.930 . S
C241 C238 1.383 . S
C241 C239 1.365 . S
C241 H250 0.931 . S
C242 C237 1.370 . S
C242 C238 1.395 . S
C242 H251 0.930 . S
C243 Gd179 2.805 . S
C243 O219 1.263 . S
C243 O220 1.252 . S
C243 C237 1.500 . S
H244 C227 0.929 . S
H245 C228 0.930 . S
H246 C229 0.931 . S
H247 C230 0.930 . S
H248 C239 0.929 . S
H249 C240 0.930 . S
H250 C241 0.931 . S
H251 C242 0.930 . S
C252 C254 1.422 . S
C252 C256 1.415 . S
C252 N258 1.369 . S
C253 C254 1.421 . S
C253 C255 1.417 . S
C253 C265 1.422 . S
C254 C252 1.422 . S
C254 C253 1.421 . S
C254 N264 1.359 . S
C255 C253 1.417 . S
C255 C257 1.329 . S
C255 H274 0.930 . S
C256 C252 1.415 . S
C256 C257 1.437 . S
C256 C260 1.413 . S
C257 C255 1.329 . S
C257 C256 1.437 . S
C257 H279 0.929 . S
N258 C252 1.369 . S
N258 C259 1.338 . S
N258 Gd263 2.622 . S
C259 N258 1.338 . S
C259 C261 1.378 . S
C259 H271 0.929 . S
C260 C256 1.413 . S
C260 C261 1.348 . S
C260 H276 0.929 1_545 S
C261 C259 1.378 . S
C261 C260 1.348 . S
C261 H277 0.930 . S
Gd262 N282 2.622 1_565 S
Gd262 N289 2.570 1_565 S
Gd262 O296 2.353 . S
Gd262 O297 2.468 . S
Gd262 O298 2.427 1_565 S
Gd262 O300 2.388 1_565 S
Gd262 O301 2.386 . S
Gd262 O305 2.307 . S
Gd262 C315 2.805 1_565 S
Gd263 N258 2.622 . S
Gd263 N264 2.570 . S
Gd263 O295 2.386 . S
Gd263 O299 2.307 . S
Gd263 O302 2.353 1_655 S
Gd263 O303 2.468 . S
Gd263 O304 2.427 . S
Gd263 O306 2.388 . S
Gd263 C327 2.805 . S
N264 C254 1.359 . S
N264 Gd263 2.570 . S
N264 C266 1.343 . S
C265 C253 1.422 . S
C265 C267 1.321 . S
C265 H273 0.931 . S
C266 N264 1.343 . S
C266 C267 1.390 . S
C266 H268 0.931 . S
C267 C265 1.321 . S
C267 C266 1.390 . S
C267 H269 0.930 . S
H268 C266 0.931 . S
H269 C267 0.930 . S
H270 C293 0.931 1_565 S
H271 C259 0.929 . S
H272 C294 0.930 . S
H273 C265 0.931 . S
H274 C255 0.930 . S
H275 C284 0.929 . S
H276 C260 0.929 1_565 S
H277 C261 0.930 . S
H278 C316 0.930 . S
H279 C257 0.929 . S
H280 C285 0.931 . S
H281 C286 0.930 . S
N282 Gd262 2.622 1_545 S
N282 C283 1.369 . S
N282 C284 1.338 . S
C283 N282 1.369 . S
C283 C287 1.415 . S
C283 C290 1.422 . S
C284 H275 0.929 . S
C284 N282 1.338 . S
C284 C286 1.378 . S
C285 H280 0.931 . S
C285 C286 1.348 . S
C285 C287 1.413 . S
C286 H281 0.930 . S
C286 C284 1.378 . S
C286 C285 1.348 . S
C287 C283 1.415 . S
C287 C285 1.413 . S
C287 C317 1.437 . S
H288 C317 0.929 . S
N289 Gd262 2.570 1_545 S
N289 C290 1.359 . S
N289 C293 1.343 . S
C290 C283 1.422 . S
C290 N289 1.359 . S
C290 C292 1.421 . S
C291 C292 1.422 . S
C291 C294 1.321 . S
C291 H318 0.931 . S
C292 C290 1.421 . S
C292 C291 1.422 . S
C292 C316 1.417 . S
C293 H270 0.931 1_545 S
C293 N289 1.343 . S
C293 C294 1.390 . S
C294 H272 0.930 . S
C294 C291 1.321 . S
C294 C293 1.390 . S
O295 Gd263 2.386 . S
O295 C307 1.265 . S
O296 Gd262 2.353 . S
O296 C307 1.242 1_455 S
O297 Gd262 2.468 . S
O297 C315 1.263 1_565 S
O298 Gd262 2.427 1_545 S
O298 C315 1.252 . S
O299 Gd263 2.307 . S
O299 C308 1.261 1_655 S
O300 Gd262 2.388 1_545 S
O300 C308 1.252 1_545 S
O301 Gd262 2.386 . S
O301 C319 1.265 . S
O302 Gd263 2.353 1_455 S
O302 C319 1.242 . S
O303 Gd263 2.468 . S
O303 C327 1.263 . S
O304 Gd263 2.427 . S
O304 C327 1.252 . S
O305 Gd262 2.307 . S
O305 C320 1.261 1_455 S
O306 Gd263 2.388 . S
O306 C320 1.252 . S
C307 O295 1.265 . S
C307 O296 1.242 1_655 S
C308 O299 1.261 1_455 S
C308 O300 1.252 1_565 S
C309 C312 1.394 . S
C309 C314 1.370 . S
C309 C315 1.500 . S
C310 C313 1.383 . S
C310 C314 1.395 . S
C311 C312 1.396 . S
C311 C313 1.365 . S
C311 H328 0.929 . S
C312 C309 1.394 . S
C312 C311 1.396 . S
C312 H329 0.930 . S
C313 C310 1.383 . S
C313 C311 1.365 . S
C313 H330 0.931 . S
C314 C309 1.370 . S
C314 C310 1.395 . S
C314 H331 0.930 1_545 S
C315 Gd262 2.805 1_545 S
C315 O297 1.263 1_545 S
C315 O298 1.252 . S
C315 C309 1.500 . S
C316 H278 0.930 . S
C316 C292 1.417 . S
C316 C317 1.329 . S
C317 C287 1.437 . S
C317 H288 0.929 . S
C317 C316 1.329 . S
H318 C291 0.931 . S
C319 O301 1.265 . S
C319 O302 1.242 . S
C320 O305 1.261 1_655 S
C320 O306 1.252 . S
C321 C324 1.394 . S
C321 C326 1.370 . S
C321 C327 1.500 . S
C322 C325 1.383 . S
C322 C326 1.395 . S
C323 C324 1.396 . S
C323 C325 1.365 . S
C323 H332 0.929 . S
C324 C321 1.394 . S
C324 C323 1.396 . S
C324 H333 0.930 . S
C325 C322 1.383 . S
C325 C323 1.365 . S
C325 H334 0.931 . S
C326 C321 1.370 . S
C326 C322 1.395 . S
C326 H335 0.930 . S
C327 Gd263 2.805 . S
C327 O303 1.263 . S
C327 O304 1.252 . S
C327 C321 1.500 . S
H328 C311 0.929 . S
H329 C312 0.930 . S
H330 C313 0.931 . S
H331 C314 0.930 1_565 S
H332 C323 0.929 . S
H333 C324 0.930 . S
H334 C325 0.931 . S
H335 C326 0.930 . S
H336 C344 0.954 . S
H337 C349 0.950 . S
H338 C346 0.950 . S
H339 C348 0.950 . S
H340 C350 0.950 . S
H341 C352 0.950 . S
H342 C354 0.950 . S
H343 C355 0.950 . S
C344 H336 0.954 . S
C344 C345 1.375 1_565 S
C344 C346 1.397 1_665 S
C345 C344 1.375 1_545 S
C345 C349 1.393 1_655 S
C346 H338 0.950 . S
C346 C344 1.397 1_445 S
C346 C347 1.400 . S
C347 C346 1.400 . S
C347 C348 1.398 . S
C347 C353 1.491 . S
C348 H339 0.950 . S
C348 C347 1.398 . S
C348 C349 1.391 . S
C349 H337 0.950 . S
C349 C345 1.393 1_455 S
C349 C348 1.391 . S
C350 H340 0.950 . S
C350 C351 1.386 . S
C350 C352 1.391 . S
C351 C350 1.386 . S
C351 C355 1.393 . S
C352 H341 0.950 . S
C352 C350 1.391 . S
C352 C353 1.400 . S
C353 C347 1.491 . S
C353 C352 1.400 . S
C353 C354 1.398 . S
C354 H342 0.950 . S
C354 C353 1.398 . S
C354 C355 1.391 . S
C355 H343 0.950 . S
C355 C351 1.393 . S
C355 C354 1.391 . S
H356 C364 0.950 1_655 S
H357 C369 0.950 . S
H358 C366 0.950 . S
H359 C368 0.950 . S
H360 C370 0.950 . S
H361 C372 0.950 . S
H362 C374 0.950 . S
H363 C375 0.950 . S
C364 H356 0.950 1_455 S
C364 C365 1.386 . S
C364 C366 1.391 1_565 S
C365 C364 1.386 . S
C365 C369 1.393 1_565 S
C366 H358 0.950 . S
C366 C364 1.391 1_545 S
C366 C367 1.400 . S
C367 C366 1.400 . S
C367 C368 1.398 . S
C367 C373 1.491 . S
C368 H359 0.950 . S
C368 C367 1.398 . S
C368 C369 1.391 . S
C369 H357 0.950 . S
C369 C365 1.393 1_545 S
C369 C368 1.391 . S
C370 H360 0.950 . S
C370 C371 1.386 . S
C370 C372 1.391 . S
C371 C370 1.386 . S
C371 C375 1.393 . S
C372 H361 0.950 . S
C372 C370 1.391 . S
C372 C373 1.400 . S
C373 C367 1.491 . S
C373 C372 1.400 . S
C373 C374 1.398 . S
C374 H362 0.950 . S
C374 C373 1.398 . S
C374 C375 1.391 . S
C375 H363 0.950 . S
C375 C371 1.393 . S
C375 C374 1.391 . S
H376 C384 0.950 . S
H377 C389 0.950 . S
H378 C386 0.950 . S
H379 C388 0.950 . S
H380 C390 0.950 . S
H381 C392 0.950 . S
H382 C394 0.950 1_455 S
H383 C395 0.950 . S
C384 H376 0.950 . S
C384 C385 1.386 . S
C384 C386 1.391 . S
C385 C384 1.386 . S
C385 C389 1.393 1_545 S
C386 H378 0.950 . S
C386 C384 1.391 . S
C386 C387 1.400 . S
C387 C386 1.400 . S
C387 C388 1.398 . S
C387 C393 1.491 . S
C388 H379 0.950 . S
C388 C387 1.398 . S
C388 C389 1.391 1_545 S
C389 H377 0.950 . S
C389 C385 1.393 1_565 S
C389 C388 1.391 1_565 S
C390 H380 0.950 . S
C390 C391 1.386 . S
C390 C392 1.391 . S
C391 C390 1.386 . S
C391 C395 1.393 1_655 S
C392 H381 0.950 . S
C392 C390 1.391 . S
C392 C393 1.400 . S
C393 C387 1.491 . S
C393 C392 1.400 . S
C393 C394 1.398 . S
C394 H382 0.950 1_655 S
C394 C393 1.398 . S
C394 C395 1.391 1_655 S
C395 H383 0.950 . S
C395 C391 1.393 1_455 S
C395 C394 1.391 1_455 S
H396 C404 0.950 . S
H397 C409 0.950 1_545 S
H398 C406 0.950 . S
H399 C408 0.950 . S
H400 C410 0.950 . S
H401 C412 0.950 . S
H402 C414 0.950 . S
H403 C415 0.950 1_655 S
C404 H396 0.950 . S
C404 C405 1.386 . S
C404 C406 1.391 . S
C405 C404 1.386 . S
C405 C409 1.393 . S
C406 H398 0.950 . S
C406 C404 1.391 . S
C406 C407 1.400 . S
C407 C406 1.400 . S
C407 C408 1.398 . S
C407 C413 1.491 . S
C408 H399 0.950 . S
C408 C407 1.398 . S
C408 C409 1.391 . S
C409 H397 0.950 1_565 S
C409 C405 1.393 . S
C409 C408 1.391 . S
C410 H400 0.950 . S
C410 C411 1.386 . S
C410 C412 1.391 . S
C411 C410 1.386 . S
C411 C415 1.393 . S
C412 H401 0.950 . S
C412 C410 1.391 . S
C412 C413 1.400 . S
C413 C407 1.491 . S
C413 C412 1.400 . S
C413 C414 1.398 . S
C414 H402 0.950 . S
C414 C413 1.398 . S
C414 C415 1.391 . S
C415 H403 0.950 1_455 S
C415 C411 1.393 . S
C415 C414 1.391 . S
H416 C424 0.950 . S
H417 C429 0.950 . S
H418 C426 0.950 . S
H419 C428 0.950 . S
H420 C430 0.950 . S
H421 C432 0.950 . S
H422 C434 0.950 . S
H423 C435 0.950 . S
C424 H416 0.950 . S
C424 C425 1.386 . S
C424 C426 1.391 . S
C425 C424 1.386 . S
C425 C429 1.393 . S
C426 H418 0.950 . S
C426 C424 1.391 . S
C426 C427 1.400 . S
C427 C426 1.400 . S
C427 C428 1.398 . S
C427 C433 1.491 . S
C428 H419 0.950 . S
C428 C427 1.398 . S
C428 C429 1.391 . S
C429 H417 0.950 . S
C429 C425 1.393 . S
C429 C428 1.391 . S
C430 H420 0.950 . S
C430 C431 1.386 . S
C430 C432 1.391 . S
C431 C430 1.386 . S
C431 C435 1.393 . S
C432 H421 0.950 . S
C432 C430 1.391 . S
C432 C433 1.400 . S
C433 C427 1.491 . S
C433 C432 1.400 . S
C433 C434 1.398 . S
C434 H422 0.950 . S
C434 C433 1.398 . S
C434 C435 1.391 . S
C435 H423 0.950 . S
C435 C431 1.393 . S
C435 C434 1.391 . S
H436 C444 0.950 . S
H437 C449 0.950 . S
H438 C446 0.950 . S
H439 C448 0.950 . S
H440 C450 0.950 1_655 S
H441 C452 0.950 . S
H442 C454 0.950 . S
H443 C455 0.950 . S
C444 H436 0.950 . S
C444 C445 1.386 . S
C444 C446 1.391 . S
C445 C444 1.386 . S
C445 C449 1.393 . S
C446 H438 0.950 . S
C446 C444 1.391 . S
C446 C447 1.400 . S
C447 C446 1.400 . S
C447 C448 1.398 . S
C447 C453 1.491 . S
C448 H439 0.950 . S
C448 C447 1.398 . S
C448 C449 1.391 . S
C449 H437 0.950 . S
C449 C445 1.393 . S
C449 C448 1.391 . S
C450 H440 0.950 1_455 S
C450 C451 1.386 . S
C450 C452 1.391 . S
C451 C450 1.386 . S
C451 C455 1.393 . S
C452 H441 0.950 . S
C452 C450 1.391 . S
C452 C453 1.400 . S
C453 C447 1.491 . S
C453 C452 1.400 . S
C453 C454 1.398 . S
C454 H442 0.950 . S
C454 C453 1.398 . S
C454 C455 1.391 . S
C455 H443 0.950 . S
C455 C451 1.393 . S
C455 C454 1.391 . S
H456 C464 0.950 . S
H457 C469 0.950 . S
H458 C466 0.950 . S
H459 C468 0.950 . S
H460 C470 0.950 . S
H461 C472 0.950 . S
H462 C474 0.950 . S
H463 C475 0.950 . S
C464 H456 0.950 . S
C464 C465 1.386 . S
C464 C466 1.391 . S
C465 C464 1.386 . S
C465 C469 1.393 . S
C466 H458 0.950 . S
C466 C464 1.391 . S
C466 C467 1.400 . S
C467 C466 1.400 . S
C467 C468 1.398 . S
C467 C473 1.491 . S
C468 H459 0.950 . S
C468 C467 1.398 . S
C468 C469 1.391 . S
C469 H457 0.950 . S
C469 C465 1.393 . S
C469 C468 1.391 . S
C470 H460 0.950 . S
C470 C471 1.386 . S
C470 C472 1.391 . S
C471 C470 1.386 . S
C471 C475 1.393 . S
C472 H461 0.950 . S
C472 C470 1.391 . S
C472 C473 1.400 . S
C473 C467 1.491 . S
C473 C472 1.400 . S
C473 C474 1.398 . S
C474 H462 0.950 . S
C474 C473 1.398 . S
C474 C475 1.391 . S
C475 H463 0.950 . S
C475 C471 1.393 . S
C475 C474 1.391 . S
H476 C484 0.950 1_565 S
H477 C489 0.950 . S
H478 C486 0.950 . S
H479 C488 0.950 . S
H480 C490 0.950 . S
H481 C492 0.950 . S
H482 C494 0.950 . S
H483 C495 0.950 . S
C484 H476 0.950 1_545 S
C484 C485 1.386 . S
C484 C486 1.391 . S
C485 C484 1.386 . S
C485 C489 1.393 . S
C486 H478 0.950 . S
C486 C484 1.391 . S
C486 C487 1.400 . S
C487 C486 1.400 . S
C487 C488 1.398 . S
C487 C493 1.491 . S
C488 H479 0.950 . S
C488 C487 1.398 . S
C488 C489 1.391 . S
C489 H477 0.950 . S
C489 C485 1.393 . S
C489 C488 1.391 . S
C490 H480 0.950 . S
C490 C491 1.386 1_556 S
C490 C492 1.391 . S
C491 C490 1.386 1_554 S
C491 C495 1.393 . S
C492 H481 0.950 . S
C492 C490 1.391 . S
C492 C493 1.400 . S
C493 C487 1.491 . S
C493 C492 1.400 . S
C493 C494 1.398 . S
C494 H482 0.950 . S
C494 C493 1.398 . S
C494 C495 1.391 1_556 S
C495 H483 0.950 . S
C495 C491 1.393 . S
C495 C494 1.391 1_554 S
H496 C504 0.950 . S
H497 C509 0.950 . S
H498 C506 0.950 . S
H499 C508 0.950 . S
H500 C510 0.950 . S
H501 C512 0.950 . S
H502 C514 0.950 . S
H503 C515 0.950 . S
C504 H496 0.950 . S
C504 C505 1.386 . S
C504 C506 1.391 . S
C505 C504 1.386 . S
C505 C509 1.393 . S
C506 H498 0.950 . S
C506 C504 1.391 . S
C506 C507 1.400 . S
C507 C506 1.400 . S
C507 C508 1.398 . S
C507 C513 1.491 . S
C508 H499 0.950 . S
C508 C507 1.398 . S
C508 C509 1.391 . S
C509 H497 0.950 . S
C509 C505 1.393 . S
C509 C508 1.391 . S
C510 H500 0.950 . S
C510 C511 1.386 . S
C510 C512 1.391 . S
C511 C510 1.386 . S
C511 C515 1.393 . S
C512 H501 0.950 . S
C512 C510 1.391 . S
C512 C513 1.400 . S
C513 C507 1.491 . S
C513 C512 1.400 . S
C513 C514 1.398 . S
C514 H502 0.950 . S
C514 C513 1.398 . S
C514 C515 1.391 . S
C515 H503 0.950 . S
C515 C511 1.393 . S
C515 C514 1.391 . S
H516 C524 0.950 . S
H517 C529 0.950 . S
H518 C526 0.950 . S
H519 C528 0.950 . S
H520 C530 0.950 . S
H521 C532 0.950 . S
H522 C534 0.950 . S
H523 C535 0.950 . S
C524 H516 0.950 . S
C524 C525 1.386 . S
C524 C526 1.391 . S
C525 C524 1.386 . S
C525 C529 1.393 . S
C526 H518 0.950 . S
C526 C524 1.391 . S
C526 C527 1.400 . S
C527 C526 1.400 . S
C527 C528 1.398 . S
C527 C533 1.491 . S
C528 H519 0.950 . S
C528 C527 1.398 . S
C528 C529 1.391 . S
C529 H517 0.950 . S
C529 C525 1.393 . S
C529 C528 1.391 . S
C530 H520 0.950 . S
C530 C531 1.386 . S
C530 C532 1.391 . S
C531 C530 1.386 . S
C531 C535 1.393 . S
C532 H521 0.950 . S
C532 C530 1.391 . S
C532 C533 1.400 1_565 S
C533 C527 1.491 . S
C533 C532 1.400 1_545 S
C533 C534 1.398 . S
C534 H522 0.950 . S
C534 C533 1.398 . S
C534 C535 1.391 1_545 S
C535 H523 0.950 . S
C535 C531 1.393 . S
C535 C534 1.391 1_565 S
H536 C544 0.950 . S
H537 C549 0.950 . S
H538 C546 0.950 . S
H539 C548 0.950 . S
H540 C550 0.950 . S
H541 C552 0.950 1_655 S
H542 C554 0.950 . S
H543 C555 0.950 . S
C544 H536 0.950 . S
C544 C545 1.386 1_455 S
C544 C546 1.391 . S
C545 C544 1.386 1_655 S
C545 C549 1.393 1_545 S
C546 H538 0.950 . S
C546 C544 1.391 . S
C546 C547 1.400 . S
C547 C546 1.400 . S
C547 C548 1.398 1_445 S
C547 C553 1.491 1_545 S
C548 H539 0.950 . S
C548 C547 1.398 1_665 S
C548 C549 1.391 . S
C549 H537 0.950 . S
C549 C545 1.393 1_565 S
C549 C548 1.391 . S
C550 H540 0.950 . S
C550 C551 1.386 . S
C550 C552 1.391 . S
C551 C550 1.386 . S
C551 C555 1.393 1_565 S
C552 H541 0.950 1_455 S
C552 C550 1.391 . S
C552 C553 1.400 . S
C553 C547 1.491 1_565 S
C553 C552 1.400 . S
C553 C554 1.398 1_565 S
C554 H542 0.950 . S
C554 C553 1.398 1_545 S
C554 C555 1.391 . S
C555 H543 0.950 . S
C555 C551 1.393 1_545 S
C555 C554 1.391 . S
H556 C564 0.950 . S
H557 C569 0.950 . S
H558 C566 0.950 . S
H559 C568 0.950 . S
H560 C570 0.950 . S
H561 C572 0.950 . S
H562 C574 0.950 . S
H563 C575 0.950 1_655 S
C564 H556 0.950 . S
C564 C565 1.386 . S
C564 C566 1.391 . S
C565 C564 1.386 . S
C565 C569 1.393 1_655 S
C566 H558 0.950 . S
C566 C564 1.391 . S
C566 C567 1.400 1_655 S
C567 C566 1.400 1_455 S
C567 C568 1.398 . S
C567 C573 1.491 . S
C568 H559 0.950 . S
C568 C567 1.398 . S
C568 C569 1.391 . S
C569 H557 0.950 . S
C569 C565 1.393 1_455 S
C569 C568 1.391 . S
C570 H560 0.950 . S
C570 C571 1.386 . S
C570 C572 1.391 . S
C571 C570 1.386 . S
C571 C575 1.393 . S
C572 H561 0.950 . S
C572 C570 1.391 . S
C572 C573 1.400 . S
C573 C567 1.491 . S
C573 C572 1.400 . S
C573 C574 1.398 1_455 S
C574 H562 0.950 . S
C574 C573 1.398 1_655 S
C574 C575 1.391 1_655 S
C575 H563 0.950 1_455 S
C575 C571 1.393 . S
C575 C574 1.391 1_455 S
C345 C224 0.770 . S
C351 C68 0.772 . S
C365 C308 0.784 . S
C371 C152 0.784 . S
C385 C236 1.730 1_545 S
C391 C56 1.728 . S
C405 C140 1.725 . S
C411 C320 1.725 1_455 S
C425 C151 2.028 . S
C431 C67 2.037 . S
C445 C139 1.208 . S
C451 C226 0.987 . S
C465 C322 1.755 . S
C471 C238 1.747 . S
C485 C310 1.051 . S
C491 C55 1.184 . S
C505 C223 2.035 1_556 S
C511 C307 2.025 . S
C525 C70 1.012 . S
C531 C319 1.202 . S
C545 C142 1.750 . S
C551 C58 1.740 . S
C565 C235 1.182 . S
C571 C154 1.051 . S
