# Generated by pormake.
# Topology unh, (4)-cn, num edge types: 1
# Building blocks:
#     Node 0, Type 0, BuildingBlock: MUDLON_clean_sbu_0, # of connection points: 4
#     Node 1, Type 0, BuildingBlock: MUDLON_clean_sbu_0, # of connection points: 4
#     Node 2, Type 0, BuildingBlock: MUDLON_clean_sbu_0, # of connection points: 4
#     Node 3, Type 0, BuildingBlock: MUDLON_clean_sbu_0, # of connection points: 4
#     Node 4, Type 0, BuildingBlock: MUDLON_clean_sbu_0, # of connection points: 4
#     Node 5, Type 0, BuildingBlock: MUDLON_clean_sbu_0, # of connection points: 4
#     Edge 6, Type (0, 0), BuildingBlock: FUNLAD_clean_linker_1, # of connection points: 2
#     Edge 7, Type (0, 0), BuildingBlock: FUNLAD_clean_linker_1, # of connection points: 2
#     Edge 8, Type (0, 0), BuildingBlock: FUNLAD_clean_linker_1, # of connection points: 2
#     Edge 9, Type (0, 0), BuildingBlock: FUNLAD_clean_linker_1, # of connection points: 2
#     Edge 10, Type (0, 0), BuildingBlock: FUNLAD_clean_linker_1, # of connection points: 2
#     Edge 11, Type (0, 0), BuildingBlock: FUNLAD_clean_linker_1, # of connection points: 2
#     Edge 12, Type (0, 0), BuildingBlock: FUNLAD_clean_linker_1, # of connection points: 2
#     Edge 13, Type (0, 0), BuildingBlock: FUNLAD_clean_linker_1, # of connection points: 2
#     Edge 14, Type (0, 0), BuildingBlock: FUNLAD_clean_linker_1, # of connection points: 2
#     Edge 15, Type (0, 0), BuildingBlock: FUNLAD_clean_linker_1, # of connection points: 2
#     Edge 16, Type (0, 0), BuildingBlock: FUNLAD_clean_linker_1, # of connection points: 2
#     Edge 17, Type (0, 0), BuildingBlock: FUNLAD_clean_linker_1, # of connection points: 2
# Relax obj value: 0.034
# Max RMSD: 0.245
# Mean RMSD: 0.245
data_MOF--net-unh--node1-MUDLON_clean_sbu_0--edge1-FUNLAD_clean_linker_1
_symmetry_space_group_name_H-M    P1
_symmetry_Int_Tables_number       1
_symmetry_cell_setting            triclinic
loop_
_symmetry_equiv_pos_as_xyz
'x, y, z'
_cell_length_a     45.962093
_cell_length_b     46.144337
_cell_length_c     24.03299
_cell_angle_alpha  90.005953
_cell_angle_beta   89.354468
_cell_angle_gamma 119.9036
loop_
_atom_site_label
_atom_site_type_symbol
_atom_site_fract_x
_atom_site_fract_y
_atom_site_fract_z
_atom_type_partial_charge
Mg0 Mg 0.14796 0.57395 0.11748 0.0
C1 C 0.18514 0.63329 0.03966 0.0
O2 O 0.16737 0.6104 1.00274 0.0
C3 C 0.11511 0.59488 0.20941 0.0
O4 O 0.13444 0.62501 0.18897 0.0
C5 C 0.19074 0.55921 0.19279 0.0
O6 O 0.1786 0.57214 0.22854 0.0
O7 O 0.18122 0.55543 0.14251 0.0
O8 O 0.18119 0.62549 0.09103 0.0
O9 O 0.11553 0.54612 0.04859 0.0
C10 C 0.09111 0.55099 0.03912 0.0
O11 O 0.08663 0.5715 0.07118 0.0
O12 O 0.11603 0.57013 0.18801 0.0
Mg13 Mg 0.59058 0.13938 0.29313 0.0
C14 C 0.57259 0.18046 0.21686 0.0
O15 O 0.57737 0.16274 0.17886 0.0
C16 C 0.54218 0.10884 0.39142 0.0
O17 O 0.54758 0.13947 0.39618 0.0
C18 C 0.65598 0.19788 0.33417 0.0
O19 O 0.64977 0.21389 0.29507 0.0
O20 O 0.63659 0.1666 0.34032 0.0
O21 O 0.57524 0.17521 0.268 0.0
O22 O 0.59568 0.11412 0.22007 0.0
C23 C 0.56903 0.08945 0.2015 0.0
O24 O 0.54039 0.08016 0.22756 0.0
O25 O 0.55547 0.10163 0.35102 0.0
Mg26 Mg 0.46392 0.58047 0.4222 0.0
C27 C 0.40252 0.56711 0.36286 0.0
O28 O 0.42665 0.58687 0.32816 0.0
C29 C 0.45817 0.53873 0.52773 0.0
O30 O 0.42646 0.53077 0.52985 0.0
C31 C 0.47106 0.63642 0.49199 0.0
O32 O 0.45241 0.61013 0.52347 0.0
O33 O 0.48124 0.6322 0.44488 0.0
O34 O 0.41026 0.55843 0.40803 0.0
O35 O 0.48758 0.5749 0.34694 0.0
C36 C 0.47237 0.54641 0.32379 0.0
O37 O 0.44358 0.52327 0.34483 0.0
O38 O 0.47721 0.5576 0.48901 0.0
Mg39 Mg 0.89744 0.44656 0.61818 0.0
C40 C 0.83706 0.37791 0.58997 0.0
O41 O 0.82213 0.38508 0.63016 0.0
C42 C 0.96025 0.45438 0.67464 0.0
O43 O 0.97097 0.4572 0.62301 0.0
C44 C 0.85248 0.44937 0.7048 0.0
O45 O 0.86518 0.43307 0.73012 0.0
O46 O 0.86206 0.45982 0.65525 0.0
O47 O 0.86796 0.3977 0.57937 0.0
O48 O 0.92887 0.47993 0.55108 0.0
C49 C 0.93701 0.4659 0.51319 0.0
O50 O 0.92589 0.43367 0.5167 0.0
O51 O 0.93047 0.44835 0.68432 0.0
Mg52 Mg 0.45322 0.87614 0.77742 0.0
C53 C 0.46533 0.83298 0.69839 0.0
O54 O 0.4507 0.84458 0.66571 0.0
C55 C 0.49806 0.93369 0.85514 0.0
O56 O 0.50739 0.95091 0.80843 0.0
C57 C 0.3916 0.8316 0.84467 0.0
O58 O 0.41498 0.83999 0.88223 0.0
O59 O 0.39999 0.84386 0.79587 0.0
O60 O 0.47082 0.84259 0.74872 0.0
O61 O 0.46163 0.91208 0.71155 0.0
C62 C 0.48938 0.92492 0.68485 0.0
O63 O 0.5116 0.91615 0.69782 0.0
O64 O 0.47712 0.90251 0.85393 0.0
Mg65 Mg 0.58054 0.43481 0.93329 0.0
C66 C 0.64036 0.43929 0.87454 0.0
O67 O 0.61973 0.40683 0.87525 0.0
C68 C 0.59643 0.49348 1.01154 0.0
O69 O 0.6236 0.5094 0.98044 0.0
C70 C 0.57237 0.3801 1.01264 0.0
O71 O 0.58424 0.4052 0.04764 0.0
O72 O 0.56754 0.38499 0.96237 0.0
O73 O 0.631 0.45833 0.89692 0.0
O74 O 0.54632 0.43236 0.86936 0.0
C75 C 0.55238 0.4598 0.84699 0.0
O76 O 0.57887 0.48767 0.86269 0.0
O77 O 0.57555 0.46295 1.00181 0.0
H78 H 0.04925 0.54211 0.98494 0.0
C79 C 0.06874 0.53567 0.99132 0.0
H80 H 0.09061 0.50775 0.96105 0.0
H81 H 0.95852 0.41021 0.82636 0.0
H82 H 0.95687 0.37297 0.89928 0.0
H83 H 0.99738 0.39432 0.97602 0.0
H84 H 0.0399 0.45303 0.9803 0.0
C85 C 0.07197 0.51533 0.95487 0.0
C86 C 0.04927 0.50197 0.90612 0.0
C87 C 0.02472 0.46758 0.90403 0.0
C88 C 1.00116 0.4553 0.85997 0.0
C89 C 0.97684 0.42087 0.85908 0.0
C90 C 0.97564 0.39923 0.90062 0.0
C91 C 0.99847 0.41125 0.94382 0.0
C92 C 0.02275 0.445 0.94577 0.0
H93 H 1.00978 0.46864 0.70969 0.0
C94 C 0.98422 0.46227 0.72043 0.0
H95 H 0.95091 0.45813 0.78538 0.0
H96 H 0.09629 0.56814 0.89276 0.0
H97 H 0.09741 0.60561 0.82097 0.0
H98 H 0.05436 0.58522 0.74814 0.0
H99 H 1.01036 0.52721 0.74607 0.0
C100 C 0.97639 0.46477 0.77363 0.0
C101 C 1.00224 0.47739 0.81796 0.0
C102 C 0.02721 0.51173 0.81949 0.0
C103 C 0.05117 0.52384 0.86291 0.0
C104 C 0.07671 0.55788 0.86202 0.0
C105 C 0.07779 0.57964 0.82083 0.0
C106 C 0.05363 0.56813 0.77973 0.0
C107 C 0.02857 0.53465 0.77888 0.0
H108 H 0.4972 0.93605 0.9469 0.0
C109 C 0.50862 0.95072 0.90937 0.0
H110 H 0.54053 0.99883 0.87599 0.0
H111 H 0.51763 0.07703 0.07019 0.0
H112 H 0.4918 0.08854 0.99225 0.0
H113 H 0.48518 0.06026 0.90232 0.0
H114 H 0.50446 0.02049 0.88966 0.0
C115 C 0.5298 0.98383 0.91342 0.0
C116 C 0.53517 1.00164 0.96748 0.0
C117 C 0.52366 0.02484 0.97419 0.0
C118 C 0.52697 0.04076 0.02631 0.0
C119 C 0.51534 0.06388 0.03175 0.0
C120 C 0.50053 0.07079 0.98731 0.0
C121 C 0.49685 0.05492 0.93667 0.0
C122 C 0.50815 0.03216 0.92996 0.0
H123 H 0.59389 0.08186 0.12787 0.0
C124 C 0.56998 0.07281 0.14946 0.0
H125 H 0.5177 0.03948 0.14769 0.0
H126 H 0.56436 0.96241 0.96665 0.0
H127 H 0.5897 0.95054 0.045 0.0
H128 H 0.59264 0.9758 0.13674 0.0
H129 H 0.57073 0.01348 0.15049 0.0
C130 C 0.54186 0.04783 0.1274 0.0
C131 C 0.54165 0.03342 0.07181 0.0
C132 C 0.55394 1.01089 0.06481 0.0
C133 C 0.55116 0.99537 1.01235 0.0
C134 C 0.56474 0.97395 1.00601 0.0
C135 C 0.57956 0.96709 0.05056 0.0
C136 C 0.58129 0.98138 0.10218 0.0
C137 C 0.56868 1.00304 0.10948 0.0
H138 H 0.47136 0.51371 0.25643 0.0
C139 C 0.48669 0.5381 0.27521 0.0
H140 H 0.53423 0.58202 0.27487 0.0
H141 H 0.6002 0.50219 0.16459 0.0
H142 H 0.62484 0.51399 0.2563 0.0
H143 H 0.60743 0.54099 0.32753 0.0
H144 H 0.56517 0.55625 0.30753 0.0
C145 C 0.51787 0.55821 0.25519 0.0
C146 C 0.53173 0.54644 0.20963 0.0
C147 C 0.55719 0.53858 0.22144 0.0
C148 C 0.56747 0.52328 0.18014 0.0
C149 C 0.59187 0.51437 0.19395 0.0
C150 C 0.60614 0.52089 0.24655 0.0
C151 C 0.59632 0.53606 0.28667 0.0
C152 C 0.57205 0.54473 0.2746 0.0
H153 H 0.60855 0.53735 0.06419 0.0
C154 C 0.58968 0.51155 0.05605 0.0
H155 H 0.54098 0.4721 0.07568 0.0
H156 H 0.4864 0.5633 0.17055 0.0
H157 H 0.4627 0.55276 0.07805 0.0
H158 H 0.47986 0.5255 1.00689 0.0
H159 H 0.52095 0.50875 0.02771 0.0
C160 C 0.5606 0.49738 0.08508 0.0
C161 C 0.5526 0.51633 0.12684 0.0
C162 C 0.52833 0.52568 0.11422 0.0
C163 C 0.51809 0.54101 0.15546 0.0
C164 C 0.49441 0.5508 0.14123 0.0
C165 C 0.48078 0.5451 0.08818 0.0
C166 C 0.49047 0.52978 0.0481 0.0
C167 C 0.51399 0.5202 0.06067 0.0
H168 H 0.9637 0.46998 0.43492 0.0
C169 C 0.95942 0.48458 0.46612 0.0
H170 H 0.97312 0.53339 0.49264 0.0
H171 H 0.11252 0.58584 0.36059 0.0
H172 H 0.13095 0.59845 0.4561 0.0
H173 H 0.08989 0.58221 0.53339 0.0
H174 H 0.03007 0.55313 0.5156 0.0
C175 C 0.97568 0.51801 0.4609 0.0
C176 C 1.00021 0.53425 0.41406 0.0
C177 C 0.03508 0.55229 0.42499 0.0
C178 C 0.0588 0.56198 0.38029 0.0
C179 C 0.09343 0.57844 0.39271 0.0
C180 C 0.10436 0.58572 0.44742 0.0
C181 C 0.08124 0.57654 0.49095 0.0
C182 C 0.04698 0.55987 0.48015 0.0
H183 H 0.09248 0.61174 0.2745 0.0
C184 C 0.09233 0.58997 0.2569 0.0
H185 H 0.07035 0.53744 0.25987 0.0
H186 H 0.93555 0.50628 0.37829 0.0
H187 H 0.91695 0.49525 0.28247 0.0
H188 H 0.9579 0.51109 0.20503 0.0
H189 H 1.01767 0.53826 0.22286 0.0
C190 C 0.07153 0.55949 0.27837 0.0
C191 C 0.0475 0.55402 0.32471 0.0
C192 C 1.01269 0.53812 0.31361 0.0
C193 C 0.98905 0.52855 0.35826 0.0
C194 C 0.95447 0.51324 0.34592 0.0
C195 C 0.9435 0.507 0.29114 0.0
C196 C 0.96655 0.51595 0.24754 0.0
C197 C 1.00078 0.53141 0.25836 0.0
H198 H 0.51375 0.09173 0.47079 0.0
C199 C 0.52439 0.08441 0.43667 0.0
H200 H 0.53416 0.04725 0.40539 0.0
H201 H 0.52169 0.01415 0.67525 0.0
H202 H 0.5713 0.06879 0.68424 0.0
H203 H 0.59449 0.10687 0.60341 0.0
H204 H 0.56786 0.09092 0.51366 0.0
C205 C 0.52398 0.0551 0.43948 0.0
C206 C 0.5102 0.03245 0.48881 0.0
C207 C 0.52698 0.04183 0.54058 0.0
C208 C 0.51471 0.01919 0.58648 0.0
C209 C 0.53084 0.02979 0.63843 0.0
C210 C 0.5592 0.06119 0.64429 0.0
C211 C 0.57217 0.08267 0.59884 0.0
C212 C 0.55642 0.07324 0.54752 0.0
H213 H 0.52186 0.95986 0.61962 0.0
C214 C 0.49758 0.94995 0.64039 0.0
H215 H 0.45212 0.95097 0.64423 0.0
H216 H 0.4712 1.00735 0.39669 0.0
H217 H 0.4223 0.95214 0.38744 0.0
H218 H 0.40249 0.91207 0.4659 0.0
H219 H 0.43131 0.92699 0.55422 0.0
C220 C 0.47689 0.96119 0.62522 0.0
C221 C 0.48685 0.98656 0.5798 0.0
C222 C 0.46962 0.97751 0.52859 0.0
C223 C 0.48128 1.00049 0.4831 0.0
C224 C 0.46362 0.99074 0.43237 0.0
C225 C 0.43549 0.95916 0.42653 0.0
C226 C 0.42432 0.93661 0.47073 0.0
C227 C 0.4411 0.94551 0.52122 0.0
H228 H 0.50716 0.43696 0.79438 0.0
C229 C 0.52955 0.46031 0.80471 0.0
H230 H 0.55757 0.51239 0.79071 0.0
H231 H 0.46509 0.46413 0.56314 0.0
H232 H 0.4926 0.43228 0.5406 0.0
H233 H 0.53046 0.42771 0.60749 0.0
H234 H 0.5405 0.45431 0.69757 0.0
C235 C 0.53578 0.48883 0.77925 0.0
C236 C 0.51221 0.49028 0.73873 0.0
C237 C 0.50752 0.47536 0.68549 0.0
C238 C 0.48696 0.47932 0.64582 0.0
C239 C 0.48151 0.46301 0.5939 0.0
C240 C 0.49697 0.44448 0.58058 0.0
C241 C 0.51818 0.44181 0.61832 0.0
C242 C 0.52356 0.45707 0.67013 0.0
H243 H 0.49937 0.53519 0.56667 0.0
C244 C 0.47279 0.5271 0.57061 0.0
H245 H 0.42897 0.50058 0.62023 0.0
H246 H 0.51357 0.51969 0.83835 0.0
H247 H 0.48665 0.55216 0.86008 0.0
H248 H 0.45312 0.56107 0.78983 0.0
H249 H 0.44605 0.53734 0.69759 0.0
C250 C 0.45525 0.50798 0.61435 0.0
C251 C 0.47244 0.49947 0.6584 0.0
C252 C 0.47619 0.51339 0.71221 0.0
C253 C 0.49599 0.50871 0.75242 0.0
C254 C 0.49926 0.52288 0.80589 0.0
C255 C 0.48385 0.5415 0.81901 0.0
C256 C 0.46494 0.54648 0.77949 0.0
C257 C 0.46108 0.53269 0.72666 0.0
H258 H 0.23056 0.54655 0.17639 0.0
C259 C 0.21831 0.55323 0.20878 0.0
H260 H 0.21884 0.56643 0.29296 0.0
H261 H 0.32291 0.50427 0.28816 0.0
H262 H 0.2739 0.45088 0.26714 0.0
H263 H 0.21904 0.44672 0.25078 0.0
H264 H 0.21294 0.49599 0.25458 0.0
C265 C 0.23033 0.55869 0.26084 0.0
C266 C 0.26266 0.56016 0.27417 0.0
C267 C 0.26558 0.53096 0.27326 0.0
C268 C 0.29703 0.5332 0.28438 0.0
C269 C 0.29951 0.50387 0.28125 0.0
C270 C 0.27158 0.47309 0.2691 0.0
C271 C 0.24071 0.47075 0.25976 0.0
C272 C 0.23758 0.49926 0.26181 0.0
H273 H 0.34831 0.54408 0.38366 0.0
C274 C 0.36732 0.55781 0.35188 0.0
H275 H 0.37815 0.58268 0.27426 0.0
H276 H 0.26572 0.62099 0.28071 0.0
H277 H 0.3141 0.67379 0.30552 0.0
H278 H 0.368 0.67725 0.32773 0.0
H279 H 0.37387 0.6279 0.32491 0.0
C280 C 0.35897 0.56795 0.30524 0.0
C281 C 0.32527 0.56448 0.29764 0.0
C282 C 0.32205 0.59346 0.30025 0.0
C283 C 0.2908 0.59134 0.28838 0.0
C284 C 0.28864 0.62093 0.29018 0.0
C285 C 0.31628 0.65149 0.30423 0.0
C286 C 0.34663 0.65345 0.31663 0.0
C287 C 0.34966 0.62491 0.31469 0.0
H288 H 0.68262 0.20274 0.41255 0.0
C289 C 0.682 0.21638 0.37612 0.0
H290 H 0.70145 0.26348 0.33731 0.0
H291 H 0.74486 0.3528 0.54915 0.0
H292 H 0.69936 0.35965 0.51501 0.0
H293 H 0.66382 0.32485 0.43856 0.0
H294 H 0.67386 0.28322 0.39532 0.0
C295 C 0.7027 0.24962 0.3729 0.0
C296 C 0.72356 0.26918 0.42099 0.0
C297 C 0.71688 0.29295 0.44684 0.0
C298 C 0.73678 0.31237 0.49207 0.0
C299 C 0.73015 0.33672 0.51563 0.0
C300 C 0.70412 0.34106 0.4963 0.0
C301 C 0.68416 0.32151 0.45319 0.0
C302 C 0.69033 0.29775 0.4286 0.0
H303 H 0.82945 0.34997 0.51201 0.0
C304 C 0.81727 0.35064 0.55065 0.0
H305 H 0.77195 0.33024 0.59651 0.0
H306 H 0.74551 0.22835 0.37786 0.0
H307 H 0.7886 0.2187 0.41589 0.0
H308 H 0.81915 0.24812 0.50022 0.0
H309 H 0.80736 0.28801 0.54617 0.0
C310 C 0.78434 0.3291 0.55847 0.0
C311 C 0.76295 0.30751 0.51238 0.0
C312 C 0.76886 0.2829 0.4878 0.0
C313 C 0.74985 0.26445 0.44104 0.0
C314 C 0.75801 0.24186 0.41497 0.0
C315 C 0.78288 0.23625 0.43615 0.0
C316 C 0.80018 0.25293 0.48348 0.0
C317 C 0.79335 0.27597 0.5092 0.0
H318 H 0.47903 0.79363 0.70891 0.0
C319 C 0.47216 0.80658 0.67859 0.0
H320 H 0.46041 0.80942 0.59493 0.0
H321 H 0.52803 0.71019 0.58357 0.0
H322 H 0.57964 0.75807 0.61497 0.0
H323 H 0.58118 0.81056 0.64082 0.0
H324 H 0.53105 0.81536 0.63625 0.0
C325 C 0.46797 0.79693 0.62502 0.0
C326 C 0.46825 0.76621 0.60646 0.0
C327 C 0.49808 0.76421 0.60775 0.0
C328 C 0.49747 0.73428 0.59103 0.0
C329 C 0.52727 0.73252 0.59465 0.0
C330 C 0.55704 0.7598 0.61268 0.0
C331 C 0.55789 0.78934 0.62737 0.0
C332 C 0.52887 0.79169 0.62489 0.0
H333 H 0.49157 0.69093 0.48083 0.0
C334 C 0.4778 0.66996 0.5092 0.0
H335 H 0.45071 0.65344 0.58509 0.0
H336 H 0.40661 0.76165 0.59765 0.0
H337 H 0.35588 0.71471 0.56222 0.0
H338 H 0.3555 0.66375 0.53013 0.0
H339 H 0.40586 0.65939 0.53365 0.0
C340 C 0.46555 0.67453 0.55748 0.0
C341 C 0.46731 0.70679 0.57163 0.0
C342 C 0.43779 0.70917 0.56869 0.0
C343 C 0.4382 0.73881 0.58627 0.0
C344 C 0.40804 0.74007 0.58394 0.0
C345 C 0.37863 0.71322 0.56385 0.0
C346 C 0.37839 0.68451 0.54589 0.0
C347 C 0.4075 0.68233 0.54827 0.0
H348 H 0.68883 0.48049 0.84225 0.0
C349 C 0.67358 0.45351 0.84666 0.0
H350 H 0.66931 0.40673 0.82971 0.0
H351 H 0.76694 0.4379 0.63086 0.0
H352 H 0.71319 0.40652 0.58592 0.0
H353 H 0.66075 0.39389 0.63513 0.0
H354 H 0.66179 0.41238 0.72992 0.0
C355 C 0.68499 0.43373 0.82655 0.0
C356 C 0.71723 0.44676 0.79471 0.0
C357 C 0.71638 0.43676 0.7386 0.0
C358 C 0.7467 0.44466 0.70977 0.0
C359 C 0.74483 0.43309 0.65457 0.0
C360 C 0.71409 0.41497 0.6282 0.0
C361 C 0.68457 0.40784 0.65593 0.0
C362 C 0.68553 0.4185 0.71045 0.0
H363 H 0.81637 0.43937 0.77282 0.0
C364 C 0.82497 0.45176 0.73262 0.0
H365 H 0.81654 0.47801 0.66881 0.0
H366 H 0.72849 0.46952 0.90241 0.0
H367 H 0.78249 0.50472 0.94449 0.0
H368 H 0.83502 0.52285 0.89122 0.0
H369 H 0.83374 0.50506 0.79575 0.0
C370 C 0.80899 0.46644 0.70972 0.0
C371 C 0.77796 0.463 0.73678 0.0
C372 C 0.779 0.47535 0.79127 0.0
C373 C 0.74862 0.46642 0.82091 0.0
C374 C 0.75059 0.47676 0.87691 0.0
C375 C 0.7815 0.49684 0.9018 0.0
C376 C 0.81108 0.50693 0.87189 0.0
C377 C 0.80999 0.49636 0.8173 0.0
H378 H 0.33858 0.79675 0.82354 0.0
C379 C 0.35656 0.80566 0.85717 0.0
H380 H 0.36466 0.80038 0.94212 0.0
H381 H 0.20899 0.72299 1.00432 0.0
H382 H 0.22235 0.7789 0.0315 0.0
H383 H 0.27742 0.82771 1.00784 0.0
H384 H 0.3194 0.82093 0.95631 0.0
C385 C 0.34714 0.7914 0.90786 0.0
C386 C 0.31318 0.76222 0.91898 0.0
C387 C 0.28915 0.76648 0.94988 0.0
C388 C 0.25763 0.73823 0.96451 0.0
C389 C 0.23369 0.74342 0.99364 0.0
C390 C 0.24094 0.77541 1.00913 0.0
C391 C 0.27194 0.80291 0.99575 0.0
C392 C 0.29583 0.79866 0.96632 0.0
H393 H 0.22959 0.68294 0.05324 0.0
C394 C 0.21261 0.66644 1.02175 0.0
H395 H 0.20241 0.6587 0.93598 0.0
H396 H 0.35369 0.74521 0.85957 0.0
H397 H 0.34032 0.6895 0.83188 0.0
H398 H 0.28586 0.64048 0.8575 0.0
H399 H 0.2445 0.64687 0.91102 0.0
C400 C 0.21876 0.67549 0.96778 0.0
C401 C 0.25053 0.70565 0.94931 0.0
C402 C 0.27426 0.7015 0.91703 0.0
C403 C 0.30565 0.72979 0.90205 0.0
C404 C 0.32926 0.72474 0.87142 0.0
C405 C 0.32198 0.69284 0.8554 0.0
C406 C 0.29133 0.66525 0.86982 0.0
C407 C 0.26774 0.66934 0.90046 0.0
H408 H 0.56011 0.32792 0.99831 0.0
C409 C 0.56716 0.3471 0.02986 0.0
H410 H 0.57885 0.35927 0.1146 0.0
H411 H 0.50795 0.20522 0.18535 0.0
H412 H 0.4638 0.21703 0.21134 0.0
H413 H 0.46792 0.27079 0.18614 0.0
H414 H 0.51615 0.31299 0.13422 0.0
C415 C 0.57247 0.34071 0.08221 0.0
C416 C 0.57017 0.30835 0.09765 0.0
C417 C 0.54227 0.28428 0.12913 0.0
C418 C 0.54026 0.25354 0.14473 0.0
C419 C 0.51134 0.2294 0.17399 0.0
C420 C 0.48567 0.23575 0.18881 0.0
C421 C 0.48796 0.26601 0.17455 0.0
C422 C 0.51581 0.29003 0.14487 0.0
H423 H 0.56789 0.22512 0.23306 0.0
C424 C 0.56779 0.20867 0.20059 0.0
H425 H 0.56637 0.19984 0.11428 0.0
H426 H 0.62792 0.34979 0.03951 0.0
H427 H 0.67228 0.33829 1.01395 0.0
H428 H 0.66905 0.28524 0.04128 0.0
H429 H 0.62149 0.24341 0.09438 0.0
C430 C 0.56549 0.21565 0.147 0.0
C431 C 0.56663 0.24732 0.13 0.0
C432 C 0.5945 0.27141 0.09828 0.0
C433 C 0.59633 0.30198 0.08229 0.0
C434 C 0.6249 0.32592 0.05196 0.0
C435 C 0.65068 0.31972 0.03722 0.0
C436 C 0.64886 0.28986 0.05261 0.0
C437 C 0.62128 0.26598 0.08296 0.0
loop_
_geom_bond_atom_site_label_1
_geom_bond_atom_site_label_2
_geom_bond_distance
_geom_bond_site_symmetry_2
_ccdc_geom_bond_type
Mg0 O7 2.141 . S
Mg0 O8 2.048 . S
Mg0 O9 2.048 . S
Mg0 O12 2.141 . S
C1 O2 1.313 . S
C1 O8 1.195 . S
O2 C1 1.313 . S
C3 O4 1.245 . S
C3 O12 1.289 . S
O4 C3 1.245 . S
C5 O6 1.245 . S
C5 O7 1.289 . S
O6 C5 1.245 . S
O7 Mg0 2.141 . S
O7 C5 1.289 . S
O8 Mg0 2.048 . S
O8 C1 1.195 . S
O9 Mg0 2.048 . S
O9 C10 1.195 . S
C10 O9 1.195 . S
C10 O11 1.313 . S
O11 C10 1.313 . S
O12 Mg0 2.141 . S
O12 C3 1.289 . S
Mg13 O20 2.141 . S
Mg13 O21 2.048 . S
Mg13 O22 2.048 . S
Mg13 O25 2.141 . S
C14 O15 1.313 . S
C14 O21 1.195 . S
O15 C14 1.313 . S
C16 O17 1.245 . S
C16 O25 1.289 . S
O17 C16 1.245 . S
C18 O19 1.245 . S
C18 O20 1.289 . S
O19 C18 1.245 . S
O20 Mg13 2.141 . S
O20 C18 1.289 . S
O21 Mg13 2.048 . S
O21 C14 1.195 . S
O22 Mg13 2.048 . S
O22 C23 1.195 . S
C23 O22 1.195 . S
C23 O24 1.313 . S
O24 C23 1.313 . S
O25 Mg13 2.141 . S
O25 C16 1.289 . S
Mg26 O33 2.141 . S
Mg26 O34 2.048 . S
Mg26 O35 2.048 . S
Mg26 O38 2.141 . S
C27 O28 1.313 . S
C27 O34 1.195 . S
O28 C27 1.313 . S
C29 O30 1.245 . S
C29 O38 1.289 . S
O30 C29 1.245 . S
C31 O32 1.245 . S
C31 O33 1.289 . S
O32 C31 1.245 . S
O33 Mg26 2.141 . S
O33 C31 1.289 . S
O34 Mg26 2.048 . S
O34 C27 1.195 . S
O35 Mg26 2.048 . S
O35 C36 1.195 . S
C36 O35 1.195 . S
C36 O37 1.313 . S
O37 C36 1.313 . S
O38 Mg26 2.141 . S
O38 C29 1.289 . S
Mg39 O46 2.141 . S
Mg39 O47 2.048 . S
Mg39 O48 2.048 . S
Mg39 O51 2.141 . S
C40 O41 1.313 . S
C40 O47 1.195 . S
O41 C40 1.313 . S
C42 O43 1.245 . S
C42 O51 1.289 . S
O43 C42 1.245 . S
C44 O45 1.245 . S
C44 O46 1.289 . S
O45 C44 1.245 . S
O46 Mg39 2.141 . S
O46 C44 1.289 . S
O47 Mg39 2.048 . S
O47 C40 1.195 . S
O48 Mg39 2.048 . S
O48 C49 1.195 . S
C49 O48 1.195 . S
C49 O50 1.313 . S
O50 C49 1.313 . S
O51 Mg39 2.141 . S
O51 C42 1.289 . S
Mg52 O59 2.141 . S
Mg52 O60 2.048 . S
Mg52 O61 2.048 . S
Mg52 O64 2.141 . S
C53 O54 1.313 . S
C53 O60 1.195 . S
O54 C53 1.313 . S
C55 O56 1.245 . S
C55 O64 1.289 . S
O56 C55 1.245 . S
C57 O58 1.245 . S
C57 O59 1.289 . S
O58 C57 1.245 . S
O59 Mg52 2.141 . S
O59 C57 1.289 . S
O60 Mg52 2.048 . S
O60 C53 1.195 . S
O61 Mg52 2.048 . S
O61 C62 1.195 . S
C62 O61 1.195 . S
C62 O63 1.313 . S
O63 C62 1.313 . S
O64 Mg52 2.141 . S
O64 C55 1.289 . S
Mg65 O72 2.141 . S
Mg65 O73 2.048 . S
Mg65 O74 2.048 . S
Mg65 O77 2.141 . S
C66 O67 1.313 . S
C66 O73 1.195 . S
O67 C66 1.313 . S
C68 O69 1.245 1_556 S
C68 O77 1.289 . S
O69 C68 1.245 1_554 S
C70 O71 1.244 1_556 S
C70 O72 1.289 . S
O71 C70 1.244 1_554 S
O72 Mg65 2.141 . S
O72 C70 1.289 . S
O73 Mg65 2.048 . S
O73 C66 1.195 . S
O74 Mg65 2.048 . S
O74 C75 1.195 . S
C75 O74 1.195 . S
C75 O76 1.313 . S
O76 C75 1.313 . S
O77 Mg65 2.141 . S
O77 C68 1.289 . S
H78 C79 0.951 . S
C79 H78 0.951 . S
C79 C85 1.265 . S
H80 C85 0.950 . S
H81 C89 0.949 . S
H82 C90 0.950 . S
H83 C91 0.951 . S
H84 C92 0.967 . S
C85 C79 1.265 . S
C85 H80 0.950 . S
C85 C86 1.478 . S
C86 C85 1.478 . S
C86 C87 1.397 . S
C86 C103 1.394 . S
C87 C86 1.397 . S
C87 C88 1.438 1_455 S
C87 C92 1.419 . S
C88 C87 1.438 1_655 S
C88 C89 1.428 . S
C88 C101 1.394 . S
C89 H81 0.949 . S
C89 C88 1.428 . S
C89 C90 1.345 . S
C90 H82 0.950 . S
C90 C89 1.345 . S
C90 C91 1.424 . S
C91 H83 0.951 . S
C91 C90 1.424 . S
C91 C92 1.341 1_655 S
C92 H84 0.967 . S
C92 C87 1.419 . S
C92 C91 1.341 1_455 S
H93 C94 0.951 . S
C94 H93 0.951 . S
C94 C100 1.265 . S
H95 C100 0.950 . S
H96 C104 0.949 . S
H97 C105 0.950 . S
H98 C106 0.951 . S
H99 C107 0.951 1_655 S
C100 C94 1.265 . S
C100 H95 0.950 . S
C100 C101 1.478 . S
C101 C88 1.394 . S
C101 C100 1.478 . S
C101 C102 1.397 1_655 S
C102 C101 1.397 1_455 S
C102 C103 1.438 . S
C102 C107 1.429 . S
C103 C86 1.394 . S
C103 C102 1.438 . S
C103 C104 1.428 . S
C104 H96 0.949 . S
C104 C103 1.428 . S
C104 C105 1.345 . S
C105 H97 0.950 . S
C105 C104 1.345 . S
C105 C106 1.424 . S
C106 H98 0.951 . S
C106 C105 1.424 . S
C106 C107 1.347 . S
C107 H99 0.951 1_455 S
C107 C102 1.429 . S
C107 C106 1.347 . S
H108 C109 0.951 . S
C109 H108 0.951 . S
C109 C115 1.265 . S
H110 C115 0.950 . S
H111 C119 0.949 1_554 S
H112 C120 0.950 . S
H113 C121 0.951 . S
H114 C122 0.951 . S
C115 C109 1.265 . S
C115 H110 0.950 . S
C115 C116 1.478 . S
C116 C115 1.478 . S
C116 C117 1.397 1_565 S
C116 C133 1.394 1_556 S
C117 C116 1.397 1_545 S
C117 C118 1.438 . S
C117 C122 1.429 . S
C118 C117 1.438 . S
C118 C119 1.428 . S
C118 C131 1.394 1_556 S
C119 H111 0.949 1_556 S
C119 C118 1.428 . S
C119 C120 1.345 . S
C120 H112 0.950 . S
C120 C119 1.345 . S
C120 C121 1.424 . S
C121 H113 0.951 . S
C121 C120 1.424 . S
C121 C122 1.347 . S
C122 H114 0.951 . S
C122 C117 1.429 . S
C122 C121 1.347 . S
H123 C124 0.951 . S
C124 H123 0.951 . S
C124 C130 1.265 . S
H125 C130 0.950 . S
H126 C134 0.949 1_556 S
H127 C135 0.950 . S
H128 C136 0.951 . S
H129 C137 0.951 . S
C130 C124 1.265 . S
C130 H125 0.950 . S
C130 C131 1.478 . S
C131 C118 1.394 1_554 S
C131 C130 1.478 . S
C131 C132 1.397 1_545 S
C132 C131 1.397 1_565 S
C132 C133 1.438 . S
C132 C137 1.429 . S
C133 C116 1.394 1_554 S
C133 C132 1.438 . S
C133 C134 1.428 . S
C134 H126 0.949 1_554 S
C134 C133 1.428 . S
C134 C135 1.345 . S
C135 H127 0.950 . S
C135 C134 1.345 . S
C135 C136 1.424 . S
C136 H128 0.951 . S
C136 C135 1.424 . S
C136 C137 1.347 . S
C137 H129 0.951 . S
C137 C132 1.429 . S
C137 C136 1.347 . S
H138 C139 0.951 . S
C139 H138 0.951 . S
C139 C145 1.265 . S
H140 C145 0.950 . S
H141 C149 0.949 . S
H142 C150 0.950 . S
H143 C151 0.951 . S
H144 C152 0.951 . S
C145 C139 1.265 . S
C145 H140 0.950 . S
C145 C146 1.478 . S
C146 C145 1.478 . S
C146 C147 1.397 . S
C146 C163 1.394 . S
C147 C146 1.397 . S
C147 C148 1.438 . S
C147 C152 1.429 . S
C148 C147 1.438 . S
C148 C149 1.428 . S
C148 C161 1.394 . S
C149 H141 0.949 . S
C149 C148 1.428 . S
C149 C150 1.345 . S
C150 H142 0.950 . S
C150 C149 1.345 . S
C150 C151 1.424 . S
C151 H143 0.951 . S
C151 C150 1.424 . S
C151 C152 1.347 . S
C152 H144 0.951 . S
C152 C147 1.429 . S
C152 C151 1.347 . S
H153 C154 0.951 . S
C154 H153 0.951 . S
C154 C160 1.265 . S
H155 C160 0.950 . S
H156 C164 0.949 . S
H157 C165 0.950 . S
H158 C166 0.951 . S
H159 C167 0.951 . S
C160 C154 1.265 . S
C160 H155 0.950 . S
C160 C161 1.478 . S
C161 C148 1.394 . S
C161 C160 1.478 . S
C161 C162 1.397 . S
C162 C161 1.397 . S
C162 C163 1.438 . S
C162 C167 1.429 . S
C163 C146 1.394 . S
C163 C162 1.438 . S
C163 C164 1.428 . S
C164 H156 0.949 . S
C164 C163 1.428 . S
C164 C165 1.345 . S
C165 H157 0.950 . S
C165 C164 1.345 . S
C165 C166 1.424 . S
C166 H158 0.951 . S
C166 C165 1.424 . S
C166 C167 1.347 . S
C167 H159 0.951 . S
C167 C162 1.429 . S
C167 C166 1.347 . S
H168 C169 0.951 . S
C169 H168 0.951 . S
C169 C175 1.265 . S
H170 C175 0.950 . S
H171 C179 0.949 . S
H172 C180 0.950 . S
H173 C181 0.951 . S
H174 C182 0.951 . S
C175 C169 1.265 . S
C175 H170 0.950 . S
C175 C176 1.478 . S
C176 C175 1.478 . S
C176 C177 1.397 1_655 S
C176 C193 1.394 . S
C177 C176 1.397 1_455 S
C177 C178 1.438 . S
C177 C182 1.429 . S
C178 C177 1.438 . S
C178 C179 1.428 . S
C178 C191 1.394 . S
C179 H171 0.949 . S
C179 C178 1.428 . S
C179 C180 1.345 . S
C180 H172 0.950 . S
C180 C179 1.345 . S
C180 C181 1.424 . S
C181 H173 0.951 . S
C181 C180 1.424 . S
C181 C182 1.347 . S
C182 H174 0.951 . S
C182 C177 1.429 . S
C182 C181 1.347 . S
H183 C184 0.951 . S
C184 H183 0.951 . S
C184 C190 1.265 . S
H185 C190 0.950 . S
H186 C194 0.949 . S
H187 C195 0.950 . S
H188 C196 0.951 . S
H189 C197 0.951 . S
C190 C184 1.265 . S
C190 H185 0.950 . S
C190 C191 1.478 . S
C191 C178 1.394 . S
C191 C190 1.478 . S
C191 C192 1.397 1_455 S
C192 C191 1.397 1_655 S
C192 C193 1.438 . S
C192 C197 1.429 . S
C193 C176 1.394 . S
C193 C192 1.438 . S
C193 C194 1.428 . S
C194 H186 0.949 . S
C194 C193 1.428 . S
C194 C195 1.345 . S
C195 H187 0.950 . S
C195 C194 1.345 . S
C195 C196 1.424 . S
C196 H188 0.951 . S
C196 C195 1.424 . S
C196 C197 1.347 . S
C197 H189 0.951 . S
C197 C192 1.429 . S
C197 C196 1.347 . S
H198 C199 0.951 . S
C199 H198 0.951 . S
C199 C205 1.265 . S
H200 C205 0.950 . S
H201 C209 0.949 1_565 S
H202 C210 0.950 . S
H203 C211 0.951 . S
H204 C212 0.951 . S
C205 C199 1.265 . S
C205 H200 0.950 . S
C205 C206 1.478 . S
C206 C205 1.478 . S
C206 C207 1.397 . S
C206 C223 1.394 1_545 S
C207 C206 1.397 . S
C207 C208 1.438 . S
C207 C212 1.429 . S
C208 C207 1.438 . S
C208 C209 1.428 . S
C208 C221 1.394 1_545 S
C209 H201 0.949 1_545 S
C209 C208 1.428 . S
C209 C210 1.345 . S
C210 H202 0.950 . S
C210 C209 1.345 . S
C210 C211 1.424 . S
C211 H203 0.951 . S
C211 C210 1.424 . S
C211 C212 1.347 . S
C212 H204 0.951 . S
C212 C207 1.429 . S
C212 C211 1.347 . S
H213 C214 0.951 . S
C214 H213 0.951 . S
C214 C220 1.265 . S
H215 C220 0.950 . S
H216 C224 0.949 . S
H217 C225 0.950 . S
H218 C226 0.951 . S
H219 C227 0.951 . S
C220 C214 1.265 . S
C220 H215 0.950 . S
C220 C221 1.478 . S
C221 C208 1.394 1_565 S
C221 C220 1.478 . S
C221 C222 1.397 . S
C222 C221 1.397 . S
C222 C223 1.438 . S
C222 C227 1.429 . S
C223 C206 1.394 1_565 S
C223 C222 1.438 . S
C223 C224 1.428 . S
C224 H216 0.949 . S
C224 C223 1.428 . S
C224 C225 1.345 . S
C225 H217 0.950 . S
C225 C224 1.345 . S
C225 C226 1.424 . S
C226 H218 0.951 . S
C226 C225 1.424 . S
C226 C227 1.347 . S
C227 H219 0.951 . S
C227 C222 1.429 . S
C227 C226 1.347 . S
H228 C229 0.951 . S
C229 H228 0.951 . S
C229 C235 1.265 . S
H230 C235 0.950 . S
H231 C239 0.949 . S
H232 C240 0.950 . S
H233 C241 0.951 . S
H234 C242 0.951 . S
C235 C229 1.265 . S
C235 H230 0.950 . S
C235 C236 1.478 . S
C236 C235 1.478 . S
C236 C237 1.397 . S
C236 C253 1.394 . S
C237 C236 1.397 . S
C237 C238 1.438 . S
C237 C242 1.429 . S
C238 C237 1.438 . S
C238 C239 1.428 . S
C238 C251 1.394 . S
C239 H231 0.949 . S
C239 C238 1.428 . S
C239 C240 1.345 . S
C240 H232 0.950 . S
C240 C239 1.345 . S
C240 C241 1.424 . S
C241 H233 0.951 . S
C241 C240 1.424 . S
C241 C242 1.347 . S
C242 H234 0.951 . S
C242 C237 1.429 . S
C242 C241 1.347 . S
H243 C244 0.951 . S
C244 H243 0.951 . S
C244 C250 1.265 . S
H245 C250 0.950 . S
H246 C254 0.949 . S
H247 C255 0.950 . S
H248 C256 0.951 . S
H249 C257 0.951 . S
C250 C244 1.265 . S
C250 H245 0.950 . S
C250 C251 1.478 . S
C251 C238 1.394 . S
C251 C250 1.478 . S
C251 C252 1.397 . S
C252 C251 1.397 . S
C252 C253 1.438 . S
C252 C257 1.429 . S
C253 C236 1.394 . S
C253 C252 1.438 . S
C253 C254 1.428 . S
C254 H246 0.949 . S
C254 C253 1.428 . S
C254 C255 1.345 . S
C255 H247 0.950 . S
C255 C254 1.345 . S
C255 C256 1.424 . S
C256 H248 0.951 . S
C256 C255 1.424 . S
C256 C257 1.347 . S
C257 H249 0.951 . S
C257 C252 1.429 . S
C257 C256 1.347 . S
H258 C259 0.951 . S
C259 H258 0.951 . S
C259 C265 1.265 . S
H260 C265 0.950 . S
H261 C269 0.949 . S
H262 C270 0.950 . S
H263 C271 0.951 . S
H264 C272 0.951 . S
C265 C259 1.265 . S
C265 H260 0.950 . S
C265 C266 1.478 . S
C266 C265 1.478 . S
C266 C267 1.397 . S
C266 C283 1.394 . S
C267 C266 1.397 . S
C267 C268 1.438 . S
C267 C272 1.429 . S
C268 C267 1.438 . S
C268 C269 1.428 . S
C268 C281 1.394 . S
C269 H261 0.949 . S
C269 C268 1.428 . S
C269 C270 1.345 . S
C270 H262 0.950 . S
C270 C269 1.345 . S
C270 C271 1.424 . S
C271 H263 0.951 . S
C271 C270 1.424 . S
C271 C272 1.347 . S
C272 H264 0.951 . S
C272 C267 1.429 . S
C272 C271 1.347 . S
H273 C274 0.951 . S
C274 H273 0.951 . S
C274 C280 1.265 . S
H275 C280 0.950 . S
H276 C284 0.949 . S
H277 C285 0.950 . S
H278 C286 0.951 . S
H279 C287 0.951 . S
C280 C274 1.265 . S
C280 H275 0.950 . S
C280 C281 1.478 . S
C281 C268 1.394 . S
C281 C280 1.478 . S
C281 C282 1.397 . S
C282 C281 1.397 . S
C282 C283 1.438 . S
C282 C287 1.429 . S
C283 C266 1.394 . S
C283 C282 1.438 . S
C283 C284 1.428 . S
C284 H276 0.949 . S
C284 C283 1.428 . S
C284 C285 1.345 . S
C285 H277 0.950 . S
C285 C284 1.345 . S
C285 C286 1.424 . S
C286 H278 0.951 . S
C286 C285 1.424 . S
C286 C287 1.347 . S
C287 H279 0.951 . S
C287 C282 1.429 . S
C287 C286 1.347 . S
H288 C289 0.951 . S
C289 H288 0.951 . S
C289 C295 1.265 . S
H290 C295 0.950 . S
H291 C299 0.949 . S
H292 C300 0.950 . S
H293 C301 0.951 . S
H294 C302 0.951 . S
C295 C289 1.265 . S
C295 H290 0.950 . S
C295 C296 1.478 . S
C296 C295 1.478 . S
C296 C297 1.397 . S
C296 C313 1.394 . S
C297 C296 1.397 . S
C297 C298 1.438 . S
C297 C302 1.429 . S
C298 C297 1.438 . S
C298 C299 1.428 . S
C298 C311 1.394 . S
C299 H291 0.949 . S
C299 C298 1.428 . S
C299 C300 1.345 . S
C300 H292 0.950 . S
C300 C299 1.345 . S
C300 C301 1.424 . S
C301 H293 0.951 . S
C301 C300 1.424 . S
C301 C302 1.347 . S
C302 H294 0.951 . S
C302 C297 1.429 . S
C302 C301 1.347 . S
H303 C304 0.951 . S
C304 H303 0.951 . S
C304 C310 1.265 . S
H305 C310 0.950 . S
H306 C314 0.949 . S
H307 C315 0.950 . S
H308 C316 0.951 . S
H309 C317 0.951 . S
C310 C304 1.265 . S
C310 H305 0.950 . S
C310 C311 1.478 . S
C311 C298 1.394 . S
C311 C310 1.478 . S
C311 C312 1.397 . S
C312 C311 1.397 . S
C312 C313 1.438 . S
C312 C317 1.429 . S
C313 C296 1.394 . S
C313 C312 1.438 . S
C313 C314 1.428 . S
C314 H306 0.949 . S
C314 C313 1.428 . S
C314 C315 1.345 . S
C315 H307 0.950 . S
C315 C314 1.345 . S
C315 C316 1.424 . S
C316 H308 0.951 . S
C316 C315 1.424 . S
C316 C317 1.347 . S
C317 H309 0.951 . S
C317 C312 1.429 . S
C317 C316 1.347 . S
H318 C319 0.951 . S
C319 H318 0.951 . S
C319 C325 1.265 . S
H320 C325 0.950 . S
H321 C329 0.949 . S
H322 C330 0.950 . S
H323 C331 0.951 . S
H324 C332 0.951 . S
C325 C319 1.265 . S
C325 H320 0.950 . S
C325 C326 1.478 . S
C326 C325 1.478 . S
C326 C327 1.397 . S
C326 C343 1.394 . S
C327 C326 1.397 . S
C327 C328 1.438 . S
C327 C332 1.429 . S
C328 C327 1.438 . S
C328 C329 1.428 . S
C328 C341 1.394 . S
C329 H321 0.949 . S
C329 C328 1.428 . S
C329 C330 1.345 . S
C330 H322 0.950 . S
C330 C329 1.345 . S
C330 C331 1.424 . S
C331 H323 0.951 . S
C331 C330 1.424 . S
C331 C332 1.347 . S
C332 H324 0.951 . S
C332 C327 1.429 . S
C332 C331 1.347 . S
H333 C334 0.951 . S
C334 H333 0.951 . S
C334 C340 1.265 . S
H335 C340 0.950 . S
H336 C344 0.949 . S
H337 C345 0.950 . S
H338 C346 0.951 . S
H339 C347 0.951 . S
C340 C334 1.265 . S
C340 H335 0.950 . S
C340 C341 1.478 . S
C341 C328 1.394 . S
C341 C340 1.478 . S
C341 C342 1.397 . S
C342 C341 1.397 . S
C342 C343 1.438 . S
C342 C347 1.429 . S
C343 C326 1.394 . S
C343 C342 1.438 . S
C343 C344 1.428 . S
C344 H336 0.949 . S
C344 C343 1.428 . S
C344 C345 1.345 . S
C345 H337 0.950 . S
C345 C344 1.345 . S
C345 C346 1.424 . S
C346 H338 0.951 . S
C346 C345 1.424 . S
C346 C347 1.347 . S
C347 H339 0.951 . S
C347 C342 1.429 . S
C347 C346 1.347 . S
H348 C349 0.951 . S
C349 H348 0.951 . S
C349 C355 1.265 . S
H350 C355 0.950 . S
H351 C359 0.949 . S
H352 C360 0.950 . S
H353 C361 0.951 . S
H354 C362 0.951 . S
C355 C349 1.265 . S
C355 H350 0.950 . S
C355 C356 1.478 . S
C356 C355 1.478 . S
C356 C357 1.397 . S
C356 C373 1.394 . S
C357 C356 1.397 . S
C357 C358 1.438 . S
C357 C362 1.429 . S
C358 C357 1.438 . S
C358 C359 1.428 . S
C358 C371 1.394 . S
C359 H351 0.949 . S
C359 C358 1.428 . S
C359 C360 1.345 . S
C360 H352 0.950 . S
C360 C359 1.345 . S
C360 C361 1.424 . S
C361 H353 0.951 . S
C361 C360 1.424 . S
C361 C362 1.347 . S
C362 H354 0.951 . S
C362 C357 1.429 . S
C362 C361 1.347 . S
H363 C364 0.951 . S
C364 H363 0.951 . S
C364 C370 1.265 . S
H365 C370 0.950 . S
H366 C374 0.949 . S
H367 C375 0.950 . S
H368 C376 0.951 . S
H369 C377 0.951 . S
C370 C364 1.265 . S
C370 H365 0.950 . S
C370 C371 1.478 . S
C371 C358 1.394 . S
C371 C370 1.478 . S
C371 C372 1.397 . S
C372 C371 1.397 . S
C372 C373 1.438 . S
C372 C377 1.429 . S
C373 C356 1.394 . S
C373 C372 1.438 . S
C373 C374 1.428 . S
C374 H366 0.949 . S
C374 C373 1.428 . S
C374 C375 1.345 . S
C375 H367 0.950 . S
C375 C374 1.345 . S
C375 C376 1.424 . S
C376 H368 0.951 . S
C376 C375 1.424 . S
C376 C377 1.347 . S
C377 H369 0.951 . S
C377 C372 1.429 . S
C377 C376 1.347 . S
H378 C379 0.951 . S
C379 H378 0.951 . S
C379 C385 1.265 . S
H380 C385 0.950 . S
H381 C389 0.949 . S
H382 C390 0.950 . S
H383 C391 0.951 . S
H384 C392 0.951 . S
C385 C379 1.265 . S
C385 H380 0.950 . S
C385 C386 1.478 . S
C386 C385 1.478 . S
C386 C387 1.397 . S
C386 C403 1.394 . S
C387 C386 1.397 . S
C387 C388 1.438 . S
C387 C392 1.429 . S
C388 C387 1.438 . S
C388 C389 1.428 1_556 S
C388 C401 1.394 . S
C389 H381 0.949 . S
C389 C388 1.428 1_554 S
C389 C390 1.345 . S
C390 H382 0.950 . S
C390 C389 1.345 . S
C390 C391 1.424 . S
C391 H383 0.951 . S
C391 C390 1.424 . S
C391 C392 1.347 1_554 S
C392 H384 0.951 . S
C392 C387 1.429 . S
C392 C391 1.347 1_556 S
H393 C394 0.951 . S
C394 H393 0.951 . S
C394 C400 1.265 . S
H395 C400 0.950 . S
H396 C404 0.949 . S
H397 C405 0.950 . S
H398 C406 0.951 . S
H399 C407 0.951 . S
C400 C394 1.265 . S
C400 H395 0.950 . S
C400 C401 1.478 . S
C401 C388 1.394 . S
C401 C400 1.478 . S
C401 C402 1.397 . S
C402 C401 1.397 . S
C402 C403 1.438 . S
C402 C407 1.429 . S
C403 C386 1.394 . S
C403 C402 1.438 . S
C403 C404 1.428 . S
C404 H396 0.949 . S
C404 C403 1.428 . S
C404 C405 1.345 . S
C405 H397 0.950 . S
C405 C404 1.345 . S
C405 C406 1.424 . S
C406 H398 0.951 . S
C406 C405 1.424 . S
C406 C407 1.347 . S
C407 H399 0.951 . S
C407 C402 1.429 . S
C407 C406 1.347 . S
H408 C409 0.951 . S
C409 H408 0.951 . S
C409 C415 1.265 . S
H410 C415 0.950 . S
H411 C419 0.949 . S
H412 C420 0.950 . S
H413 C421 0.951 . S
H414 C422 0.951 . S
C415 C409 1.265 . S
C415 H410 0.950 . S
C415 C416 1.478 . S
C416 C415 1.478 . S
C416 C417 1.397 . S
C416 C433 1.394 . S
C417 C416 1.397 . S
C417 C418 1.438 . S
C417 C422 1.429 . S
C418 C417 1.438 . S
C418 C419 1.428 . S
C418 C431 1.394 . S
C419 H411 0.949 . S
C419 C418 1.428 . S
C419 C420 1.345 . S
C420 H412 0.950 . S
C420 C419 1.345 . S
C420 C421 1.424 . S
C421 H413 0.951 . S
C421 C420 1.424 . S
C421 C422 1.347 . S
C422 H414 0.951 . S
C422 C417 1.429 . S
C422 C421 1.347 . S
H423 C424 0.951 . S
C424 H423 0.951 . S
C424 C430 1.265 . S
H425 C430 0.950 . S
H426 C434 0.949 . S
H427 C435 0.950 . S
H428 C436 0.951 . S
H429 C437 0.951 . S
C430 C424 1.265 . S
C430 H425 0.950 . S
C430 C431 1.478 . S
C431 C418 1.394 . S
C431 C430 1.478 . S
C431 C432 1.397 . S
C432 C431 1.397 . S
C432 C433 1.438 . S
C432 C437 1.429 . S
C433 C416 1.394 . S
C433 C432 1.438 . S
C433 C434 1.428 1_554 S
C434 H426 0.949 . S
C434 C433 1.428 1_556 S
C434 C435 1.345 . S
C435 H427 0.950 . S
C435 C434 1.345 . S
C435 C436 1.424 . S
C436 H428 0.951 . S
C436 C435 1.424 . S
C436 C437 1.347 1_556 S
C437 H429 0.951 . S
C437 C432 1.429 . S
C437 C436 1.347 1_554 S
C79 C10 1.912 1_556 S
C94 C42 1.830 . S
C109 C55 1.870 . S
C124 C23 1.898 . S
C139 C36 1.898 . S
C154 C68 1.806 1_554 S
C169 C49 1.898 . S
C184 C3 1.806 . S
C199 C16 1.806 . S
C214 C62 1.900 . S
C229 C75 1.913 . S
C244 C29 1.876 . S
C259 C5 1.568 . S
C274 C27 1.500 . S
C289 C18 1.591 . S
C304 C40 1.573 . S
C319 C53 1.566 . S
C334 C31 1.587 . S
C349 C66 1.547 . S
C364 C44 1.592 . S
C379 C57 1.579 . S
C394 C1 1.544 1_556 S
C409 C70 1.589 1_554 S
C424 C14 1.569 . S
