# Generated by pormake.
# Topology unh, (4)-cn, num edge types: 1
# Building blocks:
#     Node 0, Type 0, BuildingBlock: GALJAG_clean_sbu_0, # of connection points: 4
#     Node 1, Type 0, BuildingBlock: GALJAG_clean_sbu_0, # of connection points: 4
#     Node 2, Type 0, BuildingBlock: GALJAG_clean_sbu_0, # of connection points: 4
#     Node 3, Type 0, BuildingBlock: GALJAG_clean_sbu_0, # of connection points: 4
#     Node 4, Type 0, BuildingBlock: GALJAG_clean_sbu_0, # of connection points: 4
#     Node 5, Type 0, BuildingBlock: GALJAG_clean_sbu_0, # of connection points: 4
#     Edge 6, Type (0, 0), BuildingBlock: XUDNAN_clean_linker_2, # of connection points: 2
#     Edge 7, Type (0, 0), BuildingBlock: XUDNAN_clean_linker_2, # of connection points: 2
#     Edge 8, Type (0, 0), BuildingBlock: XUDNAN_clean_linker_2, # of connection points: 2
#     Edge 9, Type (0, 0), BuildingBlock: XUDNAN_clean_linker_2, # of connection points: 2
#     Edge 10, Type (0, 0), BuildingBlock: XUDNAN_clean_linker_2, # of connection points: 2
#     Edge 11, Type (0, 0), BuildingBlock: XUDNAN_clean_linker_2, # of connection points: 2
#     Edge 12, Type (0, 0), BuildingBlock: XUDNAN_clean_linker_2, # of connection points: 2
#     Edge 13, Type (0, 0), BuildingBlock: XUDNAN_clean_linker_2, # of connection points: 2
#     Edge 14, Type (0, 0), BuildingBlock: XUDNAN_clean_linker_2, # of connection points: 2
#     Edge 15, Type (0, 0), BuildingBlock: XUDNAN_clean_linker_2, # of connection points: 2
#     Edge 16, Type (0, 0), BuildingBlock: XUDNAN_clean_linker_2, # of connection points: 2
#     Edge 17, Type (0, 0), BuildingBlock: XUDNAN_clean_linker_2, # of connection points: 2
# Relax obj value: 0.030
# Max RMSD: 0.132
# Mean RMSD: 0.132
data_MOF--net-unh--node1-GALJAG_clean_sbu_0--edge1-XUDNAN_clean_linker_2
_symmetry_space_group_name_H-M    P1
_symmetry_Int_Tables_number       1
_symmetry_cell_setting            triclinic
loop_
_symmetry_equiv_pos_as_xyz
'x, y, z'
_cell_length_a     45.203512
_cell_length_b     45.191341
_cell_length_c     20.183128
_cell_angle_alpha  90.040031
_cell_angle_beta   89.974636
_cell_angle_gamma 119.9578
loop_
_atom_site_label
_atom_site_type_symbol
_atom_site_fract_x
_atom_site_fract_y
_atom_site_fract_z
_atom_type_partial_charge
In0 In 0.14354 0.57267 0.07688 0.0
O1 O 0.10457 0.565 0.99803 0.0
O2 O 0.11693 0.52572 0.00943 0.0
C3 C 0.18874 0.5591 0.13687 0.0
C4 C 0.09684 0.56118 0.17162 0.0
C5 C 0.18701 0.63301 0.01968 0.0
O6 O 0.17105 0.54217 0.08779 0.0
O7 O 0.1836 0.58282 0.1556 0.0
O8 O 0.16846 0.6306 0.0685 0.0
O9 O 0.1836 0.605 -0.00029 0.0
C10 C 0.09912 0.53601 0.97998 0.0
O11 O 0.11262 0.58927 0.14126 0.0
O12 O 0.1054 0.53955 0.15555 0.0
In13 In 0.55946 0.13094 0.25304 0.0
O14 O 0.58453 0.11825 0.16685 0.0
O15 O 0.5448 0.07729 0.22045 0.0
C16 C 0.62335 0.17069 0.30038 0.0
C17 C 0.51571 0.09789 0.35353 0.0
C18 C 0.53421 0.16637 0.18921 0.0
O19 O 0.60516 0.1397 0.31642 0.0
O20 O 0.60969 0.18117 0.25923 0.0
O21 O 0.54522 0.17281 0.24773 0.0
O22 O 0.53486 0.14135 0.16329 0.0
C23 C 0.56594 0.08633 0.17357 0.0
O24 O 0.50999 0.08717 0.29469 0.0
O25 O 0.54289 0.12599 0.36146 0.0
In26 In 0.44704 0.58787 0.41142 0.0
O27 O 0.453 0.56862 0.31068 0.0
O28 O 0.49825 0.60102 0.36348 0.0
C29 C 0.46604 0.65099 0.45676 0.0
C30 C 0.45104 0.54935 0.5097 0.0
C31 C 0.384 0.56714 0.36276 0.0
O32 O 0.45121 0.62466 0.49272 0.0
O33 O 0.47162 0.64552 0.39788 0.0
O34 O 0.40392 0.59736 0.38145 0.0
O35 O 0.39558 0.54703 0.36955 0.0
C36 C 0.48502 0.58271 0.31301 0.0
O37 O 0.42277 0.5437 0.48657 0.0
O38 O 0.47665 0.57469 0.48473 0.0
In39 In 0.85948 0.42247 0.57743 0.0
O40 O 0.88899 0.40524 0.64442 0.0
O41 O 0.89746 0.45554 0.65635 0.0
C42 C 0.81677 0.3625 0.51849 0.0
C43 C 0.90363 0.45809 0.4795 0.0
C44 C 0.81434 0.43647 0.63688 0.0
O45 O 0.83366 0.36454 0.5698 0.0
O46 O 0.82153 0.39075 0.49676 0.0
O47 O 0.81466 0.40906 0.6466 0.0
O48 O 0.83681 0.45694 0.59714 0.0
C49 C 0.90517 0.43351 0.67404 0.0
O50 O 0.88292 0.46649 0.50271 0.0
O51 O 0.90126 0.43142 0.50436 0.0
In52 In 0.44007 0.87473 0.75449 0.0
O53 O 0.42536 0.89388 0.66161 0.0
O54 O 0.44625 0.92749 0.74362 0.0
C55 C 0.37705 0.82933 0.80139 0.0
C56 C 0.4881 0.90888 0.84807 0.0
C57 C 0.46312 0.84086 0.68002 0.0
O58 O 0.39652 0.82049 0.77443 0.0
O59 O 0.38891 0.86112 0.8035 0.0
O60 O 0.45895 0.83678 0.7419 0.0
O61 O 0.45651 0.86268 0.65591 0.0
C62 C 0.43509 0.92323 0.6852 0.0
O63 O 0.49493 0.91149 0.78707 0.0
O64 O 0.45746 0.88766 0.86196 0.0
In65 In 0.56159 0.42267 0.91541 0.0
O66 O 0.51372 0.40863 0.85387 0.0
O67 O 0.55987 0.45342 0.82812 0.0
C68 C 0.5389 0.36031 0.96911 0.0
C69 C 0.5569 0.46152 0.01181 0.0
C70 C 0.6218 0.43657 0.8608 0.0
O71 O 0.53037 0.36456 0.91189 0.0
O72 O 0.55849 0.38758 -0.00025 0.0
O73 O 0.61794 0.45883 0.89113 0.0
O74 O 0.59545 0.40743 0.85825 0.0
C75 C 0.52844 0.43452 0.8169 0.0
O76 O 0.5318 0.44063 0.97754 0.0
O77 O 0.58456 0.46209 0.99931 0.0
H78 H 0.05853 0.55405 0.91199 0.0
H79 H 0.07838 0.47038 0.94047 0.0
H80 H 0.0301 0.43415 0.86596 0.0
H81 H 0.96816 0.50431 0.91183 0.0
H82 H 0.96253 0.52943 0.84907 0.0
H83 H 0.99933 0.54894 0.90246 0.0
H84 H 0.03933 0.56879 0.80007 0.0
H85 H 0.00264 0.54966 0.74633 0.0
H86 H 0.03511 0.53781 0.73894 0.0
H87 H 0.97825 0.40679 0.79024 0.0
H88 H 0.92913 0.39156 0.71579 0.0
H89 H 0.94402 0.49358 0.73915 0.0
C90 C 0.05295 0.5282 0.90214 0.0
C91 C 0.07218 0.51498 0.93179 0.0
C92 C 0.064 0.48101 0.91791 0.0
C93 C 0.03659 0.46025 0.8759 0.0
C94 C 0.01778 0.47396 0.84827 0.0
C95 C 0.02581 0.50725 0.86053 0.0
C96 C 0.00163 0.51595 0.82536 0.0
C97 C 0.98173 0.52519 0.87517 0.0
C98 C 0.02083 0.54475 0.77466 0.0
C99 C 0.97854 0.48229 0.79155 0.0
C100 C 0.98817 0.45833 0.80526 0.0
C101 C 0.97053 0.42538 0.77912 0.0
C102 C 0.94264 0.41693 0.73713 0.0
C103 C 0.93277 0.44137 0.72194 0.0
C104 C 0.95087 0.4743 0.75007 0.0
H105 H 0.47597 0.91245 0.97928 0.0
H106 H 0.55308 0.96152 0.82695 0.0
H107 H 0.58706 0.00968 0.90275 0.0
H108 H 0.47478 0.9825 0.02892 0.0
H109 H 0.46873 0.97289 0.11621 0.0
H110 H 0.45457 0.93882 0.05701 0.0
H111 H 0.49118 0.91679 0.11426 0.0
H112 H 0.50518 0.95064 0.17452 0.0
H113 H 0.53615 0.94553 0.12715 0.0
H114 H 0.60631 0.05723 0.98564 0.0
H115 H 0.61057 0.0985 0.07109 0.0
H116 H 0.52133 0.01798 0.16957 0.0
C117 C 0.50068 0.93264 0.96285 0.0
C118 C 0.512 0.93319 0.89746 0.0
C119 C 0.54408 0.96045 0.87712 0.0
C120 C 0.56357 0.98793 0.91986 0.0
C121 C 0.55082 0.98749 0.983 0.0
C122 C 0.52036 0.96021 0.00486 0.0
C123 C 0.51015 0.96763 0.07155 0.0
C124 C 0.47501 0.96534 0.06814 0.0
C125 C 0.51072 0.94373 0.12504 0.0
C126 C 0.53857 0.00398 0.08211 0.0
C127 C 0.56212 0.01488 0.03112 0.0
C128 C 0.58856 0.04871 0.02674 0.0
C129 C 0.59071 0.07201 0.07526 0.0
C130 C 0.56646 0.06133 0.12713 0.0
C131 C 0.54062 0.02673 0.13116 0.0
H132 H 0.46033 0.54141 0.20484 0.0
H133 H 0.55326 0.60322 0.31659 0.0
H134 H 0.58324 0.58098 0.2479 0.0
H135 H 0.46789 0.46919 0.19426 0.0
H136 H 0.45114 0.45757 0.11139 0.0
H137 H 0.43832 0.48163 0.1631 0.0
H138 H 0.45852 0.52905 0.07385 0.0
H139 H 0.47091 0.50485 0.02124 0.0
H140 H 0.50157 0.54834 0.04262 0.0
H141 H 0.60129 0.54744 0.17322 0.0
H142 H 0.60644 0.50777 0.09543 0.0
H143 H 0.50104 0.4678 0.03568 0.0
C144 C 0.48722 0.55096 0.21382 0.0
C145 C 0.50455 0.57417 0.26571 0.0
C146 C 0.5396 0.58566 0.27659 0.0
C147 C 0.55679 0.57309 0.238 0.0
C148 C 0.53857 0.54926 0.18861 0.0
C149 C 0.50465 0.53866 0.17599 0.0
C150 C 0.49017 0.51144 0.12289 0.0
C151 C 0.46011 0.47799 0.14954 0.0
C152 C 0.47968 0.52419 0.06151 0.0
C153 C 0.52093 0.50766 0.10875 0.0
C154 C 0.54874 0.52984 0.14658 0.0
C155 C 0.57975 0.5302 0.14292 0.0
C156 C 0.58241 0.50751 0.09892 0.0
C157 C 0.55413 0.48469 0.05978 0.0
C158 C 0.5231 0.48488 0.06507 0.0
H159 H 0.94806 0.44234 0.41987 0.0
H160 H 0.9194 0.52067 0.42906 0.0
H161 H 0.9667 0.55664 0.3524 0.0
H162 H 0.03794 0.49805 0.41758 0.0
H163 H 0.04606 0.47218 0.36062 0.0
H164 H 0.00953 0.45249 0.4147 0.0
H165 H 0.96956 0.42568 0.31342 0.0
H166 H 0.006 0.445 0.25908 0.0
H167 H 0.97103 0.45286 0.24666 0.0
H168 H 0.01859 0.58456 0.27684 0.0
H169 H 0.06834 0.60052 0.2037 0.0
H170 H 0.06182 0.50322 0.24499 0.0
C171 C 0.95155 0.46696 0.40544 0.0
C172 C 0.93012 0.47877 0.43027 0.0
C173 C 0.93551 0.51113 0.41031 0.0
C174 C 0.96235 0.53175 0.36705 0.0
C175 C 0.98336 0.5195 0.34423 0.0
C176 C 0.97803 0.48771 0.36237 0.0
C177 C 0.00402 0.48029 0.33107 0.0
C178 C 0.02566 0.47548 0.38417 0.0
C179 C 0.98661 0.44912 0.2848 0.0
C180 C 0.02497 0.51292 0.29252 0.0
C181 C 0.01282 0.53533 0.30081 0.0
C182 C 0.02826 0.56717 0.26991 0.0
C183 C 0.05654 0.57606 0.22872 0.0
C184 C 0.06889 0.55311 0.21882 0.0
C185 C 0.05298 0.52132 0.25167 0.0
H186 H 0.47329 0.02902 0.35515 0.0
H187 H 0.51383 0.11925 0.47928 0.0
H188 H 0.48728 0.08277 0.57741 0.0
H189 H 0.39257 0.97372 0.45321 0.0
H190 H 0.39655 0.93642 0.43973 0.0
H191 H 0.41147 0.9695 0.3777 0.0
H192 H 0.47123 0.97481 0.38118 0.0
H193 H 0.45665 0.94204 0.44327 0.0
H194 H 0.4935 0.98328 0.45914 0.0
H195 H 0.46507 0.03722 0.66288 0.0
H196 H 0.45094 0.98631 0.73003 0.0
H197 H 0.42634 0.92519 0.5512 0.0
C198 C 0.47534 0.04111 0.40261 0.0
C199 C 0.49507 0.07692 0.40974 0.0
C200 C 0.49843 0.09186 0.47287 0.0
C201 C 0.48333 0.07133 0.52874 0.0
C202 C 0.46504 0.03596 0.52052 0.0
C203 C 0.4609 0.02094 0.45895 0.0
C204 C 0.4446 0.98248 0.46467 0.0
C205 C 0.40919 0.96447 0.43189 0.0
C206 C 0.4679 0.96995 0.43537 0.0
C207 C 0.44175 0.97836 0.53924 0.0
C208 C 0.45289 0.00943 0.57041 0.0
C209 C 0.45563 0.01266 0.63908 0.0
C210 C 0.44763 0.9836 0.6768 0.0
C211 C 0.43735 0.9518 0.64577 0.0
C212 C 0.43348 0.94902 0.57626 0.0
H213 H 0.55508 0.49205 0.74157 0.0
H214 H 0.4602 0.39918 0.78561 0.0
H215 H 0.42913 0.41845 0.71232 0.0
H216 H 0.52076 0.54752 0.74208 0.0
H217 H 0.54754 0.57391 0.67558 0.0
H218 H 0.56224 0.55197 0.72886 0.0
H219 H 0.57205 0.52299 0.62686 0.0
H220 H 0.55777 0.54515 0.57319 0.0
H221 H 0.53743 0.49924 0.56976 0.0
H222 H 0.4085 0.44953 0.63617 0.0
H223 H 0.40077 0.4882 0.56004 0.0
H224 H 0.50957 0.56018 0.569 0.0
C225 C 0.52782 0.47551 0.73523 0.0
C226 C 0.51002 0.44405 0.76891 0.0
C227 C 0.47432 0.42332 0.75986 0.0
C228 C 0.45648 0.43411 0.71859 0.0
C229 C 0.47479 0.46566 0.68702 0.0
C230 C 0.50972 0.48591 0.69469 0.0
C231 C 0.52353 0.51895 0.65658 0.0
C232 C 0.53945 0.54991 0.70359 0.0
C233 C 0.5492 0.52172 0.60344 0.0
C234 C 0.49097 0.51417 0.62587 0.0
C235 C 0.46304 0.48339 0.64404 0.0
C236 C 0.43023 0.47366 0.62157 0.0
C237 C 0.42605 0.49579 0.57865 0.0
C238 C 0.45456 0.52713 0.55878 0.0
C239 C 0.48727 0.53639 0.58333 0.0
H240 H 0.23616 0.59812 0.22998 0.0
H241 H 0.1985 0.50472 0.11596 0.0
H242 H 0.24189 0.49413 0.16808 0.0
H243 H 0.32347 0.62435 0.21504 0.0
H244 H 0.33461 0.64198 0.2974 0.0
H245 H 0.29877 0.64046 0.25544 0.0
H246 H 0.25944 0.60679 0.35388 0.0
H247 H 0.29521 0.60814 0.39613 0.0
H248 H 0.25725 0.5677 0.38073 0.0
H249 H 0.29087 0.49496 0.23016 0.0
H250 H 0.34364 0.50901 0.29176 0.0
H251 H 0.34996 0.60281 0.36162 0.0
C252 C 0.23677 0.57522 0.21656 0.0
C253 C 0.21389 0.55211 0.16927 0.0
C254 C 0.21578 0.52269 0.15227 0.0
C255 C 0.24023 0.51641 0.18177 0.0
C256 C 0.26258 0.53985 0.22799 0.0
C257 C 0.26113 0.56873 0.24507 0.0
C258 C 0.28929 0.59095 0.29305 0.0
C259 C 0.31293 0.62653 0.26343 0.0
C260 C 0.2744 0.59353 0.35991 0.0
C261 C 0.30727 0.57045 0.29927 0.0
C262 C 0.29119 0.54077 0.26228 0.0
C263 C 0.30358 0.51805 0.25953 0.0
C264 C 0.33348 0.52619 0.29474 0.0
C265 C 0.35081 0.55697 0.33131 0.0
C266 C 0.33722 0.57908 0.33408 0.0
H267 H 0.6622 0.23971 0.28471 0.0
H268 H 0.65869 0.15402 0.38871 0.0
H269 H 0.71104 0.19384 0.45012 0.0
H270 H 0.75609 0.29276 0.27405 0.0
H271 H 0.75519 0.33172 0.28772 0.0
H272 H 0.71993 0.29616 0.24677 0.0
H273 H 0.67832 0.29732 0.33374 0.0
H274 H 0.7134 0.33267 0.37518 0.0
H275 H 0.68579 0.29423 0.42054 0.0
H276 H 0.76054 0.24341 0.50724 0.0
H277 H 0.80373 0.29877 0.55478 0.0
H278 H 0.77428 0.35179 0.41359 0.0
C279 C 0.67287 0.22924 0.31932 0.0
C280 C 0.65658 0.19379 0.33171 0.0
C281 C 0.67093 0.18111 0.37823 0.0
C282 C 0.70064 0.20351 0.41327 0.0
C283 C 0.71564 0.23844 0.40095 0.0
C284 C 0.70234 0.25121 0.3548 0.0
C285 C 0.72184 0.28987 0.35399 0.0
C286 C 0.7393 0.30342 0.28663 0.0
C287 C 0.69844 0.30435 0.37195 0.0
C288 C 0.74775 0.29691 0.40795 0.0
C289 C 0.74398 0.26695 0.43406 0.0
C290 C 0.764 0.26703 0.48664 0.0
C291 C 0.78839 0.29857 0.5134 0.0
C292 C 0.7924 0.32952 0.48768 0.0
C293 C 0.77199 0.32856 0.43388 0.0
H294 H 0.45982 0.78088 0.71411 0.0
H295 H 0.48477 0.85202 0.55118 0.0
H296 H 0.49398 0.81327 0.47837 0.0
H297 H 0.51879 0.74946 0.67026 0.0
H298 H 0.48842 0.70629 0.69415 0.0
H299 H 0.48843 0.74169 0.73536 0.0
H300 H 0.42448 0.71657 0.70604 0.0
H301 H 0.4243 0.68124 0.66459 0.0
H302 H 0.41118 0.70749 0.62068 0.0
H303 H 0.49608 0.76472 0.4214 0.0
H304 H 0.48857 0.70932 0.38359 0.0
H305 H 0.46001 0.66924 0.58306 0.0
C306 C 0.46807 0.78869 0.66356 0.0
C307 C 0.47202 0.81959 0.63835 0.0
C308 C 0.48189 0.82854 0.57149 0.0
C309 C 0.48724 0.80675 0.52988 0.0
C310 C 0.48247 0.7761 0.55593 0.0
C311 C 0.47307 0.76706 0.62124 0.0
C312 C 0.46654 0.73141 0.63554 0.0
C313 C 0.49208 0.73228 0.68687 0.0
C314 C 0.42942 0.7078 0.65801 0.0
C315 C 0.47302 0.72148 0.56775 0.0
C316 C 0.48271 0.74777 0.52273 0.0
C317 C 0.48882 0.74408 0.45637 0.0
C318 C 0.4845 0.71254 0.43536 0.0
C319 C 0.47378 0.68506 0.48043 0.0
C320 C 0.46842 0.68985 0.54756 0.0
H321 H 0.64107 0.39073 0.82248 0.0
H322 H 0.67564 0.49915 0.8283 0.0
H323 H 0.72906 0.51127 0.77133 0.0
H324 H 0.72385 0.3994 0.85487 0.0
H325 H 0.71639 0.36443 0.80121 0.0
H326 H 0.68101 0.36458 0.84198 0.0
H327 H 0.65169 0.35815 0.72833 0.0
H328 H 0.68702 0.35812 0.68719 0.0
H329 H 0.67443 0.38871 0.66367 0.0
H330 H 0.77731 0.51096 0.70824 0.0
H331 H 0.81878 0.49869 0.65229 0.0
H332 H 0.75382 0.39081 0.69433 0.0
C333 C 0.65992 0.41703 0.81183 0.0
C334 C 0.65427 0.44404 0.82935 0.0
C335 C 0.67959 0.47813 0.81527 0.0
C336 C 0.70992 0.48522 0.78282 0.0
C337 C 0.71462 0.45794 0.76575 0.0
C338 C 0.69049 0.42457 0.78054 0.0
C339 C 0.70197 0.39992 0.75816 0.0
C340 C 0.70605 0.38097 0.8176 0.0
C341 C 0.67731 0.37475 0.70625 0.0
C342 C 0.73617 0.42458 0.72773 0.0
C343 C 0.74292 0.45791 0.73208 0.0
C344 C 0.77245 0.485 0.70515 0.0
C345 C 0.79577 0.4778 0.67333 0.0
C346 C 0.78956 0.44388 0.66954 0.0
C347 C 0.75939 0.41704 0.69722 0.0
H348 H 0.34646 0.75973 0.79901 0.0
H349 H 0.3343 0.84287 0.87503 0.0
H350 H 0.28236 0.80128 0.93532 0.0
H351 H 0.2551 0.69808 0.77877 0.0
H352 H 0.26003 0.6625 0.8038 0.0
H353 H 0.29467 0.6987 0.76304 0.0
H354 H 0.33465 0.70584 0.86121 0.0
H355 H 0.30014 0.66986 0.90247 0.0
H356 H 0.3226 0.71054 0.94405 0.0
H357 H 0.23456 0.7509 0.99445 0.0
H358 H 0.19298 0.69534 0.04382 0.0
H359 H 0.236 0.64532 0.927 0.0
C360 C 0.33258 0.76916 0.82752 0.0
C361 C 0.34431 0.80449 0.83231 0.0
C362 C 0.32562 0.81587 0.87047 0.0
C363 C 0.29614 0.79246 0.90491 0.0
C364 C 0.28561 0.7578 0.90013 0.0
C365 C 0.30309 0.74617 0.86186 0.0
C366 C 0.28718 0.70777 0.86672 0.0
C367 C 0.27342 0.69077 0.79906 0.0
C368 C 0.31266 0.69795 0.89533 0.0
C369 C 0.25842 0.69965 0.91478 0.0
C370 C 0.25787 0.72881 0.93339 0.0
C371 C 0.23449 0.72784 0.97964 0.0
C372 C 0.21107 0.69622 0.00754 0.0
C373 C 0.21118 0.66606 0.98893 0.0
C374 C 0.23508 0.6679 0.94167 0.0
H375 H 0.55309 0.34491 0.09197 0.0
H376 H 0.50267 0.29876 0.90636 0.0
H377 H 0.49068 0.24231 0.94723 0.0
H378 H 0.59438 0.29813 0.11196 0.0
H379 H 0.58935 0.29381 0.20064 0.0
H380 H 0.59052 0.32974 0.15982 0.0
H381 H 0.53204 0.31418 0.21165 0.0
H382 H 0.53072 0.27817 0.25285 0.0
H383 H 0.49602 0.27192 0.19972 0.0
H384 H 0.4904 0.19242 0.00292 0.0
H385 H 0.50017 0.15259 0.07104 0.0
H386 H 0.54877 0.23085 0.22173 0.0
C387 C 0.53893 0.32281 0.06044 0.0
C388 C 0.52873 0.32615 0.99608 0.0
C389 C 0.51058 0.29672 0.956 0.0
C390 C 0.50361 0.26455 0.9788 0.0
C391 C 0.51461 0.26222 0.04206 0.0
C392 C 0.53158 0.29051 0.0826 0.0
C393 C 0.54241 0.2815 0.14694 0.0
C394 C 0.58147 0.302 0.15527 0.0
C395 C 0.5242 0.28675 0.2063 0.0
C396 C 0.52986 0.24397 0.13539 0.0
C397 C 0.51371 0.23325 0.07479 0.0
C398 C 0.50239 0.20032 0.05104 0.0
C399 C 0.50809 0.17791 0.08994 0.0
C400 C 0.52481 0.18854 0.15189 0.0
C401 C 0.53525 0.22179 0.1752 0.0
loop_
_geom_bond_atom_site_label_1
_geom_bond_atom_site_label_2
_geom_bond_distance
_geom_bond_site_symmetry_2
_ccdc_geom_bond_type
In0 O1 2.294 . S
In0 O2 2.326 . S
In0 O6 2.266 . S
In0 O7 2.326 . S
In0 O8 2.266 . S
In0 O9 2.326 . S
In0 O11 2.294 . S
In0 O12 2.326 . S
O1 In0 2.294 . S
O1 C10 1.240 1_554 S
O2 In0 2.326 . S
O2 C10 1.252 1_554 S
C3 O6 1.252 . S
C3 O7 1.260 . S
C4 O11 1.240 . S
C4 O12 1.252 . S
C5 O8 1.252 . S
C5 O9 1.260 . S
O6 In0 2.266 . S
O6 C3 1.252 . S
O7 In0 2.326 . S
O7 C3 1.260 . S
O8 In0 2.266 . S
O8 C5 1.252 . S
O9 In0 2.326 . S
O9 C5 1.260 . S
C10 O1 1.240 1_556 S
C10 O2 1.252 1_556 S
O11 In0 2.294 . S
O11 C4 1.240 . S
O12 In0 2.326 . S
O12 C4 1.252 . S
In13 O14 2.294 . S
In13 O15 2.326 . S
In13 O19 2.266 . S
In13 O20 2.326 . S
In13 O21 2.266 . S
In13 O22 2.326 . S
In13 O24 2.294 . S
In13 O25 2.326 . S
O14 In13 2.294 . S
O14 C23 1.240 . S
O15 In13 2.326 . S
O15 C23 1.252 . S
C16 O19 1.252 . S
C16 O20 1.260 . S
C17 O24 1.240 . S
C17 O25 1.252 . S
C18 O21 1.252 . S
C18 O22 1.260 . S
O19 In13 2.266 . S
O19 C16 1.252 . S
O20 In13 2.326 . S
O20 C16 1.260 . S
O21 In13 2.266 . S
O21 C18 1.252 . S
O22 In13 2.326 . S
O22 C18 1.260 . S
C23 O14 1.240 . S
C23 O15 1.252 . S
O24 In13 2.294 . S
O24 C17 1.240 . S
O25 In13 2.326 . S
O25 C17 1.252 . S
In26 O27 2.294 . S
In26 O28 2.326 . S
In26 O32 2.266 . S
In26 O33 2.326 . S
In26 O34 2.266 . S
In26 O35 2.326 . S
In26 O37 2.294 . S
In26 O38 2.326 . S
O27 In26 2.294 . S
O27 C36 1.240 . S
O28 In26 2.326 . S
O28 C36 1.252 . S
C29 O32 1.252 . S
C29 O33 1.260 . S
C30 O37 1.240 . S
C30 O38 1.252 . S
C31 O34 1.252 . S
C31 O35 1.260 . S
O32 In26 2.266 . S
O32 C29 1.252 . S
O33 In26 2.326 . S
O33 C29 1.260 . S
O34 In26 2.266 . S
O34 C31 1.252 . S
O35 In26 2.326 . S
O35 C31 1.260 . S
C36 O27 1.240 . S
C36 O28 1.252 . S
O37 In26 2.294 . S
O37 C30 1.240 . S
O38 In26 2.326 . S
O38 C30 1.252 . S
In39 O40 2.294 . S
In39 O41 2.326 . S
In39 O45 2.266 . S
In39 O46 2.326 . S
In39 O47 2.266 . S
In39 O48 2.326 . S
In39 O50 2.294 . S
In39 O51 2.326 . S
O40 In39 2.294 . S
O40 C49 1.240 . S
O41 In39 2.326 . S
O41 C49 1.252 . S
C42 O45 1.252 . S
C42 O46 1.260 . S
C43 O50 1.240 . S
C43 O51 1.252 . S
C44 O47 1.252 . S
C44 O48 1.260 . S
O45 In39 2.266 . S
O45 C42 1.252 . S
O46 In39 2.326 . S
O46 C42 1.260 . S
O47 In39 2.266 . S
O47 C44 1.252 . S
O48 In39 2.326 . S
O48 C44 1.260 . S
C49 O40 1.240 . S
C49 O41 1.252 . S
O50 In39 2.294 . S
O50 C43 1.240 . S
O51 In39 2.326 . S
O51 C43 1.252 . S
In52 O53 2.294 . S
In52 O54 2.326 . S
In52 O58 2.266 . S
In52 O59 2.326 . S
In52 O60 2.266 . S
In52 O61 2.326 . S
In52 O63 2.294 . S
In52 O64 2.326 . S
O53 In52 2.294 . S
O53 C62 1.240 . S
O54 In52 2.326 . S
O54 C62 1.252 . S
C55 O58 1.252 . S
C55 O59 1.260 . S
C56 O63 1.240 . S
C56 O64 1.252 . S
C57 O60 1.252 . S
C57 O61 1.260 . S
O58 In52 2.266 . S
O58 C55 1.252 . S
O59 In52 2.326 . S
O59 C55 1.260 . S
O60 In52 2.266 . S
O60 C57 1.252 . S
O61 In52 2.326 . S
O61 C57 1.260 . S
C62 O53 1.240 . S
C62 O54 1.252 . S
O63 In52 2.294 . S
O63 C56 1.240 . S
O64 In52 2.326 . S
O64 C56 1.252 . S
In65 O66 2.294 . S
In65 O67 2.326 . S
In65 O71 2.266 . S
In65 O72 2.326 . S
In65 O73 2.266 . S
In65 O74 2.326 . S
In65 O76 2.294 . S
In65 O77 2.326 . S
O66 In65 2.294 . S
O66 C75 1.240 . S
O67 In65 2.326 . S
O67 C75 1.252 . S
C68 O71 1.252 . S
C68 O72 1.260 . S
C69 O76 1.240 1_554 S
C69 O77 1.252 1_554 S
C70 O73 1.252 . S
C70 O74 1.260 . S
O71 In65 2.266 . S
O71 C68 1.252 . S
O72 In65 2.326 . S
O72 C68 1.260 . S
O73 In65 2.266 . S
O73 C70 1.252 . S
O74 In65 2.326 . S
O74 C70 1.260 . S
C75 O66 1.240 . S
C75 O67 1.252 . S
O76 In65 2.294 . S
O76 C69 1.240 1_556 S
O77 In65 2.326 . S
O77 C69 1.252 1_556 S
H78 C90 0.930 . S
H79 C92 0.930 . S
H80 C93 0.930 . S
H81 C97 0.959 . S
H82 C97 0.959 . S
H83 C97 0.961 . S
H84 C98 0.960 . S
H85 C98 0.961 . S
H86 C98 0.959 . S
H87 C101 0.929 1_455 S
H88 C102 0.931 . S
H89 C104 0.930 . S
C90 H78 0.930 . S
C90 C91 1.399 . S
C90 C95 1.399 . S
C91 C90 1.399 . S
C91 C92 1.376 . S
C92 H79 0.930 . S
C92 C91 1.376 . S
C92 C93 1.388 . S
C93 H80 0.930 . S
C93 C92 1.388 . S
C93 C94 1.390 . S
C94 C93 1.390 . S
C94 C95 1.394 . S
C94 C100 1.465 1_455 S
C95 C90 1.399 . S
C95 C94 1.394 . S
C95 C96 1.516 1_455 S
C96 C95 1.516 1_655 S
C96 C97 1.502 . S
C96 C98 1.561 . S
C96 C99 1.526 . S
C97 H81 0.959 . S
C97 H82 0.959 . S
C97 H83 0.961 . S
C97 C96 1.502 . S
C98 H84 0.960 . S
C98 H85 0.961 . S
C98 H86 0.959 . S
C98 C96 1.561 . S
C99 C96 1.526 . S
C99 C100 1.396 . S
C99 C104 1.390 . S
C100 C94 1.465 1_655 S
C100 C99 1.396 . S
C100 C101 1.399 . S
C101 H87 0.929 1_655 S
C101 C100 1.399 . S
C101 C102 1.385 . S
C102 H88 0.931 . S
C102 C101 1.385 . S
C102 C103 1.389 . S
C103 C102 1.389 . S
C103 C104 1.387 . S
C104 H89 0.930 . S
C104 C99 1.390 . S
C104 C103 1.387 . S
H105 C117 0.930 . S
H106 C119 0.930 . S
H107 C120 0.930 . S
H108 C124 0.959 . S
H109 C124 0.959 . S
H110 C124 0.961 . S
H111 C125 0.960 . S
H112 C125 0.961 . S
H113 C125 0.959 . S
H114 C128 0.929 1_565 S
H115 C129 0.931 . S
H116 C131 0.930 . S
C117 H105 0.930 . S
C117 C118 1.399 . S
C117 C122 1.399 . S
C118 C117 1.399 . S
C118 C119 1.376 . S
C119 H106 0.930 . S
C119 C118 1.376 . S
C119 C120 1.388 1_556 S
C120 H107 0.930 . S
C120 C119 1.388 1_554 S
C120 C121 1.390 1_554 S
C121 C120 1.390 1_556 S
C121 C122 1.397 . S
C121 C127 1.463 1_566 S
C122 C117 1.399 . S
C122 C121 1.397 . S
C122 C123 1.516 1_565 S
C123 C122 1.516 1_545 S
C123 C124 1.502 . S
C123 C125 1.561 . S
C123 C126 1.526 1_556 S
C124 H108 0.959 . S
C124 H109 0.959 . S
C124 H110 0.961 . S
C124 C123 1.502 . S
C125 H111 0.960 . S
C125 H112 0.961 . S
C125 H113 0.959 . S
C125 C123 1.561 . S
C126 C123 1.526 1_554 S
C126 C127 1.396 . S
C126 C131 1.390 . S
C127 C121 1.463 1_544 S
C127 C126 1.396 . S
C127 C128 1.399 . S
C128 H114 0.929 1_545 S
C128 C127 1.399 . S
C128 C129 1.385 . S
C129 H115 0.931 . S
C129 C128 1.385 . S
C129 C130 1.389 . S
C130 C129 1.389 . S
C130 C131 1.387 . S
C131 H116 0.930 . S
C131 C126 1.390 . S
C131 C130 1.387 . S
H132 C144 0.930 . S
H133 C146 0.930 . S
H134 C147 0.930 . S
H135 C151 0.959 . S
H136 C151 0.959 . S
H137 C151 0.961 . S
H138 C152 0.960 . S
H139 C152 0.961 . S
H140 C152 0.959 . S
H141 C155 0.929 . S
H142 C156 0.931 . S
H143 C158 0.930 . S
C144 H132 0.930 . S
C144 C145 1.399 . S
C144 C149 1.399 . S
C145 C144 1.399 . S
C145 C146 1.376 . S
C146 H133 0.930 . S
C146 C145 1.376 . S
C146 C147 1.388 . S
C147 H134 0.930 . S
C147 C146 1.388 . S
C147 C148 1.390 . S
C148 C147 1.390 . S
C148 C149 1.394 . S
C148 C154 1.465 . S
C149 C144 1.399 . S
C149 C148 1.394 . S
C149 C150 1.516 . S
C150 C149 1.516 . S
C150 C151 1.502 . S
C150 C152 1.561 . S
C150 C153 1.526 . S
C151 H135 0.959 . S
C151 H136 0.959 . S
C151 H137 0.961 . S
C151 C150 1.502 . S
C152 H138 0.960 . S
C152 H139 0.961 . S
C152 H140 0.959 . S
C152 C150 1.561 . S
C153 C150 1.526 . S
C153 C154 1.396 . S
C153 C158 1.390 . S
C154 C148 1.465 . S
C154 C153 1.396 . S
C154 C155 1.399 . S
C155 H141 0.929 . S
C155 C154 1.399 . S
C155 C156 1.385 . S
C156 H142 0.931 . S
C156 C155 1.385 . S
C156 C157 1.389 . S
C157 C156 1.389 . S
C157 C158 1.387 . S
C158 H143 0.930 . S
C158 C153 1.390 . S
C158 C157 1.387 . S
H159 C171 0.930 . S
H160 C173 0.930 . S
H161 C174 0.930 1_455 S
H162 C178 0.959 . S
H163 C178 0.959 . S
H164 C178 0.961 . S
H165 C179 0.960 . S
H166 C179 0.961 . S
H167 C179 0.959 . S
H168 C182 0.929 . S
H169 C183 0.931 . S
H170 C185 0.930 . S
C171 H159 0.930 . S
C171 C172 1.399 . S
C171 C176 1.399 . S
C172 C171 1.399 . S
C172 C173 1.376 . S
C173 H160 0.930 . S
C173 C172 1.376 . S
C173 C174 1.388 . S
C174 H161 0.930 1_655 S
C174 C173 1.388 . S
C174 C175 1.390 . S
C175 C174 1.390 . S
C175 C176 1.394 . S
C175 C181 1.465 1_655 S
C176 C171 1.399 . S
C176 C175 1.394 . S
C176 C177 1.516 . S
C177 C176 1.516 . S
C177 C178 1.502 . S
C177 C179 1.561 . S
C177 C180 1.526 1_655 S
C178 H162 0.959 . S
C178 H163 0.959 . S
C178 H164 0.961 . S
C178 C177 1.502 . S
C179 H165 0.960 . S
C179 H166 0.961 . S
C179 H167 0.959 . S
C179 C177 1.561 . S
C180 C177 1.526 1_455 S
C180 C181 1.396 . S
C180 C185 1.390 . S
C181 C175 1.465 1_455 S
C181 C180 1.396 . S
C181 C182 1.399 . S
C182 H168 0.929 . S
C182 C181 1.399 . S
C182 C183 1.385 . S
C183 H169 0.931 . S
C183 C182 1.385 . S
C183 C184 1.389 . S
C184 C183 1.389 . S
C184 C185 1.387 . S
C185 H170 0.930 . S
C185 C180 1.390 . S
C185 C184 1.387 . S
H186 C198 0.930 . S
H187 C200 0.930 . S
H188 C201 0.930 . S
H189 C205 0.959 . S
H190 C205 0.959 . S
H191 C205 0.961 . S
H192 C206 0.960 . S
H193 C206 0.961 . S
H194 C206 0.959 . S
H195 C209 0.929 1_545 S
H196 C210 0.931 . S
H197 C212 0.930 . S
C198 H186 0.930 . S
C198 C199 1.399 . S
C198 C203 1.399 . S
C199 C198 1.399 . S
C199 C200 1.376 . S
C200 H187 0.930 . S
C200 C199 1.376 . S
C200 C201 1.388 . S
C201 H188 0.930 . S
C201 C200 1.388 . S
C201 C202 1.390 . S
C202 C201 1.390 . S
C202 C203 1.394 . S
C202 C208 1.465 1_545 S
C203 C198 1.399 . S
C203 C202 1.394 . S
C203 C204 1.516 1_545 S
C204 C203 1.516 1_565 S
C204 C205 1.502 . S
C204 C206 1.561 . S
C204 C207 1.526 . S
C205 H189 0.959 . S
C205 H190 0.959 . S
C205 H191 0.961 . S
C205 C204 1.502 . S
C206 H192 0.960 . S
C206 H193 0.961 . S
C206 H194 0.959 . S
C206 C204 1.561 . S
C207 C204 1.526 . S
C207 C208 1.396 . S
C207 C212 1.390 . S
C208 C202 1.465 1_565 S
C208 C207 1.396 . S
C208 C209 1.399 . S
C209 H195 0.929 1_565 S
C209 C208 1.399 . S
C209 C210 1.385 . S
C210 H196 0.931 . S
C210 C209 1.385 . S
C210 C211 1.389 . S
C211 C210 1.389 . S
C211 C212 1.387 . S
C212 H197 0.930 . S
C212 C207 1.390 . S
C212 C211 1.387 . S
H213 C225 0.930 . S
H214 C227 0.930 . S
H215 C228 0.930 . S
H216 C232 0.959 . S
H217 C232 0.959 . S
H218 C232 0.961 . S
H219 C233 0.960 . S
H220 C233 0.961 . S
H221 C233 0.959 . S
H222 C236 0.929 . S
H223 C237 0.931 . S
H224 C239 0.930 . S
C225 H213 0.930 . S
C225 C226 1.399 . S
C225 C230 1.399 . S
C226 C225 1.399 . S
C226 C227 1.376 . S
C227 H214 0.930 . S
C227 C226 1.376 . S
C227 C228 1.388 . S
C228 H215 0.930 . S
C228 C227 1.388 . S
C228 C229 1.390 . S
C229 C228 1.390 . S
C229 C230 1.394 . S
C229 C235 1.465 . S
C230 C225 1.399 . S
C230 C229 1.394 . S
C230 C231 1.516 . S
C231 C230 1.516 . S
C231 C232 1.502 . S
C231 C233 1.561 . S
C231 C234 1.526 . S
C232 H216 0.959 . S
C232 H217 0.959 . S
C232 H218 0.961 . S
C232 C231 1.502 . S
C233 H219 0.960 . S
C233 H220 0.961 . S
C233 H221 0.959 . S
C233 C231 1.561 . S
C234 C231 1.526 . S
C234 C235 1.396 . S
C234 C239 1.390 . S
C235 C229 1.465 . S
C235 C234 1.396 . S
C235 C236 1.399 . S
C236 H222 0.929 . S
C236 C235 1.399 . S
C236 C237 1.385 . S
C237 H223 0.931 . S
C237 C236 1.385 . S
C237 C238 1.389 . S
C238 C237 1.389 . S
C238 C239 1.387 . S
C239 H224 0.930 . S
C239 C234 1.390 . S
C239 C238 1.387 . S
H240 C252 0.930 . S
H241 C254 0.930 . S
H242 C255 0.930 . S
H243 C259 0.959 . S
H244 C259 0.959 . S
H245 C259 0.961 . S
H246 C260 0.960 . S
H247 C260 0.961 . S
H248 C260 0.959 . S
H249 C263 0.929 . S
H250 C264 0.931 . S
H251 C266 0.930 . S
C252 H240 0.930 . S
C252 C253 1.399 . S
C252 C257 1.399 . S
C253 C252 1.399 . S
C253 C254 1.376 . S
C254 H241 0.930 . S
C254 C253 1.376 . S
C254 C255 1.388 . S
C255 H242 0.930 . S
C255 C254 1.388 . S
C255 C256 1.390 . S
C256 C255 1.390 . S
C256 C257 1.394 . S
C256 C262 1.465 . S
C257 C252 1.399 . S
C257 C256 1.394 . S
C257 C258 1.516 . S
C258 C257 1.516 . S
C258 C259 1.502 . S
C258 C260 1.561 . S
C258 C261 1.526 . S
C259 H243 0.959 . S
C259 H244 0.959 . S
C259 H245 0.961 . S
C259 C258 1.502 . S
C260 H246 0.960 . S
C260 H247 0.961 . S
C260 H248 0.959 . S
C260 C258 1.561 . S
C261 C258 1.526 . S
C261 C262 1.396 . S
C261 C266 1.390 . S
C262 C256 1.465 . S
C262 C261 1.396 . S
C262 C263 1.399 . S
C263 H249 0.929 . S
C263 C262 1.399 . S
C263 C264 1.385 . S
C264 H250 0.931 . S
C264 C263 1.385 . S
C264 C265 1.389 . S
C265 C264 1.389 . S
C265 C266 1.387 . S
C266 H251 0.930 . S
C266 C261 1.390 . S
C266 C265 1.387 . S
H267 C279 0.930 . S
H268 C281 0.930 . S
H269 C282 0.930 . S
H270 C286 0.959 . S
H271 C286 0.959 . S
H272 C286 0.961 . S
H273 C287 0.960 . S
H274 C287 0.961 . S
H275 C287 0.959 . S
H276 C290 0.929 . S
H277 C291 0.931 . S
H278 C293 0.930 . S
C279 H267 0.930 . S
C279 C280 1.399 . S
C279 C284 1.399 . S
C280 C279 1.399 . S
C280 C281 1.376 . S
C281 H268 0.930 . S
C281 C280 1.376 . S
C281 C282 1.388 . S
C282 H269 0.930 . S
C282 C281 1.388 . S
C282 C283 1.390 . S
C283 C282 1.390 . S
C283 C284 1.394 . S
C283 C289 1.465 . S
C284 C279 1.399 . S
C284 C283 1.394 . S
C284 C285 1.516 . S
C285 C284 1.516 . S
C285 C286 1.502 . S
C285 C287 1.561 . S
C285 C288 1.526 . S
C286 H270 0.959 . S
C286 H271 0.959 . S
C286 H272 0.961 . S
C286 C285 1.502 . S
C287 H273 0.960 . S
C287 H274 0.961 . S
C287 H275 0.959 . S
C287 C285 1.561 . S
C288 C285 1.526 . S
C288 C289 1.396 . S
C288 C293 1.390 . S
C289 C283 1.465 . S
C289 C288 1.396 . S
C289 C290 1.399 . S
C290 H276 0.929 . S
C290 C289 1.399 . S
C290 C291 1.385 . S
C291 H277 0.931 . S
C291 C290 1.385 . S
C291 C292 1.389 . S
C292 C291 1.389 . S
C292 C293 1.387 . S
C293 H278 0.930 . S
C293 C288 1.390 . S
C293 C292 1.387 . S
H294 C306 0.930 . S
H295 C308 0.930 . S
H296 C309 0.930 . S
H297 C313 0.959 . S
H298 C313 0.959 . S
H299 C313 0.961 . S
H300 C314 0.960 . S
H301 C314 0.961 . S
H302 C314 0.959 . S
H303 C317 0.929 . S
H304 C318 0.931 . S
H305 C320 0.930 . S
C306 H294 0.930 . S
C306 C307 1.399 . S
C306 C311 1.399 . S
C307 C306 1.399 . S
C307 C308 1.376 . S
C308 H295 0.930 . S
C308 C307 1.376 . S
C308 C309 1.388 . S
C309 H296 0.930 . S
C309 C308 1.388 . S
C309 C310 1.390 . S
C310 C309 1.390 . S
C310 C311 1.394 . S
C310 C316 1.465 . S
C311 C306 1.399 . S
C311 C310 1.394 . S
C311 C312 1.516 . S
C312 C311 1.516 . S
C312 C313 1.502 . S
C312 C314 1.561 . S
C312 C315 1.526 . S
C313 H297 0.959 . S
C313 H298 0.959 . S
C313 H299 0.961 . S
C313 C312 1.502 . S
C314 H300 0.960 . S
C314 H301 0.961 . S
C314 H302 0.959 . S
C314 C312 1.561 . S
C315 C312 1.526 . S
C315 C316 1.396 . S
C315 C320 1.390 . S
C316 C310 1.465 . S
C316 C315 1.396 . S
C316 C317 1.399 . S
C317 H303 0.929 . S
C317 C316 1.399 . S
C317 C318 1.385 . S
C318 H304 0.931 . S
C318 C317 1.385 . S
C318 C319 1.389 . S
C319 C318 1.389 . S
C319 C320 1.387 . S
C320 H305 0.930 . S
C320 C315 1.390 . S
C320 C319 1.387 . S
H321 C333 0.930 . S
H322 C335 0.930 . S
H323 C336 0.930 . S
H324 C340 0.959 . S
H325 C340 0.959 . S
H326 C340 0.961 . S
H327 C341 0.960 . S
H328 C341 0.961 . S
H329 C341 0.959 . S
H330 C344 0.929 . S
H331 C345 0.931 . S
H332 C347 0.930 . S
C333 H321 0.930 . S
C333 C334 1.399 . S
C333 C338 1.399 . S
C334 C333 1.399 . S
C334 C335 1.376 . S
C335 H322 0.930 . S
C335 C334 1.376 . S
C335 C336 1.388 . S
C336 H323 0.930 . S
C336 C335 1.388 . S
C336 C337 1.390 . S
C337 C336 1.390 . S
C337 C338 1.394 . S
C337 C343 1.465 . S
C338 C333 1.399 . S
C338 C337 1.394 . S
C338 C339 1.516 . S
C339 C338 1.516 . S
C339 C340 1.502 . S
C339 C341 1.561 . S
C339 C342 1.526 . S
C340 H324 0.959 . S
C340 H325 0.959 . S
C340 H326 0.961 . S
C340 C339 1.502 . S
C341 H327 0.960 . S
C341 H328 0.961 . S
C341 H329 0.959 . S
C341 C339 1.561 . S
C342 C339 1.526 . S
C342 C343 1.396 . S
C342 C347 1.390 . S
C343 C337 1.465 . S
C343 C342 1.396 . S
C343 C344 1.399 . S
C344 H330 0.929 . S
C344 C343 1.399 . S
C344 C345 1.385 . S
C345 H331 0.931 . S
C345 C344 1.385 . S
C345 C346 1.389 . S
C346 C345 1.389 . S
C346 C347 1.387 . S
C347 H332 0.930 . S
C347 C342 1.390 . S
C347 C346 1.387 . S
H348 C360 0.930 . S
H349 C362 0.930 . S
H350 C363 0.930 . S
H351 C367 0.959 . S
H352 C367 0.959 . S
H353 C367 0.961 . S
H354 C368 0.960 . S
H355 C368 0.961 . S
H356 C368 0.959 . S
H357 C371 0.929 . S
H358 C372 0.931 . S
H359 C374 0.930 . S
C360 H348 0.930 . S
C360 C361 1.399 . S
C360 C365 1.399 . S
C361 C360 1.399 . S
C361 C362 1.376 . S
C362 H349 0.930 . S
C362 C361 1.376 . S
C362 C363 1.388 . S
C363 H350 0.930 . S
C363 C362 1.388 . S
C363 C364 1.390 . S
C364 C363 1.390 . S
C364 C365 1.394 . S
C364 C370 1.465 . S
C365 C360 1.399 . S
C365 C364 1.394 . S
C365 C366 1.516 . S
C366 C365 1.516 . S
C366 C367 1.502 . S
C366 C368 1.561 . S
C366 C369 1.526 . S
C367 H351 0.959 . S
C367 H352 0.959 . S
C367 H353 0.961 . S
C367 C366 1.502 . S
C368 H354 0.960 . S
C368 H355 0.961 . S
C368 H356 0.959 . S
C368 C366 1.561 . S
C369 C366 1.526 . S
C369 C370 1.396 . S
C369 C374 1.390 . S
C370 C364 1.465 . S
C370 C369 1.396 . S
C370 C371 1.399 1_556 S
C371 H357 0.929 . S
C371 C370 1.399 1_554 S
C371 C372 1.385 . S
C372 H358 0.931 . S
C372 C371 1.385 . S
C372 C373 1.389 . S
C373 C372 1.389 . S
C373 C374 1.387 1_554 S
C374 H359 0.930 . S
C374 C369 1.390 . S
C374 C373 1.387 1_556 S
H375 C387 0.930 . S
H376 C389 0.930 . S
H377 C390 0.930 . S
H378 C394 0.959 . S
H379 C394 0.959 . S
H380 C394 0.961 . S
H381 C395 0.960 . S
H382 C395 0.961 . S
H383 C395 0.959 . S
H384 C398 0.929 . S
H385 C399 0.931 . S
H386 C401 0.930 . S
C387 H375 0.930 . S
C387 C388 1.399 1_554 S
C387 C392 1.399 . S
C388 C387 1.399 1_556 S
C388 C389 1.376 . S
C389 H376 0.930 . S
C389 C388 1.376 . S
C389 C390 1.388 . S
C390 H377 0.930 . S
C390 C389 1.388 . S
C390 C391 1.390 1_556 S
C391 C390 1.390 1_554 S
C391 C392 1.394 . S
C391 C397 1.465 . S
C392 C387 1.399 . S
C392 C391 1.394 . S
C392 C393 1.516 . S
C393 C392 1.516 . S
C393 C394 1.502 . S
C393 C395 1.561 . S
C393 C396 1.526 . S
C394 H378 0.959 . S
C394 H379 0.959 . S
C394 H380 0.961 . S
C394 C393 1.502 . S
C395 H381 0.960 . S
C395 H382 0.961 . S
C395 H383 0.959 . S
C395 C393 1.561 . S
C396 C393 1.526 . S
C396 C397 1.396 . S
C396 C401 1.390 . S
C397 C391 1.465 . S
C397 C396 1.396 . S
C397 C398 1.399 . S
C398 H384 0.929 . S
C398 C397 1.399 . S
C398 C399 1.385 . S
C399 H385 0.931 . S
C399 C398 1.385 . S
C399 C400 1.389 . S
C400 C399 1.389 . S
C400 C401 1.387 . S
C401 H386 0.930 . S
C401 C396 1.390 . S
C401 C400 1.387 . S
C91 C10 1.339 . S
C103 C49 1.331 . S
C118 C56 1.350 . S
C130 C23 1.340 . S
C145 C36 1.329 . S
C157 C69 1.333 . S
C172 C43 1.342 . S
C184 C4 1.352 . S
C199 C17 1.334 . S
C211 C62 1.329 . S
C226 C75 1.350 . S
C238 C30 1.340 . S
C253 C3 1.329 . S
C265 C31 1.318 . S
C280 C16 1.317 . S
C292 C42 1.337 . S
C307 C57 1.322 . S
C319 C29 1.321 . S
C334 C70 1.327 . S
C346 C44 1.319 . S
C361 C55 1.319 . S
C373 C5 1.342 . S
C388 C68 1.351 . S
C400 C18 1.332 . S
