# Generated by pormake.
# Topology crs, (6)-cn, num edge types: 1
# Building blocks:
#     Node 0, Type 0, BuildingBlock: CIFDUS_clean_sbu_1, # of connection points: 6
#     Node 1, Type 0, BuildingBlock: CIFDUS_clean_sbu_1, # of connection points: 6
#     Node 2, Type 0, BuildingBlock: CIFDUS_clean_sbu_1, # of connection points: 6
#     Node 3, Type 0, BuildingBlock: CIFDUS_clean_sbu_1, # of connection points: 6
#     Node 4, Type 0, BuildingBlock: CIFDUS_clean_sbu_1, # of connection points: 6
#     Node 5, Type 0, BuildingBlock: CIFDUS_clean_sbu_1, # of connection points: 6
#     Node 6, Type 0, BuildingBlock: CIFDUS_clean_sbu_1, # of connection points: 6
#     Node 7, Type 0, BuildingBlock: CIFDUS_clean_sbu_1, # of connection points: 6
#     Node 8, Type 0, BuildingBlock: CIFDUS_clean_sbu_1, # of connection points: 6
#     Node 9, Type 0, BuildingBlock: CIFDUS_clean_sbu_1, # of connection points: 6
#     Node 10, Type 0, BuildingBlock: CIFDUS_clean_sbu_1, # of connection points: 6
#     Node 11, Type 0, BuildingBlock: CIFDUS_clean_sbu_1, # of connection points: 6
#     Node 12, Type 0, BuildingBlock: CIFDUS_clean_sbu_1, # of connection points: 6
#     Node 13, Type 0, BuildingBlock: CIFDUS_clean_sbu_1, # of connection points: 6
#     Node 14, Type 0, BuildingBlock: CIFDUS_clean_sbu_1, # of connection points: 6
#     Node 15, Type 0, BuildingBlock: CIFDUS_clean_sbu_1, # of connection points: 6
#     Edge 16, Type (0, 0), BuildingBlock: ZUJKAS_clean_linker_0, # of connection points: 2
#     Edge 17, Type (0, 0), BuildingBlock: ZUJKAS_clean_linker_0, # of connection points: 2
#     Edge 18, Type (0, 0), BuildingBlock: ZUJKAS_clean_linker_0, # of connection points: 2
#     Edge 19, Type (0, 0), BuildingBlock: ZUJKAS_clean_linker_0, # of connection points: 2
#     Edge 20, Type (0, 0), BuildingBlock: ZUJKAS_clean_linker_0, # of connection points: 2
#     Edge 21, Type (0, 0), BuildingBlock: ZUJKAS_clean_linker_0, # of connection points: 2
#     Edge 22, Type (0, 0), BuildingBlock: ZUJKAS_clean_linker_0, # of connection points: 2
#     Edge 23, Type (0, 0), BuildingBlock: ZUJKAS_clean_linker_0, # of connection points: 2
#     Edge 24, Type (0, 0), BuildingBlock: ZUJKAS_clean_linker_0, # of connection points: 2
#     Edge 25, Type (0, 0), BuildingBlock: ZUJKAS_clean_linker_0, # of connection points: 2
#     Edge 26, Type (0, 0), BuildingBlock: ZUJKAS_clean_linker_0, # of connection points: 2
#     Edge 27, Type (0, 0), BuildingBlock: ZUJKAS_clean_linker_0, # of connection points: 2
#     Edge 28, Type (0, 0), BuildingBlock: ZUJKAS_clean_linker_0, # of connection points: 2
#     Edge 29, Type (0, 0), BuildingBlock: ZUJKAS_clean_linker_0, # of connection points: 2
#     Edge 30, Type (0, 0), BuildingBlock: ZUJKAS_clean_linker_0, # of connection points: 2
#     Edge 31, Type (0, 0), BuildingBlock: ZUJKAS_clean_linker_0, # of connection points: 2
#     Edge 32, Type (0, 0), BuildingBlock: ZUJKAS_clean_linker_0, # of connection points: 2
#     Edge 33, Type (0, 0), BuildingBlock: ZUJKAS_clean_linker_0, # of connection points: 2
#     Edge 34, Type (0, 0), BuildingBlock: ZUJKAS_clean_linker_0, # of connection points: 2
#     Edge 35, Type (0, 0), BuildingBlock: ZUJKAS_clean_linker_0, # of connection points: 2
#     Edge 36, Type (0, 0), BuildingBlock: ZUJKAS_clean_linker_0, # of connection points: 2
#     Edge 37, Type (0, 0), BuildingBlock: ZUJKAS_clean_linker_0, # of connection points: 2
#     Edge 38, Type (0, 0), BuildingBlock: ZUJKAS_clean_linker_0, # of connection points: 2
#     Edge 39, Type (0, 0), BuildingBlock: ZUJKAS_clean_linker_0, # of connection points: 2
#     Edge 40, Type (0, 0), BuildingBlock: ZUJKAS_clean_linker_0, # of connection points: 2
#     Edge 41, Type (0, 0), BuildingBlock: ZUJKAS_clean_linker_0, # of connection points: 2
#     Edge 42, Type (0, 0), BuildingBlock: ZUJKAS_clean_linker_0, # of connection points: 2
#     Edge 43, Type (0, 0), BuildingBlock: ZUJKAS_clean_linker_0, # of connection points: 2
#     Edge 44, Type (0, 0), BuildingBlock: ZUJKAS_clean_linker_0, # of connection points: 2
#     Edge 45, Type (0, 0), BuildingBlock: ZUJKAS_clean_linker_0, # of connection points: 2
#     Edge 46, Type (0, 0), BuildingBlock: ZUJKAS_clean_linker_0, # of connection points: 2
#     Edge 47, Type (0, 0), BuildingBlock: ZUJKAS_clean_linker_0, # of connection points: 2
#     Edge 48, Type (0, 0), BuildingBlock: ZUJKAS_clean_linker_0, # of connection points: 2
#     Edge 49, Type (0, 0), BuildingBlock: ZUJKAS_clean_linker_0, # of connection points: 2
#     Edge 50, Type (0, 0), BuildingBlock: ZUJKAS_clean_linker_0, # of connection points: 2
#     Edge 51, Type (0, 0), BuildingBlock: ZUJKAS_clean_linker_0, # of connection points: 2
#     Edge 52, Type (0, 0), BuildingBlock: ZUJKAS_clean_linker_0, # of connection points: 2
#     Edge 53, Type (0, 0), BuildingBlock: ZUJKAS_clean_linker_0, # of connection points: 2
#     Edge 54, Type (0, 0), BuildingBlock: ZUJKAS_clean_linker_0, # of connection points: 2
#     Edge 55, Type (0, 0), BuildingBlock: ZUJKAS_clean_linker_0, # of connection points: 2
#     Edge 56, Type (0, 0), BuildingBlock: ZUJKAS_clean_linker_0, # of connection points: 2
#     Edge 57, Type (0, 0), BuildingBlock: ZUJKAS_clean_linker_0, # of connection points: 2
#     Edge 58, Type (0, 0), BuildingBlock: ZUJKAS_clean_linker_0, # of connection points: 2
#     Edge 59, Type (0, 0), BuildingBlock: ZUJKAS_clean_linker_0, # of connection points: 2
#     Edge 60, Type (0, 0), BuildingBlock: ZUJKAS_clean_linker_0, # of connection points: 2
#     Edge 61, Type (0, 0), BuildingBlock: ZUJKAS_clean_linker_0, # of connection points: 2
#     Edge 62, Type (0, 0), BuildingBlock: ZUJKAS_clean_linker_0, # of connection points: 2
#     Edge 63, Type (0, 0), BuildingBlock: ZUJKAS_clean_linker_0, # of connection points: 2
# Relax obj value: 0.275
# Max RMSD: 0.232
# Mean RMSD: 0.228
data_MOF--net-crs--node1-CIFDUS_clean_sbu_1--edge1-ZUJKAS_clean_linker_0
_symmetry_space_group_name_H-M    P1
_symmetry_Int_Tables_number       1
_symmetry_cell_setting            triclinic
loop_
_symmetry_equiv_pos_as_xyz
'x, y, z'
_cell_length_a     52.279197
_cell_length_b     52.661677
_cell_length_c     53.099439
_cell_angle_alpha  90.205402
_cell_angle_beta   89.814593
_cell_angle_gamma 88.641405
loop_
_atom_site_label
_atom_site_type_symbol
_atom_site_fract_x
_atom_site_fract_y
_atom_site_fract_z
_atom_type_partial_charge
O0 O 0.98501 0.01247 0.9775 0.0
Mn1 Mn 0.00307 0.0031 0.01111 0.0
O2 O 0.94272 0.01548 0.98559 0.0
Mn3 Mn 0.944 0.0004 0.01716 0.0
O4 O 0.02125 0.99331 0.04454 0.0
O5 O 0.0346 0.99422 0.99156 0.0
Mn6 Mn 0.06255 0.00551 0.00545 0.0
O7 O 0.01466 0.04078 0.0141 0.0
O8 O 0.06351 0.98949 0.0366 0.0
O9 O 0.99141 0.96544 0.00765 0.0
O10 O 0.94936 0.96544 0.0175 0.0
O11 O 0.07211 0.99 0.97509 0.0
O12 O 0.05713 0.04048 0.0062 0.0
C13 C 0.95765 0.02194 0.04898 0.0
C14 C 0.96192 0.01777 0.97091 0.0
C15 C 0.0442 0.98748 0.05124 0.0
C16 C 0.0479 0.98632 0.97267 0.0
C17 C 0.03588 0.05214 0.01064 0.0
C18 C 0.97039 0.95393 0.01193 0.0
O19 O 0.97167 0.01241 0.03115 0.0
O20 O 0.93357 0.01766 0.04609 0.0
O21 O 0.04965 0.25874 0.23518 0.0
Mn22 Mn 0.01587 0.25914 0.25585 0.0
O23 O 0.03974 0.26847 0.19505 0.0
Mn24 Mn 0.00441 0.26887 0.19899 0.0
O25 O 0.98211 0.25939 0.27716 0.0
O26 O 0.03442 0.23865 0.28185 0.0
Mn27 Mn 0.02653 0.24845 0.3126 0.0
O28 O 0.02621 0.29268 0.27365 0.0
O29 O 0.99178 0.24273 0.31513 0.0
O30 O 0.00503 0.22552 0.23784 0.0
O31 O 0.99073 0.23676 0.19929 0.0
O32 O 0.05194 0.22331 0.31518 0.0
O33 O 0.03528 0.28254 0.31393 0.0
C34 C 0.98412 0.29801 0.22023 0.0
C35 C 0.05588 0.26232 0.21212 0.0
C36 C 0.97568 0.2511 0.299 0.0
C37 C 0.05172 0.22348 0.29082 0.0
C38 C 0.03329 0.29862 0.29601 0.0
C39 C 0.99461 0.22027 0.21654 0.0
O40 O 0.99821 0.28011 0.2296 0.0
O41 O 0.98368 0.29793 0.19589 0.0
O42 O 0.76621 0.24662 0.54912 0.0
Mn43 Mn 0.75808 0.24839 0.51021 0.0
O44 O 0.80749 0.23483 0.55327 0.0
Mn45 Mn 0.8089 0.21903 0.52228 0.0
O46 O 0.75034 0.25086 0.47116 0.0
O47 O 0.72093 0.25508 0.51918 0.0
Mn48 Mn 0.70882 0.27957 0.4996 0.0
O49 O 0.76528 0.28688 0.51126 0.0
O50 O 0.71056 0.26728 0.4672 0.0
O51 O 0.75161 0.20972 0.50941 0.0
O52 O 0.78914 0.19014 0.5193 0.0
O53 O 0.68221 0.27101 0.52018 0.0
O54 O 0.72796 0.30824 0.50593 0.0
C55 C 0.8152 0.23976 0.48808 0.0
C56 C 0.78635 0.2428 0.5627 0.0
C57 C 0.73088 0.25759 0.45761 0.0
C58 C 0.69855 0.25492 0.52975 0.0
C59 C 0.75203 0.30765 0.50986 0.0
C60 C 0.76542 0.18963 0.51354 0.0
O61 O 0.79481 0.24125 0.50165 0.0
O62 O 0.83309 0.22551 0.49775 0.0
O63 O 0.74871 0.97713 0.76186 0.0
Mn64 Mn 0.75614 0.01299 0.74699 0.0
O65 O 0.734 0.98419 0.80134 0.0
Mn66 Mn 0.73847 0.01906 0.80261 0.0
O67 O 0.76326 0.04898 0.73285 0.0
O68 O 0.78051 0.99698 0.72212 0.0
Mn69 Mn 0.77528 0.00963 0.69177 0.0
O70 O 0.72554 0.00919 0.72252 0.0
O71 O 0.78105 0.04427 0.69452 0.0
O72 O 0.78694 0.01717 0.77097 0.0
O73 O 0.77173 0.02909 0.8089 0.0
O74 O 0.80243 0.9864 0.68919 0.0
O75 O 0.74178 0.00176 0.68383 0.0
C76 C 0.71274 0.04248 0.77999 0.0
C77 C 0.73977 0.96929 0.78301 0.0
C78 C 0.77334 0.05818 0.71292 0.0
C79 C 0.79933 0.98344 0.71319 0.0
C80 C 0.72285 0.00432 0.69899 0.0
C81 C 0.79026 0.02501 0.79356 0.0
O82 O 0.73198 0.02922 0.77171 0.0
O83 O 0.71021 0.04117 0.80419 0.0
O84 O 0.52801 0.75586 0.21853 0.0
Mn85 Mn 0.50319 0.75601 0.24907 0.0
O86 O 0.50375 0.7577 0.18347 0.0
Mn87 Mn 0.4726 0.75185 0.19907 0.0
O88 O 0.47809 0.75656 0.27909 0.0
O89 O 0.53141 0.74345 0.27127 0.0
Mn90 Mn 0.53321 0.76128 0.29931 0.0
O91 O 0.51248 0.79386 0.25656 0.0
O92 O 0.50102 0.75987 0.31466 0.0
O93 O 0.49488 0.71812 0.24121 0.0
O94 O 0.46817 0.71822 0.208 0.0
O95 O 0.55725 0.73474 0.30163 0.0
O96 O 0.54123 0.79338 0.28811 0.0
C97 C 0.45342 0.78073 0.222 0.0
C98 C 0.52547 0.75708 0.1945 0.0
C99 C 0.47966 0.75885 0.30305 0.0
C100 C 0.54911 0.72838 0.27957 0.0
C101 C 0.52861 0.80491 0.27091 0.0
C102 C 0.4807 0.70664 0.22526 0.0
O103 O 0.47415 0.76844 0.22775 0.0
O104 O 0.44511 0.7749 0.19984 0.0
O105 O 0.27526 0.75718 0.55331 0.0
Mn106 Mn 0.25809 0.76333 0.51834 0.0
O107 O 0.30797 0.72919 0.54797 0.0
Mn108 Mn 0.29908 0.71931 0.5157 0.0
O109 O 0.24038 0.77004 0.48339 0.0
O110 O 0.22867 0.77954 0.53664 0.0
Mn111 Mn 0.21709 0.8073 0.52197 0.0
O112 O 0.2754 0.79816 0.51512 0.0
O113 O 0.20619 0.79593 0.49084 0.0
O114 O 0.24074 0.72822 0.52053 0.0
O115 O 0.27136 0.69795 0.51413 0.0
O116 O 0.19907 0.80404 0.55197 0.0
O117 O 0.24485 0.82877 0.52032 0.0
C118 C 0.30626 0.74439 0.48471 0.0
C119 C 0.29451 0.74425 0.56179 0.0
C120 C 0.22008 0.78228 0.47598 0.0
C121 C 0.21364 0.78415 0.55536 0.0
C122 C 0.26798 0.82156 0.51616 0.0
C123 C 0.24804 0.70485 0.51782 0.0
O124 O 0.28812 0.74725 0.50086 0.0
O125 O 0.32061 0.72444 0.48837 0.0
O126 O 0.25265 0.4849 0.77044 0.0
Mn127 Mn 0.26131 0.51914 0.75252 0.0
O128 O 0.2425 0.49581 0.81049 0.0
Mn129 Mn 0.2494 0.53016 0.80877 0.0
O130 O 0.2694 0.55363 0.73567 0.0
O131 O 0.28263 0.5004 0.72692 0.0
Mn132 Mn 0.27605 0.51136 0.69623 0.0
O133 O 0.22848 0.51578 0.73041 0.0
O134 O 0.28339 0.5458 0.69632 0.0
O135 O 0.29454 0.52253 0.77362 0.0
O136 O 0.2836 0.53851 0.81145 0.0
O137 O 0.30248 0.48723 0.69366 0.0
O138 O 0.24179 0.50438 0.69147 0.0
C139 C 0.22306 0.55369 0.78711 0.0
C140 C 0.24509 0.47933 0.79285 0.0
C141 C 0.27819 0.56108 0.71445 0.0
C142 C 0.3008 0.4861 0.71794 0.0
C143 C 0.22401 0.50914 0.70751 0.0
C144 C 0.30041 0.53194 0.79507 0.0
O145 O 0.24043 0.53856 0.77794 0.0
O146 O 0.22295 0.55417 0.81147 0.0
O147 O 0.97974 0.52532 0.54675 0.0
Mn148 Mn 0.99294 0.50951 0.5128 0.0
O149 O 0.9604 0.56272 0.53803 0.0
Mn150 Mn 0.9767 0.56623 0.50729 0.0
O151 O 0.00655 0.493 0.47924 0.0
O152 O 0.0108 0.4828 0.53272 0.0
Mn153 Mn 0.00714 0.45203 0.52086 0.0
O154 O 0.96026 0.48788 0.51151 0.0
O155 O 0.02186 0.45384 0.48905 0.0
O156 O 0.02535 0.53158 0.51461 0.0
O157 O 0.01148 0.57217 0.50961 0.0
O158 O 0.02578 0.44931 0.55078 0.0
O159 O 0.97198 0.44762 0.52106 0.0
C160 C 0.96272 0.54692 0.4743 0.0
C161 C 0.96625 0.54495 0.55337 0.0
C162 C 0.01813 0.47192 0.47335 0.0
C163 C 0.02297 0.47373 0.55164 0.0
C164 C 0.95498 0.46462 0.51586 0.0
C165 C 0.02928 0.55555 0.51328 0.0
O166 O 0.9749 0.53634 0.49264 0.0
O167 O 0.95903 0.57112 0.47741 0.0
O168 O 0.25161 0.23458 0.03486 0.0
Mn169 Mn 0.24301 0.25488 0.00178 0.0
O170 O 0.25173 0.1931 0.02425 0.0
Mn171 Mn 0.23954 0.19691 0.99172 0.0
O172 O 0.2337 0.27503 0.96873 0.0
O173 O 0.23376 0.28505 0.02249 0.0
Mn174 Mn 0.24216 0.31396 0.009 0.0
O175 O 0.28065 0.26732 -0.00014 0.0
O176 O 0.22207 0.3148 0.98033 0.0
O177 O 0.20483 0.24316 0.00362 0.0
O178 O 0.2047 0.20293 0.98912 0.0
O179 O 0.23198 0.32053 0.04229 0.0
O180 O 0.27694 0.31018 0.00189 0.0
C181 C 0.26388 0.2117 0.96273 0.0
C182 C 0.25454 0.21087 0.04038 0.0
C183 C 0.22398 0.29718 0.96377 0.0
C184 C 0.22972 0.29619 0.0436 0.0
C185 C 0.29015 0.28962 -0.00113 0.0
C186 C 0.19305 0.22318 0.99652 0.0
O187 O 0.25314 0.22483 0.98052 0.0
O188 O 0.25896 0.18775 0.96377 0.0
O189 O 0.24371 0.96472 0.284 0.0
Mn190 Mn 0.25035 0.9984 0.26442 0.0
O191 O 0.22481 0.97549 0.32074 0.0
Mn192 Mn 0.23542 0.00887 0.32028 0.0
O193 O 0.2565 0.0319 0.24439 0.0
O194 O 0.27155 0.9785 0.23955 0.0
Mn195 Mn 0.26167 0.98517 0.20854 0.0
O196 O 0.21695 0.9918 0.24452 0.0
O197 O 0.26615 0.01987 0.20465 0.0
O198 O 0.28329 0.00409 0.28515 0.0
O199 O 0.27042 0.01274 0.32491 0.0
O200 O 0.2894 0.96265 0.20626 0.0
O201 O 0.22813 0.97458 0.20723 0.0
C202 C 0.21511 0.03693 0.2975 0.0
C203 C 0.23211 0.95889 0.3045 0.0
C204 C 0.26268 0.037 0.22152 0.0
C205 C 0.28961 0.96404 0.23059 0.0
C206 C 0.21133 0.98077 0.22376 0.0
C207 C 0.28796 0.00933 0.3083 0.0
O208 O 0.22973 0.01879 0.28918 0.0
O209 O 0.21285 0.03673 0.32176 0.0
O210 O 0.5362 0.25686 0.7322 0.0
Mn211 Mn 0.50253 0.2561 0.75311 0.0
O212 O 0.52473 0.26709 0.69261 0.0
Mn213 Mn 0.48966 0.27017 0.69814 0.0
O214 O 0.46881 0.25451 0.77419 0.0
O215 O 0.52058 0.23211 0.77625 0.0
Mn216 Mn 0.5123 0.2371 0.8079 0.0
O217 O 0.51345 0.28685 0.7751 0.0
O218 O 0.47755 0.2309 0.80857 0.0
O219 O 0.49061 0.22476 0.73212 0.0
O220 O 0.47313 0.23954 0.6964 0.0
O221 O 0.53821 0.21219 0.80701 0.0
O222 O 0.52022 0.27086 0.81404 0.0
C223 C 0.47334 0.3006 0.7206 0.0
C224 C 0.54148 0.26029 0.70886 0.0
C225 C 0.46187 0.24252 0.79402 0.0
C226 C 0.53804 0.21596 0.78296 0.0
C227 C 0.51906 0.28941 0.79854 0.0
C228 C 0.47811 0.22143 0.71161 0.0
O229 O 0.48535 0.28084 0.72942 0.0
O230 O 0.47204 0.30094 0.69626 0.0
O231 O 0.03926 0.7584 0.73645 0.0
Mn232 Mn 0.0059 0.76012 0.75802 0.0
O233 O 0.02921 0.76996 0.69701 0.0
Mn234 Mn 0.99405 0.76858 0.70172 0.0
O235 O 0.97278 0.76148 0.77974 0.0
O236 O 0.02435 0.73893 0.78342 0.0
Mn237 Mn 0.01801 0.749 0.81434 0.0
O238 O 0.01804 0.79342 0.77545 0.0
O239 O 0.98293 0.746 0.81796 0.0
O240 O 0.99328 0.72673 0.74152 0.0
O241 O 0.98128 0.73596 0.70193 0.0
O242 O 0.04164 0.72206 0.8161 0.0
O243 O 0.02902 0.78222 0.81506 0.0
C244 C 0.97189 0.79739 0.72168 0.0
C245 C 0.04555 0.76298 0.71357 0.0
C246 C 0.96659 0.75441 0.802 0.0
C247 C 0.0406 0.72234 0.79176 0.0
C248 C 0.02666 0.79867 0.79752 0.0
C249 C 0.98361 0.72048 0.72026 0.0
O250 O 0.98737 0.78108 0.73203 0.0
O251 O 0.97178 0.79596 0.69733 0.0
O252 O 0.73777 0.46063 0.28073 0.0
Mn253 Mn 0.7427 0.49382 0.2601 0.0
O254 O 0.7258 0.47214 0.31991 0.0
Mn255 Mn 0.731 0.50672 0.31597 0.0
O256 O 0.74823 0.5267 0.2388 0.0
O257 O 0.76308 0.47359 0.23507 0.0
Mn258 Mn 0.75216 0.47847 0.20416 0.0
O259 O 0.70878 0.48666 0.24133 0.0
O260 O 0.75601 0.51305 0.19907 0.0
O261 O 0.77651 0.5005 0.27968 0.0
O262 O 0.7649 0.516 0.31774 0.0
O263 O 0.7808 0.45684 0.20218 0.0
O264 O 0.71859 0.46762 0.20455 0.0
C265 C 0.704 0.52903 0.29398 0.0
C266 C 0.73081 0.45516 0.30327 0.0
C267 C 0.75357 0.53079 0.21547 0.0
C268 C 0.78157 0.45966 0.22636 0.0
C269 C 0.70233 0.4749 0.22123 0.0
C270 C 0.78191 0.50995 0.30133 0.0
O271 O 0.72166 0.51404 0.28497 0.0
O272 O 0.70403 0.53008 0.31833 0.0
O273 O 0.76054 0.72889 0.02672 0.0
Mn274 Mn 0.75679 0.7496 0.99321 0.0
O275 O 0.76652 0.68763 0.01573 0.0
Mn276 Mn 0.75368 0.69055 0.98318 0.0
O277 O 0.75349 0.7698 0.95938 0.0
O278 O 0.74647 0.78059 0.01316 0.0
Mn279 Mn 0.76322 0.80725 0.00305 0.0
O280 O 0.79578 0.75894 0.99562 0.0
O281 O 0.75558 0.81135 0.96922 0.0
O282 O 0.71823 0.73954 0.99051 0.0
O283 O 0.71873 0.69745 0.98157 0.0
O284 O 0.74191 0.81843 0.02879 0.0
O285 O 0.79702 0.79929 0.00974 0.0
C286 C 0.77535 0.7087 0.9537 0.0
C287 C 0.76569 0.70549 0.0322 0.0
C288 C 0.75339 0.79341 0.95319 0.0
C289 C 0.73544 0.79488 0.02991 0.0
C290 C 0.808 0.77827 0.00378 0.0
C291 C 0.70688 0.71865 0.98544 0.0
O292 O 0.76675 0.71906 0.97376 0.0
O293 O 0.77147 0.68461 0.95273 0.0
O294 O 0.50627 0.03022 0.52061 0.0
Mn295 Mn 0.51974 0.01105 0.48845 0.0
O296 O 0.50018 0.07132 0.51023 0.0
Mn297 Mn 0.51922 0.06978 0.48067 0.0
O298 O 0.53376 0.99152 0.45672 0.0
O299 O 0.52815 0.98129 0.50975 0.0
Mn300 Mn 0.52047 0.95198 0.49644 0.0
O301 O 0.48324 0.99739 0.48264 0.0
O302 O 0.54057 0.9506 0.46757 0.0
O303 O 0.55609 0.02478 0.49433 0.0
O304 O 0.5543 0.06675 0.48574 0.0
O305 O 0.53226 0.9459 0.52923 0.0
O306 O 0.48569 0.95507 0.4897 0.0
C307 C 0.50208 0.05284 0.44757 0.0
C308 C 0.49846 0.05299 0.52578 0.0
C309 C 0.5418 0.96877 0.45172 0.0
C310 C 0.53443 0.97026 0.53028 0.0
C311 C 0.47334 0.97536 0.48368 0.0
C312 C 0.56647 0.04653 0.4924 0.0
O313 O 0.51104 0.04078 0.46672 0.0
O314 O 0.5046 0.07715 0.44947 0.0
O315 O 0.48794 0.5169 0.97749 0.0
Mn316 Mn 0.50081 0.50455 0.01269 0.0
O317 O 0.44685 0.52973 0.98226 0.0
Mn318 Mn 0.44219 0.51531 0.01368 0.0
O319 O 0.51333 0.49183 0.04789 0.0
O320 O 0.53117 0.48839 0.99538 0.0
Mn321 Mn 0.55922 0.49345 0.01284 0.0
O322 O 0.52032 0.53852 0.01645 0.0
O323 O 0.55382 0.47732 0.04324 0.0
O324 O 0.48129 0.47057 0.00895 0.0
O325 O 0.43937 0.48021 0.01391 0.0
O326 O 0.56897 0.47534 0.98428 0.0
O327 O 0.56238 0.52851 0.01463 0.0
C328 C 0.45756 0.5334 0.04681 0.0
C329 C 0.46715 0.5271 0.96898 0.0
C330 C 0.53342 0.48024 0.05627 0.0
C331 C 0.54488 0.47643 0.97875 0.0
C332 C 0.54394 0.54477 0.01663 0.0
C333 C 0.4578 0.46411 0.01079 0.0
O334 O 0.47068 0.52103 0.03004 0.0
O335 O 0.43335 0.53459 0.04183 0.0
H336 H 0.92902 0.04122 0.08727 0.0
H337 H 0.94245 0.06764 0.12218 0.0
H338 H 0.0207 0.06129 0.09648 0.0
H339 H 0.00711 0.03565 0.06072 0.0
H340 H 0.97575 0.06193 0.16161 0.0
H341 H 0.00759 0.13719 0.09574 0.0
H342 H 0.98999 0.11023 0.08502 0.0
H343 H 0.02335 0.10668 0.09267 0.0
C344 C 0.94914 0.04533 0.08897 0.0
C345 C 0.96697 0.03648 0.0709 0.0
C346 C 0.95681 0.06029 0.10914 0.0
C347 C 0.98252 0.0667 0.11183 0.0
C348 C 0.00066 0.05695 0.09454 0.0
H349 H 0.0204 0.1769 0.23184 0.0
H350 H 0.02007 0.13565 0.21017 0.0
C351 C 0.99288 0.04215 0.07409 0.0
C352 C 0.98935 0.08542 0.13147 0.0
H353 H 0.006 0.14728 0.13849 0.0
C354 C 0.98285 0.08046 0.15669 0.0
C355 C -0.00149 0.10961 0.12495 0.0
C356 C 0.00512 0.11644 0.09815 0.0
C357 C 0.98388 0.09952 0.17524 0.0
C358 C 0.99177 0.12396 0.16834 0.0
C359 C -0.00015 0.12844 0.14358 0.0
C360 C 0.9889 0.14616 0.18532 0.0
C361 C 0.97508 0.09402 0.20168 0.0
C362 C 0.97084 0.1652 0.17917 0.0
C363 C 0.97119 0.18871 0.19121 0.0
C364 C 0.9896 0.19363 0.2097 0.0
C365 C 0.00609 0.17372 0.21759 0.0
C366 C 0.00592 0.15013 0.20525 0.0
H367 H 0.96842 0.07425 0.20376 0.0
H368 H 0.99105 0.09699 0.21501 0.0
H369 H 0.95924 0.1074 0.20705 0.0
H370 H 0.95745 0.1624 0.16392 0.0
H371 H 0.95808 0.2036 0.1849 0.0
H372 H 0.80898 0.28752 0.46776 0.0
H373 H 0.82101 0.29972 0.42451 0.0
H374 H 0.83895 0.22105 0.40725 0.0
H375 H 0.82662 0.20914 0.44955 0.0
H376 H 0.86735 0.29468 0.40806 0.0
H377 H 0.82374 0.2182 0.35953 0.0
H378 H 0.80775 0.24353 0.34319 0.0
H379 H 0.80246 0.23961 0.37647 0.0
C380 C 0.81464 0.27293 0.45428 0.0
C381 C 0.81683 0.24744 0.46167 0.0
C382 C 0.82154 0.27983 0.42969 0.0
C383 C 0.83043 0.26124 0.41237 0.0
C384 C 0.83135 0.23569 0.41977 0.0
H385 H 0.94494 0.21596 0.3198 0.0
H386 H 0.90429 0.22428 0.34177 0.0
C387 C 0.82458 0.22889 0.44408 0.0
C388 C 0.84353 0.26823 0.38863 0.0
H389 H 0.85618 0.24445 0.32988 0.0
C390 C 0.86438 0.28442 0.3906 0.0
C391 C 0.83968 0.25491 0.36574 0.0
C392 C 0.817 0.23829 0.36131 0.0
C393 C 0.88325 0.28508 0.37179 0.0
C394 C 0.88066 0.26973 0.35004 0.0
C395 C 0.85832 0.25589 0.34675 0.0
C396 C 0.90258 0.26442 0.33291 0.0
C397 C 0.90692 0.30026 0.37659 0.0
C398 C 0.91468 0.28403 0.32005 0.0
C399 C 0.93807 0.2793 0.30793 0.0
C400 C 0.94916 0.25478 0.30764 0.0
C401 C 0.93641 0.23491 0.31936 0.0
C402 C 0.91322 0.23967 0.33181 0.0
H403 H 0.9076 0.30777 0.39614 0.0
H404 H 0.92446 0.28843 0.37318 0.0
H405 H 0.90721 0.31666 0.36355 0.0
H406 H 0.90677 0.30322 0.32053 0.0
H407 H 0.94839 0.29512 0.30036 0.0
H408 H 0.74802 0.09499 0.74098 0.0
H409 H 0.74449 0.14057 0.73167 0.0
H410 H 0.79692 0.13018 0.66949 0.0
H411 H 0.80023 0.0848 0.67818 0.0
H412 H 0.80011 0.17819 0.71019 0.0
H413 H 0.70962 0.16228 0.65798 0.0
H414 H 0.71628 0.14758 0.68801 0.0
H415 H 0.73242 0.1361 0.66022 0.0
C416 C 0.75908 0.10245 0.72553 0.0
C417 C 0.77414 0.08615 0.71008 0.0
C418 C 0.75705 0.12849 0.72032 0.0
C419 C 0.77041 0.13858 0.6999 0.0
C420 C 0.78651 0.12265 0.68537 0.0
H421 H 0.82252 0.22639 0.59604 0.0
H422 H 0.81494 0.21117 0.63792 0.0
C423 C 0.7883 0.0967 0.69033 0.0
C424 C 0.76628 0.1651 0.69166 0.0
H425 H 0.73459 0.19662 0.64508 0.0
C426 C 0.78532 0.18273 0.69653 0.0
C427 C 0.74649 0.17134 0.6746 0.0
C428 C 0.72487 0.15348 0.66986 0.0
C429 C 0.78669 0.20523 0.68254 0.0
C430 C 0.76937 0.20939 0.6624 0.0
C431 C 0.74834 0.19337 0.66002 0.0
C432 C 0.77583 0.22565 0.64048 0.0
C433 C 0.80751 0.22357 0.68865 0.0
C434 C 0.75678 0.23979 0.62772 0.0
C435 C 0.76085 0.24799 0.60294 0.0
C436 C 0.78409 0.24212 0.5906 0.0
C437 C 0.80415 0.23094 0.60464 0.0
C438 C 0.79994 0.22244 0.62905 0.0
H439 H 0.80933 0.2257 0.70939 0.0
H440 H 0.82612 0.21584 0.68155 0.0
H441 H 0.80375 0.24259 0.6803 0.0
H442 H 0.73814 0.24266 0.63626 0.0
H443 H 0.74524 0.25723 0.59293 0.0
H444 H 0.9888 0.00407 0.92859 0.0
H445 H 0.9758 0.01133 0.88476 0.0
H446 H 0.91025 0.05542 0.91092 0.0
H447 H 0.92313 0.04828 0.95434 0.0
H448 H 0.93014 0.99331 0.86822 0.0
H449 H 0.93145 0.09587 0.84983 0.0
H450 H 0.95085 0.08104 0.87407 0.0
H451 H 0.91808 0.0906 0.88042 0.0
C452 C 0.97213 0.01601 0.92485 0.0
C453 C 0.95688 0.02554 0.94476 0.0
C454 C 0.96474 0.02014 0.89986 0.0
C455 C 0.94233 0.03431 0.89457 0.0
C456 C 0.928 0.04503 0.9145 0.0
H457 H 0.80535 0.04638 0.83778 0.0
H458 H 0.84876 0.04962 0.85374 0.0
C459 C 0.93517 0.04066 0.93934 0.0
C460 C 0.93082 0.03418 0.8692 0.0
H461 H 0.89412 0.07327 0.83247 0.0
C462 C 0.92308 0.01074 0.85958 0.0
C463 C 0.92198 0.05689 0.85776 0.0
C464 C 0.93132 0.08249 0.86595 0.0
C465 C 0.90381 0.00955 0.84134 0.0
C466 C 0.89242 0.03243 0.8325 0.0
C467 C 0.90264 0.05577 0.83964 0.0
C468 C 0.86685 0.03263 0.82083 0.0
C469 C 0.89386 0.98397 0.83375 0.0
C470 C 0.86275 0.0223 0.79687 0.0
C471 C 0.83783 0.02032 0.78768 0.0
C472 C 0.81671 0.0286 0.8024 0.0
C473 C 0.8211 0.03966 0.82604 0.0
C474 C 0.84592 0.04169 0.83512 0.0
H475 H 0.90415 0.96804 0.84331 0.0
H476 H 0.87315 0.98295 0.83828 0.0
H477 H 0.89609 0.98138 0.81313 0.0
H478 H 0.87871 0.01534 0.78555 0.0
H479 H 0.83512 0.01178 0.76933 0.0
H480 H 0.01202 0.99331 0.09199 0.0
H481 H 0.02305 0.98684 0.13642 0.0
H482 H 0.09759 0.95768 0.11428 0.0
H483 H 0.08701 0.96432 0.07017 0.0
H484 H 0.07023 0.93132 0.15762 0.0
H485 H 0.07874 0.03644 0.16612 0.0
H486 H 0.05002 0.02249 0.15419 0.0
H487 H 0.0785 0.02201 0.13526 0.0
C488 C 0.03061 0.98515 0.09659 0.0
C489 C 0.04888 0.97982 0.0776 0.0
C490 C 0.03679 0.98141 0.12195 0.0
C491 C 0.06113 0.97193 0.1285 0.0
C492 C 0.07865 0.96496 0.10951 0.0
H493 H 0.1928 0.95028 0.187 0.0
H494 H 0.14862 0.94565 0.1745 0.0
C495 C 0.07264 0.96894 0.08432 0.0
C496 C 0.07034 0.97209 0.15469 0.0
H497 H 0.10578 0.01099 0.19125 0.0
C498 C 0.07716 0.94878 0.16574 0.0
C499 C 0.07882 0.99492 0.16558 0.0
C500 C 0.07118 0.02048 0.15485 0.0
C501 C 0.09511 0.94755 0.18527 0.0
C502 C 0.10688 0.97011 0.19319 0.0
C503 C 0.09709 0.99364 0.18482 0.0
C504 C 0.1328 0.96952 0.20432 0.0
C505 C 0.1029 0.92194 0.19567 0.0
C506 C 0.13879 0.98477 0.22512 0.0
C507 C 0.16433 0.98773 0.23218 0.0
C508 C 0.18422 0.97579 0.21825 0.0
C509 C 0.17801 0.95985 0.19804 0.0
C510 C 0.15262 0.95683 0.19113 0.0
H511 H 0.08608 0.90951 0.19696 0.0
H512 H 0.1169 0.91256 0.18268 0.0
H513 H 0.11171 0.92358 0.21459 0.0
H514 H 0.12382 0.99507 0.23528 0.0
H515 H 0.16851 1.00016 0.24786 0.0
H516 H 0.00246 0.4975 0.43059 0.0
H517 H 0.008 0.48292 0.38689 0.0
H518 H 0.05595 0.42051 0.41253 0.0
H519 H 0.05055 0.43474 0.45579 0.0
H520 H 0.07253 0.44248 0.36634 0.0
H521 H 0.9689 0.41907 0.36563 0.0
H522 H 0.97799 0.45128 0.37155 0.0
H523 H 0.98474 0.42721 0.39458 0.0
C524 C 0.0145 0.48092 0.42685 0.0
C525 C 0.02548 0.46689 0.44677 0.0
C526 C 0.01762 0.47261 0.40187 0.0
C527 C 0.032 0.45036 0.39654 0.0
C528 C 0.04467 0.43767 0.41621 0.0
H529 H 0.0638 0.31704 0.33275 0.0
H530 H 0.06489 0.36043 0.34848 0.0
C531 C 0.04144 0.44579 0.44101 0.0
C532 C 0.03198 0.43808 0.37138 0.0
H533 H 0.9958 0.39729 0.33739 0.0
C534 C 0.0556 0.43322 0.35944 0.0
C535 C 0.00981 0.42629 0.36214 0.0
C536 C 0.98387 0.43106 0.37405 0.0
C537 C 0.05809 0.41494 0.34025 0.0
C538 C 0.03651 0.4009 0.3332 0.0
C539 C 0.01238 0.40789 0.34302 0.0
C540 C 0.03925 0.37599 0.32021 0.0
C541 C 0.08412 0.40969 0.32883 0.0
C542 C 0.02455 0.3702 0.29893 0.0
C543 C 0.02392 0.34519 0.28982 0.0
C544 C 0.03755 0.32558 0.30224 0.0
C545 C 0.05308 0.33171 0.3228 0.0
C546 C 0.05392 0.35661 0.33167 0.0
H547 H 0.0954 0.4273 0.32815 0.0
H548 H 0.09478 0.39579 0.34073 0.0
H549 H 0.08266 0.40177 0.30948 0.0
H550 H 0.0128 0.38479 0.29003 0.0
H551 H 0.01158 0.34098 0.27407 0.0
H552 H 0.65227 0.25478 0.55198 0.0
H553 H 0.64196 0.24093 0.59407 0.0
H554 H 0.71781 0.20826 0.60228 0.0
H555 H 0.72831 0.22168 0.55905 0.0
H556 H 0.6603 0.18386 0.62475 0.0
H557 H 0.69706 0.27567 0.65324 0.0
H558 H 0.67325 0.28235 0.6299 0.0
H559 H 0.70161 0.26426 0.62138 0.0
C560 C 0.66683 0.24429 0.56237 0.0
C561 C 0.69169 0.24063 0.55267 0.0
C562 C 0.6608 0.23631 0.58648 0.0
C563 C 0.6794 0.22441 0.60149 0.0
C564 C 0.70345 0.21808 0.5911 0.0
H565 H 0.58753 0.25903 0.73423 0.0
H566 H 0.62933 0.24408 0.7175 0.0
C567 C 0.7095 0.22599 0.56655 0.0
C568 C 0.67354 0.22207 0.62856 0.0
H569 H 0.654 0.26383 0.67423 0.0
C570 C 0.65993 0.20086 0.63635 0.0
C571 C 0.67325 0.24415 0.64386 0.0
C572 C 0.6873 0.26773 0.63652 0.0
C573 C 0.64275 0.20272 0.6567 0.0
C574 C 0.63937 0.22629 0.66932 0.0
C575 C 0.65635 0.24584 0.66437 0.0
C576 C 0.6145 0.23358 0.68099 0.0
C577 C 0.62622 0.18039 0.66244 0.0
C578 C 0.59272 0.23369 0.66567 0.0
C579 C 0.56939 0.24313 0.67469 0.0
C580 C 0.5671 0.25247 0.69942 0.0
C581 C 0.58883 0.25216 0.71501 0.0
C582 C 0.61256 0.24332 0.70562 0.0
H583 H 0.63807 0.1626 0.66268 0.0
H584 H 0.61613 0.18253 0.68076 0.0
H585 H 0.61177 0.17843 0.64733 0.0
H586 H 0.5939 0.22699 0.64637 0.0
H587 H 0.55298 0.24268 0.6623 0.0
H588 H 0.76205 0.92879 0.75715 0.0
H589 H 0.76188 0.88388 0.7696 0.0
H590 H 0.71192 0.90332 0.83198 0.0
H591 H 0.71137 0.94732 0.81938 0.0
H592 H 0.78111 0.86518 0.8102 0.0
H593 H 0.68091 0.83864 0.81307 0.0
H594 H 0.69097 0.86618 0.79577 0.0
H595 H 0.68216 0.86872 0.82867 0.0
C596 C 0.75044 0.92327 0.77305 0.0
C597 C 0.73691 0.9417 0.7874 0.0
C598 C 0.75035 0.8976 0.78015 0.0
C599 C 0.73646 0.88997 0.80147 0.0
C600 C 0.72208 0.90832 0.81497 0.0
H601 H 0.77292 0.83557 0.93247 0.0
H602 H 0.771 0.84934 0.88905 0.0
C603 C 0.72214 0.93373 0.80794 0.0
C604 C 0.73991 0.8642 0.81254 0.0
H605 H 0.70707 0.82443 0.85077 0.0
C606 C 0.76486 0.85565 0.81826 0.0
C607 C 0.71895 0.85074 0.82234 0.0
C608 C 0.6918 0.85647 0.81429 0.0
C609 C 0.7692 0.8368 0.83647 0.0
C610 C 0.74815 0.82701 0.8498 0.0
C611 C 0.7233 0.83259 0.84125 0.0
C612 C 0.75132 0.81629 0.87545 0.0
C613 C 0.79633 0.82878 0.84252 0.0
C614 C 0.74027 0.7933 0.88262 0.0
C615 C 0.74112 0.78539 0.90787 0.0
C616 C 0.75261 0.80062 0.92627 0.0
C617 C 0.76372 0.82346 0.91886 0.0
C618 C 0.76304 0.83117 0.89386 0.0
H619 H 0.80864 0.82942 0.82544 0.0
H620 H 0.80427 0.84207 0.85658 0.0
H621 H 0.79716 0.80927 0.85033 0.0
H622 H 0.73074 0.78172 0.8688 0.0
H623 H 0.73229 0.76777 0.91308 0.0
H624 H 0.1975 0.25745 0.05183 0.0
H625 H 0.18266 0.24247 0.09277 0.0
H626 H 0.2383 0.28896 0.12977 0.0
H627 H 0.25118 0.30581 0.08883 0.0
H628 H 0.19774 0.21999 0.1342 0.0
H629 H 0.17613 0.3218 0.15733 0.0
H630 H 0.18771 0.3122 0.12679 0.0
H631 H 0.20928 0.31352 0.15315 0.0
C632 C 0.20656 0.26425 0.06873 0.0
C633 C 0.22479 0.28322 0.06742 0.0
C634 C 0.1983 0.25558 0.09214 0.0
C635 C 0.2087 0.26534 0.11449 0.0
C636 C 0.22916 0.28206 0.11291 0.0
H637 H 0.09964 0.26701 0.24011 0.0
H638 H 0.144 0.26112 0.22504 0.0
C639 C 0.23661 0.29154 0.08956 0.0
C640 C 0.19552 0.26071 0.13878 0.0
H641 H 0.15775 0.29151 0.18225 0.0
C642 C 0.18945 0.23564 0.14506 0.0
C643 C 0.18495 0.2811 0.15333 0.0
C644 C 0.18965 0.30865 0.14729 0.0
C645 C 0.17096 0.23064 0.16348 0.0
C646 C 0.15876 0.25118 0.17622 0.0
C647 C 0.16725 0.27586 0.17235 0.0
C648 C 0.1332 0.24889 0.18769 0.0
C649 C 0.16314 0.20362 0.16766 0.0
C650 C 0.11265 0.24392 0.17168 0.0
C651 C 0.0876 0.24814 0.17985 0.0
C652 C 0.08257 0.25709 0.20434 0.0
C653 C 0.10308 0.26047 0.221 0.0
C654 C 0.12832 0.25681 0.21256 0.0
H655 H 0.17996 0.19043 0.16604 0.0
H656 H 0.15404 0.20113 0.18636 0.0
H657 H 0.14924 0.19829 0.15291 0.0
H658 H 0.116 0.2383 0.15227 0.0
H659 H 0.07215 0.24478 0.16679 0.0
H660 H 0.72179 0.43662 0.35033 0.0
H661 H 0.72674 0.39305 0.36472 0.0
H662 H 0.74498 0.36835 0.28914 0.0
H663 H 0.73914 0.41215 0.27418 0.0
H664 H 0.7136 0.33462 0.3148 0.0
H665 H 0.79701 0.35849 0.37272 0.0
H666 H 0.77054 0.37966 0.37967 0.0
H667 H 0.78455 0.37943 0.3486 0.0
C668 C 0.72662 0.42202 0.33658 0.0
C669 C 0.7307 0.42811 0.31114 0.0
C670 C 0.72965 0.39708 0.34493 0.0
C671 C 0.73707 0.37761 0.32816 0.0
C672 C 0.73971 0.3832 0.30248 0.0
H673 H 0.77414 0.25332 0.42813 0.0
H674 H 0.77983 0.27583 0.38828 0.0
C675 C 0.73648 0.40827 0.29401 0.0
C676 C 0.74224 0.3517 0.33804 0.0
H677 H 0.77309 0.3222 0.3865 0.0
C678 C 0.727 0.33162 0.33012 0.0
C679 C 0.7605 0.3474 0.35723 0.0
C680 C 0.77929 0.36734 0.36482 0.0
C681 C 0.72772 0.30816 0.34274 0.0
C682 C 0.74345 0.30513 0.36428 0.0
C683 C 0.76059 0.32438 0.37035 0.0
C684 C 0.73963 0.28472 0.38321 0.0
C685 C 0.71113 0.28721 0.33317 0.0
C686 C 0.71505 0.28095 0.39301 0.0
C687 C 0.7119 0.26843 0.41587 0.0
C688 C 0.73332 0.25999 0.42982 0.0
C689 C 0.75749 0.26047 0.41831 0.0
C690 C 0.76068 0.2731 0.39537 0.0
H691 H 0.71073 0.28719 0.31225 0.0
H692 H 0.71793 0.26823 0.33971 0.0
H693 H 0.69117 0.29065 0.33977 0.0
H694 H 0.6984 0.28997 0.38453 0.0
H695 H 0.69282 0.26791 0.42383 0.0
H696 H 0.51698 0.96418 0.57777 0.0
H697 H 0.53655 0.97974 0.61657 0.0
H698 H 0.59263 0.01887 0.57224 0.0
H699 H 0.57253 0.00404 0.53383 0.0
H700 H 0.58093 0.96411 0.62885 0.0
H701 H 0.58507 0.06802 0.6283 0.0
H702 H 0.5649 0.05127 0.60658 0.0
H703 H 0.59796 0.05687 0.59892 0.0
C704 C 0.53292 0.9769 0.57649 0.0
C705 C 0.54309 0.98335 0.55297 0.0
C706 C 0.54403 0.98583 0.59858 0.0
C707 C 0.56591 0.00079 0.59744 0.0
C708 C 0.57526 0.00819 0.57377 0.0
H709 H 0.70916 0.98902 0.65194 0.0
H710 H 0.66658 0.99024 0.63341 0.0
C711 C 0.56378 0.99968 0.55171 0.0
C712 C 0.58197 0.00412 0.62013 0.0
H713 H 0.62327 0.04538 0.64708 0.0
C714 C 0.58943 0.98213 0.63342 0.0
C715 C 0.59306 0.02757 0.62639 0.0
C716 C 0.58453 0.05224 0.61438 0.0
C717 C 0.60942 0.9825 0.65084 0.0
C718 C 0.62236 0.00531 0.65489 0.0
C719 C 0.6134 0.02782 0.64359 0.0
C720 C 0.64769 0.00491 0.66689 0.0
C721 C 0.61798 0.9581 0.66337 0.0
C722 C 0.6509 0.01257 0.69193 0.0
C723 C 0.67527 0.01162 0.70277 0.0
C724 C 0.69671 0.00332 0.68852 0.0
C725 C 0.69315 0.99553 0.66346 0.0
C726 C 0.66887 0.99628 0.65279 0.0
H727 H 0.60299 0.94351 0.66253 0.0
H728 H 0.63536 0.95043 0.65366 0.0
H729 H 0.62299 0.96158 0.68338 0.0
H730 H 0.63463 0.01918 0.70303 0.0
H731 H 0.67734 0.01777 0.72211 0.0
H732 H 0.02407 0.94169 0.96768 0.0
H733 H 0.01545 0.91934 0.92803 0.0
H734 H 0.04075 0.98432 0.88624 0.0
H735 H 0.05006 0.00616 0.92595 0.0
H736 H 0.98785 0.92678 0.88412 0.0
H737 H 0.09267 0.93006 0.86576 0.0
H738 H 0.07874 0.93985 0.89541 0.0
H739 H 0.07631 0.9603 0.86843 0.0
C740 C 0.02679 0.9514 0.94997 0.0
C741 C 0.03735 0.97553 0.94961 0.0
C742 C 0.02208 0.93867 0.92736 0.0
C743 C 0.02794 0.95 0.90416 0.0
C744 C 0.03662 0.97501 0.90389 0.0
H745 H 0.00601 0.84268 0.7772 0.0
H746 H 0.00608 0.88498 0.79688 0.0
C747 C 0.04176 0.98751 0.9265 0.0
C748 C 0.02795 0.93441 0.88084 0.0
H749 H 0.06855 0.90547 0.83854 0.0
C750 C 0.00535 0.92244 0.87379 0.0
C751 C 0.05091 0.92879 0.86745 0.0
C752 C 0.0761 0.94023 0.87467 0.0
C753 C 0.0054 0.90383 0.85476 0.0
C754 C 0.02862 0.89739 0.84222 0.0
C755 C 0.05078 0.91064 0.84808 0.0
C756 C 0.03153 0.87376 0.82715 0.0
C757 C 0.98108 0.88987 0.84954 0.0
C758 C 0.04704 0.854 0.83672 0.0
C759 C 0.04707 0.83005 0.82559 0.0
C760 C 0.0316 0.82529 0.80459 0.0
C761 C 0.01788 0.84567 0.79355 0.0
C762 C 0.01774 0.86979 0.80487 0.0
H763 H 0.96548 0.89529 0.86291 0.0
H764 H 0.97444 0.89427 0.83018 0.0
H765 H 0.9846 0.86903 0.85073 0.0
H766 H 0.05802 0.85668 0.85376 0.0
H767 H 0.05815 0.81485 0.83435 0.0
H768 H 0.01253 0.08567 0.04389 0.0
H769 H 0.02011 0.13171 0.04693 0.0
H770 H 0.06767 0.12686 0.98052 0.0
H771 H 0.06063 0.08145 0.97771 0.0
H772 H 0.07161 0.14848 0.05265 0.0
H773 H 0.02686 0.19407 0.97025 0.0
H774 H 0.01516 0.16506 0.98384 0.0
H775 H 0.04133 0.16404 0.96165 0.0
C776 C 0.02404 0.0947 0.02967 0.0
C777 C 0.03622 0.08011 0.0107 0.0
C778 C 0.02832 0.12088 0.0314 0.0
C779 C 0.04415 0.13273 0.01376 0.0
C780 C 0.05494 0.11828 0.99402 0.0
H781 H 0.16211 0.1957 0.96697 0.0
H782 H 0.11809 0.18481 0.97535 0.0
C783 C 0.05113 0.09227 0.99258 0.0
C784 C 0.05354 0.15875 0.01771 0.0
H785 H 0.07002 0.20892 0.98129 0.0
C786 C 0.07051 0.16246 0.03771 0.0
C787 C 0.05172 0.17712 0.99845 0.0
C788 C 0.03253 0.17499 0.97748 0.0
C789 C 0.08867 0.18169 0.03675 0.0
C790 C 0.08939 0.19771 0.01538 0.0
C791 C 0.06973 0.19643 0.99748 0.0
C792 C 0.11361 0.20968 0.00772 0.0
C793 C 0.1089 0.18253 0.05693 0.0
C794 C 0.12543 0.22837 0.02231 0.0
C795 C 0.15094 0.23467 0.01749 0.0
C796 C 0.16484 0.22216 0.99819 0.0
C797 C 0.15207 0.20533 0.98227 0.0
C798 C 0.12678 0.1992 0.98696 0.0
H799 H 0.10595 0.16813 0.07185 0.0
H800 H 0.12815 0.17914 0.04849 0.0
H801 H 0.10862 0.20158 0.06593 0.0
H802 H 0.11545 0.23704 0.03816 0.0
H803 H 0.16016 0.24794 0.02987 0.0
H804 H 0.66071 0.5511 0.31205 0.0
H805 H 0.63038 0.57887 0.29047 0.0
H806 H 0.67242 0.56852 0.22106 0.0
H807 H 0.70272 0.53962 0.24265 0.0
H808 H 0.66287 0.62118 0.23773 0.0
H809 H 0.57505 0.56622 0.23574 0.0
H810 H 0.5879 0.56553 0.267 0.0
H811 H 0.6061 0.5515 0.24144 0.0
C812 C 0.66344 0.55431 0.29209 0.0
C813 C 0.68454 0.54345 0.27919 0.0
C814 C 0.6459 0.57011 0.27972 0.0
C815 C 0.649 0.57566 0.25413 0.0
C816 C 0.6696 0.56435 0.24082 0.0
H817 H 0.56359 0.72064 0.2301 0.0
H818 H 0.58524 0.68226 0.21273 0.0
C819 C 0.68703 0.54797 0.25322 0.0
C820 C 0.63197 0.59545 0.24286 0.0
H821 H 0.56874 0.61286 0.24333 0.0
C822 C 0.64225 0.61929 0.23788 0.0
C823 C 0.60512 0.59285 0.24282 0.0
C824 C 0.59298 0.5675 0.2468 0.0
C825 C 0.62639 0.64119 0.23634 0.0
C826 C 0.59962 0.63896 0.2395 0.0
C827 C 0.58926 0.61465 0.24115 0.0
C828 C 0.58332 0.66104 0.24754 0.0
C829 C 0.63857 0.66678 0.23413 0.0
C830 C 0.57427 0.6615 0.27244 0.0
C831 C 0.56203 0.68315 0.2822 0.0
C832 C 0.55819 0.70475 0.26723 0.0
C833 C 0.56605 0.70406 0.24189 0.0
C834 C 0.57861 0.68227 0.23206 0.0
H835 H 0.65978 0.66524 0.23312 0.0
H836 H 0.63156 0.67647 0.21687 0.0
H837 H 0.63313 0.6789 0.25054 0.0
H838 H 0.57776 0.64545 0.28478 0.0
H839 H 0.55624 0.68327 0.30182 0.0
H840 H 0.3024 0.81894 0.47838 0.0
H841 H 0.33237 0.85132 0.46538 0.0
H842 H 0.30453 0.9006 0.5251 0.0
H843 H 0.2737 0.86836 0.53751 0.0
H844 H 0.31292 0.92678 0.48151 0.0
H845 H 0.39692 0.8643 0.50337 0.0
H846 H 0.37585 0.85068 0.48073 0.0
H847 H 0.36485 0.85639 0.51247 0.0
C848 C 0.30304 0.83652 0.48895 0.0
C849 C 0.28647 0.84094 0.50941 0.0
C850 C 0.31998 0.85506 0.48143 0.0
C851 C 0.32109 0.8781 0.49468 0.0
C852 C 0.30405 0.88285 0.51474 0.0
H853 H 0.43198 0.99039 0.51131 0.0
H854 H 0.38955 0.97178 0.50808 0.0
C855 C 0.28666 0.86444 0.52194 0.0
C856 C 0.34077 0.89671 0.48824 0.0
H857 H 0.40528 0.90317 0.4835 0.0
C858 C 0.33313 0.92167 0.4819 0.0
C859 C 0.36711 0.88997 0.48887 0.0
C860 C 0.37671 0.86397 0.49696 0.0
C861 C 0.35128 0.94006 0.47611 0.0
C862 C 0.37749 0.93316 0.47669 0.0
C863 C 0.38505 0.9082 0.48272 0.0
C864 C 0.39798 0.9516 0.47334 0.0
C865 C 0.34251 0.96663 0.46939 0.0
C866 C 0.41614 0.9474 0.45418 0.0
C867 C 0.44034 0.95775 0.4562 0.0
C868 C 0.44644 0.97256 0.47722 0.0
C869 C 0.4274 0.97923 0.49482 0.0
C870 C 0.40319 0.9687 0.49291 0.0
H871 H 0.32171 0.96772 0.46515 0.0
H872 H 0.34632 0.97954 0.48545 0.0
H873 H 0.35335 0.97355 0.45285 0.0
H874 H 0.41248 0.93411 0.43907 0.0
H875 H 0.45495 0.95235 0.44254 0.0
H876 H 0.03726 0.70819 0.74135 0.0
H877 H 0.0673 0.68038 0.71782 0.0
H878 H 0.11477 0.67377 0.78384 0.0
H879 H 0.08509 0.70113 0.8072 0.0
H880 H 0.14156 0.68248 0.73466 0.0
H881 H 0.07438 0.60182 0.73512 0.0
H882 H 0.0646 0.63276 0.72366 0.0
H883 H 0.06905 0.6279 0.75679 0.0
C884 C 0.0541 0.70092 0.75076 0.0
C885 C 0.05859 0.70672 0.77623 0.0
C886 C 0.07129 0.68506 0.73726 0.0
C887 C 0.09327 0.67506 0.74911 0.0
C888 C 0.09803 0.68144 0.77427 0.0
H889 H 0.1798 0.57562 0.80517 0.0
H890 H 0.14879 0.60243 0.78335 0.0
C891 C 0.08088 0.69694 0.78768 0.0
C892 C 0.11075 0.65619 0.73689 0.0
H893 H 0.11852 0.59178 0.73668 0.0
C894 C 0.13648 0.66265 0.73381 0.0
C895 C 0.104 0.6304 0.73548 0.0
C896 C 0.07652 0.62259 0.73784 0.0
C897 C 0.15595 0.64381 0.73312 0.0
C898 C 0.14936 0.61808 0.73572 0.0
C899 C 0.12348 0.61158 0.73493 0.0
C900 C 0.16766 0.59959 0.7471 0.0
C901 C 0.18351 0.65164 0.73295 0.0
C902 C 0.18857 0.58882 0.73387 0.0
C903 C 0.20657 0.57327 0.74648 0.0
C904 C 0.20393 0.56854 0.77242 0.0
C905 C 0.1826 0.57897 0.78524 0.0
C906 C 0.16471 0.5942 0.77274 0.0
H907 H 0.18545 0.67213 0.72861 0.0
H908 H 0.19217 0.64779 0.75166 0.0
H909 H 0.19449 0.64032 0.71875 0.0
H910 H 0.19115 0.59273 0.71402 0.0
H911 H 0.22265 0.56547 0.73603 0.0
H912 H 0.79902 0.31473 0.53015 0.0
H913 H 0.82266 0.35398 0.53214 0.0
H914 H 0.75985 0.39458 0.49689 0.0
H915 H 0.73571 0.35516 0.49496 0.0
H916 H 0.81139 0.39954 0.47411 0.0
H917 H 0.80962 0.41913 0.57651 0.0
H918 H 0.81606 0.38625 0.56931 0.0
H919 H 0.78566 0.40051 0.56094 0.0
C920 C 0.79005 0.33201 0.52304 0.0
C921 C 0.7655 0.33184 0.51239 0.0
C922 C 0.80352 0.35445 0.52435 0.0
C923 C 0.79279 0.37714 0.51498 0.0
C924 C 0.76824 0.37724 0.50447 0.0
H925 H 0.91309 0.49201 0.49861 0.0
H926 H 0.86845 0.4784 0.49771 0.0
C927 C 0.75454 0.35475 0.50341 0.0
C928 C 0.80858 0.39996 0.51456 0.0
H929 H 0.84697 0.43332 0.55362 0.0
C930 C 0.81859 0.40776 0.49138 0.0
C931 C 0.81763 0.4107 0.53713 0.0
C932 C 0.80649 0.40391 0.56239 0.0
C933 C 0.83962 0.42382 0.49041 0.0
C934 C 0.8505 0.43221 0.5132 0.0
C935 C 0.83863 0.42666 0.53619 0.0
C936 C 0.87685 0.44154 0.51398 0.0
C937 C 0.8516 0.42971 0.46528 0.0
C938 C 0.89608 0.42533 0.52349 0.0
C939 C 0.92136 0.43291 0.52403 0.0
C940 C 0.92797 0.45698 0.51513 0.0
C941 C 0.90859 0.47336 0.50568 0.0
C942 C 0.88314 0.46565 0.50508 0.0
H943 H 0.84096 0.42135 0.4493 0.0
H944 H 0.85208 0.45059 0.46268 0.0
H945 H 0.87166 0.42229 0.46473 0.0
H946 H 0.89153 0.40659 0.53032 0.0
H947 H 0.93569 0.41983 0.53151 0.0
H948 H 0.29002 0.95105 0.28127 0.0
H949 H 0.32205 0.92381 0.30259 0.0
H950 H 0.3667 0.92036 0.23413 0.0
H951 H 0.33513 0.94698 0.2131 0.0
H952 H 0.33397 0.8751 0.2888 0.0
H953 H 0.42266 0.92815 0.28512 0.0
H954 H 0.39156 0.94377 0.28298 0.0
H955 H 0.40744 0.93143 0.25511 0.0
C956 C 0.30683 0.94476 0.27099 0.0
C957 C 0.30981 0.95085 0.2454 0.0
C958 C 0.32522 0.92933 0.28322 0.0
C959 C 0.34708 0.92037 0.27013 0.0
C960 C 0.35046 0.92754 0.24494 0.0
H961 H 0.40489 0.79754 0.21519 0.0
H962 H 0.38069 0.82899 0.23935 0.0
C963 C 0.33213 0.94255 0.23278 0.0
C964 C 0.36464 0.90051 0.28057 0.0
H965 H 0.4271 0.882 0.27298 0.0
C966 C 0.35447 0.8768 0.28643 0.0
C967 C 0.39151 0.90265 0.2786 0.0
C968 C 0.40386 0.92802 0.27542 0.0
C969 C 0.37004 0.8547 0.28612 0.0
C970 C 0.39607 0.85643 0.27908 0.0
C971 C 0.40694 0.88049 0.27751 0.0
C972 C 0.4101 0.83457 0.26732 0.0
C973 C 0.35808 0.82947 0.29126 0.0
C974 C 0.43499 0.8273 0.2747 0.0
C975 C 0.4491 0.80916 0.26062 0.0
C976 C 0.43873 0.79844 0.23871 0.0
C977 C 0.41362 0.80543 0.23186 0.0
C978 C 0.39953 0.82323 0.24593 0.0
H979 H 0.34296 0.83152 0.30594 0.0
H980 H 0.34887 0.82251 0.27384 0.0
H981 H 0.37256 0.81509 0.29753 0.0
H982 H 0.44366 0.83602 0.29097 0.0
H983 H 0.46818 0.80416 0.26658 0.0
H984 H 0.29599 0.46443 0.76519 0.0
H985 H 0.32692 0.43524 0.78565 0.0
H986 H 0.38003 0.44646 0.72461 0.0
H987 H 0.34922 0.47468 0.70404 0.0
H988 H 0.34599 0.38961 0.75956 0.0
H989 H 0.42554 0.45018 0.78845 0.0
H990 H 0.39287 0.46193 0.78573 0.0
H991 H 0.41294 0.459 0.75821 0.0
C992 C 0.31436 0.46092 0.75642 0.0
C993 C 0.31998 0.47155 0.73285 0.0
C994 C 0.33207 0.44433 0.76815 0.0
C995 C 0.35593 0.43892 0.7568 0.0
C996 C 0.36196 0.45067 0.73397 0.0
H997 H 0.46823 0.34966 0.70687 0.0
H998 H 0.44122 0.38256 0.72639 0.0
C999 C 0.34419 0.46665 0.7221 0.0
C1000 C 0.3735 0.41856 0.76622 0.0
H1001 H 0.43751 0.40736 0.77413 0.0
C1002 C 0.36584 0.39332 0.76379 0.0
C1003 C 0.3993 0.42348 0.77193 0.0
C1004 C 0.40813 0.45014 0.77651 0.0
C1005 C 0.38389 0.37309 0.76373 0.0
C1006 C 0.41021 0.37834 0.76646 0.0
C1007 C 0.4174 0.40332 0.77179 0.0
C1008 C 0.43032 0.35964 0.75824 0.0
C1009 C 0.37496 0.34661 0.75815 0.0
C1010 C 0.43413 0.33607 0.7702 0.0
C1011 C 0.44976 0.31712 0.75892 0.0
C1012 C 0.46167 0.32151 0.73569 0.0
C1013 C 0.45919 0.34568 0.72478 0.0
C1014 C 0.44382 0.36456 0.73598 0.0
H1015 H 0.35405 0.34615 0.75458 0.0
H1016 H 0.38518 0.33868 0.74141 0.0
H1017 H 0.37936 0.33407 0.77439 0.0
H1018 H 0.42414 0.33193 0.78754 0.0
H1019 H 0.45127 0.29865 0.76745 0.0
H1020 H 0.20392 0.80482 0.60057 0.0
H1021 H 0.19373 0.78328 0.63914 0.0
H1022 H 0.21338 0.71105 0.6045 0.0
H1023 H 0.22305 0.73309 0.56502 0.0
H1024 H 0.16802 0.70894 0.62027 0.0
H1025 H 0.21582 0.74957 0.7011 0.0
H1026 H 0.20952 0.77605 0.68089 0.0
H1027 H 0.23011 0.7501 0.67015 0.0
C1028 C 0.20681 0.78439 0.60131 0.0
C1029 C 0.2138 0.7706 0.57964 0.0
C1030 C 0.20148 0.772 0.62371 0.0
C1031 C 0.203 0.74538 0.62514 0.0
C1032 C 0.21218 0.7316 0.60403 0.0
H1033 H 0.08616 0.74434 0.74162 0.0
H1034 H 0.1278 0.72884 0.72571 0.0
C1035 C 0.21765 0.74418 0.5814 0.0
C1036 C 0.18875 0.7329 0.64584 0.0
H1037 H 0.16681 0.75165 0.70364 0.0
C1038 C 0.16845 0.71734 0.63893 0.0
C1039 C 0.18954 0.74227 0.67087 0.0
C1040 C 0.2127 0.75514 0.68117 0.0
C1041 C 0.14676 0.71557 0.65436 0.0
C1042 C 0.14519 0.73033 0.67664 0.0
C1043 C 0.1674 0.74147 0.68584 0.0
C1044 C 0.12004 0.73893 0.68697 0.0
C1045 C 0.12481 0.69981 0.64552 0.0
C1046 C 0.10236 0.75084 0.67075 0.0
C1047 C 0.07868 0.7596 0.67966 0.0
C1048 C 0.07212 0.75699 0.70517 0.0
C1049 C 0.0904 0.7463 0.72176 0.0
C1050 C 0.11418 0.73731 0.71272 0.0
H1051 H 0.13208 0.68224 0.63599 0.0
H1052 H 0.11215 0.69446 0.66139 0.0
H1053 H 0.11336 0.71076 0.63153 0.0
H1054 H 0.10687 0.7534 0.65101 0.0
H1055 H 0.06534 0.76798 0.66633 0.0
H1056 H 0.25788 0.91679 0.28554 0.0
H1057 H 0.25494 0.87283 0.30035 0.0
H1058 H 0.19486 0.89603 0.35192 0.0
H1059 H 0.19782 0.93969 0.33757 0.0
H1060 H 0.26373 0.85929 0.35104 0.0
H1061 H 0.16771 0.83003 0.32184 0.0
H1062 H 0.18437 0.85552 0.30663 0.0
H1063 H 0.16665 0.86132 0.33532 0.0
C1064 C 0.24373 0.91241 0.29969 0.0
C1065 C 0.22824 0.9318 0.31055 0.0
C1066 C 0.24206 0.88729 0.30809 0.0
C1067 C 0.22442 0.8811 0.32696 0.0
C1068 C 0.20822 0.90024 0.33695 0.0
H1069 H 0.18608 0.81502 0.45339 0.0
H1070 H 0.18785 0.82981 0.41035 0.0
C1071 C 0.21012 0.92529 0.32889 0.0
C1072 C 0.22477 0.8557 0.33891 0.0
H1073 H 0.18345 0.8121 0.36154 0.0
C1074 C 0.24652 0.84831 0.35272 0.0
C1075 C 0.2024 0.84127 0.34078 0.0
C1076 C 0.17906 0.84731 0.3251 0.0
C1077 C 0.24546 0.82889 0.37074 0.0
C1078 C 0.22207 0.81636 0.37465 0.0
C1079 C 0.20128 0.82183 0.35871 0.0
C1080 C 0.21709 0.80254 0.39841 0.0
C1081 C 0.26858 0.82375 0.38712 0.0
C1082 C 0.2316 0.781 0.40565 0.0
C1083 C 0.23053 0.77234 0.43057 0.0
C1084 C 0.21532 0.7853 0.44857 0.0
C1085 C 0.19853 0.80481 0.44031 0.0
C1086 C 0.19949 0.81336 0.41555 0.0
H1087 H 0.28439 0.83689 0.38309 0.0
H1088 H 0.26336 0.82559 0.40734 0.0
H1089 H 0.27585 0.80406 0.38381 0.0
H1090 H 0.24469 0.77177 0.39248 0.0
H1091 H 0.24253 0.75643 0.43611 0.0
H1092 H 0.94955 0.70327 0.68606 0.0
H1093 H 0.94199 0.65939 0.67434 0.0
H1094 H 0.99374 0.63337 0.73238 0.0
H1095 H 0.00117 0.67758 0.7446 0.0
H1096 H 0.00636 0.61634 0.6839 0.0
H1097 H 0.90491 0.5982 0.70314 0.0
H1098 H 0.90839 0.62884 0.68908 0.0
H1099 H 0.92232 0.62252 0.71949 0.0
C1100 C 0.95889 0.68824 0.69675 0.0
C1101 C 0.97617 0.6939 0.71605 0.0
C1102 C 0.95432 0.66312 0.69022 0.0
C1103 C 0.967 0.64309 0.70274 0.0
C1104 C 0.98349 0.64856 0.72274 0.0
H1105 H 0.98442 0.51822 0.59423 0.0
H1106 H 0.98297 0.53221 0.63829 0.0
C1107 C 0.98777 0.67381 0.72961 0.0
C1108 C 0.96597 0.61726 0.69177 0.0
H1109 H 0.92276 0.5783 0.66467 0.0
C1110 C 0.98828 0.60728 0.68039 0.0
C1111 C 0.94244 0.60533 0.68759 0.0
C1112 C 0.91822 0.61416 0.70074 0.0
C1113 C 0.98712 0.58801 0.66213 0.0
C1114 C 0.96297 0.57827 0.65557 0.0
C1115 C 0.94121 0.58597 0.66946 0.0
C1116 C 0.95911 0.56552 0.63098 0.0
C1117 C 0.01131 0.58035 0.64813 0.0
C1118 C 0.94463 0.57846 0.61266 0.0
C1119 C 0.94523 0.57042 0.58766 0.0
C1120 C 0.96045 0.54928 0.58039 0.0
C1121 C 0.97287 0.5348 0.59917 0.0
C1122 C 0.97217 0.54285 0.62434 0.0
H1123 H 0.02801 0.5915 0.65415 0.0
H1124 H 0.01588 0.55998 0.65159 0.0
H1125 H 0.0087 0.58295 0.62755 0.0
H1126 H 0.93425 0.59592 0.61734 0.0
H1127 H 0.93505 0.58179 0.57381 0.0
H1128 H 0.34273 0.77947 0.48113 0.0
H1129 H 0.36051 0.79509 0.4418 0.0
H1130 H 0.29898 0.76091 0.40067 0.0
H1131 H 0.28281 0.74347 0.44004 0.0
H1132 H 0.34121 0.74072 0.38738 0.0
H1133 H 0.35674 0.84341 0.38491 0.0
H1134 H 0.36743 0.83163 0.41474 0.0
H1135 H 0.33409 0.82963 0.40638 0.0
C1136 C 0.33235 0.77649 0.46377 0.0
C1137 C 0.3108 0.76123 0.46348 0.0
C1138 C 0.34236 0.78563 0.44125 0.0
C1139 C 0.33093 0.77951 0.41813 0.0
C1140 C 0.30791 0.76626 0.41823 0.0
H1141 H 0.43064 0.75908 0.28492 0.0
H1142 H 0.39107 0.76818 0.30816 0.0
C1143 C 0.29827 0.75671 0.44074 0.0
C1144 C 0.34647 0.78059 0.39475 0.0
H1145 H 0.39115 0.81638 0.36532 0.0
C1146 C 0.35141 0.75755 0.38198 0.0
C1147 C 0.3599 0.80245 0.38761 0.0
C1148 C 0.35399 0.82819 0.39903 0.0
C1149 C 0.37099 0.75519 0.36405 0.0
C1150 C 0.38596 0.77645 0.35868 0.0
C1151 C 0.3798 0.80002 0.36985 0.0
C1152 C 0.40981 0.77351 0.34394 0.0
C1153 C 0.37685 0.72948 0.35242 0.0
C1154 C 0.43338 0.77361 0.35646 0.0
C1155 C 0.45607 0.76826 0.34334 0.0
C1156 C 0.45556 0.76275 0.31742 0.0
C1157 C 0.4318 0.76296 0.30492 0.0
C1158 C 0.40914 0.76836 0.31807 0.0
H1159 H 0.36482 0.71436 0.36041 0.0
H1160 H 0.37342 0.73035 0.33182 0.0
H1161 H 0.39729 0.72408 0.35531 0.0
H1162 H 0.43416 0.77733 0.37652 0.0
H1163 H 0.47398 0.76856 0.35351 0.0
H1164 H 0.24513 0.08081 0.24559 0.0
H1165 H 0.24461 0.1242 0.22852 0.0
H1166 H 0.28513 0.09696 0.16251 0.0
H1167 H 0.28562 0.05411 0.17909 0.0
H1168 H 0.30309 0.14394 0.18191 0.0
H1169 H 0.19718 0.1441 0.16865 0.0
H1170 H 0.21039 0.13903 0.19954 0.0
H1171 H 0.2147 0.11509 0.17573 0.0
C1172 C 0.25411 0.08416 0.22755 0.0
C1173 C 0.26498 0.06385 0.2135 0.0
C1174 C 0.25377 0.10896 0.21783 0.0
C1175 C 0.26464 0.11376 0.19412 0.0
C1176 C 0.27664 0.09373 0.18083 0.0
H1177 H 0.26364 0.16283 0.05749 0.0
H1178 H 0.26584 0.14836 0.10072 0.0
C1179 C 0.27677 0.06913 0.19033 0.0
C1180 C 0.26234 0.13883 0.18154 0.0
H1181 H 0.22088 0.1711 0.143 0.0
C1182 C 0.28498 0.15066 0.17419 0.0
C1183 C 0.23868 0.14765 0.17157 0.0
C1184 C 0.21376 0.13591 0.17912 0.0
C1185 C 0.28489 0.16896 0.15503 0.0
C1186 C 0.26165 0.17549 0.143 0.0
C1187 C 0.23866 0.16598 0.15236 0.0
C1188 C 0.26172 0.18582 0.11716 0.0
C1189 C 0.30991 0.17919 0.14584 0.0
C1190 C 0.25935 0.21191 0.11209 0.0
C1191 C 0.25842 0.22044 0.08704 0.0
C1192 C 0.2593 0.20297 0.06687 0.0
C1193 C 0.26261 0.17696 0.07235 0.0
C1194 C 0.2638 0.16856 0.09713 0.0
H1195 H 0.32545 0.17622 0.15982 0.0
H1196 H 0.31555 0.16931 0.12809 0.0
H1197 H 0.30782 0.19979 0.14169 0.0
H1198 H 0.25793 0.22553 0.12739 0.0
H1199 H 0.25643 0.24055 0.08348 0.0
H1200 H 0.82186 0.72853 0.95296 0.0
H1201 H 0.84212 0.75103 0.91823 0.0
H1202 H 0.77415 0.7422 0.87329 0.0
H1203 H 0.7542 0.71927 0.90828 0.0
H1204 H 0.81419 0.72731 0.84819 0.0
H1205 H 0.83758 0.81993 0.88825 0.0
H1206 H 0.84811 0.79613 0.91008 0.0
H1207 H 0.81447 0.79965 0.90289 0.0
C1208 C 0.81117 0.73221 0.93588 0.0
C1209 C 0.78662 0.72285 0.93314 0.0
C1210 C 0.82252 0.74516 0.91614 0.0
C1211 C 0.80928 0.74916 0.89343 0.0
C1212 C 0.78451 0.73977 0.89079 0.0
H1213 H 0.92543 0.77326 0.775 0.0
H1214 H 0.88124 0.77957 0.79014 0.0
C1215 C 0.77324 0.7266 0.91059 0.0
C1216 C 0.82318 0.75944 0.87158 0.0
H1217 H 0.87102 0.80047 0.85957 0.0
C1218 C 0.82583 0.74398 0.85008 0.0
C1219 C 0.83797 0.78147 0.87371 0.0
C1220 C 0.83409 0.80034 0.89491 0.0
C1221 C 0.8456 0.74778 0.83274 0.0
C1222 C 0.86289 0.76744 0.8372 0.0
C1223 C 0.8579 0.7851 0.85652 0.0
C1224 C 0.88921 0.76524 0.82747 0.0
C1225 C 0.8499 0.72891 0.81164 0.0
C1226 C 0.90795 0.75492 0.84346 0.0
C1227 C 0.93288 0.75105 0.83496 0.0
C1228 C 0.93967 0.75752 0.81023 0.0
C1229 C 0.92079 0.76796 0.79414 0.0
C1230 C 0.89563 0.77175 0.80273 0.0
H1231 H 0.83345 0.71614 0.8093 0.0
H1232 H 0.8531 0.73905 0.79365 0.0
H1233 H 0.86731 0.71711 0.81557 0.0
H1234 H 0.90317 0.74956 0.86257 0.0
H1235 H 0.94683 0.74306 0.84793 0.0
H1236 H 0.25773 0.60091 0.74212 0.0
H1237 H 0.25986 0.64639 0.73248 0.0
H1238 H 0.30759 0.62899 0.66806 0.0
H1239 H 0.30541 0.58375 0.67724 0.0
H1240 H 0.32227 0.67333 0.70453 0.0
H1241 H 0.22315 0.67645 0.66587 0.0
H1242 H 0.23025 0.662 0.69587 0.0
H1243 H 0.24044 0.64639 0.66739 0.0
C1244 C 0.26892 0.60679 0.72605 0.0
C1245 C 0.28127 0.58866 0.71031 0.0
C1246 C 0.27008 0.63276 0.72062 0.0
C1247 C 0.28386 0.64093 0.69958 0.0
C1248 C 0.29692 0.62299 0.68444 0.0
H1249 H 0.33201 0.71774 0.58669 0.0
H1250 H 0.32975 0.7032 0.62965 0.0
C1251 C 0.29556 0.59713 0.68965 0.0
C1252 C 0.28372 0.66784 0.69178 0.0
H1253 H 0.2517 0.70665 0.65095 0.0
C1254 C 0.30656 0.68116 0.69348 0.0
C1255 C 0.26298 0.67837 0.67805 0.0
C1256 C 0.2377 0.66523 0.67659 0.0
C1257 C 0.31017 0.70329 0.6794 0.0
C1258 C 0.29082 0.71159 0.66255 0.0
C1259 C 0.26679 0.70016 0.66352 0.0
C1260 C 0.29679 0.72685 0.63989 0.0
C1261 C 0.3353 0.71657 0.68152 0.0
C1262 C 0.27974 0.74591 0.63127 0.0
C1263 C 0.28069 0.75399 0.60621 0.0
C1264 C 0.29859 0.74293 0.58937 0.0
C1265 C 0.31764 0.72636 0.59895 0.0
C1266 C 0.31657 0.71821 0.62384 0.0
H1267 H 0.34167 0.71696 0.70146 0.0
H1268 H 0.35017 0.70582 0.67064 0.0
H1269 H 0.33399 0.73635 0.67438 0.0
H1270 H 0.2645 0.75311 0.64329 0.0
H1271 H 0.26612 0.76728 0.59962 0.0
H1272 H 0.331 0.99181 0.2832 0.0
H1273 H 0.37451 0.98787 0.3 0.0
H1274 H 0.34931 0.02477 0.36869 0.0
H1275 H 0.30589 0.02787 0.35262 0.0
H1276 H 0.40837 0.02175 0.31529 0.0
H1277 H 0.3841 0.96212 0.39634 0.0
H1278 H 0.36224 0.96731 0.37048 0.0
H1279 H 0.36332 0.98963 0.39631 0.0
C1280 C 0.33473 0.999 0.30192 0.0
C1281 C 0.31485 0.0097 0.31678 0.0
C1282 C 0.35959 0.99668 0.31148 0.0
C1283 C 0.36491 0.00518 0.33594 0.0
C1284 C 0.3454 0.01712 0.35017 0.0
H1285 H 0.4783 0.07747 0.40923 0.0
H1286 H 0.45087 0.05971 0.3772 0.0
C1287 C 0.32061 0.01914 0.34082 0.0
C1288 C 0.39092 0.00279 0.34668 0.0
H1289 H 0.42033 0.99012 0.40244 0.0
C1290 C 0.41125 0.01425 0.3341 0.0
C1291 C 0.39509 0.99201 0.37072 0.0
C1292 C 0.37505 0.9768 0.38404 0.0
C1293 C 0.43472 0.01781 0.34619 0.0
C1294 C 0.43743 0.0105 0.37168 0.0
C1295 C 0.41814 0.9964 0.38311 0.0
C1296 C 0.45782 0.0205 0.38801 0.0
C1297 C 0.456 0.0301 0.3318 0.0
C1298 C 0.47073 0.00453 0.40509 0.0
C1299 C 0.48574 0.01484 0.42408 0.0
C1300 C 0.48852 0.0412 0.42617 0.0
C1301 C 0.47669 0.05702 0.40819 0.0
C1302 C 0.46126 0.04682 0.38953 0.0
H1303 H 0.45577 0.02415 0.3117 0.0
H1304 H 0.45308 0.05104 0.33231 0.0
H1305 H 0.47507 0.02519 0.33983 0.0
H1306 H 0.46825 0.98417 0.40446 0.0
H1307 H 0.49427 0.00208 0.43746 0.0
H1308 H 0.8376 0.79419 0.0419 0.0
H1309 H 0.8812 0.809 0.03782 0.0
H1310 H 0.88573 0.77782 0.96264 0.0
H1311 H 0.84141 0.7644 0.96629 0.0
H1312 H 0.93053 0.79429 0.02564 0.0
H1313 H 0.88657 0.85279 0.94889 0.0
H1314 H 0.86751 0.83285 0.96857 0.0
H1315 H 0.88774 0.81899 0.9445 0.0
C1316 C 0.84826 0.78962 0.02487 0.0
C1317 C 0.83617 0.77802 0.00442 0.0
C1318 C 0.87322 0.79806 0.02254 0.0
C1319 C 0.88653 0.79511 -0.00032 0.0
C1320 C 0.87564 0.78074 0.9803 0.0
H1321 H 0.98335 0.92424 0.97148 0.0
H1322 H 0.97311 0.87942 0.96543 0.0
C1323 C 0.85044 0.77253 0.98255 0.0
C1324 C 0.90906 0.81117 0.99517 0.0
H1325 H 0.92417 0.86671 0.96641 0.0
C1326 C 0.92955 0.80974 0.01221 0.0
C1327 C 0.90795 0.83128 0.97747 0.0
C1328 C 0.88626 0.8343 0.95887 0.0
C1329 C 0.94762 0.82903 0.01349 0.0
C1330 C 0.94493 0.85035 0.99753 0.0
C1331 C 0.92613 0.8504 0.97874 0.0
C1332 C 0.95757 0.87472 0.00292 0.0
C1333 C 0.96861 0.82703 0.03283 0.0
C1334 C 0.95282 0.88682 0.02615 0.0
C1335 C 0.95878 0.91227 0.02958 0.0
C1336 C 0.96972 0.92609 0.00994 0.0
C1337 C 0.97585 0.91371 0.98718 0.0
C1338 C 0.96976 0.88818 0.98367 0.0
H1339 H 0.97451 0.80687 0.03589 0.0
H1340 H 0.98563 0.83787 0.02709 0.0
H1341 H 0.96139 0.83472 0.05107 0.0
H1342 H 0.94271 0.8772 0.04102 0.0
H1343 H 0.95354 0.92158 0.04716 0.0
H1344 H 0.78292 0.14407 0.53239 0.0
H1345 H 0.76155 0.10314 0.53067 0.0
H1346 H 0.69952 0.1379 0.48883 0.0
H1347 H 0.72045 0.17872 0.49057 0.0
H1348 H 0.71082 0.09564 0.55051 0.0
H1349 H 0.71703 0.07114 0.4495 0.0
H1350 H 0.73928 0.09202 0.46472 0.0
H1351 H 0.70866 0.10408 0.45411 0.0
C1352 C 0.76487 0.1429 0.52255 0.0
C1353 C 0.75331 0.16465 0.51164 0.0
C1354 C 0.75279 0.11951 0.52155 0.0
C1355 C 0.7293 0.11748 0.5092 0.0
C1356 C 0.71798 0.13902 0.49796 0.0
H1357 H 0.58817 0.08708 0.514 0.0
H1358 H 0.63321 0.09307 0.52283 0.0
C1359 C 0.72982 0.16239 0.4992 0.0
C1360 C 0.71474 0.09386 0.51011 0.0
H1361 H 0.67771 0.05884 0.47127 0.0
C1362 C 0.70428 0.08674 0.53332 0.0
C1363 C 0.70674 0.08181 0.48779 0.0
C1364 C 0.71875 0.08747 0.46264 0.0
C1365 C 0.68331 0.07068 0.53426 0.0
C1366 C 0.67272 0.06193 0.51149 0.0
C1367 C 0.68566 0.06591 0.48872 0.0
C1368 C 0.64546 0.05562 0.51001 0.0
C1369 C 0.67105 0.06531 0.55936 0.0
C1370 C 0.63743 0.03252 0.49981 0.0
C1371 C 0.61145 0.02899 0.49484 0.0
C1372 C 0.59353 0.04885 0.49928 0.0
C1373 C 0.60165 0.07161 0.51007 0.0
C1374 C 0.62732 0.0749 0.51547 0.0
H1375 H 0.68557 0.06473 0.57458 0.0
H1376 H 0.65697 0.08077 0.56393 0.0
H1377 H 0.66088 0.04702 0.559 0.0
H1378 H 0.65128 0.01762 0.49512 0.0
H1379 H 0.60554 0.01124 0.48658 0.0
H1380 H 0.78019 0.43026 0.26876 0.0
H1381 H 0.8159 0.40373 0.28489 0.0
H1382 H 0.86708 0.43935 0.23266 0.0
H1383 H 0.83144 0.46487 0.21603 0.0
H1384 H 0.84192 0.37267 0.24327 0.0
H1385 H 0.91106 0.42896 0.29858 0.0
H1386 H 0.87686 0.43174 0.30337 0.0
H1387 H 0.89111 0.44525 0.27586 0.0
C1388 C 0.79923 0.43296 0.26146 0.0
C1389 C 0.80316 0.44936 0.24112 0.0
C1390 C 0.81961 0.4179 0.27068 0.0
C1391 C 0.84418 0.41978 0.26011 0.0
C1392 C 0.8484 0.4379 0.24138 0.0
H1393 H 0.9824 0.34937 0.21803 0.0
H1394 H 0.94809 0.37755 0.23422 0.0
C1395 C 0.82802 0.45237 0.23179 0.0
C1396 C 0.86396 0.39961 0.26393 0.0
H1397 H 0.92673 0.39079 0.27995 0.0
C1398 C 0.86028 0.37626 0.25189 0.0
C1399 C 0.8879 0.40461 0.27488 0.0
C1400 C 0.89218 0.42895 0.28903 0.0
C1401 C 0.88048 0.35852 0.24875 0.0
C1402 C 0.90489 0.36398 0.25871 0.0
C1403 C 0.9081 0.38669 0.2722 0.0
C1404 C 0.92772 0.34764 0.25297 0.0
C1405 C 0.87589 0.33506 0.23309 0.0
C1406 C 0.92821 0.32168 0.25888 0.0
C1407 C 0.94783 0.30564 0.24966 0.0
C1408 C 0.96746 0.31541 0.23484 0.0
C1409 C 0.9677 0.34156 0.22995 0.0
C1410 C 0.94811 0.3576 0.23916 0.0
H1411 H 0.85789 0.33673 0.22209 0.0
H1412 H 0.89196 0.33132 0.21976 0.0
H1413 H 0.87432 0.31841 0.2457 0.0
H1414 H 0.91278 0.31361 0.26962 0.0
H1415 H 0.94667 0.28539 0.25268 0.0
H1416 H 0.07513 0.52931 0.50791 0.0
H1417 H 0.11822 0.54624 0.51349 0.0
H1418 H 0.08496 0.61947 0.53292 0.0
H1419 H 0.04233 0.60296 0.52754 0.0
H1420 H 0.13702 0.58912 0.48582 0.0
H1421 H 0.13862 0.60621 0.58863 0.0
H1422 H 0.11729 0.58406 0.57399 0.0
H1423 H 0.10945 0.61752 0.57437 0.0
C1424 C 0.07709 0.54893 0.51364 0.0
C1425 C 0.05538 0.56485 0.51715 0.0
C1426 C 0.10163 0.55852 0.51684 0.0
C1427 C 0.10463 0.58394 0.52403 0.0
C1428 C 0.08299 0.59965 0.52787 0.0
H1429 H 0.19686 0.7107 0.52816 0.0
H1430 H 0.16517 0.67747 0.53091 0.0
C1431 C 0.05863 0.59024 0.52448 0.0
C1432 C 0.1301 0.59527 0.52537 0.0
H1433 H 0.16587 0.6327 0.56335 0.0
C1434 C 0.14384 0.59808 0.50287 0.0
C1435 C 0.13876 0.60689 0.54769 0.0
C1436 C 0.12538 0.60332 0.5726 0.0
C1437 C 0.16494 0.61398 0.50167 0.0
C1438 C 0.17251 0.62701 0.52365 0.0
C1439 C 0.1598 0.62284 0.5465 0.0
C1440 C 0.19211 0.64667 0.52279 0.0
C1441 C 0.1779 0.61807 0.47662 0.0
C1442 C 0.2177 0.64021 0.51752 0.0
C1443 C 0.23586 0.65913 0.51586 0.0
C1444 C 0.22871 0.68485 0.5195 0.0
C1445 C 0.20303 0.69115 0.52511 0.0
C1446 C 0.18491 0.67219 0.5268 0.0
H1447 H 0.16726 0.60948 0.46077 0.0
H1448 H 0.17986 0.63868 0.47295 0.0
H1449 H 0.1974 0.6093 0.47702 0.0
H1450 H 0.2236 0.62055 0.51467 0.0
H1451 H 0.25549 0.65355 0.51166 0.0
H1452 H 0.6658 0.05926 0.79419 0.0
H1453 H 0.63675 0.08791 0.77199 0.0
H1454 H 0.68851 0.089 0.70863 0.0
H1455 H 0.71751 0.05934 0.73067 0.0
H1456 H 0.67506 0.13769 0.72899 0.0
H1457 H 0.58814 0.08365 0.71128 0.0
H1458 H 0.60042 0.0765 0.74202 0.0
H1459 H 0.61941 0.06856 0.71459 0.0
C1460 C 0.6709 0.06514 0.77533 0.0
C1461 C 0.69432 0.05735 0.76442 0.0
C1462 C 0.65408 0.08135 0.76252 0.0
C1463 C 0.66027 0.09038 0.7385 0.0
C1464 C 0.68324 0.08204 0.72705 0.0
H1465 H 0.53504 0.20184 0.73268 0.0
H1466 H 0.56672 0.17556 0.70926 0.0
C1467 C 0.69994 0.06527 0.73979 0.0
C1468 C 0.64423 0.11127 0.72785 0.0
H1469 H 0.58099 0.12815 0.72526 0.0
C1470 C 0.65455 0.13559 0.72714 0.0
C1471 C 0.61761 0.10862 0.72458 0.0
C1472 C 0.60581 0.08284 0.72285 0.0
C1473 C 0.63855 0.15737 0.72732 0.0
C1474 C 0.61167 0.15464 0.72844 0.0
C1475 C 0.60156 0.13039 0.72502 0.0
C1476 C 0.59461 0.17485 0.73934 0.0
C1477 C 0.65069 0.18299 0.72842 0.0
C1478 C 0.59987 0.18356 0.76373 0.0
C1479 C 0.58179 0.19804 0.77709 0.0
C1480 C 0.55797 0.20437 0.76642 0.0
C1481 C 0.55319 0.1972 0.74138 0.0
C1482 C 0.57131 0.18223 0.728 0.0
H1483 H 0.66755 0.18343 0.71564 0.0
H1484 H 0.63704 0.19841 0.72308 0.0
H1485 H 0.65756 0.18656 0.74784 0.0
H1486 H 0.61736 0.17774 0.7732 0.0
H1487 H 0.58611 0.20343 0.7963 0.0
H1488 H 0.73558 0.57611 0.2363 0.0
H1489 H 0.73864 0.61878 0.21771 0.0
H1490 H 0.78246 0.587 0.15576 0.0
H1491 H 0.77965 0.54497 0.17393 0.0
H1492 H 0.80179 0.63361 0.17624 0.0
H1493 H 0.69776 0.63938 0.153 0.0
H1494 H 0.70769 0.63337 0.18493 0.0
H1495 H 0.71296 0.60943 0.16126 0.0
C1496 C 0.74609 0.57836 0.21887 0.0
C1497 C 0.75708 0.55709 0.20643 0.0
C1498 C 0.74773 0.60269 0.20825 0.0
C1499 C 0.76061 0.60598 0.18524 0.0
C1500 C 0.77244 0.58491 0.17351 0.0
H1501 H 0.79151 0.6641 0.05034 0.0
H1502 H 0.79133 0.64793 0.09323 0.0
C1503 C 0.77066 0.56082 0.18389 0.0
C1504 C 0.76102 0.63066 0.17192 0.0
H1505 H 0.72524 0.66506 0.12991 0.0
C1506 C 0.78492 0.6411 0.16672 0.0
C1507 C 0.73897 0.6406 0.15971 0.0
C1508 C 0.71282 0.63023 0.16484 0.0
C1509 C 0.78771 0.65938 0.14782 0.0
C1510 C 0.76612 0.66714 0.1336 0.0
C1511 C 0.74181 0.65887 0.14071 0.0
C1512 C 0.76895 0.67943 0.1087 0.0
C1513 C 0.81403 0.66899 0.1421 0.0
C1514 C 0.75652 0.70264 0.10309 0.0
C1515 C 0.7568 0.71211 0.07843 0.0
C1516 C 0.7689 0.69812 0.05893 0.0
C1517 C 0.78197 0.67531 0.06488 0.0
C1518 C 0.78203 0.66613 0.08947 0.0
H1519 H 0.82619 0.66877 0.15922 0.0
H1520 H 0.82342 0.65637 0.12787 0.0
H1521 H 0.81307 0.68859 0.13446 0.0
H1522 H 0.74607 0.71306 0.11761 0.0
H1523 H 0.7465 0.72968 0.07445 0.0
H1524 H 0.94625 0.5693 0.43165 0.0
H1525 H 0.92667 0.54975 0.39536 0.0
H1526 H 0.94013 0.47553 0.42757 0.0
H1527 H 0.95903 0.49531 0.46477 0.0
H1528 H 0.94024 0.51451 0.35924 0.0
H1529 H 0.86306 0.47857 0.42178 0.0
H1530 H 0.88668 0.49987 0.43363 0.0
H1531 H 0.8953 0.46731 0.42696 0.0
C1532 C 0.94526 0.54878 0.43106 0.0
C1533 C 0.95385 0.53389 0.45136 0.0
C1534 C 0.93428 0.53758 0.4101 0.0
C1535 C 0.93163 0.51119 0.40883 0.0
C1536 C 0.94159 0.49599 0.42835 0.0
H1537 H 0.82267 0.48032 0.28511 0.0
H1538 H 0.86389 0.47494 0.30672 0.0
C1539 C 0.95247 0.50731 0.4496 0.0
C1540 C 0.91549 0.50087 0.3885 0.0
H1541 H 0.85376 0.48363 0.37932 0.0
C1542 C 0.92159 0.50694 0.36343 0.0
C1543 C 0.89125 0.49081 0.39404 0.0
C1544 C 0.88349 0.48379 0.42051 0.0
C1545 C 0.90309 0.50602 0.34434 0.0
C1546 C 0.87813 0.49861 0.35058 0.0
C1547 C 0.87295 0.48964 0.37486 0.0
C1548 C 0.85603 0.50447 0.33416 0.0
C1549 C 0.90951 0.51516 0.31827 0.0
C1550 C 0.83867 0.52372 0.34175 0.0
C1551 C 0.81532 0.52692 0.32952 0.0
C1552 C 0.80885 0.51089 0.30945 0.0
C1553 C 0.82716 0.49299 0.30048 0.0
C1554 C 0.85062 0.48974 0.31288 0.0
H1555 H 0.93 0.52 0.31636 0.0
H1556 H 0.90508 0.50023 0.30424 0.0
H1557 H 0.89754 0.53223 0.31373 0.0
H1558 H 0.84266 0.53545 0.35801 0.0
H1559 H 0.80173 0.54103 0.33672 0.0
H1560 H 0.18017 0.52827 0.73046 0.0
H1561 H 0.13672 0.52987 0.71281 0.0
H1562 H 0.16415 0.49005 0.64661 0.0
H1563 H 0.20724 0.48856 0.66368 0.0
H1564 H 0.12174 0.55068 0.65994 0.0
H1565 H 0.10184 0.44921 0.67658 0.0
H1566 H 0.12507 0.46641 0.69463 0.0
H1567 H 0.13311 0.45451 0.66376 0.0
C1568 C 0.1769 0.51976 0.71221 0.0
C1569 C 0.19725 0.50836 0.69846 0.0
C1570 C 0.15212 0.5208 0.70214 0.0
C1571 C 0.14737 0.51006 0.67845 0.0
C1572 C 0.1675 0.49838 0.66496 0.0
H1573 H 0.05811 0.51081 0.55039 0.0
H1574 H 0.08255 0.52602 0.58634 0.0
C1575 C 0.19214 0.49753 0.67481 0.0
C1576 C 0.12153 0.51048 0.66726 0.0
H1577 H 0.07862 0.46954 0.6432 0.0
C1578 C 0.11177 0.53313 0.65677 0.0
C1579 C 0.10844 0.48768 0.66355 0.0
C1580 C 0.11749 0.46308 0.67542 0.0
C1581 C 0.09025 0.5331 0.64091 0.0
C1582 C 0.07869 0.50973 0.63512 0.0
C1583 C 0.08737 0.48753 0.64738 0.0
C1584 C 0.05986 0.5068 0.61442 0.0
C1585 C 0.08066 0.55797 0.63009 0.0
C1586 C 0.03856 0.49142 0.61803 0.0
C1587 C 0.02528 0.48203 0.59738 0.0
C1588 C 0.0324 0.48868 0.57286 0.0
C1589 C 0.05197 0.506 0.56922 0.0
C1590 C 0.06585 0.51478 0.58986 0.0
H1591 H 0.09219 0.56253 0.61318 0.0
H1592 H 0.06022 0.55727 0.62462 0.0
H1593 H 0.08301 0.57366 0.64387 0.0
H1594 H 0.03346 0.48504 0.63672 0.0
H1595 H 0.01025 0.46856 0.6005 0.0
H1596 H 0.57462 0.76659 0.20887 0.0
H1597 H 0.61267 0.76723 0.18184 0.0
H1598 H 0.56705 0.74612 0.1179 0.0
H1599 H 0.52894 0.74597 0.14447 0.0
H1600 H 0.63679 0.73046 0.14902 0.0
H1601 H 0.597 0.81447 0.09807 0.0
H1602 H 0.58355 0.80345 0.12726 0.0
H1603 H 0.57657 0.78755 0.09813 0.0
C1604 C 0.57272 0.76204 0.18906 0.0
C1605 C 0.5487 0.75677 0.17867 0.0
C1606 C 0.59447 0.76224 0.17373 0.0
C1607 C 0.59248 0.75705 0.1479 0.0
C1608 C 0.5688 0.75061 0.13774 0.0
H1609 H 0.71599 0.74711 0.03668 0.0
H1610 H 0.68276 0.73514 0.06657 0.0
C1611 C 0.54705 0.75066 0.15294 0.0
C1612 C 0.61467 0.76031 0.13115 0.0
H1613 H 0.63542 0.79622 0.08234 0.0
C1614 C 0.63663 0.74482 0.13442 0.0
C1615 C 0.61428 0.77923 0.11234 0.0
C1616 C 0.5917 0.79729 0.10882 0.0
C1617 C 0.65839 0.74784 0.11923 0.0
C1618 C 0.6578 0.7666 0.10028 0.0
C1619 C 0.63572 0.78183 0.09692 0.0
C1620 C 0.68015 0.77214 0.08442 0.0
C1621 C 0.68197 0.73148 0.12396 0.0
C1622 C 0.6897 0.79676 0.08465 0.0
C1623 C 0.70809 0.80374 0.06722 0.0
C1624 C 0.71742 0.78618 0.04925 0.0
C1625 C 0.70887 0.76114 0.0499 0.0
C1626 C 0.69014 0.75417 0.06725 0.0
H1627 H 0.68121 0.72194 0.14256 0.0
H1628 H 0.68355 0.71658 0.10917 0.0
H1629 H 0.69949 0.74296 0.12306 0.0
H1630 H 0.68225 0.81088 0.09783 0.0
H1631 H 0.71454 0.82313 0.06751 0.0
H1632 H 0.68126 0.44705 0.18355 0.0
H1633 H 0.63624 0.4444 0.17274 0.0
H1634 H 0.6157 0.4906 0.23728 0.0
H1635 H 0.66103 0.49375 0.24817 0.0
H1636 H 0.59118 0.4284 0.19897 0.0
H1637 H 0.58878 0.53213 0.17714 0.0
H1638 H 0.61884 0.51545 0.18231 0.0
H1639 H 0.59739 0.52151 0.20819 0.0
C1640 C 0.66725 0.45647 0.19566 0.0
C1641 C 0.67483 0.47093 0.21649 0.0
C1642 C 0.64146 0.45476 0.18956 0.0
C1643 C 0.62268 0.46746 0.2041 0.0
C1644 C 0.62995 0.48085 0.2257 0.0
H1645 H 0.50378 0.4973 0.09602 0.0
H1646 H 0.51355 0.49146 0.14078 0.0
C1647 C 0.65586 0.48258 0.23187 0.0
C1648 C 0.59619 0.46863 0.19441 0.0
H1649 H 0.55979 0.50667 0.15637 0.0
C1650 C 0.58369 0.44568 0.19037 0.0
C1651 C 0.58605 0.49127 0.18372 0.0
C1652 C 0.59835 0.51657 0.18791 0.0
C1653 C 0.56343 0.44424 0.17322 0.0
C1654 C 0.55597 0.46618 0.15962 0.0
C1655 C 0.56581 0.48975 0.16657 0.0
C1656 C 0.54459 0.4643 0.13422 0.0
C1657 C 0.55178 0.41884 0.16816 0.0
C1658 C 0.55824 0.45041 0.11576 0.0
C1659 C 0.55316 0.4542 0.09034 0.0
C1660 C 0.53427 0.47194 0.0828 0.0
C1661 C 0.51878 0.48389 0.10127 0.0
C1662 C 0.52418 0.4804 0.12686 0.0
H1663 H 0.55045 0.40772 0.18584 0.0
H1664 H 0.53242 0.42096 0.15978 0.0
H1665 H 0.56427 0.40781 0.15495 0.0
H1666 H 0.57445 0.4383 0.12084 0.0
H1667 H 0.56517 0.4444 0.07657 0.0
H1668 H 0.41403 0.44267 0.02689 0.0
H1669 H 0.40168 0.39874 0.02325 0.0
H1670 H 0.47396 0.37936 0.98786 0.0
H1671 H 0.48664 0.42398 0.99133 0.0
H1672 H 0.43259 0.36011 0.96222 0.0
H1673 H 0.4236 0.336 0.06232 0.0
H1674 H 0.40802 0.36616 0.05701 0.0
H1675 H 0.44203 0.36257 0.05169 0.0
C1676 C 0.42751 0.42914 0.01851 0.0
C1677 C 0.45136 0.43688 0.00945 0.0
C1678 C 0.42051 0.40389 0.01671 0.0
C1679 C 0.43714 0.38559 0.0059 0.0
C1680 C 0.46102 0.3931 0.9967 0.0
H1681 H 0.3316 0.26256 0.01759 0.0
H1682 H 0.37659 0.27532 0.01511 0.0
C1683 C 0.46822 0.41856 0.9987 0.0
C1684 C 0.42789 0.35939 0.00256 0.0
H1685 H 0.39094 0.31774 0.03429 0.0
C1686 C 0.42422 0.35024 0.97802 0.0
C1687 C 0.41785 0.34577 0.02311 0.0
C1688 C 0.42339 0.35302 0.05001 0.0
C1689 C 0.40767 0.33012 0.97342 0.0
C1690 C 0.394 0.31955 0.99378 0.0
C1691 C 0.40077 0.32617 0.01848 0.0
C1692 C 0.36908 0.307 0.99005 0.0
C1693 C 0.40373 0.32156 0.94663 0.0
C1694 C 0.35005 0.31993 0.97618 0.0
C1695 C 0.32466 0.31278 0.97771 0.0
C1696 C 0.31756 0.29262 0.99323 0.0
C1697 C 0.33667 0.27819 0.00549 0.0
C1698 C 0.36232 0.28548 0.00407 0.0
H1699 H 0.42215 0.32145 0.93613 0.0
H1700 H 0.39565 0.30229 0.94577 0.0
H1701 H 0.39053 0.33514 0.937 0.0
H1702 H 0.35436 0.33696 0.96579 0.0
H1703 H 0.31027 0.32407 0.96788 0.0
H1704 H 0.09753 0.20713 0.30784 0.0
H1705 H 0.12907 0.18001 0.28681 0.0
H1706 H 0.08296 0.18 0.21959 0.0
H1707 H 0.05116 0.20809 0.24074 0.0
H1708 H 0.09657 0.13063 0.23957 0.0
H1709 H 0.18179 0.18852 0.22962 0.0
H1710 H 0.16883 0.19326 0.26063 0.0
H1711 H 0.15012 0.20263 0.23359 0.0
C1712 C 0.09416 0.20179 0.28843 0.0
C1713 C 0.07158 0.20945 0.27607 0.0
C1714 C 0.11242 0.18646 0.2763 0.0
C1715 C 0.10857 0.17818 0.25152 0.0
C1716 C 0.08642 0.18638 0.23866 0.0
H1717 H 0.20392 0.0376 0.24634 0.0
H1718 H 0.18081 0.07141 0.22329 0.0
C1719 C 0.0682 0.2023 0.25078 0.0
C1720 C 0.12625 0.1582 0.24134 0.0
H1721 H 0.19004 0.14369 0.2442 0.0
C1722 C 0.11706 0.13345 0.23927 0.0
C1723 C 0.15294 0.16191 0.24061 0.0
C1724 C 0.16391 0.18813 0.24097 0.0
C1725 C 0.13385 0.11223 0.24046 0.0
C1726 C 0.16033 0.11606 0.24367 0.0
C1727 C 0.1697 0.14076 0.24201 0.0
C1728 C 0.17681 0.09629 0.25566 0.0
C1729 C 0.12294 0.08599 0.24144 0.0
C1730 C 0.18261 0.09927 0.28122 0.0
C1731 C 0.19551 0.08008 0.29432 0.0
C1732 C 0.20318 0.05743 0.28216 0.0
C1733 C 0.19824 0.05472 0.25626 0.0
C1734 C 0.18502 0.07403 0.24307 0.0
H1735 H 0.102 0.0862 0.23793 0.0
H1736 H 0.1325 0.0736 0.22713 0.0
H1737 H 0.12663 0.07746 0.26022 0.0
H1738 H 0.17636 0.11624 0.29134 0.0
H1739 H 0.19914 0.0829 0.3142 0.0
H1740 H 0.19468 0.33711 0.94708 0.0
H1741 H 0.19419 0.35492 0.9049 0.0
H1742 H 0.24138 0.29217 0.87801 0.0
H1743 H 0.24173 0.27396 0.92043 0.0
H1744 H 0.26232 0.33902 0.86925 0.0
H1745 H 0.16241 0.34096 0.83668 0.0
H1746 H 0.16414 0.35198 0.8686 0.0
H1747 H 0.17368 0.3197 0.86114 0.0
C1748 C 0.20434 0.32663 0.93209 0.0
C1749 C 0.21857 0.30428 0.93726 0.0
C1750 C 0.20389 0.33677 0.90786 0.0
C1751 C 0.2176 0.32482 0.88819 0.0
C1752 C 0.23052 0.30164 0.89287 0.0
H1753 H 0.26099 0.43449 0.7694 0.0
H1754 H 0.25429 0.39102 0.7847 0.0
C1755 C 0.23071 0.29126 0.91715 0.0
C1756 C 0.22147 0.33886 0.86433 0.0
H1757 H 0.18848 0.37668 0.82308 0.0
C1758 C 0.24631 0.34659 0.85846 0.0
C1759 C 0.20062 0.34852 0.85012 0.0
C1760 C 0.17375 0.33961 0.85431 0.0
C1761 C 0.25048 0.36594 0.84085 0.0
C1762 C 0.22924 0.37757 0.82866 0.0
C1763 C 0.20474 0.36789 0.83257 0.0
C1764 C 0.23123 0.4029 0.81677 0.0
C1765 C 0.27723 0.37552 0.83728 0.0
C1766 C 0.21985 0.42378 0.82921 0.0
C1767 C 0.22372 0.44834 0.82071 0.0
C1768 C 0.23903 0.45276 0.79941 0.0
C1769 C 0.24933 0.43176 0.78601 0.0
C1770 C 0.24557 0.40694 0.79475 0.0
H1771 H 0.29142 0.36532 0.84931 0.0
H1772 H 0.2831 0.37301 0.81731 0.0
H1773 H 0.27772 0.39612 0.84176 0.0
H1774 H 0.2087 0.42114 0.84621 0.0
H1775 H 0.21511 0.46397 0.8313 0.0
H1776 H 0.28781 0.18479 0.92587 0.0
H1777 H 0.31527 0.20023 0.89256 0.0
H1778 H 0.30411 0.27698 0.91981 0.0
H1779 H 0.27683 0.26147 0.95357 0.0
H1780 H 0.30545 0.23468 0.85426 0.0
H1781 H 0.38189 0.26702 0.91897 0.0
H1782 H 0.35545 0.24868 0.92991 0.0
H1783 H 0.35081 0.28186 0.92315 0.0
C1784 C 0.29114 0.20498 0.92489 0.0
C1785 C 0.28024 0.22191 0.94264 0.0
C1786 C 0.30674 0.21378 0.90571 0.0
C1787 C 0.3118 0.2397 0.90379 0.0
C1788 C 0.30068 0.25683 0.92117 0.0
H1789 H 0.4369 0.28636 0.80604 0.0
H1790 H 0.39589 0.29118 0.82803 0.0
C1791 C 0.2851 0.24793 0.94053 0.0
C1792 C 0.32965 0.24805 0.88406 0.0
H1793 H 0.39088 0.26732 0.87579 0.0
C1794 C 0.32398 0.24228 0.85887 0.0
C1795 C 0.3537 0.2581 0.89019 0.0
C1796 C 0.36101 0.26417 0.91701 0.0
C1797 C 0.34236 0.24475 0.83984 0.0
C1798 C 0.36692 0.25314 0.84626 0.0
C1799 C 0.37196 0.2608 0.87106 0.0
C1800 C 0.38866 0.25092 0.82858 0.0
C1801 C 0.33576 0.23742 0.81321 0.0
C1802 C 0.39789 0.22671 0.82131 0.0
C1803 C 0.42122 0.22397 0.80862 0.0
C1804 C 0.43538 0.24543 0.80278 0.0
C1805 C 0.42568 0.26969 0.80921 0.0
C1806 C 0.40246 0.27243 0.82207 0.0
H1807 H 0.31478 0.23849 0.80999 0.0
H1808 H 0.34535 0.24987 0.79942 0.0
H1809 H 0.34242 0.21756 0.80966 0.0
H1810 H 0.38778 0.20985 0.82675 0.0
H1811 H 0.42871 0.20509 0.80429 0.0
H1812 H 0.4319 0.55854 0.94714 0.0
H1813 H 0.4219 0.56147 0.90266 0.0
H1814 H 0.48776 0.51381 0.88467 0.0
H1815 H 0.49798 0.51071 0.92967 0.0
H1816 H 0.44651 0.57491 0.85707 0.0
H1817 H 0.42711 0.47117 0.86197 0.0
H1818 H 0.43302 0.48894 0.89037 0.0
H1819 H 0.45866 0.48233 0.86858 0.0
C1820 C 0.44464 0.54907 0.93377 0.0
C1821 C 0.46528 0.53374 0.942 0.0
C1822 C 0.43898 0.5509 0.90827 0.0
C1823 C 0.45377 0.53742 0.8904 0.0
C1824 C 0.47585 0.524 0.89823 0.0
H1825 H 0.34224 0.50879 0.77245 0.0
H1826 H 0.38703 0.5107 0.78589 0.0
C1827 C 0.48166 0.52228 0.92394 0.0
C1828 C 0.44324 0.53496 0.86469 0.0
H1829 H 0.40312 0.49556 0.83362 0.0
C1830 C 0.4378 0.55735 0.85126 0.0
C1831 C 0.43225 0.51194 0.85678 0.0
C1832 C 0.43793 0.48715 0.87006 0.0
C1833 C 0.41901 0.55799 0.83249 0.0
C1834 C 0.40528 0.53579 0.82734 0.0
C1835 C 0.41341 0.51266 0.838 0.0
C1836 C 0.37933 0.53723 0.81632 0.0
C1837 C 0.41246 0.58291 0.81991 0.0
C1838 C 0.36022 0.55144 0.82903 0.0
C1839 C 0.33473 0.55014 0.8217 0.0
C1840 C 0.32775 0.5346 0.80144 0.0
C1841 C 0.34701 0.52097 0.78814 0.0
C1842 C 0.3726 0.52208 0.79571 0.0
H1843 H 0.42973 0.59465 0.81798 0.0
H1844 H 0.404 0.57995 0.80099 0.0
H1845 H 0.39841 0.59371 0.83172 0.0
H1846 H 0.36486 0.56273 0.84542 0.0
H1847 H 0.32043 0.56096 0.83228 0.0
H1848 H 0.67774 0.6889 0.95633 0.0
H1849 H 0.6343 0.67653 0.96485 0.0
H1850 H 0.62816 0.73276 0.02405 0.0
H1851 H 0.67225 0.74534 0.01531 0.0
H1852 H 0.61924 0.68762 0.04212 0.0
H1853 H 0.56105 0.6956 0.95711 0.0
H1854 H 0.59124 0.68205 0.94752 0.0
H1855 H 0.58977 0.71365 0.96095 0.0
C1856 C 0.66687 0.69933 0.97056 0.0
C1857 C 0.67862 0.71766 0.98559 0.0
C1858 C 0.64179 0.69241 0.97527 0.0
C1859 C 0.62771 0.70374 0.99505 0.0
C1860 C 0.63858 0.72378 0.00862 0.0
H1861 H 0.51209 0.58711 0.01248 0.0
H1862 H 0.5246 0.63184 0.01312 0.0
C1863 C 0.6638 0.73094 0.00367 0.0
C1864 C 0.60456 0.69073 0.00428 0.0
H1865 H 0.55737 0.65412 0.98047 0.0
C1866 C 0.60502 0.68108 0.02891 0.0
C1867 C 0.58531 0.68264 0.98757 0.0
C1868 C 0.58171 0.69436 0.96193 0.0
C1869 C 0.58943 0.66094 0.03588 0.0
C1870 C 0.57348 0.64987 0.0176 0.0
C1871 C 0.5702 0.66202 0.9943 0.0
C1872 C 0.56463 0.62343 0.02026 0.0
C1873 C 0.59157 0.6505 0.06222 0.0
C1874 C 0.58294 0.6039 0.02394 0.0
C1875 C 0.57597 0.57855 0.02339 0.0
C1876 C 0.55047 0.57196 0.01897 0.0
C1877 C 0.53191 0.59153 0.01592 0.0
C1878 C 0.53899 0.61708 0.01633 0.0
H1879 H 0.59515 0.66597 0.07595 0.0
H1880 H 0.57398 0.64054 0.06791 0.0
H1881 H 0.60807 0.63688 0.06312 0.0
H1882 H 0.60295 0.6082 0.02628 0.0
H1883 H 0.59081 0.56408 0.02592 0.0
H1884 H 0.97137 0.81328 0.77181 0.0
H1885 H 0.94139 0.84471 0.79116 0.0
H1886 H 0.90019 0.85005 0.7211 0.0
H1887 H 0.93006 0.81998 0.70175 0.0
H1888 H 0.93135 0.89738 0.76732 0.0
H1889 H 0.84409 0.84129 0.77836 0.0
H1890 H 0.87605 0.82736 0.7798 0.0
H1891 H 0.86124 0.83361 0.74984 0.0
C1892 C 0.95592 0.82121 0.76066 0.0
C1893 C 0.95344 0.8145 0.73512 0.0
C1894 C 0.93871 0.83898 0.77176 0.0
C1895 C 0.91839 0.84948 0.7576 0.0
C1896 C 0.91549 0.84197 0.73248 0.0
H1897 H 0.84391 0.96249 0.69686 0.0
H1898 H 0.87264 0.9331 0.71845 0.0
C1899 C 0.9328 0.82487 0.72137 0.0
C1900 C 0.90123 0.87019 0.76721 0.0
H1901 H 0.83749 0.8856 0.76561 0.0
C1902 C 0.91083 0.89482 0.76811 0.0
C1903 C 0.87449 0.86692 0.76863 0.0
C1904 C 0.86332 0.84082 0.76938 0.0
C1905 C 0.89429 0.91621 0.76686 0.0
C1906 C 0.86765 0.91276 0.76438 0.0
C1907 C 0.85794 0.88829 0.76708 0.0
C1908 C 0.85084 0.9328 0.75313 0.0
C1909 C 0.90563 0.94224 0.76592 0.0
C1910 C 0.82877 0.94243 0.76538 0.0
C1911 C 0.81218 0.95966 0.75298 0.0
C1912 C 0.81707 0.96686 0.72794 0.0
C1913 C 0.83937 0.95732 0.71606 0.0
C1914 C 0.85602 0.94061 0.72848 0.0
H1915 H 0.92313 0.94299 0.7777 0.0
H1916 H 0.91123 0.94649 0.74623 0.0
H1917 H 0.89174 0.95715 0.77243 0.0
H1918 H 0.82429 0.93647 0.78436 0.0
H1919 H 0.79542 0.96681 0.76279 0.0
H1920 H 0.4472 0.20775 0.67289 0.0
H1921 H 0.44436 0.16614 0.65356 0.0
H1922 H 0.49223 0.13389 0.71184 0.0
H1923 H 0.49554 0.17593 0.7313 0.0
H1924 H 0.51132 0.12368 0.66666 0.0
H1925 H 0.40962 0.10031 0.66366 0.0
H1926 H 0.41301 0.13221 0.65283 0.0
H1927 H 0.42158 0.12422 0.68479 0.0
C1928 C 0.45664 0.19177 0.68205 0.0
C1929 C 0.47194 0.19532 0.70345 0.0
C1930 C 0.45473 0.16781 0.67109 0.0
C1931 C 0.46781 0.14672 0.68137 0.0
C1932 C 0.48181 0.14984 0.70367 0.0
H1933 H 0.50808 0.02709 0.56967 0.0
H1934 H 0.49871 0.04187 0.6127 0.0
C1935 C 0.4837 0.17392 0.71475 0.0
C1936 C 0.47015 0.12297 0.66628 0.0
H1937 H 0.43527 0.08651 0.62647 0.0
C1938 C 0.49472 0.11486 0.6585 0.0
C1939 C 0.44854 0.11118 0.65587 0.0
C1940 C 0.42175 0.1173 0.665 0.0
C1941 C 0.49815 0.09754 0.63855 0.0
C1942 C 0.4764 0.08802 0.62622 0.0
C1943 C 0.45192 0.09409 0.63573 0.0
C1944 C 0.47854 0.07617 0.60092 0.0
C1945 C 0.52495 0.09126 0.62945 0.0
C1946 C 0.46937 0.08995 0.58014 0.0
C1947 C 0.47467 0.08159 0.55571 0.0
C1948 C 0.48914 0.05915 0.55149 0.0
C1949 C 0.49686 0.04442 0.57232 0.0
C1950 C 0.49166 0.05291 0.5969 0.0
H1951 H 0.53962 0.10233 0.63951 0.0
H1952 H 0.52919 0.07077 0.63258 0.0
H1953 H 0.52667 0.09499 0.60895 0.0
H1954 H 0.4592 0.10793 0.58281 0.0
H1955 H 0.46825 0.09327 0.54009 0.0
H1956 H 0.49612 0.33388 0.78252 0.0
H1957 H 0.49149 0.37344 0.80691 0.0
H1958 H 0.54198 0.34232 0.86364 0.0
H1959 H 0.54611 0.30278 0.83985 0.0
H1960 H 0.49336 0.35974 0.88182 0.0
H1961 H 0.54103 0.43196 0.82251 0.0
H1962 H 0.51743 0.41218 0.80824 0.0
H1963 H 0.54737 0.39836 0.81823 0.0
C1964 C 0.50673 0.33577 0.79986 0.0
C1965 C 0.52131 0.31516 0.80939 0.0
C1966 C 0.50402 0.35836 0.8138 0.0
C1967 C 0.51624 0.3607 0.83718 0.0
C1968 C 0.53218 0.34078 0.84576 0.0
H1969 H 0.57344 0.4565 0.94089 0.0
H1970 H 0.55934 0.43322 0.90419 0.0
C1971 C 0.53464 0.31825 0.83207 0.0
C1972 C 0.51147 0.38287 0.85394 0.0
H1973 H 0.52874 0.44419 0.8634 0.0
C1974 C 0.50058 0.37842 0.87769 0.0
C1975 C 0.52062 0.4072 0.84827 0.0
C1976 C 0.53238 0.4129 0.823 0.0
C1977 C 0.50069 0.39695 0.89674 0.0
C1978 C 0.5116 0.42074 0.89166 0.0
C1979 C 0.52041 0.42592 0.8672 0.0
C1980 C 0.51893 0.43801 0.9124 0.0
C1981 C 0.49113 0.39011 0.92267 0.0
C1982 C 0.50087 0.449 0.92907 0.0
C1983 C 0.50899 0.46216 0.95052 0.0
C1984 C 0.53522 0.46471 0.95538 0.0
C1985 C 0.55306 0.45474 0.9379 0.0
C1986 C 0.54503 0.44156 0.91673 0.0
H1987 H 0.48617 0.36976 0.92409 0.0
H1988 H 0.5058 0.3942 0.93711 0.0
H1989 H 0.47372 0.40171 0.9272 0.0
H1990 H 0.48059 0.44687 0.92587 0.0
H1991 H 0.49477 0.4698 0.96339 0.0
H1992 H 0.56315 0.8375 0.25074 0.0
H1993 H 0.5699 0.88109 0.26564 0.0
H1994 H 0.50262 0.87626 0.31267 0.0
H1995 H 0.49485 0.83408 0.29613 0.0
H1996 H 0.50902 0.923 0.3027 0.0
H1997 H 0.60449 0.88298 0.33069 0.0
H1998 H 0.5992 0.88665 0.29759 0.0
H1999 H 0.58133 0.86379 0.31519 0.0
C2000 C 0.54922 0.84643 0.26328 0.0
C2001 C 0.52847 0.8327 0.27231 0.0
C2002 C 0.5533 0.87112 0.27217 0.0
C2003 C 0.53749 0.88162 0.29123 0.0
C2004 C 0.51532 0.8687 0.29817 0.0
H2005 H 0.55787 0.92254 0.43383 0.0
H2006 H 0.56114 0.90916 0.39032 0.0
C2007 C 0.51079 0.84453 0.28866 0.0
C2008 C 0.5454 0.90355 0.30702 0.0
H2009 H 0.58972 0.91898 0.35133 0.0
C2010 C 0.52687 0.92243 0.31306 0.0
C2011 C 0.56891 0.90307 0.32037 0.0
C2012 C 0.58958 0.88301 0.31582 0.0
C2013 C 0.52971 0.93855 0.33399 0.0
C2014 C 0.55237 0.93659 0.34849 0.0
C2015 C 0.57227 0.92017 0.34034 0.0
C2016 C 0.55367 0.94656 0.37468 0.0
C2017 C 0.50743 0.95568 0.3417 0.0
C2018 C 0.54936 0.97233 0.38065 0.0
C2019 C 0.54703 0.98008 0.40588 0.0
C2020 C 0.54934 0.9622 0.42549 0.0
C2021 C 0.55572 0.93686 0.41935 0.0
C2022 C 0.55768 0.92914 0.39432 0.0
H2023 H 0.49003 0.95221 0.33037 0.0
H2024 H 0.50263 0.95291 0.36188 0.0
H2025 H 0.51263 0.9758 0.33907 0.0
H2026 H 0.54696 0.98629 0.36589 0.0
H2027 H 0.54234 0.99982 0.40993 0.0
H2028 H 0.43 0.55466 0.08474 0.0
H2029 H 0.44515 0.57353 0.12349 0.0
H2030 H 0.52315 0.55551 0.10196 0.0
H2031 H 0.508 0.53753 0.06229 0.0
H2032 H 0.47208 0.55383 0.1627 0.0
H2033 H 0.52689 0.63049 0.11631 0.0
H2034 H 0.50556 0.61073 0.09876 0.0
H2035 H 0.53606 0.59823 0.10893 0.0
C2036 C 0.45044 0.55474 0.08807 0.0
C2037 C 0.4678 0.54451 0.07028 0.0
C2038 C 0.45906 0.56539 0.11041 0.0
C2039 C 0.4853 0.56605 0.11569 0.0
C2040 C 0.50282 0.55557 0.09817 0.0
H2041 H 0.52276 0.67612 0.23245 0.0
H2042 H 0.53011 0.63449 0.21265 0.0
C2043 C 0.49412 0.54512 0.0755 0.0
C2044 C 0.49353 0.57895 0.13911 0.0
H2045 H 0.5186 0.63466 0.15927 0.0
C2046 C 0.48282 0.57119 0.16208 0.0
C2047 C 0.50786 0.60142 0.13841 0.0
C2048 C 0.51969 0.61091 0.11433 0.0
C2049 C 0.48388 0.58655 0.18369 0.0
C2050 C 0.49607 0.6101 0.18229 0.0
C2051 C 0.5092 0.61654 0.1602 0.0
C2052 C 0.49081 0.63058 0.20089 0.0
C2053 C 0.47055 0.57828 0.20738 0.0
C2054 C 0.4661 0.64157 0.20188 0.0
C2055 C 0.46203 0.6655 0.21273 0.0
C2056 C 0.48258 0.6787 0.22301 0.0
C2057 C 0.50663 0.66634 0.22474 0.0
C2058 C 0.51086 0.64257 0.21336 0.0
H2059 H 0.46941 0.55726 0.20828 0.0
H2060 H 0.48056 0.58522 0.22441 0.0
H2061 H 0.45074 0.58633 0.20758 0.0
H2062 H 0.45042 0.63281 0.1921 0.0
H2063 H 0.44331 0.67461 0.2111 0.0
loop_
_geom_bond_atom_site_label_1
_geom_bond_atom_site_label_2
_geom_bond_distance
_geom_bond_site_symmetry_2
_ccdc_geom_bond_type
O0 Mn1 2.163 1_656 S
O0 C14 1.244 . S
Mn1 O0 2.163 1_454 S
Mn1 O4 2.160 1_545 S
Mn1 O5 2.221 1_544 S
Mn1 O7 2.163 . S
Mn1 O9 2.160 1_445 S
Mn1 O19 2.221 1_455 S
O2 Mn3 2.087 1_556 S
O2 C14 1.256 . S
Mn3 O2 2.087 1_554 S
Mn3 O10 2.089 1_545 S
Mn3 O19 2.290 . S
Mn3 O20 2.251 . S
O4 Mn1 2.160 1_565 S
O4 C15 1.239 . S
O5 Mn1 2.221 1_566 S
O5 Mn6 2.290 . S
O5 C16 1.278 . S
Mn6 O5 2.290 . S
Mn6 O8 2.089 1_556 S
Mn6 O11 2.251 . S
Mn6 O12 2.087 1_565 S
O7 Mn1 2.163 . S
O7 C17 1.244 1_554 S
O8 Mn6 2.089 1_554 S
O8 C15 1.256 . S
O9 Mn1 2.160 1_665 S
O9 C18 1.239 . S
O10 Mn3 2.089 1_565 S
O10 C18 1.256 . S
O11 Mn6 2.251 . S
O11 C16 1.241 . S
O12 Mn6 2.087 1_545 S
O12 C17 1.256 . S
C13 O19 1.278 . S
C13 O20 1.241 . S
C14 O0 1.244 . S
C14 O2 1.256 . S
C15 O4 1.239 . S
C15 O8 1.256 . S
C16 O5 1.278 . S
C16 O11 1.241 . S
C17 O7 1.244 1_556 S
C17 O12 1.256 . S
C18 O9 1.239 . S
C18 O10 1.256 . S
O19 Mn1 2.221 1_655 S
O19 Mn3 2.290 . S
O19 C13 1.278 . S
O20 Mn3 2.251 . S
O20 C13 1.241 . S
O21 Mn22 2.163 . S
O21 C35 1.244 . S
Mn22 O21 2.163 . S
Mn22 O25 2.160 1_455 S
Mn22 O26 2.221 . S
Mn22 O28 2.163 . S
Mn22 O30 2.160 1_455 S
Mn22 O40 2.221 1_455 S
O23 Mn24 2.087 1_455 S
O23 C35 1.256 . S
Mn24 O23 2.087 1_655 S
Mn24 O31 2.089 . S
Mn24 O40 2.290 . S
Mn24 O41 2.251 . S
O25 Mn22 2.160 1_655 S
O25 C36 1.239 . S
O26 Mn22 2.221 . S
O26 Mn27 2.290 . S
O26 C37 1.278 . S
Mn27 O26 2.290 . S
Mn27 O29 2.089 1_455 S
Mn27 O32 2.251 . S
Mn27 O33 2.087 . S
O28 Mn22 2.163 . S
O28 C38 1.244 . S
O29 Mn27 2.089 1_655 S
O29 C36 1.256 . S
O30 Mn22 2.160 1_655 S
O30 C39 1.239 . S
O31 Mn24 2.089 . S
O31 C39 1.256 . S
O32 Mn27 2.251 . S
O32 C37 1.241 . S
O33 Mn27 2.087 . S
O33 C38 1.256 . S
C34 O40 1.278 . S
C34 O41 1.241 . S
C35 O21 1.244 . S
C35 O23 1.256 . S
C36 O25 1.239 . S
C36 O29 1.256 . S
C37 O26 1.278 . S
C37 O32 1.241 . S
C38 O28 1.244 . S
C38 O33 1.256 . S
C39 O30 1.239 . S
C39 O31 1.256 . S
O40 Mn22 2.221 1_655 S
O40 Mn24 2.290 . S
O40 C34 1.278 . S
O41 Mn24 2.251 . S
O41 C34 1.241 . S
O42 Mn43 2.163 . S
O42 C56 1.244 . S
Mn43 O42 2.163 . S
Mn43 O46 2.160 . S
Mn43 O47 2.221 . S
Mn43 O49 2.163 . S
Mn43 O51 2.160 . S
Mn43 O61 2.221 . S
O44 Mn45 2.087 . S
O44 C56 1.256 . S
Mn45 O44 2.087 . S
Mn45 O52 2.089 . S
Mn45 O61 2.290 . S
Mn45 O62 2.251 . S
O46 Mn43 2.160 . S
O46 C57 1.239 . S
O47 Mn43 2.221 . S
O47 Mn48 2.290 . S
O47 C58 1.278 . S
Mn48 O47 2.290 . S
Mn48 O50 2.089 . S
Mn48 O53 2.251 . S
Mn48 O54 2.087 . S
O49 Mn43 2.163 . S
O49 C59 1.244 . S
O50 Mn48 2.089 . S
O50 C57 1.256 . S
O51 Mn43 2.160 . S
O51 C60 1.239 . S
O52 Mn45 2.089 . S
O52 C60 1.256 . S
O53 Mn48 2.251 . S
O53 C58 1.241 . S
O54 Mn48 2.087 . S
O54 C59 1.256 . S
C55 O61 1.278 . S
C55 O62 1.241 . S
C56 O42 1.244 . S
C56 O44 1.256 . S
C57 O46 1.239 . S
C57 O50 1.256 . S
C58 O47 1.278 . S
C58 O53 1.241 . S
C59 O49 1.244 . S
C59 O54 1.256 . S
C60 O51 1.239 . S
C60 O52 1.256 . S
O61 Mn43 2.221 . S
O61 Mn45 2.290 . S
O61 C55 1.278 . S
O62 Mn45 2.251 . S
O62 C55 1.241 . S
O63 Mn64 2.163 1_565 S
O63 C77 1.244 . S
Mn64 O63 2.163 1_545 S
Mn64 O67 2.160 . S
Mn64 O68 2.221 1_545 S
Mn64 O70 2.163 . S
Mn64 O72 2.160 . S
Mn64 O82 2.221 . S
O65 Mn66 2.087 1_565 S
O65 C77 1.256 . S
Mn66 O65 2.087 1_545 S
Mn66 O73 2.089 . S
Mn66 O82 2.290 . S
Mn66 O83 2.251 . S
O67 Mn64 2.160 . S
O67 C78 1.239 . S
O68 Mn64 2.221 1_565 S
O68 Mn69 2.290 . S
O68 C79 1.278 . S
Mn69 O68 2.290 . S
Mn69 O71 2.089 1_565 S
Mn69 O74 2.251 . S
Mn69 O75 2.087 . S
O70 Mn64 2.163 . S
O70 C80 1.244 1_545 S
O71 Mn69 2.089 1_545 S
O71 C78 1.256 . S
O72 Mn64 2.160 . S
O72 C81 1.239 . S
O73 Mn66 2.089 . S
O73 C81 1.256 . S
O74 Mn69 2.251 . S
O74 C79 1.241 . S
O75 Mn69 2.087 . S
O75 C80 1.256 . S
C76 O82 1.278 . S
C76 O83 1.241 . S
C77 O63 1.244 . S
C77 O65 1.256 . S
C78 O67 1.239 . S
C78 O71 1.256 . S
C79 O68 1.278 . S
C79 O74 1.241 . S
C80 O70 1.244 1_565 S
C80 O75 1.256 . S
C81 O72 1.239 . S
C81 O73 1.256 . S
O82 Mn64 2.221 . S
O82 Mn66 2.290 . S
O82 C76 1.278 . S
O83 Mn66 2.251 . S
O83 C76 1.241 . S
O84 Mn85 2.163 . S
O84 C98 1.244 . S
Mn85 O84 2.163 . S
Mn85 O88 2.160 . S
Mn85 O89 2.221 . S
Mn85 O91 2.163 . S
Mn85 O93 2.160 . S
Mn85 O103 2.221 . S
O86 Mn87 2.087 . S
O86 C98 1.256 . S
Mn87 O86 2.087 . S
Mn87 O94 2.089 . S
Mn87 O103 2.290 . S
Mn87 O104 2.251 . S
O88 Mn85 2.160 . S
O88 C99 1.239 . S
O89 Mn85 2.221 . S
O89 Mn90 2.290 . S
O89 C100 1.278 . S
Mn90 O89 2.290 . S
Mn90 O92 2.089 . S
Mn90 O95 2.251 . S
Mn90 O96 2.087 . S
O91 Mn85 2.163 . S
O91 C101 1.244 . S
O92 Mn90 2.089 . S
O92 C99 1.256 . S
O93 Mn85 2.160 . S
O93 C102 1.239 . S
O94 Mn87 2.089 . S
O94 C102 1.256 . S
O95 Mn90 2.251 . S
O95 C100 1.241 . S
O96 Mn90 2.087 . S
O96 C101 1.256 . S
C97 O103 1.278 . S
C97 O104 1.241 . S
C98 O84 1.244 . S
C98 O86 1.256 . S
C99 O88 1.239 . S
C99 O92 1.256 . S
C100 O89 1.278 . S
C100 O95 1.241 . S
C101 O91 1.244 . S
C101 O96 1.256 . S
C102 O93 1.239 . S
C102 O94 1.256 . S
O103 Mn85 2.221 . S
O103 Mn87 2.290 . S
O103 C97 1.278 . S
O104 Mn87 2.251 . S
O104 C97 1.241 . S
O105 Mn106 2.163 . S
O105 C119 1.244 . S
Mn106 O105 2.163 . S
Mn106 O109 2.160 . S
Mn106 O110 2.221 . S
Mn106 O112 2.163 . S
Mn106 O114 2.160 . S
Mn106 O124 2.221 . S
O107 Mn108 2.087 . S
O107 C119 1.256 . S
Mn108 O107 2.087 . S
Mn108 O115 2.089 . S
Mn108 O124 2.290 . S
Mn108 O125 2.251 . S
O109 Mn106 2.160 . S
O109 C120 1.239 . S
O110 Mn106 2.221 . S
O110 Mn111 2.290 . S
O110 C121 1.278 . S
Mn111 O110 2.290 . S
Mn111 O113 2.089 . S
Mn111 O116 2.251 . S
Mn111 O117 2.087 . S
O112 Mn106 2.163 . S
O112 C122 1.244 . S
O113 Mn111 2.089 . S
O113 C120 1.256 . S
O114 Mn106 2.160 . S
O114 C123 1.239 . S
O115 Mn108 2.089 . S
O115 C123 1.256 . S
O116 Mn111 2.251 . S
O116 C121 1.241 . S
O117 Mn111 2.087 . S
O117 C122 1.256 . S
C118 O124 1.278 . S
C118 O125 1.241 . S
C119 O105 1.244 . S
C119 O107 1.256 . S
C120 O109 1.239 . S
C120 O113 1.256 . S
C121 O110 1.278 . S
C121 O116 1.241 . S
C122 O112 1.244 . S
C122 O117 1.256 . S
C123 O114 1.239 . S
C123 O115 1.256 . S
O124 Mn106 2.221 . S
O124 Mn108 2.290 . S
O124 C118 1.278 . S
O125 Mn108 2.251 . S
O125 C118 1.241 . S
O126 Mn127 2.163 . S
O126 C140 1.244 . S
Mn127 O126 2.163 . S
Mn127 O130 2.160 . S
Mn127 O131 2.221 . S
Mn127 O133 2.163 . S
Mn127 O135 2.160 . S
Mn127 O145 2.221 . S
O128 Mn129 2.087 . S
O128 C140 1.256 . S
Mn129 O128 2.087 . S
Mn129 O136 2.089 . S
Mn129 O145 2.290 . S
Mn129 O146 2.251 . S
O130 Mn127 2.160 . S
O130 C141 1.239 . S
O131 Mn127 2.221 . S
O131 Mn132 2.290 . S
O131 C142 1.278 . S
Mn132 O131 2.290 . S
Mn132 O134 2.089 . S
Mn132 O137 2.251 . S
Mn132 O138 2.087 . S
O133 Mn127 2.163 . S
O133 C143 1.244 . S
O134 Mn132 2.089 . S
O134 C141 1.256 . S
O135 Mn127 2.160 . S
O135 C144 1.239 . S
O136 Mn129 2.089 . S
O136 C144 1.256 . S
O137 Mn132 2.251 . S
O137 C142 1.241 . S
O138 Mn132 2.087 . S
O138 C143 1.256 . S
C139 O145 1.278 . S
C139 O146 1.241 . S
C140 O126 1.244 . S
C140 O128 1.256 . S
C141 O130 1.239 . S
C141 O134 1.256 . S
C142 O131 1.278 . S
C142 O137 1.241 . S
C143 O133 1.244 . S
C143 O138 1.256 . S
C144 O135 1.239 . S
C144 O136 1.256 . S
O145 Mn127 2.221 . S
O145 Mn129 2.290 . S
O145 C139 1.278 . S
O146 Mn129 2.251 . S
O146 C139 1.241 . S
O147 Mn148 2.166 . S
O147 C161 1.238 1_455 S
Mn148 O147 2.166 . S
Mn148 O151 2.160 . S
Mn148 O152 2.221 . S
Mn148 O154 2.163 1_455 S
Mn148 O156 2.160 . S
Mn148 O166 2.221 1_455 S
O149 Mn150 2.087 . S
O149 C161 1.256 . S
Mn150 O149 2.087 . S
Mn150 O157 2.089 1_655 S
Mn150 O166 2.290 . S
Mn150 O167 2.251 . S
O151 Mn148 2.160 . S
O151 C162 1.239 . S
O152 Mn148 2.221 . S
O152 Mn153 2.290 . S
O152 C163 1.278 . S
Mn153 O152 2.290 . S
Mn153 O155 2.089 . S
Mn153 O158 2.251 . S
Mn153 O159 2.087 1_455 S
O154 Mn148 2.163 1_655 S
O154 C164 1.244 . S
O155 Mn153 2.089 . S
O155 C162 1.256 . S
O156 Mn148 2.160 . S
O156 C165 1.239 . S
O157 Mn150 2.089 1_455 S
O157 C165 1.256 . S
O158 Mn153 2.251 . S
O158 C163 1.241 . S
O159 Mn153 2.087 1_655 S
O159 C164 1.256 . S
C160 O166 1.278 . S
C160 O167 1.241 . S
C161 O147 1.238 1_655 S
C161 O149 1.256 . S
C162 O151 1.239 . S
C162 O155 1.256 . S
C163 O152 1.278 . S
C163 O158 1.241 . S
C164 O154 1.244 . S
C164 O159 1.256 . S
C165 O156 1.239 . S
C165 O157 1.256 . S
O166 Mn148 2.221 1_655 S
O166 Mn150 2.290 . S
O166 C160 1.278 . S
O167 Mn150 2.251 . S
O167 C160 1.241 . S
O168 Mn169 2.163 . S
O168 C182 1.244 . S
Mn169 O168 2.163 . S
Mn169 O172 2.160 1_554 S
Mn169 O173 2.221 . S
Mn169 O175 2.163 . S
Mn169 O177 2.160 1_554 S
Mn169 O187 2.221 1_554 S
O170 Mn171 2.087 1_554 S
O170 C182 1.256 . S
Mn171 O170 2.087 1_556 S
Mn171 O178 2.089 . S
Mn171 O187 2.290 . S
Mn171 O188 2.251 . S
O172 Mn169 2.160 1_556 S
O172 C183 1.239 . S
O173 Mn169 2.221 . S
O173 Mn174 2.290 . S
O173 C184 1.278 . S
Mn174 O173 2.290 . S
Mn174 O176 2.089 1_554 S
Mn174 O179 2.251 . S
Mn174 O180 2.087 . S
O175 Mn169 2.163 . S
O175 C185 1.244 . S
O176 Mn174 2.089 1_556 S
O176 C183 1.256 . S
O177 Mn169 2.160 1_556 S
O177 C186 1.239 . S
O178 Mn171 2.089 . S
O178 C186 1.256 . S
O179 Mn174 2.251 . S
O179 C184 1.241 . S
O180 Mn174 2.087 . S
O180 C185 1.256 . S
C181 O187 1.278 . S
C181 O188 1.241 . S
C182 O168 1.244 . S
C182 O170 1.256 . S
C183 O172 1.239 . S
C183 O176 1.256 . S
C184 O173 1.278 . S
C184 O179 1.241 . S
C185 O175 1.244 . S
C185 O180 1.256 . S
C186 O177 1.239 . S
C186 O178 1.256 . S
O187 Mn169 2.221 1_556 S
O187 Mn171 2.290 . S
O187 C181 1.278 . S
O188 Mn171 2.251 . S
O188 C181 1.241 . S
O189 Mn190 2.163 1_565 S
O189 C203 1.244 . S
Mn190 O189 2.163 1_545 S
Mn190 O193 2.160 . S
Mn190 O194 2.221 1_545 S
Mn190 O196 2.163 . S
Mn190 O198 2.160 . S
Mn190 O208 2.221 . S
O191 Mn192 2.087 1_565 S
O191 C203 1.256 . S
Mn192 O191 2.087 1_545 S
Mn192 O199 2.089 . S
Mn192 O208 2.290 . S
Mn192 O209 2.251 . S
O193 Mn190 2.160 . S
O193 C204 1.239 . S
O194 Mn190 2.221 1_565 S
O194 Mn195 2.290 . S
O194 C205 1.278 . S
Mn195 O194 2.290 . S
Mn195 O197 2.089 1_565 S
Mn195 O200 2.251 . S
Mn195 O201 2.087 . S
O196 Mn190 2.163 . S
O196 C206 1.244 1_545 S
O197 Mn195 2.089 1_545 S
O197 C204 1.256 . S
O198 Mn190 2.160 . S
O198 C207 1.239 . S
O199 Mn192 2.089 . S
O199 C207 1.256 . S
O200 Mn195 2.251 . S
O200 C205 1.241 . S
O201 Mn195 2.087 . S
O201 C206 1.256 . S
C202 O208 1.278 . S
C202 O209 1.241 . S
C203 O189 1.244 . S
C203 O191 1.256 . S
C204 O193 1.239 . S
C204 O197 1.256 . S
C205 O194 1.278 . S
C205 O200 1.241 . S
C206 O196 1.244 1_565 S
C206 O201 1.256 . S
C207 O198 1.239 . S
C207 O199 1.256 . S
O208 Mn190 2.221 . S
O208 Mn192 2.290 . S
O208 C202 1.278 . S
O209 Mn192 2.251 . S
O209 C202 1.241 . S
O210 Mn211 2.163 . S
O210 C224 1.244 . S
Mn211 O210 2.163 . S
Mn211 O214 2.160 . S
Mn211 O215 2.221 . S
Mn211 O217 2.163 . S
Mn211 O219 2.160 . S
Mn211 O229 2.221 . S
O212 Mn213 2.087 . S
O212 C224 1.256 . S
Mn213 O212 2.087 . S
Mn213 O220 2.089 . S
Mn213 O229 2.290 . S
Mn213 O230 2.251 . S
O214 Mn211 2.160 . S
O214 C225 1.239 . S
O215 Mn211 2.221 . S
O215 Mn216 2.290 . S
O215 C226 1.278 . S
Mn216 O215 2.290 . S
Mn216 O218 2.089 . S
Mn216 O221 2.251 . S
Mn216 O222 2.087 . S
O217 Mn211 2.163 . S
O217 C227 1.244 . S
O218 Mn216 2.089 . S
O218 C225 1.256 . S
O219 Mn211 2.160 . S
O219 C228 1.239 . S
O220 Mn213 2.089 . S
O220 C228 1.256 . S
O221 Mn216 2.251 . S
O221 C226 1.241 . S
O222 Mn216 2.087 . S
O222 C227 1.256 . S
C223 O229 1.278 . S
C223 O230 1.241 . S
C224 O210 1.244 . S
C224 O212 1.256 . S
C225 O214 1.239 . S
C225 O218 1.256 . S
C226 O215 1.278 . S
C226 O221 1.241 . S
C227 O217 1.244 . S
C227 O222 1.256 . S
C228 O219 1.239 . S
C228 O220 1.256 . S
O229 Mn211 2.221 . S
O229 Mn213 2.290 . S
O229 C223 1.278 . S
O230 Mn213 2.251 . S
O230 C223 1.241 . S
O231 Mn232 2.163 . S
O231 C245 1.244 . S
Mn232 O231 2.163 . S
Mn232 O235 2.160 1_455 S
Mn232 O236 2.221 . S
Mn232 O238 2.163 . S
Mn232 O240 2.160 1_455 S
Mn232 O250 2.221 1_455 S
O233 Mn234 2.087 1_455 S
O233 C245 1.256 . S
Mn234 O233 2.087 1_655 S
Mn234 O241 2.089 . S
Mn234 O250 2.290 . S
Mn234 O251 2.251 . S
O235 Mn232 2.160 1_655 S
O235 C246 1.239 . S
O236 Mn232 2.221 . S
O236 Mn237 2.290 . S
O236 C247 1.278 . S
Mn237 O236 2.290 . S
Mn237 O239 2.089 1_455 S
Mn237 O242 2.251 . S
Mn237 O243 2.087 . S
O238 Mn232 2.163 . S
O238 C248 1.244 . S
O239 Mn237 2.089 1_655 S
O239 C246 1.256 . S
O240 Mn232 2.160 1_655 S
O240 C249 1.239 . S
O241 Mn234 2.089 . S
O241 C249 1.256 . S
O242 Mn237 2.251 . S
O242 C247 1.241 . S
O243 Mn237 2.087 . S
O243 C248 1.256 . S
C244 O250 1.278 . S
C244 O251 1.241 . S
C245 O231 1.244 . S
C245 O233 1.256 . S
C246 O235 1.239 . S
C246 O239 1.256 . S
C247 O236 1.278 . S
C247 O242 1.241 . S
C248 O238 1.244 . S
C248 O243 1.256 . S
C249 O240 1.239 . S
C249 O241 1.256 . S
O250 Mn232 2.221 1_655 S
O250 Mn234 2.290 . S
O250 C244 1.278 . S
O251 Mn234 2.251 . S
O251 C244 1.241 . S
O252 Mn253 2.163 . S
O252 C266 1.244 . S
Mn253 O252 2.163 . S
Mn253 O256 2.160 . S
Mn253 O257 2.221 . S
Mn253 O259 2.163 . S
Mn253 O261 2.160 . S
Mn253 O271 2.221 . S
O254 Mn255 2.087 . S
O254 C266 1.256 . S
Mn255 O254 2.087 . S
Mn255 O262 2.089 . S
Mn255 O271 2.290 . S
Mn255 O272 2.251 . S
O256 Mn253 2.160 . S
O256 C267 1.239 . S
O257 Mn253 2.221 . S
O257 Mn258 2.290 . S
O257 C268 1.278 . S
Mn258 O257 2.290 . S
Mn258 O260 2.089 . S
Mn258 O263 2.251 . S
Mn258 O264 2.087 . S
O259 Mn253 2.163 . S
O259 C269 1.244 . S
O260 Mn258 2.089 . S
O260 C267 1.256 . S
O261 Mn253 2.160 . S
O261 C270 1.239 . S
O262 Mn255 2.089 . S
O262 C270 1.256 . S
O263 Mn258 2.251 . S
O263 C268 1.241 . S
O264 Mn258 2.087 . S
O264 C269 1.256 . S
C265 O271 1.278 . S
C265 O272 1.241 . S
C266 O252 1.244 . S
C266 O254 1.256 . S
C267 O256 1.239 . S
C267 O260 1.256 . S
C268 O257 1.278 . S
C268 O263 1.241 . S
C269 O259 1.244 . S
C269 O264 1.256 . S
C270 O261 1.239 . S
C270 O262 1.256 . S
O271 Mn253 2.221 . S
O271 Mn255 2.290 . S
O271 C265 1.278 . S
O272 Mn255 2.251 . S
O272 C265 1.241 . S
O273 Mn274 2.163 . S
O273 C287 1.244 . S
Mn274 O273 2.163 . S
Mn274 O277 2.160 1_554 S
Mn274 O278 2.221 . S
Mn274 O280 2.163 . S
Mn274 O282 2.160 1_554 S
Mn274 O292 2.221 1_554 S
O275 Mn276 2.087 1_554 S
O275 C287 1.256 . S
Mn276 O275 2.087 1_556 S
Mn276 O283 2.089 . S
Mn276 O292 2.290 . S
Mn276 O293 2.251 . S
O277 Mn274 2.160 1_556 S
O277 C288 1.239 . S
O278 Mn274 2.221 . S
O278 Mn279 2.290 . S
O278 C289 1.278 . S
Mn279 O278 2.290 . S
Mn279 O281 2.089 1_554 S
Mn279 O284 2.251 . S
Mn279 O285 2.087 . S
O280 Mn274 2.163 . S
O280 C290 1.244 . S
O281 Mn279 2.089 1_556 S
O281 C288 1.256 . S
O282 Mn274 2.160 1_556 S
O282 C291 1.239 . S
O283 Mn276 2.089 . S
O283 C291 1.256 . S
O284 Mn279 2.251 . S
O284 C289 1.241 . S
O285 Mn279 2.087 . S
O285 C290 1.256 . S
C286 O292 1.278 . S
C286 O293 1.241 . S
C287 O273 1.244 . S
C287 O275 1.256 . S
C288 O277 1.239 . S
C288 O281 1.256 . S
C289 O278 1.278 . S
C289 O284 1.241 . S
C290 O280 1.244 . S
C290 O285 1.256 . S
C291 O282 1.239 . S
C291 O283 1.256 . S
O292 Mn274 2.221 1_556 S
O292 Mn276 2.290 . S
O292 C286 1.278 . S
O293 Mn276 2.251 . S
O293 C286 1.241 . S
O294 Mn295 2.163 . S
O294 C308 1.244 . S
Mn295 O294 2.163 . S
Mn295 O298 2.160 1_545 S
Mn295 O299 2.221 1_545 S
Mn295 O301 2.163 1_545 S
Mn295 O303 2.160 . S
Mn295 O313 2.221 . S
O296 Mn297 2.087 . S
O296 C308 1.256 . S
Mn297 O296 2.087 . S
Mn297 O304 2.089 . S
Mn297 O313 2.290 . S
Mn297 O314 2.251 . S
O298 Mn295 2.160 1_565 S
O298 C309 1.239 . S
O299 Mn295 2.221 1_565 S
O299 Mn300 2.290 . S
O299 C310 1.278 . S
Mn300 O299 2.290 . S
Mn300 O302 2.089 . S
Mn300 O305 2.251 . S
Mn300 O306 2.087 . S
O301 Mn295 2.163 1_565 S
O301 C311 1.244 . S
O302 Mn300 2.089 . S
O302 C309 1.256 . S
O303 Mn295 2.160 . S
O303 C312 1.239 . S
O304 Mn297 2.089 . S
O304 C312 1.256 . S
O305 Mn300 2.251 . S
O305 C310 1.241 . S
O306 Mn300 2.087 . S
O306 C311 1.256 . S
C307 O313 1.278 . S
C307 O314 1.241 . S
C308 O294 1.244 . S
C308 O296 1.256 . S
C309 O298 1.239 . S
C309 O302 1.256 . S
C310 O299 1.278 . S
C310 O305 1.241 . S
C311 O301 1.244 . S
C311 O306 1.256 . S
C312 O303 1.239 . S
C312 O304 1.256 . S
O313 Mn295 2.221 . S
O313 Mn297 2.290 . S
O313 C307 1.278 . S
O314 Mn297 2.251 . S
O314 C307 1.241 . S
O315 Mn316 2.163 1_556 S
O315 C329 1.244 . S
Mn316 O315 2.163 1_554 S
Mn316 O319 2.160 . S
Mn316 O320 2.221 1_554 S
Mn316 O322 2.163 . S
Mn316 O324 2.160 . S
Mn316 O334 2.221 . S
O317 Mn318 2.087 1_556 S
O317 C329 1.256 . S
Mn318 O317 2.087 1_554 S
Mn318 O325 2.089 . S
Mn318 O334 2.290 . S
Mn318 O335 2.251 . S
O319 Mn316 2.160 . S
O319 C330 1.239 . S
O320 Mn316 2.221 1_556 S
O320 Mn321 2.290 . S
O320 C331 1.278 . S
Mn321 O320 2.290 . S
Mn321 O323 2.089 1_556 S
Mn321 O326 2.251 . S
Mn321 O327 2.087 . S
O322 Mn316 2.163 . S
O322 C332 1.244 1_554 S
O323 Mn321 2.089 1_554 S
O323 C330 1.256 . S
O324 Mn316 2.160 . S
O324 C333 1.239 . S
O325 Mn318 2.089 . S
O325 C333 1.256 . S
O326 Mn321 2.251 . S
O326 C331 1.241 . S
O327 Mn321 2.087 . S
O327 C332 1.256 . S
C328 O334 1.278 . S
C328 O335 1.241 . S
C329 O315 1.244 . S
C329 O317 1.256 . S
C330 O319 1.239 . S
C330 O323 1.256 . S
C331 O320 1.278 . S
C331 O326 1.241 . S
C332 O322 1.244 1_556 S
C332 O327 1.256 . S
C333 O324 1.239 . S
C333 O325 1.256 . S
O334 Mn316 2.221 . S
O334 Mn318 2.290 . S
O334 C328 1.278 . S
O335 Mn318 2.251 . S
O335 C328 1.241 . S
H336 C344 0.929 . S
H337 C346 0.930 . S
H338 C348 0.930 . S
H339 C351 0.929 . S
H340 C354 0.930 . S
H341 C356 0.960 . S
H342 C356 0.960 . S
H343 C356 0.960 . S
C344 H336 0.929 . S
C344 C345 1.377 . S
C344 C346 1.384 . S
C345 C344 1.377 . S
C345 C351 1.390 1_655 S
C346 H337 0.930 . S
C346 C344 1.384 . S
C346 C347 1.372 . S
C347 C346 1.372 . S
C347 C348 1.400 1_655 S
C347 C352 1.490 . S
C348 H338 0.930 . S
C348 C347 1.400 1_455 S
C348 C351 1.386 . S
H349 C365 0.930 . S
H350 C366 0.931 . S
C351 H339 0.929 . S
C351 C345 1.390 1_455 S
C351 C348 1.386 . S
C352 C347 1.490 . S
C352 C354 1.395 . S
C352 C355 1.403 1_655 S
H353 C359 0.930 . S
C354 H340 0.930 . S
C354 C352 1.395 . S
C354 C357 1.403 . S
C355 C352 1.403 1_455 S
C355 C356 1.524 . S
C355 C359 1.400 . S
C356 H341 0.960 . S
C356 H342 0.960 . S
C356 H343 0.960 . S
C356 C355 1.524 . S
C357 C354 1.403 . S
C357 C358 1.392 . S
C357 C361 1.495 . S
C358 C357 1.392 . S
C358 C359 1.385 1_655 S
C358 C360 1.478 . S
C359 H353 0.930 . S
C359 C355 1.400 . S
C359 C358 1.385 1_455 S
C360 C358 1.478 . S
C360 C362 1.381 . S
C360 C366 1.383 1_655 S
C361 C357 1.495 . S
C361 H367 0.959 . S
C361 H368 0.961 . S
C361 H369 0.960 . S
C362 C360 1.381 . S
C362 C363 1.394 . S
C362 H370 0.930 . S
C363 C362 1.394 . S
C363 C364 1.383 . S
C363 H371 0.929 . S
C364 C363 1.383 . S
C364 C365 1.377 1_655 S
C365 H349 0.930 . S
C365 C364 1.377 1_455 S
C365 C366 1.379 . S
C366 H350 0.931 . S
C366 C360 1.383 1_455 S
C366 C365 1.379 . S
H367 C361 0.959 . S
H368 C361 0.961 . S
H369 C361 0.960 . S
H370 C362 0.930 . S
H371 C363 0.929 . S
H372 C380 0.929 . S
H373 C382 0.930 . S
H374 C384 0.930 . S
H375 C387 0.929 . S
H376 C390 0.930 . S
H377 C392 0.960 . S
H378 C392 0.960 . S
H379 C392 0.960 . S
C380 H372 0.929 . S
C380 C381 1.377 . S
C380 C382 1.384 . S
C381 C380 1.377 . S
C381 C387 1.390 . S
C382 H373 0.930 . S
C382 C380 1.384 . S
C382 C383 1.372 . S
C383 C382 1.372 . S
C383 C384 1.400 . S
C383 C388 1.490 . S
C384 H374 0.930 . S
C384 C383 1.400 . S
C384 C387 1.386 . S
H385 C401 0.930 . S
H386 C402 0.931 . S
C387 H375 0.929 . S
C387 C381 1.390 . S
C387 C384 1.386 . S
C388 C383 1.490 . S
C388 C390 1.395 . S
C388 C391 1.403 . S
H389 C395 0.930 . S
C390 H376 0.930 . S
C390 C388 1.395 . S
C390 C393 1.403 . S
C391 C388 1.403 . S
C391 C392 1.524 . S
C391 C395 1.400 . S
C392 H377 0.960 . S
C392 H378 0.960 . S
C392 H379 0.960 . S
C392 C391 1.524 . S
C393 C390 1.403 . S
C393 C394 1.392 . S
C393 C397 1.495 . S
C394 C393 1.392 . S
C394 C395 1.385 . S
C394 C396 1.478 . S
C395 H389 0.930 . S
C395 C391 1.400 . S
C395 C394 1.385 . S
C396 C394 1.478 . S
C396 C398 1.381 . S
C396 C402 1.383 . S
C397 C393 1.495 . S
C397 H403 0.959 . S
C397 H404 0.961 . S
C397 H405 0.960 . S
C398 C396 1.381 . S
C398 C399 1.394 . S
C398 H406 0.930 . S
C399 C398 1.394 . S
C399 C400 1.383 . S
C399 H407 0.929 . S
C400 C399 1.383 . S
C400 C401 1.377 . S
C401 H385 0.930 . S
C401 C400 1.377 . S
C401 C402 1.379 . S
C402 H386 0.931 . S
C402 C396 1.383 . S
C402 C401 1.379 . S
H403 C397 0.959 . S
H404 C397 0.961 . S
H405 C397 0.960 . S
H406 C398 0.930 . S
H407 C399 0.929 . S
H408 C416 0.929 . S
H409 C418 0.930 . S
H410 C420 0.930 . S
H411 C423 0.929 . S
H412 C426 0.930 . S
H413 C428 0.960 . S
H414 C428 0.960 . S
H415 C428 0.960 . S
C416 H408 0.929 . S
C416 C417 1.377 . S
C416 C418 1.384 . S
C417 C416 1.377 . S
C417 C423 1.390 . S
C418 H409 0.930 . S
C418 C416 1.384 . S
C418 C419 1.372 . S
C419 C418 1.372 . S
C419 C420 1.400 . S
C419 C424 1.490 . S
C420 H410 0.930 . S
C420 C419 1.400 . S
C420 C423 1.386 . S
H421 C437 0.930 . S
H422 C438 0.931 . S
C423 H411 0.929 . S
C423 C417 1.390 . S
C423 C420 1.386 . S
C424 C419 1.490 . S
C424 C426 1.395 . S
C424 C427 1.403 . S
H425 C431 0.930 . S
C426 H412 0.930 . S
C426 C424 1.395 . S
C426 C429 1.403 . S
C427 C424 1.403 . S
C427 C428 1.524 . S
C427 C431 1.400 . S
C428 H413 0.960 . S
C428 H414 0.960 . S
C428 H415 0.960 . S
C428 C427 1.524 . S
C429 C426 1.403 . S
C429 C430 1.392 . S
C429 C433 1.495 . S
C430 C429 1.392 . S
C430 C431 1.385 . S
C430 C432 1.478 . S
C431 H425 0.930 . S
C431 C427 1.400 . S
C431 C430 1.385 . S
C432 C430 1.478 . S
C432 C434 1.381 . S
C432 C438 1.383 . S
C433 C429 1.495 . S
C433 H439 0.959 . S
C433 H440 0.961 . S
C433 H441 0.960 . S
C434 C432 1.381 . S
C434 C435 1.394 . S
C434 H442 0.930 . S
C435 C434 1.394 . S
C435 C436 1.383 . S
C435 H443 0.929 . S
C436 C435 1.383 . S
C436 C437 1.377 . S
C437 H421 0.930 . S
C437 C436 1.377 . S
C437 C438 1.379 . S
C438 H422 0.931 . S
C438 C432 1.383 . S
C438 C437 1.379 . S
H439 C433 0.959 . S
H440 C433 0.961 . S
H441 C433 0.960 . S
H442 C434 0.930 . S
H443 C435 0.929 . S
H444 C452 0.929 . S
H445 C454 0.930 . S
H446 C456 0.930 . S
H447 C459 0.929 . S
H448 C462 0.930 . S
H449 C464 0.960 . S
H450 C464 0.960 . S
H451 C464 0.960 . S
C452 H444 0.929 . S
C452 C453 1.377 . S
C452 C454 1.384 . S
C453 C452 1.377 . S
C453 C459 1.390 . S
C454 H445 0.930 . S
C454 C452 1.384 . S
C454 C455 1.372 . S
C455 C454 1.372 . S
C455 C456 1.400 . S
C455 C460 1.490 . S
C456 H446 0.930 . S
C456 C455 1.400 . S
C456 C459 1.386 . S
H457 C473 0.930 . S
H458 C474 0.931 . S
C459 H447 0.929 . S
C459 C453 1.390 . S
C459 C456 1.386 . S
C460 C455 1.490 . S
C460 C462 1.395 1_545 S
C460 C463 1.403 . S
H461 C467 0.930 . S
C462 H448 0.930 . S
C462 C460 1.395 1_565 S
C462 C465 1.403 . S
C463 C460 1.403 . S
C463 C464 1.524 . S
C463 C467 1.400 . S
C464 H449 0.960 . S
C464 H450 0.960 . S
C464 H451 0.960 . S
C464 C463 1.524 . S
C465 C462 1.403 . S
C465 C466 1.392 1_565 S
C465 C469 1.495 . S
C466 C465 1.392 1_545 S
C466 C467 1.385 . S
C466 C468 1.478 . S
C467 H461 0.930 . S
C467 C463 1.400 . S
C467 C466 1.385 . S
C468 C466 1.478 . S
C468 C470 1.381 . S
C468 C474 1.383 . S
C469 C465 1.495 . S
C469 H475 0.959 . S
C469 H476 0.961 . S
C469 H477 0.960 . S
C470 C468 1.381 . S
C470 C471 1.394 . S
C470 H478 0.930 . S
C471 C470 1.394 . S
C471 C472 1.383 . S
C471 H479 0.929 . S
C472 C471 1.383 . S
C472 C473 1.377 . S
C473 H457 0.930 . S
C473 C472 1.377 . S
C473 C474 1.379 . S
C474 H458 0.931 . S
C474 C468 1.383 . S
C474 C473 1.379 . S
H475 C469 0.959 . S
H476 C469 0.961 . S
H477 C469 0.960 . S
H478 C470 0.930 . S
H479 C471 0.929 . S
H480 C488 0.929 . S
H481 C490 0.930 . S
H482 C492 0.930 . S
H483 C495 0.929 . S
H484 C498 0.930 . S
H485 C500 0.960 . S
H486 C500 0.960 . S
H487 C500 0.960 . S
C488 H480 0.929 . S
C488 C489 1.377 1_545 S
C488 C490 1.384 . S
C489 C488 1.377 1_565 S
C489 C495 1.390 . S
C490 H481 0.930 . S
C490 C488 1.384 . S
C490 C491 1.372 1_545 S
C491 C490 1.372 1_565 S
C491 C492 1.400 . S
C491 C496 1.490 . S
C492 H482 0.930 . S
C492 C491 1.400 . S
C492 C495 1.386 . S
H493 C509 0.930 . S
H494 C510 0.931 . S
C495 H483 0.929 . S
C495 C489 1.390 . S
C495 C492 1.386 . S
C496 C491 1.490 . S
C496 C498 1.395 . S
C496 C499 1.403 1_565 S
H497 C503 0.930 . S
C498 H484 0.930 . S
C498 C496 1.395 . S
C498 C501 1.403 . S
C499 C496 1.403 1_545 S
C499 C500 1.524 . S
C499 C503 1.400 . S
C500 H485 0.960 . S
C500 H486 0.960 . S
C500 H487 0.960 . S
C500 C499 1.524 . S
C501 C498 1.403 . S
C501 C502 1.392 . S
C501 C505 1.495 . S
C502 C501 1.392 . S
C502 C503 1.385 1_565 S
C502 C504 1.478 . S
C503 H497 0.930 . S
C503 C499 1.400 . S
C503 C502 1.385 1_545 S
C504 C502 1.478 . S
C504 C506 1.381 1_565 S
C504 C510 1.383 . S
C505 C501 1.495 . S
C505 H511 0.959 . S
C505 H512 0.961 . S
C505 H513 0.960 . S
C506 C504 1.381 1_545 S
C506 C507 1.394 . S
C506 H514 0.930 . S
C507 C506 1.394 . S
C507 C508 1.383 1_545 S
C507 H515 0.929 . S
C508 C507 1.383 1_565 S
C508 C509 1.377 . S
C509 H493 0.930 . S
C509 C508 1.377 . S
C509 C510 1.379 . S
C510 H494 0.931 . S
C510 C504 1.383 . S
C510 C509 1.379 . S
H511 C505 0.959 . S
H512 C505 0.961 . S
H513 C505 0.960 . S
H514 C506 0.930 . S
H515 C507 0.929 . S
H516 C524 0.929 . S
H517 C526 0.930 . S
H518 C528 0.930 1_655 S
H519 C531 0.929 1_655 S
H520 C534 0.930 . S
H521 C536 0.960 . S
H522 C536 0.960 . S
H523 C536 0.960 . S
C524 H516 0.929 . S
C524 C525 1.377 . S
C524 C526 1.384 . S
C525 C524 1.377 . S
C525 C531 1.390 . S
C526 H517 0.930 . S
C526 C524 1.384 . S
C526 C527 1.372 . S
C527 C526 1.372 . S
C527 C528 1.400 . S
C527 C532 1.490 . S
C528 H518 0.930 1_455 S
C528 C527 1.400 . S
C528 C531 1.386 . S
H529 C545 0.930 1_655 S
H530 C546 0.931 1_655 S
C531 H519 0.929 1_455 S
C531 C525 1.390 . S
C531 C528 1.386 . S
C532 C527 1.490 . S
C532 C534 1.395 . S
C532 C535 1.403 . S
H533 C539 0.930 1_655 S
C534 H520 0.930 . S
C534 C532 1.395 . S
C534 C537 1.403 . S
C535 C532 1.403 . S
C535 C536 1.524 1_455 S
C535 C539 1.400 . S
C536 H521 0.960 . S
C536 H522 0.960 . S
C536 H523 0.960 . S
C536 C535 1.524 1_655 S
C537 C534 1.403 . S
C537 C538 1.392 . S
C537 C541 1.495 . S
C538 C537 1.392 . S
C538 C539 1.385 . S
C538 C540 1.478 . S
C539 H533 0.930 1_455 S
C539 C535 1.400 . S
C539 C538 1.385 . S
C540 C538 1.478 . S
C540 C542 1.381 . S
C540 C546 1.383 . S
C541 C537 1.495 . S
C541 H547 0.959 . S
C541 H548 0.961 . S
C541 H549 0.960 . S
C542 C540 1.381 . S
C542 C543 1.394 . S
C542 H550 0.930 . S
C543 C542 1.394 . S
C543 C544 1.383 . S
C543 H551 0.929 . S
C544 C543 1.383 . S
C544 C545 1.377 . S
C545 H529 0.930 1_455 S
C545 C544 1.377 . S
C545 C546 1.379 . S
C546 H530 0.931 1_455 S
C546 C540 1.383 . S
C546 C545 1.379 . S
H547 C541 0.959 . S
H548 C541 0.961 . S
H549 C541 0.960 . S
H550 C542 0.930 . S
H551 C543 0.929 . S
H552 C560 0.929 . S
H553 C562 0.930 . S
H554 C564 0.930 . S
H555 C567 0.929 . S
H556 C570 0.930 . S
H557 C572 0.960 . S
H558 C572 0.960 . S
H559 C572 0.960 . S
C560 H552 0.929 . S
C560 C561 1.377 . S
C560 C562 1.384 . S
C561 C560 1.377 . S
C561 C567 1.390 . S
C562 H553 0.930 . S
C562 C560 1.384 . S
C562 C563 1.372 . S
C563 C562 1.372 . S
C563 C564 1.400 . S
C563 C568 1.490 . S
C564 H554 0.930 . S
C564 C563 1.400 . S
C564 C567 1.386 . S
H565 C581 0.930 . S
H566 C582 0.931 . S
C567 H555 0.929 . S
C567 C561 1.390 . S
C567 C564 1.386 . S
C568 C563 1.490 . S
C568 C570 1.395 . S
C568 C571 1.403 . S
H569 C575 0.930 . S
C570 H556 0.930 . S
C570 C568 1.395 . S
C570 C573 1.403 . S
C571 C568 1.403 . S
C571 C572 1.524 . S
C571 C575 1.400 . S
C572 H557 0.960 . S
C572 H558 0.960 . S
C572 H559 0.960 . S
C572 C571 1.524 . S
C573 C570 1.403 . S
C573 C574 1.392 . S
C573 C577 1.495 . S
C574 C573 1.392 . S
C574 C575 1.385 . S
C574 C576 1.478 . S
C575 H569 0.930 . S
C575 C571 1.400 . S
C575 C574 1.385 . S
C576 C574 1.478 . S
C576 C578 1.381 . S
C576 C582 1.383 . S
C577 C573 1.495 . S
C577 H583 0.959 . S
C577 H584 0.961 . S
C577 H585 0.960 . S
C578 C576 1.381 . S
C578 C579 1.394 . S
C578 H586 0.930 . S
C579 C578 1.394 . S
C579 C580 1.383 . S
C579 H587 0.929 . S
C580 C579 1.383 . S
C580 C581 1.377 . S
C581 H565 0.930 . S
C581 C580 1.377 . S
C581 C582 1.379 . S
C582 H566 0.931 . S
C582 C576 1.383 . S
C582 C581 1.379 . S
H583 C577 0.959 . S
H584 C577 0.961 . S
H585 C577 0.960 . S
H586 C578 0.930 . S
H587 C579 0.929 . S
H588 C596 0.929 . S
H589 C598 0.930 . S
H590 C600 0.930 . S
H591 C603 0.929 . S
H592 C606 0.930 . S
H593 C608 0.960 . S
H594 C608 0.960 . S
H595 C608 0.960 . S
C596 H588 0.929 . S
C596 C597 1.377 . S
C596 C598 1.384 . S
C597 C596 1.377 . S
C597 C603 1.390 . S
C598 H589 0.930 . S
C598 C596 1.384 . S
C598 C599 1.372 . S
C599 C598 1.372 . S
C599 C600 1.400 . S
C599 C604 1.490 . S
C600 H590 0.930 . S
C600 C599 1.400 . S
C600 C603 1.386 . S
H601 C617 0.930 . S
H602 C618 0.931 . S
C603 H591 0.929 . S
C603 C597 1.390 . S
C603 C600 1.386 . S
C604 C599 1.490 . S
C604 C606 1.395 . S
C604 C607 1.403 . S
H605 C611 0.930 . S
C606 H592 0.930 . S
C606 C604 1.395 . S
C606 C609 1.403 . S
C607 C604 1.403 . S
C607 C608 1.524 . S
C607 C611 1.400 . S
C608 H593 0.960 . S
C608 H594 0.960 . S
C608 H595 0.960 . S
C608 C607 1.524 . S
C609 C606 1.403 . S
C609 C610 1.392 . S
C609 C613 1.495 . S
C610 C609 1.392 . S
C610 C611 1.385 . S
C610 C612 1.478 . S
C611 H605 0.930 . S
C611 C607 1.400 . S
C611 C610 1.385 . S
C612 C610 1.478 . S
C612 C614 1.381 . S
C612 C618 1.383 . S
C613 C609 1.495 . S
C613 H619 0.959 . S
C613 H620 0.961 . S
C613 H621 0.960 . S
C614 C612 1.381 . S
C614 C615 1.394 . S
C614 H622 0.930 . S
C615 C614 1.394 . S
C615 C616 1.383 . S
C615 H623 0.929 . S
C616 C615 1.383 . S
C616 C617 1.377 . S
C617 H601 0.930 . S
C617 C616 1.377 . S
C617 C618 1.379 . S
C618 H602 0.931 . S
C618 C612 1.383 . S
C618 C617 1.379 . S
H619 C613 0.959 . S
H620 C613 0.961 . S
H621 C613 0.960 . S
H622 C614 0.930 . S
H623 C615 0.929 . S
H624 C632 0.929 . S
H625 C634 0.930 . S
H626 C636 0.930 . S
H627 C639 0.929 . S
H628 C642 0.930 . S
H629 C644 0.960 . S
H630 C644 0.960 . S
H631 C644 0.960 . S
C632 H624 0.929 . S
C632 C633 1.377 . S
C632 C634 1.384 . S
C633 C632 1.377 . S
C633 C639 1.390 . S
C634 H625 0.930 . S
C634 C632 1.384 . S
C634 C635 1.372 . S
C635 C634 1.372 . S
C635 C636 1.400 . S
C635 C640 1.490 . S
C636 H626 0.930 . S
C636 C635 1.400 . S
C636 C639 1.386 . S
H637 C653 0.930 . S
H638 C654 0.931 . S
C639 H627 0.929 . S
C639 C633 1.390 . S
C639 C636 1.386 . S
C640 C635 1.490 . S
C640 C642 1.395 . S
C640 C643 1.403 . S
H641 C647 0.930 . S
C642 H628 0.930 . S
C642 C640 1.395 . S
C642 C645 1.403 . S
C643 C640 1.403 . S
C643 C644 1.524 . S
C643 C647 1.400 . S
C644 H629 0.960 . S
C644 H630 0.960 . S
C644 H631 0.960 . S
C644 C643 1.524 . S
C645 C642 1.403 . S
C645 C646 1.392 . S
C645 C649 1.495 . S
C646 C645 1.392 . S
C646 C647 1.385 . S
C646 C648 1.478 . S
C647 H641 0.930 . S
C647 C643 1.400 . S
C647 C646 1.385 . S
C648 C646 1.478 . S
C648 C650 1.381 . S
C648 C654 1.383 . S
C649 C645 1.495 . S
C649 H655 0.959 . S
C649 H656 0.961 . S
C649 H657 0.960 . S
C650 C648 1.381 . S
C650 C651 1.394 . S
C650 H658 0.930 . S
C651 C650 1.394 . S
C651 C652 1.383 . S
C651 H659 0.929 . S
C652 C651 1.383 . S
C652 C653 1.377 . S
C653 H637 0.930 . S
C653 C652 1.377 . S
C653 C654 1.379 . S
C654 H638 0.931 . S
C654 C648 1.383 . S
C654 C653 1.379 . S
H655 C649 0.959 . S
H656 C649 0.961 . S
H657 C649 0.960 . S
H658 C650 0.930 . S
H659 C651 0.929 . S
H660 C668 0.929 . S
H661 C670 0.930 . S
H662 C672 0.930 . S
H663 C675 0.929 . S
H664 C678 0.930 . S
H665 C680 0.960 . S
H666 C680 0.960 . S
H667 C680 0.960 . S
C668 H660 0.929 . S
C668 C669 1.377 . S
C668 C670 1.384 . S
C669 C668 1.377 . S
C669 C675 1.390 . S
C670 H661 0.930 . S
C670 C668 1.384 . S
C670 C671 1.372 . S
C671 C670 1.372 . S
C671 C672 1.400 . S
C671 C676 1.490 . S
C672 H662 0.930 . S
C672 C671 1.400 . S
C672 C675 1.386 . S
H673 C689 0.930 . S
H674 C690 0.931 . S
C675 H663 0.929 . S
C675 C669 1.390 . S
C675 C672 1.386 . S
C676 C671 1.490 . S
C676 C678 1.395 . S
C676 C679 1.403 . S
H677 C683 0.930 . S
C678 H664 0.930 . S
C678 C676 1.395 . S
C678 C681 1.403 . S
C679 C676 1.403 . S
C679 C680 1.524 . S
C679 C683 1.400 . S
C680 H665 0.960 . S
C680 H666 0.960 . S
C680 H667 0.960 . S
C680 C679 1.524 . S
C681 C678 1.403 . S
C681 C682 1.392 . S
C681 C685 1.495 . S
C682 C681 1.392 . S
C682 C683 1.385 . S
C682 C684 1.478 . S
C683 H677 0.930 . S
C683 C679 1.400 . S
C683 C682 1.385 . S
C684 C682 1.478 . S
C684 C686 1.381 . S
C684 C690 1.383 . S
C685 C681 1.495 . S
C685 H691 0.959 . S
C685 H692 0.961 . S
C685 H693 0.960 . S
C686 C684 1.381 . S
C686 C687 1.394 . S
C686 H694 0.930 . S
C687 C686 1.394 . S
C687 C688 1.383 . S
C687 H695 0.929 . S
C688 C687 1.383 . S
C688 C689 1.377 . S
C689 H673 0.930 . S
C689 C688 1.377 . S
C689 C690 1.379 . S
C690 H674 0.931 . S
C690 C684 1.383 . S
C690 C689 1.379 . S
H691 C685 0.959 . S
H692 C685 0.961 . S
H693 C685 0.960 . S
H694 C686 0.930 . S
H695 C687 0.929 . S
H696 C704 0.929 . S
H697 C706 0.930 . S
H698 C708 0.930 . S
H699 C711 0.929 . S
H700 C714 0.930 . S
H701 C716 0.960 . S
H702 C716 0.960 . S
H703 C716 0.960 . S
C704 H696 0.929 . S
C704 C705 1.377 . S
C704 C706 1.384 . S
C705 C704 1.377 . S
C705 C711 1.390 . S
C706 H697 0.930 . S
C706 C704 1.384 . S
C706 C707 1.372 . S
C707 C706 1.372 . S
C707 C708 1.400 . S
C707 C712 1.490 . S
C708 H698 0.930 . S
C708 C707 1.400 . S
C708 C711 1.386 . S
H709 C725 0.930 . S
H710 C726 0.931 . S
C711 H699 0.929 . S
C711 C705 1.390 . S
C711 C708 1.386 . S
C712 C707 1.490 . S
C712 C714 1.395 . S
C712 C715 1.403 1_565 S
H713 C719 0.930 . S
C714 H700 0.930 . S
C714 C712 1.395 . S
C714 C717 1.403 . S
C715 C712 1.403 1_545 S
C715 C716 1.524 . S
C715 C719 1.400 . S
C716 H701 0.960 . S
C716 H702 0.960 . S
C716 H703 0.960 . S
C716 C715 1.524 . S
C717 C714 1.403 . S
C717 C718 1.392 . S
C717 C721 1.495 . S
C718 C717 1.392 . S
C718 C719 1.385 1_565 S
C718 C720 1.478 . S
C719 H713 0.930 . S
C719 C715 1.400 . S
C719 C718 1.385 1_545 S
C720 C718 1.478 . S
C720 C722 1.381 . S
C720 C726 1.383 . S
C721 C717 1.495 . S
C721 H727 0.959 . S
C721 H728 0.961 . S
C721 H729 0.960 . S
C722 C720 1.381 . S
C722 C723 1.394 . S
C722 H730 0.930 . S
C723 C722 1.394 . S
C723 C724 1.383 . S
C723 H731 0.929 . S
C724 C723 1.383 . S
C724 C725 1.377 . S
C725 H709 0.930 . S
C725 C724 1.377 . S
C725 C726 1.379 . S
C726 H710 0.931 . S
C726 C720 1.383 . S
C726 C725 1.379 . S
H727 C721 0.959 . S
H728 C721 0.961 . S
H729 C721 0.960 . S
H730 C722 0.930 . S
H731 C723 0.929 . S
H732 C740 0.929 . S
H733 C742 0.930 . S
H734 C744 0.930 . S
H735 C747 0.929 . S
H736 C750 0.930 . S
H737 C752 0.960 . S
H738 C752 0.960 . S
H739 C752 0.960 . S
C740 H732 0.929 . S
C740 C741 1.377 . S
C740 C742 1.384 . S
C741 C740 1.377 . S
C741 C747 1.390 . S
C742 H733 0.930 . S
C742 C740 1.384 . S
C742 C743 1.372 . S
C743 C742 1.372 . S
C743 C744 1.400 . S
C743 C748 1.490 . S
C744 H734 0.930 . S
C744 C743 1.400 . S
C744 C747 1.386 . S
H745 C761 0.930 1_655 S
H746 C762 0.931 1_655 S
C747 H735 0.929 . S
C747 C741 1.390 . S
C747 C744 1.386 . S
C748 C743 1.490 . S
C748 C750 1.395 . S
C748 C751 1.403 . S
H749 C755 0.930 . S
C750 H736 0.930 . S
C750 C748 1.395 . S
C750 C753 1.403 . S
C751 C748 1.403 . S
C751 C752 1.524 . S
C751 C755 1.400 . S
C752 H737 0.960 . S
C752 H738 0.960 . S
C752 H739 0.960 . S
C752 C751 1.524 . S
C753 C750 1.403 . S
C753 C754 1.392 . S
C753 C757 1.495 1_455 S
C754 C753 1.392 . S
C754 C755 1.385 . S
C754 C756 1.478 . S
C755 H749 0.930 . S
C755 C751 1.400 . S
C755 C754 1.385 . S
C756 C754 1.478 . S
C756 C758 1.381 . S
C756 C762 1.383 . S
C757 C753 1.495 1_655 S
C757 H763 0.959 . S
C757 H764 0.961 . S
C757 H765 0.960 1_655 S
C758 C756 1.381 . S
C758 C759 1.394 . S
C758 H766 0.930 . S
C759 C758 1.394 . S
C759 C760 1.383 . S
C759 H767 0.929 . S
C760 C759 1.383 . S
C760 C761 1.377 . S
C761 H745 0.930 1_455 S
C761 C760 1.377 . S
C761 C762 1.379 . S
C762 H746 0.931 1_455 S
C762 C756 1.383 . S
C762 C761 1.379 . S
H763 C757 0.959 . S
H764 C757 0.961 . S
H765 C757 0.960 1_455 S
H766 C758 0.930 . S
H767 C759 0.929 . S
H768 C776 0.929 . S
H769 C778 0.930 . S
H770 C780 0.930 . S
H771 C783 0.929 . S
H772 C786 0.930 . S
H773 C788 0.960 . S
H774 C788 0.960 . S
H775 C788 0.960 . S
C776 H768 0.929 . S
C776 C777 1.377 1_554 S
C776 C778 1.384 . S
C777 C776 1.377 1_556 S
C777 C783 1.390 . S
C778 H769 0.930 . S
C778 C776 1.384 . S
C778 C779 1.372 1_554 S
C779 C778 1.372 1_556 S
C779 C780 1.400 . S
C779 C784 1.490 . S
C780 H770 0.930 . S
C780 C779 1.400 . S
C780 C783 1.386 . S
H781 C797 0.930 . S
H782 C798 0.931 . S
C783 H771 0.929 . S
C783 C777 1.390 . S
C783 C780 1.386 . S
C784 C779 1.490 . S
C784 C786 1.395 1_556 S
C784 C787 1.403 . S
H785 C791 0.930 . S
C786 H772 0.930 . S
C786 C784 1.395 1_554 S
C786 C789 1.403 . S
C787 C784 1.403 . S
C787 C788 1.524 . S
C787 C791 1.400 . S
C788 H773 0.960 . S
C788 H774 0.960 . S
C788 H775 0.960 . S
C788 C787 1.524 . S
C789 C786 1.403 . S
C789 C790 1.392 1_554 S
C789 C793 1.495 . S
C790 C789 1.392 1_556 S
C790 C791 1.385 . S
C790 C792 1.478 . S
C791 H785 0.930 . S
C791 C787 1.400 . S
C791 C790 1.385 . S
C792 C790 1.478 . S
C792 C794 1.381 1_556 S
C792 C798 1.383 . S
C793 C789 1.495 . S
C793 H799 0.959 . S
C793 H800 0.961 . S
C793 H801 0.960 . S
C794 C792 1.381 1_554 S
C794 C795 1.394 . S
C794 H802 0.930 . S
C795 C794 1.394 . S
C795 C796 1.383 1_554 S
C795 H803 0.929 . S
C796 C795 1.383 1_556 S
C796 C797 1.377 . S
C797 H781 0.930 . S
C797 C796 1.377 . S
C797 C798 1.379 . S
C798 H782 0.931 . S
C798 C792 1.383 . S
C798 C797 1.379 . S
H799 C793 0.959 . S
H800 C793 0.961 . S
H801 C793 0.960 . S
H802 C794 0.930 . S
H803 C795 0.929 . S
H804 C812 0.929 . S
H805 C814 0.930 . S
H806 C816 0.930 . S
H807 C819 0.929 . S
H808 C822 0.930 . S
H809 C824 0.960 . S
H810 C824 0.960 . S
H811 C824 0.960 . S
C812 H804 0.929 . S
C812 C813 1.377 . S
C812 C814 1.384 . S
C813 C812 1.377 . S
C813 C819 1.390 . S
C814 H805 0.930 . S
C814 C812 1.384 . S
C814 C815 1.372 . S
C815 C814 1.372 . S
C815 C816 1.400 . S
C815 C820 1.490 . S
C816 H806 0.930 . S
C816 C815 1.400 . S
C816 C819 1.386 . S
H817 C833 0.930 . S
H818 C834 0.931 . S
C819 H807 0.929 . S
C819 C813 1.390 . S
C819 C816 1.386 . S
C820 C815 1.490 . S
C820 C822 1.395 . S
C820 C823 1.403 . S
H821 C827 0.930 . S
C822 H808 0.930 . S
C822 C820 1.395 . S
C822 C825 1.403 . S
C823 C820 1.403 . S
C823 C824 1.524 . S
C823 C827 1.400 . S
C824 H809 0.960 . S
C824 H810 0.960 . S
C824 H811 0.960 . S
C824 C823 1.524 . S
C825 C822 1.403 . S
C825 C826 1.392 . S
C825 C829 1.495 . S
C826 C825 1.392 . S
C826 C827 1.385 . S
C826 C828 1.478 . S
C827 H821 0.930 . S
C827 C823 1.400 . S
C827 C826 1.385 . S
C828 C826 1.478 . S
C828 C830 1.381 . S
C828 C834 1.383 . S
C829 C825 1.495 . S
C829 H835 0.959 . S
C829 H836 0.961 . S
C829 H837 0.960 . S
C830 C828 1.381 . S
C830 C831 1.394 . S
C830 H838 0.930 . S
C831 C830 1.394 . S
C831 C832 1.383 . S
C831 H839 0.929 . S
C832 C831 1.383 . S
C832 C833 1.377 . S
C833 H817 0.930 . S
C833 C832 1.377 . S
C833 C834 1.379 . S
C834 H818 0.931 . S
C834 C828 1.383 . S
C834 C833 1.379 . S
H835 C829 0.959 . S
H836 C829 0.961 . S
H837 C829 0.960 . S
H838 C830 0.930 . S
H839 C831 0.929 . S
H840 C848 0.929 . S
H841 C850 0.930 . S
H842 C852 0.930 . S
H843 C855 0.929 . S
H844 C858 0.930 . S
H845 C860 0.960 . S
H846 C860 0.960 . S
H847 C860 0.960 . S
C848 H840 0.929 . S
C848 C849 1.377 . S
C848 C850 1.384 . S
C849 C848 1.377 . S
C849 C855 1.390 . S
C850 H841 0.930 . S
C850 C848 1.384 . S
C850 C851 1.372 . S
C851 C850 1.372 . S
C851 C852 1.400 . S
C851 C856 1.490 . S
C852 H842 0.930 . S
C852 C851 1.400 . S
C852 C855 1.386 . S
H853 C869 0.930 . S
H854 C870 0.931 . S
C855 H843 0.929 . S
C855 C849 1.390 . S
C855 C852 1.386 . S
C856 C851 1.490 . S
C856 C858 1.395 . S
C856 C859 1.403 . S
H857 C863 0.930 . S
C858 H844 0.930 . S
C858 C856 1.395 . S
C858 C861 1.403 . S
C859 C856 1.403 . S
C859 C860 1.524 . S
C859 C863 1.400 . S
C860 H845 0.960 . S
C860 H846 0.960 . S
C860 H847 0.960 . S
C860 C859 1.524 . S
C861 C858 1.403 . S
C861 C862 1.392 . S
C861 C865 1.495 . S
C862 C861 1.392 . S
C862 C863 1.385 . S
C862 C864 1.478 . S
C863 H857 0.930 . S
C863 C859 1.400 . S
C863 C862 1.385 . S
C864 C862 1.478 . S
C864 C866 1.381 . S
C864 C870 1.383 . S
C865 C861 1.495 . S
C865 H871 0.959 . S
C865 H872 0.961 . S
C865 H873 0.960 . S
C866 C864 1.381 . S
C866 C867 1.394 . S
C866 H874 0.930 . S
C867 C866 1.394 . S
C867 C868 1.383 . S
C867 H875 0.929 . S
C868 C867 1.383 . S
C868 C869 1.377 . S
C869 H853 0.930 . S
C869 C868 1.377 . S
C869 C870 1.379 . S
C870 H854 0.931 . S
C870 C864 1.383 . S
C870 C869 1.379 . S
H871 C865 0.959 . S
H872 C865 0.961 . S
H873 C865 0.960 . S
H874 C866 0.930 . S
H875 C867 0.929 . S
H876 C884 0.929 . S
H877 C886 0.930 . S
H878 C888 0.930 . S
H879 C891 0.929 . S
H880 C894 0.930 . S
H881 C896 0.960 . S
H882 C896 0.960 . S
H883 C896 0.960 . S
C884 H876 0.929 . S
C884 C885 1.377 . S
C884 C886 1.384 . S
C885 C884 1.377 . S
C885 C891 1.390 . S
C886 H877 0.930 . S
C886 C884 1.384 . S
C886 C887 1.372 . S
C887 C886 1.372 . S
C887 C888 1.400 . S
C887 C892 1.490 . S
C888 H878 0.930 . S
C888 C887 1.400 . S
C888 C891 1.386 . S
H889 C905 0.930 . S
H890 C906 0.931 . S
C891 H879 0.929 . S
C891 C885 1.390 . S
C891 C888 1.386 . S
C892 C887 1.490 . S
C892 C894 1.395 . S
C892 C895 1.403 . S
H893 C899 0.930 . S
C894 H880 0.930 . S
C894 C892 1.395 . S
C894 C897 1.403 . S
C895 C892 1.403 . S
C895 C896 1.524 . S
C895 C899 1.400 . S
C896 H881 0.960 . S
C896 H882 0.960 . S
C896 H883 0.960 . S
C896 C895 1.524 . S
C897 C894 1.403 . S
C897 C898 1.392 . S
C897 C901 1.495 . S
C898 C897 1.392 . S
C898 C899 1.385 . S
C898 C900 1.478 . S
C899 H893 0.930 . S
C899 C895 1.400 . S
C899 C898 1.385 . S
C900 C898 1.478 . S
C900 C902 1.381 . S
C900 C906 1.383 . S
C901 C897 1.495 . S
C901 H907 0.959 . S
C901 H908 0.961 . S
C901 H909 0.960 . S
C902 C900 1.381 . S
C902 C903 1.394 . S
C902 H910 0.930 . S
C903 C902 1.394 . S
C903 C904 1.383 . S
C903 H911 0.929 . S
C904 C903 1.383 . S
C904 C905 1.377 . S
C905 H889 0.930 . S
C905 C904 1.377 . S
C905 C906 1.379 . S
C906 H890 0.931 . S
C906 C900 1.383 . S
C906 C905 1.379 . S
H907 C901 0.959 . S
H908 C901 0.961 . S
H909 C901 0.960 . S
H910 C902 0.930 . S
H911 C903 0.929 . S
H912 C920 0.929 . S
H913 C922 0.930 . S
H914 C924 0.930 . S
H915 C927 0.929 . S
H916 C930 0.930 . S
H917 C932 0.960 . S
H918 C932 0.960 . S
H919 C932 0.960 . S
C920 H912 0.929 . S
C920 C921 1.377 . S
C920 C922 1.384 . S
C921 C920 1.377 . S
C921 C927 1.390 . S
C922 H913 0.930 . S
C922 C920 1.384 . S
C922 C923 1.372 . S
C923 C922 1.372 . S
C923 C924 1.400 . S
C923 C928 1.490 . S
C924 H914 0.930 . S
C924 C923 1.400 . S
C924 C927 1.386 . S
H925 C941 0.930 . S
H926 C942 0.931 . S
C927 H915 0.929 . S
C927 C921 1.390 . S
C927 C924 1.386 . S
C928 C923 1.490 . S
C928 C930 1.395 . S
C928 C931 1.403 . S
H929 C935 0.930 . S
C930 H916 0.930 . S
C930 C928 1.395 . S
C930 C933 1.403 . S
C931 C928 1.403 . S
C931 C932 1.524 . S
C931 C935 1.400 . S
C932 H917 0.960 . S
C932 H918 0.960 . S
C932 H919 0.960 . S
C932 C931 1.524 . S
C933 C930 1.403 . S
C933 C934 1.392 . S
C933 C937 1.495 . S
C934 C933 1.392 . S
C934 C935 1.385 . S
C934 C936 1.478 . S
C935 H929 0.930 . S
C935 C931 1.400 . S
C935 C934 1.385 . S
C936 C934 1.478 . S
C936 C938 1.381 . S
C936 C942 1.383 . S
C937 C933 1.495 . S
C937 H943 0.959 . S
C937 H944 0.961 . S
C937 H945 0.960 . S
C938 C936 1.381 . S
C938 C939 1.394 . S
C938 H946 0.930 . S
C939 C938 1.394 . S
C939 C940 1.383 . S
C939 H947 0.929 . S
C940 C939 1.383 . S
C940 C941 1.377 . S
C941 H925 0.930 . S
C941 C940 1.377 . S
C941 C942 1.379 . S
C942 H926 0.931 . S
C942 C936 1.383 . S
C942 C941 1.379 . S
H943 C937 0.959 . S
H944 C937 0.961 . S
H945 C937 0.960 . S
H946 C938 0.930 . S
H947 C939 0.929 . S
H948 C956 0.929 . S
H949 C958 0.930 . S
H950 C960 0.930 . S
H951 C963 0.929 . S
H952 C966 0.930 . S
H953 C968 0.960 . S
H954 C968 0.960 . S
H955 C968 0.960 . S
C956 H948 0.929 . S
C956 C957 1.377 . S
C956 C958 1.384 . S
C957 C956 1.377 . S
C957 C963 1.390 . S
C958 H949 0.930 . S
C958 C956 1.384 . S
C958 C959 1.372 . S
C959 C958 1.372 . S
C959 C960 1.400 . S
C959 C964 1.490 . S
C960 H950 0.930 . S
C960 C959 1.400 . S
C960 C963 1.386 . S
H961 C977 0.930 . S
H962 C978 0.931 . S
C963 H951 0.929 . S
C963 C957 1.390 . S
C963 C960 1.386 . S
C964 C959 1.490 . S
C964 C966 1.395 . S
C964 C967 1.403 . S
H965 C971 0.930 . S
C966 H952 0.930 . S
C966 C964 1.395 . S
C966 C969 1.403 . S
C967 C964 1.403 . S
C967 C968 1.524 . S
C967 C971 1.400 . S
C968 H953 0.960 . S
C968 H954 0.960 . S
C968 H955 0.960 . S
C968 C967 1.524 . S
C969 C966 1.403 . S
C969 C970 1.392 . S
C969 C973 1.495 . S
C970 C969 1.392 . S
C970 C971 1.385 . S
C970 C972 1.478 . S
C971 H965 0.930 . S
C971 C967 1.400 . S
C971 C970 1.385 . S
C972 C970 1.478 . S
C972 C974 1.381 . S
C972 C978 1.383 . S
C973 C969 1.495 . S
C973 H979 0.959 . S
C973 H980 0.961 . S
C973 H981 0.960 . S
C974 C972 1.381 . S
C974 C975 1.394 . S
C974 H982 0.930 . S
C975 C974 1.394 . S
C975 C976 1.383 . S
C975 H983 0.929 . S
C976 C975 1.383 . S
C976 C977 1.377 . S
C977 H961 0.930 . S
C977 C976 1.377 . S
C977 C978 1.379 . S
C978 H962 0.931 . S
C978 C972 1.383 . S
C978 C977 1.379 . S
H979 C973 0.959 . S
H980 C973 0.961 . S
H981 C973 0.960 . S
H982 C974 0.930 . S
H983 C975 0.929 . S
H984 C992 0.929 . S
H985 C994 0.930 . S
H986 C996 0.930 . S
H987 C999 0.929 . S
H988 C1002 0.930 . S
H989 C1004 0.960 . S
H990 C1004 0.960 . S
H991 C1004 0.960 . S
C992 H984 0.929 . S
C992 C993 1.377 . S
C992 C994 1.384 . S
C993 C992 1.377 . S
C993 C999 1.390 . S
C994 H985 0.930 . S
C994 C992 1.384 . S
C994 C995 1.372 . S
C995 C994 1.372 . S
C995 C996 1.400 . S
C995 C1000 1.490 . S
C996 H986 0.930 . S
C996 C995 1.400 . S
C996 C999 1.386 . S
H997 C1013 0.930 . S
H998 C1014 0.931 . S
C999 H987 0.929 . S
C999 C993 1.390 . S
C999 C996 1.386 . S
C1000 C995 1.490 . S
C1000 C1002 1.395 . S
C1000 C1003 1.403 . S
H1001 C1007 0.930 . S
C1002 H988 0.930 . S
C1002 C1000 1.395 . S
C1002 C1005 1.403 . S
C1003 C1000 1.403 . S
C1003 C1004 1.524 . S
C1003 C1007 1.400 . S
C1004 H989 0.960 . S
C1004 H990 0.960 . S
C1004 H991 0.960 . S
C1004 C1003 1.524 . S
C1005 C1002 1.403 . S
C1005 C1006 1.392 . S
C1005 C1009 1.495 . S
C1006 C1005 1.392 . S
C1006 C1007 1.385 . S
C1006 C1008 1.478 . S
C1007 H1001 0.930 . S
C1007 C1003 1.400 . S
C1007 C1006 1.385 . S
C1008 C1006 1.478 . S
C1008 C1010 1.381 . S
C1008 C1014 1.383 . S
C1009 C1005 1.495 . S
C1009 H1015 0.959 . S
C1009 H1016 0.961 . S
C1009 H1017 0.960 . S
C1010 C1008 1.381 . S
C1010 C1011 1.394 . S
C1010 H1018 0.930 . S
C1011 C1010 1.394 . S
C1011 C1012 1.383 . S
C1011 H1019 0.929 . S
C1012 C1011 1.383 . S
C1012 C1013 1.377 . S
C1013 H997 0.930 . S
C1013 C1012 1.377 . S
C1013 C1014 1.379 . S
C1014 H998 0.931 . S
C1014 C1008 1.383 . S
C1014 C1013 1.379 . S
H1015 C1009 0.959 . S
H1016 C1009 0.961 . S
H1017 C1009 0.960 . S
H1018 C1010 0.930 . S
H1019 C1011 0.929 . S
H1020 C1028 0.929 . S
H1021 C1030 0.930 . S
H1022 C1032 0.930 . S
H1023 C1035 0.929 . S
H1024 C1038 0.930 . S
H1025 C1040 0.960 . S
H1026 C1040 0.960 . S
H1027 C1040 0.960 . S
C1028 H1020 0.929 . S
C1028 C1029 1.377 . S
C1028 C1030 1.384 . S
C1029 C1028 1.377 . S
C1029 C1035 1.390 . S
C1030 H1021 0.930 . S
C1030 C1028 1.384 . S
C1030 C1031 1.372 . S
C1031 C1030 1.372 . S
C1031 C1032 1.400 . S
C1031 C1036 1.490 . S
C1032 H1022 0.930 . S
C1032 C1031 1.400 . S
C1032 C1035 1.386 . S
H1033 C1049 0.930 . S
H1034 C1050 0.931 . S
C1035 H1023 0.929 . S
C1035 C1029 1.390 . S
C1035 C1032 1.386 . S
C1036 C1031 1.490 . S
C1036 C1038 1.395 . S
C1036 C1039 1.403 . S
H1037 C1043 0.930 . S
C1038 H1024 0.930 . S
C1038 C1036 1.395 . S
C1038 C1041 1.403 . S
C1039 C1036 1.403 . S
C1039 C1040 1.524 . S
C1039 C1043 1.400 . S
C1040 H1025 0.960 . S
C1040 H1026 0.960 . S
C1040 H1027 0.960 . S
C1040 C1039 1.524 . S
C1041 C1038 1.403 . S
C1041 C1042 1.392 . S
C1041 C1045 1.495 . S
C1042 C1041 1.392 . S
C1042 C1043 1.385 . S
C1042 C1044 1.478 . S
C1043 H1037 0.930 . S
C1043 C1039 1.400 . S
C1043 C1042 1.385 . S
C1044 C1042 1.478 . S
C1044 C1046 1.381 . S
C1044 C1050 1.383 . S
C1045 C1041 1.495 . S
C1045 H1051 0.959 . S
C1045 H1052 0.961 . S
C1045 H1053 0.960 . S
C1046 C1044 1.381 . S
C1046 C1047 1.394 . S
C1046 H1054 0.930 . S
C1047 C1046 1.394 . S
C1047 C1048 1.383 . S
C1047 H1055 0.929 . S
C1048 C1047 1.383 . S
C1048 C1049 1.377 . S
C1049 H1033 0.930 . S
C1049 C1048 1.377 . S
C1049 C1050 1.379 . S
C1050 H1034 0.931 . S
C1050 C1044 1.383 . S
C1050 C1049 1.379 . S
H1051 C1045 0.959 . S
H1052 C1045 0.961 . S
H1053 C1045 0.960 . S
H1054 C1046 0.930 . S
H1055 C1047 0.929 . S
H1056 C1064 0.929 . S
H1057 C1066 0.930 . S
H1058 C1068 0.930 . S
H1059 C1071 0.929 . S
H1060 C1074 0.930 . S
H1061 C1076 0.960 . S
H1062 C1076 0.960 . S
H1063 C1076 0.960 . S
C1064 H1056 0.929 . S
C1064 C1065 1.377 . S
C1064 C1066 1.384 . S
C1065 C1064 1.377 . S
C1065 C1071 1.390 . S
C1066 H1057 0.930 . S
C1066 C1064 1.384 . S
C1066 C1067 1.372 . S
C1067 C1066 1.372 . S
C1067 C1068 1.400 . S
C1067 C1072 1.490 . S
C1068 H1058 0.930 . S
C1068 C1067 1.400 . S
C1068 C1071 1.386 . S
H1069 C1085 0.930 . S
H1070 C1086 0.931 . S
C1071 H1059 0.929 . S
C1071 C1065 1.390 . S
C1071 C1068 1.386 . S
C1072 C1067 1.490 . S
C1072 C1074 1.395 . S
C1072 C1075 1.403 . S
H1073 C1079 0.930 . S
C1074 H1060 0.930 . S
C1074 C1072 1.395 . S
C1074 C1077 1.403 . S
C1075 C1072 1.403 . S
C1075 C1076 1.524 . S
C1075 C1079 1.400 . S
C1076 H1061 0.960 . S
C1076 H1062 0.960 . S
C1076 H1063 0.960 . S
C1076 C1075 1.524 . S
C1077 C1074 1.403 . S
C1077 C1078 1.392 . S
C1077 C1081 1.495 . S
C1078 C1077 1.392 . S
C1078 C1079 1.385 . S
C1078 C1080 1.478 . S
C1079 H1073 0.930 . S
C1079 C1075 1.400 . S
C1079 C1078 1.385 . S
C1080 C1078 1.478 . S
C1080 C1082 1.381 . S
C1080 C1086 1.383 . S
C1081 C1077 1.495 . S
C1081 H1087 0.959 . S
C1081 H1088 0.961 . S
C1081 H1089 0.960 . S
C1082 C1080 1.381 . S
C1082 C1083 1.394 . S
C1082 H1090 0.930 . S
C1083 C1082 1.394 . S
C1083 C1084 1.383 . S
C1083 H1091 0.929 . S
C1084 C1083 1.383 . S
C1084 C1085 1.377 . S
C1085 H1069 0.930 . S
C1085 C1084 1.377 . S
C1085 C1086 1.379 . S
C1086 H1070 0.931 . S
C1086 C1080 1.383 . S
C1086 C1085 1.379 . S
H1087 C1081 0.959 . S
H1088 C1081 0.961 . S
H1089 C1081 0.960 . S
H1090 C1082 0.930 . S
H1091 C1083 0.929 . S
H1092 C1100 0.929 . S
H1093 C1102 0.930 . S
H1094 C1104 0.930 . S
H1095 C1107 0.929 . S
H1096 C1110 0.930 . S
H1097 C1112 0.960 . S
H1098 C1112 0.960 . S
H1099 C1112 0.960 . S
C1100 H1092 0.929 . S
C1100 C1101 1.377 . S
C1100 C1102 1.384 . S
C1101 C1100 1.377 . S
C1101 C1107 1.390 1_655 S
C1102 H1093 0.930 . S
C1102 C1100 1.384 . S
C1102 C1103 1.372 . S
C1103 C1102 1.372 . S
C1103 C1104 1.400 1_655 S
C1103 C1108 1.490 . S
C1104 H1094 0.930 . S
C1104 C1103 1.400 1_455 S
C1104 C1107 1.386 . S
H1105 C1121 0.930 . S
H1106 C1122 0.931 . S
C1107 H1095 0.929 . S
C1107 C1101 1.390 1_455 S
C1107 C1104 1.386 . S
C1108 C1103 1.490 . S
C1108 C1110 1.395 . S
C1108 C1111 1.403 . S
H1109 C1115 0.930 . S
C1110 H1096 0.930 . S
C1110 C1108 1.395 . S
C1110 C1113 1.403 . S
C1111 C1108 1.403 . S
C1111 C1112 1.524 . S
C1111 C1115 1.400 . S
C1112 H1097 0.960 . S
C1112 H1098 0.960 . S
C1112 H1099 0.960 . S
C1112 C1111 1.524 . S
C1113 C1110 1.403 . S
C1113 C1114 1.392 . S
C1113 C1117 1.495 . S
C1114 C1113 1.392 . S
C1114 C1115 1.385 . S
C1114 C1116 1.478 . S
C1115 H1109 0.930 . S
C1115 C1111 1.400 . S
C1115 C1114 1.385 . S
C1116 C1114 1.478 . S
C1116 C1118 1.381 . S
C1116 C1122 1.383 1_655 S
C1117 C1113 1.495 . S
C1117 H1123 0.962 . S
C1117 H1124 0.961 1_655 S
C1117 H1125 0.960 . S
C1118 C1116 1.381 . S
C1118 C1119 1.394 . S
C1118 H1126 0.930 . S
C1119 C1118 1.394 . S
C1119 C1120 1.383 . S
C1119 H1127 0.929 . S
C1120 C1119 1.383 . S
C1120 C1121 1.377 1_655 S
C1121 H1105 0.930 . S
C1121 C1120 1.377 1_455 S
C1121 C1122 1.379 . S
C1122 H1106 0.931 . S
C1122 C1116 1.383 1_455 S
C1122 C1121 1.379 . S
H1123 C1117 0.962 . S
H1124 C1117 0.961 1_455 S
H1125 C1117 0.960 . S
H1126 C1118 0.930 . S
H1127 C1119 0.929 . S
H1128 C1136 0.929 . S
H1129 C1138 0.930 . S
H1130 C1140 0.930 . S
H1131 C1143 0.929 . S
H1132 C1146 0.930 . S
H1133 C1148 0.960 . S
H1134 C1148 0.960 . S
H1135 C1148 0.960 . S
C1136 H1128 0.929 . S
C1136 C1137 1.377 . S
C1136 C1138 1.384 . S
C1137 C1136 1.377 . S
C1137 C1143 1.390 . S
C1138 H1129 0.930 . S
C1138 C1136 1.384 . S
C1138 C1139 1.372 . S
C1139 C1138 1.372 . S
C1139 C1140 1.400 . S
C1139 C1144 1.490 . S
C1140 H1130 0.930 . S
C1140 C1139 1.400 . S
C1140 C1143 1.386 . S
H1141 C1157 0.930 . S
H1142 C1158 0.931 . S
C1143 H1131 0.929 . S
C1143 C1137 1.390 . S
C1143 C1140 1.386 . S
C1144 C1139 1.490 . S
C1144 C1146 1.395 . S
C1144 C1147 1.403 . S
H1145 C1151 0.930 . S
C1146 H1132 0.930 . S
C1146 C1144 1.395 . S
C1146 C1149 1.403 . S
C1147 C1144 1.403 . S
C1147 C1148 1.524 . S
C1147 C1151 1.400 . S
C1148 H1133 0.960 . S
C1148 H1134 0.960 . S
C1148 H1135 0.960 . S
C1148 C1147 1.524 . S
C1149 C1146 1.403 . S
C1149 C1150 1.392 . S
C1149 C1153 1.495 . S
C1150 C1149 1.392 . S
C1150 C1151 1.385 . S
C1150 C1152 1.478 . S
C1151 H1145 0.930 . S
C1151 C1147 1.400 . S
C1151 C1150 1.385 . S
C1152 C1150 1.478 . S
C1152 C1154 1.381 . S
C1152 C1158 1.383 . S
C1153 C1149 1.495 . S
C1153 H1159 0.959 . S
C1153 H1160 0.961 . S
C1153 H1161 0.960 . S
C1154 C1152 1.381 . S
C1154 C1155 1.394 . S
C1154 H1162 0.930 . S
C1155 C1154 1.394 . S
C1155 C1156 1.383 . S
C1155 H1163 0.929 . S
C1156 C1155 1.383 . S
C1156 C1157 1.377 . S
C1157 H1141 0.930 . S
C1157 C1156 1.377 . S
C1157 C1158 1.379 . S
C1158 H1142 0.931 . S
C1158 C1152 1.383 . S
C1158 C1157 1.379 . S
H1159 C1153 0.959 . S
H1160 C1153 0.961 . S
H1161 C1153 0.960 . S
H1162 C1154 0.930 . S
H1163 C1155 0.929 . S
H1164 C1172 0.929 . S
H1165 C1174 0.930 . S
H1166 C1176 0.930 . S
H1167 C1179 0.929 . S
H1168 C1182 0.930 . S
H1169 C1184 0.960 . S
H1170 C1184 0.960 . S
H1171 C1184 0.960 . S
C1172 H1164 0.929 . S
C1172 C1173 1.377 . S
C1172 C1174 1.384 . S
C1173 C1172 1.377 . S
C1173 C1179 1.390 . S
C1174 H1165 0.930 . S
C1174 C1172 1.384 . S
C1174 C1175 1.372 . S
C1175 C1174 1.372 . S
C1175 C1176 1.400 . S
C1175 C1180 1.490 . S
C1176 H1166 0.930 . S
C1176 C1175 1.400 . S
C1176 C1179 1.386 . S
H1177 C1193 0.930 . S
H1178 C1194 0.931 . S
C1179 H1167 0.929 . S
C1179 C1173 1.390 . S
C1179 C1176 1.386 . S
C1180 C1175 1.490 . S
C1180 C1182 1.395 . S
C1180 C1183 1.403 . S
H1181 C1187 0.930 . S
C1182 H1168 0.930 . S
C1182 C1180 1.395 . S
C1182 C1185 1.403 . S
C1183 C1180 1.403 . S
C1183 C1184 1.524 . S
C1183 C1187 1.400 . S
C1184 H1169 0.960 . S
C1184 H1170 0.960 . S
C1184 H1171 0.960 . S
C1184 C1183 1.524 . S
C1185 C1182 1.403 . S
C1185 C1186 1.392 . S
C1185 C1189 1.495 . S
C1186 C1185 1.392 . S
C1186 C1187 1.385 . S
C1186 C1188 1.478 . S
C1187 H1181 0.930 . S
C1187 C1183 1.400 . S
C1187 C1186 1.385 . S
C1188 C1186 1.478 . S
C1188 C1190 1.381 . S
C1188 C1194 1.383 . S
C1189 C1185 1.495 . S
C1189 H1195 0.959 . S
C1189 H1196 0.961 . S
C1189 H1197 0.960 . S
C1190 C1188 1.381 . S
C1190 C1191 1.394 . S
C1190 H1198 0.930 . S
C1191 C1190 1.394 . S
C1191 C1192 1.383 . S
C1191 H1199 0.929 . S
C1192 C1191 1.383 . S
C1192 C1193 1.377 . S
C1193 H1177 0.930 . S
C1193 C1192 1.377 . S
C1193 C1194 1.379 . S
C1194 H1178 0.931 . S
C1194 C1188 1.383 . S
C1194 C1193 1.379 . S
H1195 C1189 0.959 . S
H1196 C1189 0.961 . S
H1197 C1189 0.960 . S
H1198 C1190 0.930 . S
H1199 C1191 0.929 . S
H1200 C1208 0.929 . S
H1201 C1210 0.930 . S
H1202 C1212 0.930 . S
H1203 C1215 0.929 . S
H1204 C1218 0.930 . S
H1205 C1220 0.960 . S
H1206 C1220 0.960 . S
H1207 C1220 0.960 . S
C1208 H1200 0.929 . S
C1208 C1209 1.377 . S
C1208 C1210 1.384 . S
C1209 C1208 1.377 . S
C1209 C1215 1.390 . S
C1210 H1201 0.930 . S
C1210 C1208 1.384 . S
C1210 C1211 1.372 . S
C1211 C1210 1.372 . S
C1211 C1212 1.400 . S
C1211 C1216 1.490 . S
C1212 H1202 0.930 . S
C1212 C1211 1.400 . S
C1212 C1215 1.386 . S
H1213 C1229 0.930 . S
H1214 C1230 0.931 . S
C1215 H1203 0.929 . S
C1215 C1209 1.390 . S
C1215 C1212 1.386 . S
C1216 C1211 1.490 . S
C1216 C1218 1.395 . S
C1216 C1219 1.403 . S
H1217 C1223 0.930 . S
C1218 H1204 0.930 . S
C1218 C1216 1.395 . S
C1218 C1221 1.403 . S
C1219 C1216 1.403 . S
C1219 C1220 1.524 . S
C1219 C1223 1.400 . S
C1220 H1205 0.960 . S
C1220 H1206 0.960 . S
C1220 H1207 0.960 . S
C1220 C1219 1.524 . S
C1221 C1218 1.403 . S
C1221 C1222 1.392 . S
C1221 C1225 1.495 . S
C1222 C1221 1.392 . S
C1222 C1223 1.385 . S
C1222 C1224 1.478 . S
C1223 H1217 0.930 . S
C1223 C1219 1.400 . S
C1223 C1222 1.385 . S
C1224 C1222 1.478 . S
C1224 C1226 1.381 . S
C1224 C1230 1.383 . S
C1225 C1221 1.495 . S
C1225 H1231 0.959 . S
C1225 H1232 0.961 . S
C1225 H1233 0.960 . S
C1226 C1224 1.381 . S
C1226 C1227 1.394 . S
C1226 H1234 0.930 . S
C1227 C1226 1.394 . S
C1227 C1228 1.383 . S
C1227 H1235 0.929 . S
C1228 C1227 1.383 . S
C1228 C1229 1.377 . S
C1229 H1213 0.930 . S
C1229 C1228 1.377 . S
C1229 C1230 1.379 . S
C1230 H1214 0.931 . S
C1230 C1224 1.383 . S
C1230 C1229 1.379 . S
H1231 C1225 0.959 . S
H1232 C1225 0.961 . S
H1233 C1225 0.960 . S
H1234 C1226 0.930 . S
H1235 C1227 0.929 . S
H1236 C1244 0.929 . S
H1237 C1246 0.930 . S
H1238 C1248 0.930 . S
H1239 C1251 0.929 . S
H1240 C1254 0.930 . S
H1241 C1256 0.960 . S
H1242 C1256 0.960 . S
H1243 C1256 0.960 . S
C1244 H1236 0.929 . S
C1244 C1245 1.377 . S
C1244 C1246 1.384 . S
C1245 C1244 1.377 . S
C1245 C1251 1.390 . S
C1246 H1237 0.930 . S
C1246 C1244 1.384 . S
C1246 C1247 1.372 . S
C1247 C1246 1.372 . S
C1247 C1248 1.400 . S
C1247 C1252 1.490 . S
C1248 H1238 0.930 . S
C1248 C1247 1.400 . S
C1248 C1251 1.386 . S
H1249 C1265 0.930 . S
H1250 C1266 0.931 . S
C1251 H1239 0.929 . S
C1251 C1245 1.390 . S
C1251 C1248 1.386 . S
C1252 C1247 1.490 . S
C1252 C1254 1.395 . S
C1252 C1255 1.403 . S
H1253 C1259 0.930 . S
C1254 H1240 0.930 . S
C1254 C1252 1.395 . S
C1254 C1257 1.403 . S
C1255 C1252 1.403 . S
C1255 C1256 1.524 . S
C1255 C1259 1.400 . S
C1256 H1241 0.960 . S
C1256 H1242 0.960 . S
C1256 H1243 0.960 . S
C1256 C1255 1.524 . S
C1257 C1254 1.403 . S
C1257 C1258 1.392 . S
C1257 C1261 1.495 . S
C1258 C1257 1.392 . S
C1258 C1259 1.385 . S
C1258 C1260 1.478 . S
C1259 H1253 0.930 . S
C1259 C1255 1.400 . S
C1259 C1258 1.385 . S
C1260 C1258 1.478 . S
C1260 C1262 1.381 . S
C1260 C1266 1.383 . S
C1261 C1257 1.495 . S
C1261 H1267 0.959 . S
C1261 H1268 0.961 . S
C1261 H1269 0.960 . S
C1262 C1260 1.381 . S
C1262 C1263 1.394 . S
C1262 H1270 0.930 . S
C1263 C1262 1.394 . S
C1263 C1264 1.383 . S
C1263 H1271 0.929 . S
C1264 C1263 1.383 . S
C1264 C1265 1.377 . S
C1265 H1249 0.930 . S
C1265 C1264 1.377 . S
C1265 C1266 1.379 . S
C1266 H1250 0.931 . S
C1266 C1260 1.383 . S
C1266 C1265 1.379 . S
H1267 C1261 0.959 . S
H1268 C1261 0.961 . S
H1269 C1261 0.960 . S
H1270 C1262 0.930 . S
H1271 C1263 0.929 . S
H1272 C1280 0.929 1_565 S
H1273 C1282 0.930 1_565 S
H1274 C1284 0.930 . S
H1275 C1287 0.929 . S
H1276 C1290 0.942 . S
H1277 C1292 0.960 . S
H1278 C1292 0.960 . S
H1279 C1292 0.960 . S
C1280 H1272 0.929 1_545 S
C1280 C1281 1.377 . S
C1280 C1282 1.384 . S
C1281 C1280 1.377 . S
C1281 C1287 1.390 . S
C1282 H1273 0.930 1_545 S
C1282 C1280 1.384 . S
C1282 C1283 1.372 . S
C1283 C1282 1.372 . S
C1283 C1284 1.400 . S
C1283 C1288 1.490 . S
C1284 H1274 0.930 . S
C1284 C1283 1.400 . S
C1284 C1287 1.386 . S
H1285 C1301 0.930 . S
H1286 C1302 0.931 . S
C1287 H1275 0.929 . S
C1287 C1281 1.390 . S
C1287 C1284 1.386 . S
C1288 C1283 1.490 . S
C1288 C1290 1.395 . S
C1288 C1291 1.403 . S
H1289 C1295 0.930 . S
C1290 H1276 0.942 . S
C1290 C1288 1.395 . S
C1290 C1293 1.403 . S
C1291 C1288 1.403 . S
C1291 C1292 1.524 . S
C1291 C1295 1.400 . S
C1292 H1277 0.960 . S
C1292 H1278 0.960 . S
C1292 H1279 0.960 . S
C1292 C1291 1.524 . S
C1293 C1290 1.403 . S
C1293 C1294 1.392 . S
C1293 C1297 1.495 1_545 S
C1294 C1293 1.392 . S
C1294 C1295 1.385 . S
C1294 C1296 1.478 . S
C1295 H1289 0.930 . S
C1295 C1291 1.400 . S
C1295 C1294 1.385 . S
C1296 C1294 1.478 . S
C1296 C1298 1.352 1_545 S
C1296 C1302 1.383 . S
C1297 C1293 1.495 1_565 S
C1297 H1303 0.959 . S
C1297 H1304 0.961 1_565 S
C1297 H1305 0.960 . S
C1298 C1296 1.352 1_565 S
C1298 C1299 1.394 . S
C1298 H1306 0.962 . S
C1299 C1298 1.394 . S
C1299 C1300 1.379 1_565 S
C1299 H1307 0.934 . S
C1300 C1299 1.379 1_545 S
C1300 C1301 1.377 . S
C1301 H1285 0.930 . S
C1301 C1300 1.377 . S
C1301 C1302 1.379 . S
C1302 H1286 0.931 . S
C1302 C1296 1.383 . S
C1302 C1301 1.379 . S
H1303 C1297 0.959 . S
H1304 C1297 0.961 1_545 S
H1305 C1297 0.960 . S
H1306 C1298 0.962 . S
H1307 C1299 0.934 . S
H1308 C1316 0.929 . S
H1309 C1318 0.930 . S
H1310 C1320 0.930 1_556 S
H1311 C1323 0.929 1_556 S
H1312 C1326 0.930 . S
H1313 C1328 0.960 . S
H1314 C1328 0.960 . S
H1315 C1328 0.960 . S
C1316 H1308 0.929 . S
C1316 C1317 1.377 . S
C1316 C1318 1.384 . S
C1317 C1316 1.377 . S
C1317 C1323 1.390 . S
C1318 H1309 0.930 . S
C1318 C1316 1.384 . S
C1318 C1319 1.372 . S
C1319 C1318 1.372 . S
C1319 C1320 1.400 . S
C1319 C1324 1.490 . S
C1320 H1310 0.930 1_554 S
C1320 C1319 1.400 . S
C1320 C1323 1.386 . S
H1321 C1337 0.930 1_556 S
H1322 C1338 0.931 1_556 S
C1323 H1311 0.929 1_554 S
C1323 C1317 1.390 . S
C1323 C1320 1.386 . S
C1324 C1319 1.490 . S
C1324 C1326 1.395 . S
C1324 C1327 1.403 . S
H1325 C1331 0.930 1_556 S
C1326 H1312 0.930 . S
C1326 C1324 1.395 . S
C1326 C1329 1.403 . S
C1327 C1324 1.403 . S
C1327 C1328 1.524 1_554 S
C1327 C1331 1.400 . S
C1328 H1313 0.960 . S
C1328 H1314 0.960 . S
C1328 H1315 0.960 . S
C1328 C1327 1.524 1_556 S
C1329 C1326 1.403 . S
C1329 C1330 1.392 . S
C1329 C1333 1.495 . S
C1330 C1329 1.392 . S
C1330 C1331 1.385 . S
C1330 C1332 1.478 . S
C1331 H1325 0.930 1_554 S
C1331 C1327 1.400 . S
C1331 C1330 1.385 . S
C1332 C1330 1.478 . S
C1332 C1334 1.381 . S
C1332 C1338 1.383 . S
C1333 C1329 1.495 . S
C1333 H1339 0.959 . S
C1333 H1340 0.961 . S
C1333 H1341 0.960 . S
C1334 C1332 1.381 . S
C1334 C1335 1.394 . S
C1334 H1342 0.930 . S
C1335 C1334 1.394 . S
C1335 C1336 1.383 . S
C1335 H1343 0.929 . S
C1336 C1335 1.383 . S
C1336 C1337 1.377 . S
C1337 H1321 0.930 1_554 S
C1337 C1336 1.377 . S
C1337 C1338 1.379 . S
C1338 H1322 0.931 1_554 S
C1338 C1332 1.383 . S
C1338 C1337 1.379 . S
H1339 C1333 0.959 . S
H1340 C1333 0.961 . S
H1341 C1333 0.960 . S
H1342 C1334 0.930 . S
H1343 C1335 0.929 . S
H1344 C1352 0.929 . S
H1345 C1354 0.930 . S
H1346 C1356 0.930 . S
H1347 C1359 0.929 . S
H1348 C1362 0.930 . S
H1349 C1364 0.960 . S
H1350 C1364 0.960 . S
H1351 C1364 0.960 . S
C1352 H1344 0.929 . S
C1352 C1353 1.377 . S
C1352 C1354 1.384 . S
C1353 C1352 1.377 . S
C1353 C1359 1.390 . S
C1354 H1345 0.930 . S
C1354 C1352 1.384 . S
C1354 C1355 1.372 . S
C1355 C1354 1.372 . S
C1355 C1356 1.400 . S
C1355 C1360 1.490 . S
C1356 H1346 0.930 . S
C1356 C1355 1.400 . S
C1356 C1359 1.386 . S
H1357 C1373 0.930 . S
H1358 C1374 0.931 . S
C1359 H1347 0.929 . S
C1359 C1353 1.390 . S
C1359 C1356 1.386 . S
C1360 C1355 1.490 . S
C1360 C1362 1.395 . S
C1360 C1363 1.403 . S
H1361 C1367 0.930 . S
C1362 H1348 0.930 . S
C1362 C1360 1.395 . S
C1362 C1365 1.403 . S
C1363 C1360 1.403 . S
C1363 C1364 1.524 . S
C1363 C1367 1.400 . S
C1364 H1349 0.960 . S
C1364 H1350 0.960 . S
C1364 H1351 0.960 . S
C1364 C1363 1.524 . S
C1365 C1362 1.403 . S
C1365 C1366 1.392 . S
C1365 C1369 1.495 . S
C1366 C1365 1.392 . S
C1366 C1367 1.385 . S
C1366 C1368 1.478 . S
C1367 H1361 0.930 . S
C1367 C1363 1.400 . S
C1367 C1366 1.385 . S
C1368 C1366 1.478 . S
C1368 C1370 1.381 . S
C1368 C1374 1.383 . S
C1369 C1365 1.495 . S
C1369 H1375 0.959 . S
C1369 H1376 0.961 . S
C1369 H1377 0.960 . S
C1370 C1368 1.381 . S
C1370 C1371 1.394 . S
C1370 H1378 0.930 . S
C1371 C1370 1.394 . S
C1371 C1372 1.383 . S
C1371 H1379 0.929 . S
C1372 C1371 1.383 . S
C1372 C1373 1.377 . S
C1373 H1357 0.930 . S
C1373 C1372 1.377 . S
C1373 C1374 1.379 . S
C1374 H1358 0.931 . S
C1374 C1368 1.383 . S
C1374 C1373 1.379 . S
H1375 C1369 0.959 . S
H1376 C1369 0.961 . S
H1377 C1369 0.960 . S
H1378 C1370 0.930 . S
H1379 C1371 0.929 . S
H1380 C1388 0.929 . S
H1381 C1390 0.930 . S
H1382 C1392 0.930 . S
H1383 C1395 0.929 . S
H1384 C1398 0.930 . S
H1385 C1400 0.960 . S
H1386 C1400 0.960 . S
H1387 C1400 0.960 . S
C1388 H1380 0.929 . S
C1388 C1389 1.377 . S
C1388 C1390 1.384 . S
C1389 C1388 1.377 . S
C1389 C1395 1.390 . S
C1390 H1381 0.930 . S
C1390 C1388 1.384 . S
C1390 C1391 1.372 . S
C1391 C1390 1.372 . S
C1391 C1392 1.400 . S
C1391 C1396 1.490 . S
C1392 H1382 0.930 . S
C1392 C1391 1.400 . S
C1392 C1395 1.386 . S
H1393 C1409 0.930 . S
H1394 C1410 0.931 . S
C1395 H1383 0.929 . S
C1395 C1389 1.390 . S
C1395 C1392 1.386 . S
C1396 C1391 1.490 . S
C1396 C1398 1.395 . S
C1396 C1399 1.403 . S
H1397 C1403 0.930 . S
C1398 H1384 0.930 . S
C1398 C1396 1.395 . S
C1398 C1401 1.403 . S
C1399 C1396 1.403 . S
C1399 C1400 1.524 . S
C1399 C1403 1.400 . S
C1400 H1385 0.960 . S
C1400 H1386 0.960 . S
C1400 H1387 0.960 . S
C1400 C1399 1.524 . S
C1401 C1398 1.403 . S
C1401 C1402 1.392 . S
C1401 C1405 1.495 . S
C1402 C1401 1.392 . S
C1402 C1403 1.385 . S
C1402 C1404 1.478 . S
C1403 H1397 0.930 . S
C1403 C1399 1.400 . S
C1403 C1402 1.385 . S
C1404 C1402 1.478 . S
C1404 C1406 1.381 . S
C1404 C1410 1.383 . S
C1405 C1401 1.495 . S
C1405 H1411 0.959 . S
C1405 H1412 0.961 . S
C1405 H1413 0.960 . S
C1406 C1404 1.381 . S
C1406 C1407 1.394 . S
C1406 H1414 0.930 . S
C1407 C1406 1.394 . S
C1407 C1408 1.383 . S
C1407 H1415 0.929 . S
C1408 C1407 1.383 . S
C1408 C1409 1.377 . S
C1409 H1393 0.930 . S
C1409 C1408 1.377 . S
C1409 C1410 1.379 . S
C1410 H1394 0.931 . S
C1410 C1404 1.383 . S
C1410 C1409 1.379 . S
H1411 C1405 0.959 . S
H1412 C1405 0.961 . S
H1413 C1405 0.960 . S
H1414 C1406 0.930 . S
H1415 C1407 0.929 . S
H1416 C1424 0.929 . S
H1417 C1426 0.930 . S
H1418 C1428 0.930 . S
H1419 C1431 0.929 . S
H1420 C1434 0.930 . S
H1421 C1436 0.960 . S
H1422 C1436 0.960 . S
H1423 C1436 0.960 . S
C1424 H1416 0.929 . S
C1424 C1425 1.377 . S
C1424 C1426 1.384 . S
C1425 C1424 1.377 . S
C1425 C1431 1.390 . S
C1426 H1417 0.930 . S
C1426 C1424 1.384 . S
C1426 C1427 1.372 . S
C1427 C1426 1.372 . S
C1427 C1428 1.400 . S
C1427 C1432 1.490 . S
C1428 H1418 0.930 . S
C1428 C1427 1.400 . S
C1428 C1431 1.386 . S
H1429 C1445 0.930 . S
H1430 C1446 0.931 . S
C1431 H1419 0.929 . S
C1431 C1425 1.390 . S
C1431 C1428 1.386 . S
C1432 C1427 1.490 . S
C1432 C1434 1.395 . S
C1432 C1435 1.403 . S
H1433 C1439 0.930 . S
C1434 H1420 0.930 . S
C1434 C1432 1.395 . S
C1434 C1437 1.403 . S
C1435 C1432 1.403 . S
C1435 C1436 1.524 . S
C1435 C1439 1.400 . S
C1436 H1421 0.960 . S
C1436 H1422 0.960 . S
C1436 H1423 0.960 . S
C1436 C1435 1.524 . S
C1437 C1434 1.403 . S
C1437 C1438 1.392 . S
C1437 C1441 1.495 . S
C1438 C1437 1.392 . S
C1438 C1439 1.385 . S
C1438 C1440 1.478 . S
C1439 H1433 0.930 . S
C1439 C1435 1.400 . S
C1439 C1438 1.385 . S
C1440 C1438 1.478 . S
C1440 C1442 1.381 . S
C1440 C1446 1.383 . S
C1441 C1437 1.495 . S
C1441 H1447 0.959 . S
C1441 H1448 0.961 . S
C1441 H1449 0.960 . S
C1442 C1440 1.381 . S
C1442 C1443 1.394 . S
C1442 H1450 0.930 . S
C1443 C1442 1.394 . S
C1443 C1444 1.383 . S
C1443 H1451 0.929 . S
C1444 C1443 1.383 . S
C1444 C1445 1.377 . S
C1445 H1429 0.930 . S
C1445 C1444 1.377 . S
C1445 C1446 1.379 . S
C1446 H1430 0.931 . S
C1446 C1440 1.383 . S
C1446 C1445 1.379 . S
H1447 C1441 0.959 . S
H1448 C1441 0.961 . S
H1449 C1441 0.960 . S
H1450 C1442 0.930 . S
H1451 C1443 0.929 . S
H1452 C1460 0.929 . S
H1453 C1462 0.930 . S
H1454 C1464 0.930 . S
H1455 C1467 0.929 . S
H1456 C1470 0.930 . S
H1457 C1472 0.960 . S
H1458 C1472 0.960 . S
H1459 C1472 0.960 . S
C1460 H1452 0.929 . S
C1460 C1461 1.377 . S
C1460 C1462 1.384 . S
C1461 C1460 1.377 . S
C1461 C1467 1.390 . S
C1462 H1453 0.930 . S
C1462 C1460 1.384 . S
C1462 C1463 1.372 . S
C1463 C1462 1.372 . S
C1463 C1464 1.400 . S
C1463 C1468 1.490 . S
C1464 H1454 0.930 . S
C1464 C1463 1.400 . S
C1464 C1467 1.386 . S
H1465 C1481 0.930 . S
H1466 C1482 0.931 . S
C1467 H1455 0.929 . S
C1467 C1461 1.390 . S
C1467 C1464 1.386 . S
C1468 C1463 1.490 . S
C1468 C1470 1.395 . S
C1468 C1471 1.403 . S
H1469 C1475 0.930 . S
C1470 H1456 0.930 . S
C1470 C1468 1.395 . S
C1470 C1473 1.403 . S
C1471 C1468 1.403 . S
C1471 C1472 1.524 . S
C1471 C1475 1.400 . S
C1472 H1457 0.960 . S
C1472 H1458 0.960 . S
C1472 H1459 0.960 . S
C1472 C1471 1.524 . S
C1473 C1470 1.403 . S
C1473 C1474 1.392 . S
C1473 C1477 1.495 . S
C1474 C1473 1.392 . S
C1474 C1475 1.385 . S
C1474 C1476 1.478 . S
C1475 H1469 0.930 . S
C1475 C1471 1.400 . S
C1475 C1474 1.385 . S
C1476 C1474 1.478 . S
C1476 C1478 1.381 . S
C1476 C1482 1.383 . S
C1477 C1473 1.495 . S
C1477 H1483 0.959 . S
C1477 H1484 0.961 . S
C1477 H1485 0.960 . S
C1478 C1476 1.381 . S
C1478 C1479 1.394 . S
C1478 H1486 0.930 . S
C1479 C1478 1.394 . S
C1479 C1480 1.383 . S
C1479 H1487 0.929 . S
C1480 C1479 1.383 . S
C1480 C1481 1.377 . S
C1481 H1465 0.930 . S
C1481 C1480 1.377 . S
C1481 C1482 1.379 . S
C1482 H1466 0.931 . S
C1482 C1476 1.383 . S
C1482 C1481 1.379 . S
H1483 C1477 0.959 . S
H1484 C1477 0.961 . S
H1485 C1477 0.960 . S
H1486 C1478 0.930 . S
H1487 C1479 0.929 . S
H1488 C1496 0.929 . S
H1489 C1498 0.930 . S
H1490 C1500 0.930 . S
H1491 C1503 0.929 . S
H1492 C1506 0.930 . S
H1493 C1508 0.960 . S
H1494 C1508 0.960 . S
H1495 C1508 0.960 . S
C1496 H1488 0.929 . S
C1496 C1497 1.377 . S
C1496 C1498 1.384 . S
C1497 C1496 1.377 . S
C1497 C1503 1.390 . S
C1498 H1489 0.930 . S
C1498 C1496 1.384 . S
C1498 C1499 1.372 . S
C1499 C1498 1.372 . S
C1499 C1500 1.400 . S
C1499 C1504 1.490 . S
C1500 H1490 0.930 . S
C1500 C1499 1.400 . S
C1500 C1503 1.386 . S
H1501 C1517 0.930 . S
H1502 C1518 0.931 . S
C1503 H1491 0.929 . S
C1503 C1497 1.390 . S
C1503 C1500 1.386 . S
C1504 C1499 1.490 . S
C1504 C1506 1.395 . S
C1504 C1507 1.403 . S
H1505 C1511 0.930 . S
C1506 H1492 0.930 . S
C1506 C1504 1.395 . S
C1506 C1509 1.403 . S
C1507 C1504 1.403 . S
C1507 C1508 1.524 . S
C1507 C1511 1.400 . S
C1508 H1493 0.960 . S
C1508 H1494 0.960 . S
C1508 H1495 0.960 . S
C1508 C1507 1.524 . S
C1509 C1506 1.403 . S
C1509 C1510 1.392 . S
C1509 C1513 1.495 . S
C1510 C1509 1.392 . S
C1510 C1511 1.385 . S
C1510 C1512 1.478 . S
C1511 H1505 0.930 . S
C1511 C1507 1.400 . S
C1511 C1510 1.385 . S
C1512 C1510 1.478 . S
C1512 C1514 1.381 . S
C1512 C1518 1.383 . S
C1513 C1509 1.495 . S
C1513 H1519 0.959 . S
C1513 H1520 0.961 . S
C1513 H1521 0.960 . S
C1514 C1512 1.381 . S
C1514 C1515 1.394 . S
C1514 H1522 0.930 . S
C1515 C1514 1.394 . S
C1515 C1516 1.383 . S
C1515 H1523 0.929 . S
C1516 C1515 1.383 . S
C1516 C1517 1.377 . S
C1517 H1501 0.930 . S
C1517 C1516 1.377 . S
C1517 C1518 1.379 . S
C1518 H1502 0.931 . S
C1518 C1512 1.383 . S
C1518 C1517 1.379 . S
H1519 C1513 0.959 . S
H1520 C1513 0.961 . S
H1521 C1513 0.960 . S
H1522 C1514 0.930 . S
H1523 C1515 0.929 . S
H1524 C1532 0.929 . S
H1525 C1534 0.930 . S
H1526 C1536 0.930 . S
H1527 C1539 0.929 . S
H1528 C1542 0.930 . S
H1529 C1544 0.960 . S
H1530 C1544 0.960 . S
H1531 C1544 0.960 . S
C1532 H1524 0.929 . S
C1532 C1533 1.377 . S
C1532 C1534 1.384 . S
C1533 C1532 1.377 . S
C1533 C1539 1.390 . S
C1534 H1525 0.930 . S
C1534 C1532 1.384 . S
C1534 C1535 1.372 . S
C1535 C1534 1.372 . S
C1535 C1536 1.400 . S
C1535 C1540 1.490 . S
C1536 H1526 0.930 . S
C1536 C1535 1.400 . S
C1536 C1539 1.386 . S
H1537 C1553 0.930 . S
H1538 C1554 0.931 . S
C1539 H1527 0.929 . S
C1539 C1533 1.390 . S
C1539 C1536 1.386 . S
C1540 C1535 1.490 . S
C1540 C1542 1.395 . S
C1540 C1543 1.403 . S
H1541 C1547 0.930 . S
C1542 H1528 0.930 . S
C1542 C1540 1.395 . S
C1542 C1545 1.403 . S
C1543 C1540 1.403 . S
C1543 C1544 1.524 . S
C1543 C1547 1.400 . S
C1544 H1529 0.960 . S
C1544 H1530 0.960 . S
C1544 H1531 0.960 . S
C1544 C1543 1.524 . S
C1545 C1542 1.403 . S
C1545 C1546 1.392 . S
C1545 C1549 1.495 . S
C1546 C1545 1.392 . S
C1546 C1547 1.385 . S
C1546 C1548 1.478 . S
C1547 H1541 0.930 . S
C1547 C1543 1.400 . S
C1547 C1546 1.385 . S
C1548 C1546 1.478 . S
C1548 C1550 1.381 . S
C1548 C1554 1.383 . S
C1549 C1545 1.495 . S
C1549 H1555 0.959 . S
C1549 H1556 0.961 . S
C1549 H1557 0.960 . S
C1550 C1548 1.381 . S
C1550 C1551 1.394 . S
C1550 H1558 0.930 . S
C1551 C1550 1.394 . S
C1551 C1552 1.383 . S
C1551 H1559 0.929 . S
C1552 C1551 1.383 . S
C1552 C1553 1.377 . S
C1553 H1537 0.930 . S
C1553 C1552 1.377 . S
C1553 C1554 1.379 . S
C1554 H1538 0.931 . S
C1554 C1548 1.383 . S
C1554 C1553 1.379 . S
H1555 C1549 0.959 . S
H1556 C1549 0.961 . S
H1557 C1549 0.960 . S
H1558 C1550 0.930 . S
H1559 C1551 0.929 . S
H1560 C1568 0.929 . S
H1561 C1570 0.930 . S
H1562 C1572 0.930 . S
H1563 C1575 0.929 . S
H1564 C1578 0.930 . S
H1565 C1580 0.960 . S
H1566 C1580 0.960 . S
H1567 C1580 0.960 . S
C1568 H1560 0.929 . S
C1568 C1569 1.377 . S
C1568 C1570 1.384 . S
C1569 C1568 1.377 . S
C1569 C1575 1.390 . S
C1570 H1561 0.930 . S
C1570 C1568 1.384 . S
C1570 C1571 1.372 . S
C1571 C1570 1.372 . S
C1571 C1572 1.400 . S
C1571 C1576 1.490 . S
C1572 H1562 0.930 . S
C1572 C1571 1.400 . S
C1572 C1575 1.386 . S
H1573 C1589 0.930 . S
H1574 C1590 0.931 . S
C1575 H1563 0.929 . S
C1575 C1569 1.390 . S
C1575 C1572 1.386 . S
C1576 C1571 1.490 . S
C1576 C1578 1.395 . S
C1576 C1579 1.403 . S
H1577 C1583 0.930 . S
C1578 H1564 0.930 . S
C1578 C1576 1.395 . S
C1578 C1581 1.403 . S
C1579 C1576 1.403 . S
C1579 C1580 1.524 . S
C1579 C1583 1.400 . S
C1580 H1565 0.960 . S
C1580 H1566 0.960 . S
C1580 H1567 0.960 . S
C1580 C1579 1.524 . S
C1581 C1578 1.403 . S
C1581 C1582 1.392 . S
C1581 C1585 1.495 . S
C1582 C1581 1.392 . S
C1582 C1583 1.385 . S
C1582 C1584 1.478 . S
C1583 H1577 0.930 . S
C1583 C1579 1.400 . S
C1583 C1582 1.385 . S
C1584 C1582 1.478 . S
C1584 C1586 1.381 . S
C1584 C1590 1.383 . S
C1585 C1581 1.495 . S
C1585 H1591 0.959 . S
C1585 H1592 0.961 . S
C1585 H1593 0.960 . S
C1586 C1584 1.381 . S
C1586 C1587 1.394 . S
C1586 H1594 0.930 . S
C1587 C1586 1.394 . S
C1587 C1588 1.383 . S
C1587 H1595 0.929 . S
C1588 C1587 1.383 . S
C1588 C1589 1.377 . S
C1589 H1573 0.930 . S
C1589 C1588 1.377 . S
C1589 C1590 1.379 . S
C1590 H1574 0.931 . S
C1590 C1584 1.383 . S
C1590 C1589 1.379 . S
H1591 C1585 0.959 . S
H1592 C1585 0.961 . S
H1593 C1585 0.960 . S
H1594 C1586 0.930 . S
H1595 C1587 0.929 . S
H1596 C1604 0.929 . S
H1597 C1606 0.930 . S
H1598 C1608 0.930 . S
H1599 C1611 0.929 . S
H1600 C1614 0.930 . S
H1601 C1616 0.960 . S
H1602 C1616 0.960 . S
H1603 C1616 0.960 . S
C1604 H1596 0.929 . S
C1604 C1605 1.377 . S
C1604 C1606 1.384 . S
C1605 C1604 1.377 . S
C1605 C1611 1.390 . S
C1606 H1597 0.930 . S
C1606 C1604 1.384 . S
C1606 C1607 1.372 . S
C1607 C1606 1.372 . S
C1607 C1608 1.400 . S
C1607 C1612 1.490 . S
C1608 H1598 0.930 . S
C1608 C1607 1.400 . S
C1608 C1611 1.386 . S
H1609 C1625 0.930 . S
H1610 C1626 0.931 . S
C1611 H1599 0.929 . S
C1611 C1605 1.390 . S
C1611 C1608 1.386 . S
C1612 C1607 1.490 . S
C1612 C1614 1.395 . S
C1612 C1615 1.403 . S
H1613 C1619 0.930 . S
C1614 H1600 0.930 . S
C1614 C1612 1.395 . S
C1614 C1617 1.403 . S
C1615 C1612 1.403 . S
C1615 C1616 1.524 . S
C1615 C1619 1.400 . S
C1616 H1601 0.960 . S
C1616 H1602 0.960 . S
C1616 H1603 0.960 . S
C1616 C1615 1.524 . S
C1617 C1614 1.403 . S
C1617 C1618 1.392 . S
C1617 C1621 1.495 . S
C1618 C1617 1.392 . S
C1618 C1619 1.385 . S
C1618 C1620 1.478 . S
C1619 H1613 0.930 . S
C1619 C1615 1.400 . S
C1619 C1618 1.385 . S
C1620 C1618 1.478 . S
C1620 C1622 1.381 . S
C1620 C1626 1.383 . S
C1621 C1617 1.495 . S
C1621 H1627 0.959 . S
C1621 H1628 0.961 . S
C1621 H1629 0.960 . S
C1622 C1620 1.381 . S
C1622 C1623 1.394 . S
C1622 H1630 0.930 . S
C1623 C1622 1.394 . S
C1623 C1624 1.383 . S
C1623 H1631 0.929 . S
C1624 C1623 1.383 . S
C1624 C1625 1.377 . S
C1625 H1609 0.930 . S
C1625 C1624 1.377 . S
C1625 C1626 1.379 . S
C1626 H1610 0.931 . S
C1626 C1620 1.383 . S
C1626 C1625 1.379 . S
H1627 C1621 0.959 . S
H1628 C1621 0.961 . S
H1629 C1621 0.960 . S
H1630 C1622 0.930 . S
H1631 C1623 0.929 . S
H1632 C1640 0.929 . S
H1633 C1642 0.930 . S
H1634 C1644 0.930 . S
H1635 C1647 0.929 . S
H1636 C1650 0.930 . S
H1637 C1652 0.960 . S
H1638 C1652 0.960 . S
H1639 C1652 0.960 . S
C1640 H1632 0.929 . S
C1640 C1641 1.377 . S
C1640 C1642 1.384 . S
C1641 C1640 1.377 . S
C1641 C1647 1.390 . S
C1642 H1633 0.930 . S
C1642 C1640 1.384 . S
C1642 C1643 1.372 . S
C1643 C1642 1.372 . S
C1643 C1644 1.400 . S
C1643 C1648 1.490 . S
C1644 H1634 0.930 . S
C1644 C1643 1.400 . S
C1644 C1647 1.386 . S
H1645 C1661 0.930 . S
H1646 C1662 0.931 . S
C1647 H1635 0.929 . S
C1647 C1641 1.390 . S
C1647 C1644 1.386 . S
C1648 C1643 1.490 . S
C1648 C1650 1.395 . S
C1648 C1651 1.403 . S
H1649 C1655 0.930 . S
C1650 H1636 0.930 . S
C1650 C1648 1.395 . S
C1650 C1653 1.403 . S
C1651 C1648 1.403 . S
C1651 C1652 1.524 . S
C1651 C1655 1.400 . S
C1652 H1637 0.960 . S
C1652 H1638 0.960 . S
C1652 H1639 0.960 . S
C1652 C1651 1.524 . S
C1653 C1650 1.403 . S
C1653 C1654 1.392 . S
C1653 C1657 1.495 . S
C1654 C1653 1.392 . S
C1654 C1655 1.385 . S
C1654 C1656 1.478 . S
C1655 H1649 0.930 . S
C1655 C1651 1.400 . S
C1655 C1654 1.385 . S
C1656 C1654 1.478 . S
C1656 C1658 1.381 . S
C1656 C1662 1.383 . S
C1657 C1653 1.495 . S
C1657 H1663 0.959 . S
C1657 H1664 0.961 . S
C1657 H1665 0.960 . S
C1658 C1656 1.381 . S
C1658 C1659 1.394 . S
C1658 H1666 0.930 . S
C1659 C1658 1.394 . S
C1659 C1660 1.383 . S
C1659 H1667 0.929 . S
C1660 C1659 1.383 . S
C1660 C1661 1.377 . S
C1661 H1645 0.930 . S
C1661 C1660 1.377 . S
C1661 C1662 1.379 . S
C1662 H1646 0.931 . S
C1662 C1656 1.383 . S
C1662 C1661 1.379 . S
H1663 C1657 0.959 . S
H1664 C1657 0.961 . S
H1665 C1657 0.960 . S
H1666 C1658 0.930 . S
H1667 C1659 0.929 . S
H1668 C1676 0.929 1_556 S
H1669 C1678 0.909 1_556 S
H1670 C1680 0.930 . S
H1671 C1683 0.929 . S
H1672 C1686 0.930 . S
H1673 C1688 0.960 . S
H1674 C1688 0.960 . S
H1675 C1688 0.960 . S
C1676 H1668 0.929 1_554 S
C1676 C1677 1.377 . S
C1676 C1678 1.385 . S
C1677 C1676 1.377 . S
C1677 C1683 1.390 . S
C1678 H1669 0.909 1_554 S
C1678 C1676 1.385 . S
C1678 C1679 1.392 . S
C1679 C1678 1.392 . S
C1679 C1680 1.400 . S
C1679 C1684 1.490 . S
C1680 H1670 0.930 . S
C1680 C1679 1.400 . S
C1680 C1683 1.386 . S
H1681 C1697 0.930 . S
H1682 C1698 0.931 . S
C1683 H1671 0.929 . S
C1683 C1677 1.390 . S
C1683 C1680 1.386 . S
C1684 C1679 1.490 . S
C1684 C1686 1.395 . S
C1684 C1687 1.403 . S
H1685 C1691 0.930 . S
C1686 H1672 0.930 . S
C1686 C1684 1.395 . S
C1686 C1689 1.403 . S
C1687 C1684 1.403 . S
C1687 C1688 1.524 . S
C1687 C1691 1.400 . S
C1688 H1673 0.960 . S
C1688 H1674 0.960 . S
C1688 H1675 0.960 . S
C1688 C1687 1.524 . S
C1689 C1686 1.403 . S
C1689 C1690 1.392 . S
C1689 C1693 1.495 . S
C1690 C1689 1.392 . S
C1690 C1691 1.385 . S
C1690 C1692 1.478 . S
C1691 H1685 0.930 . S
C1691 C1687 1.400 . S
C1691 C1690 1.385 . S
C1692 C1690 1.478 . S
C1692 C1694 1.381 1_554 S
C1692 C1698 1.383 . S
C1693 C1689 1.495 . S
C1693 H1699 0.959 . S
C1693 H1700 0.961 . S
C1693 H1701 0.960 1_554 S
C1694 C1692 1.381 1_556 S
C1694 C1695 1.394 . S
C1694 H1702 0.930 . S
C1695 C1694 1.394 . S
C1695 C1696 1.383 1_556 S
C1695 H1703 0.929 . S
C1696 C1695 1.383 1_554 S
C1696 C1697 1.377 . S
C1697 H1681 0.930 . S
C1697 C1696 1.377 . S
C1697 C1698 1.379 . S
C1698 H1682 0.931 . S
C1698 C1692 1.383 . S
C1698 C1697 1.379 . S
H1699 C1693 0.959 . S
H1700 C1693 0.961 . S
H1701 C1693 0.960 1_556 S
H1702 C1694 0.930 . S
H1703 C1695 0.929 . S
H1704 C1712 0.929 . S
H1705 C1714 0.930 . S
H1706 C1716 0.930 . S
H1707 C1719 0.929 . S
H1708 C1722 0.930 . S
H1709 C1724 0.960 . S
H1710 C1724 0.960 . S
H1711 C1724 0.960 . S
C1712 H1704 0.929 . S
C1712 C1713 1.377 . S
C1712 C1714 1.384 . S
C1713 C1712 1.377 . S
C1713 C1719 1.390 . S
C1714 H1705 0.930 . S
C1714 C1712 1.384 . S
C1714 C1715 1.372 . S
C1715 C1714 1.372 . S
C1715 C1716 1.400 . S
C1715 C1720 1.490 . S
C1716 H1706 0.930 . S
C1716 C1715 1.400 . S
C1716 C1719 1.386 . S
H1717 C1733 0.930 . S
H1718 C1734 0.931 . S
C1719 H1707 0.929 . S
C1719 C1713 1.390 . S
C1719 C1716 1.386 . S
C1720 C1715 1.490 . S
C1720 C1722 1.395 . S
C1720 C1723 1.403 . S
H1721 C1727 0.930 . S
C1722 H1708 0.930 . S
C1722 C1720 1.395 . S
C1722 C1725 1.403 . S
C1723 C1720 1.403 . S
C1723 C1724 1.524 . S
C1723 C1727 1.400 . S
C1724 H1709 0.960 . S
C1724 H1710 0.960 . S
C1724 H1711 0.960 . S
C1724 C1723 1.524 . S
C1725 C1722 1.403 . S
C1725 C1726 1.392 . S
C1725 C1729 1.495 . S
C1726 C1725 1.392 . S
C1726 C1727 1.385 . S
C1726 C1728 1.478 . S
C1727 H1721 0.930 . S
C1727 C1723 1.400 . S
C1727 C1726 1.385 . S
C1728 C1726 1.478 . S
C1728 C1730 1.381 . S
C1728 C1734 1.383 . S
C1729 C1725 1.495 . S
C1729 H1735 0.959 . S
C1729 H1736 0.961 . S
C1729 H1737 0.960 . S
C1730 C1728 1.381 . S
C1730 C1731 1.394 . S
C1730 H1738 0.930 . S
C1731 C1730 1.394 . S
C1731 C1732 1.383 . S
C1731 H1739 0.929 . S
C1732 C1731 1.383 . S
C1732 C1733 1.377 . S
C1733 H1717 0.930 . S
C1733 C1732 1.377 . S
C1733 C1734 1.379 . S
C1734 H1718 0.931 . S
C1734 C1728 1.383 . S
C1734 C1733 1.379 . S
H1735 C1729 0.959 . S
H1736 C1729 0.961 . S
H1737 C1729 0.960 . S
H1738 C1730 0.930 . S
H1739 C1731 0.929 . S
H1740 C1748 0.929 . S
H1741 C1750 0.930 . S
H1742 C1752 0.930 . S
H1743 C1755 0.929 . S
H1744 C1758 0.930 . S
H1745 C1760 0.960 . S
H1746 C1760 0.960 . S
H1747 C1760 0.960 . S
C1748 H1740 0.929 . S
C1748 C1749 1.377 . S
C1748 C1750 1.384 . S
C1749 C1748 1.377 . S
C1749 C1755 1.390 . S
C1750 H1741 0.930 . S
C1750 C1748 1.384 . S
C1750 C1751 1.372 . S
C1751 C1750 1.372 . S
C1751 C1752 1.400 . S
C1751 C1756 1.490 . S
C1752 H1742 0.930 . S
C1752 C1751 1.400 . S
C1752 C1755 1.386 . S
H1753 C1769 0.930 . S
H1754 C1770 0.931 . S
C1755 H1743 0.929 . S
C1755 C1749 1.390 . S
C1755 C1752 1.386 . S
C1756 C1751 1.490 . S
C1756 C1758 1.395 . S
C1756 C1759 1.403 . S
H1757 C1763 0.930 . S
C1758 H1744 0.930 . S
C1758 C1756 1.395 . S
C1758 C1761 1.403 . S
C1759 C1756 1.403 . S
C1759 C1760 1.524 . S
C1759 C1763 1.400 . S
C1760 H1745 0.960 . S
C1760 H1746 0.960 . S
C1760 H1747 0.960 . S
C1760 C1759 1.524 . S
C1761 C1758 1.403 . S
C1761 C1762 1.392 . S
C1761 C1765 1.495 . S
C1762 C1761 1.392 . S
C1762 C1763 1.385 . S
C1762 C1764 1.478 . S
C1763 H1757 0.930 . S
C1763 C1759 1.400 . S
C1763 C1762 1.385 . S
C1764 C1762 1.478 . S
C1764 C1766 1.381 . S
C1764 C1770 1.383 . S
C1765 C1761 1.495 . S
C1765 H1771 0.959 . S
C1765 H1772 0.961 . S
C1765 H1773 0.960 . S
C1766 C1764 1.381 . S
C1766 C1767 1.394 . S
C1766 H1774 0.930 . S
C1767 C1766 1.394 . S
C1767 C1768 1.383 . S
C1767 H1775 0.929 . S
C1768 C1767 1.383 . S
C1768 C1769 1.377 . S
C1769 H1753 0.930 . S
C1769 C1768 1.377 . S
C1769 C1770 1.379 . S
C1770 H1754 0.931 . S
C1770 C1764 1.383 . S
C1770 C1769 1.379 . S
H1771 C1765 0.959 . S
H1772 C1765 0.961 . S
H1773 C1765 0.960 . S
H1774 C1766 0.930 . S
H1775 C1767 0.929 . S
H1776 C1784 0.929 . S
H1777 C1786 0.930 . S
H1778 C1788 0.930 . S
H1779 C1791 0.929 . S
H1780 C1794 0.930 . S
H1781 C1796 0.960 . S
H1782 C1796 0.960 . S
H1783 C1796 0.960 . S
C1784 H1776 0.929 . S
C1784 C1785 1.377 . S
C1784 C1786 1.384 . S
C1785 C1784 1.377 . S
C1785 C1791 1.390 . S
C1786 H1777 0.930 . S
C1786 C1784 1.384 . S
C1786 C1787 1.372 . S
C1787 C1786 1.372 . S
C1787 C1788 1.400 . S
C1787 C1792 1.490 . S
C1788 H1778 0.930 . S
C1788 C1787 1.400 . S
C1788 C1791 1.386 . S
H1789 C1805 0.930 . S
H1790 C1806 0.931 . S
C1791 H1779 0.929 . S
C1791 C1785 1.390 . S
C1791 C1788 1.386 . S
C1792 C1787 1.490 . S
C1792 C1794 1.395 . S
C1792 C1795 1.403 . S
H1793 C1799 0.930 . S
C1794 H1780 0.930 . S
C1794 C1792 1.395 . S
C1794 C1797 1.403 . S
C1795 C1792 1.403 . S
C1795 C1796 1.524 . S
C1795 C1799 1.400 . S
C1796 H1781 0.960 . S
C1796 H1782 0.960 . S
C1796 H1783 0.960 . S
C1796 C1795 1.524 . S
C1797 C1794 1.403 . S
C1797 C1798 1.392 . S
C1797 C1801 1.495 . S
C1798 C1797 1.392 . S
C1798 C1799 1.385 . S
C1798 C1800 1.478 . S
C1799 H1793 0.930 . S
C1799 C1795 1.400 . S
C1799 C1798 1.385 . S
C1800 C1798 1.478 . S
C1800 C1802 1.381 . S
C1800 C1806 1.383 . S
C1801 C1797 1.495 . S
C1801 H1807 0.959 . S
C1801 H1808 0.961 . S
C1801 H1809 0.960 . S
C1802 C1800 1.381 . S
C1802 C1803 1.394 . S
C1802 H1810 0.930 . S
C1803 C1802 1.394 . S
C1803 C1804 1.383 . S
C1803 H1811 0.929 . S
C1804 C1803 1.383 . S
C1804 C1805 1.377 . S
C1805 H1789 0.930 . S
C1805 C1804 1.377 . S
C1805 C1806 1.379 . S
C1806 H1790 0.931 . S
C1806 C1800 1.383 . S
C1806 C1805 1.379 . S
H1807 C1801 0.959 . S
H1808 C1801 0.961 . S
H1809 C1801 0.960 . S
H1810 C1802 0.930 . S
H1811 C1803 0.929 . S
H1812 C1820 0.929 . S
H1813 C1822 0.930 . S
H1814 C1824 0.930 . S
H1815 C1827 0.929 . S
H1816 C1830 0.930 . S
H1817 C1832 0.960 . S
H1818 C1832 0.960 . S
H1819 C1832 0.960 . S
C1820 H1812 0.929 . S
C1820 C1821 1.377 . S
C1820 C1822 1.384 . S
C1821 C1820 1.377 . S
C1821 C1827 1.390 . S
C1822 H1813 0.930 . S
C1822 C1820 1.384 . S
C1822 C1823 1.372 . S
C1823 C1822 1.372 . S
C1823 C1824 1.400 . S
C1823 C1828 1.490 . S
C1824 H1814 0.930 . S
C1824 C1823 1.400 . S
C1824 C1827 1.386 . S
H1825 C1841 0.930 . S
H1826 C1842 0.931 . S
C1827 H1815 0.929 . S
C1827 C1821 1.390 . S
C1827 C1824 1.386 . S
C1828 C1823 1.490 . S
C1828 C1830 1.395 . S
C1828 C1831 1.403 . S
H1829 C1835 0.930 . S
C1830 H1816 0.930 . S
C1830 C1828 1.395 . S
C1830 C1833 1.403 . S
C1831 C1828 1.403 . S
C1831 C1832 1.524 . S
C1831 C1835 1.400 . S
C1832 H1817 0.960 . S
C1832 H1818 0.960 . S
C1832 H1819 0.960 . S
C1832 C1831 1.524 . S
C1833 C1830 1.403 . S
C1833 C1834 1.392 . S
C1833 C1837 1.495 . S
C1834 C1833 1.392 . S
C1834 C1835 1.385 . S
C1834 C1836 1.478 . S
C1835 H1829 0.930 . S
C1835 C1831 1.400 . S
C1835 C1834 1.385 . S
C1836 C1834 1.478 . S
C1836 C1838 1.381 . S
C1836 C1842 1.383 . S
C1837 C1833 1.495 . S
C1837 H1843 0.959 . S
C1837 H1844 0.961 . S
C1837 H1845 0.960 . S
C1838 C1836 1.381 . S
C1838 C1839 1.394 . S
C1838 H1846 0.930 . S
C1839 C1838 1.394 . S
C1839 C1840 1.383 . S
C1839 H1847 0.929 . S
C1840 C1839 1.383 . S
C1840 C1841 1.377 . S
C1841 H1825 0.930 . S
C1841 C1840 1.377 . S
C1841 C1842 1.379 . S
C1842 H1826 0.931 . S
C1842 C1836 1.383 . S
C1842 C1841 1.379 . S
H1843 C1837 0.959 . S
H1844 C1837 0.961 . S
H1845 C1837 0.960 . S
H1846 C1838 0.930 . S
H1847 C1839 0.929 . S
H1848 C1856 0.929 . S
H1849 C1858 0.930 . S
H1850 C1860 0.930 . S
H1851 C1863 0.929 . S
H1852 C1866 0.930 . S
H1853 C1868 0.960 . S
H1854 C1868 0.960 . S
H1855 C1868 0.960 . S
C1856 H1848 0.929 . S
C1856 C1857 1.377 . S
C1856 C1858 1.384 . S
C1857 C1856 1.377 . S
C1857 C1863 1.390 1_556 S
C1858 H1849 0.930 . S
C1858 C1856 1.384 . S
C1858 C1859 1.372 . S
C1859 C1858 1.372 . S
C1859 C1860 1.400 1_556 S
C1859 C1864 1.490 . S
C1860 H1850 0.930 . S
C1860 C1859 1.400 1_554 S
C1860 C1863 1.386 . S
H1861 C1877 0.930 . S
H1862 C1878 0.931 . S
C1863 H1851 0.929 . S
C1863 C1857 1.390 1_554 S
C1863 C1860 1.386 . S
C1864 C1859 1.490 . S
C1864 C1866 1.395 . S
C1864 C1867 1.403 . S
H1865 C1871 0.930 . S
C1866 H1852 0.930 . S
C1866 C1864 1.395 . S
C1866 C1869 1.403 . S
C1867 C1864 1.403 . S
C1867 C1868 1.524 . S
C1867 C1871 1.400 . S
C1868 H1853 0.960 . S
C1868 H1854 0.960 . S
C1868 H1855 0.960 . S
C1868 C1867 1.524 . S
C1869 C1866 1.403 . S
C1869 C1870 1.392 . S
C1869 C1873 1.495 1_556 S
C1870 C1869 1.392 . S
C1870 C1871 1.385 . S
C1870 C1872 1.478 . S
C1871 H1865 0.930 . S
C1871 C1867 1.400 . S
C1871 C1870 1.385 . S
C1872 C1870 1.478 . S
C1872 C1874 1.381 . S
C1872 C1878 1.383 1_556 S
C1873 C1869 1.495 1_554 S
C1873 H1879 0.959 . S
C1873 H1880 0.961 . S
C1873 H1881 0.960 1_554 S
C1874 C1872 1.381 . S
C1874 C1875 1.394 . S
C1874 H1882 0.930 . S
C1875 C1874 1.394 . S
C1875 C1876 1.383 . S
C1875 H1883 0.929 . S
C1876 C1875 1.383 . S
C1876 C1877 1.377 1_556 S
C1877 H1861 0.930 . S
C1877 C1876 1.377 1_554 S
C1877 C1878 1.379 . S
C1878 H1862 0.931 . S
C1878 C1872 1.383 1_554 S
C1878 C1877 1.379 . S
H1879 C1873 0.959 . S
H1880 C1873 0.961 . S
H1881 C1873 0.960 1_556 S
H1882 C1874 0.930 . S
H1883 C1875 0.929 . S
H1884 C1892 0.929 . S
H1885 C1894 0.930 . S
H1886 C1896 0.930 . S
H1887 C1899 0.929 . S
H1888 C1902 0.930 . S
H1889 C1904 0.960 . S
H1890 C1904 0.960 . S
H1891 C1904 0.960 . S
C1892 H1884 0.929 . S
C1892 C1893 1.377 . S
C1892 C1894 1.384 . S
C1893 C1892 1.377 . S
C1893 C1899 1.390 . S
C1894 H1885 0.930 . S
C1894 C1892 1.384 . S
C1894 C1895 1.372 . S
C1895 C1894 1.372 . S
C1895 C1896 1.400 . S
C1895 C1900 1.490 . S
C1896 H1886 0.930 . S
C1896 C1895 1.400 . S
C1896 C1899 1.386 . S
H1897 C1913 0.930 . S
H1898 C1914 0.931 . S
C1899 H1887 0.929 . S
C1899 C1893 1.390 . S
C1899 C1896 1.386 . S
C1900 C1895 1.490 . S
C1900 C1902 1.395 . S
C1900 C1903 1.403 . S
H1901 C1907 0.930 . S
C1902 H1888 0.930 . S
C1902 C1900 1.395 . S
C1902 C1905 1.403 . S
C1903 C1900 1.403 . S
C1903 C1904 1.524 . S
C1903 C1907 1.400 . S
C1904 H1889 0.960 . S
C1904 H1890 0.960 . S
C1904 H1891 0.960 . S
C1904 C1903 1.524 . S
C1905 C1902 1.403 . S
C1905 C1906 1.392 . S
C1905 C1909 1.495 . S
C1906 C1905 1.392 . S
C1906 C1907 1.385 . S
C1906 C1908 1.478 . S
C1907 H1901 0.930 . S
C1907 C1903 1.400 . S
C1907 C1906 1.385 . S
C1908 C1906 1.478 . S
C1908 C1910 1.381 . S
C1908 C1914 1.383 . S
C1909 C1905 1.495 . S
C1909 H1915 0.959 . S
C1909 H1916 0.961 . S
C1909 H1917 0.960 . S
C1910 C1908 1.381 . S
C1910 C1911 1.394 . S
C1910 H1918 0.930 . S
C1911 C1910 1.394 . S
C1911 C1912 1.383 . S
C1911 H1919 0.929 . S
C1912 C1911 1.383 . S
C1912 C1913 1.377 . S
C1913 H1897 0.930 . S
C1913 C1912 1.377 . S
C1913 C1914 1.379 . S
C1914 H1898 0.931 . S
C1914 C1908 1.383 . S
C1914 C1913 1.379 . S
H1915 C1909 0.959 . S
H1916 C1909 0.961 . S
H1917 C1909 0.960 . S
H1918 C1910 0.930 . S
H1919 C1911 0.929 . S
H1920 C1928 0.929 . S
H1921 C1930 0.930 . S
H1922 C1932 0.930 . S
H1923 C1935 0.929 . S
H1924 C1938 0.930 . S
H1925 C1940 0.960 . S
H1926 C1940 0.960 . S
H1927 C1940 0.960 . S
C1928 H1920 0.929 . S
C1928 C1929 1.377 . S
C1928 C1930 1.384 . S
C1929 C1928 1.377 . S
C1929 C1935 1.390 . S
C1930 H1921 0.930 . S
C1930 C1928 1.384 . S
C1930 C1931 1.372 . S
C1931 C1930 1.372 . S
C1931 C1932 1.400 . S
C1931 C1936 1.490 . S
C1932 H1922 0.930 . S
C1932 C1931 1.400 . S
C1932 C1935 1.386 . S
H1933 C1949 0.930 . S
H1934 C1950 0.931 . S
C1935 H1923 0.929 . S
C1935 C1929 1.390 . S
C1935 C1932 1.386 . S
C1936 C1931 1.490 . S
C1936 C1938 1.395 . S
C1936 C1939 1.403 . S
H1937 C1943 0.930 . S
C1938 H1924 0.930 . S
C1938 C1936 1.395 . S
C1938 C1941 1.403 . S
C1939 C1936 1.403 . S
C1939 C1940 1.524 . S
C1939 C1943 1.400 . S
C1940 H1925 0.960 . S
C1940 H1926 0.960 . S
C1940 H1927 0.960 . S
C1940 C1939 1.524 . S
C1941 C1938 1.403 . S
C1941 C1942 1.392 . S
C1941 C1945 1.495 . S
C1942 C1941 1.392 . S
C1942 C1943 1.385 . S
C1942 C1944 1.478 . S
C1943 H1937 0.930 . S
C1943 C1939 1.400 . S
C1943 C1942 1.385 . S
C1944 C1942 1.478 . S
C1944 C1946 1.381 . S
C1944 C1950 1.383 . S
C1945 C1941 1.495 . S
C1945 H1951 0.959 . S
C1945 H1952 0.961 . S
C1945 H1953 0.960 . S
C1946 C1944 1.381 . S
C1946 C1947 1.394 . S
C1946 H1954 0.930 . S
C1947 C1946 1.394 . S
C1947 C1948 1.383 . S
C1947 H1955 0.929 . S
C1948 C1947 1.383 . S
C1948 C1949 1.377 . S
C1949 H1933 0.930 . S
C1949 C1948 1.377 . S
C1949 C1950 1.379 . S
C1950 H1934 0.931 . S
C1950 C1944 1.383 . S
C1950 C1949 1.379 . S
H1951 C1945 0.959 . S
H1952 C1945 0.961 . S
H1953 C1945 0.960 . S
H1954 C1946 0.930 . S
H1955 C1947 0.929 . S
H1956 C1964 0.929 . S
H1957 C1966 0.930 . S
H1958 C1968 0.930 . S
H1959 C1971 0.929 . S
H1960 C1974 0.930 . S
H1961 C1976 0.960 . S
H1962 C1976 0.960 . S
H1963 C1976 0.960 . S
C1964 H1956 0.929 . S
C1964 C1965 1.377 . S
C1964 C1966 1.384 . S
C1965 C1964 1.377 . S
C1965 C1971 1.390 . S
C1966 H1957 0.930 . S
C1966 C1964 1.384 . S
C1966 C1967 1.372 . S
C1967 C1966 1.372 . S
C1967 C1968 1.400 . S
C1967 C1972 1.490 . S
C1968 H1958 0.930 . S
C1968 C1967 1.400 . S
C1968 C1971 1.386 . S
H1969 C1985 0.930 . S
H1970 C1986 0.931 . S
C1971 H1959 0.929 . S
C1971 C1965 1.390 . S
C1971 C1968 1.386 . S
C1972 C1967 1.490 . S
C1972 C1974 1.395 . S
C1972 C1975 1.403 . S
H1973 C1979 0.930 . S
C1974 H1960 0.930 . S
C1974 C1972 1.395 . S
C1974 C1977 1.403 . S
C1975 C1972 1.403 . S
C1975 C1976 1.524 . S
C1975 C1979 1.400 . S
C1976 H1961 0.960 . S
C1976 H1962 0.960 . S
C1976 H1963 0.960 . S
C1976 C1975 1.524 . S
C1977 C1974 1.403 . S
C1977 C1978 1.392 . S
C1977 C1981 1.495 . S
C1978 C1977 1.392 . S
C1978 C1979 1.385 . S
C1978 C1980 1.478 . S
C1979 H1973 0.930 . S
C1979 C1975 1.400 . S
C1979 C1978 1.385 . S
C1980 C1978 1.478 . S
C1980 C1982 1.381 . S
C1980 C1986 1.383 . S
C1981 C1977 1.495 . S
C1981 H1987 0.959 . S
C1981 H1988 0.961 . S
C1981 H1989 0.960 . S
C1982 C1980 1.381 . S
C1982 C1983 1.394 . S
C1982 H1990 0.930 . S
C1983 C1982 1.394 . S
C1983 C1984 1.383 . S
C1983 H1991 0.929 . S
C1984 C1983 1.383 . S
C1984 C1985 1.377 . S
C1985 H1969 0.930 . S
C1985 C1984 1.377 . S
C1985 C1986 1.379 . S
C1986 H1970 0.931 . S
C1986 C1980 1.383 . S
C1986 C1985 1.379 . S
H1987 C1981 0.959 . S
H1988 C1981 0.961 . S
H1989 C1981 0.960 . S
H1990 C1982 0.930 . S
H1991 C1983 0.929 . S
H1992 C2000 0.929 . S
H1993 C2002 0.930 . S
H1994 C2004 0.930 . S
H1995 C2007 0.929 . S
H1996 C2010 0.930 . S
H1997 C2012 0.960 . S
H1998 C2012 0.960 . S
H1999 C2012 0.960 . S
C2000 H1992 0.929 . S
C2000 C2001 1.377 . S
C2000 C2002 1.384 . S
C2001 C2000 1.377 . S
C2001 C2007 1.390 . S
C2002 H1993 0.930 . S
C2002 C2000 1.384 . S
C2002 C2003 1.372 . S
C2003 C2002 1.372 . S
C2003 C2004 1.400 . S
C2003 C2008 1.490 . S
C2004 H1994 0.930 . S
C2004 C2003 1.400 . S
C2004 C2007 1.386 . S
H2005 C2021 0.930 . S
H2006 C2022 0.931 . S
C2007 H1995 0.929 . S
C2007 C2001 1.390 . S
C2007 C2004 1.386 . S
C2008 C2003 1.490 . S
C2008 C2010 1.395 . S
C2008 C2011 1.403 . S
H2009 C2015 0.930 . S
C2010 H1996 0.930 . S
C2010 C2008 1.395 . S
C2010 C2013 1.403 . S
C2011 C2008 1.403 . S
C2011 C2012 1.524 . S
C2011 C2015 1.400 . S
C2012 H1997 0.960 . S
C2012 H1998 0.960 . S
C2012 H1999 0.960 . S
C2012 C2011 1.524 . S
C2013 C2010 1.403 . S
C2013 C2014 1.392 . S
C2013 C2017 1.495 . S
C2014 C2013 1.392 . S
C2014 C2015 1.385 . S
C2014 C2016 1.478 . S
C2015 H2009 0.930 . S
C2015 C2011 1.400 . S
C2015 C2014 1.385 . S
C2016 C2014 1.478 . S
C2016 C2018 1.381 . S
C2016 C2022 1.383 . S
C2017 C2013 1.495 . S
C2017 H2023 0.959 . S
C2017 H2024 0.961 . S
C2017 H2025 0.960 . S
C2018 C2016 1.381 . S
C2018 C2019 1.394 . S
C2018 H2026 0.930 . S
C2019 C2018 1.394 . S
C2019 C2020 1.383 . S
C2019 H2027 0.929 . S
C2020 C2019 1.383 . S
C2020 C2021 1.377 . S
C2021 H2005 0.930 . S
C2021 C2020 1.377 . S
C2021 C2022 1.379 . S
C2022 H2006 0.931 . S
C2022 C2016 1.383 . S
C2022 C2021 1.379 . S
H2023 C2017 0.959 . S
H2024 C2017 0.961 . S
H2025 C2017 0.960 . S
H2026 C2018 0.930 . S
H2027 C2019 0.929 . S
H2028 C2036 0.929 . S
H2029 C2038 0.930 . S
H2030 C2040 0.930 . S
H2031 C2043 0.929 . S
H2032 C2046 0.930 . S
H2033 C2048 0.960 . S
H2034 C2048 0.960 . S
H2035 C2048 0.960 . S
C2036 H2028 0.929 . S
C2036 C2037 1.377 . S
C2036 C2038 1.384 . S
C2037 C2036 1.377 . S
C2037 C2043 1.390 . S
C2038 H2029 0.930 . S
C2038 C2036 1.384 . S
C2038 C2039 1.372 . S
C2039 C2038 1.372 . S
C2039 C2040 1.400 . S
C2039 C2044 1.490 . S
C2040 H2030 0.930 . S
C2040 C2039 1.400 . S
C2040 C2043 1.386 . S
H2041 C2057 0.930 . S
H2042 C2058 0.931 . S
C2043 H2031 0.929 . S
C2043 C2037 1.390 . S
C2043 C2040 1.386 . S
C2044 C2039 1.490 . S
C2044 C2046 1.395 . S
C2044 C2047 1.403 . S
H2045 C2051 0.930 . S
C2046 H2032 0.930 . S
C2046 C2044 1.395 . S
C2046 C2049 1.403 . S
C2047 C2044 1.403 . S
C2047 C2048 1.524 . S
C2047 C2051 1.400 . S
C2048 H2033 0.960 . S
C2048 H2034 0.960 . S
C2048 H2035 0.960 . S
C2048 C2047 1.524 . S
C2049 C2046 1.403 . S
C2049 C2050 1.392 . S
C2049 C2053 1.495 . S
C2050 C2049 1.392 . S
C2050 C2051 1.385 . S
C2050 C2052 1.478 . S
C2051 H2045 0.930 . S
C2051 C2047 1.400 . S
C2051 C2050 1.385 . S
C2052 C2050 1.478 . S
C2052 C2054 1.381 . S
C2052 C2058 1.383 . S
C2053 C2049 1.495 . S
C2053 H2059 0.959 . S
C2053 H2060 0.961 . S
C2053 H2061 0.960 . S
C2054 C2052 1.381 . S
C2054 C2055 1.394 . S
C2054 H2062 0.930 . S
C2055 C2054 1.394 . S
C2055 C2056 1.383 . S
C2055 H2063 0.929 . S
C2056 C2055 1.383 . S
C2056 C2057 1.377 . S
C2057 H2041 0.930 . S
C2057 C2056 1.377 . S
C2057 C2058 1.379 . S
C2058 H2042 0.931 . S
C2058 C2052 1.383 . S
C2058 C2057 1.379 . S
H2059 C2053 0.959 . S
H2060 C2053 0.961 . S
H2061 C2053 0.960 . S
H2062 C2054 0.930 . S
H2063 C2055 0.929 . S
C345 C13 0.700 . S
C364 C39 0.739 . S
C381 C55 0.677 . S
C400 C36 0.585 . S
C417 C78 0.728 . S
C436 C56 0.724 . S
C453 C14 0.664 . S
C472 C81 0.657 . S
C489 C15 0.768 . S
C508 C206 0.801 . S
C525 C162 0.749 . S
C544 C38 0.711 . S
C561 C58 0.806 . S
C580 C224 0.824 . S
C597 C77 0.757 . S
C616 C288 0.782 . S
C633 C184 0.779 . S
C652 C35 0.785 . S
C669 C266 0.723 . S
C688 C57 0.708 . S
C705 C310 0.817 . S
C724 C80 0.830 . S
C741 C16 0.768 . S
C760 C248 0.766 . S
C777 C17 0.693 . S
C796 C186 0.653 . S
C813 C265 0.711 . S
C832 C100 0.694 . S
C849 C122 0.806 . S
C868 C311 0.836 . S
C885 C247 0.735 . S
C904 C139 0.764 . S
C921 C59 0.805 . S
C940 C164 0.796 . S
C957 C205 0.815 . S
C976 C97 0.766 . S
C993 C142 0.823 . S
C1012 C223 0.790 . S
C1029 C121 0.805 . S
C1048 C245 0.797 . S
C1065 C203 0.733 . S
C1084 C120 0.700 . S
C1101 C249 0.733 . S
C1120 C161 0.688 . S
C1137 C118 0.673 . S
C1156 C99 0.633 . S
C1173 C204 0.677 . S
C1192 C182 0.646 . S
C1209 C286 0.709 . S
C1228 C246 0.689 . S
C1245 C141 0.730 . S
C1264 C119 0.715 . S
C1281 C207 0.614 . S
C1300 C307 0.696 . S
C1317 C290 0.682 . S
C1336 C18 0.734 . S
C1353 C60 0.585 . S
C1372 C312 0.616 . S
C1389 C268 0.815 . S
C1408 C34 0.778 . S
C1425 C165 0.577 . S
C1444 C123 0.526 . S
C1461 C76 0.735 . S
C1480 C226 0.656 . S
C1497 C267 0.677 . S
C1516 C287 0.649 . S
C1533 C160 0.644 . S
C1552 C270 0.688 . S
C1569 C143 0.819 . S
C1588 C163 0.837 . S
C1605 C98 0.802 . S
C1624 C289 0.827 . S
C1641 C269 0.762 . S
C1660 C330 0.814 . S
C1677 C333 0.685 . S
C1696 C185 0.737 . S
C1713 C37 0.711 . S
C1732 C202 0.697 . S
C1749 C183 0.749 . S
C1768 C140 0.761 . S
C1785 C181 0.684 . S
C1804 C225 0.738 . S
C1821 C329 0.648 . S
C1840 C144 0.717 . S
C1857 C291 0.690 . S
C1876 C332 0.642 . S
C1893 C244 0.823 . S
C1912 C79 0.773 . S
C1929 C228 0.725 . S
C1948 C308 0.710 . S
C1965 C227 0.793 . S
C1984 C331 0.753 . S
C2001 C101 0.740 . S
C2020 C309 0.752 . S
C2037 C328 0.690 . S
C2056 C102 0.748 . S
