# Generated by pormake.
# Topology wjv, (5)-cn, num edge types: 1
# Building blocks:
#     Node 0, Type 0, BuildingBlock: XOMCOT_clean_sbu_1, # of connection points: 5
#     Node 1, Type 0, BuildingBlock: XOMCOT_clean_sbu_1, # of connection points: 5
#     Node 2, Type 0, BuildingBlock: XOMCOT_clean_sbu_1, # of connection points: 5
#     Node 3, Type 0, BuildingBlock: XOMCOT_clean_sbu_1, # of connection points: 5
#     Node 4, Type 0, BuildingBlock: XOMCOT_clean_sbu_1, # of connection points: 5
#     Node 5, Type 0, BuildingBlock: XOMCOT_clean_sbu_1, # of connection points: 5
#     Node 6, Type 0, BuildingBlock: XOMCOT_clean_sbu_1, # of connection points: 5
#     Node 7, Type 0, BuildingBlock: XOMCOT_clean_sbu_1, # of connection points: 5
#     Node 8, Type 0, BuildingBlock: XOMCOT_clean_sbu_1, # of connection points: 5
#     Node 9, Type 0, BuildingBlock: XOMCOT_clean_sbu_1, # of connection points: 5
#     Node 10, Type 0, BuildingBlock: XOMCOT_clean_sbu_1, # of connection points: 5
#     Node 11, Type 0, BuildingBlock: XOMCOT_clean_sbu_1, # of connection points: 5
#     Edge 12, Type (0, 0), BuildingBlock: ZUJKAS_clean_linker_0, # of connection points: 2
#     Edge 13, Type (0, 0), BuildingBlock: ZUJKAS_clean_linker_0, # of connection points: 2
#     Edge 14, Type (0, 0), BuildingBlock: ZUJKAS_clean_linker_0, # of connection points: 2
#     Edge 15, Type (0, 0), BuildingBlock: ZUJKAS_clean_linker_0, # of connection points: 2
#     Edge 16, Type (0, 0), BuildingBlock: ZUJKAS_clean_linker_0, # of connection points: 2
#     Edge 17, Type (0, 0), BuildingBlock: ZUJKAS_clean_linker_0, # of connection points: 2
#     Edge 18, Type (0, 0), BuildingBlock: ZUJKAS_clean_linker_0, # of connection points: 2
#     Edge 19, Type (0, 0), BuildingBlock: ZUJKAS_clean_linker_0, # of connection points: 2
#     Edge 20, Type (0, 0), BuildingBlock: ZUJKAS_clean_linker_0, # of connection points: 2
#     Edge 21, Type (0, 0), BuildingBlock: ZUJKAS_clean_linker_0, # of connection points: 2
#     Edge 22, Type (0, 0), BuildingBlock: ZUJKAS_clean_linker_0, # of connection points: 2
#     Edge 23, Type (0, 0), BuildingBlock: ZUJKAS_clean_linker_0, # of connection points: 2
#     Edge 24, Type (0, 0), BuildingBlock: ZUJKAS_clean_linker_0, # of connection points: 2
#     Edge 25, Type (0, 0), BuildingBlock: ZUJKAS_clean_linker_0, # of connection points: 2
#     Edge 26, Type (0, 0), BuildingBlock: ZUJKAS_clean_linker_0, # of connection points: 2
#     Edge 27, Type (0, 0), BuildingBlock: ZUJKAS_clean_linker_0, # of connection points: 2
#     Edge 28, Type (0, 0), BuildingBlock: ZUJKAS_clean_linker_0, # of connection points: 2
#     Edge 29, Type (0, 0), BuildingBlock: ZUJKAS_clean_linker_0, # of connection points: 2
#     Edge 30, Type (0, 0), BuildingBlock: ZUJKAS_clean_linker_0, # of connection points: 2
#     Edge 31, Type (0, 0), BuildingBlock: ZUJKAS_clean_linker_0, # of connection points: 2
#     Edge 32, Type (0, 0), BuildingBlock: ZUJKAS_clean_linker_0, # of connection points: 2
#     Edge 33, Type (0, 0), BuildingBlock: ZUJKAS_clean_linker_0, # of connection points: 2
#     Edge 34, Type (0, 0), BuildingBlock: ZUJKAS_clean_linker_0, # of connection points: 2
#     Edge 35, Type (0, 0), BuildingBlock: ZUJKAS_clean_linker_0, # of connection points: 2
#     Edge 36, Type (0, 0), BuildingBlock: ZUJKAS_clean_linker_0, # of connection points: 2
#     Edge 37, Type (0, 0), BuildingBlock: ZUJKAS_clean_linker_0, # of connection points: 2
#     Edge 38, Type (0, 0), BuildingBlock: ZUJKAS_clean_linker_0, # of connection points: 2
#     Edge 39, Type (0, 0), BuildingBlock: ZUJKAS_clean_linker_0, # of connection points: 2
#     Edge 40, Type (0, 0), BuildingBlock: ZUJKAS_clean_linker_0, # of connection points: 2
#     Edge 41, Type (0, 0), BuildingBlock: ZUJKAS_clean_linker_0, # of connection points: 2
# Relax obj value: 0.257
# Max RMSD: 0.171
# Mean RMSD: 0.171
data_MOF--net-wjv--node1-XOMCOT_clean_sbu_1--edge1-ZUJKAS_clean_linker_0
_symmetry_space_group_name_H-M    P1
_symmetry_Int_Tables_number       1
_symmetry_cell_setting            triclinic
loop_
_symmetry_equiv_pos_as_xyz
'x, y, z'
_cell_length_a     44.302409
_cell_length_b     44.326832
_cell_length_c     62.572877
_cell_angle_alpha  89.885605
_cell_angle_beta   90.164113
_cell_angle_gamma 119.98165
loop_
_atom_site_label
_atom_site_type_symbol
_atom_site_fract_x
_atom_site_fract_y
_atom_site_fract_z
_atom_type_partial_charge
C0 C 0.22424 0.31878 0.21889 0.0
C1 C 0.22798 0.30896 0.23911 0.0
N2 N 0.25482 0.33637 0.24881 0.0
N3 N 0.24828 0.35246 0.21564 0.0
C4 C 0.26676 0.36249 0.23421 0.0
H5 H 0.20593 0.30182 0.20699 0.0
Co6 Co 0.25415 0.37437 0.18875 0.0
C7 C 0.31833 0.44621 0.20798 0.0
O8 O 0.30852 0.46431 0.21971 0.0
N9 N 0.25957 0.39553 0.16163 0.0
C10 C 0.2784 0.43261 0.13426 0.0
C11 C 0.28377 0.42789 0.15533 0.0
C12 C 0.23975 0.38119 0.14392 0.0
N13 N 0.25072 0.40317 0.12705 0.0
O14 O 0.21875 0.3868 0.19608 0.0
H15 H 0.30439 0.44716 0.16517 0.0
H16 H 0.21754 0.35513 0.14333 0.0
O17 O 0.29476 0.41747 0.19979 0.0
C18 C 0.18995 0.36131 0.18904 0.0
O19 O 0.19081 0.33504 0.18003 0.0
N20 N 0.28341 0.35816 0.1808 0.0
C21 C 0.31102 0.31526 0.1743 0.0
C22 C 0.32742 0.34358 0.1883 0.0
C23 C 0.31267 0.36438 0.1917 0.0
C24 C 0.26883 0.33238 0.16594 0.0
C25 C 0.28252 0.31081 0.16219 0.0
H26 H 0.32287 0.38303 0.20453 0.0
H27 H 0.24438 0.32612 0.15854 0.0
H28 H 0.28898 0.38809 0.23689 0.0
H29 H 0.21293 0.28309 0.24583 0.0
H30 H 0.29413 0.45577 0.12484 0.0
H31 H 0.34929 0.34742 0.19807 0.0
H32 H 0.2685 0.28859 0.15172 0.0
C33 C 0.92042 0.22796 0.55182 0.0
C34 C 0.93796 0.2359 0.57093 0.0
N35 N 0.93258 0.25946 0.58114 0.0
N36 N 0.90408 0.24657 0.54965 0.0
C37 C 0.91168 0.26542 0.56799 0.0
H38 H 0.92067 0.21057 0.53983 0.0
Co39 Co 0.88185 0.24588 0.52369 0.0
C40 C 0.89212 0.3173 0.51813 0.0
O41 O 0.8937 0.3118 0.49765 0.0
N42 N 0.85866 0.2435 0.49758 0.0
C43 C 0.81621 0.23893 0.47626 0.0
C44 C 0.8289 0.24486 0.4968 0.0
C45 C 0.86322 0.23637 0.47714 0.0
N46 N 0.83781 0.2335 0.46384 0.0
O47 O 0.83632 0.21428 0.53615 0.0
H48 H 0.81677 0.24929 0.51049 0.0
H49 H 0.88443 0.23305 0.47183 0.0
O50 O 0.88418 0.2919 0.53136 0.0
C51 C 0.83243 0.18428 0.53135 0.0
O52 O 0.85802 0.18334 0.52145 0.0
N53 N 0.92563 0.27036 0.51127 0.0
C54 C 0.99395 0.28925 0.50296 0.0
C55 C 0.98641 0.31188 0.51414 0.0
C56 C 0.95193 0.30159 0.51858 0.0
C57 C 0.93297 0.24882 0.4997 0.0
C58 C 0.96702 0.25822 0.49477 0.0
H59 H 0.94728 0.31662 0.53023 0.0
H60 H 0.91276 0.22236 0.49658 0.0
H61 H 0.90347 0.28421 0.57123 0.0
H62 H 0.95389 0.22544 0.5768 0.0
H63 H 0.79224 0.23759 0.47111 0.0
H64 H 1.00702 0.33511 0.52167 0.0
H65 H 0.97234 0.23941 0.48718 0.0
C66 C 0.69809 0.90587 0.88609 0.0
C67 C 0.70844 0.92071 0.9059 0.0
N68 N 0.6819 0.92255 0.91517 0.0
N69 N 0.66507 0.89814 0.88244 0.0
C70 C 0.65576 0.90859 0.90044 0.0
H71 H 0.71407 0.90184 0.87472 0.0
Co72 Co 0.64342 0.8799 0.85596 0.0
C73 C 0.58612 0.89666 0.8521 0.0
O74 O 0.59418 0.90145 0.83171 0.0
N75 N 0.62186 0.86033 0.82917 0.0
C76 C 0.58113 0.82319 0.80671 0.0
C77 C 0.58843 0.83441 0.82752 0.0
C78 C 0.63452 0.86353 0.80903 0.0
N79 N 0.61025 0.84146 0.79501 0.0
O80 O 0.62569 0.83252 0.86664 0.0
H81 H 0.57048 0.82398 0.84078 0.0
H82 H 0.66128 0.88035 0.80464 0.0
O83 O 0.602 0.88557 0.86447 0.0
C84 C 0.64861 0.82534 0.8594 0.0
O85 O 0.67481 0.84932 0.84837 0.0
N86 N 0.66624 0.92488 0.84508 0.0
C87 C 0.71526 0.99197 0.83274 0.0
C88 C 0.68771 0.98626 0.84628 0.0
C89 C 0.66375 0.95246 0.85259 0.0
C90 C 0.69353 0.93034 0.83254 0.0
C91 C 0.71732 0.96334 0.82531 0.0
H92 H 0.64532 0.94908 0.86486 0.0
H93 H 0.69847 0.9093 0.82937 0.0
H94 H 0.63053 0.90638 0.90256 0.0
H95 H 0.7342 0.93034 0.91254 0.0
H96 H 0.55622 0.80293 0.80082 0.0
H97 H 0.68627 0.00776 0.8534 0.0
H98 H 0.7386 0.96656 0.81527 0.0
C99 C 0.79364 0.69656 0.21875 0.0
C100 C 0.78953 0.70766 0.23837 0.0
N101 N 0.75946 0.68282 0.24712 0.0
N102 N 0.76669 0.66453 0.2148 0.0
C103 C 0.7462 0.65665 0.23244 0.0
H104 H 0.81496 0.7113 0.20788 0.0
Co105 Co 0.76399 0.64215 0.18867 0.0
C106 C 0.6908 0.58354 0.18479 0.0
O107 O 0.69445 0.59213 0.16447 0.0
N108 N 0.76316 0.62 0.16236 0.0
C109 C 0.75887 0.57831 0.14048 0.0
C110 C 0.75483 0.58624 0.16112 0.0
C111 C 0.77406 0.63239 0.14231 0.0
N112 N 0.7711 0.60747 0.12874 0.0
O113 O 0.79525 0.62672 0.20006 0.0
H114 H 0.74653 0.56844 0.17451 0.0
H115 H 0.78481 0.6591 0.13745 0.0
O116 O 0.71745 0.59965 0.19745 0.0
C117 C 0.82512 0.65034 0.19294 0.0
O118 O 0.82618 0.67501 0.18076 0.0
N119 N 0.7397 0.66272 0.17714 0.0
C120 C 0.71474 0.70564 0.16266 0.0
C121 C 0.6963 0.67984 0.17806 0.0
C122 C 0.70949 0.65906 0.18531 0.0
C123 C 0.75858 0.68866 0.16296 0.0
C124 C 0.74572 0.709 0.15455 0.0
H125 H 0.69665 0.64199 0.19863 0.0
H126 H 0.78502 0.69552 0.15937 0.0
H127 H 0.72172 0.63262 0.23424 0.0
H128 H 0.80775 0.73238 0.24551 0.0
H129 H 0.75424 0.55336 0.13467 0.0
H130 H 0.67347 0.67751 0.18589 0.0
H131 H 0.76143 0.729 0.14305 0.0
C132 C 0.10767 0.79317 0.55451 0.0
C133 C 0.09429 0.78855 0.57478 0.0
N134 N 0.08968 0.75817 0.5826 0.0
N135 N 0.1118 0.76601 0.5493 0.0
C136 C 0.1004 0.74487 0.56674 0.0
H137 H 0.11351 0.81483 0.54404 0.0
Co138 Co 0.12878 0.7629 0.52235 0.0
C139 C 0.11128 0.68858 0.51774 0.0
O140 O 0.10563 0.69215 0.49751 0.0
N141 N 0.14711 0.76113 0.49517 0.0
C142 C 0.18241 0.75633 0.47182 0.0
C143 C 0.17252 0.75296 0.49287 0.0
C144 C 0.14305 0.77066 0.4752 0.0
N145 N 0.16389 0.76757 0.46074 0.0
O146 O 0.17673 0.79214 0.53245 0.0
H147 H 0.18348 0.74533 0.50585 0.0
H148 H 0.12577 0.78027 0.47105 0.0
O149 O 0.123 0.7154 0.53024 0.0
C150 C 0.18418 0.82243 0.52537 0.0
O151 O 0.16021 0.82516 0.51456 0.0
N152 N 0.0834 0.74134 0.51208 0.0
C153 C 0.01615 0.72286 0.4997 0.0
C154 C 0.02217 0.70073 0.51285 0.0
C155 C 0.056 0.71084 0.51927 0.0
C156 C 0.07764 0.76357 0.50005 0.0
C157 C 0.04449 0.75433 0.49293 0.0
H158 H 0.05955 0.69538 0.53123 0.0
H159 H 0.09866 0.78963 0.49699 0.0
H160 H 0.10001 0.72032 0.56784 0.0
H161 H 0.08765 0.80595 0.58295 0.0
H162 H 0.20248 0.75192 0.4653 0.0
H163 H 1.00078 0.6772 0.51954 0.0
H164 H 0.04088 0.77269 0.48337 0.0
C165 C 0.33202 0.11942 0.89201 0.0
C166 C 0.32361 0.10619 0.91234 0.0
N167 N 0.34521 0.09447 0.91812 0.0
N168 N 0.35918 0.11663 0.88482 0.0
C169 C 0.36654 0.10098 0.90113 0.0
H170 H 0.31877 0.13013 0.88295 0.0
Co171 Co 0.37773 0.13206 0.85725 0.0
C172 C 0.43513 0.11561 0.85195 0.0
O173 O 0.42448 0.10876 0.83202 0.0
N174 N 0.396 0.14894 0.82947 0.0
C175 C 0.43406 0.18353 0.80493 0.0
C176 C 0.42935 0.17422 0.82613 0.0
C177 C 0.38064 0.14449 0.81002 0.0
N178 N 0.40333 0.16493 0.79487 0.0
O179 O 0.39625 0.18037 0.86627 0.0
H180 H 0.44898 0.18565 0.8385 0.0
H181 H 0.35329 0.12748 0.80685 0.0
O182 O 0.4205 0.12759 0.86465 0.0
C183 C 0.37336 0.18747 0.85877 0.0
O184 O 0.34698 0.1633 0.8479 0.0
N185 N 0.35413 0.08614 0.84817 0.0
C186 C 0.30464 0.01795 0.83917 0.0
C187 C 0.33465 0.02529 0.85065 0.0
C188 C 0.35872 0.05964 0.8555 0.0
C189 C 0.32472 0.07908 0.83725 0.0
C190 C 0.3 0.0452 0.83204 0.0
H191 H 0.37922 0.06423 0.86654 0.0
H192 H 0.31901 0.09962 0.834 0.0
H193 H 0.38714 0.09466 0.90069 0.0
H194 H 0.30265 0.10462 0.92202 0.0
H195 H 0.4579 0.20342 0.79763 0.0
H196 H 0.33814 0.00455 0.85715 0.0
H197 H 0.27611 0.04022 0.82419 0.0
C198 C 0.70141 0.78021 0.48793 0.0
C199 C 0.71194 0.77707 0.46782 0.0
N200 N 0.68354 0.75593 0.45614 0.0
N201 N 0.66638 0.76143 0.48913 0.0
C202 C 0.65617 0.74682 0.46943 0.0
H203 H 0.7184 0.79434 0.50113 0.0
Co204 Co 0.64161 0.75606 0.51482 0.0
C205 C 0.57226 0.69146 0.49368 0.0
O206 O 0.55455 0.7013 0.48149 0.0
N207 N 0.61728 0.75094 0.54052 0.0
C208 C 0.58177 0.72727 0.56818 0.0
C209 C 0.58855 0.7222 0.54755 0.0
C210 C 0.62722 0.77336 0.55724 0.0
N211 N 0.6062 0.75946 0.57446 0.0
O212 O 0.63027 0.79138 0.50523 0.0
H213 H 0.57407 0.69823 0.5388 0.0
H214 H 0.65037 0.7988 0.55705 0.0
O215 O 0.60011 0.71499 0.50274 0.0
C216 C 0.65718 0.8204 0.51064 0.0
O217 O 0.68302 0.81919 0.52015 0.0
N218 N 0.65678 0.72676 0.52517 0.0
C219 C 0.69664 0.69765 0.53775 0.0
C220 C 0.67498 0.68493 0.51969 0.0
C221 C 0.65522 0.69995 0.51363 0.0
C222 C 0.67604 0.73792 0.54343 0.0
C223 C 0.69524 0.7229 0.55042 0.0
H224 H 0.64111 0.69204 0.4987 0.0
H225 H 0.67885 0.7604 0.55183 0.0
H226 H 0.62934 0.7294 0.46498 0.0
H227 H 0.73866 0.78845 0.46249 0.0
H228 H 0.56128 0.70778 0.57805 0.0
H229 H 0.67575 0.666 0.50914 0.0
H230 H 0.71136 0.73329 0.56456 0.0
C231 C 0.90775 0.68485 0.81575 0.0
C232 C 0.92418 0.69586 0.79644 0.0
N233 N 0.92809 0.67016 0.78785 0.0
N234 N 0.90075 0.65211 0.81963 0.0
C235 C 0.91329 0.64361 0.80221 0.0
H236 H 0.90207 0.70027 0.82661 0.0
Co237 Co 0.88142 0.63127 0.84616 0.0
C238 C 0.88975 0.56848 0.85043 0.0
O239 O 0.8933 0.57563 0.87095 0.0
N240 N 0.86095 0.61145 0.8729 0.0
C241 C 0.82009 0.5745 0.89522 0.0
C242 C 0.8319 0.57992 0.87456 0.0
C243 C 0.86573 0.625 0.89288 0.0
N244 N 0.84124 0.60299 0.90678 0.0
O245 O 0.83472 0.61769 0.83554 0.0
H246 H 0.81959 0.56219 0.86135 0.0
H247 H 0.88542 0.65109 0.8971 0.0
O248 O 0.88184 0.58672 0.83777 0.0
C249 C 0.82911 0.64165 0.84276 0.0
O250 O 0.85353 0.66674 0.85429 0.0
N251 N 0.92651 0.64996 0.85679 0.0
C252 C 0.99666 0.69559 0.86379 0.0
C253 C 0.98597 0.66437 0.85298 0.0
C254 C 0.95085 0.64259 0.84891 0.0
C255 C 0.93665 0.67961 0.86823 0.0
C256 C 0.97166 0.70255 0.87235 0.0
H257 H 0.94431 0.6226 0.83724 0.0
H258 H 0.91794 0.68762 0.87202 0.0
H259 H 0.91278 0.6191 0.80045 0.0
H260 H 0.93271 0.72112 0.78933 0.0
H261 H 0.79734 0.5514 0.90113 0.0
H262 H 1.0048 0.65898 0.84547 0.0
H263 H 0.97915 0.72731 0.87989 0.0
C264 C 0.22812 0.91231 0.15128 0.0
C265 C 0.23377 0.92845 0.13181 0.0
N266 N 0.25772 0.92417 0.12115 0.0
N267 N 0.24814 0.89744 0.15318 0.0
C268 C 0.2658 0.90488 0.13436 0.0
H269 H 0.21206 0.91343 0.16387 0.0
Co270 Co 0.253 0.88016 0.17994 0.0
C271 C 0.31849 0.87442 0.16179 0.0
O272 O 0.30748 0.84574 0.15062 0.0
N273 N 0.25761 0.86364 0.20684 0.0
C274 C 0.28168 0.8589 0.23698 0.0
C275 C 0.28725 0.86769 0.21573 0.0
C276 C 0.23419 0.8517 0.22304 0.0
N277 N 0.24837 0.84892 0.24152 0.0
O278 O 0.21939 0.83252 0.17123 0.0
H279 H 0.31214 0.87866 0.20786 0.0
H280 H 0.20824 0.84812 0.22187 0.0
O281 O 0.2959 0.88084 0.17012 0.0
C282 C 0.18979 0.82973 0.17589 0.0
O283 O 0.18972 0.8568 0.1843 0.0
N284 N 0.28015 0.92529 0.1892 0.0
C285 C 0.30305 0.99449 0.19695 0.0
C286 C 0.32013 0.9851 0.18189 0.0
C287 C 0.30791 0.95007 0.17802 0.0
C288 C 0.26517 0.93421 0.2051 0.0
C289 C 0.27662 0.96891 0.2095 0.0
H290 H 0.31853 0.94313 0.16466 0.0
H291 H 0.24195 0.91449 0.21293 0.0
H292 H 0.28599 0.89863 0.13101 0.0
H293 H 0.222 0.94335 0.12623 0.0
H294 H 0.30107 0.8614 0.24851 0.0
H295 H 0.34037 0.0045 0.17178 0.0
H296 H 0.26236 0.97542 0.22087 0.0
C297 C 0.32649 0.22006 0.48039 0.0
C298 C 0.31586 0.22569 0.46096 0.0
N299 N 0.34013 0.25717 0.45362 0.0
N300 N 0.35761 0.24757 0.48558 0.0
C301 C 0.36549 0.26989 0.46883 0.0
H302 H 0.31182 0.19748 0.4904 0.0
Co303 Co 0.37739 0.24884 0.51251 0.0
C304 C 0.43938 0.32021 0.5179 0.0
O305 O 0.43131 0.31572 0.53829 0.0
N306 N 0.3962 0.24796 0.53972 0.0
C307 C 0.43222 0.24391 0.56293 0.0
C308 C 0.42751 0.25003 0.54201 0.0
C309 C 0.38215 0.23992 0.55961 0.0
N310 N 0.40358 0.23737 0.57401 0.0
O311 O 0.39208 0.21637 0.50227 0.0
H312 H 0.44559 0.25504 0.52909 0.0
H313 H 0.35612 0.23414 0.56348 0.0
O314 O 0.42192 0.29446 0.50486 0.0
C315 C 0.36842 0.18657 0.50947 0.0
O316 O 0.34304 0.18535 0.52091 0.0
N317 N 0.3576 0.2743 0.52273 0.0
C318 C 0.31336 0.29931 0.5332 0.0
C319 C 0.34416 0.3203 0.52197 0.0
C320 C 0.36518 0.30675 0.51611 0.0
C321 C 0.32775 0.2537 0.53368 0.0
C322 C 0.30556 0.26587 0.5395 0.0
H323 H 0.38552 0.32139 0.50478 0.0
H324 H 0.31975 0.22669 0.53653 0.0
H325 H 0.38856 0.29537 0.46816 0.0
H326 H 0.29182 0.20783 0.45291 0.0
H327 H 0.45489 0.24388 0.56937 0.0
H328 H 0.35041 0.34582 0.51618 0.0
H329 H 0.28107 0.24808 0.54713 0.0
C330 C 0.08751 0.31478 0.82204 0.0
C331 C 0.07137 0.30463 0.80248 0.0
N332 N 0.08229 0.33314 0.7902 0.0
N333 N 0.10835 0.3497 0.82238 0.0
C334 C 0.10493 0.36021 0.80252 0.0
H335 H 0.08241 0.29798 0.83573 0.0
Co336 Co 0.12787 0.37396 0.84826 0.0
C337 C 0.13576 0.44521 0.82775 0.0
O338 O 0.16383 0.46505 0.8165 0.0
N339 N 0.14717 0.39753 0.87427 0.0
C340 C 0.16122 0.4332 0.90208 0.0
C341 C 0.14992 0.42757 0.88125 0.0
C342 C 0.15745 0.38567 0.89119 0.0
N343 N 0.16577 0.40669 0.90848 0.0
O344 O 0.17406 0.38237 0.83973 0.0
H345 H 0.14274 0.44383 0.87229 0.0
H346 H 0.15721 0.36119 0.89114 0.0
O347 O 0.13257 0.41713 0.83585 0.0
C348 C 0.17415 0.35504 0.84659 0.0
O349 O 0.1451 0.33009 0.85487 0.0
N350 N 0.0835 0.3615 0.85766 0.0
C351 C 0.01362 0.31892 0.8665 0.0
C352 C 0.02392 0.34208 0.84921 0.0
C353 C 0.05929 0.36324 0.84499 0.0
C354 C 0.0737 0.34162 0.8757 0.0
C355 C 0.03882 0.32093 0.88081 0.0
H356 H 0.06692 0.37794 0.83029 0.0
H357 H 0.09246 0.33847 0.88497 0.0
H358 H 0.11657 0.38719 0.7977 0.0
H359 H 0.05188 0.27847 0.79789 0.0
H360 H 0.164 0.45438 0.91203 0.0
H361 H 1.00515 0.34091 0.83762 0.0
H362 H 0.0317 0.3034 0.89434 0.0
C363 C 0.79549 0.10624 0.14795 0.0
C364 C 0.79091 0.0913 0.12817 0.0
N365 N 0.75907 0.08298 0.12071 0.0
N366 N 0.76699 0.10797 0.15323 0.0
C367 C 0.74515 0.09372 0.13624 0.0
H368 H 0.81824 0.11501 0.15799 0.0
Co369 Co 0.76401 0.12584 0.17993 0.0
C370 C 0.69048 0.11077 0.18441 0.0
O371 O 0.69438 0.10656 0.20481 0.0
N372 N 0.76268 0.14519 0.20685 0.0
C373 C 0.76161 0.18358 0.22933 0.0
C374 C 0.75744 0.17263 0.20848 0.0
C375 C 0.77077 0.14055 0.2271 0.0
N376 N 0.77009 0.16343 0.24106 0.0
O377 O 0.7941 0.17332 0.16941 0.0
H378 H 0.75159 0.18442 0.19514 0.0
H379 H 0.77766 0.12138 0.23174 0.0
O380 O 0.71695 0.12099 0.17174 0.0
C381 C 0.82407 0.18088 0.17718 0.0
O382 O 0.82616 0.15741 0.18891 0.0
N383 N 0.74138 0.08068 0.19055 0.0
C384 C 0.72122 0.01297 0.20267 0.0
C385 C 0.69953 0.01979 0.18966 0.0
C386 C 0.71046 0.0538 0.18338 0.0
C387 C 0.76306 0.0742 0.20267 0.0
C388 C 0.753 0.04078 0.20962 0.0
H389 H 0.69532 0.05778 0.17143 0.0
H390 H 0.78927 0.09485 0.20595 0.0
H391 H 0.71935 0.09054 0.1355 0.0
H392 H 0.80996 0.08716 0.11994 0.0
H393 H 0.75973 0.20552 0.23522 0.0
H394 H 0.67573 0.99884 0.18289 0.0
H395 H 0.77097 0.03653 0.21917 0.0
H396 H 0.28087 0.24648 0.43427 0.0
H397 H 0.2749 0.26822 0.3998 0.0
H398 H 0.38673 0.32799 0.39383 0.0
H399 H 0.3929 0.30488 0.4284 0.0
H400 H 0.2948 0.33223 0.38563 0.0
H401 H 0.36041 0.27656 0.33734 0.0
H402 H 0.34844 0.26463 0.3649 0.0
H403 H 0.38631 0.30555 0.35839 0.0
C404 C 0.30434 0.26391 0.42562 0.0
C405 C 0.33741 0.27325 0.43403 0.0
C406 C 0.30085 0.27662 0.40587 0.0
C407 C 0.33027 0.29924 0.39383 0.0
C408 C 0.36352 0.30987 0.40249 0.0
H409 H 0.32224 0.37306 0.26277 0.0
H410 H 0.34449 0.36874 0.29813 0.0
C411 C 0.36707 0.29699 0.42239 0.0
C412 C 0.32529 0.31127 0.37239 0.0
H413 H 0.33766 0.307 0.31868 0.0
C414 C 0.30452 0.32697 0.37104 0.0
C415 C 0.33789 0.30453 0.35321 0.0
C416 C 0.35927 0.28665 0.35338 0.0
C417 C 0.29534 0.33527 0.35124 0.0
C418 C 0.3069 0.32745 0.33207 0.0
C419 C 0.32883 0.31307 0.33335 0.0
C420 C 0.29394 0.33121 0.3107 0.0
C421 C 0.2729 0.35201 0.35102 0.0
C422 C 0.25826 0.31155 0.30593 0.0
C423 C 0.24559 0.31401 0.28588 0.0
C424 C 0.26823 0.33611 0.26994 0.0
C425 C 0.30404 0.35613 0.27474 0.0
C426 C 0.3168 0.35347 0.29489 0.0
H427 H 0.27476 0.36544 0.36635 0.0
H428 H 0.28039 0.37112 0.33777 0.0
H429 H 0.24527 0.33157 0.34868 0.0
H430 H 0.24011 0.29382 0.31767 0.0
H431 H 0.2179 0.29841 0.28284 0.0
H432 H 0.90089 0.26981 0.61517 0.0
H433 H 0.92593 0.28875 0.65126 0.0
H434 H 0.02416 0.30307 0.62885 0.0
H435 H 0.99918 0.28389 0.59312 0.0
H436 H 0.95863 0.253 0.67537 0.0
H437 H 0.04903 0.39455 0.66323 0.0
H438 H 0.01166 0.36941 0.6462 0.0
H439 H 0.05001 0.36579 0.64334 0.0
C440 C 0.928 0.27777 0.61792 0.0
C441 C 0.94811 0.27542 0.60137 0.0
C442 C 0.94224 0.28837 0.63852 0.0
C443 C 0.97704 0.29758 0.64275 0.0
C444 C 0.99743 0.2965 0.62598 0.0
H445 H 0.11699 0.35703 0.75287 0.0
H446 H 0.09079 0.34921 0.71706 0.0
C447 C 0.9831 0.28543 0.60558 0.0
C448 C 0.99156 0.30575 0.66489 0.0
H449 H 0.05417 0.37033 0.69588 0.0
C450 C 0.97924 0.27873 0.67997 0.0
C451 C 0.01899 0.33912 0.67072 0.0
C452 C 0.03319 0.36905 0.65512 0.0
C453 C 0.99407 0.2839 0.70053 0.0
C454 C 0.0212 0.31754 0.70662 0.0
C455 C 0.03335 0.34462 0.69146 0.0
C456 C 0.03753 0.32493 0.72844 0.0
C457 C 0.98139 0.25269 0.71508 0.0
C458 C 0.01677 0.31533 0.74694 0.0
C459 C 0.03171 0.31918 0.76722 0.0
C460 C 0.0679 0.33387 0.76963 0.0
C461 C 0.08905 0.34575 0.75137 0.0
C462 C 0.074 0.34116 0.73095 0.0
H463 H 0.96979 0.22799 0.70585 0.0
H464 H 1.00285 0.25425 0.7251 0.0
H465 H 0.9608 0.2514 0.72573 0.0
H466 H 0.98881 0.30415 0.7457 0.0
H467 H 0.01495 0.31014 0.78112 0.0
H468 H 0.73015 0.93876 0.94682 0.0
H469 H 0.73439 0.96708 0.98056 0.0
H470 H 0.64009 0.9688 0.96635 0.0
H471 H 0.63585 0.9409 0.93176 0.0
H472 H 0.74007 0.03292 0.98674 0.0
H473 H 0.62396 0.92695 0.02778 0.0
H474 H 0.64247 0.91913 1.0042 0.0
H475 H 0.61716 0.94036 1.00189 0.0
C476 C 0.71024 0.94522 0.95046 0.0
C477 C 0.68282 0.93763 0.93601 0.0
C478 C 0.71269 0.96137 0.97005 0.0
C479 C 0.68759 0.97008 0.97615 0.0
C480 C 0.65966 0.96204 0.96214 0.0
H481 H 0.70494 0.08153 0.09834 0.0
H482 H 0.68298 0.05513 0.06298 0.0
C483 C 0.65729 0.94602 0.94228 0.0
C484 C 0.69197 0.98848 0.99692 0.0
H485 H 0.65986 0.97742 0.04786 0.0
C486 C 0.7222 0.02096 0.99998 0.0
C487 C 0.66875 0.97298 1.01429 0.0
C488 C 0.63632 0.93784 1.01209 0.0
C489 C 0.73034 0.03774 0.01996 0.0
C490 C 0.70793 0.02161 0.03753 0.0
C491 C 0.67694 0.98985 0.03435 0.0
C492 C 0.71869 0.03553 0.05963 0.0
C493 C 0.76352 0.07226 0.02235 0.0
C494 C 0.74534 0.03255 0.0697 0.0
C495 C 0.75766 0.0472 0.08983 0.0
C496 C 0.74396 0.0657 0.10053 0.0
C497 C 0.71628 0.06766 0.0907 0.0
C498 C 0.70372 0.05264 0.07044 0.0
H499 H 0.77405 0.08478 1.00664 0.0
H500 H 0.75906 0.0903 0.03239 0.0
H501 H 0.78348 0.06807 0.03042 0.0
H502 H 0.75699 0.01911 0.06181 0.0
H503 H 0.77816 0.04398 0.09691 0.0
H504 H 0.70678 0.63038 0.27045 0.0
H505 H 0.68395 0.63595 0.30508 0.0
H506 H 0.75767 0.74608 0.30528 0.0
H507 H 0.77897 0.7414 0.27078 0.0
H508 H 0.71445 0.65724 0.34415 0.0
H509 H 0.67086 0.7482 0.31799 0.0
H510 H 0.68271 0.72511 0.29918 0.0
H511 H 0.71572 0.76499 0.31129 0.0
C512 C 0.71781 0.65588 0.27768 0.0
C513 C 0.74501 0.68534 0.26749 0.0
C514 C 0.70481 0.65899 0.29761 0.0
C515 C 0.71853 0.69162 0.30773 0.0
C516 C 0.74583 0.72076 0.29769 0.0
H517 H 0.72975 0.79241 0.42501 0.0
H518 H 0.73328 0.77239 0.38928 0.0
C519 C 0.7585 0.7178 0.27787 0.0
C520 C 0.70557 0.69578 0.329 0.0
H521 H 0.68191 0.74799 0.35582 0.0
C522 C 0.70662 0.67656 0.34662 0.0
C523 C 0.69509 0.72086 0.33237 0.0
C524 C 0.69066 0.74065 0.31413 0.0
C525 C 0.69962 0.68326 0.36755 0.0
C526 C 0.69119 0.70977 0.37098 0.0
C527 C 0.68863 0.72786 0.35327 0.0
C528 C 0.68786 0.7213 0.39285 0.0
C529 C 0.70295 0.66314 0.38598 0.0
C530 C 0.66069 0.69951 0.40677 0.0
C531 C 0.65852 0.71105 0.42736 0.0
C532 C 0.68364 0.74452 0.43445 0.0
C533 C 0.71028 0.76635 0.42024 0.0
C534 C 0.71226 0.75497 0.39973 0.0
H535 H 0.71457 0.6471 0.38104 0.0
H536 H 0.71924 0.68118 0.39887 0.0
H537 H 0.67673 0.64552 0.39272 0.0
H538 H 0.64122 0.6736 0.40173 0.0
H539 H 0.63778 0.6935 0.4379 0.0
H540 H 0.05159 0.68948 0.59397 0.0
H541 H 0.0223 0.66617 0.62849 0.0
H542 H 0.06627 0.77073 0.65277 0.0
H543 H 0.09532 0.7939 0.61874 0.0
H544 H 0.04647 0.67443 0.67221 0.0
H545 H 0.96124 0.73122 0.66007 0.0
H546 H 0.98609 0.72704 0.63863 0.0
H547 H 1.00663 0.76269 0.6572 0.0
C548 C 0.05531 0.70741 0.60678 0.0
C549 C 0.07532 0.74364 0.60339 0.0
C550 C 0.03847 0.69407 0.62648 0.0
C551 C 0.04133 0.71672 0.64311 0.0
C552 C 0.06281 0.7527 0.64006 0.0
H553 H 0.97954 0.7286 0.76942 0.0
H554 H 1.00477 0.73449 0.73417 0.0
C555 C 0.07943 0.76596 0.62052 0.0
C556 C 0.02131 0.7035 0.66347 0.0
H557 H 0.96461 0.71346 0.69566 0.0
C558 C 0.02811 0.68244 0.67722 0.0
C559 C 0.99715 0.71374 0.67002 0.0
C560 C 0.98703 0.73463 0.65562 0.0
C561 C 0.01289 0.67305 0.69774 0.0
C562 C 0.99005 0.68475 0.70461 0.0
C563 C 0.98223 0.70459 0.69049 0.0
C564 C 0.97616 0.67951 0.72688 0.0
C565 C 0.02254 0.65209 0.71233 0.0
C566 C 0.95183 0.6464 0.73487 0.0
C567 C 0.93684 0.6429 0.75523 0.0
C568 C 0.94575 0.67248 0.76788 0.0
C569 C 0.97119 0.70527 0.76004 0.0
C570 C 0.98594 0.70873 0.73984 0.0
H571 H 0.04425 0.64918 0.70582 0.0
H572 H 0.03021 0.66457 0.72831 0.0
H573 H 0.99956 0.62574 0.71452 0.0
H574 H 0.94358 0.62344 0.72511 0.0
H575 H 0.91736 0.61729 0.76071 0.0
H576 H 0.35273 0.03786 0.92509 0.0
H577 H 0.34173 0.0054 0.95897 0.0
H578 H 0.32481 0.08206 0.99055 0.0
H579 H 0.3347 0.11358 0.95689 0.0
H580 H 0.3696 0.01967 0.99982 0.0
H581 H 0.23431 0.99472 1.00276 0.0
H582 H 0.26112 0.01201 0.97927 0.0
H583 H 0.26524 0.04035 1.00107 0.0
C584 C 0.34709 0.04787 0.93938 0.0
C585 C 0.34407 0.07798 0.9383 0.0
C586 C 0.34067 0.02929 0.9587 0.0
C587 C 0.33134 0.04064 0.97726 0.0
C588 C 0.33072 0.07199 0.97639 0.0
H589 H 0.27155 0.98765 0.10758 0.0
H590 H 0.29143 0.01325 0.07232 0.0
C591 C 0.3366 0.09016 0.95715 0.0
C592 C 0.32111 0.01962 0.99742 0.0
H593 H 0.25679 0.98498 0.03514 0.0
C594 C 0.34478 0.01169 1.00744 0.0
C595 C 0.28852 0.00877 1.00735 0.0
C596 C 0.26071 0.01407 0.99694 0.0
C597 C 0.33751 0.995 0.02757 0.0
C598 C 0.30557 0.98565 0.03788 0.0
C599 C 0.28145 0.99242 0.02743 0.0
C600 C 0.29701 0.97076 0.05998 0.0
C601 C 0.36464 0.9888 0.03801 0.0
C602 C 0.29408 0.93844 0.06515 0.0
C603 C 0.28266 0.92363 0.08557 0.0
C604 C 0.27345 0.94063 0.10102 0.0
C605 C 0.27768 0.97347 0.09595 0.0
C606 C 0.28922 0.98826 0.07577 0.0
H607 H 0.39052 1.00408 0.03026 0.0
H608 H 0.36733 0.99564 0.05524 0.0
H609 H 0.35646 0.96078 0.03671 0.0
H610 H 0.29937 0.92406 0.05321 0.0
H611 H 0.27955 0.89827 0.08896 0.0
H612 H 0.19759 0.4547 0.93982 0.0
H613 H 0.20655 0.44419 0.97685 0.0
H614 H 0.16243 0.33479 0.96357 0.0
H615 H 0.15236 0.34477 0.92639 0.0
H616 H 0.15064 0.39592 1.00544 0.0
H617 H 0.25742 0.36523 0.99547 0.0
H618 H 0.24804 0.38876 0.97539 0.0
H619 H 0.21939 0.34286 0.97871 0.0
C620 C 0.18958 0.42831 0.94463 0.0
C621 C 0.17389 0.40062 0.92995 0.0
C622 C 0.19494 0.4224 0.96586 0.0
C623 C 0.18523 0.38876 0.97295 0.0
C624 C 0.17042 0.36104 0.95836 0.0
H625 H 0.2193 0.34164 0.10545 0.0
H626 H 0.19869 0.33245 0.06818 0.0
C627 C 0.16479 0.36688 0.93704 0.0
C628 C 0.18951 0.38308 0.99588 0.0
H629 H 0.2403 0.36818 0.03063 0.0
C630 C 0.16995 0.38943 1.01095 0.0
C631 C 0.21446 0.37429 1.00301 0.0
C632 C 0.23627 0.3675 0.9874 0.0
C633 C 0.17549 0.38841 0.03297 0.0
C634 C 0.20178 0.38155 0.04011 0.0
C635 C 0.22022 0.37352 0.02509 0.0
C636 C 0.21279 0.38615 0.06287 0.0
C637 C 0.15355 0.39526 0.04844 0.0
C638 C 0.22754 0.4193 0.07216 0.0
C639 C 0.23929 0.42459 0.09328 0.0
C640 C 0.23664 0.39686 0.10564 0.0
C641 C 0.22139 0.36345 0.09641 0.0
C642 C 0.20983 0.35821 0.07511 0.0
H643 H 0.12858 0.39009 0.04104 0.0
H644 H 0.14775 0.37892 0.063 0.0
H645 H 0.16802 0.42301 0.05336 0.0
H646 H 0.23047 0.44132 0.06294 0.0
H647 H 0.25054 0.45051 0.09996 0.0
H648 H 0.74595 0.18948 0.2713 0.0
H649 H 0.76107 0.1977 0.30916 0.0
H650 H 0.82654 0.15235 0.30046 0.0
H651 H 0.81242 0.14507 0.26224 0.0
H652 H 0.7503 0.14758 0.33962 0.0
H653 H 0.89151 0.24419 0.33118 0.0
H654 H 0.86109 0.23333 0.30934 0.0
H655 H 0.876 0.2039 0.31696 0.0
C656 C 0.76389 0.18161 0.27732 0.0
C657 C 0.77816 0.16689 0.26362 0.0
C658 C 0.77234 0.18611 0.29902 0.0
C659 C 0.79531 0.17611 0.30758 0.0
C660 C 0.80923 0.16083 0.29411 0.0
H661 H 0.86644 0.20123 0.44124 0.0
H662 H 0.85741 0.18526 0.40343 0.0
C663 C 0.80078 0.1563 0.27231 0.0
C664 C 0.80387 0.18131 0.33072 0.0
H665 H 0.86979 0.22811 0.3662 0.0
C666 C 0.77648 0.16502 0.34543 0.0
C667 C 0.83809 0.20386 0.33828 0.0
C668 C 0.86841 0.22259 0.32318 0.0
C669 C 0.78218 0.17123 0.36744 0.0
C670 C 0.81609 0.19486 0.37494 0.0
C671 C 0.84379 0.21014 0.36036 0.0
C672 C 0.82272 0.20554 0.3977 0.0
C673 C 0.75178 0.15257 0.38251 0.0
C674 C 0.80692 0.22301 0.40687 0.0
C675 C 0.81226 0.23253 0.4284 0.0
C676 C 0.83358 0.2248 0.44133 0.0
C677 C 0.85006 0.20793 0.4319 0.0
C678 C 0.8448 0.19856 0.41026 0.0
H679 H 0.73029 0.12863 0.37514 0.0
H680 H 0.75991 0.14534 0.39757 0.0
H681 H 0.74145 0.17006 0.38657 0.0
H682 H 0.7904 0.22935 0.39733 0.0
H683 H 0.79975 0.24613 0.43484 0.0
H684 H 0.56891 0.78588 0.76974 0.0
H685 H 0.57508 0.7798 0.73162 0.0
H686 H 0.66841 0.88038 0.73041 0.0
H687 H 0.66204 0.88745 0.76859 0.0
H688 H 0.57975 0.83155 0.69902 0.0
H689 H 0.6933 0.80987 0.69974 0.0
H690 H 0.66607 0.80147 0.72298 0.0
H691 H 0.69584 0.84542 0.71509 0.0
C692 C 0.59068 0.80697 0.76152 0.0
C693 C 0.6148 0.8373 0.77249 0.0
C694 C 0.5943 0.80325 0.73967 0.0
C695 C 0.6223 0.8295 0.72826 0.0
C696 C 0.64682 0.85961 0.73903 0.0
H697 H 0.66426 0.81471 0.59206 0.0
H698 H 0.67066 0.83684 0.62859 0.0
C699 C 0.64311 0.86353 0.76093 0.0
C700 C 0.62444 0.82573 0.70486 0.0
H701 H 0.66681 0.80641 0.66648 0.0
C702 C 0.59897 0.82637 0.69185 0.0
C703 C 0.64987 0.81955 0.69555 0.0
C704 C 0.67786 0.81884 0.70896 0.0
C705 C 0.59764 0.8201 0.66981 0.0
C706 C 0.62173 0.81174 0.66061 0.0
C707 C 0.64819 0.81258 0.67351 0.0
C708 C 0.61805 0.79938 0.63813 0.0
C709 C 0.5703 0.82252 0.65666 0.0
C710 C 0.58653 0.77085 0.63132 0.0
C711 C 0.58249 0.75864 0.6104 0.0
C712 C 0.61024 0.77392 0.59574 0.0
C713 C 0.64208 0.80242 0.60265 0.0
C714 C 0.64592 0.81498 0.62365 0.0
H715 H 0.56326 0.84102 0.66391 0.0
H716 H 0.57929 0.83104 0.64004 0.0
H717 H 0.54631 0.79658 0.65614 0.0
H718 H 0.56491 0.75765 0.6423 0.0
H719 H 0.55744 0.73701 0.60587 0.0
H720 H 0.78162 0.5718 0.93002 0.0
H721 H 0.77509 0.579 0.96796 0.0
H722 H 0.88408 0.656 0.97237 0.0
H723 H 0.89126 0.64836 0.93426 0.0
H724 H 0.81804 0.56885 1.00105 0.0
H725 H 0.82838 0.69939 1.00284 0.0
H726 H 0.81576 0.67304 0.97891 0.0
H727 H 0.86012 0.69409 0.98787 0.0
C728 C 0.80437 0.59015 0.93894 0.0
C729 C 0.83711 0.60912 0.929 0.0
C730 C 0.80046 0.59446 0.96065 0.0
C731 C 0.82903 0.61811 0.97291 0.0
C732 C 0.86161 0.63788 0.96308 0.0
H733 H 0.82744 0.66102 0.10988 0.0
H734 H 0.84424 0.66522 0.07212 0.0
C735 C 0.86564 0.63346 0.94128 0.0
C736 C 0.82474 0.6199 0.99625 0.0
H737 H 0.81704 0.66907 0.03546 0.0
C738 C 0.81804 0.59084 1.00864 0.0
C739 C 0.82528 0.64882 1.00608 0.0
C740 C 0.83263 0.68068 0.99334 0.0
C741 C 0.81129 0.5896 0.0306 0.0
C742 C 0.80985 0.61772 0.04032 0.0
C743 C 0.81774 0.64736 0.02801 0.0
C744 C 0.79917 0.61623 0.06301 0.0
C745 C 0.80623 0.55825 0.04311 0.0
C746 C 0.76782 0.58792 0.07035 0.0
C747 C 0.75869 0.58518 0.0919 0.0
C748 C 0.7801 0.61125 0.10643 0.0
C749 C 0.81055 0.64055 0.09895 0.0
C750 C 0.82013 0.64293 0.07742 0.0
H751 H 0.81999 0.54592 0.03546 0.0
H752 H 0.81583 0.56527 0.05978 0.0
H753 H 0.77807 0.53851 0.0435 0.0
H754 H 0.75045 0.56769 0.05944 0.0
H755 H 0.73472 0.56277 0.09723 0.0
H756 H 0.17794 0.73513 0.4292 0.0
H757 H 0.18725 0.7512 0.39138 0.0
H758 H 0.16628 0.83473 0.40332 0.0
H759 H 0.15689 0.8187 0.44135 0.0
H760 H 0.1339 0.79205 0.36421 0.0
H761 H 0.27622 0.84247 0.37139 0.0
H762 H 0.24893 0.80003 0.38274 0.0
H763 H 0.24899 0.83723 0.39412 0.0
C764 C 0.17534 0.75693 0.42378 0.0
C765 C 0.16704 0.77584 0.43827 0.0
C766 C 0.18054 0.766 0.40219 0.0
C767 C 0.17784 0.79437 0.39464 0.0
C768 C 0.16844 0.81272 0.40886 0.0
H769 H 0.27474 0.89266 0.27469 0.0
H770 H 0.25396 0.88157 0.31163 0.0
C771 C 0.16303 0.8035 0.43054 0.0
C772 C 0.18648 0.80555 0.37208 0.0
H773 H 0.25339 0.83555 0.33645 0.0
C774 C 0.16005 0.80188 0.35808 0.0
C775 C 0.2207 0.8188 0.36427 0.0
C776 C 0.2505 0.82522 0.37889 0.0
C777 C 0.16682 0.8103 0.33625 0.0
C778 C 0.2008 0.82203 0.32821 0.0
C779 C 0.22729 0.82639 0.34246 0.0
C780 C 0.21004 0.83026 0.30523 0.0
C781 C 0.1376 0.80697 0.32218 0.0
C782 C 0.19188 0.80555 0.2891 0.0
C783 C 0.20339 0.81237 0.26785 0.0
C784 C 0.23376 0.84347 0.26258 0.0
C785 C 0.25138 0.86842 0.27853 0.0
C786 C 0.2395 0.86203 0.29959 0.0
H787 H 0.11748 0.80896 0.33164 0.0
H788 H 0.1474 0.82728 0.30955 0.0
H789 H 0.12477 0.78102 0.31438 0.0
H790 H 0.16968 0.78047 0.29303 0.0
H791 H 0.18969 0.79275 0.25573 0.0
H792 H 0.34616 0.16404 0.77838 0.0
H793 H 0.33657 0.17342 0.74072 0.0
H794 H 0.43508 0.18253 0.72393 0.0
H795 H 0.44488 0.17355 0.76142 0.0
H796 H 0.40139 0.24024 0.71281 0.0
H797 H 0.34307 0.10343 0.68424 0.0
H798 H 0.33674 0.11392 0.71117 0.0
H799 H 0.37803 0.11913 0.70353 0.0
C800 C 0.3655 0.16765 0.76657 0.0
C801 C 0.39631 0.16814 0.77274 0.0
C802 C 0.36009 0.17317 0.74516 0.0
C803 C 0.38516 0.17865 0.72966 0.0
C804 C 0.41551 0.17841 0.73572 0.0
H805 H 0.43013 0.20478 0.59763 0.0
H806 H 0.42098 0.19048 0.63552 0.0
C807 C 0.42111 0.17337 0.75708 0.0
C808 C 0.38055 0.18556 0.70709 0.0
H809 H 0.36053 0.14733 0.65789 0.0
C810 C 0.39187 0.21994 0.70077 0.0
C811 C 0.36835 0.15896 0.69157 0.0
C812 C 0.35564 0.12165 0.69781 0.0
C813 C 0.39274 0.22871 0.67908 0.0
C814 C 0.38151 0.20221 0.66341 0.0
C815 C 0.36903 0.1676 0.6699 0.0
C816 C 0.38562 0.21023 0.64017 0.0
C817 C 0.40737 0.26646 0.67305 0.0
C818 C 0.36836 0.22566 0.63003 0.0
C819 C 0.37384 0.23424 0.60825 0.0
C820 C 0.39666 0.22748 0.59625 0.0
C821 C 0.41307 0.21114 0.60642 0.0
C822 C 0.40759 0.20261 0.62809 0.0
H823 H 0.42109 0.28424 0.68664 0.0
H824 H 0.42583 0.2736 0.65949 0.0
H825 H 0.38576 0.27069 0.66796 0.0
H826 H 0.3508 0.23121 0.63896 0.0
H827 H 0.36079 0.24678 0.60095 0.0
H828 H 0.65918 0.58904 0.22187 0.0
H829 H 0.59613 0.56355 0.22766 0.0
H830 H 0.57546 0.50475 0.16936 0.0
H831 H 0.63789 0.53037 0.16344 0.0
H832 H 0.54022 0.53927 0.1696 0.0
H833 H 0.51721 0.46994 0.24687 0.0
H834 H 0.55064 0.51495 0.24788 0.0
H835 H 0.55691 0.4849 0.23185 0.0
C836 C 0.64121 0.56969 0.21073 0.0
C837 C 0.65389 0.56155 0.19229 0.0
C838 C 0.60494 0.55519 0.21397 0.0
C839 C 0.58049 0.53193 0.19897 0.0
C840 C 0.59333 0.52257 0.1812 0.0
H841 H 0.35305 0.43224 0.17595 0.0
H842 H 0.41536 0.45126 0.17385 0.0
C843 C 0.62927 0.53706 0.17794 0.0
C844 C 0.5419 0.51915 0.20065 0.0
H845 H 0.47006 0.47478 0.23267 0.0
C846 C 0.52494 0.52503 0.1834 0.0
C847 C 0.52151 0.50056 0.21858 0.0
C848 C 0.53734 0.49187 0.23728 0.0
C849 C 0.48886 0.51352 0.18368 0.0
C850 C 0.46839 0.49477 0.20157 0.0
C851 C 0.48535 0.48898 0.21887 0.0
C852 C 0.42972 0.48186 0.20292 0.0
C853 C 0.47328 0.52251 0.16496 0.0
C854 C 0.41616 0.49158 0.2202 0.0
C855 C 0.38033 0.48014 0.22161 0.0
C856 C 0.35662 0.45823 0.20592 0.0
C857 C 0.37016 0.44849 0.18858 0.0
C858 C 0.40609 0.45985 0.1872 0.0
H859 H 0.49349 0.54489 0.15569 0.0
H860 H 0.46059 0.4998 0.15405 0.0
H861 H 0.45332 0.52901 0.17031 0.0
H862 H 0.43343 0.50843 0.2326 0.0
H863 H 0.37113 0.48832 0.23521 0.0
H864 H 0.90194 0.37214 0.4937 0.0
H865 H 0.93949 0.43392 0.50032 0.0
H866 H 0.95938 0.41153 0.56421 0.0
H867 H 0.92257 0.34866 0.5572 0.0
H868 H 0.94024 0.48034 0.52522 0.0
H869 H 0.05765 0.47151 0.54559 0.0
H870 H 0.01833 0.43472 0.5355 0.0
H871 H 0.02129 0.4474 0.56307 0.0
C872 C 0.91388 0.3801 0.50933 0.0
C873 C 0.90897 0.35492 0.52487 0.0
C874 C 0.9356 0.41582 0.5131 0.0
C875 C 0.95335 0.42808 0.53262 0.0
C876 C 0.94706 0.40317 0.54873 0.0
H877 H 0.07362 0.65832 0.55481 0.0
H878 H 0.03573 0.59547 0.56151 0.0
C879 C 0.92531 0.36704 0.54487 0.0
C880 C 0.97841 0.46675 0.53541 0.0
H881 H 0.06407 0.52757 0.54543 0.0
C882 C 0.96717 0.49046 0.52992 0.0
C883 C 0.01398 0.48066 0.54127 0.0
C884 C 0.02874 0.45734 0.54652 0.0
C885 C 0.99015 0.52689 0.52975 0.0
C886 C 0.02558 0.54064 0.53547 0.0
C887 C 0.03686 0.51721 0.54132 0.0
C888 C 0.05168 0.57889 0.53332 0.0
C889 C 0.9768 0.55057 0.52248 0.0
C890 C 0.0742 0.59079 0.51568 0.0
C891 C 0.09569 0.62659 0.5118 0.0
C892 C 0.09585 0.65179 0.52561 0.0
C893 C 0.07484 0.6399 0.54404 0.0
C894 C 0.05281 0.60384 0.54776 0.0
H895 H 0.9491 0.53586 0.51733 0.0
H896 H 0.97928 0.56831 0.53571 0.0
H897 H 0.9928 0.56697 0.50895 0.0
H898 H 0.07393 0.57232 0.50425 0.0
H899 H 0.11107 0.63463 0.49731 0.0
H900 H 0.48498 0.11132 0.82951 0.0
H901 H 0.51004 0.07423 0.83647 0.0
H902 H 0.45874 0.04591 0.89764 0.0
H903 H 0.43318 0.08315 0.89057 0.0
H904 H 0.55241 0.07035 0.86662 0.0
H905 H 0.42219 0.95077 0.86978 0.0
H906 H 0.42809 0.99208 0.86082 0.0
H907 H 0.42924 0.98392 0.88886 0.0
C908 C 0.47965 0.09795 0.84474 0.0
C909 C 0.45708 0.10058 0.8595 0.0
C910 C 0.49392 0.07644 0.84865 0.0
C911 C 0.4859 0.05641 0.8674 0.0
C912 C 0.46492 0.06041 0.88281 0.0
H913 H 0.59488 0.93494 0.88908 0.0
H914 H 0.57014 0.97291 0.89604 0.0
C915 C 0.45073 0.08229 0.87893 0.0
C916 C 0.49863 0.03072 0.87001 0.0
H917 H 0.47098 0.94336 0.87321 0.0
C918 C 0.53457 0.04264 0.86838 0.0
C919 C 0.47554 0.99429 0.87192 0.0
C920 C 0.43659 0.97929 0.87277 0.0
C921 C 0.54785 0.01949 0.86833 0.0
C922 C 0.52477 0.98309 0.8702 0.0
C923 C 0.48888 0.97117 0.87209 0.0
C924 C 0.537 0.957 0.86798 0.0
C925 C 0.58646 0.03413 0.86525 0.0
C926 C 0.52559 0.93396 0.85055 0.0
C927 C 0.5396 0.91225 0.84662 0.0
C928 C 0.56514 0.91234 0.86016 0.0
C929 C 0.57495 0.93368 0.87846 0.0
C930 C 0.56115 0.95587 0.88227 0.0
H931 H 0.59984 0.06186 0.86017 0.0
H932 H 0.59827 0.03243 0.88054 0.0
H933 H 0.59135 0.01886 0.85308 0.0
H934 H 0.507 0.934 0.83927 0.0
H935 H 0.53161 0.89649 0.83226 0.0
H936 H 0.4876 0.37439 0.54135 0.0
H937 H 0.51116 0.43646 0.53523 0.0
H938 H 0.46262 0.41468 0.47315 0.0
H939 H 0.43839 0.35172 0.47928 0.0
H940 H 0.53678 0.47747 0.47704 0.0
H941 H 0.4437 0.47818 0.536 0.0
H942 H 0.4675 0.45731 0.54472 0.0
H943 H 0.43688 0.43881 0.52311 0.0
C944 C 0.48243 0.38259 0.52611 0.0
C945 C 0.46083 0.35758 0.51085 0.0
C946 C 0.49579 0.41832 0.52273 0.0
C947 C 0.48824 0.43054 0.50392 0.0
C948 C 0.46871 0.40603 0.48791 0.0
H949 H 0.53047 0.63905 0.46613 0.0
H950 H 0.51111 0.57682 0.46831 0.0
C951 C 0.4551 0.36992 0.49133 0.0
C952 C 0.49962 0.46863 0.50175 0.0
H953 H 0.48841 0.53321 0.52385 0.0
C954 C 0.52594 0.48954 0.48712 0.0
C955 C 0.48581 0.48476 0.515 0.0
C956 C 0.45671 0.4637 0.53051 0.0
C957 C 0.53909 0.52591 0.48573 0.0
C958 C 0.52555 0.54204 0.49914 0.0
C959 C 0.49907 0.5211 0.51364 0.0
C960 C 0.53796 0.58041 0.49789 0.0
C961 C 0.56807 0.54722 0.47024 0.0
C962 C 0.55939 0.60357 0.51389 0.0
C963 C 0.57077 0.63949 0.51263 0.0
C964 C 0.56079 0.65326 0.49541 0.0
C965 C 0.53891 0.62976 0.47962 0.0
C966 C 0.52783 0.594 0.48079 0.0
H967 H 0.57855 0.53172 0.46264 0.0
H968 H 0.5582 0.55753 0.4575 0.0
H969 H 0.58963 0.56986 0.47859 0.0
H970 H 0.56745 0.59387 0.52736 0.0
H971 H 0.58698 0.65628 0.52535 0.0
H972 H 0.92712 0.57487 0.81318 0.0
H973 H 0.96655 0.55152 0.80758 0.0
H974 H 0.92958 0.49219 0.86578 0.0
H975 H 0.89085 0.51561 0.87158 0.0
H976 H 0.02103 0.56077 0.83673 0.0
H977 H 0.92835 0.42025 0.82426 0.0
H978 H 0.9159 0.45307 0.82105 0.0
H979 H 0.91909 0.43833 0.8473 0.0
C980 C 0.92655 0.55604 0.82444 0.0
C981 C 0.90552 0.54721 0.84286 0.0
C982 C 0.94947 0.54292 0.82134 0.0
C983 C 0.95122 0.51987 0.83622 0.0
C984 C 0.92867 0.50946 0.85385 0.0
H985 H 0.08568 0.42889 0.85958 0.0
H986 H 0.04105 0.44621 0.86145 0.0
C987 C 0.90629 0.52288 0.85711 0.0
C988 C 0.97792 0.5084 0.83434 0.0
H989 H 0.98725 0.43613 0.83159 0.0
C990 C 0.01357 0.53353 0.83535 0.0
C991 C 0.96853 0.47281 0.83292 0.0
C992 C 0.93091 0.44451 0.83113 0.0
C993 C 0.03974 0.52411 0.83531 0.0
C994 C 0.03036 0.48853 0.83377 0.0
C995 C 0.99471 0.46339 0.8328 0.0
C996 C 0.05718 0.47712 0.83253 0.0
C997 C 0.07731 0.55238 0.83757 0.0
C998 C 0.08111 0.48812 0.81557 0.0
C999 C 0.10617 0.47759 0.81423 0.0
C1000 C 0.10815 0.45549 0.82972 0.0
C1001 C 0.0844 0.44477 0.84688 0.0
C1002 C 0.05897 0.45504 0.8481 0.0
H1003 H 0.07968 0.57666 0.84429 0.0
H1004 H 0.09188 0.54375 0.84802 0.0
H1005 H 0.0898 0.55858 0.82159 0.0
H1006 H 0.08024 0.50474 0.80316 0.0
H1007 H 0.12394 0.48665 0.80081 0.0
H1008 H 0.65929 0.07098 0.14808 0.0
H1009 H 0.59632 0.03235 0.14224 0.0
H1010 H 0.57446 0.07383 0.1985 0.0
H1011 H 0.63694 0.11162 0.20468 0.0
H1012 H 0.5482 0.98147 0.17899 0.0
H1013 H 0.50802 0.07365 0.1476 0.0
H1014 H 0.55123 0.08014 0.14339 0.0
H1015 H 0.53922 0.08822 0.16917 0.0
C1016 C 0.64113 0.07269 0.15883 0.0
C1017 C 0.65347 0.09485 0.17677 0.0
C1018 C 0.60501 0.05023 0.15562 0.0
C1019 C 0.58038 0.04998 0.16995 0.0
C1020 C 0.59267 0.07347 0.18712 0.0
H1021 H 0.35387 0.93042 0.18968 0.0
H1022 H 0.41633 0.97267 0.19109 0.0
C1023 C 0.62856 0.09536 0.19054 0.0
C1024 C 0.54207 0.02407 0.16795 0.0
H1025 H 0.46299 0.01695 0.15643 0.0
C1026 C 0.52964 0.98917 0.17381 0.0
C1027 C 0.51756 0.03404 0.16164 0.0
C1028 C 0.52942 0.07098 0.15496 0.0
C1029 C 0.49363 0.96428 0.17371 0.0
C1030 C 0.46907 0.97415 0.16719 0.0
C1031 C 0.48154 0.00912 0.16139 0.0
C1032 C 0.43051 0.94844 0.16613 0.0
C1033 C 0.48193 0.92773 0.18122 0.0
C1034 C 0.41708 0.92055 0.15157 0.0
C1035 C 0.38105 0.8967 0.15036 0.0
C1036 C 0.35713 0.89985 0.16369 0.0
C1037 C 0.37083 0.9275 0.17857 0.0
C1038 C 0.40686 0.95166 0.17957 0.0
H1039 H 0.50294 0.92604 0.18991 0.0
H1040 H 0.45894 0.91824 0.19188 0.0
H1041 H 0.47416 0.9101 0.1672 0.0
H1042 H 0.4345 0.9174 0.14089 0.0
H1043 H 0.37191 0.87587 0.13874 0.0
H1044 H 0.14814 0.358 0.2227 0.0
H1045 H 0.0849 0.33637 0.22047 0.0
H1046 H 0.09052 0.336 0.15176 0.0
H1047 H 0.15313 0.35747 0.15396 0.0
H1048 H 0.03957 0.35918 0.19474 0.0
H1049 H 0.02399 0.23151 0.17093 0.0
H1050 H 0.06259 0.2646 0.18426 0.0
H1051 H 0.05615 0.26861 0.15629 0.0
C1052 C 0.13612 0.35488 0.20716 0.0
C1053 C 0.15587 0.36033 0.18849 0.0
C1054 C 0.09985 0.34205 0.20587 0.0
C1055 C 0.08268 0.33411 0.18591 0.0
C1056 C 0.1029 0.34166 0.16733 0.0
H1057 H 0.86727 0.20394 0.14257 0.0
H1058 H 0.93024 0.24526 0.14398 0.0
C1059 C 0.13887 0.35441 0.16862 0.0
C1060 C 0.04361 0.3152 0.18423 0.0
H1061 H 0.97398 0.23728 0.16872 0.0
C1062 C 0.02518 0.33248 0.18915 0.0
C1063 C 0.02464 0.28036 0.17683 0.0
C1064 C 0.04267 0.25994 0.17191 0.0
C1065 C 0.9886 0.31619 0.18642 0.0
C1066 C 0.96957 0.28128 0.17894 0.0
C1067 C 0.98818 0.26405 0.17421 0.0
C1068 C 0.9304 0.26144 0.17664 0.0
C1069 C 0.97092 0.33702 0.19101 0.0
C1070 C 0.90879 0.25738 0.19413 0.0
C1071 C 0.87265 0.23432 0.1931 0.0
C1072 C 0.85695 0.21458 0.17459 0.0
C1073 C 0.87818 0.2199 0.1567 0.0
C1074 C 0.91441 0.24307 0.15769 0.0
H1075 H 0.98936 0.36543 0.18947 0.0
H1076 H 0.94854 0.32974 0.18008 0.0
H1077 H 0.96114 0.33194 0.20769 0.0
H1078 H 0.92006 0.2701 0.20917 0.0
H1079 H 0.85735 0.22964 0.20748 0.0
H1080 H 0.61501 0.84697 0.52294 0.0
H1081 H 0.633 0.90929 0.52565 0.0
H1082 H 0.73073 0.93621 0.49557 0.0
H1083 H 0.71257 0.87472 0.49247 0.0
H1084 H 0.68565 0.95834 0.54832 0.0
H1085 H 0.71031 1.00214 0.4645 0.0
H1086 H 0.68657 0.95658 0.47156 0.0
H1087 H 0.73357 0.98 0.47119 0.0
C1088 C 0.63955 0.86619 0.51598 0.0
C1089 C 0.6619 0.85575 0.5069 0.0
C1090 C 0.65016 0.90194 0.51784 0.0
C1091 C 0.68321 0.92797 0.51053 0.0
C1092 C 0.70478 0.91718 0.50079 0.0
H1093 H 0.82572 0.13308 0.55759 0.0
H1094 H 0.78447 0.071 0.55346 0.0
C1095 C 0.69429 0.88176 0.49899 0.0
C1096 C 0.69681 0.96619 0.51465 0.0
H1097 H 0.74122 0.04674 0.49112 0.0
C1098 C 0.69724 0.97756 0.5357 0.0
C1099 C 0.71173 0.99179 0.49832 0.0
C1100 C 0.71019 0.98195 0.47511 0.0
C1101 C 0.71343 0.01333 0.54096 0.0
C1102 C 0.73055 0.03894 0.52487 0.0
C1103 C 0.72861 0.02754 0.50366 0.0
C1104 C 0.75237 0.07734 0.52976 0.0
C1105 C 0.71193 0.0232 0.56382 0.0
C1106 C 0.74845 0.10245 0.51808 0.0
C1107 C 0.77218 0.13838 0.52062 0.0
C1108 C 0.8004 0.1501 0.53491 0.0
C1109 C 0.80338 0.12509 0.5472 0.0
C1110 C 0.77979 0.08934 0.54469 0.0
H1111 H 0.68829 1.00269 0.57199 0.0
H1112 H 0.73496 0.02593 0.57261 0.0
H1113 H 0.71196 0.04822 0.56484 0.0
H1114 H 0.72793 0.09422 0.50625 0.0
H1115 H 0.77008 0.15675 0.51015 0.0
H1116 H 0.6692 0.8012 0.89335 0.0
H1117 H 0.691 0.76002 0.89084 0.0
H1118 H 0.65322 0.73574 0.82611 0.0
H1119 H 0.63156 0.77685 0.82862 0.0
H1120 H 0.6471 0.67513 0.85485 0.0
H1121 H 0.77878 0.79292 0.84888 0.0
H1122 H 0.75059 0.79145 0.87003 0.0
H1123 H 0.73953 0.79414 0.84278 0.0
C1124 C 0.66374 0.78557 0.87904 0.0
C1125 C 0.64738 0.79136 0.86148 0.0
C1126 C 0.67681 0.76247 0.87745 0.0
C1127 C 0.674 0.74478 0.85822 0.0
C1128 C 0.65552 0.74871 0.84118 0.0
H1129 H 0.81552 0.67608 0.81177 0.0
H1130 H 0.77462 0.69799 0.81464 0.0
C1131 C 0.64263 0.77188 0.84275 0.0
C1132 C 0.6935 0.72549 0.85499 0.0
H1133 H 0.77573 0.73857 0.84723 0.0
C1134 C 0.67523 0.68897 0.85328 0.0
C1135 C 0.7302 0.74343 0.85258 0.0
C1136 C 0.75116 0.78266 0.85352 0.0
C1137 C 0.69266 0.67003 0.84949 0.0
C1138 C 0.72948 0.68798 0.84733 0.0
C1139 C 0.7476 0.72456 0.84885 0.0
C1140 C 0.74998 0.66969 0.84361 0.0
C1141 C 0.67136 0.63097 0.84739 0.0
C1142 C 0.74932 0.64542 0.85844 0.0
C1143 C 0.77239 0.63238 0.85653 0.0
C1144 C 0.79656 0.64302 0.83968 0.0
C1145 C 0.79615 0.66604 0.82434 0.0
C1146 C 0.77314 0.67912 0.82624 0.0
H1147 H 0.6437 0.62221 0.84349 0.0
H1148 H 0.68214 0.62136 0.83485 0.0
H1149 H 0.67191 0.61886 0.86281 0.0
H1150 H 0.7326 0.63828 0.87232 0.0
H1151 H 0.77326 0.61615 0.86922 0.0
H1152 H 0.8528 0.61082 0.17846 0.0
H1153 H 0.91537 0.63 0.17668 0.0
H1154 H 0.93834 0.72089 0.21381 0.0
H1155 H 0.87631 0.70108 0.21616 0.0
H1156 H 0.96371 0.68451 0.15734 0.0
H1157 H 1.00583 0.70006 0.24145 0.0
H1158 H 0.96039 0.67688 0.23403 0.0
H1159 H 0.98353 0.72371 0.23648 0.0
C1160 C 0.87112 0.63374 0.18732 0.0
C1161 C 0.85935 0.65357 0.19828 0.0
C1162 C 0.90708 0.64518 0.18594 0.0
C1163 C 0.93218 0.67684 0.19539 0.0
C1164 C 0.92007 0.69586 0.20698 0.0
H1165 H 0.1379 0.82513 0.15125 0.0
H1166 H 0.07586 0.78377 0.15507 0.0
C1167 C 0.88432 0.68436 0.20844 0.0
C1168 C 0.97072 0.69193 0.1914 0.0
H1169 H 0.05084 0.73439 0.21576 0.0
C1170 C 0.98262 0.69485 0.17023 0.0
C1171 C 0.996 0.70528 0.20801 0.0
C1172 C 0.98572 0.70097 0.23126 0.0
C1173 C 0.01851 0.71179 0.16521 0.0
C1174 C 0.04377 0.7273 0.1817 0.0
C1175 C 0.0319 0.72303 0.20294 0.0
C1176 C 0.08226 0.74981 0.17724 0.0
C1177 C 0.02885 0.7127 0.14217 0.0
C1178 C 0.10743 0.74504 0.18827 0.0
C1179 C 0.1434 0.76896 0.18597 0.0
C1180 C 0.15504 0.7982 0.17258 0.0
C1181 C 0.12995 0.80213 0.16099 0.0
C1182 C 0.09422 0.77843 0.16328 0.0
H1183 H 0.00865 0.68979 0.13326 0.0
H1184 H 0.03138 0.73638 0.1344 0.0
H1185 H 0.05407 0.7132 0.14075 0.0
H1186 H 0.09921 0.72356 0.19936 0.0
H1187 H 0.16186 0.76599 0.19587 0.0
H1188 H 0.20719 0.86706 0.55923 0.0
H1189 H 0.2485 0.92995 0.55685 0.0
H1190 H 0.27523 0.91658 0.49282 0.0
H1191 H 0.23401 0.85383 0.49523 0.0
H1192 H 0.3344 0.97057 0.51942 0.0
H1193 H 0.21721 0.98578 0.51663 0.0
H1194 H 0.21985 0.96086 0.53854 0.0
H1195 H 0.21494 0.94455 0.51178 0.0
C1196 C 0.22336 0.87723 0.54513 0.0
C1197 C 0.21823 0.85508 0.52774 0.0
C1198 C 0.24652 0.91339 0.54359 0.0
C1199 C 0.2649 0.92833 0.52455 0.0
C1200 C 0.26167 0.90591 0.50774 0.0
H1201 H 0.33275 0.13883 0.47872 0.0
H1202 H 0.31076 0.07604 0.48147 0.0
C1203 C 0.23844 0.86983 0.50925 0.0
C1204 C 0.28433 0.96718 0.52128 0.0
H1205 H 0.27179 0.03701 0.51517 0.0
C1206 C 0.32073 0.98512 0.51859 0.0
C1207 C 0.26663 0.98634 0.51979 0.0
C1208 C 0.22748 0.96856 0.52167 0.0
C1209 C 0.33976 0.0215 0.51479 0.0
C1210 C 0.32206 0.04073 0.5136 0.0
C1211 C 0.28561 0.02261 0.51607 0.0
C1212 C 0.34045 0.07952 0.50981 0.0
C1213 C 0.37863 0.03893 0.51166 0.0
C1214 C 0.36555 0.10304 0.5243 0.0
C1215 C 0.3786 0.13918 0.52247 0.0
C1216 C 0.36718 0.15281 0.50602 0.0
C1217 C 0.34339 0.12944 0.49096 0.0
C1218 C 0.33027 0.09335 0.4928 0.0
H1219 H 0.38694 0.01984 0.50744 0.0
H1220 H 0.38741 0.05904 0.49893 0.0
H1221 H 0.39192 0.05193 0.52676 0.0
H1222 H 0.37333 0.09337 0.5379 0.0
H1223 H 0.39544 0.1562 0.53497 0.0
H1224 H 0.1889 0.32399 0.87856 0.0
H1225 H 0.23208 0.30556 0.87986 0.0
H1226 H 0.27328 0.3555 0.81926 0.0
H1227 H 0.22938 0.37447 0.81792 0.0
H1228 H 0.23544 0.26105 0.85032 0.0
H1229 H 0.36253 0.38442 0.85518 0.0
H1230 H 0.32174 0.38239 0.86137 0.0
H1231 H 0.33333 0.38108 0.83408 0.0
C1232 C 0.20748 0.33173 0.86559 0.0
C1233 C 0.20552 0.35076 0.8481 0.0
C1234 C 0.23225 0.32102 0.86637 0.0
C1235 C 0.25615 0.32893 0.84971 0.0
C1236 C 0.25548 0.34933 0.83251 0.0
H1237 H 0.39381 0.24099 0.83088 0.0
H1238 H 0.36839 0.27903 0.82862 0.0
C1239 C 0.23043 0.3603 0.83175 0.0
C1240 C 0.27937 0.31317 0.85012 0.0
H1241 H 0.36424 0.33197 0.85478 0.0
C1242 C 0.26361 0.27668 0.85122 0.0
C1243 C 0.31622 0.33329 0.8512 0.0
C1244 C 0.33467 0.37249 0.85055 0.0
C1245 C 0.28334 0.25992 0.85364 0.0
C1246 C 0.32012 0.28001 0.85547 0.0
C1247 C 0.33609 0.31648 0.8537 0.0
C1248 C 0.34189 0.26311 0.85901 0.0
C1249 C 0.26453 0.22062 0.85401 0.0
C1250 C 0.3374 0.24297 0.87742 0.0
C1251 C 0.3526 0.22174 0.87892 0.0
C1252 C 0.37291 0.22034 0.86214 0.0
C1253 C 0.37957 0.24256 0.84449 0.0
C1254 C 0.36451 0.26393 0.84302 0.0
H1255 H 0.23782 0.20909 0.84723 0.0
H1256 H 0.27914 0.2106 0.84488 0.0
H1257 H 0.26223 0.21156 0.87078 0.0
H1258 H 0.32028 0.24193 0.89008 0.0
H1259 H 0.34568 0.20392 0.89229 0.0
H1260 H 0.31764 0.28699 0.211 0.0
H1261 H 0.31712 0.23213 0.21508 0.0
H1262 H 0.31455 0.22038 0.14659 0.0
H1263 H 0.31577 0.27608 0.1422 0.0
H1264 H 0.25747 0.16157 0.17957 0.0
H1265 H 0.39963 0.21194 0.19181 0.0
H1266 H 0.38002 0.23529 0.20336 0.0
H1267 H 0.38373 0.23413 0.1749 0.0
C1268 C 0.31829 0.27347 0.19676 0.0
C1269 C 0.31746 0.286 0.17624 0.0
C1270 C 0.31744 0.24199 0.19916 0.0
C1271 C 0.31575 0.22276 0.18112 0.0
C1272 C 0.31585 0.23534 0.16058 0.0
H1273 H 0.29693 0.02555 0.16164 0.0
H1274 H 0.29651 0.08029 0.15951 0.0
C1275 C 0.31679 0.26701 0.15813 0.0
C1276 C 0.31318 0.18903 0.184 0.0
H1277 H 0.36187 0.15163 0.1961 0.0
C1278 C 0.28016 0.15915 0.1831 0.0
C1279 C 0.34297 0.1867 0.18887 0.0
C1280 C 0.37874 0.21862 0.18977 0.0
C1281 C 0.27628 0.12635 0.18692 0.0
C1282 C 0.30623 0.12407 0.19158 0.0
C1283 C 0.33911 0.154 0.1927 0.0
C1284 C 0.30463 0.09061 0.19342 0.0
C1285 C 0.24049 0.09441 0.18598 0.0
C1286 C 0.31 0.07924 0.21322 0.0
C1287 C 0.31054 0.04816 0.21449 0.0
C1288 C 0.30641 0.02892 0.19587 0.0
C1289 C 0.30122 0.04064 0.17609 0.0
C1290 C 0.30034 0.07138 0.17488 0.0
H1291 H 0.2195 0.1012 0.18605 0.0
H1292 H 0.23805 0.07973 0.17112 0.0
H1293 H 0.23661 0.07694 0.19972 0.0
H1294 H 0.31363 0.09433 0.22757 0.0
H1295 H 0.31399 0.03906 0.22988 0.0
H1296 H 0.29467 0.32834 0.50142 0.0
H1297 H 0.24107 0.33043 0.49913 0.0
H1298 H 0.21406 0.28992 0.56326 0.0
H1299 H 0.26877 0.28903 0.56613 0.0
H1300 H 0.17662 0.26413 0.50483 0.0
H1301 H 0.19 0.37008 0.55887 0.0
H1302 H 0.22738 0.36933 0.54801 0.0
H1303 H 0.20261 0.34 0.56913 0.0
C1304 C 0.27828 0.32146 0.51546 0.0
C1305 C 0.28589 0.30861 0.53403 0.0
C1306 C 0.2475 0.32228 0.51399 0.0
C1307 C 0.22401 0.31025 0.531 0.0
C1308 C 0.23234 0.29957 0.55009 0.0
H1309 H 0.01662 0.27735 0.53965 0.0
H1310 H 0.07165 0.27868 0.54618 0.0
C1311 C 0.26337 0.29897 0.55166 0.0
C1312 C 0.18922 0.30517 0.52765 0.0
H1313 H 0.13613 0.33668 0.54136 0.0
C1314 C 0.16758 0.27989 0.51278 0.0
C1315 C 0.17791 0.32561 0.53835 0.0
C1316 C 0.20064 0.35296 0.55443 0.0
C1317 C 0.13454 0.27473 0.50808 0.0
C1318 C 0.12366 0.296 0.51828 0.0
C1319 C 0.14504 0.32075 0.53349 0.0
C1320 C 0.08995 0.29295 0.51367 0.0
C1321 C 0.11148 0.24645 0.49254 0.0
C1322 C 0.08242 0.30042 0.49318 0.0
C1323 C 0.05096 0.29948 0.48941 0.0
C1324 C 0.02758 0.29184 0.50626 0.0
C1325 C 0.03504 0.28408 0.52665 0.0
C1326 C 0.06609 0.28458 0.53033 0.0
H1327 H 0.12013 0.22704 0.49038 0.0
H1328 H 0.08397 0.23268 0.49802 0.0
H1329 H 0.11249 0.2583 0.47674 0.0
H1330 H 0.10102 0.30744 0.48029 0.0
H1331 H 0.04501 0.30499 0.47357 0.0
H1332 H 0.78419 0.0117 0.83342 0.0
H1333 H 0.83311 0.07054 0.83588 0.0
H1334 H 0.76345 0.11167 0.83017 0.0
H1335 H 0.71385 0.05245 0.82654 0.0
H1336 H 0.83564 0.15011 0.80833 0.0
H1337 H 0.83329 0.11819 0.89473 0.0
H1338 H 0.8343 0.08798 0.87604 0.0
H1339 H 0.79667 0.09318 0.87719 0.0
C1340 C 0.77916 0.03311 0.83169 0.0
C1341 C 0.74503 0.02743 0.82987 0.0
C1342 C 0.8072 0.06669 0.83332 0.0
C1343 C 0.80144 0.09492 0.83351 0.0
C1344 C 0.76798 0.08981 0.8301 0.0
H1345 H 0.95002 0.31359 0.85946 0.0
H1346 H 0.89495 0.2595 0.85244 0.0
C1347 C 0.73981 0.05611 0.82821 0.0
C1348 C 0.82963 0.12904 0.84003 0.0
H1349 H 0.87953 0.1724 0.88307 0.0
C1350 C 0.84511 0.15535 0.82467 0.0
C1351 C 0.84167 0.13507 0.86137 0.0
C1352 C 0.82554 0.10723 0.87837 0.0
C1353 C 0.87348 0.18779 0.83006 0.0
C1354 C 0.8855 0.19384 0.85143 0.0
C1355 C 0.8696 0.16758 0.86681 0.0
C1356 C 0.91683 0.22603 0.85768 0.0
C1357 C 0.89139 0.21471 0.81277 0.0
C1358 C 0.94635 0.2244 0.86374 0.0
C1359 C 0.97731 0.25479 0.86791 0.0
C1360 C 0.97915 0.28732 0.86616 0.0
C1361 C 0.94908 0.28879 0.86097 0.0
C1362 C 0.9179 0.25815 0.85684 0.0
H1363 H 0.88255 0.20362 0.79653 0.0
H1364 H 0.88561 0.23614 0.81496 0.0
H1365 H 0.92009 0.22606 0.81376 0.0
H1366 H 0.94581 0.19969 0.86436 0.0
H1367 H 1.00027 0.25283 0.87126 0.0
H1368 H 0.65845 0.95476 0.21099 0.0
H1369 H 0.64506 0.89422 0.20733 0.0
H1370 H 0.75378 0.92995 0.19584 0.0
H1371 H 0.76723 0.98982 0.19896 0.0
H1372 H 0.6604 0.87277 0.16815 0.0
H1373 H 0.72488 0.84763 0.23626 0.0
H1374 H 0.71406 0.88192 0.23668 0.0
H1375 H 0.7529 0.88845 0.22343 0.0
C1376 C 0.67952 0.94953 0.20821 0.0
C1377 C 0.71384 0.97693 0.20532 0.0
C1378 C 0.67186 0.91511 0.20621 0.0
C1379 C 0.69854 0.90792 0.20162 0.0
C1380 C 0.73303 0.93511 0.19997 0.0
H1381 H 0.76008 0.77514 0.15637 0.0
H1382 H 0.74783 0.8217 0.16187 0.0
C1383 C 0.74067 0.96936 0.20182 0.0
C1384 C 0.69043 0.87288 0.19537 0.0
H1385 H 0.71737 0.81439 0.20403 0.0
C1386 C 0.6719 0.85926 0.17625 0.0
C1387 C 0.70581 0.85587 0.20601 0.0
C1388 C 0.72526 0.86909 0.22685 0.0
C1389 C 0.67067 0.83025 0.16656 0.0
C1390 C 0.68804 0.81473 0.17653 0.0
C1391 C 0.7044 0.82686 0.1964 0.0
C1392 C 0.69243 0.78768 0.16613 0.0
C1393 C 0.653 0.81776 0.14518 0.0
C1394 C 0.66472 0.75341 0.16505 0.0
C1395 C 0.67141 0.72635 0.16115 0.0
C1396 C 0.70599 0.73341 0.15904 0.0
C1397 C 0.73306 0.76829 0.15776 0.0
C1398 C 0.72622 0.79518 0.16113 0.0
H1399 H 0.64335 0.83474 0.13869 0.0
H1400 H 0.67136 0.8168 0.13352 0.0
H1401 H 0.63057 0.79093 0.14685 0.0
H1402 H 0.63846 0.74736 0.16891 0.0
H1403 H 0.64987 0.69982 0.16161 0.0
H1404 H 0.69642 0.63629 0.53122 0.0
H1405 H 0.74811 0.63068 0.5256 0.0
H1406 H 0.81405 0.73801 0.54391 0.0
H1407 H 0.76345 0.74438 0.5488 0.0
H1408 H 0.79753 0.67742 0.49402 0.0
H1409 H 0.85942 0.6867 0.57293 0.0
H1410 H 0.81368 0.67289 0.5701 0.0
H1411 H 0.84596 0.71834 0.56872 0.0
C1412 C 0.72191 0.65838 0.53458 0.0
C1413 C 0.72576 0.69076 0.54034 0.0
C1414 C 0.75125 0.65508 0.53146 0.0
C1415 C 0.78454 0.68389 0.5345 0.0
C1416 C 0.7884 0.71534 0.54194 0.0
H1417 H 0.99423 0.77002 0.50293 0.0
H1418 H 0.93447 0.75731 0.50675 0.0
C1419 C 0.75927 0.7188 0.54484 0.0
C1420 C 0.81535 0.68337 0.52669 0.0
H1421 H 0.89594 0.70023 0.54207 0.0
C1422 C 0.81878 0.68147 0.5045 0.0
C1423 C 0.84302 0.68954 0.5405 0.0
C1424 C 0.84033 0.69173 0.56442 0.0
C1425 C 0.85006 0.68689 0.49567 0.0
C1426 C 0.87787 0.69385 0.50948 0.0
C1427 C 0.87413 0.69472 0.53166 0.0
C1428 C 0.91197 0.70202 0.50142 0.0
C1429 C 0.85403 0.68697 0.47174 0.0
C1430 C 0.91842 0.67508 0.49623 0.0
C1431 C 0.9526 0.68223 0.49379 0.0
C1432 C 0.98041 0.71631 0.49674 0.0
C1433 C 0.97343 0.74357 0.50023 0.0
C1434 C 0.93934 0.73641 0.50255 0.0
H1435 H 0.83001 0.68204 0.46314 0.0
H1436 H 0.87598 0.71251 0.46653 0.0
H1437 H 0.8605 0.66669 0.46713 0.0
H1438 H 0.89726 0.64837 0.49548 0.0
H1439 H 0.95737 0.66089 0.4909 0.0
H1440 H 0.26505 0.98291 0.80466 0.0
H1441 H 0.21092 0.92607 0.80526 0.0
H1442 H 0.22329 0.91839 0.87313 0.0
H1443 H 0.27693 0.97467 0.87269 0.0
H1444 H 0.20624 0.85867 0.82697 0.0
H1445 H 0.12189 0.90801 0.85899 0.0
H1446 H 0.16062 0.93476 0.84342 0.0
H1447 H 0.16442 0.92546 0.87089 0.0
C1448 C 0.25628 0.96867 0.81956 0.0
C1449 C 0.2751 0.98249 0.83855 0.0
C1450 C 0.22556 0.93663 0.8199 0.0
C1451 C 0.21354 0.91881 0.83927 0.0
C1452 C 0.23252 0.93227 0.85813 0.0
H1453 H 0.04061 0.74071 0.89391 0.0
H1454 H 0.09563 0.7947 0.88689 0.0
C1455 C 0.26321 0.96399 0.85779 0.0
C1456 C 0.18139 0.88552 0.84015 0.0
H1457 H 0.09972 0.84696 0.8609 0.0
C1458 C 0.18264 0.85586 0.83407 0.0
C1459 C 0.15126 0.88269 0.84959 0.0
C1460 C 0.14917 0.9144 0.856 0.0
C1461 C 0.15458 0.8227 0.83815 0.0
C1462 C 0.12468 0.81975 0.84816 0.0
C1463 C 0.12305 0.84959 0.85352 0.0
C1464 C 0.09428 0.78588 0.85277 0.0
C1465 C 0.1577 0.79129 0.83248 0.0
C1466 C 0.07611 0.76343 0.8359 0.0
C1467 C 0.04539 0.73273 0.8399 0.0
C1468 C 0.03221 0.72438 0.86079 0.0
C1469 C 0.05075 0.74656 0.87777 0.0
C1470 C 0.08183 0.77723 0.87377 0.0
H1471 H 0.18535 0.79813 0.83066 0.0
H1472 H 0.14533 0.77062 0.84481 0.0
H1473 H 0.14431 0.78052 0.81702 0.0
H1474 H 0.08489 0.77035 0.81955 0.0
H1475 H 0.03086 0.71659 0.82643 0.0
loop_
_geom_bond_atom_site_label_1
_geom_bond_atom_site_label_2
_geom_bond_distance
_geom_bond_site_symmetry_2
_ccdc_geom_bond_type
C0 C1 1.351 . S
C0 N3 1.368 . S
C0 H5 0.931 . S
C1 C0 1.351 . S
C1 N2 1.373 . S
C1 H29 0.930 . S
N2 C1 1.373 . S
N2 C4 1.340 . S
N3 C0 1.368 . S
N3 C4 1.321 . S
N3 Co6 2.135 . S
C4 N2 1.340 . S
C4 N3 1.321 . S
C4 H28 0.930 . S
H5 C0 0.931 . S
Co6 N3 2.135 . S
Co6 N9 2.121 . S
Co6 O14 2.055 . S
Co6 O17 2.039 . S
Co6 N20 2.140 . S
C7 O8 1.227 . S
C7 O17 1.265 . S
O8 C7 1.227 . S
N9 Co6 2.121 . S
N9 C11 1.375 . S
N9 C12 1.313 . S
C10 C11 1.338 . S
C10 N13 1.377 . S
C10 H30 0.930 . S
C11 N9 1.375 . S
C11 C10 1.338 . S
C11 H15 0.931 . S
C12 N9 1.313 . S
C12 N13 1.344 . S
C12 H16 0.930 . S
N13 C10 1.377 . S
N13 C12 1.344 . S
O14 Co6 2.055 . S
O14 C18 1.253 . S
H15 C11 0.931 . S
H16 C12 0.930 . S
O17 Co6 2.039 . S
O17 C7 1.265 . S
C18 O14 1.253 . S
C18 O19 1.227 . S
O19 C18 1.227 . S
N20 Co6 2.140 . S
N20 C23 1.346 . S
N20 C24 1.345 . S
C21 C22 1.387 . S
C21 C25 1.391 . S
C22 C21 1.387 . S
C22 C23 1.369 . S
C22 H31 0.929 . S
C23 N20 1.346 . S
C23 C22 1.369 . S
C23 H26 0.928 . S
C24 N20 1.345 . S
C24 C25 1.371 . S
C24 H27 0.931 . S
C25 C21 1.391 . S
C25 C24 1.371 . S
C25 H32 0.930 . S
H26 C23 0.928 . S
H27 C24 0.931 . S
H28 C4 0.930 . S
H29 C1 0.930 . S
H30 C10 0.930 . S
H31 C22 0.929 . S
H32 C25 0.930 . S
C33 C34 1.351 . S
C33 N36 1.368 . S
C33 H38 0.931 . S
C34 C33 1.351 . S
C34 N35 1.373 . S
C34 H62 0.930 . S
N35 C34 1.373 . S
N35 C37 1.340 . S
N36 C33 1.368 . S
N36 C37 1.321 . S
N36 Co39 2.135 . S
C37 N35 1.340 . S
C37 N36 1.321 . S
C37 H61 0.930 . S
H38 C33 0.931 . S
Co39 N36 2.135 . S
Co39 N42 2.121 . S
Co39 O47 2.055 . S
Co39 O50 2.039 . S
Co39 N53 2.140 . S
C40 O41 1.227 . S
C40 O50 1.265 . S
O41 C40 1.227 . S
N42 Co39 2.121 . S
N42 C44 1.375 . S
N42 C45 1.313 . S
C43 C44 1.338 . S
C43 N46 1.377 . S
C43 H63 0.930 . S
C44 N42 1.375 . S
C44 C43 1.338 . S
C44 H48 0.931 . S
C45 N42 1.313 . S
C45 N46 1.344 . S
C45 H49 0.930 . S
N46 C43 1.377 . S
N46 C45 1.344 . S
O47 Co39 2.055 . S
O47 C51 1.253 . S
H48 C44 0.931 . S
H49 C45 0.930 . S
O50 Co39 2.039 . S
O50 C40 1.265 . S
C51 O47 1.253 . S
C51 O52 1.227 . S
O52 C51 1.227 . S
N53 Co39 2.140 . S
N53 C56 1.346 . S
N53 C57 1.345 . S
C54 C55 1.381 1_455 S
C54 C58 1.391 1_455 S
C55 C54 1.381 1_655 S
C55 C56 1.383 . S
C55 H64 0.923 1_655 S
C56 N53 1.346 . S
C56 C55 1.383 . S
C56 H59 0.928 . S
C57 N53 1.345 . S
C57 C58 1.371 . S
C57 H60 0.931 . S
C58 C54 1.391 1_655 S
C58 C57 1.371 . S
C58 H65 0.930 . S
H59 C56 0.928 . S
H60 C57 0.931 . S
H61 C37 0.930 . S
H62 C34 0.930 . S
H63 C43 0.930 . S
H64 C55 0.923 1_455 S
H65 C58 0.930 . S
C66 C67 1.351 . S
C66 N69 1.368 . S
C66 H71 0.931 . S
C67 C66 1.351 . S
C67 N68 1.373 . S
C67 H95 0.930 . S
N68 C67 1.373 . S
N68 C70 1.340 . S
N69 C66 1.368 . S
N69 C70 1.321 . S
N69 Co72 2.135 . S
C70 N68 1.340 . S
C70 N69 1.321 . S
C70 H94 0.930 . S
H71 C66 0.931 . S
Co72 N69 2.135 . S
Co72 N75 2.121 . S
Co72 O80 2.055 . S
Co72 O83 2.039 . S
Co72 N86 2.140 . S
C73 O74 1.227 . S
C73 O83 1.265 . S
O74 C73 1.227 . S
N75 Co72 2.121 . S
N75 C77 1.375 . S
N75 C78 1.313 . S
C76 C77 1.338 . S
C76 N79 1.377 . S
C76 H96 0.930 . S
C77 N75 1.375 . S
C77 C76 1.338 . S
C77 H81 0.931 . S
C78 N75 1.313 . S
C78 N79 1.344 . S
C78 H82 0.930 . S
N79 C76 1.377 . S
N79 C78 1.344 . S
O80 Co72 2.055 . S
O80 C84 1.253 . S
H81 C77 0.931 . S
H82 C78 0.930 . S
O83 Co72 2.039 . S
O83 C73 1.265 . S
C84 O80 1.253 . S
C84 O85 1.227 . S
O85 C84 1.227 . S
N86 Co72 2.140 . S
N86 C89 1.346 . S
N86 C90 1.345 . S
C87 C88 1.390 1_545 S
C87 C91 1.391 1_545 S
C88 C87 1.390 1_565 S
C88 C89 1.377 . S
C88 H97 0.918 1_565 S
C89 N86 1.346 . S
C89 C88 1.377 . S
C89 H92 0.928 . S
C90 N86 1.345 . S
C90 C91 1.371 . S
C90 H93 0.931 . S
C91 C87 1.391 1_565 S
C91 C90 1.371 . S
C91 H98 0.930 . S
H92 C89 0.928 . S
H93 C90 0.931 . S
H94 C70 0.930 . S
H95 C67 0.930 . S
H96 C76 0.930 . S
H97 C88 0.918 1_545 S
H98 C91 0.930 . S
C99 C100 1.351 . S
C99 N102 1.368 . S
C99 H104 0.931 . S
C100 C99 1.351 . S
C100 N101 1.373 . S
C100 H128 0.930 . S
N101 C100 1.373 . S
N101 C103 1.340 . S
N102 C99 1.368 . S
N102 C103 1.321 . S
N102 Co105 2.135 . S
C103 N101 1.340 . S
C103 N102 1.321 . S
C103 H127 0.930 . S
H104 C99 0.931 . S
Co105 N102 2.135 . S
Co105 N108 2.121 . S
Co105 O113 2.055 . S
Co105 O116 2.039 . S
Co105 N119 2.140 . S
C106 O107 1.227 . S
C106 O116 1.265 . S
O107 C106 1.227 . S
N108 Co105 2.121 . S
N108 C110 1.375 . S
N108 C111 1.313 . S
C109 C110 1.338 . S
C109 N112 1.377 . S
C109 H129 0.930 . S
C110 N108 1.375 . S
C110 C109 1.338 . S
C110 H114 0.931 . S
C111 N108 1.313 . S
C111 N112 1.344 . S
C111 H115 0.930 . S
N112 C109 1.377 . S
N112 C111 1.344 . S
O113 Co105 2.055 . S
O113 C117 1.253 . S
H114 C110 0.931 . S
H115 C111 0.930 . S
O116 Co105 2.039 . S
O116 C106 1.265 . S
C117 O113 1.253 . S
C117 O118 1.227 . S
O118 C117 1.227 . S
N119 Co105 2.140 . S
N119 C122 1.346 . S
N119 C123 1.345 . S
C120 C121 1.387 . S
C120 C124 1.391 . S
C121 C120 1.387 . S
C121 C122 1.369 . S
C121 H130 0.929 . S
C122 N119 1.346 . S
C122 C121 1.369 . S
C122 H125 0.928 . S
C123 N119 1.345 . S
C123 C124 1.371 . S
C123 H126 0.931 . S
C124 C120 1.391 . S
C124 C123 1.371 . S
C124 H131 0.930 . S
H125 C122 0.928 . S
H126 C123 0.931 . S
H127 C103 0.930 . S
H128 C100 0.930 . S
H129 C109 0.930 . S
H130 C121 0.929 . S
H131 C124 0.930 . S
C132 C133 1.351 . S
C132 N135 1.368 . S
C132 H137 0.931 . S
C133 C132 1.351 . S
C133 N134 1.373 . S
C133 H161 0.930 . S
N134 C133 1.373 . S
N134 C136 1.340 . S
N135 C132 1.368 . S
N135 C136 1.321 . S
N135 Co138 2.135 . S
C136 N134 1.340 . S
C136 N135 1.321 . S
C136 H160 0.930 . S
H137 C132 0.931 . S
Co138 N135 2.135 . S
Co138 N141 2.121 . S
Co138 O146 2.055 . S
Co138 O149 2.039 . S
Co138 N152 2.140 . S
C139 O140 1.227 . S
C139 O149 1.265 . S
O140 C139 1.227 . S
N141 Co138 2.121 . S
N141 C143 1.375 . S
N141 C144 1.313 . S
C142 C143 1.338 . S
C142 N145 1.377 . S
C142 H162 0.930 . S
C143 N141 1.375 . S
C143 C142 1.338 . S
C143 H147 0.931 . S
C144 N141 1.313 . S
C144 N145 1.344 . S
C144 H148 0.930 . S
N145 C142 1.377 . S
N145 C144 1.344 . S
O146 Co138 2.055 . S
O146 C150 1.253 . S
H147 C143 0.931 . S
H148 C144 0.930 . S
O149 Co138 2.039 . S
O149 C139 1.265 . S
C150 O146 1.253 . S
C150 O151 1.227 . S
O151 C150 1.227 . S
N152 Co138 2.140 . S
N152 C155 1.346 . S
N152 C156 1.345 . S
C153 C154 1.381 1_655 S
C153 C157 1.391 1_655 S
C154 C153 1.381 1_455 S
C154 C155 1.383 . S
C154 H163 0.923 1_455 S
C155 N152 1.346 . S
C155 C154 1.383 . S
C155 H158 0.928 . S
C156 N152 1.345 . S
C156 C157 1.371 . S
C156 H159 0.931 . S
C157 C153 1.391 1_455 S
C157 C156 1.371 . S
C157 H164 0.930 . S
H158 C155 0.928 . S
H159 C156 0.931 . S
H160 C136 0.930 . S
H161 C133 0.930 . S
H162 C142 0.930 . S
H163 C154 0.923 1_655 S
H164 C157 0.930 . S
C165 C166 1.351 . S
C165 N168 1.368 . S
C165 H170 0.931 . S
C166 C165 1.351 . S
C166 N167 1.373 . S
C166 H194 0.930 . S
N167 C166 1.373 . S
N167 C169 1.340 . S
N168 C165 1.368 . S
N168 C169 1.321 . S
N168 Co171 2.135 . S
C169 N167 1.340 . S
C169 N168 1.321 . S
C169 H193 0.930 . S
H170 C165 0.931 . S
Co171 N168 2.135 . S
Co171 N174 2.121 . S
Co171 O179 2.055 . S
Co171 O182 2.039 . S
Co171 N185 2.140 . S
C172 O173 1.227 . S
C172 O182 1.265 . S
O173 C172 1.227 . S
N174 Co171 2.121 . S
N174 C176 1.375 . S
N174 C177 1.313 . S
C175 C176 1.338 . S
C175 N178 1.377 . S
C175 H195 0.930 . S
C176 N174 1.375 . S
C176 C175 1.338 . S
C176 H180 0.931 . S
C177 N174 1.313 . S
C177 N178 1.344 . S
C177 H181 0.930 . S
N178 C175 1.377 . S
N178 C177 1.344 . S
O179 Co171 2.055 . S
O179 C183 1.253 . S
H180 C176 0.931 . S
H181 C177 0.930 . S
O182 Co171 2.039 . S
O182 C172 1.265 . S
C183 O179 1.253 . S
C183 O184 1.227 . S
O184 C183 1.227 . S
N185 Co171 2.140 . S
N185 C188 1.346 . S
N185 C189 1.345 . S
C186 C187 1.390 1_565 S
C186 C190 1.391 1_565 S
C187 C186 1.390 1_545 S
C187 C188 1.377 . S
C187 H196 0.918 1_545 S
C188 N185 1.346 . S
C188 C187 1.377 . S
C188 H191 0.928 . S
C189 N185 1.345 . S
C189 C190 1.371 . S
C189 H192 0.931 . S
C190 C186 1.391 1_545 S
C190 C189 1.371 . S
C190 H197 0.930 . S
H191 C188 0.928 . S
H192 C189 0.931 . S
H193 C169 0.930 . S
H194 C166 0.930 . S
H195 C175 0.930 . S
H196 C187 0.918 1_565 S
H197 C190 0.930 . S
C198 C199 1.351 . S
C198 N201 1.368 . S
C198 H203 0.931 . S
C199 C198 1.351 . S
C199 N200 1.373 . S
C199 H227 0.930 . S
N200 C199 1.373 . S
N200 C202 1.340 . S
N201 C198 1.368 . S
N201 C202 1.321 . S
N201 Co204 2.135 . S
C202 N200 1.340 . S
C202 N201 1.321 . S
C202 H226 0.930 . S
H203 C198 0.931 . S
Co204 N201 2.135 . S
Co204 N207 2.121 . S
Co204 O212 2.055 . S
Co204 O215 2.039 . S
Co204 N218 2.140 . S
C205 O206 1.227 . S
C205 O215 1.265 . S
O206 C205 1.227 . S
N207 Co204 2.121 . S
N207 C209 1.375 . S
N207 C210 1.313 . S
C208 C209 1.338 . S
C208 N211 1.377 . S
C208 H228 0.930 . S
C209 N207 1.375 . S
C209 C208 1.338 . S
C209 H213 0.931 . S
C210 N207 1.313 . S
C210 N211 1.344 . S
C210 H214 0.930 . S
N211 C208 1.377 . S
N211 C210 1.344 . S
O212 Co204 2.055 . S
O212 C216 1.253 . S
H213 C209 0.931 . S
H214 C210 0.930 . S
O215 Co204 2.039 . S
O215 C205 1.265 . S
C216 O212 1.253 . S
C216 O217 1.227 . S
O217 C216 1.227 . S
N218 Co204 2.140 . S
N218 C221 1.346 . S
N218 C222 1.345 . S
C219 C220 1.387 . S
C219 C223 1.391 . S
C220 C219 1.387 . S
C220 C221 1.369 . S
C220 H229 0.929 . S
C221 N218 1.346 . S
C221 C220 1.369 . S
C221 H224 0.928 . S
C222 N218 1.345 . S
C222 C223 1.371 . S
C222 H225 0.931 . S
C223 C219 1.391 . S
C223 C222 1.371 . S
C223 H230 0.930 . S
H224 C221 0.928 . S
H225 C222 0.931 . S
H226 C202 0.930 . S
H227 C199 0.930 . S
H228 C208 0.930 . S
H229 C220 0.929 . S
H230 C223 0.930 . S
C231 C232 1.351 . S
C231 N234 1.368 . S
C231 H236 0.931 . S
C232 C231 1.351 . S
C232 N233 1.373 . S
C232 H260 0.930 . S
N233 C232 1.373 . S
N233 C235 1.340 . S
N234 C231 1.368 . S
N234 C235 1.321 . S
N234 Co237 2.135 . S
C235 N233 1.340 . S
C235 N234 1.321 . S
C235 H259 0.930 . S
H236 C231 0.931 . S
Co237 N234 2.135 . S
Co237 N240 2.121 . S
Co237 O245 2.055 . S
Co237 O248 2.039 . S
Co237 N251 2.140 . S
C238 O239 1.227 . S
C238 O248 1.265 . S
O239 C238 1.227 . S
N240 Co237 2.121 . S
N240 C242 1.375 . S
N240 C243 1.313 . S
C241 C242 1.338 . S
C241 N244 1.377 . S
C241 H261 0.930 . S
C242 N240 1.375 . S
C242 C241 1.338 . S
C242 H246 0.931 . S
C243 N240 1.313 . S
C243 N244 1.344 . S
C243 H247 0.930 . S
N244 C241 1.377 . S
N244 C243 1.344 . S
O245 Co237 2.055 . S
O245 C249 1.253 . S
H246 C242 0.931 . S
H247 C243 0.930 . S
O248 Co237 2.039 . S
O248 C238 1.265 . S
C249 O245 1.253 . S
C249 O250 1.227 . S
O250 C249 1.227 . S
N251 Co237 2.140 . S
N251 C254 1.346 . S
N251 C255 1.345 . S
C252 C253 1.390 1_455 S
C252 C256 1.391 1_455 S
C253 C252 1.390 1_655 S
C253 C254 1.377 . S
C253 H262 0.918 1_655 S
C254 N251 1.346 . S
C254 C253 1.377 . S
C254 H257 0.928 . S
C255 N251 1.345 . S
C255 C256 1.371 . S
C255 H258 0.931 . S
C256 C252 1.391 1_655 S
C256 C255 1.371 . S
C256 H263 0.930 . S
H257 C254 0.928 . S
H258 C255 0.931 . S
H259 C235 0.930 . S
H260 C232 0.930 . S
H261 C241 0.930 . S
H262 C253 0.918 1_455 S
H263 C256 0.930 . S
C264 C265 1.351 . S
C264 N267 1.368 . S
C264 H269 0.931 . S
C265 C264 1.351 . S
C265 N266 1.373 . S
C265 H293 0.930 . S
N266 C265 1.373 . S
N266 C268 1.340 . S
N267 C264 1.368 . S
N267 C268 1.321 . S
N267 Co270 2.135 . S
C268 N266 1.340 . S
C268 N267 1.321 . S
C268 H292 0.930 . S
H269 C264 0.931 . S
Co270 N267 2.135 . S
Co270 N273 2.121 . S
Co270 O278 2.055 . S
Co270 O281 2.039 . S
Co270 N284 2.140 . S
C271 O272 1.227 . S
C271 O281 1.265 . S
O272 C271 1.227 . S
N273 Co270 2.121 . S
N273 C275 1.375 . S
N273 C276 1.313 . S
C274 C275 1.338 . S
C274 N277 1.377 . S
C274 H294 0.930 . S
C275 N273 1.375 . S
C275 C274 1.338 . S
C275 H279 0.931 . S
C276 N273 1.313 . S
C276 N277 1.344 . S
C276 H280 0.930 . S
N277 C274 1.377 . S
N277 C276 1.344 . S
O278 Co270 2.055 . S
O278 C282 1.253 . S
H279 C275 0.931 . S
H280 C276 0.930 . S
O281 Co270 2.039 . S
O281 C271 1.265 . S
C282 O278 1.253 . S
C282 O283 1.227 . S
O283 C282 1.227 . S
N284 Co270 2.140 . S
N284 C287 1.346 . S
N284 C288 1.345 . S
C285 C286 1.381 1_545 S
C285 C289 1.391 1_545 S
C286 C285 1.381 1_565 S
C286 C287 1.383 . S
C286 H295 0.923 1_565 S
C287 N284 1.346 . S
C287 C286 1.383 . S
C287 H290 0.928 . S
C288 N284 1.345 . S
C288 C289 1.371 . S
C288 H291 0.931 . S
C289 C285 1.391 1_565 S
C289 C288 1.371 . S
C289 H296 0.930 . S
H290 C287 0.928 . S
H291 C288 0.931 . S
H292 C268 0.930 . S
H293 C265 0.930 . S
H294 C274 0.930 . S
H295 C286 0.923 1_545 S
H296 C289 0.930 . S
C297 C298 1.351 . S
C297 N300 1.368 . S
C297 H302 0.931 . S
C298 C297 1.351 . S
C298 N299 1.373 . S
C298 H326 0.930 . S
N299 C298 1.373 . S
N299 C301 1.340 . S
N300 C297 1.368 . S
N300 C301 1.321 . S
N300 Co303 2.135 . S
C301 N299 1.340 . S
C301 N300 1.321 . S
C301 H325 0.930 . S
H302 C297 0.931 . S
Co303 N300 2.135 . S
Co303 N306 2.121 . S
Co303 O311 2.055 . S
Co303 O314 2.039 . S
Co303 N317 2.140 . S
C304 O305 1.227 . S
C304 O314 1.265 . S
O305 C304 1.227 . S
N306 Co303 2.121 . S
N306 C308 1.375 . S
N306 C309 1.313 . S
C307 C308 1.338 . S
C307 N310 1.377 . S
C307 H327 0.930 . S
C308 N306 1.375 . S
C308 C307 1.338 . S
C308 H312 0.931 . S
C309 N306 1.313 . S
C309 N310 1.344 . S
C309 H313 0.930 . S
N310 C307 1.377 . S
N310 C309 1.344 . S
O311 Co303 2.055 . S
O311 C315 1.253 . S
H312 C308 0.931 . S
H313 C309 0.930 . S
O314 Co303 2.039 . S
O314 C304 1.265 . S
C315 O311 1.253 . S
C315 O316 1.227 . S
O316 C315 1.227 . S
N317 Co303 2.140 . S
N317 C320 1.346 . S
N317 C321 1.345 . S
C318 C319 1.387 . S
C318 C322 1.391 . S
C319 C318 1.387 . S
C319 C320 1.369 . S
C319 H328 0.929 . S
C320 N317 1.346 . S
C320 C319 1.369 . S
C320 H323 0.928 . S
C321 N317 1.345 . S
C321 C322 1.371 . S
C321 H324 0.931 . S
C322 C318 1.391 . S
C322 C321 1.371 . S
C322 H329 0.930 . S
H323 C320 0.928 . S
H324 C321 0.931 . S
H325 C301 0.930 . S
H326 C298 0.930 . S
H327 C307 0.930 . S
H328 C319 0.929 . S
H329 C322 0.930 . S
C330 C331 1.351 . S
C330 N333 1.368 . S
C330 H335 0.931 . S
C331 C330 1.351 . S
C331 N332 1.373 . S
C331 H359 0.930 . S
N332 C331 1.373 . S
N332 C334 1.340 . S
N333 C330 1.368 . S
N333 C334 1.321 . S
N333 Co336 2.135 . S
C334 N332 1.340 . S
C334 N333 1.321 . S
C334 H358 0.930 . S
H335 C330 0.931 . S
Co336 N333 2.135 . S
Co336 N339 2.121 . S
Co336 O344 2.055 . S
Co336 O347 2.039 . S
Co336 N350 2.140 . S
C337 O338 1.227 . S
C337 O347 1.265 . S
O338 C337 1.227 . S
N339 Co336 2.121 . S
N339 C341 1.375 . S
N339 C342 1.313 . S
C340 C341 1.338 . S
C340 N343 1.377 . S
C340 H360 0.930 . S
C341 N339 1.375 . S
C341 C340 1.338 . S
C341 H345 0.931 . S
C342 N339 1.313 . S
C342 N343 1.344 . S
C342 H346 0.930 . S
N343 C340 1.377 . S
N343 C342 1.344 . S
O344 Co336 2.055 . S
O344 C348 1.253 . S
H345 C341 0.931 . S
H346 C342 0.930 . S
O347 Co336 2.039 . S
O347 C337 1.265 . S
C348 O344 1.253 . S
C348 O349 1.227 . S
O349 C348 1.227 . S
N350 Co336 2.140 . S
N350 C353 1.346 . S
N350 C354 1.345 . S
C351 C352 1.390 1_655 S
C351 C355 1.391 1_655 S
C352 C351 1.390 1_455 S
C352 C353 1.377 . S
C352 H361 0.918 1_455 S
C353 N350 1.346 . S
C353 C352 1.377 . S
C353 H356 0.928 . S
C354 N350 1.345 . S
C354 C355 1.371 . S
C354 H357 0.931 . S
C355 C351 1.391 1_455 S
C355 C354 1.371 . S
C355 H362 0.930 . S
H356 C353 0.928 . S
H357 C354 0.931 . S
H358 C334 0.930 . S
H359 C331 0.930 . S
H360 C340 0.930 . S
H361 C352 0.918 1_655 S
H362 C355 0.930 . S
C363 C364 1.351 . S
C363 N366 1.368 . S
C363 H368 0.931 . S
C364 C363 1.351 . S
C364 N365 1.373 . S
C364 H392 0.930 . S
N365 C364 1.373 . S
N365 C367 1.340 . S
N366 C363 1.368 . S
N366 C367 1.321 . S
N366 Co369 2.135 . S
C367 N365 1.340 . S
C367 N366 1.321 . S
C367 H391 0.930 . S
H368 C363 0.931 . S
Co369 N366 2.135 . S
Co369 N372 2.121 . S
Co369 O377 2.055 . S
Co369 O380 2.039 . S
Co369 N383 2.140 . S
C370 O371 1.227 . S
C370 O380 1.265 . S
O371 C370 1.227 . S
N372 Co369 2.121 . S
N372 C374 1.375 . S
N372 C375 1.313 . S
C373 C374 1.338 . S
C373 N376 1.377 . S
C373 H393 0.930 . S
C374 N372 1.375 . S
C374 C373 1.338 . S
C374 H378 0.931 . S
C375 N372 1.313 . S
C375 N376 1.344 . S
C375 H379 0.930 . S
N376 C373 1.377 . S
N376 C375 1.344 . S
O377 Co369 2.055 . S
O377 C381 1.253 . S
H378 C374 0.931 . S
H379 C375 0.930 . S
O380 Co369 2.039 . S
O380 C370 1.265 . S
C381 O377 1.253 . S
C381 O382 1.227 . S
O382 C381 1.227 . S
N383 Co369 2.140 . S
N383 C386 1.346 . S
N383 C387 1.345 . S
C384 C385 1.381 1_565 S
C384 C388 1.391 1_565 S
C385 C384 1.381 1_545 S
C385 C386 1.383 . S
C385 H394 0.923 1_545 S
C386 N383 1.346 . S
C386 C385 1.383 . S
C386 H389 0.928 . S
C387 N383 1.345 . S
C387 C388 1.371 . S
C387 H390 0.931 . S
C388 C384 1.391 1_545 S
C388 C387 1.371 . S
C388 H395 0.930 . S
H389 C386 0.928 . S
H390 C387 0.931 . S
H391 C367 0.930 . S
H392 C364 0.930 . S
H393 C373 0.930 . S
H394 C385 0.923 1_565 S
H395 C388 0.930 . S
H396 C404 0.929 . S
H397 C406 0.930 . S
H398 C408 0.930 . S
H399 C411 0.929 . S
H400 C414 0.930 . S
H401 C416 0.960 . S
H402 C416 0.960 . S
H403 C416 0.960 . S
C404 H396 0.929 . S
C404 C405 1.377 . S
C404 C406 1.384 . S
C405 C404 1.377 . S
C405 C411 1.390 . S
C406 H397 0.930 . S
C406 C404 1.384 . S
C406 C407 1.372 . S
C407 C406 1.372 . S
C407 C408 1.400 . S
C407 C412 1.490 . S
C408 H398 0.930 . S
C408 C407 1.400 . S
C408 C411 1.386 . S
H409 C425 0.930 . S
H410 C426 0.931 . S
C411 H399 0.929 . S
C411 C405 1.390 . S
C411 C408 1.386 . S
C412 C407 1.490 . S
C412 C414 1.395 . S
C412 C415 1.403 . S
H413 C419 0.930 . S
C414 H400 0.930 . S
C414 C412 1.395 . S
C414 C417 1.403 . S
C415 C412 1.403 . S
C415 C416 1.524 . S
C415 C419 1.400 . S
C416 H401 0.960 . S
C416 H402 0.960 . S
C416 H403 0.960 . S
C416 C415 1.524 . S
C417 C414 1.403 . S
C417 C418 1.392 . S
C417 C421 1.495 . S
C418 C417 1.392 . S
C418 C419 1.385 . S
C418 C420 1.478 . S
C419 H413 0.930 . S
C419 C415 1.400 . S
C419 C418 1.385 . S
C420 C418 1.478 . S
C420 C422 1.381 . S
C420 C426 1.383 . S
C421 C417 1.495 . S
C421 H427 0.959 . S
C421 H428 0.961 . S
C421 H429 0.960 . S
C422 C420 1.381 . S
C422 C423 1.394 . S
C422 H430 0.930 . S
C423 C422 1.394 . S
C423 C424 1.383 . S
C423 H431 0.929 . S
C424 C423 1.383 . S
C424 C425 1.377 . S
C425 H409 0.930 . S
C425 C424 1.377 . S
C425 C426 1.379 . S
C426 H410 0.931 . S
C426 C420 1.383 . S
C426 C425 1.379 . S
H427 C421 0.959 . S
H428 C421 0.961 . S
H429 C421 0.960 . S
H430 C422 0.930 . S
H431 C423 0.929 . S
H432 C440 0.929 . S
H433 C442 0.930 . S
H434 C444 0.930 1_455 S
H435 C447 0.929 . S
H436 C450 0.930 . S
H437 C452 0.960 . S
H438 C452 0.958 1_655 S
H439 C452 0.960 . S
C440 H432 0.929 . S
C440 C441 1.377 . S
C440 C442 1.384 . S
C441 C440 1.377 . S
C441 C447 1.390 . S
C442 H433 0.930 . S
C442 C440 1.384 . S
C442 C443 1.372 . S
C443 C442 1.372 . S
C443 C444 1.400 . S
C443 C448 1.490 . S
C444 H434 0.930 1_655 S
C444 C443 1.400 . S
C444 C447 1.386 . S
H445 C461 0.930 . S
H446 C462 0.931 . S
C447 H435 0.929 . S
C447 C441 1.390 . S
C447 C444 1.386 . S
C448 C443 1.490 . S
C448 C450 1.395 . S
C448 C451 1.403 1_655 S
H449 C455 0.930 . S
C450 H436 0.930 . S
C450 C448 1.395 . S
C450 C453 1.403 . S
C451 C448 1.403 1_455 S
C451 C452 1.524 . S
C451 C455 1.400 . S
C452 H437 0.960 . S
C452 H438 0.958 1_455 S
C452 H439 0.960 . S
C452 C451 1.524 . S
C453 C450 1.403 . S
C453 C454 1.392 1_655 S
C453 C457 1.495 . S
C454 C453 1.392 1_455 S
C454 C455 1.385 . S
C454 C456 1.478 . S
C455 H449 0.930 . S
C455 C451 1.400 . S
C455 C454 1.385 . S
C456 C454 1.478 . S
C456 C458 1.381 . S
C456 C462 1.383 . S
C457 C453 1.495 . S
C457 H463 0.959 . S
C457 H464 0.961 . S
C457 H465 0.960 . S
C458 C456 1.381 . S
C458 C459 1.394 . S
C458 H466 0.930 1_455 S
C459 C458 1.394 . S
C459 C460 1.383 . S
C459 H467 0.929 . S
C460 C459 1.383 . S
C460 C461 1.377 . S
C461 H445 0.930 . S
C461 C460 1.377 . S
C461 C462 1.379 . S
C462 H446 0.931 . S
C462 C456 1.383 . S
C462 C461 1.379 . S
H463 C457 0.959 . S
H464 C457 0.961 . S
H465 C457 0.960 . S
H466 C458 0.930 1_655 S
H467 C459 0.929 . S
H468 C476 0.929 . S
H469 C478 0.930 . S
H470 C480 0.930 . S
H471 C483 0.929 . S
H472 C486 0.930 . S
H473 C488 0.929 1_554 S
H474 C488 0.967 . S
H475 C488 0.984 . S
C476 H468 0.929 . S
C476 C477 1.377 . S
C476 C478 1.384 . S
C477 C476 1.377 . S
C477 C483 1.390 . S
C478 H469 0.930 . S
C478 C476 1.384 . S
C478 C479 1.372 . S
C479 C478 1.372 . S
C479 C480 1.400 . S
C479 C484 1.490 . S
C480 H470 0.930 . S
C480 C479 1.400 . S
C480 C483 1.386 . S
H481 C497 0.930 . S
H482 C498 0.931 . S
C483 H471 0.929 . S
C483 C477 1.390 . S
C483 C480 1.386 . S
C484 C479 1.490 . S
C484 C486 1.395 1_565 S
C484 C487 1.403 . S
H485 C491 0.930 . S
C486 H472 0.930 . S
C486 C484 1.395 1_545 S
C486 C489 1.396 1_556 S
C487 C484 1.403 . S
C487 C488 1.525 . S
C487 C491 1.400 1_556 S
C488 H473 0.929 1_556 S
C488 H474 0.967 . S
C488 H475 0.984 . S
C488 C487 1.525 . S
C489 C486 1.396 1_554 S
C489 C490 1.399 . S
C489 C493 1.495 . S
C490 C489 1.399 . S
C490 C491 1.385 1_545 S
C490 C492 1.478 . S
C491 H485 0.930 . S
C491 C487 1.400 1_554 S
C491 C490 1.385 1_565 S
C492 C490 1.478 . S
C492 C494 1.381 . S
C492 C498 1.383 . S
C493 C489 1.495 . S
C493 H499 0.954 1_554 S
C493 H500 0.962 . S
C493 H501 0.964 . S
C494 C492 1.381 . S
C494 C495 1.394 . S
C494 H502 0.930 . S
C495 C494 1.394 . S
C495 C496 1.383 . S
C495 H503 0.929 . S
C496 C495 1.383 . S
C496 C497 1.377 . S
C497 H481 0.930 . S
C497 C496 1.377 . S
C497 C498 1.379 . S
C498 H482 0.931 . S
C498 C492 1.383 . S
C498 C497 1.379 . S
H499 C493 0.954 1_556 S
H500 C493 0.962 . S
H501 C493 0.964 . S
H502 C494 0.930 . S
H503 C495 0.929 . S
H504 C512 0.929 . S
H505 C514 0.930 . S
H506 C516 0.930 . S
H507 C519 0.929 . S
H508 C522 0.930 . S
H509 C524 0.960 . S
H510 C524 0.960 . S
H511 C524 0.960 . S
C512 H504 0.929 . S
C512 C513 1.377 . S
C512 C514 1.384 . S
C513 C512 1.377 . S
C513 C519 1.390 . S
C514 H505 0.930 . S
C514 C512 1.384 . S
C514 C515 1.372 . S
C515 C514 1.372 . S
C515 C516 1.400 . S
C515 C520 1.490 . S
C516 H506 0.930 . S
C516 C515 1.400 . S
C516 C519 1.386 . S
H517 C533 0.930 . S
H518 C534 0.931 . S
C519 H507 0.929 . S
C519 C513 1.390 . S
C519 C516 1.386 . S
C520 C515 1.490 . S
C520 C522 1.395 . S
C520 C523 1.403 . S
H521 C527 0.930 . S
C522 H508 0.930 . S
C522 C520 1.395 . S
C522 C525 1.403 . S
C523 C520 1.403 . S
C523 C524 1.524 . S
C523 C527 1.400 . S
C524 H509 0.960 . S
C524 H510 0.960 . S
C524 H511 0.960 . S
C524 C523 1.524 . S
C525 C522 1.403 . S
C525 C526 1.392 . S
C525 C529 1.495 . S
C526 C525 1.392 . S
C526 C527 1.385 . S
C526 C528 1.478 . S
C527 H521 0.930 . S
C527 C523 1.400 . S
C527 C526 1.385 . S
C528 C526 1.478 . S
C528 C530 1.381 . S
C528 C534 1.383 . S
C529 C525 1.495 . S
C529 H535 0.959 . S
C529 H536 0.961 . S
C529 H537 0.960 . S
C530 C528 1.381 . S
C530 C531 1.394 . S
C530 H538 0.930 . S
C531 C530 1.394 . S
C531 C532 1.383 . S
C531 H539 0.929 . S
C532 C531 1.383 . S
C532 C533 1.377 . S
C533 H517 0.930 . S
C533 C532 1.377 . S
C533 C534 1.379 . S
C534 H518 0.931 . S
C534 C528 1.383 . S
C534 C533 1.379 . S
H535 C529 0.959 . S
H536 C529 0.961 . S
H537 C529 0.960 . S
H538 C530 0.930 . S
H539 C531 0.929 . S
H540 C548 0.929 . S
H541 C550 0.930 . S
H542 C552 0.930 . S
H543 C555 0.929 . S
H544 C558 0.930 . S
H545 C560 0.960 . S
H546 C560 0.960 . S
H547 C560 0.976 . S
C548 H540 0.929 . S
C548 C549 1.377 . S
C548 C550 1.384 . S
C549 C548 1.377 . S
C549 C555 1.390 . S
C550 H541 0.930 . S
C550 C548 1.384 . S
C550 C551 1.372 . S
C551 C550 1.372 . S
C551 C552 1.400 . S
C551 C556 1.490 . S
C552 H542 0.930 . S
C552 C551 1.400 . S
C552 C555 1.386 . S
H553 C569 0.930 . S
H554 C570 0.931 . S
C555 H543 0.929 . S
C555 C549 1.390 . S
C555 C552 1.386 . S
C556 C551 1.490 . S
C556 C558 1.395 . S
C556 C559 1.403 1_455 S
H557 C563 0.930 . S
C558 H544 0.930 . S
C558 C556 1.395 . S
C558 C561 1.403 . S
C559 C556 1.403 1_655 S
C559 C560 1.524 . S
C559 C563 1.400 . S
C560 H545 0.960 . S
C560 H546 0.960 . S
C560 H547 0.976 . S
C560 C559 1.524 . S
C561 C558 1.403 . S
C561 C562 1.392 1_455 S
C561 C565 1.495 . S
C562 C561 1.392 1_655 S
C562 C563 1.385 . S
C562 C564 1.478 . S
C563 H557 0.930 . S
C563 C559 1.400 . S
C563 C562 1.385 . S
C564 C562 1.478 . S
C564 C566 1.381 . S
C564 C570 1.383 . S
C565 C561 1.495 . S
C565 H571 0.959 . S
C565 H572 0.961 . S
C565 H573 0.965 . S
C566 C564 1.381 . S
C566 C567 1.394 . S
C566 H574 0.930 . S
C567 C566 1.394 . S
C567 C568 1.383 . S
C567 H575 0.929 . S
C568 C567 1.383 . S
C568 C569 1.377 . S
C569 H553 0.930 . S
C569 C568 1.377 . S
C569 C570 1.379 . S
C570 H554 0.931 . S
C570 C564 1.383 . S
C570 C569 1.379 . S
H571 C565 0.959 . S
H572 C565 0.961 . S
H573 C565 0.965 . S
H574 C566 0.930 . S
H575 C567 0.929 . S
H576 C584 0.929 . S
H577 C586 0.930 1_565 S
H578 C588 0.930 . S
H579 C591 0.929 . S
H580 C594 0.930 . S
H581 C596 0.960 . S
H582 C596 0.960 . S
H583 C596 0.960 . S
C584 H576 0.929 . S
C584 C585 1.377 . S
C584 C586 1.384 . S
C585 C584 1.377 . S
C585 C591 1.390 . S
C586 H577 0.930 1_545 S
C586 C584 1.384 . S
C586 C587 1.372 . S
C587 C586 1.372 . S
C587 C588 1.400 . S
C587 C592 1.490 . S
C588 H578 0.930 . S
C588 C587 1.400 . S
C588 C591 1.386 . S
H589 C605 0.930 . S
H590 C606 0.931 1_545 S
C591 H579 0.929 . S
C591 C585 1.390 . S
C591 C588 1.386 . S
C592 C587 1.490 . S
C592 C594 1.395 . S
C592 C595 1.403 . S
H593 C599 0.930 . S
C594 H580 0.930 . S
C594 C592 1.395 . S
C594 C597 1.403 1_546 S
C595 C592 1.403 . S
C595 C596 1.524 . S
C595 C599 1.400 1_546 S
C596 H581 0.960 . S
C596 H582 0.960 . S
C596 H583 0.960 . S
C596 C595 1.524 . S
C597 C594 1.403 1_564 S
C597 C598 1.392 . S
C597 C601 1.495 . S
C598 C597 1.392 . S
C598 C599 1.385 . S
C598 C600 1.478 . S
C599 H593 0.930 . S
C599 C595 1.400 1_564 S
C599 C598 1.385 . S
C600 C598 1.478 . S
C600 C602 1.381 . S
C600 C606 1.383 . S
C601 C597 1.495 . S
C601 H607 0.959 . S
C601 H608 0.961 . S
C601 H609 0.960 . S
C602 C600 1.381 . S
C602 C603 1.394 . S
C602 H610 0.930 . S
C603 C602 1.394 . S
C603 C604 1.383 . S
C603 H611 0.929 . S
C604 C603 1.383 . S
C604 C605 1.377 . S
C605 H589 0.930 . S
C605 C604 1.377 . S
C605 C606 1.379 . S
C606 H590 0.931 1_565 S
C606 C600 1.383 . S
C606 C605 1.379 . S
H607 C601 0.959 . S
H608 C601 0.961 . S
H609 C601 0.960 . S
H610 C602 0.930 . S
H611 C603 0.929 . S
H612 C620 0.929 . S
H613 C622 0.930 . S
H614 C624 0.930 . S
H615 C627 0.929 . S
H616 C630 0.930 . S
H617 C632 0.960 . S
H618 C632 0.960 . S
H619 C632 0.960 . S
C620 H612 0.929 . S
C620 C621 1.377 . S
C620 C622 1.384 . S
C621 C620 1.377 . S
C621 C627 1.390 . S
C622 H613 0.930 . S
C622 C620 1.384 . S
C622 C623 1.372 . S
C623 C622 1.372 . S
C623 C624 1.400 . S
C623 C628 1.490 . S
C624 H614 0.930 . S
C624 C623 1.400 . S
C624 C627 1.386 . S
H625 C641 0.930 . S
H626 C642 0.931 . S
C627 H615 0.929 . S
C627 C621 1.390 . S
C627 C624 1.386 . S
C628 C623 1.490 . S
C628 C630 1.395 . S
C628 C631 1.403 . S
H629 C635 0.930 . S
C630 H616 0.930 . S
C630 C628 1.395 . S
C630 C633 1.403 1_556 S
C631 C628 1.403 . S
C631 C632 1.524 . S
C631 C635 1.400 1_556 S
C632 H617 0.960 . S
C632 H618 0.960 . S
C632 H619 0.960 . S
C632 C631 1.524 . S
C633 C630 1.403 1_554 S
C633 C634 1.392 . S
C633 C637 1.495 . S
C634 C633 1.392 . S
C634 C635 1.385 . S
C634 C636 1.478 . S
C635 H629 0.930 . S
C635 C631 1.400 1_554 S
C635 C634 1.385 . S
C636 C634 1.478 . S
C636 C638 1.381 . S
C636 C642 1.383 . S
C637 C633 1.495 . S
C637 H643 0.959 . S
C637 H644 0.961 . S
C637 H645 0.960 . S
C638 C636 1.381 . S
C638 C639 1.394 . S
C638 H646 0.930 . S
C639 C638 1.394 . S
C639 C640 1.383 . S
C639 H647 0.929 . S
C640 C639 1.383 . S
C640 C641 1.377 . S
C641 H625 0.930 . S
C641 C640 1.377 . S
C641 C642 1.379 . S
C642 H626 0.931 . S
C642 C636 1.383 . S
C642 C641 1.379 . S
H643 C637 0.959 . S
H644 C637 0.961 . S
H645 C637 0.960 . S
H646 C638 0.930 . S
H647 C639 0.929 . S
H648 C656 0.929 . S
H649 C658 0.930 . S
H650 C660 0.930 . S
H651 C663 0.929 . S
H652 C666 0.930 . S
H653 C668 0.960 . S
H654 C668 0.960 . S
H655 C668 0.960 . S
C656 H648 0.929 . S
C656 C657 1.377 . S
C656 C658 1.384 . S
C657 C656 1.377 . S
C657 C663 1.390 . S
C658 H649 0.930 . S
C658 C656 1.384 . S
C658 C659 1.372 . S
C659 C658 1.372 . S
C659 C660 1.400 . S
C659 C664 1.490 . S
C660 H650 0.930 . S
C660 C659 1.400 . S
C660 C663 1.386 . S
H661 C677 0.930 . S
H662 C678 0.931 . S
C663 H651 0.929 . S
C663 C657 1.390 . S
C663 C660 1.386 . S
C664 C659 1.490 . S
C664 C666 1.395 . S
C664 C667 1.403 . S
H665 C671 0.930 . S
C666 H652 0.930 . S
C666 C664 1.395 . S
C666 C669 1.403 . S
C667 C664 1.403 . S
C667 C668 1.524 . S
C667 C671 1.400 . S
C668 H653 0.960 . S
C668 H654 0.960 . S
C668 H655 0.960 . S
C668 C667 1.524 . S
C669 C666 1.403 . S
C669 C670 1.392 . S
C669 C673 1.495 . S
C670 C669 1.392 . S
C670 C671 1.385 . S
C670 C672 1.478 . S
C671 H665 0.930 . S
C671 C667 1.400 . S
C671 C670 1.385 . S
C672 C670 1.478 . S
C672 C674 1.381 . S
C672 C678 1.383 . S
C673 C669 1.495 . S
C673 H679 0.959 . S
C673 H680 0.961 . S
C673 H681 0.960 . S
C674 C672 1.381 . S
C674 C675 1.394 . S
C674 H682 0.930 . S
C675 C674 1.394 . S
C675 C676 1.383 . S
C675 H683 0.929 . S
C676 C675 1.383 . S
C676 C677 1.377 . S
C677 H661 0.930 . S
C677 C676 1.377 . S
C677 C678 1.379 . S
C678 H662 0.931 . S
C678 C672 1.383 . S
C678 C677 1.379 . S
H679 C673 0.959 . S
H680 C673 0.961 . S
H681 C673 0.960 . S
H682 C674 0.930 . S
H683 C675 0.929 . S
H684 C692 0.929 . S
H685 C694 0.930 . S
H686 C696 0.930 . S
H687 C699 0.929 . S
H688 C702 0.930 . S
H689 C704 0.960 . S
H690 C704 0.960 . S
H691 C704 0.960 . S
C692 H684 0.929 . S
C692 C693 1.377 . S
C692 C694 1.384 . S
C693 C692 1.377 . S
C693 C699 1.390 . S
C694 H685 0.930 . S
C694 C692 1.384 . S
C694 C695 1.372 . S
C695 C694 1.372 . S
C695 C696 1.400 . S
C695 C700 1.490 . S
C696 H686 0.930 . S
C696 C695 1.400 . S
C696 C699 1.386 . S
H697 C713 0.930 . S
H698 C714 0.931 . S
C699 H687 0.929 . S
C699 C693 1.390 . S
C699 C696 1.386 . S
C700 C695 1.490 . S
C700 C702 1.395 . S
C700 C703 1.403 . S
H701 C707 0.930 . S
C702 H688 0.930 . S
C702 C700 1.395 . S
C702 C705 1.403 . S
C703 C700 1.403 . S
C703 C704 1.524 . S
C703 C707 1.400 . S
C704 H689 0.960 . S
C704 H690 0.960 . S
C704 H691 0.960 . S
C704 C703 1.524 . S
C705 C702 1.403 . S
C705 C706 1.392 . S
C705 C709 1.495 . S
C706 C705 1.392 . S
C706 C707 1.385 . S
C706 C708 1.478 . S
C707 H701 0.930 . S
C707 C703 1.400 . S
C707 C706 1.385 . S
C708 C706 1.478 . S
C708 C710 1.381 . S
C708 C714 1.383 . S
C709 C705 1.495 . S
C709 H715 0.959 . S
C709 H716 0.961 . S
C709 H717 0.960 . S
C710 C708 1.381 . S
C710 C711 1.394 . S
C710 H718 0.930 . S
C711 C710 1.394 . S
C711 C712 1.383 . S
C711 H719 0.929 . S
C712 C711 1.383 . S
C712 C713 1.377 . S
C713 H697 0.930 . S
C713 C712 1.377 . S
C713 C714 1.379 . S
C714 H698 0.931 . S
C714 C708 1.383 . S
C714 C713 1.379 . S
H715 C709 0.959 . S
H716 C709 0.961 . S
H717 C709 0.960 . S
H718 C710 0.930 . S
H719 C711 0.929 . S
H720 C728 0.929 . S
H721 C730 0.930 . S
H722 C732 0.930 . S
H723 C735 0.929 . S
H724 C738 0.930 . S
H725 C740 0.960 . S
H726 C740 0.960 . S
H727 C740 0.960 . S
C728 H720 0.929 . S
C728 C729 1.377 . S
C728 C730 1.384 . S
C729 C728 1.377 . S
C729 C735 1.390 . S
C730 H721 0.930 . S
C730 C728 1.384 . S
C730 C731 1.372 . S
C731 C730 1.372 . S
C731 C732 1.400 . S
C731 C736 1.490 . S
C732 H722 0.930 . S
C732 C731 1.400 . S
C732 C735 1.386 . S
H733 C749 0.930 . S
H734 C750 0.931 . S
C735 H723 0.929 . S
C735 C729 1.390 . S
C735 C732 1.386 . S
C736 C731 1.490 . S
C736 C738 1.395 . S
C736 C739 1.403 . S
H737 C743 0.930 . S
C738 H724 0.930 . S
C738 C736 1.395 . S
C738 C741 1.403 1_556 S
C739 C736 1.403 . S
C739 C740 1.524 . S
C739 C743 1.400 1_556 S
C740 H725 0.960 . S
C740 H726 0.960 . S
C740 H727 0.960 . S
C740 C739 1.524 . S
C741 C738 1.403 1_554 S
C741 C742 1.392 . S
C741 C745 1.495 . S
C742 C741 1.392 . S
C742 C743 1.385 . S
C742 C744 1.478 . S
C743 H737 0.930 . S
C743 C739 1.400 1_554 S
C743 C742 1.385 . S
C744 C742 1.478 . S
C744 C746 1.381 . S
C744 C750 1.383 . S
C745 C741 1.495 . S
C745 H751 0.959 . S
C745 H752 0.961 . S
C745 H753 0.960 . S
C746 C744 1.381 . S
C746 C747 1.394 . S
C746 H754 0.930 . S
C747 C746 1.394 . S
C747 C748 1.383 . S
C747 H755 0.929 . S
C748 C747 1.383 . S
C748 C749 1.377 . S
C749 H733 0.930 . S
C749 C748 1.377 . S
C749 C750 1.379 . S
C750 H734 0.931 . S
C750 C744 1.383 . S
C750 C749 1.379 . S
H751 C745 0.959 . S
H752 C745 0.961 . S
H753 C745 0.960 . S
H754 C746 0.930 . S
H755 C747 0.929 . S
H756 C764 0.929 . S
H757 C766 0.930 . S
H758 C768 0.930 . S
H759 C771 0.929 . S
H760 C774 0.930 . S
H761 C776 0.960 . S
H762 C776 0.960 . S
H763 C776 0.960 . S
C764 H756 0.929 . S
C764 C765 1.377 . S
C764 C766 1.384 . S
C765 C764 1.377 . S
C765 C771 1.390 . S
C766 H757 0.930 . S
C766 C764 1.384 . S
C766 C767 1.372 . S
C767 C766 1.372 . S
C767 C768 1.400 . S
C767 C772 1.490 . S
C768 H758 0.930 . S
C768 C767 1.400 . S
C768 C771 1.386 . S
H769 C785 0.930 . S
H770 C786 0.931 . S
C771 H759 0.929 . S
C771 C765 1.390 . S
C771 C768 1.386 . S
C772 C767 1.490 . S
C772 C774 1.395 . S
C772 C775 1.403 . S
H773 C779 0.930 . S
C774 H760 0.930 . S
C774 C772 1.395 . S
C774 C777 1.403 . S
C775 C772 1.403 . S
C775 C776 1.524 . S
C775 C779 1.400 . S
C776 H761 0.960 . S
C776 H762 0.960 . S
C776 H763 0.960 . S
C776 C775 1.524 . S
C777 C774 1.403 . S
C777 C778 1.392 . S
C777 C781 1.495 . S
C778 C777 1.392 . S
C778 C779 1.385 . S
C778 C780 1.478 . S
C779 H773 0.930 . S
C779 C775 1.400 . S
C779 C778 1.385 . S
C780 C778 1.478 . S
C780 C782 1.381 . S
C780 C786 1.383 . S
C781 C777 1.495 . S
C781 H787 0.959 . S
C781 H788 0.961 . S
C781 H789 0.960 . S
C782 C780 1.381 . S
C782 C783 1.394 . S
C782 H790 0.930 . S
C783 C782 1.394 . S
C783 C784 1.383 . S
C783 H791 0.929 . S
C784 C783 1.383 . S
C784 C785 1.377 . S
C785 H769 0.930 . S
C785 C784 1.377 . S
C785 C786 1.379 . S
C786 H770 0.931 . S
C786 C780 1.383 . S
C786 C785 1.379 . S
H787 C781 0.959 . S
H788 C781 0.961 . S
H789 C781 0.960 . S
H790 C782 0.930 . S
H791 C783 0.929 . S
H792 C800 0.929 . S
H793 C802 0.930 . S
H794 C804 0.930 . S
H795 C807 0.929 . S
H796 C810 0.930 . S
H797 C812 0.960 . S
H798 C812 0.960 . S
H799 C812 0.960 . S
C800 H792 0.929 . S
C800 C801 1.377 . S
C800 C802 1.384 . S
C801 C800 1.377 . S
C801 C807 1.390 . S
C802 H793 0.930 . S
C802 C800 1.384 . S
C802 C803 1.372 . S
C803 C802 1.372 . S
C803 C804 1.400 . S
C803 C808 1.490 . S
C804 H794 0.930 . S
C804 C803 1.400 . S
C804 C807 1.386 . S
H805 C821 0.930 . S
H806 C822 0.931 . S
C807 H795 0.929 . S
C807 C801 1.390 . S
C807 C804 1.386 . S
C808 C803 1.490 . S
C808 C810 1.395 . S
C808 C811 1.403 . S
H809 C815 0.930 . S
C810 H796 0.930 . S
C810 C808 1.395 . S
C810 C813 1.403 . S
C811 C808 1.403 . S
C811 C812 1.524 . S
C811 C815 1.400 . S
C812 H797 0.960 . S
C812 H798 0.960 . S
C812 H799 0.960 . S
C812 C811 1.524 . S
C813 C810 1.403 . S
C813 C814 1.392 . S
C813 C817 1.495 . S
C814 C813 1.392 . S
C814 C815 1.385 . S
C814 C816 1.478 . S
C815 H809 0.930 . S
C815 C811 1.400 . S
C815 C814 1.385 . S
C816 C814 1.478 . S
C816 C818 1.381 . S
C816 C822 1.383 . S
C817 C813 1.495 . S
C817 H823 0.959 . S
C817 H824 0.961 . S
C817 H825 0.960 . S
C818 C816 1.381 . S
C818 C819 1.394 . S
C818 H826 0.930 . S
C819 C818 1.394 . S
C819 C820 1.383 . S
C819 H827 0.929 . S
C820 C819 1.383 . S
C820 C821 1.377 . S
C821 H805 0.930 . S
C821 C820 1.377 . S
C821 C822 1.379 . S
C822 H806 0.931 . S
C822 C816 1.383 . S
C822 C821 1.379 . S
H823 C817 0.959 . S
H824 C817 0.961 . S
H825 C817 0.960 . S
H826 C818 0.930 . S
H827 C819 0.929 . S
H828 C836 0.929 . S
H829 C838 0.930 . S
H830 C840 0.930 . S
H831 C843 0.929 . S
H832 C846 0.930 . S
H833 C848 0.960 . S
H834 C848 0.960 . S
H835 C848 0.960 . S
C836 H828 0.929 . S
C836 C837 1.377 . S
C836 C838 1.384 . S
C837 C836 1.377 . S
C837 C843 1.390 . S
C838 H829 0.930 . S
C838 C836 1.384 . S
C838 C839 1.372 . S
C839 C838 1.372 . S
C839 C840 1.400 . S
C839 C844 1.490 . S
C840 H830 0.930 . S
C840 C839 1.400 . S
C840 C843 1.386 . S
H841 C857 0.930 . S
H842 C858 0.931 . S
C843 H831 0.929 . S
C843 C837 1.390 . S
C843 C840 1.386 . S
C844 C839 1.490 . S
C844 C846 1.395 . S
C844 C847 1.403 . S
H845 C851 0.930 . S
C846 H832 0.930 . S
C846 C844 1.395 . S
C846 C849 1.403 . S
C847 C844 1.403 . S
C847 C848 1.524 . S
C847 C851 1.400 . S
C848 H833 0.960 . S
C848 H834 0.960 . S
C848 H835 0.960 . S
C848 C847 1.524 . S
C849 C846 1.403 . S
C849 C850 1.392 . S
C849 C853 1.495 . S
C850 C849 1.392 . S
C850 C851 1.385 . S
C850 C852 1.478 . S
C851 H845 0.930 . S
C851 C847 1.400 . S
C851 C850 1.385 . S
C852 C850 1.478 . S
C852 C854 1.381 . S
C852 C858 1.383 . S
C853 C849 1.495 . S
C853 H859 0.959 . S
C853 H860 0.961 . S
C853 H861 0.960 . S
C854 C852 1.381 . S
C854 C855 1.394 . S
C854 H862 0.930 . S
C855 C854 1.394 . S
C855 C856 1.383 . S
C855 H863 0.929 . S
C856 C855 1.383 . S
C856 C857 1.377 . S
C857 H841 0.930 . S
C857 C856 1.377 . S
C857 C858 1.379 . S
C858 H842 0.931 . S
C858 C852 1.383 . S
C858 C857 1.379 . S
H859 C853 0.959 . S
H860 C853 0.961 . S
H861 C853 0.960 . S
H862 C854 0.930 . S
H863 C855 0.929 . S
H864 C872 0.929 . S
H865 C874 0.930 . S
H866 C876 0.930 . S
H867 C879 0.929 . S
H868 C882 0.930 . S
H869 C884 0.960 . S
H870 C884 0.960 . S
H871 C884 0.960 . S
C872 H864 0.929 . S
C872 C873 1.377 . S
C872 C874 1.384 . S
C873 C872 1.377 . S
C873 C879 1.390 . S
C874 H865 0.930 . S
C874 C872 1.384 . S
C874 C875 1.372 . S
C875 C874 1.372 . S
C875 C876 1.400 . S
C875 C880 1.490 . S
C876 H866 0.930 . S
C876 C875 1.400 . S
C876 C879 1.386 . S
H877 C893 0.930 . S
H878 C894 0.931 . S
C879 H867 0.929 . S
C879 C873 1.390 . S
C879 C876 1.386 . S
C880 C875 1.490 . S
C880 C882 1.395 . S
C880 C883 1.403 1_655 S
H881 C887 0.930 . S
C882 H868 0.930 . S
C882 C880 1.395 . S
C882 C885 1.403 . S
C883 C880 1.403 1_455 S
C883 C884 1.524 . S
C883 C887 1.400 . S
C884 H869 0.960 . S
C884 H870 0.960 . S
C884 H871 0.960 . S
C884 C883 1.524 . S
C885 C882 1.403 . S
C885 C886 1.392 1_655 S
C885 C889 1.495 . S
C886 C885 1.392 1_455 S
C886 C887 1.385 . S
C886 C888 1.478 . S
C887 H881 0.930 . S
C887 C883 1.400 . S
C887 C886 1.385 . S
C888 C886 1.478 . S
C888 C890 1.381 . S
C888 C894 1.383 . S
C889 C885 1.495 . S
C889 H895 0.959 . S
C889 H896 0.961 . S
C889 H897 0.960 . S
C890 C888 1.381 . S
C890 C891 1.394 . S
C890 H898 0.930 . S
C891 C890 1.394 . S
C891 C892 1.383 . S
C891 H899 0.929 . S
C892 C891 1.383 . S
C892 C893 1.377 . S
C893 H877 0.930 . S
C893 C892 1.377 . S
C893 C894 1.379 . S
C894 H878 0.931 . S
C894 C888 1.383 . S
C894 C893 1.379 . S
H895 C889 0.959 . S
H896 C889 0.961 . S
H897 C889 0.960 . S
H898 C890 0.930 . S
H899 C891 0.929 . S
H900 C908 0.929 . S
H901 C910 0.930 . S
H902 C912 0.930 . S
H903 C915 0.929 . S
H904 C918 0.930 . S
H905 C920 0.960 . S
H906 C920 0.960 . S
H907 C920 0.960 . S
C908 H900 0.929 . S
C908 C909 1.377 . S
C908 C910 1.384 . S
C909 C908 1.377 . S
C909 C915 1.390 . S
C910 H901 0.930 . S
C910 C908 1.384 . S
C910 C911 1.372 . S
C911 C910 1.372 . S
C911 C912 1.400 . S
C911 C916 1.490 . S
C912 H902 0.930 . S
C912 C911 1.400 . S
C912 C915 1.386 . S
H913 C929 0.930 . S
H914 C930 0.931 . S
C915 H903 0.929 . S
C915 C909 1.390 . S
C915 C912 1.386 . S
C916 C911 1.490 . S
C916 C918 1.395 . S
C916 C919 1.403 1_545 S
H917 C923 0.930 . S
C918 H904 0.930 . S
C918 C916 1.395 . S
C918 C921 1.403 . S
C919 C916 1.403 1_565 S
C919 C920 1.524 . S
C919 C923 1.400 . S
C920 H905 0.960 . S
C920 H906 0.960 . S
C920 H907 0.960 . S
C920 C919 1.524 . S
C921 C918 1.403 . S
C921 C922 1.392 1_545 S
C921 C925 1.495 . S
C922 C921 1.392 1_565 S
C922 C923 1.385 . S
C922 C924 1.478 . S
C923 H917 0.930 . S
C923 C919 1.400 . S
C923 C922 1.385 . S
C924 C922 1.478 . S
C924 C926 1.381 . S
C924 C930 1.383 . S
C925 C921 1.495 . S
C925 H931 0.959 . S
C925 H932 0.961 . S
C925 H933 0.960 . S
C926 C924 1.381 . S
C926 C927 1.394 . S
C926 H934 0.930 . S
C927 C926 1.394 . S
C927 C928 1.383 . S
C927 H935 0.929 . S
C928 C927 1.383 . S
C928 C929 1.377 . S
C929 H913 0.930 . S
C929 C928 1.377 . S
C929 C930 1.379 . S
C930 H914 0.931 . S
C930 C924 1.383 . S
C930 C929 1.379 . S
H931 C925 0.959 . S
H932 C925 0.961 . S
H933 C925 0.960 . S
H934 C926 0.930 . S
H935 C927 0.929 . S
H936 C944 0.929 . S
H937 C946 0.930 . S
H938 C948 0.930 . S
H939 C951 0.929 . S
H940 C954 0.930 . S
H941 C956 0.960 . S
H942 C956 0.960 . S
H943 C956 0.960 . S
C944 H936 0.929 . S
C944 C945 1.377 . S
C944 C946 1.384 . S
C945 C944 1.377 . S
C945 C951 1.390 . S
C946 H937 0.930 . S
C946 C944 1.384 . S
C946 C947 1.372 . S
C947 C946 1.372 . S
C947 C948 1.400 . S
C947 C952 1.490 . S
C948 H938 0.930 . S
C948 C947 1.400 . S
C948 C951 1.386 . S
H949 C965 0.930 . S
H950 C966 0.931 . S
C951 H939 0.929 . S
C951 C945 1.390 . S
C951 C948 1.386 . S
C952 C947 1.490 . S
C952 C954 1.395 . S
C952 C955 1.403 . S
H953 C959 0.930 . S
C954 H940 0.930 . S
C954 C952 1.395 . S
C954 C957 1.403 . S
C955 C952 1.403 . S
C955 C956 1.524 . S
C955 C959 1.400 . S
C956 H941 0.960 . S
C956 H942 0.960 . S
C956 H943 0.960 . S
C956 C955 1.524 . S
C957 C954 1.403 . S
C957 C958 1.392 . S
C957 C961 1.495 . S
C958 C957 1.392 . S
C958 C959 1.385 . S
C958 C960 1.478 . S
C959 H953 0.930 . S
C959 C955 1.400 . S
C959 C958 1.385 . S
C960 C958 1.478 . S
C960 C962 1.381 . S
C960 C966 1.383 . S
C961 C957 1.495 . S
C961 H967 0.959 . S
C961 H968 0.961 . S
C961 H969 0.960 . S
C962 C960 1.381 . S
C962 C963 1.394 . S
C962 H970 0.930 . S
C963 C962 1.394 . S
C963 C964 1.383 . S
C963 H971 0.929 . S
C964 C963 1.383 . S
C964 C965 1.377 . S
C965 H949 0.930 . S
C965 C964 1.377 . S
C965 C966 1.379 . S
C966 H950 0.931 . S
C966 C960 1.383 . S
C966 C965 1.379 . S
H967 C961 0.959 . S
H968 C961 0.961 . S
H969 C961 0.960 . S
H970 C962 0.930 . S
H971 C963 0.929 . S
H972 C980 0.929 . S
H973 C982 0.930 . S
H974 C984 0.930 . S
H975 C987 0.929 . S
H976 C990 0.930 . S
H977 C992 0.960 . S
H978 C992 0.960 . S
H979 C992 0.960 . S
C980 H972 0.929 . S
C980 C981 1.377 . S
C980 C982 1.384 . S
C981 C980 1.377 . S
C981 C987 1.390 . S
C982 H973 0.930 . S
C982 C980 1.384 . S
C982 C983 1.372 . S
C983 C982 1.372 . S
C983 C984 1.400 . S
C983 C988 1.490 . S
C984 H974 0.930 . S
C984 C983 1.400 . S
C984 C987 1.386 . S
H985 C1001 0.930 . S
H986 C1002 0.931 . S
C987 H975 0.929 . S
C987 C981 1.390 . S
C987 C984 1.386 . S
C988 C983 1.490 . S
C988 C990 1.395 1_655 S
C988 C991 1.403 . S
H989 C995 0.930 . S
C990 H976 0.930 . S
C990 C988 1.395 1_455 S
C990 C993 1.403 . S
C991 C988 1.403 . S
C991 C992 1.524 . S
C991 C995 1.400 . S
C992 H977 0.960 . S
C992 H978 0.960 . S
C992 H979 0.960 . S
C992 C991 1.524 . S
C993 C990 1.403 . S
C993 C994 1.392 . S
C993 C997 1.495 . S
C994 C993 1.392 . S
C994 C995 1.385 1_455 S
C994 C996 1.478 . S
C995 H989 0.930 . S
C995 C991 1.400 . S
C995 C994 1.385 1_655 S
C996 C994 1.478 . S
C996 C998 1.381 . S
C996 C1002 1.383 . S
C997 C993 1.495 . S
C997 H1003 0.959 . S
C997 H1004 0.961 . S
C997 H1005 0.960 . S
C998 C996 1.381 . S
C998 C999 1.394 . S
C998 H1006 0.930 . S
C999 C998 1.394 . S
C999 C1000 1.383 . S
C999 H1007 0.929 . S
C1000 C999 1.383 . S
C1000 C1001 1.377 . S
C1001 H985 0.930 . S
C1001 C1000 1.377 . S
C1001 C1002 1.379 . S
C1002 H986 0.931 . S
C1002 C996 1.383 . S
C1002 C1001 1.379 . S
H1003 C997 0.959 . S
H1004 C997 0.961 . S
H1005 C997 0.960 . S
H1006 C998 0.930 . S
H1007 C999 0.929 . S
H1008 C1016 0.929 . S
H1009 C1018 0.930 . S
H1010 C1020 0.930 . S
H1011 C1023 0.929 . S
H1012 C1026 0.930 . S
H1013 C1028 0.960 . S
H1014 C1028 0.960 . S
H1015 C1028 0.960 . S
C1016 H1008 0.929 . S
C1016 C1017 1.377 . S
C1016 C1018 1.384 . S
C1017 C1016 1.377 . S
C1017 C1023 1.390 . S
C1018 H1009 0.930 . S
C1018 C1016 1.384 . S
C1018 C1019 1.372 . S
C1019 C1018 1.372 . S
C1019 C1020 1.400 . S
C1019 C1024 1.490 . S
C1020 H1010 0.930 . S
C1020 C1019 1.400 . S
C1020 C1023 1.386 . S
H1021 C1037 0.930 . S
H1022 C1038 0.931 . S
C1023 H1011 0.929 . S
C1023 C1017 1.390 . S
C1023 C1020 1.386 . S
C1024 C1019 1.490 . S
C1024 C1026 1.395 1_545 S
C1024 C1027 1.403 . S
H1025 C1031 0.930 . S
C1026 H1012 0.930 . S
C1026 C1024 1.395 1_565 S
C1026 C1029 1.403 . S
C1027 C1024 1.403 . S
C1027 C1028 1.524 . S
C1027 C1031 1.400 . S
C1028 H1013 0.960 . S
C1028 H1014 0.960 . S
C1028 H1015 0.960 . S
C1028 C1027 1.524 . S
C1029 C1026 1.403 . S
C1029 C1030 1.392 . S
C1029 C1033 1.495 . S
C1030 C1029 1.392 . S
C1030 C1031 1.385 1_565 S
C1030 C1032 1.478 . S
C1031 H1025 0.930 . S
C1031 C1027 1.400 . S
C1031 C1030 1.385 1_545 S
C1032 C1030 1.478 . S
C1032 C1034 1.381 . S
C1032 C1038 1.383 . S
C1033 C1029 1.495 . S
C1033 H1039 0.959 . S
C1033 H1040 0.961 . S
C1033 H1041 0.960 . S
C1034 C1032 1.381 . S
C1034 C1035 1.394 . S
C1034 H1042 0.930 . S
C1035 C1034 1.394 . S
C1035 C1036 1.383 . S
C1035 H1043 0.929 . S
C1036 C1035 1.383 . S
C1036 C1037 1.377 . S
C1037 H1021 0.930 . S
C1037 C1036 1.377 . S
C1037 C1038 1.379 . S
C1038 H1022 0.931 . S
C1038 C1032 1.383 . S
C1038 C1037 1.379 . S
H1039 C1033 0.959 . S
H1040 C1033 0.961 . S
H1041 C1033 0.960 . S
H1042 C1034 0.930 . S
H1043 C1035 0.929 . S
H1044 C1052 0.929 . S
H1045 C1054 0.930 . S
H1046 C1056 0.930 . S
H1047 C1059 0.929 . S
H1048 C1062 0.930 . S
H1049 C1064 0.960 . S
H1050 C1064 0.960 . S
H1051 C1064 0.960 . S
C1052 H1044 0.929 . S
C1052 C1053 1.377 . S
C1052 C1054 1.384 . S
C1053 C1052 1.377 . S
C1053 C1059 1.390 . S
C1054 H1045 0.930 . S
C1054 C1052 1.384 . S
C1054 C1055 1.372 . S
C1055 C1054 1.372 . S
C1055 C1056 1.400 . S
C1055 C1060 1.490 . S
C1056 H1046 0.930 . S
C1056 C1055 1.400 . S
C1056 C1059 1.386 . S
H1057 C1073 0.930 . S
H1058 C1074 0.931 . S
C1059 H1047 0.929 . S
C1059 C1053 1.390 . S
C1059 C1056 1.386 . S
C1060 C1055 1.490 . S
C1060 C1062 1.395 . S
C1060 C1063 1.403 . S
H1061 C1067 0.930 . S
C1062 H1048 0.930 . S
C1062 C1060 1.395 . S
C1062 C1065 1.403 1_455 S
C1063 C1060 1.403 . S
C1063 C1064 1.524 . S
C1063 C1067 1.400 1_455 S
C1064 H1049 0.960 . S
C1064 H1050 0.960 . S
C1064 H1051 0.960 . S
C1064 C1063 1.524 . S
C1065 C1062 1.403 1_655 S
C1065 C1066 1.392 . S
C1065 C1069 1.495 . S
C1066 C1065 1.392 . S
C1066 C1067 1.385 . S
C1066 C1068 1.478 . S
C1067 H1061 0.930 . S
C1067 C1063 1.400 1_655 S
C1067 C1066 1.385 . S
C1068 C1066 1.478 . S
C1068 C1070 1.381 . S
C1068 C1074 1.383 . S
C1069 C1065 1.495 . S
C1069 H1075 0.959 . S
C1069 H1076 0.961 . S
C1069 H1077 0.960 . S
C1070 C1068 1.381 . S
C1070 C1071 1.394 . S
C1070 H1078 0.930 . S
C1071 C1070 1.394 . S
C1071 C1072 1.383 . S
C1071 H1079 0.929 . S
C1072 C1071 1.383 . S
C1072 C1073 1.377 . S
C1073 H1057 0.930 . S
C1073 C1072 1.377 . S
C1073 C1074 1.379 . S
C1074 H1058 0.931 . S
C1074 C1068 1.383 . S
C1074 C1073 1.379 . S
H1075 C1069 0.959 . S
H1076 C1069 0.961 . S
H1077 C1069 0.960 . S
H1078 C1070 0.930 . S
H1079 C1071 0.929 . S
H1080 C1088 0.929 . S
H1081 C1090 0.930 . S
H1082 C1092 0.930 . S
H1083 C1095 0.929 . S
H1084 C1098 0.930 . S
H1085 C1100 0.960 . S
H1086 C1100 0.960 . S
H1087 C1100 0.960 . S
C1088 H1080 0.929 . S
C1088 C1089 1.377 . S
C1088 C1090 1.384 . S
C1089 C1088 1.377 . S
C1089 C1095 1.390 . S
C1090 H1081 0.930 . S
C1090 C1088 1.384 . S
C1090 C1091 1.372 . S
C1091 C1090 1.372 . S
C1091 C1092 1.400 . S
C1091 C1096 1.490 . S
C1092 H1082 0.930 . S
C1092 C1091 1.400 . S
C1092 C1095 1.386 . S
H1093 C1109 0.930 . S
H1094 C1110 0.931 . S
C1095 H1083 0.929 . S
C1095 C1089 1.390 . S
C1095 C1092 1.386 . S
C1096 C1091 1.490 . S
C1096 C1098 1.395 . S
C1096 C1099 1.403 . S
H1097 C1103 0.930 . S
C1098 H1084 0.930 . S
C1098 C1096 1.395 . S
C1098 C1101 1.403 1_565 S
C1099 C1096 1.403 . S
C1099 C1100 1.524 . S
C1099 C1103 1.400 1_565 S
C1100 H1085 0.960 . S
C1100 H1086 0.960 . S
C1100 H1087 0.960 . S
C1100 C1099 1.524 . S
C1101 C1098 1.403 1_545 S
C1101 C1102 1.392 . S
C1101 C1105 1.495 . S
C1102 C1101 1.392 . S
C1102 C1103 1.385 . S
C1102 C1104 1.478 . S
C1103 H1097 0.930 . S
C1103 C1099 1.400 1_545 S
C1103 C1102 1.385 . S
C1104 C1102 1.478 . S
C1104 C1106 1.381 . S
C1104 C1110 1.383 . S
C1105 C1101 1.495 . S
C1105 H1111 0.959 . S
C1105 H1112 0.961 . S
C1105 H1113 0.960 . S
C1106 C1104 1.381 . S
C1106 C1107 1.394 . S
C1106 H1114 0.930 . S
C1107 C1106 1.394 . S
C1107 C1108 1.383 . S
C1107 H1115 0.929 . S
C1108 C1107 1.383 . S
C1108 C1109 1.377 . S
C1109 H1093 0.930 . S
C1109 C1108 1.377 . S
C1109 C1110 1.379 . S
C1110 H1094 0.931 . S
C1110 C1104 1.383 . S
C1110 C1109 1.379 . S
H1111 C1105 0.959 . S
H1112 C1105 0.961 . S
H1113 C1105 0.960 . S
H1114 C1106 0.930 . S
H1115 C1107 0.929 . S
H1116 C1124 0.929 . S
H1117 C1126 0.930 . S
H1118 C1128 0.930 . S
H1119 C1131 0.929 . S
H1120 C1134 0.930 . S
H1121 C1136 0.960 . S
H1122 C1136 0.960 . S
H1123 C1136 0.960 . S
C1124 H1116 0.929 . S
C1124 C1125 1.377 . S
C1124 C1126 1.384 . S
C1125 C1124 1.377 . S
C1125 C1131 1.390 . S
C1126 H1117 0.930 . S
C1126 C1124 1.384 . S
C1126 C1127 1.372 . S
C1127 C1126 1.372 . S
C1127 C1128 1.400 . S
C1127 C1132 1.490 . S
C1128 H1118 0.930 . S
C1128 C1127 1.400 . S
C1128 C1131 1.386 . S
H1129 C1145 0.930 . S
H1130 C1146 0.931 . S
C1131 H1119 0.929 . S
C1131 C1125 1.390 . S
C1131 C1128 1.386 . S
C1132 C1127 1.490 . S
C1132 C1134 1.395 . S
C1132 C1135 1.403 . S
H1133 C1139 0.930 . S
C1134 H1120 0.930 . S
C1134 C1132 1.395 . S
C1134 C1137 1.403 . S
C1135 C1132 1.403 . S
C1135 C1136 1.524 . S
C1135 C1139 1.400 . S
C1136 H1121 0.960 . S
C1136 H1122 0.960 . S
C1136 H1123 0.960 . S
C1136 C1135 1.524 . S
C1137 C1134 1.403 . S
C1137 C1138 1.392 . S
C1137 C1141 1.495 . S
C1138 C1137 1.392 . S
C1138 C1139 1.385 . S
C1138 C1140 1.478 . S
C1139 H1133 0.930 . S
C1139 C1135 1.400 . S
C1139 C1138 1.385 . S
C1140 C1138 1.478 . S
C1140 C1142 1.381 . S
C1140 C1146 1.383 . S
C1141 C1137 1.495 . S
C1141 H1147 0.959 . S
C1141 H1148 0.961 . S
C1141 H1149 0.960 . S
C1142 C1140 1.381 . S
C1142 C1143 1.394 . S
C1142 H1150 0.930 . S
C1143 C1142 1.394 . S
C1143 C1144 1.383 . S
C1143 H1151 0.929 . S
C1144 C1143 1.383 . S
C1144 C1145 1.377 . S
C1145 H1129 0.930 . S
C1145 C1144 1.377 . S
C1145 C1146 1.379 . S
C1146 H1130 0.931 . S
C1146 C1140 1.383 . S
C1146 C1145 1.379 . S
H1147 C1141 0.959 . S
H1148 C1141 0.961 . S
H1149 C1141 0.960 . S
H1150 C1142 0.930 . S
H1151 C1143 0.929 . S
H1152 C1160 0.929 . S
H1153 C1162 0.930 . S
H1154 C1164 0.930 . S
H1155 C1167 0.929 . S
H1156 C1170 0.930 . S
H1157 C1172 0.960 . S
H1158 C1172 0.960 . S
H1159 C1172 0.960 . S
C1160 H1152 0.929 . S
C1160 C1161 1.377 . S
C1160 C1162 1.384 . S
C1161 C1160 1.377 . S
C1161 C1167 1.390 . S
C1162 H1153 0.930 . S
C1162 C1160 1.384 . S
C1162 C1163 1.372 . S
C1163 C1162 1.372 . S
C1163 C1164 1.400 . S
C1163 C1168 1.490 . S
C1164 H1154 0.930 . S
C1164 C1163 1.400 . S
C1164 C1167 1.386 . S
H1165 C1181 0.930 . S
H1166 C1182 0.931 . S
C1167 H1155 0.929 . S
C1167 C1161 1.390 . S
C1167 C1164 1.386 . S
C1168 C1163 1.490 . S
C1168 C1170 1.395 . S
C1168 C1171 1.403 . S
H1169 C1175 0.930 . S
C1170 H1156 0.930 . S
C1170 C1168 1.395 . S
C1170 C1173 1.403 1_655 S
C1171 C1168 1.403 . S
C1171 C1172 1.524 . S
C1171 C1175 1.400 1_655 S
C1172 H1157 0.960 . S
C1172 H1158 0.960 . S
C1172 H1159 0.960 . S
C1172 C1171 1.524 . S
C1173 C1170 1.403 1_455 S
C1173 C1174 1.392 . S
C1173 C1177 1.495 . S
C1174 C1173 1.392 . S
C1174 C1175 1.385 . S
C1174 C1176 1.478 . S
C1175 H1169 0.930 . S
C1175 C1171 1.400 1_455 S
C1175 C1174 1.385 . S
C1176 C1174 1.478 . S
C1176 C1178 1.381 . S
C1176 C1182 1.383 . S
C1177 C1173 1.495 . S
C1177 H1183 0.959 . S
C1177 H1184 0.961 . S
C1177 H1185 0.960 . S
C1178 C1176 1.381 . S
C1178 C1179 1.394 . S
C1178 H1186 0.930 . S
C1179 C1178 1.394 . S
C1179 C1180 1.383 . S
C1179 H1187 0.929 . S
C1180 C1179 1.383 . S
C1180 C1181 1.377 . S
C1181 H1165 0.930 . S
C1181 C1180 1.377 . S
C1181 C1182 1.379 . S
C1182 H1166 0.931 . S
C1182 C1176 1.383 . S
C1182 C1181 1.379 . S
H1183 C1177 0.959 . S
H1184 C1177 0.961 . S
H1185 C1177 0.960 . S
H1186 C1178 0.930 . S
H1187 C1179 0.929 . S
H1188 C1196 0.929 . S
H1189 C1198 0.930 . S
H1190 C1200 0.930 . S
H1191 C1203 0.929 . S
H1192 C1206 0.930 . S
H1193 C1208 0.960 . S
H1194 C1208 0.960 . S
H1195 C1208 0.960 . S
C1196 H1188 0.929 . S
C1196 C1197 1.377 . S
C1196 C1198 1.384 . S
C1197 C1196 1.377 . S
C1197 C1203 1.390 . S
C1198 H1189 0.930 . S
C1198 C1196 1.384 . S
C1198 C1199 1.372 . S
C1199 C1198 1.372 . S
C1199 C1200 1.400 . S
C1199 C1204 1.490 . S
C1200 H1190 0.930 . S
C1200 C1199 1.400 . S
C1200 C1203 1.386 . S
H1201 C1217 0.930 . S
H1202 C1218 0.931 . S
C1203 H1191 0.929 . S
C1203 C1197 1.390 . S
C1203 C1200 1.386 . S
C1204 C1199 1.490 . S
C1204 C1206 1.395 . S
C1204 C1207 1.403 . S
H1205 C1211 0.930 . S
C1206 H1192 0.930 . S
C1206 C1204 1.395 . S
C1206 C1209 1.403 1_565 S
C1207 C1204 1.403 . S
C1207 C1208 1.524 . S
C1207 C1211 1.400 1_565 S
C1208 H1193 0.960 . S
C1208 H1194 0.960 . S
C1208 H1195 0.960 . S
C1208 C1207 1.524 . S
C1209 C1206 1.403 1_545 S
C1209 C1210 1.392 . S
C1209 C1213 1.495 . S
C1210 C1209 1.392 . S
C1210 C1211 1.385 . S
C1210 C1212 1.478 . S
C1211 H1205 0.930 . S
C1211 C1207 1.400 1_545 S
C1211 C1210 1.385 . S
C1212 C1210 1.478 . S
C1212 C1214 1.381 . S
C1212 C1218 1.383 . S
C1213 C1209 1.495 . S
C1213 H1219 0.959 . S
C1213 H1220 0.961 . S
C1213 H1221 0.960 . S
C1214 C1212 1.381 . S
C1214 C1215 1.394 . S
C1214 H1222 0.930 . S
C1215 C1214 1.394 . S
C1215 C1216 1.383 . S
C1215 H1223 0.929 . S
C1216 C1215 1.383 . S
C1216 C1217 1.377 . S
C1217 H1201 0.930 . S
C1217 C1216 1.377 . S
C1217 C1218 1.379 . S
C1218 H1202 0.931 . S
C1218 C1212 1.383 . S
C1218 C1217 1.379 . S
H1219 C1213 0.959 . S
H1220 C1213 0.961 . S
H1221 C1213 0.960 . S
H1222 C1214 0.930 . S
H1223 C1215 0.929 . S
H1224 C1232 0.929 . S
H1225 C1234 0.930 . S
H1226 C1236 0.930 . S
H1227 C1239 0.929 . S
H1228 C1242 0.930 . S
H1229 C1244 0.960 . S
H1230 C1244 0.960 . S
H1231 C1244 0.960 . S
C1232 H1224 0.929 . S
C1232 C1233 1.377 . S
C1232 C1234 1.384 . S
C1233 C1232 1.377 . S
C1233 C1239 1.390 . S
C1234 H1225 0.930 . S
C1234 C1232 1.384 . S
C1234 C1235 1.372 . S
C1235 C1234 1.372 . S
C1235 C1236 1.400 . S
C1235 C1240 1.490 . S
C1236 H1226 0.930 . S
C1236 C1235 1.400 . S
C1236 C1239 1.386 . S
H1237 C1253 0.930 . S
H1238 C1254 0.931 . S
C1239 H1227 0.929 . S
C1239 C1233 1.390 . S
C1239 C1236 1.386 . S
C1240 C1235 1.490 . S
C1240 C1242 1.395 . S
C1240 C1243 1.403 . S
H1241 C1247 0.930 . S
C1242 H1228 0.930 . S
C1242 C1240 1.395 . S
C1242 C1245 1.403 . S
C1243 C1240 1.403 . S
C1243 C1244 1.524 . S
C1243 C1247 1.400 . S
C1244 H1229 0.960 . S
C1244 H1230 0.960 . S
C1244 H1231 0.960 . S
C1244 C1243 1.524 . S
C1245 C1242 1.403 . S
C1245 C1246 1.392 . S
C1245 C1249 1.495 . S
C1246 C1245 1.392 . S
C1246 C1247 1.385 . S
C1246 C1248 1.478 . S
C1247 H1241 0.930 . S
C1247 C1243 1.400 . S
C1247 C1246 1.385 . S
C1248 C1246 1.478 . S
C1248 C1250 1.381 . S
C1248 C1254 1.383 . S
C1249 C1245 1.495 . S
C1249 H1255 0.959 . S
C1249 H1256 0.961 . S
C1249 H1257 0.960 . S
C1250 C1248 1.381 . S
C1250 C1251 1.394 . S
C1250 H1258 0.930 . S
C1251 C1250 1.394 . S
C1251 C1252 1.383 . S
C1251 H1259 0.929 . S
C1252 C1251 1.383 . S
C1252 C1253 1.377 . S
C1253 H1237 0.930 . S
C1253 C1252 1.377 . S
C1253 C1254 1.379 . S
C1254 H1238 0.931 . S
C1254 C1248 1.383 . S
C1254 C1253 1.379 . S
H1255 C1249 0.959 . S
H1256 C1249 0.961 . S
H1257 C1249 0.960 . S
H1258 C1250 0.930 . S
H1259 C1251 0.929 . S
H1260 C1268 0.929 . S
H1261 C1270 0.930 . S
H1262 C1272 0.930 . S
H1263 C1275 0.929 . S
H1264 C1278 0.930 . S
H1265 C1280 0.960 . S
H1266 C1280 0.960 . S
H1267 C1280 0.960 . S
C1268 H1260 0.929 . S
C1268 C1269 1.377 . S
C1268 C1270 1.384 . S
C1269 C1268 1.377 . S
C1269 C1275 1.390 . S
C1270 H1261 0.930 . S
C1270 C1268 1.384 . S
C1270 C1271 1.372 . S
C1271 C1270 1.372 . S
C1271 C1272 1.400 . S
C1271 C1276 1.490 . S
C1272 H1262 0.930 . S
C1272 C1271 1.400 . S
C1272 C1275 1.386 . S
H1273 C1289 0.930 . S
H1274 C1290 0.931 . S
C1275 H1263 0.929 . S
C1275 C1269 1.390 . S
C1275 C1272 1.386 . S
C1276 C1271 1.490 . S
C1276 C1278 1.395 . S
C1276 C1279 1.403 . S
H1277 C1283 0.930 . S
C1278 H1264 0.930 . S
C1278 C1276 1.395 . S
C1278 C1281 1.403 . S
C1279 C1276 1.403 . S
C1279 C1280 1.524 . S
C1279 C1283 1.400 . S
C1280 H1265 0.960 . S
C1280 H1266 0.960 . S
C1280 H1267 0.960 . S
C1280 C1279 1.524 . S
C1281 C1278 1.403 . S
C1281 C1282 1.392 . S
C1281 C1285 1.495 . S
C1282 C1281 1.392 . S
C1282 C1283 1.385 . S
C1282 C1284 1.478 . S
C1283 H1277 0.930 . S
C1283 C1279 1.400 . S
C1283 C1282 1.385 . S
C1284 C1282 1.478 . S
C1284 C1286 1.381 . S
C1284 C1290 1.383 . S
C1285 C1281 1.495 . S
C1285 H1291 0.959 . S
C1285 H1292 0.961 . S
C1285 H1293 0.960 . S
C1286 C1284 1.381 . S
C1286 C1287 1.394 . S
C1286 H1294 0.930 . S
C1287 C1286 1.394 . S
C1287 C1288 1.383 . S
C1287 H1295 0.929 . S
C1288 C1287 1.383 . S
C1288 C1289 1.377 . S
C1289 H1273 0.930 . S
C1289 C1288 1.377 . S
C1289 C1290 1.379 . S
C1290 H1274 0.931 . S
C1290 C1284 1.383 . S
C1290 C1289 1.379 . S
H1291 C1285 0.959 . S
H1292 C1285 0.961 . S
H1293 C1285 0.960 . S
H1294 C1286 0.930 . S
H1295 C1287 0.929 . S
H1296 C1304 0.929 . S
H1297 C1306 0.930 . S
H1298 C1308 0.930 . S
H1299 C1311 0.929 . S
H1300 C1314 0.930 . S
H1301 C1316 0.960 . S
H1302 C1316 0.960 . S
H1303 C1316 0.960 . S
C1304 H1296 0.929 . S
C1304 C1305 1.377 . S
C1304 C1306 1.384 . S
C1305 C1304 1.377 . S
C1305 C1311 1.390 . S
C1306 H1297 0.930 . S
C1306 C1304 1.384 . S
C1306 C1307 1.372 . S
C1307 C1306 1.372 . S
C1307 C1308 1.400 . S
C1307 C1312 1.490 . S
C1308 H1298 0.930 . S
C1308 C1307 1.400 . S
C1308 C1311 1.386 . S
H1309 C1325 0.930 1_655 S
H1310 C1326 0.931 . S
C1311 H1299 0.929 . S
C1311 C1305 1.390 . S
C1311 C1308 1.386 . S
C1312 C1307 1.490 . S
C1312 C1314 1.395 . S
C1312 C1315 1.403 . S
H1313 C1319 0.930 . S
C1314 H1300 0.930 . S
C1314 C1312 1.395 . S
C1314 C1317 1.403 . S
C1315 C1312 1.403 . S
C1315 C1316 1.524 . S
C1315 C1319 1.400 . S
C1316 H1301 0.960 . S
C1316 H1302 0.960 . S
C1316 H1303 0.960 . S
C1316 C1315 1.524 . S
C1317 C1314 1.403 . S
C1317 C1318 1.392 . S
C1317 C1321 1.495 . S
C1318 C1317 1.392 . S
C1318 C1319 1.385 . S
C1318 C1320 1.478 . S
C1319 H1313 0.930 . S
C1319 C1315 1.400 . S
C1319 C1318 1.385 . S
C1320 C1318 1.478 . S
C1320 C1322 1.381 . S
C1320 C1326 1.383 . S
C1321 C1317 1.495 . S
C1321 H1327 0.959 . S
C1321 H1328 0.961 . S
C1321 H1329 0.960 . S
C1322 C1320 1.381 . S
C1322 C1323 1.394 . S
C1322 H1330 0.930 . S
C1323 C1322 1.394 . S
C1323 C1324 1.383 . S
C1323 H1331 0.929 . S
C1324 C1323 1.383 . S
C1324 C1325 1.377 . S
C1325 H1309 0.930 1_455 S
C1325 C1324 1.377 . S
C1325 C1326 1.379 . S
C1326 H1310 0.931 . S
C1326 C1320 1.383 . S
C1326 C1325 1.379 . S
H1327 C1321 0.959 . S
H1328 C1321 0.961 . S
H1329 C1321 0.960 . S
H1330 C1322 0.930 . S
H1331 C1323 0.929 . S
H1332 C1340 0.929 1_565 S
H1333 C1342 0.930 . S
H1334 C1344 0.930 . S
H1335 C1347 0.929 . S
H1336 C1350 0.930 . S
H1337 C1352 0.960 . S
H1338 C1352 0.960 . S
H1339 C1352 0.960 . S
C1340 H1332 0.929 1_545 S
C1340 C1341 1.377 . S
C1340 C1342 1.384 . S
C1341 C1340 1.377 . S
C1341 C1347 1.390 . S
C1342 H1333 0.930 . S
C1342 C1340 1.384 . S
C1342 C1343 1.372 . S
C1343 C1342 1.372 . S
C1343 C1344 1.400 . S
C1343 C1348 1.490 . S
C1344 H1334 0.930 . S
C1344 C1343 1.400 . S
C1344 C1347 1.386 . S
H1345 C1361 0.930 . S
H1346 C1362 0.931 . S
C1347 H1335 0.929 . S
C1347 C1341 1.390 . S
C1347 C1344 1.386 . S
C1348 C1343 1.490 . S
C1348 C1350 1.395 . S
C1348 C1351 1.403 . S
H1349 C1355 0.930 . S
C1350 H1336 0.930 . S
C1350 C1348 1.395 . S
C1350 C1353 1.403 . S
C1351 C1348 1.403 . S
C1351 C1352 1.524 . S
C1351 C1355 1.400 . S
C1352 H1337 0.960 . S
C1352 H1338 0.960 . S
C1352 H1339 0.960 . S
C1352 C1351 1.524 . S
C1353 C1350 1.403 . S
C1353 C1354 1.392 . S
C1353 C1357 1.495 . S
C1354 C1353 1.392 . S
C1354 C1355 1.385 . S
C1354 C1356 1.478 . S
C1355 H1349 0.930 . S
C1355 C1351 1.400 . S
C1355 C1354 1.385 . S
C1356 C1354 1.478 . S
C1356 C1358 1.381 . S
C1356 C1362 1.383 . S
C1357 C1353 1.495 . S
C1357 H1363 0.959 . S
C1357 H1364 0.961 . S
C1357 H1365 0.960 . S
C1358 C1356 1.381 . S
C1358 C1359 1.394 . S
C1358 H1366 0.930 . S
C1359 C1358 1.394 . S
C1359 C1360 1.383 . S
C1359 H1367 0.929 1_655 S
C1360 C1359 1.383 . S
C1360 C1361 1.377 . S
C1361 H1345 0.930 . S
C1361 C1360 1.377 . S
C1361 C1362 1.379 . S
C1362 H1346 0.931 . S
C1362 C1356 1.383 . S
C1362 C1361 1.379 . S
H1363 C1357 0.959 . S
H1364 C1357 0.961 . S
H1365 C1357 0.960 . S
H1366 C1358 0.930 . S
H1367 C1359 0.929 1_455 S
H1368 C1376 0.929 . S
H1369 C1378 0.930 . S
H1370 C1380 0.930 . S
H1371 C1383 0.929 1_545 S
H1372 C1386 0.930 . S
H1373 C1388 0.960 . S
H1374 C1388 0.960 . S
H1375 C1388 0.960 . S
C1376 H1368 0.929 . S
C1376 C1377 1.377 . S
C1376 C1378 1.384 . S
C1377 C1376 1.377 . S
C1377 C1383 1.390 . S
C1378 H1369 0.930 . S
C1378 C1376 1.384 . S
C1378 C1379 1.372 . S
C1379 C1378 1.372 . S
C1379 C1380 1.400 . S
C1379 C1384 1.490 . S
C1380 H1370 0.930 . S
C1380 C1379 1.400 . S
C1380 C1383 1.386 . S
H1381 C1397 0.930 . S
H1382 C1398 0.931 . S
C1383 H1371 0.929 1_565 S
C1383 C1377 1.390 . S
C1383 C1380 1.386 . S
C1384 C1379 1.490 . S
C1384 C1386 1.395 . S
C1384 C1387 1.403 . S
H1385 C1391 0.930 . S
C1386 H1372 0.930 . S
C1386 C1384 1.395 . S
C1386 C1389 1.403 . S
C1387 C1384 1.403 . S
C1387 C1388 1.524 . S
C1387 C1391 1.400 . S
C1388 H1373 0.960 . S
C1388 H1374 0.960 . S
C1388 H1375 0.960 . S
C1388 C1387 1.524 . S
C1389 C1386 1.403 . S
C1389 C1390 1.392 . S
C1389 C1393 1.495 . S
C1390 C1389 1.392 . S
C1390 C1391 1.385 . S
C1390 C1392 1.478 . S
C1391 H1385 0.930 . S
C1391 C1387 1.400 . S
C1391 C1390 1.385 . S
C1392 C1390 1.478 . S
C1392 C1394 1.381 . S
C1392 C1398 1.383 . S
C1393 C1389 1.495 . S
C1393 H1399 0.959 . S
C1393 H1400 0.961 . S
C1393 H1401 0.960 . S
C1394 C1392 1.381 . S
C1394 C1395 1.394 . S
C1394 H1402 0.930 . S
C1395 C1394 1.394 . S
C1395 C1396 1.383 . S
C1395 H1403 0.929 . S
C1396 C1395 1.383 . S
C1396 C1397 1.377 . S
C1397 H1381 0.930 . S
C1397 C1396 1.377 . S
C1397 C1398 1.379 . S
C1398 H1382 0.931 . S
C1398 C1392 1.383 . S
C1398 C1397 1.379 . S
H1399 C1393 0.959 . S
H1400 C1393 0.961 . S
H1401 C1393 0.960 . S
H1402 C1394 0.930 . S
H1403 C1395 0.929 . S
H1404 C1412 0.929 . S
H1405 C1414 0.930 . S
H1406 C1416 0.930 . S
H1407 C1419 0.929 . S
H1408 C1422 0.930 . S
H1409 C1424 0.960 . S
H1410 C1424 0.960 . S
H1411 C1424 0.960 . S
C1412 H1404 0.929 . S
C1412 C1413 1.377 . S
C1412 C1414 1.384 . S
C1413 C1412 1.377 . S
C1413 C1419 1.390 . S
C1414 H1405 0.930 . S
C1414 C1412 1.384 . S
C1414 C1415 1.372 . S
C1415 C1414 1.372 . S
C1415 C1416 1.400 . S
C1415 C1420 1.490 . S
C1416 H1406 0.930 . S
C1416 C1415 1.400 . S
C1416 C1419 1.386 . S
H1417 C1433 0.930 1_455 S
H1418 C1434 0.931 . S
C1419 H1407 0.929 . S
C1419 C1413 1.390 . S
C1419 C1416 1.386 . S
C1420 C1415 1.490 . S
C1420 C1422 1.395 . S
C1420 C1423 1.403 . S
H1421 C1427 0.930 . S
C1422 H1408 0.930 . S
C1422 C1420 1.395 . S
C1422 C1425 1.403 . S
C1423 C1420 1.403 . S
C1423 C1424 1.524 . S
C1423 C1427 1.400 . S
C1424 H1409 0.960 . S
C1424 H1410 0.960 . S
C1424 H1411 0.960 . S
C1424 C1423 1.524 . S
C1425 C1422 1.403 . S
C1425 C1426 1.392 . S
C1425 C1429 1.495 . S
C1426 C1425 1.392 . S
C1426 C1427 1.385 . S
C1426 C1428 1.478 . S
C1427 H1421 0.930 . S
C1427 C1423 1.400 . S
C1427 C1426 1.385 . S
C1428 C1426 1.478 . S
C1428 C1430 1.381 . S
C1428 C1434 1.383 . S
C1429 C1425 1.495 . S
C1429 H1435 0.959 . S
C1429 H1436 0.961 . S
C1429 H1437 0.960 . S
C1430 C1428 1.381 . S
C1430 C1431 1.394 . S
C1430 H1438 0.930 . S
C1431 C1430 1.394 . S
C1431 C1432 1.383 . S
C1431 H1439 0.929 . S
C1432 C1431 1.383 . S
C1432 C1433 1.377 . S
C1433 H1417 0.930 1_655 S
C1433 C1432 1.377 . S
C1433 C1434 1.379 . S
C1434 H1418 0.931 . S
C1434 C1428 1.383 . S
C1434 C1433 1.379 . S
H1435 C1429 0.959 . S
H1436 C1429 0.961 . S
H1437 C1429 0.960 . S
H1438 C1430 0.930 . S
H1439 C1431 0.929 . S
H1440 C1448 0.929 . S
H1441 C1450 0.930 . S
H1442 C1452 0.930 . S
H1443 C1455 0.929 . S
H1444 C1458 0.930 . S
H1445 C1460 0.960 . S
H1446 C1460 0.960 . S
H1447 C1460 0.960 . S
C1448 H1440 0.929 . S
C1448 C1449 1.377 . S
C1448 C1450 1.384 . S
C1449 C1448 1.377 . S
C1449 C1455 1.390 . S
C1450 H1441 0.930 . S
C1450 C1448 1.384 . S
C1450 C1451 1.372 . S
C1451 C1450 1.372 . S
C1451 C1452 1.400 . S
C1451 C1456 1.490 . S
C1452 H1442 0.930 . S
C1452 C1451 1.400 . S
C1452 C1455 1.386 . S
H1453 C1469 0.930 . S
H1454 C1470 0.931 . S
C1455 H1443 0.929 . S
C1455 C1449 1.390 . S
C1455 C1452 1.386 . S
C1456 C1451 1.490 . S
C1456 C1458 1.395 . S
C1456 C1459 1.403 . S
H1457 C1463 0.930 . S
C1458 H1444 0.930 . S
C1458 C1456 1.395 . S
C1458 C1461 1.403 . S
C1459 C1456 1.403 . S
C1459 C1460 1.524 . S
C1459 C1463 1.400 . S
C1460 H1445 0.960 . S
C1460 H1446 0.960 . S
C1460 H1447 0.960 . S
C1460 C1459 1.524 . S
C1461 C1458 1.403 . S
C1461 C1462 1.392 . S
C1461 C1465 1.495 . S
C1462 C1461 1.392 . S
C1462 C1463 1.385 . S
C1462 C1464 1.478 . S
C1463 H1457 0.930 . S
C1463 C1459 1.400 . S
C1463 C1462 1.385 . S
C1464 C1462 1.478 . S
C1464 C1466 1.381 . S
C1464 C1470 1.383 . S
C1465 C1461 1.495 . S
C1465 H1471 0.959 . S
C1465 H1472 0.961 . S
C1465 H1473 0.960 . S
C1466 C1464 1.381 . S
C1466 C1467 1.394 . S
C1466 H1474 0.930 . S
C1467 C1466 1.394 . S
C1467 C1468 1.383 . S
C1467 H1475 0.929 . S
C1468 C1467 1.383 . S
C1468 C1469 1.377 . S
C1469 H1453 0.930 . S
C1469 C1468 1.377 . S
C1469 C1470 1.379 . S
C1470 H1454 0.931 . S
C1470 C1464 1.383 . S
C1470 C1469 1.379 . S
H1471 C1465 0.959 . S
H1472 C1465 0.961 . S
H1473 C1465 0.960 . S
H1474 C1466 0.930 . S
H1475 C1467 0.929 . S
C405 N299 1.488 . S
C424 N2 1.490 . S
C441 N35 1.496 . S
C460 N332 1.471 . S
C477 N68 1.489 . S
C496 N365 1.479 . S
C513 N101 1.495 . S
C532 N200 1.495 . S
C549 N134 1.493 . S
C568 N233 1.505 . S
C585 N167 1.490 . S
C604 N266 1.510 . S
C621 N343 1.678 . S
C640 N13 1.688 . S
C657 N376 1.679 . S
C676 N46 1.685 . S
C693 N79 1.680 . S
C712 N211 1.676 . S
C729 N244 1.681 . S
C748 N112 1.673 . S
C765 N145 1.675 . S
C784 N277 1.688 . S
C801 N178 1.680 . S
C820 N310 1.659 . S
C837 C106 1.329 . S
C856 C7 1.354 . S
C873 C40 1.328 . S
C892 C139 1.305 . S
C909 C172 1.331 . S
C928 C73 1.296 . S
C945 C304 1.338 . S
C964 C205 1.304 . S
C981 C238 1.333 . S
C1000 C337 1.367 . S
C1017 C370 1.331 . S
C1036 C271 1.363 . S
C1053 C18 1.498 . S
C1072 C381 1.517 . S
C1089 C216 1.504 . S
C1108 C51 1.511 . S
C1125 C84 1.500 . S
C1144 C249 1.520 . S
C1161 C117 1.504 . S
C1180 C282 1.511 . S
C1197 C150 1.500 . S
C1216 C315 1.521 . S
C1233 C348 1.499 . S
C1252 C183 1.472 . S
C1269 C21 0.156 . S
C1288 C285 0.165 . S
C1305 C318 0.171 . S
C1324 C54 0.227 . S
C1341 C87 0.161 . S
C1360 C351 0.120 . S
C1377 C384 0.190 . S
C1396 C120 0.266 . S
C1413 C219 0.184 . S
C1432 C153 0.264 . S
C1449 C186 0.177 . S
C1468 C252 0.191 . S
