# Generated by pormake.
# Topology mok, (4)-cn, num edge types: 1
# Building blocks:
#     Node 0, Type 0, BuildingBlock: ICAMEG_clean_sbu_1, # of connection points: 4
#     Node 1, Type 0, BuildingBlock: ICAMEG_clean_sbu_1, # of connection points: 4
#     Node 2, Type 0, BuildingBlock: ICAMEG_clean_sbu_1, # of connection points: 4
#     Node 3, Type 0, BuildingBlock: ICAMEG_clean_sbu_1, # of connection points: 4
#     Node 4, Type 0, BuildingBlock: ICAMEG_clean_sbu_1, # of connection points: 4
#     Node 5, Type 0, BuildingBlock: ICAMEG_clean_sbu_1, # of connection points: 4
#     Node 6, Type 0, BuildingBlock: ICAMEG_clean_sbu_1, # of connection points: 4
#     Node 7, Type 0, BuildingBlock: ICAMEG_clean_sbu_1, # of connection points: 4
#     Edge 8, Type (0, 0), BuildingBlock: KIFKEQ_clean_linker_1, # of connection points: 2
#     Edge 9, Type (0, 0), BuildingBlock: KIFKEQ_clean_linker_1, # of connection points: 2
#     Edge 10, Type (0, 0), BuildingBlock: KIFKEQ_clean_linker_1, # of connection points: 2
#     Edge 11, Type (0, 0), BuildingBlock: KIFKEQ_clean_linker_1, # of connection points: 2
#     Edge 12, Type (0, 0), BuildingBlock: KIFKEQ_clean_linker_1, # of connection points: 2
#     Edge 13, Type (0, 0), BuildingBlock: KIFKEQ_clean_linker_1, # of connection points: 2
#     Edge 14, Type (0, 0), BuildingBlock: KIFKEQ_clean_linker_1, # of connection points: 2
#     Edge 15, Type (0, 0), BuildingBlock: KIFKEQ_clean_linker_1, # of connection points: 2
#     Edge 16, Type (0, 0), BuildingBlock: KIFKEQ_clean_linker_1, # of connection points: 2
#     Edge 17, Type (0, 0), BuildingBlock: KIFKEQ_clean_linker_1, # of connection points: 2
#     Edge 18, Type (0, 0), BuildingBlock: KIFKEQ_clean_linker_1, # of connection points: 2
#     Edge 19, Type (0, 0), BuildingBlock: KIFKEQ_clean_linker_1, # of connection points: 2
#     Edge 20, Type (0, 0), BuildingBlock: KIFKEQ_clean_linker_1, # of connection points: 2
#     Edge 21, Type (0, 0), BuildingBlock: KIFKEQ_clean_linker_1, # of connection points: 2
#     Edge 22, Type (0, 0), BuildingBlock: KIFKEQ_clean_linker_1, # of connection points: 2
#     Edge 23, Type (0, 0), BuildingBlock: KIFKEQ_clean_linker_1, # of connection points: 2
# Relax obj value: 0.014
# Max RMSD: 0.052
# Mean RMSD: 0.052
data_MOF--net-mok--node1-ICAMEG_clean_sbu_1--edge1-KIFKEQ_clean_linker_1
_symmetry_space_group_name_H-M    P1
_symmetry_Int_Tables_number       1
_symmetry_cell_setting            triclinic
loop_
_symmetry_equiv_pos_as_xyz
'x, y, z'
_cell_length_a     58.998333
_cell_length_b     14.774197
_cell_length_c     30.448481
_cell_angle_alpha  89.997412
_cell_angle_beta   90.010204
_cell_angle_gamma 90.095249
loop_
_atom_site_label
_atom_site_type_symbol
_atom_site_fract_x
_atom_site_fract_y
_atom_site_fract_z
_atom_type_partial_charge
Co0 Co 0.63271 0.43092 0.05552 0.0
Co1 Co 0.62732 0.21542 0.01548 0.0
O2 O 0.61894 0.30957 0.05831 0.0
C3 C 0.63583 0.38636 0.15124 0.0
O4 O 0.64034 0.30162 0.14179 0.0
C5 C 0.57656 0.20143 0.01774 0.0
O6 O 0.57507 0.29009 0.0178 0.0
O7 O 0.61845 0.29698 0.96621 0.0
O8 O 0.63406 0.42628 0.98981 0.0
H9 H 0.66388 0.09922 0.87753 0.0
H10 H 0.59 0.40504 0.10479 0.0
O11 O 0.6318 0.44321 0.12091 0.0
H12 H 0.57243 0.6339 0.99197 0.0
H13 H 0.64213 0.75854 0.09822 0.0
H14 H 0.67081 0.51075 0.00512 0.0
H15 H 0.6108 0.56925 0.99764 0.0
H16 H 0.62459 0.60702 0.10127 0.0
O17 O 0.59588 0.16331 0.01722 0.0
H18 H 0.65365 0.21467 0.93254 0.0
H19 H 0.61779 0.01749 0.0067 0.0
H20 H 0.68873 0.66146 1.0008 0.0
H21 H 0.5514 0.46864 0.10061 0.0
H22 H 0.67434 0.7867 0.04752 0.0
H23 H 0.54241 0.58381 0.0438 0.0
O24 O 0.66342 0.37582 0.05997 0.0
H25 H 0.61577 0.06064 0.1607 0.0
H26 H 0.66779 0.10083 0.03545 0.0
H27 H 0.67877 1.0006 0.09655 0.0
H28 H 0.65263 0.97964 0.15968 0.0
H29 H 0.60554 0.16095 0.09904 0.0
H30 H 0.62752 0.90007 0.9524 0.0
H31 H 0.65079 0.9406 0.88729 0.0
O32 O 0.65938 0.26116 0.01246 0.0
C33 C 0.6252 0.37798 0.95963 0.0
C34 C 0.65377 0.08069 0.9058 0.0
C35 C 0.63334 0.96894 0.94778 0.0
N36 N 0.63524 0.12285 0.97293 0.0
C37 C 0.64796 0.14574 0.93711 0.0
C38 C 0.62783 0.03582 0.97838 0.0
C39 C 0.64641 0.99171 0.91128 0.0
C40 C 0.58623 0.45556 0.08019 0.0
N41 N 0.60264 0.48338 0.05153 0.0
C42 C 0.56434 0.49113 0.07788 0.0
C43 C 0.5593 0.55565 0.04596 0.0
C44 C 0.57612 0.58371 0.01684 0.0
C45 C 0.59781 0.54655 0.02009 0.0
C46 C 0.64851 0.70456 0.07764 0.0
C47 C 0.66441 0.56495 0.02546 0.0
C48 C 0.63869 0.61852 0.07929 0.0
N49 N 0.64656 0.55018 0.05314 0.0
C50 C 0.67465 0.65012 0.02293 0.0
C51 C 0.66659 0.72033 0.04917 0.0
C52 C 0.67165 0.31274 0.03629 0.0
C53 C 0.62728 0.06905 0.13333 0.0
C54 C 0.65639 0.09272 0.06295 0.0
C55 C 0.66267 0.03555 0.09739 0.0
C56 C 0.64798 0.02374 0.13277 0.0
N57 N 0.636 0.13661 0.06364 0.0
C58 C 0.62155 0.12554 0.09827 0.0
Co59 Co 0.37874 0.5782 0.05496 0.0
Co60 Co 0.38482 0.79806 0.01862 0.0
O61 O 0.39298 0.69873 0.05887 0.0
C62 C 0.37495 0.62033 0.15077 0.0
O63 O 0.37061 0.70533 0.14154 0.0
C64 C 0.43593 0.80374 0.01843 0.0
O65 O 0.4369 0.71511 0.02069 0.0
O66 O 0.39114 0.71942 0.9665 0.0
O67 O 0.37792 0.58536 0.9896 0.0
H68 H 0.3456 0.93372 0.88779 0.0
H69 H 0.42101 0.59979 0.10627 0.0
O70 O 0.37908 0.56395 0.12029 0.0
H71 H 0.43916 0.37605 0.99141 0.0
H72 H 0.36848 0.24939 0.09466 0.0
H73 H 0.34088 0.50118 1.00283 0.0
H74 H 0.40092 0.44218 0.99628 0.0
H75 H 0.38618 0.4004 0.09956 0.0
O76 O 0.41687 0.84381 0.01752 0.0
H77 H 0.35607 0.81146 0.93907 0.0
H78 H 0.3967 0.99456 0.01255 0.0
H79 H 0.32279 0.35105 0.99669 0.0
H80 H 0.45944 0.53451 0.10293 0.0
H81 H 0.33665 0.22379 0.04272 0.0
H82 H 0.46873 0.42194 0.0451 0.0
O83 O 0.34796 0.63332 0.05862 0.0
H84 H 0.40273 0.93364 0.16593 0.0
H85 H 0.3471 0.9217 0.04527 0.0
H86 H 0.33938 0.01738 0.10982 0.0
H87 H 0.36735 0.02405 0.17071 0.0
H88 H 0.40965 0.83812 0.10087 0.0
H89 H 0.38674 0.1186 0.96199 0.0
H90 H 0.36095 0.08862 0.89914 0.0
O91 O 0.35224 0.75964 0.01865 0.0
C92 C 0.38515 0.63758 0.9594 0.0
C93 C 0.35682 0.94766 0.9151 0.0
C94 C 0.37994 0.0514 0.95669 0.0
N95 N 0.3769 0.89584 0.97889 0.0
C96 C 0.36278 0.87874 0.94428 0.0
C97 C 0.38557 0.98077 0.98515 0.0
C98 C 0.36545 0.03455 0.92146 0.0
C99 C 0.42489 0.55033 0.08123 0.0
N100 N 0.40873 0.52483 0.05155 0.0
C101 C 0.4467 0.51384 0.0794 0.0
C102 C 0.45191 0.4508 0.0469 0.0
C103 C 0.43533 0.4251 0.01674 0.0
C104 C 0.41372 0.46312 0.01954 0.0
C105 C 0.36232 0.30426 0.07435 0.0
C106 C 0.34703 0.44611 0.02291 0.0
C107 C 0.37224 0.39001 0.07706 0.0
N108 N 0.36468 0.45947 0.05125 0.0
C109 C 0.3367 0.36128 0.01933 0.0
C110 C 0.34447 0.28993 0.0452 0.0
C111 C 0.33987 0.70209 0.03872 0.0
C112 C 0.39041 0.93138 0.13959 0.0
C113 C 0.35924 0.92342 0.07178 0.0
C114 C 0.35483 0.97814 0.10818 0.0
C115 C 0.37055 0.98197 0.14229 0.0
N116 N 0.37879 0.87415 0.06929 0.0
C117 C 0.39427 0.87761 0.10262 0.0
Co118 Co 0.63094 0.58507 0.55875 0.0
Co119 Co 0.62668 0.80719 0.59317 0.0
O120 O 0.61763 0.70686 0.55428 0.0
C121 C 0.63521 0.62538 0.46299 0.0
O122 O 0.64033 0.70976 0.4722 0.0
C123 C 0.57595 0.81264 0.59773 0.0
O124 O 0.57518 0.72383 0.59824 0.0
O125 O 0.62086 0.73125 0.6465 0.0
O126 O 0.63181 0.59367 0.62398 0.0
H127 H 0.66847 0.94731 0.72 0.0
H128 H 0.58885 0.6108 0.5074 0.0
O129 O 0.63048 0.56972 0.49349 0.0
H130 H 0.56879 0.39239 0.62359 0.0
H131 H 0.63832 0.25423 0.521 0.0
H132 H 0.66812 0.50467 0.61134 0.0
H133 H 0.60764 0.45307 0.61813 0.0
H134 H 0.62205 0.4074 0.515 0.0
O135 O 0.59487 0.85367 0.59551 0.0
H136 H 0.65669 0.823 0.67088 0.0
H137 H 0.61546 0.00423 0.59789 0.0
H138 H 0.68478 0.35233 0.6186 0.0
H139 H 0.54982 0.55106 0.51136 0.0
H140 H 0.66979 0.22573 0.57335 0.0
H141 H 0.53958 0.44121 0.56987 0.0
O142 O 0.66217 0.63646 0.55479 0.0
H143 H 0.60704 0.93743 0.44561 0.0
H144 H 0.66443 0.92784 0.56315 0.0
H145 H 0.67154 0.02028 0.4972 0.0
H146 H 0.64267 0.02576 0.43786 0.0
H147 H 0.60074 0.8451 0.51201 0.0
H148 H 0.62675 0.13035 0.64624 0.0
H149 H 0.6535 0.10233 0.70775 0.0
O150 O 0.65899 0.76722 0.59172 0.0
C151 C 0.62576 0.6485 0.65402 0.0
C152 C 0.65684 0.9604 0.69326 0.0
C153 C 0.63339 0.0631 0.65192 0.0
N154 N 0.6355 0.90634 0.63142 0.0
C155 C 0.65013 0.89031 0.66532 0.0
C156 C 0.62701 0.99132 0.62472 0.0
C157 C 0.64841 0.04734 0.6864 0.0
C158 C 0.58456 0.56245 0.53272 0.0
N159 N 0.60052 0.53539 0.56243 0.0
C160 C 0.56242 0.52911 0.5349 0.0
C161 C 0.55667 0.4676 0.56778 0.0
C162 C 0.57305 0.44026 0.59796 0.0
C163 C 0.595 0.47515 0.59481 0.0
C164 C 0.64496 0.30879 0.54097 0.0
C165 C 0.66149 0.44991 0.59158 0.0
C166 C 0.63585 0.39576 0.53764 0.0
N167 N 0.64401 0.46483 0.56306 0.0
C168 C 0.67101 0.36382 0.59578 0.0
C169 C 0.66262 0.29284 0.57035 0.0
C170 C 0.67081 0.7065 0.57281 0.0
C171 C 0.61974 0.93566 0.47124 0.0
C172 C 0.65191 0.92902 0.53732 0.0
C173 C 0.65597 0.98192 0.50013 0.0
C174 C 0.63975 0.98509 0.46689 0.0
N175 N 0.63222 0.88086 0.54143 0.0
C176 C 0.61624 0.88369 0.50897 0.0
Co177 Co 0.37814 0.42342 0.55827 0.0
Co178 Co 0.38345 0.20382 0.59512 0.0
O179 O 0.39201 0.30247 0.5548 0.0
C180 C 0.3745 0.38055 0.46249 0.0
O181 O 0.36984 0.2958 0.47182 0.0
C182 C 0.43425 0.19937 0.59795 0.0
O183 O 0.43497 0.28818 0.5975 0.0
O184 O 0.38973 0.28265 0.64715 0.0
O185 O 0.37708 0.41711 0.62368 0.0
H186 H 0.34332 0.06967 0.72539 0.0
H187 H 0.42053 0.39933 0.50775 0.0
O188 O 0.37876 0.43697 0.49292 0.0
H189 H 0.43907 0.62335 0.62236 0.0
H190 H 0.36913 0.75225 0.51778 0.0
H191 H 0.34031 0.50231 0.60962 0.0
H192 H 0.40056 0.55939 0.61687 0.0
H193 H 0.38632 0.60046 0.5134 0.0
O194 O 0.41534 0.15808 0.5968 0.0
H195 H 0.35429 0.19145 0.67415 0.0
H196 H 0.39501 0.00732 0.60184 0.0
H197 H 0.32273 0.65326 0.61526 0.0
H198 H 0.45923 0.46233 0.51173 0.0
H199 H 0.33721 0.77959 0.56922 0.0
H200 H 0.46872 0.57501 0.56944 0.0
O201 O 0.34724 0.36911 0.55424 0.0
H202 H 0.40178 0.06578 0.44861 0.0
H203 H 0.34553 0.08105 0.56803 0.0
H204 H 0.33792 0.98461 0.50366 0.0
H205 H 0.36621 0.97624 0.4434 0.0
H206 H 0.4086 0.16208 0.51348 0.0
H207 H 0.38456 0.88373 0.65237 0.0
H208 H 0.35847 0.91448 0.71461 0.0
O209 O 0.35103 0.24287 0.59444 0.0
C210 C 0.38406 0.36482 0.65404 0.0
C211 C 0.35466 0.05539 0.69834 0.0
C212 C 0.37784 0.95107 0.65741 0.0
N213 N 0.37517 0.10651 0.6349 0.0
C214 C 0.36091 0.12404 0.66919 0.0
C215 C 0.38375 0.02143 0.62897 0.0
C216 C 0.36319 0.96835 0.6923 0.0
C217 C 0.42449 0.44888 0.53272 0.0
N218 N 0.40829 0.47568 0.56199 0.0
C219 C 0.44645 0.48407 0.53491 0.0
C220 C 0.45177 0.54718 0.56735 0.0
C221 C 0.43516 0.57425 0.59708 0.0
C222 C 0.41339 0.53749 0.59392 0.0
C223 C 0.36271 0.6978 0.53809 0.0
C224 C 0.34673 0.55698 0.58954 0.0
C225 C 0.37234 0.61161 0.53568 0.0
N226 N 0.36444 0.54268 0.56149 0.0
C227 C 0.33669 0.64227 0.59283 0.0
C228 C 0.3448 0.7131 0.56696 0.0
C229 C 0.33891 0.30037 0.5739 0.0
C230 C 0.38933 0.06878 0.47467 0.0
C231 C 0.35781 0.0786 0.54179 0.0
C232 C 0.35346 0.02345 0.50549 0.0
C233 C 0.36936 0.01867 0.47173 0.0
N234 N 0.37747 0.12735 0.54452 0.0
C235 C 0.39313 0.12301 0.51153 0.0
Co236 Co 0.13035 0.93206 0.05438 0.0
Co237 Co 0.1261 0.71098 0.01675 0.0
O238 O 0.11757 0.80885 0.05753 0.0
C239 C 0.13691 0.88316 0.14906 0.0
O240 O 0.14077 0.79854 0.13834 0.0
C241 C 0.07513 0.70697 0.01429 0.0
O242 O 0.07445 0.79557 0.01713 0.0
O243 O 0.12055 0.79047 0.96453 0.0
O244 O 0.12899 0.92967 0.98908 0.0
H245 H 0.16727 0.57826 0.8875 0.0
H246 H 0.09015 0.89599 0.1098 0.0
O247 O 0.13209 0.94143 0.11982 0.0
H248 H 0.0654 0.127 0.00329 0.0
H249 H 0.13803 0.25934 0.09898 0.0
H250 H 0.1652 0.02061 0.99885 0.0
H251 H 0.10462 0.06988 1.00243 0.0
H252 H 0.12248 0.10455 0.10344 0.0
O253 O 0.09405 0.6658 0.01379 0.0
H254 H 0.15607 0.69934 0.93886 0.0
H255 H 0.11409 0.51497 0.00864 0.0
H256 H 0.18106 0.17478 0.99301 0.0
H257 H 0.0508 0.95203 0.11229 0.0
H258 H 0.16739 0.29548 0.04323 0.0
H259 H 0.03817 0.06811 0.05862 0.0
O260 O 0.16195 0.88321 0.05338 0.0
H261 H 0.10622 0.57013 0.16197 0.0
H262 H 0.16352 0.58713 0.04448 0.0
H263 H 0.17038 0.48897 0.10854 0.0
H264 H 0.14155 0.47973 0.16782 0.0
H265 H 0.10016 0.66808 0.09743 0.0
H266 H 0.12478 0.39208 0.95797 0.0
H267 H 0.15161 0.4233 0.89694 0.0
O268 O 0.15848 0.74973 0.0188 0.0
C269 C 0.12397 0.87492 0.95828 0.0
C270 C 0.1556 0.56378 0.91401 0.0
C271 C 0.13172 0.45932 0.95351 0.0
N272 N 0.13453 0.61424 0.97683 0.0
C273 C 0.14922 0.63203 0.94323 0.0
C274 C 0.12568 0.52929 0.98203 0.0
C275 C 0.14679 0.47687 0.9193 0.0
C276 C 0.08482 0.94698 0.08655 0.0
N277 N 0.09966 0.97932 0.05586 0.0
C278 C 0.0625 0.97824 0.08802 0.0
C279 C 0.05542 0.04326 0.05786 0.0
C280 C 0.07067 0.07621 0.02677 0.0
C281 C 0.09284 0.04322 0.02624 0.0
C282 C 0.14408 0.20737 0.07685 0.0
C283 C 0.15913 0.07282 0.02074 0.0
C284 C 0.13539 0.11948 0.0793 0.0
N285 N 0.1428 0.05367 0.0512 0.0
C286 C 0.1682 0.15995 0.01734 0.0
C287 C 0.16055 0.22761 0.04556 0.0
C288 C 0.17046 0.81238 0.0359 0.0
C289 C 0.1189 0.57348 0.13633 0.0
C290 C 0.15102 0.58428 0.0703 0.0
C291 C 0.15493 0.52817 0.10642 0.0
C292 C 0.13874 0.5229 0.13963 0.0
N293 N 0.13147 0.63343 0.06719 0.0
C294 C 0.11553 0.62864 0.09965 0.0
Co295 Co 0.88054 0.08004 0.05359 0.0
Co296 Co 0.88335 0.29623 0.01345 0.0
O297 O 0.89274 0.20362 0.05603 0.0
C298 C 0.87372 0.12116 0.14865 0.0
O299 O 0.86365 0.1972 0.13786 0.0
C300 C 0.93381 0.31398 0.0135 0.0
O301 O 0.93537 0.2254 0.01199 0.0
O302 O 0.89247 0.21604 0.96379 0.0
O303 O 0.87899 0.08334 0.98796 0.0
H304 H 0.84477 0.4088 0.87684 0.0
H305 H 0.92291 0.11513 0.10279 0.0
O306 O 0.88197 0.07013 0.11906 0.0
H307 H 0.94342 0.89024 0.98998 0.0
H308 H 0.87584 0.75157 0.09746 0.0
H309 H 0.84343 0.99116 0.00388 0.0
H310 H 0.90421 0.94631 0.99583 0.0
H311 H 0.8912 0.90685 0.09984 0.0
O312 O 0.91444 0.35168 0.01458 0.0
H313 H 0.85635 0.29423 0.93129 0.0
H314 H 0.89144 0.49502 0.00457 0.0
H315 H 0.8277 0.83653 1.00015 0.0
H316 H 0.96232 0.06014 0.0984 0.0
H317 H 0.84397 0.7154 0.04711 0.0
H318 H 0.97279 0.94704 0.04159 0.0
O319 O 0.84908 0.12866 0.05757 0.0
H320 H 0.89422 0.4487 0.15943 0.0
H321 H 0.84222 0.40611 0.03429 0.0
H322 H 0.83068 0.50344 0.09611 0.0
H323 H 0.85681 0.52555 0.15919 0.0
H324 H 0.90504 0.35148 0.09698 0.0
H325 H 0.88032 0.61165 0.95083 0.0
H326 H 0.85676 0.56884 0.88646 0.0
O327 O 0.85171 0.24628 0.01124 0.0
C328 C 0.88679 0.13367 0.95747 0.0
C329 C 0.85499 0.42833 0.9048 0.0
C330 C 0.87498 0.54215 0.94628 0.0
N331 N 0.87444 0.38794 0.97121 0.0
C332 C 0.86157 0.36378 0.93578 0.0
C333 C 0.88127 0.47574 0.97655 0.0
C334 C 0.86174 0.5181 0.91019 0.0
C335 C 0.92731 0.06539 0.07821 0.0
N336 N 0.91127 0.03396 0.04964 0.0
C337 C 0.94966 0.03473 0.07578 0.0
C338 C 0.95554 0.97139 0.04385 0.0
C339 C 0.93908 0.93957 0.01485 0.0
C340 C 0.91691 0.97186 0.01822 0.0
C341 C 0.86863 0.80374 0.0768 0.0
C342 C 0.85063 0.9388 0.02436 0.0
C343 C 0.8772 0.8919 0.07812 0.0
N344 N 0.8683 0.95799 0.05185 0.0
C345 C 0.84163 0.85139 0.02215 0.0
C346 C 0.85075 0.78348 0.04853 0.0
C347 C 0.84011 0.19106 0.03441 0.0
C348 C 0.88272 0.43981 0.13207 0.0
C349 C 0.85365 0.41498 0.06171 0.0
C350 C 0.84704 0.47039 0.09657 0.0
C351 C 0.86171 0.48281 0.13194 0.0
N352 N 0.87435 0.37351 0.06194 0.0
C353 C 0.88878 0.38503 0.09659 0.0
Co354 Co 0.1288 0.07005 0.55707 0.0
Co355 Co 0.12581 0.29636 0.58828 0.0
O356 O 0.11668 0.19373 0.55081 0.0
C357 C 0.13697 0.1124 0.46231 0.0
O358 O 0.141 0.19728 0.47239 0.0
C359 C 0.07499 0.30065 0.59352 0.0
O360 O 0.07413 0.2119 0.59225 0.0
O361 O 0.12111 0.2233 0.643 0.0
O362 O 0.12599 0.07847 0.62212 0.0
H363 H 0.16944 0.44573 0.71026 0.0
H364 H 0.08955 0.10644 0.49911 0.0
O365 O 0.13165 0.0556 0.49195 0.0
H366 H 0.06236 0.88058 0.60617 0.0
H367 H 0.13587 0.73911 0.51894 0.0
H368 H 0.16177 0.9836 0.61728 0.0
H369 H 0.10187 0.93528 0.60844 0.0
H370 H 0.12131 0.89447 0.51022 0.0
O371 O 0.09393 0.34167 0.59198 0.0
H372 H 0.15713 0.31805 0.66374 0.0
H373 H 0.11402 0.49302 0.59123 0.0
H374 H 0.17659 0.82889 0.62742 0.0
H375 H 0.04997 0.05285 0.4952 0.0
H376 H 0.16355 0.70531 0.57815 0.0
H377 H 0.03611 0.93941 0.54914 0.0
O378 O 0.16079 0.11622 0.55929 0.0
H379 H 0.10368 0.41897 0.44047 0.0
H380 H 0.16297 0.41555 0.55454 0.0
H381 H 0.16893 0.50483 0.48715 0.0
H382 H 0.13911 0.50719 0.42956 0.0
H383 H 0.09852 0.32987 0.50826 0.0
H384 H 0.12585 0.62247 0.63694 0.0
H385 H 0.15381 0.59933 0.69687 0.0
O386 O 0.1579 0.2575 0.58556 0.0
C387 C 0.12241 0.13865 0.65126 0.0
C388 C 0.15726 0.45669 0.68422 0.0
C389 C 0.13276 0.55585 0.64313 0.0
N390 N 0.13492 0.39798 0.62474 0.0
C391 C 0.15023 0.38465 0.65778 0.0
C392 C 0.12608 0.48218 0.61744 0.0
C393 C 0.14847 0.54284 0.67672 0.0
C394 C 0.08367 0.05678 0.52257 0.0
N395 N 0.09794 0.02466 0.55426 0.0
C396 C 0.06123 0.02681 0.52024 0.0
C397 C 0.05346 0.96325 0.55055 0.0
C398 C 0.06816 0.93035 0.5826 0.0
C399 C 0.09047 0.96202 0.58396 0.0
C400 C 0.14164 0.79235 0.54068 0.0
C401 C 0.15598 0.93012 0.59577 0.0
C402 C 0.13353 0.88058 0.5358 0.0
N403 N 0.14056 0.94799 0.56344 0.0
C404 C 0.16447 0.84271 0.6016 0.0
C405 C 0.15717 0.77342 0.57391 0.0
C406 C 0.16959 0.19039 0.57261 0.0
C407 C 0.11678 0.41863 0.46536 0.0
C408 C 0.15 0.41553 0.52952 0.0
C409 C 0.15342 0.46659 0.49149 0.0
C410 C 0.13667 0.46799 0.45922 0.0
N411 N 0.1304 0.36753 0.53539 0.0
C412 C 0.11392 0.36855 0.50388 0.0
Co413 Co 0.88067 0.92658 0.55664 0.0
Co414 Co 0.88401 0.70524 0.59158 0.0
O415 O 0.89335 0.80401 0.55222 0.0
C416 C 0.8739 0.88931 0.46135 0.0
O417 O 0.86481 0.81084 0.47154 0.0
C418 C 0.93465 0.69496 0.59521 0.0
O419 O 0.93584 0.78364 0.59677 0.0
O420 O 0.89087 0.78124 0.64438 0.0
O421 O 0.87955 0.91841 0.6219 0.0
H422 H 0.8428 0.57075 0.7205 0.0
H423 H 0.92279 0.8975 0.50574 0.0
O424 O 0.8816 0.9408 0.49134 0.0
H425 H 0.94355 0.11461 0.62206 0.0
H426 H 0.87516 0.25774 0.51838 0.0
H427 H 0.84369 0.01033 0.60856 0.0
H428 H 0.90444 0.05682 0.61621 0.0
H429 H 0.89068 0.10324 0.51293 0.0
O430 O 0.91553 0.65551 0.59269 0.0
H431 H 0.85477 0.69329 0.67052 0.0
H432 H 0.89399 0.50717 0.59631 0.0
H433 H 0.82778 0.16402 0.61531 0.0
H434 H 0.96208 0.95432 0.51012 0.0
H435 H 0.8436 0.2891 0.57013 0.0
H436 H 0.97268 0.06351 0.56868 0.0
O437 O 0.84917 0.87748 0.55274 0.0
H438 H 0.90083 0.57431 0.44288 0.0
H439 H 0.84528 0.58755 0.56357 0.0
H440 H 0.83673 0.49619 0.4979 0.0
H441 H 0.86466 0.48891 0.43697 0.0
H442 H 0.90861 0.66541 0.50911 0.0
H443 H 0.88249 0.38276 0.64551 0.0
H444 H 0.85666 0.41415 0.70808 0.0
O445 O 0.85197 0.74862 0.59131 0.0
C446 C 0.88591 0.86396 0.65188 0.0
C447 C 0.85403 0.5562 0.69331 0.0
C448 C 0.87634 0.45072 0.65128 0.0
N449 N 0.87496 0.6074 0.63041 0.0
C450 C 0.86084 0.62528 0.66487 0.0
C451 C 0.88284 0.52153 0.62359 0.0
C452 C 0.86183 0.46836 0.68634 0.0
C453 C 0.92724 0.94556 0.5311 0.0
N454 N 0.91132 0.97389 0.56062 0.0
C455 C 0.94953 0.97725 0.53351 0.0
C456 C 0.95547 0.0384 0.56642 0.0
C457 C 0.93914 0.06701 0.59641 0.0
C458 C 0.91704 0.03376 0.59303 0.0
C459 C 0.86815 0.20384 0.53829 0.0
C460 C 0.85067 0.0644 0.58881 0.0
C461 C 0.87681 0.11612 0.53524 0.0
N462 N 0.86819 0.04786 0.56059 0.0
C463 C 0.84158 0.15127 0.59273 0.0
C464 C 0.85044 0.2214 0.56734 0.0
C465 C 0.84031 0.80908 0.57183 0.0
C466 C 0.88854 0.57687 0.46922 0.0
C467 C 0.85742 0.58542 0.53709 0.0
C468 C 0.85254 0.53321 0.50004 0.0
C469 C 0.86823 0.52906 0.4659 0.0
N470 N 0.87741 0.63189 0.5402 0.0
C471 C 0.89286 0.62819 0.50683 0.0
H472 H 0.81417 0.26639 0.97019 0.0
H473 H 0.80972 0.14397 0.09877 0.0
H474 H 0.77351 0.29578 0.9714 0.0
H475 H 0.76884 0.1751 0.10013 0.0
H476 H 0.70289 0.35937 0.09922 0.0
H477 H 0.74358 0.32495 0.0996 0.0
H478 H 0.73702 0.19621 0.97304 0.0
H479 H 0.69651 0.22894 0.97279 0.0
C480 C 0.80448 0.24535 0.99866 0.0
C481 C 0.81515 0.20242 0.03432 0.0
C482 C 0.7812 0.26216 0.99928 0.0
C483 C 0.76806 0.23803 0.0359 0.0
C484 C 0.77864 0.19491 0.07161 0.0
C485 C 0.80194 0.17638 0.07064 0.0
C486 C 0.71018 0.3242 0.0714 0.0
C487 C 0.69648 0.29727 0.0359 0.0
C488 C 0.73339 0.30381 0.07182 0.0
C489 C 0.74339 0.25775 0.03639 0.0
C490 C 0.72976 0.23205 1.0007 0.0
C491 C 0.70656 0.25082 1.00062 0.0
H492 H 0.19411 0.66352 0.00852 0.0
H493 H 0.20375 0.93048 0.06385 0.0
H494 H 0.23466 0.63717 0.01166 0.0
H495 H 0.24474 0.90397 0.06591 0.0
H496 H 0.3169 0.84914 0.00684 0.0
H497 H 0.27636 0.87793 0.00849 0.0
H498 H 0.26529 0.6197 0.07115 0.0
H499 H 0.30615 0.59102 0.0706 0.0
C500 C 0.20479 0.71671 0.02156 0.0
C501 C 0.19547 0.79903 0.03639 0.0
C502 C 0.2281 0.7012 0.02341 0.0
C503 C 0.24284 0.76807 0.03936 0.0
C504 C 0.23373 0.85115 0.05344 0.0
C505 C 0.21026 0.86626 0.05229 0.0
C506 C 0.30598 0.79857 0.02149 0.0
C507 C 0.31496 0.7179 0.039 0.0
C508 C 0.28269 0.81546 0.02247 0.0
C509 C 0.26768 0.75144 0.04017 0.0
C510 C 0.2765 0.67027 0.05724 0.0
C511 C 0.2999 0.65392 0.05696 0.0
H512 H 0.80761 0.92418 0.53933 0.0
H513 H 0.81615 0.66451 0.60285 0.0
H514 H 0.76654 0.89884 0.53737 0.0
H515 H 0.77555 0.6391 0.59967 0.0
H516 H 0.70372 0.59024 0.54241 0.0
H517 H 0.74471 0.61653 0.53999 0.0
H518 H 0.73525 0.8812 0.59689 0.0
H519 H 0.69466 0.85493 0.60052 0.0
C520 C 0.80084 0.86174 0.55262 0.0
C521 C 0.81532 0.79623 0.57089 0.0
C522 C 0.77735 0.84728 0.55149 0.0
C523 C 0.76794 0.76651 0.56794 0.0
C524 C 0.78237 0.70121 0.58607 0.0
C525 C 0.8057 0.71619 0.58793 0.0
C526 C 0.71036 0.65404 0.55438 0.0
C527 C 0.69576 0.72057 0.57134 0.0
C528 C 0.73381 0.66903 0.55299 0.0
C529 C 0.74308 0.75131 0.56788 0.0
C530 C 0.72853 0.81784 0.58453 0.0
C531 C 0.70522 0.80237 0.58666 0.0
H532 H 0.20279 0.06698 0.55012 0.0
H533 H 0.19336 0.34262 0.59442 0.0
H534 H 0.24389 0.09255 0.54829 0.0
H535 H 0.23387 0.36754 0.59183 0.0
H536 H 0.30572 0.40714 0.53729 0.0
H537 H 0.26495 0.37711 0.53476 0.0
H538 H 0.2751 0.12607 0.60445 0.0
H539 H 0.31556 0.156 0.60776 0.0
C540 C 0.20937 0.13278 0.55932 0.0
C541 C 0.19462 0.2027 0.57208 0.0
C542 C 0.23288 0.14739 0.5583 0.0
C543 C 0.24204 0.23244 0.56946 0.0
C544 C 0.22731 0.30189 0.58226 0.0
C545 C 0.204 0.28713 0.58387 0.0
C546 C 0.29929 0.34555 0.55207 0.0
C547 C 0.31405 0.28401 0.57254 0.0
C548 C 0.27594 0.32836 0.55061 0.0
C549 C 0.26688 0.24885 0.56915 0.0
C550 C 0.28161 0.18712 0.58928 0.0
C551 C 0.30485 0.20478 0.59129 0.0
H552 H 0.6469 0.55479 0.17939 0.0
H553 H 0.62564 0.29261 0.22642 0.0
H554 H 0.6475 0.61213 0.25398 0.0
H555 H 0.62461 0.35124 0.30133 0.0
H556 H 0.62725 0.72011 0.38718 0.0
H557 H 0.62654 0.66125 0.31234 0.0
H558 H 0.6451 0.39636 0.36122 0.0
H559 H 0.64417 0.45431 0.43571 0.0
C560 C 0.64207 0.50962 0.20583 0.0
C561 C 0.63622 0.41916 0.19712 0.0
C562 C 0.6422 0.5428 0.24877 0.0
C563 C 0.63593 0.48706 0.28425 0.0
C564 C 0.62998 0.39625 0.27529 0.0
C565 C 0.63041 0.36242 0.23228 0.0
C566 C 0.63113 0.64936 0.38169 0.0
C567 C 0.63566 0.59183 0.41723 0.0
C568 C 0.63089 0.61537 0.33872 0.0
C569 C 0.63577 0.52345 0.33018 0.0
C570 C 0.64068 0.46671 0.36606 0.0
C571 C 0.64036 0.50019 0.40895 0.0
H572 H 0.38421 0.71399 0.2264 0.0
H573 H 0.36447 0.4507 0.17834 0.0
H574 H 0.38491 0.65495 0.30123 0.0
H575 H 0.36357 0.39279 0.25286 0.0
H576 H 0.38336 0.28612 0.3869 0.0
H577 H 0.38426 0.34493 0.31202 0.0
H578 H 0.36397 0.60824 0.36026 0.0
H579 H 0.36467 0.55051 0.43478 0.0
C580 C 0.3797 0.64382 0.232 0.0
C581 C 0.3744 0.58697 0.19658 0.0
C582 C 0.37994 0.60974 0.27497 0.0
C583 C 0.37431 0.51849 0.28363 0.0
C584 C 0.36859 0.46253 0.24789 0.0
C585 C 0.36889 0.49602 0.20499 0.0
C586 C 0.37913 0.3565 0.38126 0.0
C587 C 0.37407 0.41372 0.41665 0.0
C588 C 0.37949 0.39045 0.33826 0.0
C589 C 0.37422 0.48196 0.32955 0.0
C590 C 0.36872 0.53828 0.36526 0.0
C591 C 0.36891 0.50489 0.40817 0.0
H592 H 0.37346 0.46671 0.93351 0.0
H593 H 0.39952 0.71976 0.8828 0.0
H594 H 0.37488 0.40146 0.8607 0.0
H595 H 0.40118 0.65301 0.80928 0.0
H596 H 0.37304 0.53642 0.67983 0.0
H597 H 0.37505 0.60208 0.75258 0.0
H598 H 0.40062 0.34953 0.80386 0.0
H599 H 0.39836 0.2825 0.73051 0.0
C600 C 0.37969 0.50859 0.90693 0.0
C601 C 0.38641 0.59897 0.9143 0.0
C602 C 0.38064 0.47052 0.86504 0.0
C603 C 0.38825 0.52158 0.82908 0.0
C604 C 0.39506 0.61191 0.83625 0.0
C605 C 0.39418 0.65017 0.87841 0.0
C606 C 0.37922 0.49445 0.70639 0.0
C607 C 0.38554 0.4037 0.69905 0.0
C608 C 0.38052 0.53272 0.74823 0.0
C609 C 0.38809 0.48146 0.78413 0.0
C610 C 0.39452 0.39079 0.77695 0.0
C611 C 0.39329 0.35235 0.73488 0.0
H612 H 0.60855 0.30086 0.88381 0.0
H613 H 0.63814 0.54793 0.93416 0.0
H614 H 0.6067 0.36879 0.81072 0.0
H615 H 0.63656 0.6146 0.86144 0.0
H616 H 0.63527 0.47629 0.68077 0.0
H617 H 0.6333 0.41323 0.75392 0.0
H618 H 0.61111 0.67142 0.80449 0.0
H619 H 0.61332 0.73599 0.73051 0.0
C620 C 0.61461 0.36951 0.87942 0.0
C621 C 0.62351 0.41854 0.91504 0.0
C622 C 0.61363 0.40843 0.83748 0.0
C623 C 0.62149 0.4973 0.83017 0.0
C624 C 0.63005 0.54664 0.86592 0.0
C625 C 0.63109 0.50782 0.9077 0.0
C626 C 0.62983 0.52016 0.70722 0.0
C627 C 0.62439 0.61165 0.69944 0.0
C628 C 0.62855 0.48339 0.74933 0.0
C629 C 0.62188 0.53683 0.78512 0.0
C630 C 0.61645 0.62844 0.77762 0.0
C631 C 0.61765 0.66544 0.73521 0.0
H632 H 0.14896 0.04992 0.178 0.0
H633 H 0.12815 0.78641 0.22403 0.0
H634 H 0.15052 0.10485 0.253 0.0
H635 H 0.12813 0.84258 0.29942 0.0
H636 H 0.1474 0.94311 0.4342 0.0
H637 H 0.14891 0.88712 0.35929 0.0
H638 H 0.12949 0.15205 0.31176 0.0
H639 H 0.12958 0.20893 0.38692 0.0
C640 C 0.14451 0.00388 0.20434 0.0
C641 C 0.13841 0.91384 0.1952 0.0
C642 C 0.14518 0.03567 0.2475 0.0
C643 C 0.13924 0.97893 0.28282 0.0
C644 C 0.13323 0.88834 0.27348 0.0
C645 C 0.1331 0.85591 0.2302 0.0
C646 C 0.14361 0.98946 0.40762 0.0
C647 C 0.13841 0.08048 0.41636 0.0
C648 C 0.14425 0.95711 0.36452 0.0
C649 C 0.13918 0.01439 0.32892 0.0
C650 C 0.13397 0.10582 0.33791 0.0
C651 C 0.13387 0.13868 0.38108 0.0
H652 H 0.86185 0.7972 0.38643 0.0
H653 H 0.88652 0.05645 0.43189 0.0
H654 H 0.86158 0.85471 0.31105 0.0
H655 H 0.88631 0.11317 0.35695 0.0
H656 H 0.85908 0.21023 0.22271 0.0
H657 H 0.85882 0.15338 0.29822 0.0
H658 H 0.88934 0.90374 0.25448 0.0
H659 H 0.88957 0.95976 0.17947 0.0
C660 C 0.86726 0.86618 0.3804 0.0
C661 C 0.87422 0.922 0.41526 0.0
C662 C 0.86717 0.89908 0.33723 0.0
C663 C 0.87385 0.98868 0.32807 0.0
C664 C 0.88078 0.04431 0.36295 0.0
C665 C 0.88106 0.01133 0.40593 0.0
C666 C 0.8658 0.14341 0.22925 0.0
C667 C 0.87432 0.08973 0.19494 0.0
C668 C 0.8657 0.11089 0.27251 0.0
C669 C 0.87394 0.02377 0.28227 0.0
C670 C 0.88256 0.9705 0.24799 0.0
C671 C 0.88283 1.00313 0.20496 0.0
H672 H 0.89973 0.77805 0.72786 0.0
H673 H 0.87552 0.03512 0.67886 0.0
H674 H 0.90218 0.84286 0.80172 0.0
H675 H 0.8776 0.09831 0.75196 0.0
H676 H 0.90188 0.21389 0.88122 0.0
H677 H 0.90382 0.14655 0.80803 0.0
H678 H 0.87718 0.89557 0.85955 0.0
H679 H 0.87564 0.96155 0.93237 0.0
C680 C 0.89493 0.84806 0.73272 0.0
C681 C 0.88747 0.90104 0.6972 0.0
C682 C 0.89626 0.88521 0.77506 0.0
C683 C 0.8902 0.9761 0.78278 0.0
C684 C 0.88283 0.02877 0.74721 0.0
C685 C 0.88148 0.9919 0.70514 0.0
C686 C 0.89656 0.14423 0.87697 0.0
C687 C 0.88856 0.09354 0.91283 0.0
C688 C 0.89759 0.10564 0.83497 0.0
C689 C 0.89063 0.01551 0.82784 0.0
C690 C 0.88299 0.96458 0.86385 0.0
C691 C 0.88195 1.00299 0.90569 0.0
H692 H 0.12209 0.78469 0.8791 0.0
H693 H 0.12266 0.05346 0.93503 0.0
H694 H 0.12117 0.85067 0.80567 0.0
H695 H 0.12018 0.11883 0.8626 0.0
H696 H 0.13993 0.21502 0.72577 0.0
H697 H 0.14027 0.15038 0.79953 0.0
H698 H 0.09944 0.92593 0.75368 0.0
H699 H 0.10021 0.98875 0.68004 0.0
C700 C 0.12163 0.85768 0.87585 0.0
C701 C 0.1223 0.91338 0.91322 0.0
C702 C 0.12096 0.89582 0.83366 0.0
C703 C 0.12058 0.99063 0.82779 0.0
C704 C 0.12091 0.04585 0.86535 0.0
C705 C 0.12201 0.00792 0.90726 0.0
C706 C 0.13087 0.15239 0.73175 0.0
C707 C 0.12021 0.10657 0.69709 0.0
C708 C 0.13099 0.11508 0.77409 0.0
C709 C 0.12003 0.03196 0.7829 0.0
C710 C 0.10863 0.9884 0.74826 0.0
C711 C 0.1089 0.02483 0.70592 0.0
H712 H 0.43988 0.98057 0.9941 0.0
H713 H 0.47936 0.75461 0.04111 0.0
H714 H 0.47349 0.07525 0.99389 0.0
H715 H 0.5131 0.85072 0.04271 0.0
H716 H 0.53271 0.25064 0.03653 0.0
H717 H 0.49918 0.15371 0.0382 0.0
H718 H 0.54019 0.92491 0.99949 0.0
H719 H 0.57363 0.02079 0.99972 0.0
C720 C 0.45576 0.95114 0.00476 0.0
C721 C 0.45689 0.85978 0.01765 0.0
C722 C 0.4751 0.00594 0.00498 0.0
C723 C 0.49617 0.97148 0.01859 0.0
C724 C 0.49731 0.87975 0.03139 0.0
C725 C 0.47793 0.82446 0.03067 0.0
C726 C 0.53452 0.17963 0.02842 0.0
C727 C 0.55588 0.1437 0.01805 0.0
C728 C 0.51526 0.12385 0.02913 0.0
C729 C 0.5168 0.03086 0.01892 0.0
C730 C 0.53824 0.99541 0.00838 0.0
C731 C 0.55748 0.05084 0.00819 0.0
H732 H 0.53233 0.75961 0.57923 0.0
H733 H 0.57216 0.99069 0.61939 0.0
H734 H 0.49838 0.85396 0.57843 0.0
H735 H 0.53834 0.0838 0.62053 0.0
H736 H 0.47768 0.25163 0.57728 0.0
H737 H 0.51164 0.15734 0.57638 0.0
H738 H 0.47217 0.92966 0.62273 0.0
H739 H 0.43832 0.02258 0.6217 0.0
C740 C 0.53378 0.83023 0.58838 0.0
C741 C 0.55495 0.86757 0.5992 0.0
C742 C 0.51431 0.8845 0.58813 0.0
C743 C 0.5155 0.97711 0.5993 0.0
C744 C 0.53671 0.01364 0.61076 0.0
C745 C 0.55615 0.95983 0.61045 0.0
C746 C 0.47634 0.1815 0.58734 0.0
C747 C 0.45529 0.14466 0.59936 0.0
C748 C 0.49582 0.12728 0.58703 0.0
C749 C 0.49477 0.03526 0.59935 0.0
C750 C 0.47369 0.9993 0.61205 0.0
C751 C 0.45423 0.05302 0.61179 0.0
H752 H 0.03195 0.75733 0.03785 0.0
H753 H 0.07053 0.53204 0.98747 0.0
H754 H 0.99795 0.66272 0.03903 0.0
H755 H 0.03664 0.43895 0.98675 0.0
H756 H 0.97773 0.26357 0.03005 0.0
H757 H 0.01135 0.3597 0.03125 0.0
H758 H 0.97021 0.59086 0.99648 0.0
H759 H 0.93662 0.49549 0.99731 0.0
C760 C 0.03311 0.68799 0.02652 0.0
C761 C 0.05398 0.65228 0.01277 0.0
C762 C 0.01358 0.63358 0.02701 0.0
C763 C 0.0144 0.54242 0.01322 0.0
C764 C 0.03529 0.50776 0.99866 0.0
C765 C 0.05478 0.56163 0.99872 0.0
C766 C 0.9759 0.33493 0.0227 0.0
C767 C 0.95447 0.37166 0.01361 0.0
C768 C 0.99522 0.39026 0.02311 0.0
C769 C 0.99368 0.48363 0.01381 0.0
C770 C 0.97217 0.51996 0.00459 0.0
C771 C 0.95284 0.46491 0.00475 0.0
H772 H 0.03146 0.25094 0.57216 0.0
H773 H 0.0713 0.47603 0.61963 0.0
H774 H 0.99778 0.34686 0.57175 0.0
H775 H 0.03772 0.57049 0.62114 0.0
H776 H 0.97855 0.74576 0.57786 0.0
H777 H 0.01211 0.64933 0.57685 0.0
H778 H 0.97102 0.4203 0.61579 0.0
H779 H 0.93758 0.51558 0.61482 0.0
C780 C 0.03295 0.3205 0.58305 0.0
C781 C 0.05406 0.35585 0.59572 0.0
C782 C 0.01363 0.37565 0.583 0.0
C783 C 0.01492 0.4671 0.59622 0.0
C784 C 0.03604 0.50141 0.60972 0.0
C785 C 0.05533 0.44679 0.6092 0.0
C786 C 0.97676 0.67485 0.58624 0.0
C787 C 0.95539 0.63843 0.59625 0.0
C788 C 0.99602 0.61939 0.58589 0.0
C789 C 0.9944 0.52643 0.59617 0.0
C790 C 0.97298 0.49075 0.60675 0.0
C791 C 0.95376 0.54579 0.60652 0.0
loop_
_geom_bond_atom_site_label_1
_geom_bond_atom_site_label_2
_geom_bond_distance
_geom_bond_site_symmetry_2
_ccdc_geom_bond_type
Co0 O2 2.143 . S
Co0 O8 2.074 1_554 S
Co0 O11 2.093 . S
Co0 O24 2.097 . S
Co0 N41 2.151 . S
Co0 N49 2.214 . S
Co1 O2 2.160 . S
Co1 O7 2.058 1_554 S
Co1 O17 2.057 . S
Co1 O32 2.037 . S
Co1 N36 2.145 1_554 S
Co1 N57 2.257 . S
O2 Co0 2.143 . S
O2 Co1 2.160 . S
C3 O4 1.278 . S
C3 O11 1.224 . S
O4 C3 1.278 . S
C5 O6 1.245 . S
C5 O17 1.232 . S
O6 C5 1.245 . S
O7 Co1 2.058 1_556 S
O7 C33 1.269 . S
O8 Co0 2.074 1_556 S
O8 C33 1.257 . S
H9 C34 0.930 . S
H10 C40 0.930 . S
O11 Co0 2.093 . S
O11 C3 1.224 . S
H12 C44 0.929 1_556 S
H13 C46 0.930 . S
H14 C47 0.937 . S
H15 C45 0.929 1_556 S
H16 C48 0.928 . S
O17 Co1 2.057 . S
O17 C5 1.232 . S
H18 C37 0.929 . S
H19 C38 0.929 . S
H20 C50 0.931 1_556 S
H21 C42 0.929 . S
H22 C51 0.930 . S
H23 C43 0.931 . S
O24 Co0 2.097 . S
O24 C52 1.214 . S
H25 C53 0.929 . S
H26 C54 0.929 . S
H27 C55 0.930 1_565 S
H28 C56 0.929 1_565 S
H29 C58 0.930 . S
H30 C35 0.930 . S
H31 C39 0.930 . S
O32 Co1 2.037 . S
O32 C52 1.234 . S
C33 O7 1.269 . S
C33 O8 1.257 . S
C34 H9 0.930 . S
C34 C37 1.388 . S
C34 C39 1.418 1_545 S
C35 H30 0.930 . S
C35 C38 1.404 1_565 S
C35 C39 1.353 . S
N36 Co1 2.145 1_556 S
N36 C37 1.397 . S
N36 C38 1.334 . S
C37 H18 0.929 . S
C37 C34 1.388 . S
C37 N36 1.397 . S
C38 H19 0.929 . S
C38 C35 1.404 1_545 S
C38 N36 1.334 . S
C39 H31 0.930 . S
C39 C34 1.418 1_565 S
C39 C35 1.353 . S
C40 H10 0.930 . S
C40 N41 1.330 . S
C40 C42 1.446 . S
N41 Co0 2.151 . S
N41 C40 1.330 . S
N41 C45 1.418 . S
C42 H21 0.929 . S
C42 C40 1.446 . S
C42 C43 1.332 . S
C43 H23 0.931 . S
C43 C42 1.332 . S
C43 C44 1.267 . S
C44 H12 0.929 1_554 S
C44 C43 1.267 . S
C44 C45 1.251 . S
C45 H15 0.929 1_554 S
C45 N41 1.418 . S
C45 C44 1.251 . S
C46 H13 0.930 . S
C46 C48 1.406 . S
C46 C51 1.261 . S
C47 H14 0.937 . S
C47 N49 1.325 . S
C47 C50 1.357 . S
C48 H16 0.928 . S
C48 C46 1.406 . S
C48 N49 1.261 . S
N49 Co0 2.214 . S
N49 C47 1.325 . S
N49 C48 1.261 . S
C50 H20 0.931 1_554 S
C50 C47 1.357 . S
C50 C51 1.312 . S
C51 H22 0.930 . S
C51 C46 1.261 . S
C51 C50 1.312 . S
C52 O24 1.214 . S
C52 O32 1.234 . S
C53 H25 0.929 . S
C53 C56 1.391 . S
C53 C58 1.391 . S
C54 H26 0.929 . S
C54 C55 1.390 . S
C54 N57 1.391 . S
C55 H27 0.930 1_545 S
C55 C54 1.390 . S
C55 C56 1.392 . S
C56 H28 0.929 1_545 S
C56 C53 1.391 . S
C56 C55 1.392 . S
N57 Co1 2.257 . S
N57 C54 1.391 . S
N57 C58 1.388 . S
C58 H29 0.930 . S
C58 C53 1.391 . S
C58 N57 1.388 . S
Co59 O61 2.143 . S
Co59 O67 2.074 1_554 S
Co59 O70 2.093 . S
Co59 O83 2.097 . S
Co59 N100 2.151 . S
Co59 N108 2.214 . S
Co60 O61 2.160 . S
Co60 O66 2.058 1_554 S
Co60 O76 2.057 . S
Co60 O91 2.037 . S
Co60 N95 2.145 1_554 S
Co60 N116 2.257 . S
O61 Co59 2.143 . S
O61 Co60 2.160 . S
C62 O63 1.278 . S
C62 O70 1.224 . S
O63 C62 1.278 . S
C64 O65 1.245 . S
C64 O76 1.232 . S
O65 C64 1.245 . S
O66 Co60 2.058 1_556 S
O66 C92 1.269 . S
O67 Co59 2.074 1_556 S
O67 C92 1.257 . S
H68 C93 0.930 . S
H69 C99 0.930 . S
O70 Co59 2.093 . S
O70 C62 1.224 . S
H71 C103 0.929 1_556 S
H72 C105 0.930 . S
H73 C106 0.937 . S
H74 C104 0.929 1_556 S
H75 C107 0.928 . S
O76 Co60 2.057 . S
O76 C64 1.232 . S
H77 C96 0.929 . S
H78 C97 0.929 . S
H79 C109 0.931 1_556 S
H80 C101 0.929 . S
H81 C110 0.930 . S
H82 C102 0.931 . S
O83 Co59 2.097 . S
O83 C111 1.214 . S
H84 C112 0.929 . S
H85 C113 0.929 . S
H86 C114 0.930 1_545 S
H87 C115 0.929 1_545 S
H88 C117 0.930 . S
H89 C94 0.930 . S
H90 C98 0.930 . S
O91 Co60 2.037 . S
O91 C111 1.234 . S
C92 O66 1.269 . S
C92 O67 1.257 . S
C93 H68 0.930 . S
C93 C96 1.388 . S
C93 C98 1.418 1_565 S
C94 H89 0.930 . S
C94 C97 1.404 1_545 S
C94 C98 1.353 . S
N95 Co60 2.145 1_556 S
N95 C96 1.397 . S
N95 C97 1.334 . S
C96 H77 0.929 . S
C96 C93 1.388 . S
C96 N95 1.397 . S
C97 H78 0.929 . S
C97 C94 1.404 1_565 S
C97 N95 1.334 . S
C98 H90 0.930 . S
C98 C93 1.418 1_545 S
C98 C94 1.353 . S
C99 H69 0.930 . S
C99 N100 1.330 . S
C99 C101 1.446 . S
N100 Co59 2.151 . S
N100 C99 1.330 . S
N100 C104 1.418 . S
C101 H80 0.929 . S
C101 C99 1.446 . S
C101 C102 1.332 . S
C102 H82 0.931 . S
C102 C101 1.332 . S
C102 C103 1.267 . S
C103 H71 0.929 1_554 S
C103 C102 1.267 . S
C103 C104 1.251 . S
C104 H74 0.929 1_554 S
C104 N100 1.418 . S
C104 C103 1.251 . S
C105 H72 0.930 . S
C105 C107 1.406 . S
C105 C110 1.261 . S
C106 H73 0.937 . S
C106 N108 1.325 . S
C106 C109 1.357 . S
C107 H75 0.928 . S
C107 C105 1.406 . S
C107 N108 1.261 . S
N108 Co59 2.214 . S
N108 C106 1.325 . S
N108 C107 1.261 . S
C109 H79 0.931 1_554 S
C109 C106 1.357 . S
C109 C110 1.312 . S
C110 H81 0.930 . S
C110 C105 1.261 . S
C110 C109 1.312 . S
C111 O83 1.214 . S
C111 O91 1.234 . S
C112 H84 0.929 . S
C112 C115 1.391 . S
C112 C117 1.391 . S
C113 H85 0.929 . S
C113 C114 1.390 . S
C113 N116 1.391 . S
C114 H86 0.930 1_565 S
C114 C113 1.390 . S
C114 C115 1.392 . S
C115 H87 0.929 1_565 S
C115 C112 1.391 . S
C115 C114 1.392 . S
N116 Co60 2.257 . S
N116 C113 1.391 . S
N116 C117 1.388 . S
C117 H88 0.930 . S
C117 C112 1.391 . S
C117 N116 1.388 . S
Co118 O120 2.143 . S
Co118 O126 2.074 . S
Co118 O129 2.093 . S
Co118 O142 2.097 . S
Co118 N159 2.151 . S
Co118 N167 2.214 . S
Co119 O120 2.160 . S
Co119 O125 2.058 . S
Co119 O135 2.057 . S
Co119 O150 2.037 . S
Co119 N154 2.145 . S
Co119 N175 2.257 . S
O120 Co118 2.143 . S
O120 Co119 2.160 . S
C121 O122 1.278 . S
C121 O129 1.224 . S
O122 C121 1.278 . S
C123 O124 1.245 . S
C123 O135 1.232 . S
O124 C123 1.245 . S
O125 Co119 2.058 . S
O125 C151 1.269 . S
O126 Co118 2.074 . S
O126 C151 1.257 . S
H127 C152 0.930 . S
H128 C158 0.930 . S
O129 Co118 2.093 . S
O129 C121 1.224 . S
H130 C162 0.929 . S
H131 C164 0.930 . S
H132 C165 0.930 . S
H133 C163 0.929 . S
H134 C166 0.928 . S
O135 Co119 2.057 . S
O135 C123 1.232 . S
H136 C155 0.929 . S
H137 C156 0.929 . S
H138 C168 0.931 . S
H139 C160 0.929 . S
H140 C169 0.930 . S
H141 C161 0.931 . S
O142 Co118 2.097 . S
O142 C170 1.214 . S
H143 C171 0.929 . S
H144 C172 0.929 . S
H145 C173 0.930 1_545 S
H146 C174 0.929 1_545 S
H147 C176 0.930 . S
H148 C153 0.930 . S
H149 C157 0.930 . S
O150 Co119 2.037 . S
O150 C170 1.234 . S
C151 O125 1.269 . S
C151 O126 1.257 . S
C152 H127 0.930 . S
C152 C155 1.388 . S
C152 C157 1.418 1_565 S
C153 H148 0.930 . S
C153 C156 1.404 1_545 S
C153 C157 1.353 . S
N154 Co119 2.145 . S
N154 C155 1.397 . S
N154 C156 1.334 . S
C155 H136 0.929 . S
C155 C152 1.388 . S
C155 N154 1.397 . S
C156 H137 0.929 . S
C156 C153 1.404 1_565 S
C156 N154 1.334 . S
C157 H149 0.930 . S
C157 C152 1.418 1_545 S
C157 C153 1.353 . S
C158 H128 0.930 . S
C158 N159 1.330 . S
C158 C160 1.446 . S
N159 Co118 2.151 . S
N159 C158 1.330 . S
N159 C163 1.418 . S
C160 H139 0.929 . S
C160 C158 1.446 . S
C160 C161 1.332 . S
C161 H141 0.931 . S
C161 C160 1.332 . S
C161 C162 1.267 . S
C162 H130 0.929 . S
C162 C161 1.267 . S
C162 C163 1.251 . S
C163 H133 0.929 . S
C163 N159 1.418 . S
C163 C162 1.251 . S
C164 H131 0.930 . S
C164 C166 1.406 . S
C164 C169 1.261 . S
C165 H132 0.930 . S
C165 N167 1.325 . S
C165 C168 1.357 . S
C166 H134 0.928 . S
C166 C164 1.406 . S
C166 N167 1.261 . S
N167 Co118 2.214 . S
N167 C165 1.325 . S
N167 C166 1.261 . S
C168 H138 0.931 . S
C168 C165 1.357 . S
C168 C169 1.312 . S
C169 H140 0.930 . S
C169 C164 1.261 . S
C169 C168 1.312 . S
C170 O142 1.214 . S
C170 O150 1.234 . S
C171 H143 0.929 . S
C171 C174 1.391 . S
C171 C176 1.391 . S
C172 H144 0.929 . S
C172 C173 1.390 . S
C172 N175 1.391 . S
C173 H145 0.930 1_565 S
C173 C172 1.390 . S
C173 C174 1.392 . S
C174 H146 0.929 1_565 S
C174 C171 1.391 . S
C174 C173 1.392 . S
N175 Co119 2.257 . S
N175 C172 1.391 . S
N175 C176 1.388 . S
C176 H147 0.930 . S
C176 C171 1.391 . S
C176 N175 1.388 . S
Co177 O179 2.143 . S
Co177 O185 2.074 . S
Co177 O188 2.093 . S
Co177 O201 2.097 . S
Co177 N218 2.151 . S
Co177 N226 2.214 . S
Co178 O179 2.160 . S
Co178 O184 2.058 . S
Co178 O194 2.057 . S
Co178 O209 2.037 . S
Co178 N213 2.145 . S
Co178 N234 2.257 . S
O179 Co177 2.143 . S
O179 Co178 2.160 . S
C180 O181 1.278 . S
C180 O188 1.224 . S
O181 C180 1.278 . S
C182 O183 1.245 . S
C182 O194 1.232 . S
O183 C182 1.245 . S
O184 Co178 2.058 . S
O184 C210 1.269 . S
O185 Co177 2.074 . S
O185 C210 1.257 . S
H186 C211 0.930 . S
H187 C217 0.930 . S
O188 Co177 2.093 . S
O188 C180 1.224 . S
H189 C221 0.929 . S
H190 C223 0.930 . S
H191 C224 0.930 . S
H192 C222 0.929 . S
H193 C225 0.928 . S
O194 Co178 2.057 . S
O194 C182 1.232 . S
H195 C214 0.929 . S
H196 C215 0.929 . S
H197 C227 0.931 . S
H198 C219 0.929 . S
H199 C228 0.930 . S
H200 C220 0.931 . S
O201 Co177 2.097 . S
O201 C229 1.214 . S
H202 C230 0.929 . S
H203 C231 0.929 . S
H204 C232 0.930 1_565 S
H205 C233 0.929 1_565 S
H206 C235 0.930 . S
H207 C212 0.930 . S
H208 C216 0.930 . S
O209 Co178 2.037 . S
O209 C229 1.234 . S
C210 O184 1.269 . S
C210 O185 1.257 . S
C211 H186 0.930 . S
C211 C214 1.388 . S
C211 C216 1.418 1_545 S
C212 H207 0.930 . S
C212 C215 1.404 1_565 S
C212 C216 1.353 . S
N213 Co178 2.145 . S
N213 C214 1.397 . S
N213 C215 1.334 . S
C214 H195 0.929 . S
C214 C211 1.388 . S
C214 N213 1.397 . S
C215 H196 0.929 . S
C215 C212 1.404 1_545 S
C215 N213 1.334 . S
C216 H208 0.930 . S
C216 C211 1.418 1_565 S
C216 C212 1.353 . S
C217 H187 0.930 . S
C217 N218 1.330 . S
C217 C219 1.446 . S
N218 Co177 2.151 . S
N218 C217 1.330 . S
N218 C222 1.418 . S
C219 H198 0.929 . S
C219 C217 1.446 . S
C219 C220 1.332 . S
C220 H200 0.931 . S
C220 C219 1.332 . S
C220 C221 1.267 . S
C221 H189 0.929 . S
C221 C220 1.267 . S
C221 C222 1.251 . S
C222 H192 0.929 . S
C222 N218 1.418 . S
C222 C221 1.251 . S
C223 H190 0.930 . S
C223 C225 1.406 . S
C223 C228 1.261 . S
C224 H191 0.930 . S
C224 N226 1.325 . S
C224 C227 1.357 . S
C225 H193 0.928 . S
C225 C223 1.406 . S
C225 N226 1.261 . S
N226 Co177 2.214 . S
N226 C224 1.325 . S
N226 C225 1.261 . S
C227 H197 0.931 . S
C227 C224 1.357 . S
C227 C228 1.312 . S
C228 H199 0.930 . S
C228 C223 1.261 . S
C228 C227 1.312 . S
C229 O201 1.214 . S
C229 O209 1.234 . S
C230 H202 0.929 . S
C230 C233 1.391 . S
C230 C235 1.391 . S
C231 H203 0.929 . S
C231 C232 1.390 . S
C231 N234 1.391 . S
C232 H204 0.930 1_545 S
C232 C231 1.390 . S
C232 C233 1.392 . S
C233 H205 0.929 1_545 S
C233 C230 1.391 . S
C233 C232 1.392 . S
N234 Co178 2.257 . S
N234 C231 1.391 . S
N234 C235 1.388 . S
C235 H206 0.930 . S
C235 C230 1.391 . S
C235 N234 1.388 . S
Co236 O238 2.143 . S
Co236 O244 2.074 1_554 S
Co236 O247 2.093 . S
Co236 O260 2.097 . S
Co236 N277 2.151 1_565 S
Co236 N285 2.214 1_565 S
Co237 O238 2.160 . S
Co237 O243 2.058 1_554 S
Co237 O253 2.057 . S
Co237 O268 2.037 . S
Co237 N272 2.145 1_554 S
Co237 N293 2.257 . S
O238 Co236 2.143 . S
O238 Co237 2.160 . S
C239 O240 1.278 . S
C239 O247 1.224 . S
O240 C239 1.278 . S
C241 O242 1.245 . S
C241 O253 1.232 . S
O242 C241 1.245 . S
O243 Co237 2.058 1_556 S
O243 C269 1.269 . S
O244 Co236 2.074 1_556 S
O244 C269 1.257 . S
H245 C270 0.930 . S
H246 C276 0.930 1_565 S
O247 Co236 2.093 . S
O247 C239 1.224 . S
H248 C280 0.929 1_556 S
H249 C282 0.930 . S
H250 C283 0.937 1_565 S
H251 C281 0.929 1_556 S
H252 C284 0.928 . S
O253 Co237 2.057 . S
O253 C241 1.232 . S
H254 C273 0.929 . S
H255 C274 0.929 . S
H256 C286 0.931 1_556 S
H257 C278 0.929 . S
H258 C287 0.930 . S
H259 C279 0.931 . S
O260 Co236 2.097 . S
O260 C288 1.214 . S
H261 C289 0.929 . S
H262 C290 0.929 . S
H263 C291 0.930 . S
H264 C292 0.929 . S
H265 C294 0.930 . S
H266 C271 0.930 . S
H267 C275 0.930 . S
O268 Co237 2.037 . S
O268 C288 1.234 . S
C269 O243 1.269 . S
C269 O244 1.257 . S
C270 H245 0.930 . S
C270 C273 1.388 . S
C270 C275 1.418 . S
C271 H266 0.930 . S
C271 C274 1.404 . S
C271 C275 1.353 . S
N272 Co237 2.145 1_556 S
N272 C273 1.397 . S
N272 C274 1.334 . S
C273 H254 0.929 . S
C273 C270 1.388 . S
C273 N272 1.397 . S
C274 H255 0.929 . S
C274 C271 1.404 . S
C274 N272 1.334 . S
C275 H267 0.930 . S
C275 C270 1.418 . S
C275 C271 1.353 . S
C276 H246 0.930 1_545 S
C276 N277 1.330 . S
C276 C278 1.446 . S
N277 Co236 2.151 1_545 S
N277 C276 1.330 . S
N277 C281 1.418 . S
C278 H257 0.929 . S
C278 C276 1.446 . S
C278 C279 1.332 . S
C279 H259 0.931 . S
C279 C278 1.332 . S
C279 C280 1.267 . S
C280 H248 0.929 1_554 S
C280 C279 1.267 . S
C280 C281 1.251 . S
C281 H251 0.929 1_554 S
C281 N277 1.418 . S
C281 C280 1.251 . S
C282 H249 0.930 . S
C282 C284 1.406 . S
C282 C287 1.261 . S
C283 H250 0.937 1_545 S
C283 N285 1.325 . S
C283 C286 1.357 . S
C284 H252 0.928 . S
C284 C282 1.406 . S
C284 N285 1.261 . S
N285 Co236 2.214 1_545 S
N285 C283 1.325 . S
N285 C284 1.261 . S
C286 H256 0.931 1_554 S
C286 C283 1.357 . S
C286 C287 1.312 . S
C287 H258 0.930 . S
C287 C282 1.261 . S
C287 C286 1.312 . S
C288 O260 1.214 . S
C288 O268 1.234 . S
C289 H261 0.929 . S
C289 C292 1.391 . S
C289 C294 1.391 . S
C290 H262 0.929 . S
C290 C291 1.390 . S
C290 N293 1.391 . S
C291 H263 0.930 . S
C291 C290 1.390 . S
C291 C292 1.392 . S
C292 H264 0.929 . S
C292 C289 1.391 . S
C292 C291 1.392 . S
N293 Co237 2.257 . S
N293 C290 1.391 . S
N293 C294 1.388 . S
C294 H265 0.930 . S
C294 C289 1.391 . S
C294 N293 1.388 . S
Co295 O297 2.143 . S
Co295 O303 2.074 1_554 S
Co295 O306 2.093 . S
Co295 O319 2.097 . S
Co295 N336 2.151 1_545 S
Co295 N344 2.214 1_545 S
Co296 O297 2.160 . S
Co296 O302 2.058 1_554 S
Co296 O312 2.057 . S
Co296 O327 2.037 . S
Co296 N331 2.145 1_554 S
Co296 N352 2.257 . S
O297 Co295 2.143 . S
O297 Co296 2.160 . S
C298 O299 1.278 . S
C298 O306 1.224 . S
O299 C298 1.278 . S
C300 O301 1.245 . S
C300 O312 1.232 . S
O301 C300 1.245 . S
O302 Co296 2.058 1_556 S
O302 C328 1.269 . S
O303 Co295 2.074 1_556 S
O303 C328 1.257 . S
H304 C329 0.930 . S
H305 C335 0.930 1_545 S
O306 Co295 2.093 . S
O306 C298 1.224 . S
H307 C339 0.929 1_556 S
H308 C341 0.930 . S
H309 C342 0.937 1_545 S
H310 C340 0.929 1_556 S
H311 C343 0.928 . S
O312 Co296 2.057 . S
O312 C300 1.232 . S
H313 C332 0.929 . S
H314 C333 0.929 . S
H315 C345 0.931 1_556 S
H316 C337 0.929 . S
H317 C346 0.930 . S
H318 C338 0.931 . S
O319 Co295 2.097 . S
O319 C347 1.214 . S
H320 C348 0.929 . S
H321 C349 0.929 . S
H322 C350 0.930 . S
H323 C351 0.929 . S
H324 C353 0.930 . S
H325 C330 0.930 . S
H326 C334 0.930 . S
O327 Co296 2.037 . S
O327 C347 1.234 . S
C328 O302 1.269 . S
C328 O303 1.257 . S
C329 H304 0.930 . S
C329 C332 1.388 . S
C329 C334 1.418 . S
C330 H325 0.930 . S
C330 C333 1.404 . S
C330 C334 1.353 . S
N331 Co296 2.145 1_556 S
N331 C332 1.397 . S
N331 C333 1.334 . S
C332 H313 0.929 . S
C332 C329 1.388 . S
C332 N331 1.397 . S
C333 H314 0.929 . S
C333 C330 1.404 . S
C333 N331 1.334 . S
C334 H326 0.930 . S
C334 C329 1.418 . S
C334 C330 1.353 . S
C335 H305 0.930 1_565 S
C335 N336 1.330 . S
C335 C337 1.446 . S
N336 Co295 2.151 1_565 S
N336 C335 1.330 . S
N336 C340 1.418 . S
C337 H316 0.929 . S
C337 C335 1.446 . S
C337 C338 1.332 . S
C338 H318 0.931 . S
C338 C337 1.332 . S
C338 C339 1.267 . S
C339 H307 0.929 1_554 S
C339 C338 1.267 . S
C339 C340 1.251 . S
C340 H310 0.929 1_554 S
C340 N336 1.418 . S
C340 C339 1.251 . S
C341 H308 0.930 . S
C341 C343 1.406 . S
C341 C346 1.261 . S
C342 H309 0.937 1_565 S
C342 N344 1.325 . S
C342 C345 1.357 . S
C343 H311 0.928 . S
C343 C341 1.406 . S
C343 N344 1.261 . S
N344 Co295 2.214 1_565 S
N344 C342 1.325 . S
N344 C343 1.261 . S
C345 H315 0.931 1_554 S
C345 C342 1.357 . S
C345 C346 1.312 . S
C346 H317 0.930 . S
C346 C341 1.261 . S
C346 C345 1.312 . S
C347 O319 1.214 . S
C347 O327 1.234 . S
C348 H320 0.929 . S
C348 C351 1.391 . S
C348 C353 1.391 . S
C349 H321 0.929 . S
C349 C350 1.390 . S
C349 N352 1.391 . S
C350 H322 0.930 . S
C350 C349 1.390 . S
C350 C351 1.392 . S
C351 H323 0.929 . S
C351 C348 1.391 . S
C351 C350 1.392 . S
N352 Co296 2.257 . S
N352 C349 1.391 . S
N352 C353 1.388 . S
C353 H324 0.930 . S
C353 C348 1.391 . S
C353 N352 1.388 . S
Co354 O356 2.143 . S
Co354 O362 2.074 . S
Co354 O365 2.093 . S
Co354 O378 2.097 . S
Co354 N395 2.151 1_545 S
Co354 N403 2.214 1_545 S
Co355 O356 2.160 . S
Co355 O361 2.058 . S
Co355 O371 2.057 . S
Co355 O386 2.037 . S
Co355 N390 2.145 . S
Co355 N411 2.257 . S
O356 Co354 2.143 . S
O356 Co355 2.160 . S
C357 O358 1.278 . S
C357 O365 1.224 . S
O358 C357 1.278 . S
C359 O360 1.245 . S
C359 O371 1.232 . S
O360 C359 1.245 . S
O361 Co355 2.058 . S
O361 C387 1.269 . S
O362 Co354 2.074 . S
O362 C387 1.257 . S
H363 C388 0.930 . S
H364 C394 0.930 1_545 S
O365 Co354 2.093 . S
O365 C357 1.224 . S
H366 C398 0.929 . S
H367 C400 0.930 . S
H368 C401 0.930 1_545 S
H369 C399 0.929 . S
H370 C402 0.928 . S
O371 Co355 2.057 . S
O371 C359 1.232 . S
H372 C391 0.929 . S
H373 C392 0.929 . S
H374 C404 0.931 . S
H375 C396 0.929 . S
H376 C405 0.930 . S
H377 C397 0.931 . S
O378 Co354 2.097 . S
O378 C406 1.214 . S
H379 C407 0.929 . S
H380 C408 0.929 . S
H381 C409 0.930 . S
H382 C410 0.929 . S
H383 C412 0.930 . S
H384 C389 0.930 . S
H385 C393 0.930 . S
O386 Co355 2.037 . S
O386 C406 1.234 . S
C387 O361 1.269 . S
C387 O362 1.257 . S
C388 H363 0.930 . S
C388 C391 1.388 . S
C388 C393 1.418 . S
C389 H384 0.930 . S
C389 C392 1.404 . S
C389 C393 1.353 . S
N390 Co355 2.145 . S
N390 C391 1.397 . S
N390 C392 1.334 . S
C391 H372 0.929 . S
C391 C388 1.388 . S
C391 N390 1.397 . S
C392 H373 0.929 . S
C392 C389 1.404 . S
C392 N390 1.334 . S
C393 H385 0.930 . S
C393 C388 1.418 . S
C393 C389 1.353 . S
C394 H364 0.930 1_565 S
C394 N395 1.330 . S
C394 C396 1.446 . S
N395 Co354 2.151 1_565 S
N395 C394 1.330 . S
N395 C399 1.418 . S
C396 H375 0.929 . S
C396 C394 1.446 . S
C396 C397 1.332 . S
C397 H377 0.931 . S
C397 C396 1.332 . S
C397 C398 1.267 . S
C398 H366 0.929 . S
C398 C397 1.267 . S
C398 C399 1.251 . S
C399 H369 0.929 . S
C399 N395 1.418 . S
C399 C398 1.251 . S
C400 H367 0.930 . S
C400 C402 1.406 . S
C400 C405 1.261 . S
C401 H368 0.930 1_565 S
C401 N403 1.325 . S
C401 C404 1.357 . S
C402 H370 0.928 . S
C402 C400 1.406 . S
C402 N403 1.261 . S
N403 Co354 2.214 1_565 S
N403 C401 1.325 . S
N403 C402 1.261 . S
C404 H374 0.931 . S
C404 C401 1.357 . S
C404 C405 1.312 . S
C405 H376 0.930 . S
C405 C400 1.261 . S
C405 C404 1.312 . S
C406 O378 1.214 . S
C406 O386 1.234 . S
C407 H379 0.929 . S
C407 C410 1.391 . S
C407 C412 1.391 . S
C408 H380 0.929 . S
C408 C409 1.390 . S
C408 N411 1.391 . S
C409 H381 0.930 . S
C409 C408 1.390 . S
C409 C410 1.392 . S
C410 H382 0.929 . S
C410 C407 1.391 . S
C410 C409 1.392 . S
N411 Co355 2.257 . S
N411 C408 1.391 . S
N411 C412 1.388 . S
C412 H383 0.930 . S
C412 C407 1.391 . S
C412 N411 1.388 . S
Co413 O415 2.143 . S
Co413 O421 2.074 . S
Co413 O424 2.093 . S
Co413 O437 2.097 . S
Co413 N454 2.151 1_565 S
Co413 N462 2.214 1_565 S
Co414 O415 2.160 . S
Co414 O420 2.058 . S
Co414 O430 2.057 . S
Co414 O445 2.037 . S
Co414 N449 2.145 . S
Co414 N470 2.257 . S
O415 Co413 2.143 . S
O415 Co414 2.160 . S
C416 O417 1.278 . S
C416 O424 1.224 . S
O417 C416 1.278 . S
C418 O419 1.245 . S
C418 O430 1.232 . S
O419 C418 1.245 . S
O420 Co414 2.058 . S
O420 C446 1.269 . S
O421 Co413 2.074 . S
O421 C446 1.257 . S
H422 C447 0.930 . S
H423 C453 0.930 1_565 S
O424 Co413 2.093 . S
O424 C416 1.224 . S
H425 C457 0.929 . S
H426 C459 0.930 . S
H427 C460 0.930 1_565 S
H428 C458 0.929 . S
H429 C461 0.928 . S
O430 Co414 2.057 . S
O430 C418 1.232 . S
H431 C450 0.929 . S
H432 C451 0.929 . S
H433 C463 0.931 . S
H434 C455 0.929 . S
H435 C464 0.930 . S
H436 C456 0.931 . S
O437 Co413 2.097 . S
O437 C465 1.214 . S
H438 C466 0.929 . S
H439 C467 0.929 . S
H440 C468 0.930 . S
H441 C469 0.929 . S
H442 C471 0.930 . S
H443 C448 0.930 . S
H444 C452 0.930 . S
O445 Co414 2.037 . S
O445 C465 1.234 . S
C446 O420 1.269 . S
C446 O421 1.257 . S
C447 H422 0.930 . S
C447 C450 1.388 . S
C447 C452 1.418 . S
C448 H443 0.930 . S
C448 C451 1.404 . S
C448 C452 1.353 . S
N449 Co414 2.145 . S
N449 C450 1.397 . S
N449 C451 1.334 . S
C450 H431 0.929 . S
C450 C447 1.388 . S
C450 N449 1.397 . S
C451 H432 0.929 . S
C451 C448 1.404 . S
C451 N449 1.334 . S
C452 H444 0.930 . S
C452 C447 1.418 . S
C452 C448 1.353 . S
C453 H423 0.930 1_545 S
C453 N454 1.330 . S
C453 C455 1.446 . S
N454 Co413 2.151 1_545 S
N454 C453 1.330 . S
N454 C458 1.418 . S
C455 H434 0.929 . S
C455 C453 1.446 . S
C455 C456 1.332 . S
C456 H436 0.931 . S
C456 C455 1.332 . S
C456 C457 1.267 . S
C457 H425 0.929 . S
C457 C456 1.267 . S
C457 C458 1.251 . S
C458 H428 0.929 . S
C458 N454 1.418 . S
C458 C457 1.251 . S
C459 H426 0.930 . S
C459 C461 1.406 . S
C459 C464 1.261 . S
C460 H427 0.930 1_545 S
C460 N462 1.325 . S
C460 C463 1.357 . S
C461 H429 0.928 . S
C461 C459 1.406 . S
C461 N462 1.261 . S
N462 Co413 2.214 1_545 S
N462 C460 1.325 . S
N462 C461 1.261 . S
C463 H433 0.931 . S
C463 C460 1.357 . S
C463 C464 1.312 . S
C464 H435 0.930 . S
C464 C459 1.261 . S
C464 C463 1.312 . S
C465 O437 1.214 . S
C465 O445 1.234 . S
C466 H438 0.929 . S
C466 C469 1.391 . S
C466 C471 1.391 . S
C467 H439 0.929 . S
C467 C468 1.390 . S
C467 N470 1.391 . S
C468 H440 0.930 . S
C468 C467 1.390 . S
C468 C469 1.392 . S
C469 H441 0.929 . S
C469 C466 1.391 . S
C469 C468 1.392 . S
N470 Co414 2.257 . S
N470 C467 1.391 . S
N470 C471 1.388 . S
C471 H442 0.930 . S
C471 C466 1.391 . S
C471 N470 1.388 . S
H472 C480 0.950 1_556 S
H473 C485 0.950 . S
H474 C482 0.950 1_556 S
H475 C484 0.950 . S
H476 C486 0.950 . S
H477 C488 0.950 . S
H478 C490 0.950 1_556 S
H479 C491 0.950 1_556 S
C480 H472 0.950 1_554 S
C480 C481 1.386 . S
C480 C482 1.391 . S
C481 C480 1.386 . S
C481 C485 1.393 . S
C482 H474 0.950 1_554 S
C482 C480 1.391 . S
C482 C483 1.400 . S
C483 C482 1.400 . S
C483 C484 1.398 . S
C483 C489 1.491 . S
C484 H475 0.950 . S
C484 C483 1.398 . S
C484 C485 1.391 . S
C485 H473 0.950 . S
C485 C481 1.393 . S
C485 C484 1.391 . S
C486 H476 0.950 . S
C486 C487 1.386 . S
C486 C488 1.391 . S
C487 C486 1.386 . S
C487 C491 1.393 . S
C488 H477 0.950 . S
C488 C486 1.391 . S
C488 C489 1.400 . S
C489 C483 1.491 . S
C489 C488 1.400 . S
C489 C490 1.398 . S
C490 H478 0.950 1_554 S
C490 C489 1.398 . S
C490 C491 1.391 . S
C491 H479 0.950 1_554 S
C491 C487 1.393 . S
C491 C490 1.391 . S
H492 C500 0.950 . S
H493 C505 0.950 . S
H494 C502 0.950 . S
H495 C504 0.950 . S
H496 C506 0.950 . S
H497 C508 0.950 . S
H498 C510 0.950 . S
H499 C511 0.950 . S
C500 H492 0.950 . S
C500 C501 1.386 . S
C500 C502 1.391 . S
C501 C500 1.386 . S
C501 C505 1.393 . S
C502 H494 0.950 . S
C502 C500 1.391 . S
C502 C503 1.400 . S
C503 C502 1.400 . S
C503 C504 1.398 . S
C503 C509 1.491 . S
C504 H495 0.950 . S
C504 C503 1.398 . S
C504 C505 1.391 . S
C505 H493 0.950 . S
C505 C501 1.393 . S
C505 C504 1.391 . S
C506 H496 0.950 . S
C506 C507 1.386 . S
C506 C508 1.391 . S
C507 C506 1.386 . S
C507 C511 1.393 . S
C508 H497 0.950 . S
C508 C506 1.391 . S
C508 C509 1.400 . S
C509 C503 1.491 . S
C509 C508 1.400 . S
C509 C510 1.398 . S
C510 H498 0.950 . S
C510 C509 1.398 . S
C510 C511 1.391 . S
C511 H499 0.950 . S
C511 C507 1.393 . S
C511 C510 1.391 . S
H512 C520 0.950 . S
H513 C525 0.950 . S
H514 C522 0.950 . S
H515 C524 0.950 . S
H516 C526 0.950 . S
H517 C528 0.950 . S
H518 C530 0.950 . S
H519 C531 0.950 . S
C520 H512 0.950 . S
C520 C521 1.386 . S
C520 C522 1.391 . S
C521 C520 1.386 . S
C521 C525 1.393 . S
C522 H514 0.950 . S
C522 C520 1.391 . S
C522 C523 1.400 . S
C523 C522 1.400 . S
C523 C524 1.398 . S
C523 C529 1.491 . S
C524 H515 0.950 . S
C524 C523 1.398 . S
C524 C525 1.391 . S
C525 H513 0.950 . S
C525 C521 1.393 . S
C525 C524 1.391 . S
C526 H516 0.950 . S
C526 C527 1.386 . S
C526 C528 1.391 . S
C527 C526 1.386 . S
C527 C531 1.393 . S
C528 H517 0.950 . S
C528 C526 1.391 . S
C528 C529 1.400 . S
C529 C523 1.491 . S
C529 C528 1.400 . S
C529 C530 1.398 . S
C530 H518 0.950 . S
C530 C529 1.398 . S
C530 C531 1.391 . S
C531 H519 0.950 . S
C531 C527 1.393 . S
C531 C530 1.391 . S
H532 C540 0.950 . S
H533 C545 0.950 . S
H534 C542 0.950 . S
H535 C544 0.950 . S
H536 C546 0.950 . S
H537 C548 0.950 . S
H538 C550 0.950 . S
H539 C551 0.950 . S
C540 H532 0.950 . S
C540 C541 1.386 . S
C540 C542 1.391 . S
C541 C540 1.386 . S
C541 C545 1.393 . S
C542 H534 0.950 . S
C542 C540 1.391 . S
C542 C543 1.400 . S
C543 C542 1.400 . S
C543 C544 1.398 . S
C543 C549 1.491 . S
C544 H535 0.950 . S
C544 C543 1.398 . S
C544 C545 1.391 . S
C545 H533 0.950 . S
C545 C541 1.393 . S
C545 C544 1.391 . S
C546 H536 0.950 . S
C546 C547 1.386 . S
C546 C548 1.391 . S
C547 C546 1.386 . S
C547 C551 1.393 . S
C548 H537 0.950 . S
C548 C546 1.391 . S
C548 C549 1.400 . S
C549 C543 1.491 . S
C549 C548 1.400 . S
C549 C550 1.398 . S
C550 H538 0.950 . S
C550 C549 1.398 . S
C550 C551 1.391 . S
C551 H539 0.950 . S
C551 C547 1.393 . S
C551 C550 1.391 . S
H552 C560 0.950 . S
H553 C565 0.950 . S
H554 C562 0.950 . S
H555 C564 0.950 . S
H556 C566 0.950 . S
H557 C568 0.950 . S
H558 C570 0.950 . S
H559 C571 0.950 . S
C560 H552 0.950 . S
C560 C561 1.386 . S
C560 C562 1.391 . S
C561 C560 1.386 . S
C561 C565 1.393 . S
C562 H554 0.950 . S
C562 C560 1.391 . S
C562 C563 1.400 . S
C563 C562 1.400 . S
C563 C564 1.398 . S
C563 C569 1.491 . S
C564 H555 0.950 . S
C564 C563 1.398 . S
C564 C565 1.391 . S
C565 H553 0.950 . S
C565 C561 1.393 . S
C565 C564 1.391 . S
C566 H556 0.950 . S
C566 C567 1.386 . S
C566 C568 1.391 . S
C567 C566 1.386 . S
C567 C571 1.393 . S
C568 H557 0.950 . S
C568 C566 1.391 . S
C568 C569 1.400 . S
C569 C563 1.491 . S
C569 C568 1.400 . S
C569 C570 1.398 . S
C570 H558 0.950 . S
C570 C569 1.398 . S
C570 C571 1.391 . S
C571 H559 0.950 . S
C571 C567 1.393 . S
C571 C570 1.391 . S
H572 C580 0.950 . S
H573 C585 0.950 . S
H574 C582 0.950 . S
H575 C584 0.950 . S
H576 C586 0.950 . S
H577 C588 0.950 . S
H578 C590 0.950 . S
H579 C591 0.950 . S
C580 H572 0.950 . S
C580 C581 1.386 . S
C580 C582 1.391 . S
C581 C580 1.386 . S
C581 C585 1.393 . S
C582 H574 0.950 . S
C582 C580 1.391 . S
C582 C583 1.400 . S
C583 C582 1.400 . S
C583 C584 1.398 . S
C583 C589 1.491 . S
C584 H575 0.950 . S
C584 C583 1.398 . S
C584 C585 1.391 . S
C585 H573 0.950 . S
C585 C581 1.393 . S
C585 C584 1.391 . S
C586 H576 0.950 . S
C586 C587 1.386 . S
C586 C588 1.391 . S
C587 C586 1.386 . S
C587 C591 1.393 . S
C588 H577 0.950 . S
C588 C586 1.391 . S
C588 C589 1.400 . S
C589 C583 1.491 . S
C589 C588 1.400 . S
C589 C590 1.398 . S
C590 H578 0.950 . S
C590 C589 1.398 . S
C590 C591 1.391 . S
C591 H579 0.950 . S
C591 C587 1.393 . S
C591 C590 1.391 . S
H592 C600 0.950 . S
H593 C605 0.950 . S
H594 C602 0.950 . S
H595 C604 0.950 . S
H596 C606 0.950 . S
H597 C608 0.950 . S
H598 C610 0.950 . S
H599 C611 0.950 . S
C600 H592 0.950 . S
C600 C601 1.386 . S
C600 C602 1.391 . S
C601 C600 1.386 . S
C601 C605 1.393 . S
C602 H594 0.950 . S
C602 C600 1.391 . S
C602 C603 1.400 . S
C603 C602 1.400 . S
C603 C604 1.398 . S
C603 C609 1.491 . S
C604 H595 0.950 . S
C604 C603 1.398 . S
C604 C605 1.391 . S
C605 H593 0.950 . S
C605 C601 1.393 . S
C605 C604 1.391 . S
C606 H596 0.950 . S
C606 C607 1.386 . S
C606 C608 1.391 . S
C607 C606 1.386 . S
C607 C611 1.393 . S
C608 H597 0.950 . S
C608 C606 1.391 . S
C608 C609 1.400 . S
C609 C603 1.491 . S
C609 C608 1.400 . S
C609 C610 1.398 . S
C610 H598 0.950 . S
C610 C609 1.398 . S
C610 C611 1.391 . S
C611 H599 0.950 . S
C611 C607 1.393 . S
C611 C610 1.391 . S
H612 C620 0.950 . S
H613 C625 0.950 . S
H614 C622 0.950 . S
H615 C624 0.950 . S
H616 C626 0.950 . S
H617 C628 0.950 . S
H618 C630 0.950 . S
H619 C631 0.950 . S
C620 H612 0.950 . S
C620 C621 1.386 . S
C620 C622 1.391 . S
C621 C620 1.386 . S
C621 C625 1.393 . S
C622 H614 0.950 . S
C622 C620 1.391 . S
C622 C623 1.400 . S
C623 C622 1.400 . S
C623 C624 1.398 . S
C623 C629 1.491 . S
C624 H615 0.950 . S
C624 C623 1.398 . S
C624 C625 1.391 . S
C625 H613 0.950 . S
C625 C621 1.393 . S
C625 C624 1.391 . S
C626 H616 0.950 . S
C626 C627 1.386 . S
C626 C628 1.391 . S
C627 C626 1.386 . S
C627 C631 1.393 . S
C628 H617 0.950 . S
C628 C626 1.391 . S
C628 C629 1.400 . S
C629 C623 1.491 . S
C629 C628 1.400 . S
C629 C630 1.398 . S
C630 H618 0.950 . S
C630 C629 1.398 . S
C630 C631 1.391 . S
C631 H619 0.950 . S
C631 C627 1.393 . S
C631 C630 1.391 . S
H632 C640 0.950 . S
H633 C645 0.950 . S
H634 C642 0.950 . S
H635 C644 0.950 . S
H636 C646 0.950 . S
H637 C648 0.950 . S
H638 C650 0.950 . S
H639 C651 0.950 . S
C640 H632 0.950 . S
C640 C641 1.386 . S
C640 C642 1.391 1_565 S
C641 C640 1.386 . S
C641 C645 1.393 . S
C642 H634 0.950 . S
C642 C640 1.391 1_545 S
C642 C643 1.400 1_545 S
C643 C642 1.400 1_565 S
C643 C644 1.398 . S
C643 C649 1.491 1_565 S
C644 H635 0.950 . S
C644 C643 1.398 . S
C644 C645 1.391 . S
C645 H633 0.950 . S
C645 C641 1.393 . S
C645 C644 1.391 . S
C646 H636 0.950 . S
C646 C647 1.386 . S
C646 C648 1.391 1_545 S
C647 C646 1.386 . S
C647 C651 1.393 . S
C648 H637 0.950 . S
C648 C646 1.391 1_565 S
C648 C649 1.400 1_565 S
C649 C643 1.491 1_545 S
C649 C648 1.400 1_545 S
C649 C650 1.398 . S
C650 H638 0.950 . S
C650 C649 1.398 . S
C650 C651 1.391 . S
C651 H639 0.950 . S
C651 C647 1.393 . S
C651 C650 1.391 . S
H652 C660 0.950 . S
H653 C665 0.950 . S
H654 C662 0.950 . S
H655 C664 0.950 1_545 S
H656 C666 0.950 . S
H657 C668 0.950 . S
H658 C670 0.950 1_565 S
H659 C671 0.950 . S
C660 H652 0.950 . S
C660 C661 1.386 . S
C660 C662 1.391 . S
C661 C660 1.386 . S
C661 C665 1.393 . S
C662 H654 0.950 . S
C662 C660 1.391 . S
C662 C663 1.400 . S
C663 C662 1.400 . S
C663 C664 1.398 . S
C663 C669 1.491 1_565 S
C664 H655 0.950 1_565 S
C664 C663 1.398 . S
C664 C665 1.391 . S
C665 H653 0.950 . S
C665 C661 1.393 . S
C665 C664 1.391 . S
C666 H656 0.950 . S
C666 C667 1.386 . S
C666 C668 1.391 . S
C667 C666 1.386 . S
C667 C671 1.393 . S
C668 H657 0.950 . S
C668 C666 1.391 . S
C668 C669 1.400 . S
C669 C663 1.491 1_545 S
C669 C668 1.400 . S
C669 C670 1.398 . S
C670 H658 0.950 1_545 S
C670 C669 1.398 . S
C670 C671 1.391 . S
C671 H659 0.950 . S
C671 C667 1.393 . S
C671 C670 1.391 . S
H672 C680 0.950 . S
H673 C685 0.950 1_545 S
H674 C682 0.950 . S
H675 C684 0.950 . S
H676 C686 0.950 . S
H677 C688 0.950 . S
H678 C690 0.950 . S
H679 C691 0.950 1_565 S
C680 H672 0.950 . S
C680 C681 1.386 . S
C680 C682 1.391 . S
C681 C680 1.386 . S
C681 C685 1.393 . S
C682 H674 0.950 . S
C682 C680 1.391 . S
C682 C683 1.400 . S
C683 C682 1.400 . S
C683 C684 1.398 1_565 S
C683 C689 1.491 1_565 S
C684 H675 0.950 . S
C684 C683 1.398 1_545 S
C684 C685 1.391 1_545 S
C685 H673 0.950 1_565 S
C685 C681 1.393 . S
C685 C684 1.391 1_565 S
C686 H676 0.950 . S
C686 C687 1.386 . S
C686 C688 1.391 . S
C687 C686 1.386 . S
C687 C691 1.393 . S
C688 H677 0.950 . S
C688 C686 1.391 . S
C688 C689 1.400 . S
C689 C683 1.491 1_545 S
C689 C688 1.400 . S
C689 C690 1.398 1_545 S
C690 H678 0.950 . S
C690 C689 1.398 1_565 S
C690 C691 1.391 1_565 S
C691 H679 0.950 1_545 S
C691 C687 1.393 . S
C691 C690 1.391 1_545 S
H692 C700 0.950 . S
H693 C705 0.950 . S
H694 C702 0.950 . S
H695 C704 0.950 . S
H696 C706 0.950 . S
H697 C708 0.950 . S
H698 C710 0.950 . S
H699 C711 0.950 . S
C700 H692 0.950 . S
C700 C701 1.386 . S
C700 C702 1.391 . S
C701 C700 1.386 . S
C701 C705 1.393 . S
C702 H694 0.950 . S
C702 C700 1.391 . S
C702 C703 1.400 . S
C703 C702 1.400 . S
C703 C704 1.398 1_565 S
C703 C709 1.491 1_565 S
C704 H695 0.950 . S
C704 C703 1.398 1_545 S
C704 C705 1.391 1_545 S
C705 H693 0.950 . S
C705 C701 1.393 . S
C705 C704 1.391 1_565 S
C706 H696 0.950 . S
C706 C707 1.386 . S
C706 C708 1.391 . S
C707 C706 1.386 . S
C707 C711 1.393 . S
C708 H697 0.950 . S
C708 C706 1.391 . S
C708 C709 1.400 . S
C709 C703 1.491 1_545 S
C709 C708 1.400 . S
C709 C710 1.398 1_545 S
C710 H698 0.950 . S
C710 C709 1.398 1_565 S
C710 C711 1.391 1_565 S
C711 H699 0.950 . S
C711 C707 1.393 . S
C711 C710 1.391 1_545 S
H712 C720 0.950 . S
H713 C725 0.950 . S
H714 C722 0.950 . S
H715 C724 0.950 . S
H716 C726 0.950 . S
H717 C728 0.950 . S
H718 C730 0.950 . S
H719 C731 0.950 . S
C720 H712 0.950 . S
C720 C721 1.386 1_556 S
C720 C722 1.391 . S
C721 C720 1.386 1_554 S
C721 C725 1.393 . S
C722 H714 0.950 . S
C722 C720 1.391 . S
C722 C723 1.400 1_556 S
C723 C722 1.400 1_554 S
C723 C724 1.398 . S
C723 C729 1.491 1_565 S
C724 H715 0.950 . S
C724 C723 1.398 . S
C724 C725 1.391 . S
C725 H713 0.950 . S
C725 C721 1.393 . S
C725 C724 1.391 . S
C726 H716 0.950 . S
C726 C727 1.386 . S
C726 C728 1.391 . S
C727 C726 1.386 . S
C727 C731 1.393 1_554 S
C728 H717 0.950 . S
C728 C726 1.391 . S
C728 C729 1.400 . S
C729 C723 1.491 1_545 S
C729 C728 1.400 . S
C729 C730 1.398 1_554 S
C730 H718 0.950 . S
C730 C729 1.398 1_556 S
C730 C731 1.391 . S
C731 H719 0.950 . S
C731 C727 1.393 1_556 S
C731 C730 1.391 . S
H732 C740 0.950 . S
H733 C745 0.950 . S
H734 C742 0.950 . S
H735 C744 0.950 1_545 S
H736 C746 0.950 . S
H737 C748 0.950 . S
H738 C750 0.950 1_565 S
H739 C751 0.950 . S
C740 H732 0.950 . S
C740 C741 1.386 . S
C740 C742 1.391 . S
C741 C740 1.386 . S
C741 C745 1.393 . S
C742 H734 0.950 . S
C742 C740 1.391 . S
C742 C743 1.400 . S
C743 C742 1.400 . S
C743 C744 1.398 . S
C743 C749 1.491 1_565 S
C744 H735 0.950 1_565 S
C744 C743 1.398 . S
C744 C745 1.391 . S
C745 H733 0.950 . S
C745 C741 1.393 . S
C745 C744 1.391 . S
C746 H736 0.950 . S
C746 C747 1.386 . S
C746 C748 1.391 . S
C747 C746 1.386 . S
C747 C751 1.393 . S
C748 H737 0.950 . S
C748 C746 1.391 . S
C748 C749 1.400 . S
C749 C743 1.491 1_545 S
C749 C748 1.400 . S
C749 C750 1.398 . S
C750 H738 0.950 1_545 S
C750 C749 1.398 . S
C750 C751 1.391 . S
C751 H739 0.950 . S
C751 C747 1.393 . S
C751 C750 1.391 . S
H752 C760 0.961 . S
H753 C765 0.950 . S
H754 C762 0.950 1_655 S
H755 C764 0.950 . S
H756 C766 0.950 . S
H757 C768 0.950 1_455 S
H758 C770 0.950 . S
H759 C771 0.950 . S
C760 H752 0.961 . S
C760 C761 1.386 . S
C760 C762 1.391 . S
C761 C760 1.386 . S
C761 C765 1.393 . S
C762 H754 0.950 1_455 S
C762 C760 1.391 . S
C762 C763 1.400 . S
C763 C762 1.400 . S
C763 C764 1.398 . S
C763 C769 1.491 1_455 S
C764 H755 0.950 . S
C764 C763 1.398 . S
C764 C765 1.391 . S
C765 H753 0.950 . S
C765 C761 1.393 . S
C765 C764 1.391 . S
C766 H756 0.950 . S
C766 C767 1.386 . S
C766 C768 1.391 . S
C767 C766 1.386 . S
C767 C771 1.393 . S
C768 H757 0.950 1_655 S
C768 C766 1.391 . S
C768 C769 1.400 . S
C769 C763 1.491 1_655 S
C769 C768 1.400 . S
C769 C770 1.398 . S
C770 H758 0.950 . S
C770 C769 1.398 . S
C770 C771 1.391 . S
C771 H759 0.950 . S
C771 C767 1.393 . S
C771 C770 1.391 . S
H772 C780 0.950 . S
H773 C785 0.950 . S
H774 C782 0.944 1_655 S
H775 C784 0.950 . S
H776 C786 0.950 . S
H777 C788 0.944 1_455 S
H778 C790 0.950 . S
H779 C791 0.950 . S
C780 H772 0.950 . S
C780 C781 1.386 . S
C780 C782 1.391 . S
C781 C780 1.386 . S
C781 C785 1.393 . S
C782 H774 0.944 1_455 S
C782 C780 1.391 . S
C782 C783 1.400 . S
C783 C782 1.400 . S
C783 C784 1.398 . S
C783 C789 1.491 1_455 S
C784 H775 0.950 . S
C784 C783 1.398 . S
C784 C785 1.391 . S
C785 H773 0.950 . S
C785 C781 1.393 . S
C785 C784 1.391 . S
C786 H776 0.950 . S
C786 C787 1.386 . S
C786 C788 1.391 . S
C787 C786 1.386 . S
C787 C791 1.393 . S
C788 H777 0.944 1_655 S
C788 C786 1.391 . S
C788 C789 1.400 . S
C789 C783 1.491 1_655 S
C789 C788 1.400 . S
C789 C790 1.398 . S
C790 H778 0.950 . S
C790 C789 1.398 . S
C790 C791 1.391 . S
C791 H779 0.950 . S
C791 C787 1.393 . S
C791 C790 1.391 . S
C481 C347 1.516 . S
C487 C52 1.511 . S
C501 C288 1.516 . S
C507 C111 1.510 . S
C521 C465 1.509 . S
C527 C170 1.516 . S
C541 C406 1.510 . S
C547 C229 1.516 . S
C561 C3 1.497 . S
C567 C121 1.497 . S
C581 C62 1.494 . S
C587 C180 1.500 . S
C601 C92 1.513 . S
C607 C210 1.513 . S
C621 C33 1.513 . S
C627 C151 1.513 . S
C641 C239 1.499 . S
C647 C357 1.494 . S
C661 C416 1.493 . S
C667 C298 1.499 . S
C681 C446 1.513 . S
C687 C328 1.513 . S
C701 C269 1.513 . S
C707 C387 1.513 . S
C721 C64 1.508 . S
C727 C5 1.508 . S
C741 C123 1.508 . S
C747 C182 1.508 . S
C761 C241 1.507 . S
C767 C300 1.508 . S
C781 C359 1.508 . S
C787 C418 1.508 . S
