# Generated by pormake.
# Topology pcl, (4)-cn, num edge types: 1
# Building blocks:
#     Node 0, Type 0, BuildingBlock: KUFVIS_clean_sbu_0, # of connection points: 4
#     Node 1, Type 0, BuildingBlock: KUFVIS_clean_sbu_0, # of connection points: 4
#     Node 2, Type 0, BuildingBlock: KUFVIS_clean_sbu_0, # of connection points: 4
#     Node 3, Type 0, BuildingBlock: KUFVIS_clean_sbu_0, # of connection points: 4
#     Node 4, Type 0, BuildingBlock: KUFVIS_clean_sbu_0, # of connection points: 4
#     Node 5, Type 0, BuildingBlock: KUFVIS_clean_sbu_0, # of connection points: 4
#     Node 6, Type 0, BuildingBlock: KUFVIS_clean_sbu_0, # of connection points: 4
#     Node 7, Type 0, BuildingBlock: KUFVIS_clean_sbu_0, # of connection points: 4
#     Node 8, Type 0, BuildingBlock: KUFVIS_clean_sbu_0, # of connection points: 4
#     Node 9, Type 0, BuildingBlock: KUFVIS_clean_sbu_0, # of connection points: 4
#     Node 10, Type 0, BuildingBlock: KUFVIS_clean_sbu_0, # of connection points: 4
#     Node 11, Type 0, BuildingBlock: KUFVIS_clean_sbu_0, # of connection points: 4
#     Node 12, Type 0, BuildingBlock: KUFVIS_clean_sbu_0, # of connection points: 4
#     Node 13, Type 0, BuildingBlock: KUFVIS_clean_sbu_0, # of connection points: 4
#     Node 14, Type 0, BuildingBlock: KUFVIS_clean_sbu_0, # of connection points: 4
#     Node 15, Type 0, BuildingBlock: KUFVIS_clean_sbu_0, # of connection points: 4
#     Edge 16, Type (0, 0), BuildingBlock: KIFKEQ_clean_linker_1, # of connection points: 2
#     Edge 17, Type (0, 0), BuildingBlock: KIFKEQ_clean_linker_1, # of connection points: 2
#     Edge 18, Type (0, 0), BuildingBlock: KIFKEQ_clean_linker_1, # of connection points: 2
#     Edge 19, Type (0, 0), BuildingBlock: KIFKEQ_clean_linker_1, # of connection points: 2
#     Edge 20, Type (0, 0), BuildingBlock: KIFKEQ_clean_linker_1, # of connection points: 2
#     Edge 21, Type (0, 0), BuildingBlock: KIFKEQ_clean_linker_1, # of connection points: 2
#     Edge 22, Type (0, 0), BuildingBlock: KIFKEQ_clean_linker_1, # of connection points: 2
#     Edge 23, Type (0, 0), BuildingBlock: KIFKEQ_clean_linker_1, # of connection points: 2
#     Edge 24, Type (0, 0), BuildingBlock: KIFKEQ_clean_linker_1, # of connection points: 2
#     Edge 25, Type (0, 0), BuildingBlock: KIFKEQ_clean_linker_1, # of connection points: 2
#     Edge 26, Type (0, 0), BuildingBlock: KIFKEQ_clean_linker_1, # of connection points: 2
#     Edge 27, Type (0, 0), BuildingBlock: KIFKEQ_clean_linker_1, # of connection points: 2
#     Edge 28, Type (0, 0), BuildingBlock: KIFKEQ_clean_linker_1, # of connection points: 2
#     Edge 29, Type (0, 0), BuildingBlock: KIFKEQ_clean_linker_1, # of connection points: 2
#     Edge 30, Type (0, 0), BuildingBlock: KIFKEQ_clean_linker_1, # of connection points: 2
#     Edge 31, Type (0, 0), BuildingBlock: KIFKEQ_clean_linker_1, # of connection points: 2
#     Edge 32, Type (0, 0), BuildingBlock: KIFKEQ_clean_linker_1, # of connection points: 2
#     Edge 33, Type (0, 0), BuildingBlock: KIFKEQ_clean_linker_1, # of connection points: 2
#     Edge 34, Type (0, 0), BuildingBlock: KIFKEQ_clean_linker_1, # of connection points: 2
#     Edge 35, Type (0, 0), BuildingBlock: KIFKEQ_clean_linker_1, # of connection points: 2
#     Edge 36, Type (0, 0), BuildingBlock: KIFKEQ_clean_linker_1, # of connection points: 2
#     Edge 37, Type (0, 0), BuildingBlock: KIFKEQ_clean_linker_1, # of connection points: 2
#     Edge 38, Type (0, 0), BuildingBlock: KIFKEQ_clean_linker_1, # of connection points: 2
#     Edge 39, Type (0, 0), BuildingBlock: KIFKEQ_clean_linker_1, # of connection points: 2
#     Edge 40, Type (0, 0), BuildingBlock: KIFKEQ_clean_linker_1, # of connection points: 2
#     Edge 41, Type (0, 0), BuildingBlock: KIFKEQ_clean_linker_1, # of connection points: 2
#     Edge 42, Type (0, 0), BuildingBlock: KIFKEQ_clean_linker_1, # of connection points: 2
#     Edge 43, Type (0, 0), BuildingBlock: KIFKEQ_clean_linker_1, # of connection points: 2
#     Edge 44, Type (0, 0), BuildingBlock: KIFKEQ_clean_linker_1, # of connection points: 2
#     Edge 45, Type (0, 0), BuildingBlock: KIFKEQ_clean_linker_1, # of connection points: 2
#     Edge 46, Type (0, 0), BuildingBlock: KIFKEQ_clean_linker_1, # of connection points: 2
#     Edge 47, Type (0, 0), BuildingBlock: KIFKEQ_clean_linker_1, # of connection points: 2
# Relax obj value: 0.079
# Max RMSD: 0.060
# Mean RMSD: 0.059
data_MOF--net-pcl--node1-KUFVIS_clean_sbu_0--edge1-KIFKEQ_clean_linker_1
_symmetry_space_group_name_H-M    P1
_symmetry_Int_Tables_number       1
_symmetry_cell_setting            triclinic
loop_
_symmetry_equiv_pos_as_xyz
'x, y, z'
_cell_length_a     52.96314
_cell_length_b     43.084795
_cell_length_c     42.807392
_cell_angle_alpha  89.957217
_cell_angle_beta   90.062507
_cell_angle_gamma 89.948704
loop_
_atom_site_label
_atom_site_type_symbol
_atom_site_fract_x
_atom_site_fract_y
_atom_site_fract_z
_atom_type_partial_charge
Mn0 Mn 0.15772 0.34353 0.07968 0.0
Mn1 Mn 0.21252 0.36783 0.11182 0.0
C2 C 0.16886 0.32815 0.12981 0.0
C3 C 0.11419 0.35091 0.07239 0.0
C4 C 0.20975 0.3172 0.0625 0.0
O5 O 0.16662 0.3812 0.05297 0.0
O6 O 0.20256 0.39604 0.07705 0.0
C7 C 0.19649 0.42829 0.13815 0.0
N8 N 0.20671 0.39954 0.14221 0.0
C9 C 0.21522 0.40993 0.19644 0.0
C10 C 0.20508 0.43977 0.19273 0.0
C11 C 0.19554 0.44891 0.16351 0.0
C12 C 0.21597 0.39052 0.17023 0.0
H13 H 0.18923 0.4355 0.11571 0.0
C14 C 0.18519 0.39985 0.05646 0.0
O15 O 0.12716 0.33343 0.05353 0.0
O16 O 0.12665 0.36457 0.09443 0.0
N17 N 0.22366 0.34297 0.14628 0.0
C18 C 0.23029 0.31242 0.14672 0.0
C19 C 0.2387 0.29893 0.17474 0.0
C20 C 0.24019 0.31698 0.20199 0.0
C21 C 0.23302 0.3483 0.20104 0.0
C22 C 0.22484 0.36049 0.17243 0.0
H23 H 0.22879 0.29835 0.12598 0.0
O24 O 0.15331 0.31159 0.11337 0.0
O25 O 0.17792 0.35261 0.11604 0.0
O26 O 0.18579 0.31745 0.05849 0.0
O27 O 0.22108 0.33511 0.08165 0.0
C28 C 0.23305 0.36767 0.22753 0.0
C29 C 0.22416 0.39847 0.22524 0.0
H30 H 0.20426 0.45573 0.21224 0.0
H31 H 0.18751 0.47183 0.16053 0.0
H32 H 0.24389 0.27464 0.17536 0.0
H33 H 0.2465 0.30643 0.22361 0.0
H34 H 0.23939 0.35893 0.24994 0.0
H35 H 0.22385 0.41294 0.24591 0.0
Mn36 Mn 0.86604 0.67167 0.5754 0.0
Mn37 Mn 0.81109 0.64501 0.60503 0.0
C38 C 0.85362 0.68547 0.62535 0.0
C39 C 0.90981 0.66563 0.56939 0.0
C40 C 0.81375 0.69705 0.55725 0.0
O41 O 0.85865 0.63424 0.54799 0.0
O42 O 0.82188 0.61829 0.56939 0.0
C43 C 0.82797 0.58407 0.6295 0.0
N44 N 0.81719 0.61237 0.63439 0.0
C45 C 0.80904 0.60008 0.68831 0.0
C46 C 0.81975 0.57067 0.68371 0.0
C47 C 0.82937 0.5627 0.65423 0.0
C48 C 0.80779 0.62024 0.66267 0.0
H49 H 0.83539 0.57778 0.60689 0.0
C50 C 0.84008 0.61543 0.54983 0.0
O51 O 0.89691 0.68314 0.55043 0.0
O52 O 0.8972 0.65135 0.59088 0.0
N53 N 0.79915 0.66828 0.64015 0.0
C54 C 0.79195 0.69861 0.64152 0.0
C55 C 0.78335 0.71096 0.66992 0.0
C56 C 0.78231 0.69206 0.69663 0.0
C57 C 0.79008 0.661 0.69475 0.0
C58 C 0.79836 0.64992 0.66576 0.0
H59 H 0.79319 0.71338 0.62124 0.0
O60 O 0.86902 0.70302 0.60975 0.0
O61 O 0.84533 0.66106 0.61076 0.0
O62 O 0.83776 0.69721 0.55369 0.0
O63 O 0.80238 0.67863 0.57585 0.0
C64 C 0.79063 0.64088 0.7207 0.0
C65 C 0.80008 0.61043 0.71748 0.0
H66 H 0.82092 0.55414 0.70274 0.0
H67 H 0.83784 0.54013 0.65057 0.0
H68 H 0.7777 0.73507 0.67129 0.0
H69 H 0.7759 0.70176 0.71858 0.0
H70 H 0.78429 0.64878 0.74339 0.0
H71 H 0.80082 0.59538 0.73773 0.0
Mn72 Mn 0.16019 0.66566 0.92405 0.0
Mn73 Mn 0.21507 0.64071 0.89278 0.0
C74 C 0.17215 0.68188 0.8745 0.0
C75 C 0.11652 0.65861 0.93031 0.0
C76 C 0.21221 0.68943 0.94412 0.0
O77 O 0.1686 0.62727 0.95029 0.0
O78 O 0.20377 0.61102 0.92541 0.0
C79 C 0.19893 0.58232 0.86233 0.0
N80 N 0.20943 0.6111 0.86031 0.0
C81 C 0.21835 0.6041 0.80566 0.0
C82 C 0.20792 0.57425 0.80726 0.0
C83 C 0.19804 0.56339 0.83567 0.0
C84 C 0.21908 0.62174 0.8331 0.0
H85 H 0.19139 0.57382 0.88414 0.0
C86 C 0.18643 0.60764 0.94604 0.0
O87 O 0.12937 0.6756 0.94975 0.0
O88 O 0.12917 0.64522 0.90827 0.0
N89 N 0.22738 0.66732 0.86039 0.0
C90 C 0.235 0.69744 0.86231 0.0
C91 C 0.24387 0.71255 0.8354 0.0
C92 C 0.24492 0.6965 0.80688 0.0
C93 C 0.237 0.66549 0.80549 0.0
C94 C 0.22836 0.65163 0.83307 0.0
H95 H 0.23414 0.7099 0.88416 0.0
O96 O 0.1564 0.69826 0.89082 0.0
O97 O 0.18082 0.65708 0.88809 0.0
O98 O 0.18814 0.69115 0.94612 0.0
O99 O 0.22351 0.67106 0.92541 0.0
C100 C 0.23683 0.64799 0.77769 0.0
C101 C 0.22758 0.61728 0.77779 0.0
H102 H 0.20718 0.55957 0.78677 0.0
H103 H 0.1898 0.54046 0.83701 0.0
H104 H 0.24984 0.73653 0.83663 0.0
H105 H 0.25164 0.70829 0.78614 0.0
H106 H 0.24342 0.65808 0.756 0.0
H107 H 0.22717 0.60424 0.75617 0.0
Mn108 Mn 0.86455 0.34523 0.42628 0.0
Mn109 Mn 0.8096 0.37256 0.39693 0.0
C110 C 0.85138 0.33043 0.37688 0.0
C111 C 0.90842 0.35063 0.43198 0.0
C112 C 0.81228 0.3226 0.44701 0.0
O113 O 0.85764 0.3835 0.45302 0.0
O114 O 0.82174 0.40097 0.43033 0.0
C115 C 0.82652 0.43135 0.36788 0.0
N116 N 0.81546 0.40294 0.36521 0.0
C117 C 0.80643 0.41162 0.31079 0.0
C118 C 0.8174 0.44113 0.31308 0.0
C119 C 0.82761 0.45096 0.3417 0.0
C120 C 0.80548 0.39331 0.3378 0.0
H121 H 0.83436 0.43905 0.38984 0.0
C122 C 0.83981 0.40334 0.45014 0.0
O123 O 0.89539 0.33377 0.45133 0.0
O124 O 0.89588 0.36469 0.4102 0.0
N125 N 0.79644 0.34728 0.36398 0.0
C126 C 0.78824 0.31734 0.36519 0.0
C127 C 0.77894 0.30321 0.33796 0.0
C128 C 0.7781 0.32002 0.30984 0.0
C129 C 0.78661 0.35082 0.30918 0.0
C130 C 0.79561 0.3637 0.33707 0.0
H131 H 0.78897 0.30429 0.38671 0.0
O132 O 0.86695 0.31311 0.39258 0.0
O133 O 0.8435 0.35529 0.39106 0.0
O134 O 0.83635 0.32043 0.44863 0.0
O135 O 0.80098 0.3415 0.42879 0.0
C136 C 0.78706 0.369 0.28181 0.0
C137 C 0.79689 0.39941 0.28262 0.0
H138 H 0.81829 0.45632 0.29294 0.0
H139 H 0.83629 0.47362 0.34358 0.0
H140 H 0.77251 0.27939 0.33861 0.0
H141 H 0.77108 0.30897 0.28884 0.0
H142 H 0.78023 0.35965 0.25989 0.0
H143 H 0.79748 0.41298 0.26133 0.0
Mn144 Mn 0.8729 0.66389 0.91099 0.0
Mn145 Mn 0.89247 0.60681 0.86303 0.0
C146 C 0.87482 0.6726 0.85748 0.0
C147 C 0.84048 0.68855 0.93872 0.0
C148 C 0.92752 0.64289 0.90619 0.0
O149 O 0.8703 0.62445 0.93769 0.0
O150 O 0.87717 0.58806 0.90067 0.0
C151 C 0.84429 0.57703 0.84484 0.0
N152 N 0.86623 0.59136 0.83673 0.0
C153 C 0.85941 0.58038 0.7823 0.0
C154 C 0.83675 0.56541 0.79001 0.0
C155 C 0.82904 0.564 0.82139 0.0
C156 C 0.87352 0.59348 0.80657 0.0
H157 H 0.83861 0.57539 0.869 0.0
C158 C 0.87081 0.59622 0.92833 0.0
O159 O 0.86398 0.69104 0.94695 0.0
O160 O 0.83568 0.67113 0.91472 0.0
N161 N 0.90749 0.62205 0.82545 0.0
C162 C 0.9287 0.63954 0.82179 0.0
C163 C 0.93811 0.64495 0.79161 0.0
C164 C 0.92597 0.6317 0.76565 0.0
C165 C 0.90426 0.61364 0.77008 0.0
C166 C 0.89538 0.60977 0.80059 0.0
H167 H 0.93841 0.64917 0.84172 0.0
O168 O 0.87473 0.69582 0.8768 0.0
O169 O 0.87359 0.64524 0.87006 0.0
O170 O 0.91163 0.66331 0.91503 0.0
O171 O 0.92164 0.62033 0.88834 0.0
C172 C 0.89112 0.59921 0.74545 0.0
C173 C 0.86862 0.58275 0.75154 0.0
H174 H 0.82512 0.55498 0.77204 0.0
H175 H 0.81157 0.55254 0.82753 0.0
H176 H 0.95487 0.65892 0.78841 0.0
H177 H 0.93346 0.6356 0.74244 0.0
H178 H 0.89778 0.60129 0.72163 0.0
H179 H 0.85843 0.57235 0.73231 0.0
Mn180 Mn 0.15227 0.346 0.41564 0.0
Mn181 Mn 0.13194 0.4023 0.36703 0.0
C182 C 0.14979 0.33656 0.36225 0.0
C183 C 0.18516 0.32231 0.44363 0.0
C184 C 0.0975 0.36654 0.41112 0.0
O185 O 0.15495 0.38584 0.44162 0.0
O186 O 0.14757 0.42166 0.40413 0.0
C187 C 0.1797 0.43234 0.34771 0.0
N188 N 0.15778 0.41767 0.34014 0.0
C189 C 0.16336 0.42917 0.2856 0.0
C190 C 0.18599 0.44449 0.29276 0.0
C191 C 0.19434 0.44576 0.32392 0.0
C192 C 0.14995 0.41556 0.31016 0.0
H193 H 0.1858 0.43399 0.37173 0.0
C194 C 0.15425 0.41392 0.43181 0.0
O195 O 0.16175 0.31981 0.45221 0.0
O196 O 0.18956 0.33896 0.41896 0.0
N197 N 0.11656 0.38655 0.32988 0.0
C198 C 0.09541 0.36884 0.32675 0.0
C199 C 0.08548 0.36342 0.29682 0.0
C200 C 0.09698 0.37695 0.27057 0.0
C201 C 0.11862 0.39527 0.27447 0.0
C202 C 0.12812 0.399 0.30472 0.0
H203 H 0.08613 0.35909 0.34692 0.0
O204 O 0.15026 0.31357 0.38189 0.0
O205 O 0.15102 0.36406 0.37443 0.0
O206 O 0.11357 0.34638 0.42015 0.0
O207 O 0.10312 0.38891 0.3929 0.0
C208 C 0.13103 0.4102 0.24958 0.0
C209 C 0.15344 0.42707 0.25513 0.0
H210 H 0.1971 0.45532 0.27455 0.0
H211 H 0.21179 0.45751 0.32963 0.0
H212 H 0.06875 0.34928 0.29403 0.0
H213 H 0.08904 0.37313 0.24757 0.0
H214 H 0.12387 0.40825 0.22595 0.0
H215 H 0.16303 0.43792 0.2357 0.0
Mn216 Mn 0.87083 0.34652 0.09111 0.0
Mn217 Mn 0.89065 0.40382 0.13854 0.0
C218 C 0.87242 0.33835 0.14474 0.0
C219 C 0.83847 0.32206 0.0631 0.0
C220 C 0.92542 0.36711 0.09564 0.0
O221 O 0.8687 0.38581 0.06405 0.0
O222 O 0.87511 0.42248 0.10096 0.0
C223 C 0.84285 0.43427 0.15716 0.0
N224 N 0.86475 0.41966 0.16507 0.0
C225 C 0.85872 0.43134 0.21948 0.0
C226 C 0.83608 0.44654 0.21199 0.0
C227 C 0.82799 0.44773 0.18072 0.0
C228 C 0.87238 0.41772 0.19514 0.0
H229 H 0.83692 0.43581 0.13306 0.0
C230 C 0.86904 0.41412 0.07325 0.0
O231 O 0.86202 0.31923 0.05526 0.0
O232 O 0.83357 0.33969 0.08692 0.0
N233 N 0.90592 0.38855 0.17601 0.0
C234 C 0.92701 0.37075 0.17951 0.0
C235 C 0.93672 0.36544 0.20959 0.0
C236 C 0.92501 0.37912 0.23561 0.0
C237 C 0.90341 0.39748 0.23134 0.0
C238 C 0.89418 0.40117 0.20094 0.0
H239 H 0.93642 0.36081 0.15953 0.0
O240 O 0.87221 0.31492 0.12568 0.0
O241 O 0.87149 0.36557 0.13183 0.0
O242 O 0.90954 0.34647 0.08743 0.0
O243 O 0.91958 0.39006 0.11299 0.0
C244 C 0.89075 0.41243 0.25601 0.0
C245 C 0.86838 0.42929 0.25009 0.0
H246 H 0.82475 0.45731 0.23004 0.0
H247 H 0.81054 0.4594 0.17474 0.0
H248 H 0.9534 0.35124 0.21267 0.0
H249 H 0.93275 0.37535 0.25874 0.0
H250 H 0.8977 0.41052 0.27974 0.0
H251 H 0.85861 0.44019 0.26935 0.0
Mn252 Mn 0.15333 0.6667 0.58879 0.0
Mn253 Mn 0.13259 0.61056 0.63711 0.0
C254 C 0.15127 0.67588 0.64226 0.0
C255 C 0.18618 0.68996 0.56064 0.0
C256 C 0.09845 0.64707 0.59315 0.0
O257 O 0.15548 0.62692 0.5626 0.0
O258 O 0.14802 0.59107 0.6 0.0
C259 C 0.18007 0.57971 0.65642 0.0
N260 N 0.15829 0.59468 0.664 0.0
C261 C 0.16382 0.583 0.71852 0.0
C262 C 0.18632 0.56737 0.71135 0.0
C263 C 0.19463 0.56603 0.6802 0.0
C264 C 0.15052 0.59689 0.69397 0.0
H265 H 0.18614 0.57802 0.6324 0.0
C266 C 0.15464 0.59882 0.57232 0.0
O267 O 0.16273 0.69287 0.55231 0.0
O268 O 0.19066 0.67314 0.58521 0.0
N269 N 0.11741 0.62651 0.67427 0.0
C270 C 0.09647 0.64462 0.67742 0.0
C271 C 0.08664 0.6502 0.70736 0.0
C272 C 0.09803 0.63642 0.73359 0.0
C273 C 0.11947 0.6177 0.72968 0.0
C274 C 0.12888 0.61382 0.69942 0.0
H275 H 0.08726 0.65457 0.65725 0.0
O276 O 0.15185 0.69897 0.62275 0.0
O277 O 0.15211 0.64844 0.62988 0.0
O278 O 0.11467 0.66709 0.58444 0.0
O279 O 0.10387 0.62446 0.6112 0.0
C280 C 0.13175 0.6025 0.75456 0.0
C281 C 0.15393 0.58517 0.74898 0.0
H282 H 0.19738 0.55635 0.72953 0.0
H283 H 0.21198 0.55404 0.67448 0.0
H284 H 0.07007 0.66465 0.71016 0.0
H285 H 0.09017 0.64036 0.7566 0.0
H286 H 0.12465 0.60455 0.77819 0.0
H287 H 0.1634 0.57405 0.76839 0.0
Mn288 Mn 0.65845 0.84262 0.07118 0.0
Mn289 Mn 0.71285 0.86952 0.10245 0.0
C290 C 0.66996 0.82885 0.12155 0.0
C291 C 0.61494 0.84859 0.06312 0.0
C292 C 0.71105 0.81733 0.05482 0.0
O293 O 0.66644 0.87993 0.04376 0.0
O294 O 0.70244 0.8964 0.06675 0.0
C295 C 0.69556 0.93027 0.12679 0.0
N296 N 0.7064 0.90201 0.13178 0.0
C297 C 0.71472 0.91444 0.18562 0.0
C298 C 0.70397 0.94383 0.18093 0.0
C299 C 0.69421 0.9517 0.15144 0.0
C300 C 0.71587 0.89422 0.16007 0.0
H301 H 0.6881 0.9365 0.10416 0.0
C302 C 0.68472 0.89907 0.04648 0.0
O303 O 0.62831 0.83067 0.04516 0.0
O304 O 0.62687 0.86319 0.08502 0.0
N305 N 0.72448 0.84614 0.13771 0.0
C306 C 0.73169 0.81582 0.13918 0.0
C307 C 0.74036 0.80352 0.16763 0.0
C308 C 0.74152 0.8225 0.19425 0.0
C309 C 0.73376 0.85356 0.19225 0.0
C310 C 0.72535 0.86455 0.16326 0.0
H311 H 0.73041 0.80101 0.11895 0.0
O312 O 0.65471 0.81144 0.10556 0.0
O313 O 0.67848 0.85335 0.10727 0.0
O314 O 0.68711 0.81686 0.05077 0.0
O315 O 0.72206 0.83608 0.0734 0.0
C316 C 0.73335 0.87378 0.2181 0.0
C317 C 0.72385 0.9042 0.21479 0.0
H318 H 0.70288 0.96042 0.19988 0.0
H319 H 0.68572 0.97425 0.14771 0.0
H320 H 0.746 0.77941 0.16908 0.0
H321 H 0.74801 0.81286 0.21622 0.0
H322 H 0.73985 0.86597 0.24079 0.0
H323 H 0.72323 0.91933 0.23496 0.0
Mn324 Mn 0.36603 0.16673 0.57704 0.0
Mn325 Mn 0.31147 0.14045 0.60809 0.0
C326 C 0.35404 0.18172 0.62697 0.0
C327 C 0.40971 0.16044 0.57029 0.0
C328 C 0.31373 0.19008 0.5575 0.0
O329 O 0.3579 0.1288 0.55005 0.0
O330 O 0.32309 0.11153 0.57502 0.0
C331 C 0.32799 0.08169 0.63765 0.0
N332 N 0.31735 0.11038 0.64012 0.0
C333 C 0.30812 0.10223 0.69454 0.0
C334 C 0.31868 0.07246 0.69247 0.0
C335 C 0.3288 0.06223 0.66396 0.0
C336 C 0.30748 0.12041 0.66743 0.0
H337 H 0.33566 0.07365 0.61574 0.0
C338 C 0.34032 0.10882 0.55417 0.0
O339 O 0.39662 0.17787 0.55147 0.0
O340 O 0.39734 0.14623 0.59207 0.0
N341 N 0.2989 0.16638 0.64086 0.0
C342 C 0.291 0.19645 0.63938 0.0
C343 C 0.28187 0.21096 0.66648 0.0
C344 C 0.28082 0.19437 0.69472 0.0
C345 C 0.28901 0.16343 0.69564 0.0
C346 C 0.29794 0.1502 0.6679 0.0
H347 H 0.29183 0.2093 0.61775 0.0
O348 O 0.36961 0.19861 0.61093 0.0
O349 O 0.34559 0.15709 0.61296 0.0
O350 O 0.33777 0.19233 0.5556 0.0
O351 O 0.30269 0.17117 0.5759 0.0
C352 C 0.28914 0.1454 0.72311 0.0
C353 C 0.29862 0.11479 0.72255 0.0
H354 H 0.31929 0.05734 0.71268 0.0
H355 H 0.33713 0.03935 0.66225 0.0
H356 H 0.27568 0.23489 0.66561 0.0
H357 H 0.27388 0.2057 0.7156 0.0
H358 H 0.28231 0.155 0.74491 0.0
H359 H 0.29895 0.10131 0.74392 0.0
Mn360 Mn 0.65823 0.1695 0.92513 0.0
Mn361 Mn 0.71321 0.14207 0.89632 0.0
C362 C 0.67121 0.18294 0.87529 0.0
C363 C 0.61439 0.16426 0.93095 0.0
C364 C 0.71058 0.19473 0.94315 0.0
O365 O 0.6651 0.13208 0.95288 0.0
O366 O 0.70229 0.11628 0.93255 0.0
C367 C 0.69593 0.08078 0.87353 0.0
N368 N 0.70684 0.10884 0.86784 0.0
C369 C 0.71537 0.09486 0.81447 0.0
C370 C 0.70462 0.06563 0.81997 0.0
C371 C 0.69469 0.05866 0.84954 0.0
C372 C 0.71639 0.11583 0.83941 0.0
H373 H 0.68837 0.0752 0.89625 0.0
C374 C 0.68386 0.11345 0.95173 0.0
O375 O 0.62742 0.18165 0.94983 0.0
O376 O 0.62691 0.14965 0.90959 0.0
N377 N 0.72542 0.16428 0.86064 0.0
C378 C 0.73319 0.19434 0.85855 0.0
C379 C 0.7422 0.20572 0.82991 0.0
C380 C 0.74318 0.18608 0.80376 0.0
C381 C 0.73494 0.15528 0.80642 0.0
C382 C 0.72615 0.14524 0.83556 0.0
H383 H 0.73208 0.20964 0.87842 0.0
O384 O 0.65576 0.20074 0.89055 0.0
O385 O 0.6791 0.1584 0.89006 0.0
O386 O 0.68659 0.19474 0.94687 0.0
O387 O 0.72201 0.17628 0.92463 0.0
C388 C 0.73455 0.13437 0.78114 0.0
C389 C 0.72483 0.10416 0.78517 0.0
H390 H 0.70385 0.04833 0.80171 0.0
H391 H 0.68623 0.03622 0.85388 0.0
H392 H 0.74826 0.22963 0.82795 0.0
H393 H 0.74998 0.19501 0.78166 0.0
H394 H 0.74135 0.14144 0.75837 0.0
H395 H 0.72438 0.08843 0.76545 0.0
Mn396 Mn 0.36474 0.84317 0.42119 0.0
Mn397 Mn 0.30926 0.86804 0.39124 0.0
C398 C 0.35175 0.82665 0.37213 0.0
C399 C 0.40851 0.84989 0.42639 0.0
C400 C 0.31317 0.82025 0.44341 0.0
O401 O 0.35696 0.88193 0.44713 0.0
O402 O 0.32151 0.89828 0.42276 0.0
C403 C 0.32405 0.92604 0.35901 0.0
N404 N 0.31393 0.897 0.35793 0.0
C405 C 0.30323 0.90298 0.3036 0.0
C406 C 0.31319 0.93309 0.30427 0.0
C407 C 0.32381 0.94459 0.33202 0.0
C408 C 0.30355 0.88578 0.33137 0.0
H409 H 0.33208 0.93506 0.38034 0.0
C410 C 0.33924 0.90176 0.4429 0.0
O411 O 0.39587 0.83325 0.44631 0.0
O412 O 0.39561 0.86317 0.40443 0.0
N413 N 0.29619 0.84072 0.35993 0.0
C414 C 0.28882 0.81057 0.36278 0.0
C415 C 0.27938 0.79484 0.33653 0.0
C416 C 0.27752 0.8103 0.30771 0.0
C417 C 0.2852 0.84135 0.30536 0.0
C418 C 0.29445 0.85582 0.33231 0.0
H419 H 0.29032 0.79856 0.38485 0.0
O420 O 0.36773 0.81027 0.38819 0.0
O421 O 0.3434 0.85156 0.38574 0.0
O422 O 0.33724 0.8181 0.44443 0.0
O423 O 0.30155 0.83849 0.42485 0.0
C424 C 0.28452 0.8583 0.27721 0.0
C425 C 0.29341 0.88916 0.27636 0.0
H426 H 0.31299 0.94749 0.28353 0.0
H427 H 0.33171 0.96774 0.33263 0.0
H428 H 0.2736 0.77083 0.33849 0.0
H429 H 0.27035 0.79803 0.28748 0.0
H430 H 0.27748 0.84771 0.25598 0.0
H431 H 0.29306 0.90184 0.2545 0.0
Mn432 Mn 0.37081 0.16764 0.91342 0.0
Mn433 Mn 0.39094 0.11013 0.86643 0.0
C434 C 0.37248 0.17554 0.85973 0.0
C435 C 0.33828 0.19197 0.94128 0.0
C436 C 0.42548 0.14737 0.90918 0.0
O437 O 0.369 0.12848 0.94075 0.0
O438 O 0.37533 0.09166 0.90399 0.0
C439 C 0.34329 0.07948 0.8476 0.0
N440 N 0.36521 0.09401 0.83979 0.0
C441 C 0.35963 0.08154 0.78547 0.0
C442 C 0.33697 0.06641 0.79286 0.0
C443 C 0.32864 0.06567 0.82403 0.0
C444 C 0.37305 0.09556 0.8098 0.0
H445 H 0.33719 0.07828 0.87163 0.0
C446 C 0.36936 0.10014 0.93167 0.0
O447 O 0.36182 0.19504 0.94912 0.0
O448 O 0.33349 0.1742 0.91752 0.0
N449 N 0.40633 0.12514 0.82899 0.0
C450 C 0.42739 0.14294 0.82552 0.0
C451 C 0.43731 0.14783 0.79551 0.0
C452 C 0.42588 0.1337 0.76954 0.0
C453 C 0.40431 0.11533 0.77377 0.0
C454 C 0.39483 0.1121 0.80408 0.0
H455 H 0.43662 0.15319 0.84549 0.0
O456 O 0.372 0.19907 0.87867 0.0
O457 O 0.37164 0.14838 0.87277 0.0
O458 O 0.40951 0.16802 0.91713 0.0
O459 O 0.41973 0.12418 0.89211 0.0
C460 C 0.39193 0.09992 0.74916 0.0
C461 C 0.36954 0.08313 0.75499 0.0
H462 H 0.32581 0.05535 0.77482 0.0
H463 H 0.31117 0.05406 0.82992 0.0
H464 H 0.45397 0.16203 0.79247 0.0
H465 H 0.4338 0.13712 0.74647 0.0
H466 H 0.39909 0.10143 0.72551 0.0
H467 H 0.36 0.07186 0.73576 0.0
Mn468 Mn 0.65244 0.84636 0.40734 0.0
Mn469 Mn 0.63201 0.9025 0.35847 0.0
C470 C 0.65079 0.83724 0.35386 0.0
C471 C 0.685 0.82241 0.4357 0.0
C472 C 0.59737 0.8659 0.40153 0.0
O473 O 0.65456 0.88611 0.43363 0.0
O474 O 0.64624 0.92177 0.39636 0.0
C475 C 0.67959 0.93422 0.34142 0.0
N476 N 0.65822 0.91891 0.3328 0.0
C477 C 0.66494 0.93125 0.27865 0.0
C478 C 0.68708 0.94712 0.28687 0.0
C479 C 0.69457 0.94832 0.31837 0.0
C480 C 0.65118 0.91696 0.30251 0.0
H481 H 0.68496 0.93592 0.36571 0.0
C482 C 0.65298 0.91424 0.42406 0.0
O483 O 0.66147 0.81969 0.44368 0.0
O484 O 0.68976 0.83964 0.41153 0.0
N485 N 0.61783 0.88686 0.32058 0.0
C486 C 0.59699 0.8688 0.31644 0.0
C487 C 0.58781 0.86365 0.28609 0.0
C488 C 0.5997 0.87785 0.26048 0.0
C489 C 0.62099 0.89656 0.26542 0.0
C490 C 0.62976 0.89997 0.29604 0.0
H491 H 0.58739 0.85857 0.33615 0.0
O492 O 0.65108 0.81416 0.37338 0.0
O493 O 0.65162 0.86471 0.36617 0.0
O494 O 0.61365 0.84628 0.41122 0.0
O495 O 0.60287 0.88809 0.38307 0.0
C496 C 0.63372 0.91218 0.24122 0.0
C497 C 0.65579 0.92934 0.2478 0.0
H498 H 0.69843 0.95851 0.26923 0.0
H499 H 0.71161 0.96057 0.32491 0.0
H500 H 0.57135 0.84922 0.2825 0.0
H501 H 0.59233 0.87425 0.23715 0.0
H502 H 0.62709 0.91052 0.21733 0.0
H503 H 0.66566 0.94071 0.22891 0.0
Mn504 Mn 0.37154 0.8463 0.08737 0.0
Mn505 Mn 0.39203 0.90018 0.13869 0.0
C506 C 0.37257 0.83529 0.14062 0.0
C507 C 0.33889 0.8237 0.05812 0.0
C508 C 0.427 0.86375 0.09586 0.0
O509 O 0.36979 0.88683 0.06241 0.0
O510 O 0.37921 0.92102 0.10063 0.0
C511 C 0.34444 0.93273 0.15441 0.0
N512 N 0.36542 0.91687 0.16357 0.0
C513 C 0.35794 0.9292 0.21756 0.0
C514 C 0.33624 0.94573 0.20877 0.0
C515 C 0.32929 0.94717 0.17709 0.0
C516 C 0.37178 0.91445 0.19406 0.0
H517 H 0.33951 0.93459 0.13 0.0
C518 C 0.37215 0.91454 0.07277 0.0
O519 O 0.3624 0.82115 0.04995 0.0
O520 O 0.33426 0.83998 0.08295 0.0
N521 N 0.40479 0.88327 0.17686 0.0
C522 C 0.42503 0.8643 0.18155 0.0
C523 C 0.43349 0.85864 0.21214 0.0
C524 C 0.42154 0.8733 0.23744 0.0
C525 C 0.40084 0.89288 0.23194 0.0
C526 C 0.39268 0.89668 0.2011 0.0
H527 H 0.43468 0.85366 0.16211 0.0
O528 O 0.3725 0.81292 0.12031 0.0
O529 O 0.37206 0.86317 0.12922 0.0
O530 O 0.41038 0.84603 0.08373 0.0
O531 O 0.42157 0.88504 0.11538 0.0
C532 C 0.38816 0.9091 0.25578 0.0
C533 C 0.36664 0.92712 0.24861 0.0
H534 H 0.32478 0.95741 0.2261 0.0
H535 H 0.31258 0.95988 0.17011 0.0
H536 H 0.44948 0.8435 0.21616 0.0
H537 H 0.4284 0.86937 0.26096 0.0
H538 H 0.39439 0.90725 0.27982 0.0
H539 H 0.35692 0.93912 0.26721 0.0
Mn540 Mn 0.65423 0.16263 0.58931 0.0
Mn541 Mn 0.63392 0.10697 0.63893 0.0
C542 C 0.65434 0.17131 0.64284 0.0
C543 C 0.68613 0.18691 0.56021 0.0
C544 C 0.59818 0.14802 0.60256 0.0
O545 O 0.65563 0.12389 0.56203 0.0
O546 O 0.64027 0.0898 0.59689 0.0
C547 C 0.6811 0.07008 0.64042 0.0
N548 N 0.66237 0.08547 0.65574 0.0
C549 C 0.67724 0.06715 0.70548 0.0
C550 C 0.69667 0.05099 0.6903 0.0
C551 C 0.69875 0.05272 0.65763 0.0
C552 C 0.66062 0.08468 0.68718 0.0
H553 H 0.68245 0.07084 0.61527 0.0
C554 C 0.64865 0.09662 0.56978 0.0
O555 O 0.66243 0.18975 0.5529 0.0
O556 O 0.69134 0.16946 0.58407 0.0
N557 N 0.62702 0.11901 0.68103 0.0
C558 C 0.60803 0.13724 0.69216 0.0
C559 C 0.60397 0.13903 0.72453 0.0
C560 C 0.61892 0.12128 0.745 0.0
C561 C 0.63812 0.10234 0.73294 0.0
C562 C 0.6417 0.10214 0.70057 0.0
H563 H 0.59611 0.15027 0.67642 0.0
O564 O 0.65377 0.19442 0.62339 0.0
O565 O 0.6548 0.14371 0.63056 0.0
O566 O 0.61513 0.16251 0.58707 0.0
O567 O 0.60332 0.12767 0.6233 0.0
C568 C 0.65384 0.08357 0.75172 0.0
C569 C 0.67353 0.06626 0.738 0.0
H570 H 0.71008 0.03722 0.70349 0.0
H571 H 0.7137 0.04035 0.64572 0.0
H572 H 0.58911 0.15368 0.73366 0.0
H573 H 0.61553 0.12244 0.76992 0.0
H574 H 0.65122 0.08265 0.7768 0.0
H575 H 0.68566 0.05219 0.75257 0.0
H576 H 0.08471 0.38851 0.10761 0.0
H577 H 0.08047 0.32015 0.03404 0.0
H578 H 0.03915 0.39174 0.10896 0.0
H579 H 0.03417 0.32396 0.03487 0.0
H580 H 0.95214 0.31482 0.07844 0.0
H581 H 0.99767 0.31113 0.06854 0.0
H582 H 1.00423 0.41047 0.07946 0.0
H583 H 0.95937 0.41395 0.09024 0.0
C584 C 0.07403 0.37441 0.09135 0.0
C585 C 0.08631 0.35412 0.07065 0.0
C586 C 0.04777 0.37642 0.09199 0.0
C587 C 0.03286 0.35831 0.07185 0.0
C588 C 0.04507 0.33813 0.05083 0.0
C589 C 0.07158 0.33612 0.05016 0.0
C590 C 0.96333 0.33585 0.07835 0.0
C591 C 0.9522 0.3646 0.08568 0.0
C592 C 0.9894 0.33377 0.07256 0.0
C593 C 1.00475 0.36045 0.07375 0.0
C594 C 0.99319 0.38932 0.07921 0.0
C595 C 0.96738 0.39134 0.08529 0.0
H596 H 0.94374 0.696 0.53097 0.0
H597 H 0.93916 0.62878 0.60566 0.0
H598 H 0.99004 0.69171 0.53191 0.0
H599 H 0.98468 0.62509 0.6071 0.0
H600 H 0.0639 0.60086 0.5882 0.0
H601 H 0.01906 0.60518 0.57745 0.0
H602 H 0.02696 0.70424 0.56531 0.0
H603 H 0.07247 0.69969 0.57518 0.0
C604 C 0.95256 0.68023 0.54741 0.0
C605 C 0.93773 0.66262 0.56811 0.0
C606 C 0.97905 0.67793 0.54811 0.0
C607 C 0.99114 0.65785 0.5694 0.0
C608 C 0.97613 0.64028 0.5899 0.0
C609 C 0.9499 0.64257 0.58921 0.0
C610 C 0.05619 0.62358 0.58296 0.0
C611 C 0.07173 0.65 0.58302 0.0
C612 C 0.03039 0.62608 0.5769 0.0
C613 C 0.01922 0.65515 0.57116 0.0
C614 C 0.03493 0.68148 0.56958 0.0
C615 C 0.06099 0.6789 0.57534 0.0
H616 H 0.95408 0.69468 0.92521 0.0
H617 H 0.96186 0.59616 0.90938 0.0
H618 H 0.99965 0.69831 0.93498 0.0
H619 H 1.00676 0.59955 0.91998 0.0
H620 H 0.08712 0.62274 0.89314 0.0
H621 H 0.04156 0.61963 0.89132 0.0
H622 H 0.03631 0.68436 0.96808 0.0
H623 H 0.08261 0.68808 0.96941 0.0
C624 C 0.9654 0.67375 0.92437 0.0
C625 C 0.95439 0.64523 0.91599 0.0
C626 C 0.9915 0.67579 0.93007 0.0
C627 C 1.00701 0.64931 0.92772 0.0
C628 C 0.9956 0.62059 0.92115 0.0
C629 C 0.96975 0.61862 0.91517 0.0
C630 C 0.07639 0.63621 0.90987 0.0
C631 C 0.08859 0.65559 0.93151 0.0
C632 C 0.05012 0.63426 0.90895 0.0
C633 C 0.03512 0.65152 0.92974 0.0
C634 C 0.04727 0.67086 0.95162 0.0
C635 C 0.07377 0.67281 0.95255 0.0
H636 H 0.07108 0.31445 0.42962 0.0
H637 H 0.06309 0.4131 0.41457 0.0
H638 H 0.02541 0.31046 0.43847 0.0
H639 H 0.01807 0.40932 0.42418 0.0
H640 H 0.94186 0.32072 0.47146 0.0
H641 H 0.98818 0.32429 0.47105 0.0
H642 H 0.98395 0.38888 0.39398 0.0
H643 H 0.93834 0.38586 0.39483 0.0
C644 C 0.05969 0.33533 0.42881 0.0
C645 C 0.07067 0.364 0.42088 0.0
C646 C 0.03354 0.33307 0.43395 0.0
C647 C 0.01795 0.35949 0.43145 0.0
C648 C 0.02932 0.38834 0.42544 0.0
C649 C 0.05522 0.39053 0.42005 0.0
C650 C 0.95092 0.33586 0.45468 0.0
C651 C 0.93637 0.35313 0.43331 0.0
C652 C 0.97743 0.33775 0.45429 0.0
C653 C 0.98984 0.35708 0.43266 0.0
C654 C 0.97513 0.37426 0.41143 0.0
C655 C 0.94886 0.37237 0.4118 0.0
H656 H 0.4672 0.8847 0.12903 0.0
H657 H 0.4486 0.83339 0.04544 0.0
H658 H 0.51152 0.88047 0.11701 0.0
H659 H 0.49374 0.83007 0.03257 0.0
H660 H 0.58064 0.80529 0.0424 0.0
H661 H 0.5345 0.80793 0.04747 0.0
H662 H 0.54096 0.90178 0.08216 0.0
H663 H 0.58662 0.89843 0.07853 0.0
C664 C 0.47254 0.87269 0.10782 0.0
C665 C 0.45417 0.85966 0.08805 0.0
C666 C 0.49813 0.87048 0.10075 0.0
C667 C 0.50636 0.85557 0.07339 0.0
C668 C 0.48811 0.84177 0.05383 0.0
C669 C 0.46225 0.84372 0.06115 0.0
C670 C 0.57203 0.82658 0.05064 0.0
C671 C 0.58718 0.85151 0.06049 0.0
C672 C 0.54562 0.82813 0.05353 0.0
C673 C 0.53394 0.8548 0.06598 0.0
C674 C 0.54922 0.88045 0.07353 0.0
C675 C 0.57544 0.87868 0.07119 0.0
H676 H 0.57591 0.17172 0.54917 0.0
H677 H 0.55869 0.13738 0.64154 0.0
H678 H 0.53053 0.17494 0.53764 0.0
H679 H 0.51401 0.14146 0.63054 0.0
H680 H 0.4388 0.11483 0.59481 0.0
H681 H 0.48442 0.11348 0.59987 0.0
H682 H 0.48986 0.20022 0.54961 0.0
H683 H 0.44373 0.20093 0.5436 0.0
C684 C 0.5625 0.16535 0.56715 0.0
C685 C 0.57099 0.15391 0.59614 0.0
C686 C 0.53651 0.16719 0.56055 0.0
C687 C 0.51854 0.15777 0.58289 0.0
C688 C 0.5272 0.14793 0.61235 0.0
C689 C 0.55295 0.14583 0.61878 0.0
C690 C 0.4497 0.13345 0.58446 0.0
C691 C 0.43763 0.15813 0.56906 0.0
C692 C 0.47591 0.13284 0.5876 0.0
C693 C 0.49089 0.15716 0.57588 0.0
C694 C 0.47895 0.18113 0.55898 0.0
C695 C 0.45253 0.18155 0.55553 0.0
H696 H 0.58082 0.19535 0.96922 0.0
H697 H 0.58465 0.12766 0.89498 0.0
H698 H 0.5345 0.19163 0.9686 0.0
H699 H 0.53908 0.12449 0.89391 0.0
H700 H 0.45989 0.10094 0.91452 0.0
H701 H 0.50485 0.10505 0.92451 0.0
H702 H 0.49746 0.20434 0.93509 0.0
H703 H 0.45185 0.20005 0.92587 0.0
C704 C 0.57183 0.17961 0.95293 0.0
C705 C 0.58646 0.16169 0.93227 0.0
C706 C 0.54533 0.17764 0.95242 0.0
C707 C 0.53302 0.15756 0.93139 0.0
C708 C 0.54781 0.1397 0.9109 0.0
C709 C 0.57407 0.14168 0.91139 0.0
C710 C 0.46773 0.12368 0.91923 0.0
C711 C 0.4523 0.15023 0.91892 0.0
C712 C 0.49359 0.12605 0.92487 0.0
C713 C 0.50493 0.1551 0.92997 0.0
C714 C 0.48935 0.18159 0.9313 0.0
C715 C 0.46324 0.17916 0.92592 0.0
H716 H 0.43775 0.88448 0.38781 0.0
H717 H 0.4426 0.82113 0.46584 0.0
H718 H 0.48333 0.88744 0.38567 0.0
H719 H 0.48889 0.82467 0.46413 0.0
H720 H 0.56276 0.91222 0.40399 0.0
H721 H 0.5179 0.90854 0.41445 0.0
H722 H 0.52562 0.81007 0.431 0.0
H723 H 0.57121 0.81399 0.42128 0.0
C724 C 0.44856 0.87141 0.40483 0.0
C725 C 0.43645 0.85267 0.4271 0.0
C726 C 0.47482 0.87325 0.40371 0.0
C727 C 0.48989 0.85653 0.42492 0.0
C728 C 0.47786 0.83774 0.44735 0.0
C729 C 0.45137 0.8359 0.44849 0.0
C730 C 0.55502 0.88975 0.41006 0.0
C731 C 0.57055 0.8633 0.41131 0.0
C732 C 0.5292 0.88762 0.41597 0.0
C733 C 0.51797 0.8589 0.42292 0.0
C734 C 0.53364 0.83258 0.42574 0.0
C735 C 0.55974 0.83478 0.42008 0.0
H736 H 0.1688 0.27539 0.16632 0.0
H737 H 0.1652 0.37524 0.1704 0.0
H738 H 0.16568 0.27322 0.22388 0.0
H739 H 0.1659 0.37315 0.22673 0.0
H740 H 0.18564 0.36337 0.32694 0.0
H741 H 0.19278 0.35732 0.27113 0.0
H742 H 0.1326 0.28994 0.26647 0.0
H743 H 0.12529 0.29642 0.32292 0.0
C744 C 0.168 0.29679 0.17954 0.0
C745 C 0.16861 0.3256 0.16412 0.0
C746 C 0.1662 0.29556 0.2123 0.0
C747 C 0.16548 0.32317 0.22984 0.0
C748 C 0.16608 0.35162 0.21405 0.0
C749 C 0.16651 0.35281 0.18169 0.0
C750 C 0.17382 0.34744 0.31393 0.0
C751 C 0.15427 0.3313 0.32875 0.0
C752 C 0.17811 0.34367 0.28207 0.0
C753 C 0.16318 0.32326 0.26437 0.0
C754 C 0.14449 0.30568 0.27959 0.0
C755 C 0.14016 0.30956 0.31169 0.0
H756 H 0.85259 0.73698 0.66339 0.0
H757 H 0.85804 0.63717 0.66455 0.0
H758 H 0.85616 0.73751 0.72093 0.0
H759 H 0.85795 0.63755 0.72097 0.0
H760 H 0.83877 0.64552 0.82238 0.0
H761 H 0.83095 0.65211 0.76664 0.0
H762 H 0.89073 0.72001 0.76183 0.0
H763 H 0.89884 0.71283 0.81801 0.0
C764 C 0.85384 0.71522 0.67598 0.0
C765 C 0.85367 0.68688 0.65973 0.0
C766 C 0.8559 0.71551 0.70872 0.0
C767 C 0.85737 0.68743 0.72544 0.0
C768 C 0.85711 0.65942 0.70889 0.0
C769 C 0.85636 0.6592 0.6765 0.0
C770 C 0.85043 0.66156 0.8093 0.0
C771 C 0.8701 0.67767 0.82398 0.0
C772 C 0.84573 0.66566 0.77753 0.0
C773 C 0.86028 0.6865 0.75987 0.0
C774 C 0.87913 0.70396 0.77495 0.0
C775 C 0.88392 0.69966 0.80688 0.0
H776 H 0.16763 0.63537 0.83341 0.0
H777 H 0.1733 0.73501 0.83853 0.0
H778 H 0.16808 0.63803 0.7771 0.0
H779 H 0.16992 0.73788 0.781 0.0
H780 H 0.12769 0.71619 0.68228 0.0
H781 H 0.13578 0.72218 0.73865 0.0
H782 H 0.1952 0.65378 0.73257 0.0
H783 H 0.18725 0.64817 0.67684 0.0
C784 C 0.1694 0.65786 0.82235 0.0
C785 C 0.17213 0.6848 0.84021 0.0
C786 C 0.16881 0.6594 0.79001 0.0
C787 C 0.16868 0.68802 0.77453 0.0
C788 C 0.1701 0.71541 0.79235 0.0
C789 C 0.17205 0.71378 0.82509 0.0
C790 C 0.14255 0.70271 0.69318 0.0
C791 C 0.1562 0.68082 0.67574 0.0
C792 C 0.14734 0.70632 0.72523 0.0
C793 C 0.16604 0.68831 0.74002 0.0
C794 C 0.18053 0.66774 0.72195 0.0
C795 C 0.17577 0.66423 0.69015 0.0
H796 H 0.8364 0.3664 0.17905 0.0
H797 H 0.8959 0.29832 0.18508 0.0
H798 H 0.82828 0.36081 0.23482 0.0
H799 H 0.8875 0.29217 0.24131 0.0
H800 H 0.85628 0.37765 0.33652 0.0
H801 H 0.85587 0.37594 0.28014 0.0
H802 H 0.85234 0.27611 0.28254 0.0
H803 H 0.849 0.27809 0.34008 0.0
C804 C 0.84786 0.35039 0.19249 0.0
C805 C 0.86748 0.33377 0.17826 0.0
C806 C 0.84298 0.34686 0.22428 0.0
C807 C 0.85731 0.32612 0.24242 0.0
C808 C 0.87606 0.30815 0.22781 0.0
C809 C 0.88104 0.31186 0.19584 0.0
C810 C 0.85409 0.35541 0.32511 0.0
C811 C 0.85098 0.32822 0.34255 0.0
C812 C 0.85468 0.3544 0.29274 0.0
C813 C 0.8544 0.32602 0.27686 0.0
C814 C 0.85248 0.29839 0.29423 0.0
C815 C 0.85054 0.29951 0.32697 0.0
H816 H 0.62718 0.79663 0.31431 0.0
H817 H 0.68651 0.86492 0.31891 0.0
H818 H 0.63487 0.79038 0.25795 0.0
H819 H 0.69406 0.85906 0.26311 0.0
H820 H 0.67097 0.77638 0.15826 0.0
H821 H 0.66816 0.77435 0.2158 0.0
H822 H 0.66731 0.87428 0.21836 0.0
H823 H 0.66615 0.87616 0.16197 0.0
C824 C 0.64192 0.81012 0.30321 0.0
C825 C 0.6556 0.83214 0.32041 0.0
C826 C 0.64648 0.80637 0.27116 0.0
C827 C 0.66498 0.82438 0.25612 0.0
C828 C 0.67952 0.84511 0.27394 0.0
C829 C 0.675 0.84874 0.30577 0.0
C830 C 0.67002 0.79781 0.1714 0.0
C831 C 0.67015 0.82658 0.15587 0.0
C832 C 0.66841 0.79667 0.20416 0.0
C833 C 0.66741 0.82431 0.2216 0.0
C834 C 0.66766 0.85273 0.20574 0.0
C835 C 0.66786 0.85382 0.17336 0.0
H836 H 0.39646 0.21543 0.81982 0.0
H837 H 0.33714 0.14715 0.8246 0.0
H838 H 0.38906 0.22109 0.76329 0.0
H839 H 0.33005 0.15222 0.76858 0.0
H840 H 0.35191 0.23438 0.66336 0.0
H841 H 0.35478 0.23674 0.72093 0.0
H842 H 0.35807 0.1369 0.72408 0.0
H843 H 0.35886 0.1348 0.6677 0.0
C844 C 0.38184 0.20174 0.80872 0.0
C845 C 0.36805 0.17992 0.82606 0.0
C846 C 0.37744 0.20516 0.77657 0.0
C847 C 0.35905 0.18698 0.76154 0.0
C848 C 0.34449 0.16633 0.77942 0.0
C849 C 0.34877 0.16311 0.81138 0.0
C850 C 0.35336 0.21304 0.67664 0.0
C851 C 0.35381 0.18422 0.66128 0.0
C852 C 0.35502 0.21438 0.7094 0.0
C853 C 0.35669 0.18685 0.72701 0.0
C854 C 0.35709 0.15837 0.71132 0.0
C855 C 0.35675 0.15714 0.67894 0.0
H856 H 0.66584 0.13519 0.83572 0.0
H857 H 0.67536 0.23453 0.83765 0.0
H858 H 0.66655 0.13605 0.77927 0.0
H859 H 0.67374 0.2356 0.78 0.0
H860 H 0.63274 0.21454 0.68106 0.0
H861 H 0.64012 0.22143 0.73735 0.0
H862 H 0.69582 0.14824 0.73495 0.0
H863 H 0.68871 0.14186 0.679 0.0
C864 C 0.66858 0.15717 0.82393 0.0
C865 C 0.67194 0.18457 0.84095 0.0
C866 C 0.6685 0.15768 0.79152 0.0
C867 C 0.67024 0.18573 0.77513 0.0
C868 C 0.67253 0.21356 0.79208 0.0
C869 C 0.67348 0.21296 0.82488 0.0
C870 C 0.64669 0.20021 0.69269 0.0
C871 C 0.6594 0.17676 0.67623 0.0
C872 C 0.65107 0.20432 0.72473 0.0
C873 C 0.66841 0.1852 0.74056 0.0
C874 C 0.68218 0.16309 0.72347 0.0
C875 C 0.6779 0.15916 0.69157 0.0
H876 H 0.33614 0.86233 0.17487 0.0
H877 H 0.39495 0.79326 0.18004 0.0
H878 H 0.32725 0.85529 0.2302 0.0
H879 H 0.38622 0.78622 0.2361 0.0
H880 H 0.35048 0.77345 0.33625 0.0
H881 H 0.35306 0.77065 0.27865 0.0
H882 H 0.3536 0.87054 0.27461 0.0
H883 H 0.35515 0.87316 0.33084 0.0
C884 C 0.34722 0.84568 0.18802 0.0
C885 C 0.36685 0.82919 0.1737 0.0
C886 C 0.34197 0.8414 0.2196 0.0
C887 C 0.35617 0.82038 0.23757 0.0
C888 C 0.37485 0.80241 0.22277 0.0
C889 C 0.38003 0.80664 0.1909 0.0
C890 C 0.35129 0.7947 0.32275 0.0
C891 C 0.3512 0.82368 0.33784 0.0
C892 C 0.35276 0.79311 0.28997 0.0
C893 C 0.35361 0.82053 0.27209 0.0
C894 C 0.35334 0.84914 0.28755 0.0
C895 C 0.35335 0.85065 0.31988 0.0
H896 H 0.34402 0.23922 0.98263 0.0
H897 H 0.28684 0.18335 0.93793 0.0
H898 H 0.31161 0.26777 0.01033 0.0
H899 H 0.25403 0.2112 0.96698 0.0
H900 H 0.20167 0.29094 0.00431 0.0
H901 H 0.23167 0.25956 0.97401 0.0
H902 H 0.28378 0.26145 0.05176 0.0
H903 H 0.25489 0.29369 0.08074 0.0
C904 C 0.32447 0.23276 0.979 0.0
C905 C 0.31806 0.20882 0.95827 0.0
C906 C 0.30578 0.24905 0.99509 0.0
C907 C 0.28005 0.24156 0.99143 0.0
C908 C 0.27357 0.21778 0.97033 0.0
C909 C 0.29239 0.20166 0.95383 0.0
C910 C 0.21949 0.28438 0.01485 0.0
C911 C 0.22594 0.29516 0.04482 0.0
C912 C 0.23669 0.26634 0.99756 0.0
C913 C 0.2605 0.25843 0.0101 0.0
C914 C 0.26611 0.26787 0.04075 0.0
C915 C 0.2493 0.28619 0.05762 0.0
H916 H 0.76857 0.72036 0.57547 0.0
H917 H 0.82179 0.72375 0.49922 0.0
H918 H 0.73963 0.75273 0.5466 0.0
H919 H 0.79172 0.75518 0.46897 0.0
H920 H 0.73645 0.83088 0.43232 0.0
H921 H 0.76927 0.80313 0.46157 0.0
H922 H 0.71167 0.74704 0.50545 0.0
H923 H 0.67927 0.77557 0.4776 0.0
C924 C 0.77415 0.72803 0.55241 0.0
C925 C 0.79754 0.71922 0.53965 0.0
C926 C 0.7573 0.74642 0.53558 0.0
C927 C 0.76287 0.75606 0.50499 0.0
C928 C 0.78671 0.74828 0.49248 0.0
C929 C 0.80396 0.7302 0.50975 0.0
C930 C 0.73091 0.81271 0.4484 0.0
C931 C 0.70522 0.80569 0.45293 0.0
C932 C 0.74973 0.79664 0.46502 0.0
C933 C 0.74327 0.773 0.48631 0.0
C934 C 0.71752 0.76566 0.49009 0.0
C935 C 0.69882 0.78194 0.4739 0.0
H936 H 0.28896 0.81732 0.07428 0.0
H937 H 0.34284 0.79291 0.00275 0.0
H938 H 0.25676 0.78605 0.04793 0.0
H939 H 0.31071 0.76253 0.97611 0.0
H940 H 0.26153 0.68005 0.95844 0.0
H941 H 0.29026 0.71407 0.98584 0.0
H942 H 0.22975 0.77955 0.00125 0.0
H943 H 0.2004 0.74468 0.97393 0.0
C944 C 0.29384 0.80563 0.05273 0.0
C945 C 0.31857 0.80733 0.0408 0.0
C946 C 0.27534 0.78781 0.03756 0.0
C947 C 0.28119 0.77134 0.01012 0.0
C948 C 0.30565 0.77423 0.9976 0.0
C949 C 0.32409 0.79185 0.01278 0.0
C950 C 0.25416 0.70165 0.96766 0.0
C951 C 0.22862 0.70973 0.9636 0.0
C952 C 0.27078 0.72133 0.98326 0.0
C953 C 0.26254 0.74995 0.9952 0.0
C954 C 0.23676 0.75769 0.99229 0.0
C955 C 0.21994 0.73773 0.97666 0.0
H956 H 0.73643 0.19192 0.57489 0.0
H957 H 0.68106 0.22058 0.50659 0.0
H958 H 0.76835 0.2237 0.54877 0.0
H959 H 0.71293 0.25147 0.48007 0.0
H960 H 0.82367 0.26624 0.47486 0.0
H961 H 0.79426 0.2313 0.50189 0.0
H962 H 0.73463 0.29881 0.49017 0.0
H963 H 0.76343 0.33289 0.46294 0.0
C964 C 0.73114 0.20469 0.55409 0.0
C965 C 0.70611 0.20397 0.543 0.0
C966 C 0.74948 0.2228 0.53903 0.0
C967 C 0.7432 0.24055 0.51253 0.0
C968 C 0.71836 0.23876 0.50086 0.0
C969 C 0.70006 0.22086 0.51596 0.0
C970 C 0.80432 0.27361 0.47834 0.0
C971 C 0.79589 0.30222 0.46637 0.0
C972 C 0.78745 0.25362 0.49382 0.0
C973 C 0.76188 0.26193 0.49769 0.0
C974 C 0.75391 0.29112 0.48682 0.0
C975 C 0.77058 0.31084 0.47134 0.0
H976 H 0.70353 0.78896 0.99755 0.0
H977 H 0.75641 0.79528 0.07411 0.0
H978 H 0.73386 0.7568 0.96869 0.0
H979 H 0.78559 0.76214 0.0467 0.0
H980 H 0.84625 0.73649 0.97928 0.0
H981 H 0.81379 0.76605 0.00582 0.0
H982 H 0.75623 0.70885 0.96322 0.0
H983 H 0.78909 0.68011 0.93523 0.0
C984 C 0.72135 0.78303 0.00844 0.0
C985 C 0.72759 0.79501 0.03801 0.0
C986 C 0.73875 0.76452 0.99198 0.0
C987 C 0.76254 0.75727 0.00501 0.0
C988 C 0.76796 0.768 0.03528 0.0
C989 C 0.75097 0.78683 0.05128 0.0
C990 C 0.82669 0.73011 0.97561 0.0
C991 C 0.82029 0.70578 0.95534 0.0
C992 C 0.80796 0.74698 0.99104 0.0
C993 C 0.78221 0.73966 0.9872 0.0
C994 C 0.77577 0.71538 0.96666 0.0
C995 C 0.79462 0.69873 0.95078 0.0
H996 H 0.3247 0.24571 0.52781 0.0
H997 H 0.26457 0.17974 0.54313 0.0
H998 H 0.29486 0.27992 0.50029 0.0
H999 H 0.23539 0.2131 0.51556 0.0
H1000 H 0.18166 0.29097 0.49874 0.0
H1001 H 0.21421 0.26114 0.5253 0.0
H1002 H 0.26776 0.28574 0.4534 0.0
H1003 H 0.2351 0.31649 0.4271 0.0
C1004 C 0.30529 0.23834 0.52503 0.0
C1005 C 0.29702 0.21015 0.53809 0.0
C1006 C 0.28818 0.25791 0.50927 0.0
C1007 C 0.26255 0.24958 0.50625 0.0
C1008 C 0.25473 0.2208 0.51822 0.0
C1009 C 0.27162 0.20151 0.53394 0.0
C1010 C 0.20039 0.29023 0.48864 0.0
C1011 C 0.20568 0.30589 0.46063 0.0
C1012 C 0.21908 0.27294 0.50379 0.0
C1013 C 0.24358 0.27054 0.49125 0.0
C1014 C 0.24916 0.28712 0.46378 0.0
C1015 C 0.2304 0.30462 0.44863 0.0
H1016 H 0.84448 0.27458 0.02211 0.0
H1017 H 0.78701 0.33051 0.06614 0.0
H1018 H 0.81224 0.24557 0.9946 0.0
H1019 H 0.75435 0.30223 0.03723 0.0
H1020 H 0.70236 0.22192 0.00082 0.0
H1021 H 0.73222 0.25388 0.0307 0.0
H1022 H 0.78437 0.25096 0.95315 0.0
H1023 H 0.75563 0.2181 0.92464 0.0
C1024 C 0.8249 0.28096 0.0256 0.0
C1025 C 0.81836 0.30504 0.04611 0.0
C1026 C 0.8063 0.26441 0.00962 0.0
C1027 C 0.78054 0.27178 0.01316 0.0
C1028 C 0.77393 0.29573 0.03399 0.0
C1029 C 0.79265 0.31209 0.05041 0.0
C1030 C 0.72016 0.22838 0.99023 0.0
C1031 C 0.72668 0.21713 0.96047 0.0
C1032 C 0.73728 0.24675 0.00728 0.0
C1033 C 0.76106 0.25455 0.99468 0.0
C1034 C 0.76673 0.24465 0.96421 0.0
C1035 C 0.75 0.22597 0.9476 0.0
H1036 H 0.18214 0.722 0.50607 0.0
H1037 H 0.23648 0.6945 0.57613 0.0
H1038 H 0.21455 0.75161 0.47921 0.0
H1039 H 0.26906 0.72497 0.54941 0.0
H1040 H 0.26515 0.8323 0.46138 0.0
H1041 H 0.23643 0.79938 0.49014 0.0
H1042 H 0.29511 0.73053 0.50093 0.0
H1043 H 0.32449 0.76424 0.47215 0.0
C1044 C 0.20105 0.72225 0.51576 0.0
C1045 C 0.20663 0.70613 0.54343 0.0
C1046 C 0.21965 0.7394 0.50043 0.0
C1047 C 0.24436 0.74114 0.51243 0.0
C1048 C 0.25026 0.72408 0.53951 0.0
C1049 C 0.23156 0.70675 0.55488 0.0
C1050 C 0.27212 0.8102 0.4699 0.0
C1051 C 0.2971 0.80076 0.46403 0.0
C1052 C 0.25552 0.79119 0.48629 0.0
C1053 C 0.26322 0.76195 0.49724 0.0
C1054 C 0.28855 0.75291 0.49272 0.0
C1055 C 0.30538 0.77219 0.47627 0.0
H1056 H 0.1486 0.58293 0.98256 0.0
H1057 H 0.22436 0.56488 0.94965 0.0
H1058 H 0.14815 0.53211 0.00819 0.0
H1059 H 0.22366 0.51436 0.97466 0.0
H1060 H 0.22396 0.44135 0.05189 0.0
H1061 H 0.2238 0.49183 0.02667 0.0
H1062 H 0.14771 0.47588 0.99412 0.0
H1063 H 0.14764 0.42519 0.01991 0.0
C1064 C 0.16521 0.56834 0.981 0.0
C1065 C 0.18654 0.57815 0.9641 0.0
C1066 C 0.16484 0.53907 0.99538 0.0
C1067 C 0.18584 0.51912 0.99337 0.0
C1068 C 0.20725 0.52921 0.97694 0.0
C1069 C 0.2076 0.55826 0.96251 0.0
C1070 C 0.20722 0.44835 0.03915 0.0
C1071 C 0.18583 0.42902 0.0379 0.0
C1072 C 0.20716 0.47736 0.02461 0.0
C1073 C 0.18571 0.48797 0.00846 0.0
C1074 C 0.16443 0.46854 0.00672 0.0
C1075 C 0.16451 0.43932 0.02118 0.0
H1076 H 0.88094 0.57879 0.54009 0.0
H1077 H 0.80134 0.58592 0.52023 0.0
H1078 H 0.8816 0.52662 0.51868 0.0
H1079 H 0.80212 0.5348 0.49609 0.0
H1080 H 0.80196 0.43206 0.48175 0.0
H1081 H 0.80278 0.48332 0.50555 0.0
H1082 H 0.88107 0.49334 0.47812 0.0
H1083 H 0.88046 0.44094 0.45704 0.0
C1084 C 0.86373 0.56947 0.53009 0.0
C1085 C 0.84112 0.58639 0.53162 0.0
C1086 C 0.86405 0.53943 0.51771 0.0
C1087 C 0.84185 0.52584 0.50571 0.0
C1088 C 0.81948 0.54368 0.50594 0.0
C1089 C 0.81904 0.57332 0.51927 0.0
C1090 C 0.81943 0.44512 0.48158 0.0
C1091 C 0.84121 0.43251 0.46801 0.0
C1092 C 0.81988 0.47483 0.4947 0.0
C1093 C 0.8419 0.49321 0.49349 0.0
C1094 C 0.86382 0.4801 0.48019 0.0
C1095 C 0.86355 0.44996 0.46802 0.0
H1096 H 0.84947 0.47088 0.08659 0.0
H1097 H 0.87589 0.41461 0.00984 0.0
H1098 H 0.84503 0.51512 0.05179 0.0
H1099 H 0.87252 0.45931 0.97507 0.0
H1100 H 0.8519 0.53936 0.91406 0.0
H1101 H 0.84652 0.49511 0.94859 0.0
H1102 H 0.87188 0.55079 0.02655 0.0
H1103 H 0.87619 0.59552 0.992 0.0
C1104 C 0.8542 0.46794 0.06216 0.0
C1105 C 0.86321 0.43932 0.05095 0.0
C1106 C 0.85185 0.49341 0.04225 0.0
C1107 C 0.85877 0.49106 0.01068 0.0
C1108 C 0.86674 0.46199 0.99917 0.0
C1109 C 0.86875 0.43631 0.01907 0.0
C1110 C 0.85599 0.54227 0.93868 0.0
C1111 C 0.86466 0.57087 0.95031 0.0
C1112 C 0.85308 0.51679 0.95845 0.0
C1113 C 0.8591 0.51911 0.99032 0.0
C1114 C 0.86678 0.54814 0.0022 0.0
C1115 C 0.86935 0.57383 0.98242 0.0
H1116 H 0.14852 0.41584 0.49533 0.0
H1117 H 0.17361 0.47026 0.41652 0.0
H1118 H 0.1526 0.46127 0.52891 0.0
H1119 H 0.17882 0.51522 0.45012 0.0
H1120 H 0.14861 0.59698 0.50881 0.0
H1121 H 0.15252 0.55156 0.47517 0.0
H1122 H 0.17906 0.49748 0.55381 0.0
H1123 H 0.17401 0.54241 0.58746 0.0
C1124 C 0.15552 0.4373 0.48538 0.0
C1125 C 0.16047 0.43959 0.4533 0.0
C1126 C 0.15796 0.46338 0.5046 0.0
C1127 C 0.16579 0.49214 0.49217 0.0
C1128 C 0.17213 0.49376 0.46037 0.0
C1129 C 0.16933 0.46789 0.44114 0.0
C1130 C 0.15564 0.57549 0.5187 0.0
C1131 C 0.16073 0.57315 0.55077 0.0
C1132 C 0.15798 0.54941 0.49945 0.0
C1133 C 0.16584 0.52062 0.51183 0.0
C1134 C 0.17233 0.51895 0.5436 0.0
C1135 C 0.16962 0.54482 0.56286 0.0
H1136 H 0.64348 0.07559 0.95843 0.0
H1137 H 0.72191 0.0848 0.98359 0.0
H1138 H 0.64321 0.02283 0.9783 0.0
H1139 H 0.7214 0.03299 0.00633 0.0
H1140 H 0.72347 0.92984 0.01821 0.0
H1141 H 0.7225 0.98177 0.9958 0.0
H1142 H 0.64278 0.98824 0.01747 0.0
H1143 H 0.64367 0.93537 0.03702 0.0
C1144 C 0.66044 0.0666 0.96937 0.0
C1145 C 0.68265 0.0843 0.96976 0.0
C1146 C 0.66037 0.0362 0.98085 0.0
C1147 C 0.68237 0.02297 0.99387 0.0
C1148 C 0.70425 0.04158 0.99565 0.0
C1149 C 0.7045 0.07162 0.98318 0.0
C1150 C 0.70568 0.94225 0.01734 0.0
C1151 C 0.68359 0.92848 0.02885 0.0
C1152 C 0.70512 0.97235 0.00504 0.0
C1153 C 0.68262 0.98995 0.00509 0.0
C1154 C 0.66044 0.97567 0.01628 0.0
C1155 C 0.66087 0.9452 0.02757 0.0
H1156 H 0.37738 0.92591 0.47948 0.0
H1157 H 0.30214 0.94558 0.44544 0.0
H1158 H 0.37831 0.97674 0.50512 0.0
H1159 H 0.30334 0.996 0.47038 0.0
H1160 H 0.30214 0.06686 0.5488 0.0
H1161 H 0.30281 0.0168 0.52308 0.0
H1162 H 0.37906 0.03373 0.49185 0.0
H1163 H 0.37864 0.08419 0.51829 0.0
C1164 C 0.36101 0.94088 0.47763 0.0
C1165 C 0.33963 0.93146 0.46052 0.0
C1166 C 0.36166 0.97013 0.492 0.0
C1167 C 0.3409 0.99042 0.48976 0.0
C1168 C 0.31954 0.98084 0.47288 0.0
C1169 C 0.3189 0.95183 0.4585 0.0
C1170 C 0.31907 0.06017 0.53631 0.0
C1171 C 0.34033 0.07972 0.53558 0.0
C1172 C 0.31939 0.0314 0.52146 0.0
C1173 C 0.34098 0.02123 0.50542 0.0
C1174 C 0.36223 0.0408 0.5043 0.0
C1175 C 0.36187 0.06984 0.51912 0.0
H1176 H 0.35757 0.97263 0.08982 0.0
H1177 H 0.37501 0.91688 0.00885 0.0
H1178 H 0.35219 0.01797 0.0568 0.0
H1179 H 0.37083 0.96268 0.97573 0.0
H1180 H 0.34751 0.04459 0.91911 0.0
H1181 H 0.34392 0.99992 0.95349 0.0
H1182 H 0.37692 0.05335 0.02865 0.0
H1183 H 0.37931 0.09854 0.9944 0.0
C1184 C 0.36026 0.97006 0.06488 0.0
C1185 C 0.36687 0.94118 0.05193 0.0
C1186 C 0.35734 0.99618 0.04594 0.0
C1187 C 0.36133 0.99425 0.01357 0.0
C1188 C 0.36724 0.96508 1.0005 0.0
C1189 C 0.36977 0.93877 0.01946 0.0
C1190 C 0.35358 0.04692 0.94317 0.0
C1191 C 0.36381 0.075 0.95408 0.0
C1192 C 0.35176 0.02119 0.96282 0.0
C1193 C 0.36053 0.0227 0.99376 0.0
C1194 C 0.36972 0.0513 0.00507 0.0
C1195 C 0.37115 0.07727 0.98547 0.0
H1196 H 0.67751 0.09368 0.51642 0.0
H1197 H 0.62577 0.04031 0.57305 0.0
H1198 H 0.68347 0.04868 0.48235 0.0
H1199 H 0.6312 0.99606 0.53892 0.0
H1200 H 0.65823 0.91234 0.48806 0.0
H1201 H 0.66075 0.95667 0.52354 0.0
H1202 H 0.6604 0.01917 0.44452 0.0
H1203 H 0.65884 0.97532 0.40934 0.0
C1204 C 0.66724 0.07252 0.5214 0.0
C1205 C 0.65118 0.07062 0.54742 0.0
C1206 C 0.67069 0.04671 0.50199 0.0
C1207 C 0.65804 0.0186 0.50813 0.0
C1208 C 0.64178 0.01699 0.53394 0.0
C1209 C 0.63845 0.04258 0.55333 0.0
C1210 C 0.65916 0.93551 0.47831 0.0
C1211 C 0.65789 0.94022 0.4459 0.0
C1212 C 0.66041 0.96094 0.49861 0.0
C1213 C 0.66039 0.99152 0.48686 0.0
C1214 C 0.66059 0.99603 0.45442 0.0
C1215 C 0.65942 0.97074 0.43422 0.0
loop_
_geom_bond_atom_site_label_1
_geom_bond_atom_site_label_2
_geom_bond_distance
_geom_bond_site_symmetry_2
_ccdc_geom_bond_type
Mn0 O5 2.095 . S
Mn0 O15 2.162 . S
Mn0 O16 2.297 . S
Mn0 O24 2.385 . S
Mn0 O25 2.209 . S
Mn0 O26 2.094 . S
Mn1 O6 2.121 . S
Mn1 N8 2.257 . S
Mn1 N17 2.282 . S
Mn1 O25 2.215 . S
Mn1 O27 2.117 . S
C2 O24 1.234 . S
C2 O25 1.283 . S
C3 O15 1.281 . S
C3 O16 1.236 . S
C4 O26 1.240 . S
C4 O27 1.264 . S
O5 Mn0 2.095 . S
O5 C14 1.250 . S
O6 Mn1 2.121 . S
O6 C14 1.258 . S
C7 N8 1.326 . S
C7 C11 1.460 . S
C7 H13 0.929 . S
N8 Mn1 2.257 . S
N8 C7 1.326 . S
N8 C12 1.362 . S
C9 C10 1.258 . S
C9 C12 1.431 . S
C9 C29 1.449 . S
C10 C9 1.258 . S
C10 C11 1.477 . S
C10 H30 0.931 . S
C11 C7 1.460 . S
C11 C10 1.477 . S
C11 H31 0.930 . S
C12 N8 1.362 . S
C12 C9 1.431 . S
C12 C22 1.476 . S
H13 C7 0.929 . S
C14 O5 1.250 . S
C14 O6 1.258 . S
O15 Mn0 2.162 . S
O15 C3 1.281 . S
O16 Mn0 2.297 . S
O16 C3 1.236 . S
N17 Mn1 2.282 . S
N17 C18 1.328 . S
N17 C22 1.318 . S
C18 N17 1.328 . S
C18 C19 1.457 . S
C18 H23 0.929 . S
C19 C18 1.457 . S
C19 C20 1.291 . S
C19 H32 0.931 . S
C20 C19 1.291 . S
C20 C21 1.373 . S
C20 H33 0.929 . S
C21 C20 1.373 . S
C21 C22 1.396 . S
C21 C28 1.403 . S
C22 C12 1.476 . S
C22 N17 1.318 . S
C22 C21 1.396 . S
H23 C18 0.929 . S
O24 Mn0 2.385 . S
O24 C2 1.234 . S
O25 Mn0 2.209 . S
O25 Mn1 2.215 . S
O25 C2 1.283 . S
O26 Mn0 2.094 . S
O26 C4 1.240 . S
O27 Mn1 2.117 . S
O27 C4 1.264 . S
C28 C21 1.403 . S
C28 C29 1.399 . S
C28 H34 0.929 . S
C29 C9 1.449 . S
C29 C28 1.399 . S
C29 H35 0.930 . S
H30 C10 0.931 . S
H31 C11 0.930 . S
H32 C19 0.931 . S
H33 C20 0.929 . S
H34 C28 0.929 . S
H35 C29 0.930 . S
Mn36 O41 2.095 . S
Mn36 O51 2.162 . S
Mn36 O52 2.297 . S
Mn36 O60 2.385 . S
Mn36 O61 2.209 . S
Mn36 O62 2.094 . S
Mn37 O42 2.121 . S
Mn37 N44 2.257 . S
Mn37 N53 2.282 . S
Mn37 O61 2.215 . S
Mn37 O63 2.117 . S
C38 O60 1.234 . S
C38 O61 1.283 . S
C39 O51 1.281 . S
C39 O52 1.236 . S
C40 O62 1.240 . S
C40 O63 1.264 . S
O41 Mn36 2.095 . S
O41 C50 1.250 . S
O42 Mn37 2.121 . S
O42 C50 1.258 . S
C43 N44 1.326 . S
C43 C47 1.460 . S
C43 H49 0.929 . S
N44 Mn37 2.257 . S
N44 C43 1.326 . S
N44 C48 1.362 . S
C45 C46 1.258 . S
C45 C48 1.431 . S
C45 C65 1.449 . S
C46 C45 1.258 . S
C46 C47 1.477 . S
C46 H66 0.931 . S
C47 C43 1.460 . S
C47 C46 1.477 . S
C47 H67 0.930 . S
C48 N44 1.362 . S
C48 C45 1.431 . S
C48 C58 1.476 . S
H49 C43 0.929 . S
C50 O41 1.250 . S
C50 O42 1.258 . S
O51 Mn36 2.162 . S
O51 C39 1.281 . S
O52 Mn36 2.297 . S
O52 C39 1.236 . S
N53 Mn37 2.282 . S
N53 C54 1.328 . S
N53 C58 1.318 . S
C54 N53 1.328 . S
C54 C55 1.457 . S
C54 H59 0.929 . S
C55 C54 1.457 . S
C55 C56 1.291 . S
C55 H68 0.931 . S
C56 C55 1.291 . S
C56 C57 1.373 . S
C56 H69 0.929 . S
C57 C56 1.373 . S
C57 C58 1.396 . S
C57 C64 1.403 . S
C58 C48 1.476 . S
C58 N53 1.318 . S
C58 C57 1.396 . S
H59 C54 0.929 . S
O60 Mn36 2.385 . S
O60 C38 1.234 . S
O61 Mn36 2.209 . S
O61 Mn37 2.215 . S
O61 C38 1.283 . S
O62 Mn36 2.094 . S
O62 C40 1.240 . S
O63 Mn37 2.117 . S
O63 C40 1.264 . S
C64 C57 1.403 . S
C64 C65 1.399 . S
C64 H70 0.929 . S
C65 C45 1.449 . S
C65 C64 1.399 . S
C65 H71 0.930 . S
H66 C46 0.931 . S
H67 C47 0.930 . S
H68 C55 0.931 . S
H69 C56 0.929 . S
H70 C64 0.929 . S
H71 C65 0.930 . S
Mn72 O77 2.095 . S
Mn72 O87 2.162 . S
Mn72 O88 2.297 . S
Mn72 O96 2.385 . S
Mn72 O97 2.209 . S
Mn72 O98 2.094 . S
Mn73 O78 2.121 . S
Mn73 N80 2.257 . S
Mn73 N89 2.282 . S
Mn73 O97 2.215 . S
Mn73 O99 2.117 . S
C74 O96 1.234 . S
C74 O97 1.283 . S
C75 O87 1.281 . S
C75 O88 1.236 . S
C76 O98 1.240 . S
C76 O99 1.264 . S
O77 Mn72 2.095 . S
O77 C86 1.250 . S
O78 Mn73 2.121 . S
O78 C86 1.258 . S
C79 N80 1.326 . S
C79 C83 1.460 . S
C79 H85 0.929 . S
N80 Mn73 2.257 . S
N80 C79 1.326 . S
N80 C84 1.362 . S
C81 C82 1.258 . S
C81 C84 1.431 . S
C81 C101 1.449 . S
C82 C81 1.258 . S
C82 C83 1.477 . S
C82 H102 0.931 . S
C83 C79 1.460 . S
C83 C82 1.477 . S
C83 H103 0.930 . S
C84 N80 1.362 . S
C84 C81 1.431 . S
C84 C94 1.476 . S
H85 C79 0.929 . S
C86 O77 1.250 . S
C86 O78 1.258 . S
O87 Mn72 2.162 . S
O87 C75 1.281 . S
O88 Mn72 2.297 . S
O88 C75 1.236 . S
N89 Mn73 2.282 . S
N89 C90 1.328 . S
N89 C94 1.318 . S
C90 N89 1.328 . S
C90 C91 1.457 . S
C90 H95 0.929 . S
C91 C90 1.457 . S
C91 C92 1.291 . S
C91 H104 0.931 . S
C92 C91 1.291 . S
C92 C93 1.373 . S
C92 H105 0.929 . S
C93 C92 1.373 . S
C93 C94 1.396 . S
C93 C100 1.403 . S
C94 C84 1.476 . S
C94 N89 1.318 . S
C94 C93 1.396 . S
H95 C90 0.929 . S
O96 Mn72 2.385 . S
O96 C74 1.234 . S
O97 Mn72 2.209 . S
O97 Mn73 2.215 . S
O97 C74 1.283 . S
O98 Mn72 2.094 . S
O98 C76 1.240 . S
O99 Mn73 2.117 . S
O99 C76 1.264 . S
C100 C93 1.403 . S
C100 C101 1.399 . S
C100 H106 0.929 . S
C101 C81 1.449 . S
C101 C100 1.399 . S
C101 H107 0.930 . S
H102 C82 0.931 . S
H103 C83 0.930 . S
H104 C91 0.931 . S
H105 C92 0.929 . S
H106 C100 0.929 . S
H107 C101 0.930 . S
Mn108 O113 2.095 . S
Mn108 O123 2.162 . S
Mn108 O124 2.297 . S
Mn108 O132 2.385 . S
Mn108 O133 2.209 . S
Mn108 O134 2.094 . S
Mn109 O114 2.121 . S
Mn109 N116 2.257 . S
Mn109 N125 2.282 . S
Mn109 O133 2.215 . S
Mn109 O135 2.117 . S
C110 O132 1.234 . S
C110 O133 1.283 . S
C111 O123 1.281 . S
C111 O124 1.236 . S
C112 O134 1.240 . S
C112 O135 1.264 . S
O113 Mn108 2.095 . S
O113 C122 1.250 . S
O114 Mn109 2.121 . S
O114 C122 1.258 . S
C115 N116 1.326 . S
C115 C119 1.460 . S
C115 H121 0.929 . S
N116 Mn109 2.257 . S
N116 C115 1.326 . S
N116 C120 1.362 . S
C117 C118 1.258 . S
C117 C120 1.431 . S
C117 C137 1.449 . S
C118 C117 1.258 . S
C118 C119 1.477 . S
C118 H138 0.931 . S
C119 C115 1.460 . S
C119 C118 1.477 . S
C119 H139 0.930 . S
C120 N116 1.362 . S
C120 C117 1.431 . S
C120 C130 1.476 . S
H121 C115 0.929 . S
C122 O113 1.250 . S
C122 O114 1.258 . S
O123 Mn108 2.162 . S
O123 C111 1.281 . S
O124 Mn108 2.297 . S
O124 C111 1.236 . S
N125 Mn109 2.282 . S
N125 C126 1.328 . S
N125 C130 1.318 . S
C126 N125 1.328 . S
C126 C127 1.457 . S
C126 H131 0.929 . S
C127 C126 1.457 . S
C127 C128 1.291 . S
C127 H140 0.931 . S
C128 C127 1.291 . S
C128 C129 1.373 . S
C128 H141 0.929 . S
C129 C128 1.373 . S
C129 C130 1.396 . S
C129 C136 1.403 . S
C130 C120 1.476 . S
C130 N125 1.318 . S
C130 C129 1.396 . S
H131 C126 0.929 . S
O132 Mn108 2.385 . S
O132 C110 1.234 . S
O133 Mn108 2.209 . S
O133 Mn109 2.215 . S
O133 C110 1.283 . S
O134 Mn108 2.094 . S
O134 C112 1.240 . S
O135 Mn109 2.117 . S
O135 C112 1.264 . S
C136 C129 1.403 . S
C136 C137 1.399 . S
C136 H142 0.929 . S
C137 C117 1.449 . S
C137 C136 1.399 . S
C137 H143 0.930 . S
H138 C118 0.931 . S
H139 C119 0.930 . S
H140 C127 0.931 . S
H141 C128 0.929 . S
H142 C136 0.929 . S
H143 C137 0.930 . S
Mn144 O149 2.095 . S
Mn144 O159 2.162 . S
Mn144 O160 2.297 . S
Mn144 O168 2.385 . S
Mn144 O169 2.209 . S
Mn144 O170 2.094 . S
Mn145 O150 2.121 . S
Mn145 N152 2.257 . S
Mn145 N161 2.282 . S
Mn145 O169 2.215 . S
Mn145 O171 2.117 . S
C146 O168 1.234 . S
C146 O169 1.283 . S
C147 O159 1.281 . S
C147 O160 1.236 . S
C148 O170 1.240 . S
C148 O171 1.264 . S
O149 Mn144 2.095 . S
O149 C158 1.250 . S
O150 Mn145 2.121 . S
O150 C158 1.258 . S
C151 N152 1.326 . S
C151 C155 1.460 . S
C151 H157 0.929 . S
N152 Mn145 2.257 . S
N152 C151 1.326 . S
N152 C156 1.362 . S
C153 C154 1.258 . S
C153 C156 1.431 . S
C153 C173 1.449 . S
C154 C153 1.258 . S
C154 C155 1.477 . S
C154 H174 0.931 . S
C155 C151 1.460 . S
C155 C154 1.477 . S
C155 H175 0.930 . S
C156 N152 1.362 . S
C156 C153 1.431 . S
C156 C166 1.476 . S
H157 C151 0.929 . S
C158 O149 1.250 . S
C158 O150 1.258 . S
O159 Mn144 2.162 . S
O159 C147 1.281 . S
O160 Mn144 2.297 . S
O160 C147 1.236 . S
N161 Mn145 2.282 . S
N161 C162 1.328 . S
N161 C166 1.318 . S
C162 N161 1.328 . S
C162 C163 1.457 . S
C162 H167 0.929 . S
C163 C162 1.457 . S
C163 C164 1.291 . S
C163 H176 0.931 . S
C164 C163 1.291 . S
C164 C165 1.373 . S
C164 H177 0.929 . S
C165 C164 1.373 . S
C165 C166 1.396 . S
C165 C172 1.403 . S
C166 C156 1.476 . S
C166 N161 1.318 . S
C166 C165 1.396 . S
H167 C162 0.929 . S
O168 Mn144 2.385 . S
O168 C146 1.234 . S
O169 Mn144 2.209 . S
O169 Mn145 2.215 . S
O169 C146 1.283 . S
O170 Mn144 2.094 . S
O170 C148 1.240 . S
O171 Mn145 2.117 . S
O171 C148 1.264 . S
C172 C165 1.403 . S
C172 C173 1.399 . S
C172 H178 0.929 . S
C173 C153 1.449 . S
C173 C172 1.399 . S
C173 H179 0.930 . S
H174 C154 0.931 . S
H175 C155 0.930 . S
H176 C163 0.931 . S
H177 C164 0.929 . S
H178 C172 0.929 . S
H179 C173 0.930 . S
Mn180 O185 2.095 . S
Mn180 O195 2.162 . S
Mn180 O196 2.297 . S
Mn180 O204 2.385 . S
Mn180 O205 2.209 . S
Mn180 O206 2.094 . S
Mn181 O186 2.121 . S
Mn181 N188 2.257 . S
Mn181 N197 2.282 . S
Mn181 O205 2.215 . S
Mn181 O207 2.117 . S
C182 O204 1.234 . S
C182 O205 1.283 . S
C183 O195 1.281 . S
C183 O196 1.236 . S
C184 O206 1.240 . S
C184 O207 1.264 . S
O185 Mn180 2.095 . S
O185 C194 1.250 . S
O186 Mn181 2.121 . S
O186 C194 1.258 . S
C187 N188 1.326 . S
C187 C191 1.460 . S
C187 H193 0.929 . S
N188 Mn181 2.257 . S
N188 C187 1.326 . S
N188 C192 1.362 . S
C189 C190 1.258 . S
C189 C192 1.431 . S
C189 C209 1.449 . S
C190 C189 1.258 . S
C190 C191 1.477 . S
C190 H210 0.931 . S
C191 C187 1.460 . S
C191 C190 1.477 . S
C191 H211 0.930 . S
C192 N188 1.362 . S
C192 C189 1.431 . S
C192 C202 1.476 . S
H193 C187 0.929 . S
C194 O185 1.250 . S
C194 O186 1.258 . S
O195 Mn180 2.162 . S
O195 C183 1.281 . S
O196 Mn180 2.297 . S
O196 C183 1.236 . S
N197 Mn181 2.282 . S
N197 C198 1.328 . S
N197 C202 1.318 . S
C198 N197 1.328 . S
C198 C199 1.457 . S
C198 H203 0.929 . S
C199 C198 1.457 . S
C199 C200 1.291 . S
C199 H212 0.931 . S
C200 C199 1.291 . S
C200 C201 1.373 . S
C200 H213 0.929 . S
C201 C200 1.373 . S
C201 C202 1.396 . S
C201 C208 1.403 . S
C202 C192 1.476 . S
C202 N197 1.318 . S
C202 C201 1.396 . S
H203 C198 0.929 . S
O204 Mn180 2.385 . S
O204 C182 1.234 . S
O205 Mn180 2.209 . S
O205 Mn181 2.215 . S
O205 C182 1.283 . S
O206 Mn180 2.094 . S
O206 C184 1.240 . S
O207 Mn181 2.117 . S
O207 C184 1.264 . S
C208 C201 1.403 . S
C208 C209 1.399 . S
C208 H214 0.929 . S
C209 C189 1.449 . S
C209 C208 1.399 . S
C209 H215 0.930 . S
H210 C190 0.931 . S
H211 C191 0.930 . S
H212 C199 0.931 . S
H213 C200 0.929 . S
H214 C208 0.929 . S
H215 C209 0.930 . S
Mn216 O221 2.095 . S
Mn216 O231 2.162 . S
Mn216 O232 2.297 . S
Mn216 O240 2.385 . S
Mn216 O241 2.209 . S
Mn216 O242 2.094 . S
Mn217 O222 2.121 . S
Mn217 N224 2.257 . S
Mn217 N233 2.282 . S
Mn217 O241 2.215 . S
Mn217 O243 2.117 . S
C218 O240 1.234 . S
C218 O241 1.283 . S
C219 O231 1.281 . S
C219 O232 1.236 . S
C220 O242 1.240 . S
C220 O243 1.264 . S
O221 Mn216 2.095 . S
O221 C230 1.250 . S
O222 Mn217 2.121 . S
O222 C230 1.258 . S
C223 N224 1.326 . S
C223 C227 1.460 . S
C223 H229 0.929 . S
N224 Mn217 2.257 . S
N224 C223 1.326 . S
N224 C228 1.362 . S
C225 C226 1.258 . S
C225 C228 1.431 . S
C225 C245 1.449 . S
C226 C225 1.258 . S
C226 C227 1.477 . S
C226 H246 0.931 . S
C227 C223 1.460 . S
C227 C226 1.477 . S
C227 H247 0.930 . S
C228 N224 1.362 . S
C228 C225 1.431 . S
C228 C238 1.476 . S
H229 C223 0.929 . S
C230 O221 1.250 . S
C230 O222 1.258 . S
O231 Mn216 2.162 . S
O231 C219 1.281 . S
O232 Mn216 2.297 . S
O232 C219 1.236 . S
N233 Mn217 2.282 . S
N233 C234 1.328 . S
N233 C238 1.318 . S
C234 N233 1.328 . S
C234 C235 1.457 . S
C234 H239 0.929 . S
C235 C234 1.457 . S
C235 C236 1.291 . S
C235 H248 0.931 . S
C236 C235 1.291 . S
C236 C237 1.373 . S
C236 H249 0.929 . S
C237 C236 1.373 . S
C237 C238 1.396 . S
C237 C244 1.403 . S
C238 C228 1.476 . S
C238 N233 1.318 . S
C238 C237 1.396 . S
H239 C234 0.929 . S
O240 Mn216 2.385 . S
O240 C218 1.234 . S
O241 Mn216 2.209 . S
O241 Mn217 2.215 . S
O241 C218 1.283 . S
O242 Mn216 2.094 . S
O242 C220 1.240 . S
O243 Mn217 2.117 . S
O243 C220 1.264 . S
C244 C237 1.403 . S
C244 C245 1.399 . S
C244 H250 0.929 . S
C245 C225 1.449 . S
C245 C244 1.399 . S
C245 H251 0.930 . S
H246 C226 0.931 . S
H247 C227 0.930 . S
H248 C235 0.931 . S
H249 C236 0.929 . S
H250 C244 0.929 . S
H251 C245 0.930 . S
Mn252 O257 2.095 . S
Mn252 O267 2.162 . S
Mn252 O268 2.297 . S
Mn252 O276 2.385 . S
Mn252 O277 2.209 . S
Mn252 O278 2.094 . S
Mn253 O258 2.121 . S
Mn253 N260 2.257 . S
Mn253 N269 2.282 . S
Mn253 O277 2.215 . S
Mn253 O279 2.117 . S
C254 O276 1.234 . S
C254 O277 1.283 . S
C255 O267 1.281 . S
C255 O268 1.236 . S
C256 O278 1.240 . S
C256 O279 1.264 . S
O257 Mn252 2.095 . S
O257 C266 1.250 . S
O258 Mn253 2.121 . S
O258 C266 1.258 . S
C259 N260 1.326 . S
C259 C263 1.460 . S
C259 H265 0.929 . S
N260 Mn253 2.257 . S
N260 C259 1.326 . S
N260 C264 1.362 . S
C261 C262 1.258 . S
C261 C264 1.431 . S
C261 C281 1.449 . S
C262 C261 1.258 . S
C262 C263 1.477 . S
C262 H282 0.931 . S
C263 C259 1.460 . S
C263 C262 1.477 . S
C263 H283 0.930 . S
C264 N260 1.362 . S
C264 C261 1.431 . S
C264 C274 1.476 . S
H265 C259 0.929 . S
C266 O257 1.250 . S
C266 O258 1.258 . S
O267 Mn252 2.162 . S
O267 C255 1.281 . S
O268 Mn252 2.297 . S
O268 C255 1.236 . S
N269 Mn253 2.282 . S
N269 C270 1.328 . S
N269 C274 1.318 . S
C270 N269 1.328 . S
C270 C271 1.457 . S
C270 H275 0.929 . S
C271 C270 1.457 . S
C271 C272 1.291 . S
C271 H284 0.931 . S
C272 C271 1.291 . S
C272 C273 1.373 . S
C272 H285 0.929 . S
C273 C272 1.373 . S
C273 C274 1.396 . S
C273 C280 1.403 . S
C274 C264 1.476 . S
C274 N269 1.318 . S
C274 C273 1.396 . S
H275 C270 0.929 . S
O276 Mn252 2.385 . S
O276 C254 1.234 . S
O277 Mn252 2.209 . S
O277 Mn253 2.215 . S
O277 C254 1.283 . S
O278 Mn252 2.094 . S
O278 C256 1.240 . S
O279 Mn253 2.117 . S
O279 C256 1.264 . S
C280 C273 1.403 . S
C280 C281 1.399 . S
C280 H286 0.929 . S
C281 C261 1.449 . S
C281 C280 1.399 . S
C281 H287 0.930 . S
H282 C262 0.931 . S
H283 C263 0.930 . S
H284 C271 0.931 . S
H285 C272 0.929 . S
H286 C280 0.929 . S
H287 C281 0.930 . S
Mn288 O293 2.095 . S
Mn288 O303 2.162 . S
Mn288 O304 2.297 . S
Mn288 O312 2.385 . S
Mn288 O313 2.209 . S
Mn288 O314 2.094 . S
Mn289 O294 2.121 . S
Mn289 N296 2.257 . S
Mn289 N305 2.282 . S
Mn289 O313 2.215 . S
Mn289 O315 2.117 . S
C290 O312 1.234 . S
C290 O313 1.283 . S
C291 O303 1.281 . S
C291 O304 1.236 . S
C292 O314 1.240 . S
C292 O315 1.264 . S
O293 Mn288 2.095 . S
O293 C302 1.250 . S
O294 Mn289 2.121 . S
O294 C302 1.258 . S
C295 N296 1.326 . S
C295 C299 1.460 . S
C295 H301 0.929 . S
N296 Mn289 2.257 . S
N296 C295 1.326 . S
N296 C300 1.362 . S
C297 C298 1.258 . S
C297 C300 1.431 . S
C297 C317 1.449 . S
C298 C297 1.258 . S
C298 C299 1.477 . S
C298 H318 0.931 . S
C299 C295 1.460 . S
C299 C298 1.477 . S
C299 H319 0.930 . S
C300 N296 1.362 . S
C300 C297 1.431 . S
C300 C310 1.476 . S
H301 C295 0.929 . S
C302 O293 1.250 . S
C302 O294 1.258 . S
O303 Mn288 2.162 . S
O303 C291 1.281 . S
O304 Mn288 2.297 . S
O304 C291 1.236 . S
N305 Mn289 2.282 . S
N305 C306 1.328 . S
N305 C310 1.318 . S
C306 N305 1.328 . S
C306 C307 1.457 . S
C306 H311 0.929 . S
C307 C306 1.457 . S
C307 C308 1.291 . S
C307 H320 0.931 . S
C308 C307 1.291 . S
C308 C309 1.373 . S
C308 H321 0.929 . S
C309 C308 1.373 . S
C309 C310 1.396 . S
C309 C316 1.403 . S
C310 C300 1.476 . S
C310 N305 1.318 . S
C310 C309 1.396 . S
H311 C306 0.929 . S
O312 Mn288 2.385 . S
O312 C290 1.234 . S
O313 Mn288 2.209 . S
O313 Mn289 2.215 . S
O313 C290 1.283 . S
O314 Mn288 2.094 . S
O314 C292 1.240 . S
O315 Mn289 2.117 . S
O315 C292 1.264 . S
C316 C309 1.403 . S
C316 C317 1.399 . S
C316 H322 0.929 . S
C317 C297 1.449 . S
C317 C316 1.399 . S
C317 H323 0.930 . S
H318 C298 0.931 . S
H319 C299 0.930 . S
H320 C307 0.931 . S
H321 C308 0.929 . S
H322 C316 0.929 . S
H323 C317 0.930 . S
Mn324 O329 2.095 . S
Mn324 O339 2.162 . S
Mn324 O340 2.297 . S
Mn324 O348 2.385 . S
Mn324 O349 2.209 . S
Mn324 O350 2.094 . S
Mn325 O330 2.121 . S
Mn325 N332 2.257 . S
Mn325 N341 2.282 . S
Mn325 O349 2.215 . S
Mn325 O351 2.117 . S
C326 O348 1.234 . S
C326 O349 1.283 . S
C327 O339 1.281 . S
C327 O340 1.236 . S
C328 O350 1.240 . S
C328 O351 1.264 . S
O329 Mn324 2.095 . S
O329 C338 1.250 . S
O330 Mn325 2.121 . S
O330 C338 1.258 . S
C331 N332 1.326 . S
C331 C335 1.460 . S
C331 H337 0.929 . S
N332 Mn325 2.257 . S
N332 C331 1.326 . S
N332 C336 1.362 . S
C333 C334 1.258 . S
C333 C336 1.431 . S
C333 C353 1.449 . S
C334 C333 1.258 . S
C334 C335 1.477 . S
C334 H354 0.931 . S
C335 C331 1.460 . S
C335 C334 1.477 . S
C335 H355 0.930 . S
C336 N332 1.362 . S
C336 C333 1.431 . S
C336 C346 1.476 . S
H337 C331 0.929 . S
C338 O329 1.250 . S
C338 O330 1.258 . S
O339 Mn324 2.162 . S
O339 C327 1.281 . S
O340 Mn324 2.297 . S
O340 C327 1.236 . S
N341 Mn325 2.282 . S
N341 C342 1.328 . S
N341 C346 1.318 . S
C342 N341 1.328 . S
C342 C343 1.457 . S
C342 H347 0.929 . S
C343 C342 1.457 . S
C343 C344 1.291 . S
C343 H356 0.931 . S
C344 C343 1.291 . S
C344 C345 1.373 . S
C344 H357 0.929 . S
C345 C344 1.373 . S
C345 C346 1.396 . S
C345 C352 1.403 . S
C346 C336 1.476 . S
C346 N341 1.318 . S
C346 C345 1.396 . S
H347 C342 0.929 . S
O348 Mn324 2.385 . S
O348 C326 1.234 . S
O349 Mn324 2.209 . S
O349 Mn325 2.215 . S
O349 C326 1.283 . S
O350 Mn324 2.094 . S
O350 C328 1.240 . S
O351 Mn325 2.117 . S
O351 C328 1.264 . S
C352 C345 1.403 . S
C352 C353 1.399 . S
C352 H358 0.929 . S
C353 C333 1.449 . S
C353 C352 1.399 . S
C353 H359 0.930 . S
H354 C334 0.931 . S
H355 C335 0.930 . S
H356 C343 0.931 . S
H357 C344 0.929 . S
H358 C352 0.929 . S
H359 C353 0.930 . S
Mn360 O365 2.095 . S
Mn360 O375 2.162 . S
Mn360 O376 2.297 . S
Mn360 O384 2.385 . S
Mn360 O385 2.209 . S
Mn360 O386 2.094 . S
Mn361 O366 2.121 . S
Mn361 N368 2.257 . S
Mn361 N377 2.282 . S
Mn361 O385 2.215 . S
Mn361 O387 2.117 . S
C362 O384 1.234 . S
C362 O385 1.283 . S
C363 O375 1.281 . S
C363 O376 1.236 . S
C364 O386 1.240 . S
C364 O387 1.264 . S
O365 Mn360 2.095 . S
O365 C374 1.250 . S
O366 Mn361 2.121 . S
O366 C374 1.258 . S
C367 N368 1.326 . S
C367 C371 1.460 . S
C367 H373 0.929 . S
N368 Mn361 2.257 . S
N368 C367 1.326 . S
N368 C372 1.362 . S
C369 C370 1.258 . S
C369 C372 1.431 . S
C369 C389 1.449 . S
C370 C369 1.258 . S
C370 C371 1.477 . S
C370 H390 0.931 . S
C371 C367 1.460 . S
C371 C370 1.477 . S
C371 H391 0.930 . S
C372 N368 1.362 . S
C372 C369 1.431 . S
C372 C382 1.476 . S
H373 C367 0.929 . S
C374 O365 1.250 . S
C374 O366 1.258 . S
O375 Mn360 2.162 . S
O375 C363 1.281 . S
O376 Mn360 2.297 . S
O376 C363 1.236 . S
N377 Mn361 2.282 . S
N377 C378 1.328 . S
N377 C382 1.318 . S
C378 N377 1.328 . S
C378 C379 1.457 . S
C378 H383 0.929 . S
C379 C378 1.457 . S
C379 C380 1.291 . S
C379 H392 0.931 . S
C380 C379 1.291 . S
C380 C381 1.373 . S
C380 H393 0.929 . S
C381 C380 1.373 . S
C381 C382 1.396 . S
C381 C388 1.403 . S
C382 C372 1.476 . S
C382 N377 1.318 . S
C382 C381 1.396 . S
H383 C378 0.929 . S
O384 Mn360 2.385 . S
O384 C362 1.234 . S
O385 Mn360 2.209 . S
O385 Mn361 2.215 . S
O385 C362 1.283 . S
O386 Mn360 2.094 . S
O386 C364 1.240 . S
O387 Mn361 2.117 . S
O387 C364 1.264 . S
C388 C381 1.403 . S
C388 C389 1.399 . S
C388 H394 0.929 . S
C389 C369 1.449 . S
C389 C388 1.399 . S
C389 H395 0.930 . S
H390 C370 0.931 . S
H391 C371 0.930 . S
H392 C379 0.931 . S
H393 C380 0.929 . S
H394 C388 0.929 . S
H395 C389 0.930 . S
Mn396 O401 2.095 . S
Mn396 O411 2.162 . S
Mn396 O412 2.297 . S
Mn396 O420 2.385 . S
Mn396 O421 2.209 . S
Mn396 O422 2.094 . S
Mn397 O402 2.121 . S
Mn397 N404 2.257 . S
Mn397 N413 2.282 . S
Mn397 O421 2.215 . S
Mn397 O423 2.117 . S
C398 O420 1.234 . S
C398 O421 1.283 . S
C399 O411 1.281 . S
C399 O412 1.236 . S
C400 O422 1.240 . S
C400 O423 1.264 . S
O401 Mn396 2.095 . S
O401 C410 1.250 . S
O402 Mn397 2.121 . S
O402 C410 1.258 . S
C403 N404 1.326 . S
C403 C407 1.460 . S
C403 H409 0.929 . S
N404 Mn397 2.257 . S
N404 C403 1.326 . S
N404 C408 1.362 . S
C405 C406 1.258 . S
C405 C408 1.431 . S
C405 C425 1.449 . S
C406 C405 1.258 . S
C406 C407 1.477 . S
C406 H426 0.931 . S
C407 C403 1.460 . S
C407 C406 1.477 . S
C407 H427 0.930 . S
C408 N404 1.362 . S
C408 C405 1.431 . S
C408 C418 1.476 . S
H409 C403 0.929 . S
C410 O401 1.250 . S
C410 O402 1.258 . S
O411 Mn396 2.162 . S
O411 C399 1.281 . S
O412 Mn396 2.297 . S
O412 C399 1.236 . S
N413 Mn397 2.282 . S
N413 C414 1.328 . S
N413 C418 1.318 . S
C414 N413 1.328 . S
C414 C415 1.457 . S
C414 H419 0.929 . S
C415 C414 1.457 . S
C415 C416 1.291 . S
C415 H428 0.931 . S
C416 C415 1.291 . S
C416 C417 1.373 . S
C416 H429 0.929 . S
C417 C416 1.373 . S
C417 C418 1.396 . S
C417 C424 1.403 . S
C418 C408 1.476 . S
C418 N413 1.318 . S
C418 C417 1.396 . S
H419 C414 0.929 . S
O420 Mn396 2.385 . S
O420 C398 1.234 . S
O421 Mn396 2.209 . S
O421 Mn397 2.215 . S
O421 C398 1.283 . S
O422 Mn396 2.094 . S
O422 C400 1.240 . S
O423 Mn397 2.117 . S
O423 C400 1.264 . S
C424 C417 1.403 . S
C424 C425 1.399 . S
C424 H430 0.929 . S
C425 C405 1.449 . S
C425 C424 1.399 . S
C425 H431 0.930 . S
H426 C406 0.931 . S
H427 C407 0.930 . S
H428 C415 0.931 . S
H429 C416 0.929 . S
H430 C424 0.929 . S
H431 C425 0.930 . S
Mn432 O437 2.095 . S
Mn432 O447 2.162 . S
Mn432 O448 2.297 . S
Mn432 O456 2.385 . S
Mn432 O457 2.209 . S
Mn432 O458 2.094 . S
Mn433 O438 2.121 . S
Mn433 N440 2.257 . S
Mn433 N449 2.282 . S
Mn433 O457 2.215 . S
Mn433 O459 2.117 . S
C434 O456 1.234 . S
C434 O457 1.283 . S
C435 O447 1.281 . S
C435 O448 1.236 . S
C436 O458 1.240 . S
C436 O459 1.264 . S
O437 Mn432 2.095 . S
O437 C446 1.250 . S
O438 Mn433 2.121 . S
O438 C446 1.258 . S
C439 N440 1.326 . S
C439 C443 1.460 . S
C439 H445 0.929 . S
N440 Mn433 2.257 . S
N440 C439 1.326 . S
N440 C444 1.362 . S
C441 C442 1.258 . S
C441 C444 1.431 . S
C441 C461 1.449 . S
C442 C441 1.258 . S
C442 C443 1.477 . S
C442 H462 0.931 . S
C443 C439 1.460 . S
C443 C442 1.477 . S
C443 H463 0.930 . S
C444 N440 1.362 . S
C444 C441 1.431 . S
C444 C454 1.476 . S
H445 C439 0.929 . S
C446 O437 1.250 . S
C446 O438 1.258 . S
O447 Mn432 2.162 . S
O447 C435 1.281 . S
O448 Mn432 2.297 . S
O448 C435 1.236 . S
N449 Mn433 2.282 . S
N449 C450 1.328 . S
N449 C454 1.318 . S
C450 N449 1.328 . S
C450 C451 1.457 . S
C450 H455 0.929 . S
C451 C450 1.457 . S
C451 C452 1.291 . S
C451 H464 0.931 . S
C452 C451 1.291 . S
C452 C453 1.373 . S
C452 H465 0.929 . S
C453 C452 1.373 . S
C453 C454 1.396 . S
C453 C460 1.403 . S
C454 C444 1.476 . S
C454 N449 1.318 . S
C454 C453 1.396 . S
H455 C450 0.929 . S
O456 Mn432 2.385 . S
O456 C434 1.234 . S
O457 Mn432 2.209 . S
O457 Mn433 2.215 . S
O457 C434 1.283 . S
O458 Mn432 2.094 . S
O458 C436 1.240 . S
O459 Mn433 2.117 . S
O459 C436 1.264 . S
C460 C453 1.403 . S
C460 C461 1.399 . S
C460 H466 0.929 . S
C461 C441 1.449 . S
C461 C460 1.399 . S
C461 H467 0.930 . S
H462 C442 0.931 . S
H463 C443 0.930 . S
H464 C451 0.931 . S
H465 C452 0.929 . S
H466 C460 0.929 . S
H467 C461 0.930 . S
Mn468 O473 2.095 . S
Mn468 O483 2.162 . S
Mn468 O484 2.297 . S
Mn468 O492 2.385 . S
Mn468 O493 2.209 . S
Mn468 O494 2.094 . S
Mn469 O474 2.121 . S
Mn469 N476 2.257 . S
Mn469 N485 2.282 . S
Mn469 O493 2.215 . S
Mn469 O495 2.117 . S
C470 O492 1.234 . S
C470 O493 1.283 . S
C471 O483 1.281 . S
C471 O484 1.236 . S
C472 O494 1.240 . S
C472 O495 1.264 . S
O473 Mn468 2.095 . S
O473 C482 1.250 . S
O474 Mn469 2.121 . S
O474 C482 1.258 . S
C475 N476 1.326 . S
C475 C479 1.460 . S
C475 H481 0.929 . S
N476 Mn469 2.257 . S
N476 C475 1.326 . S
N476 C480 1.362 . S
C477 C478 1.258 . S
C477 C480 1.431 . S
C477 C497 1.449 . S
C478 C477 1.258 . S
C478 C479 1.477 . S
C478 H498 0.931 . S
C479 C475 1.460 . S
C479 C478 1.477 . S
C479 H499 0.930 . S
C480 N476 1.362 . S
C480 C477 1.431 . S
C480 C490 1.476 . S
H481 C475 0.929 . S
C482 O473 1.250 . S
C482 O474 1.258 . S
O483 Mn468 2.162 . S
O483 C471 1.281 . S
O484 Mn468 2.297 . S
O484 C471 1.236 . S
N485 Mn469 2.282 . S
N485 C486 1.328 . S
N485 C490 1.318 . S
C486 N485 1.328 . S
C486 C487 1.457 . S
C486 H491 0.929 . S
C487 C486 1.457 . S
C487 C488 1.291 . S
C487 H500 0.931 . S
C488 C487 1.291 . S
C488 C489 1.373 . S
C488 H501 0.929 . S
C489 C488 1.373 . S
C489 C490 1.396 . S
C489 C496 1.403 . S
C490 C480 1.476 . S
C490 N485 1.318 . S
C490 C489 1.396 . S
H491 C486 0.929 . S
O492 Mn468 2.385 . S
O492 C470 1.234 . S
O493 Mn468 2.209 . S
O493 Mn469 2.215 . S
O493 C470 1.283 . S
O494 Mn468 2.094 . S
O494 C472 1.240 . S
O495 Mn469 2.117 . S
O495 C472 1.264 . S
C496 C489 1.403 . S
C496 C497 1.399 . S
C496 H502 0.929 . S
C497 C477 1.449 . S
C497 C496 1.399 . S
C497 H503 0.930 . S
H498 C478 0.931 . S
H499 C479 0.930 . S
H500 C487 0.931 . S
H501 C488 0.929 . S
H502 C496 0.929 . S
H503 C497 0.930 . S
Mn504 O509 2.095 . S
Mn504 O519 2.162 . S
Mn504 O520 2.297 . S
Mn504 O528 2.385 . S
Mn504 O529 2.209 . S
Mn504 O530 2.094 . S
Mn505 O510 2.121 . S
Mn505 N512 2.257 . S
Mn505 N521 2.282 . S
Mn505 O529 2.215 . S
Mn505 O531 2.117 . S
C506 O528 1.234 . S
C506 O529 1.283 . S
C507 O519 1.281 . S
C507 O520 1.236 . S
C508 O530 1.240 . S
C508 O531 1.264 . S
O509 Mn504 2.095 . S
O509 C518 1.250 . S
O510 Mn505 2.121 . S
O510 C518 1.258 . S
C511 N512 1.326 . S
C511 C515 1.460 . S
C511 H517 0.929 . S
N512 Mn505 2.257 . S
N512 C511 1.326 . S
N512 C516 1.362 . S
C513 C514 1.258 . S
C513 C516 1.431 . S
C513 C533 1.449 . S
C514 C513 1.258 . S
C514 C515 1.477 . S
C514 H534 0.931 . S
C515 C511 1.460 . S
C515 C514 1.477 . S
C515 H535 0.930 . S
C516 N512 1.362 . S
C516 C513 1.431 . S
C516 C526 1.476 . S
H517 C511 0.929 . S
C518 O509 1.250 . S
C518 O510 1.258 . S
O519 Mn504 2.162 . S
O519 C507 1.281 . S
O520 Mn504 2.297 . S
O520 C507 1.236 . S
N521 Mn505 2.282 . S
N521 C522 1.328 . S
N521 C526 1.318 . S
C522 N521 1.328 . S
C522 C523 1.457 . S
C522 H527 0.929 . S
C523 C522 1.457 . S
C523 C524 1.291 . S
C523 H536 0.931 . S
C524 C523 1.291 . S
C524 C525 1.373 . S
C524 H537 0.929 . S
C525 C524 1.373 . S
C525 C526 1.396 . S
C525 C532 1.403 . S
C526 C516 1.476 . S
C526 N521 1.318 . S
C526 C525 1.396 . S
H527 C522 0.929 . S
O528 Mn504 2.385 . S
O528 C506 1.234 . S
O529 Mn504 2.209 . S
O529 Mn505 2.215 . S
O529 C506 1.283 . S
O530 Mn504 2.094 . S
O530 C508 1.240 . S
O531 Mn505 2.117 . S
O531 C508 1.264 . S
C532 C525 1.403 . S
C532 C533 1.399 . S
C532 H538 0.929 . S
C533 C513 1.449 . S
C533 C532 1.399 . S
C533 H539 0.930 . S
H534 C514 0.931 . S
H535 C515 0.930 . S
H536 C523 0.931 . S
H537 C524 0.929 . S
H538 C532 0.929 . S
H539 C533 0.930 . S
Mn540 O545 2.095 . S
Mn540 O555 2.162 . S
Mn540 O556 2.297 . S
Mn540 O564 2.385 . S
Mn540 O565 2.209 . S
Mn540 O566 2.094 . S
Mn541 O546 2.121 . S
Mn541 N548 2.257 . S
Mn541 N557 2.282 . S
Mn541 O565 2.215 . S
Mn541 O567 2.117 . S
C542 O564 1.234 . S
C542 O565 1.283 . S
C543 O555 1.281 . S
C543 O556 1.236 . S
C544 O566 1.240 . S
C544 O567 1.264 . S
O545 Mn540 2.095 . S
O545 C554 1.250 . S
O546 Mn541 2.121 . S
O546 C554 1.258 . S
C547 N548 1.326 . S
C547 C551 1.460 . S
C547 H553 0.929 . S
N548 Mn541 2.257 . S
N548 C547 1.326 . S
N548 C552 1.362 . S
C549 C550 1.258 . S
C549 C552 1.431 . S
C549 C569 1.449 . S
C550 C549 1.258 . S
C550 C551 1.477 . S
C550 H570 0.931 . S
C551 C547 1.460 . S
C551 C550 1.477 . S
C551 H571 0.930 . S
C552 N548 1.362 . S
C552 C549 1.431 . S
C552 C562 1.476 . S
H553 C547 0.929 . S
C554 O545 1.250 . S
C554 O546 1.258 . S
O555 Mn540 2.162 . S
O555 C543 1.281 . S
O556 Mn540 2.297 . S
O556 C543 1.236 . S
N557 Mn541 2.282 . S
N557 C558 1.328 . S
N557 C562 1.318 . S
C558 N557 1.328 . S
C558 C559 1.457 . S
C558 H563 0.929 . S
C559 C558 1.457 . S
C559 C560 1.291 . S
C559 H572 0.931 . S
C560 C559 1.291 . S
C560 C561 1.373 . S
C560 H573 0.929 . S
C561 C560 1.373 . S
C561 C562 1.396 . S
C561 C568 1.403 . S
C562 C552 1.476 . S
C562 N557 1.318 . S
C562 C561 1.396 . S
H563 C558 0.929 . S
O564 Mn540 2.385 . S
O564 C542 1.234 . S
O565 Mn540 2.209 . S
O565 Mn541 2.215 . S
O565 C542 1.283 . S
O566 Mn540 2.094 . S
O566 C544 1.240 . S
O567 Mn541 2.117 . S
O567 C544 1.264 . S
C568 C561 1.403 . S
C568 C569 1.399 . S
C568 H574 0.929 . S
C569 C549 1.449 . S
C569 C568 1.399 . S
C569 H575 0.930 . S
H570 C550 0.931 . S
H571 C551 0.930 . S
H572 C559 0.931 . S
H573 C560 0.929 . S
H574 C568 0.929 . S
H575 C569 0.930 . S
H576 C584 0.950 . S
H577 C589 0.950 . S
H578 C586 0.950 . S
H579 C588 0.950 . S
H580 C590 0.950 . S
H581 C592 0.950 . S
H582 C594 0.950 . S
H583 C595 0.950 . S
C584 H576 0.950 . S
C584 C585 1.386 . S
C584 C586 1.391 . S
C585 C584 1.386 . S
C585 C589 1.393 . S
C586 H578 0.950 . S
C586 C584 1.391 . S
C586 C587 1.400 . S
C587 C586 1.400 . S
C587 C588 1.398 . S
C587 C593 1.491 1_455 S
C588 H579 0.950 . S
C588 C587 1.398 . S
C588 C589 1.391 . S
C589 H577 0.950 . S
C589 C585 1.393 . S
C589 C588 1.391 . S
C590 H580 0.950 . S
C590 C591 1.386 . S
C590 C592 1.391 . S
C591 C590 1.386 . S
C591 C595 1.393 . S
C592 H581 0.950 . S
C592 C590 1.391 . S
C592 C593 1.400 . S
C593 C587 1.491 1_655 S
C593 C592 1.400 . S
C593 C594 1.398 . S
C594 H582 0.950 . S
C594 C593 1.398 . S
C594 C595 1.391 . S
C595 H583 0.950 . S
C595 C591 1.393 . S
C595 C594 1.391 . S
H596 C604 0.950 . S
H597 C609 0.950 . S
H598 C606 0.950 . S
H599 C608 0.950 . S
H600 C610 0.950 . S
H601 C612 0.950 . S
H602 C614 0.950 . S
H603 C615 0.950 . S
C604 H596 0.950 . S
C604 C605 1.386 . S
C604 C606 1.391 . S
C605 C604 1.386 . S
C605 C609 1.393 . S
C606 H598 0.950 . S
C606 C604 1.391 . S
C606 C607 1.400 . S
C607 C606 1.400 . S
C607 C608 1.398 . S
C607 C613 1.491 1_655 S
C608 H599 0.950 . S
C608 C607 1.398 . S
C608 C609 1.391 . S
C609 H597 0.950 . S
C609 C605 1.393 . S
C609 C608 1.391 . S
C610 H600 0.950 . S
C610 C611 1.386 . S
C610 C612 1.391 . S
C611 C610 1.386 . S
C611 C615 1.393 . S
C612 H601 0.950 . S
C612 C610 1.391 . S
C612 C613 1.400 . S
C613 C607 1.491 1_455 S
C613 C612 1.400 . S
C613 C614 1.398 . S
C614 H602 0.950 . S
C614 C613 1.398 . S
C614 C615 1.391 . S
C615 H603 0.950 . S
C615 C611 1.393 . S
C615 C614 1.391 . S
H616 C624 0.950 . S
H617 C629 0.950 . S
H618 C626 0.950 . S
H619 C628 0.950 . S
H620 C630 0.950 . S
H621 C632 0.950 . S
H622 C634 0.950 . S
H623 C635 0.950 . S
C624 H616 0.950 . S
C624 C625 1.386 . S
C624 C626 1.391 . S
C625 C624 1.386 . S
C625 C629 1.393 . S
C626 H618 0.950 . S
C626 C624 1.391 . S
C626 C627 1.400 . S
C627 C626 1.400 . S
C627 C628 1.398 . S
C627 C633 1.491 1_655 S
C628 H619 0.950 . S
C628 C627 1.398 . S
C628 C629 1.391 . S
C629 H617 0.950 . S
C629 C625 1.393 . S
C629 C628 1.391 . S
C630 H620 0.950 . S
C630 C631 1.386 . S
C630 C632 1.391 . S
C631 C630 1.386 . S
C631 C635 1.393 . S
C632 H621 0.950 . S
C632 C630 1.391 . S
C632 C633 1.400 . S
C633 C627 1.491 1_455 S
C633 C632 1.400 . S
C633 C634 1.398 . S
C634 H622 0.950 . S
C634 C633 1.398 . S
C634 C635 1.391 . S
C635 H623 0.950 . S
C635 C631 1.393 . S
C635 C634 1.391 . S
H636 C644 0.950 . S
H637 C649 0.950 . S
H638 C646 0.950 . S
H639 C648 0.950 . S
H640 C650 0.950 . S
H641 C652 0.950 . S
H642 C654 0.950 . S
H643 C655 0.950 . S
C644 H636 0.950 . S
C644 C645 1.386 . S
C644 C646 1.391 . S
C645 C644 1.386 . S
C645 C649 1.393 . S
C646 H638 0.950 . S
C646 C644 1.391 . S
C646 C647 1.400 . S
C647 C646 1.400 . S
C647 C648 1.398 . S
C647 C653 1.491 1_455 S
C648 H639 0.950 . S
C648 C647 1.398 . S
C648 C649 1.391 . S
C649 H637 0.950 . S
C649 C645 1.393 . S
C649 C648 1.391 . S
C650 H640 0.950 . S
C650 C651 1.386 . S
C650 C652 1.391 . S
C651 C650 1.386 . S
C651 C655 1.393 . S
C652 H641 0.950 . S
C652 C650 1.391 . S
C652 C653 1.400 . S
C653 C647 1.491 1_655 S
C653 C652 1.400 . S
C653 C654 1.398 . S
C654 H642 0.950 . S
C654 C653 1.398 . S
C654 C655 1.391 . S
C655 H643 0.950 . S
C655 C651 1.393 . S
C655 C654 1.391 . S
H656 C664 0.950 . S
H657 C669 0.950 . S
H658 C666 0.950 . S
H659 C668 0.950 . S
H660 C670 0.950 . S
H661 C672 0.950 . S
H662 C674 0.950 . S
H663 C675 0.950 . S
C664 H656 0.950 . S
C664 C665 1.386 . S
C664 C666 1.391 . S
C665 C664 1.386 . S
C665 C669 1.393 . S
C666 H658 0.950 . S
C666 C664 1.391 . S
C666 C667 1.400 . S
C667 C666 1.400 . S
C667 C668 1.398 . S
C667 C673 1.491 . S
C668 H659 0.950 . S
C668 C667 1.398 . S
C668 C669 1.391 . S
C669 H657 0.950 . S
C669 C665 1.393 . S
C669 C668 1.391 . S
C670 H660 0.950 . S
C670 C671 1.386 . S
C670 C672 1.391 . S
C671 C670 1.386 . S
C671 C675 1.393 . S
C672 H661 0.950 . S
C672 C670 1.391 . S
C672 C673 1.400 . S
C673 C667 1.491 . S
C673 C672 1.400 . S
C673 C674 1.398 . S
C674 H662 0.950 . S
C674 C673 1.398 . S
C674 C675 1.391 . S
C675 H663 0.950 . S
C675 C671 1.393 . S
C675 C674 1.391 . S
H676 C684 0.950 . S
H677 C689 0.950 . S
H678 C686 0.950 . S
H679 C688 0.950 . S
H680 C690 0.950 . S
H681 C692 0.950 . S
H682 C694 0.950 . S
H683 C695 0.950 . S
C684 H676 0.950 . S
C684 C685 1.386 . S
C684 C686 1.391 . S
C685 C684 1.386 . S
C685 C689 1.393 . S
C686 H678 0.950 . S
C686 C684 1.391 . S
C686 C687 1.400 . S
C687 C686 1.400 . S
C687 C688 1.398 . S
C687 C693 1.491 . S
C688 H679 0.950 . S
C688 C687 1.398 . S
C688 C689 1.391 . S
C689 H677 0.950 . S
C689 C685 1.393 . S
C689 C688 1.391 . S
C690 H680 0.950 . S
C690 C691 1.386 . S
C690 C692 1.391 . S
C691 C690 1.386 . S
C691 C695 1.393 . S
C692 H681 0.950 . S
C692 C690 1.391 . S
C692 C693 1.400 . S
C693 C687 1.491 . S
C693 C692 1.400 . S
C693 C694 1.398 . S
C694 H682 0.950 . S
C694 C693 1.398 . S
C694 C695 1.391 . S
C695 H683 0.950 . S
C695 C691 1.393 . S
C695 C694 1.391 . S
H696 C704 0.950 . S
H697 C709 0.950 . S
H698 C706 0.950 . S
H699 C708 0.950 . S
H700 C710 0.950 . S
H701 C712 0.950 . S
H702 C714 0.950 . S
H703 C715 0.950 . S
C704 H696 0.950 . S
C704 C705 1.386 . S
C704 C706 1.391 . S
C705 C704 1.386 . S
C705 C709 1.393 . S
C706 H698 0.950 . S
C706 C704 1.391 . S
C706 C707 1.400 . S
C707 C706 1.400 . S
C707 C708 1.398 . S
C707 C713 1.491 . S
C708 H699 0.950 . S
C708 C707 1.398 . S
C708 C709 1.391 . S
C709 H697 0.950 . S
C709 C705 1.393 . S
C709 C708 1.391 . S
C710 H700 0.950 . S
C710 C711 1.386 . S
C710 C712 1.391 . S
C711 C710 1.386 . S
C711 C715 1.393 . S
C712 H701 0.950 . S
C712 C710 1.391 . S
C712 C713 1.400 . S
C713 C707 1.491 . S
C713 C712 1.400 . S
C713 C714 1.398 . S
C714 H702 0.950 . S
C714 C713 1.398 . S
C714 C715 1.391 . S
C715 H703 0.950 . S
C715 C711 1.393 . S
C715 C714 1.391 . S
H716 C724 0.950 . S
H717 C729 0.950 . S
H718 C726 0.950 . S
H719 C728 0.950 . S
H720 C730 0.950 . S
H721 C732 0.950 . S
H722 C734 0.950 . S
H723 C735 0.950 . S
C724 H716 0.950 . S
C724 C725 1.386 . S
C724 C726 1.391 . S
C725 C724 1.386 . S
C725 C729 1.393 . S
C726 H718 0.950 . S
C726 C724 1.391 . S
C726 C727 1.400 . S
C727 C726 1.400 . S
C727 C728 1.398 . S
C727 C733 1.491 . S
C728 H719 0.950 . S
C728 C727 1.398 . S
C728 C729 1.391 . S
C729 H717 0.950 . S
C729 C725 1.393 . S
C729 C728 1.391 . S
C730 H720 0.950 . S
C730 C731 1.386 . S
C730 C732 1.391 . S
C731 C730 1.386 . S
C731 C735 1.393 . S
C732 H721 0.950 . S
C732 C730 1.391 . S
C732 C733 1.400 . S
C733 C727 1.491 . S
C733 C732 1.400 . S
C733 C734 1.398 . S
C734 H722 0.950 . S
C734 C733 1.398 . S
C734 C735 1.391 . S
C735 H723 0.950 . S
C735 C731 1.393 . S
C735 C734 1.391 . S
H736 C744 0.950 . S
H737 C749 0.950 . S
H738 C746 0.950 . S
H739 C748 0.950 . S
H740 C750 0.950 . S
H741 C752 0.950 . S
H742 C754 0.950 . S
H743 C755 0.950 . S
C744 H736 0.950 . S
C744 C745 1.386 . S
C744 C746 1.391 . S
C745 C744 1.386 . S
C745 C749 1.393 . S
C746 H738 0.950 . S
C746 C744 1.391 . S
C746 C747 1.400 . S
C747 C746 1.400 . S
C747 C748 1.398 . S
C747 C753 1.491 . S
C748 H739 0.950 . S
C748 C747 1.398 . S
C748 C749 1.391 . S
C749 H737 0.950 . S
C749 C745 1.393 . S
C749 C748 1.391 . S
C750 H740 0.950 . S
C750 C751 1.386 . S
C750 C752 1.391 . S
C751 C750 1.386 . S
C751 C755 1.393 . S
C752 H741 0.950 . S
C752 C750 1.391 . S
C752 C753 1.400 . S
C753 C747 1.491 . S
C753 C752 1.400 . S
C753 C754 1.398 . S
C754 H742 0.950 . S
C754 C753 1.398 . S
C754 C755 1.391 . S
C755 H743 0.950 . S
C755 C751 1.393 . S
C755 C754 1.391 . S
H756 C764 0.950 . S
H757 C769 0.950 . S
H758 C766 0.950 . S
H759 C768 0.950 . S
H760 C770 0.950 . S
H761 C772 0.950 . S
H762 C774 0.950 . S
H763 C775 0.950 . S
C764 H756 0.950 . S
C764 C765 1.386 . S
C764 C766 1.391 . S
C765 C764 1.386 . S
C765 C769 1.393 . S
C766 H758 0.950 . S
C766 C764 1.391 . S
C766 C767 1.400 . S
C767 C766 1.400 . S
C767 C768 1.398 . S
C767 C773 1.491 . S
C768 H759 0.950 . S
C768 C767 1.398 . S
C768 C769 1.391 . S
C769 H757 0.950 . S
C769 C765 1.393 . S
C769 C768 1.391 . S
C770 H760 0.950 . S
C770 C771 1.386 . S
C770 C772 1.391 . S
C771 C770 1.386 . S
C771 C775 1.393 . S
C772 H761 0.950 . S
C772 C770 1.391 . S
C772 C773 1.400 . S
C773 C767 1.491 . S
C773 C772 1.400 . S
C773 C774 1.398 . S
C774 H762 0.950 . S
C774 C773 1.398 . S
C774 C775 1.391 . S
C775 H763 0.950 . S
C775 C771 1.393 . S
C775 C774 1.391 . S
H776 C784 0.950 . S
H777 C789 0.950 . S
H778 C786 0.950 . S
H779 C788 0.950 . S
H780 C790 0.950 . S
H781 C792 0.950 . S
H782 C794 0.950 . S
H783 C795 0.950 . S
C784 H776 0.950 . S
C784 C785 1.386 . S
C784 C786 1.391 . S
C785 C784 1.386 . S
C785 C789 1.393 . S
C786 H778 0.950 . S
C786 C784 1.391 . S
C786 C787 1.400 . S
C787 C786 1.400 . S
C787 C788 1.398 . S
C787 C793 1.491 . S
C788 H779 0.950 . S
C788 C787 1.398 . S
C788 C789 1.391 . S
C789 H777 0.950 . S
C789 C785 1.393 . S
C789 C788 1.391 . S
C790 H780 0.950 . S
C790 C791 1.386 . S
C790 C792 1.391 . S
C791 C790 1.386 . S
C791 C795 1.393 . S
C792 H781 0.950 . S
C792 C790 1.391 . S
C792 C793 1.400 . S
C793 C787 1.491 . S
C793 C792 1.400 . S
C793 C794 1.398 . S
C794 H782 0.950 . S
C794 C793 1.398 . S
C794 C795 1.391 . S
C795 H783 0.950 . S
C795 C791 1.393 . S
C795 C794 1.391 . S
H796 C804 0.950 . S
H797 C809 0.950 . S
H798 C806 0.950 . S
H799 C808 0.950 . S
H800 C810 0.950 . S
H801 C812 0.950 . S
H802 C814 0.950 . S
H803 C815 0.950 . S
C804 H796 0.950 . S
C804 C805 1.386 . S
C804 C806 1.391 . S
C805 C804 1.386 . S
C805 C809 1.393 . S
C806 H798 0.950 . S
C806 C804 1.391 . S
C806 C807 1.400 . S
C807 C806 1.400 . S
C807 C808 1.398 . S
C807 C813 1.491 . S
C808 H799 0.950 . S
C808 C807 1.398 . S
C808 C809 1.391 . S
C809 H797 0.950 . S
C809 C805 1.393 . S
C809 C808 1.391 . S
C810 H800 0.950 . S
C810 C811 1.386 . S
C810 C812 1.391 . S
C811 C810 1.386 . S
C811 C815 1.393 . S
C812 H801 0.950 . S
C812 C810 1.391 . S
C812 C813 1.400 . S
C813 C807 1.491 . S
C813 C812 1.400 . S
C813 C814 1.398 . S
C814 H802 0.950 . S
C814 C813 1.398 . S
C814 C815 1.391 . S
C815 H803 0.950 . S
C815 C811 1.393 . S
C815 C814 1.391 . S
H816 C824 0.950 . S
H817 C829 0.950 . S
H818 C826 0.950 . S
H819 C828 0.950 . S
H820 C830 0.950 . S
H821 C832 0.950 . S
H822 C834 0.950 . S
H823 C835 0.950 . S
C824 H816 0.950 . S
C824 C825 1.386 . S
C824 C826 1.391 . S
C825 C824 1.386 . S
C825 C829 1.393 . S
C826 H818 0.950 . S
C826 C824 1.391 . S
C826 C827 1.400 . S
C827 C826 1.400 . S
C827 C828 1.398 . S
C827 C833 1.491 . S
C828 H819 0.950 . S
C828 C827 1.398 . S
C828 C829 1.391 . S
C829 H817 0.950 . S
C829 C825 1.393 . S
C829 C828 1.391 . S
C830 H820 0.950 . S
C830 C831 1.386 . S
C830 C832 1.391 . S
C831 C830 1.386 . S
C831 C835 1.393 . S
C832 H821 0.950 . S
C832 C830 1.391 . S
C832 C833 1.400 . S
C833 C827 1.491 . S
C833 C832 1.400 . S
C833 C834 1.398 . S
C834 H822 0.950 . S
C834 C833 1.398 . S
C834 C835 1.391 . S
C835 H823 0.950 . S
C835 C831 1.393 . S
C835 C834 1.391 . S
H836 C844 0.950 . S
H837 C849 0.950 . S
H838 C846 0.950 . S
H839 C848 0.950 . S
H840 C850 0.950 . S
H841 C852 0.950 . S
H842 C854 0.950 . S
H843 C855 0.950 . S
C844 H836 0.950 . S
C844 C845 1.386 . S
C844 C846 1.391 . S
C845 C844 1.386 . S
C845 C849 1.393 . S
C846 H838 0.950 . S
C846 C844 1.391 . S
C846 C847 1.400 . S
C847 C846 1.400 . S
C847 C848 1.398 . S
C847 C853 1.491 . S
C848 H839 0.950 . S
C848 C847 1.398 . S
C848 C849 1.391 . S
C849 H837 0.950 . S
C849 C845 1.393 . S
C849 C848 1.391 . S
C850 H840 0.950 . S
C850 C851 1.386 . S
C850 C852 1.391 . S
C851 C850 1.386 . S
C851 C855 1.393 . S
C852 H841 0.950 . S
C852 C850 1.391 . S
C852 C853 1.400 . S
C853 C847 1.491 . S
C853 C852 1.400 . S
C853 C854 1.398 . S
C854 H842 0.950 . S
C854 C853 1.398 . S
C854 C855 1.391 . S
C855 H843 0.950 . S
C855 C851 1.393 . S
C855 C854 1.391 . S
H856 C864 0.950 . S
H857 C869 0.950 . S
H858 C866 0.950 . S
H859 C868 0.950 . S
H860 C870 0.950 . S
H861 C872 0.950 . S
H862 C874 0.950 . S
H863 C875 0.950 . S
C864 H856 0.950 . S
C864 C865 1.386 . S
C864 C866 1.391 . S
C865 C864 1.386 . S
C865 C869 1.393 . S
C866 H858 0.950 . S
C866 C864 1.391 . S
C866 C867 1.400 . S
C867 C866 1.400 . S
C867 C868 1.398 . S
C867 C873 1.491 . S
C868 H859 0.950 . S
C868 C867 1.398 . S
C868 C869 1.391 . S
C869 H857 0.950 . S
C869 C865 1.393 . S
C869 C868 1.391 . S
C870 H860 0.950 . S
C870 C871 1.386 . S
C870 C872 1.391 . S
C871 C870 1.386 . S
C871 C875 1.393 . S
C872 H861 0.950 . S
C872 C870 1.391 . S
C872 C873 1.400 . S
C873 C867 1.491 . S
C873 C872 1.400 . S
C873 C874 1.398 . S
C874 H862 0.950 . S
C874 C873 1.398 . S
C874 C875 1.391 . S
C875 H863 0.950 . S
C875 C871 1.393 . S
C875 C874 1.391 . S
H876 C884 0.950 . S
H877 C889 0.950 . S
H878 C886 0.950 . S
H879 C888 0.950 . S
H880 C890 0.950 . S
H881 C892 0.950 . S
H882 C894 0.950 . S
H883 C895 0.950 . S
C884 H876 0.950 . S
C884 C885 1.386 . S
C884 C886 1.391 . S
C885 C884 1.386 . S
C885 C889 1.393 . S
C886 H878 0.950 . S
C886 C884 1.391 . S
C886 C887 1.400 . S
C887 C886 1.400 . S
C887 C888 1.398 . S
C887 C893 1.491 . S
C888 H879 0.950 . S
C888 C887 1.398 . S
C888 C889 1.391 . S
C889 H877 0.950 . S
C889 C885 1.393 . S
C889 C888 1.391 . S
C890 H880 0.950 . S
C890 C891 1.386 . S
C890 C892 1.391 . S
C891 C890 1.386 . S
C891 C895 1.393 . S
C892 H881 0.950 . S
C892 C890 1.391 . S
C892 C893 1.400 . S
C893 C887 1.491 . S
C893 C892 1.400 . S
C893 C894 1.398 . S
C894 H882 0.950 . S
C894 C893 1.398 . S
C894 C895 1.391 . S
C895 H883 0.950 . S
C895 C891 1.393 . S
C895 C894 1.391 . S
H896 C904 0.950 . S
H897 C909 0.950 . S
H898 C906 0.936 1_554 S
H899 C908 0.950 . S
H900 C910 0.950 . S
H901 C912 0.950 1_556 S
H902 C914 0.950 . S
H903 C915 0.950 . S
C904 H896 0.950 . S
C904 C905 1.386 . S
C904 C906 1.400 . S
C905 C904 1.386 . S
C905 C909 1.393 . S
C906 H898 0.936 1_556 S
C906 C904 1.400 . S
C906 C907 1.405 . S
C907 C906 1.405 . S
C907 C908 1.398 . S
C907 C913 1.491 1_556 S
C908 H899 0.950 . S
C908 C907 1.398 . S
C908 C909 1.391 . S
C909 H897 0.950 . S
C909 C905 1.393 . S
C909 C908 1.391 . S
C910 H900 0.950 . S
C910 C911 1.386 . S
C910 C912 1.391 . S
C911 C910 1.386 . S
C911 C915 1.393 . S
C912 H901 0.950 1_554 S
C912 C910 1.391 . S
C912 C913 1.400 . S
C913 C907 1.491 1_554 S
C913 C912 1.400 . S
C913 C914 1.398 . S
C914 H902 0.950 . S
C914 C913 1.398 . S
C914 C915 1.391 . S
C915 H903 0.950 . S
C915 C911 1.393 . S
C915 C914 1.391 . S
H916 C924 0.950 . S
H917 C929 0.950 . S
H918 C926 0.950 . S
H919 C928 0.950 . S
H920 C930 0.950 . S
H921 C932 0.950 . S
H922 C934 0.950 . S
H923 C935 0.950 . S
C924 H916 0.950 . S
C924 C925 1.386 . S
C924 C926 1.391 . S
C925 C924 1.386 . S
C925 C929 1.393 . S
C926 H918 0.950 . S
C926 C924 1.391 . S
C926 C927 1.400 . S
C927 C926 1.400 . S
C927 C928 1.398 . S
C927 C933 1.491 . S
C928 H919 0.950 . S
C928 C927 1.398 . S
C928 C929 1.391 . S
C929 H917 0.950 . S
C929 C925 1.393 . S
C929 C928 1.391 . S
C930 H920 0.950 . S
C930 C931 1.386 . S
C930 C932 1.391 . S
C931 C930 1.386 . S
C931 C935 1.393 . S
C932 H921 0.950 . S
C932 C930 1.391 . S
C932 C933 1.400 . S
C933 C927 1.491 . S
C933 C932 1.400 . S
C933 C934 1.398 . S
C934 H922 0.950 . S
C934 C933 1.398 . S
C934 C935 1.391 . S
C935 H923 0.950 . S
C935 C931 1.393 . S
C935 C934 1.391 . S
H936 C944 0.950 . S
H937 C949 0.950 . S
H938 C946 0.956 . S
H939 C948 0.950 . S
H940 C950 0.950 . S
H941 C952 0.945 1_554 S
H942 C954 0.950 . S
H943 C955 0.950 . S
C944 H936 0.950 . S
C944 C945 1.386 . S
C944 C946 1.387 1_554 S
C945 C944 1.386 . S
C945 C949 1.393 . S
C946 H938 0.956 . S
C946 C944 1.387 1_556 S
C946 C947 1.398 1_556 S
C947 C946 1.398 1_554 S
C947 C948 1.398 . S
C947 C953 1.491 1_554 S
C948 H939 0.950 . S
C948 C947 1.398 . S
C948 C949 1.391 . S
C949 H937 0.950 . S
C949 C945 1.393 . S
C949 C948 1.391 . S
C950 H940 0.950 . S
C950 C951 1.386 . S
C950 C952 1.395 . S
C951 C950 1.386 . S
C951 C955 1.393 . S
C952 H941 0.945 1_556 S
C952 C950 1.395 . S
C952 C953 1.402 . S
C953 C947 1.491 1_556 S
C953 C952 1.402 . S
C953 C954 1.398 . S
C954 H942 0.950 . S
C954 C953 1.398 . S
C954 C955 1.391 . S
C955 H943 0.950 . S
C955 C951 1.393 . S
C955 C954 1.391 . S
H956 C964 0.950 . S
H957 C969 0.950 . S
H958 C966 0.950 . S
H959 C968 0.950 . S
H960 C970 0.950 . S
H961 C972 0.950 . S
H962 C974 0.950 . S
H963 C975 0.950 . S
C964 H956 0.950 . S
C964 C965 1.386 . S
C964 C966 1.391 . S
C965 C964 1.386 . S
C965 C969 1.393 . S
C966 H958 0.950 . S
C966 C964 1.391 . S
C966 C967 1.400 . S
C967 C966 1.400 . S
C967 C968 1.398 . S
C967 C973 1.491 . S
C968 H959 0.950 . S
C968 C967 1.398 . S
C968 C969 1.391 . S
C969 H957 0.950 . S
C969 C965 1.393 . S
C969 C968 1.391 . S
C970 H960 0.950 . S
C970 C971 1.386 . S
C970 C972 1.391 . S
C971 C970 1.386 . S
C971 C975 1.393 . S
C972 H961 0.950 . S
C972 C970 1.391 . S
C972 C973 1.400 . S
C973 C967 1.491 . S
C973 C972 1.400 . S
C973 C974 1.398 . S
C974 H962 0.950 . S
C974 C973 1.398 . S
C974 C975 1.391 . S
C975 H963 0.950 . S
C975 C971 1.393 . S
C975 C974 1.391 . S
H976 C984 0.950 1_556 S
H977 C989 0.950 . S
H978 C986 0.950 . S
H979 C988 0.950 . S
H980 C990 0.950 1_554 S
H981 C992 0.950 . S
H982 C994 0.950 . S
H983 C995 0.950 . S
C984 H976 0.950 1_554 S
C984 C985 1.386 . S
C984 C986 1.391 1_554 S
C985 C984 1.386 . S
C985 C989 1.393 . S
C986 H978 0.950 . S
C986 C984 1.391 1_556 S
C986 C987 1.400 1_556 S
C987 C986 1.400 1_554 S
C987 C988 1.398 . S
C987 C993 1.491 1_554 S
C988 H979 0.950 . S
C988 C987 1.398 . S
C988 C989 1.391 . S
C989 H977 0.950 . S
C989 C985 1.393 . S
C989 C988 1.391 . S
C990 H980 0.950 1_556 S
C990 C991 1.386 . S
C990 C992 1.391 1_556 S
C991 C990 1.386 . S
C991 C995 1.393 . S
C992 H981 0.950 . S
C992 C990 1.391 1_554 S
C992 C993 1.400 1_554 S
C993 C987 1.491 1_556 S
C993 C992 1.400 1_556 S
C993 C994 1.398 . S
C994 H982 0.950 . S
C994 C993 1.398 . S
C994 C995 1.391 . S
C995 H983 0.950 . S
C995 C991 1.393 . S
C995 C994 1.391 . S
H996 C1004 0.950 . S
H997 C1009 0.950 . S
H998 C1006 0.950 . S
H999 C1008 0.950 . S
H1000 C1010 0.950 . S
H1001 C1012 0.950 . S
H1002 C1014 0.950 . S
H1003 C1015 0.950 . S
C1004 H996 0.950 . S
C1004 C1005 1.386 . S
C1004 C1006 1.391 . S
C1005 C1004 1.386 . S
C1005 C1009 1.393 . S
C1006 H998 0.950 . S
C1006 C1004 1.391 . S
C1006 C1007 1.400 . S
C1007 C1006 1.400 . S
C1007 C1008 1.398 . S
C1007 C1013 1.491 . S
C1008 H999 0.950 . S
C1008 C1007 1.398 . S
C1008 C1009 1.391 . S
C1009 H997 0.950 . S
C1009 C1005 1.393 . S
C1009 C1008 1.391 . S
C1010 H1000 0.950 . S
C1010 C1011 1.386 . S
C1010 C1012 1.391 . S
C1011 C1010 1.386 . S
C1011 C1015 1.393 . S
C1012 H1001 0.950 . S
C1012 C1010 1.391 . S
C1012 C1013 1.400 . S
C1013 C1007 1.491 . S
C1013 C1012 1.400 . S
C1013 C1014 1.398 . S
C1014 H1002 0.950 . S
C1014 C1013 1.398 . S
C1014 C1015 1.391 . S
C1015 H1003 0.950 . S
C1015 C1011 1.393 . S
C1015 C1014 1.391 . S
H1016 C1024 0.950 . S
H1017 C1029 0.950 . S
H1018 C1026 0.950 1_556 S
H1019 C1028 0.950 . S
H1020 C1030 0.950 . S
H1021 C1032 0.950 1_554 S
H1022 C1034 0.950 . S
H1023 C1035 0.950 . S
C1024 H1016 0.950 . S
C1024 C1025 1.386 . S
C1024 C1026 1.391 . S
C1025 C1024 1.386 . S
C1025 C1029 1.393 . S
C1026 H1018 0.950 1_554 S
C1026 C1024 1.391 . S
C1026 C1027 1.400 . S
C1027 C1026 1.400 . S
C1027 C1028 1.398 . S
C1027 C1033 1.491 1_554 S
C1028 H1019 0.950 . S
C1028 C1027 1.398 . S
C1028 C1029 1.391 . S
C1029 H1017 0.950 . S
C1029 C1025 1.393 . S
C1029 C1028 1.391 . S
C1030 H1020 0.950 . S
C1030 C1031 1.386 . S
C1030 C1032 1.391 . S
C1031 C1030 1.386 . S
C1031 C1035 1.393 . S
C1032 H1021 0.950 1_556 S
C1032 C1030 1.391 . S
C1032 C1033 1.400 . S
C1033 C1027 1.491 1_556 S
C1033 C1032 1.400 . S
C1033 C1034 1.398 . S
C1034 H1022 0.950 . S
C1034 C1033 1.398 . S
C1034 C1035 1.391 . S
C1035 H1023 0.950 . S
C1035 C1031 1.393 . S
C1035 C1034 1.391 . S
H1036 C1044 0.950 . S
H1037 C1049 0.950 . S
H1038 C1046 0.950 . S
H1039 C1048 0.950 . S
H1040 C1050 0.950 . S
H1041 C1052 0.950 . S
H1042 C1054 0.950 . S
H1043 C1055 0.950 . S
C1044 H1036 0.950 . S
C1044 C1045 1.386 . S
C1044 C1046 1.391 . S
C1045 C1044 1.386 . S
C1045 C1049 1.393 . S
C1046 H1038 0.950 . S
C1046 C1044 1.391 . S
C1046 C1047 1.400 . S
C1047 C1046 1.400 . S
C1047 C1048 1.398 . S
C1047 C1053 1.491 . S
C1048 H1039 0.950 . S
C1048 C1047 1.398 . S
C1048 C1049 1.391 . S
C1049 H1037 0.950 . S
C1049 C1045 1.393 . S
C1049 C1048 1.391 . S
C1050 H1040 0.950 . S
C1050 C1051 1.386 . S
C1050 C1052 1.391 . S
C1051 C1050 1.386 . S
C1051 C1055 1.393 . S
C1052 H1041 0.950 . S
C1052 C1050 1.391 . S
C1052 C1053 1.400 . S
C1053 C1047 1.491 . S
C1053 C1052 1.400 . S
C1053 C1054 1.398 . S
C1054 H1042 0.950 . S
C1054 C1053 1.398 . S
C1054 C1055 1.391 . S
C1055 H1043 0.950 . S
C1055 C1051 1.393 . S
C1055 C1054 1.391 . S
H1056 C1064 0.950 1_554 S
H1057 C1069 0.950 . S
H1058 C1066 0.950 . S
H1059 C1068 0.950 . S
H1060 C1070 0.950 1_556 S
H1061 C1072 0.950 . S
H1062 C1074 0.950 . S
H1063 C1075 0.950 . S
C1064 H1056 0.950 1_556 S
C1064 C1065 1.386 . S
C1064 C1066 1.391 1_556 S
C1065 C1064 1.386 . S
C1065 C1069 1.393 . S
C1066 H1058 0.950 . S
C1066 C1064 1.391 1_554 S
C1066 C1067 1.400 1_554 S
C1067 C1066 1.400 1_556 S
C1067 C1068 1.398 . S
C1067 C1073 1.491 1_556 S
C1068 H1059 0.950 . S
C1068 C1067 1.398 . S
C1068 C1069 1.391 . S
C1069 H1057 0.950 . S
C1069 C1065 1.393 . S
C1069 C1068 1.391 . S
C1070 H1060 0.950 1_554 S
C1070 C1071 1.386 . S
C1070 C1072 1.391 1_554 S
C1071 C1070 1.386 . S
C1071 C1075 1.393 . S
C1072 H1061 0.950 . S
C1072 C1070 1.391 1_556 S
C1072 C1073 1.400 1_556 S
C1073 C1067 1.491 1_554 S
C1073 C1072 1.400 1_554 S
C1073 C1074 1.398 . S
C1074 H1062 0.950 . S
C1074 C1073 1.398 . S
C1074 C1075 1.391 . S
C1075 H1063 0.950 . S
C1075 C1071 1.393 . S
C1075 C1074 1.391 . S
H1076 C1084 0.950 . S
H1077 C1089 0.950 . S
H1078 C1086 0.950 . S
H1079 C1088 0.950 . S
H1080 C1090 0.950 . S
H1081 C1092 0.950 . S
H1082 C1094 0.950 . S
H1083 C1095 0.950 . S
C1084 H1076 0.950 . S
C1084 C1085 1.386 . S
C1084 C1086 1.391 . S
C1085 C1084 1.386 . S
C1085 C1089 1.393 . S
C1086 H1078 0.950 . S
C1086 C1084 1.391 . S
C1086 C1087 1.400 . S
C1087 C1086 1.400 . S
C1087 C1088 1.398 . S
C1087 C1093 1.491 . S
C1088 H1079 0.950 . S
C1088 C1087 1.398 . S
C1088 C1089 1.391 . S
C1089 H1077 0.950 . S
C1089 C1085 1.393 . S
C1089 C1088 1.391 . S
C1090 H1080 0.950 . S
C1090 C1091 1.386 . S
C1090 C1092 1.391 . S
C1091 C1090 1.386 . S
C1091 C1095 1.393 . S
C1092 H1081 0.950 . S
C1092 C1090 1.391 . S
C1092 C1093 1.400 . S
C1093 C1087 1.491 . S
C1093 C1092 1.400 . S
C1093 C1094 1.398 . S
C1094 H1082 0.950 . S
C1094 C1093 1.398 . S
C1094 C1095 1.391 . S
C1095 H1083 0.950 . S
C1095 C1091 1.393 . S
C1095 C1094 1.391 . S
H1096 C1104 0.950 . S
H1097 C1109 0.932 1_556 S
H1098 C1106 0.950 . S
H1099 C1108 0.950 . S
H1100 C1110 0.950 . S
H1101 C1112 0.950 . S
H1102 C1114 0.950 . S
H1103 C1115 0.932 1_554 S
C1104 H1096 0.950 . S
C1104 C1105 1.386 . S
C1104 C1106 1.391 . S
C1105 C1104 1.386 . S
C1105 C1109 1.423 . S
C1106 H1098 0.950 . S
C1106 C1104 1.391 . S
C1106 C1107 1.400 . S
C1107 C1106 1.400 . S
C1107 C1108 1.398 1_554 S
C1107 C1113 1.491 1_554 S
C1108 H1099 0.950 . S
C1108 C1107 1.398 1_556 S
C1108 C1109 1.379 1_556 S
C1109 H1097 0.932 1_554 S
C1109 C1105 1.423 . S
C1109 C1108 1.379 1_554 S
C1110 H1100 0.950 . S
C1110 C1111 1.386 . S
C1110 C1112 1.391 . S
C1111 C1110 1.386 . S
C1111 C1115 1.423 . S
C1112 H1101 0.950 . S
C1112 C1110 1.391 . S
C1112 C1113 1.400 . S
C1113 C1107 1.491 1_556 S
C1113 C1112 1.400 . S
C1113 C1114 1.398 1_556 S
C1114 H1102 0.950 . S
C1114 C1113 1.398 1_554 S
C1114 C1115 1.379 1_554 S
C1115 H1103 0.932 1_556 S
C1115 C1111 1.423 . S
C1115 C1114 1.379 1_556 S
H1116 C1124 0.950 . S
H1117 C1129 0.950 . S
H1118 C1126 0.950 . S
H1119 C1128 0.950 . S
H1120 C1130 0.950 . S
H1121 C1132 0.950 . S
H1122 C1134 0.950 . S
H1123 C1135 0.950 . S
C1124 H1116 0.950 . S
C1124 C1125 1.386 . S
C1124 C1126 1.391 . S
C1125 C1124 1.386 . S
C1125 C1129 1.393 . S
C1126 H1118 0.950 . S
C1126 C1124 1.391 . S
C1126 C1127 1.400 . S
C1127 C1126 1.400 . S
C1127 C1128 1.398 . S
C1127 C1133 1.491 . S
C1128 H1119 0.950 . S
C1128 C1127 1.398 . S
C1128 C1129 1.391 . S
C1129 H1117 0.950 . S
C1129 C1125 1.393 . S
C1129 C1128 1.391 . S
C1130 H1120 0.950 . S
C1130 C1131 1.386 . S
C1130 C1132 1.391 . S
C1131 C1130 1.386 . S
C1131 C1135 1.393 . S
C1132 H1121 0.950 . S
C1132 C1130 1.391 . S
C1132 C1133 1.400 . S
C1133 C1127 1.491 . S
C1133 C1132 1.400 . S
C1133 C1134 1.398 . S
C1134 H1122 0.950 . S
C1134 C1133 1.398 . S
C1134 C1135 1.391 . S
C1135 H1123 0.950 . S
C1135 C1131 1.393 . S
C1135 C1134 1.391 . S
H1136 C1144 0.950 . S
H1137 C1149 0.950 . S
H1138 C1146 0.941 1_554 S
H1139 C1148 0.950 . S
H1140 C1150 0.950 . S
H1141 C1152 0.941 1_556 S
H1142 C1154 0.950 . S
H1143 C1155 0.950 . S
C1144 H1136 0.950 . S
C1144 C1145 1.386 . S
C1144 C1146 1.397 . S
C1145 C1144 1.386 . S
C1145 C1149 1.393 . S
C1146 H1138 0.941 1_556 S
C1146 C1144 1.397 . S
C1146 C1147 1.403 . S
C1147 C1146 1.403 . S
C1147 C1148 1.398 . S
C1147 C1153 1.491 1_546 S
C1148 H1139 0.950 . S
C1148 C1147 1.398 . S
C1148 C1149 1.391 . S
C1149 H1137 0.950 . S
C1149 C1145 1.393 . S
C1149 C1148 1.391 . S
C1150 H1140 0.950 . S
C1150 C1151 1.386 . S
C1150 C1152 1.397 . S
C1151 C1150 1.386 . S
C1151 C1155 1.393 . S
C1152 H1141 0.941 1_554 S
C1152 C1150 1.397 . S
C1152 C1153 1.403 . S
C1153 C1147 1.491 1_564 S
C1153 C1152 1.403 . S
C1153 C1154 1.398 . S
C1154 H1142 0.950 . S
C1154 C1153 1.398 . S
C1154 C1155 1.391 . S
C1155 H1143 0.950 . S
C1155 C1151 1.393 . S
C1155 C1154 1.391 . S
H1156 C1164 0.950 . S
H1157 C1169 0.950 . S
H1158 C1166 0.950 . S
H1159 C1168 0.950 . S
H1160 C1170 0.950 . S
H1161 C1172 0.950 . S
H1162 C1174 0.950 . S
H1163 C1175 0.950 . S
C1164 H1156 0.950 . S
C1164 C1165 1.386 . S
C1164 C1166 1.391 . S
C1165 C1164 1.386 . S
C1165 C1169 1.393 . S
C1166 H1158 0.950 . S
C1166 C1164 1.391 . S
C1166 C1167 1.400 . S
C1167 C1166 1.400 . S
C1167 C1168 1.398 . S
C1167 C1173 1.491 1_565 S
C1168 H1159 0.950 . S
C1168 C1167 1.398 . S
C1168 C1169 1.391 . S
C1169 H1157 0.950 . S
C1169 C1165 1.393 . S
C1169 C1168 1.391 . S
C1170 H1160 0.950 . S
C1170 C1171 1.386 . S
C1170 C1172 1.391 . S
C1171 C1170 1.386 . S
C1171 C1175 1.393 . S
C1172 H1161 0.950 . S
C1172 C1170 1.391 . S
C1172 C1173 1.400 . S
C1173 C1167 1.491 1_545 S
C1173 C1172 1.400 . S
C1173 C1174 1.398 . S
C1174 H1162 0.950 . S
C1174 C1173 1.398 . S
C1174 C1175 1.391 . S
C1175 H1163 0.950 . S
C1175 C1171 1.393 . S
C1175 C1174 1.391 . S
H1176 C1184 0.950 . S
H1177 C1189 0.950 1_556 S
H1178 C1186 0.950 . S
H1179 C1188 0.950 . S
H1180 C1190 0.950 . S
H1181 C1192 0.950 . S
H1182 C1194 0.950 . S
H1183 C1195 0.950 1_554 S
C1184 H1176 0.950 . S
C1184 C1185 1.386 . S
C1184 C1186 1.391 . S
C1185 C1184 1.386 . S
C1185 C1189 1.393 . S
C1186 H1178 0.950 . S
C1186 C1184 1.391 . S
C1186 C1187 1.400 . S
C1187 C1186 1.400 . S
C1187 C1188 1.398 1_554 S
C1187 C1193 1.491 1_564 S
C1188 H1179 0.950 . S
C1188 C1187 1.398 1_556 S
C1188 C1189 1.391 1_556 S
C1189 H1177 0.950 1_554 S
C1189 C1185 1.393 . S
C1189 C1188 1.391 1_554 S
C1190 H1180 0.950 . S
C1190 C1191 1.386 . S
C1190 C1192 1.391 . S
C1191 C1190 1.386 . S
C1191 C1195 1.393 . S
C1192 H1181 0.950 . S
C1192 C1190 1.391 . S
C1192 C1193 1.400 . S
C1193 C1187 1.491 1_546 S
C1193 C1192 1.400 . S
C1193 C1194 1.398 1_556 S
C1194 H1182 0.950 . S
C1194 C1193 1.398 1_554 S
C1194 C1195 1.391 1_554 S
C1195 H1183 0.950 1_556 S
C1195 C1191 1.393 . S
C1195 C1194 1.391 1_556 S
H1196 C1204 0.950 . S
H1197 C1209 0.950 . S
H1198 C1206 0.950 . S
H1199 C1208 0.950 . S
H1200 C1210 0.950 . S
H1201 C1212 0.950 . S
H1202 C1214 0.950 . S
H1203 C1215 0.950 . S
C1204 H1196 0.950 . S
C1204 C1205 1.386 . S
C1204 C1206 1.391 . S
C1205 C1204 1.386 . S
C1205 C1209 1.393 . S
C1206 H1198 0.950 . S
C1206 C1204 1.391 . S
C1206 C1207 1.400 . S
C1207 C1206 1.400 . S
C1207 C1208 1.398 . S
C1207 C1213 1.491 1_545 S
C1208 H1199 0.950 . S
C1208 C1207 1.398 . S
C1208 C1209 1.391 . S
C1209 H1197 0.950 . S
C1209 C1205 1.393 . S
C1209 C1208 1.391 . S
C1210 H1200 0.950 . S
C1210 C1211 1.386 . S
C1210 C1212 1.391 . S
C1211 C1210 1.386 . S
C1211 C1215 1.393 . S
C1212 H1201 0.950 . S
C1212 C1210 1.391 . S
C1212 C1213 1.400 . S
C1213 C1207 1.491 1_565 S
C1213 C1212 1.400 . S
C1213 C1214 1.398 . S
C1214 H1202 0.950 . S
C1214 C1213 1.398 . S
C1214 C1215 1.391 . S
C1215 H1203 0.950 . S
C1215 C1211 1.393 . S
C1215 C1214 1.391 . S
C585 C3 1.432 . S
C591 C220 1.414 . S
C605 C39 1.433 . S
C611 C256 1.425 . S
C625 C148 1.425 . S
C631 C75 1.433 . S
C645 C184 1.426 . S
C651 C111 1.432 . S
C665 C508 1.425 . S
C671 C291 1.430 . S
C685 C544 1.410 . S
C691 C327 1.436 . S
C705 C363 1.435 . S
C711 C436 1.419 . S
C725 C399 1.431 . S
C731 C472 1.426 . S
C745 C2 1.445 . S
C751 C182 1.440 . S
C765 C38 1.445 . S
C771 C146 1.440 . S
C785 C74 1.441 . S
C791 C254 1.445 . S
C805 C218 1.440 . S
C811 C110 1.447 . S
C825 C470 1.449 . S
C831 C290 1.436 . S
C845 C434 1.447 . S
C851 C326 1.438 . S
C865 C362 1.437 . S
C871 C542 1.448 . S
C885 C506 1.442 . S
C891 C398 1.444 . S
C905 C435 1.330 . S
C911 C4 1.328 . S
C925 C40 1.329 . S
C931 C471 1.329 . S
C945 C507 1.322 . S
C951 C76 1.330 . S
C965 C543 1.326 . S
C971 C112 1.320 . S
C985 C292 1.320 . S
C991 C147 1.324 . S
C1005 C328 1.327 . S
C1011 C183 1.320 . S
C1025 C219 1.330 . S
C1031 C364 1.327 . S
C1045 C255 1.324 . S
C1051 C400 1.330 . S
C1065 C86 1.425 . S
C1071 C14 1.407 . S
C1085 C50 1.414 . S
C1091 C122 1.410 . S
C1105 C230 1.397 . S
C1111 C158 1.419 . S
C1125 C194 1.411 . S
C1131 C266 1.389 . S
C1145 C374 1.417 . S
C1151 C302 1.408 . S
C1165 C410 1.423 . S
C1171 C338 1.406 . S
C1185 C518 1.400 . S
C1191 C446 1.420 . S
C1205 C554 1.401 . S
C1211 C482 1.389 . S
