# Generated by pormake.
# Topology umc, (4)-cn, num edge types: 1
# Building blocks:
#     Node 0, Type 0, BuildingBlock: ICAMEG_clean_sbu_1, # of connection points: 4
#     Node 1, Type 0, BuildingBlock: ICAMEG_clean_sbu_1, # of connection points: 4
#     Node 2, Type 0, BuildingBlock: ICAMEG_clean_sbu_1, # of connection points: 4
#     Node 3, Type 0, BuildingBlock: ICAMEG_clean_sbu_1, # of connection points: 4
#     Node 4, Type 0, BuildingBlock: ICAMEG_clean_sbu_1, # of connection points: 4
#     Node 5, Type 0, BuildingBlock: ICAMEG_clean_sbu_1, # of connection points: 4
#     Node 6, Type 0, BuildingBlock: ICAMEG_clean_sbu_1, # of connection points: 4
#     Node 7, Type 0, BuildingBlock: ICAMEG_clean_sbu_1, # of connection points: 4
#     Node 8, Type 0, BuildingBlock: ICAMEG_clean_sbu_1, # of connection points: 4
#     Node 9, Type 0, BuildingBlock: ICAMEG_clean_sbu_1, # of connection points: 4
#     Node 10, Type 0, BuildingBlock: ICAMEG_clean_sbu_1, # of connection points: 4
#     Node 11, Type 0, BuildingBlock: ICAMEG_clean_sbu_1, # of connection points: 4
#     Node 12, Type 0, BuildingBlock: ICAMEG_clean_sbu_1, # of connection points: 4
#     Node 13, Type 0, BuildingBlock: ICAMEG_clean_sbu_1, # of connection points: 4
#     Node 14, Type 0, BuildingBlock: ICAMEG_clean_sbu_1, # of connection points: 4
#     Node 15, Type 0, BuildingBlock: ICAMEG_clean_sbu_1, # of connection points: 4
#     Edge 16, Type (0, 0), BuildingBlock: MIFKUJ_clean_linker_0, # of connection points: 2
#     Edge 17, Type (0, 0), BuildingBlock: MIFKUJ_clean_linker_0, # of connection points: 2
#     Edge 18, Type (0, 0), BuildingBlock: MIFKUJ_clean_linker_0, # of connection points: 2
#     Edge 19, Type (0, 0), BuildingBlock: MIFKUJ_clean_linker_0, # of connection points: 2
#     Edge 20, Type (0, 0), BuildingBlock: MIFKUJ_clean_linker_0, # of connection points: 2
#     Edge 21, Type (0, 0), BuildingBlock: MIFKUJ_clean_linker_0, # of connection points: 2
#     Edge 22, Type (0, 0), BuildingBlock: MIFKUJ_clean_linker_0, # of connection points: 2
#     Edge 23, Type (0, 0), BuildingBlock: MIFKUJ_clean_linker_0, # of connection points: 2
#     Edge 24, Type (0, 0), BuildingBlock: MIFKUJ_clean_linker_0, # of connection points: 2
#     Edge 25, Type (0, 0), BuildingBlock: MIFKUJ_clean_linker_0, # of connection points: 2
#     Edge 26, Type (0, 0), BuildingBlock: MIFKUJ_clean_linker_0, # of connection points: 2
#     Edge 27, Type (0, 0), BuildingBlock: MIFKUJ_clean_linker_0, # of connection points: 2
#     Edge 28, Type (0, 0), BuildingBlock: MIFKUJ_clean_linker_0, # of connection points: 2
#     Edge 29, Type (0, 0), BuildingBlock: MIFKUJ_clean_linker_0, # of connection points: 2
#     Edge 30, Type (0, 0), BuildingBlock: MIFKUJ_clean_linker_0, # of connection points: 2
#     Edge 31, Type (0, 0), BuildingBlock: MIFKUJ_clean_linker_0, # of connection points: 2
#     Edge 32, Type (0, 0), BuildingBlock: MIFKUJ_clean_linker_0, # of connection points: 2
#     Edge 33, Type (0, 0), BuildingBlock: MIFKUJ_clean_linker_0, # of connection points: 2
#     Edge 34, Type (0, 0), BuildingBlock: MIFKUJ_clean_linker_0, # of connection points: 2
#     Edge 35, Type (0, 0), BuildingBlock: MIFKUJ_clean_linker_0, # of connection points: 2
#     Edge 36, Type (0, 0), BuildingBlock: MIFKUJ_clean_linker_0, # of connection points: 2
#     Edge 37, Type (0, 0), BuildingBlock: MIFKUJ_clean_linker_0, # of connection points: 2
#     Edge 38, Type (0, 0), BuildingBlock: MIFKUJ_clean_linker_0, # of connection points: 2
#     Edge 39, Type (0, 0), BuildingBlock: MIFKUJ_clean_linker_0, # of connection points: 2
#     Edge 40, Type (0, 0), BuildingBlock: MIFKUJ_clean_linker_0, # of connection points: 2
#     Edge 41, Type (0, 0), BuildingBlock: MIFKUJ_clean_linker_0, # of connection points: 2
#     Edge 42, Type (0, 0), BuildingBlock: MIFKUJ_clean_linker_0, # of connection points: 2
#     Edge 43, Type (0, 0), BuildingBlock: MIFKUJ_clean_linker_0, # of connection points: 2
#     Edge 44, Type (0, 0), BuildingBlock: MIFKUJ_clean_linker_0, # of connection points: 2
#     Edge 45, Type (0, 0), BuildingBlock: MIFKUJ_clean_linker_0, # of connection points: 2
#     Edge 46, Type (0, 0), BuildingBlock: MIFKUJ_clean_linker_0, # of connection points: 2
#     Edge 47, Type (0, 0), BuildingBlock: MIFKUJ_clean_linker_0, # of connection points: 2
# Relax obj value: 0.052
# Max RMSD: 0.131
# Mean RMSD: 0.131
data_MOF--net-umc--node1-ICAMEG_clean_sbu_1--edge1-MIFKUJ_clean_linker_0
_symmetry_space_group_name_H-M    P1
_symmetry_Int_Tables_number       1
_symmetry_cell_setting            triclinic
loop_
_symmetry_equiv_pos_as_xyz
'x, y, z'
_cell_length_a     64.402005
_cell_length_b     43.271555
_cell_length_c     78.165975
_cell_angle_alpha  90.004599
_cell_angle_beta   89.98988
_cell_angle_gamma 89.987648
loop_
_atom_site_label
_atom_site_type_symbol
_atom_site_fract_x
_atom_site_fract_y
_atom_site_fract_z
_atom_type_partial_charge
Co0 Co 0.34978 0.03028 0.37454 0.0
Co1 Co 0.36749 0.10032 0.35901 0.0
O2 O 0.35044 0.07537 0.37431 0.0
C3 C 0.36308 0.04819 0.40904 0.0
O4 O 0.37615 0.06685 0.40136 0.0
C5 C 0.32468 0.12032 0.35238 0.0
O6 O 0.31948 0.091 0.35216 0.0
O7 O 0.35903 0.07516 0.33892 0.0
O8 O 0.34865 0.02898 0.349 0.0
H9 H 0.41936 0.11815 0.31203 0.0
H10 H 0.3195 0.06572 0.39536 0.0
O11 O 0.35104 0.03111 0.4002 0.0
H12 H 0.27729 0.00396 0.35535 0.0
H13 H 0.32703 0.92687 0.39728 0.0
H14 H 0.36998 0.98065 0.35435 0.0
H15 H 0.3155 -4e-05 0.35515 0.0
H16 H 0.32801 0.98385 0.39623 0.0
O17 O 0.34344 0.12831 0.35493 0.0
H18 H 0.39811 0.08673 0.33171 0.0
H19 H 0.37237 0.1681 0.35348 0.0
H20 H 0.36935 0.92365 0.35485 0.0
H21 H 0.28133 0.07027 0.39607 0.0
H22 H 0.34775 0.89639 0.37643 0.0
H23 H 0.25997 0.03932 0.37592 0.0
O24 O 0.38064 0.02767 0.37367 0.0
H25 H 0.35489 0.15981 0.41323 0.0
H26 H 0.40798 0.12339 0.37249 0.0
H27 H 0.41876 0.15301 0.39794 0.0
H28 H 0.39211 0.17143 0.41853 0.0
H29 H 0.34483 0.12988 0.38769 0.0
H30 H 0.39321 0.20041 0.33395 0.0
H31 H 0.41697 0.17542 0.31308 0.0
O32 O 0.39176 0.07282 0.3628 0.0
C33 C 0.35237 0.04768 0.33674 0.0
C34 C 0.40912 0.12931 0.32111 0.0
C35 C 0.39442 0.17548 0.33339 0.0
N36 N 0.38416 0.12559 0.34382 0.0
C37 C 0.3971 0.11165 0.33231 0.0
C38 C 0.38263 0.15707 0.3444 0.0
C39 C 0.40775 0.16144 0.32169 0.0
C40 C 0.3103 0.05193 0.38668 0.0
N41 N 0.31971 0.03248 0.3753 0.0
C42 C 0.2887 0.05471 0.38709 0.0
C43 C 0.27672 0.03737 0.37576 0.0
C44 C 0.28643 0.01754 0.36421 0.0
C45 C 0.30807 0.01541 0.36414 0.0
C46 C 0.33647 0.93848 0.38779 0.0
C47 C 0.36044 0.96894 0.36371 0.0
C48 C 0.33711 0.97072 0.38716 0.0
N49 N 0.3489 0.98552 0.37515 0.0
C50 C 0.36019 0.93667 0.36396 0.0
C51 C 0.34809 0.92139 0.37609 0.0
C52 C 0.39502 0.0457 0.36855 0.0
C53 C 0.36665 0.15196 0.40434 0.0
C54 C 0.39631 0.13126 0.3814 0.0
C55 C 0.4025 0.14809 0.39577 0.0
C56 C 0.38753 0.15844 0.40731 0.0
N57 N 0.3758 0.12496 0.37859 0.0
C58 C 0.36104 0.13511 0.38982 0.0
Co59 Co 0.65227 0.96016 0.37267 0.0
Co60 Co 0.63479 0.8908 0.35596 0.0
O61 O 0.65161 0.91501 0.3718 0.0
C62 C 0.63824 0.94064 0.40675 0.0
O63 O 0.62559 0.92182 0.39872 0.0
C64 C 0.67769 0.87068 0.34932 0.0
O65 O 0.68317 0.8999 0.34944 0.0
O66 O 0.64361 0.917 0.33642 0.0
O67 O 0.654 0.96269 0.34718 0.0
H68 H 0.58433 0.8761 0.30766 0.0
H69 H 0.68198 0.92365 0.39345 0.0
O70 O 0.65033 0.95821 0.39825 0.0
H71 H 0.72524 0.98732 0.35514 0.0
H72 H 0.67446 0.06238 0.39733 0.0
H73 H 0.63247 0.0108 0.35298 0.0
H74 H 0.68704 0.99131 0.35431 0.0
H75 H 0.67359 0.00548 0.39534 0.0
O76 O 0.65884 0.86301 0.35165 0.0
H77 H 0.60488 0.90612 0.32847 0.0
H78 H 0.62983 0.82331 0.34917 0.0
H79 H 0.63302 0.06775 0.3544 0.0
H80 H 0.72012 0.91905 0.39477 0.0
H81 H 0.65413 0.0939 0.37671 0.0
H82 H 0.74201 0.95098 0.37549 0.0
O83 O 0.62146 0.96289 0.37133 0.0
H84 H 0.64697 0.82818 0.40914 0.0
H85 H 0.59429 0.86588 0.36841 0.0
H86 H 0.58333 0.83441 0.39313 0.0
H87 H 0.60979 0.81529 0.41369 0.0
H88 H 0.65716 0.86014 0.3844 0.0
H89 H 0.60958 0.79237 0.32857 0.0
H90 H 0.5866 0.81879 0.30764 0.0
O91 O 0.61038 0.91799 0.36005 0.0
C92 C 0.65047 0.94446 0.33468 0.0
C93 C 0.59421 0.86431 0.31677 0.0
C94 C 0.60841 0.81732 0.32848 0.0
N95 N 0.61837 0.86646 0.34012 0.0
C96 C 0.60583 0.88118 0.32862 0.0
C97 C 0.61985 0.83496 0.34011 0.0
C98 C 0.59552 0.83216 0.31675 0.0
C99 C 0.69141 0.93783 0.38513 0.0
N100 N 0.6823 0.95785 0.37389 0.0
C101 C 0.71299 0.93504 0.38589 0.0
C102 C 0.72527 0.95293 0.37505 0.0
C103 C 0.71586 0.97331 0.36362 0.0
C104 C 0.69423 0.97544 0.36319 0.0
C105 C 0.66525 0.05126 0.38753 0.0
C106 C 0.64182 0.02203 0.36263 0.0
C107 C 0.66467 0.01906 0.38635 0.0
N108 N 0.65315 0.00488 0.37395 0.0
C109 C 0.64201 0.05427 0.36342 0.0
C110 C 0.65384 0.06893 0.37595 0.0
C111 C 0.60713 0.94499 0.36599 0.0
C112 C 0.63528 0.8364 0.40028 0.0
C113 C 0.60583 0.8579 0.3774 0.0
C114 C 0.59957 0.83995 0.39132 0.0
C115 C 0.61442 0.8292 0.40284 0.0
N116 N 0.6263 0.86497 0.37501 0.0
C117 C 0.64097 0.85442 0.38622 0.0
Co118 Co 0.3451 0.96783 0.12471 0.0
Co119 Co 0.3617 0.89757 0.14045 0.0
O120 O 0.34602 0.92275 0.12431 0.0
C121 C 0.36028 0.95211 0.09046 0.0
O122 O 0.37356 0.93402 0.09832 0.0
C123 C 0.31911 0.87355 0.14289 0.0
O124 O 0.31285 0.9023 0.14444 0.0
O125 O 0.34946 0.92017 0.16009 0.0
O126 O 0.34303 0.96816 0.15031 0.0
H127 H 0.40679 0.87875 0.19183 0.0
H128 H 0.31579 0.93324 0.10259 0.0
O129 O 0.34736 0.96804 0.09912 0.0
H130 H 0.27179 0.99305 0.14223 0.0
H131 H 0.3228 0.072 0.10274 0.0
H132 H 0.36464 0.01675 0.14582 0.0
H133 H 0.30997 0.99696 0.14365 0.0
H134 H 0.32382 0.01498 0.10317 0.0
O135 O 0.33832 0.86745 0.14118 0.0
H136 H 0.38729 0.91051 0.17115 0.0
H137 H 0.36832 0.82975 0.14452 0.0
H138 H 0.36397 0.07376 0.14593 0.0
H139 H 0.27768 0.92885 0.10062 0.0
H140 H 0.34292 0.10175 0.12427 0.0
H141 H 0.25542 0.95883 0.12058 0.0
O142 O 0.37582 0.97046 0.12638 0.0
H143 H 0.35955 0.84239 0.08391 0.0
H144 H 0.40476 0.87949 0.13051 0.0
H145 H 0.42035 0.85326 0.1056 0.0
H146 H 0.39769 0.83453 0.08208 0.0
H147 H 0.34462 0.86893 0.10899 0.0
H148 H 0.38727 0.79706 0.16514 0.0
H149 H 0.40675 0.82159 0.18897 0.0
O150 O 0.38543 0.92705 0.14003 0.0
C151 C 0.34407 0.94824 0.16235 0.0
C152 C 0.39836 0.86779 0.18152 0.0
C153 C 0.38741 0.82195 0.16652 0.0
N154 N 0.37688 0.87201 0.15653 0.0
C155 C 0.38739 0.88567 0.1697 0.0
C156 C 0.37668 0.84057 0.1549 0.0
C157 C 0.39834 0.83572 0.17989 0.0
C158 C 0.3062 0.94658 0.11121 0.0
N159 N 0.31509 0.96545 0.12316 0.0
C160 C 0.28463 0.9439 0.11008 0.0
C161 C 0.27215 0.9607 0.1213 0.0
C162 C 0.28133 0.97989 0.13346 0.0
C163 C 0.30295 0.98196 0.13422 0.0
C164 C 0.33197 0.06006 0.11227 0.0
C165 C 0.35532 0.02878 0.13645 0.0
C166 C 0.33263 0.0278 0.11257 0.0
N167 N 0.34409 0.0126 0.12463 0.0
C168 C 0.35506 0.06105 0.13653 0.0
C169 C 0.34327 0.07674 0.12436 0.0
C170 C 0.38939 0.95345 0.1336 0.0
C171 C 0.36958 0.85036 0.09411 0.0
C172 C 0.39479 0.8714 0.12032 0.0
C173 C 0.40371 0.85653 0.10627 0.0
C174 C 0.39098 0.846 0.09308 0.0
N175 N 0.37379 0.87559 0.12124 0.0
C176 C 0.3612 0.86527 0.10838 0.0
Co177 Co 0.64703 0.03733 0.1243 0.0
Co178 Co 0.62967 0.10648 0.14098 0.0
O179 O 0.64571 0.08235 0.12457 0.0
C180 C 0.63203 0.05391 0.09004 0.0
O181 O 0.61846 0.07157 0.09788 0.0
C182 C 0.67213 0.1306 0.14432 0.0
O183 O 0.67839 0.10183 0.14566 0.0
O184 O 0.64159 0.08293 0.16044 0.0
O185 O 0.64891 0.03585 0.14984 0.0
H186 H 0.584 0.12245 0.19234 0.0
H187 H 0.6762 0.0737 0.10295 0.0
O188 O 0.64503 0.03817 0.09872 0.0
H189 H 0.7204 0.01286 0.14194 0.0
H190 H 0.67033 0.93466 0.10089 0.0
H191 H 0.62794 0.98705 0.14472 0.0
H192 H 0.68226 0.00789 0.14295 0.0
H193 H 0.66882 0.9916 0.10215 0.0
O194 O 0.65293 0.13671 0.14246 0.0
H195 H 0.60381 0.09184 0.1713 0.0
H196 H 0.62253 0.17396 0.14587 0.0
H197 H 0.62911 0.93008 0.144 0.0
H198 H 0.71428 0.07922 0.10142 0.0
H199 H 0.65044 0.90352 0.12196 0.0
H200 H 0.73664 0.04873 0.12104 0.0
O201 O 0.61628 0.034 0.12577 0.0
H202 H 0.63264 0.16512 0.08555 0.0
H203 H 0.5867 0.12446 0.13074 0.0
H204 H 0.57146 0.15205 0.10615 0.0
H205 H 0.5945 0.17262 0.08334 0.0
H206 H 0.64721 0.13714 0.11027 0.0
H207 H 0.60306 0.2055 0.16672 0.0
H208 H 0.58354 0.17971 0.19012 0.0
O209 O 0.60615 0.07676 0.13983 0.0
C210 C 0.64729 0.05489 0.16225 0.0
C211 C 0.59236 0.13395 0.18216 0.0
C212 C 0.60309 0.18056 0.16779 0.0
N213 N 0.61411 0.13109 0.15727 0.0
C214 C 0.60355 0.11673 0.17018 0.0
C215 C 0.6141 0.16259 0.15604 0.0
C216 C 0.59213 0.16608 0.18092 0.0
C217 C 0.68585 0.06013 0.11142 0.0
N218 N 0.67703 0.04038 0.12296 0.0
C219 C 0.70739 0.06345 0.11054 0.0
C220 C 0.71993 0.04636 0.12157 0.0
C221 C 0.71082 0.02625 0.1333 0.0
C222 C 0.68922 0.02357 0.13384 0.0
C223 C 0.66103 0.94596 0.11058 0.0
C224 C 0.63737 0.97565 0.13517 0.0
C225 C 0.66009 0.97818 0.11134 0.0
N226 N 0.64845 0.9926 0.12359 0.0
C227 C 0.63792 0.94339 0.13479 0.0
C228 C 0.64987 0.9285 0.12241 0.0
C229 C 0.6025 0.0505 0.1331 0.0
C230 C 0.62245 0.15634 0.09543 0.0
C231 C 0.59683 0.1333 0.12085 0.0
C232 C 0.58811 0.14895 0.10698 0.0
C233 C 0.60104 0.1605 0.09419 0.0
N234 N 0.61784 0.12933 0.12198 0.0
C235 C 0.63062 0.1406 0.1095 0.0
Co236 Co 0.65067 0.96822 0.62435 0.0
Co237 Co 0.63162 0.90108 0.64233 0.0
O238 O 0.64838 0.92334 0.62563 0.0
C239 C 0.63581 0.94922 0.59049 0.0
O240 O 0.62212 0.93239 0.59872 0.0
C241 C 0.67373 0.87644 0.64672 0.0
O242 O 0.68003 0.90528 0.64724 0.0
O243 O 0.64338 0.9258 0.66139 0.0
O244 O 0.65238 0.97151 0.64987 0.0
H245 H 0.58404 0.89083 0.69295 0.0
H246 H 0.67917 0.92881 0.60406 0.0
O247 O 0.64883 0.96557 0.59879 0.0
H248 H 0.72441 0.98992 0.64208 0.0
H249 H 0.67668 0.06781 0.59895 0.0
H250 H 0.63257 0.02088 0.6435 0.0
H251 H 0.68642 0.99722 0.64257 0.0
H252 H 0.67367 0.01113 0.60135 0.0
O253 O 0.65452 0.8703 0.64498 0.0
H254 H 0.60499 0.91904 0.67163 0.0
H255 H 0.62354 0.83431 0.64886 0.0
H256 H 0.63527 0.07767 0.64166 0.0
H257 H 0.71708 0.92086 0.6031 0.0
H258 H 0.65746 0.10147 0.61925 0.0
H259 H 0.73996 0.95148 0.62225 0.0
O260 O 0.61999 0.97305 0.62546 0.0
H261 H 0.63506 0.83838 0.58828 0.0
H262 H 0.58866 0.88351 0.63183 0.0
H263 H 0.57362 0.85463 0.60763 0.0
H264 H 0.59688 0.83189 0.58562 0.0
H265 H 0.64945 0.86753 0.61266 0.0
H266 H 0.60293 0.80515 0.67002 0.0
H267 H 0.58292 0.83346 0.69222 0.0
O268 O 0.60855 0.93145 0.63993 0.0
C269 C 0.64995 0.95351 0.66266 0.0
C270 C 0.59262 0.87823 0.6833 0.0
C271 C 0.60325 0.83014 0.67044 0.0
N272 N 0.61528 0.87834 0.65892 0.0
C273 C 0.60445 0.89408 0.67116 0.0
C274 C 0.61492 0.84677 0.65852 0.0
C275 C 0.59202 0.84604 0.68289 0.0
C276 C 0.68905 0.94246 0.6123 0.0
N277 N 0.6806 0.96357 0.62329 0.0
C278 C 0.71049 0.93776 0.61175 0.0
C279 C 0.72332 0.95491 0.62252 0.0
C280 C 0.7146 0.97647 0.63366 0.0
C281 C 0.69308 0.98048 0.63389 0.0
C282 C 0.667 0.05771 0.60879 0.0
C283 C 0.64236 0.03109 0.63379 0.0
C284 C 0.6652 0.02565 0.61019 0.0
N285 N 0.6531 0.01275 0.62265 0.0
C286 C 0.64378 0.06324 0.63278 0.0
C287 C 0.65622 0.07659 0.62019 0.0
C288 C 0.60563 0.95746 0.63266 0.0
C289 C 0.62477 0.8481 0.59782 0.0
C290 C 0.59889 0.87365 0.62232 0.0
C291 C 0.59028 0.8573 0.60865 0.0
C292 C 0.60334 0.84451 0.59631 0.0
N293 N 0.61993 0.87705 0.62371 0.0
C294 C 0.63284 0.86451 0.61169 0.0
Co295 Co 0.34733 0.04284 0.6274 0.0
Co296 Co 0.36883 0.11115 0.64207 0.0
O297 O 0.35069 0.08762 0.62693 0.0
C298 C 0.36213 0.0567 0.59272 0.0
O299 O 0.37606 0.0743 0.60014 0.0
C300 C 0.32721 0.13606 0.64836 0.0
O301 O 0.32112 0.10722 0.64964 0.0
O302 O 0.35895 0.08814 0.66253 0.0
O303 O 0.34577 0.04316 0.65292 0.0
H304 H 0.4211 0.12566 0.68912 0.0
H305 H 0.31974 0.08149 0.60586 0.0
O306 O 0.34899 0.04194 0.60178 0.0
H307 H 0.27317 0.02722 0.64591 0.0
H308 H 0.31872 0.94142 0.60641 0.0
H309 H 0.364 0.9921 0.64886 0.0
H310 H 0.31094 0.01779 0.64654 0.0
H311 H 0.32333 0.99805 0.60621 0.0
O312 O 0.3462 0.14225 0.64533 0.0
H313 H 0.39827 0.09568 0.66998 0.0
H314 H 0.37734 0.17837 0.64635 0.0
H315 H 0.35964 0.93549 0.64966 0.0
H316 H 0.28206 0.09152 0.60473 0.0
H317 H 0.33686 0.90979 0.62832 0.0
H318 H 0.25851 0.06436 0.6249 0.0
O319 O 0.37795 0.03631 0.62858 0.0
H320 H 0.36083 0.16925 0.58678 0.0
H321 H 0.41076 0.12707 0.62853 0.0
H322 H 0.42375 0.1534 0.60269 0.0
H323 H 0.3987 0.1747 0.58159 0.0
H324 H 0.3485 0.1425 0.61274 0.0
H325 H 0.39982 0.2093 0.66533 0.0
H326 H 0.42198 0.18291 0.68685 0.0
O327 O 0.39144 0.08035 0.63915 0.0
C328 C 0.35072 0.06169 0.66496 0.0
C329 C 0.41158 0.13743 0.67976 0.0
C330 C 0.39961 0.18437 0.66642 0.0
N331 N 0.38663 0.13524 0.65698 0.0
C332 C 0.39867 0.12056 0.66885 0.0
C333 C 0.38688 0.16674 0.65574 0.0
C334 C 0.41204 0.16955 0.67849 0.0
C335 C 0.30957 0.06937 0.61457 0.0
N336 N 0.31752 0.04902 0.62623 0.0
C337 C 0.28825 0.07523 0.61391 0.0
C338 C 0.27505 0.06002 0.62525 0.0
C339 C 0.28327 0.03919 0.63706 0.0
C340 C 0.30467 0.03399 0.63738 0.0
C341 C 0.32866 0.95236 0.61579 0.0
C342 C 0.35396 0.9811 0.6396 0.0
C343 C 0.33137 0.98439 0.61571 0.0
N344 N 0.34379 0.99835 0.62759 0.0
C345 C 0.3516 0.94903 0.64009 0.0
C346 C 0.33884 0.93462 0.6281 0.0
C347 C 0.39319 0.05265 0.63379 0.0
C348 C 0.37189 0.16016 0.59591 0.0
C349 C 0.39975 0.1363 0.61942 0.0
C350 C 0.40721 0.15121 0.60482 0.0
C351 C 0.39315 0.16317 0.59299 0.0
N352 N 0.37888 0.13342 0.62219 0.0
C353 C 0.365 0.14513 0.61067 0.0
Co354 Co 0.64889 0.02711 0.87291 0.0
Co355 Co 0.63208 0.09875 0.8593 0.0
O356 O 0.64707 0.07193 0.87501 0.0
C357 C 0.63006 0.03793 0.90649 0.0
O358 O 0.61681 0.05563 0.89833 0.0
C359 C 0.67458 0.1234 0.85941 0.0
O360 O 0.68104 0.09483 0.85751 0.0
O361 O 0.64547 0.0787 0.83927 0.0
O362 O 0.65339 0.03031 0.84765 0.0
H363 H 0.58974 0.12303 0.80704 0.0
H364 H 0.67527 0.05986 0.89821 0.0
O365 O 0.64421 0.02372 0.89822 0.0
H366 H 0.72411 0.00708 0.85937 0.0
H367 H 0.67124 0.92135 0.89233 0.0
H368 H 0.63273 0.98027 0.84863 0.0
H369 H 0.68629 0.00187 0.85531 0.0
H370 H 0.66886 0.97819 0.89405 0.0
O371 O 0.65525 0.12924 0.86042 0.0
H372 H 0.60818 0.08911 0.82734 0.0
H373 H 0.62495 0.16676 0.85757 0.0
H374 H 0.63486 0.92349 0.84632 0.0
H375 H 0.71297 0.06549 0.90282 0.0
H376 H 0.65423 0.89365 0.86828 0.0
H377 H 0.73767 0.03906 0.88328 0.0
O378 O 0.61847 0.0234 0.86898 0.0
H379 H 0.63098 0.1453 0.91819 0.0
H380 H 0.58841 0.11508 0.8685 0.0
H381 H 0.57135 0.13658 0.89411 0.0
H382 H 0.59268 0.15179 0.91922 0.0
H383 H 0.64738 0.12341 0.89237 0.0
H384 H 0.60686 0.20158 0.83749 0.0
H385 H 0.58904 0.17971 0.81204 0.0
O386 O 0.60864 0.06896 0.85786 0.0
C387 C 0.65218 0.05147 0.83629 0.0
C388 C 0.59741 0.13283 0.8181 0.0
C389 C 0.60702 0.17692 0.83519 0.0
N390 N 0.61746 0.12593 0.8437 0.0
C391 C 0.60781 0.11373 0.82967 0.0
C392 C 0.61726 0.1571 0.8465 0.0
C393 C 0.59703 0.16463 0.82091 0.0
C394 C 0.68592 0.04804 0.88976 0.0
N395 N 0.67859 0.03042 0.87657 0.0
C396 C 0.70725 0.05142 0.89239 0.0
C397 C 0.7211 0.03662 0.8814 0.0
C398 C 0.71351 0.01869 0.86798 0.0
C399 C 0.69208 0.01587 0.86572 0.0
C400 C 0.6628 0.9341 0.88266 0.0
C401 C 0.64132 0.96744 0.85816 0.0
C402 C 0.66138 0.96626 0.88358 0.0
N403 N 0.65085 0.98251 0.87135 0.0
C404 C 0.64241 0.9353 0.85682 0.0
C405 C 0.65326 0.91857 0.86916 0.0
C406 C 0.6049 0.04122 0.86236 0.0
C407 C 0.62153 0.13885 0.90731 0.0
C408 C 0.5978 0.12171 0.87934 0.0
C409 C 0.58805 0.1339 0.89381 0.0
C410 C 0.60003 0.14244 0.90789 0.0
N411 N 0.61888 0.11811 0.8789 0.0
C412 C 0.63074 0.1266 0.89262 0.0
Co413 Co 0.34663 0.95609 0.87198 0.0
Co414 Co 0.36782 0.88681 0.85833 0.0
O415 O 0.34903 0.91107 0.87261 0.0
C416 C 0.36038 0.94152 0.90692 0.0
O417 O 0.37351 0.92224 0.8998 0.0
C418 C 0.32603 0.86447 0.84948 0.0
O419 O 0.32 0.89343 0.84919 0.0
O420 O 0.36079 0.91156 0.83761 0.0
O421 O 0.34519 0.95524 0.84655 0.0
H422 H 0.42407 0.87152 0.81462 0.0
H423 H 0.31812 0.91907 0.8936 0.0
O424 O 0.34814 0.95743 0.89761 0.0
H425 H 0.27297 0.97502 0.85315 0.0
H426 H 0.31993 0.05912 0.89232 0.0
H427 H 0.36427 0.0057 0.85022 0.0
H428 H 0.31093 0.98243 0.85255 0.0
H429 H 0.32346 0.00233 0.89287 0.0
O430 O 0.34481 0.85764 0.85282 0.0
H431 H 0.4006 0.90185 0.83304 0.0
H432 H 0.37466 0.81925 0.85316 0.0
H433 H 0.36098 0.06244 0.84906 0.0
H434 H 0.28022 0.91113 0.89474 0.0
H435 H 0.33868 0.08953 0.87023 0.0
H436 H 0.25738 0.93914 0.87437 0.0
O437 O 0.37743 0.96154 0.87082 0.0
H438 H 0.35145 0.82611 0.91144 0.0
H439 H 0.40739 0.86528 0.87422 0.0
H440 H 0.41638 0.83565 0.90015 0.0
H441 H 0.38829 0.81579 0.91894 0.0
H442 H 0.34319 0.85625 0.88555 0.0
H443 H 0.39794 0.78801 0.835 0.0
H444 H 0.42293 0.81418 0.8156 0.0
O445 O 0.39099 0.9154 0.8636 0.0
C446 C 0.35176 0.93731 0.83479 0.0
C447 C 0.41337 0.85985 0.82311 0.0
C448 C 0.39864 0.81298 0.8345 0.0
N449 N 0.38637 0.86233 0.84424 0.0
C450 C 0.40004 0.8769 0.83357 0.0
C451 C 0.38548 0.83079 0.84473 0.0
C452 C 0.41267 0.82768 0.82363 0.0
C453 C 0.30826 0.93155 0.8848 0.0
N454 N 0.31672 0.95127 0.87306 0.0
C455 C 0.28682 0.92687 0.88546 0.0
C456 C 0.27402 0.94257 0.87401 0.0
C457 C 0.28275 0.96269 0.8621 0.0
C458 C 0.30426 0.96674 0.86179 0.0
C459 C 0.32967 0.04758 0.88302 0.0
C460 C 0.35444 0.0173 0.85941 0.0
C461 C 0.33178 0.01545 0.8833 0.0
N462 N 0.34395 0.00072 0.87152 0.0
C463 C 0.35269 0.04944 0.85872 0.0
C464 C 0.34019 0.06463 0.87061 0.0
C465 C 0.39278 0.94373 0.86776 0.0
C466 C 0.36383 0.83464 0.90336 0.0
C467 C 0.3951 0.85691 0.88241 0.0
C468 C 0.40027 0.84004 0.89703 0.0
C469 C 0.3845 0.82888 0.90756 0.0
N470 N 0.3748 0.8625 0.87838 0.0
C471 C 0.35925 0.85162 0.88864 0.0
Co472 Co 0.85265 0.52884 0.37232 0.0
Co473 Co 0.86786 0.60167 0.35933 0.0
O474 O 0.85277 0.57374 0.37438 0.0
C475 C 0.86937 0.54098 0.40653 0.0
O476 O 0.88221 0.55998 0.39884 0.0
C477 C 0.8246 0.62311 0.35714 0.0
O478 O 0.81908 0.59414 0.35511 0.0
O479 O 0.85677 0.58038 0.33868 0.0
O480 O 0.84934 0.53175 0.34695 0.0
H481 H 0.91316 0.62939 0.30929 0.0
H482 H 0.82389 0.55951 0.39665 0.0
O483 O 0.85617 0.52572 0.39778 0.0
H484 H 0.77899 0.50328 0.35612 0.0
H485 H 0.83299 0.42151 0.39105 0.0
H486 H 0.87154 0.4833 0.3486 0.0
H487 H 0.81712 0.50084 0.35344 0.0
H488 H 0.83336 0.47845 0.39282 0.0
O489 O 0.84361 0.63017 0.35914 0.0
H490 H 0.89451 0.59399 0.32869 0.0
H491 H 0.87248 0.67016 0.35776 0.0
H492 H 0.87144 0.42644 0.34625 0.0
H493 H 0.78584 0.56236 0.39989 0.0
H494 H 0.85206 0.39516 0.36758 0.0
H495 H 0.76312 0.53418 0.3795 0.0
O496 O 0.88335 0.52739 0.36943 0.0
H497 H 0.86252 0.64877 0.41792 0.0
H498 H 0.91 0.62201 0.37067 0.0
H499 H 0.9241 0.64562 0.39694 0.0
H500 H 0.90028 0.65908 0.42082 0.0
H501 H 0.8491 0.62501 0.39146 0.0
H502 H 0.89073 0.70641 0.3386 0.0
H503 H 0.91132 0.68605 0.3142 0.0
O504 O 0.89242 0.57394 0.35919 0.0
C505 C 0.85086 0.55278 0.33554 0.0
C506 C 0.9043 0.63854 0.31991 0.0
C507 C 0.89169 0.68177 0.33635 0.0
N508 N 0.88257 0.62999 0.34441 0.0
C509 C 0.89376 0.61861 0.33097 0.0
C510 C 0.88136 0.66114 0.34714 0.0
C511 C 0.90324 0.67033 0.32266 0.0
C512 C 0.81411 0.54693 0.38783 0.0
N513 N 0.82271 0.52989 0.37494 0.0
C514 C 0.79257 0.54874 0.38969 0.0
C515 C 0.77983 0.53296 0.37823 0.0
C516 C 0.78873 0.51563 0.3651 0.0
C517 C 0.81032 0.51438 0.36363 0.0
C518 C 0.84145 0.43489 0.38165 0.0
C519 C 0.86295 0.46984 0.35786 0.0
C520 C 0.84175 0.46711 0.38261 0.0
N521 N 0.8523 0.48414 0.37073 0.0
C522 C 0.86301 0.43765 0.3565 0.0
C523 C 0.85215 0.42012 0.36848 0.0
C524 C 0.89674 0.54637 0.3636 0.0
C525 C 0.87304 0.6431 0.40758 0.0
C526 C 0.89954 0.62788 0.38098 0.0
C527 C 0.9076 0.64127 0.39582 0.0
C528 C 0.89423 0.64883 0.40921 0.0
N529 N 0.87873 0.62225 0.3795 0.0
C530 C 0.86552 0.62977 0.39253 0.0
Co531 Co 0.15477 0.46481 0.37241 0.0
Co532 Co 0.13639 0.39255 0.36115 0.0
O533 O 0.15331 0.42006 0.3751 0.0
C534 C 0.13847 0.45502 0.4069 0.0
O535 O 0.12532 0.43594 0.39965 0.0
C536 C 0.17894 0.36931 0.35626 0.0
O537 O 0.18488 0.39802 0.35391 0.0
O538 O 0.1458 0.41319 0.33969 0.0
O539 O 0.15767 0.46023 0.34721 0.0
H540 H 0.08575 0.36638 0.31447 0.0
H541 H 0.18274 0.43312 0.39695 0.0
O542 O 0.15167 0.46953 0.39779 0.0
H543 H 0.22901 0.48444 0.35548 0.0
H544 H 0.17788 0.57171 0.38918 0.0
H545 H 0.13735 0.51022 0.34787 0.0
H546 H 0.19098 0.48941 0.35296 0.0
H547 H 0.17571 0.51499 0.39199 0.0
O548 O 0.16004 0.3631 0.35945 0.0
H549 H 0.10694 0.4011 0.3324 0.0
H550 H 0.13049 0.32421 0.36004 0.0
H551 H 0.13924 0.5668 0.34449 0.0
H552 H 0.22068 0.42773 0.40003 0.0
H553 H 0.15963 0.59795 0.36524 0.0
H554 H 0.2441 0.45344 0.37917 0.0
O555 O 0.12407 0.46851 0.36966 0.0
H556 H 0.14677 0.34647 0.41951 0.0
H557 H 0.09531 0.37275 0.37513 0.0
H558 H 0.08347 0.34995 0.40237 0.0
H559 H 0.10931 0.33675 0.42482 0.0
H560 H 0.15787 0.36947 0.39214 0.0
H561 H 0.10969 0.28862 0.34232 0.0
H562 H 0.08705 0.30969 0.31939 0.0
O563 O 0.1124 0.42127 0.36255 0.0
C564 C 0.15362 0.43954 0.33607 0.0
C565 C 0.0955 0.35692 0.32446 0.0
C566 C 0.10896 0.31328 0.34007 0.0
N567 N 0.11979 0.36471 0.34734 0.0
C568 C 0.10748 0.37647 0.33468 0.0
C569 C 0.12073 0.33353 0.35004 0.0
C570 C 0.09625 0.32512 0.32721 0.0
C571 C 0.19283 0.44461 0.38792 0.0
N572 N 0.18466 0.46172 0.37485 0.0
C573 C 0.2143 0.44138 0.38968 0.0
C574 C 0.22743 0.45578 0.37796 0.0
C575 C 0.21898 0.47316 0.36466 0.0
C576 C 0.19743 0.47585 0.36328 0.0
C577 C 0.16898 0.55839 0.38004 0.0
C578 C 0.14635 0.52359 0.3569 0.0
C579 C 0.16766 0.52629 0.38159 0.0
N580 N 0.15654 0.50933 0.37004 0.0
C581 C 0.14732 0.55564 0.35494 0.0
C582 C 0.15874 0.5731 0.3666 0.0
C583 C 0.10954 0.44985 0.36564 0.0
C584 C 0.13536 0.3521 0.40983 0.0
C585 C 0.10661 0.36711 0.38484 0.0
C586 C 0.09984 0.35413 0.40023 0.0
C587 C 0.11434 0.34669 0.41281 0.0
N588 N 0.12723 0.37251 0.38205 0.0
C589 C 0.14156 0.36503 0.39428 0.0
Co590 Co 0.84375 0.47449 0.12369 0.0
Co591 Co 0.86016 0.40417 0.13968 0.0
O592 O 0.84473 0.42942 0.12342 0.0
C593 C 0.86097 0.45855 0.09011 0.0
O594 O 0.87371 0.44043 0.09853 0.0
C595 C 0.81719 0.38169 0.14225 0.0
O596 O 0.81128 0.41071 0.14271 0.0
O597 O 0.84858 0.42775 0.15932 0.0
O598 O 0.84017 0.47475 0.1491 0.0
H599 H 0.90555 0.3852 0.19088 0.0
H600 H 0.81592 0.43957 0.10044 0.0
O601 O 0.84757 0.4746 0.0982 0.0
H602 H 0.76941 0.49902 0.13826 0.0
H603 H 0.82246 0.5784 0.10071 0.0
H604 H 0.86146 0.52362 0.14574 0.0
H605 H 0.80744 0.5034 0.14113 0.0
H606 H 0.82385 0.52141 0.10114 0.0
O607 O 0.83635 0.37487 0.14101 0.0
H608 H 0.8864 0.41708 0.17002 0.0
H609 H 0.86596 0.3363 0.14416 0.0
H610 H 0.86033 0.5806 0.1459 0.0
H611 H 0.77799 0.43467 0.09704 0.0
H612 H 0.84072 0.60837 0.12325 0.0
H613 H 0.75446 0.46446 0.11608 0.0
O614 O 0.87437 0.47754 0.12664 0.0
H615 H 0.85622 0.34854 0.08335 0.0
H616 H 0.90276 0.38424 0.12939 0.0
H617 H 0.91753 0.35746 0.10433 0.0
H618 H 0.8942 0.33947 0.08107 0.0
H619 H 0.84211 0.37553 0.10861 0.0
H620 H 0.88476 0.30352 0.16483 0.0
H621 H 0.90481 0.32799 0.18836 0.0
O622 O 0.88423 0.43281 0.13873 0.0
C623 C 0.8421 0.45539 0.16134 0.0
C624 C 0.89694 0.37427 0.18065 0.0
C625 C 0.88524 0.32843 0.16604 0.0
N626 N 0.87523 0.37856 0.15581 0.0
C627 C 0.88611 0.3922 0.16877 0.0
C628 C 0.8746 0.3471 0.1544 0.0
C629 C 0.89649 0.34217 0.17924 0.0
C630 C 0.80578 0.45285 0.10866 0.0
N631 N 0.81388 0.47187 0.12091 0.0
C632 C 0.78432 0.44988 0.10672 0.0
C633 C 0.77112 0.46656 0.11742 0.0
C634 C 0.7795 0.48594 0.12988 0.0
C635 C 0.80105 0.48829 0.13146 0.0
C636 C 0.83101 0.56657 0.11066 0.0
C637 C 0.85278 0.53554 0.13592 0.0
C638 C 0.83189 0.53432 0.11095 0.0
N639 N 0.84257 0.51924 0.12354 0.0
C640 C 0.85225 0.56781 0.13604 0.0
C641 C 0.84126 0.58337 0.12332 0.0
C642 C 0.88808 0.4599 0.13321 0.0
C643 C 0.86653 0.35616 0.09344 0.0
C644 C 0.8925 0.3764 0.11935 0.0
C645 C 0.90095 0.36124 0.10519 0.0
C646 C 0.88785 0.35113 0.09215 0.0
N647 N 0.87157 0.38129 0.12051 0.0
C648 C 0.85863 0.37133 0.1078 0.0
Co649 Co 0.14644 0.53654 0.12602 0.0
Co650 Co 0.13009 0.60577 0.1435 0.0
O651 O 0.14684 0.58161 0.12757 0.0
C652 C 0.13497 0.5578 0.09169 0.0
O653 O 0.12221 0.57691 0.09941 0.0
C654 C 0.17309 0.62466 0.15066 0.0
O655 O 0.17817 0.59528 0.15052 0.0
O656 O 0.1384 0.57891 0.16292 0.0
O657 O 0.14629 0.53267 0.15147 0.0
H658 H 0.07858 0.62111 0.19103 0.0
H659 H 0.17851 0.57201 0.10717 0.0
O660 O 0.14634 0.53966 0.10046 0.0
H661 H 0.21726 0.50453 0.14674 0.0
H662 H 0.16797 0.43416 0.10111 0.0
H663 H 0.12386 0.48628 0.14388 0.0
H664 H 0.17901 0.50264 0.14561 0.0
H665 H 0.16829 0.49098 0.10381 0.0
O666 O 0.15439 0.63293 0.14815 0.0
H667 H 0.09957 0.59077 0.17065 0.0
H668 H 0.12575 0.6732 0.15054 0.0
H669 H 0.12318 0.42941 0.14172 0.0
H670 H 0.21677 0.57449 0.1078 0.0
H671 H 0.14535 0.40299 0.12022 0.0
H672 H 0.2364 0.54065 0.12773 0.0
O673 O 0.11555 0.53567 0.12585 0.0
H674 H 0.14325 0.6709 0.09141 0.0
H675 H 0.08968 0.62994 0.13038 0.0
H676 H 0.07921 0.6625 0.10597 0.0
H677 H 0.1061 0.68329 0.0863 0.0
H678 H 0.153 0.63786 0.11582 0.0
H679 H 0.10519 0.70443 0.1708 0.0
H680 H 0.08133 0.67837 0.19119 0.0
O681 O 0.1055 0.57914 0.1392 0.0
C682 C 0.14356 0.55056 0.16425 0.0
C683 C 0.08887 0.63274 0.18217 0.0
C684 C 0.10382 0.6795 0.17083 0.0
N685 N 0.11372 0.63022 0.15933 0.0
C686 C 0.10074 0.61569 0.17057 0.0
C687 C 0.11545 0.6617 0.15941 0.0
C688 C 0.09043 0.66487 0.18226 0.0
C689 C 0.18696 0.55698 0.11574 0.0
N690 N 0.17655 0.53709 0.12627 0.0
C691 C 0.20861 0.55858 0.1161 0.0
C692 C 0.21961 0.53962 0.12731 0.0
C693 C 0.20888 0.51936 0.13798 0.0
C694 C 0.18722 0.51843 0.1373 0.0
C695 C 0.15828 0.4454 0.11057 0.0
C696 C 0.13366 0.47492 0.13458 0.0
C697 C 0.15837 0.47755 0.11213 0.0
N698 N 0.14626 0.49187 0.12411 0.0
C699 C 0.13316 0.44273 0.13338 0.0
C700 C 0.14559 0.42792 0.12129 0.0
C701 C 0.1016 0.55336 0.13202 0.0
C702 C 0.13139 0.66202 0.0999 0.0
C703 C 0.10146 0.63876 0.12183 0.0
C704 C 0.09545 0.65727 0.10806 0.0
C705 C 0.11054 0.66894 0.09703 0.0
N706 N 0.12194 0.63211 0.12457 0.0
C707 C 0.13683 0.64342 0.11379 0.0
Co708 Co 0.15127 0.46752 0.62504 0.0
Co709 Co 0.13228 0.39759 0.63976 0.0
O710 O 0.15023 0.42241 0.62513 0.0
C711 C 0.13897 0.45015 0.59025 0.0
O712 O 0.12558 0.43151 0.59756 0.0
C713 C 0.17473 0.37741 0.64798 0.0
O714 O 0.17983 0.40675 0.64852 0.0
O715 O 0.13958 0.42286 0.66017 0.0
O716 O 0.15152 0.46854 0.65055 0.0
H717 H 0.07681 0.38071 0.68398 0.0
H718 H 0.18189 0.43162 0.60479 0.0
O719 O 0.15084 0.46694 0.59941 0.0
H720 H 0.22332 0.49192 0.64602 0.0
H721 H 0.17578 0.57054 0.60303 0.0
H722 H 0.13104 0.5175 0.64498 0.0
H723 H 0.18517 0.49683 0.64532 0.0
H724 H 0.17416 0.51358 0.60393 0.0
O725 O 0.15608 0.36944 0.64483 0.0
H726 H 0.09978 0.41169 0.66545 0.0
H727 H 0.12707 0.32987 0.64554 0.0
H728 H 0.13231 0.57448 0.64463 0.0
H729 H 0.22001 0.42616 0.60497 0.0
H730 H 0.1548 0.60136 0.62353 0.0
H731 H 0.24098 0.45636 0.62574 0.0
O732 O 0.1204 0.47089 0.6253 0.0
H733 H 0.14793 0.33816 0.58606 0.0
H734 H 0.09267 0.37375 0.62503 0.0
H735 H 0.08333 0.34396 0.59925 0.0
H736 H 0.11108 0.32595 0.57956 0.0
H737 H 0.15654 0.36828 0.6119 0.0
H738 H 0.10459 0.29798 0.66403 0.0
H739 H 0.07914 0.32341 0.68334 0.0
O740 O 0.10832 0.42521 0.63484 0.0
C741 C 0.14666 0.45005 0.66262 0.0
C742 C 0.08779 0.36935 0.67558 0.0
C743 C 0.1034 0.32292 0.6644 0.0
N744 N 0.11462 0.37259 0.65433 0.0
C745 C 0.10079 0.38676 0.66502 0.0
C746 C 0.11614 0.34109 0.65401 0.0
C747 C 0.08912 0.3372 0.67523 0.0
C748 C 0.19093 0.44509 0.61374 0.0
N749 N 0.18133 0.46466 0.62496 0.0
C750 C 0.2125 0.4418 0.61383 0.0
C751 C 0.22426 0.45872 0.62551 0.0
C752 C 0.21436 0.47866 0.63689 0.0
C753 C 0.19275 0.48132 0.63645 0.0
C754 C 0.16595 0.55909 0.6123 0.0
C755 C 0.14096 0.52904 0.63584 0.0
C756 C 0.16494 0.52686 0.61284 0.0
N757 N 0.15263 0.51227 0.62458 0.0
C758 C 0.14157 0.5613 0.63567 0.0
C759 C 0.15418 0.57637 0.62381 0.0
C760 C 0.10564 0.45274 0.62948 0.0
C761 C 0.1357 0.34586 0.59455 0.0
C762 C 0.10481 0.36614 0.61648 0.0
C763 C 0.09944 0.34918 0.60193 0.0
C764 C 0.11502 0.33905 0.5909 0.0
N765 N 0.12511 0.3728 0.61994 0.0
C766 C 0.14048 0.36284 0.60923 0.0
Co767 Co 0.84845 0.53622 0.62442 0.0
Co768 Co 0.8655 0.60674 0.63961 0.0
O769 O 0.84968 0.58124 0.62374 0.0
C770 C 0.8645 0.55093 0.59023 0.0
O771 O 0.87769 0.56914 0.5981 0.0
C772 C 0.82268 0.62968 0.64247 0.0
O773 O 0.81691 0.60069 0.64377 0.0
O774 O 0.85403 0.58401 0.65959 0.0
O775 O 0.84574 0.5366 0.64991 0.0
H776 H 0.91183 0.62674 0.69012 0.0
H777 H 0.81995 0.57084 0.60157 0.0
O778 O 0.85135 0.53536 0.59886 0.0
H779 H 0.77456 0.513 0.64102 0.0
H780 H 0.82585 0.43202 0.60272 0.0
H781 H 0.86676 0.48739 0.64636 0.0
H782 H 0.81265 0.50818 0.64296 0.0
H783 H 0.82748 0.489 0.60274 0.0
O784 O 0.84181 0.63646 0.64077 0.0
H785 H 0.89217 0.59444 0.66977 0.0
H786 H 0.87167 0.67465 0.64341 0.0
H787 H 0.86542 0.43042 0.64692 0.0
H788 H 0.78193 0.57614 0.59909 0.0
H789 H 0.84485 0.40236 0.62498 0.0
H790 H 0.75897 0.54717 0.61895 0.0
O791 O 0.87913 0.53296 0.62673 0.0
H792 H 0.86146 0.66112 0.5829 0.0
H793 H 0.90814 0.62549 0.62884 0.0
H794 H 0.92292 0.65119 0.60346 0.0
H795 H 0.89951 0.66923 0.58027 0.0
H796 H 0.84736 0.63492 0.60842 0.0
H797 H 0.89098 0.70785 0.66355 0.0
H798 H 0.9113 0.68388 0.68707 0.0
O799 O 0.8894 0.57758 0.63875 0.0
C800 C 0.84777 0.55634 0.66194 0.0
C801 C 0.90308 0.63745 0.67989 0.0
C802 C 0.89136 0.68298 0.66499 0.0
N803 N 0.88093 0.63265 0.65535 0.0
C804 C 0.89197 0.61928 0.66831 0.0
C805 C 0.88043 0.66408 0.65365 0.0
C806 C 0.90277 0.66951 0.67818 0.0
C807 C 0.81005 0.55791 0.61014 0.0
N808 N 0.8185 0.5391 0.62233 0.0
C809 C 0.78854 0.5611 0.60872 0.0
C810 C 0.77566 0.54488 0.61989 0.0
C811 C 0.7844 0.52571 0.63228 0.0
C812 C 0.80598 0.52312 0.63334 0.0
C813 C 0.83483 0.44398 0.61238 0.0
C814 C 0.85766 0.47534 0.63685 0.0
C815 C 0.83583 0.47623 0.61243 0.0
N816 N 0.84705 0.49147 0.62464 0.0
C817 C 0.85701 0.44308 0.6372 0.0
C818 C 0.84549 0.42736 0.62487 0.0
C819 C 0.89302 0.55042 0.6332 0.0
C820 C 0.87181 0.65345 0.59295 0.0
C821 C 0.89785 0.63322 0.6188 0.0
C822 C 0.90631 0.64783 0.60447 0.0
C823 C 0.89316 0.65795 0.59147 0.0
N824 N 0.87689 0.62879 0.62014 0.0
C825 C 0.86391 0.63874 0.60746 0.0
Co826 Co 0.1483 0.5287 0.87446 0.0
Co827 Co 0.13329 0.60056 0.85956 0.0
O828 O 0.14833 0.5738 0.87529 0.0
C829 C 0.13151 0.5447 0.90817 0.0
O830 O 0.11929 0.56388 0.89996 0.0
C831 C 0.17688 0.61997 0.85606 0.0
O832 O 0.18184 0.59059 0.85513 0.0
O833 O 0.14351 0.57663 0.83955 0.0
O834 O 0.15206 0.52921 0.84911 0.0
H835 H 0.08738 0.62355 0.8092 0.0
H836 H 0.17666 0.56133 0.89831 0.0
O837 O 0.14428 0.52786 0.89989 0.0
H838 H 0.2222 0.50099 0.86012 0.0
H839 H 0.16722 0.42305 0.89639 0.0
H840 H 0.1296 0.48119 0.85185 0.0
H841 H 0.18412 0.49876 0.85688 0.0
H842 H 0.16706 0.48008 0.89655 0.0
O843 O 0.15802 0.62806 0.85793 0.0
H844 H 0.10572 0.59006 0.82978 0.0
H845 H 0.12982 0.6689 0.85533 0.0
H846 H 0.12948 0.4242 0.85112 0.0
H847 H 0.21464 0.564 0.9021 0.0
H848 H 0.1484 0.39475 0.87351 0.0
H849 H 0.23768 0.53376 0.88288 0.0
O850 O 0.11765 0.52722 0.87123 0.0
H851 H 0.14084 0.65409 0.91624 0.0
H852 H 0.09201 0.62503 0.87042 0.0
H853 H 0.07894 0.65261 0.89586 0.0
H854 H 0.10345 0.66731 0.91901 0.0
H855 H 0.15317 0.62625 0.89065 0.0
H856 H 0.11186 0.70327 0.83494 0.0
H857 H 0.09041 0.6806 0.8117 0.0
O858 O 0.10826 0.5737 0.86093 0.0
C859 C 0.14991 0.54906 0.83715 0.0
C860 C 0.09662 0.63371 0.8193 0.0
C861 C 0.11038 0.67845 0.83374 0.0
N862 N 0.11866 0.62753 0.84383 0.0
C863 C 0.10698 0.61487 0.83103 0.0
C864 C 0.12054 0.65888 0.84523 0.0
C865 C 0.09835 0.66572 0.82071 0.0
C866 C 0.18658 0.54787 0.89 0.0
N867 N 0.17818 0.52977 0.87746 0.0
C868 C 0.20807 0.54958 0.89216 0.0
C869 C 0.22099 0.53263 0.88136 0.0
C870 C 0.21232 0.51426 0.86858 0.0
C871 C 0.19075 0.51313 0.86679 0.0
C872 C 0.15897 0.43562 0.88654 0.0
C873 C 0.13799 0.46853 0.86156 0.0
C874 C 0.1588 0.4679 0.88659 0.0
N875 N 0.1485 0.48391 0.87413 0.0
C876 C 0.13781 0.43626 0.86112 0.0
C877 C 0.14841 0.41976 0.87369 0.0
C878 C 0.10411 0.54615 0.86558 0.0
C879 C 0.13001 0.64784 0.90624 0.0
C880 C 0.10272 0.63123 0.88047 0.0
C881 C 0.09526 0.64694 0.89482 0.0
C882 C 0.10903 0.65521 0.90779 0.0
N883 N 0.1233 0.62396 0.87907 0.0
C884 C 0.13691 0.63216 0.89169 0.0
Co885 Co 0.84618 0.46661 0.87231 0.0
Co886 Co 0.86276 0.39667 0.85592 0.0
O887 O 0.8472 0.42153 0.87231 0.0
C888 C 0.86223 0.45005 0.90628 0.0
O889 O 0.87516 0.43166 0.89822 0.0
C890 C 0.81981 0.37423 0.85312 0.0
O891 O 0.81397 0.40326 0.85236 0.0
O892 O 0.85124 0.42056 0.83638 0.0
O893 O 0.84312 0.46744 0.84687 0.0
H894 H 0.90879 0.37908 0.80495 0.0
H895 H 0.81783 0.43108 0.89482 0.0
O896 O 0.84933 0.46636 0.89782 0.0
H897 H 0.77217 0.49149 0.85679 0.0
H898 H 0.82438 0.57013 0.89556 0.0
H899 H 0.86451 0.51614 0.85088 0.0
H900 H 0.81026 0.49601 0.85456 0.0
H901 H 0.82568 0.51315 0.89477 0.0
O902 O 0.83896 0.36736 0.8544 0.0
H903 H 0.88934 0.41038 0.82591 0.0
H904 H 0.8685 0.3289 0.85086 0.0
H905 H 0.86349 0.57313 0.85109 0.0
H906 H 0.77982 0.42599 0.89756 0.0
H907 H 0.84332 0.60049 0.87356 0.0
H908 H 0.75673 0.45627 0.87842 0.0
O909 O 0.87688 0.46964 0.86982 0.0
H910 H 0.85844 0.3386 0.91147 0.0
H911 H 0.90528 0.37632 0.86615 0.0
H912 H 0.91987 0.34813 0.89079 0.0
H913 H 0.89638 0.32904 0.91367 0.0
H914 H 0.84454 0.36718 0.8867 0.0
H915 H 0.88758 0.29669 0.83008 0.0
H916 H 0.90798 0.3218 0.80696 0.0
O917 O 0.88682 0.42541 0.85719 0.0
C918 C 0.84492 0.44831 0.83453 0.0
C919 C 0.90001 0.36787 0.81499 0.0
C920 C 0.88808 0.32163 0.82909 0.0
N921 N 0.87795 0.37148 0.83967 0.0
C922 C 0.88902 0.38547 0.82693 0.0
C923 C 0.87728 0.33997 0.84079 0.0
C924 C 0.89953 0.33573 0.81612 0.0
C925 C 0.80787 0.44456 0.88657 0.0
N926 N 0.81624 0.46395 0.87461 0.0
C927 C 0.78637 0.44149 0.88813 0.0
C928 C 0.77342 0.45845 0.87736 0.0
C929 C 0.78207 0.4782 0.86522 0.0
C930 C 0.80365 0.48063 0.864 0.0
C931 C 0.83319 0.55847 0.88568 0.0
C932 C 0.85558 0.52789 0.86062 0.0
C933 C 0.83401 0.52623 0.88519 0.0
N934 N 0.84501 0.51137 0.8727 0.0
C935 C 0.85512 0.56016 0.86071 0.0
C936 C 0.84381 0.5755 0.87333 0.0
C937 C 0.89063 0.45227 0.86309 0.0
C938 C 0.86883 0.34676 0.90157 0.0
C939 C 0.89497 0.36818 0.87608 0.0
C940 C 0.90331 0.35216 0.88998 0.0
C941 C 0.89012 0.34143 0.90281 0.0
N942 N 0.87408 0.37333 0.87496 0.0
C943 C 0.86104 0.36284 0.88747 0.0
H944 H 0.38608 0.08226 0.43145 0.0
H945 H 0.38504 0.08073 0.46263 0.0
H946 H 0.33737 0.0108 0.46071 0.0
H947 H 0.33816 0.01233 0.42939 0.0
H948 H 0.32864 0.0557 0.48424 0.0
H949 H 0.38614 0.99048 0.47028 0.0
H950 H 0.419 0.97645 0.45609 0.0
H951 H 0.45007 0.05109 0.48168 0.0
H952 H 0.4173 0.06586 0.49584 0.0
H953 H 0.33705 0.01995 0.57307 0.0
H954 H 0.33657 0.01592 0.54186 0.0
H955 H 0.38544 0.08385 0.53857 0.0
H956 H 0.38624 0.08772 0.56972 0.0
H957 H 0.39283 0.03596 0.51761 0.0
H958 H 0.33501 0.10278 0.53035 0.0
H959 H 0.30216 0.11712 0.54448 0.0
H960 H 0.27171 0.03954 0.52116 0.0
H961 H 0.30449 0.02448 0.50708 0.0
C962 C 0.37539 0.06647 0.43762 0.0
C963 C 0.3623 0.04725 0.42794 0.0
C964 C 0.37486 0.06558 0.45546 0.0
C965 C 0.36133 0.04536 0.46397 0.0
C966 C 0.34798 0.02648 0.45437 0.0
C967 C 0.34851 0.02734 0.43649 0.0
C968 C 0.36113 0.04415 0.48291 0.0
C969 C 0.34258 0.05088 0.49156 0.0
C970 C 0.37943 0.03839 0.49242 0.0
C971 C 0.39921 0.02943 0.48402 0.0
C972 C 0.39994 0.00405 0.47279 0.0
C973 C 0.41856 0.99594 0.46476 0.0
C974 C 0.4366 0.01291 0.46795 0.0
C975 C 0.43607 0.03798 0.47921 0.0
C976 C 0.41749 0.04621 0.48726 0.0
C977 C 0.34769 0.03405 0.5657 0.0
C978 C 0.36167 0.05419 0.57387 0.0
C979 C 0.34735 0.03177 0.54787 0.0
C980 C 0.36085 0.04979 0.53789 0.0
C981 C 0.37491 0.06971 0.54603 0.0
C982 C 0.37531 0.07194 0.56384 0.0
C983 C 0.3604 0.04794 0.51896 0.0
C984 C 0.37885 0.04059 0.51031 0.0
C985 C 0.34201 0.05314 0.50947 0.0
C986 C 0.32226 0.06232 0.51781 0.0
C987 C 0.32135 0.08864 0.52834 0.0
C988 C 0.30274 0.09692 0.53633 0.0
C989 C 0.28487 0.0792 0.53376 0.0
C990 C 0.28557 0.05322 0.52316 0.0
C991 C 0.30416 0.04481 0.51517 0.0
H992 H 0.27048 0.08565 0.53996 0.0
H993 H 0.451 0.0066 0.46172 0.0
H994 H 0.61389 0.91162 0.56906 0.0
H995 H 0.61483 0.91071 0.53782 0.0
H996 H 0.65959 0.98484 0.53789 0.0
H997 H 0.65871 0.98605 0.56919 0.0
H998 H 0.62792 0.99339 0.51412 0.0
H999 H 0.67587 0.91371 0.53082 0.0
H1000 H 0.68666 0.86699 0.54653 0.0
H1001 H 0.63924 0.81433 0.52122 0.0
H1002 H 0.62795 0.86088 0.50554 0.0
H1003 H 0.6598 0.98006 0.42756 0.0
H1004 H 0.65964 0.98155 0.45882 0.0
H1005 H 0.61702 0.90468 0.45995 0.0
H1006 H 0.6172 0.90281 0.4287 0.0
H1007 H 0.64804 0.89777 0.48319 0.0
H1008 H 0.59932 0.97589 0.46711 0.0
H1009 H 0.58701 0.02203 0.4517 0.0
H1010 H 0.63412 0.07695 0.47591 0.0
H1011 H 0.64691 0.03096 0.49133 0.0
C1012 C 0.6239 0.9278 0.56245 0.0
C1013 C 0.63626 0.94887 0.57159 0.0
C1014 C 0.62447 0.92716 0.5446 0.0
C1015 C 0.63741 0.94754 0.53558 0.0
C1016 C 0.64953 0.96892 0.54465 0.0
C1017 C 0.64906 0.96948 0.56251 0.0
C1018 C 0.63837 0.94633 0.51668 0.0
C1019 C 0.63262 0.97266 0.50734 0.0
C1020 C 0.64398 0.91899 0.50789 0.0
C1021 C 0.65095 0.89085 0.51712 0.0
C1022 C 0.66765 0.89222 0.52869 0.0
C1023 C 0.67386 0.86576 0.53758 0.0
C1024 C 0.66361 0.83773 0.53491 0.0
C1025 C 0.64715 0.83607 0.52329 0.0
C1026 C 0.64085 0.86248 0.51439 0.0
C1027 C 0.65041 0.96344 0.43445 0.0
C1028 C 0.63842 0.94142 0.42565 0.0
C1029 C 0.65029 0.96439 0.45231 0.0
C1030 C 0.63816 0.94341 0.46168 0.0
C1031 C 0.62646 0.9211 0.45294 0.0
C1032 C 0.62652 0.92017 0.43508 0.0
C1033 C 0.63761 0.94484 0.48061 0.0
C1034 C 0.64342 0.91855 0.48996 0.0
C1035 C 0.6319 0.97215 0.4894 0.0
C1036 C 0.62422 -9e-05 0.48023 0.0
C1037 C 0.60717 0.99775 0.46905 0.0
C1038 C 0.60008 0.02389 0.46033 0.0
C1039 C 0.60981 0.05241 0.46277 0.0
C1040 C 0.62662 0.05484 0.474 0.0
C1041 C 0.63379 0.02874 0.48275 0.0
H1042 H 0.60429 0.07262 0.456 0.0
H1043 H 0.66844 0.81727 0.54181 0.0
H1044 H 0.336 0.98841 0.06987 0.0
H1045 H 0.33563 0.98986 0.03858 0.0
H1046 H 0.3835 0.92014 0.03711 0.0
H1047 H 0.38418 0.9188 0.06831 0.0
H1048 H 0.39133 0.96604 0.01468 0.0
H1049 H 0.33299 0.90176 0.02986 0.0
H1050 H 0.30013 0.88978 0.04464 0.0
H1051 H 0.27031 0.96554 0.01904 0.0
H1052 H 0.3031 0.97825 0.00429 0.0
H1053 H 0.38363 0.91011 0.93035 0.0
H1054 H 0.38297 0.91543 0.96141 0.0
H1055 H 0.33538 0.9852 0.95728 0.0
H1056 H 0.33575 0.97981 0.9261 0.0
H1057 H 0.32673 0.94371 0.98237 0.0
H1058 H 0.38454 0.00612 0.96584 0.0
H1059 H 0.4174 0.01802 0.95104 0.0
H1060 H 0.44821 0.94613 0.97913 0.0
H1061 H 0.41546 0.93348 0.99392 0.0
C1062 C 0.34647 0.97342 0.06289 0.0
C1063 C 0.3601 0.95345 0.07157 0.0
C1064 C 0.3462 0.97422 0.04501 0.0
C1065 C 0.35941 0.95491 0.03553 0.0
C1066 C 0.3732 0.93527 0.04418 0.0
C1067 C 0.37352 0.93448 0.06203 0.0
C1068 C 0.35883 0.95485 0.01658 0.0
C1069 C 0.37726 0.96087 0.00761 0.0
C1070 C 0.34032 0.94894 0.00738 0.0
C1071 C 0.32055 0.94116 0.01612 0.0
C1072 C 0.31947 0.91601 0.02748 0.0
C1073 C 0.30085 0.90906 0.03584 0.0
C1074 C 0.28316 0.92695 0.03282 0.0
C1075 C 0.28403 0.95175 0.02139 0.0
C1076 C 0.30263 0.95882 0.01302 0.0
C1077 C 0.37303 0.92665 0.93601 0.0
C1078 C 0.35982 0.94468 0.92574 0.0
C1079 C 0.37273 0.92972 0.95377 0.0
C1080 C 0.35933 0.95101 0.96162 0.0
C1081 C 0.34589 0.96872 0.95145 0.0
C1082 C 0.34617 0.96566 0.93365 0.0
C1083 C 0.3593 0.95446 0.98048 0.0
C1084 C 0.34077 0.94911 0.98943 0.0
C1085 C 0.37771 0.96101 0.98968 0.0
C1086 C 0.39749 0.96868 0.98089 0.0
C1087 C 0.39829 0.99269 0.96877 0.0
C1088 C 0.4169 0.9996 0.9604 0.0
C1089 C 0.43487 0.9828 0.96412 0.0
C1090 C 0.43428 0.9591 0.97625 0.0
C1091 C 0.41569 0.95208 0.98465 0.0
H1092 H 0.44926 0.98818 0.95762 0.0
H1093 H 0.26876 0.92154 0.0393 0.0
H1094 H 0.60123 0.0637 0.92771 0.0
H1095 H 0.60132 0.06424 0.95891 0.0
H1096 H 0.6575 0.00992 0.95927 0.0
H1097 H 0.65735 0.00874 0.92796 0.0
H1098 H 0.63014 0.99104 0.98387 0.0
H1099 H 0.65975 0.08704 0.96462 0.0
H1100 H 0.66 0.13491 0.9475 0.0
H1101 H 0.60478 0.16597 0.97304 0.0
H1102 H 0.604 0.11803 0.99012 0.0
H1103 H 0.6592 0.02234 0.0696 0.0
H1104 H 0.65882 0.01859 0.03842 0.0
H1105 H 0.60443 0.07674 0.03661 0.0
H1106 H 0.60497 0.08122 0.06777 0.0
H1107 H 0.63131 0.09332 0.01261 0.0
H1108 H 0.60111 0.99788 0.03158 0.0
H1109 H 0.59953 0.94932 0.04803 0.0
H1110 H 0.65467 0.91691 0.02287 0.0
H1111 H 0.65674 0.96549 0.00643 0.0
C1112 C 0.61353 0.05163 0.9344 0.0
C1113 C 0.62938 0.03635 0.92536 0.0
C1114 C 0.61358 0.05205 0.95224 0.0
C1115 C 0.6296 0.03755 0.96138 0.0
C1116 C 0.64504 0.02133 0.95243 0.0
C1117 C 0.64495 0.02076 0.93455 0.0
C1118 C 0.63065 0.04036 0.98025 0.0
C1119 C 0.63068 0.01337 0.99018 0.0
C1120 C 0.63091 0.06954 0.98843 0.0
C1121 C 0.63173 0.09884 0.97856 0.0
C1122 C 0.64762 0.10403 0.96654 0.0
C1123 C 0.64785 0.13116 0.95684 0.0
C1124 C 0.6324 0.15344 0.95916 0.0
C1125 C 0.61673 0.14868 0.97124 0.0
C1126 C 0.61639 0.12154 0.98095 0.0
C1127 C 0.64716 0.03436 0.06257 0.0
C1128 C 0.63204 0.05193 0.07117 0.0
C1129 C 0.64692 0.03208 0.04475 0.0
C1130 C 0.63141 0.04701 0.0352 0.0
C1131 C 0.6165 0.06497 0.04373 0.0
C1132 C 0.6168 0.06742 0.06155 0.0
C1133 C 0.63072 0.04397 0.01631 0.0
C1134 C 0.6308 0.07096 0.00635 0.0
C1135 C 0.63048 0.01477 0.00811 0.0
C1136 C 0.62919 0.98545 0.0179 0.0
C1137 C 0.61298 0.98049 0.02964 0.0
C1138 C 0.61199 0.95295 0.03896 0.0
C1139 C 0.62702 0.93008 0.03653 0.0
C1140 C 0.64305 0.93466 0.02475 0.0
C1141 C 0.64413 0.96219 0.01542 0.0
H1142 H 0.62622 0.90877 0.04376 0.0
H1143 H 0.63257 0.1744 0.9516 0.0
H1144 H 0.83868 0.51728 0.56956 0.0
H1145 H 0.83931 0.5141 0.53833 0.0
H1146 H 0.8917 0.57618 0.537 0.0
H1147 H 0.89095 0.57998 0.56816 0.0
H1148 H 0.86393 0.59173 0.51332 0.0
H1149 H 0.89772 0.49816 0.53112 0.0
H1150 H 0.90112 0.44912 0.54694 0.0
H1151 H 0.84726 0.41331 0.52135 0.0
H1152 H 0.84337 0.46233 0.50554 0.0
H1153 H 0.89661 0.56812 0.42859 0.0
H1154 H 0.89573 0.56731 0.45978 0.0
H1155 H 0.84157 0.50873 0.45848 0.0
H1156 H 0.84252 0.50894 0.42715 0.0
H1157 H 0.86918 0.49091 0.48332 0.0
H1158 H 0.83622 0.58488 0.46494 0.0
H1159 H 0.83433 0.63326 0.44834 0.0
H1160 H 0.88779 0.66817 0.47485 0.0
H1161 H 0.89023 0.61975 0.49141 0.0
C1162 C 0.85035 0.53023 0.56262 0.0
C1163 C 0.86483 0.54877 0.57135 0.0
C1164 C 0.85074 0.5283 0.54478 0.0
C1165 C 0.86571 0.54462 0.53534 0.0
C1166 C 0.88003 0.56337 0.54402 0.0
C1167 C 0.87961 0.56541 0.56185 0.0
C1168 C 0.86641 0.54237 0.51641 0.0
C1169 C 0.86531 0.5697 0.50678 0.0
C1170 C 0.86776 0.51358 0.50785 0.0
C1171 C 0.87013 0.48403 0.51728 0.0
C1172 C 0.8865 0.47992 0.52897 0.0
C1173 C 0.88854 0.45211 0.53791 0.0
C1174 C 0.87438 0.42814 0.53519 0.0
C1175 C 0.8582 0.43191 0.52347 0.0
C1176 C 0.85608 0.45969 0.5145 0.0
C1177 C 0.88458 0.55486 0.4349 0.0
C1178 C 0.86953 0.53879 0.42539 0.0
C1179 C 0.88408 0.55449 0.45274 0.0
C1180 C 0.86839 0.53837 0.46142 0.0
C1181 C 0.85376 0.52139 0.452 0.0
C1182 C 0.8543 0.52162 0.43412 0.0
C1183 C 0.86684 0.54025 0.4803 0.0
C1184 C 0.86773 0.51289 0.4899 0.0
C1185 C 0.86537 0.56901 0.48884 0.0
C1186 C 0.8635 0.59858 0.47933 0.0
C1187 C 0.84763 0.60282 0.46718 0.0
C1188 C 0.84646 0.63024 0.45777 0.0
C1189 C 0.86096 0.65374 0.46051 0.0
C1190 C 0.87659 0.64993 0.47273 0.0
C1191 C 0.87786 0.62251 0.48215 0.0
H1192 H 0.86007 0.67492 0.45318 0.0
H1193 H 0.87599 0.40663 0.54213 0.0
H1194 H 0.16606 0.48379 0.5707 0.0
H1195 H 0.16778 0.48609 0.53947 0.0
H1196 H 0.11639 0.42241 0.53604 0.0
H1197 H 0.11485 0.41943 0.56717 0.0
H1198 H 0.14584 0.40739 0.51379 0.0
H1199 H 0.1099 0.50058 0.53006 0.0
H1200 H 0.10543 0.54982 0.54553 0.0
H1201 H 0.16014 0.58611 0.5214 0.0
H1202 H 0.16509 0.53691 0.50596 0.0
H1203 H 0.11197 0.42827 0.42964 0.0
H1204 H 0.11364 0.43008 0.46077 0.0
H1205 H 0.16737 0.48938 0.458 0.0
H1206 H 0.16564 0.48816 0.42669 0.0
H1207 H 0.13973 0.50744 0.48313 0.0
H1208 H 0.17398 0.41439 0.46531 0.0
H1209 H 0.17667 0.36583 0.44895 0.0
H1210 H 0.12386 0.32937 0.47571 0.0
H1211 H 0.12063 0.37794 0.49204 0.0
C1212 C 0.15513 0.47026 0.56329 0.0
C1213 C 0.14023 0.45156 0.57141 0.0
C1214 C 0.1561 0.47168 0.54546 0.0
C1215 C 0.14205 0.4547 0.53544 0.0
C1216 C 0.12737 0.43571 0.54352 0.0
C1217 C 0.12646 0.43414 0.56133 0.0
C1218 C 0.14248 0.45671 0.51653 0.0
C1219 C 0.14434 0.42924 0.5071 0.0
C1220 C 0.14101 0.48531 0.50781 0.0
C1221 C 0.13799 0.51495 0.51701 0.0
C1222 C 0.12107 0.51898 0.52816 0.0
C1223 C 0.11843 0.54689 0.5369 0.0
C1224 C 0.13253 0.57105 0.53449 0.0
C1225 C 0.14926 0.56737 0.52328 0.0
C1226 C 0.15198 0.53948 0.51452 0.0
C1227 C 0.12406 0.44192 0.43561 0.0
C1228 C 0.13877 0.4579 0.42571 0.0
C1229 C 0.12502 0.44284 0.45341 0.0
C1230 C 0.14083 0.45944 0.46164 0.0
C1231 C 0.15511 0.47634 0.45184 0.0
C1232 C 0.15412 0.47554 0.43398 0.0
C1233 C 0.14276 0.45812 0.48047 0.0
C1234 C 0.14142 0.48566 0.48986 0.0
C1235 C 0.14462 0.42958 0.48918 0.0
C1236 C 0.14699 0.3999 0.47982 0.0
C1237 C 0.1629 0.39606 0.46767 0.0
C1238 C 0.16451 0.36854 0.45839 0.0
C1239 C 0.15042 0.34455 0.46127 0.0
C1240 C 0.13475 0.34798 0.47349 0.0
C1241 C 0.13304 0.37549 0.48278 0.0
H1242 H 0.15166 0.32329 0.45404 0.0
H1243 H 0.13046 0.59264 0.54127 0.0
H1244 H 0.83844 0.48664 0.92702 0.0
H1245 H 0.83875 0.48882 0.95825 0.0
H1246 H 0.88675 0.41931 0.95955 0.0
H1247 H 0.88635 0.41661 0.92831 0.0
H1248 H 0.85702 0.40743 0.98277 0.0
H1249 H 0.89835 0.49465 0.96657 0.0
H1250 H 0.90634 0.54302 0.95124 0.0
H1251 H 0.85481 0.58783 0.97576 0.0
H1252 H 0.84633 0.53957 0.99106 0.0
H1253 H 0.88681 0.42597 0.06911 0.0
H1254 H 0.88744 0.42597 0.0379 0.0
H1255 H 0.83765 0.49265 0.03704 0.0
H1256 H 0.83704 0.49312 0.06836 0.0
H1257 H 0.86831 0.50621 0.01369 0.0
H1258 H 0.8273 0.41819 0.03 0.0
H1259 H 0.82047 0.37003 0.04588 0.0
H1260 H 0.87249 0.32663 0.02131 0.0
H1261 H 0.87984 0.37474 0.00547 0.0
C1262 C 0.84909 0.47182 0.93394 0.0
C1263 C 0.86245 0.45156 0.92518 0.0
C1264 C 0.8493 0.4732 0.95179 0.0
C1265 C 0.86294 0.45449 0.96121 0.0
C1266 C 0.87613 0.43399 0.95252 0.0
C1267 C 0.87593 0.43258 0.93466 0.0
C1268 C 0.86333 0.4561 0.98016 0.0
C1269 C 0.85976 0.42895 0.98953 0.0
C1270 C 0.86649 0.48431 0.98897 0.0
C1271 C 0.87158 0.5134 0.97983 0.0
C1272 C 0.88862 0.51475 0.96859 0.0
C1273 C 0.89325 0.54215 0.95992 0.0
C1274 C 0.88106 0.56845 0.96249 0.0
C1275 C 0.86423 0.56742 0.97377 0.0
C1276 C 0.85951 0.54006 0.98245 0.0
C1277 C 0.87604 0.44077 0.06232 0.0
C1278 C 0.86179 0.45943 0.07122 0.0
C1279 C 0.87639 0.44066 0.04447 0.0
C1280 C 0.86242 0.45903 0.03518 0.0
C1281 C 0.84853 0.47827 0.044 0.0
C1282 C 0.84816 0.47841 0.06188 0.0
C1283 C 0.86201 0.45756 0.01625 0.0
C1284 C 0.86556 0.48472 0.0069 0.0
C1285 C 0.85891 0.42935 0.00746 0.0
C1286 C 0.85423 0.40016 0.01666 0.0
C1287 C 0.83735 0.39844 0.02805 0.0
C1288 C 0.83339 0.37115 0.03705 0.0
C1289 C 0.84607 0.34531 0.03464 0.0
C1290 C 0.8627 0.34668 0.02317 0.0
C1291 C 0.86676 0.37395 0.01418 0.0
H1292 H 0.84299 0.32422 0.04163 0.0
H1293 H 0.88467 0.58965 0.95578 0.0
H1294 H 0.11358 0.594 0.06914 0.0
H1295 H 0.11335 0.59029 0.03797 0.0
H1296 H 0.15711 0.51491 0.04032 0.0
H1297 H 0.15764 0.51866 0.07153 0.0
H1298 H 0.16701 0.55572 0.01527 0.0
H1299 H 0.10638 0.50056 0.03363 0.0
H1300 H 0.07351 0.4934 0.04932 0.0
H1301 H 0.04613 0.56862 0.02148 0.0
H1302 H 0.07896 0.57654 0.0058 0.0
H1303 H 0.15357 0.50662 0.9294 0.0
H1304 H 0.15408 0.50719 0.96068 0.0
H1305 H 0.10974 0.58196 0.96087 0.0
H1306 H 0.10887 0.58125 0.92965 0.0
H1307 H 0.10033 0.53948 0.98473 0.0
H1308 H 0.16115 0.59554 0.96695 0.0
H1309 H 0.19395 0.60274 0.95117 0.0
H1310 H 0.22092 0.5259 0.97791 0.0
H1311 H 0.18815 0.51794 0.99366 0.0
C1312 C 0.1232 0.57666 0.06305 0.0
C1313 C 0.13551 0.55646 0.07281 0.0
C1314 C 0.123 0.57452 0.04523 0.0
C1315 C 0.13498 0.55202 0.03687 0.0
C1316 C 0.1477 0.53236 0.04654 0.0
C1317 C 0.14794 0.5345 0.06437 0.0
C1318 C 0.13405 0.54884 0.01803 0.0
C1319 C 0.15248 0.55173 0.0086 0.0
C1320 C 0.11502 0.5442 0.00934 0.0
C1321 C 0.0952 0.53932 0.01865 0.0
C1322 C 0.0934 0.51573 0.03094 0.0
C1323 C 0.07477 0.51151 0.03982 0.0
C1324 C 0.05776 0.53059 0.03643 0.0
C1325 C 0.05933 0.55388 0.02411 0.0
C1326 C 0.07794 0.55823 0.01521 0.0
C1327 C 0.14385 0.52308 0.9361 0.0
C1328 C 0.13124 0.54397 0.92705 0.0
C1329 C 0.14421 0.52345 0.95396 0.0
C1330 C 0.13214 0.54489 0.96307 0.0
C1331 C 0.11918 0.56525 0.95408 0.0
C1332 C 0.11874 0.56484 0.93623 0.0
C1333 C 0.13327 0.54656 0.98197 0.0
C1334 C 0.11487 0.54337 0.99141 0.0
C1335 C 0.15232 0.55095 0.99066 0.0
C1336 C 0.17213 0.55596 0.98136 0.0
C1337 C 0.17402 0.58005 0.96938 0.0
C1338 C 0.19262 0.58428 0.96045 0.0
C1339 C 0.20949 0.56474 0.9635 0.0
C1340 C 0.20783 0.54099 0.97554 0.0
C1341 C 0.18925 0.53662 0.98448 0.0
H1342 H 0.22387 0.56805 0.95657 0.0
H1343 H 0.04335 0.52729 0.04331 0.0
H1344 H 0.59285 0.00449 0.36711 0.0
H1345 H 0.55669 0.02157 0.36858 0.0
H1346 H 0.53645 0.92647 0.36985 0.0
H1347 H 0.57231 0.9094 0.36751 0.0
H1348 H 0.51307 0.95611 0.34939 0.0
H1349 H 0.53766 0.97544 0.40637 0.0
H1350 H 0.56099 0.99708 0.42834 0.0
H1351 H 0.54615 0.08902 0.41168 0.0
H1352 H 0.52296 0.06792 0.38945 0.0
H1353 H 0.40923 0.98741 0.37581 0.0
H1354 H 0.44539 0.97006 0.37682 0.0
H1355 H 0.46607 0.06231 0.36478 0.0
H1356 H 0.43018 0.07987 0.36359 0.0
H1357 H 0.48862 0.03369 0.39158 0.0
H1358 H 0.4647 0.01265 0.33404 0.0
H1359 H 0.44082 0.99001 0.31281 0.0
H1360 H 0.454 0.89914 0.33202 0.0
H1361 H 0.47774 0.9213 0.35355 0.0
C1362 C 0.58066 0.98727 0.36774 0.0
C1363 C 0.58542 0.95559 0.36721 0.0
C1364 C 0.56002 0.99704 0.36868 0.0
C1365 C 0.54385 0.97529 0.3696 0.0
C1366 C 0.54864 0.94368 0.36914 0.0
C1367 C 0.56918 0.93394 0.36783 0.0
C1368 C 0.52187 0.98527 0.37058 0.0
C1369 C 0.50771 0.97271 0.35881 0.0
C1370 C 0.51489 0.00734 0.38268 0.0
C1371 C 0.52871 0.02007 0.39614 0.0
C1372 C 0.53947 0.00026 0.40732 0.0
C1373 C 0.55267 0.01244 0.41983 0.0
C1374 C 0.55509 0.04441 0.42138 0.0
C1375 C 0.54428 0.06427 0.41045 0.0
C1376 C 0.53109 0.05221 0.39791 0.0
C1377 C 0.42146 0.00405 0.37346 0.0
C1378 C 0.41678 0.03503 0.36959 0.0
C1379 C 0.44207 0.99409 0.37403 0.0
C1380 C 0.45829 0.01496 0.37084 0.0
C1381 C 0.45372 0.04595 0.36734 0.0
C1382 C 0.43316 0.05587 0.3666 0.0
C1383 C 0.48005 0.00436 0.37049 0.0
C1384 C 0.49409 0.0169 0.3823 0.0
C1385 C 0.4869 0.98202 0.35859 0.0
C1386 C 0.47282 0.96866 0.34552 0.0
C1387 C 0.46238 0.98786 0.33382 0.0
C1388 C 0.44889 0.97512 0.32172 0.0
C1389 C 0.44585 0.94316 0.32109 0.0
C1390 C 0.45634 0.92388 0.33254 0.0
C1391 C 0.46983 0.93652 0.34468 0.0
H1392 H 0.43539 0.93334 0.31172 0.0
H1393 H 0.5653 0.05382 0.43105 0.0
H1394 H 0.41999 0.93461 0.15528 0.0
H1395 H 0.45614 0.95134 0.15571 0.0
H1396 H 0.44434 0.01176 0.11284 0.0
H1397 H 0.4079 0.99603 0.1128 0.0
H1398 H 0.48605 0.94579 0.13423 0.0
H1399 H 0.47542 0.07409 0.11434 0.0
H1400 H 0.44928 0.11551 0.11702 0.0
H1401 H 0.42502 0.07276 0.16238 0.0
H1402 H 0.4512 0.03137 0.16012 0.0
H1403 H 0.58412 0.00839 0.11186 0.0
H1404 H 0.5478 0.99181 0.11209 0.0
H1405 H 0.53619 0.04987 0.156 0.0
H1406 H 0.5721 0.06743 0.15538 0.0
H1407 H 0.50619 0.05642 0.13503 0.0
H1408 H 0.54161 0.96938 0.15887 0.0
H1409 H 0.56783 0.92788 0.15998 0.0
H1410 H 0.54258 0.88785 0.11422 0.0
H1411 H 0.51639 0.9294 0.1127 0.0
C1412 C 0.42506 0.95162 0.14601 0.0
C1413 C 0.41109 0.96419 0.13408 0.0
C1414 C 0.44575 0.96105 0.14623 0.0
C1415 C 0.45292 0.98298 0.13441 0.0
C1416 C 0.43906 0.99528 0.12232 0.0
C1417 C 0.41825 0.98625 0.12229 0.0
C1418 C 0.47495 0.9928 0.13472 0.0
C1419 C 0.49046 0.96999 0.13442 0.0
C1420 C 0.48071 0.02434 0.13528 0.0
C1421 C 0.46514 0.04946 0.13694 0.0
C1422 C 0.46457 0.07362 0.12492 0.0
C1423 C 0.44973 0.09708 0.12637 0.0
C1424 C 0.43545 0.09671 0.13983 0.0
C1425 C 0.43604 0.07296 0.15193 0.0
C1426 C 0.45086 0.04948 0.15056 0.0
C1427 C 0.57382 0.01746 0.1216 0.0
C1428 C 0.58094 0.03916 0.13361 0.0
C1429 C 0.5531 0.00793 0.12175 0.0
C1430 C 0.53931 0.01937 0.13418 0.0
C1431 C 0.5465 0.04083 0.14625 0.0
C1432 C 0.56706 0.05076 0.14591 0.0
C1433 C 0.51731 0.00942 0.13453 0.0
C1434 C 0.5018 0.03222 0.13486 0.0
C1435 C 0.51156 0.97786 0.13463 0.0
C1436 C 0.52717 0.95267 0.13559 0.0
C1437 C 0.54174 0.95184 0.14898 0.0
C1438 C 0.55658 0.9283 0.14969 0.0
C1439 C 0.5569 0.90529 0.13716 0.0
C1440 C 0.54233 0.90572 0.12391 0.0
C1441 C 0.52748 0.92925 0.12313 0.0
H1442 H 0.56841 0.88708 0.13772 0.0
H1443 H 0.42396 0.11486 0.1409 0.0
H1444 H 0.57398 0.94492 0.65461 0.0
H1445 H 0.53781 0.96078 0.65211 0.0
H1446 H 0.55221 0.01063 0.60577 0.0
H1447 H 0.58876 0.99588 0.60864 0.0
H1448 H 0.52603 0.04243 0.62318 0.0
H1449 H 0.52838 0.93856 0.60475 0.0
H1450 H 0.53778 0.88339 0.606 0.0
H1451 H 0.50119 0.8724 0.65151 0.0
H1452 H 0.49179 0.92765 0.65069 0.0
H1453 H 0.40744 0.00637 0.61294 0.0
H1454 H 0.44349 0.98899 0.60974 0.0
H1455 H 0.46226 0.05146 0.64991 0.0
H1456 H 0.42668 0.06962 0.65271 0.0
H1457 H 0.4714 0.96218 0.62915 0.0
H1458 H 0.50747 0.0841 0.64157 0.0
H1459 H 0.49768 0.13862 0.63709 0.0
H1460 H 0.45701 0.11208 0.59613 0.0
H1461 H 0.46685 0.0575 0.60012 0.0
C1462 C 0.56948 0.95944 0.64395 0.0
C1463 C 0.58415 0.96904 0.63176 0.0
C1464 C 0.54877 0.96831 0.64246 0.0
C1465 C 0.54218 0.98621 0.6285 0.0
C1466 C 0.55692 0.99665 0.61659 0.0
C1467 C 0.57778 0.98825 0.61825 0.0
C1468 C 0.51988 0.99383 0.62643 0.0
C1469 C 0.5141 0.02487 0.62439 0.0
C1470 C 0.50429 0.97077 0.62734 0.0
C1471 C 0.50947 0.93732 0.62771 0.0
C1472 C 0.5224 0.92442 0.61507 0.0
C1473 C 0.52775 0.89313 0.61571 0.0
C1474 C 0.52013 0.87441 0.62885 0.0
C1475 C 0.50708 0.88693 0.64134 0.0
C1476 C 0.50171 0.91823 0.64078 0.0
C1477 C 0.41927 0.01619 0.62115 0.0
C1478 C 0.41431 0.03962 0.63292 0.0
C1479 C 0.43982 0.00626 0.61931 0.0
C1480 C 0.45561 0.01947 0.62931 0.0
C1481 C 0.45043 0.04159 0.64171 0.0
C1482 C 0.43005 0.05186 0.64335 0.0
C1483 C 0.47764 0.01087 0.62668 0.0
C1484 C 0.48335 0.97967 0.62775 0.0
C1485 C 0.49315 0.03364 0.62418 0.0
C1486 C 0.48781 0.06664 0.62124 0.0
C1487 C 0.49659 0.08991 0.6315 0.0
C1488 C 0.491 0.12083 0.62907 0.0
C1489 C 0.47669 0.1288 0.61637 0.0
C1490 C 0.46805 0.10588 0.60599 0.0
C1491 C 0.47364 0.07495 0.60833 0.0
H1492 H 0.47232 0.15273 0.61455 0.0
H1493 H 0.52431 0.8502 0.62933 0.0
H1494 H 0.57145 0.07277 0.84974 0.0
H1495 H 0.53521 0.05675 0.85008 0.0
H1496 H 0.55272 0.96899 0.87186 0.0
H1497 H 0.58921 0.98473 0.87165 0.0
H1498 H 0.52235 0.9649 0.84584 0.0
H1499 H 0.53597 0.02251 0.89749 0.0
H1500 H 0.54886 0.06794 0.9133 0.0
H1501 H 0.50411 0.12549 0.88793 0.0
H1502 H 0.49123 0.08048 0.8717 0.0
H1503 H 0.42758 0.91257 0.87687 0.0
H1504 H 0.46328 0.93101 0.87606 0.0
H1505 H 0.44189 0.02113 0.86025 0.0
H1506 H 0.40582 0.0029 0.86158 0.0
H1507 H 0.474 0.02585 0.88208 0.0
H1508 H 0.45952 0.96899 0.83097 0.0
H1509 H 0.44715 0.92449 0.81411 0.0
H1510 H 0.49352 0.86669 0.83722 0.0
H1511 H 0.50595 0.91073 0.85445 0.0
C1512 C 0.56771 0.04994 0.85451 0.0
C1513 C 0.58325 0.03018 0.86092 0.0
C1514 C 0.54696 0.04088 0.85468 0.0
C1515 C 0.54135 0.01193 0.86122 0.0
C1516 C 0.55683 0.9915 0.86684 0.0
C1517 C 0.57763 0.00059 0.86674 0.0
C1518 C 0.51924 0.00357 0.86295 0.0
C1519 C 0.51179 0.97795 0.8539 0.0
C1520 C 0.50548 0.02127 0.87311 0.0
C1521 C 0.51276 0.04817 0.88326 0.0
C1522 C 0.52896 0.04489 0.8952 0.0
C1523 C 0.53626 0.07056 0.90424 0.0
C1524 C 0.52733 0.09959 0.9016 0.0
C1525 C 0.51102 0.10299 0.88995 0.0
C1526 C 0.50371 0.0774 0.88084 0.0
C1527 C 0.43044 0.93637 0.87334 0.0
C1528 C 0.41399 0.95619 0.86902 0.0
C1529 C 0.45085 0.94687 0.87286 0.0
C1530 C 0.45525 0.97717 0.86764 0.0
C1531 C 0.4388 0.99756 0.86417 0.0
C1532 C 0.41825 0.98716 0.86493 0.0
C1533 C 0.47707 0.98687 0.86511 0.0
C1534 C 0.48449 0.0128 0.87397 0.0
C1535 C 0.4908 0.96957 0.85465 0.0
C1536 C 0.48357 0.94314 0.84409 0.0
C1537 C 0.467 0.94675 0.83253 0.0
C1538 C 0.45998 0.92161 0.82291 0.0
C1539 C 0.46953 0.89277 0.82461 0.0
C1540 C 0.48614 0.88904 0.83592 0.0
C1541 C 0.49319 0.91409 0.84561 0.0
H1542 H 0.46411 0.87333 0.81714 0.0
H1543 H 0.53303 0.11945 0.90859 0.0
H1544 H 0.91336 0.48982 0.37158 0.0
H1545 H 0.95001 0.47524 0.37136 0.0
H1546 H 0.96647 0.56646 0.3537 0.0
H1547 H 0.92999 0.58106 0.35343 0.0
H1548 H 0.98829 0.52396 0.33722 0.0
H1549 H 0.97205 0.5469 0.3954 0.0
H1550 H 0.95206 0.54336 0.42223 0.0
H1551 H 0.96687 0.44686 0.42614 0.0
H1552 H 0.98666 0.44969 0.39915 0.0
H1553 H 0.09635 0.5095 0.36109 0.0
H1554 H 0.06032 0.52797 0.36004 0.0
H1555 H 0.03836 0.43499 0.36821 0.0
H1556 H 0.07402 0.41631 0.36895 0.0
H1557 H 0.0202 0.48164 0.39004 0.0
H1558 H 0.03467 0.45952 0.33043 0.0
H1559 H 0.05343 0.46406 0.30304 0.0
H1560 H 0.04235 0.5619 0.30253 0.0
H1561 H 0.02365 0.55797 0.33001 0.0
C1562 C 0.92475 0.50675 0.36757 0.0
C1563 C 0.91872 0.53671 0.3627 0.0
C1564 C 0.94569 0.49841 0.36752 0.0
C1565 C 0.96094 0.51997 0.36279 0.0
C1566 C 0.95494 0.54955 0.35746 0.0
C1567 C 0.93404 0.55785 0.35739 0.0
C1568 C 0.98321 0.51185 0.36364 0.0
C1569 C 0.99535 0.51515 0.34884 0.0
C1570 C 0.99233 0.50016 0.37879 0.0
C1571 C 0.98069 0.49845 0.39516 0.0
C1572 C 0.97093 0.52487 0.40192 0.0
C1573 C 0.95964 0.523 0.41716 0.0
C1574 C 0.95816 0.49489 0.42586 0.0
C1575 C 0.96801 0.46861 0.41937 0.0
C1576 C 0.97928 0.47034 0.4041 0.0
C1577 C 0.08383 0.49305 0.36269 0.0
C1578 C 0.08802 0.46146 0.36514 0.0
C1579 C 0.06332 0.50359 0.36203 0.0
C1580 C 0.04682 0.48275 0.36405 0.0
C1581 C 0.05096 0.45135 0.36665 0.0
C1582 C 0.07136 0.44074 0.36702 0.0
C1583 C 0.02511 0.49345 0.36359 0.0
C1584 C 0.01313 0.4907 0.37848 0.0
C1585 C 0.01621 0.50598 0.34861 0.0
C1586 C 0.02796 0.5085 0.33236 0.0
C1587 C 0.03644 0.48205 0.32458 0.0
C1588 C 0.04696 0.48449 0.30899 0.0
C1589 C 0.04904 0.51325 0.30104 0.0
C1590 C 0.04069 0.53965 0.30869 0.0
C1591 C 0.03011 0.53732 0.32426 0.0
H1592 H 0.05712 0.51507 0.28894 0.0
H1593 H 0.94941 0.49348 0.43766 0.0
H1594 H 0.06781 0.58285 0.14541 0.0
H1595 H 0.03176 0.56609 0.14469 0.0
H1596 H 0.04918 0.48551 0.11556 0.0
H1597 H 0.08554 0.50208 0.11613 0.0
H1598 H 0.01282 0.51427 0.10357 0.0
H1599 H 0.04152 0.47629 0.15606 0.0
H1600 H 0.0607 0.48037 0.18326 0.0
H1601 H 0.01607 0.54594 0.20194 0.0
H1602 H 0.99679 0.54261 0.17473 0.0
H1603 H 0.92125 0.43031 0.14754 0.0
H1604 H 0.95756 0.44583 0.1467 0.0
H1605 H 0.94088 0.52886 0.11942 0.0
H1606 H 0.90436 0.51338 0.11997 0.0
H1607 H 0.97771 0.49528 0.15915 0.0
H1608 H 0.97975 0.54327 0.09008 0.0
H1609 H 0.96102 0.53628 0.06281 0.0
H1610 H 0.94519 0.44344 0.07716 0.0
H1611 H 0.96412 0.44969 0.10435 0.0
C1612 C 0.06407 0.56162 0.13875 0.0
C1613 C 0.07964 0.54367 0.13093 0.0
C1614 C 0.04343 0.55211 0.13838 0.0
C1615 C 0.03792 0.52448 0.13021 0.0
C1616 C 0.05322 0.50692 0.12193 0.0
C1617 C 0.07396 0.51635 0.12235 0.0
C1618 C 0.01626 0.51349 0.13098 0.0
C1619 C 0.0051 0.51008 0.11569 0.0
C1620 C 0.00641 0.50763 0.14682 0.0
C1621 C 0.01781 0.50939 0.16329 0.0
C1622 C 0.03588 0.49174 0.16592 0.0
C1623 C 0.04676 0.4939 0.18135 0.0
C1624 C 0.03964 0.51346 0.19431 0.0
C1625 C 0.02158 0.53082 0.19188 0.0
C1626 C 0.01066 0.52879 0.17646 0.0
C1627 C 0.92521 0.45195 0.14138 0.0
C1628 C 0.90988 0.47049 0.13368 0.0
C1629 C 0.94599 0.4608 0.14098 0.0
C1630 C 0.95188 0.48826 0.13283 0.0
C1631 C 0.93662 0.50733 0.12556 0.0
C1632 C 0.91577 0.49851 0.12595 0.0
C1633 C 0.97409 0.49657 0.13176 0.0
C1634 C 0.98538 0.49949 0.14701 0.0
C1635 C 0.98412 0.50142 0.11587 0.0
C1636 C 0.97318 0.49709 0.09933 0.0
C1637 C 0.97237 0.52131 0.08737 0.0
C1638 C 0.96171 0.51748 0.07193 0.0
C1639 C 0.95186 0.48947 0.06828 0.0
C1640 C 0.95276 0.46516 0.08002 0.0
C1641 C 0.96345 0.46884 0.09545 0.0
H1642 H 0.94357 0.48658 0.05634 0.0
H1643 H 0.04809 0.5151 0.20624 0.0
H1644 H 0.92739 0.58199 0.64399 0.0
H1645 H 0.96341 0.56494 0.64315 0.0
H1646 H 0.94422 0.47677 0.62289 0.0
H1647 H 0.90793 0.49357 0.6236 0.0
H1648 H 0.97482 0.47328 0.64921 0.0
H1649 H 0.96206 0.52723 0.59617 0.0
H1650 H 0.9498 0.57172 0.57925 0.0
H1651 H 0.99491 0.63009 0.60357 0.0
H1652 H 0.0072 0.58603 0.62087 0.0
H1653 H 0.07133 0.41882 0.62204 0.0
H1654 H 0.03534 0.43608 0.62171 0.0
H1655 H 0.05513 0.52887 0.63375 0.0
H1656 H 0.09144 0.51183 0.63338 0.0
H1657 H 0.02398 0.53054 0.61191 0.0
H1658 H 0.03714 0.47865 0.66488 0.0
H1659 H 0.04953 0.43562 0.68286 0.0
H1660 H 0.00397 0.37545 0.66055 0.0
H1661 H 0.99155 0.41799 0.64218 0.0
C1662 C 0.93071 0.55892 0.63939 0.0
C1663 C 0.91473 0.53928 0.63366 0.0
C1664 C 0.95134 0.54925 0.63893 0.0
C1665 C 0.95641 0.51979 0.63278 0.0
C1666 C 0.94054 0.49966 0.62763 0.0
C1667 C 0.91985 0.50936 0.62799 0.0
C1668 C 0.97838 0.51048 0.63118 0.0
C1669 C 0.98555 0.48547 0.64091 0.0
C1670 C 0.99238 0.52709 0.62069 0.0
C1671 C 0.98544 0.55338 0.60992 0.0
C1672 C 0.96929 0.54959 0.59798 0.0
C1673 C 0.96233 0.57473 0.58832 0.0
C1674 C 0.97153 0.60373 0.59037 0.0
C1675 C 0.98778 0.60762 0.60202 0.0
C1676 C 0.99476 0.58256 0.61174 0.0
C1677 C 0.06804 0.44292 0.62453 0.0
C1678 C 0.08412 0.4639 0.62799 0.0
C1679 C 0.04746 0.45275 0.62437 0.0
C1680 C 0.04251 0.48358 0.62817 0.0
C1681 C 0.0586 0.50492 0.63091 0.0
C1682 C 0.0793 0.49518 0.63072 0.0
C1683 C 0.02052 0.49312 0.6299 0.0
C1684 C 0.01331 0.51825 0.62023 0.0
C1685 C 0.00652 0.47685 0.64062 0.0
C1686 C 0.01352 0.45146 0.65205 0.0
C1687 C 0.02981 0.45621 0.66375 0.0
C1688 C 0.03686 0.4319 0.674 0.0
C1689 C 0.02757 0.4028 0.67282 0.0
C1690 C 0.01116 0.398 0.66143 0.0
C1691 C 0.0041 0.42221 0.65111 0.0
H1692 H 0.03307 0.384 0.68074 0.0
H1693 H 0.9661 0.62319 0.5829 0.0
H1694 H 0.06957 0.58261 0.86529 0.0
H1695 H 0.03335 0.56619 0.8647 0.0
H1696 H 0.05266 0.47084 0.86318 0.0
H1697 H 0.08915 0.48701 0.86422 0.0
H1698 H 0.02003 0.49402 0.8374 0.0
H1699 H 0.03702 0.48816 0.89768 0.0
H1700 H 0.05113 0.5092 0.92459 0.0
H1701 H 0.00683 0.58331 0.92294 0.0
H1702 H 0.99268 0.56299 0.89583 0.0
H1703 H 0.92484 0.41996 0.85271 0.0
H1704 H 0.96077 0.43697 0.85264 0.0
H1705 H 0.94197 0.52651 0.87138 0.0
H1706 H 0.90579 0.50932 0.87205 0.0
H1707 H 0.97472 0.50732 0.88827 0.0
H1708 H 0.95787 0.51702 0.8291 0.0
H1709 H 0.94428 0.50144 0.80092 0.0
H1710 H 0.98739 0.42583 0.79923 0.0
H1711 H 0.00137 0.4411 0.82739 0.0
C1712 C 0.06619 0.55815 0.86484 0.0
C1713 C 0.08223 0.53609 0.86489 0.0
C1714 C 0.04549 0.54885 0.86452 0.0
C1715 C 0.04048 0.51739 0.86395 0.0
C1716 C 0.05636 0.49524 0.86364 0.0
C1717 C 0.07713 0.50451 0.86431 0.0
C1718 C 0.01854 0.50783 0.86381 0.0
C1719 C 0.01013 0.49639 0.84856 0.0
C1720 C 0.00565 0.51223 0.87822 0.0
C1721 C 0.01394 0.52424 0.89463 0.0
C1722 C 0.03041 0.50911 0.90297 0.0
C1723 C 0.0384 0.52087 0.91827 0.0
C1724 C 0.02992 0.54762 0.92544 0.0
C1725 C 0.0134 0.56261 0.91735 0.0
C1726 C 0.00538 0.55097 0.90202 0.0
C1727 C 0.92824 0.44332 0.85682 0.0
C1728 C 0.91238 0.46324 0.86246 0.0
C1729 C 0.94884 0.45308 0.85664 0.0
C1730 C 0.95404 0.48315 0.86178 0.0
C1731 C 0.93828 0.5032 0.86734 0.0
C1732 C 0.91762 0.49335 0.86768 0.0
C1733 C 0.97604 0.49312 0.86183 0.0
C1734 C 0.98452 0.50479 0.87706 0.0
C1735 C 0.98893 0.48946 0.84729 0.0
C1736 C 0.98052 0.48003 0.83042 0.0
C1737 C 0.96435 0.49693 0.82278 0.0
C1738 C 0.95659 0.48819 0.8068 0.0
C1739 C 0.96484 0.46252 0.79835 0.0
C1740 C 0.98098 0.44566 0.80581 0.0
C1741 C 0.98889 0.45443 0.82175 0.0
H1742 H 0.95878 0.45577 0.78598 0.0
H1743 H 0.03613 0.5567 0.93729 0.0
H1744 H 0.17138 0.30809 0.36123 0.0
H1745 H 0.19588 0.26544 0.35915 0.0
H1746 H 0.24497 0.32933 0.34655 0.0
H1747 H 0.2204 0.37249 0.34846 0.0
H1748 H 0.24466 0.27702 0.3258 0.0
H1749 H 0.24271 0.3013 0.38565 0.0
H1750 H 0.22585 0.31169 0.41338 0.0
H1751 H 0.19925 0.22072 0.41316 0.0
H1752 H 0.21569 0.20994 0.38528 0.0
H1753 H 0.33084 0.18099 0.34497 0.0
H1754 H 0.30483 0.22193 0.3438 0.0
H1755 H 0.25663 0.15558 0.35474 0.0
H1756 H 0.28265 0.11422 0.35588 0.0
H1757 H 0.25585 0.20822 0.37578 0.0
H1758 H 0.25882 0.18328 0.31632 0.0
H1759 H 0.27586 0.17292 0.28867 0.0
H1760 H 0.3008 0.26493 0.28821 0.0
H1761 H 0.28419 0.2757 0.31603 0.0
C1762 C 0.18738 0.3132 0.35801 0.0
C1763 C 0.19399 0.34372 0.35506 0.0
C1764 C 0.20135 0.28876 0.35686 0.0
C1765 C 0.22222 0.29433 0.35285 0.0
C1766 C 0.22888 0.32466 0.34967 0.0
C1767 C 0.21487 0.34925 0.35084 0.0
C1768 C 0.23703 0.26834 0.3522 0.0
C1769 C 0.24735 0.26219 0.33677 0.0
C1770 C 0.24002 0.24863 0.36643 0.0
C1771 C 0.23028 0.25493 0.38329 0.0
C1772 C 0.23314 0.28359 0.39145 0.0
C1773 C 0.22367 0.28954 0.4072 0.0
C1774 C 0.21144 0.26691 0.41501 0.0
C1775 C 0.2087 0.23824 0.40709 0.0
C1776 C 0.21811 0.23219 0.39132 0.0
C1777 C 0.31469 0.17503 0.34699 0.0
C1778 C 0.30874 0.14445 0.35054 0.0
C1779 C 0.29986 0.19842 0.34625 0.0
C1780 C 0.27887 0.19165 0.3491 0.0
C1781 C 0.27281 0.16111 0.35246 0.0
C1782 C 0.28763 0.13757 0.35304 0.0
C1783 C 0.2635 0.2169 0.34939 0.0
C1784 C 0.2531 0.22295 0.36478 0.0
C1785 C 0.26048 0.23651 0.33514 0.0
C1786 C 0.27041 0.2302 0.31835 0.0
C1787 C 0.26809 0.20123 0.31041 0.0
C1788 C 0.27764 0.19529 0.29468 0.0
C1789 C 0.28944 0.21823 0.28671 0.0
C1790 C 0.29167 0.24718 0.29442 0.0
C1791 C 0.28217 0.25322 0.31016 0.0
H1792 H 0.29682 0.21359 0.27453 0.0
H1793 H 0.20412 0.27156 0.4272 0.0
H1794 H 0.67077 0.80955 0.3438 0.0
H1795 H 0.69619 0.76789 0.34396 0.0
H1796 H 0.74543 0.83402 0.35166 0.0
H1797 H 0.72 0.87621 0.35133 0.0
H1798 H 0.75599 0.78765 0.32876 0.0
H1799 H 0.72694 0.79647 0.38501 0.0
H1800 H 0.69831 0.80018 0.40586 0.0
H1801 H 0.67665 0.71027 0.39098 0.0
H1802 H 0.70494 0.70626 0.3698 0.0
H1803 H 0.83152 0.6849 0.36032 0.0
H1804 H 0.80629 0.72658 0.35813 0.0
H1805 H 0.75729 0.6601 0.35035 0.0
H1806 H 0.78253 0.61788 0.35268 0.0
H1807 H 0.74658 0.7066 0.37307 0.0
H1808 H 0.77603 0.69792 0.31686 0.0
H1809 H 0.80451 0.69487 0.29585 0.0
H1810 H 0.82568 0.78494 0.31092 0.0
H1811 H 0.79748 0.78834 0.33221 0.0
C1812 C 0.68702 0.81534 0.34539 0.0
C1813 C 0.6934 0.84612 0.34774 0.0
C1814 C 0.7015 0.79149 0.34549 0.0
C1815 C 0.72258 0.79791 0.34813 0.0
C1816 C 0.72917 0.82869 0.34968 0.0
C1817 C 0.71466 0.8527 0.34951 0.0
C1818 C 0.73748 0.77225 0.35005 0.0
C1819 C 0.75413 0.77013 0.33857 0.0
C1820 C 0.7347 0.74916 0.36268 0.0
C1821 C 0.71796 0.75118 0.3757 0.0
C1822 C 0.716 0.77756 0.3861 0.0
C1823 C 0.69984 0.77973 0.39798 0.0
C1824 C 0.68565 0.75551 0.39971 0.0
C1825 C 0.68764 0.72903 0.38961 0.0
C1826 C 0.70375 0.72679 0.37767 0.0
C1827 C 0.81538 0.67902 0.35819 0.0
C1828 C 0.80903 0.64806 0.35653 0.0
C1829 C 0.80101 0.70292 0.35689 0.0
C1830 C 0.78004 0.69638 0.35383 0.0
C1831 C 0.77348 0.66553 0.35264 0.0
C1832 C 0.78789 0.64149 0.35392 0.0
C1833 C 0.76507 0.72194 0.35174 0.0
C1834 C 0.74843 0.72408 0.36323 0.0
C1835 C 0.7679 0.74509 0.33916 0.0
C1836 C 0.78475 0.74326 0.32624 0.0
C1837 C 0.78684 0.71698 0.31578 0.0
C1838 C 0.80293 0.71521 0.30381 0.0
C1839 C 0.81693 0.73967 0.30208 0.0
C1840 C 0.81483 0.766 0.31228 0.0
C1841 C 0.79879 0.76787 0.3243 0.0
H1842 H 0.82937 0.73825 0.2928 0.0
H1843 H 0.67312 0.75725 0.4089 0.0
H1844 H 0.16711 0.68541 0.15783 0.0
H1845 H 0.19291 0.72655 0.15758 0.0
H1846 H 0.24102 0.65999 0.14667 0.0
H1847 H 0.21521 0.61832 0.14719 0.0
H1848 H 0.25373 0.70472 0.16952 0.0
H1849 H 0.22045 0.70016 0.11478 0.0
H1850 H 0.19022 0.69814 0.09546 0.0
H1851 H 0.17039 0.78731 0.1132 0.0
H1852 H 0.20029 0.7896 0.13289 0.0
H1853 H 0.32704 0.81222 0.13846 0.0
H1854 H 0.30257 0.76943 0.14029 0.0
H1855 H 0.25276 0.83352 0.1505 0.0
H1856 H 0.27716 0.87677 0.14842 0.0
H1857 H 0.24146 0.7891 0.12767 0.0
H1858 H 0.27464 0.79299 0.18279 0.0
H1859 H 0.3046 0.79428 0.20241 0.0
H1860 H 0.32484 0.70597 0.18368 0.0
H1861 H 0.29514 0.70437 0.16376 0.0
C1862 C 0.18321 0.67942 0.15554 0.0
C1863 C 0.18914 0.6487 0.15233 0.0
C1864 C 0.19791 0.70297 0.15538 0.0
C1865 C 0.21875 0.69633 0.15176 0.0
C1866 C 0.22495 0.66552 0.1494 0.0
C1867 C 0.21022 0.6418 0.14969 0.0
C1868 C 0.23375 0.72185 0.14959 0.0
C1869 C 0.25124 0.72296 0.16022 0.0
C1870 C 0.23021 0.74584 0.13761 0.0
C1871 C 0.21253 0.74494 0.12542 0.0
C1872 C 0.20958 0.71927 0.11463 0.0
C1873 C 0.1925 0.71807 0.10362 0.0
C1874 C 0.17837 0.74255 0.10313 0.0
C1875 C 0.18134 0.76835 0.1136 0.0
C1876 C 0.19836 0.76962 0.12469 0.0
C1877 C 0.31088 0.81731 0.14107 0.0
C1878 C 0.30405 0.84789 0.14345 0.0
C1879 C 0.29694 0.79278 0.14216 0.0
C1880 C 0.27595 0.79831 0.14581 0.0
C1881 C 0.26895 0.82882 0.14776 0.0
C1882 C 0.2829 0.85346 0.14661 0.0
C1883 C 0.26139 0.77214 0.14771 0.0
C1884 C 0.24398 0.77086 0.13696 0.0
C1885 C 0.26505 0.74796 0.15954 0.0
C1886 C 0.28276 0.74869 0.17167 0.0
C1887 C 0.28555 0.77394 0.18277 0.0
C1888 C 0.30248 0.77472 0.19396 0.0
C1889 C 0.31664 0.75026 0.19426 0.0
C1890 C 0.31386 0.72492 0.18342 0.0
C1891 C 0.29698 0.72405 0.17219 0.0
H1892 H 0.32975 0.75091 0.20292 0.0
H1893 H 0.16514 0.74156 0.09461 0.0
H1894 H 0.66406 0.19204 0.14064 0.0
H1895 H 0.68884 0.23455 0.1407 0.0
H1896 H 0.73908 0.17015 0.14858 0.0
H1897 H 0.71428 0.12719 0.14865 0.0
H1898 H 0.74176 0.22157 0.16945 0.0
H1899 H 0.73183 0.19937 0.11001 0.0
H1900 H 0.71153 0.19004 0.08378 0.0
H1901 H 0.68563 0.2813 0.08709 0.0
H1902 H 0.70555 0.29101 0.11352 0.0
H1903 H 0.82471 0.32028 0.14659 0.0
H1904 H 0.79946 0.27839 0.14762 0.0
H1905 H 0.74963 0.34385 0.14074 0.0
H1906 H 0.7749 0.3862 0.13964 0.0
H1907 H 0.74654 0.29223 0.11957 0.0
H1908 H 0.75698 0.31442 0.17898 0.0
H1909 H 0.77744 0.3234 0.20517 0.0
H1910 H 0.80274 0.23179 0.20173 0.0
H1911 H 0.78265 0.22241 0.17536 0.0
C1912 C 0.68037 0.18682 0.14242 0.0
C1913 C 0.68723 0.15621 0.1446 0.0
C1914 C 0.6945 0.21117 0.14239 0.0
C1915 C 0.71576 0.2054 0.14447 0.0
C1916 C 0.72269 0.17498 0.14693 0.0
C1917 C 0.70853 0.15051 0.14692 0.0
C1918 C 0.73069 0.23129 0.14402 0.0
C1919 C 0.74304 0.23678 0.15846 0.0
C1920 C 0.73191 0.25148 0.12981 0.0
C1921 C 0.72003 0.24581 0.11385 0.0
C1922 C 0.72168 0.21737 0.10523 0.0
C1923 C 0.71026 0.21202 0.09031 0.0
C1924 C 0.69726 0.23503 0.0838 0.0
C1925 C 0.69569 0.26348 0.09217 0.0
C1926 C 0.70705 0.26893 0.10711 0.0
C1927 C 0.80838 0.32586 0.14532 0.0
C1928 C 0.80176 0.35657 0.14308 0.0
C1929 C 0.79399 0.30188 0.14598 0.0
C1930 C 0.77272 0.30813 0.14442 0.0
C1931 C 0.76602 0.33868 0.14203 0.0
C1932 C 0.78044 0.3628 0.14147 0.0
C1933 C 0.7576 0.28251 0.14501 0.0
C1934 C 0.74523 0.27705 0.13057 0.0
C1935 C 0.7564 0.2623 0.1592 0.0
C1936 C 0.76845 0.26782 0.1751 0.0
C1937 C 0.76704 0.29628 0.18372 0.0
C1938 C 0.77855 0.30143 0.19861 0.0
C1939 C 0.79142 0.27821 0.20508 0.0
C1940 C 0.79278 0.24977 0.19669 0.0
C1941 C 0.78132 0.24451 0.18178 0.0
H1942 H 0.80032 0.28224 0.21661 0.0
H1943 H 0.68843 0.23085 0.07225 0.0
H1944 H 0.71608 0.88075 0.64708 0.0
H1945 H 0.74115 0.8383 0.64687 0.0
H1946 H 0.69096 0.77229 0.64731 0.0
H1947 H 0.66578 0.8145 0.6477 0.0
H1948 H 0.72213 0.7561 0.66928 0.0
H1949 H 0.71522 0.78797 0.6107 0.0
H1950 H 0.71504 0.82574 0.58708 0.0
H1951 H 0.77896 0.84748 0.59704 0.0
H1952 H 0.77943 0.81017 0.62091 0.0
H1953 H 0.7804 0.62414 0.64418 0.0
H1954 H 0.75479 0.66587 0.64512 0.0
H1955 H 0.80408 0.73329 0.6429 0.0
H1956 H 0.82972 0.69184 0.64171 0.0
H1957 H 0.77295 0.74846 0.62173 0.0
H1958 H 0.77984 0.71703 0.68044 0.0
H1959 H 0.77993 0.67997 0.70441 0.0
H1960 H 0.7161 0.65773 0.6944 0.0
H1961 H 0.71572 0.69436 0.67021 0.0
C1962 C 0.71037 0.85721 0.64724 0.0
C1963 C 0.68896 0.85098 0.64734 0.0
C1964 C 0.72471 0.833 0.64706 0.0
C1965 C 0.71786 0.8022 0.64689 0.0
C1966 C 0.69652 0.79591 0.64741 0.0
C1967 C 0.68218 0.82008 0.64758 0.0
C1968 C 0.73295 0.77651 0.64579 0.0
C1969 C 0.73308 0.75417 0.65879 0.0
C1970 C 0.74743 0.77441 0.63223 0.0
C1971 C 0.7473 0.79648 0.6177 0.0
C1972 C 0.7292 0.80096 0.60793 0.0
C1973 C 0.72905 0.82226 0.59449 0.0
C1974 C 0.74696 0.83906 0.59059 0.0
C1975 C 0.76509 0.83449 0.60009 0.0
C1976 C 0.76531 0.81324 0.61356 0.0
C1977 C 0.78578 0.64784 0.64391 0.0
C1978 C 0.80709 0.65468 0.64296 0.0
C1979 C 0.77114 0.67165 0.64449 0.0
C1980 C 0.77757 0.70266 0.64427 0.0
C1981 C 0.7988 0.70951 0.64309 0.0
C1982 C 0.81343 0.68577 0.64247 0.0
C1983 C 0.76221 0.72806 0.64528 0.0
C1984 C 0.762 0.75034 0.63223 0.0
C1985 C 0.74767 0.73011 0.6588 0.0
C1986 C 0.74782 0.70821 0.67341 0.0
C1987 C 0.76587 0.70406 0.68327 0.0
C1988 C 0.76597 0.68316 0.69691 0.0
C1989 C 0.74805 0.66644 0.70089 0.0
C1990 C 0.72998 0.67066 0.69128 0.0
C1991 C 0.72981 0.69151 0.67761 0.0
H1992 H 0.74816 0.65027 0.71146 0.0
H1993 H 0.74681 0.85557 0.58019 0.0
H1994 H 0.16874 0.31555 0.6522 0.0
H1995 H 0.19514 0.27528 0.65414 0.0
H1996 H 0.24327 0.3442 0.64966 0.0
H1997 H 0.2169 0.38479 0.64811 0.0
H1998 H 0.22277 0.2582 0.63123 0.0
H1999 H 0.28684 0.3196 0.67047 0.0
H2000 H 0.29003 0.35916 0.69306 0.0
H2001 H 0.22871 0.3375 0.71099 0.0
H2002 H 0.22527 0.29754 0.68868 0.0
H2003 H 0.33442 0.1982 0.64629 0.0
H2004 H 0.30882 0.23985 0.64764 0.0
H2005 H 0.26011 0.17293 0.65553 0.0
H2006 H 0.28549 0.1311 0.65393 0.0
H2007 H 0.2814 0.25821 0.67242 0.0
H2008 H 0.21735 0.19637 0.63375 0.0
H2009 H 0.21434 0.15577 0.61171 0.0
H2010 H 0.27533 0.17781 0.59318 0.0
H2011 H 0.27857 0.21885 0.61491 0.0
C2012 C 0.18495 0.32219 0.65177 0.0
C2013 C 0.19076 0.35334 0.65003 0.0
C2014 C 0.20001 0.29913 0.65285 0.0
C2015 C 0.22116 0.30674 0.65216 0.0
C2016 C 0.22704 0.33786 0.65052 0.0
C2017 C 0.21195 0.36101 0.64959 0.0
C2018 C 0.23698 0.28189 0.65249 0.0
C2019 C 0.23542 0.258 0.64041 0.0
C2020 C 0.25377 0.28205 0.66418 0.0
C2021 C 0.25573 0.3058 0.67778 0.0
C2022 C 0.27407 0.32321 0.67928 0.0
C2023 C 0.27592 0.34571 0.69202 0.0
C2024 C 0.25956 0.3509 0.70341 0.0
C2025 C 0.24134 0.33354 0.70212 0.0
C2026 C 0.23942 0.31099 0.6894 0.0
C2027 C 0.31827 0.19234 0.64836 0.0
C2028 C 0.31195 0.16134 0.64989 0.0
C2029 C 0.30369 0.21617 0.6492 0.0
C2030 C 0.28259 0.20941 0.65151 0.0
C2031 C 0.27631 0.17857 0.65351 0.0
C2032 C 0.29085 0.15472 0.65264 0.0
C2033 C 0.26703 0.23454 0.65128 0.0
C2034 C 0.2687 0.25848 0.6633 0.0
C2035 C 0.25029 0.23444 0.63957 0.0
C2036 C 0.24826 0.21048 0.62607 0.0
C2037 C 0.23006 0.19267 0.6249 0.0
C2038 C 0.22833 0.16956 0.61248 0.0
C2039 C 0.24467 0.16414 0.60109 0.0
C2040 C 0.26272 0.18196 0.60204 0.0
C2041 C 0.26451 0.20514 0.61441 0.0
H2042 H 0.24332 0.14618 0.59152 0.0
H2043 H 0.26105 0.36832 0.71327 0.0
H2044 H 0.66603 0.18487 0.86244 0.0
H2045 H 0.69054 0.22777 0.86198 0.0
H2046 H 0.74144 0.1636 0.85685 0.0
H2047 H 0.71698 0.12029 0.85749 0.0
H2048 H 0.74967 0.21002 0.87995 0.0
H2049 H 0.72402 0.20093 0.82239 0.0
H2050 H 0.6969 0.19746 0.80021 0.0
H2051 H 0.67385 0.28685 0.81464 0.0
H2052 H 0.70065 0.29066 0.83709 0.0
H2053 H 0.82707 0.3123 0.85159 0.0
H2054 H 0.80173 0.27063 0.85311 0.0
H2055 H 0.75215 0.33736 0.85684 0.0
H2056 H 0.77749 0.37948 0.85508 0.0
H2057 H 0.74263 0.29047 0.83503 0.0
H2058 H 0.76882 0.30039 0.89206 0.0
H2059 H 0.79597 0.30408 0.9142 0.0
H2060 H 0.81789 0.21345 0.90098 0.0
H2061 H 0.79106 0.20941 0.87856 0.0
C2062 C 0.68244 0.17979 0.86127 0.0
C2063 C 0.68957 0.14917 0.85985 0.0
C2064 C 0.69641 0.20437 0.86097 0.0
C2065 C 0.71774 0.19882 0.85913 0.0
C2066 C 0.725 0.16829 0.8582 0.0
C2067 C 0.71101 0.14362 0.85851 0.0
C2068 C 0.73239 0.22499 0.85787 0.0
C2069 C 0.74832 0.22742 0.87001 0.0
C2070 C 0.73021 0.24804 0.84515 0.0
C2071 C 0.71422 0.24595 0.83153 0.0
C2072 C 0.71307 0.21975 0.82092 0.0
C2073 C 0.69777 0.21773 0.80828 0.0
C2074 C 0.68363 0.24188 0.80604 0.0
C2075 C 0.6848 0.26815 0.8164 0.0
C2076 C 0.70005 0.27026 0.82908 0.0
C2077 C 0.81078 0.3182 0.85269 0.0
C2078 C 0.80427 0.3492 0.8533 0.0
C2079 C 0.79633 0.29432 0.85362 0.0
C2080 C 0.77513 0.30094 0.85537 0.0
C2081 C 0.76848 0.33183 0.85556 0.0
C2082 C 0.78296 0.35583 0.85457 0.0
C2083 C 0.75999 0.27545 0.85707 0.0
C2084 C 0.74396 0.27314 0.84501 0.0
C2085 C 0.76205 0.25254 0.86989 0.0
C2086 C 0.77803 0.25471 0.88353 0.0
C2087 C 0.77951 0.28133 0.89379 0.0
C2088 C 0.79484 0.28347 0.9064 0.0
C2089 C 0.80868 0.25904 0.90897 0.0
C2090 C 0.80717 0.23237 0.89896 0.0
C2091 C 0.7919 0.23013 0.88632 0.0
H2092 H 0.82054 0.26075 0.91873 0.0
H2093 H 0.67179 0.24027 0.79626 0.0
H2094 H 0.17136 0.68234 0.85713 0.0
H2095 H 0.19765 0.72241 0.85424 0.0
H2096 H 0.24512 0.65274 0.84883 0.0
H2097 H 0.21883 0.61217 0.85194 0.0
H2098 H 0.25659 0.69941 0.87064 0.0
H2099 H 0.22832 0.69054 0.81415 0.0
H2100 H 0.20036 0.68824 0.79264 0.0
H2101 H 0.18092 0.77987 0.80636 0.0
H2102 H 0.20859 0.78256 0.82814 0.0
H2103 H 0.33416 0.80337 0.84458 0.0
H2104 H 0.30924 0.761 0.84351 0.0
H2105 H 0.25877 0.82595 0.8486 0.0
H2106 H 0.28365 0.86872 0.84939 0.0
H2107 H 0.24981 0.78005 0.82579 0.0
H2108 H 0.27659 0.78826 0.88302 0.0
H2109 H 0.30443 0.79132 0.90461 0.0
H2110 H 0.32619 0.70137 0.88988 0.0
H2111 H 0.2987 0.69801 0.86797 0.0
C2112 C 0.18738 0.67542 0.85533 0.0
C2113 C 0.19301 0.64404 0.85465 0.0
C2114 C 0.20236 0.6984 0.85361 0.0
C2115 C 0.22324 0.6905 0.85106 0.0
C2116 C 0.22903 0.65924 0.8507 0.0
C2117 C 0.21401 0.63614 0.85244 0.0
C2118 C 0.23894 0.71507 0.84889 0.0
C2119 C 0.25533 0.71674 0.86066 0.0
C2120 C 0.23695 0.73804 0.8361 0.0
C2121 C 0.22044 0.73665 0.82287 0.0
C2122 C 0.218 0.71012 0.81266 0.0
C2123 C 0.20221 0.70876 0.80041 0.0
C2124 C 0.18885 0.73387 0.79816 0.0
C2125 C 0.19128 0.76043 0.80813 0.0
C2126 C 0.20703 0.7619 0.82041 0.0
C2127 C 0.31775 0.80871 0.84533 0.0
C2128 C 0.31084 0.83934 0.84725 0.0
C2129 C 0.30355 0.78446 0.84473 0.0
C2130 C 0.28223 0.79035 0.84628 0.0
C2131 C 0.2752 0.82099 0.84744 0.0
C2132 C 0.28941 0.84535 0.84791 0.0
C2133 C 0.26738 0.76444 0.84757 0.0
C2134 C 0.25114 0.76257 0.83569 0.0
C2135 C 0.26946 0.74135 0.8603 0.0
C2136 C 0.2857 0.74301 0.87374 0.0
C2137 C 0.28739 0.76921 0.88431 0.0
C2138 C 0.3031 0.771 0.89661 0.0
C2139 C 0.3171 0.74659 0.89858 0.0
C2140 C 0.31536 0.72028 0.88831 0.0
C2141 C 0.29971 0.71841 0.87596 0.0
H2142 H 0.32927 0.74803 0.9081 0.0
H2143 H 0.17663 0.73276 0.78868 0.0
H2144 H 0.35606 0.08112 0.30715 0.0
H2145 H 0.35071 0.06324 0.2779 0.0
H2146 H 0.335 0.97246 0.29663 0.0
H2147 H 0.34045 0.98998 0.32601 0.0
H2148 H 0.3629 0.97052 0.27038 0.0
H2149 H 0.29748 0.01938 0.28179 0.0
H2150 H 0.27478 0.06199 0.29124 0.0
H2151 H 0.29914 0.12016 0.25152 0.0
H2152 H 0.32222 0.07802 0.24198 0.0
H2153 H 0.33445 0.91234 0.18998 0.0
H2154 H 0.33135 0.92866 0.21976 0.0
H2155 H 0.34201 0.0233 0.20474 0.0
H2156 H 0.34432 0.00732 0.17483 0.0
H2157 H 0.31465 0.02162 0.22975 0.0
H2158 H 0.38157 0.97555 0.21955 0.0
H2159 H 0.40564 0.93449 0.2103 0.0
H2160 H 0.38009 0.87296 0.24791 0.0
H2161 H 0.3556 0.9135 0.25718 0.0
C2162 C 0.35138 0.05736 0.30512 0.0
C2163 C 0.34868 0.037 0.31899 0.0
C2164 C 0.34823 0.04724 0.28836 0.0
C2165 C 0.34224 0.01663 0.28512 0.0
C2166 C 0.33955 0.99621 0.29888 0.0
C2167 C 0.34264 0.00632 0.31567 0.0
C2168 C 0.33955 0.00568 0.2673 0.0
C2169 C 0.35208 0.9813 0.26156 0.0
C2170 C 0.32583 0.02037 0.25573 0.0
C2171 C 0.3117 0.04559 0.26126 0.0
C2172 C 0.2981 0.04131 0.27514 0.0
C2173 C 0.28515 0.06538 0.2805 0.0
C2174 C 0.28555 0.09379 0.27201 0.0
C2175 C 0.29885 0.09815 0.25809 0.0
C2176 C 0.31185 0.07416 0.25269 0.0
C2177 C 0.33589 0.93669 0.19298 0.0
C2178 C 0.33992 0.95849 0.18006 0.0
C2179 C 0.33417 0.94597 0.21003 0.0
C2180 C 0.33696 0.97711 0.21454 0.0
C2181 C 0.33991 0.99913 0.20158 0.0
C2182 C 0.34128 0.98994 0.18447 0.0
C2183 C 0.33807 0.98646 0.23279 0.0
C2184 C 0.32532 0.01061 0.2386 0.0
C2185 C 0.35176 0.97178 0.24443 0.0
C2186 C 0.36661 0.94747 0.23895 0.0
C2187 C 0.38099 0.9532 0.22577 0.0
C2188 C 0.39471 0.93002 0.22053 0.0
C2189 C 0.39438 0.90113 0.2285 0.0
C2190 C 0.38032 0.89535 0.24173 0.0
C2191 C 0.36651 0.91841 0.24699 0.0
H2192 H 0.40505 0.88323 0.22447 0.0
H2193 H 0.27553 0.1124 0.27619 0.0
H2194 H 0.64715 0.0881 0.1921 0.0
H2195 H 0.65157 0.06853 0.22114 0.0
H2196 H 0.66115 0.97657 0.20137 0.0
H2197 H 0.65668 0.99579 0.17223 0.0
H2198 H 0.63244 0.97817 0.22716 0.0
H2199 H 0.70135 0.01621 0.2173 0.0
H2200 H 0.72759 0.05489 0.20899 0.0
H2201 H 0.70705 0.11481 0.24939 0.0
H2202 H 0.68047 0.07666 0.25778 0.0
H2203 H 0.65676 0.90997 0.30595 0.0
H2204 H 0.66054 0.92837 0.27662 0.0
H2205 H 0.6559 0.02266 0.29421 0.0
H2206 H 0.65294 0.00443 0.32372 0.0
H2207 H 0.68346 0.0187 0.26911 0.0
H2208 H 0.61356 0.98315 0.27806 0.0
H2209 H 0.5871 0.94517 0.28689 0.0
H2210 H 0.60849 0.88214 0.24828 0.0
H2211 H 0.63534 0.91955 0.23942 0.0
C2212 C 0.6504 0.06374 0.19386 0.0
C2213 C 0.65151 0.04352 0.17979 0.0
C2214 C 0.65299 0.05263 0.2105 0.0
C2215 C 0.6568 0.02114 0.21338 0.0
C2216 C 0.65823 0.00097 0.19939 0.0
C2217 C 0.65572 0.01205 0.18274 0.0
C2218 C 0.65824 0.00904 0.23106 0.0
C2219 C 0.64382 0.98664 0.23626 0.0
C2220 C 0.67272 0.02078 0.24302 0.0
C2221 C 0.68879 0.04367 0.23808 0.0
C2222 C 0.70232 0.03773 0.22433 0.0
C2223 C 0.71727 0.05955 0.21962 0.0
C2224 C 0.71895 0.08732 0.22863 0.0
C2225 C 0.70571 0.0933 0.24241 0.0
C2226 C 0.69072 0.07157 0.24716 0.0
C2227 C 0.65669 0.93464 0.3036 0.0
C2228 C 0.65424 0.95575 0.31712 0.0
C2229 C 0.65883 0.94512 0.28682 0.0
C2230 C 0.65801 0.97686 0.28318 0.0
C2231 C 0.65647 0.99806 0.29672 0.0
C2232 C 0.6547 0.9876 0.31357 0.0
C2233 C 0.65765 0.98783 0.2652 0.0
C2234 C 0.67218 0.01009 0.25997 0.0
C2235 C 0.64313 0.97619 0.25321 0.0
C2236 C 0.62658 0.95404 0.25818 0.0
C2237 C 0.61268 0.96114 0.2715 0.0
C2238 C 0.59762 0.93971 0.27652 0.0
C2239 C 0.59615 0.91123 0.26818 0.0
C2240 C 0.60967 0.90419 0.25475 0.0
C2241 C 0.62481 0.9255 0.24972 0.0
H2242 H 0.58451 0.89465 0.27211 0.0
H2243 H 0.73054 0.10418 0.22496 0.0
H2244 H 0.65956 0.09112 0.80969 0.0
H2245 H 0.6651 0.07778 0.77967 0.0
H2246 H 0.66232 0.98084 0.79242 0.0
H2247 H 0.65757 0.99392 0.82251 0.0
H2248 H 0.6902 0.98987 0.7682 0.0
H2249 H 0.61934 0.02199 0.77813 0.0
H2250 H 0.59213 0.05815 0.78776 0.0
H2251 H 0.61311 0.12555 0.75135 0.0
H2252 H 0.64071 0.08999 0.74172 0.0
H2253 H 0.65094 0.92127 0.69275 0.0
H2254 H 0.65676 0.94152 0.72146 0.0
H2255 H 0.66517 0.03305 0.70077 0.0
H2256 H 0.65934 0.01307 0.67189 0.0
H2257 H 0.63774 0.03154 0.72782 0.0
H2258 H 0.70625 0.99543 0.71567 0.0
H2259 H 0.73263 0.95787 0.70616 0.0
H2260 H 0.71496 0.89616 0.74663 0.0
H2261 H 0.68824 0.93314 0.75623 0.0
C2262 C 0.66039 0.06695 0.80614 0.0
C2263 C 0.65781 0.04357 0.81847 0.0
C2264 C 0.66351 0.05937 0.78897 0.0
C2265 C 0.66365 0.02832 0.78374 0.0
C2266 C 0.66219 0.00496 0.79614 0.0
C2267 C 0.65938 0.0125 0.81335 0.0
C2268 C 0.66383 0.02006 0.76532 0.0
C2269 C 0.67867 0.99885 0.75939 0.0
C2270 C 0.64903 0.03228 0.75373 0.0
C2271 C 0.63222 0.05346 0.75933 0.0
C2272 C 0.61823 0.04459 0.77225 0.0
C2273 C 0.60274 0.06498 0.77771 0.0
C2274 C 0.60092 0.09414 0.77019 0.0
C2275 C 0.61456 0.10297 0.75718 0.0
C2276 C 0.63013 0.08272 0.75171 0.0
C2277 C 0.65418 0.94569 0.69423 0.0
C2278 C 0.65462 0.96554 0.67998 0.0
C2279 C 0.65761 0.95718 0.71067 0.0
C2280 C 0.66156 0.98873 0.71321 0.0
C2281 C 0.6622 0.00861 0.69904 0.0
C2282 C 0.65891 0.9971 0.68256 0.0
C2283 C 0.66391 0.00102 0.73078 0.0
C2284 C 0.64948 0.02293 0.73656 0.0
C2285 C 0.67894 0.98921 0.74224 0.0
C2286 C 0.69513 0.967 0.7366 0.0
C2287 C 0.70788 0.97376 0.72247 0.0
C2288 C 0.72291 0.95258 0.71707 0.0
C2289 C 0.72544 0.92462 0.72577 0.0
C2290 C 0.71298 0.91782 0.73991 0.0
C2291 C 0.6979 0.9389 0.74534 0.0
H2292 H 0.73709 0.90826 0.72157 0.0
H2293 H 0.5889 0.10988 0.77441 0.0
H2294 H 0.3757 0.92209 0.80725 0.0
H2295 H 0.37321 0.9429 0.77824 0.0
H2296 H 0.31868 0.99468 0.79277 0.0
H2297 H 0.32169 0.9751 0.82195 0.0
H2298 H 0.34722 0.94185 0.75315 0.0
H2299 H 0.31749 0.06327 0.77297 0.0
H2300 H 0.31874 0.09762 0.79816 0.0
H2301 H 0.37577 0.05527 0.8143 0.0
H2302 H 0.37506 0.02109 0.78905 0.0
H2303 H 0.32265 0.01942 0.67683 0.0
H2304 H 0.31973 0.99917 0.70591 0.0
H2305 H 0.36972 0.05886 0.72207 0.0
H2306 H 0.37189 0.08038 0.69331 0.0
H2307 H 0.3436 0.05577 0.74638 0.0
H2308 H 0.37679 0.98046 0.71069 0.0
H2309 H 0.3798 0.94645 0.68549 0.0
H2310 H 0.32527 0.89694 0.70121 0.0
H2311 H 0.32171 0.93104 0.72635 0.0
C2312 C 0.36311 0.93776 0.80421 0.0
C2313 C 0.34906 0.94734 0.8169 0.0
C2314 C 0.36166 0.94957 0.78762 0.0
C2315 C 0.346 0.97083 0.7834 0.0
C2316 C 0.33123 0.97896 0.79584 0.0
C2317 C 0.33293 0.9677 0.8125 0.0
C2318 C 0.34571 0.98559 0.76627 0.0
C2319 C 0.34639 0.96675 0.75167 0.0
C2320 C 0.3451 0.01814 0.76432 0.0
C2321 C 0.34608 0.03941 0.77921 0.0
C2322 C 0.33036 0.06145 0.78183 0.0
C2323 C 0.33097 0.08086 0.79613 0.0
C2324 C 0.34728 0.07855 0.80785 0.0
C2325 C 0.36311 0.05699 0.80523 0.0
C2326 C 0.36262 0.0376 0.79093 0.0
C2327 C 0.33284 0.02847 0.68664 0.0
C2328 C 0.34763 0.05128 0.68276 0.0
C2329 C 0.33123 0.01678 0.70324 0.0
C2330 C 0.34485 0.02693 0.71611 0.0
C2331 C 0.35907 0.05058 0.71238 0.0
C2332 C 0.36034 0.06281 0.6959 0.0
C2333 C 0.34501 0.01204 0.73322 0.0
C2334 C 0.34433 0.03087 0.74784 0.0
C2335 C 0.34646 0.97954 0.73518 0.0
C2336 C 0.34888 0.95848 0.72032 0.0
C2337 C 0.36539 0.9624 0.70873 0.0
C2338 C 0.36719 0.94312 0.69445 0.0
C2339 C 0.35271 0.91959 0.69173 0.0
C2340 C 0.33645 0.91521 0.70332 0.0
C2341 C 0.33454 0.9345 0.71759 0.0
H2342 H 0.35411 0.90471 0.68066 0.0
H2343 H 0.34767 0.09351 0.81894 0.0
H2344 H 0.83192 0.51389 0.1719 0.0
H2345 H 0.82844 0.53237 0.20128 0.0
H2346 H 0.83877 0.43999 0.22012 0.0
H2347 H 0.84225 0.42114 0.19082 0.0
H2348 H 0.8079 0.47217 0.23834 0.0
H2349 H 0.87831 0.48744 0.21818 0.0
H2350 H 0.90446 0.50717 0.19788 0.0
H2351 H 0.88363 0.60002 0.20692 0.0
H2352 H 0.85711 0.58076 0.22709 0.0
H2353 H 0.84507 0.49496 0.32224 0.0
H2354 H 0.83911 0.48099 0.29247 0.0
H2355 H 0.83904 0.57745 0.27843 0.0
H2356 H 0.84575 0.59164 0.30817 0.0
H2357 H 0.86185 0.54677 0.25703 0.0
H2358 H 0.79363 0.53273 0.27937 0.0
H2359 H 0.76696 0.51349 0.29934 0.0
H2360 H 0.78239 0.41993 0.28616 0.0
H2361 H 0.80938 0.43859 0.26629 0.0
C2362 C 0.83319 0.49736 0.18225 0.0
C2363 C 0.83762 0.46605 0.17897 0.0
C2364 C 0.8312 0.50801 0.19904 0.0
C2365 C 0.83358 0.48759 0.21284 0.0
C2366 C 0.83689 0.4561 0.20962 0.0
C2367 C 0.83898 0.44542 0.19285 0.0
C2368 C 0.83426 0.49933 0.23062 0.0
C2369 C 0.81973 0.48834 0.24251 0.0
C2370 C 0.84941 0.521 0.23587 0.0
C2371 C 0.8656 0.53264 0.224 0.0
C2372 C 0.87922 0.51204 0.21575 0.0
C2373 C 0.89411 0.52314 0.20428 0.0
C2374 C 0.89567 0.55483 0.20108 0.0
C2375 C 0.88238 0.57548 0.20939 0.0
C2376 C 0.86742 0.56449 0.22085 0.0
C2377 C 0.84363 0.51328 0.31287 0.0
C2378 C 0.84593 0.54445 0.31762 0.0
C2379 C 0.84008 0.50523 0.29583 0.0
C2380 C 0.83832 0.52817 0.28321 0.0
C2381 C 0.84031 0.55934 0.28794 0.0
C2382 C 0.84412 0.56741 0.30496 0.0
C2383 C 0.83553 0.51949 0.26496 0.0
C2384 C 0.84976 0.53096 0.25292 0.0
C2385 C 0.82 0.49841 0.25959 0.0
C2386 C 0.80364 0.48708 0.27142 0.0
C2387 C 0.79143 0.50805 0.28081 0.0
C2388 C 0.77625 0.49725 0.2921 0.0
C2389 C 0.77301 0.46551 0.29404 0.0
C2390 C 0.78492 0.44451 0.28465 0.0
C2391 C 0.80015 0.45519 0.27335 0.0
H2392 H 0.76125 0.4572 0.3028 0.0
H2393 H 0.9072 0.56337 0.19219 0.0
H2394 H 0.16849 0.49383 0.32308 0.0
H2395 H 0.17011 0.50925 0.29317 0.0
H2396 H 0.14893 0.41892 0.2778 0.0
H2397 H 0.14712 0.40303 0.30782 0.0
H2398 H 0.18122 0.44773 0.25591 0.0
H2399 H 0.11473 0.46806 0.28211 0.0
H2400 H 0.09344 0.48874 0.30563 0.0
H2401 H 0.11511 0.58044 0.29466 0.0
H2402 H 0.13733 0.56008 0.27153 0.0
H2403 H 0.14433 0.4897 0.17363 0.0
H2404 H 0.14812 0.46857 0.20239 0.0
H2405 H 0.15376 0.5609 0.22278 0.0
H2406 H 0.14915 0.58226 0.19413 0.0
H2407 H 0.12942 0.52907 0.24224 0.0
H2408 H 0.19635 0.51114 0.21731 0.0
H2409 H 0.22096 0.49198 0.19559 0.0
H2410 H 0.20054 0.39894 0.2046 0.0
H2411 H 0.17555 0.4176 0.2262 0.0
C2412 C 0.16447 0.47696 0.3134 0.0
C2413 C 0.15733 0.4473 0.3179 0.0
C2414 C 0.1655 0.48584 0.2963 0.0
C2415 C 0.15944 0.46529 0.28338 0.0
C2416 C 0.15367 0.43503 0.28766 0.0
C2417 C 0.15252 0.42611 0.30482 0.0
C2418 C 0.15682 0.47668 0.26572 0.0
C2419 C 0.16975 0.46522 0.25279 0.0
C2420 C 0.14211 0.49995 0.26191 0.0
C2421 C 0.12788 0.51247 0.27518 0.0
C2422 C 0.1151 0.49261 0.28478 0.0
C2423 C 0.10288 0.50427 0.29807 0.0
C2424 C 0.10289 0.5359 0.30163 0.0
C2425 C 0.11513 0.55593 0.29189 0.0
C2426 C 0.1276 0.54432 0.27872 0.0
C2427 C 0.14644 0.50552 0.18422 0.0
C2428 C 0.14646 0.53767 0.18159 0.0
C2429 C 0.1487 0.49339 0.20066 0.0
C2430 C 0.15153 0.51312 0.21473 0.0
C2431 C 0.15159 0.54522 0.21212 0.0
C2432 C 0.149 0.55739 0.19573 0.0
C2433 C 0.15401 0.50042 0.23223 0.0
C2434 C 0.14092 0.51156 0.24522 0.0
C2435 C 0.16877 0.47713 0.23611 0.0
C2436 C 0.18393 0.46581 0.22325 0.0
C2437 C 0.197 0.48661 0.21458 0.0
C2438 C 0.21103 0.47584 0.2023 0.0
C2439 C 0.21228 0.44427 0.19869 0.0
C2440 C 0.19954 0.42339 0.20739 0.0
C2441 C 0.18545 0.43405 0.21966 0.0
H2442 H 0.22315 0.43598 0.18918 0.0
H2443 H 0.09338 0.54489 0.31191 0.0
H2444 H 0.1567 0.58595 0.80935 0.0
H2445 H 0.16032 0.56989 0.77957 0.0
H2446 H 0.15587 0.47429 0.79486 0.0
H2447 H 0.15304 0.4901 0.82476 0.0
H2448 H 0.1828 0.48 0.76946 0.0
H2449 H 0.1133 0.51513 0.78064 0.0
H2450 H 0.08696 0.55233 0.79069 0.0
H2451 H 0.10716 0.61798 0.75302 0.0
H2452 H 0.13389 0.58136 0.74294 0.0
H2453 H 0.14388 0.4158 0.69198 0.0
H2454 H 0.14794 0.43379 0.72141 0.0
H2455 H 0.1597 0.52622 0.7032 0.0
H2456 H 0.15573 0.50855 0.67369 0.0
H2457 H 0.1305 0.52354 0.72953 0.0
H2458 H 0.19897 0.48541 0.7174 0.0
H2459 H 0.22444 0.4467 0.7076 0.0
H2460 H 0.20465 0.38445 0.74714 0.0
H2461 H 0.17882 0.42262 0.75702 0.0
C2462 C 0.15672 0.56148 0.80641 0.0
C2463 C 0.15425 0.5393 0.81939 0.0
C2464 C 0.15876 0.55235 0.78937 0.0
C2465 C 0.15786 0.52092 0.78496 0.0
C2466 C 0.15649 0.49867 0.79797 0.0
C2467 C 0.15479 0.50777 0.81505 0.0
C2468 C 0.157 0.51135 0.76676 0.0
C2469 C 0.17126 0.48931 0.76077 0.0
C2470 C 0.14209 0.52382 0.75535 0.0
C2471 C 0.12572 0.54561 0.76114 0.0
C2472 C 0.11219 0.53756 0.77456 0.0
C2473 C 0.09721 0.55854 0.78027 0.0
C2474 C 0.09542 0.58752 0.77252 0.0
C2475 C 0.10858 0.59554 0.75902 0.0
C2476 C 0.12365 0.57468 0.7533 0.0
C2477 C 0.14738 0.43995 0.69419 0.0
C2478 C 0.14947 0.46073 0.68045 0.0
C2479 C 0.14978 0.45014 0.71102 0.0
C2480 C 0.15425 0.48126 0.71443 0.0
C2481 C 0.15628 0.50209 0.70079 0.0
C2482 C 0.15405 0.4919 0.68395 0.0
C2483 C 0.15626 0.49221 0.73227 0.0
C2484 C 0.14214 0.51442 0.7382 0.0
C2485 C 0.17112 0.47963 0.74363 0.0
C2486 C 0.18683 0.45679 0.73786 0.0
C2487 C 0.19994 0.46338 0.72393 0.0
C2488 C 0.21446 0.44155 0.71837 0.0
C2489 C 0.21612 0.41312 0.72672 0.0
C2490 C 0.20332 0.40648 0.74068 0.0
C2491 C 0.18875 0.42822 0.74628 0.0
H2492 H 0.22736 0.39625 0.7224 0.0
H2493 H 0.0838 0.60373 0.77695 0.0
H2494 H 0.83985 0.49766 0.67334 0.0
H2495 H 0.83524 0.48064 0.70281 0.0
H2496 H 0.84059 0.57493 0.72025 0.0
H2497 H 0.84583 0.59212 0.69082 0.0
H2498 H 0.86405 0.53906 0.7389 0.0
H2499 H 0.79344 0.53532 0.72015 0.0
H2500 H 0.76439 0.52103 0.70119 0.0
H2501 H 0.77603 0.42488 0.71081 0.0
H2502 H 0.80536 0.43857 0.72964 0.0
H2503 H 0.83631 0.50746 0.82429 0.0
H2504 H 0.83215 0.52632 0.79507 0.0
H2505 H 0.83858 0.43345 0.77582 0.0
H2506 H 0.84288 0.41419 0.80501 0.0
H2507 H 0.80737 0.47004 0.75868 0.0
H2508 H 0.87911 0.47441 0.77599 0.0
H2509 H 0.90722 0.48872 0.79581 0.0
H2510 H 0.89277 0.58482 0.78889 0.0
H2511 H 0.86412 0.57096 0.76936 0.0
C2512 C 0.83986 0.51488 0.6834 0.0
C2513 C 0.84328 0.54629 0.67968 0.0
C2514 C 0.8371 0.50509 0.70027 0.0
C2515 C 0.83735 0.52653 0.71375 0.0
C2516 C 0.84035 0.55796 0.71005 0.0
C2517 C 0.8433 0.56775 0.6932 0.0
C2518 C 0.83566 0.51598 0.73177 0.0
C2519 C 0.85143 0.52445 0.74326 0.0
C2520 C 0.81945 0.4963 0.73741 0.0
C2521 C 0.80172 0.48798 0.7262 0.0
C2522 C 0.78991 0.51112 0.71813 0.0
C2523 C 0.77337 0.50312 0.70742 0.0
C2524 C 0.7684 0.47206 0.70477 0.0
C2525 C 0.77991 0.44893 0.71287 0.0
C2526 C 0.79648 0.45679 0.72357 0.0
C2527 C 0.83659 0.4909 0.8139 0.0
C2528 C 0.8402 0.45932 0.81701 0.0
C2529 C 0.83417 0.50177 0.79721 0.0
C2530 C 0.83522 0.48128 0.78333 0.0
C2531 C 0.8377 0.44957 0.78639 0.0
C2532 C 0.84029 0.43868 0.80309 0.0
C2533 C 0.83567 0.49327 0.76562 0.0
C2534 C 0.8198 0.48494 0.75425 0.0
C2535 C 0.85172 0.51317 0.76005 0.0
C2536 C 0.86933 0.52163 0.77136 0.0
C2537 C 0.88183 0.49859 0.77879 0.0
C2538 C 0.89787 0.50662 0.78997 0.0
C2539 C 0.90179 0.53769 0.79362 0.0
C2540 C 0.8897 0.56077 0.78606 0.0
C2541 C 0.87354 0.55283 0.77495 0.0
H2542 H 0.91421 0.54387 0.8023 0.0
H2543 H 0.7556 0.46592 0.69647 0.0
loop_
_geom_bond_atom_site_label_1
_geom_bond_atom_site_label_2
_geom_bond_distance
_geom_bond_site_symmetry_2
_ccdc_geom_bond_type
Co0 O2 2.143 . S
Co0 O8 2.074 . S
Co0 O11 2.093 . S
Co0 O24 2.097 . S
Co0 N41 2.151 1_545 S
Co0 N49 2.214 1_545 S
Co1 O2 2.160 . S
Co1 O7 2.058 . S
Co1 O17 2.057 . S
Co1 O32 2.037 . S
Co1 N36 2.145 . S
Co1 N57 2.257 . S
O2 Co0 2.143 . S
O2 Co1 2.160 . S
C3 O4 1.278 . S
C3 O11 1.224 . S
O4 C3 1.278 . S
C5 O6 1.245 . S
C5 O17 1.232 . S
O6 C5 1.245 . S
O7 Co1 2.058 . S
O7 C33 1.269 . S
O8 Co0 2.074 . S
O8 C33 1.257 . S
H9 C34 0.930 . S
H10 C40 0.930 . S
O11 Co0 2.093 . S
O11 C3 1.224 . S
H12 C44 0.929 . S
H13 C46 0.930 . S
H14 C47 0.930 . S
H15 C45 0.929 . S
H16 C48 0.928 . S
O17 Co1 2.057 . S
O17 C5 1.232 . S
H18 C37 0.929 . S
H19 C38 0.929 . S
H20 C50 0.931 . S
H21 C42 0.929 1_545 S
H22 C51 0.930 . S
H23 C43 0.931 . S
O24 Co0 2.097 . S
O24 C52 1.214 . S
H25 C53 0.929 . S
H26 C54 0.929 . S
H27 C55 0.930 . S
H28 C56 0.929 . S
H29 C58 0.930 . S
H30 C35 0.930 . S
H31 C39 0.930 . S
O32 Co1 2.037 . S
O32 C52 1.234 . S
C33 O7 1.269 . S
C33 O8 1.257 . S
C34 H9 0.930 . S
C34 C37 1.388 . S
C34 C39 1.418 . S
C35 H30 0.930 . S
C35 C38 1.404 . S
C35 C39 1.353 . S
N36 Co1 2.145 . S
N36 C37 1.397 . S
N36 C38 1.334 . S
C37 H18 0.929 . S
C37 C34 1.388 . S
C37 N36 1.397 . S
C38 H19 0.929 . S
C38 C35 1.404 . S
C38 N36 1.334 . S
C39 H31 0.930 . S
C39 C34 1.418 . S
C39 C35 1.353 . S
C40 H10 0.930 . S
C40 N41 1.330 1_545 S
C40 C42 1.446 1_545 S
N41 Co0 2.151 1_565 S
N41 C40 1.330 1_565 S
N41 C45 1.418 . S
C42 H21 0.929 1_565 S
C42 C40 1.446 1_565 S
C42 C43 1.332 . S
C43 H23 0.931 . S
C43 C42 1.332 . S
C43 C44 1.267 . S
C44 H12 0.929 . S
C44 C43 1.267 . S
C44 C45 1.251 . S
C45 H15 0.929 . S
C45 N41 1.418 . S
C45 C44 1.251 . S
C46 H13 0.930 . S
C46 C48 1.406 . S
C46 C51 1.261 . S
C47 H14 0.930 . S
C47 N49 1.325 . S
C47 C50 1.357 . S
C48 H16 0.928 . S
C48 C46 1.406 . S
C48 N49 1.261 . S
N49 Co0 2.214 1_565 S
N49 C47 1.325 . S
N49 C48 1.261 . S
C50 H20 0.931 . S
C50 C47 1.357 . S
C50 C51 1.312 . S
C51 H22 0.930 . S
C51 C46 1.261 . S
C51 C50 1.312 . S
C52 O24 1.214 . S
C52 O32 1.234 . S
C53 H25 0.929 . S
C53 C56 1.391 . S
C53 C58 1.391 . S
C54 H26 0.929 . S
C54 C55 1.390 . S
C54 N57 1.391 . S
C55 H27 0.930 . S
C55 C54 1.390 . S
C55 C56 1.392 . S
C56 H28 0.929 . S
C56 C53 1.391 . S
C56 C55 1.392 . S
N57 Co1 2.257 . S
N57 C54 1.391 . S
N57 C58 1.388 . S
C58 H29 0.930 . S
C58 C53 1.391 . S
C58 N57 1.388 . S
Co59 O61 2.143 . S
Co59 O67 2.074 . S
Co59 O70 2.093 . S
Co59 O83 2.097 . S
Co59 N100 2.151 1_565 S
Co59 N108 2.214 1_565 S
Co60 O61 2.160 . S
Co60 O66 2.058 . S
Co60 O76 2.057 . S
Co60 O91 2.037 . S
Co60 N95 2.145 . S
Co60 N116 2.257 . S
O61 Co59 2.143 . S
O61 Co60 2.160 . S
C62 O63 1.278 . S
C62 O70 1.224 . S
O63 C62 1.278 . S
C64 O65 1.245 . S
C64 O76 1.232 . S
O65 C64 1.245 . S
O66 Co60 2.058 . S
O66 C92 1.269 . S
O67 Co59 2.074 . S
O67 C92 1.257 . S
H68 C93 0.930 . S
H69 C99 0.930 . S
O70 Co59 2.093 . S
O70 C62 1.224 . S
H71 C103 0.929 . S
H72 C105 0.930 . S
H73 C106 0.930 . S
H74 C104 0.929 . S
H75 C107 0.928 . S
O76 Co60 2.057 . S
O76 C64 1.232 . S
H77 C96 0.929 . S
H78 C97 0.929 . S
H79 C109 0.931 . S
H80 C101 0.929 1_565 S
H81 C110 0.930 . S
H82 C102 0.931 . S
O83 Co59 2.097 . S
O83 C111 1.214 . S
H84 C112 0.929 . S
H85 C113 0.929 . S
H86 C114 0.930 . S
H87 C115 0.929 . S
H88 C117 0.930 . S
H89 C94 0.930 . S
H90 C98 0.930 . S
O91 Co60 2.037 . S
O91 C111 1.234 . S
C92 O66 1.269 . S
C92 O67 1.257 . S
C93 H68 0.930 . S
C93 C96 1.388 . S
C93 C98 1.418 . S
C94 H89 0.930 . S
C94 C97 1.404 . S
C94 C98 1.353 . S
N95 Co60 2.145 . S
N95 C96 1.397 . S
N95 C97 1.334 . S
C96 H77 0.929 . S
C96 C93 1.388 . S
C96 N95 1.397 . S
C97 H78 0.929 . S
C97 C94 1.404 . S
C97 N95 1.334 . S
C98 H90 0.930 . S
C98 C93 1.418 . S
C98 C94 1.353 . S
C99 H69 0.930 . S
C99 N100 1.330 1_565 S
C99 C101 1.446 1_565 S
N100 Co59 2.151 1_545 S
N100 C99 1.330 1_545 S
N100 C104 1.418 . S
C101 H80 0.929 1_545 S
C101 C99 1.446 1_545 S
C101 C102 1.332 . S
C102 H82 0.931 . S
C102 C101 1.332 . S
C102 C103 1.267 . S
C103 H71 0.929 . S
C103 C102 1.267 . S
C103 C104 1.251 . S
C104 H74 0.929 . S
C104 N100 1.418 . S
C104 C103 1.251 . S
C105 H72 0.930 . S
C105 C107 1.406 . S
C105 C110 1.261 . S
C106 H73 0.930 . S
C106 N108 1.325 . S
C106 C109 1.357 . S
C107 H75 0.928 . S
C107 C105 1.406 . S
C107 N108 1.261 . S
N108 Co59 2.214 1_545 S
N108 C106 1.325 . S
N108 C107 1.261 . S
C109 H79 0.931 . S
C109 C106 1.357 . S
C109 C110 1.312 . S
C110 H81 0.930 . S
C110 C105 1.261 . S
C110 C109 1.312 . S
C111 O83 1.214 . S
C111 O91 1.234 . S
C112 H84 0.929 . S
C112 C115 1.391 . S
C112 C117 1.391 . S
C113 H85 0.929 . S
C113 C114 1.390 . S
C113 N116 1.391 . S
C114 H86 0.930 . S
C114 C113 1.390 . S
C114 C115 1.392 . S
C115 H87 0.929 . S
C115 C112 1.391 . S
C115 C114 1.392 . S
N116 Co60 2.257 . S
N116 C113 1.391 . S
N116 C117 1.388 . S
C117 H88 0.930 . S
C117 C112 1.391 . S
C117 N116 1.388 . S
Co118 O120 2.143 . S
Co118 O126 2.074 . S
Co118 O129 2.093 . S
Co118 O142 2.097 . S
Co118 N159 2.151 1_565 S
Co118 N167 2.214 1_565 S
Co119 O120 2.160 . S
Co119 O125 2.058 . S
Co119 O135 2.057 . S
Co119 O150 2.037 . S
Co119 N154 2.145 . S
Co119 N175 2.257 . S
O120 Co118 2.143 . S
O120 Co119 2.160 . S
C121 O122 1.278 . S
C121 O129 1.224 . S
O122 C121 1.278 . S
C123 O124 1.245 . S
C123 O135 1.232 . S
O124 C123 1.245 . S
O125 Co119 2.058 . S
O125 C151 1.269 . S
O126 Co118 2.074 . S
O126 C151 1.257 . S
H127 C152 0.930 . S
H128 C158 0.930 . S
O129 Co118 2.093 . S
O129 C121 1.224 . S
H130 C162 0.929 . S
H131 C164 0.930 . S
H132 C165 0.930 . S
H133 C163 0.929 . S
H134 C166 0.928 . S
O135 Co119 2.057 . S
O135 C123 1.232 . S
H136 C155 0.929 . S
H137 C156 0.929 . S
H138 C168 0.931 . S
H139 C160 0.929 1_565 S
H140 C169 0.930 . S
H141 C161 0.931 . S
O142 Co118 2.097 . S
O142 C170 1.214 . S
H143 C171 0.929 . S
H144 C172 0.929 . S
H145 C173 0.930 . S
H146 C174 0.929 . S
H147 C176 0.930 . S
H148 C153 0.930 . S
H149 C157 0.930 . S
O150 Co119 2.037 . S
O150 C170 1.234 . S
C151 O125 1.269 . S
C151 O126 1.257 . S
C152 H127 0.930 . S
C152 C155 1.388 . S
C152 C157 1.418 . S
C153 H148 0.930 . S
C153 C156 1.404 . S
C153 C157 1.353 . S
N154 Co119 2.145 . S
N154 C155 1.397 . S
N154 C156 1.334 . S
C155 H136 0.929 . S
C155 C152 1.388 . S
C155 N154 1.397 . S
C156 H137 0.929 . S
C156 C153 1.404 . S
C156 N154 1.334 . S
C157 H149 0.930 . S
C157 C152 1.418 . S
C157 C153 1.353 . S
C158 H128 0.930 . S
C158 N159 1.330 1_565 S
C158 C160 1.446 1_565 S
N159 Co118 2.151 1_545 S
N159 C158 1.330 1_545 S
N159 C163 1.418 . S
C160 H139 0.929 1_545 S
C160 C158 1.446 1_545 S
C160 C161 1.332 . S
C161 H141 0.931 . S
C161 C160 1.332 . S
C161 C162 1.267 . S
C162 H130 0.929 . S
C162 C161 1.267 . S
C162 C163 1.251 . S
C163 H133 0.929 . S
C163 N159 1.418 . S
C163 C162 1.251 . S
C164 H131 0.930 . S
C164 C166 1.406 . S
C164 C169 1.261 . S
C165 H132 0.930 . S
C165 N167 1.325 . S
C165 C168 1.357 . S
C166 H134 0.928 . S
C166 C164 1.406 . S
C166 N167 1.261 . S
N167 Co118 2.214 1_545 S
N167 C165 1.325 . S
N167 C166 1.261 . S
C168 H138 0.931 . S
C168 C165 1.357 . S
C168 C169 1.312 . S
C169 H140 0.930 . S
C169 C164 1.261 . S
C169 C168 1.312 . S
C170 O142 1.214 . S
C170 O150 1.234 . S
C171 H143 0.929 . S
C171 C174 1.391 . S
C171 C176 1.391 . S
C172 H144 0.929 . S
C172 C173 1.390 . S
C172 N175 1.391 . S
C173 H145 0.930 . S
C173 C172 1.390 . S
C173 C174 1.392 . S
C174 H146 0.929 . S
C174 C171 1.391 . S
C174 C173 1.392 . S
N175 Co119 2.257 . S
N175 C172 1.391 . S
N175 C176 1.388 . S
C176 H147 0.930 . S
C176 C171 1.391 . S
C176 N175 1.388 . S
Co177 O179 2.143 . S
Co177 O185 2.074 . S
Co177 O188 2.093 . S
Co177 O201 2.097 . S
Co177 N218 2.151 1_545 S
Co177 N226 2.214 1_545 S
Co178 O179 2.160 . S
Co178 O184 2.058 . S
Co178 O194 2.057 . S
Co178 O209 2.037 . S
Co178 N213 2.145 . S
Co178 N234 2.257 . S
O179 Co177 2.143 . S
O179 Co178 2.160 . S
C180 O181 1.278 . S
C180 O188 1.224 . S
O181 C180 1.278 . S
C182 O183 1.245 . S
C182 O194 1.232 . S
O183 C182 1.245 . S
O184 Co178 2.058 . S
O184 C210 1.269 . S
O185 Co177 2.074 . S
O185 C210 1.257 . S
H186 C211 0.930 . S
H187 C217 0.930 . S
O188 Co177 2.093 . S
O188 C180 1.224 . S
H189 C221 0.929 . S
H190 C223 0.930 . S
H191 C224 0.930 . S
H192 C222 0.929 . S
H193 C225 0.928 . S
O194 Co178 2.057 . S
O194 C182 1.232 . S
H195 C214 0.929 . S
H196 C215 0.929 . S
H197 C227 0.931 . S
H198 C219 0.929 1_545 S
H199 C228 0.930 . S
H200 C220 0.931 . S
O201 Co177 2.097 . S
O201 C229 1.214 . S
H202 C230 0.929 . S
H203 C231 0.929 . S
H204 C232 0.930 . S
H205 C233 0.929 . S
H206 C235 0.930 . S
H207 C212 0.930 . S
H208 C216 0.930 . S
O209 Co178 2.037 . S
O209 C229 1.234 . S
C210 O184 1.269 . S
C210 O185 1.257 . S
C211 H186 0.930 . S
C211 C214 1.388 . S
C211 C216 1.418 . S
C212 H207 0.930 . S
C212 C215 1.404 . S
C212 C216 1.353 . S
N213 Co178 2.145 . S
N213 C214 1.397 . S
N213 C215 1.334 . S
C214 H195 0.929 . S
C214 C211 1.388 . S
C214 N213 1.397 . S
C215 H196 0.929 . S
C215 C212 1.404 . S
C215 N213 1.334 . S
C216 H208 0.930 . S
C216 C211 1.418 . S
C216 C212 1.353 . S
C217 H187 0.930 . S
C217 N218 1.330 1_545 S
C217 C219 1.446 1_545 S
N218 Co177 2.151 1_565 S
N218 C217 1.330 1_565 S
N218 C222 1.418 . S
C219 H198 0.929 1_565 S
C219 C217 1.446 1_565 S
C219 C220 1.332 . S
C220 H200 0.931 . S
C220 C219 1.332 . S
C220 C221 1.267 . S
C221 H189 0.929 . S
C221 C220 1.267 . S
C221 C222 1.251 . S
C222 H192 0.929 . S
C222 N218 1.418 . S
C222 C221 1.251 . S
C223 H190 0.930 . S
C223 C225 1.406 . S
C223 C228 1.261 . S
C224 H191 0.930 . S
C224 N226 1.325 . S
C224 C227 1.357 . S
C225 H193 0.928 . S
C225 C223 1.406 . S
C225 N226 1.261 . S
N226 Co177 2.214 1_565 S
N226 C224 1.325 . S
N226 C225 1.261 . S
C227 H197 0.931 . S
C227 C224 1.357 . S
C227 C228 1.312 . S
C228 H199 0.930 . S
C228 C223 1.261 . S
C228 C227 1.312 . S
C229 O201 1.214 . S
C229 O209 1.234 . S
C230 H202 0.929 . S
C230 C233 1.391 . S
C230 C235 1.391 . S
C231 H203 0.929 . S
C231 C232 1.390 . S
C231 N234 1.391 . S
C232 H204 0.930 . S
C232 C231 1.390 . S
C232 C233 1.392 . S
C233 H205 0.929 . S
C233 C230 1.391 . S
C233 C232 1.392 . S
N234 Co178 2.257 . S
N234 C231 1.391 . S
N234 C235 1.388 . S
C235 H206 0.930 . S
C235 C230 1.391 . S
C235 N234 1.388 . S
Co236 O238 2.143 . S
Co236 O244 2.074 . S
Co236 O247 2.093 . S
Co236 O260 2.097 . S
Co236 N277 2.151 1_565 S
Co236 N285 2.214 1_565 S
Co237 O238 2.160 . S
Co237 O243 2.058 . S
Co237 O253 2.057 . S
Co237 O268 2.037 . S
Co237 N272 2.145 . S
Co237 N293 2.257 . S
O238 Co236 2.143 . S
O238 Co237 2.160 . S
C239 O240 1.278 . S
C239 O247 1.224 . S
O240 C239 1.278 . S
C241 O242 1.245 . S
C241 O253 1.232 . S
O242 C241 1.245 . S
O243 Co237 2.058 . S
O243 C269 1.269 . S
O244 Co236 2.074 . S
O244 C269 1.257 . S
H245 C270 0.930 . S
H246 C276 0.930 . S
O247 Co236 2.093 . S
O247 C239 1.224 . S
H248 C280 0.929 . S
H249 C282 0.930 . S
H250 C283 0.930 . S
H251 C281 0.929 . S
H252 C284 0.928 . S
O253 Co237 2.057 . S
O253 C241 1.232 . S
H254 C273 0.929 . S
H255 C274 0.929 . S
H256 C286 0.931 . S
H257 C278 0.929 1_565 S
H258 C287 0.930 . S
H259 C279 0.931 . S
O260 Co236 2.097 . S
O260 C288 1.214 . S
H261 C289 0.929 . S
H262 C290 0.929 . S
H263 C291 0.930 . S
H264 C292 0.929 . S
H265 C294 0.930 . S
H266 C271 0.930 . S
H267 C275 0.930 . S
O268 Co237 2.037 . S
O268 C288 1.234 . S
C269 O243 1.269 . S
C269 O244 1.257 . S
C270 H245 0.930 . S
C270 C273 1.388 . S
C270 C275 1.418 . S
C271 H266 0.930 . S
C271 C274 1.404 . S
C271 C275 1.353 . S
N272 Co237 2.145 . S
N272 C273 1.397 . S
N272 C274 1.334 . S
C273 H254 0.929 . S
C273 C270 1.388 . S
C273 N272 1.397 . S
C274 H255 0.929 . S
C274 C271 1.404 . S
C274 N272 1.334 . S
C275 H267 0.930 . S
C275 C270 1.418 . S
C275 C271 1.353 . S
C276 H246 0.930 . S
C276 N277 1.330 1_565 S
C276 C278 1.446 1_565 S
N277 Co236 2.151 1_545 S
N277 C276 1.330 1_545 S
N277 C281 1.418 . S
C278 H257 0.929 1_545 S
C278 C276 1.446 1_545 S
C278 C279 1.332 . S
C279 H259 0.931 . S
C279 C278 1.332 . S
C279 C280 1.267 . S
C280 H248 0.929 . S
C280 C279 1.267 . S
C280 C281 1.251 . S
C281 H251 0.929 . S
C281 N277 1.418 . S
C281 C280 1.251 . S
C282 H249 0.930 . S
C282 C284 1.406 . S
C282 C287 1.261 . S
C283 H250 0.930 . S
C283 N285 1.325 . S
C283 C286 1.357 . S
C284 H252 0.928 . S
C284 C282 1.406 . S
C284 N285 1.261 . S
N285 Co236 2.214 1_545 S
N285 C283 1.325 . S
N285 C284 1.261 . S
C286 H256 0.931 . S
C286 C283 1.357 . S
C286 C287 1.312 . S
C287 H258 0.930 . S
C287 C282 1.261 . S
C287 C286 1.312 . S
C288 O260 1.214 . S
C288 O268 1.234 . S
C289 H261 0.929 . S
C289 C292 1.391 . S
C289 C294 1.391 . S
C290 H262 0.929 . S
C290 C291 1.390 . S
C290 N293 1.391 . S
C291 H263 0.930 . S
C291 C290 1.390 . S
C291 C292 1.392 . S
C292 H264 0.929 . S
C292 C289 1.391 . S
C292 C291 1.392 . S
N293 Co237 2.257 . S
N293 C290 1.391 . S
N293 C294 1.388 . S
C294 H265 0.930 . S
C294 C289 1.391 . S
C294 N293 1.388 . S
Co295 O297 2.143 . S
Co295 O303 2.074 . S
Co295 O306 2.093 . S
Co295 O319 2.097 . S
Co295 N336 2.151 1_545 S
Co295 N344 2.214 1_545 S
Co296 O297 2.160 . S
Co296 O302 2.058 . S
Co296 O312 2.057 . S
Co296 O327 2.037 . S
Co296 N331 2.145 . S
Co296 N352 2.257 . S
O297 Co295 2.143 . S
O297 Co296 2.160 . S
C298 O299 1.278 . S
C298 O306 1.224 . S
O299 C298 1.278 . S
C300 O301 1.245 . S
C300 O312 1.232 . S
O301 C300 1.245 . S
O302 Co296 2.058 . S
O302 C328 1.269 . S
O303 Co295 2.074 . S
O303 C328 1.257 . S
H304 C329 0.930 . S
H305 C335 0.930 . S
O306 Co295 2.093 . S
O306 C298 1.224 . S
H307 C339 0.929 . S
H308 C341 0.930 . S
H309 C342 0.930 . S
H310 C340 0.929 . S
H311 C343 0.928 . S
O312 Co296 2.057 . S
O312 C300 1.232 . S
H313 C332 0.929 . S
H314 C333 0.929 . S
H315 C345 0.931 . S
H316 C337 0.929 1_545 S
H317 C346 0.930 . S
H318 C338 0.931 . S
O319 Co295 2.097 . S
O319 C347 1.214 . S
H320 C348 0.929 . S
H321 C349 0.929 . S
H322 C350 0.930 . S
H323 C351 0.929 . S
H324 C353 0.930 . S
H325 C330 0.930 . S
H326 C334 0.930 . S
O327 Co296 2.037 . S
O327 C347 1.234 . S
C328 O302 1.269 . S
C328 O303 1.257 . S
C329 H304 0.930 . S
C329 C332 1.388 . S
C329 C334 1.418 . S
C330 H325 0.930 . S
C330 C333 1.404 . S
C330 C334 1.353 . S
N331 Co296 2.145 . S
N331 C332 1.397 . S
N331 C333 1.334 . S
C332 H313 0.929 . S
C332 C329 1.388 . S
C332 N331 1.397 . S
C333 H314 0.929 . S
C333 C330 1.404 . S
C333 N331 1.334 . S
C334 H326 0.930 . S
C334 C329 1.418 . S
C334 C330 1.353 . S
C335 H305 0.930 . S
C335 N336 1.330 1_545 S
C335 C337 1.446 1_545 S
N336 Co295 2.151 1_565 S
N336 C335 1.330 1_565 S
N336 C340 1.418 . S
C337 H316 0.929 1_565 S
C337 C335 1.446 1_565 S
C337 C338 1.332 . S
C338 H318 0.931 . S
C338 C337 1.332 . S
C338 C339 1.267 . S
C339 H307 0.929 . S
C339 C338 1.267 . S
C339 C340 1.251 . S
C340 H310 0.929 . S
C340 N336 1.418 . S
C340 C339 1.251 . S
C341 H308 0.930 . S
C341 C343 1.406 . S
C341 C346 1.261 . S
C342 H309 0.930 . S
C342 N344 1.325 . S
C342 C345 1.357 . S
C343 H311 0.928 . S
C343 C341 1.406 . S
C343 N344 1.261 . S
N344 Co295 2.214 1_565 S
N344 C342 1.325 . S
N344 C343 1.261 . S
C345 H315 0.931 . S
C345 C342 1.357 . S
C345 C346 1.312 . S
C346 H317 0.930 . S
C346 C341 1.261 . S
C346 C345 1.312 . S
C347 O319 1.214 . S
C347 O327 1.234 . S
C348 H320 0.929 . S
C348 C351 1.391 . S
C348 C353 1.391 . S
C349 H321 0.929 . S
C349 C350 1.390 . S
C349 N352 1.391 . S
C350 H322 0.930 . S
C350 C349 1.390 . S
C350 C351 1.392 . S
C351 H323 0.929 . S
C351 C348 1.391 . S
C351 C350 1.392 . S
N352 Co296 2.257 . S
N352 C349 1.391 . S
N352 C353 1.388 . S
C353 H324 0.930 . S
C353 C348 1.391 . S
C353 N352 1.388 . S
Co354 O356 2.143 . S
Co354 O362 2.074 . S
Co354 O365 2.093 . S
Co354 O378 2.097 . S
Co354 N395 2.151 1_545 S
Co354 N403 2.214 1_545 S
Co355 O356 2.160 . S
Co355 O361 2.058 . S
Co355 O371 2.057 . S
Co355 O386 2.037 . S
Co355 N390 2.145 . S
Co355 N411 2.257 . S
O356 Co354 2.143 . S
O356 Co355 2.160 . S
C357 O358 1.278 . S
C357 O365 1.224 . S
O358 C357 1.278 . S
C359 O360 1.245 . S
C359 O371 1.232 . S
O360 C359 1.245 . S
O361 Co355 2.058 . S
O361 C387 1.269 . S
O362 Co354 2.074 . S
O362 C387 1.257 . S
H363 C388 0.930 . S
H364 C394 0.930 . S
O365 Co354 2.093 . S
O365 C357 1.224 . S
H366 C398 0.929 . S
H367 C400 0.930 . S
H368 C401 0.930 . S
H369 C399 0.929 . S
H370 C402 0.928 . S
O371 Co355 2.057 . S
O371 C359 1.232 . S
H372 C391 0.929 . S
H373 C392 0.929 . S
H374 C404 0.931 . S
H375 C396 0.929 1_545 S
H376 C405 0.930 . S
H377 C397 0.931 . S
O378 Co354 2.097 . S
O378 C406 1.214 . S
H379 C407 0.929 . S
H380 C408 0.929 . S
H381 C409 0.930 . S
H382 C410 0.929 . S
H383 C412 0.930 . S
H384 C389 0.930 . S
H385 C393 0.930 . S
O386 Co355 2.037 . S
O386 C406 1.234 . S
C387 O361 1.269 . S
C387 O362 1.257 . S
C388 H363 0.930 . S
C388 C391 1.388 . S
C388 C393 1.418 . S
C389 H384 0.930 . S
C389 C392 1.404 . S
C389 C393 1.353 . S
N390 Co355 2.145 . S
N390 C391 1.397 . S
N390 C392 1.334 . S
C391 H372 0.929 . S
C391 C388 1.388 . S
C391 N390 1.397 . S
C392 H373 0.929 . S
C392 C389 1.404 . S
C392 N390 1.334 . S
C393 H385 0.930 . S
C393 C388 1.418 . S
C393 C389 1.353 . S
C394 H364 0.930 . S
C394 N395 1.330 1_545 S
C394 C396 1.446 1_545 S
N395 Co354 2.151 1_565 S
N395 C394 1.330 1_565 S
N395 C399 1.418 . S
C396 H375 0.929 1_565 S
C396 C394 1.446 1_565 S
C396 C397 1.332 . S
C397 H377 0.931 . S
C397 C396 1.332 . S
C397 C398 1.267 . S
C398 H366 0.929 . S
C398 C397 1.267 . S
C398 C399 1.251 . S
C399 H369 0.929 . S
C399 N395 1.418 . S
C399 C398 1.251 . S
C400 H367 0.930 . S
C400 C402 1.406 . S
C400 C405 1.261 . S
C401 H368 0.930 . S
C401 N403 1.325 . S
C401 C404 1.357 . S
C402 H370 0.928 . S
C402 C400 1.406 . S
C402 N403 1.261 . S
N403 Co354 2.214 1_565 S
N403 C401 1.325 . S
N403 C402 1.261 . S
C404 H374 0.931 . S
C404 C401 1.357 . S
C404 C405 1.312 . S
C405 H376 0.930 . S
C405 C400 1.261 . S
C405 C404 1.312 . S
C406 O378 1.214 . S
C406 O386 1.234 . S
C407 H379 0.929 . S
C407 C410 1.391 . S
C407 C412 1.391 . S
C408 H380 0.929 . S
C408 C409 1.390 . S
C408 N411 1.391 . S
C409 H381 0.930 . S
C409 C408 1.390 . S
C409 C410 1.392 . S
C410 H382 0.929 . S
C410 C407 1.391 . S
C410 C409 1.392 . S
N411 Co355 2.257 . S
N411 C408 1.391 . S
N411 C412 1.388 . S
C412 H383 0.930 . S
C412 C407 1.391 . S
C412 N411 1.388 . S
Co413 O415 2.143 . S
Co413 O421 2.074 . S
Co413 O424 2.093 . S
Co413 O437 2.097 . S
Co413 N454 2.151 1_565 S
Co413 N462 2.214 1_565 S
Co414 O415 2.160 . S
Co414 O420 2.058 . S
Co414 O430 2.057 . S
Co414 O445 2.037 . S
Co414 N449 2.145 . S
Co414 N470 2.257 . S
O415 Co413 2.143 . S
O415 Co414 2.160 . S
C416 O417 1.278 . S
C416 O424 1.224 . S
O417 C416 1.278 . S
C418 O419 1.245 . S
C418 O430 1.232 . S
O419 C418 1.245 . S
O420 Co414 2.058 . S
O420 C446 1.269 . S
O421 Co413 2.074 . S
O421 C446 1.257 . S
H422 C447 0.930 . S
H423 C453 0.930 . S
O424 Co413 2.093 . S
O424 C416 1.224 . S
H425 C457 0.929 . S
H426 C459 0.930 . S
H427 C460 0.930 . S
H428 C458 0.929 . S
H429 C461 0.928 . S
O430 Co414 2.057 . S
O430 C418 1.232 . S
H431 C450 0.929 . S
H432 C451 0.929 . S
H433 C463 0.931 . S
H434 C455 0.929 1_565 S
H435 C464 0.930 . S
H436 C456 0.931 . S
O437 Co413 2.097 . S
O437 C465 1.214 . S
H438 C466 0.929 . S
H439 C467 0.929 . S
H440 C468 0.930 . S
H441 C469 0.929 . S
H442 C471 0.930 . S
H443 C448 0.930 . S
H444 C452 0.930 . S
O445 Co414 2.037 . S
O445 C465 1.234 . S
C446 O420 1.269 . S
C446 O421 1.257 . S
C447 H422 0.930 . S
C447 C450 1.388 . S
C447 C452 1.418 . S
C448 H443 0.930 . S
C448 C451 1.404 . S
C448 C452 1.353 . S
N449 Co414 2.145 . S
N449 C450 1.397 . S
N449 C451 1.334 . S
C450 H431 0.929 . S
C450 C447 1.388 . S
C450 N449 1.397 . S
C451 H432 0.929 . S
C451 C448 1.404 . S
C451 N449 1.334 . S
C452 H444 0.930 . S
C452 C447 1.418 . S
C452 C448 1.353 . S
C453 H423 0.930 . S
C453 N454 1.330 1_565 S
C453 C455 1.446 1_565 S
N454 Co413 2.151 1_545 S
N454 C453 1.330 1_545 S
N454 C458 1.418 . S
C455 H434 0.929 1_545 S
C455 C453 1.446 1_545 S
C455 C456 1.332 . S
C456 H436 0.931 . S
C456 C455 1.332 . S
C456 C457 1.267 . S
C457 H425 0.929 . S
C457 C456 1.267 . S
C457 C458 1.251 . S
C458 H428 0.929 . S
C458 N454 1.418 . S
C458 C457 1.251 . S
C459 H426 0.930 . S
C459 C461 1.406 . S
C459 C464 1.261 . S
C460 H427 0.930 . S
C460 N462 1.325 . S
C460 C463 1.357 . S
C461 H429 0.928 . S
C461 C459 1.406 . S
C461 N462 1.261 . S
N462 Co413 2.214 1_545 S
N462 C460 1.325 . S
N462 C461 1.261 . S
C463 H433 0.931 . S
C463 C460 1.357 . S
C463 C464 1.312 . S
C464 H435 0.930 . S
C464 C459 1.261 . S
C464 C463 1.312 . S
C465 O437 1.214 . S
C465 O445 1.234 . S
C466 H438 0.929 . S
C466 C469 1.391 . S
C466 C471 1.391 . S
C467 H439 0.929 . S
C467 C468 1.390 . S
C467 N470 1.391 . S
C468 H440 0.930 . S
C468 C467 1.390 . S
C468 C469 1.392 . S
C469 H441 0.929 . S
C469 C466 1.391 . S
C469 C468 1.392 . S
N470 Co414 2.257 . S
N470 C467 1.391 . S
N470 C471 1.388 . S
C471 H442 0.930 . S
C471 C466 1.391 . S
C471 N470 1.388 . S
Co472 O474 2.143 . S
Co472 O480 2.074 . S
Co472 O483 2.093 . S
Co472 O496 2.097 . S
Co472 N513 2.151 . S
Co472 N521 2.214 . S
Co473 O474 2.160 . S
Co473 O479 2.058 . S
Co473 O489 2.057 . S
Co473 O504 2.037 . S
Co473 N508 2.145 . S
Co473 N529 2.257 . S
O474 Co472 2.143 . S
O474 Co473 2.160 . S
C475 O476 1.278 . S
C475 O483 1.224 . S
O476 C475 1.278 . S
C477 O478 1.245 . S
C477 O489 1.232 . S
O478 C477 1.245 . S
O479 Co473 2.058 . S
O479 C505 1.269 . S
O480 Co472 2.074 . S
O480 C505 1.257 . S
H481 C506 0.930 . S
H482 C512 0.930 . S
O483 Co472 2.093 . S
O483 C475 1.224 . S
H484 C516 0.929 . S
H485 C518 0.930 . S
H486 C519 0.930 . S
H487 C517 0.929 . S
H488 C520 0.928 . S
O489 Co473 2.057 . S
O489 C477 1.232 . S
H490 C509 0.929 . S
H491 C510 0.929 . S
H492 C522 0.931 . S
H493 C514 0.929 . S
H494 C523 0.930 . S
H495 C515 0.931 . S
O496 Co472 2.097 . S
O496 C524 1.214 . S
H497 C525 0.929 . S
H498 C526 0.929 . S
H499 C527 0.930 . S
H500 C528 0.929 . S
H501 C530 0.930 . S
H502 C507 0.930 . S
H503 C511 0.930 . S
O504 Co473 2.037 . S
O504 C524 1.234 . S
C505 O479 1.269 . S
C505 O480 1.257 . S
C506 H481 0.930 . S
C506 C509 1.388 . S
C506 C511 1.418 . S
C507 H502 0.930 . S
C507 C510 1.404 . S
C507 C511 1.353 . S
N508 Co473 2.145 . S
N508 C509 1.397 . S
N508 C510 1.334 . S
C509 H490 0.929 . S
C509 C506 1.388 . S
C509 N508 1.397 . S
C510 H491 0.929 . S
C510 C507 1.404 . S
C510 N508 1.334 . S
C511 H503 0.930 . S
C511 C506 1.418 . S
C511 C507 1.353 . S
C512 H482 0.930 . S
C512 N513 1.330 . S
C512 C514 1.446 . S
N513 Co472 2.151 . S
N513 C512 1.330 . S
N513 C517 1.418 . S
C514 H493 0.929 . S
C514 C512 1.446 . S
C514 C515 1.332 . S
C515 H495 0.931 . S
C515 C514 1.332 . S
C515 C516 1.267 . S
C516 H484 0.929 . S
C516 C515 1.267 . S
C516 C517 1.251 . S
C517 H487 0.929 . S
C517 N513 1.418 . S
C517 C516 1.251 . S
C518 H485 0.930 . S
C518 C520 1.406 . S
C518 C523 1.261 . S
C519 H486 0.930 . S
C519 N521 1.325 . S
C519 C522 1.357 . S
C520 H488 0.928 . S
C520 C518 1.406 . S
C520 N521 1.261 . S
N521 Co472 2.214 . S
N521 C519 1.325 . S
N521 C520 1.261 . S
C522 H492 0.931 . S
C522 C519 1.357 . S
C522 C523 1.312 . S
C523 H494 0.930 . S
C523 C518 1.261 . S
C523 C522 1.312 . S
C524 O496 1.214 . S
C524 O504 1.234 . S
C525 H497 0.929 . S
C525 C528 1.391 . S
C525 C530 1.391 . S
C526 H498 0.929 . S
C526 C527 1.390 . S
C526 N529 1.391 . S
C527 H499 0.930 . S
C527 C526 1.390 . S
C527 C528 1.392 . S
C528 H500 0.929 . S
C528 C525 1.391 . S
C528 C527 1.392 . S
N529 Co473 2.257 . S
N529 C526 1.391 . S
N529 C530 1.388 . S
C530 H501 0.930 . S
C530 C525 1.391 . S
C530 N529 1.388 . S
Co531 O533 2.143 . S
Co531 O539 2.074 . S
Co531 O542 2.093 . S
Co531 O555 2.097 . S
Co531 N572 2.151 . S
Co531 N580 2.214 . S
Co532 O533 2.160 . S
Co532 O538 2.058 . S
Co532 O548 2.057 . S
Co532 O563 2.037 . S
Co532 N567 2.145 . S
Co532 N588 2.257 . S
O533 Co531 2.143 . S
O533 Co532 2.160 . S
C534 O535 1.278 . S
C534 O542 1.224 . S
O535 C534 1.278 . S
C536 O537 1.245 . S
C536 O548 1.232 . S
O537 C536 1.245 . S
O538 Co532 2.058 . S
O538 C564 1.269 . S
O539 Co531 2.074 . S
O539 C564 1.257 . S
H540 C565 0.930 . S
H541 C571 0.930 . S
O542 Co531 2.093 . S
O542 C534 1.224 . S
H543 C575 0.929 . S
H544 C577 0.930 . S
H545 C578 0.930 . S
H546 C576 0.929 . S
H547 C579 0.928 . S
O548 Co532 2.057 . S
O548 C536 1.232 . S
H549 C568 0.929 . S
H550 C569 0.929 . S
H551 C581 0.931 . S
H552 C573 0.929 . S
H553 C582 0.930 . S
H554 C574 0.931 . S
O555 Co531 2.097 . S
O555 C583 1.214 . S
H556 C584 0.929 . S
H557 C585 0.929 . S
H558 C586 0.930 . S
H559 C587 0.929 . S
H560 C589 0.930 . S
H561 C566 0.930 . S
H562 C570 0.930 . S
O563 Co532 2.037 . S
O563 C583 1.234 . S
C564 O538 1.269 . S
C564 O539 1.257 . S
C565 H540 0.930 . S
C565 C568 1.388 . S
C565 C570 1.418 . S
C566 H561 0.930 . S
C566 C569 1.404 . S
C566 C570 1.353 . S
N567 Co532 2.145 . S
N567 C568 1.397 . S
N567 C569 1.334 . S
C568 H549 0.929 . S
C568 C565 1.388 . S
C568 N567 1.397 . S
C569 H550 0.929 . S
C569 C566 1.404 . S
C569 N567 1.334 . S
C570 H562 0.930 . S
C570 C565 1.418 . S
C570 C566 1.353 . S
C571 H541 0.930 . S
C571 N572 1.330 . S
C571 C573 1.446 . S
N572 Co531 2.151 . S
N572 C571 1.330 . S
N572 C576 1.418 . S
C573 H552 0.929 . S
C573 C571 1.446 . S
C573 C574 1.332 . S
C574 H554 0.931 . S
C574 C573 1.332 . S
C574 C575 1.267 . S
C575 H543 0.929 . S
C575 C574 1.267 . S
C575 C576 1.251 . S
C576 H546 0.929 . S
C576 N572 1.418 . S
C576 C575 1.251 . S
C577 H544 0.930 . S
C577 C579 1.406 . S
C577 C582 1.261 . S
C578 H545 0.930 . S
C578 N580 1.325 . S
C578 C581 1.357 . S
C579 H547 0.928 . S
C579 C577 1.406 . S
C579 N580 1.261 . S
N580 Co531 2.214 . S
N580 C578 1.325 . S
N580 C579 1.261 . S
C581 H551 0.931 . S
C581 C578 1.357 . S
C581 C582 1.312 . S
C582 H553 0.930 . S
C582 C577 1.261 . S
C582 C581 1.312 . S
C583 O555 1.214 . S
C583 O563 1.234 . S
C584 H556 0.929 . S
C584 C587 1.391 . S
C584 C589 1.391 . S
C585 H557 0.929 . S
C585 C586 1.390 . S
C585 N588 1.391 . S
C586 H558 0.930 . S
C586 C585 1.390 . S
C586 C587 1.392 . S
C587 H559 0.929 . S
C587 C584 1.391 . S
C587 C586 1.392 . S
N588 Co532 2.257 . S
N588 C585 1.391 . S
N588 C589 1.388 . S
C589 H560 0.930 . S
C589 C584 1.391 . S
C589 N588 1.388 . S
Co590 O592 2.143 . S
Co590 O598 2.074 . S
Co590 O601 2.093 . S
Co590 O614 2.097 . S
Co590 N631 2.151 . S
Co590 N639 2.214 . S
Co591 O592 2.160 . S
Co591 O597 2.058 . S
Co591 O607 2.057 . S
Co591 O622 2.037 . S
Co591 N626 2.145 . S
Co591 N647 2.257 . S
O592 Co590 2.143 . S
O592 Co591 2.160 . S
C593 O594 1.278 . S
C593 O601 1.224 . S
O594 C593 1.278 . S
C595 O596 1.245 . S
C595 O607 1.232 . S
O596 C595 1.245 . S
O597 Co591 2.058 . S
O597 C623 1.269 . S
O598 Co590 2.074 . S
O598 C623 1.257 . S
H599 C624 0.930 . S
H600 C630 0.930 . S
O601 Co590 2.093 . S
O601 C593 1.224 . S
H602 C634 0.929 . S
H603 C636 0.930 . S
H604 C637 0.930 . S
H605 C635 0.929 . S
H606 C638 0.928 . S
O607 Co591 2.057 . S
O607 C595 1.232 . S
H608 C627 0.929 . S
H609 C628 0.929 . S
H610 C640 0.931 . S
H611 C632 0.929 . S
H612 C641 0.930 . S
H613 C633 0.931 . S
O614 Co590 2.097 . S
O614 C642 1.214 . S
H615 C643 0.929 . S
H616 C644 0.929 . S
H617 C645 0.930 . S
H618 C646 0.929 . S
H619 C648 0.930 . S
H620 C625 0.930 . S
H621 C629 0.930 . S
O622 Co591 2.037 . S
O622 C642 1.234 . S
C623 O597 1.269 . S
C623 O598 1.257 . S
C624 H599 0.930 . S
C624 C627 1.388 . S
C624 C629 1.418 . S
C625 H620 0.930 . S
C625 C628 1.404 . S
C625 C629 1.353 . S
N626 Co591 2.145 . S
N626 C627 1.397 . S
N626 C628 1.334 . S
C627 H608 0.929 . S
C627 C624 1.388 . S
C627 N626 1.397 . S
C628 H609 0.929 . S
C628 C625 1.404 . S
C628 N626 1.334 . S
C629 H621 0.930 . S
C629 C624 1.418 . S
C629 C625 1.353 . S
C630 H600 0.930 . S
C630 N631 1.330 . S
C630 C632 1.446 . S
N631 Co590 2.151 . S
N631 C630 1.330 . S
N631 C635 1.418 . S
C632 H611 0.929 . S
C632 C630 1.446 . S
C632 C633 1.332 . S
C633 H613 0.931 . S
C633 C632 1.332 . S
C633 C634 1.267 . S
C634 H602 0.929 . S
C634 C633 1.267 . S
C634 C635 1.251 . S
C635 H605 0.929 . S
C635 N631 1.418 . S
C635 C634 1.251 . S
C636 H603 0.930 . S
C636 C638 1.406 . S
C636 C641 1.261 . S
C637 H604 0.930 . S
C637 N639 1.325 . S
C637 C640 1.357 . S
C638 H606 0.928 . S
C638 C636 1.406 . S
C638 N639 1.261 . S
N639 Co590 2.214 . S
N639 C637 1.325 . S
N639 C638 1.261 . S
C640 H610 0.931 . S
C640 C637 1.357 . S
C640 C641 1.312 . S
C641 H612 0.930 . S
C641 C636 1.261 . S
C641 C640 1.312 . S
C642 O614 1.214 . S
C642 O622 1.234 . S
C643 H615 0.929 . S
C643 C646 1.391 . S
C643 C648 1.391 . S
C644 H616 0.929 . S
C644 C645 1.390 . S
C644 N647 1.391 . S
C645 H617 0.930 . S
C645 C644 1.390 . S
C645 C646 1.392 . S
C646 H618 0.929 . S
C646 C643 1.391 . S
C646 C645 1.392 . S
N647 Co591 2.257 . S
N647 C644 1.391 . S
N647 C648 1.388 . S
C648 H619 0.930 . S
C648 C643 1.391 . S
C648 N647 1.388 . S
Co649 O651 2.143 . S
Co649 O657 2.074 . S
Co649 O660 2.093 . S
Co649 O673 2.097 . S
Co649 N690 2.151 . S
Co649 N698 2.214 . S
Co650 O651 2.160 . S
Co650 O656 2.058 . S
Co650 O666 2.057 . S
Co650 O681 2.037 . S
Co650 N685 2.145 . S
Co650 N706 2.257 . S
O651 Co649 2.143 . S
O651 Co650 2.160 . S
C652 O653 1.278 . S
C652 O660 1.224 . S
O653 C652 1.278 . S
C654 O655 1.245 . S
C654 O666 1.232 . S
O655 C654 1.245 . S
O656 Co650 2.058 . S
O656 C682 1.269 . S
O657 Co649 2.074 . S
O657 C682 1.257 . S
H658 C683 0.930 . S
H659 C689 0.930 . S
O660 Co649 2.093 . S
O660 C652 1.224 . S
H661 C693 0.929 . S
H662 C695 0.930 . S
H663 C696 0.930 . S
H664 C694 0.929 . S
H665 C697 0.928 . S
O666 Co650 2.057 . S
O666 C654 1.232 . S
H667 C686 0.929 . S
H668 C687 0.929 . S
H669 C699 0.931 . S
H670 C691 0.929 . S
H671 C700 0.930 . S
H672 C692 0.931 . S
O673 Co649 2.097 . S
O673 C701 1.214 . S
H674 C702 0.929 . S
H675 C703 0.929 . S
H676 C704 0.930 . S
H677 C705 0.929 . S
H678 C707 0.930 . S
H679 C684 0.930 . S
H680 C688 0.930 . S
O681 Co650 2.037 . S
O681 C701 1.234 . S
C682 O656 1.269 . S
C682 O657 1.257 . S
C683 H658 0.930 . S
C683 C686 1.388 . S
C683 C688 1.418 . S
C684 H679 0.930 . S
C684 C687 1.404 . S
C684 C688 1.353 . S
N685 Co650 2.145 . S
N685 C686 1.397 . S
N685 C687 1.334 . S
C686 H667 0.929 . S
C686 C683 1.388 . S
C686 N685 1.397 . S
C687 H668 0.929 . S
C687 C684 1.404 . S
C687 N685 1.334 . S
C688 H680 0.930 . S
C688 C683 1.418 . S
C688 C684 1.353 . S
C689 H659 0.930 . S
C689 N690 1.330 . S
C689 C691 1.446 . S
N690 Co649 2.151 . S
N690 C689 1.330 . S
N690 C694 1.418 . S
C691 H670 0.929 . S
C691 C689 1.446 . S
C691 C692 1.332 . S
C692 H672 0.931 . S
C692 C691 1.332 . S
C692 C693 1.267 . S
C693 H661 0.929 . S
C693 C692 1.267 . S
C693 C694 1.251 . S
C694 H664 0.929 . S
C694 N690 1.418 . S
C694 C693 1.251 . S
C695 H662 0.930 . S
C695 C697 1.406 . S
C695 C700 1.261 . S
C696 H663 0.930 . S
C696 N698 1.325 . S
C696 C699 1.357 . S
C697 H665 0.928 . S
C697 C695 1.406 . S
C697 N698 1.261 . S
N698 Co649 2.214 . S
N698 C696 1.325 . S
N698 C697 1.261 . S
C699 H669 0.931 . S
C699 C696 1.357 . S
C699 C700 1.312 . S
C700 H671 0.930 . S
C700 C695 1.261 . S
C700 C699 1.312 . S
C701 O673 1.214 . S
C701 O681 1.234 . S
C702 H674 0.929 . S
C702 C705 1.391 . S
C702 C707 1.391 . S
C703 H675 0.929 . S
C703 C704 1.390 . S
C703 N706 1.391 . S
C704 H676 0.930 . S
C704 C703 1.390 . S
C704 C705 1.392 . S
C705 H677 0.929 . S
C705 C702 1.391 . S
C705 C704 1.392 . S
N706 Co650 2.257 . S
N706 C703 1.391 . S
N706 C707 1.388 . S
C707 H678 0.930 . S
C707 C702 1.391 . S
C707 N706 1.388 . S
Co708 O710 2.143 . S
Co708 O716 2.074 . S
Co708 O719 2.093 . S
Co708 O732 2.097 . S
Co708 N749 2.151 . S
Co708 N757 2.214 . S
Co709 O710 2.160 . S
Co709 O715 2.058 . S
Co709 O725 2.057 . S
Co709 O740 2.037 . S
Co709 N744 2.145 . S
Co709 N765 2.257 . S
O710 Co708 2.143 . S
O710 Co709 2.160 . S
C711 O712 1.278 . S
C711 O719 1.224 . S
O712 C711 1.278 . S
C713 O714 1.245 . S
C713 O725 1.232 . S
O714 C713 1.245 . S
O715 Co709 2.058 . S
O715 C741 1.269 . S
O716 Co708 2.074 . S
O716 C741 1.257 . S
H717 C742 0.930 . S
H718 C748 0.930 . S
O719 Co708 2.093 . S
O719 C711 1.224 . S
H720 C752 0.929 . S
H721 C754 0.930 . S
H722 C755 0.930 . S
H723 C753 0.929 . S
H724 C756 0.928 . S
O725 Co709 2.057 . S
O725 C713 1.232 . S
H726 C745 0.929 . S
H727 C746 0.929 . S
H728 C758 0.931 . S
H729 C750 0.929 . S
H730 C759 0.930 . S
H731 C751 0.931 . S
O732 Co708 2.097 . S
O732 C760 1.214 . S
H733 C761 0.929 . S
H734 C762 0.929 . S
H735 C763 0.930 . S
H736 C764 0.929 . S
H737 C766 0.930 . S
H738 C743 0.930 . S
H739 C747 0.930 . S
O740 Co709 2.037 . S
O740 C760 1.234 . S
C741 O715 1.269 . S
C741 O716 1.257 . S
C742 H717 0.930 . S
C742 C745 1.388 . S
C742 C747 1.418 . S
C743 H738 0.930 . S
C743 C746 1.404 . S
C743 C747 1.353 . S
N744 Co709 2.145 . S
N744 C745 1.397 . S
N744 C746 1.334 . S
C745 H726 0.929 . S
C745 C742 1.388 . S
C745 N744 1.397 . S
C746 H727 0.929 . S
C746 C743 1.404 . S
C746 N744 1.334 . S
C747 H739 0.930 . S
C747 C742 1.418 . S
C747 C743 1.353 . S
C748 H718 0.930 . S
C748 N749 1.330 . S
C748 C750 1.446 . S
N749 Co708 2.151 . S
N749 C748 1.330 . S
N749 C753 1.418 . S
C750 H729 0.929 . S
C750 C748 1.446 . S
C750 C751 1.332 . S
C751 H731 0.931 . S
C751 C750 1.332 . S
C751 C752 1.267 . S
C752 H720 0.929 . S
C752 C751 1.267 . S
C752 C753 1.251 . S
C753 H723 0.929 . S
C753 N749 1.418 . S
C753 C752 1.251 . S
C754 H721 0.930 . S
C754 C756 1.406 . S
C754 C759 1.261 . S
C755 H722 0.930 . S
C755 N757 1.325 . S
C755 C758 1.357 . S
C756 H724 0.928 . S
C756 C754 1.406 . S
C756 N757 1.261 . S
N757 Co708 2.214 . S
N757 C755 1.325 . S
N757 C756 1.261 . S
C758 H728 0.931 . S
C758 C755 1.357 . S
C758 C759 1.312 . S
C759 H730 0.930 . S
C759 C754 1.261 . S
C759 C758 1.312 . S
C760 O732 1.214 . S
C760 O740 1.234 . S
C761 H733 0.929 . S
C761 C764 1.391 . S
C761 C766 1.391 . S
C762 H734 0.929 . S
C762 C763 1.390 . S
C762 N765 1.391 . S
C763 H735 0.930 . S
C763 C762 1.390 . S
C763 C764 1.392 . S
C764 H736 0.929 . S
C764 C761 1.391 . S
C764 C763 1.392 . S
N765 Co709 2.257 . S
N765 C762 1.391 . S
N765 C766 1.388 . S
C766 H737 0.930 . S
C766 C761 1.391 . S
C766 N765 1.388 . S
Co767 O769 2.143 . S
Co767 O775 2.074 . S
Co767 O778 2.093 . S
Co767 O791 2.097 . S
Co767 N808 2.151 . S
Co767 N816 2.214 . S
Co768 O769 2.160 . S
Co768 O774 2.058 . S
Co768 O784 2.057 . S
Co768 O799 2.037 . S
Co768 N803 2.145 . S
Co768 N824 2.257 . S
O769 Co767 2.143 . S
O769 Co768 2.160 . S
C770 O771 1.278 . S
C770 O778 1.224 . S
O771 C770 1.278 . S
C772 O773 1.245 . S
C772 O784 1.232 . S
O773 C772 1.245 . S
O774 Co768 2.058 . S
O774 C800 1.269 . S
O775 Co767 2.074 . S
O775 C800 1.257 . S
H776 C801 0.930 . S
H777 C807 0.930 . S
O778 Co767 2.093 . S
O778 C770 1.224 . S
H779 C811 0.929 . S
H780 C813 0.930 . S
H781 C814 0.930 . S
H782 C812 0.929 . S
H783 C815 0.928 . S
O784 Co768 2.057 . S
O784 C772 1.232 . S
H785 C804 0.929 . S
H786 C805 0.929 . S
H787 C817 0.931 . S
H788 C809 0.929 . S
H789 C818 0.930 . S
H790 C810 0.931 . S
O791 Co767 2.097 . S
O791 C819 1.214 . S
H792 C820 0.929 . S
H793 C821 0.929 . S
H794 C822 0.930 . S
H795 C823 0.929 . S
H796 C825 0.930 . S
H797 C802 0.930 . S
H798 C806 0.930 . S
O799 Co768 2.037 . S
O799 C819 1.234 . S
C800 O774 1.269 . S
C800 O775 1.257 . S
C801 H776 0.930 . S
C801 C804 1.388 . S
C801 C806 1.418 . S
C802 H797 0.930 . S
C802 C805 1.404 . S
C802 C806 1.353 . S
N803 Co768 2.145 . S
N803 C804 1.397 . S
N803 C805 1.334 . S
C804 H785 0.929 . S
C804 C801 1.388 . S
C804 N803 1.397 . S
C805 H786 0.929 . S
C805 C802 1.404 . S
C805 N803 1.334 . S
C806 H798 0.930 . S
C806 C801 1.418 . S
C806 C802 1.353 . S
C807 H777 0.930 . S
C807 N808 1.330 . S
C807 C809 1.446 . S
N808 Co767 2.151 . S
N808 C807 1.330 . S
N808 C812 1.418 . S
C809 H788 0.929 . S
C809 C807 1.446 . S
C809 C810 1.332 . S
C810 H790 0.931 . S
C810 C809 1.332 . S
C810 C811 1.267 . S
C811 H779 0.929 . S
C811 C810 1.267 . S
C811 C812 1.251 . S
C812 H782 0.929 . S
C812 N808 1.418 . S
C812 C811 1.251 . S
C813 H780 0.930 . S
C813 C815 1.406 . S
C813 C818 1.261 . S
C814 H781 0.930 . S
C814 N816 1.325 . S
C814 C817 1.357 . S
C815 H783 0.928 . S
C815 C813 1.406 . S
C815 N816 1.261 . S
N816 Co767 2.214 . S
N816 C814 1.325 . S
N816 C815 1.261 . S
C817 H787 0.931 . S
C817 C814 1.357 . S
C817 C818 1.312 . S
C818 H789 0.930 . S
C818 C813 1.261 . S
C818 C817 1.312 . S
C819 O791 1.214 . S
C819 O799 1.234 . S
C820 H792 0.929 . S
C820 C823 1.391 . S
C820 C825 1.391 . S
C821 H793 0.929 . S
C821 C822 1.390 . S
C821 N824 1.391 . S
C822 H794 0.930 . S
C822 C821 1.390 . S
C822 C823 1.392 . S
C823 H795 0.929 . S
C823 C820 1.391 . S
C823 C822 1.392 . S
N824 Co768 2.257 . S
N824 C821 1.391 . S
N824 C825 1.388 . S
C825 H796 0.930 . S
C825 C820 1.391 . S
C825 N824 1.388 . S
Co826 O828 2.143 . S
Co826 O834 2.074 . S
Co826 O837 2.093 . S
Co826 O850 2.097 . S
Co826 N867 2.151 . S
Co826 N875 2.214 . S
Co827 O828 2.160 . S
Co827 O833 2.058 . S
Co827 O843 2.057 . S
Co827 O858 2.037 . S
Co827 N862 2.145 . S
Co827 N883 2.257 . S
O828 Co826 2.143 . S
O828 Co827 2.160 . S
C829 O830 1.278 . S
C829 O837 1.224 . S
O830 C829 1.278 . S
C831 O832 1.245 . S
C831 O843 1.232 . S
O832 C831 1.245 . S
O833 Co827 2.058 . S
O833 C859 1.269 . S
O834 Co826 2.074 . S
O834 C859 1.257 . S
H835 C860 0.930 . S
H836 C866 0.930 . S
O837 Co826 2.093 . S
O837 C829 1.224 . S
H838 C870 0.929 . S
H839 C872 0.930 . S
H840 C873 0.930 . S
H841 C871 0.929 . S
H842 C874 0.928 . S
O843 Co827 2.057 . S
O843 C831 1.232 . S
H844 C863 0.929 . S
H845 C864 0.929 . S
H846 C876 0.931 . S
H847 C868 0.929 . S
H848 C877 0.930 . S
H849 C869 0.931 . S
O850 Co826 2.097 . S
O850 C878 1.214 . S
H851 C879 0.929 . S
H852 C880 0.929 . S
H853 C881 0.930 . S
H854 C882 0.929 . S
H855 C884 0.930 . S
H856 C861 0.930 . S
H857 C865 0.930 . S
O858 Co827 2.037 . S
O858 C878 1.234 . S
C859 O833 1.269 . S
C859 O834 1.257 . S
C860 H835 0.930 . S
C860 C863 1.388 . S
C860 C865 1.418 . S
C861 H856 0.930 . S
C861 C864 1.404 . S
C861 C865 1.353 . S
N862 Co827 2.145 . S
N862 C863 1.397 . S
N862 C864 1.334 . S
C863 H844 0.929 . S
C863 C860 1.388 . S
C863 N862 1.397 . S
C864 H845 0.929 . S
C864 C861 1.404 . S
C864 N862 1.334 . S
C865 H857 0.930 . S
C865 C860 1.418 . S
C865 C861 1.353 . S
C866 H836 0.930 . S
C866 N867 1.330 . S
C866 C868 1.446 . S
N867 Co826 2.151 . S
N867 C866 1.330 . S
N867 C871 1.418 . S
C868 H847 0.929 . S
C868 C866 1.446 . S
C868 C869 1.332 . S
C869 H849 0.931 . S
C869 C868 1.332 . S
C869 C870 1.267 . S
C870 H838 0.929 . S
C870 C869 1.267 . S
C870 C871 1.251 . S
C871 H841 0.929 . S
C871 N867 1.418 . S
C871 C870 1.251 . S
C872 H839 0.930 . S
C872 C874 1.406 . S
C872 C877 1.261 . S
C873 H840 0.930 . S
C873 N875 1.325 . S
C873 C876 1.357 . S
C874 H842 0.928 . S
C874 C872 1.406 . S
C874 N875 1.261 . S
N875 Co826 2.214 . S
N875 C873 1.325 . S
N875 C874 1.261 . S
C876 H846 0.931 . S
C876 C873 1.357 . S
C876 C877 1.312 . S
C877 H848 0.930 . S
C877 C872 1.261 . S
C877 C876 1.312 . S
C878 O850 1.214 . S
C878 O858 1.234 . S
C879 H851 0.929 . S
C879 C882 1.391 . S
C879 C884 1.391 . S
C880 H852 0.929 . S
C880 C881 1.390 . S
C880 N883 1.391 . S
C881 H853 0.930 . S
C881 C880 1.390 . S
C881 C882 1.392 . S
C882 H854 0.929 . S
C882 C879 1.391 . S
C882 C881 1.392 . S
N883 Co827 2.257 . S
N883 C880 1.391 . S
N883 C884 1.388 . S
C884 H855 0.930 . S
C884 C879 1.391 . S
C884 N883 1.388 . S
Co885 O887 2.143 . S
Co885 O893 2.074 . S
Co885 O896 2.093 . S
Co885 O909 2.097 . S
Co885 N926 2.151 . S
Co885 N934 2.214 . S
Co886 O887 2.160 . S
Co886 O892 2.058 . S
Co886 O902 2.057 . S
Co886 O917 2.037 . S
Co886 N921 2.145 . S
Co886 N942 2.257 . S
O887 Co885 2.143 . S
O887 Co886 2.160 . S
C888 O889 1.278 . S
C888 O896 1.224 . S
O889 C888 1.278 . S
C890 O891 1.245 . S
C890 O902 1.232 . S
O891 C890 1.245 . S
O892 Co886 2.058 . S
O892 C918 1.269 . S
O893 Co885 2.074 . S
O893 C918 1.257 . S
H894 C919 0.930 . S
H895 C925 0.930 . S
O896 Co885 2.093 . S
O896 C888 1.224 . S
H897 C929 0.929 . S
H898 C931 0.930 . S
H899 C932 0.930 . S
H900 C930 0.929 . S
H901 C933 0.928 . S
O902 Co886 2.057 . S
O902 C890 1.232 . S
H903 C922 0.929 . S
H904 C923 0.929 . S
H905 C935 0.931 . S
H906 C927 0.929 . S
H907 C936 0.930 . S
H908 C928 0.931 . S
O909 Co885 2.097 . S
O909 C937 1.214 . S
H910 C938 0.929 . S
H911 C939 0.929 . S
H912 C940 0.930 . S
H913 C941 0.929 . S
H914 C943 0.930 . S
H915 C920 0.930 . S
H916 C924 0.930 . S
O917 Co886 2.037 . S
O917 C937 1.234 . S
C918 O892 1.269 . S
C918 O893 1.257 . S
C919 H894 0.930 . S
C919 C922 1.388 . S
C919 C924 1.418 . S
C920 H915 0.930 . S
C920 C923 1.404 . S
C920 C924 1.353 . S
N921 Co886 2.145 . S
N921 C922 1.397 . S
N921 C923 1.334 . S
C922 H903 0.929 . S
C922 C919 1.388 . S
C922 N921 1.397 . S
C923 H904 0.929 . S
C923 C920 1.404 . S
C923 N921 1.334 . S
C924 H916 0.930 . S
C924 C919 1.418 . S
C924 C920 1.353 . S
C925 H895 0.930 . S
C925 N926 1.330 . S
C925 C927 1.446 . S
N926 Co885 2.151 . S
N926 C925 1.330 . S
N926 C930 1.418 . S
C927 H906 0.929 . S
C927 C925 1.446 . S
C927 C928 1.332 . S
C928 H908 0.931 . S
C928 C927 1.332 . S
C928 C929 1.267 . S
C929 H897 0.929 . S
C929 C928 1.267 . S
C929 C930 1.251 . S
C930 H900 0.929 . S
C930 N926 1.418 . S
C930 C929 1.251 . S
C931 H898 0.930 . S
C931 C933 1.406 . S
C931 C936 1.261 . S
C932 H899 0.930 . S
C932 N934 1.325 . S
C932 C935 1.357 . S
C933 H901 0.928 . S
C933 C931 1.406 . S
C933 N934 1.261 . S
N934 Co885 2.214 . S
N934 C932 1.325 . S
N934 C933 1.261 . S
C935 H905 0.931 . S
C935 C932 1.357 . S
C935 C936 1.312 . S
C936 H907 0.930 . S
C936 C931 1.261 . S
C936 C935 1.312 . S
C937 O909 1.214 . S
C937 O917 1.234 . S
C938 H910 0.929 . S
C938 C941 1.391 . S
C938 C943 1.391 . S
C939 H911 0.929 . S
C939 C940 1.390 . S
C939 N942 1.391 . S
C940 H912 0.930 . S
C940 C939 1.390 . S
C940 C941 1.392 . S
C941 H913 0.929 . S
C941 C938 1.391 . S
C941 C940 1.392 . S
N942 Co886 2.257 . S
N942 C939 1.391 . S
N942 C943 1.388 . S
C943 H914 0.930 . S
C943 C938 1.391 . S
C943 N942 1.388 . S
H944 C962 0.951 . S
H945 C964 0.951 . S
H946 C966 0.962 . S
H947 C967 0.950 . S
H948 C969 0.950 . S
H949 C972 0.940 1_565 S
H950 C973 0.950 . S
H951 C975 0.950 . S
H952 C976 0.950 . S
H953 C977 0.951 . S
H954 C979 0.951 . S
H955 C981 0.950 . S
H956 C982 0.950 . S
H957 C984 0.950 . S
H958 C987 0.950 . S
H959 C988 0.950 . S
H960 C990 0.950 . S
H961 C991 0.950 . S
C962 H944 0.951 . S
C962 C963 1.366 . S
C962 C964 1.388 . S
C963 C962 1.366 . S
C963 C967 1.385 . S
C964 H945 0.951 . S
C964 C962 1.388 . S
C964 C965 1.366 . S
C965 C964 1.366 . S
C965 C966 1.414 . S
C965 C968 1.499 . S
C966 H946 0.962 . S
C966 C965 1.414 . S
C966 C967 1.374 . S
C967 H947 0.950 . S
C967 C963 1.385 . S
C967 C966 1.374 . S
C968 C965 1.499 . S
C968 C969 1.373 . S
C968 C970 1.389 . S
C969 H948 0.950 . S
C969 C968 1.373 . S
C969 C985 1.377 . S
C970 C968 1.389 . S
C970 C971 1.524 . S
C970 C984 1.377 . S
C971 C970 1.524 . S
C971 C972 1.410 . S
C971 C976 1.363 . S
C972 H949 0.940 1_545 S
C972 C971 1.410 . S
C972 C973 1.330 1_545 S
C973 H950 0.950 . S
C973 C972 1.330 1_565 S
C973 C974 1.287 1_565 S
C974 C973 1.287 1_545 S
C974 C975 1.524 . S
C974 H993 0.913 . S
C975 H951 0.950 . S
C975 C974 1.524 . S
C975 C976 1.415 . S
C976 H952 0.950 . S
C976 C971 1.363 . S
C976 C975 1.415 . S
C977 H953 0.951 . S
C977 C978 1.366 . S
C977 C979 1.388 . S
C978 C977 1.366 . S
C978 C982 1.385 . S
C979 H954 0.951 . S
C979 C977 1.388 . S
C979 C980 1.366 . S
C980 C979 1.366 . S
C980 C981 1.414 . S
C980 C983 1.499 . S
C981 H955 0.950 . S
C981 C980 1.414 . S
C981 C982 1.374 . S
C982 H956 0.950 . S
C982 C978 1.385 . S
C982 C981 1.374 . S
C983 C980 1.499 . S
C983 C984 1.373 . S
C983 C985 1.389 . S
C984 H957 0.950 . S
C984 C970 1.377 . S
C984 C983 1.373 . S
C985 C969 1.377 . S
C985 C983 1.389 . S
C985 C986 1.524 . S
C986 C985 1.524 . S
C986 C987 1.397 . S
C986 C991 1.363 . S
C987 H958 0.950 . S
C987 C986 1.397 . S
C987 C988 1.334 . S
C988 H959 0.950 . S
C988 C987 1.334 . S
C988 C989 1.287 . S
C989 C988 1.287 . S
C989 C990 1.524 . S
C989 H992 0.999 . S
C990 H960 0.950 . S
C990 C989 1.524 . S
C990 C991 1.415 . S
C991 H961 0.950 . S
C991 C986 1.363 . S
C991 C990 1.415 . S
H992 C989 0.999 . S
H993 C974 0.913 . S
H994 C1012 0.951 . S
H995 C1014 0.951 . S
H996 C1016 0.950 1_545 S
H997 C1017 0.950 1_545 S
H998 C1019 0.950 1_545 S
H999 C1022 0.950 . S
H1000 C1023 0.950 . S
H1001 C1025 0.950 . S
H1002 C1026 0.950 . S
H1003 C1027 0.951 1_545 S
H1004 C1029 0.951 1_545 S
H1005 C1031 0.950 . S
H1006 C1032 0.950 . S
H1007 C1034 0.950 . S
H1008 C1037 0.950 1_565 S
H1009 C1038 0.950 . S
H1010 C1040 0.950 . S
H1011 C1041 0.950 . S
C1012 H994 0.951 . S
C1012 C1013 1.366 . S
C1012 C1014 1.388 . S
C1013 C1012 1.366 . S
C1013 C1017 1.385 . S
C1014 H995 0.951 . S
C1014 C1012 1.388 . S
C1014 C1015 1.366 . S
C1015 C1014 1.366 . S
C1015 C1016 1.414 . S
C1015 C1018 1.499 . S
C1016 H996 0.950 1_565 S
C1016 C1015 1.414 . S
C1016 C1017 1.374 . S
C1017 H997 0.950 1_565 S
C1017 C1013 1.385 . S
C1017 C1016 1.374 . S
C1018 C1015 1.499 . S
C1018 C1019 1.373 . S
C1018 C1020 1.389 . S
C1019 H998 0.950 1_565 S
C1019 C1018 1.373 . S
C1019 C1035 1.377 . S
C1020 C1018 1.389 . S
C1020 C1021 1.524 . S
C1020 C1034 1.377 . S
C1021 C1020 1.524 . S
C1021 C1022 1.397 . S
C1021 C1026 1.363 . S
C1022 H999 0.950 . S
C1022 C1021 1.397 . S
C1022 C1023 1.334 . S
C1023 H1000 0.950 . S
C1023 C1022 1.334 . S
C1023 C1024 1.287 . S
C1024 C1023 1.287 . S
C1024 C1025 1.524 . S
C1024 H1043 0.913 . S
C1025 H1001 0.950 . S
C1025 C1024 1.524 . S
C1025 C1026 1.415 . S
C1026 H1002 0.950 . S
C1026 C1021 1.363 . S
C1026 C1025 1.415 . S
C1027 H1003 0.951 1_565 S
C1027 C1028 1.366 . S
C1027 C1029 1.388 . S
C1028 C1027 1.366 . S
C1028 C1032 1.385 . S
C1029 H1004 0.951 1_565 S
C1029 C1027 1.388 . S
C1029 C1030 1.366 . S
C1030 C1029 1.366 . S
C1030 C1031 1.414 . S
C1030 C1033 1.499 . S
C1031 H1005 0.950 . S
C1031 C1030 1.414 . S
C1031 C1032 1.374 . S
C1032 H1006 0.950 . S
C1032 C1028 1.385 . S
C1032 C1031 1.374 . S
C1033 C1030 1.499 . S
C1033 C1034 1.373 . S
C1033 C1035 1.389 . S
C1034 H1007 0.950 . S
C1034 C1020 1.377 . S
C1034 C1033 1.373 . S
C1035 C1019 1.377 . S
C1035 C1033 1.389 . S
C1035 C1036 1.524 1_565 S
C1036 C1035 1.524 1_545 S
C1036 C1037 1.397 . S
C1036 C1041 1.363 . S
C1037 H1008 0.950 1_545 S
C1037 C1036 1.397 . S
C1037 C1038 1.334 . S
C1038 H1009 0.950 . S
C1038 C1037 1.334 . S
C1038 C1039 1.287 . S
C1039 C1038 1.287 . S
C1039 C1040 1.524 . S
C1039 H1042 0.999 . S
C1040 H1010 0.950 . S
C1040 C1039 1.524 . S
C1040 C1041 1.415 . S
C1041 H1011 0.950 . S
C1041 C1036 1.363 . S
C1041 C1040 1.415 . S
H1042 C1039 0.999 . S
H1043 C1024 0.913 . S
H1044 C1062 0.961 . S
H1045 C1064 0.951 . S
H1046 C1066 0.950 . S
H1047 C1067 0.950 . S
H1048 C1069 0.950 . S
H1049 C1072 0.950 . S
H1050 C1073 0.950 . S
H1051 C1075 0.950 . S
H1052 C1076 0.950 . S
H1053 C1077 0.951 . S
H1054 C1079 0.951 . S
H1055 C1081 0.937 1_545 S
H1056 C1082 0.951 1_545 S
H1057 C1084 0.950 . S
H1058 C1087 0.950 1_545 S
H1059 C1088 0.950 . S
H1060 C1090 0.950 . S
H1061 C1091 0.950 . S
C1062 H1044 0.961 . S
C1062 C1063 1.366 . S
C1062 C1064 1.388 . S
C1063 C1062 1.366 . S
C1063 C1067 1.385 . S
C1064 H1045 0.951 . S
C1064 C1062 1.388 . S
C1064 C1065 1.366 . S
C1065 C1064 1.366 . S
C1065 C1066 1.414 . S
C1065 C1068 1.499 . S
C1066 H1046 0.950 . S
C1066 C1065 1.414 . S
C1066 C1067 1.374 . S
C1067 H1047 0.950 . S
C1067 C1063 1.385 . S
C1067 C1066 1.374 . S
C1068 C1065 1.499 . S
C1068 C1069 1.373 . S
C1068 C1070 1.389 . S
C1069 H1048 0.950 . S
C1069 C1068 1.373 . S
C1069 C1085 1.377 1_554 S
C1070 C1068 1.389 . S
C1070 C1071 1.524 . S
C1070 C1084 1.377 1_554 S
C1071 C1070 1.524 . S
C1071 C1072 1.397 . S
C1071 C1076 1.363 . S
C1072 H1049 0.950 . S
C1072 C1071 1.397 . S
C1072 C1073 1.334 . S
C1073 H1050 0.950 . S
C1073 C1072 1.334 . S
C1073 C1074 1.287 . S
C1074 C1073 1.287 . S
C1074 C1075 1.524 . S
C1074 H1093 0.913 . S
C1075 H1051 0.950 . S
C1075 C1074 1.524 . S
C1075 C1076 1.415 . S
C1076 H1052 0.950 . S
C1076 C1071 1.363 . S
C1076 C1075 1.415 . S
C1077 H1053 0.951 . S
C1077 C1078 1.366 . S
C1077 C1079 1.388 . S
C1078 C1077 1.366 . S
C1078 C1082 1.385 . S
C1079 H1054 0.951 . S
C1079 C1077 1.388 . S
C1079 C1080 1.366 . S
C1080 C1079 1.366 . S
C1080 C1081 1.414 . S
C1080 C1083 1.499 . S
C1081 H1055 0.937 1_565 S
C1081 C1080 1.414 . S
C1081 C1082 1.374 . S
C1082 H1056 0.951 1_565 S
C1082 C1078 1.385 . S
C1082 C1081 1.374 . S
C1083 C1080 1.499 . S
C1083 C1084 1.373 . S
C1083 C1085 1.389 . S
C1084 H1057 0.950 . S
C1084 C1070 1.377 1_556 S
C1084 C1083 1.373 . S
C1085 C1069 1.377 1_556 S
C1085 C1083 1.389 . S
C1085 C1086 1.524 . S
C1086 C1085 1.524 . S
C1086 C1087 1.397 . S
C1086 C1091 1.363 . S
C1087 H1058 0.950 1_565 S
C1087 C1086 1.397 . S
C1087 C1088 1.334 1_565 S
C1088 H1059 0.950 . S
C1088 C1087 1.334 1_545 S
C1088 C1089 1.287 1_545 S
C1089 C1088 1.287 1_565 S
C1089 C1090 1.524 . S
C1089 H1092 0.999 . S
C1090 H1060 0.950 . S
C1090 C1089 1.524 . S
C1090 C1091 1.415 . S
C1091 H1061 0.950 . S
C1091 C1086 1.363 . S
C1091 C1090 1.415 . S
H1092 C1089 0.999 . S
H1093 C1074 0.913 . S
H1094 C1112 0.951 . S
H1095 C1114 0.951 . S
H1096 C1116 0.950 . S
H1097 C1117 0.950 . S
H1098 C1119 0.950 1_565 S
H1099 C1122 0.950 . S
H1100 C1123 0.950 . S
H1101 C1125 0.950 . S
H1102 C1126 0.950 . S
H1103 C1127 0.951 . S
H1104 C1129 0.951 . S
H1105 C1131 0.950 . S
H1106 C1132 0.950 . S
H1107 C1134 0.950 . S
H1108 C1137 0.950 . S
H1109 C1138 0.950 . S
H1110 C1140 0.950 . S
H1111 C1141 0.950 . S
C1112 H1094 0.951 . S
C1112 C1113 1.366 . S
C1112 C1114 1.388 . S
C1113 C1112 1.366 . S
C1113 C1117 1.385 . S
C1114 H1095 0.951 . S
C1114 C1112 1.388 . S
C1114 C1115 1.366 . S
C1115 C1114 1.366 . S
C1115 C1116 1.414 . S
C1115 C1118 1.499 . S
C1116 H1096 0.950 . S
C1116 C1115 1.414 . S
C1116 C1117 1.374 . S
C1117 H1097 0.950 . S
C1117 C1113 1.385 . S
C1117 C1116 1.374 . S
C1118 C1115 1.499 . S
C1118 C1119 1.373 . S
C1118 C1120 1.389 . S
C1119 H1098 0.950 1_545 S
C1119 C1118 1.373 . S
C1119 C1135 1.377 1_556 S
C1120 C1118 1.389 . S
C1120 C1121 1.524 . S
C1120 C1134 1.377 1_556 S
C1121 C1120 1.524 . S
C1121 C1122 1.397 . S
C1121 C1126 1.363 . S
C1122 H1099 0.950 . S
C1122 C1121 1.397 . S
C1122 C1123 1.334 . S
C1123 H1100 0.950 . S
C1123 C1122 1.334 . S
C1123 C1124 1.287 . S
C1124 C1123 1.287 . S
C1124 C1125 1.524 . S
C1124 H1143 0.913 . S
C1125 H1101 0.950 . S
C1125 C1124 1.524 . S
C1125 C1126 1.415 . S
C1126 H1102 0.950 . S
C1126 C1121 1.363 . S
C1126 C1125 1.415 . S
C1127 H1103 0.951 . S
C1127 C1128 1.366 . S
C1127 C1129 1.388 . S
C1128 C1127 1.366 . S
C1128 C1132 1.385 . S
C1129 H1104 0.951 . S
C1129 C1127 1.388 . S
C1129 C1130 1.366 . S
C1130 C1129 1.366 . S
C1130 C1131 1.414 . S
C1130 C1133 1.499 . S
C1131 H1105 0.950 . S
C1131 C1130 1.414 . S
C1131 C1132 1.374 . S
C1132 H1106 0.950 . S
C1132 C1128 1.385 . S
C1132 C1131 1.374 . S
C1133 C1130 1.499 . S
C1133 C1134 1.373 . S
C1133 C1135 1.389 . S
C1134 H1107 0.950 . S
C1134 C1120 1.377 1_554 S
C1134 C1133 1.373 . S
C1135 C1119 1.377 1_554 S
C1135 C1133 1.389 . S
C1135 C1136 1.524 1_545 S
C1136 C1135 1.524 1_565 S
C1136 C1137 1.397 . S
C1136 C1141 1.363 . S
C1137 H1108 0.950 . S
C1137 C1136 1.397 . S
C1137 C1138 1.334 . S
C1138 H1109 0.950 . S
C1138 C1137 1.334 . S
C1138 C1139 1.287 . S
C1139 C1138 1.287 . S
C1139 C1140 1.524 . S
C1139 H1142 0.999 . S
C1140 H1110 0.950 . S
C1140 C1139 1.524 . S
C1140 C1141 1.415 . S
C1141 H1111 0.950 . S
C1141 C1136 1.363 . S
C1141 C1140 1.415 . S
H1142 C1139 0.999 . S
H1143 C1124 0.913 . S
H1144 C1162 0.951 . S
H1145 C1164 0.951 . S
H1146 C1166 0.950 . S
H1147 C1167 0.950 . S
H1148 C1169 0.950 . S
H1149 C1172 0.950 . S
H1150 C1173 0.950 . S
H1151 C1175 0.950 . S
H1152 C1176 0.950 . S
H1153 C1177 0.951 . S
H1154 C1179 0.951 . S
H1155 C1181 0.950 . S
H1156 C1182 0.950 . S
H1157 C1184 0.950 . S
H1158 C1187 0.950 . S
H1159 C1188 0.950 . S
H1160 C1190 0.950 . S
H1161 C1191 0.950 . S
C1162 H1144 0.951 . S
C1162 C1163 1.366 . S
C1162 C1164 1.388 . S
C1163 C1162 1.366 . S
C1163 C1167 1.385 . S
C1164 H1145 0.951 . S
C1164 C1162 1.388 . S
C1164 C1165 1.366 . S
C1165 C1164 1.366 . S
C1165 C1166 1.414 . S
C1165 C1168 1.499 . S
C1166 H1146 0.950 . S
C1166 C1165 1.414 . S
C1166 C1167 1.374 . S
C1167 H1147 0.950 . S
C1167 C1163 1.385 . S
C1167 C1166 1.374 . S
C1168 C1165 1.499 . S
C1168 C1169 1.373 . S
C1168 C1170 1.389 . S
C1169 H1148 0.950 . S
C1169 C1168 1.373 . S
C1169 C1185 1.377 . S
C1170 C1168 1.389 . S
C1170 C1171 1.524 . S
C1170 C1184 1.377 . S
C1171 C1170 1.524 . S
C1171 C1172 1.397 . S
C1171 C1176 1.363 . S
C1172 H1149 0.950 . S
C1172 C1171 1.397 . S
C1172 C1173 1.334 . S
C1173 H1150 0.950 . S
C1173 C1172 1.334 . S
C1173 C1174 1.287 . S
C1174 C1173 1.287 . S
C1174 C1175 1.524 . S
C1174 H1193 0.913 . S
C1175 H1151 0.950 . S
C1175 C1174 1.524 . S
C1175 C1176 1.415 . S
C1176 H1152 0.950 . S
C1176 C1171 1.363 . S
C1176 C1175 1.415 . S
C1177 H1153 0.951 . S
C1177 C1178 1.366 . S
C1177 C1179 1.388 . S
C1178 C1177 1.366 . S
C1178 C1182 1.385 . S
C1179 H1154 0.951 . S
C1179 C1177 1.388 . S
C1179 C1180 1.366 . S
C1180 C1179 1.366 . S
C1180 C1181 1.414 . S
C1180 C1183 1.499 . S
C1181 H1155 0.950 . S
C1181 C1180 1.414 . S
C1181 C1182 1.374 . S
C1182 H1156 0.950 . S
C1182 C1178 1.385 . S
C1182 C1181 1.374 . S
C1183 C1180 1.499 . S
C1183 C1184 1.373 . S
C1183 C1185 1.389 . S
C1184 H1157 0.950 . S
C1184 C1170 1.377 . S
C1184 C1183 1.373 . S
C1185 C1169 1.377 . S
C1185 C1183 1.389 . S
C1185 C1186 1.524 . S
C1186 C1185 1.524 . S
C1186 C1187 1.397 . S
C1186 C1191 1.363 . S
C1187 H1158 0.950 . S
C1187 C1186 1.397 . S
C1187 C1188 1.334 . S
C1188 H1159 0.950 . S
C1188 C1187 1.334 . S
C1188 C1189 1.287 . S
C1189 C1188 1.287 . S
C1189 C1190 1.524 . S
C1189 H1192 0.999 . S
C1190 H1160 0.950 . S
C1190 C1189 1.524 . S
C1190 C1191 1.415 . S
C1191 H1161 0.950 . S
C1191 C1186 1.363 . S
C1191 C1190 1.415 . S
H1192 C1189 0.999 . S
H1193 C1174 0.913 . S
H1194 C1212 0.951 . S
H1195 C1214 0.951 . S
H1196 C1216 0.950 . S
H1197 C1217 0.950 . S
H1198 C1219 0.950 . S
H1199 C1222 0.950 . S
H1200 C1223 0.950 . S
H1201 C1225 0.950 . S
H1202 C1226 0.950 . S
H1203 C1227 0.951 . S
H1204 C1229 0.951 . S
H1205 C1231 0.950 . S
H1206 C1232 0.950 . S
H1207 C1234 0.950 . S
H1208 C1237 0.950 . S
H1209 C1238 0.950 . S
H1210 C1240 0.950 . S
H1211 C1241 0.950 . S
C1212 H1194 0.951 . S
C1212 C1213 1.366 . S
C1212 C1214 1.388 . S
C1213 C1212 1.366 . S
C1213 C1217 1.385 . S
C1214 H1195 0.951 . S
C1214 C1212 1.388 . S
C1214 C1215 1.366 . S
C1215 C1214 1.366 . S
C1215 C1216 1.414 . S
C1215 C1218 1.499 . S
C1216 H1196 0.950 . S
C1216 C1215 1.414 . S
C1216 C1217 1.374 . S
C1217 H1197 0.950 . S
C1217 C1213 1.385 . S
C1217 C1216 1.374 . S
C1218 C1215 1.499 . S
C1218 C1219 1.373 . S
C1218 C1220 1.389 . S
C1219 H1198 0.950 . S
C1219 C1218 1.373 . S
C1219 C1235 1.377 . S
C1220 C1218 1.389 . S
C1220 C1221 1.524 . S
C1220 C1234 1.377 . S
C1221 C1220 1.524 . S
C1221 C1222 1.397 . S
C1221 C1226 1.363 . S
C1222 H1199 0.950 . S
C1222 C1221 1.397 . S
C1222 C1223 1.334 . S
C1223 H1200 0.950 . S
C1223 C1222 1.334 . S
C1223 C1224 1.287 . S
C1224 C1223 1.287 . S
C1224 C1225 1.524 . S
C1224 H1243 0.913 . S
C1225 H1201 0.950 . S
C1225 C1224 1.524 . S
C1225 C1226 1.415 . S
C1226 H1202 0.950 . S
C1226 C1221 1.363 . S
C1226 C1225 1.415 . S
C1227 H1203 0.951 . S
C1227 C1228 1.366 . S
C1227 C1229 1.388 . S
C1228 C1227 1.366 . S
C1228 C1232 1.385 . S
C1229 H1204 0.951 . S
C1229 C1227 1.388 . S
C1229 C1230 1.366 . S
C1230 C1229 1.366 . S
C1230 C1231 1.414 . S
C1230 C1233 1.499 . S
C1231 H1205 0.950 . S
C1231 C1230 1.414 . S
C1231 C1232 1.374 . S
C1232 H1206 0.950 . S
C1232 C1228 1.385 . S
C1232 C1231 1.374 . S
C1233 C1230 1.499 . S
C1233 C1234 1.373 . S
C1233 C1235 1.389 . S
C1234 H1207 0.950 . S
C1234 C1220 1.377 . S
C1234 C1233 1.373 . S
C1235 C1219 1.377 . S
C1235 C1233 1.389 . S
C1235 C1236 1.524 . S
C1236 C1235 1.524 . S
C1236 C1237 1.397 . S
C1236 C1241 1.363 . S
C1237 H1208 0.950 . S
C1237 C1236 1.397 . S
C1237 C1238 1.334 . S
C1238 H1209 0.950 . S
C1238 C1237 1.334 . S
C1238 C1239 1.287 . S
C1239 C1238 1.287 . S
C1239 C1240 1.524 . S
C1239 H1242 0.999 . S
C1240 H1210 0.950 . S
C1240 C1239 1.524 . S
C1240 C1241 1.415 . S
C1241 H1211 0.950 . S
C1241 C1236 1.363 . S
C1241 C1240 1.415 . S
H1242 C1239 0.999 . S
H1243 C1224 0.913 . S
H1244 C1262 0.951 . S
H1245 C1264 0.951 . S
H1246 C1266 0.950 . S
H1247 C1267 0.950 . S
H1248 C1269 0.950 . S
H1249 C1272 0.950 . S
H1250 C1273 0.950 . S
H1251 C1275 0.950 . S
H1252 C1276 0.950 . S
H1253 C1277 0.951 . S
H1254 C1279 0.951 . S
H1255 C1281 0.950 . S
H1256 C1282 0.950 . S
H1257 C1284 0.950 . S
H1258 C1287 0.950 . S
H1259 C1288 0.950 . S
H1260 C1290 0.950 . S
H1261 C1291 0.950 . S
C1262 H1244 0.951 . S
C1262 C1263 1.366 . S
C1262 C1264 1.388 . S
C1263 C1262 1.366 . S
C1263 C1267 1.385 . S
C1264 H1245 0.951 . S
C1264 C1262 1.388 . S
C1264 C1265 1.366 . S
C1265 C1264 1.366 . S
C1265 C1266 1.414 . S
C1265 C1268 1.499 . S
C1266 H1246 0.950 . S
C1266 C1265 1.414 . S
C1266 C1267 1.374 . S
C1267 H1247 0.950 . S
C1267 C1263 1.385 . S
C1267 C1266 1.374 . S
C1268 C1265 1.499 . S
C1268 C1269 1.373 . S
C1268 C1270 1.389 . S
C1269 H1248 0.950 . S
C1269 C1268 1.373 . S
C1269 C1285 1.377 1_556 S
C1270 C1268 1.389 . S
C1270 C1271 1.524 . S
C1270 C1284 1.377 1_556 S
C1271 C1270 1.524 . S
C1271 C1272 1.397 . S
C1271 C1276 1.363 . S
C1272 H1249 0.950 . S
C1272 C1271 1.397 . S
C1272 C1273 1.334 . S
C1273 H1250 0.950 . S
C1273 C1272 1.334 . S
C1273 C1274 1.287 . S
C1274 C1273 1.287 . S
C1274 C1275 1.524 . S
C1274 H1293 0.913 . S
C1275 H1251 0.950 . S
C1275 C1274 1.524 . S
C1275 C1276 1.415 . S
C1276 H1252 0.950 . S
C1276 C1271 1.363 . S
C1276 C1275 1.415 . S
C1277 H1253 0.951 . S
C1277 C1278 1.366 . S
C1277 C1279 1.388 . S
C1278 C1277 1.366 . S
C1278 C1282 1.385 . S
C1279 H1254 0.951 . S
C1279 C1277 1.388 . S
C1279 C1280 1.366 . S
C1280 C1279 1.366 . S
C1280 C1281 1.414 . S
C1280 C1283 1.499 . S
C1281 H1255 0.950 . S
C1281 C1280 1.414 . S
C1281 C1282 1.374 . S
C1282 H1256 0.950 . S
C1282 C1278 1.385 . S
C1282 C1281 1.374 . S
C1283 C1280 1.499 . S
C1283 C1284 1.373 . S
C1283 C1285 1.389 . S
C1284 H1257 0.950 . S
C1284 C1270 1.377 1_554 S
C1284 C1283 1.373 . S
C1285 C1269 1.377 1_554 S
C1285 C1283 1.389 . S
C1285 C1286 1.524 . S
C1286 C1285 1.524 . S
C1286 C1287 1.397 . S
C1286 C1291 1.363 . S
C1287 H1258 0.950 . S
C1287 C1286 1.397 . S
C1287 C1288 1.334 . S
C1288 H1259 0.950 . S
C1288 C1287 1.334 . S
C1288 C1289 1.287 . S
C1289 C1288 1.287 . S
C1289 C1290 1.524 . S
C1289 H1292 0.999 . S
C1290 H1260 0.950 . S
C1290 C1289 1.524 . S
C1290 C1291 1.415 . S
C1291 H1261 0.950 . S
C1291 C1286 1.363 . S
C1291 C1290 1.415 . S
H1292 C1289 0.999 . S
H1293 C1274 0.913 . S
H1294 C1312 0.951 . S
H1295 C1314 0.951 . S
H1296 C1316 0.950 . S
H1297 C1317 0.950 . S
H1298 C1319 0.950 . S
H1299 C1322 0.950 . S
H1300 C1323 0.950 . S
H1301 C1325 0.950 . S
H1302 C1326 0.950 . S
H1303 C1327 0.951 . S
H1304 C1329 0.951 . S
H1305 C1331 0.950 . S
H1306 C1332 0.950 . S
H1307 C1334 0.950 . S
H1308 C1337 0.950 . S
H1309 C1338 0.950 . S
H1310 C1340 0.950 . S
H1311 C1341 0.950 . S
C1312 H1294 0.951 . S
C1312 C1313 1.366 . S
C1312 C1314 1.388 . S
C1313 C1312 1.366 . S
C1313 C1317 1.385 . S
C1314 H1295 0.951 . S
C1314 C1312 1.388 . S
C1314 C1315 1.366 . S
C1315 C1314 1.366 . S
C1315 C1316 1.414 . S
C1315 C1318 1.499 . S
C1316 H1296 0.950 . S
C1316 C1315 1.414 . S
C1316 C1317 1.374 . S
C1317 H1297 0.950 . S
C1317 C1313 1.385 . S
C1317 C1316 1.374 . S
C1318 C1315 1.499 . S
C1318 C1319 1.373 . S
C1318 C1320 1.389 . S
C1319 H1298 0.950 . S
C1319 C1318 1.373 . S
C1319 C1335 1.377 1_554 S
C1320 C1318 1.389 . S
C1320 C1321 1.524 . S
C1320 C1334 1.377 1_554 S
C1321 C1320 1.524 . S
C1321 C1322 1.397 . S
C1321 C1326 1.363 . S
C1322 H1299 0.950 . S
C1322 C1321 1.397 . S
C1322 C1323 1.334 . S
C1323 H1300 0.950 . S
C1323 C1322 1.334 . S
C1323 C1324 1.287 . S
C1324 C1323 1.287 . S
C1324 C1325 1.524 . S
C1324 H1343 0.913 . S
C1325 H1301 0.950 . S
C1325 C1324 1.524 . S
C1325 C1326 1.415 . S
C1326 H1302 0.950 . S
C1326 C1321 1.363 . S
C1326 C1325 1.415 . S
C1327 H1303 0.951 . S
C1327 C1328 1.366 . S
C1327 C1329 1.388 . S
C1328 C1327 1.366 . S
C1328 C1332 1.385 . S
C1329 H1304 0.951 . S
C1329 C1327 1.388 . S
C1329 C1330 1.366 . S
C1330 C1329 1.366 . S
C1330 C1331 1.414 . S
C1330 C1333 1.499 . S
C1331 H1305 0.950 . S
C1331 C1330 1.414 . S
C1331 C1332 1.374 . S
C1332 H1306 0.950 . S
C1332 C1328 1.385 . S
C1332 C1331 1.374 . S
C1333 C1330 1.499 . S
C1333 C1334 1.373 . S
C1333 C1335 1.389 . S
C1334 H1307 0.950 . S
C1334 C1320 1.377 1_556 S
C1334 C1333 1.373 . S
C1335 C1319 1.377 1_556 S
C1335 C1333 1.389 . S
C1335 C1336 1.524 . S
C1336 C1335 1.524 . S
C1336 C1337 1.397 . S
C1336 C1341 1.363 . S
C1337 H1308 0.950 . S
C1337 C1336 1.397 . S
C1337 C1338 1.334 . S
C1338 H1309 0.950 . S
C1338 C1337 1.334 . S
C1338 C1339 1.287 . S
C1339 C1338 1.287 . S
C1339 C1340 1.524 . S
C1339 H1342 0.999 . S
C1340 H1310 0.950 . S
C1340 C1339 1.524 . S
C1340 C1341 1.415 . S
C1341 H1311 0.950 . S
C1341 C1336 1.363 . S
C1341 C1340 1.415 . S
H1342 C1339 0.999 . S
H1343 C1324 0.913 . S
H1344 C1362 0.951 . S
H1345 C1364 0.951 1_545 S
H1346 C1366 0.950 . S
H1347 C1367 0.950 . S
H1348 C1369 0.950 . S
H1349 C1372 0.950 . S
H1350 C1373 0.950 . S
H1351 C1375 0.950 . S
H1352 C1376 0.950 . S
H1353 C1377 0.951 . S
H1354 C1379 0.951 1_565 S
H1355 C1381 0.950 . S
H1356 C1382 0.950 . S
H1357 C1384 0.950 . S
H1358 C1387 0.950 . S
H1359 C1388 0.950 . S
H1360 C1390 0.950 . S
H1361 C1391 0.950 . S
C1362 H1344 0.951 . S
C1362 C1363 1.366 . S
C1362 C1364 1.388 . S
C1363 C1362 1.366 . S
C1363 C1367 1.385 . S
C1364 H1345 0.951 1_565 S
C1364 C1362 1.388 . S
C1364 C1365 1.366 . S
C1365 C1364 1.366 . S
C1365 C1366 1.414 . S
C1365 C1368 1.499 . S
C1366 H1346 0.950 . S
C1366 C1365 1.414 . S
C1366 C1367 1.374 . S
C1367 H1347 0.950 . S
C1367 C1363 1.385 . S
C1367 C1366 1.374 . S
C1368 C1365 1.499 . S
C1368 C1369 1.373 . S
C1368 C1370 1.389 1_565 S
C1369 H1348 0.950 . S
C1369 C1368 1.373 . S
C1369 C1385 1.377 . S
C1370 C1368 1.389 1_545 S
C1370 C1371 1.524 . S
C1370 C1384 1.377 . S
C1371 C1370 1.524 . S
C1371 C1372 1.397 . S
C1371 C1376 1.363 . S
C1372 H1349 0.950 . S
C1372 C1371 1.397 . S
C1372 C1373 1.334 . S
C1373 H1350 0.950 . S
C1373 C1372 1.334 . S
C1373 C1374 1.287 . S
C1374 C1373 1.287 . S
C1374 C1375 1.524 . S
C1374 H1393 0.913 . S
C1375 H1351 0.950 . S
C1375 C1374 1.524 . S
C1375 C1376 1.415 . S
C1376 H1352 0.950 . S
C1376 C1371 1.363 . S
C1376 C1375 1.415 . S
C1377 H1353 0.951 . S
C1377 C1378 1.366 . S
C1377 C1379 1.388 . S
C1378 C1377 1.366 . S
C1378 C1382 1.385 . S
C1379 H1354 0.951 1_545 S
C1379 C1377 1.388 . S
C1379 C1380 1.366 . S
C1380 C1379 1.366 . S
C1380 C1381 1.414 . S
C1380 C1383 1.499 . S
C1381 H1355 0.950 . S
C1381 C1380 1.414 . S
C1381 C1382 1.374 . S
C1382 H1356 0.950 . S
C1382 C1378 1.385 . S
C1382 C1381 1.374 . S
C1383 C1380 1.499 . S
C1383 C1384 1.373 . S
C1383 C1385 1.389 1_545 S
C1384 H1357 0.950 . S
C1384 C1370 1.377 . S
C1384 C1383 1.373 . S
C1385 C1369 1.377 . S
C1385 C1383 1.389 1_565 S
C1385 C1386 1.524 . S
C1386 C1385 1.524 . S
C1386 C1387 1.397 . S
C1386 C1391 1.363 . S
C1387 H1358 0.950 . S
C1387 C1386 1.397 . S
C1387 C1388 1.334 . S
C1388 H1359 0.950 . S
C1388 C1387 1.334 . S
C1388 C1389 1.287 . S
C1389 C1388 1.287 . S
C1389 C1390 1.524 . S
C1389 H1392 0.999 . S
C1390 H1360 0.950 . S
C1390 C1389 1.524 . S
C1390 C1391 1.415 . S
C1391 H1361 0.950 . S
C1391 C1386 1.363 . S
C1391 C1390 1.415 . S
H1392 C1389 0.999 . S
H1393 C1374 0.913 . S
H1394 C1412 0.951 . S
H1395 C1414 0.951 1_545 S
H1396 C1416 0.950 . S
H1397 C1417 0.950 . S
H1398 C1419 0.950 . S
H1399 C1422 0.950 . S
H1400 C1423 0.950 . S
H1401 C1425 0.950 . S
H1402 C1426 0.950 . S
H1403 C1427 0.951 . S
H1404 C1429 0.951 1_565 S
H1405 C1431 0.950 . S
H1406 C1432 0.950 . S
H1407 C1434 0.950 . S
H1408 C1437 0.950 . S
H1409 C1438 0.950 . S
H1410 C1440 0.950 . S
H1411 C1441 0.950 . S
C1412 H1394 0.951 . S
C1412 C1413 1.366 . S
C1412 C1414 1.388 . S
C1413 C1412 1.366 . S
C1413 C1417 1.385 . S
C1414 H1395 0.951 1_565 S
C1414 C1412 1.388 . S
C1414 C1415 1.366 . S
C1415 C1414 1.366 . S
C1415 C1416 1.414 . S
C1415 C1418 1.499 . S
C1416 H1396 0.950 . S
C1416 C1415 1.414 . S
C1416 C1417 1.374 . S
C1417 H1397 0.950 . S
C1417 C1413 1.385 . S
C1417 C1416 1.374 . S
C1418 C1415 1.499 . S
C1418 C1419 1.373 . S
C1418 C1420 1.389 1_565 S
C1419 H1398 0.950 . S
C1419 C1418 1.373 . S
C1419 C1435 1.377 . S
C1420 C1418 1.389 1_545 S
C1420 C1421 1.524 . S
C1420 C1434 1.377 . S
C1421 C1420 1.524 . S
C1421 C1422 1.397 . S
C1421 C1426 1.363 . S
C1422 H1399 0.950 . S
C1422 C1421 1.397 . S
C1422 C1423 1.334 . S
C1423 H1400 0.950 . S
C1423 C1422 1.334 . S
C1423 C1424 1.287 . S
C1424 C1423 1.287 . S
C1424 C1425 1.524 . S
C1424 H1443 0.913 . S
C1425 H1401 0.950 . S
C1425 C1424 1.524 . S
C1425 C1426 1.415 . S
C1426 H1402 0.950 . S
C1426 C1421 1.363 . S
C1426 C1425 1.415 . S
C1427 H1403 0.951 . S
C1427 C1428 1.366 . S
C1427 C1429 1.388 . S
C1428 C1427 1.366 . S
C1428 C1432 1.385 . S
C1429 H1404 0.951 1_545 S
C1429 C1427 1.388 . S
C1429 C1430 1.366 . S
C1430 C1429 1.366 . S
C1430 C1431 1.414 . S
C1430 C1433 1.499 . S
C1431 H1405 0.950 . S
C1431 C1430 1.414 . S
C1431 C1432 1.374 . S
C1432 H1406 0.950 . S
C1432 C1428 1.385 . S
C1432 C1431 1.374 . S
C1433 C1430 1.499 . S
C1433 C1434 1.373 . S
C1433 C1435 1.389 1_545 S
C1434 H1407 0.950 . S
C1434 C1420 1.377 . S
C1434 C1433 1.373 . S
C1435 C1419 1.377 . S
C1435 C1433 1.389 1_565 S
C1435 C1436 1.524 . S
C1436 C1435 1.524 . S
C1436 C1437 1.397 . S
C1436 C1441 1.363 . S
C1437 H1408 0.950 . S
C1437 C1436 1.397 . S
C1437 C1438 1.334 . S
C1438 H1409 0.950 . S
C1438 C1437 1.334 . S
C1438 C1439 1.287 . S
C1439 C1438 1.287 . S
C1439 C1440 1.524 . S
C1439 H1442 0.999 . S
C1440 H1410 0.950 . S
C1440 C1439 1.524 . S
C1440 C1441 1.415 . S
C1441 H1411 0.950 . S
C1441 C1436 1.363 . S
C1441 C1440 1.415 . S
H1442 C1439 0.999 . S
H1443 C1424 0.913 . S
H1444 C1462 0.951 . S
H1445 C1464 0.951 . S
H1446 C1466 0.950 . S
H1447 C1467 0.950 . S
H1448 C1469 0.950 . S
H1449 C1472 0.950 . S
H1450 C1473 0.950 . S
H1451 C1475 0.950 . S
H1452 C1476 0.950 . S
H1453 C1477 0.951 . S
H1454 C1479 0.951 . S
H1455 C1481 0.950 . S
H1456 C1482 0.950 . S
H1457 C1484 0.950 . S
H1458 C1487 0.950 . S
H1459 C1488 0.950 . S
H1460 C1490 0.950 . S
H1461 C1491 0.950 . S
C1462 H1444 0.951 . S
C1462 C1463 1.366 . S
C1462 C1464 1.388 . S
C1463 C1462 1.366 . S
C1463 C1467 1.385 . S
C1464 H1445 0.951 . S
C1464 C1462 1.388 . S
C1464 C1465 1.366 . S
C1465 C1464 1.366 . S
C1465 C1466 1.414 . S
C1465 C1468 1.499 . S
C1466 H1446 0.950 . S
C1466 C1465 1.414 . S
C1466 C1467 1.374 . S
C1467 H1447 0.950 . S
C1467 C1463 1.385 . S
C1467 C1466 1.374 . S
C1468 C1465 1.499 . S
C1468 C1469 1.373 1_565 S
C1468 C1470 1.389 . S
C1469 H1448 0.950 . S
C1469 C1468 1.373 1_545 S
C1469 C1485 1.377 . S
C1470 C1468 1.389 . S
C1470 C1471 1.524 . S
C1470 C1484 1.377 . S
C1471 C1470 1.524 . S
C1471 C1472 1.397 . S
C1471 C1476 1.363 . S
C1472 H1449 0.950 . S
C1472 C1471 1.397 . S
C1472 C1473 1.334 . S
C1473 H1450 0.950 . S
C1473 C1472 1.334 . S
C1473 C1474 1.287 . S
C1474 C1473 1.287 . S
C1474 C1475 1.524 . S
C1474 H1493 0.913 . S
C1475 H1451 0.950 . S
C1475 C1474 1.524 . S
C1475 C1476 1.415 . S
C1476 H1452 0.950 . S
C1476 C1471 1.363 . S
C1476 C1475 1.415 . S
C1477 H1453 0.951 . S
C1477 C1478 1.366 . S
C1477 C1479 1.388 . S
C1478 C1477 1.366 . S
C1478 C1482 1.385 . S
C1479 H1454 0.951 . S
C1479 C1477 1.388 . S
C1479 C1480 1.366 . S
C1480 C1479 1.366 . S
C1480 C1481 1.414 . S
C1480 C1483 1.499 . S
C1481 H1455 0.950 . S
C1481 C1480 1.414 . S
C1481 C1482 1.374 . S
C1482 H1456 0.950 . S
C1482 C1478 1.385 . S
C1482 C1481 1.374 . S
C1483 C1480 1.499 . S
C1483 C1484 1.373 1_545 S
C1483 C1485 1.389 . S
C1484 H1457 0.950 . S
C1484 C1470 1.377 . S
C1484 C1483 1.373 1_565 S
C1485 C1469 1.377 . S
C1485 C1483 1.389 . S
C1485 C1486 1.524 . S
C1486 C1485 1.524 . S
C1486 C1487 1.397 . S
C1486 C1491 1.363 . S
C1487 H1458 0.950 . S
C1487 C1486 1.397 . S
C1487 C1488 1.334 . S
C1488 H1459 0.950 . S
C1488 C1487 1.334 . S
C1488 C1489 1.287 . S
C1489 C1488 1.287 . S
C1489 C1490 1.524 . S
C1489 H1492 0.999 . S
C1490 H1460 0.950 . S
C1490 C1489 1.524 . S
C1490 C1491 1.415 . S
C1491 H1461 0.950 . S
C1491 C1486 1.363 . S
C1491 C1490 1.415 . S
H1492 C1489 0.999 . S
H1493 C1474 0.913 . S
H1494 C1512 0.951 . S
H1495 C1514 0.951 . S
H1496 C1516 0.950 . S
H1497 C1517 0.950 1_565 S
H1498 C1519 0.950 . S
H1499 C1522 0.950 . S
H1500 C1523 0.950 . S
H1501 C1525 0.950 . S
H1502 C1526 0.950 . S
H1503 C1527 0.951 . S
H1504 C1529 0.951 . S
H1505 C1531 0.950 . S
H1506 C1532 0.950 1_545 S
H1507 C1534 0.950 . S
H1508 C1537 0.950 . S
H1509 C1538 0.950 . S
H1510 C1540 0.950 . S
H1511 C1541 0.950 . S
C1512 H1494 0.951 . S
C1512 C1513 1.366 . S
C1512 C1514 1.388 . S
C1513 C1512 1.366 . S
C1513 C1517 1.385 . S
C1514 H1495 0.951 . S
C1514 C1512 1.388 . S
C1514 C1515 1.366 . S
C1515 C1514 1.366 . S
C1515 C1516 1.414 1_545 S
C1515 C1518 1.499 . S
C1516 H1496 0.950 . S
C1516 C1515 1.414 1_565 S
C1516 C1517 1.374 1_565 S
C1517 H1497 0.950 1_545 S
C1517 C1513 1.385 . S
C1517 C1516 1.374 1_545 S
C1518 C1515 1.499 . S
C1518 C1519 1.373 1_545 S
C1518 C1520 1.389 . S
C1519 H1498 0.950 . S
C1519 C1518 1.373 1_565 S
C1519 C1535 1.377 . S
C1520 C1518 1.389 . S
C1520 C1521 1.524 . S
C1520 C1534 1.377 . S
C1521 C1520 1.524 . S
C1521 C1522 1.397 . S
C1521 C1526 1.363 . S
C1522 H1499 0.950 . S
C1522 C1521 1.397 . S
C1522 C1523 1.334 . S
C1523 H1500 0.950 . S
C1523 C1522 1.334 . S
C1523 C1524 1.287 . S
C1524 C1523 1.287 . S
C1524 C1525 1.524 . S
C1524 H1543 0.913 . S
C1525 H1501 0.950 . S
C1525 C1524 1.524 . S
C1525 C1526 1.415 . S
C1526 H1502 0.950 . S
C1526 C1521 1.363 . S
C1526 C1525 1.415 . S
C1527 H1503 0.951 . S
C1527 C1528 1.366 . S
C1527 C1529 1.388 . S
C1528 C1527 1.366 . S
C1528 C1532 1.385 . S
C1529 H1504 0.951 . S
C1529 C1527 1.388 . S
C1529 C1530 1.366 . S
C1530 C1529 1.366 . S
C1530 C1531 1.414 1_565 S
C1530 C1533 1.499 . S
C1531 H1505 0.950 . S
C1531 C1530 1.414 1_545 S
C1531 C1532 1.374 1_545 S
C1532 H1506 0.950 1_565 S
C1532 C1528 1.385 . S
C1532 C1531 1.374 1_565 S
C1533 C1530 1.499 . S
C1533 C1534 1.373 1_565 S
C1533 C1535 1.389 . S
C1534 H1507 0.950 . S
C1534 C1520 1.377 . S
C1534 C1533 1.373 1_545 S
C1535 C1519 1.377 . S
C1535 C1533 1.389 . S
C1535 C1536 1.524 . S
C1536 C1535 1.524 . S
C1536 C1537 1.397 . S
C1536 C1541 1.363 . S
C1537 H1508 0.950 . S
C1537 C1536 1.397 . S
C1537 C1538 1.334 . S
C1538 H1509 0.950 . S
C1538 C1537 1.334 . S
C1538 C1539 1.287 . S
C1539 C1538 1.287 . S
C1539 C1540 1.524 . S
C1539 H1542 0.999 . S
C1540 H1510 0.950 . S
C1540 C1539 1.524 . S
C1540 C1541 1.415 . S
C1541 H1511 0.950 . S
C1541 C1536 1.363 . S
C1541 C1540 1.415 . S
H1542 C1539 0.999 . S
H1543 C1524 0.913 . S
H1544 C1562 0.951 . S
H1545 C1564 0.951 . S
H1546 C1566 0.950 . S
H1547 C1567 0.950 . S
H1548 C1569 0.950 . S
H1549 C1572 0.950 . S
H1550 C1573 0.950 . S
H1551 C1575 0.950 . S
H1552 C1576 0.950 . S
H1553 C1577 0.951 . S
H1554 C1579 0.951 . S
H1555 C1581 0.950 . S
H1556 C1582 0.950 . S
H1557 C1584 0.950 . S
H1558 C1587 0.950 . S
H1559 C1588 0.950 . S
H1560 C1590 0.950 . S
H1561 C1591 0.950 . S
C1562 H1544 0.951 . S
C1562 C1563 1.366 . S
C1562 C1564 1.388 . S
C1563 C1562 1.366 . S
C1563 C1567 1.385 . S
C1564 H1545 0.951 . S
C1564 C1562 1.388 . S
C1564 C1565 1.366 . S
C1565 C1564 1.366 . S
C1565 C1566 1.414 . S
C1565 C1568 1.499 . S
C1566 H1546 0.950 . S
C1566 C1565 1.414 . S
C1566 C1567 1.374 . S
C1567 H1547 0.950 . S
C1567 C1563 1.385 . S
C1567 C1566 1.374 . S
C1568 C1565 1.499 . S
C1568 C1569 1.373 . S
C1568 C1570 1.389 . S
C1569 H1548 0.950 . S
C1569 C1568 1.373 . S
C1569 C1585 1.377 1_655 S
C1570 C1568 1.389 . S
C1570 C1571 1.524 . S
C1570 C1584 1.377 1_655 S
C1571 C1570 1.524 . S
C1571 C1572 1.397 . S
C1571 C1576 1.363 . S
C1572 H1549 0.950 . S
C1572 C1571 1.397 . S
C1572 C1573 1.334 . S
C1573 H1550 0.950 . S
C1573 C1572 1.334 . S
C1573 C1574 1.287 . S
C1574 C1573 1.287 . S
C1574 C1575 1.524 . S
C1574 H1593 0.913 . S
C1575 H1551 0.950 . S
C1575 C1574 1.524 . S
C1575 C1576 1.415 . S
C1576 H1552 0.950 . S
C1576 C1571 1.363 . S
C1576 C1575 1.415 . S
C1577 H1553 0.951 . S
C1577 C1578 1.366 . S
C1577 C1579 1.388 . S
C1578 C1577 1.366 . S
C1578 C1582 1.385 . S
C1579 H1554 0.951 . S
C1579 C1577 1.388 . S
C1579 C1580 1.366 . S
C1580 C1579 1.366 . S
C1580 C1581 1.414 . S
C1580 C1583 1.499 . S
C1581 H1555 0.950 . S
C1581 C1580 1.414 . S
C1581 C1582 1.374 . S
C1582 H1556 0.950 . S
C1582 C1578 1.385 . S
C1582 C1581 1.374 . S
C1583 C1580 1.499 . S
C1583 C1584 1.373 . S
C1583 C1585 1.389 . S
C1584 H1557 0.950 . S
C1584 C1570 1.377 1_455 S
C1584 C1583 1.373 . S
C1585 C1569 1.377 1_455 S
C1585 C1583 1.389 . S
C1585 C1586 1.524 . S
C1586 C1585 1.524 . S
C1586 C1587 1.397 . S
C1586 C1591 1.363 . S
C1587 H1558 0.950 . S
C1587 C1586 1.397 . S
C1587 C1588 1.334 . S
C1588 H1559 0.950 . S
C1588 C1587 1.334 . S
C1588 C1589 1.287 . S
C1589 C1588 1.287 . S
C1589 C1590 1.524 . S
C1589 H1592 0.999 . S
C1590 H1560 0.950 . S
C1590 C1589 1.524 . S
C1590 C1591 1.415 . S
C1591 H1561 0.950 . S
C1591 C1586 1.363 . S
C1591 C1590 1.415 . S
H1592 C1589 0.999 . S
H1593 C1574 0.913 . S
H1594 C1612 0.951 . S
H1595 C1614 0.951 . S
H1596 C1616 0.950 . S
H1597 C1617 0.950 . S
H1598 C1619 0.950 . S
H1599 C1622 0.950 . S
H1600 C1623 0.950 . S
H1601 C1625 0.950 . S
H1602 C1626 0.950 . S
H1603 C1627 0.951 . S
H1604 C1629 0.951 . S
H1605 C1631 0.950 . S
H1606 C1632 0.950 . S
H1607 C1634 0.950 . S
H1608 C1637 0.950 . S
H1609 C1638 0.950 . S
H1610 C1640 0.950 . S
H1611 C1641 0.950 . S
C1612 H1594 0.951 . S
C1612 C1613 1.366 . S
C1612 C1614 1.388 . S
C1613 C1612 1.366 . S
C1613 C1617 1.385 . S
C1614 H1595 0.951 . S
C1614 C1612 1.388 . S
C1614 C1615 1.366 . S
C1615 C1614 1.366 . S
C1615 C1616 1.414 . S
C1615 C1618 1.499 . S
C1616 H1596 0.950 . S
C1616 C1615 1.414 . S
C1616 C1617 1.374 . S
C1617 H1597 0.950 . S
C1617 C1613 1.385 . S
C1617 C1616 1.374 . S
C1618 C1615 1.499 . S
C1618 C1619 1.373 . S
C1618 C1620 1.389 . S
C1619 H1598 0.950 . S
C1619 C1618 1.373 . S
C1619 C1635 1.377 1_455 S
C1620 C1618 1.389 . S
C1620 C1621 1.524 . S
C1620 C1634 1.377 1_455 S
C1621 C1620 1.524 . S
C1621 C1622 1.397 . S
C1621 C1626 1.363 . S
C1622 H1599 0.950 . S
C1622 C1621 1.397 . S
C1622 C1623 1.334 . S
C1623 H1600 0.950 . S
C1623 C1622 1.334 . S
C1623 C1624 1.287 . S
C1624 C1623 1.287 . S
C1624 C1625 1.524 . S
C1624 H1643 0.913 . S
C1625 H1601 0.950 . S
C1625 C1624 1.524 . S
C1625 C1626 1.415 . S
C1626 H1602 0.950 . S
C1626 C1621 1.363 . S
C1626 C1625 1.415 . S
C1627 H1603 0.951 . S
C1627 C1628 1.366 . S
C1627 C1629 1.388 . S
C1628 C1627 1.366 . S
C1628 C1632 1.385 . S
C1629 H1604 0.951 . S
C1629 C1627 1.388 . S
C1629 C1630 1.366 . S
C1630 C1629 1.366 . S
C1630 C1631 1.414 . S
C1630 C1633 1.499 . S
C1631 H1605 0.950 . S
C1631 C1630 1.414 . S
C1631 C1632 1.374 . S
C1632 H1606 0.950 . S
C1632 C1628 1.385 . S
C1632 C1631 1.374 . S
C1633 C1630 1.499 . S
C1633 C1634 1.373 . S
C1633 C1635 1.389 . S
C1634 H1607 0.950 . S
C1634 C1620 1.377 1_655 S
C1634 C1633 1.373 . S
C1635 C1619 1.377 1_655 S
C1635 C1633 1.389 . S
C1635 C1636 1.524 . S
C1636 C1635 1.524 . S
C1636 C1637 1.397 . S
C1636 C1641 1.363 . S
C1637 H1608 0.950 . S
C1637 C1636 1.397 . S
C1637 C1638 1.334 . S
C1638 H1609 0.950 . S
C1638 C1637 1.334 . S
C1638 C1639 1.287 . S
C1639 C1638 1.287 . S
C1639 C1640 1.524 . S
C1639 H1642 0.999 . S
C1640 H1610 0.950 . S
C1640 C1639 1.524 . S
C1640 C1641 1.415 . S
C1641 H1611 0.950 . S
C1641 C1636 1.363 . S
C1641 C1640 1.415 . S
H1642 C1639 0.999 . S
H1643 C1624 0.913 . S
H1644 C1662 0.951 . S
H1645 C1664 0.951 . S
H1646 C1666 0.950 . S
H1647 C1667 0.950 . S
H1648 C1669 0.950 . S
H1649 C1672 0.950 . S
H1650 C1673 0.950 . S
H1651 C1675 0.950 1_455 S
H1652 C1676 0.933 1_455 S
H1653 C1677 0.951 . S
H1654 C1679 0.951 . S
H1655 C1681 0.950 . S
H1656 C1682 0.950 . S
H1657 C1684 0.950 . S
H1658 C1687 0.950 . S
H1659 C1688 0.950 . S
H1660 C1690 0.950 1_655 S
H1661 C1691 0.933 1_655 S
C1662 H1644 0.951 . S
C1662 C1663 1.366 . S
C1662 C1664 1.388 . S
C1663 C1662 1.366 . S
C1663 C1667 1.385 . S
C1664 H1645 0.951 . S
C1664 C1662 1.388 . S
C1664 C1665 1.366 . S
C1665 C1664 1.366 . S
C1665 C1666 1.414 . S
C1665 C1668 1.499 . S
C1666 H1646 0.950 . S
C1666 C1665 1.414 . S
C1666 C1667 1.374 . S
C1667 H1647 0.950 . S
C1667 C1663 1.385 . S
C1667 C1666 1.374 . S
C1668 C1665 1.499 . S
C1668 C1669 1.373 . S
C1668 C1670 1.389 . S
C1669 H1648 0.950 . S
C1669 C1668 1.373 . S
C1669 C1685 1.377 1_655 S
C1670 C1668 1.389 . S
C1670 C1671 1.524 . S
C1670 C1684 1.377 1_655 S
C1671 C1670 1.524 . S
C1671 C1672 1.397 . S
C1671 C1676 1.376 . S
C1672 H1649 0.950 . S
C1672 C1671 1.397 . S
C1672 C1673 1.334 . S
C1673 H1650 0.950 . S
C1673 C1672 1.334 . S
C1673 C1674 1.287 . S
C1674 C1673 1.287 . S
C1674 C1675 1.524 . S
C1674 H1693 0.913 . S
C1675 H1651 0.950 1_655 S
C1675 C1674 1.524 . S
C1675 C1676 1.420 . S
C1676 H1652 0.933 1_655 S
C1676 C1671 1.376 . S
C1676 C1675 1.420 . S
C1677 H1653 0.951 . S
C1677 C1678 1.366 . S
C1677 C1679 1.388 . S
C1678 C1677 1.366 . S
C1678 C1682 1.385 . S
C1679 H1654 0.951 . S
C1679 C1677 1.388 . S
C1679 C1680 1.366 . S
C1680 C1679 1.366 . S
C1680 C1681 1.414 . S
C1680 C1683 1.499 . S
C1681 H1655 0.950 . S
C1681 C1680 1.414 . S
C1681 C1682 1.374 . S
C1682 H1656 0.950 . S
C1682 C1678 1.385 . S
C1682 C1681 1.374 . S
C1683 C1680 1.499 . S
C1683 C1684 1.373 . S
C1683 C1685 1.389 . S
C1684 H1657 0.950 . S
C1684 C1670 1.377 1_455 S
C1684 C1683 1.373 . S
C1685 C1669 1.377 1_455 S
C1685 C1683 1.389 . S
C1685 C1686 1.524 . S
C1686 C1685 1.524 . S
C1686 C1687 1.397 . S
C1686 C1691 1.376 . S
C1687 H1658 0.950 . S
C1687 C1686 1.397 . S
C1687 C1688 1.334 . S
C1688 H1659 0.950 . S
C1688 C1687 1.334 . S
C1688 C1689 1.287 . S
C1689 C1688 1.287 . S
C1689 C1690 1.524 . S
C1689 H1692 0.999 . S
C1690 H1660 0.950 1_455 S
C1690 C1689 1.524 . S
C1690 C1691 1.420 . S
C1691 H1661 0.933 1_455 S
C1691 C1686 1.376 . S
C1691 C1690 1.420 . S
H1692 C1689 0.999 . S
H1693 C1674 0.913 . S
H1694 C1712 0.951 . S
H1695 C1714 0.951 . S
H1696 C1716 0.950 . S
H1697 C1717 0.950 . S
H1698 C1719 0.950 . S
H1699 C1722 0.950 . S
H1700 C1723 0.950 . S
H1701 C1725 0.950 . S
H1702 C1726 0.986 . S
H1703 C1727 0.951 . S
H1704 C1729 0.951 . S
H1705 C1731 0.950 . S
H1706 C1732 0.950 . S
H1707 C1734 0.950 . S
H1708 C1737 0.950 . S
H1709 C1738 0.950 . S
H1710 C1740 0.950 . S
H1711 C1741 0.985 . S
C1712 H1694 0.951 . S
C1712 C1713 1.366 . S
C1712 C1714 1.388 . S
C1713 C1712 1.366 . S
C1713 C1717 1.385 . S
C1714 H1695 0.951 . S
C1714 C1712 1.388 . S
C1714 C1715 1.366 . S
C1715 C1714 1.366 . S
C1715 C1716 1.414 . S
C1715 C1718 1.499 . S
C1716 H1696 0.950 . S
C1716 C1715 1.414 . S
C1716 C1717 1.374 . S
C1717 H1697 0.950 . S
C1717 C1713 1.385 . S
C1717 C1716 1.374 . S
C1718 C1715 1.499 . S
C1718 C1719 1.373 . S
C1718 C1720 1.389 . S
C1719 H1698 0.950 . S
C1719 C1718 1.373 . S
C1719 C1735 1.377 1_455 S
C1720 C1718 1.389 . S
C1720 C1721 1.524 . S
C1720 C1734 1.377 1_455 S
C1721 C1720 1.524 . S
C1721 C1722 1.397 . S
C1721 C1726 1.363 . S
C1722 H1699 0.950 . S
C1722 C1721 1.397 . S
C1722 C1723 1.334 . S
C1723 H1700 0.950 . S
C1723 C1722 1.334 . S
C1723 C1724 1.287 . S
C1724 C1723 1.287 . S
C1724 C1725 1.524 . S
C1724 H1743 0.913 . S
C1725 H1701 0.950 . S
C1725 C1724 1.524 . S
C1725 C1726 1.415 . S
C1726 H1702 0.986 . S
C1726 C1721 1.363 . S
C1726 C1725 1.415 . S
C1727 H1703 0.951 . S
C1727 C1728 1.366 . S
C1727 C1729 1.388 . S
C1728 C1727 1.366 . S
C1728 C1732 1.385 . S
C1729 H1704 0.951 . S
C1729 C1727 1.388 . S
C1729 C1730 1.366 . S
C1730 C1729 1.366 . S
C1730 C1731 1.414 . S
C1730 C1733 1.499 . S
C1731 H1705 0.950 . S
C1731 C1730 1.414 . S
C1731 C1732 1.374 . S
C1732 H1706 0.950 . S
C1732 C1728 1.385 . S
C1732 C1731 1.374 . S
C1733 C1730 1.499 . S
C1733 C1734 1.373 . S
C1733 C1735 1.389 . S
C1734 H1707 0.950 . S
C1734 C1720 1.377 1_655 S
C1734 C1733 1.373 . S
C1735 C1719 1.377 1_655 S
C1735 C1733 1.389 . S
C1735 C1736 1.524 . S
C1736 C1735 1.524 . S
C1736 C1737 1.397 . S
C1736 C1741 1.363 . S
C1737 H1708 0.950 . S
C1737 C1736 1.397 . S
C1737 C1738 1.334 . S
C1738 H1709 0.950 . S
C1738 C1737 1.334 . S
C1738 C1739 1.287 . S
C1739 C1738 1.287 . S
C1739 C1740 1.524 . S
C1739 H1742 0.999 . S
C1740 H1710 0.950 . S
C1740 C1739 1.524 . S
C1740 C1741 1.415 . S
C1741 H1711 0.985 . S
C1741 C1736 1.363 . S
C1741 C1740 1.415 . S
H1742 C1739 0.999 . S
H1743 C1724 0.913 . S
H1744 C1762 0.951 . S
H1745 C1764 0.951 . S
H1746 C1766 0.950 . S
H1747 C1767 0.950 . S
H1748 C1769 0.950 . S
H1749 C1772 0.950 . S
H1750 C1773 0.950 . S
H1751 C1775 0.950 . S
H1752 C1776 0.950 . S
H1753 C1777 0.951 . S
H1754 C1779 0.951 . S
H1755 C1781 0.950 . S
H1756 C1782 0.950 . S
H1757 C1784 0.950 . S
H1758 C1787 0.950 . S
H1759 C1788 0.950 . S
H1760 C1790 0.950 . S
H1761 C1791 0.950 . S
C1762 H1744 0.951 . S
C1762 C1763 1.366 . S
C1762 C1764 1.388 . S
C1763 C1762 1.366 . S
C1763 C1767 1.385 . S
C1764 H1745 0.951 . S
C1764 C1762 1.388 . S
C1764 C1765 1.366 . S
C1765 C1764 1.366 . S
C1765 C1766 1.414 . S
C1765 C1768 1.499 . S
C1766 H1746 0.950 . S
C1766 C1765 1.414 . S
C1766 C1767 1.374 . S
C1767 H1747 0.950 . S
C1767 C1763 1.385 . S
C1767 C1766 1.374 . S
C1768 C1765 1.499 . S
C1768 C1769 1.373 . S
C1768 C1770 1.389 . S
C1769 H1748 0.950 . S
C1769 C1768 1.373 . S
C1769 C1785 1.377 . S
C1770 C1768 1.389 . S
C1770 C1771 1.524 . S
C1770 C1784 1.377 . S
C1771 C1770 1.524 . S
C1771 C1772 1.397 . S
C1771 C1776 1.363 . S
C1772 H1749 0.950 . S
C1772 C1771 1.397 . S
C1772 C1773 1.334 . S
C1773 H1750 0.950 . S
C1773 C1772 1.334 . S
C1773 C1774 1.287 . S
C1774 C1773 1.287 . S
C1774 C1775 1.524 . S
C1774 H1793 0.913 . S
C1775 H1751 0.950 . S
C1775 C1774 1.524 . S
C1775 C1776 1.415 . S
C1776 H1752 0.950 . S
C1776 C1771 1.363 . S
C1776 C1775 1.415 . S
C1777 H1753 0.951 . S
C1777 C1778 1.366 . S
C1777 C1779 1.388 . S
C1778 C1777 1.366 . S
C1778 C1782 1.385 . S
C1779 H1754 0.951 . S
C1779 C1777 1.388 . S
C1779 C1780 1.366 . S
C1780 C1779 1.366 . S
C1780 C1781 1.414 . S
C1780 C1783 1.499 . S
C1781 H1755 0.950 . S
C1781 C1780 1.414 . S
C1781 C1782 1.374 . S
C1782 H1756 0.950 . S
C1782 C1778 1.385 . S
C1782 C1781 1.374 . S
C1783 C1780 1.499 . S
C1783 C1784 1.373 . S
C1783 C1785 1.389 . S
C1784 H1757 0.950 . S
C1784 C1770 1.377 . S
C1784 C1783 1.373 . S
C1785 C1769 1.377 . S
C1785 C1783 1.389 . S
C1785 C1786 1.524 . S
C1786 C1785 1.524 . S
C1786 C1787 1.397 . S
C1786 C1791 1.363 . S
C1787 H1758 0.950 . S
C1787 C1786 1.397 . S
C1787 C1788 1.334 . S
C1788 H1759 0.950 . S
C1788 C1787 1.334 . S
C1788 C1789 1.287 . S
C1789 C1788 1.287 . S
C1789 C1790 1.524 . S
C1789 H1792 0.999 . S
C1790 H1760 0.950 . S
C1790 C1789 1.524 . S
C1790 C1791 1.415 . S
C1791 H1761 0.950 . S
C1791 C1786 1.363 . S
C1791 C1790 1.415 . S
H1792 C1789 0.999 . S
H1793 C1774 0.913 . S
H1794 C1812 0.951 . S
H1795 C1814 0.951 . S
H1796 C1816 0.950 . S
H1797 C1817 0.950 . S
H1798 C1819 0.950 . S
H1799 C1822 0.950 . S
H1800 C1823 0.950 . S
H1801 C1825 0.950 . S
H1802 C1826 0.950 . S
H1803 C1827 0.951 . S
H1804 C1829 0.951 . S
H1805 C1831 0.950 . S
H1806 C1832 0.950 . S
H1807 C1834 0.950 . S
H1808 C1837 0.950 . S
H1809 C1838 0.950 . S
H1810 C1840 0.950 . S
H1811 C1841 0.950 . S
C1812 H1794 0.951 . S
C1812 C1813 1.366 . S
C1812 C1814 1.388 . S
C1813 C1812 1.366 . S
C1813 C1817 1.385 . S
C1814 H1795 0.951 . S
C1814 C1812 1.388 . S
C1814 C1815 1.366 . S
C1815 C1814 1.366 . S
C1815 C1816 1.414 . S
C1815 C1818 1.499 . S
C1816 H1796 0.950 . S
C1816 C1815 1.414 . S
C1816 C1817 1.374 . S
C1817 H1797 0.950 . S
C1817 C1813 1.385 . S
C1817 C1816 1.374 . S
C1818 C1815 1.499 . S
C1818 C1819 1.373 . S
C1818 C1820 1.389 . S
C1819 H1798 0.950 . S
C1819 C1818 1.373 . S
C1819 C1835 1.377 . S
C1820 C1818 1.389 . S
C1820 C1821 1.524 . S
C1820 C1834 1.377 . S
C1821 C1820 1.524 . S
C1821 C1822 1.397 . S
C1821 C1826 1.363 . S
C1822 H1799 0.950 . S
C1822 C1821 1.397 . S
C1822 C1823 1.334 . S
C1823 H1800 0.950 . S
C1823 C1822 1.334 . S
C1823 C1824 1.287 . S
C1824 C1823 1.287 . S
C1824 C1825 1.524 . S
C1824 H1843 0.913 . S
C1825 H1801 0.950 . S
C1825 C1824 1.524 . S
C1825 C1826 1.415 . S
C1826 H1802 0.950 . S
C1826 C1821 1.363 . S
C1826 C1825 1.415 . S
C1827 H1803 0.951 . S
C1827 C1828 1.366 . S
C1827 C1829 1.388 . S
C1828 C1827 1.366 . S
C1828 C1832 1.385 . S
C1829 H1804 0.951 . S
C1829 C1827 1.388 . S
C1829 C1830 1.366 . S
C1830 C1829 1.366 . S
C1830 C1831 1.414 . S
C1830 C1833 1.499 . S
C1831 H1805 0.950 . S
C1831 C1830 1.414 . S
C1831 C1832 1.374 . S
C1832 H1806 0.950 . S
C1832 C1828 1.385 . S
C1832 C1831 1.374 . S
C1833 C1830 1.499 . S
C1833 C1834 1.373 . S
C1833 C1835 1.389 . S
C1834 H1807 0.950 . S
C1834 C1820 1.377 . S
C1834 C1833 1.373 . S
C1835 C1819 1.377 . S
C1835 C1833 1.389 . S
C1835 C1836 1.524 . S
C1836 C1835 1.524 . S
C1836 C1837 1.397 . S
C1836 C1841 1.363 . S
C1837 H1808 0.950 . S
C1837 C1836 1.397 . S
C1837 C1838 1.334 . S
C1838 H1809 0.950 . S
C1838 C1837 1.334 . S
C1838 C1839 1.287 . S
C1839 C1838 1.287 . S
C1839 C1840 1.524 . S
C1839 H1842 0.999 . S
C1840 H1810 0.950 . S
C1840 C1839 1.524 . S
C1840 C1841 1.415 . S
C1841 H1811 0.950 . S
C1841 C1836 1.363 . S
C1841 C1840 1.415 . S
H1842 C1839 0.999 . S
H1843 C1824 0.913 . S
H1844 C1862 0.951 . S
H1845 C1864 0.951 . S
H1846 C1866 0.950 . S
H1847 C1867 0.950 . S
H1848 C1869 0.950 . S
H1849 C1872 0.950 . S
H1850 C1873 0.950 . S
H1851 C1875 0.950 . S
H1852 C1876 0.950 . S
H1853 C1877 0.951 . S
H1854 C1879 0.951 . S
H1855 C1881 0.950 . S
H1856 C1882 0.950 . S
H1857 C1884 0.950 . S
H1858 C1887 0.950 . S
H1859 C1888 0.950 . S
H1860 C1890 0.950 . S
H1861 C1891 0.950 . S
C1862 H1844 0.951 . S
C1862 C1863 1.366 . S
C1862 C1864 1.388 . S
C1863 C1862 1.366 . S
C1863 C1867 1.385 . S
C1864 H1845 0.951 . S
C1864 C1862 1.388 . S
C1864 C1865 1.366 . S
C1865 C1864 1.366 . S
C1865 C1866 1.414 . S
C1865 C1868 1.499 . S
C1866 H1846 0.950 . S
C1866 C1865 1.414 . S
C1866 C1867 1.374 . S
C1867 H1847 0.950 . S
C1867 C1863 1.385 . S
C1867 C1866 1.374 . S
C1868 C1865 1.499 . S
C1868 C1869 1.373 . S
C1868 C1870 1.389 . S
C1869 H1848 0.950 . S
C1869 C1868 1.373 . S
C1869 C1885 1.377 . S
C1870 C1868 1.389 . S
C1870 C1871 1.524 . S
C1870 C1884 1.377 . S
C1871 C1870 1.524 . S
C1871 C1872 1.397 . S
C1871 C1876 1.363 . S
C1872 H1849 0.950 . S
C1872 C1871 1.397 . S
C1872 C1873 1.334 . S
C1873 H1850 0.950 . S
C1873 C1872 1.334 . S
C1873 C1874 1.287 . S
C1874 C1873 1.287 . S
C1874 C1875 1.524 . S
C1874 H1893 0.913 . S
C1875 H1851 0.950 . S
C1875 C1874 1.524 . S
C1875 C1876 1.415 . S
C1876 H1852 0.950 . S
C1876 C1871 1.363 . S
C1876 C1875 1.415 . S
C1877 H1853 0.951 . S
C1877 C1878 1.366 . S
C1877 C1879 1.388 . S
C1878 C1877 1.366 . S
C1878 C1882 1.385 . S
C1879 H1854 0.951 . S
C1879 C1877 1.388 . S
C1879 C1880 1.366 . S
C1880 C1879 1.366 . S
C1880 C1881 1.414 . S
C1880 C1883 1.499 . S
C1881 H1855 0.950 . S
C1881 C1880 1.414 . S
C1881 C1882 1.374 . S
C1882 H1856 0.950 . S
C1882 C1878 1.385 . S
C1882 C1881 1.374 . S
C1883 C1880 1.499 . S
C1883 C1884 1.373 . S
C1883 C1885 1.389 . S
C1884 H1857 0.950 . S
C1884 C1870 1.377 . S
C1884 C1883 1.373 . S
C1885 C1869 1.377 . S
C1885 C1883 1.389 . S
C1885 C1886 1.524 . S
C1886 C1885 1.524 . S
C1886 C1887 1.397 . S
C1886 C1891 1.363 . S
C1887 H1858 0.950 . S
C1887 C1886 1.397 . S
C1887 C1888 1.334 . S
C1888 H1859 0.950 . S
C1888 C1887 1.334 . S
C1888 C1889 1.287 . S
C1889 C1888 1.287 . S
C1889 C1890 1.524 . S
C1889 H1892 0.999 . S
C1890 H1860 0.950 . S
C1890 C1889 1.524 . S
C1890 C1891 1.415 . S
C1891 H1861 0.950 . S
C1891 C1886 1.363 . S
C1891 C1890 1.415 . S
H1892 C1889 0.999 . S
H1893 C1874 0.913 . S
H1894 C1912 0.951 . S
H1895 C1914 0.951 . S
H1896 C1916 0.950 . S
H1897 C1917 0.950 . S
H1898 C1919 0.950 . S
H1899 C1922 0.950 . S
H1900 C1923 0.950 . S
H1901 C1925 0.950 . S
H1902 C1926 0.950 . S
H1903 C1927 0.951 . S
H1904 C1929 0.951 . S
H1905 C1931 0.950 . S
H1906 C1932 0.950 . S
H1907 C1934 0.950 . S
H1908 C1937 0.950 . S
H1909 C1938 0.950 . S
H1910 C1940 0.950 . S
H1911 C1941 0.950 . S
C1912 H1894 0.951 . S
C1912 C1913 1.366 . S
C1912 C1914 1.388 . S
C1913 C1912 1.366 . S
C1913 C1917 1.385 . S
C1914 H1895 0.951 . S
C1914 C1912 1.388 . S
C1914 C1915 1.366 . S
C1915 C1914 1.366 . S
C1915 C1916 1.414 . S
C1915 C1918 1.499 . S
C1916 H1896 0.950 . S
C1916 C1915 1.414 . S
C1916 C1917 1.374 . S
C1917 H1897 0.950 . S
C1917 C1913 1.385 . S
C1917 C1916 1.374 . S
C1918 C1915 1.499 . S
C1918 C1919 1.373 . S
C1918 C1920 1.389 . S
C1919 H1898 0.950 . S
C1919 C1918 1.373 . S
C1919 C1935 1.377 . S
C1920 C1918 1.389 . S
C1920 C1921 1.524 . S
C1920 C1934 1.377 . S
C1921 C1920 1.524 . S
C1921 C1922 1.397 . S
C1921 C1926 1.363 . S
C1922 H1899 0.950 . S
C1922 C1921 1.397 . S
C1922 C1923 1.334 . S
C1923 H1900 0.950 . S
C1923 C1922 1.334 . S
C1923 C1924 1.287 . S
C1924 C1923 1.287 . S
C1924 C1925 1.524 . S
C1924 H1943 0.913 . S
C1925 H1901 0.950 . S
C1925 C1924 1.524 . S
C1925 C1926 1.415 . S
C1926 H1902 0.950 . S
C1926 C1921 1.363 . S
C1926 C1925 1.415 . S
C1927 H1903 0.951 . S
C1927 C1928 1.366 . S
C1927 C1929 1.388 . S
C1928 C1927 1.366 . S
C1928 C1932 1.385 . S
C1929 H1904 0.951 . S
C1929 C1927 1.388 . S
C1929 C1930 1.366 . S
C1930 C1929 1.366 . S
C1930 C1931 1.414 . S
C1930 C1933 1.499 . S
C1931 H1905 0.950 . S
C1931 C1930 1.414 . S
C1931 C1932 1.374 . S
C1932 H1906 0.950 . S
C1932 C1928 1.385 . S
C1932 C1931 1.374 . S
C1933 C1930 1.499 . S
C1933 C1934 1.373 . S
C1933 C1935 1.389 . S
C1934 H1907 0.950 . S
C1934 C1920 1.377 . S
C1934 C1933 1.373 . S
C1935 C1919 1.377 . S
C1935 C1933 1.389 . S
C1935 C1936 1.524 . S
C1936 C1935 1.524 . S
C1936 C1937 1.397 . S
C1936 C1941 1.363 . S
C1937 H1908 0.950 . S
C1937 C1936 1.397 . S
C1937 C1938 1.334 . S
C1938 H1909 0.950 . S
C1938 C1937 1.334 . S
C1938 C1939 1.287 . S
C1939 C1938 1.287 . S
C1939 C1940 1.524 . S
C1939 H1942 0.999 . S
C1940 H1910 0.950 . S
C1940 C1939 1.524 . S
C1940 C1941 1.415 . S
C1941 H1911 0.950 . S
C1941 C1936 1.363 . S
C1941 C1940 1.415 . S
H1942 C1939 0.999 . S
H1943 C1924 0.913 . S
H1944 C1962 0.951 . S
H1945 C1964 0.951 . S
H1946 C1966 0.950 . S
H1947 C1967 0.950 . S
H1948 C1969 0.950 . S
H1949 C1972 0.950 . S
H1950 C1973 0.950 . S
H1951 C1975 0.950 . S
H1952 C1976 0.950 . S
H1953 C1977 0.951 . S
H1954 C1979 0.951 . S
H1955 C1981 0.950 . S
H1956 C1982 0.950 . S
H1957 C1984 0.950 . S
H1958 C1987 0.950 . S
H1959 C1988 0.950 . S
H1960 C1990 0.950 . S
H1961 C1991 0.950 . S
C1962 H1944 0.951 . S
C1962 C1963 1.366 . S
C1962 C1964 1.388 . S
C1963 C1962 1.366 . S
C1963 C1967 1.385 . S
C1964 H1945 0.951 . S
C1964 C1962 1.388 . S
C1964 C1965 1.366 . S
C1965 C1964 1.366 . S
C1965 C1966 1.414 . S
C1965 C1968 1.499 . S
C1966 H1946 0.950 . S
C1966 C1965 1.414 . S
C1966 C1967 1.374 . S
C1967 H1947 0.950 . S
C1967 C1963 1.385 . S
C1967 C1966 1.374 . S
C1968 C1965 1.499 . S
C1968 C1969 1.373 . S
C1968 C1970 1.389 . S
C1969 H1948 0.950 . S
C1969 C1968 1.373 . S
C1969 C1985 1.377 . S
C1970 C1968 1.389 . S
C1970 C1971 1.524 . S
C1970 C1984 1.377 . S
C1971 C1970 1.524 . S
C1971 C1972 1.397 . S
C1971 C1976 1.363 . S
C1972 H1949 0.950 . S
C1972 C1971 1.397 . S
C1972 C1973 1.334 . S
C1973 H1950 0.950 . S
C1973 C1972 1.334 . S
C1973 C1974 1.287 . S
C1974 C1973 1.287 . S
C1974 C1975 1.524 . S
C1974 H1993 0.913 . S
C1975 H1951 0.950 . S
C1975 C1974 1.524 . S
C1975 C1976 1.415 . S
C1976 H1952 0.950 . S
C1976 C1971 1.363 . S
C1976 C1975 1.415 . S
C1977 H1953 0.951 . S
C1977 C1978 1.366 . S
C1977 C1979 1.388 . S
C1978 C1977 1.366 . S
C1978 C1982 1.385 . S
C1979 H1954 0.951 . S
C1979 C1977 1.388 . S
C1979 C1980 1.366 . S
C1980 C1979 1.366 . S
C1980 C1981 1.414 . S
C1980 C1983 1.499 . S
C1981 H1955 0.950 . S
C1981 C1980 1.414 . S
C1981 C1982 1.374 . S
C1982 H1956 0.950 . S
C1982 C1978 1.385 . S
C1982 C1981 1.374 . S
C1983 C1980 1.499 . S
C1983 C1984 1.373 . S
C1983 C1985 1.389 . S
C1984 H1957 0.950 . S
C1984 C1970 1.377 . S
C1984 C1983 1.373 . S
C1985 C1969 1.377 . S
C1985 C1983 1.389 . S
C1985 C1986 1.524 . S
C1986 C1985 1.524 . S
C1986 C1987 1.397 . S
C1986 C1991 1.363 . S
C1987 H1958 0.950 . S
C1987 C1986 1.397 . S
C1987 C1988 1.334 . S
C1988 H1959 0.950 . S
C1988 C1987 1.334 . S
C1988 C1989 1.287 . S
C1989 C1988 1.287 . S
C1989 C1990 1.524 . S
C1989 H1992 0.999 . S
C1990 H1960 0.950 . S
C1990 C1989 1.524 . S
C1990 C1991 1.415 . S
C1991 H1961 0.950 . S
C1991 C1986 1.363 . S
C1991 C1990 1.415 . S
H1992 C1989 0.999 . S
H1993 C1974 0.913 . S
H1994 C2012 0.951 . S
H1995 C2014 0.951 . S
H1996 C2016 0.950 . S
H1997 C2017 0.950 . S
H1998 C2019 0.950 . S
H1999 C2022 0.950 . S
H2000 C2023 0.950 . S
H2001 C2025 0.950 . S
H2002 C2026 0.950 . S
H2003 C2027 0.951 . S
H2004 C2029 0.951 . S
H2005 C2031 0.950 . S
H2006 C2032 0.950 . S
H2007 C2034 0.950 . S
H2008 C2037 0.950 . S
H2009 C2038 0.950 . S
H2010 C2040 0.950 . S
H2011 C2041 0.950 . S
C2012 H1994 0.951 . S
C2012 C2013 1.366 . S
C2012 C2014 1.388 . S
C2013 C2012 1.366 . S
C2013 C2017 1.385 . S
C2014 H1995 0.951 . S
C2014 C2012 1.388 . S
C2014 C2015 1.366 . S
C2015 C2014 1.366 . S
C2015 C2016 1.414 . S
C2015 C2018 1.499 . S
C2016 H1996 0.950 . S
C2016 C2015 1.414 . S
C2016 C2017 1.374 . S
C2017 H1997 0.950 . S
C2017 C2013 1.385 . S
C2017 C2016 1.374 . S
C2018 C2015 1.499 . S
C2018 C2019 1.373 . S
C2018 C2020 1.389 . S
C2019 H1998 0.950 . S
C2019 C2018 1.373 . S
C2019 C2035 1.377 . S
C2020 C2018 1.389 . S
C2020 C2021 1.524 . S
C2020 C2034 1.377 . S
C2021 C2020 1.524 . S
C2021 C2022 1.397 . S
C2021 C2026 1.363 . S
C2022 H1999 0.950 . S
C2022 C2021 1.397 . S
C2022 C2023 1.334 . S
C2023 H2000 0.950 . S
C2023 C2022 1.334 . S
C2023 C2024 1.287 . S
C2024 C2023 1.287 . S
C2024 C2025 1.524 . S
C2024 H2043 0.913 . S
C2025 H2001 0.950 . S
C2025 C2024 1.524 . S
C2025 C2026 1.415 . S
C2026 H2002 0.950 . S
C2026 C2021 1.363 . S
C2026 C2025 1.415 . S
C2027 H2003 0.951 . S
C2027 C2028 1.366 . S
C2027 C2029 1.388 . S
C2028 C2027 1.366 . S
C2028 C2032 1.385 . S
C2029 H2004 0.951 . S
C2029 C2027 1.388 . S
C2029 C2030 1.366 . S
C2030 C2029 1.366 . S
C2030 C2031 1.414 . S
C2030 C2033 1.499 . S
C2031 H2005 0.950 . S
C2031 C2030 1.414 . S
C2031 C2032 1.374 . S
C2032 H2006 0.950 . S
C2032 C2028 1.385 . S
C2032 C2031 1.374 . S
C2033 C2030 1.499 . S
C2033 C2034 1.373 . S
C2033 C2035 1.389 . S
C2034 H2007 0.950 . S
C2034 C2020 1.377 . S
C2034 C2033 1.373 . S
C2035 C2019 1.377 . S
C2035 C2033 1.389 . S
C2035 C2036 1.524 . S
C2036 C2035 1.524 . S
C2036 C2037 1.397 . S
C2036 C2041 1.363 . S
C2037 H2008 0.950 . S
C2037 C2036 1.397 . S
C2037 C2038 1.334 . S
C2038 H2009 0.950 . S
C2038 C2037 1.334 . S
C2038 C2039 1.287 . S
C2039 C2038 1.287 . S
C2039 C2040 1.524 . S
C2039 H2042 0.999 . S
C2040 H2010 0.950 . S
C2040 C2039 1.524 . S
C2040 C2041 1.415 . S
C2041 H2011 0.950 . S
C2041 C2036 1.363 . S
C2041 C2040 1.415 . S
H2042 C2039 0.999 . S
H2043 C2024 0.913 . S
H2044 C2062 0.951 . S
H2045 C2064 0.951 . S
H2046 C2066 0.950 . S
H2047 C2067 0.950 . S
H2048 C2069 0.950 . S
H2049 C2072 0.950 . S
H2050 C2073 0.950 . S
H2051 C2075 0.950 . S
H2052 C2076 0.950 . S
H2053 C2077 0.951 . S
H2054 C2079 0.951 . S
H2055 C2081 0.950 . S
H2056 C2082 0.950 . S
H2057 C2084 0.950 . S
H2058 C2087 0.950 . S
H2059 C2088 0.950 . S
H2060 C2090 0.950 . S
H2061 C2091 0.950 . S
C2062 H2044 0.951 . S
C2062 C2063 1.366 . S
C2062 C2064 1.388 . S
C2063 C2062 1.366 . S
C2063 C2067 1.385 . S
C2064 H2045 0.951 . S
C2064 C2062 1.388 . S
C2064 C2065 1.366 . S
C2065 C2064 1.366 . S
C2065 C2066 1.414 . S
C2065 C2068 1.499 . S
C2066 H2046 0.950 . S
C2066 C2065 1.414 . S
C2066 C2067 1.374 . S
C2067 H2047 0.950 . S
C2067 C2063 1.385 . S
C2067 C2066 1.374 . S
C2068 C2065 1.499 . S
C2068 C2069 1.373 . S
C2068 C2070 1.389 . S
C2069 H2048 0.950 . S
C2069 C2068 1.373 . S
C2069 C2085 1.377 . S
C2070 C2068 1.389 . S
C2070 C2071 1.524 . S
C2070 C2084 1.377 . S
C2071 C2070 1.524 . S
C2071 C2072 1.397 . S
C2071 C2076 1.363 . S
C2072 H2049 0.950 . S
C2072 C2071 1.397 . S
C2072 C2073 1.334 . S
C2073 H2050 0.950 . S
C2073 C2072 1.334 . S
C2073 C2074 1.287 . S
C2074 C2073 1.287 . S
C2074 C2075 1.524 . S
C2074 H2093 0.913 . S
C2075 H2051 0.950 . S
C2075 C2074 1.524 . S
C2075 C2076 1.415 . S
C2076 H2052 0.950 . S
C2076 C2071 1.363 . S
C2076 C2075 1.415 . S
C2077 H2053 0.951 . S
C2077 C2078 1.366 . S
C2077 C2079 1.388 . S
C2078 C2077 1.366 . S
C2078 C2082 1.385 . S
C2079 H2054 0.951 . S
C2079 C2077 1.388 . S
C2079 C2080 1.366 . S
C2080 C2079 1.366 . S
C2080 C2081 1.414 . S
C2080 C2083 1.499 . S
C2081 H2055 0.950 . S
C2081 C2080 1.414 . S
C2081 C2082 1.374 . S
C2082 H2056 0.950 . S
C2082 C2078 1.385 . S
C2082 C2081 1.374 . S
C2083 C2080 1.499 . S
C2083 C2084 1.373 . S
C2083 C2085 1.389 . S
C2084 H2057 0.950 . S
C2084 C2070 1.377 . S
C2084 C2083 1.373 . S
C2085 C2069 1.377 . S
C2085 C2083 1.389 . S
C2085 C2086 1.524 . S
C2086 C2085 1.524 . S
C2086 C2087 1.397 . S
C2086 C2091 1.363 . S
C2087 H2058 0.950 . S
C2087 C2086 1.397 . S
C2087 C2088 1.334 . S
C2088 H2059 0.950 . S
C2088 C2087 1.334 . S
C2088 C2089 1.287 . S
C2089 C2088 1.287 . S
C2089 C2090 1.524 . S
C2089 H2092 0.999 . S
C2090 H2060 0.950 . S
C2090 C2089 1.524 . S
C2090 C2091 1.415 . S
C2091 H2061 0.950 . S
C2091 C2086 1.363 . S
C2091 C2090 1.415 . S
H2092 C2089 0.999 . S
H2093 C2074 0.913 . S
H2094 C2112 0.951 . S
H2095 C2114 0.951 . S
H2096 C2116 0.950 . S
H2097 C2117 0.950 . S
H2098 C2119 0.950 . S
H2099 C2122 0.950 . S
H2100 C2123 0.950 . S
H2101 C2125 0.950 . S
H2102 C2126 0.950 . S
H2103 C2127 0.951 . S
H2104 C2129 0.951 . S
H2105 C2131 0.950 . S
H2106 C2132 0.950 . S
H2107 C2134 0.950 . S
H2108 C2137 0.950 . S
H2109 C2138 0.950 . S
H2110 C2140 0.950 . S
H2111 C2141 0.950 . S
C2112 H2094 0.951 . S
C2112 C2113 1.366 . S
C2112 C2114 1.388 . S
C2113 C2112 1.366 . S
C2113 C2117 1.385 . S
C2114 H2095 0.951 . S
C2114 C2112 1.388 . S
C2114 C2115 1.366 . S
C2115 C2114 1.366 . S
C2115 C2116 1.414 . S
C2115 C2118 1.499 . S
C2116 H2096 0.950 . S
C2116 C2115 1.414 . S
C2116 C2117 1.374 . S
C2117 H2097 0.950 . S
C2117 C2113 1.385 . S
C2117 C2116 1.374 . S
C2118 C2115 1.499 . S
C2118 C2119 1.373 . S
C2118 C2120 1.389 . S
C2119 H2098 0.950 . S
C2119 C2118 1.373 . S
C2119 C2135 1.377 . S
C2120 C2118 1.389 . S
C2120 C2121 1.524 . S
C2120 C2134 1.377 . S
C2121 C2120 1.524 . S
C2121 C2122 1.397 . S
C2121 C2126 1.363 . S
C2122 H2099 0.950 . S
C2122 C2121 1.397 . S
C2122 C2123 1.334 . S
C2123 H2100 0.950 . S
C2123 C2122 1.334 . S
C2123 C2124 1.287 . S
C2124 C2123 1.287 . S
C2124 C2125 1.524 . S
C2124 H2143 0.913 . S
C2125 H2101 0.950 . S
C2125 C2124 1.524 . S
C2125 C2126 1.415 . S
C2126 H2102 0.950 . S
C2126 C2121 1.363 . S
C2126 C2125 1.415 . S
C2127 H2103 0.951 . S
C2127 C2128 1.366 . S
C2127 C2129 1.388 . S
C2128 C2127 1.366 . S
C2128 C2132 1.385 . S
C2129 H2104 0.951 . S
C2129 C2127 1.388 . S
C2129 C2130 1.366 . S
C2130 C2129 1.366 . S
C2130 C2131 1.414 . S
C2130 C2133 1.499 . S
C2131 H2105 0.950 . S
C2131 C2130 1.414 . S
C2131 C2132 1.374 . S
C2132 H2106 0.950 . S
C2132 C2128 1.385 . S
C2132 C2131 1.374 . S
C2133 C2130 1.499 . S
C2133 C2134 1.373 . S
C2133 C2135 1.389 . S
C2134 H2107 0.950 . S
C2134 C2120 1.377 . S
C2134 C2133 1.373 . S
C2135 C2119 1.377 . S
C2135 C2133 1.389 . S
C2135 C2136 1.524 . S
C2136 C2135 1.524 . S
C2136 C2137 1.397 . S
C2136 C2141 1.363 . S
C2137 H2108 0.950 . S
C2137 C2136 1.397 . S
C2137 C2138 1.334 . S
C2138 H2109 0.950 . S
C2138 C2137 1.334 . S
C2138 C2139 1.287 . S
C2139 C2138 1.287 . S
C2139 C2140 1.524 . S
C2139 H2142 0.999 . S
C2140 H2110 0.950 . S
C2140 C2139 1.524 . S
C2140 C2141 1.415 . S
C2141 H2111 0.950 . S
C2141 C2136 1.363 . S
C2141 C2140 1.415 . S
H2142 C2139 0.999 . S
H2143 C2124 0.913 . S
H2144 C2162 0.951 . S
H2145 C2164 0.951 . S
H2146 C2166 0.950 . S
H2147 C2167 0.950 . S
H2148 C2169 0.950 . S
H2149 C2172 0.950 . S
H2150 C2173 0.950 . S
H2151 C2175 0.950 . S
H2152 C2176 0.950 . S
H2153 C2177 0.951 . S
H2154 C2179 0.951 . S
H2155 C2181 0.950 . S
H2156 C2182 0.950 . S
H2157 C2184 0.950 . S
H2158 C2187 0.950 . S
H2159 C2188 0.950 . S
H2160 C2190 0.950 . S
H2161 C2191 0.950 . S
C2162 H2144 0.951 . S
C2162 C2163 1.366 . S
C2162 C2164 1.388 . S
C2163 C2162 1.366 . S
C2163 C2167 1.385 1_545 S
C2164 H2145 0.951 . S
C2164 C2162 1.388 . S
C2164 C2165 1.366 . S
C2165 C2164 1.366 . S
C2165 C2166 1.414 1_545 S
C2165 C2168 1.499 . S
C2166 H2146 0.950 . S
C2166 C2165 1.414 1_565 S
C2166 C2167 1.374 . S
C2167 H2147 0.950 . S
C2167 C2163 1.385 1_565 S
C2167 C2166 1.374 . S
C2168 C2165 1.499 . S
C2168 C2169 1.373 1_545 S
C2168 C2170 1.389 . S
C2169 H2148 0.950 . S
C2169 C2168 1.373 1_565 S
C2169 C2185 1.377 . S
C2170 C2168 1.389 . S
C2170 C2171 1.524 . S
C2170 C2184 1.377 . S
C2171 C2170 1.524 . S
C2171 C2172 1.397 . S
C2171 C2176 1.363 . S
C2172 H2149 0.950 . S
C2172 C2171 1.397 . S
C2172 C2173 1.334 . S
C2173 H2150 0.950 . S
C2173 C2172 1.334 . S
C2173 C2174 1.287 . S
C2174 C2173 1.287 . S
C2174 C2175 1.524 . S
C2174 H2193 0.913 . S
C2175 H2151 0.950 . S
C2175 C2174 1.524 . S
C2175 C2176 1.415 . S
C2176 H2152 0.950 . S
C2176 C2171 1.363 . S
C2176 C2175 1.415 . S
C2177 H2153 0.951 . S
C2177 C2178 1.366 . S
C2177 C2179 1.388 . S
C2178 C2177 1.366 . S
C2178 C2182 1.385 1_565 S
C2179 H2154 0.951 . S
C2179 C2177 1.388 . S
C2179 C2180 1.366 . S
C2180 C2179 1.366 . S
C2180 C2181 1.414 1_565 S
C2180 C2183 1.499 . S
C2181 H2155 0.950 . S
C2181 C2180 1.414 1_545 S
C2181 C2182 1.374 . S
C2182 H2156 0.950 . S
C2182 C2178 1.385 1_545 S
C2182 C2181 1.374 . S
C2183 C2180 1.499 . S
C2183 C2184 1.373 1_565 S
C2183 C2185 1.389 . S
C2184 H2157 0.950 . S
C2184 C2170 1.377 . S
C2184 C2183 1.373 1_545 S
C2185 C2169 1.377 . S
C2185 C2183 1.389 . S
C2185 C2186 1.524 . S
C2186 C2185 1.524 . S
C2186 C2187 1.397 . S
C2186 C2191 1.363 . S
C2187 H2158 0.950 . S
C2187 C2186 1.397 . S
C2187 C2188 1.334 . S
C2188 H2159 0.950 . S
C2188 C2187 1.334 . S
C2188 C2189 1.287 . S
C2189 C2188 1.287 . S
C2189 C2190 1.524 . S
C2189 H2192 0.999 . S
C2190 H2160 0.950 . S
C2190 C2189 1.524 . S
C2190 C2191 1.415 . S
C2191 H2161 0.950 . S
C2191 C2186 1.363 . S
C2191 C2190 1.415 . S
H2192 C2189 0.999 . S
H2193 C2174 0.913 . S
H2194 C2212 0.951 . S
H2195 C2214 0.951 . S
H2196 C2216 0.950 . S
H2197 C2217 0.950 1_565 S
H2198 C2219 0.950 . S
H2199 C2222 0.950 . S
H2200 C2223 0.950 . S
H2201 C2225 0.950 . S
H2202 C2226 0.950 . S
H2203 C2227 0.951 . S
H2204 C2229 0.951 . S
H2205 C2231 0.950 . S
H2206 C2232 0.950 1_545 S
H2207 C2234 0.950 . S
H2208 C2237 0.950 . S
H2209 C2238 0.950 . S
H2210 C2240 0.950 . S
H2211 C2241 0.950 . S
C2212 H2194 0.951 . S
C2212 C2213 1.366 . S
C2212 C2214 1.388 . S
C2213 C2212 1.366 . S
C2213 C2217 1.385 . S
C2214 H2195 0.951 . S
C2214 C2212 1.388 . S
C2214 C2215 1.366 . S
C2215 C2214 1.366 . S
C2215 C2216 1.414 1_545 S
C2215 C2218 1.499 . S
C2216 H2196 0.950 . S
C2216 C2215 1.414 1_565 S
C2216 C2217 1.374 1_565 S
C2217 H2197 0.950 1_545 S
C2217 C2213 1.385 . S
C2217 C2216 1.374 1_545 S
C2218 C2215 1.499 . S
C2218 C2219 1.373 1_545 S
C2218 C2220 1.389 . S
C2219 H2198 0.950 . S
C2219 C2218 1.373 1_565 S
C2219 C2235 1.377 . S
C2220 C2218 1.389 . S
C2220 C2221 1.524 . S
C2220 C2234 1.377 . S
C2221 C2220 1.524 . S
C2221 C2222 1.397 . S
C2221 C2226 1.363 . S
C2222 H2199 0.950 . S
C2222 C2221 1.397 . S
C2222 C2223 1.334 . S
C2223 H2200 0.950 . S
C2223 C2222 1.334 . S
C2223 C2224 1.287 . S
C2224 C2223 1.287 . S
C2224 C2225 1.524 . S
C2224 H2243 0.913 . S
C2225 H2201 0.950 . S
C2225 C2224 1.524 . S
C2225 C2226 1.415 . S
C2226 H2202 0.950 . S
C2226 C2221 1.363 . S
C2226 C2225 1.415 . S
C2227 H2203 0.951 . S
C2227 C2228 1.366 . S
C2227 C2229 1.388 . S
C2228 C2227 1.366 . S
C2228 C2232 1.385 . S
C2229 H2204 0.951 . S
C2229 C2227 1.388 . S
C2229 C2230 1.366 . S
C2230 C2229 1.366 . S
C2230 C2231 1.414 1_565 S
C2230 C2233 1.499 . S
C2231 H2205 0.950 . S
C2231 C2230 1.414 1_545 S
C2231 C2232 1.374 1_545 S
C2232 H2206 0.950 1_565 S
C2232 C2228 1.385 . S
C2232 C2231 1.374 1_565 S
C2233 C2230 1.499 . S
C2233 C2234 1.373 1_565 S
C2233 C2235 1.389 . S
C2234 H2207 0.950 . S
C2234 C2220 1.377 . S
C2234 C2233 1.373 1_545 S
C2235 C2219 1.377 . S
C2235 C2233 1.389 . S
C2235 C2236 1.524 . S
C2236 C2235 1.524 . S
C2236 C2237 1.397 . S
C2236 C2241 1.363 . S
C2237 H2208 0.950 . S
C2237 C2236 1.397 . S
C2237 C2238 1.334 . S
C2238 H2209 0.950 . S
C2238 C2237 1.334 . S
C2238 C2239 1.287 . S
C2239 C2238 1.287 . S
C2239 C2240 1.524 . S
C2239 H2242 0.999 . S
C2240 H2210 0.950 . S
C2240 C2239 1.524 . S
C2240 C2241 1.415 . S
C2241 H2211 0.950 . S
C2241 C2236 1.363 . S
C2241 C2240 1.415 . S
H2242 C2239 0.999 . S
H2243 C2224 0.913 . S
H2244 C2262 0.951 . S
H2245 C2264 0.951 . S
H2246 C2266 0.950 . S
H2247 C2267 0.950 . S
H2248 C2269 0.950 . S
H2249 C2272 0.950 . S
H2250 C2273 0.950 . S
H2251 C2275 0.950 . S
H2252 C2276 0.950 . S
H2253 C2277 0.951 . S
H2254 C2279 0.951 . S
H2255 C2281 0.950 . S
H2256 C2282 0.950 . S
H2257 C2284 0.950 . S
H2258 C2287 0.950 . S
H2259 C2288 0.950 . S
H2260 C2290 0.950 . S
H2261 C2291 0.950 . S
C2262 H2244 0.951 . S
C2262 C2263 1.366 . S
C2262 C2264 1.388 . S
C2263 C2262 1.366 . S
C2263 C2267 1.385 1_545 S
C2264 H2245 0.951 . S
C2264 C2262 1.388 . S
C2264 C2265 1.366 . S
C2265 C2264 1.366 . S
C2265 C2266 1.414 1_545 S
C2265 C2268 1.499 . S
C2266 H2246 0.950 . S
C2266 C2265 1.414 1_565 S
C2266 C2267 1.374 . S
C2267 H2247 0.950 . S
C2267 C2263 1.385 1_565 S
C2267 C2266 1.374 . S
C2268 C2265 1.499 . S
C2268 C2269 1.373 1_545 S
C2268 C2270 1.389 . S
C2269 H2248 0.950 . S
C2269 C2268 1.373 1_565 S
C2269 C2285 1.377 . S
C2270 C2268 1.389 . S
C2270 C2271 1.524 . S
C2270 C2284 1.377 . S
C2271 C2270 1.524 . S
C2271 C2272 1.397 . S
C2271 C2276 1.363 . S
C2272 H2249 0.950 . S
C2272 C2271 1.397 . S
C2272 C2273 1.334 . S
C2273 H2250 0.950 . S
C2273 C2272 1.334 . S
C2273 C2274 1.287 . S
C2274 C2273 1.287 . S
C2274 C2275 1.524 . S
C2274 H2293 0.913 . S
C2275 H2251 0.950 . S
C2275 C2274 1.524 . S
C2275 C2276 1.415 . S
C2276 H2252 0.950 . S
C2276 C2271 1.363 . S
C2276 C2275 1.415 . S
C2277 H2253 0.951 . S
C2277 C2278 1.366 . S
C2277 C2279 1.388 . S
C2278 C2277 1.366 . S
C2278 C2282 1.385 1_565 S
C2279 H2254 0.951 . S
C2279 C2277 1.388 . S
C2279 C2280 1.366 . S
C2280 C2279 1.366 . S
C2280 C2281 1.414 1_565 S
C2280 C2283 1.499 . S
C2281 H2255 0.950 . S
C2281 C2280 1.414 1_545 S
C2281 C2282 1.374 . S
C2282 H2256 0.950 . S
C2282 C2278 1.385 1_545 S
C2282 C2281 1.374 . S
C2283 C2280 1.499 . S
C2283 C2284 1.373 1_565 S
C2283 C2285 1.389 . S
C2284 H2257 0.950 . S
C2284 C2270 1.377 . S
C2284 C2283 1.373 1_545 S
C2285 C2269 1.377 . S
C2285 C2283 1.389 . S
C2285 C2286 1.524 . S
C2286 C2285 1.524 . S
C2286 C2287 1.397 . S
C2286 C2291 1.363 . S
C2287 H2258 0.950 . S
C2287 C2286 1.397 . S
C2287 C2288 1.334 . S
C2288 H2259 0.950 . S
C2288 C2287 1.334 . S
C2288 C2289 1.287 . S
C2289 C2288 1.287 . S
C2289 C2290 1.524 . S
C2289 H2292 0.999 . S
C2290 H2260 0.950 . S
C2290 C2289 1.524 . S
C2290 C2291 1.415 . S
C2291 H2261 0.950 . S
C2291 C2286 1.363 . S
C2291 C2290 1.415 . S
H2292 C2289 0.999 . S
H2293 C2274 0.913 . S
H2294 C2312 0.951 . S
H2295 C2314 0.951 . S
H2296 C2316 0.950 . S
H2297 C2317 0.950 . S
H2298 C2319 0.950 . S
H2299 C2322 0.950 . S
H2300 C2323 0.950 . S
H2301 C2325 0.950 . S
H2302 C2326 0.950 . S
H2303 C2327 0.951 . S
H2304 C2329 0.951 . S
H2305 C2331 0.950 . S
H2306 C2332 0.950 . S
H2307 C2334 0.950 . S
H2308 C2337 0.950 . S
H2309 C2338 0.950 . S
H2310 C2340 0.950 . S
H2311 C2341 0.950 . S
C2312 H2294 0.951 . S
C2312 C2313 1.366 . S
C2312 C2314 1.388 . S
C2313 C2312 1.366 . S
C2313 C2317 1.385 . S
C2314 H2295 0.951 . S
C2314 C2312 1.388 . S
C2314 C2315 1.366 . S
C2315 C2314 1.366 . S
C2315 C2316 1.414 . S
C2315 C2318 1.499 . S
C2316 H2296 0.950 . S
C2316 C2315 1.414 . S
C2316 C2317 1.374 . S
C2317 H2297 0.950 . S
C2317 C2313 1.385 . S
C2317 C2316 1.374 . S
C2318 C2315 1.499 . S
C2318 C2319 1.373 . S
C2318 C2320 1.389 1_565 S
C2319 H2298 0.950 . S
C2319 C2318 1.373 . S
C2319 C2335 1.377 . S
C2320 C2318 1.389 1_545 S
C2320 C2321 1.524 . S
C2320 C2334 1.377 . S
C2321 C2320 1.524 . S
C2321 C2322 1.397 . S
C2321 C2326 1.363 . S
C2322 H2299 0.950 . S
C2322 C2321 1.397 . S
C2322 C2323 1.334 . S
C2323 H2300 0.950 . S
C2323 C2322 1.334 . S
C2323 C2324 1.287 . S
C2324 C2323 1.287 . S
C2324 C2325 1.524 . S
C2324 H2343 0.913 . S
C2325 H2301 0.950 . S
C2325 C2324 1.524 . S
C2325 C2326 1.415 . S
C2326 H2302 0.950 . S
C2326 C2321 1.363 . S
C2326 C2325 1.415 . S
C2327 H2303 0.951 . S
C2327 C2328 1.366 . S
C2327 C2329 1.388 . S
C2328 C2327 1.366 . S
C2328 C2332 1.385 . S
C2329 H2304 0.951 . S
C2329 C2327 1.388 . S
C2329 C2330 1.366 . S
C2330 C2329 1.366 . S
C2330 C2331 1.414 . S
C2330 C2333 1.499 . S
C2331 H2305 0.950 . S
C2331 C2330 1.414 . S
C2331 C2332 1.374 . S
C2332 H2306 0.950 . S
C2332 C2328 1.385 . S
C2332 C2331 1.374 . S
C2333 C2330 1.499 . S
C2333 C2334 1.373 . S
C2333 C2335 1.389 1_545 S
C2334 H2307 0.950 . S
C2334 C2320 1.377 . S
C2334 C2333 1.373 . S
C2335 C2319 1.377 . S
C2335 C2333 1.389 1_565 S
C2335 C2336 1.524 . S
C2336 C2335 1.524 . S
C2336 C2337 1.397 . S
C2336 C2341 1.363 . S
C2337 H2308 0.950 . S
C2337 C2336 1.397 . S
C2337 C2338 1.334 . S
C2338 H2309 0.950 . S
C2338 C2337 1.334 . S
C2338 C2339 1.287 . S
C2339 C2338 1.287 . S
C2339 C2340 1.524 . S
C2339 H2342 0.999 . S
C2340 H2310 0.950 . S
C2340 C2339 1.524 . S
C2340 C2341 1.415 . S
C2341 H2311 0.950 . S
C2341 C2336 1.363 . S
C2341 C2340 1.415 . S
H2342 C2339 0.999 . S
H2343 C2324 0.913 . S
H2344 C2362 0.951 . S
H2345 C2364 0.951 . S
H2346 C2366 0.950 . S
H2347 C2367 0.950 . S
H2348 C2369 0.950 . S
H2349 C2372 0.950 . S
H2350 C2373 0.950 . S
H2351 C2375 0.950 . S
H2352 C2376 0.950 . S
H2353 C2377 0.951 . S
H2354 C2379 0.951 . S
H2355 C2381 0.950 . S
H2356 C2382 0.950 . S
H2357 C2384 0.950 . S
H2358 C2387 0.950 . S
H2359 C2388 0.950 . S
H2360 C2390 0.950 . S
H2361 C2391 0.950 . S
C2362 H2344 0.951 . S
C2362 C2363 1.366 . S
C2362 C2364 1.388 . S
C2363 C2362 1.366 . S
C2363 C2367 1.385 . S
C2364 H2345 0.951 . S
C2364 C2362 1.388 . S
C2364 C2365 1.366 . S
C2365 C2364 1.366 . S
C2365 C2366 1.414 . S
C2365 C2368 1.499 . S
C2366 H2346 0.950 . S
C2366 C2365 1.414 . S
C2366 C2367 1.374 . S
C2367 H2347 0.950 . S
C2367 C2363 1.385 . S
C2367 C2366 1.374 . S
C2368 C2365 1.499 . S
C2368 C2369 1.373 . S
C2368 C2370 1.389 . S
C2369 H2348 0.950 . S
C2369 C2368 1.373 . S
C2369 C2385 1.377 . S
C2370 C2368 1.389 . S
C2370 C2371 1.524 . S
C2370 C2384 1.377 . S
C2371 C2370 1.524 . S
C2371 C2372 1.397 . S
C2371 C2376 1.363 . S
C2372 H2349 0.950 . S
C2372 C2371 1.397 . S
C2372 C2373 1.334 . S
C2373 H2350 0.950 . S
C2373 C2372 1.334 . S
C2373 C2374 1.287 . S
C2374 C2373 1.287 . S
C2374 C2375 1.524 . S
C2374 H2393 0.913 . S
C2375 H2351 0.950 . S
C2375 C2374 1.524 . S
C2375 C2376 1.415 . S
C2376 H2352 0.950 . S
C2376 C2371 1.363 . S
C2376 C2375 1.415 . S
C2377 H2353 0.951 . S
C2377 C2378 1.366 . S
C2377 C2379 1.388 . S
C2378 C2377 1.366 . S
C2378 C2382 1.385 . S
C2379 H2354 0.951 . S
C2379 C2377 1.388 . S
C2379 C2380 1.366 . S
C2380 C2379 1.366 . S
C2380 C2381 1.414 . S
C2380 C2383 1.499 . S
C2381 H2355 0.950 . S
C2381 C2380 1.414 . S
C2381 C2382 1.374 . S
C2382 H2356 0.950 . S
C2382 C2378 1.385 . S
C2382 C2381 1.374 . S
C2383 C2380 1.499 . S
C2383 C2384 1.373 . S
C2383 C2385 1.389 . S
C2384 H2357 0.950 . S
C2384 C2370 1.377 . S
C2384 C2383 1.373 . S
C2385 C2369 1.377 . S
C2385 C2383 1.389 . S
C2385 C2386 1.524 . S
C2386 C2385 1.524 . S
C2386 C2387 1.397 . S
C2386 C2391 1.363 . S
C2387 H2358 0.950 . S
C2387 C2386 1.397 . S
C2387 C2388 1.334 . S
C2388 H2359 0.950 . S
C2388 C2387 1.334 . S
C2388 C2389 1.287 . S
C2389 C2388 1.287 . S
C2389 C2390 1.524 . S
C2389 H2392 0.999 . S
C2390 H2360 0.950 . S
C2390 C2389 1.524 . S
C2390 C2391 1.415 . S
C2391 H2361 0.950 . S
C2391 C2386 1.363 . S
C2391 C2390 1.415 . S
H2392 C2389 0.999 . S
H2393 C2374 0.913 . S
H2394 C2412 0.951 . S
H2395 C2414 0.951 . S
H2396 C2416 0.950 . S
H2397 C2417 0.950 . S
H2398 C2419 0.950 . S
H2399 C2422 0.950 . S
H2400 C2423 0.950 . S
H2401 C2425 0.950 . S
H2402 C2426 0.950 . S
H2403 C2427 0.951 . S
H2404 C2429 0.951 . S
H2405 C2431 0.950 . S
H2406 C2432 0.950 . S
H2407 C2434 0.950 . S
H2408 C2437 0.950 . S
H2409 C2438 0.950 . S
H2410 C2440 0.950 . S
H2411 C2441 0.950 . S
C2412 H2394 0.951 . S
C2412 C2413 1.366 . S
C2412 C2414 1.388 . S
C2413 C2412 1.366 . S
C2413 C2417 1.385 . S
C2414 H2395 0.951 . S
C2414 C2412 1.388 . S
C2414 C2415 1.366 . S
C2415 C2414 1.366 . S
C2415 C2416 1.414 . S
C2415 C2418 1.499 . S
C2416 H2396 0.950 . S
C2416 C2415 1.414 . S
C2416 C2417 1.374 . S
C2417 H2397 0.950 . S
C2417 C2413 1.385 . S
C2417 C2416 1.374 . S
C2418 C2415 1.499 . S
C2418 C2419 1.373 . S
C2418 C2420 1.389 . S
C2419 H2398 0.950 . S
C2419 C2418 1.373 . S
C2419 C2435 1.377 . S
C2420 C2418 1.389 . S
C2420 C2421 1.524 . S
C2420 C2434 1.377 . S
C2421 C2420 1.524 . S
C2421 C2422 1.397 . S
C2421 C2426 1.363 . S
C2422 H2399 0.950 . S
C2422 C2421 1.397 . S
C2422 C2423 1.334 . S
C2423 H2400 0.950 . S
C2423 C2422 1.334 . S
C2423 C2424 1.287 . S
C2424 C2423 1.287 . S
C2424 C2425 1.524 . S
C2424 H2443 0.913 . S
C2425 H2401 0.950 . S
C2425 C2424 1.524 . S
C2425 C2426 1.415 . S
C2426 H2402 0.950 . S
C2426 C2421 1.363 . S
C2426 C2425 1.415 . S
C2427 H2403 0.951 . S
C2427 C2428 1.366 . S
C2427 C2429 1.388 . S
C2428 C2427 1.366 . S
C2428 C2432 1.385 . S
C2429 H2404 0.951 . S
C2429 C2427 1.388 . S
C2429 C2430 1.366 . S
C2430 C2429 1.366 . S
C2430 C2431 1.414 . S
C2430 C2433 1.499 . S
C2431 H2405 0.950 . S
C2431 C2430 1.414 . S
C2431 C2432 1.374 . S
C2432 H2406 0.950 . S
C2432 C2428 1.385 . S
C2432 C2431 1.374 . S
C2433 C2430 1.499 . S
C2433 C2434 1.373 . S
C2433 C2435 1.389 . S
C2434 H2407 0.950 . S
C2434 C2420 1.377 . S
C2434 C2433 1.373 . S
C2435 C2419 1.377 . S
C2435 C2433 1.389 . S
C2435 C2436 1.524 . S
C2436 C2435 1.524 . S
C2436 C2437 1.397 . S
C2436 C2441 1.363 . S
C2437 H2408 0.950 . S
C2437 C2436 1.397 . S
C2437 C2438 1.334 . S
C2438 H2409 0.950 . S
C2438 C2437 1.334 . S
C2438 C2439 1.287 . S
C2439 C2438 1.287 . S
C2439 C2440 1.524 . S
C2439 H2442 0.999 . S
C2440 H2410 0.950 . S
C2440 C2439 1.524 . S
C2440 C2441 1.415 . S
C2441 H2411 0.950 . S
C2441 C2436 1.363 . S
C2441 C2440 1.415 . S
H2442 C2439 0.999 . S
H2443 C2424 0.913 . S
H2444 C2462 0.951 . S
H2445 C2464 0.951 . S
H2446 C2466 0.950 . S
H2447 C2467 0.950 . S
H2448 C2469 0.950 . S
H2449 C2472 0.950 . S
H2450 C2473 0.950 . S
H2451 C2475 0.950 . S
H2452 C2476 0.950 . S
H2453 C2477 0.951 . S
H2454 C2479 0.951 . S
H2455 C2481 0.950 . S
H2456 C2482 0.950 . S
H2457 C2484 0.950 . S
H2458 C2487 0.950 . S
H2459 C2488 0.950 . S
H2460 C2490 0.950 . S
H2461 C2491 0.950 . S
C2462 H2444 0.951 . S
C2462 C2463 1.366 . S
C2462 C2464 1.388 . S
C2463 C2462 1.366 . S
C2463 C2467 1.385 . S
C2464 H2445 0.951 . S
C2464 C2462 1.388 . S
C2464 C2465 1.366 . S
C2465 C2464 1.366 . S
C2465 C2466 1.414 . S
C2465 C2468 1.499 . S
C2466 H2446 0.950 . S
C2466 C2465 1.414 . S
C2466 C2467 1.374 . S
C2467 H2447 0.950 . S
C2467 C2463 1.385 . S
C2467 C2466 1.374 . S
C2468 C2465 1.499 . S
C2468 C2469 1.373 . S
C2468 C2470 1.389 . S
C2469 H2448 0.950 . S
C2469 C2468 1.373 . S
C2469 C2485 1.377 . S
C2470 C2468 1.389 . S
C2470 C2471 1.524 . S
C2470 C2484 1.377 . S
C2471 C2470 1.524 . S
C2471 C2472 1.397 . S
C2471 C2476 1.363 . S
C2472 H2449 0.950 . S
C2472 C2471 1.397 . S
C2472 C2473 1.334 . S
C2473 H2450 0.950 . S
C2473 C2472 1.334 . S
C2473 C2474 1.287 . S
C2474 C2473 1.287 . S
C2474 C2475 1.524 . S
C2474 H2493 0.913 . S
C2475 H2451 0.950 . S
C2475 C2474 1.524 . S
C2475 C2476 1.415 . S
C2476 H2452 0.950 . S
C2476 C2471 1.363 . S
C2476 C2475 1.415 . S
C2477 H2453 0.951 . S
C2477 C2478 1.366 . S
C2477 C2479 1.388 . S
C2478 C2477 1.366 . S
C2478 C2482 1.385 . S
C2479 H2454 0.951 . S
C2479 C2477 1.388 . S
C2479 C2480 1.366 . S
C2480 C2479 1.366 . S
C2480 C2481 1.414 . S
C2480 C2483 1.499 . S
C2481 H2455 0.950 . S
C2481 C2480 1.414 . S
C2481 C2482 1.374 . S
C2482 H2456 0.950 . S
C2482 C2478 1.385 . S
C2482 C2481 1.374 . S
C2483 C2480 1.499 . S
C2483 C2484 1.373 . S
C2483 C2485 1.389 . S
C2484 H2457 0.950 . S
C2484 C2470 1.377 . S
C2484 C2483 1.373 . S
C2485 C2469 1.377 . S
C2485 C2483 1.389 . S
C2485 C2486 1.524 . S
C2486 C2485 1.524 . S
C2486 C2487 1.397 . S
C2486 C2491 1.363 . S
C2487 H2458 0.950 . S
C2487 C2486 1.397 . S
C2487 C2488 1.334 . S
C2488 H2459 0.950 . S
C2488 C2487 1.334 . S
C2488 C2489 1.287 . S
C2489 C2488 1.287 . S
C2489 C2490 1.524 . S
C2489 H2492 0.999 . S
C2490 H2460 0.950 . S
C2490 C2489 1.524 . S
C2490 C2491 1.415 . S
C2491 H2461 0.950 . S
C2491 C2486 1.363 . S
C2491 C2490 1.415 . S
H2492 C2489 0.999 . S
H2493 C2474 0.913 . S
H2494 C2512 0.951 . S
H2495 C2514 0.951 . S
H2496 C2516 0.950 . S
H2497 C2517 0.950 . S
H2498 C2519 0.950 . S
H2499 C2522 0.950 . S
H2500 C2523 0.950 . S
H2501 C2525 0.950 . S
H2502 C2526 0.950 . S
H2503 C2527 0.951 . S
H2504 C2529 0.951 . S
H2505 C2531 0.950 . S
H2506 C2532 0.950 . S
H2507 C2534 0.950 . S
H2508 C2537 0.950 . S
H2509 C2538 0.950 . S
H2510 C2540 0.950 . S
H2511 C2541 0.950 . S
C2512 H2494 0.951 . S
C2512 C2513 1.366 . S
C2512 C2514 1.388 . S
C2513 C2512 1.366 . S
C2513 C2517 1.385 . S
C2514 H2495 0.951 . S
C2514 C2512 1.388 . S
C2514 C2515 1.366 . S
C2515 C2514 1.366 . S
C2515 C2516 1.414 . S
C2515 C2518 1.499 . S
C2516 H2496 0.950 . S
C2516 C2515 1.414 . S
C2516 C2517 1.374 . S
C2517 H2497 0.950 . S
C2517 C2513 1.385 . S
C2517 C2516 1.374 . S
C2518 C2515 1.499 . S
C2518 C2519 1.373 . S
C2518 C2520 1.389 . S
C2519 H2498 0.950 . S
C2519 C2518 1.373 . S
C2519 C2535 1.377 . S
C2520 C2518 1.389 . S
C2520 C2521 1.524 . S
C2520 C2534 1.377 . S
C2521 C2520 1.524 . S
C2521 C2522 1.397 . S
C2521 C2526 1.363 . S
C2522 H2499 0.950 . S
C2522 C2521 1.397 . S
C2522 C2523 1.334 . S
C2523 H2500 0.950 . S
C2523 C2522 1.334 . S
C2523 C2524 1.287 . S
C2524 C2523 1.287 . S
C2524 C2525 1.524 . S
C2524 H2543 0.913 . S
C2525 H2501 0.950 . S
C2525 C2524 1.524 . S
C2525 C2526 1.415 . S
C2526 H2502 0.950 . S
C2526 C2521 1.363 . S
C2526 C2525 1.415 . S
C2527 H2503 0.951 . S
C2527 C2528 1.366 . S
C2527 C2529 1.388 . S
C2528 C2527 1.366 . S
C2528 C2532 1.385 . S
C2529 H2504 0.951 . S
C2529 C2527 1.388 . S
C2529 C2530 1.366 . S
C2530 C2529 1.366 . S
C2530 C2531 1.414 . S
C2530 C2533 1.499 . S
C2531 H2505 0.950 . S
C2531 C2530 1.414 . S
C2531 C2532 1.374 . S
C2532 H2506 0.950 . S
C2532 C2528 1.385 . S
C2532 C2531 1.374 . S
C2533 C2530 1.499 . S
C2533 C2534 1.373 . S
C2533 C2535 1.389 . S
C2534 H2507 0.950 . S
C2534 C2520 1.377 . S
C2534 C2533 1.373 . S
C2535 C2519 1.377 . S
C2535 C2533 1.389 . S
C2535 C2536 1.524 . S
C2536 C2535 1.524 . S
C2536 C2537 1.397 . S
C2536 C2541 1.363 . S
C2537 H2508 0.950 . S
C2537 C2536 1.397 . S
C2537 C2538 1.334 . S
C2538 H2509 0.950 . S
C2538 C2537 1.334 . S
C2538 C2539 1.287 . S
C2539 C2538 1.287 . S
C2539 C2540 1.524 . S
C2539 H2542 0.999 . S
C2540 H2510 0.950 . S
C2540 C2539 1.524 . S
C2540 C2541 1.415 . S
C2541 H2511 0.950 . S
C2541 C2536 1.363 . S
C2541 C2540 1.415 . S
H2542 C2539 0.999 . S
H2543 C2524 0.913 . S
C963 C3 1.311 . S
C978 C298 1.311 . S
C1013 C239 1.311 . S
C1028 C62 1.311 . S
C1063 C121 1.311 . S
C1078 C416 1.311 . S
C1113 C357 1.311 . S
C1128 C180 1.311 . S
C1163 C770 1.311 . S
C1178 C475 1.311 . S
C1213 C711 1.311 . S
C1228 C534 1.311 . S
C1263 C888 1.311 . S
C1278 C593 1.310 . S
C1313 C652 1.311 . S
C1328 C829 1.310 . S
C1363 C111 1.492 . S
C1378 C52 1.492 . S
C1413 C170 1.492 . S
C1428 C229 1.492 . S
C1463 C288 1.492 . S
C1478 C347 1.492 . S
C1513 C406 1.492 . S
C1528 C465 1.492 . S
C1563 C524 1.493 . S
C1578 C583 1.492 . S
C1613 C701 1.492 . S
C1628 C642 1.492 . S
C1663 C819 1.492 . S
C1678 C760 1.492 . S
C1713 C878 1.492 . S
C1728 C937 1.492 . S
C1763 C536 1.489 . S
C1778 C5 1.489 . S
C1813 C64 1.489 . S
C1828 C477 1.489 . S
C1863 C654 1.489 . S
C1878 C123 1.489 . S
C1913 C182 1.489 . S
C1928 C595 1.489 . S
C1963 C241 1.489 . S
C1978 C772 1.489 . S
C2013 C713 1.489 . S
C2028 C300 1.489 . S
C2063 C359 1.489 . S
C2078 C890 1.489 . S
C2113 C831 1.489 . S
C2128 C418 1.489 . S
C2163 C33 1.184 . S
C2178 C151 1.185 . S
C2213 C210 1.184 . S
C2228 C92 1.184 . S
C2263 C387 1.185 . S
C2278 C269 1.184 . S
C2313 C446 1.184 . S
C2328 C328 1.183 . S
C2363 C623 1.184 . S
C2378 C505 1.184 . S
C2413 C564 1.184 . S
C2428 C682 1.183 . S
C2463 C859 1.185 . S
C2478 C741 1.184 . S
C2513 C800 1.184 . S
C2528 C918 1.184 . S
