# Generated by pormake.
# Topology unv, (4)-cn, num edge types: 1
# Building blocks:
#     Node 0, Type 0, BuildingBlock: AZAVOO_clean_sbu_0, # of connection points: 4
#     Node 1, Type 0, BuildingBlock: AZAVOO_clean_sbu_0, # of connection points: 4
#     Node 2, Type 0, BuildingBlock: AZAVOO_clean_sbu_0, # of connection points: 4
#     Node 3, Type 0, BuildingBlock: AZAVOO_clean_sbu_0, # of connection points: 4
#     Node 4, Type 0, BuildingBlock: AZAVOO_clean_sbu_0, # of connection points: 4
#     Node 5, Type 0, BuildingBlock: AZAVOO_clean_sbu_0, # of connection points: 4
#     Node 6, Type 0, BuildingBlock: AZAVOO_clean_sbu_0, # of connection points: 4
#     Node 7, Type 0, BuildingBlock: AZAVOO_clean_sbu_0, # of connection points: 4
#     Node 8, Type 0, BuildingBlock: AZAVOO_clean_sbu_0, # of connection points: 4
#     Node 9, Type 0, BuildingBlock: AZAVOO_clean_sbu_0, # of connection points: 4
#     Node 10, Type 0, BuildingBlock: AZAVOO_clean_sbu_0, # of connection points: 4
#     Node 11, Type 0, BuildingBlock: AZAVOO_clean_sbu_0, # of connection points: 4
#     Node 12, Type 0, BuildingBlock: AZAVOO_clean_sbu_0, # of connection points: 4
#     Node 13, Type 0, BuildingBlock: AZAVOO_clean_sbu_0, # of connection points: 4
#     Node 14, Type 0, BuildingBlock: AZAVOO_clean_sbu_0, # of connection points: 4
#     Node 15, Type 0, BuildingBlock: AZAVOO_clean_sbu_0, # of connection points: 4
#     Node 16, Type 0, BuildingBlock: AZAVOO_clean_sbu_0, # of connection points: 4
#     Node 17, Type 0, BuildingBlock: AZAVOO_clean_sbu_0, # of connection points: 4
#     Node 18, Type 0, BuildingBlock: AZAVOO_clean_sbu_0, # of connection points: 4
#     Node 19, Type 0, BuildingBlock: AZAVOO_clean_sbu_0, # of connection points: 4
#     Node 20, Type 0, BuildingBlock: AZAVOO_clean_sbu_0, # of connection points: 4
#     Node 21, Type 0, BuildingBlock: AZAVOO_clean_sbu_0, # of connection points: 4
#     Node 22, Type 0, BuildingBlock: AZAVOO_clean_sbu_0, # of connection points: 4
#     Node 23, Type 0, BuildingBlock: AZAVOO_clean_sbu_0, # of connection points: 4
#     Edge 24, Type (0, 0), BuildingBlock: TEMPAE_clean_linker_10, # of connection points: 2
#     Edge 25, Type (0, 0), BuildingBlock: TEMPAE_clean_linker_10, # of connection points: 2
#     Edge 26, Type (0, 0), BuildingBlock: TEMPAE_clean_linker_10, # of connection points: 2
#     Edge 27, Type (0, 0), BuildingBlock: TEMPAE_clean_linker_10, # of connection points: 2
#     Edge 28, Type (0, 0), BuildingBlock: TEMPAE_clean_linker_10, # of connection points: 2
#     Edge 29, Type (0, 0), BuildingBlock: TEMPAE_clean_linker_10, # of connection points: 2
#     Edge 30, Type (0, 0), BuildingBlock: TEMPAE_clean_linker_10, # of connection points: 2
#     Edge 31, Type (0, 0), BuildingBlock: TEMPAE_clean_linker_10, # of connection points: 2
#     Edge 32, Type (0, 0), BuildingBlock: TEMPAE_clean_linker_10, # of connection points: 2
#     Edge 33, Type (0, 0), BuildingBlock: TEMPAE_clean_linker_10, # of connection points: 2
#     Edge 34, Type (0, 0), BuildingBlock: TEMPAE_clean_linker_10, # of connection points: 2
#     Edge 35, Type (0, 0), BuildingBlock: TEMPAE_clean_linker_10, # of connection points: 2
#     Edge 36, Type (0, 0), BuildingBlock: TEMPAE_clean_linker_10, # of connection points: 2
#     Edge 37, Type (0, 0), BuildingBlock: TEMPAE_clean_linker_10, # of connection points: 2
#     Edge 38, Type (0, 0), BuildingBlock: TEMPAE_clean_linker_10, # of connection points: 2
#     Edge 39, Type (0, 0), BuildingBlock: TEMPAE_clean_linker_10, # of connection points: 2
#     Edge 40, Type (0, 0), BuildingBlock: TEMPAE_clean_linker_10, # of connection points: 2
#     Edge 41, Type (0, 0), BuildingBlock: TEMPAE_clean_linker_10, # of connection points: 2
#     Edge 42, Type (0, 0), BuildingBlock: TEMPAE_clean_linker_10, # of connection points: 2
#     Edge 43, Type (0, 0), BuildingBlock: TEMPAE_clean_linker_10, # of connection points: 2
#     Edge 44, Type (0, 0), BuildingBlock: TEMPAE_clean_linker_10, # of connection points: 2
#     Edge 45, Type (0, 0), BuildingBlock: TEMPAE_clean_linker_10, # of connection points: 2
#     Edge 46, Type (0, 0), BuildingBlock: TEMPAE_clean_linker_10, # of connection points: 2
#     Edge 47, Type (0, 0), BuildingBlock: TEMPAE_clean_linker_10, # of connection points: 2
#     Edge 48, Type (0, 0), BuildingBlock: TEMPAE_clean_linker_10, # of connection points: 2
#     Edge 49, Type (0, 0), BuildingBlock: TEMPAE_clean_linker_10, # of connection points: 2
#     Edge 50, Type (0, 0), BuildingBlock: TEMPAE_clean_linker_10, # of connection points: 2
#     Edge 51, Type (0, 0), BuildingBlock: TEMPAE_clean_linker_10, # of connection points: 2
#     Edge 52, Type (0, 0), BuildingBlock: TEMPAE_clean_linker_10, # of connection points: 2
#     Edge 53, Type (0, 0), BuildingBlock: TEMPAE_clean_linker_10, # of connection points: 2
#     Edge 54, Type (0, 0), BuildingBlock: TEMPAE_clean_linker_10, # of connection points: 2
#     Edge 55, Type (0, 0), BuildingBlock: TEMPAE_clean_linker_10, # of connection points: 2
#     Edge 56, Type (0, 0), BuildingBlock: TEMPAE_clean_linker_10, # of connection points: 2
#     Edge 57, Type (0, 0), BuildingBlock: TEMPAE_clean_linker_10, # of connection points: 2
#     Edge 58, Type (0, 0), BuildingBlock: TEMPAE_clean_linker_10, # of connection points: 2
#     Edge 59, Type (0, 0), BuildingBlock: TEMPAE_clean_linker_10, # of connection points: 2
#     Edge 60, Type (0, 0), BuildingBlock: TEMPAE_clean_linker_10, # of connection points: 2
#     Edge 61, Type (0, 0), BuildingBlock: TEMPAE_clean_linker_10, # of connection points: 2
#     Edge 62, Type (0, 0), BuildingBlock: TEMPAE_clean_linker_10, # of connection points: 2
#     Edge 63, Type (0, 0), BuildingBlock: TEMPAE_clean_linker_10, # of connection points: 2
#     Edge 64, Type (0, 0), BuildingBlock: TEMPAE_clean_linker_10, # of connection points: 2
#     Edge 65, Type (0, 0), BuildingBlock: TEMPAE_clean_linker_10, # of connection points: 2
#     Edge 66, Type (0, 0), BuildingBlock: TEMPAE_clean_linker_10, # of connection points: 2
#     Edge 67, Type (0, 0), BuildingBlock: TEMPAE_clean_linker_10, # of connection points: 2
#     Edge 68, Type (0, 0), BuildingBlock: TEMPAE_clean_linker_10, # of connection points: 2
#     Edge 69, Type (0, 0), BuildingBlock: TEMPAE_clean_linker_10, # of connection points: 2
#     Edge 70, Type (0, 0), BuildingBlock: TEMPAE_clean_linker_10, # of connection points: 2
#     Edge 71, Type (0, 0), BuildingBlock: TEMPAE_clean_linker_10, # of connection points: 2
# Relax obj value: 0.362
# Max RMSD: 0.351
# Mean RMSD: 0.318
data_MOF--net-unv--node1-AZAVOO_clean_sbu_0--edge1-TEMPAE_clean_linker_10
_symmetry_space_group_name_H-M    P1
_symmetry_Int_Tables_number       1
_symmetry_cell_setting            triclinic
loop_
_symmetry_equiv_pos_as_xyz
'x, y, z'
_cell_length_a     49.580149
_cell_length_b     47.983726
_cell_length_c     48.633265
_cell_angle_alpha  90.043755
_cell_angle_beta   89.996044
_cell_angle_gamma 90.006544
loop_
_atom_site_label
_atom_site_type_symbol
_atom_site_fract_x
_atom_site_fract_y
_atom_site_fract_z
_atom_type_partial_charge
Mg0 Mg 0.0224 0.07811 0.35105 0.0
O1 O 0.98627 0.06041 0.37519 0.0
O2 O 0.98468 0.08285 0.41536 0.0
Mg3 Mg 0.01752 0.11591 0.41623 0.0
C4 C 0.97592 0.06415 0.39899 0.0
C5 C 0.00373 0.06804 0.28931 0.0
O6 O 0.00774 0.09492 0.28632 0.0
O7 O 0.00024 0.11721 0.33968 0.0
O8 O -0.00025 0.13981 0.37984 0.0
O9 O 0.048 0.04701 0.37269 0.0
O10 O 0.04079 0.09011 0.38735 0.0
C11 C 0.99455 0.1385 0.35416 0.0
C12 C 0.05066 0.06575 0.39171 0.0
O13 O 0.0077 0.05662 0.31258 0.0
Mg14 Mg 0.97697 0.38034 0.35977 0.0
O15 O 0.00686 0.41149 0.37766 0.0
O16 O 0.02079 0.39303 0.41734 0.0
Mg17 Mg 0.99515 0.35466 0.42732 0.0
C18 C 0.0218 0.41205 0.39901 0.0
C19 C 0.95938 0.40297 0.30685 0.0
O20 O 0.93727 0.39424 0.319 0.0
O21 O 0.01009 0.35015 0.35146 0.0
O22 O 0.01304 0.32853 0.39189 0.0
O23 O 0.94282 0.40412 0.37643 0.0
O24 O 0.9641 0.37042 0.39893 0.0
C25 C 0.01794 0.32981 0.3661 0.0
C26 C 0.94596 0.38969 0.39861 0.0
O27 O 0.98195 0.39873 0.31826 0.0
Mg28 Mg 0.02313 0.88997 0.15032 0.0
O29 O 0.99211 0.91647 0.12746 0.0
O30 O 0.99645 0.90649 0.0827 0.0
Mg31 Mg 0.02695 0.87157 0.07746 0.0
C32 C 0.98574 0.92029 0.10233 0.0
C33 C 0.982 0.91059 0.19902 0.0
O34 O 0.96908 0.90418 0.22175 0.0
O35 O -0.00279 0.85331 0.14475 0.0
O36 O -0.00088 0.84093 0.10074 0.0
O37 O 0.05372 0.92378 0.14217 0.0
O38 O 0.04653 0.88747 0.11527 0.0
C39 C 0.99015 0.83755 0.12514 0.0
C40 C 0.05809 0.91105 0.11912 0.0
O41 O -2e-05 0.89392 0.19043 0.0
Mg42 Mg 0.98796 0.592 0.12682 0.0
O43 O 0.02851 0.57303 0.11569 0.0
O44 O 0.04593 0.59772 0.0813 0.0
Mg45 Mg 0.01578 0.63194 0.07012 0.0
C46 C 0.04726 0.57758 0.09834 0.0
C47 C 0.96462 0.55519 0.16821 0.0
O48 O 0.94552 0.55952 0.15 0.0
O49 O 0.00696 0.62787 0.14839 0.0
O50 O 0.01813 0.65373 0.11198 0.0
O51 O 0.96846 0.56426 0.09679 0.0
O52 O 0.98228 0.60724 0.08741 0.0
C53 C 0.01508 0.6506 0.13788 0.0
C54 C 0.97128 0.58436 0.07932 0.0
O55 O 0.98716 0.56726 0.1654 0.0
Mg56 Mg 0.34909 -0.00427 0.11668 0.0
O57 O 0.37586 0.97307 0.08529 0.0
O58 O 0.41497 0.95966 0.10424 0.0
Mg59 Mg 0.41284 0.97134 0.14974 0.0
C60 C 0.39909 0.9616 0.08362 0.0
C61 C 0.29791 0.01119 0.0816 0.0
O62 O 0.29736 0.03377 0.09689 0.0
O63 O 0.33773 0.95407 0.13518 0.0
O64 O 0.37685 0.94183 0.14945 0.0
O65 O 0.36883 0.03524 0.10558 0.0
O66 O 0.38579 0.00679 0.13701 0.0
C67 C 0.35373 0.95149 0.15526 0.0
C68 C 0.38873 0.02843 0.12141 0.0
O69 O 0.31516 0.99235 0.08648 0.0
Mg70 Mg 0.63939 0.51289 0.1169 0.0
O71 O 0.61425 0.54498 0.09273 0.0
O72 O 0.57237 0.54842 0.10987 0.0
Mg73 Mg 0.57588 0.52996 0.15286 0.0
C74 C 0.58988 0.5537 0.09125 0.0
C75 C 0.68215 0.50113 0.074 0.0
O76 O 0.67136 0.47654 0.07849 0.0
O77 O 0.65502 0.54402 0.14925 0.0
O78 O 0.61366 0.55582 0.15455 0.0
O79 O 0.61715 0.48015 0.09435 0.0
O80 O 0.6022 0.49731 0.13365 0.0
C81 C 0.63608 0.54999 0.16571 0.0
C82 C 0.59825 0.48149 0.11258 0.0
O83 O 0.67454 0.52165 0.08855 0.0
Mg84 Mg 0.36359 0.97642 0.38544 0.0
O85 O 0.38832 0.00916 0.40857 0.0
O86 O 0.42539 0.01916 0.38465 0.0
Mg87 Mg 0.42336 -0.00574 0.34468 0.0
C88 C 0.41061 0.0221 0.40589 0.0
C89 C 0.30541 0.97976 0.4133 0.0
O90 O 0.2967 0.96819 0.39047 0.0
O91 O 0.34739 0.00778 0.35474 0.0
O92 O 0.38446 0.01472 0.32947 0.0
O93 O 0.38873 0.94339 0.40482 0.0
O94 O 0.39765 0.96266 0.36455 0.0
C95 C 0.35933 0.01842 0.33398 0.0
C96 C 0.40473 0.94604 0.38391 0.0
O97 O 0.33034 0.98505 0.41604 0.0
Mg98 Mg 0.64401 0.46443 0.39429 0.0
O99 O 0.62047 0.42586 0.4108 0.0
O100 O 0.57958 0.42589 0.39088 0.0
Mg101 Mg 0.58485 0.44987 0.35103 0.0
C102 C 0.59583 0.41766 0.40964 0.0
C103 C 0.68806 0.47488 0.4362 0.0
O104 O 0.67509 0.49867 0.4341 0.0
O105 O 0.66399 0.44333 0.35675 0.0
O106 O 0.62435 0.42714 0.34924 0.0
O107 O 0.61603 0.48918 0.42084 0.0
O108 O 0.60738 0.48018 0.37711 0.0
C109 C 0.64618 0.43648 0.33932 0.0
C110 C 0.59963 0.49044 0.40019 0.0
O111 O 0.68028 0.45442 0.42162 0.0
Mg112 Mg 0.08908 0.35766 0.96162 0.0
O113 O 0.08467 0.39168 0.99589 0.0
O114 O 0.04076 0.40177 0.0009 0.0
Mg115 Mg 0.02065 0.36208 0.98769 0.0
C116 C 0.06565 0.40722 0.00506 0.0
C117 C 0.1467 0.38222 0.96976 0.0
O118 O 0.1339 0.40597 0.96657 0.0
O119 O 0.08696 0.31932 0.98999 0.0
O120 O 0.0565 0.34399 0.00976 0.0
O121 O 0.07771 0.39067 0.93148 0.0
O122 O 0.048 0.36262 0.95116 0.0
C123 C 0.0659 0.32007 0.00467 0.0
C124 C 0.05279 0.38361 0.93546 0.0
O125 O 0.13388 0.35947 0.96736 0.0
Mg126 Mg 0.08687 0.61893 0.54951 0.0
O127 O 0.07173 0.58918 0.51628 0.0
O128 O 0.02728 0.58327 0.52142 0.0
Mg129 Mg 0.01304 0.61403 0.55394 0.0
C130 C 0.04955 0.57763 0.50947 0.0
C131 C 0.1487 0.61099 0.54219 0.0
O132 O 0.14578 0.60394 0.56813 0.0
O133 O 0.07283 0.65581 0.52336 0.0
O134 O 0.02819 0.64911 0.52653 0.0
O135 O 0.08678 0.58223 0.57827 0.0
O136 O 0.05266 0.61145 0.57337 0.0
C137 C 0.0486 0.66207 0.517 0.0
C138 C 0.06197 0.58876 0.58353 0.0
O139 O 0.12805 0.61855 0.52864 0.0
Mg140 Mg 0.90328 0.8447 0.53543 0.0
O141 O 0.91651 0.87952 0.50512 0.0
O142 O 0.9616 0.88331 0.50554 0.0
Mg143 Mg 0.97919 0.84777 0.53043 0.0
C144 C 0.93838 0.89139 0.49737 0.0
C145 C 0.84779 0.87419 0.52228 0.0
O146 O 0.86175 0.89728 0.52514 0.0
O147 O 0.90784 0.81081 0.5015 0.0
O148 O 0.94959 0.82267 0.50816 0.0
O149 O 0.91057 0.87453 0.57048 0.0
O150 O 0.94183 0.84613 0.55456 0.0
C151 C 0.9326 0.80821 0.49533 0.0
C152 C 0.93522 0.86578 0.57095 0.0
O153 O 0.85948 0.85074 0.52449 0.0
Mg154 Mg 0.39555 0.63049 0.45397 0.0
O155 O 0.40157 0.6026 0.49252 0.0
O156 O 0.44595 0.59733 0.49952 0.0
Mg157 Mg 0.46368 0.63385 0.47763 0.0
C158 C 0.4215 0.59092 0.50469 0.0
C159 C 0.33648 0.60751 0.46229 0.0
O160 O 0.34842 0.58374 0.45664 0.0
O161 O 0.40023 0.67177 0.47694 0.0
O162 O 0.43259 0.65649 0.50415 0.0
O163 O 0.40625 0.59275 0.42899 0.0
O164 O 0.43561 0.62418 0.44345 0.0
C165 C 0.41627 0.6755 0.49703 0.0
C166 C 0.43116 0.60041 0.43197 0.0
O167 O 0.35025 0.62986 0.46192 0.0
Mg168 Mg 0.50278 0.59742 0.85482 0.0
O169 O 0.46561 0.57748 0.87292 0.0
O170 O 0.44968 0.60212 0.90816 0.0
Mg171 Mg 0.47857 0.63913 0.91263 0.0
C172 C 0.44856 0.58114 0.89212 0.0
C173 C 0.50958 0.54711 0.8148 0.0
O174 O 0.52841 0.54047 0.83263 0.0
O175 O 0.47859 0.63114 0.83447 0.0
O176 O 0.46727 0.65741 0.87051 0.0
O177 O 0.52711 0.5729 0.88419 0.0
O178 O 0.51189 0.61544 0.8929 0.0
C179 C 0.46787 0.65294 0.8446 0.0
C180 C 0.52411 0.59335 0.90132 0.0
O181 O 0.49661 0.56968 0.81784 0.0
Mg182 Mg 0.49767 0.89115 0.85759 0.0
O183 O 0.53585 0.90551 0.87913 0.0
O184 O 0.54029 0.8821 0.91838 0.0
Mg185 Mg 0.50559 0.85057 0.92004 0.0
C186 C 0.54826 0.90076 0.90156 0.0
C187 C 0.49439 0.92939 0.80898 0.0
O188 O 0.46963 0.92958 0.81861 0.0
O189 O 0.51697 0.8522 0.84249 0.0
O190 O 0.51801 0.82662 0.88072 0.0
O191 O 0.47553 0.92281 0.88107 0.0
O192 O 0.48054 0.87897 0.89482 0.0
C193 C 0.52141 0.82931 0.85477 0.0
C194 C 0.47223 0.90395 0.8998 0.0
O195 O 0.51177 0.91388 0.82032 0.0
Mg196 Mg 0.46983 0.36431 0.62319 0.0
O197 O 0.44698 0.39638 0.59709 0.0
O198 O 0.44304 0.38291 0.55311 0.0
Mg199 Mg 0.45361 0.33676 0.55337 0.0
C200 C 0.43997 0.40093 0.57223 0.0
C201 C 0.47279 0.41702 0.65724 0.0
O202 O 0.48196 0.42432 0.63295 0.0
O203 O 0.43035 0.34111 0.6309 0.0
O204 O 0.42257 0.33494 0.58792 0.0
O205 O 0.50811 0.3798 0.60539 0.0
O206 O 0.48454 0.34615 0.58565 0.0
C207 C 0.429 0.32422 0.61086 0.0
C208 C 0.50442 0.36345 0.58461 0.0
O209 O 0.46459 0.39215 0.66073 0.0
Mg210 Mg 0.51297 0.11104 0.62354 0.0
O211 O 0.54343 0.0837 0.60086 0.0
O212 O 0.54866 0.09722 0.55708 0.0
Mg213 Mg 0.53195 0.14151 0.55695 0.0
C214 C 0.55282 0.07995 0.57668 0.0
C215 C 0.53697 0.08292 0.67906 0.0
O216 O 0.55508 0.10275 0.68137 0.0
O217 O 0.54536 0.14196 0.63712 0.0
O218 O 0.55805 0.14514 0.59511 0.0
O219 O 0.48131 0.08736 0.6027 0.0
O220 O 0.4989 0.12522 0.58391 0.0
C221 C 0.55115 0.15757 0.617 0.0
C222 C 0.48385 0.10329 0.58149 0.0
O223 O 0.51939 0.08367 0.66017 0.0
Mg224 Mg 0.84309 0.46782 0.62531 0.0
O225 O 0.84596 0.4497 0.5824 0.0
O226 O 0.87888 0.41786 0.58779 0.0
Mg227 Mg 0.90369 0.42375 0.62709 0.0
C228 C 0.86005 0.42921 0.57367 0.0
C229 C 0.77843 0.47593 0.60724 0.0
O230 O 0.75458 0.48388 0.61602 0.0
O231 O 0.83444 0.42382 0.63844 0.0
O232 O 0.87042 0.40424 0.65448 0.0
O233 O 0.86732 0.50559 0.61293 0.0
O234 O 0.88484 0.46589 0.62679 0.0
C235 C 0.84848 0.41713 0.65915 0.0
C236 C 0.88862 0.49069 0.61774 0.0
O237 O 0.79843 0.47858 0.62333 0.0
Mg238 Mg 0.1477 0.99188 0.62337 0.0
O239 O 0.12403 0.01975 0.59383 0.0
O240 O 0.08002 0.02037 0.60441 0.0
Mg241 Mg 0.08043 0.00947 0.64995 0.0
C242 C 0.09947 0.02501 0.58775 0.0
C243 C 0.19527 0.97951 0.58594 0.0
O244 O 0.1884 0.95446 0.59428 0.0
O245 O 0.15841 0.02662 0.65453 0.0
O246 O 0.11662 0.03788 0.65165 0.0
O247 O 0.12769 0.95645 0.60172 0.0
O248 O 0.11057 0.97659 0.63865 0.0
C249 C 0.13726 0.03486 0.66678 0.0
C250 C 0.10794 0.95909 0.61889 0.0
O251 O 0.1839 0.00054 0.59668 0.0
Mg252 Mg 0.84498 0.511 0.86549 0.0
O253 O 0.86888 0.54309 0.89111 0.0
O254 O 0.91157 0.54648 0.87611 0.0
Mg255 Mg 0.91023 0.5294 0.83291 0.0
C256 C 0.89323 0.55149 0.89391 0.0
C257 C 0.81426 0.51446 0.9183 0.0
O258 O 0.83894 0.50701 0.92464 0.0
O259 O 0.83109 0.54272 0.83256 0.0
O260 O 0.87247 0.55555 0.83024 0.0
O261 O 0.86722 0.47816 0.88846 0.0
O262 O 0.88286 0.4964 0.84999 0.0
C263 C 0.8509 0.54964 0.81748 0.0
C264 C 0.88659 0.48065 0.87095 0.0
O265 O 0.80847 0.51859 0.89314 0.0
Mg266 Mg 0.1395 0.98569 0.87818 0.0
O267 O 0.1184 0.9749 0.91856 0.0
O268 O 0.07385 0.97034 0.91262 0.0
Mg269 Mg 0.06602 0.9741 0.86644 0.0
C270 C 0.09472 0.97081 0.92805 0.0
C271 C 0.19296 0.00017 0.90545 0.0
O272 O 0.18795 0.02357 0.89243 0.0
O273 O 0.13709 0.94013 0.86516 0.0
O274 O 0.09415 0.93675 0.86014 0.0
O275 O 0.12972 0.02959 0.88769 0.0
O276 O 0.10212 0.00202 0.86441 0.0
C277 C 0.11722 0.93874 0.8488 0.0
C278 C 0.10595 0.02487 0.87775 0.0
O279 O 0.17845 0.97897 0.90055 0.0
Mg280 Mg 0.59686 0.84596 0.46389 0.0
O281 O 0.58665 0.8812 0.49315 0.0
O282 O 0.54404 0.89446 0.4866 0.0
Mg283 Mg 0.52697 0.8678 0.45195 0.0
C284 C 0.5664 0.89616 0.49947 0.0
C285 C 0.65615 0.84625 0.46797 0.0
O286 O 0.65056 0.84428 0.44164 0.0
O287 O 0.57289 0.81593 0.49283 0.0
O288 O 0.53243 0.83302 0.48119 0.0
O289 O 0.6054 0.87723 0.42927 0.0
O290 O 0.5666 0.85649 0.4375 0.0
C291 C 0.54705 0.81635 0.49494 0.0
C292 C 0.58041 0.87332 0.42293 0.0
O293 O 0.6371 0.84386 0.48529 0.0
Mg294 Mg 0.58598 0.14023 0.00595 0.0
O295 O 0.58168 0.10238 0.97635 0.0
O296 O 0.53795 0.09295 0.96905 0.0
Mg297 Mg 0.51665 0.13277 0.98095 0.0
C298 C 0.56294 0.0868 0.96672 0.0
C299 C 0.64317 0.11519 0.00929 0.0
O300 O 0.62939 0.09566 0.02197 0.0
O301 O 0.58402 0.1745 0.97276 0.0
O302 O 0.55166 0.14961 0.95672 0.0
O303 O 0.57514 0.11198 0.04062 0.0
O304 O 0.54456 0.13559 0.01699 0.0
C305 C 0.56211 0.17348 0.95942 0.0
C306 C 0.55005 0.11741 0.03565 0.0
O307 O 0.6311 0.13695 0.00098 0.0
Mg308 Mg 0.39982 0.35571 0.0231 0.0
O309 O 0.40052 0.3948 0.99495 0.0
O310 O 0.44306 0.4107 0.99264 0.0
Mg311 Mg 0.46802 0.37251 0.00193 0.0
C312 C 0.41773 0.41363 0.98877 0.0
C313 C 0.33893 0.36661 0.03183 0.0
O314 O 0.34794 0.37762 0.05479 0.0
O315 O 0.4076 0.32378 0.98872 0.0
O316 O 0.43628 0.35415 0.97397 0.0
O317 O 0.40618 0.38468 0.05844 0.0
O318 O 0.43974 0.36369 0.03647 0.0
C319 C 0.42823 0.32916 0.97425 0.0
C320 C 0.4318 0.38113 0.05488 0.0
O321 O 0.35523 0.35456 0.01562 0.0
Mg322 Mg 0.90069 0.135 0.98271 0.0
O323 O 0.90866 0.10781 0.0215 0.0
O324 O 0.9531 0.10722 0.03045 0.0
Mg325 Mg 0.96812 0.14565 0.00898 0.0
C326 C 0.92913 0.0984 0.03462 0.0
C327 C 0.843 0.10828 0.9778 0.0
O328 O 0.85542 0.09026 0.96187 0.0
O329 O 0.89772 0.17772 0.00426 0.0
O330 O 0.92973 0.16094 0.02871 0.0
O331 O 0.91676 0.09922 0.9584 0.0
O332 O 0.94219 0.13432 0.97279 0.0
C333 C 0.918 0.18224 0.01943 0.0
C334 C 0.9403 0.11075 0.96035 0.0
O335 O 0.85624 0.1281 0.98858 0.0
C336 C 0.11368 0.03097 0.53893 0.0
C337 C 0.09344 0.03305 0.55906 0.0
C338 C 0.10791 0.03539 0.51112 0.0
C339 C 0.08134 0.04246 0.50328 0.0
C340 C 0.06091 0.04519 0.52344 0.0
C341 C 0.06718 0.04031 0.55114 0.0
C342 C 0.13016 0.03211 0.49012 0.0
C343 C 0.03239 0.05304 0.5157 0.0
C344 C 0.07054 0.08029 0.43612 0.0
C345 C 0.061 0.05885 0.41916 0.0
C346 C 0.07775 0.07508 0.46341 0.0
C347 C 0.07508 0.04779 0.474 0.0
C348 C 0.06602 0.02587 0.4568 0.0
C349 C 0.0592 0.03165 0.4294 0.0
C350 C 0.08754 0.09892 0.4811 0.0
C351 C 0.06278 -0.00346 0.46755 0.0
H352 H 0.13401 0.0251 0.54474 0.0
H353 H 0.05144 0.04188 0.56653 0.0
H354 H 0.12449 0.01597 0.47482 0.0
H355 H 0.13305 0.05192 0.47876 0.0
H356 H 0.14969 0.02608 0.49964 0.0
H357 H 0.0189 0.05446 0.53389 0.0
H358 H 0.03231 0.07342 0.50495 0.0
H359 H 0.02396 0.03739 0.50125 0.0
H360 H 0.07201 0.10132 0.42811 0.0
H361 H 0.05151 0.01514 0.41634 0.0
H362 H 0.10753 0.09387 0.49005 0.0
H363 H 0.07339 0.10223 0.49847 0.0
H364 H 0.0893 0.11871 0.46939 0.0
H365 H 0.08196 0.98924 0.47684 0.0
H366 H 0.05668 0.98166 0.45117 0.0
H367 H 0.04724 -0.00381 0.48397 0.0
C368 C 0.94025 0.40248 0.44751 0.0
C369 C 0.92885 0.3952 0.42231 0.0
C370 C 0.92371 0.40901 0.46992 0.0
C371 C 0.89528 0.407 0.46706 0.0
C372 C 0.88378 0.39954 0.44153 0.0
C373 C 0.90082 0.3942 0.4192 0.0
C374 C 0.93664 0.41789 0.49666 0.0
C375 C 0.85366 0.39645 0.43803 0.0
C376 C 0.86542 0.3945 0.53669 0.0
C377 C 0.85903 0.42177 0.54451 0.0
C378 C 0.87468 0.38881 0.51015 0.0
C379 C 0.87797 0.41109 0.49144 0.0
C380 C 0.86846 0.43805 0.49823 0.0
C381 C 0.85871 0.44302 0.52481 0.0
C382 C 0.88377 0.35959 0.50326 0.0
C383 C 0.87169 0.46238 0.47886 0.0
H384 H 0.96202 0.40364 0.44946 0.0
H385 H 0.89227 0.38859 0.39942 0.0
H386 H 0.9276 0.43772 0.50396 0.0
H387 H 0.93286 0.4019 0.51267 0.0
H388 H 0.95878 0.42082 0.49464 0.0
H389 H 0.84792 0.39215 0.41636 0.0
H390 H 0.84633 0.37905 0.45106 0.0
H391 H 0.84312 0.41558 0.44499 0.0
H392 H 0.86537 0.37806 0.55199 0.0
H393 H 0.85382 0.46415 0.53098 0.0
H394 H 0.90611 0.35851 0.50426 0.0
H395 H 0.87762 0.35381 0.48208 0.0
H396 H 0.87541 0.34402 0.51786 0.0
H397 H 0.89286 0.46985 0.47975 0.0
H398 H 0.85824 0.47998 0.48457 0.0
H399 H 0.86742 0.45625 0.45732 0.0
C400 C 0.08427 0.90808 0.07609 0.0
C401 C 0.07118 0.9247 0.09562 0.0
C402 C 0.09112 0.91871 0.05026 0.0
C403 C 0.0844 0.9466 0.04377 0.0
C404 C 0.07293 0.96409 0.06414 0.0
C405 C 0.06651 0.95291 0.09003 0.0
C406 C 0.10349 0.89939 0.02921 0.0
C407 C 0.06554 -0.00606 0.05796 0.0
C408 C 0.11297 0.97216 0.97603 0.0
C409 C 0.0915 0.96658 0.958 0.0
C410 C 0.11055 0.96718 0.00434 0.0
C411 C 0.08623 0.95595 0.01475 0.0
C412 C 0.06422 0.95109 -0.0032 0.0
C413 C 0.06707 0.95663 0.96867 0.0
C414 C 0.13432 0.97303 0.02286 0.0
C415 C 0.03798 0.93897 0.00712 0.0
H416 H 0.08785 0.88624 0.08053 0.0
H417 H 0.05605 0.96565 0.10505 0.0
H418 H 0.08852 0.89493 0.01282 0.0
H419 H 0.12119 0.90934 0.01932 0.0
H420 H 0.10998 0.87928 0.0384 0.0
H421 H 0.06131 0.00597 0.077 0.0
H422 H 0.08195 0.00444 0.0464 0.0
H423 H 0.0472 -0.00562 0.04488 0.0
H424 H 0.13184 0.98019 0.96802 0.0
H425 H 0.05035 0.9524 0.95493 0.0
H426 H 0.14393 0.95307 0.0289 0.0
H427 H 0.12769 0.98363 0.04199 0.0
H428 H 0.14977 0.98616 0.01257 0.0
H429 H 0.04151 0.91769 0.01529 0.0
H430 H 0.0224 0.93773 0.99075 0.0
H431 H 0.02996 0.9518 0.02424 0.0
C432 C 0.96059 0.55678 0.03775 0.0
C433 C 0.95977 0.58212 0.05183 0.0
C434 C 0.94816 0.55406 0.01208 0.0
C435 C 0.9341 0.57709 0.00082 0.0
C436 C 0.93269 0.60254 0.0154 0.0
C437 C 0.94601 0.6049 0.04064 0.0
C438 C 0.95079 0.52685 -0.00326 0.0
C439 C 0.91706 0.62714 0.00442 0.0
C440 C 0.92714 0.57506 0.92368 0.0
C441 C 0.90145 0.56327 0.92063 0.0
C442 C 0.93747 0.58105 0.94977 0.0
C443 C 0.92183 0.57479 0.97327 0.0
C444 C 0.89525 0.56454 0.97033 0.0
C445 C 0.88524 0.55923 0.94395 0.0
C446 C 0.96572 0.59258 0.95226 0.0
C447 C 0.87808 0.55735 0.995 0.0
H448 H 0.97126 0.53923 0.04666 0.0
H449 H 0.94496 0.6243 0.05205 0.0
H450 H 0.93098 0.51998 0.98858 0.0
H451 H 0.96452 0.52993 0.979 0.0
H452 H 0.9592 0.51 0.00984 0.0
H453 H 0.9169 0.64497 0.01902 0.0
H454 H 0.92599 0.63419 0.9847 0.0
H455 H 0.89591 0.62095 0.00014 0.0
H456 H 0.93964 0.57856 0.90572 0.0
H457 H 0.86527 0.55039 0.9418 0.0
H458 H 0.97905 0.57673 0.9618 0.0
H459 H 0.96586 0.61118 0.96582 0.0
H460 H 0.97432 0.59848 0.93199 0.0
H461 H 0.88652 0.53865 0.0053 0.0
H462 H 0.85684 0.55284 0.98923 0.0
H463 H 0.87829 0.5746 0.0102 0.0
C464 C 0.43825 0.02547 0.11289 0.0
C465 C 0.41513 0.04176 0.11666 0.0
C466 C 0.4616 0.03679 0.10097 0.0
C467 C 0.46228 0.06549 0.09429 0.0
C468 C 0.43975 0.08255 0.10037 0.0
C469 C 0.41619 0.07032 0.11085 0.0
C470 C 0.48467 0.01763 0.09362 0.0
C471 C 0.44002 0.11346 0.09456 0.0
C472 C 0.52985 0.09954 0.07897 0.0
C473 C 0.5284 0.10276 0.05041 0.0
C474 C 0.50846 0.08742 0.09363 0.0
C475 C 0.48566 0.07737 0.07915 0.0
C476 C 0.48472 0.07954 0.05011 0.0
C477 C 0.50589 0.09276 0.03615 0.0
C478 C 0.5098 0.08628 0.12462 0.0
C479 C 0.46128 0.06811 0.03377 0.0
H480 H 0.43756 0.00348 0.11737 0.0
H481 H 0.39828 0.08296 0.11375 0.0
H482 H 0.48689 0.01678 0.07092 0.0
H483 H 0.50391 0.0257 0.10207 0.0
H484 H 0.48149 -0.00392 0.10133 0.0
H485 H 0.42243 0.12427 0.10386 0.0
H486 H 0.45881 0.12304 0.10262 0.0
H487 H 0.43961 0.11702 0.07203 0.0
H488 H 0.54728 0.10748 0.08994 0.0
H489 H 0.50498 0.09492 0.01402 0.0
H490 H 0.50754 0.06449 0.13184 0.0
H491 H 0.49286 0.09843 0.13349 0.0
H492 H 0.52907 0.09476 0.13273 0.0
H493 H 0.45743 0.04609 0.03952 0.0
H494 H 0.46488 0.06916 0.01124 0.0
H495 H 0.44275 0.08011 0.03855 0.0
C496 C 0.57131 0.44503 0.08892 0.0
C497 C 0.57237 0.46714 0.10773 0.0
C498 C 0.54688 0.43182 0.08276 0.0
C499 C 0.52286 0.44124 0.09543 0.0
C500 C 0.52378 0.46339 0.11463 0.0
C501 C 0.54864 0.4759 0.12078 0.0
C502 C 0.54673 0.40809 0.06231 0.0
C503 C 0.49847 0.47418 0.12821 0.0
C504 C 0.45907 0.42421 0.05628 0.0
C505 C 0.45158 0.39904 0.06849 0.0
C506 C 0.48192 0.43871 0.06531 0.0
C507 C 0.49678 0.42823 0.0879 0.0
C508 C 0.48792 0.4039 0.10169 0.0
C509 C 0.46562 0.38922 0.09141 0.0
C510 C 0.49109 0.46416 0.04959 0.0
C511 C 0.50281 0.39261 0.12634 0.0
H512 H 0.58965 0.43803 0.07893 0.0
H513 H 0.54928 0.49294 0.13529 0.0
H514 H 0.53776 0.38921 0.07179 0.0
H515 H 0.53404 0.41366 0.04434 0.0
H516 H 0.56729 0.40282 0.05487 0.0
H517 H 0.50275 0.4909 0.14341 0.0
H518 H 0.48456 0.48258 0.11239 0.0
H519 H 0.48779 0.45691 0.13877 0.0
H520 H 0.44775 0.43194 0.03893 0.0
H521 H 0.45967 0.36964 0.10074 0.0
H522 H 0.51056 0.45965 0.03923 0.0
H523 H 0.49458 0.48186 0.06383 0.0
H524 H 0.47626 0.47066 0.03372 0.0
H525 H 0.52276 0.38449 0.11981 0.0
H526 H 0.49153 0.37551 0.13658 0.0
H527 H 0.50649 0.40944 0.14154 0.0
C528 C 0.54877 0.87242 0.3854 0.0
C529 C 0.56565 0.88878 0.40189 0.0
C530 C 0.52297 0.88162 0.37838 0.0
C531 C 0.51505 0.90887 0.38587 0.0
C532 C 0.53407 0.92729 0.39791 0.0
C533 C 0.55918 0.91678 0.40649 0.0
C534 C 0.50322 0.86067 0.36687 0.0
C535 C 0.52667 0.95701 0.40468 0.0
C536 C 0.44802 0.936 0.36001 0.0
C537 C 0.43198 0.93394 0.38371 0.0
C538 C 0.47509 0.92772 0.36028 0.0
C539 C 0.48617 0.91674 0.3847 0.0
C540 C 0.46959 0.9132 0.40824 0.0
C541 C 0.44267 0.92192 0.40746 0.0
C542 C 0.49197 0.9315 0.33471 0.0
C543 C 0.48006 0.89996 0.4342 0.0
H544 H 0.55392 0.85069 0.38204 0.0
H545 H 0.57215 0.92942 0.41941 0.0
H546 H 0.49083 0.85228 0.38399 0.0
H547 H 0.48929 0.87027 0.3518 0.0
H548 H 0.51372 0.84289 0.35688 0.0
H549 H 0.54477 0.96983 0.40928 0.0
H550 H 0.51549 0.96667 0.38735 0.0
H551 H 0.51324 0.95733 0.42294 0.0
H552 H 0.43959 0.94459 0.3413 0.0
H553 H 0.43019 0.91988 0.42566 0.0
H554 H 0.50202 0.91167 0.32901 0.0
H555 H 0.50811 0.94698 0.33882 0.0
H556 H 0.47983 0.93875 0.3169 0.0
H557 H 0.48451 0.87773 0.42996 0.0
H558 H 0.46527 0.90097 0.45134 0.0
H559 H 0.49894 0.9103 0.44096 0.0
C560 C 0.48017 0.58869 0.43358 0.0
C561 C 0.45392 0.58134 0.42568 0.0
C562 C 0.50194 0.57066 0.42945 0.0
C563 C 0.49775 0.54506 0.41572 0.0
C564 C 0.47145 0.53761 0.407 0.0
C565 C 0.44972 0.55571 0.41242 0.0
C566 C 0.52955 0.57923 0.43962 0.0
C567 C 0.46638 0.51075 0.39169 0.0
C568 C 0.56201 0.51925 0.38244 0.0
C569 C 0.57231 0.50193 0.40304 0.0
C570 C 0.53693 0.53233 0.38561 0.0
C571 C 0.52146 0.52714 0.40957 0.0
C572 C 0.53097 0.50793 0.42946 0.0
C573 C 0.55662 0.49594 0.42621 0.0
C574 C 0.52784 0.55308 0.3642 0.0
C575 C 0.51472 0.50113 0.45483 0.0
H576 H 0.48396 0.60864 0.44306 0.0
H577 H 0.42954 0.54993 0.40601 0.0
H578 H 0.53789 0.56293 0.45337 0.0
H579 H 0.54357 0.58141 0.42197 0.0
H580 H 0.52912 0.59926 0.45108 0.0
H581 H 0.4446 0.50729 0.38757 0.0
H582 H 0.47729 0.5111 0.37177 0.0
H583 H 0.47433 0.49283 0.4036 0.0
H584 H 0.5742 0.52365 0.36443 0.0
H585 H 0.56445 0.48196 0.4418 0.0
H586 H 0.52873 0.57443 0.37295 0.0
H587 H 0.50661 0.54908 0.35818 0.0
H588 H 0.54066 0.55248 0.34547 0.0
H589 H 0.51552 0.519 0.4693 0.0
H590 H 0.52255 0.48235 0.46556 0.0
H591 H 0.49324 0.49759 0.44949 0.0
C592 C 0.09742 0.43608 0.03372 0.0
C593 C 0.07225 0.4326 0.02092 0.0
C594 C 0.10283 0.45984 0.0498 0.0
C595 C 0.08259 0.48043 0.05297 0.0
C596 C 0.05745 0.47722 0.03942 0.0
C597 C 0.05265 0.4534 0.0237 0.0
C598 C 0.12979 0.46221 0.06399 0.0
C599 C 0.03526 0.49878 0.04174 0.0
C600 C 0.06571 0.53032 0.10857 0.0
C601 C 0.06732 0.5552 0.09346 0.0
C602 C 0.07522 0.50524 0.09739 0.0
C603 C 0.08648 0.50533 0.07068 0.0
C604 C 0.09318 0.531 0.05815 0.0
C605 C 0.08342 0.55582 0.06971 0.0
C606 C 0.06919 0.47833 0.11216 0.0
C607 C 0.10671 0.532 0.0304 0.0
H608 H 0.11266 0.42001 0.03169 0.0
H609 H 0.03331 0.45107 0.01354 0.0
H610 H 0.13628 0.48422 0.06626 0.0
H611 H 0.12819 0.45304 0.08486 0.0
H612 H 0.14564 0.45054 0.05264 0.0
H613 H 0.01714 0.49323 0.02945 0.0
H614 H 0.02901 0.50109 0.06353 0.0
H615 H 0.04266 0.51935 0.03458 0.0
H616 H 0.0543 0.52975 0.12758 0.0
H617 H 0.0858 0.57512 0.05838 0.0
H618 H 0.08575 0.4631 0.10915 0.0
H619 H 0.05044 0.4691 0.10361 0.0
H620 H 0.06617 0.48176 0.13455 0.0
H621 H 0.12217 0.51539 0.02851 0.0
H622 H 0.11636 0.55255 0.02672 0.0
H623 H 0.09136 0.52854 0.01413 0.0
C624 C 0.05591 0.43782 0.42685 0.0
C625 C 0.03695 0.43778 0.40546 0.0
C626 C 0.06397 0.46284 0.43923 0.0
C627 C 0.05245 0.4882 0.43016 0.0
C628 C 0.03644 0.48857 0.4061 0.0
C629 C 0.02893 0.46325 0.39389 0.0
C630 C 0.0821 0.46173 0.46414 0.0
C631 C 0.02444 0.5153 0.3953 0.0
C632 C 0.02976 0.5354 0.4879 0.0
C633 C 0.0499 0.55582 0.4881 0.0
C634 C 0.03039 0.51354 0.46891 0.0
C635 C 0.05156 0.51223 0.44934 0.0
C636 C 0.07175 0.53306 0.44905 0.0
C637 C 0.07074 0.55463 0.46858 0.0
C638 C 0.00864 0.49148 0.47025 0.0
C639 C 0.09426 0.53273 0.42816 0.0
H640 H 0.06282 0.4182 0.43538 0.0
H641 H 0.01466 0.46346 0.37699 0.0
H642 H 0.09667 0.47928 0.46403 0.0
H643 H 0.06964 0.46364 0.48301 0.0
H644 H 0.09347 0.44181 0.46519 0.0
H645 H 0.01741 0.51303 0.37373 0.0
H646 H 0.00689 0.52121 0.40823 0.0
H647 H 0.03929 0.53256 0.39635 0.0
H648 H 0.0138 0.53607 0.50314 0.0
H649 H 0.08623 0.57057 0.46855 0.0
H650 H 0.01784 0.47082 0.47437 0.0
H651 H -0.00201 0.4901 0.45023 0.0
H652 H 0.99351 0.4958 0.48656 0.0
H653 H 0.10287 0.51151 0.42595 0.0
H654 H 0.11073 0.54741 0.43368 0.0
H655 H 0.08614 0.5389 0.4078 0.0
C656 C 0.96101 0.92655 0.46752 0.0
C657 C 0.93713 0.91593 0.4789 0.0
C658 C 0.961 0.95111 0.45206 0.0
C659 C 0.93645 0.96553 0.44769 0.0
C660 C 0.91201 0.95427 0.4579 0.0
C661 C 0.91264 0.92957 0.47346 0.0
C662 C 0.98757 0.96225 0.44142 0.0
C663 C 0.8854 0.96884 0.45349 0.0
C664 C 0.95296 0.04138 0.43873 0.0
C665 C 0.95748 0.04259 0.41023 0.0
C666 C 0.94328 0.01702 0.45114 0.0
C667 C 0.9374 0.99351 0.43461 0.0
C668 C 0.93828 -0.00407 0.40562 0.0
C669 C 0.94858 0.0204 0.39372 0.0
C670 C 0.94256 0.01542 0.48215 0.0
C671 C 0.93109 0.9717 0.38724 0.0
H672 H 0.97999 0.91599 0.4712 0.0
H673 H 0.89406 0.92144 0.48201 0.0
H674 H 0.98638 0.96584 0.41893 0.0
H675 H 0.99211 0.98257 0.45131 0.0
H676 H 0.00464 0.94784 0.44554 0.0
H677 H 0.86805 0.95467 0.45719 0.0
H678 H 0.88377 0.98663 0.46797 0.0
H679 H 0.88395 0.9773 0.43231 0.0
H680 H 0.95931 0.05851 0.45175 0.0
H681 H 0.95142 0.0213 0.37163 0.0
H682 H 0.96007 0.00306 0.48948 0.0
H683 H 0.92399 0.00478 0.48928 0.0
H684 H 0.94355 0.03638 0.49182 0.0
H685 H 0.94832 0.95697 0.38642 0.0
H686 H 0.92661 0.97867 0.36594 0.0
H687 H 0.9134 0.96021 0.39539 0.0
C688 C 0.43782 0.55731 0.53966 0.0
C689 C 0.41665 0.5671 0.52318 0.0
C690 C 0.43648 0.5311 0.55203 0.0
C691 C 0.41329 0.51444 0.54795 0.0
C692 C 0.39053 0.52562 0.53431 0.0
C693 C 0.3925 0.55193 0.52188 0.0
C694 C 0.461 0.52018 0.567 0.0
C695 C 0.36501 0.50888 0.5308 0.0
C696 C 0.43245 0.43906 0.5385 0.0
C697 C 0.42943 0.42874 0.56522 0.0
C698 C 0.42575 0.46667 0.5323 0.0
C699 C 0.41523 0.48413 0.55323 0.0
C700 C 0.41027 0.47322 0.57975 0.0
C701 C 0.41784 0.4457 0.58557 0.0
C702 C 0.43171 0.47764 0.5038 0.0
C703 C 0.39844 0.49087 0.60245 0.0
H704 H 0.45624 0.56936 0.54143 0.0
H705 H 0.37584 0.55964 0.50961 0.0
H706 H 0.45513 0.51096 0.58702 0.0
H707 H 0.47059 0.50348 0.55458 0.0
H708 H 0.47621 0.53675 0.5708 0.0
H709 H 0.34764 0.52231 0.52507 0.0
H710 H 0.36797 0.49321 0.51429 0.0
H711 H 0.36004 0.49747 0.54999 0.0
H712 H 0.44142 0.42603 0.52274 0.0
H713 H 0.41514 0.43765 0.60622 0.0
H714 H 0.44781 0.49368 0.50495 0.0
H715 H 0.41354 0.48774 0.495 0.0
H716 H 0.43844 0.46095 0.48952 0.0
H717 H 0.41491 0.50217 0.61314 0.0
H718 H 0.38791 0.47778 0.61794 0.0
H719 H 0.38405 0.50653 0.59432 0.0
C720 C 0.55371 0.57397 0.06138 0.0
C721 C 0.58094 0.56701 0.06532 0.0
C722 C 0.5441 0.58177 0.03538 0.0
C723 C 0.56215 0.58262 0.01286 0.0
C724 C 0.58994 0.57754 0.01707 0.0
C725 C 0.59902 0.56986 0.04327 0.0
C726 C 0.51434 0.58728 0.03166 0.0
C727 C 0.60984 0.57843 0.99357 0.0
C728 C 0.53557 0.56448 0.9421 0.0
C729 C 0.53308 0.59082 0.93004 0.0
C730 C 0.54445 0.56165 0.96928 0.0
C731 C 0.5516 0.58574 0.98449 0.0
C732 C 0.54913 0.61243 0.97239 0.0
C733 C 0.53955 0.61468 0.94533 0.0
C734 C 0.54634 0.53285 0.98167 0.0
C735 C 0.55703 0.63848 0.98784 0.0
H736 H 0.5396 0.57208 0.07829 0.0
H737 H 0.62014 0.56478 0.04608 0.0
H738 H 0.51109 0.60675 0.01984 0.0
H739 H 0.50516 0.57 0.01971 0.0
H740 H 0.50359 0.589 0.05164 0.0
H741 H 0.63107 0.5772 0.0008 0.0
H742 H 0.60603 0.56064 0.9795 0.0
H743 H 0.60728 0.59784 0.98146 0.0
H744 H 0.53031 0.54606 0.93034 0.0
H745 H 0.53774 0.63506 0.9359 0.0
H746 H 0.53416 0.53181 0.00079 0.0
H747 H 0.56755 0.52826 0.98734 0.0
H748 H 0.53915 0.51639 0.96736 0.0
H749 H 0.54539 0.64003 0.00726 0.0
H750 H 0.55356 0.65768 0.97558 0.0
H751 H 0.57869 0.63748 0.9935 0.0
C752 C 0.39232 0.95465 0.03306 0.0
C753 C 0.40826 0.95095 0.05664 0.0
C754 C 0.40145 0.94591 0.00718 0.0
C755 C 0.4271 0.93322 0.00489 0.0
C756 C 0.44297 0.92876 0.02863 0.0
C757 C 0.43337 0.9377 0.05423 0.0
C758 C 0.38394 0.95085 0.98223 0.0
C759 C 0.47042 0.91519 0.0269 0.0
C760 C 0.44593 0.8916 0.94152 0.0
C761 C 0.46068 0.91131 0.92658 0.0
C762 C 0.43416 0.89866 0.96678 0.0
C763 C 0.43803 0.92579 0.97752 0.0
C764 C 0.45318 0.94567 0.96256 0.0
C765 C 0.46406 0.93826 0.93703 0.0
C766 C 0.41764 0.87716 0.98194 0.0
C767 C 0.4582 0.97463 0.97366 0.0
H768 H 0.37285 0.96479 0.0347 0.0
H769 H 0.44578 0.9346 0.07232 0.0
H770 H 0.39391 0.96602 0.96835 0.0
H771 H 0.38132 0.9312 0.9705 0.0
H772 H 0.36371 0.95907 0.98779 0.0
H773 H 0.47978 0.91228 0.04745 0.0
H774 H 0.46881 0.89456 0.01672 0.0
H775 H 0.48407 0.92819 0.01416 0.0
H776 H 0.44318 0.87082 0.9332 0.0
H777 H 0.47567 0.9534 0.92547 0.0
H778 H 0.39722 0.88551 0.98635 0.0
H779 H 0.42722 0.87235 0.00199 0.0
H780 H 0.4155 0.85748 0.97009 0.0
H781 H 0.47052 0.98752 0.95945 0.0
H782 H 0.46881 0.97333 0.99371 0.0
H783 H 0.43872 0.98538 0.97735 0.0
C784 C 0.52603 0.34513 0.54183 0.0
C785 C 0.51987 0.36763 0.55907 0.0
C786 C 0.54043 0.34927 0.51726 0.0
C787 C 0.54783 0.37666 0.50939 0.0
C788 C 0.54151 0.39942 0.52681 0.0
C789 C 0.52799 0.39455 0.55165 0.0
C790 C 0.54747 0.32445 0.49959 0.0
C791 C 0.54832 0.42904 0.51884 0.0
C792 C 0.60071 0.39465 0.45579 0.0
C793 C 0.58449 0.40179 0.43319 0.0
C794 C 0.58919 0.38468 0.4803 0.0
C795 C 0.56082 0.38202 0.48232 0.0
C796 C 0.54453 0.3875 0.45906 0.0
C797 C 0.55656 0.3971 0.43476 0.0
C798 C 0.60728 0.37866 0.50455 0.0
C799 C 0.51416 0.38526 0.46041 0.0
H800 H 0.51985 0.3243 0.54773 0.0
H801 H 0.52294 0.41199 0.56488 0.0
H802 H 0.5366 0.32577 0.47971 0.0
H803 H 0.56937 0.32445 0.49491 0.0
H804 H 0.54216 0.30441 0.50966 0.0
H805 H 0.54215 0.44434 0.53481 0.0
H806 H 0.57032 0.43113 0.51532 0.0
H807 H 0.53805 0.43448 0.49929 0.0
H808 H 0.6223 0.39804 0.45484 0.0
H809 H 0.54377 0.40242 0.41747 0.0
H810 H 0.60152 0.35869 0.51443 0.0
H811 H 0.60492 0.39536 0.52015 0.0
H812 H 0.62887 0.37761 0.49852 0.0
H813 H 0.50805 0.36488 0.46914 0.0
H814 H 0.5046 0.38766 0.43989 0.0
H815 H 0.50614 0.40173 0.47421 0.0
C816 C 0.46954 0.11239 0.53271 0.0
C817 C 0.47276 0.09395 0.55477 0.0
C818 C 0.45876 0.10312 0.50753 0.0
C819 C 0.45164 0.07468 0.50428 0.0
C820 C 0.45515 0.05598 0.52646 0.0
C821 C 0.46543 0.06588 0.55143 0.0
C822 C 0.45492 0.12369 0.48442 0.0
C823 C 0.44836 0.02538 0.52376 0.0
C824 C 0.40311 0.0491 0.44931 0.0
C825 C 0.4209 0.03855 0.42944 0.0
C826 C 0.41283 0.06214 0.4732 0.0
C827 C 0.44101 0.06411 0.47761 0.0
C828 C 0.45906 0.05393 0.45739 0.0
C829 C 0.44878 0.04158 0.4334 0.0
C830 C 0.39294 0.07289 0.49419 0.0
C831 C 0.48922 0.05479 0.46171 0.0
H832 H 0.47513 0.13408 0.53524 0.0
H833 H 0.46813 0.05139 0.5683 0.0
H834 H 0.46733 0.11744 0.46647 0.0
H835 H 0.43354 0.12364 0.47767 0.0
H836 H 0.46059 0.14523 0.4905 0.0
H837 H 0.45248 0.01358 0.54295 0.0
H838 H 0.42676 0.02281 0.51843 0.0
H839 H 0.46031 0.01596 0.50685 0.0
H840 H 0.38155 0.0468 0.44636 0.0
H841 H 0.46265 0.03308 0.41834 0.0
H842 H 0.39799 0.09463 0.50003 0.0
H843 H 0.39411 0.06005 0.5131 0.0
H844 H 0.37185 0.07231 0.48646 0.0
H845 H 0.49582 0.07632 0.46656 0.0
H846 H 0.50053 0.04732 0.44342 0.0
H847 H 0.49471 0.04151 0.47954 0.0
C848 C 0.02368 0.57724 0.61386 0.0
C849 C 0.04249 0.56845 0.59425 0.0
C850 C 0.00028 0.56172 0.61902 0.0
C851 C 0.9952 0.53728 0.6035 0.0
C852 C 0.01481 0.52762 0.58454 0.0
C853 C 0.03845 0.54324 0.58034 0.0
C854 C 0.98013 0.57254 0.63973 0.0
C855 C 0.00989 0.5021 0.56708 0.0
C856 C 0.9379 0.49081 0.62785 0.0
C857 C 0.91609 0.50142 0.61278 0.0
C858 C 0.96394 0.50186 0.62468 0.0
C859 C 0.96834 0.52354 0.60548 0.0
C860 C 0.94653 0.53355 0.58943 0.0
C861 C 0.92056 0.52264 0.59357 0.0
C862 C 0.98652 0.49104 0.64254 0.0
C863 C 0.95052 0.55621 0.56827 0.0
H864 H 0.02666 0.59705 0.62419 0.0
H865 H 0.05265 0.53696 0.56454 0.0
H866 H 0.96196 0.58032 0.62886 0.0
H867 H 0.97356 0.55556 0.65368 0.0
H868 H 0.98852 0.58983 0.65232 0.0
H869 H 0.02837 0.49538 0.55596 0.0
H870 H 0.00253 0.48455 0.57986 0.0
H871 H 0.99403 0.50676 0.55165 0.0
H872 H 0.93443 0.47449 0.64285 0.0
H873 H 0.90375 0.53067 0.58172 0.0
H874 H 0.99385 0.50797 0.65619 0.0
H875 H 0.0038 0.48438 0.62962 0.0
H876 H 0.98008 0.4732 0.65551 0.0
H877 H 0.9562 0.57595 0.57866 0.0
H878 H 0.93204 0.55998 0.5559 0.0
H879 H 0.96724 0.55062 0.55414 0.0
C880 C 0.9571 0.90968 0.58667 0.0
C881 C 0.95694 0.88059 0.58522 0.0
C882 C 0.98069 0.92394 0.59423 0.0
C883 C 0.00428 0.90855 0.60059 0.0
C884 C 0.00356 0.87911 0.60081 0.0
C885 C 0.97988 0.86549 0.593 0.0
C886 C 0.98087 0.95538 0.59366 0.0
C887 C 0.02822 0.86197 0.60772 0.0
C888 C 0.07375 0.93832 0.58749 0.0
C889 C 0.08166 0.94586 0.61408 0.0
C890 C 0.04808 0.92713 0.58266 0.0
C891 C 0.03031 0.9229 0.6051 0.0
C892 C 0.03824 0.93053 0.63198 0.0
C893 C 0.06379 0.94219 0.63612 0.0
C894 C 0.04008 0.91956 0.55363 0.0
C895 C 0.01998 0.92583 0.6564 0.0
H896 H 0.93946 0.92127 0.58016 0.0
H897 H 0.97968 0.84291 0.59174 0.0
H898 H 0.98991 0.9638 0.6128 0.0
H899 H 0.99349 0.96265 0.57623 0.0
H900 H 0.96028 0.96416 0.59123 0.0
H901 H 0.02357 0.83937 0.60931 0.0
H902 H 0.04375 0.86485 0.59155 0.0
H903 H 0.03713 0.86903 0.62745 0.0
H904 H 0.08742 0.94165 0.5704 0.0
H905 H 0.06995 0.94813 0.6567 0.0
H906 H 0.02059 0.92954 0.54827 0.0
H907 H 0.03719 0.89669 0.552 0.0
H908 H 0.05547 0.92604 0.53831 0.0
H909 H 0.00011 0.93582 0.65287 0.0
H910 H 0.0287 0.93418 0.67577 0.0
H911 H 0.01631 0.90317 0.65905 0.0
C912 C 0.00362 0.39212 0.93031 0.0
C913 C 0.03018 0.40013 0.92436 0.0
C914 C 0.98167 0.4074 0.92049 0.0
C915 C 0.98635 0.43103 0.90382 0.0
C916 C 0.01306 0.43927 0.89756 0.0
C917 C 0.03477 0.42371 0.90801 0.0
C918 C 0.95345 0.39822 0.92801 0.0
C919 C 0.01864 0.46458 0.88007 0.0
C920 C 0.92614 0.45097 0.86029 0.0
C921 C 0.91341 0.47013 0.87759 0.0
C922 C 0.95071 0.43881 0.86804 0.0
C923 C 0.96297 0.44688 0.89314 0.0
C924 C 0.95093 0.46778 0.90962 0.0
C925 C 0.92591 0.47874 0.9019 0.0
C926 C 0.9627 0.4162 0.85023 0.0
C927 C 0.96355 0.47761 0.93613 0.0
H928 H -0.00017 0.37378 0.94269 0.0
H929 H 0.05526 0.42999 0.90335 0.0
H930 H 0.94301 0.41514 0.93937 0.0
H931 H 0.94161 0.39398 0.90911 0.0
H932 H 0.95334 0.37919 0.94102 0.0
H933 H 0.04058 0.46823 0.87712 0.0
H934 H 0.00904 0.46209 0.85961 0.0
H935 H 0.00963 0.48333 0.88979 0.0
H936 H 0.91623 0.44454 0.84144 0.0
H937 H 0.91598 0.49392 0.91499 0.0
H938 H 0.9616 0.39597 0.86122 0.0
H939 H 0.98431 0.42054 0.84614 0.0
H940 H 0.95197 0.41407 0.83029 0.0
H941 H 0.95802 0.46307 0.95293 0.0
H942 H 0.95618 0.4987 0.94172 0.0
H943 H 0.98587 0.47823 0.9347 0.0
C944 C 0.05886 0.04192 0.87244 0.0
C945 C 0.08259 0.0406 0.88797 0.0
C946 C 0.03534 0.05367 0.88352 0.0
C947 C 0.03549 0.06342 0.91101 0.0
C948 C 0.05948 0.06213 0.92673 0.0
C949 C 0.08288 0.05111 0.91485 0.0
C950 C 0.0103 0.05535 0.86595 0.0
C951 C 0.0602 0.07156 0.95637 0.0
C952 C 0.98344 0.11555 0.93531 0.0
C953 C 0.96433 0.0982 0.9478 0.0
C954 C 0.00634 0.10439 0.9226 0.0
C955 C 0.01066 0.07526 0.92335 0.0
C956 C 0.99161 0.05765 0.9364 0.0
C957 C 0.96828 0.06934 0.94805 0.0
C958 C 0.02582 0.12374 0.90827 0.0
C959 C 0.99611 0.02659 0.93847 0.0
H960 H 0.05866 0.03351 0.85174 0.0
H961 H 0.10108 0.04944 0.9271 0.0
H962 H 0.99404 0.04249 0.87512 0.0
H963 H 0.00288 0.07716 0.86522 0.0
H964 H 0.01393 0.04803 0.84459 0.0
H965 H 0.08036 0.0686 0.96589 0.0
H966 H 0.05472 0.09392 0.95781 0.0
H967 H 0.04512 0.05972 0.96852 0.0
H968 H 0.98016 0.13789 0.93498 0.0
H969 H 0.95351 0.05605 0.95795 0.0
H970 H 0.0286 0.11708 0.88659 0.0
H971 H 0.04586 0.12275 0.91836 0.0
H972 H 0.01881 0.14573 0.90847 0.0
H973 H -0.00256 0.01733 0.91762 0.0
H974 H 0.97971 0.01595 0.94997 0.0
H975 H 0.01555 0.02235 0.94898 0.0
C976 C 0.57038 0.03364 0.59192 0.0
C977 C 0.56531 0.05269 0.57058 0.0
C978 C 0.57616 0.00565 0.58619 0.0
C979 C 0.57662 -0.00335 0.55853 0.0
C980 C 0.57427 0.01633 0.53696 0.0
C981 C 0.56874 0.04419 0.54327 0.0
C982 C 0.57946 0.98545 0.60972 0.0
C983 C 0.57501 0.00756 0.5071 0.0
C984 C 0.59522 0.92716 0.52849 0.0
C985 C 0.5695 0.91753 0.52104 0.0
C986 C 0.59817 0.95179 0.5437 0.0
C987 C 0.57484 0.96667 0.55169 0.0
C988 C 0.54899 0.95481 0.54764 0.0
C989 C 0.54663 0.9303 0.53228 0.0
C990 C 0.62611 0.96332 0.54841 0.0
C991 C 0.52359 0.96963 0.55668 0.0
H992 H 0.56833 0.04017 0.61317 0.0
H993 H 0.56521 0.05882 0.52668 0.0
H994 H 0.56005 0.97455 0.61339 0.0
H995 H 0.59486 0.9694 0.60493 0.0
H996 H 0.58526 -0.00369 0.62902 0.0
H997 H 0.5757 0.02571 0.49295 0.0
H998 H 0.59283 -0.00578 0.50305 0.0
H999 H 0.55673 -0.00487 0.50225 0.0
H1000 H 0.61306 0.91679 0.52062 0.0
H1001 H 0.52675 0.92217 0.52759 0.0
H1002 H 0.62739 0.97474 0.5682 0.0
H1003 H 0.63105 0.97819 0.53169 0.0
H1004 H 0.64153 0.94652 0.54821 0.0
H1005 H 0.52562 0.97733 0.57808 0.0
H1006 H 0.50558 0.9559 0.55547 0.0
H1007 H 0.52011 0.98797 0.54324 0.0
C1008 C 0.5502 0.04517 0.93912 0.0
C1009 C 0.57009 0.06007 0.95336 0.0
C1010 C 0.55517 0.01833 0.92918 0.0
C1011 C 0.58081 0.006 0.93341 0.0
C1012 C 0.60166 0.02166 0.94594 0.0
C1013 C 0.59601 0.04856 0.95594 0.0
C1014 C 0.53235 0.00264 0.91549 0.0
C1015 C 0.62949 0.00967 0.95012 0.0
C1016 C 0.56759 0.92956 0.93907 0.0
C1017 C 0.56739 0.92233 0.91114 0.0
C1018 C 0.57549 0.95631 0.94742 0.0
C1019 C 0.58401 0.97582 0.92739 0.0
C1020 C 0.58841 0.9669 0.90003 0.0
C1021 C 0.57964 0.94027 0.89207 0.0
C1022 C 0.57073 0.96486 0.97691 0.0
C1023 C 0.59898 0.98656 0.87838 0.0
H1024 H 0.5303 0.05413 0.93647 0.0
H1025 H 0.61164 0.06007 0.96664 0.0
H1026 H 0.53869 -0.00483 0.8949 0.0
H1027 H 0.52694 0.98409 0.92795 0.0
H1028 H 0.51398 0.01565 0.91296 0.0
H1029 H 0.64486 0.0264 0.95214 0.0
H1030 H 0.62975 -0.00277 0.96932 0.0
H1031 H 0.63529 -0.00428 0.9329 0.0
H1032 H 0.55843 0.91572 0.95401 0.0
H1033 H 0.58011 0.93454 0.8705 0.0
H1034 H 0.55208 0.97763 0.97811 0.0
H1035 H 0.58765 0.97778 0.98463 0.0
H1036 H 0.56826 0.94654 0.99064 0.0
H1037 H 0.58199 -0.00111 0.86988 0.0
H1038 H 0.60853 0.97497 0.86116 0.0
H1039 H 0.61389 0.00133 0.88719 0.0
C1040 C 0.44163 0.53036 0.89553 0.0
C1041 C 0.43144 0.55724 0.8998 0.0
C1042 C 0.4305 0.50743 0.90903 0.0
C1043 C 0.40776 0.51129 0.92625 0.0
C1044 C 0.39515 0.53774 0.92762 0.0
C1045 C 0.40763 0.56072 0.91497 0.0
C1046 C 0.44516 0.47981 0.90736 0.0
C1047 C 0.36977 0.54235 0.94408 0.0
C1048 C 0.39085 0.44046 0.9543 0.0
C1049 C 0.40844 0.44001 0.97684 0.0
C1050 C 0.3873 0.4651 0.93908 0.0
C1051 C 0.40172 0.48936 0.94682 0.0
C1052 C 0.41648 0.48966 0.97175 0.0
C1053 C 0.41986 0.46484 0.9863 0.0
C1054 C 0.37029 0.46445 0.91339 0.0
C1055 C 0.43144 0.51529 0.98143 0.0
H1056 H 0.46003 0.52751 0.88379 0.0
H1057 H 0.39941 0.58144 0.9179 0.0
H1058 H 0.45407 0.47475 0.9277 0.0
H1059 H 0.43097 0.46284 0.90195 0.0
H1060 H 0.46167 0.48004 0.89191 0.0
H1061 H 0.35712 0.55879 0.93445 0.0
H1062 H 0.35768 0.52298 0.94594 0.0
H1063 H 0.37515 0.54959 0.96503 0.0
H1064 H 0.38163 0.42123 0.94731 0.0
H1065 H 0.43281 0.46452 0.00424 0.0
H1066 H 0.3834 0.46076 0.89527 0.0
H1067 H 0.35981 0.48465 0.91028 0.0
H1068 H 0.35508 0.44746 0.9142 0.0
H1069 H 0.44853 0.51961 0.96732 0.0
H1070 H 0.43958 0.51276 0.00257 0.0
H1071 H 0.41796 0.5337 0.9812 0.0
C1072 C 0.94343 0.07182 0.07575 0.0
C1073 C 0.92573 0.07476 0.05352 0.0
C1074 C 0.94607 0.04624 0.08926 0.0
C1075 C 0.93101 0.02311 0.07976 0.0
C1076 C 0.91039 0.02708 0.06001 0.0
C1077 C 0.90793 0.05306 0.04702 0.0
C1078 C 0.96761 0.04319 0.11099 0.0
C1079 C 0.89324 0.00309 0.05021 0.0
C1080 C 0.97442 0.95925 0.07133 0.0
C1081 C 0.9687 0.94433 0.09533 0.0
C1082 C 0.96165 0.98455 0.06584 0.0
C1083 C 0.94196 -0.00522 0.08442 0.0
C1084 C 0.93494 0.97902 0.10796 0.0
C1085 C 0.94885 0.95413 0.11345 0.0
C1086 C 0.97044 0.00101 0.04085 0.0
C1087 C 0.91373 0.98885 0.12799 0.0
H1088 H 0.95667 0.08893 0.08127 0.0
H1089 H 0.89391 0.05547 0.03008 0.0
H1090 H 0.96102 0.0289 0.12756 0.0
H1091 H 0.98602 0.03421 0.10149 0.0
H1092 H 0.97299 0.06362 0.12028 0.0
H1093 H 0.87459 0.0105 0.03988 0.0
H1094 H 0.90492 0.99045 0.03524 0.0
H1095 H 0.88764 0.98931 0.06762 0.0
H1096 H 0.99007 0.95193 0.05754 0.0
H1097 H 0.94442 0.94251 0.13201 0.0
H1098 H 0.97904 0.02132 0.04738 0.0
H1099 H 0.95286 0.00541 0.02745 0.0
H1100 H 0.98589 0.98987 0.02847 0.0
H1101 H 0.92311 0.00312 0.14318 0.0
H1102 H 0.90484 0.97109 0.1395 0.0
H1103 H 0.89732 0.00034 0.11742 0.0
C1104 C 0.97517 0.18581 0.35294 0.0
C1105 C 0.99047 0.16511 0.34011 0.0
C1106 C 0.98077 0.21394 0.34811 0.0
C1107 C 0.0028 0.2211 0.33091 0.0
C1108 C 0.01574 0.20035 0.31509 0.0
C1109 C 0.00893 0.17241 0.31948 0.0
C1110 C 0.96544 0.23573 0.36419 0.0
C1111 C 0.03931 0.20702 0.29661 0.0
C1112 C 0.01183 0.29856 0.32618 0.0
C1113 C 0.02429 0.30365 0.35167 0.0
C1114 C 0.00659 0.27131 0.31747 0.0
C1115 C 0.01519 0.24893 0.33408 0.0
C1116 C 0.03185 0.25402 0.35725 0.0
C1117 C 0.03587 0.28148 0.36608 0.0
C1118 C 0.98868 0.26689 0.29276 0.0
C1119 C 0.04267 0.2305 0.37466 0.0
H1120 H 0.96076 0.18005 0.36873 0.0
H1121 H 0.02081 0.15631 0.30954 0.0
H1122 H 0.97778 0.24261 0.38198 0.0
H1123 H 0.96128 0.25426 0.35124 0.0
H1124 H 0.94601 0.22747 0.37214 0.0
H1125 H 0.04187 0.19087 0.28043 0.0
H1126 H 0.03704 0.22766 0.28664 0.0
H1127 H 0.058 0.20755 0.30916 0.0
H1128 H 0.00303 0.31564 0.31467 0.0
H1129 H 0.04592 0.2854 0.38551 0.0
H1130 H 0.96738 0.26572 0.29972 0.0
H1131 H 0.99346 0.24719 0.28188 0.0
H1132 H 0.99039 0.28449 0.27802 0.0
H1133 H 0.0262 0.22204 0.38767 0.0
H1134 H 0.05922 0.2376 0.38839 0.0
H1135 H 0.05029 0.21329 0.36152 0.0
C1136 C 0.02612 0.69925 0.14929 0.0
C1137 C 0.00963 0.67607 0.15328 0.0
C1138 C 0.0154 0.72608 0.15154 0.0
C1139 C 0.98736 0.72933 0.15657 0.0
C1140 C 0.9715 0.7061 0.16391 0.0
C1141 C 0.98318 0.67962 0.16299 0.0
C1142 C 0.03338 0.75064 0.1451 0.0
C1143 C 0.94152 0.70828 0.16888 0.0
C1144 C 0.97333 0.80503 0.16072 0.0
C1145 C 0.97637 0.81147 0.13268 0.0
C1146 C 0.97319 0.77733 0.16944 0.0
C1147 C 0.97465 0.75613 0.14946 0.0
C1148 C 0.97105 0.76266 0.12129 0.0
C1149 C 0.97247 0.79054 0.11305 0.0
C1150 C 0.97613 0.77121 0.19972 0.0
C1151 C 0.96994 0.74021 0.09958 0.0
H1152 H 0.04652 0.69636 0.14176 0.0
H1153 H 0.97032 0.66155 0.16588 0.0
H1154 H 0.02955 0.75773 0.12373 0.0
H1155 H 0.02907 0.76833 0.15913 0.0
H1156 H 0.05508 0.74515 0.14686 0.0
H1157 H 0.93503 0.693 0.18471 0.0
H1158 H 0.93518 0.72943 0.17539 0.0
H1159 H 0.93074 0.7031 0.14953 0.0
H1160 H 0.97486 0.82131 0.17612 0.0
H1161 H 0.97345 0.7955 0.09132 0.0
H1162 H -0.00209 0.76939 0.20474 0.0
H1163 H 0.96628 0.75128 0.20538 0.0
H1164 H 0.96748 0.78822 0.21246 0.0
H1165 H 0.99073 0.73313 0.09481 0.0
H1166 H 0.96067 0.74804 0.08027 0.0
H1167 H 0.95828 0.72195 0.10698 0.0
C1168 C 0.37149 0.97361 0.19805 0.0
C1169 C 0.35168 0.97247 0.17756 0.0
C1170 C 0.36782 0.98987 0.22166 0.0
C1171 C 0.34358 0.0052 0.22503 0.0
C1172 C 0.32451 0.006 0.20346 0.0
C1173 C 0.32864 0.9894 0.18005 0.0
C1174 C 0.38911 0.98893 0.2439 0.0
C1175 C 0.299 0.02299 0.20571 0.0
C1176 C 0.32664 0.00298 0.29991 0.0
C1177 C 0.34324 0.02458 0.30938 0.0
C1178 C 0.32406 -0.00217 0.27171 0.0
C1179 C 0.33674 0.01605 0.25278 0.0
C1180 C 0.34847 0.04113 0.26237 0.0
C1181 C 0.35233 0.04476 0.29075 0.0
C1182 C 0.31181 0.97048 0.26261 0.0
C1183 C 0.36013 0.06232 0.24285 0.0
H1184 H 0.38931 0.96065 0.19635 0.0
H1185 H 0.31322 0.98886 0.16426 0.0
H1186 H 0.39563 0.01034 0.24931 0.0
H1187 H 0.38062 0.97927 0.26275 0.0
H1188 H 0.40719 0.97686 0.23756 0.0
H1189 H 0.29038 0.02761 0.18513 0.0
H1190 H 0.2837 0.01114 0.21755 0.0
H1191 H 0.30273 0.04291 0.21669 0.0
H1192 H 0.31956 0.98733 0.31431 0.0
H1193 H 0.36496 0.06167 0.29807 0.0
H1194 H 0.32813 0.95616 0.25587 0.0
H1195 H 0.2981 0.97361 0.2449 0.0
H1196 H 0.30037 0.96017 0.2794 0.0
H1197 H 0.3818 0.05774 0.23943 0.0
H1198 H 0.35864 0.08361 0.2517 0.0
H1199 H 0.34969 0.06196 0.22266 0.0
C1200 C 0.65634 0.54197 0.21174 0.0
C1201 C 0.63674 0.53501 0.19219 0.0
C1202 C 0.65891 0.52658 0.23618 0.0
C1203 C 0.64224 0.503 0.24045 0.0
C1204 C 0.62263 0.49576 0.22059 0.0
C1205 C 0.61976 0.51223 0.19705 0.0
C1206 C 0.67929 0.5356 0.25745 0.0
C1207 C 0.60486 0.4704 0.22402 0.0
C1208 C 0.66287 0.44757 0.29224 0.0
C1209 C 0.64526 0.45336 0.31399 0.0
C1210 C 0.66236 0.46371 0.2681 0.0
C1211 C 0.64428 0.48651 0.26617 0.0
C1212 C 0.62698 0.49279 0.2884 0.0
C1213 C 0.62755 0.47599 0.31187 0.0
C1214 C 0.68069 0.45606 0.2445 0.0
C1215 C 0.60771 0.51719 0.2874 0.0
H1216 H 0.66957 0.55955 0.20794 0.0
H1217 H 0.60472 0.50653 0.18221 0.0
H1218 H 0.66907 0.53931 0.27742 0.0
H1219 H 0.69433 0.51883 0.26075 0.0
H1220 H 0.6901 0.55492 0.25136 0.0
H1221 H 0.5919 0.4666 0.20577 0.0
H1222 H 0.61746 0.45164 0.22761 0.0
H1223 H 0.59168 0.47301 0.24226 0.0
H1224 H 0.67673 0.43018 0.29397 0.0
H1225 H 0.61432 0.48102 0.32862 0.0
H1226 H 0.69373 0.474 0.23907 0.0
H1227 H 0.66842 0.45102 0.22607 0.0
H1228 H 0.69373 0.4379 0.24937 0.0
H1229 H 0.61878 0.53658 0.28218 0.0
H1230 H 0.59699 0.52039 0.30723 0.0
H1231 H 0.59244 0.51377 0.27108 0.0
C1232 C 0.30374 0.36802 0.99556 0.0
C1233 C 0.3107 0.37053 0.02339 0.0
C1234 C 0.2772 0.37214 0.98681 0.0
C1235 C 0.25709 0.37841 0.00646 0.0
C1236 C 0.26398 0.38127 0.03457 0.0
C1237 C 0.29086 0.3775 0.04271 0.0
C1238 C 0.27062 0.36929 0.9566 0.0
C1239 C 0.24286 0.38754 0.05607 0.0
C1240 C 0.19034 0.40615 0.98018 0.0
C1241 C 0.17509 0.38161 0.9787 0.0
C1242 C 0.21711 0.40557 0.98949 0.0
C1243 C 0.22859 0.37988 -0.0023 0.0
C1244 C 0.2132 0.35512 -0.00353 0.0
C1245 C 0.1867 0.35626 0.98683 0.0
C1246 C 0.23318 0.43228 0.9903 0.0
C1247 C 0.22478 0.32737 0.00524 0.0
H1248 H 0.31913 0.36305 0.98049 0.0
H1249 H 0.29625 0.37952 0.06422 0.0
H1250 H 0.2571 0.35115 0.9534 0.0
H1251 H 0.25973 0.38806 0.94925 0.0
H1252 H 0.28895 0.36636 0.94379 0.0
H1253 H 0.25175 0.39048 0.07684 0.0
H1254 H 0.2315 0.40662 0.05046 0.0
H1255 H 0.22812 0.37016 0.05702 0.0
H1256 H 0.18141 0.42579 0.97398 0.0
H1257 H 0.17497 0.33721 0.98595 0.0
H1258 H 0.25109 0.43042 0.97674 0.0
H1259 H 0.24068 0.43616 0.01144 0.0
H1260 H 0.22112 0.45058 0.9836 0.0
H1261 H 0.24215 0.32186 0.99192 0.0
H1262 H 0.20971 0.31027 0.00408 0.0
H1263 H 0.23239 0.32872 0.02665 0.0
C1264 C 0.17863 0.61594 0.5009 0.0
C1265 C 0.17565 0.61007 0.52901 0.0
C1266 C 0.20412 0.61523 0.48828 0.0
C1267 C 0.22716 0.60862 0.50417 0.0
C1268 C 0.22426 0.60254 0.5325 0.0
C1269 C 0.19855 0.60328 0.54455 0.0
C1270 C 0.20641 0.62171 0.45799 0.0
C1271 C 0.24837 0.5955 0.55017 0.0
C1272 C 0.29212 0.58384 0.47055 0.0
C1273 C 0.30785 0.60814 0.47109 0.0
C1274 C 0.26551 0.58386 0.4805 0.0
C1275 C 0.25447 0.60872 0.49146 0.0
C1276 C 0.27003 0.63346 0.49147 0.0
C1277 C 0.29646 0.63289 0.48119 0.0
C1278 C 0.24944 0.55714 0.47989 0.0
C1279 C 0.25903 0.66035 0.50309 0.0
H1280 H 0.16104 0.62111 0.4887 0.0
H1281 H 0.19646 0.59869 0.56626 0.0
H1282 H 0.2194 0.64027 0.45494 0.0
H1283 H 0.21614 0.60406 0.44708 0.0
H1284 H 0.18647 0.62578 0.44838 0.0
H1285 H 0.24265 0.591 0.5718 0.0
H1286 H 0.25899 0.57707 0.54166 0.0
H1287 H 0.26287 0.61311 0.55005 0.0
H1288 H 0.3007 0.56465 0.46267 0.0
H1289 H 0.30844 0.65179 0.4817 0.0
H1290 H 0.22979 0.5606 0.46951 0.0
H1291 H 0.24503 0.55031 0.50121 0.0
H1292 H 0.26029 0.54008 0.4691 0.0
H1293 H 0.2397 0.66576 0.49294 0.0
H1294 H 0.27327 0.67803 0.50049 0.0
H1295 H 0.25478 0.65775 0.52535 0.0
C1296 C 0.68754 0.86765 0.50218 0.0
C1297 C 0.68341 0.85471 0.47667 0.0
C1298 C 0.7134 0.8763 0.51022 0.0
C1299 C 0.73555 0.87127 0.49255 0.0
C1300 C 0.73123 0.85943 0.46626 0.0
C1301 C 0.70516 0.8514 0.45859 0.0
C1302 C 0.71714 0.88959 0.5381 0.0
C1303 C 0.75435 0.85378 0.44679 0.0
C1304 C 0.80627 0.89869 0.50559 0.0
C1305 C 0.81856 0.87497 0.51681 0.0
C1306 C 0.7788 0.89839 0.49847 0.0
C1307 C 0.76349 0.87389 0.50301 0.0
C1308 C 0.77557 0.85047 0.51563 0.0
C1309 C 0.80297 0.85126 0.52223 0.0
C1310 C 0.7665 0.92376 0.48512 0.0
C1311 C 0.75982 0.82408 0.52114 0.0
H1312 H 0.67059 0.87105 0.51586 0.0
H1313 H 0.70195 0.84184 0.43865 0.0
H1314 H 0.726 0.87412 0.55244 0.0
H1315 H 0.73128 0.90746 0.53689 0.0
H1316 H 0.69771 0.89697 0.54687 0.0
H1317 H 0.74725 0.84778 0.42595 0.0
H1318 H 0.76747 0.87241 0.44493 0.0
H1319 H 0.76691 0.83658 0.45505 0.0
H1320 H 0.81829 0.9171 0.50151 0.0
H1321 H 0.81228 0.83304 0.53136 0.0
H1322 H 0.74709 0.92919 0.49513 0.0
H1323 H 0.76209 0.9192 0.46321 0.0
H1324 H 0.78013 0.94212 0.48608 0.0
H1325 H 0.74125 0.82888 0.53296 0.0
H1326 H 0.77175 0.80847 0.5328 0.0
H1327 H 0.75349 0.81457 0.50135 0.0
C1328 C 0.5088 0.80367 0.8124 0.0
C1329 C 0.52219 0.80378 0.8379 0.0
C1330 C 0.49813 0.77893 0.80165 0.0
C1331 C 0.50184 0.7539 0.81636 0.0
C1332 C 0.51947 0.75332 0.83936 0.0
C1333 C 0.52925 0.77844 0.85006 0.0
C1334 C 0.48005 0.78058 0.77676 0.0
C1335 C 0.52517 0.7267 0.85488 0.0
C1336 C 0.45154 0.701 0.83693 0.0
C1337 C 0.46446 0.67731 0.82649 0.0
C1338 C 0.4608 0.72758 0.82984 0.0
C1339 C 0.48341 0.72998 0.81218 0.0
C1340 C 0.49218 0.70658 0.79705 0.0
C1341 C 0.48214 0.68024 0.80409 0.0
C1342 C 0.44954 0.75248 0.84497 0.0
C1343 C 0.51525 0.70847 0.77695 0.0
H1344 H 0.50365 0.82319 0.80249 0.0
H1345 H 0.54015 0.77841 0.8694 0.0
H1346 H 0.47828 0.7603 0.76596 0.0
H1347 H 0.45958 0.78712 0.78338 0.0
H1348 H 0.48763 0.79648 0.76207 0.0
H1349 H 0.54241 0.72906 0.86929 0.0
H1350 H 0.5071 0.72073 0.867 0.0
H1351 H 0.52971 0.70942 0.84045 0.0
H1352 H 0.43702 0.69879 0.85347 0.0
H1353 H 0.49147 0.66196 0.79506 0.0
H1354 H 0.44848 0.7709 0.83126 0.0
H1355 H 0.463 0.75774 0.86246 0.0
H1356 H 0.42908 0.74818 0.85328 0.0
H1357 H 0.51593 0.72909 0.76668 0.0
H1358 H 0.51377 0.69189 0.76106 0.0
H1359 H 0.53453 0.70551 0.78818 0.0
C1360 C 0.46185 0.29324 0.63519 0.0
C1361 C 0.44881 0.30107 0.61075 0.0
C1362 C 0.47998 0.27086 0.63568 0.0
C1363 C 0.48567 0.25635 0.61103 0.0
C1364 C 0.4731 0.26445 0.58621 0.0
C1365 C 0.45413 0.28606 0.58657 0.0
C1366 C 0.49237 0.26218 0.66273 0.0
C1367 C 0.47907 0.24973 0.55943 0.0
C1368 C 0.54643 0.20829 0.60846 0.0
C1369 C 0.53439 0.18259 0.61419 0.0
C1370 C 0.53087 0.23273 0.60761 0.0
C1371 C 0.50264 0.23098 0.61171 0.0
C1372 C 0.49039 0.20487 0.61683 0.0
C1373 C 0.50652 0.18107 0.61861 0.0
C1374 C 0.5446 0.26038 0.60278 0.0
C1375 C 0.46027 0.20208 0.62072 0.0
H1376 H 0.45744 0.30422 0.65415 0.0
H1377 H 0.4433 0.29094 0.56787 0.0
H1378 H 0.48525 0.24099 0.66829 0.0
H1379 H 0.51465 0.26119 0.66089 0.0
H1380 H 0.48709 0.27665 0.67974 0.0
H1381 H 0.47016 0.26072 0.5415 0.0
H1382 H 0.50117 0.24801 0.55625 0.0
H1383 H 0.47083 0.22824 0.56012 0.0
H1384 H 0.56807 0.20935 0.60545 0.0
H1385 H 0.4973 0.16126 0.62354 0.0
H1386 H 0.54093 0.27443 0.62052 0.0
H1387 H 0.53597 0.27064 0.58434 0.0
H1388 H 0.56672 0.25812 0.59991 0.0
H1389 H 0.45373 0.21445 0.63881 0.0
H1390 H 0.45393 0.18009 0.62376 0.0
H1391 H 0.44953 0.21048 0.60251 0.0
C1392 C 0.86948 0.51153 0.78832 0.0
C1393 C 0.85268 0.53471 0.791 0.0
C1394 C 0.86772 0.49368 0.76587 0.0
C1395 C 0.85071 0.50086 0.74367 0.0
C1396 C 0.83526 0.52576 0.74495 0.0
C1397 C 0.83564 0.54182 0.76917 0.0
C1398 C 0.88378 0.46682 0.7668 0.0
C1399 C 0.81799 0.53559 0.72134 0.0
C1400 C 0.8723 0.45466 0.68504 0.0
C1401 C 0.84929 0.43829 0.68095 0.0
C1402 C 0.87176 0.47743 0.70293 0.0
C1403 C 0.84892 0.48153 0.71999 0.0
C1404 C 0.82608 0.46396 0.71699 0.0
C1405 C 0.82613 0.44341 0.6965 0.0
C1406 C 0.89599 0.49654 0.70332 0.0
C1407 C 0.80175 0.46617 0.73556 0.0
H1408 H 0.88334 0.50615 0.80411 0.0
H1409 H 0.82273 0.55997 0.77094 0.0
H1410 H 0.87355 0.44958 0.75573 0.0
H1411 H 0.90382 0.47031 0.75732 0.0
H1412 H 0.88733 0.45998 0.78833 0.0
H1413 H 0.82065 0.55838 0.71836 0.0
H1414 H 0.82269 0.52488 0.70169 0.0
H1415 H 0.79644 0.53214 0.72648 0.0
H1416 H 0.89062 0.45024 0.67376 0.0
H1417 H 0.80836 0.43062 0.69329 0.0
H1418 H 0.91368 0.48518 0.71166 0.0
H1419 H 0.89273 0.51584 0.71542 0.0
H1420 H 0.90126 0.50259 0.68193 0.0
H1421 H 0.80751 0.47166 0.75694 0.0
H1422 H 0.79017 0.44635 0.73608 0.0
H1423 H 0.78813 0.48261 0.72762 0.0
C1424 C 0.11836 0.00025 0.69976 0.0
C1425 C 0.1337 0.02422 0.69504 0.0
C1426 C 0.11744 0.98756 0.72547 0.0
C1427 C 0.13056 0.0004 0.74788 0.0
C1428 C 0.14507 0.02554 0.74384 0.0
C1429 C 0.14718 0.03672 0.71715 0.0
C1430 C 0.10268 0.96007 0.72831 0.0
C1431 C 0.15807 0.04068 0.76759 0.0
C1432 C 0.09964 0.97223 0.81292 0.0
C1433 C 0.1203 0.95531 0.82328 0.0
C1434 C 0.10411 0.98969 0.79033 0.0
C1435 C 0.12844 0.98725 0.77534 0.0
C1436 C 0.14873 0.9687 0.78446 0.0
C1437 C 0.1448 0.9538 0.80891 0.0
C1438 C 0.08244 0.01025 0.78227 0.0
C1439 C 0.17376 0.96325 0.76758 0.0
H1440 H 0.10754 0.99061 0.68341 0.0
H1441 H 0.15905 0.05536 0.71361 0.0
H1442 H 0.11475 0.94504 0.74052 0.0
H1443 H 0.0833 0.96336 0.73916 0.0
H1444 H 0.09816 0.95048 0.70802 0.0
H1445 H 0.16502 0.06185 0.76168 0.0
H1446 H 0.14364 0.04254 0.78496 0.0
H1447 H 0.17571 0.02872 0.77508 0.0
H1448 H 0.0801 0.9725 0.82258 0.0
H1449 H 0.16054 0.93997 0.81623 0.0
H1450 H 0.06951 0.0011 0.76601 0.0
H1451 H 0.09137 0.02979 0.77412 0.0
H1452 H 0.0693 0.01554 0.80004 0.0
H1453 H 0.16791 0.95508 0.74706 0.0
H1454 H 0.18745 0.94794 0.77751 0.0
H1455 H 0.18504 0.98286 0.76417 0.0
C1456 C 0.80152 0.12443 0.00177 0.0
C1457 C 0.81371 0.10633 0.98282 0.0
C1458 C 0.77366 0.12397 0.00613 0.0
C1459 C 0.75755 0.10502 0.9911 0.0
C1460 C 0.76971 0.08628 0.97232 0.0
C1461 C 0.79775 0.08711 0.96844 0.0
C1462 C 0.76141 0.1442 0.02643 0.0
C1463 C 0.75302 0.0659 0.95588 0.0
C1464 C 0.68734 0.09237 0.01917 0.0
C1465 C 0.67221 0.1116 0.00395 0.0
C1466 C 0.71515 0.08945 0.01475 0.0
C1467 C 0.72787 0.10583 0.99434 0.0
C1468 C 0.71251 0.12461 0.97831 0.0
C1469 C 0.68487 0.12745 0.98348 0.0
C1470 C 0.73105 0.06953 0.03249 0.0
C1471 C 0.72537 0.14217 0.95612 0.0
H1472 H 0.81373 0.13924 0.01311 0.0
H1473 H 0.80707 0.07307 0.95378 0.0
H1474 H 0.74768 0.15874 0.01555 0.0
H1475 H 0.74916 0.13279 0.04185 0.0
H1476 H 0.77693 0.15665 0.03743 0.0
H1477 H 0.76569 0.05191 0.94304 0.0
H1478 H 0.74053 0.05295 0.96983 0.0
H1479 H 0.739 0.07743 0.94223 0.0
H1480 H 0.67758 0.08009 0.035 0.0
H1481 H 0.67315 0.14209 0.97143 0.0
H1482 H 0.74567 0.08138 0.04522 0.0
H1483 H 0.74284 0.055 0.01944 0.0
H1484 H 0.71789 0.05717 0.04638 0.0
H1485 H 0.73981 0.15706 0.96551 0.0
H1486 H 0.71025 0.15419 0.94415 0.0
H1487 H 0.73696 0.12878 0.94174 0.0
C1488 C 0.00174 0.95401 0.18061 0.0
C1489 C 0.97871 0.93871 0.18754 0.0
C1490 C 0.00235 0.98285 0.18514 0.0
C1491 C 0.97971 -0.00434 0.19753 0.0
C1492 C 0.95464 0.98166 0.19707 0.0
C1493 C 0.95444 0.95287 0.19229 0.0
C1494 C 0.02884 -0.00203 0.18258 0.0
C1495 C 0.92935 -0.00462 0.20762 0.0
C1496 C 0.99654 0.02148 0.26881 0.0
C1497 C 0.99638 0.0504 0.26557 0.0
C1498 C 0.99106 0.00374 0.24683 0.0
C1499 C 0.98478 0.01519 0.22065 0.0
C1500 C 0.98386 0.04448 0.21726 0.0
C1501 C 0.98997 0.06182 0.2398 0.0
C1502 C 0.99242 0.97266 0.25197 0.0
C1503 C 0.97708 0.05764 0.18996 0.0
H1504 H 0.02039 0.94321 0.17627 0.0
H1505 H 0.9362 0.94109 0.19637 0.0
H1506 H 0.02559 0.0202 0.17735 0.0
H1507 H 0.03968 -0.00302 0.20254 0.0
H1508 H 0.04181 0.98822 0.16661 0.0
H1509 H 0.91111 0.98551 0.19858 0.0
H1510 H 0.92835 0.99288 0.23029 0.0
H1511 H 0.92922 0.01798 0.20286 0.0
H1512 H 0.00148 0.01247 0.28862 0.0
H1513 H 0.98977 0.08425 0.23718 0.0
H1514 H 0.00782 0.963 0.23847 0.0
H1515 H 0.97264 0.96289 0.2475 0.0
H1516 H -0.00224 0.96755 0.27357 0.0
H1517 H 0.99583 0.05997 0.17773 0.0
H1518 H 0.96825 0.07873 0.19277 0.0
H1519 H 0.96279 0.04471 0.17791 0.0
C1520 C 0.97913 0.42509 0.26553 0.0
C1521 C 0.95776 0.42275 0.28415 0.0
C1522 C 0.97936 0.44639 0.24595 0.0
C1523 C 0.95811 0.46606 0.24581 0.0
C1524 C 0.93632 0.46354 0.26437 0.0
C1525 C 0.9362 0.44152 0.28311 0.0
C1526 C 0.00256 0.4482 0.22589 0.0
C1527 C 0.9138 0.48473 0.26523 0.0
C1528 C 0.97442 0.53585 0.21434 0.0
C1529 C 0.96144 0.53349 0.18892 0.0
C1530 C 0.97288 0.51423 0.23352 0.0
C1531 C 0.95885 0.48956 0.22645 0.0
C1532 C 0.94572 0.48716 0.20078 0.0
C1533 C 0.9468 0.50947 0.18242 0.0
C1534 C 0.98642 0.51765 0.26115 0.0
C1535 C 0.93129 0.46076 0.19238 0.0
H1536 H 0.99578 0.41047 0.26655 0.0
H1537 H 0.91992 0.43989 0.29793 0.0
H1538 H 0.99482 0.44965 0.20453 0.0
H1539 H 0.01446 0.46734 0.22993 0.0
H1540 H 0.01625 0.42994 0.22734 0.0
H1541 H 0.89821 0.47949 0.2808 0.0
H1542 H 0.92218 0.5056 0.27013 0.0
H1543 H 0.90395 0.48628 0.24481 0.0
H1544 H 0.98567 0.5546 0.21919 0.0
H1545 H 0.93712 0.50767 0.16251 0.0
H1546 H 0.00305 0.50235 0.26323 0.0
H1547 H 0.97181 0.51342 0.27793 0.0
H1548 H 0.99484 0.53891 0.26405 0.0
H1549 H 0.94564 0.44301 0.19258 0.0
H1550 H 0.92225 0.46233 0.17154 0.0
H1551 H 0.91506 0.45585 0.20731 0.0
C1552 C 0.22949 0.02123 0.93392 0.0
C1553 C 0.20997 0.00047 0.93025 0.0
C1554 C 0.24366 0.02346 0.95878 0.0
C1555 C 0.23766 0.00483 0.9805 0.0
C1556 C 0.21793 0.98388 0.97691 0.0
C1557 C 0.20454 0.98174 0.95169 0.0
C1558 C 0.26493 0.04577 0.96184 0.0
C1559 C 0.21069 0.96396 -0.0002 0.0
C1560 C 0.29033 0.99167 0.03499 0.0
C1561 C 0.28163 0.00916 0.05636 0.0
C1562 C 0.27634 0.99037 0.0101 0.0
C1563 C 0.25275 0.00652 0.00669 0.0
C1564 C 0.24354 0.02389 0.0283 0.0
C1565 C 0.25833 0.02526 0.05288 0.0
C1566 C 0.28699 0.97193 0.98734 0.0
C1567 C 0.21809 0.04092 0.02546 0.0
H1568 H 0.23354 0.03582 0.91742 0.0
H1569 H 0.18907 0.96597 0.94915 0.0
H1570 H 0.25967 0.05984 0.97913 0.0
H1571 H 0.28465 0.03608 0.96684 0.0
H1572 H 0.26727 0.05846 0.9429 0.0
H1573 H 0.19384 0.94983 0.9941 0.0
H1574 H 0.22849 0.9511 0.00525 0.0
H1575 H 0.20481 0.97577 0.01849 0.0
H1576 H 0.30854 0.97942 0.03744 0.0
H1577 H 0.25159 0.03874 0.0694 0.0
H1578 H 0.29075 0.98453 0.9686 0.0
H1579 H 0.27176 0.95591 0.98192 0.0
H1580 H 0.30602 0.96122 0.99314 0.0
H1581 H 0.22011 0.05569 0.00805 0.0
H1582 H 0.21342 0.05295 0.0444 0.0
H1583 H 0.20078 0.02705 0.02076 0.0
C1584 C 0.70797 0.48242 0.0341 0.0
C1585 C 0.70092 0.50514 0.05075 0.0
C1586 C 0.72506 0.48581 0.01143 0.0
C1587 C 0.73538 0.51259 0.0053 0.0
C1588 C 0.72809 0.53571 0.02177 0.0
C1589 C 0.71093 0.53171 0.04437 0.0
C1590 C 0.73249 0.46063 0.99438 0.0
C1591 C 0.73876 0.56454 0.01578 0.0
C1592 C 0.80196 0.51249 0.96772 0.0
C1593 C 0.79389 0.51645 0.94035 0.0
C1594 C 0.78314 0.51202 0.98909 0.0
C1595 C 0.75552 0.51578 0.98301 0.0
C1596 C 0.74722 0.52084 0.95559 0.0
C1597 C 0.76658 0.52106 0.93447 0.0
C1598 C 0.79279 0.50648 0.01806 0.0
C1599 C 0.71788 0.52516 0.94849 0.0
H1600 H 0.70018 0.46185 0.03878 0.0
H1601 H 0.70537 0.5494 0.05702 0.0
H1602 H 0.72783 0.46447 0.97239 0.0
H1603 H 0.7545 0.45674 0.99592 0.0
H1604 H 0.72164 0.44154 0.00106 0.0
H1605 H 0.72993 0.58058 0.02959 0.0
H1606 H 0.76101 0.56481 0.01826 0.0
H1607 H 0.73435 0.57033 0.99416 0.0
H1608 H 0.82307 0.50915 0.97251 0.0
H1609 H 0.76026 0.52423 0.91337 0.0
H1610 H 0.78442 0.48638 0.02544 0.0
H1611 H 0.78545 0.52299 0.03217 0.0
H1612 H 0.81514 0.50553 0.01948 0.0
H1613 H 0.70646 0.50569 0.95249 0.0
H1614 H 0.71501 0.53108 0.92661 0.0
H1615 H 0.70904 0.54164 0.96172 0.0
C1616 C 0.29681 -0.00185 0.46043 0.0
C1617 C 0.28713 0.9845 0.43688 0.0
C1618 C 0.28108 0.00014 0.48425 0.0
C1619 C 0.25502 0.98821 0.48454 0.0
C1620 C 0.24449 0.9758 0.46038 0.0
C1621 C 0.26072 0.97406 0.43677 0.0
C1622 C 0.29293 0.01375 0.50954 0.0
C1623 C 0.21659 0.96319 0.45987 0.0
C1624 C 0.2294 0.96137 0.55295 0.0
C1625 C 0.21202 0.98281 0.56111 0.0
C1626 C 0.2436 0.96301 0.5281 0.0
C1627 C 0.23993 0.98646 0.51082 0.0
C1628 C 0.22241 0.00822 0.51897 0.0
C1629 C 0.20882 0.00625 0.54419 0.0
C1630 C 0.2624 0.93955 0.52025 0.0
C1631 C 0.21763 0.03327 0.50083 0.0
H1632 H 0.31708 0.00663 0.46059 0.0
H1633 H 0.25303 0.96367 0.41859 0.0
H1634 H 0.27877 0.02947 0.51798 0.0
H1635 H 0.29614 -0.00222 0.5257 0.0
H1636 H 0.31253 0.0241 0.50522 0.0
H1637 H 0.21025 0.95724 0.43875 0.0
H1638 H 0.21621 0.94428 0.47298 0.0
H1639 H 0.20161 0.97802 0.46843 0.0
H1640 H 0.2318 0.94321 0.56597 0.0
H1641 H 0.19498 0.02265 0.5502 0.0
H1642 H 0.28309 0.94776 0.51709 0.0
H1643 H 0.2558 0.93011 0.50053 0.0
H1644 H 0.26318 0.92294 0.53613 0.0
H1645 H 0.23701 0.0439 0.49639 0.0
H1646 H 0.20359 0.04853 0.51035 0.0
H1647 H 0.20906 0.02648 0.48084 0.0
C1648 C 0.79373 0.48015 0.55876 0.0
C1649 C 0.78058 0.46471 0.57918 0.0
C1650 C 0.78627 0.47714 0.53099 0.0
C1651 C 0.76502 0.45869 0.52399 0.0
C1652 C 0.75512 0.43993 0.54405 0.0
C1653 C 0.76286 0.44339 0.57154 0.0
C1654 C 0.79852 0.49626 0.50983 0.0
C1655 C 0.73322 0.41914 0.5374 0.0
C1656 C 0.70809 0.48792 0.48106 0.0
C1657 C 0.70934 0.47162 0.45725 0.0
C1658 C 0.72673 0.48444 0.50236 0.0
C1659 C 0.74777 0.46459 0.49957 0.0
C1660 C 0.75001 0.44897 0.47493 0.0
C1661 C 0.73047 0.45239 0.45413 0.0
C1662 C 0.72311 0.50132 0.52839 0.0
C1663 C 0.77302 0.42887 0.47046 0.0
H1664 H 0.80758 0.49658 0.5647 0.0
H1665 H 0.75289 0.43132 0.58742 0.0
H1666 H 0.80137 0.48517 0.49002 0.0
H1667 H 0.78471 0.51406 0.5061 0.0
H1668 H 0.81825 0.50466 0.51681 0.0
H1669 H 0.73144 0.40289 0.55356 0.0
H1670 H 0.7136 0.43019 0.53584 0.0
H1671 H 0.73712 0.40882 0.51738 0.0
H1672 H 0.6918 0.50279 0.48354 0.0
H1673 H 0.73177 0.44018 0.43542 0.0
H1674 H 0.74159 0.51358 0.53272 0.0
H1675 H 0.71969 0.48718 0.5461 0.0
H1676 H 0.7058 0.51596 0.52708 0.0
H1677 H 0.79187 0.44084 0.46702 0.0
H1678 H 0.7696 0.41523 0.45233 0.0
H1679 H 0.77629 0.4156 0.48883 0.0
C1680 C 0.02485 0.30057 0.9832 0.0
C1681 C 0.04659 0.29725 0.00124 0.0
C1682 C 0.00293 0.28234 0.98387 0.0
C1683 C 0.00382 0.25912 0.00165 0.0
C1684 C 0.02713 0.25397 0.01776 0.0
C1685 C 0.04816 0.27356 0.01781 0.0
C1686 C 0.97828 0.28892 0.96679 0.0
C1687 C 0.02943 0.22834 0.03558 0.0
C1688 C 0.93972 0.22734 0.02994 0.0
C1689 C 0.93574 0.20526 0.0117 0.0
C1690 C 0.96122 0.24591 0.0261 0.0
C1691 C 0.9798 0.2411 0.00444 0.0
C1692 C 0.97544 0.21906 0.98567 0.0
C1693 C 0.9528 0.20204 0.98899 0.0
C1694 C 0.96457 0.27006 0.04572 0.0
C1695 C 0.99526 0.2125 0.96295 0.0
H1696 H 0.02449 0.31799 0.96919 0.0
H1697 H 0.06533 0.27082 0.03135 0.0
H1698 H 0.97443 0.27193 0.95188 0.0
H1699 H 0.96028 0.2905 0.98027 0.0
H1700 H 0.98043 0.30877 0.95523 0.0
H1701 H 0.05016 0.22556 0.04382 0.0
H1702 H 0.01527 0.22998 0.05315 0.0
H1703 H 0.0238 0.20946 0.02368 0.0
H1704 H 0.92656 0.22954 0.04761 0.0
H1705 H 0.94945 0.18507 0.9748 0.0
H1706 H 0.96754 0.28973 0.03409 0.0
H1707 H 0.98276 0.26682 0.05859 0.0
H1708 H 0.94687 0.27254 0.05952 0.0
H1709 H 0.99367 0.22837 0.94649 0.0
H1710 H 0.9915 0.1917 0.95363 0.0
H1711 H 0.01627 0.21301 0.97083 0.0
C1712 C 0.03066 0.68321 0.47468 0.0
C1713 C 0.04265 0.68673 0.50051 0.0
C1714 C 0.01409 0.70405 0.46358 0.0
C1715 C 0.00869 0.72814 0.47938 0.0
C1716 C 0.02332 0.73304 0.504 0.0
C1717 C 0.04043 0.71223 0.51414 0.0
C1718 C 0.00019 0.69884 0.43648 0.0
C1719 C 0.01838 0.75859 0.52147 0.0
C1720 C 0.96669 0.79115 0.46345 0.0
C1721 C 0.94368 0.78525 0.4792 0.0
C1722 C 0.98723 0.7714 0.46042 0.0
C1723 C 0.9845 0.74533 0.47356 0.0
C1724 C 0.95957 0.73796 0.48597 0.0
C1725 C 0.93923 0.75812 0.48848 0.0
C1726 C 0.01297 0.7798 0.4461 0.0
C1727 C 0.9557 0.7101 0.49985 0.0
H1728 H 0.0323 0.66327 0.4643 0.0
H1729 H 0.04951 0.71461 0.5343 0.0
H1730 H 0.98041 0.68872 0.44026 0.0
H1731 H 0.99649 0.7186 0.42524 0.0
H1732 H 0.01232 0.68472 0.42325 0.0
H1733 H 0.03298 0.76028 0.53872 0.0
H1734 H 0.01977 0.77775 0.50884 0.0
H1735 H -0.00229 0.75771 0.53021 0.0
H1736 H 0.97018 0.81235 0.45655 0.0
H1737 H 0.92161 0.75373 0.50098 0.0
H1738 H 0.02251 0.76174 0.43567 0.0
H1739 H 0.02747 0.78804 0.46145 0.0
H1740 H 0.0092 0.79646 0.43072 0.0
H1741 H 0.96155 0.69293 0.48581 0.0
H1742 H 0.93448 0.70677 0.50643 0.0
H1743 H 0.96887 0.70885 0.51827 0.0
C1744 C 0.53428 0.76826 0.50856 0.0
C1745 C 0.53158 0.79699 0.51222 0.0
C1746 C 0.51203 0.75062 0.51295 0.0
C1747 C 0.48666 0.76239 0.52004 0.0
C1748 C 0.48488 0.7909 0.5268 0.0
C1749 C 0.50775 0.80763 0.52387 0.0
C1750 C 0.51489 0.71989 0.507 0.0
C1751 C 0.45823 0.80456 0.53354 0.0
C1752 C 0.43065 0.72294 0.48488 0.0
C1753 C 0.42389 0.70378 0.50543 0.0
C1754 C 0.44982 0.74377 0.48996 0.0
C1755 C 0.46173 0.74572 0.5164 0.0
C1756 C 0.45186 0.72912 0.53816 0.0
C1757 C 0.43317 0.70803 0.53233 0.0
C1758 C 0.45943 0.76152 0.46626 0.0
C1759 C 0.46312 0.73156 0.56687 0.0
H1760 H 0.5526 0.75999 0.49953 0.0
H1761 H 0.50579 0.82996 0.52685 0.0
H1762 H 0.50487 0.7074 0.52325 0.0
H1763 H 0.50487 0.71493 0.48719 0.0
H1764 H 0.53638 0.71346 0.50565 0.0
H1765 H 0.46101 0.82547 0.54296 0.0
H1766 H 0.44642 0.80721 0.51432 0.0
H1767 H 0.44609 0.79144 0.54763 0.0
H1768 H 0.42361 0.71953 0.46402 0.0
H1769 H 0.42786 0.69314 0.54821 0.0
H1770 H 0.48017 0.75514 0.4604 0.0
H1771 H 0.46024 0.78379 0.47233 0.0
H1772 H 0.44624 0.75945 0.4479 0.0
H1773 H 0.4833 0.72158 0.5676 0.0
H1774 H 0.44992 0.7212 0.58223 0.0
H1775 H 0.46571 0.75373 0.57281 0.0
C1776 C 0.51984 0.50605 0.78505 0.0
C1777 C 0.50255 0.52799 0.79213 0.0
C1778 C 0.51336 0.48782 0.7635 0.0
C1779 C 0.48885 0.49143 0.74901 0.0
C1780 C 0.47106 0.51322 0.7564 0.0
C1781 C 0.47822 0.53139 0.77776 0.0
C1782 C 0.533 0.46502 0.75592 0.0
C1783 C 0.44459 0.51747 0.7416 0.0
C1784 C 0.487 0.4628 0.67655 0.0
C1785 C 0.47456 0.43683 0.68045 0.0
C1786 C 0.49123 0.48101 0.69863 0.0
C1787 C 0.48254 0.4732 0.72522 0.0
C1788 C 0.46899 0.44754 0.72917 0.0
C1789 C 0.46526 0.42955 0.70671 0.0
C1790 C 0.50582 0.50819 0.69363 0.0
C1791 C 0.45904 0.43883 0.75722 0.0
H1792 H 0.53865 0.50336 0.79609 0.0
H1793 H 0.46462 0.54815 0.78334 0.0
H1794 H 0.52291 0.44442 0.75698 0.0
H1795 H 0.53995 0.46795 0.73442 0.0
H1796 H 0.55093 0.46468 0.76961 0.0
H1797 H 0.4324 0.5345 0.75083 0.0
H1798 H 0.4484 0.52258 0.7197 0.0
H1799 H 0.43257 0.49797 0.74202 0.0
H1800 H 0.49415 0.46867 0.65631 0.0
H1801 H 0.45547 0.40959 0.70982 0.0
H1802 H 0.52501 0.50845 0.70537 0.0
H1803 H 0.49347 0.52593 0.70107 0.0
H1804 H 0.51048 0.51154 0.67154 0.0
H1805 H 0.47644 0.43593 0.77127 0.0
H1806 H 0.44732 0.41911 0.7565 0.0
H1807 H 0.44614 0.4554 0.7662 0.0
C1808 C 0.52894 0.9483 0.77678 0.0
C1809 C 0.50283 0.94946 0.78785 0.0
C1810 C 0.53799 0.96878 0.75848 0.0
C1811 C 0.52053 0.99091 0.7514 0.0
C1812 C 0.49399 0.99186 0.76207 0.0
C1813 C 0.4854 0.97099 0.78008 0.0
C1814 C 0.56624 0.96693 0.747 0.0
C1815 C 0.47475 0.01512 0.75476 0.0
C1816 C 0.54483 0.0605 0.72471 0.0
C1817 C 0.53718 0.05845 0.69712 0.0
C1818 C 0.54093 0.0379 0.74259 0.0
C1819 C 0.5295 0.01291 0.73228 0.0
C1820 C 0.52375 0.01016 0.70398 0.0
C1821 C 0.52756 0.03304 0.68675 0.0
C1822 C 0.54738 0.04133 0.77273 0.0
C1823 C 0.51193 0.98369 0.69217 0.0
H1824 H 0.54245 0.93157 0.78267 0.0
H1825 H 0.46522 0.97197 0.78862 0.0
H1826 H 0.56572 0.96769 0.7242 0.0
H1827 H 0.57825 0.98507 0.75407 0.0
H1828 H 0.57672 0.94753 0.75342 0.0
H1829 H 0.45485 0.01282 0.76502 0.0
H1830 H 0.48355 0.03549 0.7608 0.0
H1831 H 0.47149 0.01563 0.7322 0.0
H1832 H 0.55241 0.08013 0.7326 0.0
H1833 H 0.52222 0.03129 0.66519 0.0
H1834 H 0.5595 0.02344 0.78019 0.0
H1835 H 0.52836 0.04162 0.78476 0.0
H1836 H 0.55861 0.06091 0.77695 0.0
H1837 H 0.52334 0.96522 0.69941 0.0
H1838 H 0.51194 0.98376 0.66932 0.0
H1839 H 0.49081 0.9813 0.69934 0.0
C1840 C 0.44482 0.28556 0.95241 0.0
C1841 C 0.44838 0.30701 0.9715 0.0
C1842 C 0.46434 0.26456 0.94958 0.0
C1843 C 0.48767 0.26519 0.96643 0.0
C1844 C 0.49118 0.28686 0.98581 0.0
C1845 C 0.47136 0.30743 0.9882 0.0
C1846 C 0.4599 0.24154 0.9289 0.0
C1847 C 0.5156 0.28807 0.00436 0.0
C1848 C 0.52276 0.19689 0.98077 0.0
C1849 C 0.54411 0.19762 0.96198 0.0
C1850 C 0.5042 0.21874 0.98233 0.0
C1851 C 0.50754 0.24219 0.9651 0.0
C1852 C 0.52982 0.24364 0.94691 0.0
C1853 C 0.54792 0.22116 0.94551 0.0
C1854 C 0.48086 0.21654 0.00221 0.0
C1855 C 0.5343 0.26873 0.92878 0.0
H1856 H 0.42687 0.28532 0.93966 0.0
H1857 H 0.47362 0.32356 0.00356 0.0
H1858 H 0.47719 0.24053 0.91445 0.0
H1859 H 0.45882 0.22117 0.93963 0.0
H1860 H 0.44107 0.24451 0.91688 0.0
H1861 H 0.51592 0.3072 0.01725 0.0
H1862 H 0.51584 0.26967 0.01815 0.0
H1863 H 0.53434 0.28738 0.99192 0.0
H1864 H 0.52056 0.1793 0.9944 0.0
H1865 H 0.56476 0.22176 0.93129 0.0
H1866 H 0.4615 0.21762 0.99082 0.0
H1867 H 0.4812 0.23429 0.01683 0.0
H1868 H 0.48127 0.19682 0.01418 0.0
H1869 H 0.51714 0.27102 0.91432 0.0
H1870 H 0.55326 0.26714 0.91671 0.0
H1871 H 0.53509 0.28795 0.94145 0.0
loop_
_geom_bond_atom_site_label_1
_geom_bond_atom_site_label_2
_geom_bond_distance
_geom_bond_site_symmetry_2
_ccdc_geom_bond_type
Mg0 O1 2.028 1_455 S
Mg0 O7 1.986 1_455 S
Mg0 O9 2.114 . S
Mg0 O10 2.251 . S
Mg0 O13 2.010 . S
O1 Mg0 2.028 1_655 S
O1 C4 1.250 . S
O2 Mg3 2.028 . S
O2 C4 1.248 . S
Mg3 O2 2.028 . S
Mg3 O8 2.032 . S
Mg3 O10 2.079 1_655 S
C4 O1 1.250 . S
C4 O2 1.248 . S
C5 O6 1.264 . S
C5 O13 1.249 . S
O6 C5 1.264 . S
O7 Mg0 1.986 1_655 S
O7 C11 1.246 . S
O8 Mg3 2.032 . S
O8 C11 1.259 . S
O9 Mg0 2.114 . S
O9 C12 1.252 . S
O10 Mg0 2.251 . S
O10 Mg3 2.079 1_455 S
O10 C12 1.273 . S
C11 O7 1.246 . S
C11 O8 1.259 . S
C12 O9 1.252 . S
C12 O10 1.273 . S
O13 Mg0 2.010 . S
O13 C5 1.249 . S
Mg14 O15 2.028 1_655 S
Mg14 O21 1.986 1_655 S
Mg14 O23 2.114 . S
Mg14 O24 2.251 . S
Mg14 O27 2.010 . S
O15 Mg14 2.028 1_455 S
O15 C18 1.250 . S
O16 Mg17 2.028 . S
O16 C18 1.248 . S
Mg17 O16 2.028 . S
Mg17 O22 2.032 . S
Mg17 O24 2.079 1_455 S
C18 O15 1.250 . S
C18 O16 1.248 . S
C19 O20 1.264 . S
C19 O27 1.249 . S
O20 C19 1.264 . S
O21 Mg14 1.986 1_455 S
O21 C25 1.246 . S
O22 Mg17 2.032 . S
O22 C25 1.259 . S
O23 Mg14 2.114 . S
O23 C26 1.252 . S
O24 Mg14 2.251 . S
O24 Mg17 2.079 1_655 S
O24 C26 1.273 . S
C25 O21 1.246 . S
C25 O22 1.259 . S
C26 O23 1.252 . S
C26 O24 1.273 . S
O27 Mg14 2.010 . S
O27 C19 1.249 . S
Mg28 O29 2.028 1_455 S
Mg28 O35 1.986 1_455 S
Mg28 O37 2.114 . S
Mg28 O38 2.251 . S
Mg28 O41 2.010 . S
O29 Mg28 2.028 1_655 S
O29 C32 1.250 . S
O30 Mg31 2.028 . S
O30 C32 1.248 . S
Mg31 O30 2.028 . S
Mg31 O36 2.032 . S
Mg31 O38 2.079 1_655 S
C32 O29 1.250 . S
C32 O30 1.248 . S
C33 O34 1.264 . S
C33 O41 1.249 . S
O34 C33 1.264 . S
O35 Mg28 1.986 1_655 S
O35 C39 1.246 . S
O36 Mg31 2.032 . S
O36 C39 1.259 . S
O37 Mg28 2.114 . S
O37 C40 1.252 . S
O38 Mg28 2.251 . S
O38 Mg31 2.079 1_455 S
O38 C40 1.273 . S
C39 O35 1.246 . S
C39 O36 1.259 . S
C40 O37 1.252 . S
C40 O38 1.273 . S
O41 Mg28 2.010 . S
O41 C33 1.249 . S
Mg42 O43 2.028 1_655 S
Mg42 O49 1.986 1_655 S
Mg42 O51 2.114 . S
Mg42 O52 2.251 . S
Mg42 O55 2.010 . S
O43 Mg42 2.028 1_455 S
O43 C46 1.250 . S
O44 Mg45 2.028 . S
O44 C46 1.248 . S
Mg45 O44 2.028 . S
Mg45 O50 2.032 . S
Mg45 O52 2.079 1_455 S
C46 O43 1.250 . S
C46 O44 1.248 . S
C47 O48 1.264 . S
C47 O55 1.249 . S
O48 C47 1.264 . S
O49 Mg42 1.986 1_455 S
O49 C53 1.246 . S
O50 Mg45 2.032 . S
O50 C53 1.259 . S
O51 Mg42 2.114 . S
O51 C54 1.252 . S
O52 Mg42 2.251 . S
O52 Mg45 2.079 1_655 S
O52 C54 1.273 . S
C53 O49 1.246 . S
C53 O50 1.259 . S
C54 O51 1.252 . S
C54 O52 1.273 . S
O55 Mg42 2.010 . S
O55 C47 1.249 . S
Mg56 O57 2.028 1_545 S
Mg56 O63 1.986 1_545 S
Mg56 O65 2.114 . S
Mg56 O66 2.251 . S
Mg56 O69 2.010 . S
O57 Mg56 2.028 1_565 S
O57 C60 1.250 . S
O58 Mg59 2.028 . S
O58 C60 1.248 . S
Mg59 O58 2.028 . S
Mg59 O64 2.032 . S
Mg59 O66 2.079 1_565 S
C60 O57 1.250 . S
C60 O58 1.248 . S
C61 O62 1.264 . S
C61 O69 1.249 . S
O62 C61 1.264 . S
O63 Mg56 1.986 1_565 S
O63 C67 1.246 . S
O64 Mg59 2.032 . S
O64 C67 1.259 . S
O65 Mg56 2.114 . S
O65 C68 1.252 . S
O66 Mg56 2.251 . S
O66 Mg59 2.079 1_545 S
O66 C68 1.273 . S
C67 O63 1.246 . S
C67 O64 1.259 . S
C68 O65 1.252 . S
C68 O66 1.273 . S
O69 Mg56 2.010 . S
O69 C61 1.249 . S
Mg70 O71 2.028 . S
Mg70 O77 1.986 . S
Mg70 O79 2.114 . S
Mg70 O80 2.251 . S
Mg70 O83 2.010 . S
O71 Mg70 2.028 . S
O71 C74 1.250 . S
O72 Mg73 2.028 . S
O72 C74 1.248 . S
Mg73 O72 2.028 . S
Mg73 O78 2.032 . S
Mg73 O80 2.079 . S
C74 O71 1.250 . S
C74 O72 1.248 . S
C75 O76 1.264 . S
C75 O83 1.249 . S
O76 C75 1.264 . S
O77 Mg70 1.986 . S
O77 C81 1.246 . S
O78 Mg73 2.032 . S
O78 C81 1.259 . S
O79 Mg70 2.114 . S
O79 C82 1.252 . S
O80 Mg70 2.251 . S
O80 Mg73 2.079 . S
O80 C82 1.273 . S
C81 O77 1.246 . S
C81 O78 1.259 . S
C82 O79 1.252 . S
C82 O80 1.273 . S
O83 Mg70 2.010 . S
O83 C75 1.249 . S
Mg84 O85 2.028 1_565 S
Mg84 O91 1.986 1_565 S
Mg84 O93 2.114 . S
Mg84 O94 2.251 . S
Mg84 O97 2.010 . S
O85 Mg84 2.028 1_545 S
O85 C88 1.250 . S
O86 Mg87 2.028 . S
O86 C88 1.248 . S
Mg87 O86 2.028 . S
Mg87 O92 2.032 . S
Mg87 O94 2.079 1_545 S
C88 O85 1.250 . S
C88 O86 1.248 . S
C89 O90 1.264 . S
C89 O97 1.249 . S
O90 C89 1.264 . S
O91 Mg84 1.986 1_545 S
O91 C95 1.246 . S
O92 Mg87 2.032 . S
O92 C95 1.259 . S
O93 Mg84 2.114 . S
O93 C96 1.252 . S
O94 Mg84 2.251 . S
O94 Mg87 2.079 1_565 S
O94 C96 1.273 . S
C95 O91 1.246 . S
C95 O92 1.259 . S
C96 O93 1.252 . S
C96 O94 1.273 . S
O97 Mg84 2.010 . S
O97 C89 1.249 . S
Mg98 O99 2.028 . S
Mg98 O105 1.986 . S
Mg98 O107 2.114 . S
Mg98 O108 2.251 . S
Mg98 O111 2.010 . S
O99 Mg98 2.028 . S
O99 C102 1.250 . S
O100 Mg101 2.028 . S
O100 C102 1.248 . S
Mg101 O100 2.028 . S
Mg101 O106 2.032 . S
Mg101 O108 2.079 . S
C102 O99 1.250 . S
C102 O100 1.248 . S
C103 O104 1.264 . S
C103 O111 1.249 . S
O104 C103 1.264 . S
O105 Mg98 1.986 . S
O105 C109 1.246 . S
O106 Mg101 2.032 . S
O106 C109 1.259 . S
O107 Mg98 2.114 . S
O107 C110 1.252 . S
O108 Mg98 2.251 . S
O108 Mg101 2.079 . S
O108 C110 1.273 . S
C109 O105 1.246 . S
C109 O106 1.259 . S
C110 O107 1.252 . S
C110 O108 1.273 . S
O111 Mg98 2.010 . S
O111 C103 1.249 . S
Mg112 O113 2.028 1_556 S
Mg112 O119 1.986 1_556 S
Mg112 O121 2.114 . S
Mg112 O122 2.251 . S
Mg112 O125 2.010 . S
O113 Mg112 2.028 1_554 S
O113 C116 1.250 . S
O114 Mg115 2.028 . S
O114 C116 1.248 . S
Mg115 O114 2.028 . S
Mg115 O120 2.032 . S
Mg115 O122 2.079 1_554 S
C116 O113 1.250 . S
C116 O114 1.248 . S
C117 O118 1.264 . S
C117 O125 1.249 . S
O118 C117 1.264 . S
O119 Mg112 1.986 1_554 S
O119 C123 1.246 . S
O120 Mg115 2.032 . S
O120 C123 1.259 . S
O121 Mg112 2.114 . S
O121 C124 1.252 . S
O122 Mg112 2.251 . S
O122 Mg115 2.079 1_556 S
O122 C124 1.273 . S
C123 O119 1.246 . S
C123 O120 1.259 . S
C124 O121 1.252 . S
C124 O122 1.273 . S
O125 Mg112 2.010 . S
O125 C117 1.249 . S
Mg126 O127 2.028 . S
Mg126 O133 1.986 . S
Mg126 O135 2.114 . S
Mg126 O136 2.251 . S
Mg126 O139 2.010 . S
O127 Mg126 2.028 . S
O127 C130 1.250 . S
O128 Mg129 2.028 . S
O128 C130 1.248 . S
Mg129 O128 2.028 . S
Mg129 O134 2.032 . S
Mg129 O136 2.079 . S
C130 O127 1.250 . S
C130 O128 1.248 . S
C131 O132 1.264 . S
C131 O139 1.249 . S
O132 C131 1.264 . S
O133 Mg126 1.986 . S
O133 C137 1.246 . S
O134 Mg129 2.032 . S
O134 C137 1.259 . S
O135 Mg126 2.114 . S
O135 C138 1.252 . S
O136 Mg126 2.251 . S
O136 Mg129 2.079 . S
O136 C138 1.273 . S
C137 O133 1.246 . S
C137 O134 1.259 . S
C138 O135 1.252 . S
C138 O136 1.273 . S
O139 Mg126 2.010 . S
O139 C131 1.249 . S
Mg140 O141 2.028 . S
Mg140 O147 1.986 . S
Mg140 O149 2.114 . S
Mg140 O150 2.251 . S
Mg140 O153 2.010 . S
O141 Mg140 2.028 . S
O141 C144 1.250 . S
O142 Mg143 2.028 . S
O142 C144 1.248 . S
Mg143 O142 2.028 . S
Mg143 O148 2.032 . S
Mg143 O150 2.079 . S
C144 O141 1.250 . S
C144 O142 1.248 . S
C145 O146 1.264 . S
C145 O153 1.249 . S
O146 C145 1.264 . S
O147 Mg140 1.986 . S
O147 C151 1.246 . S
O148 Mg143 2.032 . S
O148 C151 1.259 . S
O149 Mg140 2.114 . S
O149 C152 1.252 . S
O150 Mg140 2.251 . S
O150 Mg143 2.079 . S
O150 C152 1.273 . S
C151 O147 1.246 . S
C151 O148 1.259 . S
C152 O149 1.252 . S
C152 O150 1.273 . S
O153 Mg140 2.010 . S
O153 C145 1.249 . S
Mg154 O155 2.028 . S
Mg154 O161 1.986 . S
Mg154 O163 2.114 . S
Mg154 O164 2.251 . S
Mg154 O167 2.010 . S
O155 Mg154 2.028 . S
O155 C158 1.250 . S
O156 Mg157 2.028 . S
O156 C158 1.248 . S
Mg157 O156 2.028 . S
Mg157 O162 2.032 . S
Mg157 O164 2.079 . S
C158 O155 1.250 . S
C158 O156 1.248 . S
C159 O160 1.264 . S
C159 O167 1.249 . S
O160 C159 1.264 . S
O161 Mg154 1.986 . S
O161 C165 1.246 . S
O162 Mg157 2.032 . S
O162 C165 1.259 . S
O163 Mg154 2.114 . S
O163 C166 1.252 . S
O164 Mg154 2.251 . S
O164 Mg157 2.079 . S
O164 C166 1.273 . S
C165 O161 1.246 . S
C165 O162 1.259 . S
C166 O163 1.252 . S
C166 O164 1.273 . S
O167 Mg154 2.010 . S
O167 C159 1.249 . S
Mg168 O169 2.028 . S
Mg168 O175 1.986 . S
Mg168 O177 2.114 . S
Mg168 O178 2.251 . S
Mg168 O181 2.010 . S
O169 Mg168 2.028 . S
O169 C172 1.250 . S
O170 Mg171 2.028 . S
O170 C172 1.248 . S
Mg171 O170 2.028 . S
Mg171 O176 2.032 . S
Mg171 O178 2.079 . S
C172 O169 1.250 . S
C172 O170 1.248 . S
C173 O174 1.264 . S
C173 O181 1.249 . S
O174 C173 1.264 . S
O175 Mg168 1.986 . S
O175 C179 1.246 . S
O176 Mg171 2.032 . S
O176 C179 1.259 . S
O177 Mg168 2.114 . S
O177 C180 1.252 . S
O178 Mg168 2.251 . S
O178 Mg171 2.079 . S
O178 C180 1.273 . S
C179 O175 1.246 . S
C179 O176 1.259 . S
C180 O177 1.252 . S
C180 O178 1.273 . S
O181 Mg168 2.010 . S
O181 C173 1.249 . S
Mg182 O183 2.028 . S
Mg182 O189 1.986 . S
Mg182 O191 2.114 . S
Mg182 O192 2.251 . S
Mg182 O195 2.010 . S
O183 Mg182 2.028 . S
O183 C186 1.250 . S
O184 Mg185 2.028 . S
O184 C186 1.248 . S
Mg185 O184 2.028 . S
Mg185 O190 2.032 . S
Mg185 O192 2.079 . S
C186 O183 1.250 . S
C186 O184 1.248 . S
C187 O188 1.264 . S
C187 O195 1.249 . S
O188 C187 1.264 . S
O189 Mg182 1.986 . S
O189 C193 1.246 . S
O190 Mg185 2.032 . S
O190 C193 1.259 . S
O191 Mg182 2.114 . S
O191 C194 1.252 . S
O192 Mg182 2.251 . S
O192 Mg185 2.079 . S
O192 C194 1.273 . S
C193 O189 1.246 . S
C193 O190 1.259 . S
C194 O191 1.252 . S
C194 O192 1.273 . S
O195 Mg182 2.010 . S
O195 C187 1.249 . S
Mg196 O197 2.028 . S
Mg196 O203 1.986 . S
Mg196 O205 2.114 . S
Mg196 O206 2.251 . S
Mg196 O209 2.010 . S
O197 Mg196 2.028 . S
O197 C200 1.250 . S
O198 Mg199 2.028 . S
O198 C200 1.248 . S
Mg199 O198 2.028 . S
Mg199 O204 2.032 . S
Mg199 O206 2.079 . S
C200 O197 1.250 . S
C200 O198 1.248 . S
C201 O202 1.264 . S
C201 O209 1.249 . S
O202 C201 1.264 . S
O203 Mg196 1.986 . S
O203 C207 1.246 . S
O204 Mg199 2.032 . S
O204 C207 1.259 . S
O205 Mg196 2.114 . S
O205 C208 1.252 . S
O206 Mg196 2.251 . S
O206 Mg199 2.079 . S
O206 C208 1.273 . S
C207 O203 1.246 . S
C207 O204 1.259 . S
C208 O205 1.252 . S
C208 O206 1.273 . S
O209 Mg196 2.010 . S
O209 C201 1.249 . S
Mg210 O211 2.028 . S
Mg210 O217 1.986 . S
Mg210 O219 2.114 . S
Mg210 O220 2.251 . S
Mg210 O223 2.010 . S
O211 Mg210 2.028 . S
O211 C214 1.250 . S
O212 Mg213 2.028 . S
O212 C214 1.248 . S
Mg213 O212 2.028 . S
Mg213 O218 2.032 . S
Mg213 O220 2.079 . S
C214 O211 1.250 . S
C214 O212 1.248 . S
C215 O216 1.264 . S
C215 O223 1.249 . S
O216 C215 1.264 . S
O217 Mg210 1.986 . S
O217 C221 1.246 . S
O218 Mg213 2.032 . S
O218 C221 1.259 . S
O219 Mg210 2.114 . S
O219 C222 1.252 . S
O220 Mg210 2.251 . S
O220 Mg213 2.079 . S
O220 C222 1.273 . S
C221 O217 1.246 . S
C221 O218 1.259 . S
C222 O219 1.252 . S
C222 O220 1.273 . S
O223 Mg210 2.010 . S
O223 C215 1.249 . S
Mg224 O225 2.028 . S
Mg224 O231 1.986 . S
Mg224 O233 2.114 . S
Mg224 O234 2.251 . S
Mg224 O237 2.010 . S
O225 Mg224 2.028 . S
O225 C228 1.250 . S
O226 Mg227 2.028 . S
O226 C228 1.248 . S
Mg227 O226 2.028 . S
Mg227 O232 2.032 . S
Mg227 O234 2.079 . S
C228 O225 1.250 . S
C228 O226 1.248 . S
C229 O230 1.264 . S
C229 O237 1.249 . S
O230 C229 1.264 . S
O231 Mg224 1.986 . S
O231 C235 1.246 . S
O232 Mg227 2.032 . S
O232 C235 1.259 . S
O233 Mg224 2.114 . S
O233 C236 1.252 . S
O234 Mg224 2.251 . S
O234 Mg227 2.079 . S
O234 C236 1.273 . S
C235 O231 1.246 . S
C235 O232 1.259 . S
C236 O233 1.252 . S
C236 O234 1.273 . S
O237 Mg224 2.010 . S
O237 C229 1.249 . S
Mg238 O239 2.028 1_565 S
Mg238 O245 1.986 1_565 S
Mg238 O247 2.114 . S
Mg238 O248 2.251 . S
Mg238 O251 2.010 . S
O239 Mg238 2.028 1_545 S
O239 C242 1.250 . S
O240 Mg241 2.028 . S
O240 C242 1.248 . S
Mg241 O240 2.028 . S
Mg241 O246 2.032 . S
Mg241 O248 2.079 1_545 S
C242 O239 1.250 . S
C242 O240 1.248 . S
C243 O244 1.264 . S
C243 O251 1.249 . S
O244 C243 1.264 . S
O245 Mg238 1.986 1_545 S
O245 C249 1.246 . S
O246 Mg241 2.032 . S
O246 C249 1.259 . S
O247 Mg238 2.114 . S
O247 C250 1.252 . S
O248 Mg238 2.251 . S
O248 Mg241 2.079 1_565 S
O248 C250 1.273 . S
C249 O245 1.246 . S
C249 O246 1.259 . S
C250 O247 1.252 . S
C250 O248 1.273 . S
O251 Mg238 2.010 . S
O251 C243 1.249 . S
Mg252 O253 2.028 . S
Mg252 O259 1.986 . S
Mg252 O261 2.114 . S
Mg252 O262 2.251 . S
Mg252 O265 2.010 . S
O253 Mg252 2.028 . S
O253 C256 1.250 . S
O254 Mg255 2.028 . S
O254 C256 1.248 . S
Mg255 O254 2.028 . S
Mg255 O260 2.032 . S
Mg255 O262 2.079 . S
C256 O253 1.250 . S
C256 O254 1.248 . S
C257 O258 1.264 . S
C257 O265 1.249 . S
O258 C257 1.264 . S
O259 Mg252 1.986 . S
O259 C263 1.246 . S
O260 Mg255 2.032 . S
O260 C263 1.259 . S
O261 Mg252 2.114 . S
O261 C264 1.252 . S
O262 Mg252 2.251 . S
O262 Mg255 2.079 . S
O262 C264 1.273 . S
C263 O259 1.246 . S
C263 O260 1.259 . S
C264 O261 1.252 . S
C264 O262 1.273 . S
O265 Mg252 2.010 . S
O265 C257 1.249 . S
Mg266 O267 2.028 1_545 S
Mg266 O273 1.986 1_545 S
Mg266 O275 2.114 . S
Mg266 O276 2.251 . S
Mg266 O279 2.010 . S
O267 Mg266 2.028 1_565 S
O267 C270 1.250 . S
O268 Mg269 2.028 . S
O268 C270 1.248 . S
Mg269 O268 2.028 . S
Mg269 O274 2.032 . S
Mg269 O276 2.079 1_565 S
C270 O267 1.250 . S
C270 O268 1.248 . S
C271 O272 1.264 . S
C271 O279 1.249 . S
O272 C271 1.264 . S
O273 Mg266 1.986 1_565 S
O273 C277 1.246 . S
O274 Mg269 2.032 . S
O274 C277 1.259 . S
O275 Mg266 2.114 . S
O275 C278 1.252 . S
O276 Mg266 2.251 . S
O276 Mg269 2.079 1_545 S
O276 C278 1.273 . S
C277 O273 1.246 . S
C277 O274 1.259 . S
C278 O275 1.252 . S
C278 O276 1.273 . S
O279 Mg266 2.010 . S
O279 C271 1.249 . S
Mg280 O281 2.028 . S
Mg280 O287 1.986 . S
Mg280 O289 2.114 . S
Mg280 O290 2.251 . S
Mg280 O293 2.010 . S
O281 Mg280 2.028 . S
O281 C284 1.250 . S
O282 Mg283 2.028 . S
O282 C284 1.248 . S
Mg283 O282 2.028 . S
Mg283 O288 2.032 . S
Mg283 O290 2.079 . S
C284 O281 1.250 . S
C284 O282 1.248 . S
C285 O286 1.264 . S
C285 O293 1.249 . S
O286 C285 1.264 . S
O287 Mg280 1.986 . S
O287 C291 1.246 . S
O288 Mg283 2.032 . S
O288 C291 1.259 . S
O289 Mg280 2.114 . S
O289 C292 1.252 . S
O290 Mg280 2.251 . S
O290 Mg283 2.079 . S
O290 C292 1.273 . S
C291 O287 1.246 . S
C291 O288 1.259 . S
C292 O289 1.252 . S
C292 O290 1.273 . S
O293 Mg280 2.010 . S
O293 C285 1.249 . S
Mg294 O295 2.028 1_554 S
Mg294 O301 1.986 1_554 S
Mg294 O303 2.114 . S
Mg294 O304 2.251 . S
Mg294 O307 2.010 . S
O295 Mg294 2.028 1_556 S
O295 C298 1.250 . S
O296 Mg297 2.028 . S
O296 C298 1.248 . S
Mg297 O296 2.028 . S
Mg297 O302 2.032 . S
Mg297 O304 2.079 1_556 S
C298 O295 1.250 . S
C298 O296 1.248 . S
C299 O300 1.264 . S
C299 O307 1.249 . S
O300 C299 1.264 . S
O301 Mg294 1.986 1_556 S
O301 C305 1.246 . S
O302 Mg297 2.032 . S
O302 C305 1.259 . S
O303 Mg294 2.114 . S
O303 C306 1.252 . S
O304 Mg294 2.251 . S
O304 Mg297 2.079 1_554 S
O304 C306 1.273 . S
C305 O301 1.246 . S
C305 O302 1.259 . S
C306 O303 1.252 . S
C306 O304 1.273 . S
O307 Mg294 2.010 . S
O307 C299 1.249 . S
Mg308 O309 2.028 1_554 S
Mg308 O315 1.986 1_554 S
Mg308 O317 2.114 . S
Mg308 O318 2.251 . S
Mg308 O321 2.010 . S
O309 Mg308 2.028 1_556 S
O309 C312 1.250 . S
O310 Mg311 2.028 . S
O310 C312 1.248 . S
Mg311 O310 2.028 . S
Mg311 O316 2.032 . S
Mg311 O318 2.079 1_556 S
C312 O309 1.250 . S
C312 O310 1.248 . S
C313 O314 1.264 . S
C313 O321 1.249 . S
O314 C313 1.264 . S
O315 Mg308 1.986 1_556 S
O315 C319 1.246 . S
O316 Mg311 2.032 . S
O316 C319 1.259 . S
O317 Mg308 2.114 . S
O317 C320 1.252 . S
O318 Mg308 2.251 . S
O318 Mg311 2.079 1_554 S
O318 C320 1.273 . S
C319 O315 1.246 . S
C319 O316 1.259 . S
C320 O317 1.252 . S
C320 O318 1.273 . S
O321 Mg308 2.010 . S
O321 C313 1.249 . S
Mg322 O323 2.028 1_556 S
Mg322 O329 1.986 1_556 S
Mg322 O331 2.114 . S
Mg322 O332 2.251 . S
Mg322 O335 2.010 . S
O323 Mg322 2.028 1_554 S
O323 C326 1.250 . S
O324 Mg325 2.028 . S
O324 C326 1.248 . S
Mg325 O324 2.028 . S
Mg325 O330 2.032 . S
Mg325 O332 2.079 1_554 S
C326 O323 1.250 . S
C326 O324 1.248 . S
C327 O328 1.264 . S
C327 O335 1.249 . S
O328 C327 1.264 . S
O329 Mg322 1.986 1_554 S
O329 C333 1.246 . S
O330 Mg325 2.032 . S
O330 C333 1.259 . S
O331 Mg322 2.114 . S
O331 C334 1.252 . S
O332 Mg322 2.251 . S
O332 Mg325 2.079 1_556 S
O332 C334 1.273 . S
C333 O329 1.246 . S
C333 O330 1.259 . S
C334 O331 1.252 . S
C334 O332 1.273 . S
O335 Mg322 2.010 . S
O335 C327 1.249 . S
C336 C337 1.391 . S
C336 C338 1.394 . S
C336 H352 0.931 . S
C337 C336 1.391 . S
C337 C341 1.376 . S
C338 C336 1.394 . S
C338 C339 1.369 . S
C338 C342 1.531 . S
C339 C338 1.369 . S
C339 C340 1.410 . S
C339 C347 1.503 . S
C340 C339 1.410 . S
C340 C341 1.392 . S
C340 C343 1.511 . S
C341 C337 1.376 . S
C341 C340 1.392 . S
C341 H353 0.929 . S
C342 C338 1.531 . S
C342 H354 0.960 . S
C342 H355 0.962 . S
C342 H356 0.960 . S
C343 C340 1.511 . S
C343 H357 0.961 . S
C343 H358 0.961 . S
C343 H359 0.961 . S
C344 C345 1.370 . S
C344 C346 1.363 . S
C344 H360 0.931 . S
C345 C344 1.370 . S
C345 C349 1.408 . S
C346 C344 1.363 . S
C346 C347 1.370 . S
C346 C350 1.524 . S
C347 C339 1.503 . S
C347 C346 1.370 . S
C347 C348 1.403 . S
C348 C347 1.403 . S
C348 C349 1.404 . S
C348 C351 1.539 . S
C349 C345 1.408 . S
C349 C348 1.404 . S
C349 H361 0.930 . S
C350 C346 1.524 . S
C350 H362 0.956 . S
C350 H363 0.961 . S
C350 H364 0.961 . S
C351 C348 1.539 . S
C351 H365 0.958 1_545 S
C351 H366 0.961 . S
C351 H367 0.960 . S
H352 C336 0.931 . S
H353 C341 0.929 . S
H354 C342 0.960 . S
H355 C342 0.962 . S
H356 C342 0.960 . S
H357 C343 0.961 . S
H358 C343 0.961 . S
H359 C343 0.961 . S
H360 C344 0.931 . S
H361 C349 0.930 . S
H362 C350 0.956 . S
H363 C350 0.961 . S
H364 C350 0.961 . S
H365 C351 0.958 1_565 S
H366 C351 0.961 . S
H367 C351 0.960 . S
C368 C369 1.391 . S
C368 C370 1.394 . S
C368 H384 0.931 . S
C369 C368 1.391 . S
C369 C373 1.376 . S
C370 C368 1.394 . S
C370 C371 1.369 . S
C370 C374 1.531 . S
C371 C370 1.369 . S
C371 C372 1.410 . S
C371 C379 1.503 . S
C372 C371 1.410 . S
C372 C373 1.392 . S
C372 C375 1.511 . S
C373 C369 1.376 . S
C373 C372 1.392 . S
C373 H385 0.929 . S
C374 C370 1.531 . S
C374 H386 0.960 . S
C374 H387 0.962 . S
C374 H388 0.960 . S
C375 C372 1.511 . S
C375 H389 0.961 . S
C375 H390 0.961 . S
C375 H391 0.961 . S
C376 C377 1.370 . S
C376 C378 1.363 . S
C376 H392 0.931 . S
C377 C376 1.370 . S
C377 C381 1.408 . S
C378 C376 1.363 . S
C378 C379 1.370 . S
C378 C382 1.524 . S
C379 C371 1.503 . S
C379 C378 1.370 . S
C379 C380 1.403 . S
C380 C379 1.403 . S
C380 C381 1.404 . S
C380 C383 1.539 . S
C381 C377 1.408 . S
C381 C380 1.404 . S
C381 H393 0.930 . S
C382 C378 1.524 . S
C382 H394 0.956 . S
C382 H395 0.961 . S
C382 H396 0.961 . S
C383 C380 1.539 . S
C383 H397 0.958 . S
C383 H398 0.961 . S
C383 H399 0.960 . S
H384 C368 0.931 . S
H385 C373 0.929 . S
H386 C374 0.960 . S
H387 C374 0.962 . S
H388 C374 0.960 . S
H389 C375 0.961 . S
H390 C375 0.961 . S
H391 C375 0.961 . S
H392 C376 0.931 . S
H393 C381 0.930 . S
H394 C382 0.956 . S
H395 C382 0.961 . S
H396 C382 0.961 . S
H397 C383 0.958 . S
H398 C383 0.961 . S
H399 C383 0.960 . S
C400 C401 1.391 . S
C400 C402 1.394 . S
C400 H416 0.931 . S
C401 C400 1.391 . S
C401 C405 1.376 . S
C402 C400 1.394 . S
C402 C403 1.369 . S
C402 C406 1.531 . S
C403 C402 1.369 . S
C403 C404 1.410 . S
C403 C411 1.503 1_554 S
C404 C403 1.410 . S
C404 C405 1.392 . S
C404 C407 1.511 . S
C405 C401 1.376 . S
C405 C404 1.392 . S
C405 H417 0.929 . S
C406 C402 1.531 . S
C406 H418 0.960 1_554 S
C406 H419 0.962 . S
C406 H420 0.960 . S
C407 C404 1.511 . S
C407 H421 0.961 . S
C407 H422 0.961 . S
C407 H423 0.961 . S
C408 C409 1.370 . S
C408 C410 1.363 . S
C408 H424 0.931 . S
C409 C408 1.370 . S
C409 C413 1.408 . S
C410 C408 1.363 . S
C410 C411 1.370 . S
C410 C414 1.524 1_556 S
C411 C403 1.503 1_556 S
C411 C410 1.370 . S
C411 C412 1.403 . S
C412 C411 1.403 . S
C412 C413 1.404 . S
C412 C415 1.539 . S
C413 C409 1.408 . S
C413 C412 1.404 . S
C413 H425 0.930 . S
C414 C410 1.524 1_554 S
C414 H426 0.956 . S
C414 H427 0.961 . S
C414 H428 0.961 . S
C415 C412 1.539 . S
C415 H429 0.958 . S
C415 H430 0.961 . S
C415 H431 0.960 . S
H416 C400 0.931 . S
H417 C405 0.929 . S
H418 C406 0.960 1_556 S
H419 C406 0.962 . S
H420 C406 0.960 . S
H421 C407 0.961 . S
H422 C407 0.961 . S
H423 C407 0.961 . S
H424 C408 0.931 . S
H425 C413 0.930 . S
H426 C414 0.956 . S
H427 C414 0.961 . S
H428 C414 0.961 . S
H429 C415 0.958 . S
H430 C415 0.961 . S
H431 C415 0.960 . S
C432 C433 1.391 . S
C432 C434 1.394 . S
C432 H448 0.931 . S
C433 C432 1.391 . S
C433 C437 1.376 . S
C434 C432 1.394 . S
C434 C435 1.369 . S
C434 C438 1.531 . S
C435 C434 1.369 . S
C435 C436 1.410 . S
C435 C443 1.503 1_554 S
C436 C435 1.410 . S
C436 C437 1.392 . S
C436 C439 1.511 . S
C437 C433 1.376 . S
C437 C436 1.392 . S
C437 H449 0.929 . S
C438 C434 1.531 . S
C438 H450 0.960 1_554 S
C438 H451 0.962 1_554 S
C438 H452 0.960 . S
C439 C436 1.511 . S
C439 H453 0.961 . S
C439 H454 0.961 . S
C439 H455 0.961 . S
C440 C441 1.370 . S
C440 C442 1.363 . S
C440 H456 0.931 . S
C441 C440 1.370 . S
C441 C445 1.408 . S
C442 C440 1.363 . S
C442 C443 1.370 . S
C442 C446 1.524 . S
C443 C435 1.503 1_556 S
C443 C442 1.370 . S
C443 C444 1.403 . S
C444 C443 1.403 . S
C444 C445 1.404 . S
C444 C447 1.539 . S
C445 C441 1.408 . S
C445 C444 1.404 . S
C445 H457 0.930 . S
C446 C442 1.524 . S
C446 H458 0.956 . S
C446 H459 0.963 . S
C446 H460 0.961 . S
C447 C444 1.539 . S
C447 H461 0.958 . S
C447 H462 0.961 . S
C447 H463 0.960 1_556 S
H448 C432 0.931 . S
H449 C437 0.929 . S
H450 C438 0.960 1_556 S
H451 C438 0.962 1_556 S
H452 C438 0.960 . S
H453 C439 0.961 . S
H454 C439 0.961 . S
H455 C439 0.961 . S
H456 C440 0.931 . S
H457 C445 0.930 . S
H458 C446 0.956 . S
H459 C446 0.963 . S
H460 C446 0.961 . S
H461 C447 0.958 . S
H462 C447 0.961 . S
H463 C447 0.960 1_554 S
C464 C465 1.391 . S
C464 C466 1.394 . S
C464 H480 0.931 . S
C465 C464 1.391 . S
C465 C469 1.376 . S
C466 C464 1.394 . S
C466 C467 1.369 . S
C466 C470 1.531 . S
C467 C466 1.369 . S
C467 C468 1.410 . S
C467 C475 1.503 . S
C468 C467 1.410 . S
C468 C469 1.392 . S
C468 C471 1.511 . S
C469 C465 1.376 . S
C469 C468 1.392 . S
C469 H481 0.929 . S
C470 C466 1.531 . S
C470 H482 0.960 . S
C470 H483 0.962 . S
C470 H484 0.960 . S
C471 C468 1.511 . S
C471 H485 0.961 . S
C471 H486 0.961 . S
C471 H487 0.961 . S
C472 C473 1.370 . S
C472 C474 1.363 . S
C472 H488 0.931 . S
C473 C472 1.370 . S
C473 C477 1.408 . S
C474 C472 1.363 . S
C474 C475 1.370 . S
C474 C478 1.524 . S
C475 C467 1.503 . S
C475 C474 1.370 . S
C475 C476 1.403 . S
C476 C475 1.403 . S
C476 C477 1.404 . S
C476 C479 1.539 . S
C477 C473 1.408 . S
C477 C476 1.404 . S
C477 H489 0.930 . S
C478 C474 1.524 . S
C478 H490 0.956 . S
C478 H491 0.961 . S
C478 H492 0.961 . S
C479 C476 1.539 . S
C479 H493 0.958 1_554 S
C479 H494 0.961 1_554 S
C479 H495 0.960 . S
H480 C464 0.931 . S
H481 C469 0.929 . S
H482 C470 0.960 . S
H483 C470 0.962 . S
H484 C470 0.960 . S
H485 C471 0.961 . S
H486 C471 0.961 . S
H487 C471 0.961 . S
H488 C472 0.931 . S
H489 C477 0.930 . S
H490 C478 0.956 . S
H491 C478 0.961 . S
H492 C478 0.961 . S
H493 C479 0.958 1_556 S
H494 C479 0.961 1_556 S
H495 C479 0.960 . S
C496 C497 1.391 . S
C496 C498 1.394 . S
C496 H512 0.931 . S
C497 C496 1.391 . S
C497 C501 1.376 . S
C498 C496 1.394 . S
C498 C499 1.369 . S
C498 C502 1.531 . S
C499 C498 1.369 . S
C499 C500 1.410 . S
C499 C507 1.503 . S
C500 C499 1.410 . S
C500 C501 1.392 . S
C500 C503 1.511 . S
C501 C497 1.376 . S
C501 C500 1.392 . S
C501 H513 0.929 . S
C502 C498 1.531 . S
C502 H514 0.960 . S
C502 H515 0.962 . S
C502 H516 0.960 . S
C503 C500 1.511 . S
C503 H517 0.961 . S
C503 H518 0.961 . S
C503 H519 0.961 . S
C504 C505 1.370 . S
C504 C506 1.363 . S
C504 H520 0.931 . S
C505 C504 1.370 . S
C505 C509 1.408 . S
C506 C504 1.363 . S
C506 C507 1.370 . S
C506 C510 1.524 . S
C507 C499 1.503 . S
C507 C506 1.370 . S
C507 C508 1.403 . S
C508 C507 1.403 . S
C508 C509 1.404 . S
C508 C511 1.539 . S
C509 C505 1.408 . S
C509 C508 1.404 . S
C509 H521 0.930 . S
C510 C506 1.524 . S
C510 H522 0.956 . S
C510 H523 0.961 . S
C510 H524 0.961 . S
C511 C508 1.539 . S
C511 H525 0.958 . S
C511 H526 0.961 . S
C511 H527 0.960 . S
H512 C496 0.931 . S
H513 C501 0.929 . S
H514 C502 0.960 . S
H515 C502 0.962 . S
H516 C502 0.960 . S
H517 C503 0.961 . S
H518 C503 0.961 . S
H519 C503 0.961 . S
H520 C504 0.931 . S
H521 C509 0.930 . S
H522 C510 0.956 . S
H523 C510 0.961 . S
H524 C510 0.961 . S
H525 C511 0.958 . S
H526 C511 0.961 . S
H527 C511 0.960 . S
C528 C529 1.391 . S
C528 C530 1.394 . S
C528 H544 0.931 . S
C529 C528 1.391 . S
C529 C533 1.376 . S
C530 C528 1.394 . S
C530 C531 1.369 . S
C530 C534 1.531 . S
C531 C530 1.369 . S
C531 C532 1.410 . S
C531 C539 1.503 . S
C532 C531 1.410 . S
C532 C533 1.392 . S
C532 C535 1.511 . S
C533 C529 1.376 . S
C533 C532 1.392 . S
C533 H545 0.929 . S
C534 C530 1.531 . S
C534 H546 0.960 . S
C534 H547 0.962 . S
C534 H548 0.960 . S
C535 C532 1.511 . S
C535 H549 0.961 . S
C535 H550 0.961 . S
C535 H551 0.961 . S
C536 C537 1.370 . S
C536 C538 1.363 . S
C536 H552 0.931 . S
C537 C536 1.370 . S
C537 C541 1.408 . S
C538 C536 1.363 . S
C538 C539 1.370 . S
C538 C542 1.524 . S
C539 C531 1.503 . S
C539 C538 1.370 . S
C539 C540 1.403 . S
C540 C539 1.403 . S
C540 C541 1.404 . S
C540 C543 1.539 . S
C541 C537 1.408 . S
C541 C540 1.404 . S
C541 H553 0.930 . S
C542 C538 1.524 . S
C542 H554 0.956 . S
C542 H555 0.961 . S
C542 H556 0.961 . S
C543 C540 1.539 . S
C543 H557 0.958 . S
C543 H558 0.961 . S
C543 H559 0.960 . S
H544 C528 0.931 . S
H545 C533 0.929 . S
H546 C534 0.960 . S
H547 C534 0.962 . S
H548 C534 0.960 . S
H549 C535 0.961 . S
H550 C535 0.961 . S
H551 C535 0.961 . S
H552 C536 0.931 . S
H553 C541 0.930 . S
H554 C542 0.956 . S
H555 C542 0.961 . S
H556 C542 0.961 . S
H557 C543 0.958 . S
H558 C543 0.961 . S
H559 C543 0.960 . S
C560 C561 1.391 . S
C560 C562 1.394 . S
C560 H576 0.931 . S
C561 C560 1.391 . S
C561 C565 1.376 . S
C562 C560 1.394 . S
C562 C563 1.369 . S
C562 C566 1.531 . S
C563 C562 1.369 . S
C563 C564 1.410 . S
C563 C571 1.503 . S
C564 C563 1.410 . S
C564 C565 1.392 . S
C564 C567 1.511 . S
C565 C561 1.376 . S
C565 C564 1.392 . S
C565 H577 0.929 . S
C566 C562 1.531 . S
C566 H578 0.960 . S
C566 H579 0.962 . S
C566 H580 0.960 . S
C567 C564 1.511 . S
C567 H581 0.961 . S
C567 H582 0.961 . S
C567 H583 0.961 . S
C568 C569 1.370 . S
C568 C570 1.363 . S
C568 H584 0.931 . S
C569 C568 1.370 . S
C569 C573 1.408 . S
C570 C568 1.363 . S
C570 C571 1.370 . S
C570 C574 1.524 . S
C571 C563 1.503 . S
C571 C570 1.370 . S
C571 C572 1.403 . S
C572 C571 1.403 . S
C572 C573 1.404 . S
C572 C575 1.539 . S
C573 C569 1.408 . S
C573 C572 1.404 . S
C573 H585 0.930 . S
C574 C570 1.524 . S
C574 H586 0.956 . S
C574 H587 0.961 . S
C574 H588 0.961 . S
C575 C572 1.539 . S
C575 H589 0.958 . S
C575 H590 0.961 . S
C575 H591 0.960 . S
H576 C560 0.931 . S
H577 C565 0.929 . S
H578 C566 0.960 . S
H579 C566 0.962 . S
H580 C566 0.960 . S
H581 C567 0.961 . S
H582 C567 0.961 . S
H583 C567 0.961 . S
H584 C568 0.931 . S
H585 C573 0.930 . S
H586 C574 0.956 . S
H587 C574 0.961 . S
H588 C574 0.961 . S
H589 C575 0.958 . S
H590 C575 0.961 . S
H591 C575 0.960 . S
C592 C593 1.391 . S
C592 C594 1.394 . S
C592 H608 0.931 . S
C593 C592 1.391 . S
C593 C597 1.376 . S
C594 C592 1.394 . S
C594 C595 1.369 . S
C594 C598 1.531 . S
C595 C594 1.369 . S
C595 C596 1.410 . S
C595 C603 1.503 . S
C596 C595 1.410 . S
C596 C597 1.392 . S
C596 C599 1.511 . S
C597 C593 1.376 . S
C597 C596 1.392 . S
C597 H609 0.929 . S
C598 C594 1.531 . S
C598 H610 0.960 . S
C598 H611 0.962 . S
C598 H612 0.960 . S
C599 C596 1.511 . S
C599 H613 0.961 . S
C599 H614 0.961 . S
C599 H615 0.961 . S
C600 C601 1.370 . S
C600 C602 1.363 . S
C600 H616 0.931 . S
C601 C600 1.370 . S
C601 C605 1.408 . S
C602 C600 1.363 . S
C602 C603 1.370 . S
C602 C606 1.524 . S
C603 C595 1.503 . S
C603 C602 1.370 . S
C603 C604 1.403 . S
C604 C603 1.403 . S
C604 C605 1.404 . S
C604 C607 1.539 . S
C605 C601 1.408 . S
C605 C604 1.404 . S
C605 H617 0.930 . S
C606 C602 1.524 . S
C606 H618 0.956 . S
C606 H619 0.961 . S
C606 H620 0.961 . S
C607 C604 1.539 . S
C607 H621 0.958 . S
C607 H622 0.961 . S
C607 H623 0.960 . S
H608 C592 0.931 . S
H609 C597 0.929 . S
H610 C598 0.960 . S
H611 C598 0.962 . S
H612 C598 0.960 . S
H613 C599 0.961 . S
H614 C599 0.961 . S
H615 C599 0.961 . S
H616 C600 0.931 . S
H617 C605 0.930 . S
H618 C606 0.956 . S
H619 C606 0.961 . S
H620 C606 0.961 . S
H621 C607 0.958 . S
H622 C607 0.961 . S
H623 C607 0.960 . S
C624 C625 1.391 . S
C624 C626 1.394 . S
C624 H640 0.931 . S
C625 C624 1.391 . S
C625 C629 1.376 . S
C626 C624 1.394 . S
C626 C627 1.369 . S
C626 C630 1.531 . S
C627 C626 1.369 . S
C627 C628 1.410 . S
C627 C635 1.503 . S
C628 C627 1.410 . S
C628 C629 1.392 . S
C628 C631 1.511 . S
C629 C625 1.376 . S
C629 C628 1.392 . S
C629 H641 0.929 . S
C630 C626 1.531 . S
C630 H642 0.960 . S
C630 H643 0.962 . S
C630 H644 0.960 . S
C631 C628 1.511 . S
C631 H645 0.961 1_455 S
C631 H646 0.961 . S
C631 H647 0.961 . S
C632 C633 1.370 . S
C632 C634 1.363 . S
C632 H648 0.931 . S
C633 C632 1.370 . S
C633 C637 1.408 . S
C634 C632 1.363 . S
C634 C635 1.370 . S
C634 C638 1.524 . S
C635 C627 1.503 . S
C635 C634 1.370 . S
C635 C636 1.403 . S
C636 C635 1.403 . S
C636 C637 1.404 . S
C636 C639 1.539 . S
C637 C633 1.408 . S
C637 C636 1.404 . S
C637 H649 0.930 . S
C638 C634 1.524 . S
C638 H650 0.956 . S
C638 H651 0.961 . S
C638 H652 0.961 . S
C639 C636 1.539 . S
C639 H653 0.958 . S
C639 H654 0.961 . S
C639 H655 0.960 . S
H640 C624 0.931 . S
H641 C629 0.929 . S
H642 C630 0.960 . S
H643 C630 0.962 . S
H644 C630 0.960 . S
H645 C631 0.961 1_655 S
H646 C631 0.961 . S
H647 C631 0.961 . S
H648 C632 0.931 . S
H649 C637 0.930 . S
H650 C638 0.956 . S
H651 C638 0.961 . S
H652 C638 0.961 . S
H653 C639 0.958 . S
H654 C639 0.961 . S
H655 C639 0.960 . S
C656 C657 1.391 . S
C656 C658 1.394 . S
C656 H672 0.931 . S
C657 C656 1.391 . S
C657 C661 1.376 . S
C658 C656 1.394 . S
C658 C659 1.369 . S
C658 C662 1.531 . S
C659 C658 1.369 . S
C659 C660 1.410 . S
C659 C667 1.503 . S
C660 C659 1.410 . S
C660 C661 1.392 . S
C660 C663 1.511 . S
C661 C657 1.376 . S
C661 C660 1.392 . S
C661 H673 0.929 . S
C662 C658 1.531 . S
C662 H674 0.960 . S
C662 H675 0.962 . S
C662 H676 0.960 . S
C663 C660 1.511 . S
C663 H677 0.961 . S
C663 H678 0.961 1_565 S
C663 H679 0.961 . S
C664 C665 1.370 . S
C664 C666 1.363 . S
C664 H680 0.931 . S
C665 C664 1.370 . S
C665 C669 1.408 . S
C666 C664 1.363 . S
C666 C667 1.370 1_545 S
C666 C670 1.524 . S
C667 C659 1.503 . S
C667 C666 1.370 1_565 S
C667 C668 1.403 1_565 S
C668 C667 1.403 1_545 S
C668 C669 1.404 . S
C668 C671 1.539 1_545 S
C669 C665 1.408 . S
C669 C668 1.404 . S
C669 H681 0.930 . S
C670 C666 1.524 . S
C670 H682 0.956 1_545 S
C670 H683 0.961 1_545 S
C670 H684 0.961 . S
C671 C668 1.539 1_565 S
C671 H685 0.958 . S
C671 H686 0.961 . S
C671 H687 0.960 . S
H672 C656 0.931 . S
H673 C661 0.929 . S
H674 C662 0.960 . S
H675 C662 0.962 . S
H676 C662 0.960 . S
H677 C663 0.961 . S
H678 C663 0.961 1_545 S
H679 C663 0.961 . S
H680 C664 0.931 . S
H681 C669 0.930 . S
H682 C670 0.956 1_565 S
H683 C670 0.961 1_565 S
H684 C670 0.961 . S
H685 C671 0.958 . S
H686 C671 0.961 . S
H687 C671 0.960 . S
C688 C689 1.391 . S
C688 C690 1.394 . S
C688 H704 0.931 . S
C689 C688 1.391 . S
C689 C693 1.376 . S
C690 C688 1.394 . S
C690 C691 1.369 . S
C690 C694 1.531 . S
C691 C690 1.369 . S
C691 C692 1.410 . S
C691 C699 1.503 . S
C692 C691 1.410 . S
C692 C693 1.392 . S
C692 C695 1.511 . S
C693 C689 1.376 . S
C693 C692 1.392 . S
C693 H705 0.929 . S
C694 C690 1.531 . S
C694 H706 0.960 . S
C694 H707 0.962 . S
C694 H708 0.960 . S
C695 C692 1.511 . S
C695 H709 0.961 . S
C695 H710 0.961 . S
C695 H711 0.961 . S
C696 C697 1.370 . S
C696 C698 1.363 . S
C696 H712 0.931 . S
C697 C696 1.370 . S
C697 C701 1.408 . S
C698 C696 1.363 . S
C698 C699 1.370 . S
C698 C702 1.524 . S
C699 C691 1.503 . S
C699 C698 1.370 . S
C699 C700 1.403 . S
C700 C699 1.403 . S
C700 C701 1.404 . S
C700 C703 1.539 . S
C701 C697 1.408 . S
C701 C700 1.404 . S
C701 H713 0.930 . S
C702 C698 1.524 . S
C702 H714 0.956 . S
C702 H715 0.961 . S
C702 H716 0.961 . S
C703 C700 1.539 . S
C703 H717 0.958 . S
C703 H718 0.961 . S
C703 H719 0.960 . S
H704 C688 0.931 . S
H705 C693 0.929 . S
H706 C694 0.960 . S
H707 C694 0.962 . S
H708 C694 0.960 . S
H709 C695 0.961 . S
H710 C695 0.961 . S
H711 C695 0.961 . S
H712 C696 0.931 . S
H713 C701 0.930 . S
H714 C702 0.956 . S
H715 C702 0.961 . S
H716 C702 0.961 . S
H717 C703 0.958 . S
H718 C703 0.961 . S
H719 C703 0.960 . S
C720 C721 1.391 . S
C720 C722 1.394 . S
C720 H736 0.931 . S
C721 C720 1.391 . S
C721 C725 1.376 . S
C722 C720 1.394 . S
C722 C723 1.369 . S
C722 C726 1.531 . S
C723 C722 1.369 . S
C723 C724 1.410 . S
C723 C731 1.503 1_554 S
C724 C723 1.410 . S
C724 C725 1.392 . S
C724 C727 1.511 1_554 S
C725 C721 1.376 . S
C725 C724 1.392 . S
C725 H737 0.929 . S
C726 C722 1.531 . S
C726 H738 0.960 . S
C726 H739 0.962 . S
C726 H740 0.960 . S
C727 C724 1.511 1_556 S
C727 H741 0.959 . S
C727 H742 0.961 . S
C727 H743 0.961 . S
C728 C729 1.370 . S
C728 C730 1.363 . S
C728 H744 0.931 . S
C729 C728 1.370 . S
C729 C733 1.408 . S
C730 C728 1.363 . S
C730 C731 1.370 . S
C730 C734 1.524 . S
C731 C723 1.503 1_556 S
C731 C730 1.370 . S
C731 C732 1.403 . S
C732 C731 1.403 . S
C732 C733 1.404 . S
C732 C735 1.539 . S
C733 C729 1.408 . S
C733 C732 1.404 . S
C733 H745 0.930 . S
C734 C730 1.524 . S
C734 H746 0.956 1_556 S
C734 H747 0.961 1_556 S
C734 H748 0.961 . S
C735 C732 1.539 . S
C735 H749 0.958 . S
C735 H750 0.961 . S
C735 H751 0.960 . S
H736 C720 0.931 . S
H737 C725 0.929 . S
H738 C726 0.960 . S
H739 C726 0.962 . S
H740 C726 0.960 . S
H741 C727 0.959 . S
H742 C727 0.961 . S
H743 C727 0.961 . S
H744 C728 0.931 . S
H745 C733 0.930 . S
H746 C734 0.956 1_554 S
H747 C734 0.961 1_554 S
H748 C734 0.961 . S
H749 C735 0.958 . S
H750 C735 0.961 . S
H751 C735 0.960 . S
C752 C753 1.391 . S
C752 C754 1.394 . S
C752 H768 0.931 . S
C753 C752 1.391 . S
C753 C757 1.376 . S
C754 C752 1.394 . S
C754 C755 1.369 . S
C754 C758 1.531 1_554 S
C755 C754 1.369 . S
C755 C756 1.410 . S
C755 C763 1.503 1_554 S
C756 C755 1.410 . S
C756 C757 1.392 . S
C756 C759 1.511 . S
C757 C753 1.376 . S
C757 C756 1.392 . S
C757 H769 0.929 . S
C758 C754 1.531 1_556 S
C758 H770 0.960 . S
C758 H771 0.962 . S
C758 H772 0.960 1_565 S
C759 C756 1.511 . S
C759 H773 0.961 . S
C759 H774 0.961 . S
C759 H775 0.961 . S
C760 C761 1.370 . S
C760 C762 1.363 . S
C760 H776 0.931 . S
C761 C760 1.370 . S
C761 C765 1.408 . S
C762 C760 1.363 . S
C762 C763 1.370 . S
C762 C766 1.524 . S
C763 C755 1.503 1_556 S
C763 C762 1.370 . S
C763 C764 1.403 . S
C764 C763 1.403 . S
C764 C765 1.404 . S
C764 C767 1.539 . S
C765 C761 1.408 . S
C765 C764 1.404 . S
C765 H777 0.930 . S
C766 C762 1.524 . S
C766 H778 0.956 . S
C766 H779 0.961 . S
C766 H780 0.961 . S
C767 C764 1.539 . S
C767 H781 0.958 . S
C767 H782 0.961 . S
C767 H783 0.960 1_556 S
H768 C752 0.931 . S
H769 C757 0.929 . S
H770 C758 0.960 . S
H771 C758 0.962 . S
H772 C758 0.960 1_545 S
H773 C759 0.961 . S
H774 C759 0.961 . S
H775 C759 0.961 . S
H776 C760 0.931 . S
H777 C765 0.930 . S
H778 C766 0.956 . S
H779 C766 0.961 . S
H780 C766 0.961 . S
H781 C767 0.958 . S
H782 C767 0.961 . S
H783 C767 0.960 1_554 S
C784 C785 1.391 . S
C784 C786 1.394 . S
C784 H800 0.931 . S
C785 C784 1.391 . S
C785 C789 1.376 . S
C786 C784 1.394 . S
C786 C787 1.369 . S
C786 C790 1.531 . S
C787 C786 1.369 . S
C787 C788 1.410 . S
C787 C795 1.503 . S
C788 C787 1.410 . S
C788 C789 1.392 . S
C788 C791 1.511 . S
C789 C785 1.376 . S
C789 C788 1.392 . S
C789 H801 0.929 . S
C790 C786 1.531 . S
C790 H802 0.960 . S
C790 H803 0.962 . S
C790 H804 0.960 . S
C791 C788 1.511 . S
C791 H805 0.961 . S
C791 H806 0.961 . S
C791 H807 0.961 . S
C792 C793 1.370 . S
C792 C794 1.363 . S
C792 H808 0.931 . S
C793 C792 1.370 . S
C793 C797 1.408 . S
C794 C792 1.363 . S
C794 C795 1.370 . S
C794 C798 1.524 . S
C795 C787 1.503 . S
C795 C794 1.370 . S
C795 C796 1.403 . S
C796 C795 1.403 . S
C796 C797 1.404 . S
C796 C799 1.539 . S
C797 C793 1.408 . S
C797 C796 1.404 . S
C797 H809 0.930 . S
C798 C794 1.524 . S
C798 H810 0.956 . S
C798 H811 0.961 . S
C798 H812 0.961 . S
C799 C796 1.539 . S
C799 H813 0.958 . S
C799 H814 0.961 . S
C799 H815 0.960 . S
H800 C784 0.931 . S
H801 C789 0.929 . S
H802 C790 0.960 . S
H803 C790 0.962 . S
H804 C790 0.960 . S
H805 C791 0.961 . S
H806 C791 0.961 . S
H807 C791 0.961 . S
H808 C792 0.931 . S
H809 C797 0.930 . S
H810 C798 0.956 . S
H811 C798 0.961 . S
H812 C798 0.961 . S
H813 C799 0.958 . S
H814 C799 0.961 . S
H815 C799 0.960 . S
C816 C817 1.391 . S
C816 C818 1.394 . S
C816 H832 0.931 . S
C817 C816 1.391 . S
C817 C821 1.376 . S
C818 C816 1.394 . S
C818 C819 1.369 . S
C818 C822 1.531 . S
C819 C818 1.369 . S
C819 C820 1.410 . S
C819 C827 1.503 . S
C820 C819 1.410 . S
C820 C821 1.392 . S
C820 C823 1.511 . S
C821 C817 1.376 . S
C821 C820 1.392 . S
C821 H833 0.929 . S
C822 C818 1.531 . S
C822 H834 0.960 . S
C822 H835 0.962 . S
C822 H836 0.960 . S
C823 C820 1.511 . S
C823 H837 0.961 1_545 S
C823 H838 0.961 . S
C823 H839 0.961 1_545 S
C824 C825 1.370 . S
C824 C826 1.363 . S
C824 H840 0.931 . S
C825 C824 1.370 . S
C825 C829 1.408 . S
C826 C824 1.363 . S
C826 C827 1.370 . S
C826 C830 1.524 . S
C827 C819 1.503 . S
C827 C826 1.370 . S
C827 C828 1.403 . S
C828 C827 1.403 . S
C828 C829 1.404 . S
C828 C831 1.539 . S
C829 C825 1.408 . S
C829 C828 1.404 . S
C829 H841 0.930 . S
C830 C826 1.524 . S
C830 H842 0.956 . S
C830 H843 0.961 . S
C830 H844 0.961 . S
C831 C828 1.539 . S
C831 H845 0.958 . S
C831 H846 0.961 . S
C831 H847 0.960 . S
H832 C816 0.931 . S
H833 C821 0.929 . S
H834 C822 0.960 . S
H835 C822 0.962 . S
H836 C822 0.960 . S
H837 C823 0.961 1_565 S
H838 C823 0.961 . S
H839 C823 0.961 1_565 S
H840 C824 0.931 . S
H841 C829 0.930 . S
H842 C830 0.956 . S
H843 C830 0.961 . S
H844 C830 0.961 . S
H845 C831 0.958 . S
H846 C831 0.961 . S
H847 C831 0.960 . S
C848 C849 1.391 . S
C848 C850 1.394 . S
C848 H864 0.931 . S
C849 C848 1.391 . S
C849 C853 1.376 . S
C850 C848 1.394 . S
C850 C851 1.369 1_455 S
C850 C854 1.531 1_455 S
C851 C850 1.369 1_655 S
C851 C852 1.410 1_655 S
C851 C859 1.503 . S
C852 C851 1.410 1_455 S
C852 C853 1.392 . S
C852 C855 1.511 . S
C853 C849 1.376 . S
C853 C852 1.392 . S
C853 H865 0.929 . S
C854 C850 1.531 1_655 S
C854 H866 0.960 . S
C854 H867 0.962 . S
C854 H868 0.960 . S
C855 C852 1.511 . S
C855 H869 0.961 . S
C855 H870 0.961 1_455 S
C855 H871 0.961 . S
C856 C857 1.370 . S
C856 C858 1.363 . S
C856 H872 0.931 . S
C857 C856 1.370 . S
C857 C861 1.408 . S
C858 C856 1.363 . S
C858 C859 1.370 . S
C858 C862 1.524 . S
C859 C851 1.503 . S
C859 C858 1.370 . S
C859 C860 1.403 . S
C860 C859 1.403 . S
C860 C861 1.404 . S
C860 C863 1.539 . S
C861 C857 1.408 . S
C861 C860 1.404 . S
C861 H873 0.930 . S
C862 C858 1.524 . S
C862 H874 0.956 . S
C862 H875 0.961 1_655 S
C862 H876 0.961 . S
C863 C860 1.539 . S
C863 H877 0.958 . S
C863 H878 0.961 . S
C863 H879 0.960 . S
H864 C848 0.931 . S
H865 C853 0.929 . S
H866 C854 0.960 . S
H867 C854 0.962 . S
H868 C854 0.960 . S
H869 C855 0.961 . S
H870 C855 0.961 1_655 S
H871 C855 0.961 . S
H872 C856 0.931 . S
H873 C861 0.930 . S
H874 C862 0.956 . S
H875 C862 0.961 1_455 S
H876 C862 0.961 . S
H877 C863 0.958 . S
H878 C863 0.961 . S
H879 C863 0.960 . S
C880 C881 1.391 . S
C880 C882 1.394 . S
C880 H896 0.931 . S
C881 C880 1.391 . S
C881 C885 1.376 . S
C882 C880 1.394 . S
C882 C883 1.369 . S
C882 C886 1.531 . S
C883 C882 1.369 . S
C883 C884 1.410 . S
C883 C891 1.503 1_655 S
C884 C883 1.410 . S
C884 C885 1.392 . S
C884 C887 1.511 1_655 S
C885 C881 1.376 . S
C885 C884 1.392 . S
C885 H897 0.929 . S
C886 C882 1.531 . S
C886 H898 0.960 1_655 S
C886 H899 0.962 . S
C886 H900 0.960 . S
C887 C884 1.511 1_455 S
C887 H901 0.961 . S
C887 H902 0.961 . S
C887 H903 0.961 . S
C888 C889 1.370 . S
C888 C890 1.363 . S
C888 H904 0.931 . S
C889 C888 1.370 . S
C889 C893 1.408 . S
C890 C888 1.363 . S
C890 C891 1.370 . S
C890 C894 1.524 . S
C891 C883 1.503 1_455 S
C891 C890 1.370 . S
C891 C892 1.403 . S
C892 C891 1.403 . S
C892 C893 1.404 . S
C892 C895 1.539 . S
C893 C889 1.408 . S
C893 C892 1.404 . S
C893 H905 0.930 . S
C894 C890 1.524 . S
C894 H906 0.956 . S
C894 H907 0.961 . S
C894 H908 0.961 . S
C895 C892 1.539 . S
C895 H909 0.958 . S
C895 H910 0.961 . S
C895 H911 0.960 . S
H896 C880 0.931 . S
H897 C885 0.929 . S
H898 C886 0.960 1_455 S
H899 C886 0.962 . S
H900 C886 0.960 . S
H901 C887 0.961 . S
H902 C887 0.961 . S
H903 C887 0.961 . S
H904 C888 0.931 . S
H905 C893 0.930 . S
H906 C894 0.956 . S
H907 C894 0.961 . S
H908 C894 0.961 . S
H909 C895 0.958 . S
H910 C895 0.961 . S
H911 C895 0.960 . S
C912 C913 1.391 . S
C912 C914 1.394 . S
C912 H928 0.931 . S
C913 C912 1.391 . S
C913 C917 1.376 . S
C914 C912 1.394 . S
C914 C915 1.361 1_455 S
C914 C918 1.531 1_455 S
C915 C914 1.361 1_655 S
C915 C916 1.380 1_655 S
C915 C923 1.543 . S
C916 C915 1.380 1_455 S
C916 C917 1.392 . S
C916 C919 1.511 . S
C917 C913 1.376 . S
C917 C916 1.392 . S
C917 H929 0.929 . S
C918 C914 1.531 1_655 S
C918 H930 0.960 . S
C918 H931 0.962 . S
C918 H932 0.960 1_556 S
C919 C916 1.511 . S
C919 H933 0.961 . S
C919 H934 0.961 1_455 S
C919 H935 0.961 . S
C920 C921 1.370 . S
C920 C922 1.363 . S
C920 H936 0.931 . S
C921 C920 1.370 . S
C921 C925 1.408 . S
C922 C920 1.363 . S
C922 C923 1.370 . S
C922 C926 1.524 . S
C923 C915 1.543 . S
C923 C922 1.370 . S
C923 C924 1.403 . S
C924 C923 1.403 . S
C924 C925 1.404 . S
C924 C927 1.539 . S
C925 C921 1.408 . S
C925 C924 1.404 . S
C925 H937 0.930 . S
C926 C922 1.524 . S
C926 H938 0.956 . S
C926 H939 0.961 . S
C926 H940 0.961 . S
C927 C924 1.539 . S
C927 H941 0.958 . S
C927 H942 0.961 . S
C927 H943 0.960 1_655 S
H928 C912 0.931 . S
H929 C917 0.929 . S
H930 C918 0.960 . S
H931 C918 0.962 . S
H932 C918 0.960 1_554 S
H933 C919 0.961 . S
H934 C919 0.961 1_655 S
H935 C919 0.961 . S
H936 C920 0.931 . S
H937 C925 0.930 . S
H938 C926 0.956 . S
H939 C926 0.961 . S
H940 C926 0.961 . S
H941 C927 0.958 . S
H942 C927 0.961 . S
H943 C927 0.960 1_455 S
C944 C945 1.391 . S
C944 C946 1.394 . S
C944 H960 0.931 . S
C945 C944 1.391 . S
C945 C949 1.376 . S
C946 C944 1.394 . S
C946 C947 1.369 . S
C946 C950 1.531 . S
C947 C946 1.369 . S
C947 C948 1.410 . S
C947 C955 1.503 1_455 S
C948 C947 1.410 . S
C948 C949 1.392 . S
C948 C951 1.511 . S
C949 C945 1.376 . S
C949 C948 1.392 . S
C949 H961 0.929 . S
C950 C946 1.531 . S
C950 H962 0.960 1_455 S
C950 H963 0.962 . S
C950 H964 0.960 . S
C951 C948 1.511 . S
C951 H965 0.961 . S
C951 H966 0.961 . S
C951 H967 0.961 . S
C952 C953 1.370 . S
C952 C954 1.363 . S
C952 H968 0.931 . S
C953 C952 1.370 . S
C953 C957 1.408 . S
C954 C952 1.363 . S
C954 C955 1.370 . S
C954 C958 1.524 1_655 S
C955 C947 1.503 1_655 S
C955 C954 1.370 . S
C955 C956 1.403 . S
C956 C955 1.403 . S
C956 C957 1.404 . S
C956 C959 1.539 . S
C957 C953 1.408 . S
C957 C956 1.404 . S
C957 H969 0.930 . S
C958 C954 1.524 1_455 S
C958 H970 0.956 . S
C958 H971 0.961 . S
C958 H972 0.958 1_455 S
C959 C956 1.539 . S
C959 H973 0.958 . S
C959 H974 0.961 . S
C959 H975 0.960 1_655 S
H960 C944 0.931 . S
H961 C949 0.929 . S
H962 C950 0.960 1_655 S
H963 C950 0.962 . S
H964 C950 0.960 . S
H965 C951 0.961 . S
H966 C951 0.961 . S
H967 C951 0.961 . S
H968 C952 0.931 . S
H969 C957 0.930 . S
H970 C958 0.956 . S
H971 C958 0.961 . S
H972 C958 0.958 1_655 S
H973 C959 0.958 . S
H974 C959 0.961 . S
H975 C959 0.960 1_455 S
C976 C977 1.391 . S
C976 C978 1.426 . S
C976 H992 0.931 . S
C977 C976 1.391 . S
C977 C981 1.376 . S
C978 C976 1.426 . S
C978 C979 1.364 1_545 S
C978 C982 1.503 1_545 S
C979 C978 1.364 1_565 S
C979 C980 1.410 1_565 S
C979 C987 1.503 . S
C980 C979 1.410 1_545 S
C980 C981 1.392 . S
C980 C983 1.511 . S
C981 C977 1.376 . S
C981 C980 1.392 . S
C981 H993 0.929 . S
C982 C978 1.503 1_565 S
C982 H994 0.960 . S
C982 H995 0.962 . S
C982 H996 0.960 . S
C983 C980 1.511 . S
C983 H997 0.961 . S
C983 H998 0.925 1_545 S
C983 H999 0.961 . S
C984 C985 1.370 . S
C984 C986 1.363 . S
C984 H1000 0.931 . S
C985 C984 1.370 . S
C985 C989 1.408 . S
C986 C984 1.363 . S
C986 C987 1.370 . S
C986 C990 1.524 . S
C987 C979 1.503 . S
C987 C986 1.370 . S
C987 C988 1.403 . S
C988 C987 1.403 . S
C988 C989 1.404 . S
C988 C991 1.539 . S
C989 C985 1.408 . S
C989 C988 1.404 . S
C989 H1001 0.930 . S
C990 C986 1.524 . S
C990 H1002 0.956 . S
C990 H1003 0.961 . S
C990 H1004 0.961 . S
C991 C988 1.539 . S
C991 H1005 0.958 . S
C991 H1006 0.961 . S
C991 H1007 0.960 . S
H992 C976 0.931 . S
H993 C981 0.929 . S
H994 C982 0.960 . S
H995 C982 0.962 . S
H996 C982 0.960 . S
H997 C983 0.961 . S
H998 C983 0.925 1_565 S
H999 C983 0.961 . S
H1000 C984 0.931 . S
H1001 C989 0.930 . S
H1002 C990 0.956 . S
H1003 C990 0.961 . S
H1004 C990 0.961 . S
H1005 C991 0.958 . S
H1006 C991 0.961 . S
H1007 C991 0.960 . S
C1008 C1009 1.391 . S
C1008 C1010 1.394 . S
C1008 H1024 0.931 . S
C1009 C1008 1.391 . S
C1009 C1013 1.376 . S
C1010 C1008 1.394 . S
C1010 C1011 1.369 . S
C1010 C1014 1.531 . S
C1011 C1010 1.369 . S
C1011 C1012 1.410 . S
C1011 C1019 1.504 1_545 S
C1012 C1011 1.410 . S
C1012 C1013 1.392 . S
C1012 C1015 1.511 . S
C1013 C1009 1.376 . S
C1013 C1012 1.392 . S
C1013 H1025 0.929 . S
C1014 C1010 1.531 . S
C1014 H1026 0.960 . S
C1014 H1027 0.962 . S
C1014 H1028 0.960 . S
C1015 C1012 1.511 . S
C1015 H1029 0.961 . S
C1015 H1030 0.961 1_545 S
C1015 H1031 0.961 . S
C1016 C1017 1.370 . S
C1016 C1018 1.363 . S
C1016 H1032 0.931 . S
C1017 C1016 1.370 . S
C1017 C1021 1.408 . S
C1018 C1016 1.363 . S
C1018 C1019 1.370 . S
C1018 C1022 1.524 . S
C1019 C1011 1.504 1_565 S
C1019 C1018 1.370 . S
C1019 C1020 1.402 . S
C1020 C1019 1.402 . S
C1020 C1021 1.404 . S
C1020 C1023 1.539 1_565 S
C1021 C1017 1.408 . S
C1021 C1020 1.404 . S
C1021 H1033 0.930 . S
C1022 C1018 1.524 . S
C1022 H1034 0.956 1_565 S
C1022 H1035 0.961 1_565 S
C1022 H1036 0.961 . S
C1023 C1020 1.539 1_545 S
C1023 H1037 0.958 . S
C1023 H1038 0.961 1_545 S
C1023 H1039 0.960 . S
H1024 C1008 0.931 . S
H1025 C1013 0.929 . S
H1026 C1014 0.960 . S
H1027 C1014 0.962 . S
H1028 C1014 0.960 . S
H1029 C1015 0.961 . S
H1030 C1015 0.961 1_565 S
H1031 C1015 0.961 . S
H1032 C1016 0.931 . S
H1033 C1021 0.930 . S
H1034 C1022 0.956 1_545 S
H1035 C1022 0.961 1_545 S
H1036 C1022 0.961 . S
H1037 C1023 0.958 . S
H1038 C1023 0.961 1_565 S
H1039 C1023 0.960 . S
C1040 C1041 1.391 . S
C1040 C1042 1.394 . S
C1040 H1056 0.931 . S
C1041 C1040 1.391 . S
C1041 C1045 1.376 . S
C1042 C1040 1.394 . S
C1042 C1043 1.369 . S
C1042 C1046 1.531 . S
C1043 C1042 1.369 . S
C1043 C1044 1.410 . S
C1043 C1051 1.503 . S
C1044 C1043 1.410 . S
C1044 C1045 1.392 . S
C1044 C1047 1.511 . S
C1045 C1041 1.376 . S
C1045 C1044 1.392 . S
C1045 H1057 0.929 . S
C1046 C1042 1.531 . S
C1046 H1058 0.960 . S
C1046 H1059 0.962 . S
C1046 H1060 0.960 . S
C1047 C1044 1.511 . S
C1047 H1061 0.961 . S
C1047 H1062 0.961 . S
C1047 H1063 0.961 . S
C1048 C1049 1.370 . S
C1048 C1050 1.363 . S
C1048 H1064 0.931 . S
C1049 C1048 1.370 . S
C1049 C1053 1.408 . S
C1050 C1048 1.363 . S
C1050 C1051 1.370 . S
C1050 C1054 1.524 . S
C1051 C1043 1.503 . S
C1051 C1050 1.370 . S
C1051 C1052 1.403 . S
C1052 C1051 1.403 . S
C1052 C1053 1.404 . S
C1052 C1055 1.539 . S
C1053 C1049 1.408 . S
C1053 C1052 1.404 . S
C1053 H1065 0.930 . S
C1054 C1050 1.524 . S
C1054 H1066 0.956 . S
C1054 H1067 0.961 . S
C1054 H1068 0.961 . S
C1055 C1052 1.539 . S
C1055 H1069 0.958 . S
C1055 H1070 0.961 1_556 S
C1055 H1071 0.960 . S
H1056 C1040 0.931 . S
H1057 C1045 0.929 . S
H1058 C1046 0.960 . S
H1059 C1046 0.962 . S
H1060 C1046 0.960 . S
H1061 C1047 0.961 . S
H1062 C1047 0.961 . S
H1063 C1047 0.961 . S
H1064 C1048 0.931 . S
H1065 C1053 0.930 . S
H1066 C1054 0.956 . S
H1067 C1054 0.961 . S
H1068 C1054 0.961 . S
H1069 C1055 0.958 . S
H1070 C1055 0.961 1_554 S
H1071 C1055 0.960 . S
C1072 C1073 1.391 . S
C1072 C1074 1.394 . S
C1072 H1088 0.931 . S
C1073 C1072 1.391 . S
C1073 C1077 1.376 . S
C1074 C1072 1.394 . S
C1074 C1075 1.369 . S
C1074 C1078 1.531 . S
C1075 C1074 1.369 . S
C1075 C1076 1.410 . S
C1075 C1083 1.503 1_545 S
C1076 C1075 1.410 . S
C1076 C1077 1.392 . S
C1076 C1079 1.511 . S
C1077 C1073 1.376 . S
C1077 C1076 1.392 . S
C1077 H1089 0.929 . S
C1078 C1074 1.531 . S
C1078 H1090 0.960 . S
C1078 H1091 0.962 . S
C1078 H1092 0.960 . S
C1079 C1076 1.511 . S
C1079 H1093 0.961 . S
C1079 H1094 0.961 1_545 S
C1079 H1095 0.961 . S
C1080 C1081 1.370 . S
C1080 C1082 1.363 . S
C1080 H1096 0.931 . S
C1081 C1080 1.370 . S
C1081 C1085 1.408 . S
C1082 C1080 1.363 . S
C1082 C1083 1.370 . S
C1082 C1086 1.524 1_565 S
C1083 C1075 1.503 1_565 S
C1083 C1082 1.370 . S
C1083 C1084 1.403 . S
C1084 C1083 1.403 . S
C1084 C1085 1.404 . S
C1084 C1087 1.539 . S
C1085 C1081 1.408 . S
C1085 C1084 1.404 . S
C1085 H1097 0.930 . S
C1086 C1082 1.524 1_545 S
C1086 H1098 0.956 . S
C1086 H1099 0.961 . S
C1086 H1100 0.991 1_545 S
C1087 C1084 1.539 . S
C1087 H1101 0.958 . S
C1087 H1102 0.961 . S
C1087 H1103 0.960 1_565 S
H1088 C1072 0.931 . S
H1089 C1077 0.929 . S
H1090 C1078 0.960 . S
H1091 C1078 0.962 . S
H1092 C1078 0.960 . S
H1093 C1079 0.961 . S
H1094 C1079 0.961 1_565 S
H1095 C1079 0.961 . S
H1096 C1080 0.931 . S
H1097 C1085 0.930 . S
H1098 C1086 0.956 . S
H1099 C1086 0.961 . S
H1100 C1086 0.991 1_565 S
H1101 C1087 0.958 . S
H1102 C1087 0.961 . S
H1103 C1087 0.960 1_545 S
C1104 C1105 1.391 . S
C1104 C1106 1.394 . S
C1104 H1120 0.931 . S
C1105 C1104 1.391 . S
C1105 C1109 1.376 1_655 S
C1106 C1104 1.394 . S
C1106 C1107 1.366 . S
C1106 C1110 1.531 . S
C1107 C1106 1.366 . S
C1107 C1108 1.412 1_655 S
C1107 C1115 1.504 1_655 S
C1108 C1107 1.412 1_455 S
C1108 C1109 1.392 . S
C1108 C1111 1.511 . S
C1109 C1105 1.376 1_455 S
C1109 C1108 1.392 . S
C1109 H1121 0.929 . S
C1110 C1106 1.531 . S
C1110 H1122 0.960 . S
C1110 H1123 0.962 . S
C1110 H1124 0.960 . S
C1111 C1108 1.511 . S
C1111 H1125 0.961 . S
C1111 H1126 0.961 . S
C1111 H1127 0.961 . S
C1112 C1113 1.370 . S
C1112 C1114 1.363 1_455 S
C1112 H1128 0.931 1_455 S
C1113 C1112 1.370 . S
C1113 C1117 1.408 . S
C1114 C1112 1.363 1_655 S
C1114 C1115 1.370 1_655 S
C1114 C1118 1.524 . S
C1115 C1107 1.504 1_455 S
C1115 C1114 1.370 1_455 S
C1115 C1116 1.403 . S
C1116 C1115 1.403 . S
C1116 C1117 1.404 . S
C1116 C1119 1.539 . S
C1117 C1113 1.408 . S
C1117 C1116 1.404 . S
C1117 H1129 0.930 . S
C1118 C1114 1.524 . S
C1118 H1130 0.956 . S
C1118 H1131 0.961 . S
C1118 H1132 0.961 . S
C1119 C1116 1.539 . S
C1119 H1133 0.958 . S
C1119 H1134 0.961 . S
C1119 H1135 0.960 . S
H1120 C1104 0.931 . S
H1121 C1109 0.929 . S
H1122 C1110 0.960 . S
H1123 C1110 0.962 . S
H1124 C1110 0.960 . S
H1125 C1111 0.961 . S
H1126 C1111 0.961 . S
H1127 C1111 0.961 . S
H1128 C1112 0.931 1_655 S
H1129 C1117 0.930 . S
H1130 C1118 0.956 . S
H1131 C1118 0.961 . S
H1132 C1118 0.961 . S
H1133 C1119 0.958 . S
H1134 C1119 0.961 . S
H1135 C1119 0.960 . S
C1136 C1137 1.391 . S
C1136 C1138 1.394 . S
C1136 H1152 0.931 . S
C1137 C1136 1.391 . S
C1137 C1141 1.376 1_455 S
C1138 C1136 1.394 . S
C1138 C1139 1.369 . S
C1138 C1142 1.531 . S
C1139 C1138 1.369 . S
C1139 C1140 1.410 1_455 S
C1139 C1147 1.503 1_455 S
C1140 C1139 1.410 1_655 S
C1140 C1141 1.392 . S
C1140 C1143 1.511 . S
C1141 C1137 1.376 1_655 S
C1141 C1140 1.392 . S
C1141 H1153 0.929 . S
C1142 C1138 1.531 . S
C1142 H1154 0.960 . S
C1142 H1155 0.962 . S
C1142 H1156 0.960 . S
C1143 C1140 1.511 . S
C1143 H1157 0.961 . S
C1143 H1158 0.961 . S
C1143 H1159 0.961 . S
C1144 C1145 1.370 . S
C1144 C1146 1.363 . S
C1144 H1160 0.931 . S
C1145 C1144 1.370 . S
C1145 C1149 1.408 . S
C1146 C1144 1.363 . S
C1146 C1147 1.370 . S
C1146 C1150 1.524 1_655 S
C1147 C1139 1.503 1_655 S
C1147 C1146 1.370 . S
C1147 C1148 1.403 . S
C1148 C1147 1.403 . S
C1148 C1149 1.404 . S
C1148 C1151 1.539 . S
C1149 C1145 1.408 . S
C1149 C1148 1.404 . S
C1149 H1161 0.930 . S
C1150 C1146 1.524 1_455 S
C1150 H1162 0.956 . S
C1150 H1163 0.961 1_455 S
C1150 H1164 0.961 . S
C1151 C1148 1.539 . S
C1151 H1165 0.958 1_655 S
C1151 H1166 0.961 . S
C1151 H1167 0.960 . S
H1152 C1136 0.931 . S
H1153 C1141 0.929 . S
H1154 C1142 0.960 . S
H1155 C1142 0.962 . S
H1156 C1142 0.960 . S
H1157 C1143 0.961 . S
H1158 C1143 0.961 . S
H1159 C1143 0.961 . S
H1160 C1144 0.931 . S
H1161 C1149 0.930 . S
H1162 C1150 0.956 . S
H1163 C1150 0.961 1_655 S
H1164 C1150 0.961 . S
H1165 C1151 0.958 1_455 S
H1166 C1151 0.961 . S
H1167 C1151 0.960 . S
C1168 C1169 1.391 1_545 S
C1168 C1170 1.394 . S
C1168 H1184 0.931 . S
C1169 C1168 1.391 1_565 S
C1169 C1173 1.376 . S
C1170 C1168 1.394 . S
C1170 C1171 1.369 . S
C1170 C1174 1.531 . S
C1171 C1170 1.369 . S
C1171 C1172 1.410 1_545 S
C1171 C1179 1.503 . S
C1172 C1171 1.410 1_565 S
C1172 C1173 1.392 . S
C1172 C1175 1.511 . S
C1173 C1169 1.376 . S
C1173 C1172 1.392 . S
C1173 H1185 0.929 . S
C1174 C1170 1.531 . S
C1174 H1186 0.960 . S
C1174 H1187 0.962 . S
C1174 H1188 0.960 . S
C1175 C1172 1.511 . S
C1175 H1189 0.961 . S
C1175 H1190 0.961 . S
C1175 H1191 0.961 . S
C1176 C1177 1.370 1_565 S
C1176 C1178 1.363 . S
C1176 H1192 0.931 . S
C1177 C1176 1.370 1_545 S
C1177 C1181 1.408 . S
C1178 C1176 1.363 . S
C1178 C1179 1.370 1_565 S
C1178 C1182 1.524 . S
C1179 C1171 1.503 . S
C1179 C1178 1.370 1_545 S
C1179 C1180 1.403 . S
C1180 C1179 1.403 . S
C1180 C1181 1.404 . S
C1180 C1183 1.539 . S
C1181 C1177 1.408 . S
C1181 C1180 1.404 . S
C1181 H1193 0.930 . S
C1182 C1178 1.524 . S
C1182 H1194 0.956 . S
C1182 H1195 0.961 . S
C1182 H1196 0.961 . S
C1183 C1180 1.539 . S
C1183 H1197 0.958 . S
C1183 H1198 0.961 . S
C1183 H1199 0.960 . S
H1184 C1168 0.931 . S
H1185 C1173 0.929 . S
H1186 C1174 0.960 . S
H1187 C1174 0.962 . S
H1188 C1174 0.960 . S
H1189 C1175 0.961 . S
H1190 C1175 0.961 . S
H1191 C1175 0.961 . S
H1192 C1176 0.931 . S
H1193 C1181 0.930 . S
H1194 C1182 0.956 . S
H1195 C1182 0.961 . S
H1196 C1182 0.961 . S
H1197 C1183 0.958 . S
H1198 C1183 0.961 . S
H1199 C1183 0.960 . S
C1200 C1201 1.391 . S
C1200 C1202 1.394 . S
C1200 H1216 0.931 . S
C1201 C1200 1.391 . S
C1201 C1205 1.376 . S
C1202 C1200 1.394 . S
C1202 C1203 1.369 . S
C1202 C1206 1.531 . S
C1203 C1202 1.369 . S
C1203 C1204 1.410 . S
C1203 C1211 1.503 . S
C1204 C1203 1.410 . S
C1204 C1205 1.392 . S
C1204 C1207 1.511 . S
C1205 C1201 1.376 . S
C1205 C1204 1.392 . S
C1205 H1217 0.929 . S
C1206 C1202 1.531 . S
C1206 H1218 0.960 . S
C1206 H1219 0.962 . S
C1206 H1220 0.960 . S
C1207 C1204 1.511 . S
C1207 H1221 0.961 . S
C1207 H1222 0.961 . S
C1207 H1223 0.961 . S
C1208 C1209 1.370 . S
C1208 C1210 1.363 . S
C1208 H1224 0.931 . S
C1209 C1208 1.370 . S
C1209 C1213 1.408 . S
C1210 C1208 1.363 . S
C1210 C1211 1.370 . S
C1210 C1214 1.524 . S
C1211 C1203 1.503 . S
C1211 C1210 1.370 . S
C1211 C1212 1.403 . S
C1212 C1211 1.403 . S
C1212 C1213 1.404 . S
C1212 C1215 1.539 . S
C1213 C1209 1.408 . S
C1213 C1212 1.404 . S
C1213 H1225 0.930 . S
C1214 C1210 1.524 . S
C1214 H1226 0.956 . S
C1214 H1227 0.961 . S
C1214 H1228 0.961 . S
C1215 C1212 1.539 . S
C1215 H1229 0.958 . S
C1215 H1230 0.961 . S
C1215 H1231 0.960 . S
H1216 C1200 0.931 . S
H1217 C1205 0.929 . S
H1218 C1206 0.960 . S
H1219 C1206 0.962 . S
H1220 C1206 0.960 . S
H1221 C1207 0.961 . S
H1222 C1207 0.961 . S
H1223 C1207 0.961 . S
H1224 C1208 0.931 . S
H1225 C1213 0.930 . S
H1226 C1214 0.956 . S
H1227 C1214 0.961 . S
H1228 C1214 0.961 . S
H1229 C1215 0.958 . S
H1230 C1215 0.961 . S
H1231 C1215 0.960 . S
C1232 C1233 1.391 1_556 S
C1232 C1234 1.394 . S
C1232 H1248 0.931 . S
C1233 C1232 1.391 1_554 S
C1233 C1237 1.376 . S
C1234 C1232 1.394 . S
C1234 C1235 1.369 1_556 S
C1234 C1238 1.531 . S
C1235 C1234 1.369 1_554 S
C1235 C1236 1.410 . S
C1235 C1243 1.503 1_554 S
C1236 C1235 1.410 . S
C1236 C1237 1.392 . S
C1236 C1239 1.511 . S
C1237 C1233 1.376 . S
C1237 C1236 1.392 . S
C1237 H1249 0.929 . S
C1238 C1234 1.531 . S
C1238 H1250 0.960 . S
C1238 H1251 0.962 . S
C1238 H1252 0.960 . S
C1239 C1236 1.511 . S
C1239 H1253 0.961 . S
C1239 H1254 0.961 . S
C1239 H1255 0.961 . S
C1240 C1241 1.370 . S
C1240 C1242 1.363 . S
C1240 H1256 0.931 . S
C1241 C1240 1.370 . S
C1241 C1245 1.408 . S
C1242 C1240 1.363 . S
C1242 C1243 1.370 . S
C1242 C1246 1.524 . S
C1243 C1235 1.503 1_556 S
C1243 C1242 1.370 . S
C1243 C1244 1.403 . S
C1244 C1243 1.403 . S
C1244 C1245 1.404 . S
C1244 C1247 1.539 . S
C1245 C1241 1.408 . S
C1245 C1244 1.404 . S
C1245 H1257 0.930 . S
C1246 C1242 1.524 . S
C1246 H1258 0.956 . S
C1246 H1259 0.961 1_556 S
C1246 H1260 0.962 . S
C1247 C1244 1.539 . S
C1247 H1261 0.957 . S
C1247 H1262 0.962 1_556 S
C1247 H1263 0.960 1_556 S
H1248 C1232 0.931 . S
H1249 C1237 0.929 . S
H1250 C1238 0.960 . S
H1251 C1238 0.962 . S
H1252 C1238 0.960 . S
H1253 C1239 0.961 . S
H1254 C1239 0.961 . S
H1255 C1239 0.961 . S
H1256 C1240 0.931 . S
H1257 C1245 0.930 . S
H1258 C1246 0.956 . S
H1259 C1246 0.961 1_554 S
H1260 C1246 0.962 . S
H1261 C1247 0.957 . S
H1262 C1247 0.962 1_554 S
H1263 C1247 0.960 1_554 S
C1264 C1265 1.391 . S
C1264 C1266 1.394 . S
C1264 H1280 0.931 . S
C1265 C1264 1.391 . S
C1265 C1269 1.376 . S
C1266 C1264 1.394 . S
C1266 C1267 1.369 . S
C1266 C1270 1.531 . S
C1267 C1266 1.369 . S
C1267 C1268 1.410 . S
C1267 C1275 1.503 . S
C1268 C1267 1.410 . S
C1268 C1269 1.392 . S
C1268 C1271 1.511 . S
C1269 C1265 1.376 . S
C1269 C1268 1.392 . S
C1269 H1281 0.929 . S
C1270 C1266 1.531 . S
C1270 H1282 0.960 . S
C1270 H1283 0.962 . S
C1270 H1284 0.960 . S
C1271 C1268 1.511 . S
C1271 H1285 0.961 . S
C1271 H1286 0.961 . S
C1271 H1287 0.961 . S
C1272 C1273 1.370 . S
C1272 C1274 1.363 . S
C1272 H1288 0.931 . S
C1273 C1272 1.370 . S
C1273 C1277 1.408 . S
C1274 C1272 1.363 . S
C1274 C1275 1.370 . S
C1274 C1278 1.524 . S
C1275 C1267 1.503 . S
C1275 C1274 1.370 . S
C1275 C1276 1.403 . S
C1276 C1275 1.403 . S
C1276 C1277 1.404 . S
C1276 C1279 1.539 . S
C1277 C1273 1.408 . S
C1277 C1276 1.404 . S
C1277 H1289 0.930 . S
C1278 C1274 1.524 . S
C1278 H1290 0.956 . S
C1278 H1291 0.961 . S
C1278 H1292 0.961 . S
C1279 C1276 1.539 . S
C1279 H1293 0.958 . S
C1279 H1294 0.961 . S
C1279 H1295 0.960 . S
H1280 C1264 0.931 . S
H1281 C1269 0.929 . S
H1282 C1270 0.960 . S
H1283 C1270 0.962 . S
H1284 C1270 0.960 . S
H1285 C1271 0.961 . S
H1286 C1271 0.961 . S
H1287 C1271 0.961 . S
H1288 C1272 0.931 . S
H1289 C1277 0.930 . S
H1290 C1278 0.956 . S
H1291 C1278 0.961 . S
H1292 C1278 0.961 . S
H1293 C1279 0.958 . S
H1294 C1279 0.961 . S
H1295 C1279 0.960 . S
C1296 C1297 1.391 . S
C1296 C1298 1.394 . S
C1296 H1312 0.931 . S
C1297 C1296 1.391 . S
C1297 C1301 1.376 . S
C1298 C1296 1.394 . S
C1298 C1299 1.369 . S
C1298 C1302 1.531 . S
C1299 C1298 1.369 . S
C1299 C1300 1.410 . S
C1299 C1307 1.503 . S
C1300 C1299 1.410 . S
C1300 C1301 1.392 . S
C1300 C1303 1.511 . S
C1301 C1297 1.376 . S
C1301 C1300 1.392 . S
C1301 H1313 0.929 . S
C1302 C1298 1.531 . S
C1302 H1314 0.960 . S
C1302 H1315 0.962 . S
C1302 H1316 0.960 . S
C1303 C1300 1.511 . S
C1303 H1317 0.961 . S
C1303 H1318 0.961 . S
C1303 H1319 0.961 . S
C1304 C1305 1.370 . S
C1304 C1306 1.363 . S
C1304 H1320 0.931 . S
C1305 C1304 1.370 . S
C1305 C1309 1.408 . S
C1306 C1304 1.363 . S
C1306 C1307 1.370 . S
C1306 C1310 1.524 . S
C1307 C1299 1.503 . S
C1307 C1306 1.370 . S
C1307 C1308 1.403 . S
C1308 C1307 1.403 . S
C1308 C1309 1.404 . S
C1308 C1311 1.539 . S
C1309 C1305 1.408 . S
C1309 C1308 1.404 . S
C1309 H1321 0.930 . S
C1310 C1306 1.524 . S
C1310 H1322 0.956 . S
C1310 H1323 0.961 . S
C1310 H1324 0.961 . S
C1311 C1308 1.539 . S
C1311 H1325 0.958 . S
C1311 H1326 0.961 . S
C1311 H1327 0.960 . S
H1312 C1296 0.931 . S
H1313 C1301 0.929 . S
H1314 C1302 0.960 . S
H1315 C1302 0.962 . S
H1316 C1302 0.960 . S
H1317 C1303 0.961 . S
H1318 C1303 0.961 . S
H1319 C1303 0.961 . S
H1320 C1304 0.931 . S
H1321 C1309 0.930 . S
H1322 C1310 0.956 . S
H1323 C1310 0.961 . S
H1324 C1310 0.961 . S
H1325 C1311 0.958 . S
H1326 C1311 0.961 . S
H1327 C1311 0.960 . S
C1328 C1329 1.391 . S
C1328 C1330 1.394 . S
C1328 H1344 0.931 . S
C1329 C1328 1.391 . S
C1329 C1333 1.376 . S
C1330 C1328 1.394 . S
C1330 C1331 1.369 . S
C1330 C1334 1.531 . S
C1331 C1330 1.369 . S
C1331 C1332 1.410 . S
C1331 C1339 1.503 . S
C1332 C1331 1.410 . S
C1332 C1333 1.392 . S
C1332 C1335 1.511 . S
C1333 C1329 1.376 . S
C1333 C1332 1.392 . S
C1333 H1345 0.929 . S
C1334 C1330 1.531 . S
C1334 H1346 0.960 . S
C1334 H1347 0.962 . S
C1334 H1348 0.960 . S
C1335 C1332 1.511 . S
C1335 H1349 0.961 . S
C1335 H1350 0.961 . S
C1335 H1351 0.961 . S
C1336 C1337 1.370 . S
C1336 C1338 1.363 . S
C1336 H1352 0.931 . S
C1337 C1336 1.370 . S
C1337 C1341 1.408 . S
C1338 C1336 1.363 . S
C1338 C1339 1.370 . S
C1338 C1342 1.524 . S
C1339 C1331 1.503 . S
C1339 C1338 1.370 . S
C1339 C1340 1.403 . S
C1340 C1339 1.403 . S
C1340 C1341 1.404 . S
C1340 C1343 1.539 . S
C1341 C1337 1.408 . S
C1341 C1340 1.404 . S
C1341 H1353 0.930 . S
C1342 C1338 1.524 . S
C1342 H1354 0.956 . S
C1342 H1355 0.961 . S
C1342 H1356 0.961 . S
C1343 C1340 1.539 . S
C1343 H1357 0.958 . S
C1343 H1358 0.961 . S
C1343 H1359 0.960 . S
H1344 C1328 0.931 . S
H1345 C1333 0.929 . S
H1346 C1334 0.960 . S
H1347 C1334 0.962 . S
H1348 C1334 0.960 . S
H1349 C1335 0.961 . S
H1350 C1335 0.961 . S
H1351 C1335 0.961 . S
H1352 C1336 0.931 . S
H1353 C1341 0.930 . S
H1354 C1342 0.956 . S
H1355 C1342 0.961 . S
H1356 C1342 0.961 . S
H1357 C1343 0.958 . S
H1358 C1343 0.961 . S
H1359 C1343 0.960 . S
C1360 C1361 1.391 . S
C1360 C1362 1.394 . S
C1360 H1376 0.931 . S
C1361 C1360 1.391 . S
C1361 C1365 1.376 . S
C1362 C1360 1.394 . S
C1362 C1363 1.369 . S
C1362 C1366 1.531 . S
C1363 C1362 1.369 . S
C1363 C1364 1.410 . S
C1363 C1371 1.503 . S
C1364 C1363 1.410 . S
C1364 C1365 1.392 . S
C1364 C1367 1.511 . S
C1365 C1361 1.376 . S
C1365 C1364 1.392 . S
C1365 H1377 0.929 . S
C1366 C1362 1.531 . S
C1366 H1378 0.960 . S
C1366 H1379 0.962 . S
C1366 H1380 0.960 . S
C1367 C1364 1.511 . S
C1367 H1381 0.961 . S
C1367 H1382 0.961 . S
C1367 H1383 0.961 . S
C1368 C1369 1.370 . S
C1368 C1370 1.363 . S
C1368 H1384 0.931 . S
C1369 C1368 1.370 . S
C1369 C1373 1.408 . S
C1370 C1368 1.363 . S
C1370 C1371 1.370 . S
C1370 C1374 1.524 . S
C1371 C1363 1.503 . S
C1371 C1370 1.370 . S
C1371 C1372 1.403 . S
C1372 C1371 1.403 . S
C1372 C1373 1.404 . S
C1372 C1375 1.539 . S
C1373 C1369 1.408 . S
C1373 C1372 1.404 . S
C1373 H1385 0.930 . S
C1374 C1370 1.524 . S
C1374 H1386 0.956 . S
C1374 H1387 0.961 . S
C1374 H1388 0.961 . S
C1375 C1372 1.539 . S
C1375 H1389 0.958 . S
C1375 H1390 0.961 . S
C1375 H1391 0.960 . S
H1376 C1360 0.931 . S
H1377 C1365 0.929 . S
H1378 C1366 0.960 . S
H1379 C1366 0.962 . S
H1380 C1366 0.960 . S
H1381 C1367 0.961 . S
H1382 C1367 0.961 . S
H1383 C1367 0.961 . S
H1384 C1368 0.931 . S
H1385 C1373 0.930 . S
H1386 C1374 0.956 . S
H1387 C1374 0.961 . S
H1388 C1374 0.961 . S
H1389 C1375 0.958 . S
H1390 C1375 0.961 . S
H1391 C1375 0.960 . S
C1392 C1393 1.391 . S
C1392 C1394 1.394 . S
C1392 H1408 0.931 . S
C1393 C1392 1.391 . S
C1393 C1397 1.376 . S
C1394 C1392 1.394 . S
C1394 C1395 1.369 . S
C1394 C1398 1.531 . S
C1395 C1394 1.369 . S
C1395 C1396 1.410 . S
C1395 C1403 1.503 . S
C1396 C1395 1.410 . S
C1396 C1397 1.392 . S
C1396 C1399 1.511 . S
C1397 C1393 1.376 . S
C1397 C1396 1.392 . S
C1397 H1409 0.929 . S
C1398 C1394 1.531 . S
C1398 H1410 0.960 . S
C1398 H1411 0.962 . S
C1398 H1412 0.960 . S
C1399 C1396 1.511 . S
C1399 H1413 0.961 . S
C1399 H1414 0.961 . S
C1399 H1415 0.961 . S
C1400 C1401 1.370 . S
C1400 C1402 1.363 . S
C1400 H1416 0.931 . S
C1401 C1400 1.370 . S
C1401 C1405 1.408 . S
C1402 C1400 1.363 . S
C1402 C1403 1.370 . S
C1402 C1406 1.524 . S
C1403 C1395 1.503 . S
C1403 C1402 1.370 . S
C1403 C1404 1.403 . S
C1404 C1403 1.403 . S
C1404 C1405 1.404 . S
C1404 C1407 1.539 . S
C1405 C1401 1.408 . S
C1405 C1404 1.404 . S
C1405 H1417 0.930 . S
C1406 C1402 1.524 . S
C1406 H1418 0.956 . S
C1406 H1419 0.961 . S
C1406 H1420 0.961 . S
C1407 C1404 1.539 . S
C1407 H1421 0.958 . S
C1407 H1422 0.961 . S
C1407 H1423 0.960 . S
H1408 C1392 0.931 . S
H1409 C1397 0.929 . S
H1410 C1398 0.960 . S
H1411 C1398 0.962 . S
H1412 C1398 0.960 . S
H1413 C1399 0.961 . S
H1414 C1399 0.961 . S
H1415 C1399 0.961 . S
H1416 C1400 0.931 . S
H1417 C1405 0.930 . S
H1418 C1406 0.956 . S
H1419 C1406 0.961 . S
H1420 C1406 0.961 . S
H1421 C1407 0.958 . S
H1422 C1407 0.961 . S
H1423 C1407 0.960 . S
C1424 C1425 1.391 1_565 S
C1424 C1426 1.394 . S
C1424 H1440 0.931 . S
C1425 C1424 1.391 1_545 S
C1425 C1429 1.376 . S
C1426 C1424 1.394 . S
C1426 C1427 1.369 . S
C1426 C1430 1.531 . S
C1427 C1426 1.369 . S
C1427 C1428 1.410 1_565 S
C1427 C1435 1.503 . S
C1428 C1427 1.410 1_545 S
C1428 C1429 1.392 . S
C1428 C1431 1.511 . S
C1429 C1425 1.376 . S
C1429 C1428 1.392 . S
C1429 H1441 0.929 . S
C1430 C1426 1.531 . S
C1430 H1442 0.960 . S
C1430 H1443 0.962 . S
C1430 H1444 0.960 . S
C1431 C1428 1.511 . S
C1431 H1445 0.961 . S
C1431 H1446 0.961 . S
C1431 H1447 0.961 . S
C1432 C1433 1.370 1_545 S
C1432 C1434 1.363 . S
C1432 H1448 0.931 . S
C1433 C1432 1.370 1_565 S
C1433 C1437 1.408 . S
C1434 C1432 1.363 . S
C1434 C1435 1.370 1_545 S
C1434 C1438 1.524 . S
C1435 C1427 1.503 . S
C1435 C1434 1.370 1_565 S
C1435 C1436 1.403 . S
C1436 C1435 1.403 . S
C1436 C1437 1.404 . S
C1436 C1439 1.539 . S
C1437 C1433 1.408 . S
C1437 C1436 1.404 . S
C1437 H1449 0.930 . S
C1438 C1434 1.524 . S
C1438 H1450 0.956 . S
C1438 H1451 0.961 . S
C1438 H1452 0.961 . S
C1439 C1436 1.539 . S
C1439 H1453 0.958 . S
C1439 H1454 0.961 . S
C1439 H1455 0.960 . S
H1440 C1424 0.931 . S
H1441 C1429 0.929 . S
H1442 C1430 0.960 . S
H1443 C1430 0.962 . S
H1444 C1430 0.960 . S
H1445 C1431 0.961 . S
H1446 C1431 0.961 . S
H1447 C1431 0.961 . S
H1448 C1432 0.931 . S
H1449 C1437 0.930 . S
H1450 C1438 0.956 . S
H1451 C1438 0.961 . S
H1452 C1438 0.961 . S
H1453 C1439 0.958 . S
H1454 C1439 0.961 . S
H1455 C1439 0.960 . S
C1456 C1457 1.391 1_554 S
C1456 C1458 1.394 . S
C1456 H1472 0.931 . S
C1457 C1456 1.391 1_556 S
C1457 C1461 1.376 . S
C1458 C1456 1.394 . S
C1458 C1459 1.369 1_554 S
C1458 C1462 1.531 . S
C1459 C1458 1.369 1_556 S
C1459 C1460 1.410 . S
C1459 C1467 1.509 . S
C1460 C1459 1.410 . S
C1460 C1461 1.392 . S
C1460 C1463 1.511 . S
C1461 C1457 1.376 . S
C1461 C1460 1.392 . S
C1461 H1473 0.929 . S
C1462 C1458 1.531 . S
C1462 H1474 0.960 . S
C1462 H1475 0.962 . S
C1462 H1476 0.960 . S
C1463 C1460 1.511 . S
C1463 H1477 0.961 . S
C1463 H1478 0.961 . S
C1463 H1479 0.961 . S
C1464 C1465 1.370 . S
C1464 C1466 1.363 . S
C1464 H1480 0.931 . S
C1465 C1464 1.370 . S
C1465 C1469 1.408 1_554 S
C1466 C1464 1.363 . S
C1466 C1467 1.348 1_554 S
C1466 C1470 1.524 . S
C1467 C1459 1.509 . S
C1467 C1466 1.348 1_556 S
C1467 C1468 1.420 . S
C1468 C1467 1.420 . S
C1468 C1469 1.404 . S
C1468 C1471 1.539 . S
C1469 C1465 1.408 1_556 S
C1469 C1468 1.404 . S
C1469 H1481 0.930 . S
C1470 C1466 1.524 . S
C1470 H1482 0.956 . S
C1470 H1483 0.961 . S
C1470 H1484 0.961 . S
C1471 C1468 1.539 . S
C1471 H1485 0.958 . S
C1471 H1486 0.961 . S
C1471 H1487 0.960 . S
H1472 C1456 0.931 . S
H1473 C1461 0.929 . S
H1474 C1462 0.960 . S
H1475 C1462 0.962 . S
H1476 C1462 0.960 . S
H1477 C1463 0.961 . S
H1478 C1463 0.961 . S
H1479 C1463 0.961 . S
H1480 C1464 0.931 . S
H1481 C1469 0.930 . S
H1482 C1470 0.956 . S
H1483 C1470 0.961 . S
H1484 C1470 0.961 . S
H1485 C1471 0.958 . S
H1486 C1471 0.961 . S
H1487 C1471 0.960 . S
C1488 C1489 1.391 . S
C1488 C1490 1.394 . S
C1488 H1504 0.931 . S
C1489 C1488 1.391 . S
C1489 C1493 1.376 1_455 S
C1490 C1488 1.394 . S
C1490 C1491 1.369 . S
C1490 C1494 1.531 1_565 S
C1491 C1490 1.369 . S
C1491 C1492 1.410 1_455 S
C1491 C1499 1.503 1_565 S
C1492 C1491 1.410 1_655 S
C1492 C1493 1.392 . S
C1492 C1495 1.511 . S
C1493 C1489 1.376 1_655 S
C1493 C1492 1.392 . S
C1493 H1505 0.929 . S
C1494 C1490 1.531 1_545 S
C1494 H1506 0.960 . S
C1494 H1507 0.962 . S
C1494 H1508 0.960 . S
C1495 C1492 1.511 . S
C1495 H1509 0.961 . S
C1495 H1510 0.961 . S
C1495 H1511 0.961 . S
C1496 C1497 1.370 . S
C1496 C1498 1.359 1_545 S
C1496 H1512 0.931 . S
C1497 C1496 1.370 . S
C1497 C1501 1.408 1_455 S
C1498 C1496 1.359 1_565 S
C1498 C1499 1.368 1_565 S
C1498 C1502 1.530 . S
C1499 C1491 1.503 1_545 S
C1499 C1498 1.368 1_545 S
C1499 C1500 1.403 1_455 S
C1500 C1499 1.403 1_655 S
C1500 C1501 1.404 . S
C1500 C1503 1.539 . S
C1501 C1497 1.408 1_655 S
C1501 C1500 1.404 . S
C1501 H1513 0.930 . S
C1502 C1498 1.530 . S
C1502 H1514 0.956 . S
C1502 H1515 0.961 . S
C1502 H1516 0.961 . S
C1503 C1500 1.539 . S
C1503 H1517 0.949 1_655 S
C1503 H1518 0.961 . S
C1503 H1519 0.960 . S
H1504 C1488 0.931 . S
H1505 C1493 0.929 . S
H1506 C1494 0.960 . S
H1507 C1494 0.962 . S
H1508 C1494 0.960 . S
H1509 C1495 0.961 . S
H1510 C1495 0.961 . S
H1511 C1495 0.961 . S
H1512 C1496 0.931 . S
H1513 C1501 0.930 . S
H1514 C1502 0.956 . S
H1515 C1502 0.961 . S
H1516 C1502 0.961 . S
H1517 C1503 0.949 1_455 S
H1518 C1503 0.961 . S
H1519 C1503 0.960 . S
C1520 C1521 1.391 1_455 S
C1520 C1522 1.394 . S
C1520 H1536 0.931 . S
C1521 C1520 1.391 1_655 S
C1521 C1525 1.376 . S
C1522 C1520 1.394 . S
C1522 C1523 1.369 1_455 S
C1522 C1526 1.531 . S
C1523 C1522 1.369 1_655 S
C1523 C1524 1.410 . S
C1523 C1531 1.503 . S
C1524 C1523 1.410 . S
C1524 C1525 1.392 . S
C1524 C1527 1.511 . S
C1525 C1521 1.376 . S
C1525 C1524 1.392 . S
C1525 H1537 0.929 . S
C1526 C1522 1.531 . S
C1526 H1538 0.960 . S
C1526 H1539 0.962 . S
C1526 H1540 0.960 . S
C1527 C1524 1.511 . S
C1527 H1541 0.961 . S
C1527 H1542 0.961 . S
C1527 H1543 0.961 . S
C1528 C1529 1.370 . S
C1528 C1530 1.363 . S
C1528 H1544 0.931 1_655 S
C1529 C1528 1.370 . S
C1529 C1533 1.408 . S
C1530 C1528 1.363 . S
C1530 C1531 1.370 . S
C1530 C1534 1.524 1_655 S
C1531 C1523 1.503 . S
C1531 C1530 1.370 . S
C1531 C1532 1.403 . S
C1532 C1531 1.403 . S
C1532 C1533 1.404 . S
C1532 C1535 1.539 . S
C1533 C1529 1.408 . S
C1533 C1532 1.404 . S
C1533 H1545 0.930 . S
C1534 C1530 1.524 1_455 S
C1534 H1546 0.956 . S
C1534 H1547 0.961 1_455 S
C1534 H1548 0.961 . S
C1535 C1532 1.539 . S
C1535 H1549 0.958 . S
C1535 H1550 0.961 . S
C1535 H1551 0.960 . S
H1536 C1520 0.931 . S
H1537 C1525 0.929 . S
H1538 C1526 0.960 . S
H1539 C1526 0.962 . S
H1540 C1526 0.960 . S
H1541 C1527 0.961 . S
H1542 C1527 0.961 . S
H1543 C1527 0.961 . S
H1544 C1528 0.931 1_455 S
H1545 C1533 0.930 . S
H1546 C1534 0.956 . S
H1547 C1534 0.961 1_655 S
H1548 C1534 0.961 . S
H1549 C1535 0.958 . S
H1550 C1535 0.961 . S
H1551 C1535 0.960 . S
C1552 C1553 1.391 . S
C1552 C1554 1.394 . S
C1552 H1568 0.931 . S
C1553 C1552 1.391 . S
C1553 C1557 1.376 1_545 S
C1554 C1552 1.394 . S
C1554 C1555 1.369 . S
C1554 C1558 1.531 . S
C1555 C1554 1.369 . S
C1555 C1556 1.410 1_545 S
C1555 C1563 1.503 1_556 S
C1556 C1555 1.410 1_565 S
C1556 C1557 1.392 . S
C1556 C1559 1.511 1_556 S
C1557 C1553 1.376 1_565 S
C1557 C1556 1.392 . S
C1557 H1569 0.929 . S
C1558 C1554 1.531 . S
C1558 H1570 0.960 . S
C1558 H1571 0.962 . S
C1558 H1572 0.960 . S
C1559 C1556 1.511 1_554 S
C1559 H1573 0.961 . S
C1559 H1574 0.961 . S
C1559 H1575 0.961 . S
C1560 C1561 1.370 1_565 S
C1560 C1562 1.363 . S
C1560 H1576 0.931 . S
C1561 C1560 1.370 1_545 S
C1561 C1565 1.408 . S
C1562 C1560 1.363 . S
C1562 C1563 1.370 1_565 S
C1562 C1566 1.524 1_554 S
C1563 C1555 1.503 1_554 S
C1563 C1562 1.370 1_545 S
C1563 C1564 1.403 . S
C1564 C1563 1.403 . S
C1564 C1565 1.404 . S
C1564 C1567 1.539 . S
C1565 C1561 1.408 . S
C1565 C1564 1.404 . S
C1565 H1577 0.930 . S
C1566 C1562 1.524 1_556 S
C1566 H1578 0.956 . S
C1566 H1579 0.961 . S
C1566 H1580 0.961 . S
C1567 C1564 1.539 . S
C1567 H1581 0.958 . S
C1567 H1582 0.961 . S
C1567 H1583 0.960 . S
H1568 C1552 0.931 . S
H1569 C1557 0.929 . S
H1570 C1558 0.960 . S
H1571 C1558 0.962 . S
H1572 C1558 0.960 . S
H1573 C1559 0.961 . S
H1574 C1559 0.961 . S
H1575 C1559 0.961 . S
H1576 C1560 0.931 . S
H1577 C1565 0.930 . S
H1578 C1566 0.956 . S
H1579 C1566 0.961 . S
H1580 C1566 0.961 . S
H1581 C1567 0.958 . S
H1582 C1567 0.961 . S
H1583 C1567 0.960 . S
C1584 C1585 1.391 . S
C1584 C1586 1.394 . S
C1584 H1600 0.931 . S
C1585 C1584 1.391 . S
C1585 C1589 1.376 . S
C1586 C1584 1.394 . S
C1586 C1587 1.369 . S
C1586 C1590 1.534 . S
C1587 C1586 1.369 . S
C1587 C1588 1.410 . S
C1587 C1595 1.503 1_554 S
C1588 C1587 1.410 . S
C1588 C1589 1.392 . S
C1588 C1591 1.511 . S
C1589 C1585 1.376 . S
C1589 C1588 1.392 . S
C1589 H1601 0.929 . S
C1590 C1586 1.534 . S
C1590 H1602 0.952 1_554 S
C1590 H1603 0.966 . S
C1590 H1604 0.960 . S
C1591 C1588 1.511 . S
C1591 H1605 0.961 . S
C1591 H1606 0.961 1_554 S
C1591 H1607 0.961 1_554 S
C1592 C1593 1.370 . S
C1592 C1594 1.363 . S
C1592 H1608 0.931 . S
C1593 C1592 1.370 . S
C1593 C1597 1.408 . S
C1594 C1592 1.363 . S
C1594 C1595 1.370 . S
C1594 C1598 1.524 1_556 S
C1595 C1587 1.503 1_556 S
C1595 C1594 1.370 . S
C1595 C1596 1.403 . S
C1596 C1595 1.403 . S
C1596 C1597 1.404 . S
C1596 C1599 1.539 . S
C1597 C1593 1.408 . S
C1597 C1596 1.404 . S
C1597 H1609 0.930 . S
C1598 C1594 1.524 1_554 S
C1598 H1610 0.956 . S
C1598 H1611 0.961 . S
C1598 H1612 0.961 . S
C1599 C1596 1.539 . S
C1599 H1613 0.958 . S
C1599 H1614 0.961 . S
C1599 H1615 0.960 . S
H1600 C1584 0.931 . S
H1601 C1589 0.929 . S
H1602 C1590 0.952 1_556 S
H1603 C1590 0.966 . S
H1604 C1590 0.960 . S
H1605 C1591 0.961 . S
H1606 C1591 0.961 1_556 S
H1607 C1591 0.961 1_556 S
H1608 C1592 0.931 . S
H1609 C1597 0.930 . S
H1610 C1598 0.956 . S
H1611 C1598 0.961 . S
H1612 C1598 0.961 . S
H1613 C1599 0.958 . S
H1614 C1599 0.961 . S
H1615 C1599 0.960 . S
C1616 C1617 1.391 1_545 S
C1616 C1618 1.394 . S
C1616 H1632 0.931 . S
C1617 C1616 1.391 1_565 S
C1617 C1621 1.376 . S
C1618 C1616 1.394 . S
C1618 C1619 1.369 1_545 S
C1618 C1622 1.531 . S
C1619 C1618 1.369 1_565 S
C1619 C1620 1.410 . S
C1619 C1627 1.503 . S
C1620 C1619 1.410 . S
C1620 C1621 1.392 . S
C1620 C1623 1.511 . S
C1621 C1617 1.376 . S
C1621 C1620 1.392 . S
C1621 H1633 0.929 . S
C1622 C1618 1.531 . S
C1622 H1634 0.960 . S
C1622 H1635 0.962 . S
C1622 H1636 0.960 . S
C1623 C1620 1.511 . S
C1623 H1637 0.961 . S
C1623 H1638 0.961 . S
C1623 H1639 0.961 . S
C1624 C1625 1.370 . S
C1624 C1626 1.363 . S
C1624 H1640 0.931 . S
C1625 C1624 1.370 . S
C1625 C1629 1.408 1_565 S
C1626 C1624 1.363 . S
C1626 C1627 1.370 . S
C1626 C1630 1.524 . S
C1627 C1619 1.503 . S
C1627 C1626 1.370 . S
C1627 C1628 1.403 1_565 S
C1628 C1627 1.403 1_545 S
C1628 C1629 1.404 . S
C1628 C1631 1.539 . S
C1629 C1625 1.408 1_545 S
C1629 C1628 1.404 . S
C1629 H1641 0.930 . S
C1630 C1626 1.524 . S
C1630 H1642 0.956 . S
C1630 H1643 0.961 . S
C1630 H1644 0.961 . S
C1631 C1628 1.539 . S
C1631 H1645 0.958 . S
C1631 H1646 0.961 . S
C1631 H1647 0.960 . S
H1632 C1616 0.931 . S
H1633 C1621 0.929 . S
H1634 C1622 0.960 . S
H1635 C1622 0.962 . S
H1636 C1622 0.960 . S
H1637 C1623 0.961 . S
H1638 C1623 0.961 . S
H1639 C1623 0.961 . S
H1640 C1624 0.931 . S
H1641 C1629 0.930 . S
H1642 C1630 0.956 . S
H1643 C1630 0.961 . S
H1644 C1630 0.961 . S
H1645 C1631 0.958 . S
H1646 C1631 0.961 . S
H1647 C1631 0.960 . S
C1648 C1649 1.391 . S
C1648 C1650 1.394 . S
C1648 H1664 0.931 . S
C1649 C1648 1.391 . S
C1649 C1653 1.376 . S
C1650 C1648 1.394 . S
C1650 C1651 1.369 . S
C1650 C1654 1.531 . S
C1651 C1650 1.369 . S
C1651 C1652 1.410 . S
C1651 C1659 1.503 . S
C1652 C1651 1.410 . S
C1652 C1653 1.392 . S
C1652 C1655 1.511 . S
C1653 C1649 1.376 . S
C1653 C1652 1.392 . S
C1653 H1665 0.929 . S
C1654 C1650 1.531 . S
C1654 H1666 0.960 . S
C1654 H1667 0.962 . S
C1654 H1668 0.960 . S
C1655 C1652 1.511 . S
C1655 H1669 0.961 . S
C1655 H1670 0.961 . S
C1655 H1671 0.961 . S
C1656 C1657 1.370 . S
C1656 C1658 1.363 . S
C1656 H1672 0.931 . S
C1657 C1656 1.370 . S
C1657 C1661 1.408 . S
C1658 C1656 1.363 . S
C1658 C1659 1.370 . S
C1658 C1662 1.524 . S
C1659 C1651 1.503 . S
C1659 C1658 1.370 . S
C1659 C1660 1.403 . S
C1660 C1659 1.403 . S
C1660 C1661 1.404 . S
C1660 C1663 1.539 . S
C1661 C1657 1.408 . S
C1661 C1660 1.404 . S
C1661 H1673 0.930 . S
C1662 C1658 1.524 . S
C1662 H1674 0.956 . S
C1662 H1675 0.961 . S
C1662 H1676 0.961 . S
C1663 C1660 1.539 . S
C1663 H1677 0.958 . S
C1663 H1678 0.961 . S
C1663 H1679 0.960 . S
H1664 C1648 0.931 . S
H1665 C1653 0.929 . S
H1666 C1654 0.960 . S
H1667 C1654 0.962 . S
H1668 C1654 0.960 . S
H1669 C1655 0.961 . S
H1670 C1655 0.961 . S
H1671 C1655 0.961 . S
H1672 C1656 0.931 . S
H1673 C1661 0.930 . S
H1674 C1662 0.956 . S
H1675 C1662 0.961 . S
H1676 C1662 0.961 . S
H1677 C1663 0.958 . S
H1678 C1663 0.961 . S
H1679 C1663 0.960 . S
C1680 C1681 1.385 1_556 S
C1680 C1682 1.394 . S
C1680 H1696 0.936 . S
C1681 C1680 1.385 1_554 S
C1681 C1685 1.376 . S
C1682 C1680 1.394 . S
C1682 C1683 1.369 1_556 S
C1682 C1686 1.531 1_455 S
C1683 C1682 1.369 1_554 S
C1683 C1684 1.410 . S
C1683 C1691 1.503 1_455 S
C1684 C1683 1.410 . S
C1684 C1685 1.392 . S
C1684 C1687 1.511 . S
C1685 C1681 1.376 . S
C1685 C1684 1.392 . S
C1685 H1697 0.929 . S
C1686 C1682 1.531 1_655 S
C1686 H1698 0.960 . S
C1686 H1699 0.962 . S
C1686 H1700 0.960 . S
C1687 C1684 1.511 . S
C1687 H1701 0.961 . S
C1687 H1702 0.961 . S
C1687 H1703 0.961 . S
C1688 C1689 1.370 . S
C1688 C1690 1.363 . S
C1688 H1704 0.931 . S
C1689 C1688 1.370 . S
C1689 C1693 1.408 1_554 S
C1690 C1688 1.363 . S
C1690 C1691 1.370 . S
C1690 C1694 1.524 . S
C1691 C1683 1.503 1_655 S
C1691 C1690 1.370 . S
C1691 C1692 1.403 1_554 S
C1692 C1691 1.403 1_556 S
C1692 C1693 1.404 . S
C1692 C1695 1.539 1_655 S
C1693 C1689 1.408 1_556 S
C1693 C1692 1.404 . S
C1693 H1705 0.930 . S
C1694 C1690 1.524 . S
C1694 H1706 0.956 . S
C1694 H1707 0.961 . S
C1694 H1708 0.961 . S
C1695 C1692 1.539 1_455 S
C1695 H1709 0.958 1_455 S
C1695 H1710 0.961 . S
C1695 H1711 0.960 . S
H1696 C1680 0.936 . S
H1697 C1685 0.929 . S
H1698 C1686 0.960 . S
H1699 C1686 0.962 . S
H1700 C1686 0.960 . S
H1701 C1687 0.961 . S
H1702 C1687 0.961 . S
H1703 C1687 0.961 . S
H1704 C1688 0.931 . S
H1705 C1693 0.930 . S
H1706 C1694 0.956 . S
H1707 C1694 0.961 . S
H1708 C1694 0.961 . S
H1709 C1695 0.958 1_655 S
H1710 C1695 0.961 . S
H1711 C1695 0.960 . S
C1712 C1713 1.391 . S
C1712 C1714 1.394 . S
C1712 H1728 0.931 . S
C1713 C1712 1.391 . S
C1713 C1717 1.376 . S
C1714 C1712 1.394 . S
C1714 C1715 1.369 . S
C1714 C1718 1.543 . S
C1715 C1714 1.369 . S
C1715 C1716 1.410 . S
C1715 C1723 1.503 1_455 S
C1716 C1715 1.410 . S
C1716 C1717 1.392 . S
C1716 C1719 1.511 . S
C1717 C1713 1.376 . S
C1717 C1716 1.392 . S
C1717 H1729 0.929 . S
C1718 C1714 1.543 . S
C1718 H1730 0.929 1_455 S
C1718 H1731 0.980 . S
C1718 H1732 0.962 . S
C1719 C1716 1.511 . S
C1719 H1733 0.961 . S
C1719 H1734 0.961 1_455 S
C1719 H1735 0.961 1_455 S
C1720 C1721 1.370 . S
C1720 C1722 1.363 . S
C1720 H1736 0.931 . S
C1721 C1720 1.370 . S
C1721 C1725 1.408 . S
C1722 C1720 1.363 . S
C1722 C1723 1.370 . S
C1722 C1726 1.524 1_655 S
C1723 C1715 1.503 1_655 S
C1723 C1722 1.370 . S
C1723 C1724 1.403 . S
C1724 C1723 1.403 . S
C1724 C1725 1.404 . S
C1724 C1727 1.539 . S
C1725 C1721 1.408 . S
C1725 C1724 1.404 . S
C1725 H1737 0.930 . S
C1726 C1722 1.524 1_455 S
C1726 H1738 0.956 . S
C1726 H1739 0.961 . S
C1726 H1740 0.961 . S
C1727 C1724 1.539 . S
C1727 H1741 0.958 . S
C1727 H1742 0.961 . S
C1727 H1743 0.960 . S
H1728 C1712 0.931 . S
H1729 C1717 0.929 . S
H1730 C1718 0.929 1_655 S
H1731 C1718 0.980 . S
H1732 C1718 0.962 . S
H1733 C1719 0.961 . S
H1734 C1719 0.961 1_655 S
H1735 C1719 0.961 1_655 S
H1736 C1720 0.931 . S
H1737 C1725 0.930 . S
H1738 C1726 0.956 . S
H1739 C1726 0.961 . S
H1740 C1726 0.961 . S
H1741 C1727 0.958 . S
H1742 C1727 0.961 . S
H1743 C1727 0.960 . S
C1744 C1745 1.391 . S
C1744 C1746 1.394 . S
C1744 H1760 0.931 . S
C1745 C1744 1.391 . S
C1745 C1749 1.376 . S
C1746 C1744 1.394 . S
C1746 C1747 1.369 . S
C1746 C1750 1.531 . S
C1747 C1746 1.369 . S
C1747 C1748 1.410 . S
C1747 C1755 1.503 . S
C1748 C1747 1.410 . S
C1748 C1749 1.392 . S
C1748 C1751 1.511 . S
C1749 C1745 1.376 . S
C1749 C1748 1.392 . S
C1749 H1761 0.929 . S
C1750 C1746 1.531 . S
C1750 H1762 0.960 . S
C1750 H1763 0.962 . S
C1750 H1764 0.960 . S
C1751 C1748 1.511 . S
C1751 H1765 0.961 . S
C1751 H1766 0.961 . S
C1751 H1767 0.961 . S
C1752 C1753 1.370 . S
C1752 C1754 1.363 . S
C1752 H1768 0.931 . S
C1753 C1752 1.370 . S
C1753 C1757 1.408 . S
C1754 C1752 1.363 . S
C1754 C1755 1.370 . S
C1754 C1758 1.524 . S
C1755 C1747 1.503 . S
C1755 C1754 1.370 . S
C1755 C1756 1.403 . S
C1756 C1755 1.403 . S
C1756 C1757 1.404 . S
C1756 C1759 1.539 . S
C1757 C1753 1.408 . S
C1757 C1756 1.404 . S
C1757 H1769 0.930 . S
C1758 C1754 1.524 . S
C1758 H1770 0.956 . S
C1758 H1771 0.961 . S
C1758 H1772 0.961 . S
C1759 C1756 1.539 . S
C1759 H1773 0.958 . S
C1759 H1774 0.961 . S
C1759 H1775 0.960 . S
H1760 C1744 0.931 . S
H1761 C1749 0.929 . S
H1762 C1750 0.960 . S
H1763 C1750 0.962 . S
H1764 C1750 0.960 . S
H1765 C1751 0.961 . S
H1766 C1751 0.961 . S
H1767 C1751 0.961 . S
H1768 C1752 0.931 . S
H1769 C1757 0.930 . S
H1770 C1758 0.956 . S
H1771 C1758 0.961 . S
H1772 C1758 0.961 . S
H1773 C1759 0.958 . S
H1774 C1759 0.961 . S
H1775 C1759 0.960 . S
C1776 C1777 1.391 . S
C1776 C1778 1.394 . S
C1776 H1792 0.931 . S
C1777 C1776 1.391 . S
C1777 C1781 1.376 . S
C1778 C1776 1.394 . S
C1778 C1779 1.369 . S
C1778 C1782 1.531 . S
C1779 C1778 1.369 . S
C1779 C1780 1.410 . S
C1779 C1787 1.503 . S
C1780 C1779 1.410 . S
C1780 C1781 1.392 . S
C1780 C1783 1.511 . S
C1781 C1777 1.376 . S
C1781 C1780 1.392 . S
C1781 H1793 0.929 . S
C1782 C1778 1.531 . S
C1782 H1794 0.960 . S
C1782 H1795 0.962 . S
C1782 H1796 0.960 . S
C1783 C1780 1.511 . S
C1783 H1797 0.961 . S
C1783 H1798 0.961 . S
C1783 H1799 0.961 . S
C1784 C1785 1.370 . S
C1784 C1786 1.363 . S
C1784 H1800 0.931 . S
C1785 C1784 1.370 . S
C1785 C1789 1.408 . S
C1786 C1784 1.363 . S
C1786 C1787 1.370 . S
C1786 C1790 1.524 . S
C1787 C1779 1.503 . S
C1787 C1786 1.370 . S
C1787 C1788 1.403 . S
C1788 C1787 1.403 . S
C1788 C1789 1.404 . S
C1788 C1791 1.539 . S
C1789 C1785 1.408 . S
C1789 C1788 1.404 . S
C1789 H1801 0.930 . S
C1790 C1786 1.524 . S
C1790 H1802 0.956 . S
C1790 H1803 0.961 . S
C1790 H1804 0.961 . S
C1791 C1788 1.539 . S
C1791 H1805 0.958 . S
C1791 H1806 0.961 . S
C1791 H1807 0.960 . S
H1792 C1776 0.931 . S
H1793 C1781 0.929 . S
H1794 C1782 0.960 . S
H1795 C1782 0.962 . S
H1796 C1782 0.960 . S
H1797 C1783 0.961 . S
H1798 C1783 0.961 . S
H1799 C1783 0.961 . S
H1800 C1784 0.931 . S
H1801 C1789 0.930 . S
H1802 C1790 0.956 . S
H1803 C1790 0.961 . S
H1804 C1790 0.961 . S
H1805 C1791 0.958 . S
H1806 C1791 0.961 . S
H1807 C1791 0.960 . S
C1808 C1809 1.391 . S
C1808 C1810 1.394 . S
C1808 H1824 0.931 . S
C1809 C1808 1.391 . S
C1809 C1813 1.376 . S
C1810 C1808 1.394 . S
C1810 C1811 1.369 . S
C1810 C1814 1.531 . S
C1811 C1810 1.369 . S
C1811 C1812 1.410 . S
C1811 C1819 1.503 1_565 S
C1812 C1811 1.410 . S
C1812 C1813 1.392 . S
C1812 C1815 1.511 1_565 S
C1813 C1809 1.376 . S
C1813 C1812 1.392 . S
C1813 H1825 0.929 . S
C1814 C1810 1.531 . S
C1814 H1826 0.960 . S
C1814 H1827 0.962 . S
C1814 H1828 0.960 . S
C1815 C1812 1.511 1_545 S
C1815 H1829 0.961 . S
C1815 H1830 0.961 . S
C1815 H1831 0.961 . S
C1816 C1817 1.370 . S
C1816 C1818 1.363 . S
C1816 H1832 0.931 . S
C1817 C1816 1.370 . S
C1817 C1821 1.408 . S
C1818 C1816 1.363 . S
C1818 C1819 1.370 . S
C1818 C1822 1.524 . S
C1819 C1811 1.503 1_545 S
C1819 C1818 1.370 . S
C1819 C1820 1.403 . S
C1820 C1819 1.403 . S
C1820 C1821 1.404 . S
C1820 C1823 1.539 1_545 S
C1821 C1817 1.408 . S
C1821 C1820 1.404 . S
C1821 H1833 0.930 . S
C1822 C1818 1.524 . S
C1822 H1834 0.956 . S
C1822 H1835 0.961 . S
C1822 H1836 0.961 . S
C1823 C1820 1.539 1_565 S
C1823 H1837 0.958 . S
C1823 H1838 0.961 . S
C1823 H1839 0.960 . S
H1824 C1808 0.931 . S
H1825 C1813 0.929 . S
H1826 C1814 0.960 . S
H1827 C1814 0.962 . S
H1828 C1814 0.960 . S
H1829 C1815 0.961 . S
H1830 C1815 0.961 . S
H1831 C1815 0.961 . S
H1832 C1816 0.931 . S
H1833 C1821 0.930 . S
H1834 C1822 0.956 . S
H1835 C1822 0.961 . S
H1836 C1822 0.961 . S
H1837 C1823 0.958 . S
H1838 C1823 0.961 . S
H1839 C1823 0.960 . S
C1840 C1841 1.391 . S
C1840 C1842 1.394 . S
C1840 H1856 0.931 . S
C1841 C1840 1.391 . S
C1841 C1845 1.376 1_556 S
C1842 C1840 1.394 . S
C1842 C1843 1.369 . S
C1842 C1846 1.531 . S
C1843 C1842 1.369 . S
C1843 C1844 1.410 1_556 S
C1843 C1851 1.503 . S
C1844 C1843 1.410 1_554 S
C1844 C1845 1.392 . S
C1844 C1847 1.511 . S
C1845 C1841 1.376 1_554 S
C1845 C1844 1.392 . S
C1845 H1857 0.929 . S
C1846 C1842 1.531 . S
C1846 H1858 0.960 . S
C1846 H1859 0.962 . S
C1846 H1860 0.960 . S
C1847 C1844 1.511 . S
C1847 H1861 0.961 . S
C1847 H1862 0.961 . S
C1847 H1863 0.961 . S
C1848 C1849 1.370 . S
C1848 C1850 1.363 . S
C1848 H1864 0.931 1_556 S
C1849 C1848 1.370 . S
C1849 C1853 1.408 . S
C1850 C1848 1.363 . S
C1850 C1851 1.370 . S
C1850 C1854 1.524 1_556 S
C1851 C1843 1.503 . S
C1851 C1850 1.370 . S
C1851 C1852 1.403 . S
C1852 C1851 1.403 . S
C1852 C1853 1.404 . S
C1852 C1855 1.539 . S
C1853 C1849 1.408 . S
C1853 C1852 1.404 . S
C1853 H1865 0.930 . S
C1854 C1850 1.524 1_554 S
C1854 H1866 0.956 1_554 S
C1854 H1867 0.961 . S
C1854 H1868 0.961 . S
C1855 C1852 1.539 . S
C1855 H1869 0.958 . S
C1855 H1870 0.961 . S
C1855 H1871 0.960 . S
H1856 C1840 0.931 . S
H1857 C1845 0.929 . S
H1858 C1846 0.960 . S
H1859 C1846 0.962 . S
H1860 C1846 0.960 . S
H1861 C1847 0.961 . S
H1862 C1847 0.961 . S
H1863 C1847 0.961 . S
H1864 C1848 0.931 1_554 S
H1865 C1853 0.930 . S
H1866 C1854 0.956 1_556 S
H1867 C1854 0.961 . S
H1868 C1854 0.961 . S
H1869 C1855 0.958 . S
H1870 C1855 0.961 . S
H1871 C1855 0.960 . S
C337 C242 0.517 . S
C345 C12 0.555 . S
C369 C26 0.685 . S
C377 C228 0.653 . S
C401 C40 0.602 . S
C409 C270 0.675 . S
C433 C54 0.772 . S
C441 C256 0.714 . S
C465 C68 0.585 . S
C473 C306 0.551 . S
C497 C82 0.654 . S
C505 C320 0.680 . S
C529 C292 0.588 . S
C537 C96 0.585 . S
C561 C166 0.686 . S
C569 C110 0.657 . S
C593 C116 0.663 . S
C601 C46 0.669 . S
C625 C18 0.759 . S
C633 C130 0.741 . S
C657 C144 0.912 . S
C665 C4 0.877 . S
C689 C158 0.804 . S
C697 C200 0.759 . S
C721 C74 0.856 . S
C729 C180 0.801 . S
C753 C60 0.647 . S
C761 C194 0.697 . S
C785 C208 0.651 . S
C793 C102 0.718 . S
C817 C222 0.572 . S
C825 C88 0.628 . S
C849 C138 0.671 . S
C857 C236 0.770 . S
C881 C152 0.752 . S
C889 C250 0.685 . S
C913 C124 0.717 . S
C921 C264 0.687 . S
C945 C278 0.571 . S
C953 C334 0.636 . S
C977 C214 0.783 . S
C985 C284 0.841 . S
C1009 C298 0.878 . S
C1017 C186 0.833 . S
C1041 C172 0.640 . S
C1049 C312 0.652 . S
C1073 C326 0.855 . S
C1081 C32 0.822 . S
C1105 C11 1.512 . S
C1113 C25 1.524 . S
C1137 C53 1.454 . S
C1145 C39 1.496 . S
C1169 C67 1.461 . S
C1177 C95 1.470 . S
C1201 C81 1.703 . S
C1209 C109 1.681 . S
C1233 C313 1.400 . S
C1241 C117 1.405 . S
C1265 C131 1.542 . S
C1273 C159 1.590 . S
C1297 C285 1.512 . S
C1305 C145 1.497 . S
C1329 C193 1.636 . S
C1337 C179 1.592 . S
C1361 C207 1.638 . S
C1369 C221 1.637 . S
C1393 C263 1.671 . S
C1401 C235 1.680 . S
C1425 C249 1.416 . S
C1433 C277 1.443 . S
C1457 C327 1.306 . S
C1465 C299 1.379 . S
C1489 C33 1.244 . S
C1497 C5 1.192 . S
C1521 C19 1.244 . S
C1529 C47 1.302 . S
C1553 C271 1.195 . S
C1561 C61 1.178 . S
C1585 C75 1.278 . S
C1593 C257 1.258 . S
C1617 C89 1.302 . S
C1625 C243 1.302 . S
C1649 C229 1.374 . S
C1657 C103 1.333 . S
C1681 C123 1.357 . S
C1689 C333 1.328 . S
C1713 C137 1.342 . S
C1721 C151 1.395 . S
C1745 C291 1.442 . S
C1753 C165 1.461 . S
C1777 C173 1.370 . S
C1785 C201 1.322 . S
C1809 C187 1.167 . S
C1817 C215 1.202 . S
C1841 C319 1.377 . S
C1849 C305 1.422 . S
