# Generated by pormake.
# Topology etd, (3)-cn, num edge types: 1
# Building blocks:
#     Node 0, Type 0, BuildingBlock: OLANEW_clean_sbu_2, # of connection points: 3
#     Node 1, Type 0, BuildingBlock: OLANEW_clean_sbu_2, # of connection points: 3
#     Node 2, Type 0, BuildingBlock: OLANEW_clean_sbu_2, # of connection points: 3
#     Node 3, Type 0, BuildingBlock: OLANEW_clean_sbu_2, # of connection points: 3
#     Node 4, Type 0, BuildingBlock: OLANEW_clean_sbu_2, # of connection points: 3
#     Node 5, Type 0, BuildingBlock: OLANEW_clean_sbu_2, # of connection points: 3
#     Node 6, Type 0, BuildingBlock: OLANEW_clean_sbu_2, # of connection points: 3
#     Node 7, Type 0, BuildingBlock: OLANEW_clean_sbu_2, # of connection points: 3
#     Node 8, Type 0, BuildingBlock: OLANEW_clean_sbu_2, # of connection points: 3
#     Node 9, Type 0, BuildingBlock: OLANEW_clean_sbu_2, # of connection points: 3
#     Node 10, Type 0, BuildingBlock: OLANEW_clean_sbu_2, # of connection points: 3
#     Node 11, Type 0, BuildingBlock: OLANEW_clean_sbu_2, # of connection points: 3
#     Edge 12, Type (0, 0), BuildingBlock: KIFKEQ_clean_linker_1, # of connection points: 2
#     Edge 13, Type (0, 0), BuildingBlock: KIFKEQ_clean_linker_1, # of connection points: 2
#     Edge 14, Type (0, 0), BuildingBlock: KIFKEQ_clean_linker_1, # of connection points: 2
#     Edge 15, Type (0, 0), BuildingBlock: KIFKEQ_clean_linker_1, # of connection points: 2
#     Edge 16, Type (0, 0), BuildingBlock: KIFKEQ_clean_linker_1, # of connection points: 2
#     Edge 17, Type (0, 0), BuildingBlock: KIFKEQ_clean_linker_1, # of connection points: 2
#     Edge 18, Type (0, 0), BuildingBlock: KIFKEQ_clean_linker_1, # of connection points: 2
#     Edge 19, Type (0, 0), BuildingBlock: KIFKEQ_clean_linker_1, # of connection points: 2
#     Edge 20, Type (0, 0), BuildingBlock: KIFKEQ_clean_linker_1, # of connection points: 2
#     Edge 21, Type (0, 0), BuildingBlock: KIFKEQ_clean_linker_1, # of connection points: 2
#     Edge 22, Type (0, 0), BuildingBlock: KIFKEQ_clean_linker_1, # of connection points: 2
#     Edge 23, Type (0, 0), BuildingBlock: KIFKEQ_clean_linker_1, # of connection points: 2
#     Edge 24, Type (0, 0), BuildingBlock: KIFKEQ_clean_linker_1, # of connection points: 2
#     Edge 25, Type (0, 0), BuildingBlock: KIFKEQ_clean_linker_1, # of connection points: 2
#     Edge 26, Type (0, 0), BuildingBlock: KIFKEQ_clean_linker_1, # of connection points: 2
#     Edge 27, Type (0, 0), BuildingBlock: KIFKEQ_clean_linker_1, # of connection points: 2
#     Edge 28, Type (0, 0), BuildingBlock: KIFKEQ_clean_linker_1, # of connection points: 2
#     Edge 29, Type (0, 0), BuildingBlock: KIFKEQ_clean_linker_1, # of connection points: 2
# Relax obj value: 0.002
# Max RMSD: 0.050
# Mean RMSD: 0.050
data_MOF--net-etd--node1-OLANEW_clean_sbu_2--edge1-KIFKEQ_clean_linker_1
_symmetry_space_group_name_H-M    P1
_symmetry_Int_Tables_number       1
_symmetry_cell_setting            triclinic
loop_
_symmetry_equiv_pos_as_xyz
'x, y, z'
_cell_length_a     62.608612
_cell_length_b     62.616077
_cell_length_c     45.85886
_cell_angle_alpha  89.942513
_cell_angle_beta   90.105877
_cell_angle_gamma 120.03886
loop_
_atom_site_label
_atom_site_type_symbol
_atom_site_fract_x
_atom_site_fract_y
_atom_site_fract_z
_atom_type_partial_charge
O0 O 0.60572 0.10197 0.13695 0.0
Cd1 Cd 0.62179 0.10463 0.08764 0.0
O2 O 0.59771 0.1306 0.12308 0.0
Cd3 Cd 0.58732 0.15917 0.1252 0.0
O4 O 0.5788 0.1883 0.11548 0.0
C5 C 0.58899 0.20856 0.12942 0.0
O6 O 0.60446 0.21173 0.15061 0.0
C7 C 0.5975 0.11634 0.14301 0.0
C8 C 0.59764 0.06099 0.05549 0.0
O9 O 0.61661 0.06603 0.07108 0.0
O10 O 0.58983 0.07641 0.0555 0.0
O11 O 0.49236 0.62769 0.33396 0.0
Cd12 Cd 0.5097 0.64474 0.28615 0.0
O13 O 0.45507 0.6137 0.31692 0.0
Cd14 Cd 0.41488 0.59727 0.31442 0.0
O15 O 0.37823 0.58701 0.29753 0.0
C16 C 0.37727 0.6011 0.27824 0.0
O17 O 0.39789 0.62074 0.27017 0.0
C18 C 0.46919 0.61609 0.33821 0.0
C19 C 0.50988 0.60892 0.25029 0.0
O20 O 0.52778 0.62164 0.26784 0.0
O21 O 0.49193 0.61326 0.24955 0.0
O22 O 0.88 0.48272 0.45353 0.0
Cd23 Cd 0.87793 0.49282 0.40241 0.0
O24 O 0.86043 0.44463 0.43789 0.0
Cd25 Cd 0.83869 0.40451 0.44198 0.0
O26 O 0.80791 0.36736 0.4339 0.0
C27 C 0.78958 0.35793 0.45115 0.0
O28 O 0.79016 0.37028 0.47457 0.0
C29 C 0.87004 0.45979 0.45887 0.0
C30 C 0.92337 0.516 0.37398 0.0
O31 O 0.91406 0.52858 0.38426 0.0
O32 O 0.91138 0.49255 0.37748 0.0
O33 O 0.3742 0.87366 0.64803 0.0
Cd34 Cd 0.35603 0.87324 0.60058 0.0
O35 O 0.39119 0.85445 0.62705 0.0
Cd36 Cd 0.40974 0.83274 0.62664 0.0
O37 O 0.41702 0.80261 0.61853 0.0
C38 C 0.41695 0.78905 0.63921 0.0
O39 O 0.4135 0.79404 0.66604 0.0
C40 C 0.38744 0.8636 0.64987 0.0
C41 C 0.38442 0.91496 0.56641 0.0
O42 O 0.3679 0.91393 0.58376 0.0
O43 O 0.38778 0.89639 0.56554 0.0
O44 O 0.56736 0.43964 0.81963 0.0
Cd45 Cd 0.58207 0.44919 0.76927 0.0
O46 O 0.60393 0.44903 0.83667 0.0
Cd47 Cd 0.62199 0.4547 0.79438 0.0
O48 O 0.64896 0.45514 0.76383 0.0
C49 C 0.67144 0.46677 0.77174 0.0
O50 O 0.67714 0.4787 0.79669 0.0
C51 C 0.58138 0.44232 0.84111 0.0
C52 C 0.55107 0.45892 0.73481 0.0
O53 O 0.54865 0.43735 0.73543 0.0
O54 O 0.56815 0.47586 0.75039 0.0
O55 O 0.118 0.51699 0.96002 0.0
Cd56 Cd 0.11839 0.50453 0.90947 0.0
O57 O 0.13547 0.55496 0.94394 0.0
Cd58 Cd 0.15645 0.59511 0.94831 0.0
O59 O 0.18706 0.63253 0.94118 0.0
C60 C 0.2058 0.64099 0.95781 0.0
O61 O 0.2056 0.62748 0.97987 0.0
C62 C 0.12746 0.5399 0.96517 0.0
C63 C 0.07327 0.48259 0.87998 0.0
O64 O 0.08011 0.46957 0.8946 0.0
O65 O 0.0875 0.50607 0.87993 0.0
O66 O 0.87981 0.3892 0.67007 0.0
Cd67 Cd 0.87785 0.37427 0.71996 0.0
O68 O 0.86441 0.41145 0.68659 0.0
Cd69 Cd 0.84671 0.43379 0.68182 0.0
O70 O 0.82103 0.4475 0.68748 0.0
C71 C 0.79809 0.43207 0.68542 0.0
O72 O 0.79104 0.40905 0.67882 0.0
C73 C 0.87208 0.40417 0.66529 0.0
C74 C 0.92126 0.39997 0.75244 0.0
O75 O 0.91706 0.38122 0.73695 0.0
O76 O 0.90513 0.40688 0.75211 0.0
O77 O 0.4829 0.86815 0.84733 0.0
Cd78 Cd 0.49994 0.86607 0.89465 0.0
O79 O 0.44696 0.85244 0.86879 0.0
Cd80 Cd 0.40669 0.83418 0.87042 0.0
O81 O 0.36928 0.8061 0.88284 0.0
C82 C 0.36742 0.78712 0.89535 0.0
O83 O 0.38753 0.78583 0.89946 0.0
C84 C 0.45988 0.86027 0.84576 0.0
C85 C 0.52011 0.90956 0.92717 0.0
O86 O 0.53346 0.90524 0.90969 0.0
O87 O 0.4971 0.89348 0.9289 0.0
O88 O 0.51316 0.43195 0.05869 0.0
Cd89 Cd 0.50166 0.42707 0.11018 0.0
O90 O 0.52055 0.40186 0.06648 0.0
Cd91 Cd 0.5298 0.37294 0.05857 0.0
O92 O 0.53721 0.34259 0.0644 0.0
C93 C 0.55831 0.34709 0.07325 0.0
O94 O 0.57557 0.37012 0.07762 0.0
C95 C 0.52033 0.41757 0.04903 0.0
C96 C 0.50437 0.46887 0.13531 0.0
O97 O 0.52347 0.4664 0.13377 0.0
O98 O 0.48407 0.45171 0.12459 0.0
O99 O 0.12648 0.60776 0.18026 0.0
Cd100 Cd 0.12853 0.61852 0.2319 0.0
O101 O 0.14608 0.58896 0.19469 0.0
Cd102 Cd 0.16795 0.57071 0.1908 0.0
O103 O 0.19876 0.56589 0.20453 0.0
C104 C 0.21816 0.5742 0.18912 0.0
O105 O 0.21886 0.58436 0.16379 0.0
C106 C 0.1365 0.595 0.17413 0.0
C107 C 0.08305 0.59616 0.26028 0.0
O108 O 0.09275 0.61836 0.25086 0.0
O109 O 0.09465 0.58442 0.25593 0.0
O110 O 0.51592 0.1026 0.35432 0.0
Cd111 Cd 0.50346 0.1067 0.40364 0.0
O112 O 0.5526 0.13161 0.36758 0.0
Cd113 Cd 0.59143 0.16055 0.36495 0.0
O114 O 0.62801 0.19152 0.37523 0.0
C115 C 0.62898 0.20899 0.39035 0.0
O116 O 0.60823 0.20775 0.39831 0.0
C117 C 0.53845 0.11698 0.34794 0.0
C118 C 0.478 0.06286 0.43519 0.0
O119 O 0.46645 0.07075 0.41944 0.0
O120 O 0.50164 0.07544 0.43552 0.0
O121 O 0.4109 0.51967 0.54242 0.0
Cd122 Cd 0.39966 0.50274 0.59176 0.0
O123 O 0.41362 0.55312 0.56081 0.0
Cd124 Cd 0.41802 0.5901 0.56237 0.0
O125 O 0.42229 0.62633 0.57124 0.0
C126 C 0.4109 0.62855 0.59289 0.0
O127 O 0.3969 0.60901 0.60884 0.0
C128 C 0.41529 0.54163 0.53883 0.0
C129 C 0.43427 0.49347 0.6186 0.0
O130 O 0.41556 0.47629 0.60521 0.0
O131 O 0.43678 0.51508 0.61894 0.0
H132 H 0.5635 0.12926 0.16042 0.0
H133 H 0.61106 0.10321 0.19325 0.0
H134 H 0.55015 0.13052 0.20994 0.0
H135 H 0.59682 0.10327 0.24266 0.0
H136 H 0.58537 0.13019 0.33031 0.0
H137 H 0.5998 0.13119 0.28077 0.0
H138 H 0.52555 0.10278 0.24848 0.0
H139 H 0.5114 0.10297 0.29792 0.0
C140 C 0.57141 0.12418 0.17821 0.0
C141 C 0.58882 0.11675 0.17293 0.0
C142 C 0.5634 0.12444 0.2066 0.0
C143 C 0.5725 0.11712 0.23035 0.0
C144 C 0.58974 0.10944 0.22498 0.0
C145 C 0.59774 0.1092 0.19661 0.0
C146 C 0.57226 0.12478 0.31261 0.0
C147 C 0.54737 0.11711 0.31801 0.0
C148 C 0.58044 0.1249 0.28421 0.0
C149 C 0.56387 0.11719 0.26057 0.0
C150 C 0.5389 0.10925 0.26607 0.0
C151 C 0.53075 0.10915 0.29446 0.0
H152 H 0.4028 0.51835 0.48624 0.0
H153 H 0.44358 0.5907 0.52505 0.0
H154 H 0.41458 0.53674 0.43784 0.0
H155 H 0.45399 0.60925 0.47684 0.0
H156 H 0.49411 0.63057 0.3895 0.0
H157 H 0.48021 0.61289 0.43761 0.0
H158 H 0.40859 0.56127 0.4021 0.0
H159 H 0.42306 0.57813 0.35354 0.0
C160 C 0.41394 0.53823 0.48443 0.0
C161 C 0.42177 0.5531 0.50953 0.0
C162 C 0.42049 0.5488 0.45666 0.0
C163 C 0.4351 0.57452 0.45334 0.0
C164 C 0.44282 0.58937 0.47852 0.0
C165 C 0.43639 0.57877 0.50625 0.0
C166 C 0.47534 0.61551 0.39191 0.0
C167 C 0.45958 0.60606 0.36763 0.0
C168 C 0.46727 0.60549 0.41963 0.0
C169 C 0.44319 0.58574 0.42388 0.0
C170 C 0.42731 0.5764 0.39962 0.0
C171 C 0.43545 0.58639 0.37179 0.0
H172 H 0.88427 0.45016 0.64666 0.0
H173 H 0.85786 0.37591 0.61641 0.0
H174 H 0.88383 0.46349 0.5969 0.0
H175 H 0.85552 0.38851 0.56683 0.0
H176 H 0.87645 0.42192 0.47662 0.0
H177 H 0.87717 0.4087 0.52632 0.0
H178 H 0.86103 0.4641 0.55849 0.0
H179 H 0.86221 0.47828 0.50875 0.0
C180 C 0.87792 0.43662 0.6293 0.0
C181 C 0.87105 0.41205 0.63527 0.0
C182 C 0.87748 0.44417 0.6007 0.0
C183 C 0.86955 0.42714 0.57745 0.0
C184 C 0.86231 0.40239 0.58378 0.0
C185 C 0.86342 0.39504 0.61227 0.0
C186 C 0.87294 0.43112 0.49441 0.0
C187 C 0.86919 0.45103 0.48894 0.0
C188 C 0.87321 0.42348 0.52301 0.0
C189 C 0.8691 0.4352 0.54682 0.0
C190 C 0.86487 0.4549 0.54104 0.0
C191 C 0.8653 0.46294 0.51247 0.0
H192 H 0.433 0.87012 0.66133 0.0
H193 H 0.36452 0.85351 0.70244 0.0
H194 H 0.45025 0.86918 0.70858 0.0
H195 H 0.38083 0.85068 0.7496 0.0
H196 H 0.42393 0.87147 0.83428 0.0
H197 H 0.40653 0.87219 0.78704 0.0
H198 H 0.45176 0.84632 0.74625 0.0
H199 H 0.47031 0.84754 0.79335 0.0
C200 C 0.42149 0.86575 0.68053 0.0
C201 C 0.39746 0.86183 0.67833 0.0
C202 C 0.43129 0.86505 0.70771 0.0
C203 C 0.41704 0.85979 0.7333 0.0
C204 C 0.39271 0.85539 0.73075 0.0
C205 C 0.3832 0.85677 0.70365 0.0
C206 C 0.42999 0.86586 0.81513 0.0
C207 C 0.44838 0.85942 0.81737 0.0
C208 C 0.41993 0.86611 0.78796 0.0
C209 C 0.42759 0.85928 0.76244 0.0
C210 C 0.44571 0.85231 0.76504 0.0
C211 C 0.45624 0.85275 0.79211 0.0
H212 H 0.50643 0.43557 0.00327 0.0
H213 H 0.5527 0.40494 0.02528 0.0
H214 H 0.52056 0.44076 0.9529 0.0
H215 H 0.56587 0.40892 0.9747 0.0
H216 H 0.60697 0.44833 0.89163 0.0
H217 H 0.59146 0.44133 0.94131 0.0
H218 H 0.5182 0.41823 0.90896 0.0
H219 H 0.53386 0.42583 0.85909 0.0
C220 C 0.51934 0.42959 0.99726 0.0
C221 C 0.52806 0.41937 0.0182 0.0
C222 C 0.52728 0.43238 0.96833 0.0
C223 C 0.54426 0.42514 0.95968 0.0
C224 C 0.55287 0.4148 0.98063 0.0
C225 C 0.54494 0.41205 0.00958 0.0
C226 C 0.58753 0.44173 0.89504 0.0
C227 C 0.57167 0.43768 0.87132 0.0
C228 C 0.5786 0.43754 0.92358 0.0
C229 C 0.55355 0.42912 0.92917 0.0
C230 C 0.53765 0.42498 0.90545 0.0
C231 C 0.5466 0.42923 0.87685 0.0
H232 H 0.11913 0.57574 0.98607 0.0
H233 H 0.14175 0.52393 0.01234 0.0
H234 H 0.12171 0.58908 0.0364 0.0
H235 H 0.14654 0.53851 0.06236 0.0
H236 H 0.12942 0.55095 0.15454 0.0
H237 H 0.12737 0.53784 0.10423 0.0
H238 H 0.14494 0.61065 0.07496 0.0
H239 H 0.14477 0.6227 0.12533 0.0
C240 C 0.12513 0.56758 0.00268 0.0
C241 C 0.13018 0.54881 0.99545 0.0
C242 C 0.12685 0.57533 0.03162 0.0
C243 C 0.1344 0.56501 0.05394 0.0
C244 C 0.14002 0.54656 0.04627 0.0
C245 C 0.13752 0.5383 0.01748 0.0
C246 C 0.13293 0.56408 0.13723 0.0
C247 C 0.13724 0.58778 0.14371 0.0
C248 C 0.13194 0.55668 0.10825 0.0
C249 C 0.13597 0.57308 0.08502 0.0
C250 C 0.14103 0.59713 0.09187 0.0
C251 C 0.14123 0.60422 0.12082 0.0
H252 H 0.60635 0.25342 0.1558 0.0
H253 H 0.5607 0.20915 0.08423 0.0
H254 H 0.59883 0.28663 0.14176 0.0
H255 H 0.5537 0.24259 0.06976 0.0
H256 H 0.52549 0.29747 0.07152 0.0
H257 H 0.53269 0.264 0.08526 0.0
H258 H 0.609 0.31694 0.10383 0.0
H259 H 0.60165 0.35045 0.0908 0.0
C260 C 0.59477 0.25079 0.13702 0.0
C261 C 0.58412 0.22861 0.12117 0.0
C262 C 0.5906 0.26991 0.12884 0.0
C263 C 0.57573 0.26734 0.10455 0.0
C264 C 0.565 0.2451 0.08878 0.0
C265 C 0.56911 0.22595 0.09701 0.0
C266 C 0.54383 0.30198 0.07843 0.0
C267 C 0.56298 0.32666 0.08013 0.0
C268 C 0.54799 0.28276 0.08619 0.0
C269 C 0.57141 0.28776 0.09575 0.0
C270 C 0.59063 0.31244 0.09704 0.0
C271 C 0.58646 0.33166 0.08936 0.0
H272 H 0.26215 0.58955 0.1615 0.0
H273 H 0.22491 0.56049 0.24354 0.0
H274 H 0.30004 0.59403 0.18219 0.0
H275 H 0.26298 0.5656 0.26447 0.0
H276 H 0.33149 0.56055 0.2868 0.0
H277 H 0.29259 0.55162 0.26399 0.0
H278 H 0.3305 0.62057 0.21691 0.0
H279 H 0.36929 0.62914 0.23903 0.0
C280 C 0.262 0.58401 0.18391 0.0
C281 C 0.24053 0.57481 0.2009 0.0
C282 C 0.28379 0.58674 0.19586 0.0
C283 C 0.28467 0.58044 0.22512 0.0
C284 C 0.26295 0.57045 0.2418 0.0
C285 C 0.24112 0.56762 0.22982 0.0
C286 C 0.33149 0.57375 0.27153 0.0
C287 C 0.35351 0.59555 0.26474 0.0
C288 C 0.30918 0.56869 0.25853 0.0
C289 C 0.30839 0.58532 0.2385 0.0
C290 C 0.33046 0.6071 0.23179 0.0
C291 C 0.35272 0.61212 0.24469 0.0
H292 H 0.7804 0.3304 0.40151 0.0
H293 H 0.74759 0.33247 0.48352 0.0
H294 H 0.74196 0.29387 0.38726 0.0
H295 H 0.70937 0.29559 0.46957 0.0
H296 H 0.63694 0.25 0.42024 0.0
H297 H 0.67616 0.28482 0.43556 0.0
H298 H 0.71462 0.25057 0.39725 0.0
H299 H 0.67529 0.21591 0.38124 0.0
C300 C 0.76509 0.32288 0.41667 0.0
C301 C 0.76702 0.33447 0.44358 0.0
C302 C 0.74307 0.30185 0.40854 0.0
C303 C 0.72249 0.29188 0.42717 0.0
C304 C 0.7247 0.30305 0.45446 0.0
C305 C 0.74669 0.32411 0.46255 0.0
C306 C 0.65374 0.24986 0.41505 0.0
C307 C 0.65297 0.23017 0.39948 0.0
C308 C 0.67625 0.26977 0.42405 0.0
C309 C 0.69857 0.27045 0.4178 0.0
C310 C 0.69781 0.25076 0.40218 0.0
C311 C 0.67525 0.23084 0.39309 0.0
H312 H 0.44025 0.67314 0.56646 0.0
H313 H 0.387 0.63865 0.63569 0.0
H314 H 0.44394 0.71281 0.5784 0.0
H315 H 0.39022 0.6781 0.64713 0.0
H316 H 0.4175 0.75616 0.6781 0.0
H317 H 0.41788 0.71823 0.66739 0.0
H318 H 0.4201 0.73333 0.57514 0.0
H319 H 0.42034 0.77152 0.58585 0.0
C320 C 0.42928 0.674 0.58417 0.0
C321 C 0.4133 0.65271 0.6001 0.0
C322 C 0.43131 0.69672 0.59093 0.0
C323 C 0.41739 0.69867 0.61374 0.0
C324 C 0.40152 0.67738 0.62974 0.0
C325 C 0.39953 0.65469 0.62303 0.0
C326 C 0.41827 0.75149 0.65554 0.0
C327 C 0.41879 0.76683 0.63284 0.0
C328 C 0.41833 0.72965 0.64939 0.0
C329 C 0.41885 0.72262 0.62039 0.0
C330 C 0.41996 0.73829 0.59773 0.0
C331 C 0.41997 0.76015 0.60388 0.0
H332 H 0.66585 0.44197 0.72048 0.0
H333 H 0.72034 0.48722 0.78483 0.0
H334 H 0.69674 0.43591 0.69532 0.0
H335 H 0.75092 0.48067 0.7602 0.0
H336 H 0.80622 0.47787 0.70059 0.0
H337 H 0.77588 0.48873 0.71721 0.0
H338 H 0.71786 0.41324 0.70481 0.0
H339 H 0.74801 0.40254 0.68753 0.0
C340 C 0.68445 0.45077 0.72914 0.0
C341 C 0.69058 0.46493 0.75479 0.0
C342 C 0.70212 0.44719 0.71482 0.0
C343 C 0.72629 0.45766 0.72583 0.0
C344 C 0.73259 0.47256 0.75088 0.0
C345 C 0.71497 0.47618 0.76515 0.0
C346 C 0.78695 0.46366 0.70108 0.0
C347 C 0.77957 0.43929 0.69296 0.0
C348 C 0.76957 0.46986 0.71075 0.0
C349 C 0.74444 0.45183 0.71257 0.0
C350 C 0.737 0.42767 0.70339 0.0
C351 C 0.75434 0.42149 0.69366 0.0
H352 H 0.21398 0.6713 0.91094 0.0
H353 H 0.24902 0.66381 0.98849 0.0
H354 H 0.25265 0.70764 0.89681 0.0
H355 H 0.28748 0.70041 0.97468 0.0
H356 H 0.35794 0.7441 0.92132 0.0
H357 H 0.31845 0.71039 0.93756 0.0
H358 H 0.28253 0.75037 0.90893 0.0
H359 H 0.32218 0.78409 0.89203 0.0
C360 C 0.22983 0.67759 0.92519 0.0
C361 C 0.22846 0.6645 0.95072 0.0
C362 C 0.25197 0.69851 0.91714 0.0
C363 C 0.27323 0.70681 0.93446 0.0
C364 C 0.27157 0.69424 0.96055 0.0
C365 C 0.24947 0.67333 0.96857 0.0
C366 C 0.34166 0.74578 0.9185 0.0
C367 C 0.34324 0.7668 0.90535 0.0
C368 C 0.31901 0.72649 0.92803 0.0
C369 C 0.29733 0.72773 0.92474 0.0
C370 C 0.29886 0.74876 0.91158 0.0
C371 C 0.32159 0.76811 0.902 0.0
H372 H 0.61236 0.02708 0.04713 0.0
H373 H 0.55563 0.04381 0.02274 0.0
H374 H 0.59326 0.99059 0.01604 0.0
H375 H 0.53666 0.00739 0.99143 0.0
H376 H 0.49628 0.92535 0.96363 0.0
H377 H 0.51461 0.96173 0.99502 0.0
H378 H 0.58703 0.98116 0.96329 0.0
H379 H 0.56878 0.94473 0.93209 0.0
C380 C 0.59579 0.02295 0.03519 0.0
C381 C 0.58553 0.03837 0.03739 0.0
C382 C 0.58494 0.00213 0.01722 0.0
C383 C 0.56352 0.99618 1.00117 0.0
C384 C 0.55305 0.01139 0.0037 0.0
C385 C 0.56398 0.03231 0.02155 0.0
C386 C 0.5161 0.93743 0.96328 0.0
C387 C 0.53107 0.93212 0.94539 0.0
C388 C 0.52659 0.95832 0.98118 0.0
C389 C 0.55227 0.97426 0.98172 0.0
C390 C 0.56721 0.96905 0.96365 0.0
C391 C 0.55672 0.94826 0.94563 0.0
H392 H 0.46593 0.4752 0.15137 0.0
H393 H 0.54552 0.51142 0.1523 0.0
H394 H 0.46773 0.50963 0.17805 0.0
H395 H 0.54742 0.54638 0.17796 0.0
H396 H 0.54077 0.59004 0.25365 0.0
H397 H 0.53961 0.55698 0.22463 0.0
H398 H 0.47815 0.55149 0.17527 0.0
H399 H 0.47873 0.58393 0.20516 0.0
C400 C 0.48384 0.49069 0.15693 0.0
C401 C 0.50557 0.49053 0.14985 0.0
C402 C 0.48489 0.51054 0.1721 0.0
C403 C 0.50773 0.53084 0.18028 0.0
C404 C 0.52949 0.53089 0.17254 0.0
C405 C 0.52842 0.51091 0.15764 0.0
C406 C 0.52705 0.58182 0.23654 0.0
C407 C 0.50978 0.58953 0.23178 0.0
C408 C 0.52648 0.56294 0.21973 0.0
C409 C 0.50878 0.55149 0.19753 0.0
C410 C 0.49177 0.55956 0.19248 0.0
C411 C 0.49218 0.57827 0.2095 0.0
H412 H 0.05026 0.54707 0.26668 0.0
H413 H 0.0627 0.61913 0.29025 0.0
H414 H 0.01154 0.5279 0.29343 0.0
H415 H 0.02485 0.60015 0.3187 0.0
H416 H 0.94455 0.56025 0.34579 0.0
H417 H 0.98241 0.57932 0.31737 0.0
H418 H 0.9941 0.51866 0.33916 0.0
H419 H 0.95535 0.49896 0.36588 0.0
C420 C 0.04477 0.5588 0.27785 0.0
C421 C 0.05943 0.58457 0.27632 0.0
C422 C 0.02264 0.54782 0.29347 0.0
C423 C 0.01491 0.56237 0.30854 0.0
C424 C 0.02977 0.58824 0.307 0.0
C425 C 0.05161 0.59919 0.29081 0.0
C426 C 0.95528 0.55105 0.34447 0.0
C427 C 0.947 0.52811 0.35797 0.0
C428 C 0.97713 0.56206 0.3283 0.0
C429 C 0.99154 0.55063 0.32579 0.0
C430 C 0.98334 0.52783 0.33988 0.0
C431 C 0.9612 0.51658 0.35548 0.0
H432 H 0.49713 0.04015 0.46853 0.0
H433 H 0.42815 0.0348 0.44293 0.0
H434 H 0.4748 0.00433 0.50025 0.0
H435 H 0.40587 0.9989 0.47443 0.0
H436 H 0.37846 0.95503 0.55964 0.0
H437 H 0.40125 0.9903 0.52741 0.0
H438 H 0.44536 0.95929 0.49764 0.0
H439 H 0.4227 0.92403 0.53008 0.0
C440 C 0.4772 0.03124 0.46951 0.0
C441 C 0.46442 0.04037 0.45325 0.0
C442 C 0.46441 0.01067 0.4876 0.0
C443 C 0.43859 0.99887 0.48995 0.0
C444 C 0.4258 0.00781 0.47339 0.0
C445 C 0.43856 0.02828 0.45519 0.0
C446 C 0.39306 0.95574 0.5463 0.0
C447 C 0.39875 0.9367 0.54742 0.0
C448 C 0.40601 0.97588 0.52769 0.0
C449 C 0.42502 0.97752 0.50988 0.0
C450 C 0.43093 0.95864 0.51126 0.0
C451 C 0.41787 0.9384 0.52976 0.0
H452 H 0.54402 0.49843 0.73862 0.0
H453 H 0.52071 0.43109 0.69042 0.0
H454 H 0.51607 0.50654 0.71004 0.0
H455 H 0.49361 0.43972 0.66073 0.0
H456 H 0.4283 0.44867 0.634 0.0
H457 H 0.4566 0.44041 0.66166 0.0
H458 H 0.50933 0.51862 0.66435 0.0
H459 H 0.48042 0.52683 0.63796 0.0
C460 C 0.53311 0.48549 0.72165 0.0
C461 C 0.53452 0.46409 0.71683 0.0
C462 C 0.51717 0.49022 0.70507 0.0
C463 C 0.50252 0.47385 0.6829 0.0
C464 C 0.50421 0.45256 0.67791 0.0
C465 C 0.51989 0.44765 0.69481 0.0
C466 C 0.44598 0.46408 0.64044 0.0
C467 C 0.45209 0.4884 0.63391 0.0
C468 C 0.46232 0.45935 0.65618 0.0
C469 C 0.48534 0.47883 0.66542 0.0
C470 C 0.49161 0.50315 0.65823 0.0
C471 C 0.4751 0.50788 0.64288 0.0
H472 H 0.93566 0.44053 0.78707 0.0
H473 H 0.95758 0.38831 0.75954 0.0
H474 H 0.97181 0.46056 0.81878 0.0
H475 H 0.99384 0.40854 0.7909 0.0
H476 H 0.04068 0.4333 0.8735 0.0
H477 H 0.00384 0.41376 0.84298 0.0
H478 H 0.01698 0.48551 0.81619 0.0
H479 H 0.05367 0.5051 0.84706 0.0
C480 C 0.94825 0.43341 0.78764 0.0
C481 C 0.94371 0.41279 0.7708 0.0
C482 C 0.96902 0.44495 0.80574 0.0
C483 C 0.98565 0.43608 0.80747 0.0
C484 C 0.9812 0.4156 0.79041 0.0
C485 C 0.96049 0.40411 0.77227 0.0
C486 C 0.03564 0.44493 0.86125 0.0
C487 C 0.05016 0.47077 0.86268 0.0
C488 C 0.01462 0.43372 0.84359 0.0
C489 C 0.00756 0.44807 0.82699 0.0
C490 C 0.0218 0.47392 0.82888 0.0
C491 C 0.04288 0.48514 0.84649 0.0
loop_
_geom_bond_atom_site_label_1
_geom_bond_atom_site_label_2
_geom_bond_distance
_geom_bond_site_symmetry_2
_ccdc_geom_bond_type
O0 Cd1 2.300 . S
O0 C7 1.275 . S
Cd1 O0 2.300 . S
Cd1 O9 2.381 . S
Cd1 O10 2.378 . S
O2 Cd3 2.385 . S
O2 C7 1.255 . S
Cd3 O2 2.385 . S
Cd3 O4 2.317 . S
O4 Cd3 2.317 . S
O4 C5 1.232 . S
C5 O4 1.232 . S
C5 O6 1.218 . S
O6 C5 1.218 . S
C7 O0 1.275 . S
C7 O2 1.255 . S
C8 O9 1.258 . S
C8 O10 1.256 . S
O9 Cd1 2.381 . S
O9 C8 1.258 . S
O10 Cd1 2.378 . S
O10 C8 1.256 . S
O11 Cd12 2.300 . S
O11 C18 1.275 . S
Cd12 O11 2.300 . S
Cd12 O20 2.381 . S
Cd12 O21 2.378 . S
O13 Cd14 2.385 . S
O13 C18 1.255 . S
Cd14 O13 2.385 . S
Cd14 O15 2.317 . S
O15 Cd14 2.317 . S
O15 C16 1.232 . S
C16 O15 1.232 . S
C16 O17 1.218 . S
O17 C16 1.218 . S
C18 O11 1.275 . S
C18 O13 1.255 . S
C19 O20 1.258 . S
C19 O21 1.256 . S
O20 Cd12 2.381 . S
O20 C19 1.258 . S
O21 Cd12 2.378 . S
O21 C19 1.256 . S
O22 Cd23 2.300 . S
O22 C29 1.275 . S
Cd23 O22 2.300 . S
Cd23 O31 2.381 . S
Cd23 O32 2.378 . S
O24 Cd25 2.385 . S
O24 C29 1.255 . S
Cd25 O24 2.385 . S
Cd25 O26 2.317 . S
O26 Cd25 2.317 . S
O26 C27 1.232 . S
C27 O26 1.232 . S
C27 O28 1.218 . S
O28 C27 1.218 . S
C29 O22 1.275 . S
C29 O24 1.255 . S
C30 O31 1.258 . S
C30 O32 1.256 . S
O31 Cd23 2.381 . S
O31 C30 1.258 . S
O32 Cd23 2.378 . S
O32 C30 1.256 . S
O33 Cd34 2.300 . S
O33 C40 1.275 . S
Cd34 O33 2.300 . S
Cd34 O42 2.381 . S
Cd34 O43 2.378 . S
O35 Cd36 2.385 . S
O35 C40 1.255 . S
Cd36 O35 2.385 . S
Cd36 O37 2.317 . S
O37 Cd36 2.317 . S
O37 C38 1.232 . S
C38 O37 1.232 . S
C38 O39 1.218 . S
O39 C38 1.218 . S
C40 O33 1.275 . S
C40 O35 1.255 . S
C41 O42 1.258 . S
C41 O43 1.256 . S
O42 Cd34 2.381 . S
O42 C41 1.258 . S
O43 Cd34 2.378 . S
O43 C41 1.256 . S
O44 Cd45 2.300 . S
O44 C51 1.275 . S
Cd45 O44 2.300 . S
Cd45 O53 2.381 . S
Cd45 O54 2.378 . S
O46 Cd47 2.385 . S
O46 C51 1.255 . S
Cd47 O46 2.385 . S
Cd47 O48 2.317 . S
O48 Cd47 2.317 . S
O48 C49 1.232 . S
C49 O48 1.232 . S
C49 O50 1.218 . S
O50 C49 1.218 . S
C51 O44 1.275 . S
C51 O46 1.255 . S
C52 O53 1.258 . S
C52 O54 1.256 . S
O53 Cd45 2.381 . S
O53 C52 1.258 . S
O54 Cd45 2.378 . S
O54 C52 1.256 . S
O55 Cd56 2.300 . S
O55 C62 1.275 . S
Cd56 O55 2.300 . S
Cd56 O64 2.381 . S
Cd56 O65 2.378 . S
O57 Cd58 2.385 . S
O57 C62 1.255 . S
Cd58 O57 2.385 . S
Cd58 O59 2.317 . S
O59 Cd58 2.317 . S
O59 C60 1.232 . S
C60 O59 1.232 . S
C60 O61 1.218 . S
O61 C60 1.218 . S
C62 O55 1.275 . S
C62 O57 1.255 . S
C63 O64 1.258 . S
C63 O65 1.256 . S
O64 Cd56 2.381 . S
O64 C63 1.258 . S
O65 Cd56 2.378 . S
O65 C63 1.256 . S
O66 Cd67 2.300 . S
O66 C73 1.275 . S
Cd67 O66 2.300 . S
Cd67 O75 2.381 . S
Cd67 O76 2.378 . S
O68 Cd69 2.385 . S
O68 C73 1.255 . S
Cd69 O68 2.385 . S
Cd69 O70 2.317 . S
O70 Cd69 2.317 . S
O70 C71 1.232 . S
C71 O70 1.232 . S
C71 O72 1.218 . S
O72 C71 1.218 . S
C73 O66 1.275 . S
C73 O68 1.255 . S
C74 O75 1.258 . S
C74 O76 1.256 . S
O75 Cd67 2.381 . S
O75 C74 1.258 . S
O76 Cd67 2.378 . S
O76 C74 1.256 . S
O77 Cd78 2.300 . S
O77 C84 1.275 . S
Cd78 O77 2.300 . S
Cd78 O86 2.381 . S
Cd78 O87 2.378 . S
O79 Cd80 2.385 . S
O79 C84 1.255 . S
Cd80 O79 2.385 . S
Cd80 O81 2.317 . S
O81 Cd80 2.317 . S
O81 C82 1.232 . S
C82 O81 1.232 . S
C82 O83 1.218 . S
O83 C82 1.218 . S
C84 O77 1.275 . S
C84 O79 1.255 . S
C85 O86 1.258 . S
C85 O87 1.256 . S
O86 Cd78 2.381 . S
O86 C85 1.258 . S
O87 Cd78 2.378 . S
O87 C85 1.256 . S
O88 Cd89 2.300 . S
O88 C95 1.275 . S
Cd89 O88 2.300 . S
Cd89 O97 2.381 . S
Cd89 O98 2.378 . S
O90 Cd91 2.385 . S
O90 C95 1.255 . S
Cd91 O90 2.385 . S
Cd91 O92 2.317 . S
O92 Cd91 2.317 . S
O92 C93 1.232 . S
C93 O92 1.232 . S
C93 O94 1.218 . S
O94 C93 1.218 . S
C95 O88 1.275 . S
C95 O90 1.255 . S
C96 O97 1.258 . S
C96 O98 1.256 . S
O97 Cd89 2.381 . S
O97 C96 1.258 . S
O98 Cd89 2.378 . S
O98 C96 1.256 . S
O99 Cd100 2.300 . S
O99 C106 1.275 . S
Cd100 O99 2.300 . S
Cd100 O108 2.381 . S
Cd100 O109 2.378 . S
O101 Cd102 2.385 . S
O101 C106 1.255 . S
Cd102 O101 2.385 . S
Cd102 O103 2.317 . S
O103 Cd102 2.317 . S
O103 C104 1.232 . S
C104 O103 1.232 . S
C104 O105 1.218 . S
O105 C104 1.218 . S
C106 O99 1.275 . S
C106 O101 1.255 . S
C107 O108 1.258 . S
C107 O109 1.256 . S
O108 Cd100 2.381 . S
O108 C107 1.258 . S
O109 Cd100 2.378 . S
O109 C107 1.256 . S
O110 Cd111 2.300 . S
O110 C117 1.275 . S
Cd111 O110 2.300 . S
Cd111 O119 2.381 . S
Cd111 O120 2.378 . S
O112 Cd113 2.385 . S
O112 C117 1.255 . S
Cd113 O112 2.385 . S
Cd113 O114 2.317 . S
O114 Cd113 2.317 . S
O114 C115 1.232 . S
C115 O114 1.232 . S
C115 O116 1.218 . S
O116 C115 1.218 . S
C117 O110 1.275 . S
C117 O112 1.255 . S
C118 O119 1.258 . S
C118 O120 1.256 . S
O119 Cd111 2.381 . S
O119 C118 1.258 . S
O120 Cd111 2.378 . S
O120 C118 1.256 . S
O121 Cd122 2.300 . S
O121 C128 1.275 . S
Cd122 O121 2.300 . S
Cd122 O130 2.381 . S
Cd122 O131 2.378 . S
O123 Cd124 2.385 . S
O123 C128 1.255 . S
Cd124 O123 2.385 . S
Cd124 O125 2.317 . S
O125 Cd124 2.317 . S
O125 C126 1.232 . S
C126 O125 1.232 . S
C126 O127 1.218 . S
O127 C126 1.218 . S
C128 O121 1.275 . S
C128 O123 1.255 . S
C129 O130 1.258 . S
C129 O131 1.256 . S
O130 Cd122 2.381 . S
O130 C129 1.258 . S
O131 Cd122 2.378 . S
O131 C129 1.256 . S
H132 C140 0.950 . S
H133 C145 0.950 . S
H134 C142 0.950 . S
H135 C144 0.950 . S
H136 C146 0.950 . S
H137 C148 0.950 . S
H138 C150 0.950 . S
H139 C151 0.950 . S
C140 H132 0.950 . S
C140 C141 1.386 . S
C140 C142 1.391 . S
C141 C140 1.386 . S
C141 C145 1.393 . S
C142 H134 0.950 . S
C142 C140 1.391 . S
C142 C143 1.400 . S
C143 C142 1.400 . S
C143 C144 1.398 . S
C143 C149 1.491 . S
C144 H135 0.950 . S
C144 C143 1.398 . S
C144 C145 1.391 . S
C145 H133 0.950 . S
C145 C141 1.393 . S
C145 C144 1.391 . S
C146 H136 0.950 . S
C146 C147 1.386 . S
C146 C148 1.391 . S
C147 C146 1.386 . S
C147 C151 1.393 . S
C148 H137 0.950 . S
C148 C146 1.391 . S
C148 C149 1.400 . S
C149 C143 1.491 . S
C149 C148 1.400 . S
C149 C150 1.398 . S
C150 H138 0.950 . S
C150 C149 1.398 . S
C150 C151 1.391 . S
C151 H139 0.950 . S
C151 C147 1.393 . S
C151 C150 1.391 . S
H152 C160 0.950 . S
H153 C165 0.950 . S
H154 C162 0.950 . S
H155 C164 0.950 . S
H156 C166 0.950 . S
H157 C168 0.950 . S
H158 C170 0.950 . S
H159 C171 0.950 . S
C160 H152 0.950 . S
C160 C161 1.386 . S
C160 C162 1.391 . S
C161 C160 1.386 . S
C161 C165 1.393 . S
C162 H154 0.950 . S
C162 C160 1.391 . S
C162 C163 1.400 . S
C163 C162 1.400 . S
C163 C164 1.398 . S
C163 C169 1.491 . S
C164 H155 0.950 . S
C164 C163 1.398 . S
C164 C165 1.391 . S
C165 H153 0.950 . S
C165 C161 1.393 . S
C165 C164 1.391 . S
C166 H156 0.950 . S
C166 C167 1.386 . S
C166 C168 1.391 . S
C167 C166 1.386 . S
C167 C171 1.393 . S
C168 H157 0.950 . S
C168 C166 1.391 . S
C168 C169 1.400 . S
C169 C163 1.491 . S
C169 C168 1.400 . S
C169 C170 1.398 . S
C170 H158 0.950 . S
C170 C169 1.398 . S
C170 C171 1.391 . S
C171 H159 0.950 . S
C171 C167 1.393 . S
C171 C170 1.391 . S
H172 C180 0.950 . S
H173 C185 0.950 . S
H174 C182 0.950 . S
H175 C184 0.950 . S
H176 C186 0.950 . S
H177 C188 0.950 . S
H178 C190 0.950 . S
H179 C191 0.950 . S
C180 H172 0.950 . S
C180 C181 1.386 . S
C180 C182 1.391 . S
C181 C180 1.386 . S
C181 C185 1.393 . S
C182 H174 0.950 . S
C182 C180 1.391 . S
C182 C183 1.400 . S
C183 C182 1.400 . S
C183 C184 1.398 . S
C183 C189 1.491 . S
C184 H175 0.950 . S
C184 C183 1.398 . S
C184 C185 1.391 . S
C185 H173 0.950 . S
C185 C181 1.393 . S
C185 C184 1.391 . S
C186 H176 0.950 . S
C186 C187 1.386 . S
C186 C188 1.391 . S
C187 C186 1.386 . S
C187 C191 1.393 . S
C188 H177 0.950 . S
C188 C186 1.391 . S
C188 C189 1.400 . S
C189 C183 1.491 . S
C189 C188 1.400 . S
C189 C190 1.398 . S
C190 H178 0.950 . S
C190 C189 1.398 . S
C190 C191 1.391 . S
C191 H179 0.950 . S
C191 C187 1.393 . S
C191 C190 1.391 . S
H192 C200 0.950 . S
H193 C205 0.950 . S
H194 C202 0.950 . S
H195 C204 0.950 . S
H196 C206 0.950 . S
H197 C208 0.950 . S
H198 C210 0.950 . S
H199 C211 0.950 . S
C200 H192 0.950 . S
C200 C201 1.386 . S
C200 C202 1.391 . S
C201 C200 1.386 . S
C201 C205 1.393 . S
C202 H194 0.950 . S
C202 C200 1.391 . S
C202 C203 1.400 . S
C203 C202 1.400 . S
C203 C204 1.398 . S
C203 C209 1.491 . S
C204 H195 0.950 . S
C204 C203 1.398 . S
C204 C205 1.391 . S
C205 H193 0.950 . S
C205 C201 1.393 . S
C205 C204 1.391 . S
C206 H196 0.950 . S
C206 C207 1.386 . S
C206 C208 1.391 . S
C207 C206 1.386 . S
C207 C211 1.393 . S
C208 H197 0.950 . S
C208 C206 1.391 . S
C208 C209 1.400 . S
C209 C203 1.491 . S
C209 C208 1.400 . S
C209 C210 1.398 . S
C210 H198 0.950 . S
C210 C209 1.398 . S
C210 C211 1.391 . S
C211 H199 0.950 . S
C211 C207 1.393 . S
C211 C210 1.391 . S
H212 C220 0.950 . S
H213 C225 0.950 . S
H214 C222 0.950 . S
H215 C224 0.950 . S
H216 C226 0.950 . S
H217 C228 0.950 . S
H218 C230 0.950 . S
H219 C231 0.950 . S
C220 H212 0.950 . S
C220 C221 1.386 . S
C220 C222 1.391 . S
C221 C220 1.386 . S
C221 C225 1.393 . S
C222 H214 0.950 . S
C222 C220 1.391 . S
C222 C223 1.400 . S
C223 C222 1.400 . S
C223 C224 1.398 . S
C223 C229 1.491 . S
C224 H215 0.950 . S
C224 C223 1.398 . S
C224 C225 1.391 . S
C225 H213 0.950 . S
C225 C221 1.393 . S
C225 C224 1.391 . S
C226 H216 0.950 . S
C226 C227 1.386 . S
C226 C228 1.391 . S
C227 C226 1.386 . S
C227 C231 1.393 . S
C228 H217 0.950 . S
C228 C226 1.391 . S
C228 C229 1.400 . S
C229 C223 1.491 . S
C229 C228 1.400 . S
C229 C230 1.398 . S
C230 H218 0.950 . S
C230 C229 1.398 . S
C230 C231 1.391 . S
C231 H219 0.950 . S
C231 C227 1.393 . S
C231 C230 1.391 . S
H232 C240 0.950 . S
H233 C245 0.950 . S
H234 C242 0.950 . S
H235 C244 0.950 . S
H236 C246 0.950 . S
H237 C248 0.950 . S
H238 C250 0.950 . S
H239 C251 0.950 . S
C240 H232 0.950 . S
C240 C241 1.386 . S
C240 C242 1.391 . S
C241 C240 1.386 . S
C241 C245 1.393 . S
C242 H234 0.950 . S
C242 C240 1.391 . S
C242 C243 1.400 . S
C243 C242 1.400 . S
C243 C244 1.398 . S
C243 C249 1.491 . S
C244 H235 0.950 . S
C244 C243 1.398 . S
C244 C245 1.391 . S
C245 H233 0.950 . S
C245 C241 1.393 . S
C245 C244 1.391 . S
C246 H236 0.950 . S
C246 C247 1.386 . S
C246 C248 1.391 . S
C247 C246 1.386 . S
C247 C251 1.393 . S
C248 H237 0.950 . S
C248 C246 1.391 . S
C248 C249 1.400 . S
C249 C243 1.491 . S
C249 C248 1.400 . S
C249 C250 1.398 . S
C250 H238 0.950 . S
C250 C249 1.398 . S
C250 C251 1.391 . S
C251 H239 0.950 . S
C251 C247 1.393 . S
C251 C250 1.391 . S
H252 C260 0.950 . S
H253 C265 0.950 . S
H254 C262 0.950 . S
H255 C264 0.950 . S
H256 C266 0.950 . S
H257 C268 0.950 . S
H258 C270 0.950 . S
H259 C271 0.950 . S
C260 H252 0.950 . S
C260 C261 1.386 . S
C260 C262 1.391 . S
C261 C260 1.386 . S
C261 C265 1.393 . S
C262 H254 0.950 . S
C262 C260 1.391 . S
C262 C263 1.400 . S
C263 C262 1.400 . S
C263 C264 1.398 . S
C263 C269 1.491 . S
C264 H255 0.950 . S
C264 C263 1.398 . S
C264 C265 1.391 . S
C265 H253 0.950 . S
C265 C261 1.393 . S
C265 C264 1.391 . S
C266 H256 0.950 . S
C266 C267 1.386 . S
C266 C268 1.391 . S
C267 C266 1.386 . S
C267 C271 1.393 . S
C268 H257 0.950 . S
C268 C266 1.391 . S
C268 C269 1.400 . S
C269 C263 1.491 . S
C269 C268 1.400 . S
C269 C270 1.398 . S
C270 H258 0.950 . S
C270 C269 1.398 . S
C270 C271 1.391 . S
C271 H259 0.950 . S
C271 C267 1.393 . S
C271 C270 1.391 . S
H272 C280 0.950 . S
H273 C285 0.950 . S
H274 C282 0.950 . S
H275 C284 0.950 . S
H276 C286 0.950 . S
H277 C288 0.950 . S
H278 C290 0.950 . S
H279 C291 0.950 . S
C280 H272 0.950 . S
C280 C281 1.386 . S
C280 C282 1.391 . S
C281 C280 1.386 . S
C281 C285 1.393 . S
C282 H274 0.950 . S
C282 C280 1.391 . S
C282 C283 1.400 . S
C283 C282 1.400 . S
C283 C284 1.398 . S
C283 C289 1.491 . S
C284 H275 0.950 . S
C284 C283 1.398 . S
C284 C285 1.391 . S
C285 H273 0.950 . S
C285 C281 1.393 . S
C285 C284 1.391 . S
C286 H276 0.950 . S
C286 C287 1.386 . S
C286 C288 1.391 . S
C287 C286 1.386 . S
C287 C291 1.393 . S
C288 H277 0.950 . S
C288 C286 1.391 . S
C288 C289 1.400 . S
C289 C283 1.491 . S
C289 C288 1.400 . S
C289 C290 1.398 . S
C290 H278 0.950 . S
C290 C289 1.398 . S
C290 C291 1.391 . S
C291 H279 0.950 . S
C291 C287 1.393 . S
C291 C290 1.391 . S
H292 C300 0.950 . S
H293 C305 0.950 . S
H294 C302 0.950 . S
H295 C304 0.950 . S
H296 C306 0.950 . S
H297 C308 0.950 . S
H298 C310 0.950 . S
H299 C311 0.950 . S
C300 H292 0.950 . S
C300 C301 1.386 . S
C300 C302 1.391 . S
C301 C300 1.386 . S
C301 C305 1.393 . S
C302 H294 0.950 . S
C302 C300 1.391 . S
C302 C303 1.400 . S
C303 C302 1.400 . S
C303 C304 1.398 . S
C303 C309 1.491 . S
C304 H295 0.950 . S
C304 C303 1.398 . S
C304 C305 1.391 . S
C305 H293 0.950 . S
C305 C301 1.393 . S
C305 C304 1.391 . S
C306 H296 0.950 . S
C306 C307 1.386 . S
C306 C308 1.391 . S
C307 C306 1.386 . S
C307 C311 1.393 . S
C308 H297 0.950 . S
C308 C306 1.391 . S
C308 C309 1.400 . S
C309 C303 1.491 . S
C309 C308 1.400 . S
C309 C310 1.398 . S
C310 H298 0.950 . S
C310 C309 1.398 . S
C310 C311 1.391 . S
C311 H299 0.950 . S
C311 C307 1.393 . S
C311 C310 1.391 . S
H312 C320 0.950 . S
H313 C325 0.950 . S
H314 C322 0.950 . S
H315 C324 0.950 . S
H316 C326 0.950 . S
H317 C328 0.950 . S
H318 C330 0.950 . S
H319 C331 0.950 . S
C320 H312 0.950 . S
C320 C321 1.386 . S
C320 C322 1.391 . S
C321 C320 1.386 . S
C321 C325 1.393 . S
C322 H314 0.950 . S
C322 C320 1.391 . S
C322 C323 1.400 . S
C323 C322 1.400 . S
C323 C324 1.398 . S
C323 C329 1.491 . S
C324 H315 0.950 . S
C324 C323 1.398 . S
C324 C325 1.391 . S
C325 H313 0.950 . S
C325 C321 1.393 . S
C325 C324 1.391 . S
C326 H316 0.950 . S
C326 C327 1.386 . S
C326 C328 1.391 . S
C327 C326 1.386 . S
C327 C331 1.393 . S
C328 H317 0.950 . S
C328 C326 1.391 . S
C328 C329 1.400 . S
C329 C323 1.491 . S
C329 C328 1.400 . S
C329 C330 1.398 . S
C330 H318 0.950 . S
C330 C329 1.398 . S
C330 C331 1.391 . S
C331 H319 0.950 . S
C331 C327 1.393 . S
C331 C330 1.391 . S
H332 C340 0.950 . S
H333 C345 0.950 . S
H334 C342 0.950 . S
H335 C344 0.950 . S
H336 C346 0.950 . S
H337 C348 0.950 . S
H338 C350 0.950 . S
H339 C351 0.950 . S
C340 H332 0.950 . S
C340 C341 1.386 . S
C340 C342 1.391 . S
C341 C340 1.386 . S
C341 C345 1.393 . S
C342 H334 0.950 . S
C342 C340 1.391 . S
C342 C343 1.400 . S
C343 C342 1.400 . S
C343 C344 1.398 . S
C343 C349 1.491 . S
C344 H335 0.950 . S
C344 C343 1.398 . S
C344 C345 1.391 . S
C345 H333 0.950 . S
C345 C341 1.393 . S
C345 C344 1.391 . S
C346 H336 0.950 . S
C346 C347 1.386 . S
C346 C348 1.391 . S
C347 C346 1.386 . S
C347 C351 1.393 . S
C348 H337 0.950 . S
C348 C346 1.391 . S
C348 C349 1.400 . S
C349 C343 1.491 . S
C349 C348 1.400 . S
C349 C350 1.398 . S
C350 H338 0.950 . S
C350 C349 1.398 . S
C350 C351 1.391 . S
C351 H339 0.950 . S
C351 C347 1.393 . S
C351 C350 1.391 . S
H352 C360 0.950 . S
H353 C365 0.950 . S
H354 C362 0.950 . S
H355 C364 0.950 . S
H356 C366 0.950 . S
H357 C368 0.950 . S
H358 C370 0.950 . S
H359 C371 0.950 . S
C360 H352 0.950 . S
C360 C361 1.386 . S
C360 C362 1.391 . S
C361 C360 1.386 . S
C361 C365 1.393 . S
C362 H354 0.950 . S
C362 C360 1.391 . S
C362 C363 1.400 . S
C363 C362 1.400 . S
C363 C364 1.398 . S
C363 C369 1.491 . S
C364 H355 0.950 . S
C364 C363 1.398 . S
C364 C365 1.391 . S
C365 H353 0.950 . S
C365 C361 1.393 . S
C365 C364 1.391 . S
C366 H356 0.950 . S
C366 C367 1.386 . S
C366 C368 1.391 . S
C367 C366 1.386 . S
C367 C371 1.393 . S
C368 H357 0.950 . S
C368 C366 1.391 . S
C368 C369 1.400 . S
C369 C363 1.491 . S
C369 C368 1.400 . S
C369 C370 1.398 . S
C370 H358 0.950 . S
C370 C369 1.398 . S
C370 C371 1.391 . S
C371 H359 0.950 . S
C371 C367 1.393 . S
C371 C370 1.391 . S
H372 C380 0.950 . S
H373 C385 0.950 . S
H374 C382 0.950 . S
H375 C384 0.950 . S
H376 C386 0.950 . S
H377 C388 0.950 . S
H378 C390 0.950 . S
H379 C391 0.950 . S
C380 H372 0.950 . S
C380 C381 1.386 . S
C380 C382 1.391 . S
C381 C380 1.386 . S
C381 C385 1.393 . S
C382 H374 0.950 . S
C382 C380 1.391 . S
C382 C383 1.400 . S
C383 C382 1.400 . S
C383 C384 1.398 . S
C383 C389 1.491 1_544 S
C384 H375 0.950 . S
C384 C383 1.398 . S
C384 C385 1.391 . S
C385 H373 0.950 . S
C385 C381 1.393 . S
C385 C384 1.391 . S
C386 H376 0.950 . S
C386 C387 1.386 . S
C386 C388 1.391 . S
C387 C386 1.386 . S
C387 C391 1.393 . S
C388 H377 0.950 . S
C388 C386 1.391 . S
C388 C389 1.400 . S
C389 C383 1.491 1_566 S
C389 C388 1.400 . S
C389 C390 1.398 . S
C390 H378 0.950 . S
C390 C389 1.398 . S
C390 C391 1.391 . S
C391 H379 0.950 . S
C391 C387 1.393 . S
C391 C390 1.391 . S
H392 C400 0.950 . S
H393 C405 0.950 . S
H394 C402 0.950 . S
H395 C404 0.950 . S
H396 C406 0.950 . S
H397 C408 0.950 . S
H398 C410 0.950 . S
H399 C411 0.950 . S
C400 H392 0.950 . S
C400 C401 1.386 . S
C400 C402 1.391 . S
C401 C400 1.386 . S
C401 C405 1.393 . S
C402 H394 0.950 . S
C402 C400 1.391 . S
C402 C403 1.400 . S
C403 C402 1.400 . S
C403 C404 1.398 . S
C403 C409 1.491 . S
C404 H395 0.950 . S
C404 C403 1.398 . S
C404 C405 1.391 . S
C405 H393 0.950 . S
C405 C401 1.393 . S
C405 C404 1.391 . S
C406 H396 0.950 . S
C406 C407 1.386 . S
C406 C408 1.391 . S
C407 C406 1.386 . S
C407 C411 1.393 . S
C408 H397 0.950 . S
C408 C406 1.391 . S
C408 C409 1.400 . S
C409 C403 1.491 . S
C409 C408 1.400 . S
C409 C410 1.398 . S
C410 H398 0.950 . S
C410 C409 1.398 . S
C410 C411 1.391 . S
C411 H399 0.950 . S
C411 C407 1.393 . S
C411 C410 1.391 . S
H412 C420 0.950 . S
H413 C425 0.950 . S
H414 C422 0.950 . S
H415 C424 0.950 . S
H416 C426 0.950 . S
H417 C428 0.950 . S
H418 C430 0.950 . S
H419 C431 0.950 . S
C420 H412 0.950 . S
C420 C421 1.386 . S
C420 C422 1.391 . S
C421 C420 1.386 . S
C421 C425 1.393 . S
C422 H414 0.950 . S
C422 C420 1.391 . S
C422 C423 1.400 . S
C423 C422 1.400 . S
C423 C424 1.398 . S
C423 C429 1.491 1_455 S
C424 H415 0.950 . S
C424 C423 1.398 . S
C424 C425 1.391 . S
C425 H413 0.950 . S
C425 C421 1.393 . S
C425 C424 1.391 . S
C426 H416 0.950 . S
C426 C427 1.386 . S
C426 C428 1.391 . S
C427 C426 1.386 . S
C427 C431 1.393 . S
C428 H417 0.950 . S
C428 C426 1.391 . S
C428 C429 1.400 . S
C429 C423 1.491 1_655 S
C429 C428 1.400 . S
C429 C430 1.398 . S
C430 H418 0.950 . S
C430 C429 1.398 . S
C430 C431 1.391 . S
C431 H419 0.950 . S
C431 C427 1.393 . S
C431 C430 1.391 . S
H432 C440 0.950 . S
H433 C445 0.950 . S
H434 C442 0.950 . S
H435 C444 0.950 . S
H436 C446 0.950 . S
H437 C448 0.950 . S
H438 C450 0.950 . S
H439 C451 0.950 . S
C440 H432 0.950 . S
C440 C441 1.386 . S
C440 C442 1.391 . S
C441 C440 1.386 . S
C441 C445 1.393 . S
C442 H434 0.950 . S
C442 C440 1.391 . S
C442 C443 1.400 . S
C443 C442 1.400 . S
C443 C444 1.398 . S
C443 C449 1.491 1_545 S
C444 H435 0.950 . S
C444 C443 1.398 . S
C444 C445 1.391 . S
C445 H433 0.950 . S
C445 C441 1.393 . S
C445 C444 1.391 . S
C446 H436 0.950 . S
C446 C447 1.386 . S
C446 C448 1.391 . S
C447 C446 1.386 . S
C447 C451 1.393 . S
C448 H437 0.950 . S
C448 C446 1.391 . S
C448 C449 1.400 . S
C449 C443 1.491 1_565 S
C449 C448 1.400 . S
C449 C450 1.398 . S
C450 H438 0.950 . S
C450 C449 1.398 . S
C450 C451 1.391 . S
C451 H439 0.950 . S
C451 C447 1.393 . S
C451 C450 1.391 . S
H452 C460 0.950 . S
H453 C465 0.950 . S
H454 C462 0.950 . S
H455 C464 0.950 . S
H456 C466 0.950 . S
H457 C468 0.950 . S
H458 C470 0.950 . S
H459 C471 0.950 . S
C460 H452 0.950 . S
C460 C461 1.386 . S
C460 C462 1.391 . S
C461 C460 1.386 . S
C461 C465 1.393 . S
C462 H454 0.950 . S
C462 C460 1.391 . S
C462 C463 1.400 . S
C463 C462 1.400 . S
C463 C464 1.398 . S
C463 C469 1.491 . S
C464 H455 0.950 . S
C464 C463 1.398 . S
C464 C465 1.391 . S
C465 H453 0.950 . S
C465 C461 1.393 . S
C465 C464 1.391 . S
C466 H456 0.950 . S
C466 C467 1.386 . S
C466 C468 1.391 . S
C467 C466 1.386 . S
C467 C471 1.393 . S
C468 H457 0.950 . S
C468 C466 1.391 . S
C468 C469 1.400 . S
C469 C463 1.491 . S
C469 C468 1.400 . S
C469 C470 1.398 . S
C470 H458 0.950 . S
C470 C469 1.398 . S
C470 C471 1.391 . S
C471 H459 0.950 . S
C471 C467 1.393 . S
C471 C470 1.391 . S
H472 C480 0.950 . S
H473 C485 0.950 . S
H474 C482 0.950 . S
H475 C484 0.950 . S
H476 C486 0.950 . S
H477 C488 0.950 . S
H478 C490 0.950 . S
H479 C491 0.950 . S
C480 H472 0.950 . S
C480 C481 1.386 . S
C480 C482 1.391 . S
C481 C480 1.386 . S
C481 C485 1.393 . S
C482 H474 0.950 . S
C482 C480 1.391 . S
C482 C483 1.400 . S
C483 C482 1.400 . S
C483 C484 1.398 . S
C483 C489 1.491 1_655 S
C484 H475 0.950 . S
C484 C483 1.398 . S
C484 C485 1.391 . S
C485 H473 0.950 . S
C485 C481 1.393 . S
C485 C484 1.391 . S
C486 H476 0.950 . S
C486 C487 1.386 . S
C486 C488 1.391 . S
C487 C486 1.386 . S
C487 C491 1.393 . S
C488 H477 0.950 . S
C488 C486 1.391 . S
C488 C489 1.400 . S
C489 C483 1.491 1_455 S
C489 C488 1.400 . S
C489 C490 1.398 . S
C490 H478 0.950 . S
C490 C489 1.398 . S
C490 C491 1.391 . S
C491 H479 0.950 . S
C491 C487 1.393 . S
C491 C490 1.391 . S
C141 C7 1.536 . S
C147 C117 1.556 . S
C161 C128 1.552 . S
C167 C18 1.530 . S
C181 C73 1.545 . S
C187 C29 1.556 . S
C201 C40 1.543 . S
C207 C84 1.556 . S
C221 C95 1.554 1_556 S
C227 C51 1.549 . S
C241 C62 1.546 1_554 S
C247 C106 1.556 . S
C261 C5 1.354 . S
C267 C93 1.331 . S
C281 C104 1.343 . S
C287 C16 1.347 . S
C301 C27 1.312 . S
C307 C115 1.314 . S
C321 C126 1.323 . S
C327 C38 1.307 . S
C341 C49 1.305 . S
C347 C71 1.345 . S
C361 C60 1.322 . S
C367 C82 1.307 . S
C381 C8 1.582 . S
C387 C85 1.583 . S
C401 C96 1.597 . S
C407 C19 1.588 . S
C421 C107 1.586 . S
C427 C30 1.597 . S
C441 C118 1.598 . S
C447 C41 1.588 . S
C461 C52 1.597 . S
C467 C129 1.585 . S
C481 C74 1.597 . S
C487 C63 1.592 . S
