# Generated by pormake.
# Topology fst, (5)-cn, num edge types: 1
# Building blocks:
#     Node 0, Type 0, BuildingBlock: XOMCOT_clean_sbu_0, # of connection points: 5
#     Node 1, Type 0, BuildingBlock: XOMCOT_clean_sbu_0, # of connection points: 5
#     Node 2, Type 0, BuildingBlock: XOMCOT_clean_sbu_0, # of connection points: 5
#     Node 3, Type 0, BuildingBlock: XOMCOT_clean_sbu_0, # of connection points: 5
#     Node 4, Type 0, BuildingBlock: XOMCOT_clean_sbu_0, # of connection points: 5
#     Node 5, Type 0, BuildingBlock: XOMCOT_clean_sbu_0, # of connection points: 5
#     Node 6, Type 0, BuildingBlock: XOMCOT_clean_sbu_0, # of connection points: 5
#     Node 7, Type 0, BuildingBlock: XOMCOT_clean_sbu_0, # of connection points: 5
#     Node 8, Type 0, BuildingBlock: XOMCOT_clean_sbu_0, # of connection points: 5
#     Node 9, Type 0, BuildingBlock: XOMCOT_clean_sbu_0, # of connection points: 5
#     Node 10, Type 0, BuildingBlock: XOMCOT_clean_sbu_0, # of connection points: 5
#     Node 11, Type 0, BuildingBlock: XOMCOT_clean_sbu_0, # of connection points: 5
#     Edge 12, Type (0, 0), BuildingBlock: OJICUG_clean_linker_0, # of connection points: 2
#     Edge 13, Type (0, 0), BuildingBlock: OJICUG_clean_linker_0, # of connection points: 2
#     Edge 14, Type (0, 0), BuildingBlock: OJICUG_clean_linker_0, # of connection points: 2
#     Edge 15, Type (0, 0), BuildingBlock: OJICUG_clean_linker_0, # of connection points: 2
#     Edge 16, Type (0, 0), BuildingBlock: OJICUG_clean_linker_0, # of connection points: 2
#     Edge 17, Type (0, 0), BuildingBlock: OJICUG_clean_linker_0, # of connection points: 2
#     Edge 18, Type (0, 0), BuildingBlock: OJICUG_clean_linker_0, # of connection points: 2
#     Edge 19, Type (0, 0), BuildingBlock: OJICUG_clean_linker_0, # of connection points: 2
#     Edge 20, Type (0, 0), BuildingBlock: OJICUG_clean_linker_0, # of connection points: 2
#     Edge 21, Type (0, 0), BuildingBlock: OJICUG_clean_linker_0, # of connection points: 2
#     Edge 22, Type (0, 0), BuildingBlock: OJICUG_clean_linker_0, # of connection points: 2
#     Edge 23, Type (0, 0), BuildingBlock: OJICUG_clean_linker_0, # of connection points: 2
#     Edge 24, Type (0, 0), BuildingBlock: OJICUG_clean_linker_0, # of connection points: 2
#     Edge 25, Type (0, 0), BuildingBlock: OJICUG_clean_linker_0, # of connection points: 2
#     Edge 26, Type (0, 0), BuildingBlock: OJICUG_clean_linker_0, # of connection points: 2
#     Edge 27, Type (0, 0), BuildingBlock: OJICUG_clean_linker_0, # of connection points: 2
#     Edge 28, Type (0, 0), BuildingBlock: OJICUG_clean_linker_0, # of connection points: 2
#     Edge 29, Type (0, 0), BuildingBlock: OJICUG_clean_linker_0, # of connection points: 2
#     Edge 30, Type (0, 0), BuildingBlock: OJICUG_clean_linker_0, # of connection points: 2
#     Edge 31, Type (0, 0), BuildingBlock: OJICUG_clean_linker_0, # of connection points: 2
#     Edge 32, Type (0, 0), BuildingBlock: OJICUG_clean_linker_0, # of connection points: 2
#     Edge 33, Type (0, 0), BuildingBlock: OJICUG_clean_linker_0, # of connection points: 2
#     Edge 34, Type (0, 0), BuildingBlock: OJICUG_clean_linker_0, # of connection points: 2
#     Edge 35, Type (0, 0), BuildingBlock: OJICUG_clean_linker_0, # of connection points: 2
#     Edge 36, Type (0, 0), BuildingBlock: OJICUG_clean_linker_0, # of connection points: 2
#     Edge 37, Type (0, 0), BuildingBlock: OJICUG_clean_linker_0, # of connection points: 2
#     Edge 38, Type (0, 0), BuildingBlock: OJICUG_clean_linker_0, # of connection points: 2
#     Edge 39, Type (0, 0), BuildingBlock: OJICUG_clean_linker_0, # of connection points: 2
#     Edge 40, Type (0, 0), BuildingBlock: OJICUG_clean_linker_0, # of connection points: 2
#     Edge 41, Type (0, 0), BuildingBlock: OJICUG_clean_linker_0, # of connection points: 2
# Relax obj value: 0.176
# Max RMSD: 0.157
# Mean RMSD: 0.157
data_MOF--net-fst--node1-XOMCOT_clean_sbu_0--edge1-OJICUG_clean_linker_0
_symmetry_space_group_name_H-M    P1
_symmetry_Int_Tables_number       1
_symmetry_cell_setting            triclinic
loop_
_symmetry_equiv_pos_as_xyz
'x, y, z'
_cell_length_a     54.722126
_cell_length_b     54.958091
_cell_length_c     13.674052
_cell_angle_alpha  89.930521
_cell_angle_beta   90.202237
_cell_angle_gamma 119.97931
loop_
_atom_site_label
_atom_site_type_symbol
_atom_site_fract_x
_atom_site_fract_y
_atom_site_fract_z
_atom_type_partial_charge
Co0 Co 0.13271 0.42822 0.05141 0.0
C1 C 0.13278 0.42948 0.27137 0.0
C2 C 0.1144 0.38804 0.211 0.0
C3 C 0.11274 0.38582 0.31099 0.0
N4 N 0.12681 0.41535 0.18578 0.0
N5 N 0.1243 0.41187 0.34921 0.0
H6 H 0.14338 0.45202 0.27734 0.0
H7 H 0.10696 0.37077 0.15994 0.0
C8 C 0.07496 0.37736 1.00628 0.0
O9 O 0.08521 0.36195 0.97247 0.0
N10 N 0.1384 0.44052 0.91685 0.0
C11 C 0.15521 0.46723 0.88731 0.0
C12 C 0.15471 0.46811 0.78712 0.0
C13 C 0.12819 0.42533 0.83413 0.0
N14 N 0.13777 0.44182 0.75365 0.0
C15 C 0.14596 0.48289 0.12279 0.0
C16 C 0.10115 0.48325 0.02999 0.0
C17 C 0.12269 0.5082 0.06931 0.0
C18 C 0.14486 0.50782 0.1193 0.0
C19 C 0.1028 0.45885 0.036 0.0
N20 N 0.1253 0.45879 0.0802 0.0
H21 H 0.16453 0.48359 0.15326 0.0
H22 H 0.08705 0.44096 0.99616 0.0
H23 H 0.16747 0.48486 0.93527 0.0
H24 H 0.11425 0.40283 0.83278 0.0
O25 O 0.17298 0.44787 0.06932 0.0
O26 O 0.14793 0.40343 0.02343 0.0
O27 O 0.09121 0.40273 0.03192 0.0
C28 C 0.17262 0.42499 0.04352 0.0
H29 H 0.10331 0.3664 0.35201 0.0
H30 H 0.16664 0.48657 0.74222 0.0
H31 H 0.08385 0.48295 0.99006 0.0
H32 H 0.16208 0.52698 0.14944 0.0
Co33 Co 0.70816 0.12668 0.05096 0.0
C34 C 0.70987 0.13002 0.26949 0.0
C35 C 0.73091 0.10911 0.21207 0.0
C36 C 0.73322 0.10979 0.31236 0.0
N37 N 0.71615 0.12165 0.18515 0.0
N38 N 0.71993 0.12289 0.34842 0.0
H39 H 0.69866 0.14149 0.2736 0.0
H40 H 0.73948 0.1001 0.16193 0.0
C41 C 0.68621 0.06806 0.96097 0.0
O42 O 0.67786 0.07471 0.88033 0.0
N43 N 0.70087 0.13244 0.91588 0.0
C44 C 0.68473 0.14333 0.8871 0.0
C45 C 0.68571 0.14579 0.78735 0.0
C46 C 0.71262 0.12976 0.83254 0.0
N47 N 0.7029 0.13689 0.75242 0.0
C48 C 0.66507 0.1378 0.12176 0.0
C49 C 0.61956 0.08922 0.05102 0.0
C50 C 0.61508 0.11114 0.0803 0.0
C51 C 0.6382 0.13513 0.12119 0.0
C52 C 0.6465 0.0924 0.0557 0.0
N53 N 0.66937 0.11713 0.08481 0.0
H54 H 0.68273 0.15752 0.1454 0.0
H55 H 0.64849 0.07516 0.03009 0.0
H56 H 0.67332 0.14973 0.93469 0.0
H57 H 0.72711 0.12177 0.83065 0.0
O58 O 0.72716 0.167 0.06874 0.0
O59 O 0.74803 0.14329 0.02226 0.0
O60 O 0.69703 0.08581 0.03071 0.0
C61 C 0.75025 0.16739 0.04341 0.0
H62 H 0.74344 0.10086 0.35539 0.0
H63 H 0.67476 0.15391 0.74416 0.0
H64 H 0.60288 0.07009 1.01911 0.0
H65 H 0.63605 0.15237 0.14901 0.0
Co66 Co 0.59455 0.70887 0.07302 0.0
C67 C 0.59379 0.70945 0.29062 0.0
C68 C 0.63563 0.72777 0.23197 0.0
C69 C 0.63751 0.72876 0.33232 0.0
N70 N 0.60828 0.71561 0.20598 0.0
N71 N 0.61121 0.71723 0.36942 0.0
H72 H 0.57107 0.69971 0.29422 0.0
H73 H 0.65303 0.73522 0.18121 0.0
C74 C 0.61958 0.67491 0.9906 0.0
O75 O 0.5973 0.66085 0.9344 0.0
N76 N 0.5812 0.70279 0.93785 0.0
C77 C 0.55482 0.69492 0.90682 0.0
C78 C 0.55422 0.69481 0.80662 0.0
C79 C 0.5966 0.70866 0.85489 0.0
N80 N 0.58042 0.70329 0.77368 0.0
C81 C 0.53711 0.66911 0.11853 0.0
C82 C 0.54164 0.62142 0.1187 0.0
C83 C 0.51471 0.61851 0.1088 0.0
C84 C 0.51272 0.64291 0.11491 0.0
C85 C 0.56564 0.64833 0.12188 0.0
N86 N 0.56319 0.67173 0.11016 0.0
H87 H 0.53461 0.68733 0.11955 0.0
H88 H 0.58596 0.65 0.13125 0.0
H89 H 0.5372 0.69085 0.95242 0.0
H90 H 0.6191 0.71654 0.85412 0.0
O91 O 0.57611 0.73031 0.09431 0.0
O92 O 0.62003 0.74842 0.0425 0.0
O93 O 0.62125 0.6942 0.04687 0.0
C94 C 0.59905 0.75222 0.06503 0.0
H95 H 0.65679 0.73686 0.37446 0.0
H96 H 0.53605 0.68991 0.76145 0.0
H97 H 0.54427 0.60317 0.12156 0.0
H98 H 0.49263 0.6422 0.11034 0.0
Co99 Co 0.88879 0.58367 0.04602 0.0
C100 C 0.88336 0.58941 0.26324 0.0
C101 C 0.92519 0.60016 0.21983 0.0
C102 C 0.92509 0.60349 0.31924 0.0
N103 N 0.89915 0.59163 0.18385 0.0
N104 N 0.89885 0.59678 0.34683 0.0
H105 H 0.86103 0.58229 0.26061 0.0
H106 H 0.94305 0.60299 0.17734 0.0
C107 C 0.94653 0.62327 0.94543 0.0
O108 O 0.93869 0.61352 0.85649 0.0
N109 N 0.87777 0.57487 0.90912 0.0
C110 C 0.86158 0.5484 0.87595 0.0
C111 C 0.85712 0.54905 0.77751 0.0
C112 C 0.88174 0.59143 0.83044 0.0
N113 N 0.87005 0.57607 0.74822 0.0
C114 C 0.88644 0.53307 0.11613 0.0
C115 C 0.91856 0.52911 0.96786 0.0
C116 C 0.90521 0.50682 0.03372 0.0
C117 C 0.88959 0.50927 0.11046 0.0
C118 C 0.91524 0.55254 0.97697 0.0
N119 N 0.89884 0.55417 0.04887 0.0
H120 H 0.87308 0.53406 0.17218 0.0
H121 H 0.92425 0.56828 0.92143 0.0
H122 H 0.854 0.52971 0.92032 0.0
H123 H 0.89339 0.61416 0.83267 0.0
O124 O 0.84924 0.56141 0.07794 0.0
O125 O 0.87167 0.60721 0.04878 0.0
O126 O 0.9293 0.61359 1.017 0.0
C127 C 0.84802 0.58436 0.06812 0.0
H128 H 0.94276 0.60922 0.36809 0.0
H129 H 0.84644 0.53091 0.73014 0.0
H130 H 0.93088 0.5281 0.90776 0.0
H131 H 0.87881 0.49238 0.16266 0.0
Co132 Co 0.30947 0.88202 0.05202 0.0
C133 C 0.31129 0.88244 0.27203 0.0
C134 C 0.28869 0.90149 0.21187 0.0
C135 C 0.2882 0.90312 0.3118 0.0
N136 N 0.30333 0.88875 0.18645 0.0
N137 N 0.30237 0.89111 0.34994 0.0
H138 H 0.32277 0.8713 0.2779 0.0
H139 H 0.27874 0.90895 0.16114 0.0
C140 C 0.315 0.93854 1.0071 0.0
O141 O 0.28883 0.9276 0.97641 0.0
N142 N 0.31525 0.87546 0.91765 0.0
C143 C 0.32445 0.85801 0.88864 0.0
C144 C 0.32583 0.85836 0.78847 0.0
C145 C 0.31073 0.88595 0.83472 0.0
N146 N 0.3172 0.87588 0.75457 0.0
C147 C 0.35172 0.86933 0.12325 0.0
C148 C 0.39622 0.91374 0.02866 0.0
C149 C 0.4008 0.89325 0.0718 0.0
C150 C 0.37819 0.87108 0.12171 0.0
C151 C 0.36981 0.91146 0.03294 0.0
N152 N 0.34767 0.88936 0.0791 0.0
H153 H 0.3341 0.85091 0.15477 0.0
H154 H 0.36707 0.9264 0.99035 0.0
H155 H 0.3295 0.84557 0.93705 0.0
H156 H 0.3029 0.90054 0.83298 0.0
O157 O 0.28869 0.8421 0.07236 0.0
O158 O 0.26954 0.86749 0.02569 0.0
O159 O 0.32524 0.92306 0.0301 0.0
C160 C 0.2662 0.84289 0.04711 0.0
H161 H 0.2783 0.91266 0.35283 0.0
H162 H 0.33194 0.84603 0.74385 0.0
H163 H 0.41237 0.93066 0.98566 0.0
H164 H 0.38056 0.85466 0.15642 0.0
Co165 Co 0.42735 0.30175 0.08782 0.0
C166 C 0.42804 0.30128 0.30529 0.0
C167 C 0.38631 0.28442 0.24586 0.0
C168 C 0.38449 0.28348 0.34621 0.0
N169 N 0.41357 0.29564 0.22038 0.0
N170 N 0.41072 0.29408 0.38381 0.0
H171 H 0.45067 0.31018 0.30921 0.0
H172 H 0.36895 0.2775 0.1948 0.0
C173 C 0.40324 0.33606 1.00124 0.0
O174 O 0.42606 0.35008 0.94793 0.0
N175 N 0.44076 0.30717 0.95301 0.0
C176 C 0.46694 0.31416 0.92288 0.0
C177 C 0.46755 0.31411 0.82267 0.0
C178 C 0.42546 0.30164 0.86954 0.0
N179 N 0.44155 0.30642 0.78883 0.0
C180 C 0.48481 0.3417 0.13227 0.0
C181 C 0.47984 0.38914 0.13525 0.0
C182 C 0.50682 0.39224 0.12506 0.0
C183 C 0.50906 0.36797 0.1297 0.0
C184 C 0.45598 0.36214 0.13759 0.0
N185 N 0.45866 0.33892 0.12436 0.0
H186 H 0.48746 0.32356 0.13295 0.0
H187 H 0.43557 0.36023 0.14722 0.0
H188 H 0.48437 0.31774 0.96914 0.0
H189 H 0.4031 0.29446 0.86802 0.0
O190 O 0.44573 0.28035 0.11249 0.0
O191 O 0.40186 0.26215 0.05872 0.0
O192 O 0.40084 0.31651 0.05795 0.0
C193 C 0.42279 0.25839 0.0831 0.0
H194 H 0.3653 0.276 0.38799 0.0
H195 H 0.48559 0.31841 0.77815 0.0
H196 H 0.47708 0.4073 0.13896 0.0
H197 H 0.52924 0.36889 0.12495 0.0
Co198 Co 0.5914 0.89378 1.00911 0.0
C199 C 0.59006 0.89413 0.78908 0.0
C200 C 0.63178 0.91374 0.84943 0.0
C201 C 0.63391 0.91542 0.74948 0.0
N202 N 0.60434 0.90059 0.87474 0.0
N203 N 0.60768 0.90305 0.71122 0.0
H204 H 0.56741 0.88276 0.78308 0.0
H205 H 0.64924 0.9215 0.90024 0.0
C206 C 0.64145 0.95069 0.05398 0.0
O207 O 0.65662 0.93978 0.08505 0.0
N208 N 0.57897 0.88714 0.14347 0.0
C209 C 0.55244 0.86899 0.17256 0.0
C210 C 0.55141 0.86929 0.27273 0.0
C211 C 0.59393 0.89795 0.22642 0.0
N212 N 0.57746 0.88745 0.30659 0.0
C213 C 0.53583 0.87818 0.93781 0.0
C214 C 0.53279 0.92075 0.03407 0.0
C215 C 0.50802 0.89873 0.99369 0.0
C216 C 0.51002 0.8777 0.94207 0.0
C217 C 0.55812 0.92073 0.02664 0.0
N218 N 0.55952 0.89934 0.98076 0.0
H219 H 0.53621 0.86042 0.90582 0.0
H220 H 0.57575 0.93672 0.06709 0.0
H221 H 0.53505 0.85604 0.12425 0.0
H222 H 0.61627 0.91302 0.22819 0.0
O223 O 0.57333 0.85394 0.98981 0.0
O224 O 0.61778 0.88055 0.0369 0.0
O225 O 0.61568 0.93509 0.03053 0.0
C226 C 0.59691 0.85558 1.01621 0.0
H227 H 0.6534 0.92526 0.70856 0.0
H228 H 0.53309 0.85646 0.31738 0.0
H229 H 0.53252 0.93706 0.07748 0.0
H230 H 0.49163 0.86036 0.90848 0.0
Co231 Co 0.69682 0.57632 0.04139 0.0
C232 C 0.69544 0.57529 0.82172 0.0
C233 C 0.72328 0.61602 0.88156 0.0
C234 C 0.7238 0.61824 0.78161 0.0
N235 N 0.70546 0.58916 0.90715 0.0
N236 N 0.70632 0.59264 0.74356 0.0
H237 H 0.68073 0.55306 0.81646 0.0
H238 H 0.7351 0.63304 0.93216 0.0
C239 C 0.69175 0.628 0.07199 0.0
O240 O 0.71834 0.64318 0.09817 0.0
N241 N 0.68847 0.56396 0.17576 0.0
C242 C 0.67737 0.53718 0.20644 0.0
C243 C 0.67571 0.53658 0.30652 0.0
C244 C 0.69398 0.57945 0.25797 0.0
N245 N 0.68618 0.56309 0.33901 0.0
C246 C 0.65677 0.5209 0.97372 0.0
C247 C 0.60931 0.52156 0.03899 0.0
C248 C 0.60717 0.49585 1.01583 0.0
C249 C 0.63099 0.49572 0.97926 0.0
C250 C 0.6355 0.54608 0.03497 0.0
N251 N 0.65922 0.54556 1.00609 0.0
H252 H 0.67524 0.52009 0.95117 0.0
H253 H 0.63641 0.56469 0.06386 0.0
H254 H 0.67171 0.51929 0.15984 0.0
H255 H 0.70381 0.60211 0.25853 0.0
O256 O 0.71809 0.5571 0.03024 0.0
O257 O 0.73632 0.60138 0.07609 0.0
O258 O 0.68083 0.6018 0.05618 0.0
C259 C 0.74014 0.58024 0.05812 0.0
H260 H 0.73585 0.63746 0.74062 0.0
H261 H 0.66851 0.51815 0.3522 0.0
H262 H 0.5914 0.52245 0.06828 0.0
H263 H 0.63004 0.47615 0.96001 0.0
Co264 Co 0.12158 0.69513 0.99734 0.0
C265 C 0.12131 0.69379 0.7772 0.0
C266 C 0.10412 0.71798 0.83731 0.0
C267 C 0.10234 0.7185 0.7373 0.0
N268 N 0.11589 0.70242 0.86277 0.0
N269 N 0.11317 0.7033 0.69924 0.0
H270 H 0.13122 0.68117 0.77126 0.0
H271 H 0.09715 0.72827 0.88817 0.0
C272 C 0.06522 0.6897 0.04033 0.0
O273 O 0.07725 0.71542 0.07479 0.0
N274 N 0.12706 0.68823 0.1321 0.0
C275 C 0.14407 0.6785 0.16235 0.0
C276 C 0.14348 0.67708 0.26252 0.0
C277 C 0.11671 0.69313 0.2145 0.0
N278 N 0.12634 0.6863 0.29532 0.0
C279 C 0.13699 0.65559 0.92552 0.0
C280 C 0.09384 0.60964 1.01907 0.0
C281 C 0.11658 0.60768 0.98229 0.0
C282 C 0.13775 0.63056 0.93126 0.0
C283 C 0.09358 0.63478 1.01031 0.0
N284 N 0.11544 0.6578 0.96675 0.0
H285 H 0.15498 0.67384 0.89491 0.0
H286 H 0.07702 0.63613 0.04777 0.0
H287 H 0.15658 0.67333 0.11496 0.0
H288 H 0.10269 0.70166 0.21549 0.0
O289 O 0.1618 0.71626 0.98204 0.0
O290 O 0.13577 0.73471 0.02756 0.0
O291 O 0.07998 0.6788 1.01486 0.0
C292 C 0.16072 0.73832 1.00874 0.0
H293 H 0.09334 0.72897 0.69621 0.0
H294 H 0.15554 0.6707 0.30794 0.0
H295 H 0.07706 0.5923 0.0588 0.0
H296 H 0.15579 0.62982 0.90251 0.0
Co297 Co 0.42607 0.11464 0.02175 0.0
C298 C 0.42759 0.11819 0.80253 0.0
C299 C 0.38574 0.09824 0.86112 0.0
C300 C 0.38387 0.0987 0.76087 0.0
N301 N 0.41313 0.11034 0.8874 0.0
N302 N 0.4102 0.11117 0.72413 0.0
H303 H 0.45023 0.12904 0.79722 0.0
H304 H 0.36825 0.08949 0.91172 0.0
C305 C 0.38946 0.05518 0.10511 0.0
O306 O 0.40289 0.06154 0.18908 0.0
N307 N 0.43886 0.1196 0.15707 0.0
C308 C 0.46596 0.13093 0.18631 0.0
C309 C 0.4673 0.13322 0.28609 0.0
C310 C 0.42424 0.11656 0.2402 0.0
N311 N 0.44105 0.12386 0.32048 0.0
C312 C 0.48061 0.12834 0.94749 0.0
C313 C 0.48159 0.08274 0.02759 0.0
C314 C 0.50716 0.10548 0.99488 0.0
C315 C 0.50591 0.12777 0.94913 0.0
C316 C 0.45657 0.08369 0.02135 0.0
N317 N 0.4564 0.10695 0.98665 0.0
H318 H 0.48123 0.1472 0.92174 0.0
H319 H 0.43814 0.06648 0.05255 0.0
H320 H 0.48394 0.13789 0.13893 0.0
H321 H 0.4017 0.10843 0.2418 0.0
O322 O 0.44646 0.15492 1.00892 0.0
O323 O 0.40169 0.12971 0.05353 0.0
O324 O 0.39733 0.07329 0.03647 0.0
C325 C 0.42338 0.1543 0.03556 0.0
H326 H 0.36459 0.08993 0.71835 0.0
H327 H 0.48635 0.14166 0.3297 0.0
H328 H 0.48082 0.0649 0.06399 0.0
H329 H 0.52455 0.14549 0.91887 0.0
Co330 Co 0.32411 0.43344 1.01152 0.0
C331 C 0.32621 0.4353 0.79309 0.0
C332 C 0.305 0.39333 0.84982 0.0
C333 C 0.30492 0.39185 0.74958 0.0
N334 N 0.31858 0.42052 0.87734 0.0
N335 N 0.31823 0.41822 0.71393 0.0
H336 H 0.33729 0.45796 0.78929 0.0
H337 H 0.29521 0.37564 0.899 0.0
C338 C 0.33002 0.38292 0.05917 0.0
O339 O 0.3033 0.36772 0.08306 0.0
N340 N 0.32949 0.44625 0.14565 0.0
C341 C 0.33728 0.47266 0.17337 0.0
C342 C 0.33789 0.47402 0.27341 0.0
C343 C 0.32506 0.43169 0.22961 0.0
N344 N 0.33006 0.44826 0.30929 0.0
C345 C 0.36463 0.48958 0.95085 0.0
C346 C 0.41176 0.4891 0.02198 0.0
C347 C 0.41397 0.51481 0.99807 0.0
C348 C 0.39028 0.51486 0.95901 0.0
C349 C 0.38566 0.46449 1.01548 0.0
N350 N 0.36205 0.46487 0.98342 0.0
H351 H 0.34631 0.49037 0.92583 0.0
H352 H 0.3848 0.44587 0.04397 0.0
H353 H 0.3417 0.48979 0.1244 0.0
H354 H 0.31762 0.40941 0.2321 0.0
O355 O 0.30216 0.45155 0.98851 0.0
O356 O 0.28413 0.40752 0.03689 0.0
O357 O 0.3406 0.40878 0.03785 0.0
C358 C 0.27999 0.4282 1.01389 0.0
H359 H 0.29508 0.37282 0.70619 0.0
H360 H 0.3437 0.4927 0.31605 0.0
H361 H 0.42956 0.48824 0.05299 0.0
H362 H 0.39127 0.53441 0.93908 0.0
Co363 Co 0.89717 0.31384 1.00459 0.0
C364 C 0.89363 0.31182 0.7856 0.0
C365 C 0.91266 0.28911 0.84501 0.0
C366 C 0.91219 0.28685 0.74474 0.0
N367 N 0.90112 0.30484 0.87073 0.0
N368 N 0.90031 0.30122 0.70747 0.0
H369 H 0.8833 0.32408 0.78003 0.0
H370 H 0.92105 0.28005 0.89597 0.0
C371 C 0.95691 0.33694 0.08948 0.0
O372 O 0.9505 0.34544 0.16996 0.0
N373 N 0.8926 0.32208 0.13951 0.0
C374 C 0.88231 0.33867 0.16842 0.0
C375 C 0.88026 0.33791 0.26827 0.0
C376 C 0.8954 0.31038 0.22293 0.0
N377 N 0.8888 0.32041 0.30306 0.0
C378 C 0.88417 0.35494 0.92995 0.0
C379 C 0.93204 0.40175 0.99879 0.0
C380 C 0.90915 0.40457 0.96841 0.0
C381 C 0.88552 0.38104 0.92916 0.0
C382 C 0.93011 0.37539 0.99625 0.0
N383 N 0.90577 0.35193 0.96733 0.0
H384 H 0.86465 0.3368 0.90751 0.0
H385 H 0.94781 0.37419 0.02332 0.0
H386 H 0.87595 0.35018 0.12092 0.0
H387 H 0.90294 0.29555 0.22482 0.0
O388 O 0.85662 0.29477 0.99102 0.0
O389 O 0.88072 0.27424 0.03727 0.0
O390 O 0.93865 0.32559 0.02102 0.0
C391 C 0.85633 0.27198 1.01804 0.0
H392 H 0.9206 0.27605 0.70256 0.0
H393 H 0.87254 0.3491 0.31164 0.0
H394 H 0.95098 0.41962 0.02748 0.0
H395 H 0.86736 0.38232 0.90458 0.0
C396 C 0.1235 0.56792 0.92974 0.0
C397 C 0.11928 0.58279 1.00475 0.0
H398 H 0.12762 0.53225 0.89227 0.0
C399 C 0.11761 0.57379 0.10216 0.0
H400 H 0.1249 0.57451 0.85427 0.0
C401 C 0.11974 0.55005 0.12405 0.0
C402 C 0.12306 0.53473 0.04864 0.0
H403 H 0.11469 0.58518 0.16134 0.0
H404 H 0.11805 0.54323 0.19933 0.0
C405 C 0.12506 0.54388 0.95145 0.0
C406 C 0.56198 0.08362 0.05373 0.0
C407 C 0.5872 0.10964 0.06204 0.0
H408 H 0.51805 0.06165 0.02035 0.0
C409 C 0.58568 0.13422 0.04703 0.0
H410 H 0.56165 0.06404 0.06641 0.0
C411 C 0.55998 0.13285 0.02548 0.0
C412 C 0.53488 0.10682 1.01495 0.0
H413 H 0.60438 0.15477 0.05033 0.0
H414 H 0.56002 0.15246 1.01831 0.0
C415 C 0.53647 0.08223 0.02888 0.0
C416 C 0.43787 0.56074 0.08615 0.0
C417 C 0.43983 0.54134 0.02489 0.0
H418 H 0.4597 0.59918 0.16577 0.0
C419 C 0.46661 0.5465 0.99612 0.0
H420 H 0.4175 0.55683 0.11172 0.0
C421 C 0.49096 0.57113 0.0255 0.0
C422 C 0.48909 0.59089 0.08597 0.0
H423 H 0.46866 0.53168 0.94962 0.0
H424 H 0.51116 0.57498 0.9985 0.0
C425 C 0.46216 0.58502 0.1172 0.0
C426 C 0.90095 0.44316 0.9088 0.0
C427 C 0.90898 0.43123 0.98426 0.0
H428 H 0.89369 0.47652 0.86548 0.0
C429 C 0.91563 0.44424 0.07676 0.0
H430 H 0.89564 0.43354 0.83701 0.0
C431 C 0.91404 0.46856 0.09362 0.0
C432 C 0.90632 0.48065 1.01776 0.0
H433 H 0.92151 0.43525 0.13663 0.0
H434 H 0.91916 0.47811 0.16554 0.0
C435 C 0.8999 0.46775 0.92512 0.0
C436 C 0.45338 0.92032 0.0478 0.0
C437 C 0.42835 0.89431 0.05714 0.0
H438 H 0.49719 0.9422 1.01425 0.0
C439 C 0.42973 0.8696 0.045 0.0
H440 H 0.45349 0.93989 0.05833 0.0
C441 C 0.4554 0.87094 0.02363 0.0
C442 C 0.48029 0.89703 1.01206 0.0
H443 H 0.41094 0.84914 0.05008 0.0
H444 H 0.45566 0.85145 1.01731 0.0
C445 C 0.47877 0.92166 0.02385 0.0
C446 C 0.58339 0.45023 0.10492 0.0
C447 C 0.58136 0.46939 0.04241 0.0
H448 H 0.56163 0.41192 0.18504 0.0
C449 C 0.55457 0.4641 1.0125 0.0
H450 H 0.60377 0.45428 0.13149 0.0
C451 C 0.53027 0.4395 0.0418 0.0
C452 C 0.53225 0.41994 0.10317 0.0
H453 H 0.55248 0.47879 0.96517 0.0
H454 H 0.51004 0.43548 1.01395 0.0
C455 C 0.55916 0.42598 0.13577 0.0
C456 C 0.22666 0.40045 0.02695 0.0
C457 C 0.252 0.42633 0.02009 0.0
H458 H 0.18133 0.3795 0.03815 0.0
C459 C 0.25069 0.4512 0.01992 0.0
H460 H 0.22701 0.38092 0.02709 0.0
C461 C 0.2249 0.4504 0.02763 0.0
C462 C 0.1995 0.42469 0.03425 0.0
H463 H 0.26973 0.4715 1.0151 0.0
H464 H 0.22491 0.47012 0.02782 0.0
C465 C 0.20056 0.39962 0.03299 0.0
C466 C 0.80376 0.24506 0.03013 0.0
C467 C 0.82944 0.24507 0.02647 0.0
H468 H 0.75874 0.22059 0.03948 0.0
C469 C 0.82894 0.21927 0.02932 0.0
H470 H 0.80344 0.2646 0.02839 0.0
C471 C 0.8032 0.19394 0.03419 0.0
C472 C 0.77755 0.194 0.03812 0.0
H473 H 0.84839 0.21863 0.02633 0.0
H474 H 0.8034 0.17433 0.0355 0.0
C475 C 0.77814 0.21984 0.03673 0.0
C476 C 0.57401 0.779 0.04521 0.0
C477 C 0.59972 0.77925 0.052 0.0
H478 H 0.55314 0.80266 0.02763 0.0
C479 C 0.62509 0.80505 0.04577 0.0
H480 H 0.55407 0.75948 0.04887 0.0
C481 C 0.62454 0.83023 0.03467 0.0
C482 C 0.59864 0.82973 0.02752 0.0
H483 H 0.6452 0.80579 0.05073 0.0
H484 H 0.64426 0.84995 0.03098 0.0
C485 C 0.57347 0.80383 0.03243 0.0
C486 C 0.79326 0.60788 0.06991 0.0
C487 C 0.76797 0.58194 0.06747 0.0
H488 H 0.83859 0.6291 0.0713 0.0
C489 C 0.76935 0.55709 0.07039 0.0
H490 H 0.79286 0.62738 0.06761 0.0
C491 C 0.79533 0.55805 0.07377 0.0
C492 C 0.82069 0.58389 0.073 0.0
H493 H 0.75026 0.53675 0.06923 0.0
H494 H 0.7955 0.53842 0.07446 0.0
C495 C 0.81941 0.60885 0.07188 0.0
C496 C 0.21275 0.76569 0.02842 0.0
C497 C 0.18709 0.76555 0.02051 0.0
H498 H 0.25745 0.78998 0.04391 0.0
C499 C 0.18737 0.79127 0.02293 0.0
H500 H 0.21329 0.74625 0.02747 0.0
C501 C 0.21306 0.8167 0.03124 0.0
C502 C 0.23868 0.81662 0.03914 0.0
H503 H 0.16787 0.79175 1.01685 0.0
H504 H 0.21288 0.83631 0.03187 0.0
C505 C 0.23813 0.79082 0.03829 0.0
C506 C 0.44782 0.20611 0.05623 0.0
C507 C 0.42246 0.18052 0.04781 0.0
H508 H 0.46762 0.25047 0.07508 0.0
C509 C 0.39674 0.18046 0.0516 0.0
H510 H 0.46797 0.20684 0.054 0.0
C511 C 0.39652 0.20575 0.06248 0.0
C512 C 0.42201 0.23128 0.0718 0.0
H513 H 0.37687 0.16097 0.04506 0.0
H514 H 0.37652 0.20532 0.06442 0.0
C515 C 0.44759 0.23112 0.06886 0.0
C516 C 0.13035 0.44508 0.48194 0.0
C517 C 0.12687 0.4191 0.45174 0.0
H518 H 0.136 0.4724 0.60181 0.0
C519 C 0.12588 0.40022 0.52361 0.0
H520 H 0.13062 0.45992 0.42932 0.0
C521 C 0.12865 0.4073 0.6228 0.0
C522 C 0.13274 0.43351 0.65242 0.0
H523 H 0.12359 0.38017 0.50347 0.0
H524 H 0.12849 0.39263 0.67602 0.0
C525 C 0.13332 0.45221 0.581 0.0
C526 C 0.69246 0.12856 0.48013 0.0
C527 C 0.71621 0.12717 0.45015 0.0
H528 H 0.66922 0.13193 0.59859 0.0
C529 C 0.73581 0.12926 0.52144 0.0
H530 H 0.67667 0.12645 0.42762 0.0
C531 C 0.73165 0.1326 0.62049 0.0
C532 C 0.70777 0.13388 0.65043 0.0
H533 H 0.7545 0.12855 0.50063 0.0
H534 H 0.74725 0.13441 0.67327 0.0
C535 C 0.68824 0.13176 0.57874 0.0
C536 C 0.57652 0.69289 0.50148 0.0
C537 C 0.6036 0.71357 0.47174 0.0
H538 H 0.5482 0.67304 0.62054 0.0
C539 C 0.62326 0.73041 0.54397 0.0
H540 H 0.56101 0.67915 0.44859 0.0
C541 C 0.61593 0.72675 0.64312 0.0
C542 C 0.58872 0.70633 0.67234 0.0
H543 H 0.64421 0.74679 0.52405 0.0
H544 H 0.63133 0.74037 0.69657 0.0
C545 C 0.56919 0.68934 0.60036 0.0
C546 C 0.90836 0.61246 0.51941 0.0
C547 C 0.88948 0.59494 0.44668 0.0
H548 H 0.91684 0.62052 0.67264 0.0
C549 C 0.86244 0.57386 0.47508 0.0
H550 H 0.92918 0.62922 0.49977 0.0
C551 C 0.85533 0.56897 0.57432 0.0
C552 C 0.87501 0.58515 0.64739 0.0
H553 H 0.8474 0.56003 0.42114 0.0
H554 H 0.83484 0.55165 0.59418 0.0
C555 C 0.90118 0.6077 0.61856 0.0
C556 C 0.29273 0.88623 0.62298 0.0
C557 C 0.31431 0.88119 0.65329 0.0
H558 H 0.27142 0.89246 0.50316 0.0
C559 C 0.33231 0.88008 0.58255 0.0
H560 H 0.27831 0.8868 0.67568 0.0
C561 C 0.32857 0.88352 0.48342 0.0
C562 C 0.30661 0.888 0.45252 0.0
H563 H 0.34941 0.87665 0.60397 0.0
H564 H 0.34304 0.88284 0.43132 0.0
C565 C 0.28882 0.88945 0.52377 0.0
C566 C 0.39839 0.28102 0.55813 0.0
C567 C 0.41837 0.29731 0.48629 0.0
H568 H 0.39006 0.27107 0.7105 0.0
C569 C 0.44583 0.31702 0.51659 0.0
H570 H 0.37712 0.26537 0.53782 0.0
C571 C 0.4532 0.32016 0.61561 0.0
C572 C 0.43333 0.30372 0.68722 0.0
H573 H 0.46163 0.33033 0.46406 0.0
H574 H 0.47449 0.33573 0.63618 0.0
C575 C 0.40576 0.28426 0.6574 0.0
C576 C 0.61257 0.89862 0.43798 0.0
C577 C 0.58569 0.89287 0.40786 0.0
H578 H 0.64039 0.9055 0.55761 0.0
C579 C 0.56634 0.89115 0.47876 0.0
H580 H 0.62775 0.89968 0.38513 0.0
C581 C 0.57358 0.8947 0.57786 0.0
C582 C 0.6003 0.89988 0.60862 0.0
H583 H 0.54558 0.88714 0.45748 0.0
H584 H 0.55822 0.89353 0.63005 0.0
C585 C 0.61976 0.90194 0.53718 0.0
C586 C 0.67649 0.56078 0.61085 0.0
C587 C 0.70064 0.58566 0.64091 0.0
H588 H 0.65277 0.53441 0.49102 0.0
C589 C 0.71923 0.60368 0.56863 0.0
H590 H 0.66137 0.54663 0.66357 0.0
C591 C 0.714 0.59681 0.46942 0.0
C592 C 0.69027 0.57162 0.44006 0.0
H593 H 0.73825 0.62284 0.58828 0.0
H594 H 0.72907 0.61071 0.41595 0.0
C595 C 0.67145 0.55382 0.51174 0.0
C596 C 0.11741 0.71196 0.4256 0.0
C597 C 0.12128 0.68967 0.3963 0.0
H598 H 0.11264 0.73431 0.54454 0.0
C599 C 0.12165 0.67147 0.46783 0.0
H600 H 0.11742 0.72653 0.37224 0.0
C601 C 0.11871 0.67573 0.56675 0.0
C602 C 0.11551 0.69844 0.59674 0.0
H603 H 0.12419 0.65385 0.44718 0.0
H604 H 0.11882 0.66109 0.61941 0.0
C605 C 0.1147 0.71638 0.52468 0.0
C606 C 0.40815 0.1202 0.45183 0.0
C607 C 0.43307 0.12093 0.42221 0.0
H608 H 0.38153 0.11699 0.57158 0.0
C609 C 0.45024 0.11847 0.49393 0.0
H610 H 0.39458 0.12227 0.39881 0.0
C611 C 0.44286 0.11557 0.59247 0.0
C612 C 0.41802 0.11488 0.62229 0.0
H613 H 0.46922 0.11821 0.47406 0.0
H614 H 0.45636 0.11322 0.64505 0.0
C615 C 0.40069 0.1172 0.55086 0.0
C616 C 0.3244 0.40892 0.54139 0.0
C617 C 0.32183 0.42606 0.61219 0.0
H618 H 0.32946 0.40266 0.39003 0.0
C619 C 0.32195 0.45048 0.58175 0.0
H620 H 0.32466 0.39009 0.56285 0.0
C621 C 0.32436 0.45753 0.48274 0.0
C622 C 0.32706 0.44051 0.41146 0.0
H623 H 0.31949 0.46382 0.63427 0.0
H624 H 0.32363 0.47617 0.46246 0.0
C625 C 0.32707 0.41609 0.44221 0.0
C626 C 0.89404 0.28589 0.5341 0.0
C627 C 0.89693 0.30563 0.60544 0.0
H628 H 0.88879 0.27486 0.38202 0.0
C629 C 0.89717 0.33015 0.57533 0.0
H630 H 0.89354 0.26665 0.55503 0.0
C631 C 0.8946 0.3349 0.47661 0.0
C632 C 0.89153 0.31517 0.40496 0.0
H633 H 0.89999 0.34607 0.62786 0.0
H634 H 0.89557 0.3544 0.45658 0.0
C635 C 0.89135 0.2906 0.4349 0.0
C636 C 0.03661 0.37613 0.10724 0.0
C637 C 0.0445 0.3651 0.02844 0.0
H638 H 1.00323 0.37565 0.18899 0.0
C639 C 0.02322 0.34347 0.97215 0.0
H640 H 0.05245 0.39259 0.15296 0.0
C641 C 0.99462 0.33393 0.99225 0.0
C642 C 0.98687 0.34541 0.07039 0.0
H643 H 0.02867 0.33458 0.91111 0.0
H644 H 0.97861 0.31774 0.94626 0.0
C645 C 1.00828 0.36627 0.1284 0.0
C646 C 0.64389 0.98885 0.94948 0.0
C647 C 0.65467 0.98086 0.02907 0.0
H648 H 0.64573 0.0223 0.86443 0.0
C649 C 0.67737 1.00175 0.08272 0.0
H650 H 0.62666 0.9732 0.90563 0.0
C651 C 0.68817 0.03023 0.05961 0.0
C652 C 0.67689 0.03815 0.98097 0.0
H653 H 0.68614 0.99614 0.14407 0.0
H654 H 0.7051 0.04604 0.10391 0.0
C655 C 0.655 0.01706 0.9252 0.0
C656 C 0.65073 0.627 0.98749 0.0
C657 C 0.67443 0.64118 0.04917 0.0
H658 H 0.61539 0.62666 0.91916 0.0
C659 C 0.68109 0.6676 0.08637 0.0
H660 H 0.64523 0.60684 0.95578 0.0
C661 C 0.66375 0.67904 0.06522 0.0
C662 C 0.63966 0.66445 1.00523 0.0
H663 H 0.69929 0.67912 0.13342 0.0
H664 H 0.66897 0.6991 0.09713 0.0
C665 C 0.63369 0.63852 0.96548 0.0
C666 C 0.01454 0.67536 0.07493 0.0
C667 C 0.03482 0.67424 1.01547 0.0
H668 H 0.9704 0.65964 0.10014 0.0
C669 C 0.02592 0.65766 0.93035 0.0
H670 H 0.02087 0.68802 0.14077 0.0
C671 C 0.99736 0.64215 0.90571 0.0
C672 C 0.97688 0.64229 0.9668 0.0
H673 H 0.04112 0.65665 0.88244 0.0
H674 H 0.9913 0.62928 0.84038 0.0
C675 C 0.98574 0.65916 0.05157 0.0
C676 C 0.34958 0.97596 0.1166 0.0
C677 C 0.332 0.96856 0.03367 0.0
H678 H 0.38093 0.00879 0.20492 0.0
C679 C 0.33201 0.9899 0.97726 0.0
H680 H 0.34977 0.95993 0.16238 0.0
C681 C 0.35038 0.01822 1.00114 0.0
C682 C 0.36846 0.02551 0.08306 0.0
H683 H 0.31863 0.98474 0.91317 0.0
H684 H 0.35067 0.03438 0.95492 0.0
C685 C 0.36737 1.00401 0.14146 0.0
C686 C 0.34111 0.34388 0.08479 0.0
C687 C 0.3478 0.36988 0.04339 0.0
H688 H 0.35339 0.31269 0.10413 0.0
C689 C 0.37186 0.38363 0.98362 0.0
H690 H 0.32263 0.33267 0.13049 0.0
C691 C 0.38916 0.37212 0.96737 0.0
C692 C 0.38308 0.34659 1.011 0.0
H693 H 0.3774 0.40341 0.94861 0.0
H694 H 0.40767 0.38363 0.92208 0.0
C695 C 0.3587 0.33243 0.06933 0.0
loop_
_geom_bond_atom_site_label_1
_geom_bond_atom_site_label_2
_geom_bond_distance
_geom_bond_site_symmetry_2
_ccdc_geom_bond_type
Co0 N4 2.148 . S
Co0 N10 2.128 1_554 S
Co0 N20 2.194 . S
Co0 O25 2.351 . S
Co0 O26 2.155 . S
Co0 O27 2.096 1_554 S
C1 N4 1.301 . S
C1 N5 1.328 . S
C1 H6 0.930 . S
C2 C3 1.333 . S
C2 N4 1.317 . S
C2 H7 0.930 . S
C3 C2 1.333 . S
C3 N5 1.350 . S
C3 H29 0.931 . S
N4 Co0 2.148 . S
N4 C1 1.301 . S
N4 C2 1.317 . S
N5 C1 1.328 . S
N5 C3 1.350 . S
H6 C1 0.930 . S
H7 C2 0.930 . S
C8 O9 1.224 . S
C8 O27 1.247 . S
O9 C8 1.224 . S
N10 Co0 2.128 1_556 S
N10 C11 1.355 . S
N10 C13 1.311 . S
C11 N10 1.355 . S
C11 C12 1.363 . S
C11 H23 0.929 . S
C12 C11 1.363 . S
C12 N14 1.375 . S
C12 H30 0.931 . S
C13 N10 1.311 . S
C13 N14 1.347 . S
C13 H24 0.929 . S
N14 C12 1.375 . S
N14 C13 1.347 . S
C15 C18 1.365 . S
C15 N20 1.328 . S
C15 H21 0.929 . S
C16 C17 1.362 . S
C16 C19 1.378 . S
C16 H31 0.929 . S
C17 C16 1.362 . S
C17 C18 1.366 . S
C18 C15 1.365 . S
C18 C17 1.366 . S
C18 H32 0.930 . S
C19 C16 1.378 . S
C19 N20 1.315 . S
C19 H22 0.930 . S
N20 Co0 2.194 . S
N20 C15 1.328 . S
N20 C19 1.315 . S
H21 C15 0.929 . S
H22 C19 0.930 . S
H23 C11 0.929 . S
H24 C13 0.929 . S
O25 Co0 2.351 . S
O25 C28 1.244 . S
O26 Co0 2.155 . S
O26 C28 1.240 . S
O27 Co0 2.096 1_556 S
O27 C8 1.247 . S
C28 O25 1.244 . S
C28 O26 1.240 . S
H29 C3 0.931 . S
H30 C12 0.931 . S
H31 C16 0.929 . S
H32 C18 0.930 . S
Co33 N37 2.148 . S
Co33 N43 2.128 1_554 S
Co33 N53 2.194 . S
Co33 O58 2.351 . S
Co33 O59 2.155 . S
Co33 O60 2.096 1_554 S
C34 N37 1.301 . S
C34 N38 1.328 . S
C34 H39 0.930 . S
C35 C36 1.333 . S
C35 N37 1.317 . S
C35 H40 0.930 . S
C36 C35 1.333 . S
C36 N38 1.350 . S
C36 H62 0.931 . S
N37 Co33 2.148 . S
N37 C34 1.301 . S
N37 C35 1.317 . S
N38 C34 1.328 . S
N38 C36 1.350 . S
H39 C34 0.930 . S
H40 C35 0.930 . S
C41 O42 1.224 . S
C41 O60 1.247 . S
O42 C41 1.224 . S
N43 Co33 2.128 1_556 S
N43 C44 1.355 . S
N43 C46 1.311 . S
C44 N43 1.355 . S
C44 C45 1.363 . S
C44 H56 0.929 . S
C45 C44 1.363 . S
C45 N47 1.375 . S
C45 H63 0.931 . S
C46 N43 1.311 . S
C46 N47 1.347 . S
C46 H57 0.929 . S
N47 C45 1.375 . S
N47 C46 1.347 . S
C48 C51 1.365 . S
C48 N53 1.328 . S
C48 H54 0.929 . S
C49 C50 1.362 . S
C49 C52 1.378 . S
C49 H64 0.929 . S
C50 C49 1.362 . S
C50 C51 1.366 . S
C51 C48 1.365 . S
C51 C50 1.366 . S
C51 H65 0.930 . S
C52 C49 1.378 . S
C52 N53 1.315 . S
C52 H55 0.930 . S
N53 Co33 2.194 . S
N53 C48 1.328 . S
N53 C52 1.315 . S
H54 C48 0.929 . S
H55 C52 0.930 . S
H56 C44 0.929 . S
H57 C46 0.929 . S
O58 Co33 2.351 . S
O58 C61 1.244 . S
O59 Co33 2.155 . S
O59 C61 1.240 . S
O60 Co33 2.096 1_556 S
O60 C41 1.247 . S
C61 O58 1.244 . S
C61 O59 1.240 . S
H62 C36 0.931 . S
H63 C45 0.931 . S
H64 C49 0.929 . S
H65 C51 0.930 . S
Co66 N70 2.148 . S
Co66 N76 2.128 1_554 S
Co66 N86 2.194 . S
Co66 O91 2.351 . S
Co66 O92 2.155 . S
Co66 O93 2.096 1_554 S
C67 N70 1.301 . S
C67 N71 1.328 . S
C67 H72 0.930 . S
C68 C69 1.333 . S
C68 N70 1.317 . S
C68 H73 0.930 . S
C69 C68 1.333 . S
C69 N71 1.350 . S
C69 H95 0.931 . S
N70 Co66 2.148 . S
N70 C67 1.301 . S
N70 C68 1.317 . S
N71 C67 1.328 . S
N71 C69 1.350 . S
H72 C67 0.930 . S
H73 C68 0.930 . S
C74 O75 1.224 . S
C74 O93 1.247 . S
O75 C74 1.224 . S
N76 Co66 2.128 1_556 S
N76 C77 1.355 . S
N76 C79 1.311 . S
C77 N76 1.355 . S
C77 C78 1.363 . S
C77 H89 0.929 . S
C78 C77 1.363 . S
C78 N80 1.375 . S
C78 H96 0.931 . S
C79 N76 1.311 . S
C79 N80 1.347 . S
C79 H90 0.929 . S
N80 C78 1.375 . S
N80 C79 1.347 . S
C81 C84 1.365 . S
C81 N86 1.328 . S
C81 H87 0.929 . S
C82 C83 1.362 . S
C82 C85 1.378 . S
C82 H97 0.929 . S
C83 C82 1.362 . S
C83 C84 1.366 . S
C84 C81 1.365 . S
C84 C83 1.366 . S
C84 H98 0.930 . S
C85 C82 1.378 . S
C85 N86 1.315 . S
C85 H88 0.930 . S
N86 Co66 2.194 . S
N86 C81 1.328 . S
N86 C85 1.315 . S
H87 C81 0.929 . S
H88 C85 0.930 . S
H89 C77 0.929 . S
H90 C79 0.929 . S
O91 Co66 2.351 . S
O91 C94 1.244 . S
O92 Co66 2.155 . S
O92 C94 1.240 . S
O93 Co66 2.096 1_556 S
O93 C74 1.247 . S
C94 O91 1.244 . S
C94 O92 1.240 . S
H95 C69 0.931 . S
H96 C78 0.931 . S
H97 C82 0.929 . S
H98 C84 0.930 . S
Co99 N103 2.148 . S
Co99 N109 2.128 1_554 S
Co99 N119 2.194 . S
Co99 O124 2.351 . S
Co99 O125 2.155 . S
Co99 O126 2.096 1_554 S
C100 N103 1.301 . S
C100 N104 1.328 . S
C100 H105 0.930 . S
C101 C102 1.333 . S
C101 N103 1.317 . S
C101 H106 0.930 . S
C102 C101 1.333 . S
C102 N104 1.350 . S
C102 H128 0.931 . S
N103 Co99 2.148 . S
N103 C100 1.301 . S
N103 C101 1.317 . S
N104 C100 1.328 . S
N104 C102 1.350 . S
H105 C100 0.930 . S
H106 C101 0.930 . S
C107 O108 1.224 . S
C107 O126 1.247 . S
O108 C107 1.224 . S
N109 Co99 2.128 1_556 S
N109 C110 1.355 . S
N109 C112 1.311 . S
C110 N109 1.355 . S
C110 C111 1.363 . S
C110 H122 0.929 . S
C111 C110 1.363 . S
C111 N113 1.375 . S
C111 H129 0.931 . S
C112 N109 1.311 . S
C112 N113 1.347 . S
C112 H123 0.929 . S
N113 C111 1.375 . S
N113 C112 1.347 . S
C114 C117 1.365 . S
C114 N119 1.328 . S
C114 H120 0.929 . S
C115 C116 1.362 . S
C115 C118 1.378 . S
C115 H130 0.929 . S
C116 C115 1.362 . S
C116 C117 1.366 . S
C117 C114 1.365 . S
C117 C116 1.366 . S
C117 H131 0.930 . S
C118 C115 1.378 . S
C118 N119 1.315 . S
C118 H121 0.930 . S
N119 Co99 2.194 . S
N119 C114 1.328 . S
N119 C118 1.315 . S
H120 C114 0.929 . S
H121 C118 0.930 . S
H122 C110 0.929 . S
H123 C112 0.929 . S
O124 Co99 2.351 . S
O124 C127 1.244 . S
O125 Co99 2.155 . S
O125 C127 1.240 . S
O126 Co99 2.096 1_556 S
O126 C107 1.247 . S
C127 O124 1.244 . S
C127 O125 1.240 . S
H128 C102 0.931 . S
H129 C111 0.931 . S
H130 C115 0.929 . S
H131 C117 0.930 . S
Co132 N136 2.148 . S
Co132 N142 2.128 1_554 S
Co132 N152 2.194 . S
Co132 O157 2.351 . S
Co132 O158 2.155 . S
Co132 O159 2.096 1_554 S
C133 N136 1.301 . S
C133 N137 1.328 . S
C133 H138 0.930 . S
C134 C135 1.333 . S
C134 N136 1.317 . S
C134 H139 0.930 . S
C135 C134 1.333 . S
C135 N137 1.350 . S
C135 H161 0.931 . S
N136 Co132 2.148 . S
N136 C133 1.301 . S
N136 C134 1.317 . S
N137 C133 1.328 . S
N137 C135 1.350 . S
H138 C133 0.930 . S
H139 C134 0.930 . S
C140 O141 1.224 . S
C140 O159 1.247 . S
O141 C140 1.224 . S
N142 Co132 2.128 1_556 S
N142 C143 1.355 . S
N142 C145 1.311 . S
C143 N142 1.355 . S
C143 C144 1.363 . S
C143 H155 0.929 . S
C144 C143 1.363 . S
C144 N146 1.375 . S
C144 H162 0.931 . S
C145 N142 1.311 . S
C145 N146 1.347 . S
C145 H156 0.929 . S
N146 C144 1.375 . S
N146 C145 1.347 . S
C147 C150 1.365 . S
C147 N152 1.328 . S
C147 H153 0.929 . S
C148 C149 1.362 . S
C148 C151 1.378 . S
C148 H163 0.929 . S
C149 C148 1.362 . S
C149 C150 1.366 . S
C150 C147 1.365 . S
C150 C149 1.366 . S
C150 H164 0.930 . S
C151 C148 1.378 . S
C151 N152 1.315 . S
C151 H154 0.930 . S
N152 Co132 2.194 . S
N152 C147 1.328 . S
N152 C151 1.315 . S
H153 C147 0.929 . S
H154 C151 0.930 . S
H155 C143 0.929 . S
H156 C145 0.929 . S
O157 Co132 2.351 . S
O157 C160 1.244 . S
O158 Co132 2.155 . S
O158 C160 1.240 . S
O159 Co132 2.096 1_556 S
O159 C140 1.247 . S
C160 O157 1.244 . S
C160 O158 1.240 . S
H161 C135 0.931 . S
H162 C144 0.931 . S
H163 C148 0.929 . S
H164 C150 0.930 . S
Co165 N169 2.148 . S
Co165 N175 2.128 1_554 S
Co165 N185 2.194 . S
Co165 O190 2.351 . S
Co165 O191 2.155 . S
Co165 O192 2.096 1_554 S
C166 N169 1.301 . S
C166 N170 1.328 . S
C166 H171 0.930 . S
C167 C168 1.333 . S
C167 N169 1.317 . S
C167 H172 0.930 . S
C168 C167 1.333 . S
C168 N170 1.350 . S
C168 H194 0.931 . S
N169 Co165 2.148 . S
N169 C166 1.301 . S
N169 C167 1.317 . S
N170 C166 1.328 . S
N170 C168 1.350 . S
H171 C166 0.930 . S
H172 C167 0.930 . S
C173 O174 1.224 . S
C173 O192 1.247 . S
O174 C173 1.224 . S
N175 Co165 2.128 1_556 S
N175 C176 1.355 . S
N175 C178 1.311 . S
C176 N175 1.355 . S
C176 C177 1.363 . S
C176 H188 0.929 . S
C177 C176 1.363 . S
C177 N179 1.375 . S
C177 H195 0.931 . S
C178 N175 1.311 . S
C178 N179 1.347 . S
C178 H189 0.929 . S
N179 C177 1.375 . S
N179 C178 1.347 . S
C180 C183 1.365 . S
C180 N185 1.328 . S
C180 H186 0.929 . S
C181 C182 1.362 . S
C181 C184 1.378 . S
C181 H196 0.929 . S
C182 C181 1.362 . S
C182 C183 1.366 . S
C183 C180 1.365 . S
C183 C182 1.366 . S
C183 H197 0.930 . S
C184 C181 1.378 . S
C184 N185 1.315 . S
C184 H187 0.930 . S
N185 Co165 2.194 . S
N185 C180 1.328 . S
N185 C184 1.315 . S
H186 C180 0.929 . S
H187 C184 0.930 . S
H188 C176 0.929 . S
H189 C178 0.929 . S
O190 Co165 2.351 . S
O190 C193 1.244 . S
O191 Co165 2.155 . S
O191 C193 1.240 . S
O192 Co165 2.096 1_556 S
O192 C173 1.247 . S
C193 O190 1.244 . S
C193 O191 1.240 . S
H194 C168 0.931 . S
H195 C177 0.931 . S
H196 C181 0.929 . S
H197 C183 0.930 . S
Co198 N202 2.148 1_554 S
Co198 N208 2.128 . S
Co198 N218 2.194 . S
Co198 O223 2.351 1_554 S
Co198 O224 2.155 . S
Co198 O225 2.096 . S
C199 N202 1.301 . S
C199 N203 1.328 . S
C199 H204 0.930 . S
C200 C201 1.333 . S
C200 N202 1.317 . S
C200 H205 0.930 . S
C201 C200 1.333 . S
C201 N203 1.350 . S
C201 H227 0.931 . S
N202 Co198 2.148 1_556 S
N202 C199 1.301 . S
N202 C200 1.317 . S
N203 C199 1.328 . S
N203 C201 1.350 . S
H204 C199 0.930 . S
H205 C200 0.930 . S
C206 O207 1.224 . S
C206 O225 1.247 . S
O207 C206 1.224 . S
N208 Co198 2.128 . S
N208 C209 1.355 . S
N208 C211 1.311 . S
C209 N208 1.355 . S
C209 C210 1.363 . S
C209 H221 0.929 . S
C210 C209 1.363 . S
C210 N212 1.375 . S
C210 H228 0.931 . S
C211 N208 1.311 . S
C211 N212 1.347 . S
C211 H222 0.929 . S
N212 C210 1.375 . S
N212 C211 1.347 . S
C213 C216 1.365 . S
C213 N218 1.328 1_556 S
C213 H219 0.929 . S
C214 C215 1.362 . S
C214 C217 1.378 . S
C214 H229 0.929 . S
C215 C214 1.362 . S
C215 C216 1.366 1_554 S
C216 C213 1.365 . S
C216 C215 1.366 1_556 S
C216 H230 0.930 . S
C217 C214 1.378 . S
C217 N218 1.316 . S
C217 H220 0.930 . S
N218 Co198 2.194 . S
N218 C213 1.328 1_554 S
N218 C217 1.316 . S
H219 C213 0.929 . S
H220 C217 0.930 . S
H221 C209 0.929 . S
H222 C211 0.929 . S
O223 Co198 2.351 1_556 S
O223 C226 1.245 . S
O224 Co198 2.155 . S
O224 C226 1.238 1_554 S
O225 Co198 2.096 . S
O225 C206 1.247 . S
C226 O223 1.245 . S
C226 O224 1.238 1_556 S
H227 C201 0.931 . S
H228 C210 0.931 . S
H229 C214 0.929 . S
H230 C216 0.930 . S
Co231 N235 2.148 1_554 S
Co231 N241 2.128 . S
Co231 N251 2.194 . S
Co231 O256 2.351 1_554 S
Co231 O257 2.155 . S
Co231 O258 2.096 . S
C232 N235 1.301 . S
C232 N236 1.328 . S
C232 H237 0.930 . S
C233 C234 1.333 . S
C233 N235 1.317 . S
C233 H238 0.930 . S
C234 C233 1.333 . S
C234 N236 1.350 . S
C234 H260 0.931 . S
N235 Co231 2.148 1_556 S
N235 C232 1.301 . S
N235 C233 1.317 . S
N236 C232 1.328 . S
N236 C234 1.350 . S
H237 C232 0.930 . S
H238 C233 0.930 . S
C239 O240 1.224 . S
C239 O258 1.247 . S
O240 C239 1.224 . S
N241 Co231 2.128 . S
N241 C242 1.355 . S
N241 C244 1.311 . S
C242 N241 1.355 . S
C242 C243 1.363 . S
C242 H254 0.929 . S
C243 C242 1.363 . S
C243 N245 1.375 . S
C243 H261 0.931 . S
C244 N241 1.311 . S
C244 N245 1.347 . S
C244 H255 0.929 . S
N245 C243 1.375 . S
N245 C244 1.347 . S
C246 C249 1.365 . S
C246 N251 1.328 1_556 S
C246 H252 0.929 . S
C247 C248 1.362 . S
C247 C250 1.378 . S
C247 H262 0.929 . S
C248 C247 1.362 . S
C248 C249 1.366 1_554 S
C249 C246 1.365 . S
C249 C248 1.366 1_556 S
C249 H263 0.930 . S
C250 C247 1.378 . S
C250 N251 1.316 . S
C250 H253 0.930 . S
N251 Co231 2.194 . S
N251 C246 1.328 1_554 S
N251 C250 1.316 . S
H252 C246 0.929 . S
H253 C250 0.930 . S
H254 C242 0.929 . S
H255 C244 0.929 . S
O256 Co231 2.351 1_556 S
O256 C259 1.245 . S
O257 Co231 2.155 . S
O257 C259 1.238 1_554 S
O258 Co231 2.096 . S
O258 C239 1.247 . S
C259 O256 1.245 . S
C259 O257 1.238 1_556 S
H260 C234 0.931 . S
H261 C243 0.931 . S
H262 C247 0.929 . S
H263 C249 0.930 . S
Co264 N268 2.148 1_554 S
Co264 N274 2.128 . S
Co264 N284 2.194 . S
Co264 O289 2.351 1_554 S
Co264 O290 2.155 . S
Co264 O291 2.096 . S
C265 N268 1.301 . S
C265 N269 1.328 . S
C265 H270 0.930 . S
C266 C267 1.333 . S
C266 N268 1.317 . S
C266 H271 0.930 . S
C267 C266 1.333 . S
C267 N269 1.350 . S
C267 H293 0.931 . S
N268 Co264 2.148 1_556 S
N268 C265 1.301 . S
N268 C266 1.317 . S
N269 C265 1.328 . S
N269 C267 1.350 . S
H270 C265 0.930 . S
H271 C266 0.930 . S
C272 O273 1.224 . S
C272 O291 1.247 . S
O273 C272 1.224 . S
N274 Co264 2.128 . S
N274 C275 1.355 . S
N274 C277 1.311 . S
C275 N274 1.355 . S
C275 C276 1.363 . S
C275 H287 0.929 . S
C276 C275 1.363 . S
C276 N278 1.375 . S
C276 H294 0.931 . S
C277 N274 1.311 . S
C277 N278 1.347 . S
C277 H288 0.929 . S
N278 C276 1.375 . S
N278 C277 1.347 . S
C279 C282 1.365 . S
C279 N284 1.328 1_556 S
C279 H285 0.929 . S
C280 C281 1.362 . S
C280 C283 1.378 . S
C280 H295 0.929 . S
C281 C280 1.362 . S
C281 C282 1.366 1_554 S
C282 C279 1.365 . S
C282 C281 1.366 1_556 S
C282 H296 0.930 . S
C283 C280 1.378 . S
C283 N284 1.316 . S
C283 H286 0.930 . S
N284 Co264 2.194 . S
N284 C279 1.328 1_554 S
N284 C283 1.316 . S
H285 C279 0.929 . S
H286 C283 0.930 . S
H287 C275 0.929 . S
H288 C277 0.929 . S
O289 Co264 2.351 1_556 S
O289 C292 1.245 . S
O290 Co264 2.155 . S
O290 C292 1.238 1_554 S
O291 Co264 2.096 . S
O291 C272 1.247 . S
C292 O289 1.245 . S
C292 O290 1.238 1_556 S
H293 C267 0.931 . S
H294 C276 0.931 . S
H295 C280 0.929 . S
H296 C282 0.930 . S
Co297 N301 2.148 1_554 S
Co297 N307 2.128 . S
Co297 N317 2.194 . S
Co297 O322 2.351 1_554 S
Co297 O323 2.155 . S
Co297 O324 2.096 . S
C298 N301 1.301 . S
C298 N302 1.328 . S
C298 H303 0.930 . S
C299 C300 1.333 . S
C299 N301 1.317 . S
C299 H304 0.930 . S
C300 C299 1.333 . S
C300 N302 1.350 . S
C300 H326 0.931 . S
N301 Co297 2.148 1_556 S
N301 C298 1.301 . S
N301 C299 1.317 . S
N302 C298 1.328 . S
N302 C300 1.350 . S
H303 C298 0.930 . S
H304 C299 0.930 . S
C305 O306 1.224 . S
C305 O324 1.247 . S
O306 C305 1.224 . S
N307 Co297 2.128 . S
N307 C308 1.355 . S
N307 C310 1.311 . S
C308 N307 1.355 . S
C308 C309 1.363 . S
C308 H320 0.929 . S
C309 C308 1.363 . S
C309 N311 1.375 . S
C309 H327 0.931 . S
C310 N307 1.311 . S
C310 N311 1.347 . S
C310 H321 0.929 . S
N311 C309 1.375 . S
N311 C310 1.347 . S
C312 C315 1.365 . S
C312 N317 1.328 1_556 S
C312 H318 0.929 . S
C313 C314 1.362 . S
C313 C316 1.378 . S
C313 H328 0.929 . S
C314 C313 1.362 . S
C314 C315 1.366 1_554 S
C315 C312 1.365 . S
C315 C314 1.366 1_556 S
C315 H329 0.930 . S
C316 C313 1.378 . S
C316 N317 1.316 . S
C316 H319 0.930 . S
N317 Co297 2.194 . S
N317 C312 1.328 1_554 S
N317 C316 1.316 . S
H318 C312 0.929 . S
H319 C316 0.930 . S
H320 C308 0.929 . S
H321 C310 0.929 . S
O322 Co297 2.351 1_556 S
O322 C325 1.245 . S
O323 Co297 2.155 . S
O323 C325 1.238 1_554 S
O324 Co297 2.096 . S
O324 C305 1.247 . S
C325 O322 1.245 . S
C325 O323 1.238 1_556 S
H326 C300 0.931 . S
H327 C309 0.931 . S
H328 C313 0.929 . S
H329 C315 0.930 . S
Co330 N334 2.148 1_554 S
Co330 N340 2.128 . S
Co330 N350 2.194 . S
Co330 O355 2.351 1_554 S
Co330 O356 2.155 . S
Co330 O357 2.096 . S
C331 N334 1.301 . S
C331 N335 1.328 . S
C331 H336 0.930 . S
C332 C333 1.333 . S
C332 N334 1.317 . S
C332 H337 0.930 . S
C333 C332 1.333 . S
C333 N335 1.350 . S
C333 H359 0.931 . S
N334 Co330 2.148 1_556 S
N334 C331 1.301 . S
N334 C332 1.317 . S
N335 C331 1.328 . S
N335 C333 1.350 . S
H336 C331 0.930 . S
H337 C332 0.930 . S
C338 O339 1.224 . S
C338 O357 1.247 . S
O339 C338 1.224 . S
N340 Co330 2.128 . S
N340 C341 1.355 . S
N340 C343 1.311 . S
C341 N340 1.355 . S
C341 C342 1.363 . S
C341 H353 0.929 . S
C342 C341 1.363 . S
C342 N344 1.375 . S
C342 H360 0.931 . S
C343 N340 1.311 . S
C343 N344 1.347 . S
C343 H354 0.929 . S
N344 C342 1.375 . S
N344 C343 1.347 . S
C345 C348 1.365 . S
C345 N350 1.328 1_556 S
C345 H351 0.929 . S
C346 C347 1.362 . S
C346 C349 1.378 . S
C346 H361 0.929 . S
C347 C346 1.362 . S
C347 C348 1.366 1_554 S
C348 C345 1.365 . S
C348 C347 1.366 1_556 S
C348 H362 0.930 . S
C349 C346 1.378 . S
C349 N350 1.316 . S
C349 H352 0.930 . S
N350 Co330 2.194 . S
N350 C345 1.328 1_554 S
N350 C349 1.316 . S
H351 C345 0.929 . S
H352 C349 0.930 . S
H353 C341 0.929 . S
H354 C343 0.929 . S
O355 Co330 2.351 1_556 S
O355 C358 1.245 . S
O356 Co330 2.155 . S
O356 C358 1.238 1_554 S
O357 Co330 2.096 . S
O357 C338 1.247 . S
C358 O355 1.245 . S
C358 O356 1.238 1_556 S
H359 C333 0.931 . S
H360 C342 0.931 . S
H361 C346 0.929 . S
H362 C348 0.930 . S
Co363 N367 2.148 1_554 S
Co363 N373 2.128 . S
Co363 N383 2.194 . S
Co363 O388 2.351 1_554 S
Co363 O389 2.155 . S
Co363 O390 2.096 . S
C364 N367 1.301 . S
C364 N368 1.328 . S
C364 H369 0.930 . S
C365 C366 1.333 . S
C365 N367 1.317 . S
C365 H370 0.930 . S
C366 C365 1.333 . S
C366 N368 1.350 . S
C366 H392 0.931 . S
N367 Co363 2.148 1_556 S
N367 C364 1.301 . S
N367 C365 1.317 . S
N368 C364 1.328 . S
N368 C366 1.350 . S
H369 C364 0.930 . S
H370 C365 0.930 . S
C371 O372 1.224 . S
C371 O390 1.247 . S
O372 C371 1.224 . S
N373 Co363 2.128 . S
N373 C374 1.355 . S
N373 C376 1.311 . S
C374 N373 1.355 . S
C374 C375 1.363 . S
C374 H386 0.929 . S
C375 C374 1.363 . S
C375 N377 1.375 . S
C375 H393 0.931 . S
C376 N373 1.311 . S
C376 N377 1.347 . S
C376 H387 0.929 . S
N377 C375 1.375 . S
N377 C376 1.347 . S
C378 C381 1.365 . S
C378 N383 1.328 1_556 S
C378 H384 0.929 . S
C379 C380 1.362 . S
C379 C382 1.378 . S
C379 H394 0.929 . S
C380 C379 1.362 . S
C380 C381 1.366 1_554 S
C381 C378 1.365 . S
C381 C380 1.366 1_556 S
C381 H395 0.930 . S
C382 C379 1.378 . S
C382 N383 1.316 . S
C382 H385 0.930 . S
N383 Co363 2.194 . S
N383 C378 1.328 1_554 S
N383 C382 1.316 . S
H384 C378 0.929 . S
H385 C382 0.930 . S
H386 C374 0.929 . S
H387 C376 0.929 . S
O388 Co363 2.351 1_556 S
O388 C391 1.245 . S
O389 Co363 2.155 . S
O389 C391 1.238 1_554 S
O390 Co363 2.096 . S
O390 C371 1.247 . S
C391 O388 1.245 . S
C391 O389 1.238 1_556 S
H392 C366 0.931 . S
H393 C375 0.931 . S
H394 C379 0.929 . S
H395 C381 0.930 . S
C396 C397 1.387 1_556 S
C396 H400 0.950 . S
C396 C405 1.390 . S
C397 C396 1.387 1_554 S
C397 C399 1.387 . S
H398 C405 0.950 . S
C399 C397 1.387 . S
C399 C401 1.390 . S
C399 H403 0.950 . S
H400 C396 0.950 . S
C401 C399 1.390 . S
C401 C402 1.387 . S
C401 H404 0.950 . S
C402 C401 1.387 . S
C402 C405 1.387 1_554 S
H403 C399 0.950 . S
H404 C401 0.950 . S
C405 C396 1.390 . S
C405 H398 0.950 . S
C405 C402 1.387 1_556 S
C406 C407 1.387 . S
C406 H410 0.950 . S
C406 C415 1.390 . S
C407 C406 1.387 . S
C407 C409 1.387 . S
H408 C415 0.950 . S
C409 C407 1.387 . S
C409 C411 1.390 . S
C409 H413 0.950 . S
H410 C406 0.950 . S
C411 C409 1.390 . S
C411 C412 1.387 . S
C411 H414 0.950 . S
C412 C411 1.387 . S
C412 C415 1.387 . S
H413 C409 0.950 . S
H414 C411 0.950 . S
C415 C406 1.390 . S
C415 H408 0.950 . S
C415 C412 1.387 . S
C416 C417 1.387 . S
C416 H420 0.950 . S
C416 C425 1.390 . S
C417 C416 1.387 . S
C417 C419 1.387 1_554 S
H418 C425 0.950 . S
C419 C417 1.387 1_556 S
C419 C421 1.390 . S
C419 H423 0.950 . S
H420 C416 0.950 . S
C421 C419 1.390 . S
C421 C422 1.387 1_556 S
C421 H424 0.950 . S
C422 C421 1.387 1_554 S
C422 C425 1.387 . S
H423 C419 0.950 . S
H424 C421 0.950 . S
C425 C416 1.390 . S
C425 H418 0.950 . S
C425 C422 1.387 . S
C426 C427 1.387 1_556 S
C426 H430 0.950 . S
C426 C435 1.390 . S
C427 C426 1.387 1_554 S
C427 C429 1.387 . S
H428 C435 0.950 . S
C429 C427 1.387 . S
C429 C431 1.390 . S
C429 H433 0.950 . S
H430 C426 0.950 . S
C431 C429 1.390 . S
C431 C432 1.387 . S
C431 H434 0.950 . S
C432 C431 1.387 . S
C432 C435 1.387 1_554 S
H433 C429 0.950 . S
H434 C431 0.950 . S
C435 C426 1.390 . S
C435 H428 0.950 . S
C435 C432 1.387 1_556 S
C436 C437 1.387 . S
C436 H440 0.950 . S
C436 C445 1.390 . S
C437 C436 1.387 . S
C437 C439 1.387 . S
H438 C445 0.950 . S
C439 C437 1.387 . S
C439 C441 1.390 . S
C439 H443 0.950 . S
H440 C436 0.950 . S
C441 C439 1.390 . S
C441 C442 1.387 . S
C441 H444 0.950 . S
C442 C441 1.387 . S
C442 C445 1.387 . S
H443 C439 0.950 . S
H444 C441 0.950 . S
C445 C436 1.390 . S
C445 H438 0.950 . S
C445 C442 1.387 . S
C446 C447 1.387 . S
C446 H450 0.950 . S
C446 C455 1.390 . S
C447 C446 1.387 . S
C447 C449 1.387 1_554 S
H448 C455 0.950 . S
C449 C447 1.387 1_556 S
C449 C451 1.390 . S
C449 H453 0.950 . S
H450 C446 0.950 . S
C451 C449 1.390 . S
C451 C452 1.387 1_556 S
C451 H454 0.950 . S
C452 C451 1.387 1_554 S
C452 C455 1.387 . S
H453 C449 0.950 . S
H454 C451 0.950 . S
C455 C446 1.390 . S
C455 H448 0.950 . S
C455 C452 1.387 . S
C456 C457 1.387 1_554 S
C456 H460 0.951 . S
C456 C465 1.390 . S
C457 C456 1.387 1_556 S
C457 C459 1.387 1_556 S
H458 C465 0.950 . S
C459 C457 1.387 1_554 S
C459 C461 1.390 . S
C459 H463 0.950 . S
H460 C456 0.951 . S
C461 C459 1.390 . S
C461 C462 1.387 . S
C461 H464 0.950 . S
C462 C461 1.387 . S
C462 C465 1.387 . S
H463 C459 0.950 . S
H464 C461 0.950 . S
C465 C456 1.390 . S
C465 H458 0.950 . S
C465 C462 1.387 . S
C466 C467 1.376 1_554 S
C466 H470 0.950 . S
C466 C475 1.390 . S
C467 C466 1.376 1_556 S
C467 C469 1.397 . S
H468 C475 0.950 . S
C469 C467 1.397 . S
C469 C471 1.390 . S
C469 H473 0.950 . S
H470 C466 0.950 . S
C471 C469 1.390 . S
C471 C472 1.387 1_556 S
C471 H474 0.950 . S
C472 C471 1.387 1_554 S
C472 C475 1.387 . S
H473 C469 0.950 . S
H474 C471 0.950 . S
C475 C466 1.390 . S
C475 H468 0.950 . S
C475 C472 1.387 . S
C476 C477 1.387 1_556 S
C476 H480 0.950 . S
C476 C485 1.390 . S
C477 C476 1.387 1_554 S
C477 C479 1.387 . S
H478 C485 0.950 . S
C479 C477 1.387 . S
C479 C481 1.390 . S
C479 H483 0.950 . S
H480 C476 0.950 . S
C481 C479 1.390 . S
C481 C482 1.376 1_554 S
C481 H484 0.950 . S
C482 C481 1.376 1_556 S
C482 C485 1.397 . S
H483 C479 0.950 . S
H484 C481 0.950 . S
C485 C476 1.390 . S
C485 H478 0.950 . S
C485 C482 1.397 . S
C486 C487 1.387 1_554 S
C486 H490 0.951 . S
C486 C495 1.390 . S
C487 C486 1.387 1_556 S
C487 C489 1.387 1_556 S
H488 C495 0.950 . S
C489 C487 1.387 1_554 S
C489 C491 1.390 . S
C489 H493 0.950 . S
H490 C486 0.951 . S
C491 C489 1.390 . S
C491 C492 1.387 . S
C491 H494 0.950 . S
C492 C491 1.387 . S
C492 C495 1.387 . S
H493 C489 0.950 . S
H494 C491 0.950 . S
C495 C486 1.390 . S
C495 H488 0.950 . S
C495 C492 1.387 . S
C496 C497 1.387 1_554 S
C496 H500 0.950 . S
C496 C505 1.390 . S
C497 C496 1.387 1_556 S
C497 C499 1.387 . S
H498 C505 0.950 . S
C499 C497 1.387 . S
C499 C501 1.390 . S
C499 H503 0.950 . S
H500 C496 0.950 . S
C501 C499 1.390 . S
C501 C502 1.387 1_556 S
C501 H504 0.950 . S
C502 C501 1.387 1_554 S
C502 C505 1.387 . S
H503 C499 0.950 . S
H504 C501 0.950 . S
C505 C496 1.390 . S
C505 H498 0.950 . S
C505 C502 1.387 . S
C506 C507 1.394 . S
C506 H510 0.950 . S
C506 C515 1.390 . S
C507 C506 1.394 . S
C507 C509 1.379 1_556 S
H508 C515 0.950 . S
C509 C507 1.379 1_554 S
C509 C511 1.390 . S
C509 H513 0.950 . S
H510 C506 0.950 . S
C511 C509 1.390 . S
C511 C512 1.387 . S
C511 H514 0.950 . S
C512 C511 1.387 . S
C512 C515 1.387 1_554 S
H513 C509 0.950 . S
H514 C511 0.950 . S
C515 C506 1.390 . S
C515 H508 0.950 . S
C515 C512 1.387 1_556 S
C516 C517 1.387 . S
C516 H520 0.950 . S
C516 C525 1.390 . S
C517 C516 1.387 . S
C517 C519 1.387 . S
H518 C525 0.950 . S
C519 C517 1.387 . S
C519 C521 1.390 . S
C519 H523 0.950 . S
H520 C516 0.950 . S
C521 C519 1.390 . S
C521 C522 1.387 . S
C521 H524 0.950 . S
C522 C521 1.387 . S
C522 C525 1.387 . S
H523 C519 0.950 . S
H524 C521 0.950 . S
C525 C516 1.390 . S
C525 H518 0.950 . S
C525 C522 1.387 . S
C526 C527 1.387 . S
C526 H530 0.950 . S
C526 C535 1.390 . S
C527 C526 1.387 . S
C527 C529 1.387 . S
H528 C535 0.950 . S
C529 C527 1.387 . S
C529 C531 1.390 . S
C529 H533 0.950 . S
H530 C526 0.950 . S
C531 C529 1.390 . S
C531 C532 1.387 . S
C531 H534 0.950 . S
C532 C531 1.387 . S
C532 C535 1.387 . S
H533 C529 0.950 . S
H534 C531 0.950 . S
C535 C526 1.390 . S
C535 H528 0.950 . S
C535 C532 1.387 . S
C536 C537 1.387 . S
C536 H540 0.950 . S
C536 C545 1.390 . S
C537 C536 1.387 . S
C537 C539 1.387 . S
H538 C545 0.950 . S
C539 C537 1.387 . S
C539 C541 1.390 . S
C539 H543 0.950 . S
H540 C536 0.950 . S
C541 C539 1.390 . S
C541 C542 1.387 . S
C541 H544 0.950 . S
C542 C541 1.387 . S
C542 C545 1.387 . S
H543 C539 0.950 . S
H544 C541 0.950 . S
C545 C536 1.390 . S
C545 H538 0.950 . S
C545 C542 1.387 . S
C546 C547 1.387 . S
C546 H550 0.950 . S
C546 C555 1.390 . S
C547 C546 1.387 . S
C547 C549 1.387 . S
H548 C555 0.950 . S
C549 C547 1.387 . S
C549 C551 1.390 . S
C549 H553 0.950 . S
H550 C546 0.950 . S
C551 C549 1.390 . S
C551 C552 1.387 . S
C551 H554 0.950 . S
C552 C551 1.387 . S
C552 C555 1.387 . S
H553 C549 0.950 . S
H554 C551 0.950 . S
C555 C546 1.390 . S
C555 H548 0.950 . S
C555 C552 1.387 . S
C556 C557 1.387 . S
C556 H560 0.950 . S
C556 C565 1.390 . S
C557 C556 1.387 . S
C557 C559 1.387 . S
H558 C565 0.950 . S
C559 C557 1.387 . S
C559 C561 1.390 . S
C559 H563 0.950 . S
H560 C556 0.950 . S
C561 C559 1.390 . S
C561 C562 1.387 . S
C561 H564 0.950 . S
C562 C561 1.387 . S
C562 C565 1.387 . S
H563 C559 0.950 . S
H564 C561 0.950 . S
C565 C556 1.390 . S
C565 H558 0.950 . S
C565 C562 1.387 . S
C566 C567 1.387 . S
C566 H570 0.950 . S
C566 C575 1.390 . S
C567 C566 1.387 . S
C567 C569 1.387 . S
H568 C575 0.950 . S
C569 C567 1.387 . S
C569 C571 1.390 . S
C569 H573 0.950 . S
H570 C566 0.950 . S
C571 C569 1.390 . S
C571 C572 1.387 . S
C571 H574 0.950 . S
C572 C571 1.387 . S
C572 C575 1.387 . S
H573 C569 0.950 . S
H574 C571 0.950 . S
C575 C566 1.390 . S
C575 H568 0.950 . S
C575 C572 1.387 . S
C576 C577 1.387 . S
C576 H580 0.950 . S
C576 C585 1.390 . S
C577 C576 1.387 . S
C577 C579 1.387 . S
H578 C585 0.950 . S
C579 C577 1.387 . S
C579 C581 1.390 . S
C579 H583 0.950 . S
H580 C576 0.950 . S
C581 C579 1.390 . S
C581 C582 1.387 . S
C581 H584 0.950 . S
C582 C581 1.387 . S
C582 C585 1.387 . S
H583 C579 0.950 . S
H584 C581 0.950 . S
C585 C576 1.390 . S
C585 H578 0.950 . S
C585 C582 1.387 . S
C586 C587 1.387 . S
C586 H590 0.950 . S
C586 C595 1.390 . S
C587 C586 1.387 . S
C587 C589 1.387 . S
H588 C595 0.950 . S
C589 C587 1.387 . S
C589 C591 1.390 . S
C589 H593 0.950 . S
H590 C586 0.950 . S
C591 C589 1.390 . S
C591 C592 1.387 . S
C591 H594 0.950 . S
C592 C591 1.387 . S
C592 C595 1.387 . S
H593 C589 0.950 . S
H594 C591 0.950 . S
C595 C586 1.390 . S
C595 H588 0.950 . S
C595 C592 1.387 . S
C596 C597 1.387 . S
C596 H600 0.950 . S
C596 C605 1.390 . S
C597 C596 1.387 . S
C597 C599 1.387 . S
H598 C605 0.950 . S
C599 C597 1.387 . S
C599 C601 1.390 . S
C599 H603 0.950 . S
H600 C596 0.950 . S
C601 C599 1.390 . S
C601 C602 1.387 . S
C601 H604 0.950 . S
C602 C601 1.387 . S
C602 C605 1.387 . S
H603 C599 0.950 . S
H604 C601 0.950 . S
C605 C596 1.390 . S
C605 H598 0.950 . S
C605 C602 1.387 . S
C606 C607 1.387 . S
C606 H610 0.950 . S
C606 C615 1.390 . S
C607 C606 1.387 . S
C607 C609 1.387 . S
H608 C615 0.950 . S
C609 C607 1.387 . S
C609 C611 1.390 . S
C609 H613 0.950 . S
H610 C606 0.950 . S
C611 C609 1.390 . S
C611 C612 1.387 . S
C611 H614 0.950 . S
C612 C611 1.387 . S
C612 C615 1.387 . S
H613 C609 0.950 . S
H614 C611 0.950 . S
C615 C606 1.390 . S
C615 H608 0.950 . S
C615 C612 1.387 . S
C616 C617 1.387 . S
C616 H620 0.950 . S
C616 C625 1.390 . S
C617 C616 1.387 . S
C617 C619 1.387 . S
H618 C625 0.950 . S
C619 C617 1.387 . S
C619 C621 1.390 . S
C619 H623 0.950 . S
H620 C616 0.950 . S
C621 C619 1.390 . S
C621 C622 1.387 . S
C621 H624 0.950 . S
C622 C621 1.387 . S
C622 C625 1.387 . S
H623 C619 0.950 . S
H624 C621 0.950 . S
C625 C616 1.390 . S
C625 H618 0.950 . S
C625 C622 1.387 . S
C626 C627 1.387 . S
C626 H630 0.950 . S
C626 C635 1.390 . S
C627 C626 1.387 . S
C627 C629 1.387 . S
H628 C635 0.950 . S
C629 C627 1.387 . S
C629 C631 1.390 . S
C629 H633 0.950 . S
H630 C626 0.950 . S
C631 C629 1.390 . S
C631 C632 1.387 . S
C631 H634 0.950 . S
C632 C631 1.387 . S
C632 C635 1.387 . S
H633 C629 0.950 . S
H634 C631 0.950 . S
C635 C626 1.390 . S
C635 H628 0.950 . S
C635 C632 1.387 . S
C636 C637 1.387 1_554 S
C636 H640 0.950 . S
C636 C645 1.390 1_455 S
C637 C636 1.387 1_556 S
C637 C639 1.387 . S
H638 C645 0.950 . S
C639 C637 1.387 . S
C639 C641 1.390 1_455 S
C639 H643 0.950 . S
H640 C636 0.950 . S
C641 C639 1.390 1_655 S
C641 C642 1.387 1_556 S
C641 H644 0.950 . S
C642 C641 1.387 1_554 S
C642 C645 1.387 . S
H643 C639 0.950 . S
H644 C641 0.950 . S
C645 C636 1.390 1_655 S
C645 H638 0.950 . S
C645 C642 1.387 . S
C646 C647 1.387 . S
C646 H650 0.950 . S
C646 C655 1.390 1_565 S
C647 C646 1.387 . S
C647 C649 1.387 . S
H648 C655 0.950 1_556 S
C649 C647 1.387 . S
C649 C651 1.390 1_565 S
C649 H653 0.950 . S
H650 C646 0.950 . S
C651 C649 1.390 1_545 S
C651 C652 1.387 1_554 S
C651 H654 0.950 . S
C652 C651 1.387 1_556 S
C652 C655 1.387 1_556 S
H653 C649 0.950 . S
H654 C651 0.950 . S
C655 C646 1.390 1_545 S
C655 H648 0.950 1_554 S
C655 C652 1.387 1_554 S
C656 C657 1.387 1_556 S
C656 H660 0.950 . S
C656 C665 1.390 . S
C657 C656 1.387 1_554 S
C657 C659 1.387 . S
H658 C665 0.950 . S
C659 C657 1.387 . S
C659 C661 1.390 . S
C659 H663 0.950 . S
H660 C656 0.950 . S
C661 C659 1.390 . S
C661 C662 1.387 1_554 S
C661 H664 0.950 . S
C662 C661 1.387 1_556 S
C662 C665 1.387 . S
H663 C659 0.950 . S
H664 C661 0.950 . S
C665 C656 1.390 . S
C665 H658 0.950 . S
C665 C662 1.387 . S
C666 C667 1.387 . S
C666 H670 0.950 . S
C666 C675 1.390 1_455 S
C667 C666 1.387 . S
C667 C669 1.387 1_554 S
H668 C675 0.950 . S
C669 C667 1.387 1_556 S
C669 C671 1.390 1_455 S
C669 H673 0.950 . S
H670 C666 0.950 . S
C671 C669 1.390 1_655 S
C671 C672 1.387 . S
C671 H674 0.950 . S
C672 C671 1.387 . S
C672 C675 1.387 1_556 S
H673 C669 0.950 . S
H674 C671 0.950 . S
C675 C666 1.390 1_655 S
C675 H668 0.950 . S
C675 C672 1.387 1_554 S
C676 C677 1.387 1_554 S
C676 H680 0.950 1_554 S
C676 C685 1.390 1_565 S
C677 C676 1.387 1_556 S
C677 C679 1.387 1_556 S
H678 C685 0.950 . S
C679 C677 1.387 1_554 S
C679 C681 1.390 1_565 S
C679 H683 0.950 . S
H680 C676 0.950 1_556 S
C681 C679 1.390 1_545 S
C681 C682 1.387 . S
C681 H684 0.950 . S
C682 C681 1.387 . S
C682 C685 1.387 . S
H683 C679 0.950 . S
H684 C681 0.950 . S
C685 C676 1.390 1_545 S
C685 H678 0.950 . S
C685 C682 1.387 . S
C686 C687 1.387 . S
C686 H690 0.950 . S
C686 C695 1.390 . S
C687 C686 1.387 . S
C687 C689 1.387 1_554 S
H688 C695 0.950 . S
C689 C687 1.387 1_556 S
C689 C691 1.390 . S
C689 H693 0.950 . S
H690 C686 0.950 . S
C691 C689 1.390 . S
C691 C692 1.387 . S
C691 H694 0.950 . S
C692 C691 1.387 . S
C692 C695 1.387 1_556 S
H693 C689 0.950 . S
H694 C691 0.950 . S
C695 C686 1.390 . S
C695 H688 0.950 . S
C695 C692 1.387 1_554 S
C397 C281 1.593 . S
C402 C17 1.593 . S
C407 C50 1.593 . S
C412 C314 1.593 . S
C417 C347 1.593 . S
C422 C83 1.593 . S
C427 C380 1.593 . S
C432 C116 1.593 . S
C437 C149 1.593 . S
C442 C215 1.593 . S
C447 C248 1.593 . S
C452 C182 1.593 . S
C457 C358 1.286 . S
C462 C28 1.286 . S
C467 C391 1.285 . S
C472 C61 1.284 . S
C477 C94 1.285 . S
C482 C226 1.284 . S
C487 C259 1.286 . S
C492 C127 1.286 . S
C497 C292 1.285 . S
C502 C160 1.284 . S
C507 C325 1.284 . S
C512 C193 1.284 . S
C517 N5 1.489 . S
C522 N14 1.481 . S
C527 N38 1.489 . S
C532 N47 1.481 . S
C537 N71 1.489 . S
C542 N80 1.481 . S
C547 N104 1.487 . S
C552 N113 1.479 . S
C557 N146 1.478 . S
C562 N137 1.486 . S
C567 N170 1.486 . S
C572 N179 1.478 . S
C577 N212 1.478 . S
C582 N203 1.486 . S
C587 N236 1.490 . S
C592 N245 1.482 . S
C597 N278 1.478 . S
C602 N269 1.486 . S
C607 N311 1.478 . S
C612 N302 1.486 . S
C617 N335 1.487 . S
C622 N344 1.480 . S
C627 N368 1.486 . S
C632 N377 1.478 . S
C637 C8 1.384 . S
C642 C371 1.382 . S
C647 C206 1.382 . S
C652 C41 1.382 . S
C657 C239 1.384 . S
C662 C74 1.382 . S
C667 C272 1.383 . S
C672 C107 1.385 . S
C677 C140 1.382 . S
C682 C305 1.382 . S
C687 C338 1.382 . S
C692 C173 1.384 . S
