# Generated by pormake.
# Topology soh, (5)-cn, num edge types: 1
# Building blocks:
#     Node 0, Type 0, BuildingBlock: BEQFEK_clean_sbu_0, # of connection points: 5
#     Node 1, Type 0, BuildingBlock: BEQFEK_clean_sbu_0, # of connection points: 5
#     Node 2, Type 0, BuildingBlock: BEQFEK_clean_sbu_0, # of connection points: 5
#     Node 3, Type 0, BuildingBlock: BEQFEK_clean_sbu_0, # of connection points: 5
#     Node 4, Type 0, BuildingBlock: BEQFEK_clean_sbu_0, # of connection points: 5
#     Node 5, Type 0, BuildingBlock: BEQFEK_clean_sbu_0, # of connection points: 5
#     Node 6, Type 0, BuildingBlock: BEQFEK_clean_sbu_0, # of connection points: 5
#     Node 7, Type 0, BuildingBlock: BEQFEK_clean_sbu_0, # of connection points: 5
#     Node 8, Type 0, BuildingBlock: BEQFEK_clean_sbu_0, # of connection points: 5
#     Node 9, Type 0, BuildingBlock: BEQFEK_clean_sbu_0, # of connection points: 5
#     Node 10, Type 0, BuildingBlock: BEQFEK_clean_sbu_0, # of connection points: 5
#     Node 11, Type 0, BuildingBlock: BEQFEK_clean_sbu_0, # of connection points: 5
#     Node 12, Type 0, BuildingBlock: BEQFEK_clean_sbu_0, # of connection points: 5
#     Node 13, Type 0, BuildingBlock: BEQFEK_clean_sbu_0, # of connection points: 5
#     Node 14, Type 0, BuildingBlock: BEQFEK_clean_sbu_0, # of connection points: 5
#     Node 15, Type 0, BuildingBlock: BEQFEK_clean_sbu_0, # of connection points: 5
#     Node 16, Type 0, BuildingBlock: BEQFEK_clean_sbu_0, # of connection points: 5
#     Node 17, Type 0, BuildingBlock: BEQFEK_clean_sbu_0, # of connection points: 5
#     Node 18, Type 0, BuildingBlock: BEQFEK_clean_sbu_0, # of connection points: 5
#     Node 19, Type 0, BuildingBlock: BEQFEK_clean_sbu_0, # of connection points: 5
#     Node 20, Type 0, BuildingBlock: BEQFEK_clean_sbu_0, # of connection points: 5
#     Node 21, Type 0, BuildingBlock: BEQFEK_clean_sbu_0, # of connection points: 5
#     Node 22, Type 0, BuildingBlock: BEQFEK_clean_sbu_0, # of connection points: 5
#     Node 23, Type 0, BuildingBlock: BEQFEK_clean_sbu_0, # of connection points: 5
#     Node 24, Type 0, BuildingBlock: BEQFEK_clean_sbu_0, # of connection points: 5
#     Node 25, Type 0, BuildingBlock: BEQFEK_clean_sbu_0, # of connection points: 5
#     Node 26, Type 0, BuildingBlock: BEQFEK_clean_sbu_0, # of connection points: 5
#     Node 27, Type 0, BuildingBlock: BEQFEK_clean_sbu_0, # of connection points: 5
#     Node 28, Type 0, BuildingBlock: BEQFEK_clean_sbu_0, # of connection points: 5
#     Node 29, Type 0, BuildingBlock: BEQFEK_clean_sbu_0, # of connection points: 5
#     Node 30, Type 0, BuildingBlock: BEQFEK_clean_sbu_0, # of connection points: 5
#     Node 31, Type 0, BuildingBlock: BEQFEK_clean_sbu_0, # of connection points: 5
#     Edge 32, Type (0, 0), BuildingBlock: ZUJKAS_clean_linker_0, # of connection points: 2
#     Edge 33, Type (0, 0), BuildingBlock: ZUJKAS_clean_linker_0, # of connection points: 2
#     Edge 34, Type (0, 0), BuildingBlock: ZUJKAS_clean_linker_0, # of connection points: 2
#     Edge 35, Type (0, 0), BuildingBlock: ZUJKAS_clean_linker_0, # of connection points: 2
#     Edge 36, Type (0, 0), BuildingBlock: ZUJKAS_clean_linker_0, # of connection points: 2
#     Edge 37, Type (0, 0), BuildingBlock: ZUJKAS_clean_linker_0, # of connection points: 2
#     Edge 38, Type (0, 0), BuildingBlock: ZUJKAS_clean_linker_0, # of connection points: 2
#     Edge 39, Type (0, 0), BuildingBlock: ZUJKAS_clean_linker_0, # of connection points: 2
#     Edge 40, Type (0, 0), BuildingBlock: ZUJKAS_clean_linker_0, # of connection points: 2
#     Edge 41, Type (0, 0), BuildingBlock: ZUJKAS_clean_linker_0, # of connection points: 2
#     Edge 42, Type (0, 0), BuildingBlock: ZUJKAS_clean_linker_0, # of connection points: 2
#     Edge 43, Type (0, 0), BuildingBlock: ZUJKAS_clean_linker_0, # of connection points: 2
#     Edge 44, Type (0, 0), BuildingBlock: ZUJKAS_clean_linker_0, # of connection points: 2
#     Edge 45, Type (0, 0), BuildingBlock: ZUJKAS_clean_linker_0, # of connection points: 2
#     Edge 46, Type (0, 0), BuildingBlock: ZUJKAS_clean_linker_0, # of connection points: 2
#     Edge 47, Type (0, 0), BuildingBlock: ZUJKAS_clean_linker_0, # of connection points: 2
#     Edge 48, Type (0, 0), BuildingBlock: ZUJKAS_clean_linker_0, # of connection points: 2
#     Edge 49, Type (0, 0), BuildingBlock: ZUJKAS_clean_linker_0, # of connection points: 2
#     Edge 50, Type (0, 0), BuildingBlock: ZUJKAS_clean_linker_0, # of connection points: 2
#     Edge 51, Type (0, 0), BuildingBlock: ZUJKAS_clean_linker_0, # of connection points: 2
#     Edge 52, Type (0, 0), BuildingBlock: ZUJKAS_clean_linker_0, # of connection points: 2
#     Edge 53, Type (0, 0), BuildingBlock: ZUJKAS_clean_linker_0, # of connection points: 2
#     Edge 54, Type (0, 0), BuildingBlock: ZUJKAS_clean_linker_0, # of connection points: 2
#     Edge 55, Type (0, 0), BuildingBlock: ZUJKAS_clean_linker_0, # of connection points: 2
#     Edge 56, Type (0, 0), BuildingBlock: ZUJKAS_clean_linker_0, # of connection points: 2
#     Edge 57, Type (0, 0), BuildingBlock: ZUJKAS_clean_linker_0, # of connection points: 2
#     Edge 58, Type (0, 0), BuildingBlock: ZUJKAS_clean_linker_0, # of connection points: 2
#     Edge 59, Type (0, 0), BuildingBlock: ZUJKAS_clean_linker_0, # of connection points: 2
#     Edge 60, Type (0, 0), BuildingBlock: ZUJKAS_clean_linker_0, # of connection points: 2
#     Edge 61, Type (0, 0), BuildingBlock: ZUJKAS_clean_linker_0, # of connection points: 2
#     Edge 62, Type (0, 0), BuildingBlock: ZUJKAS_clean_linker_0, # of connection points: 2
#     Edge 63, Type (0, 0), BuildingBlock: ZUJKAS_clean_linker_0, # of connection points: 2
#     Edge 64, Type (0, 0), BuildingBlock: ZUJKAS_clean_linker_0, # of connection points: 2
#     Edge 65, Type (0, 0), BuildingBlock: ZUJKAS_clean_linker_0, # of connection points: 2
#     Edge 66, Type (0, 0), BuildingBlock: ZUJKAS_clean_linker_0, # of connection points: 2
#     Edge 67, Type (0, 0), BuildingBlock: ZUJKAS_clean_linker_0, # of connection points: 2
#     Edge 68, Type (0, 0), BuildingBlock: ZUJKAS_clean_linker_0, # of connection points: 2
#     Edge 69, Type (0, 0), BuildingBlock: ZUJKAS_clean_linker_0, # of connection points: 2
#     Edge 70, Type (0, 0), BuildingBlock: ZUJKAS_clean_linker_0, # of connection points: 2
#     Edge 71, Type (0, 0), BuildingBlock: ZUJKAS_clean_linker_0, # of connection points: 2
#     Edge 72, Type (0, 0), BuildingBlock: ZUJKAS_clean_linker_0, # of connection points: 2
#     Edge 73, Type (0, 0), BuildingBlock: ZUJKAS_clean_linker_0, # of connection points: 2
#     Edge 74, Type (0, 0), BuildingBlock: ZUJKAS_clean_linker_0, # of connection points: 2
#     Edge 75, Type (0, 0), BuildingBlock: ZUJKAS_clean_linker_0, # of connection points: 2
#     Edge 76, Type (0, 0), BuildingBlock: ZUJKAS_clean_linker_0, # of connection points: 2
#     Edge 77, Type (0, 0), BuildingBlock: ZUJKAS_clean_linker_0, # of connection points: 2
#     Edge 78, Type (0, 0), BuildingBlock: ZUJKAS_clean_linker_0, # of connection points: 2
#     Edge 79, Type (0, 0), BuildingBlock: ZUJKAS_clean_linker_0, # of connection points: 2
#     Edge 80, Type (0, 0), BuildingBlock: ZUJKAS_clean_linker_0, # of connection points: 2
#     Edge 81, Type (0, 0), BuildingBlock: ZUJKAS_clean_linker_0, # of connection points: 2
#     Edge 82, Type (0, 0), BuildingBlock: ZUJKAS_clean_linker_0, # of connection points: 2
#     Edge 83, Type (0, 0), BuildingBlock: ZUJKAS_clean_linker_0, # of connection points: 2
#     Edge 84, Type (0, 0), BuildingBlock: ZUJKAS_clean_linker_0, # of connection points: 2
#     Edge 85, Type (0, 0), BuildingBlock: ZUJKAS_clean_linker_0, # of connection points: 2
#     Edge 86, Type (0, 0), BuildingBlock: ZUJKAS_clean_linker_0, # of connection points: 2
#     Edge 87, Type (0, 0), BuildingBlock: ZUJKAS_clean_linker_0, # of connection points: 2
#     Edge 88, Type (0, 0), BuildingBlock: ZUJKAS_clean_linker_0, # of connection points: 2
#     Edge 89, Type (0, 0), BuildingBlock: ZUJKAS_clean_linker_0, # of connection points: 2
#     Edge 90, Type (0, 0), BuildingBlock: ZUJKAS_clean_linker_0, # of connection points: 2
#     Edge 91, Type (0, 0), BuildingBlock: ZUJKAS_clean_linker_0, # of connection points: 2
#     Edge 92, Type (0, 0), BuildingBlock: ZUJKAS_clean_linker_0, # of connection points: 2
#     Edge 93, Type (0, 0), BuildingBlock: ZUJKAS_clean_linker_0, # of connection points: 2
#     Edge 94, Type (0, 0), BuildingBlock: ZUJKAS_clean_linker_0, # of connection points: 2
#     Edge 95, Type (0, 0), BuildingBlock: ZUJKAS_clean_linker_0, # of connection points: 2
#     Edge 96, Type (0, 0), BuildingBlock: ZUJKAS_clean_linker_0, # of connection points: 2
#     Edge 97, Type (0, 0), BuildingBlock: ZUJKAS_clean_linker_0, # of connection points: 2
#     Edge 98, Type (0, 0), BuildingBlock: ZUJKAS_clean_linker_0, # of connection points: 2
#     Edge 99, Type (0, 0), BuildingBlock: ZUJKAS_clean_linker_0, # of connection points: 2
#     Edge 100, Type (0, 0), BuildingBlock: ZUJKAS_clean_linker_0, # of connection points: 2
#     Edge 101, Type (0, 0), BuildingBlock: ZUJKAS_clean_linker_0, # of connection points: 2
#     Edge 102, Type (0, 0), BuildingBlock: ZUJKAS_clean_linker_0, # of connection points: 2
#     Edge 103, Type (0, 0), BuildingBlock: ZUJKAS_clean_linker_0, # of connection points: 2
#     Edge 104, Type (0, 0), BuildingBlock: ZUJKAS_clean_linker_0, # of connection points: 2
#     Edge 105, Type (0, 0), BuildingBlock: ZUJKAS_clean_linker_0, # of connection points: 2
#     Edge 106, Type (0, 0), BuildingBlock: ZUJKAS_clean_linker_0, # of connection points: 2
#     Edge 107, Type (0, 0), BuildingBlock: ZUJKAS_clean_linker_0, # of connection points: 2
#     Edge 108, Type (0, 0), BuildingBlock: ZUJKAS_clean_linker_0, # of connection points: 2
#     Edge 109, Type (0, 0), BuildingBlock: ZUJKAS_clean_linker_0, # of connection points: 2
#     Edge 110, Type (0, 0), BuildingBlock: ZUJKAS_clean_linker_0, # of connection points: 2
#     Edge 111, Type (0, 0), BuildingBlock: ZUJKAS_clean_linker_0, # of connection points: 2
# Relax obj value: 0.336
# Max RMSD: 0.175
# Mean RMSD: 0.175
data_MOF--net-soh--node1-BEQFEK_clean_sbu_0--edge1-ZUJKAS_clean_linker_0
_symmetry_space_group_name_H-M    P1
_symmetry_Int_Tables_number       1
_symmetry_cell_setting            triclinic
loop_
_symmetry_equiv_pos_as_xyz
'x, y, z'
_cell_length_a     102.84217
_cell_length_b     51.454886
_cell_length_c     60.830275
_cell_angle_alpha  90.015445
_cell_angle_beta   90.070656
_cell_angle_gamma 90.028397
loop_
_atom_site_label
_atom_site_type_symbol
_atom_site_fract_x
_atom_site_fract_y
_atom_site_fract_z
_atom_type_partial_charge
Co0 Co 0.29729 0.32388 0.18578 0.0
Co1 Co 0.29258 0.3686 0.2196 0.0
C2 C 0.31958 0.35566 0.20487 0.0
O3 O 0.31519 0.33806 0.19209 0.0
O4 O 0.31192 0.36893 0.21688 0.0
C5 C 0.30857 0.27559 0.17744 0.0
O6 O 0.31507 0.28305 0.19495 0.0
C7 C 0.29453 0.39726 0.26099 0.0
C8 C 0.27415 0.4086 0.26676 0.0
C9 C 0.28621 0.40713 0.27692 0.0
N10 N 0.28759 0.39181 0.24282 0.0
N11 N 0.2755 0.39959 0.24608 0.0
C12 C 0.3088 0.39221 0.26311 0.0
H13 H 0.31386 0.40168 0.24918 0.0
H14 H 0.3107 0.37101 0.26219 0.0
H15 H 0.31281 0.40024 0.27864 0.0
C16 C 0.28392 0.29269 0.22146 0.0
N17 N 0.28818 0.3154 0.21267 0.0
N18 N 0.2867 0.33398 0.22731 0.0
C19 C 0.28182 0.32342 0.24603 0.0
C20 C 0.27986 0.29684 0.24302 0.0
C21 C 0.28333 0.26736 0.20942 0.0
H22 H 0.28162 0.27067 0.19165 0.0
H23 H 0.29265 0.25687 0.21167 0.0
H24 H 0.27544 0.25493 0.21606 0.0
O25 O 0.28776 0.3501 0.16698 0.0
O26 O 0.28494 0.38212 0.19098 0.0
H27 H 0.27272 0.35233 0.26595 0.0
H28 H 0.27844 0.32463 0.28129 0.0
C29 C 0.28059 0.33773 0.26731 0.0
H30 H 0.28986 0.3477 0.27086 0.0
H31 H 0.26794 0.3967 0.23489 0.0
O32 O 0.30012 0.29092 0.16931 0.0
C33 C 0.28379 0.37305 0.17148 0.0
Co34 Co 0.9773 0.95967 0.18576 0.0
Co35 Co 0.98334 0.91421 0.2178 0.0
C36 C 0.95577 0.92668 0.20444 0.0
O37 O 0.9596 0.94527 0.19222 0.0
O38 O 0.96391 0.91326 0.21538 0.0
C39 C 0.96544 1.00766 0.17695 0.0
O40 O 0.95845 0.9998 0.19375 0.0
C41 C 0.98205 0.88915 0.26033 0.0
C42 C 0.99982 0.86509 0.2609 0.0
C43 C 0.98956 0.87348 0.27389 0.0
N44 N 0.98773 0.89027 0.24048 0.0
N45 N 0.99816 0.8753 0.2407 0.0
C46 C 0.97076 0.9059 0.26684 0.0
H47 H 0.96985 0.92278 0.25562 0.0
H48 H 0.97185 0.91308 0.28394 0.0
H49 H 0.9617 0.89425 0.26586 0.0
C50 C 0.9906 0.99038 0.22209 0.0
N51 N 0.98667 0.96777 0.21266 0.0
N52 N 0.98952 0.94848 0.22603 0.0
C53 C 0.99556 0.95828 0.24412 0.0
C54 C 0.99622 0.98529 0.24249 0.0
C55 C 0.98936 0.01663 0.21175 0.0
H56 H 0.99123 1.01535 0.19385 0.0
H57 H 0.97938 0.0241 0.2145 0.0
H58 H 0.99633 0.0306 0.21916 0.0
O59 O 0.98666 0.93374 0.16607 0.0
O60 O 0.99093 0.90145 0.18917 0.0
H61 H 1.00416 0.92371 0.25744 0.0
H62 H 1.00758 0.95249 0.27305 0.0
C63 C 1.00007 0.94235 0.26326 0.0
H64 H 0.99175 0.93855 0.27432 0.0
H65 H 1.00459 0.87341 0.22754 0.0
O66 O 0.97432 0.99279 0.1696 0.0
C67 C 0.9913 0.91108 0.16981 0.0
Co68 Co 0.29709 0.95986 0.09932 0.0
Co69 Co 0.29038 0.91455 0.06743 0.0
C70 C 0.3182 0.92616 0.08094 0.0
O71 O 0.31467 0.94528 0.09281 0.0
O72 O 0.30983 0.91281 0.07036 0.0
C73 C 0.30961 1.00683 0.11176 0.0
O74 O 0.31809 0.99859 0.09719 0.0
C75 C 0.29155 0.89178 0.02418 0.0
C76 C 0.27432 0.86618 0.02318 0.0
C77 C 0.28427 0.87611 1.01025 0.0
N78 N 0.28607 0.89136 0.04419 0.0
N79 N 0.27595 0.87553 0.04369 0.0
C80 C 0.30237 0.9099 0.01804 0.0
H81 H 0.30329 0.92581 0.03024 0.0
H82 H 0.30072 0.91842 1.00151 0.0
H83 H 0.31165 0.89891 0.01768 0.0
C84 C 0.28472 0.9911 0.0625 0.0
N85 N 0.28801 0.96833 0.07233 0.0
N86 N 0.28456 0.94901 0.05943 0.0
C87 C 0.27859 0.95891 0.04137 0.0
C88 C 0.2787 0.98596 0.04234 0.0
C89 C 0.28847 0.01725 0.07123 0.0
H90 H 0.2992 0.01897 0.07105 0.0
H91 H 0.28445 0.03336 0.06127 0.0
H92 H 0.28506 0.01922 0.08844 0.0
O93 O 0.28752 0.93366 0.11872 0.0
O94 O 0.28252 0.90177 0.09562 0.0
H95 H 0.2639 0.95404 1.01642 0.0
H96 H 0.27908 0.93843 1.01075 0.0
C97 C 0.27204 0.94303 0.02395 0.0
H98 H 0.26818 0.92478 0.03102 0.0
H99 H 0.26971 0.87242 0.05694 0.0
O100 O 0.29977 0.99274 0.11609 0.0
C101 C 0.28248 0.91132 0.115 0.0
Co102 Co 0.97701 0.32344 0.09897 0.0
Co103 Co 0.98317 0.3688 0.06677 0.0
C104 C 0.95556 0.35642 0.08064 0.0
O105 O 0.95935 0.33782 0.09286 0.0
O106 O 0.96371 0.36971 0.06958 0.0
C107 C 0.96468 0.27638 0.11139 0.0
O108 O 0.9562 0.28454 0.09676 0.0
C109 C 0.9815 0.39168 0.0235 0.0
C110 C 0.99832 0.4183 0.02241 0.0
C111 C 0.98839 0.40803 1.0096 0.0
N112 N 0.98717 0.3921 0.0434 0.0
N113 N 0.99705 0.40849 0.04284 0.0
C114 C 0.97084 0.37313 0.01741 0.0
H115 H 0.97024 0.35698 0.02943 0.0
H116 H 0.97243 0.36498 1.00074 0.0
H117 H 0.96143 0.38366 0.01743 0.0
C118 C 0.98937 0.29241 0.06207 0.0
N119 N 0.98597 0.31514 0.07185 0.0
N120 N 0.98922 0.33449 0.05885 0.0
C121 C 0.99514 0.32466 0.04074 0.0
C122 C 0.99524 0.2976 0.04182 0.0
C123 C 0.98583 0.26622 0.07093 0.0
H124 H 0.98931 0.26444 0.08812 0.0
H125 H 0.9751 0.26422 0.07083 0.0
H126 H 0.98989 0.25014 0.06101 0.0
O127 O 0.98657 0.3497 0.11816 0.0
O128 O 0.99101 0.38195 0.09509 0.0
H129 H 1.00956 0.32988 1.01545 0.0
H130 H 0.99419 0.34492 1.01006 0.0
C131 C 1.00139 0.34065 0.02311 0.0
H132 H 1.00514 0.3591 0.03002 0.0
H133 H 1.00335 0.41184 0.05601 0.0
O134 O 0.9745 0.29054 0.11576 0.0
C135 C 0.99133 0.37228 0.11444 0.0
Co136 Co 0.72626 0.70909 0.84957 0.0
Co137 Co 0.73224 0.66376 0.81695 0.0
C138 C 0.70472 0.67583 0.83187 0.0
O139 O 0.70849 0.69497 0.84353 0.0
O140 O 0.7129 0.66235 0.82104 0.0
C141 C 0.71449 0.7568 0.86046 0.0
O142 O 0.70685 0.74933 0.84433 0.0
C143 C 0.72964 0.63972 0.77395 0.0
C144 C 0.7484 0.61959 0.76976 0.0
C145 C 0.73729 0.62708 0.75846 0.0
N146 N 0.7362 0.64078 0.79307 0.0
N147 N 0.74723 0.62792 0.79069 0.0
C148 C 0.7164 0.65125 0.77073 0.0
H149 H 0.71688 0.67265 0.77282 0.0
H150 H 0.71223 0.64628 0.75445 0.0
H151 H 0.70975 0.64347 0.78343 0.0
C152 C 0.73874 0.7404 0.81297 0.0
N153 N 0.73512 0.71763 0.82245 0.0
N154 N 0.73801 0.69845 0.80898 0.0
C155 C 0.74381 0.70856 0.79082 0.0
C156 C 0.74427 0.73552 0.79252 0.0
C157 C 0.73713 0.76664 0.82319 0.0
H158 H 0.73958 0.76579 0.84092 0.0
H159 H 0.72688 0.77297 0.8213 0.0
H160 H 0.74346 0.78124 0.81509 0.0
O161 O 0.73593 0.68259 0.86838 0.0
O162 O 0.74052 0.65073 0.84498 0.0
H163 H 0.7536 0.67561 0.77721 0.0
H164 H 0.75464 0.70438 0.76047 0.0
C165 C 0.74825 0.693 0.7715 0.0
H166 H 0.73965 0.6869 0.76191 0.0
H167 H 0.75437 0.62655 0.80282 0.0
O168 O 0.7237 0.74186 0.86647 0.0
C169 C 0.74084 0.66021 0.86442 0.0
Co170 Co 0.04658 0.07327 0.84858 0.0
Co171 Co 0.04044 0.11879 0.81663 0.0
C172 C 0.06807 0.10622 0.8303 0.0
O173 O 0.06431 0.08724 0.84214 0.0
O174 O 0.05987 0.11988 0.81967 0.0
C175 C 0.05871 0.02583 0.8607 0.0
O176 O 0.06734 0.03408 0.84641 0.0
C177 C 0.04207 0.14292 0.77385 0.0
C178 C 0.0246 0.16783 0.77279 0.0
C179 C 0.03478 0.15866 0.76 0.0
N180 N 0.03633 0.14251 0.79367 0.0
N181 N 0.02609 0.15798 0.79316 0.0
C182 C 0.05317 0.12548 0.76774 0.0
H183 H 0.05391 0.10894 0.77935 0.0
H184 H 0.05199 0.1178 0.75081 0.0
H185 H 0.06235 0.13676 0.76847 0.0
C186 C 0.03387 0.04247 0.81199 0.0
N187 N 0.03743 0.06518 0.8216 0.0
N188 N 0.03433 0.08446 0.8084 0.0
C189 C 0.02835 0.07455 0.79031 0.0
C190 C 0.02807 0.04748 0.7917 0.0
C191 C 0.03588 1.01622 0.82199 0.0
H192 H 0.03306 0.01661 0.83957 0.0
H193 H 0.04631 1.01095 0.8208 0.0
H194 H 0.03005 1.00115 0.81343 0.0
O195 O 0.03725 0.09956 0.86803 0.0
O196 O 0.03262 0.13164 0.84493 0.0
H197 H 0.0157 0.08042 0.76222 0.0
H198 H 0.03159 0.09388 0.75972 0.0
C199 C 0.02352 0.09046 0.77138 0.0
H200 H 0.01969 0.10927 0.77732 0.0
H201 H 0.01966 0.16046 0.80625 0.0
O202 O 0.04897 0.04017 0.86506 0.0
C203 C 0.03242 0.12207 0.8643 0.0
Co204 Co 0.72741 0.07357 0.93517 0.0
Co205 Co 0.73241 0.11868 0.96851 0.0
C206 C 0.70529 0.10576 0.9542 0.0
O207 O 0.70958 0.08795 0.94154 0.0
O208 O 0.71305 0.11912 0.96603 0.0
C209 C 0.71592 0.02529 0.92682 0.0
O210 O 0.70928 0.03289 0.9441 0.0
C211 C 0.73092 0.14775 1.00975 0.0
C212 C 0.75132 0.15959 1.01463 0.0
C213 C 0.73941 0.15806 0.02525 0.0
N214 N 0.73762 0.14216 0.9914 0.0
N215 N 0.74972 0.15021 0.99412 0.0
C216 C 0.71669 0.14255 1.01241 0.0
H217 H 0.71142 0.1518 0.99858 0.0
H218 H 0.71483 0.12132 1.01169 0.0
H219 H 0.71287 0.15069 0.028 0.0
C220 C 0.74081 0.04269 0.97103 0.0
N221 N 0.73661 0.06534 0.96205 0.0
N222 N 0.73827 0.08411 0.97647 0.0
C223 C 0.74325 0.07376 0.99521 0.0
C224 C 0.74506 0.0471 0.99247 0.0
C225 C 0.74111 0.01715 0.95929 0.0
H226 H 0.74287 0.02012 0.94149 0.0
H227 H 0.73167 1.00711 0.96159 0.0
H228 H 0.74887 1.00448 0.96609 0.0
O229 O 0.73689 0.09951 0.91603 0.0
O230 O 0.73991 0.13181 0.9397 0.0
H231 H 0.75251 0.10317 1.01446 0.0
H232 H 0.74718 0.07558 0.03032 0.0
C233 C 0.74475 0.0884 1.01629 0.0
H234 H 0.73548 0.09822 0.02012 0.0
H235 H 0.75713 0.14731 0.98268 0.0
O236 O 0.72449 0.04049 0.91891 0.0
C237 C 0.74093 0.12248 0.92027 0.0
Co238 Co 0.04747 0.70922 0.93575 0.0
Co239 Co 0.04073 0.66379 0.96737 0.0
C240 C 0.06863 0.67589 0.95431 0.0
O241 O 0.0651 0.69503 0.94242 0.0
O242 O 0.06025 0.66236 0.9647 0.0
C243 C 0.05993 0.75547 0.91953 0.0
O244 O 0.07009 0.74601 0.92989 0.0
C245 C 0.04126 0.64052 1.01055 0.0
C246 C 0.02368 0.61586 1.01054 0.0
C247 C 0.0335 0.62527 0.02402 0.0
N248 N 0.03613 0.64041 0.99024 0.0
N249 N 0.02583 0.62507 0.99014 0.0
C250 C 0.05215 0.65812 0.01741 0.0
H251 H 0.05354 0.67395 1.00527 0.0
H252 H 0.05026 0.66668 0.03384 0.0
H253 H 0.06127 0.64665 0.0184 0.0
C254 C 0.03562 0.74027 0.97279 0.0
N255 N 0.03853 0.71746 0.96276 0.0
N256 N 0.03486 0.69817 0.97547 0.0
C257 C 0.02897 0.70817 0.99355 0.0
C258 C 0.02946 0.73527 0.99282 0.0
C259 C 0.04005 0.76617 0.96446 0.0
H260 H 0.05066 0.76542 0.96133 0.0
H261 H 0.03813 0.78205 0.97631 0.0
H262 H 0.03508 0.77048 0.94868 0.0
O263 O 0.03799 0.68302 0.91618 0.0
O264 O 0.03298 0.65106 0.9391 0.0
H265 H 0.01401 0.7036 0.01802 0.0
H266 H 0.02901 0.68744 0.02406 0.0
C267 C 0.02214 0.69238 1.01068 0.0
H268 H 0.0182 0.6743 1.00338 0.0
H269 H 0.01976 0.62237 0.97657 0.0
O270 O 0.04943 0.74238 0.91918 0.0
C271 C 0.03296 0.66066 0.91976 0.0
Co272 Co 0.29649 0.82368 0.68577 0.0
Co273 Co 0.29192 0.86871 0.71932 0.0
C274 C 0.31886 0.85582 0.70375 0.0
O275 O 0.31443 0.83802 0.69121 0.0
O276 O 0.31126 0.86902 0.71596 0.0
C277 C 0.30825 0.77606 0.6737 0.0
O278 O 0.3168 0.784 0.68828 0.0
C279 C 0.2942 0.89713 0.76073 0.0
C280 C 0.27404 0.91009 0.76622 0.0
C281 C 0.28601 0.90773 0.77653 0.0
N282 N 0.28723 0.89215 0.74251 0.0
N283 N 0.27529 0.90088 0.74559 0.0
C284 C 0.30836 0.89105 0.76299 0.0
H285 H 0.31364 0.90025 0.74916 0.0
H286 H 0.30989 0.86974 0.76193 0.0
H287 H 0.31246 0.89868 0.77858 0.0
C288 C 0.28396 0.79256 0.7222 0.0
N289 N 0.28784 0.81533 0.71305 0.0
N290 N 0.28608 0.83415 0.72739 0.0
C291 C 0.28118 0.82375 0.74616 0.0
C292 C 0.27965 0.79698 0.74361 0.0
C293 C 0.28424 0.76687 0.71069 0.0
H294 H 0.28142 0.7693 0.69322 0.0
H295 H 0.29423 0.75884 0.71146 0.0
H296 H 0.27751 0.75282 0.71858 0.0
O297 O 0.28673 0.84978 0.66719 0.0
O298 O 0.28404 0.88211 0.6909 0.0
H299 H 0.27194 0.85367 0.7648 0.0
H300 H 0.27666 0.82594 0.78105 0.0
C301 C 0.27948 0.83856 0.76711 0.0
H302 H 0.28879 0.84798 0.77139 0.0
H303 H 0.26773 0.89856 0.7343 0.0
O304 O 0.29865 0.7907 0.66909 0.0
C305 C 0.28278 0.87277 0.67153 0.0
Co306 Co 0.97681 0.45798 0.68647 0.0
Co307 Co 0.98269 0.41235 0.71849 0.0
C308 C 0.95506 0.42585 0.7042 0.0
O309 O 0.95884 0.44494 0.69247 0.0
O310 O 0.96325 0.41202 0.71477 0.0
C311 C 0.96523 0.50266 0.66492 0.0
O312 O 0.95413 0.49098 0.66896 0.0
C313 C 0.98066 0.39036 0.762 0.0
C314 C 0.9973 0.36334 0.76368 0.0
C315 C 0.98747 0.37428 0.77627 0.0
N316 N 0.9863 0.38918 0.74212 0.0
N317 N 0.99606 0.37253 0.74304 0.0
C318 C 0.97019 0.40944 0.7677 0.0
H319 H 0.96958 0.42505 0.75518 0.0
H320 H 0.97198 0.41828 0.78407 0.0
H321 H 0.96071 0.39916 0.76823 0.0
C322 C 0.98841 0.48857 0.72382 0.0
N323 N 0.98544 0.46582 0.71377 0.0
N324 N 0.98887 0.44648 0.7266 0.0
C325 C 0.9947 0.45637 0.7448 0.0
C326 C 0.99443 0.48349 0.74397 0.0
C327 C 0.98424 0.51456 0.7153 0.0
H328 H 0.97417 0.51325 0.70887 0.0
H329 H 0.98455 0.5297 0.72826 0.0
H330 H 0.99072 0.52034 0.70159 0.0
O331 O 0.98624 0.43116 0.66752 0.0
O332 O 0.99067 0.39892 0.69057 0.0
H333 H 1.00952 0.45121 0.76947 0.0
H334 H 0.99427 0.43595 0.77546 0.0
C335 C 1.00125 0.44037 0.76213 0.0
H336 H 1.00491 0.42196 0.75502 0.0
H337 H 1.00234 0.36869 0.72998 0.0
O338 O 0.97582 0.49133 0.66996 0.0
C339 C 0.99099 0.40858 0.67124 0.0
Co340 Co 0.29688 0.45887 0.59935 0.0
Co341 Co 0.29062 0.41341 0.56739 0.0
C342 C 0.31833 0.426 0.58106 0.0
O343 O 0.31464 0.44504 0.59288 0.0
O344 O 0.31007 0.41234 0.57052 0.0
C345 C 0.30894 0.50628 0.61247 0.0
O346 O 0.31799 0.49811 0.59891 0.0
C347 C 0.29228 0.38978 0.52441 0.0
C348 C 0.27497 0.36442 0.52324 0.0
C349 C 0.28506 0.374 0.51045 0.0
N350 N 0.28659 0.38982 0.54426 0.0
N351 N 0.27643 0.3741 0.54367 0.0
C352 C 0.30328 0.40756 0.5184 0.0
H353 H 0.30401 0.42388 0.53024 0.0
H354 H 0.30199 0.41553 0.5016 0.0
H355 H 0.31252 0.39644 0.51885 0.0
C356 C 0.28426 0.48976 0.56281 0.0
N357 N 0.28776 0.46701 0.57239 0.0
N358 N 0.28455 0.44775 0.55923 0.0
C359 C 0.27852 0.45772 0.54121 0.0
C360 C 0.27836 0.4848 0.5426 0.0
C361 C 0.28646 0.51598 0.57279 0.0
H362 H 0.28341 0.5158 0.59025 0.0
H363 H 0.29696 0.52075 0.572 0.0
H364 H 0.28091 0.53127 0.56399 0.0
O365 O 0.28754 0.43249 0.6187 0.0
O366 O 0.28268 0.40051 0.5956 0.0
H367 H 0.26554 0.45184 0.51357 0.0
H368 H 0.28144 0.43864 0.51041 0.0
C369 C 0.27351 0.44185 0.52239 0.0
H370 H 0.26981 0.42295 0.52836 0.0
H371 H 0.27005 0.37131 0.55678 0.0
O372 O 0.29908 0.49192 0.61598 0.0
C373 C 0.28257 0.4101 0.61497 0.0
Co374 Co 0.97676 0.82242 0.59968 0.0
Co375 Co 0.9819 0.86746 0.56629 0.0
C376 C 0.9547 0.85463 0.58197 0.0
O377 O 0.95877 0.83597 0.59392 0.0
O378 O 0.96262 0.86811 0.5706 0.0
C379 C 0.96492 0.77555 0.61503 0.0
O380 O 0.95509 0.78413 0.6033 0.0
C381 C 0.97884 0.89235 0.52364 0.0
C382 C 0.99801 0.91055 0.51844 0.0
C383 C 0.98649 0.90432 0.50777 0.0
N384 N 0.98575 0.89042 0.54234 0.0
N385 N 0.99704 0.90217 0.53937 0.0
C386 C 0.96528 0.88213 0.52108 0.0
H387 H 0.95908 0.8906 0.5341 0.0
H388 H 0.96525 0.86071 0.52322 0.0
H389 H 0.96097 0.88744 0.50499 0.0
C390 C 0.98908 0.79104 0.56338 0.0
N391 N 0.98541 0.81395 0.57249 0.0
N392 N 0.98782 0.83282 0.55849 0.0
C393 C 0.99325 0.82238 0.54015 0.0
C394 C 0.99414 0.79546 0.54246 0.0
C395 C 0.98783 0.76524 0.5745 0.0
H396 H 0.99148 0.76667 0.59161 0.0
H397 H 0.97743 0.75956 0.57498 0.0
H398 H 0.9934 0.74995 0.56575 0.0
O399 O 0.98642 0.84929 0.61798 0.0
O400 O 0.99008 0.8812 0.59419 0.0
H401 H 1.00261 0.85438 0.5243 0.0
H402 H 1.00153 0.82574 0.50737 0.0
C403 C 0.99645 0.83753 0.5199 0.0
H404 H 0.9873 0.84455 0.5125 0.0
H405 H 1.00447 0.90267 0.55107 0.0
O406 O 0.97509 0.7895 0.6167 0.0
C407 C 0.99086 0.87197 0.61366 0.0
Co408 Co 0.72706 0.20899 0.34849 0.0
Co409 Co 0.73338 0.16344 0.31667 0.0
C410 C 0.70562 0.17611 0.33013 0.0
O411 O 0.70931 0.19509 0.34207 0.0
O412 O 0.71389 0.16249 0.31958 0.0
C413 C 0.71478 0.25534 0.36469 0.0
O414 O 0.70462 0.24587 0.35433 0.0
C415 C 0.73223 0.1413 0.27316 0.0
C416 C 0.7493 0.11531 0.27226 0.0
C417 C 0.73956 0.12582 0.25918 0.0
N418 N 0.73752 0.14027 0.29333 0.0
N419 N 0.74752 0.12418 0.29288 0.0
C420 C 0.72161 0.15989 0.26697 0.0
H421 H 0.72058 0.17536 0.27953 0.0
H422 H 0.72357 0.16895 0.25075 0.0
H423 H 0.71229 0.14911 0.26586 0.0
C424 C 0.73889 0.23985 0.31133 0.0
N425 N 0.7359 0.2171 0.32139 0.0
N426 N 0.73946 0.19774 0.30866 0.0
C427 C 0.74537 0.20763 0.29056 0.0
C428 C 0.74499 0.23472 0.29128 0.0
C429 C 0.73464 0.26584 0.31972 0.0
H430 H 0.73964 0.27 0.33551 0.0
H431 H 0.72403 0.26536 0.32285 0.0
H432 H 0.73667 0.28169 0.3079 0.0
O433 O 0.73661 0.18263 0.36781 0.0
O434 O 0.74113 0.15032 0.3449 0.0
H435 H 0.75588 0.17345 0.28069 0.0
H436 H 0.76045 0.20276 0.26638 0.0
C437 C 0.75217 0.19174 0.27346 0.0
H438 H 0.74536 0.1872 0.25988 0.0
H439 H 0.75364 0.12065 0.30625 0.0
O440 O 0.72527 0.24221 0.36508 0.0
C441 C 0.74139 0.16005 0.36421 0.0
Co442 Co 0.04766 0.5727 0.35012 0.0
Co443 Co 0.04138 0.61778 0.31746 0.0
C444 C 0.06901 0.60622 0.33235 0.0
O445 O 0.06531 0.58746 0.34447 0.0
O446 O 0.06079 0.61918 0.32113 0.0
C447 C 0.06013 0.52608 0.36313 0.0
O448 O 0.06884 0.53474 0.34917 0.0
C449 C 0.04299 0.63923 0.2735 0.0
C450 C 0.02529 0.66326 0.27096 0.0
C451 C 0.03543 0.65306 0.25863 0.0
N452 N 0.0373 0.64026 0.29336 0.0
N453 N 0.02692 0.65528 0.29191 0.0
C454 C 0.0553 0.62458 0.26902 0.0
H455 H 0.06268 0.62974 0.28149 0.0
H456 H 0.05345 0.60339 0.2703 0.0
H457 H 0.05937 0.62932 0.25263 0.0
C458 C 0.03585 0.54107 0.31297 0.0
N459 N 0.03903 0.56392 0.3228 0.0
N460 N 0.03555 0.58315 0.30983 0.0
C461 C 0.0296 0.57309 0.29184 0.0
C462 C 0.02983 0.54605 0.29279 0.0
C463 C 0.03969 0.515 0.32176 0.0
H464 H 0.03598 0.51277 0.33876 0.0
H465 H 0.05044 0.51372 0.32215 0.0
H466 H 0.03602 0.49881 0.3115 0.0
O467 O 0.03766 0.59895 0.36876 0.0
O468 O 0.03332 0.63104 0.34544 0.0
H469 H 0.01872 0.60672 0.2819 0.0
H470 H 0.01482 0.57747 0.26696 0.0
C471 C 0.02282 0.5888 0.27462 0.0
H472 H 0.0298 0.59396 0.26155 0.0
H473 H 0.02046 0.65865 0.30483 0.0
O474 O 0.05012 0.53988 0.36704 0.0
C475 C 0.03285 0.62144 0.36481 0.0
Co476 Co 0.72741 0.57347 0.43468 0.0
Co477 Co 0.73334 0.61863 0.46718 0.0
C478 C 0.7058 0.60617 0.4533 0.0
O479 O 0.70965 0.58755 0.44112 0.0
O480 O 0.71394 0.6196 0.4643 0.0
C481 C 0.71527 0.52608 0.42236 0.0
O482 O 0.70664 0.53422 0.43669 0.0
C483 C 0.73202 0.64249 0.51021 0.0
C484 C 0.74974 0.66671 0.51115 0.0
C485 C 0.73958 0.65771 0.52408 0.0
N486 N 0.7376 0.64215 0.49025 0.0
N487 N 0.74799 0.65726 0.49071 0.0
C488 C 0.72081 0.62538 0.51642 0.0
H489 H 0.71985 0.60895 0.50473 0.0
H490 H 0.722 0.61756 0.5333 0.0
H491 H 0.71172 0.63698 0.5159 0.0
C492 C 0.74016 0.54229 0.4709 0.0
N493 N 0.7365 0.5651 0.4616 0.0
N494 N 0.73951 0.58421 0.47506 0.0
C495 C 0.74549 0.57407 0.49305 0.0
C496 C 0.74589 0.54704 0.49128 0.0
C497 C 0.73832 0.51619 0.46051 0.0
H498 H 0.74112 0.51701 0.44294 0.0
H499 H 0.72793 0.51056 0.46167 0.0
H500 H 0.74427 0.50113 0.46883 0.0
O501 O 0.73694 0.5997 0.4155 0.0
O502 O 0.74098 0.63188 0.43885 0.0
H503 H 0.75794 0.5795 0.52149 0.0
H504 H 0.74207 0.59305 0.52374 0.0
C505 C 0.75022 0.5897 0.51223 0.0
H506 H 0.75415 0.60854 0.50654 0.0
H507 H 0.75436 0.65965 0.47752 0.0
O508 O 0.72499 0.5405 0.41802 0.0
C509 C 0.74149 0.62239 0.41945 0.0
Co510 Co 0.04757 0.20866 0.43602 0.0
Co511 Co 0.04245 0.16324 0.46895 0.0
C512 C 0.06961 0.17607 0.45414 0.0
O513 O 0.06549 0.19478 0.4423 0.0
O514 O 0.06172 0.16231 0.46529 0.0
C515 C 0.05884 0.257 0.42754 0.0
O516 O 0.06541 0.2497 0.44502 0.0
C517 C 0.04507 0.13569 0.51062 0.0
C518 C 0.02515 0.12133 0.51622 0.0
C519 C 0.03707 0.12481 0.52654 0.0
N520 N 0.03804 0.13978 0.4923 0.0
N521 N 0.02626 0.13022 0.49547 0.0
C522 C 0.05909 0.14312 0.51292 0.0
H523 H 0.06467 0.13411 0.49936 0.0
H524 H 0.06014 0.16452 0.51152 0.0
H525 H 0.0633 0.13623 0.52867 0.0
C526 C 0.03426 0.23941 0.47204 0.0
N527 N 0.03846 0.21682 0.46296 0.0
N528 N 0.03666 0.19788 0.47717 0.0
C529 C 0.03147 0.20807 0.49582 0.0
C530 C 0.02981 0.2348 0.49331 0.0
C531 C 0.03406 0.26509 0.46052 0.0
H532 H 0.03229 0.26235 0.4427 0.0
H533 H 0.04355 0.27494 0.46295 0.0
H534 H 0.02636 0.27782 0.46739 0.0
O535 O 0.03807 0.18239 0.41698 0.0
O536 O 0.03447 0.15022 0.44055 0.0
H537 H 0.02221 0.17752 0.5137 0.0
H538 H 0.02613 0.20543 0.53036 0.0
C539 C 0.02946 0.19308 0.51658 0.0
H540 H 0.0388 0.18424 0.52147 0.0
H541 H 0.01867 0.13175 0.48413 0.0
O542 O 0.05034 0.24164 0.4196 0.0
C543 C 0.03369 0.15963 0.42112 0.0
Co544 Co 0.79686 0.32299 0.68541 0.0
Co545 Co 0.79086 0.36879 0.71708 0.0
C546 C 0.81843 0.35605 0.70404 0.0
O547 O 0.81461 0.33722 0.69203 0.0
O548 O 0.81028 0.36975 0.71471 0.0
C549 C 0.80909 0.27544 0.67363 0.0
O550 O 0.81777 0.28379 0.68784 0.0
C551 C 0.79171 0.39492 0.75926 0.0
C552 C 0.77366 0.41817 0.75891 0.0
C553 C 0.78389 0.41055 0.77232 0.0
N554 N 0.78622 0.39307 0.73928 0.0
N555 N 0.77563 0.40759 0.73894 0.0
C556 C 0.80314 0.37889 0.76637 0.0
H557 H 0.80433 0.36176 0.7555 0.0
H558 H 0.80201 0.37219 0.78359 0.0
H559 H 0.81207 0.39094 0.76534 0.0
C560 C 0.78402 0.29257 0.722 0.0
N561 N 0.78765 0.31519 0.71233 0.0
N562 N 0.78468 0.33458 0.72551 0.0
C563 C 0.77876 0.32481 0.74369 0.0
C564 C 0.77834 0.29774 0.74233 0.0
C565 C 0.78591 0.26627 0.71203 0.0
H566 H 0.7831 0.26668 0.69444 0.0
H567 H 0.79631 0.2608 0.71327 0.0
H568 H 0.78 0.25133 0.72059 0.0
O569 O 0.78745 0.34875 0.66553 0.0
O570 O 0.78344 0.38132 0.68841 0.0
H571 H 0.76682 0.33063 0.77265 0.0
H572 H 0.78258 0.34496 0.77371 0.0
C573 C 0.77424 0.34085 0.76274 0.0
H574 H 0.77002 0.35934 0.75682 0.0
H575 H 0.7693 0.40885 0.72556 0.0
O576 O 0.79932 0.28971 0.66926 0.0
C577 C 0.78295 0.37154 0.66914 0.0
Co578 Co 0.47682 0.96016 0.68202 0.0
Co579 Co 0.48289 0.91533 0.71503 0.0
C580 C 0.45533 0.92704 0.69992 0.0
O581 O 0.45909 0.94591 0.68798 0.0
O582 O 0.46351 0.91391 0.71106 0.0
C583 C 0.46494 1.00756 0.67108 0.0
O584 O 0.45748 1.00011 0.68743 0.0
C585 C 0.48032 0.89301 0.75855 0.0
C586 C 0.49837 0.87037 0.76262 0.0
C587 C 0.48763 0.87953 0.774 0.0
N588 N 0.4867 0.8928 0.73929 0.0
N589 N 0.49732 0.87858 0.74162 0.0
C590 C 0.46756 0.90647 0.76193 0.0
H591 H 0.46863 0.92755 0.75857 0.0
H592 H 0.46358 0.90331 0.77864 0.0
H593 H 0.46041 0.89861 0.75007 0.0
C594 C 0.48957 0.99194 0.71817 0.0
N595 N 0.4858 0.96907 0.709 0.0
N596 N 0.48878 0.95006 0.72256 0.0
C597 C 0.49482 0.96032 0.74045 0.0
C598 C 0.4953 0.98729 0.73856 0.0
C599 C 0.48803 0.018 0.70759 0.0
H600 H 0.49029 0.01669 0.68982 0.0
H601 H 0.47785 0.02465 0.70963 0.0
H602 H 0.49456 0.03259 0.71528 0.0
O603 O 0.48644 0.93351 0.66348 0.0
O604 O 0.49113 0.90185 0.68707 0.0
H605 H 0.5042 0.92677 0.75394 0.0
H606 H 0.50638 0.95566 0.77011 0.0
C607 C 0.49944 0.94479 0.75969 0.0
H608 H 0.49098 0.93984 0.77003 0.0
H609 H 0.50426 0.87594 0.72933 0.0
O610 O 0.47412 0.99269 0.66491 0.0
C611 C 0.49138 0.91117 0.66757 0.0
Co612 Co 0.79674 0.95867 0.59972 0.0
Co613 Co 0.79086 0.91363 0.56671 0.0
C614 C 0.81831 0.92541 0.58195 0.0
O615 O 0.81452 0.9445 0.59364 0.0
O616 O 0.81017 0.91199 0.57094 0.0
C617 C 0.80888 1.00575 0.61259 0.0
O618 O 0.81752 0.99771 0.59822 0.0
C619 C 0.79351 0.88796 0.52429 0.0
C620 C 0.77403 0.87107 0.51915 0.0
C621 C 0.78566 0.87633 0.50848 0.0
N622 N 0.78663 0.89065 0.54293 0.0
N623 N 0.77514 0.87966 0.54001 0.0
C624 C 0.80724 0.89718 0.5217 0.0
H625 H 0.8133 0.88838 0.53478 0.0
H626 H 0.80766 0.9186 0.5237 0.0
H627 H 0.81144 0.89142 0.50564 0.0
C628 C 0.78424 0.99031 0.56356 0.0
N629 N 0.78787 0.96736 0.57269 0.0
N630 N 0.78534 0.9485 0.55871 0.0
C631 C 0.77997 0.959 0.54032 0.0
C632 C 0.77916 0.98594 0.54262 0.0
C633 C 0.78547 1.01612 0.57468 0.0
H634 H 0.78259 1.01442 0.59218 0.0
H635 H 0.79573 0.02265 0.57386 0.0
H636 H 0.77926 0.03097 0.56663 0.0
O637 O 0.78718 0.93212 0.61838 0.0
O638 O 0.78248 0.90058 0.59471 0.0
H639 H 0.77025 0.92755 0.52425 0.0
H640 H 0.77213 0.9559 0.50716 0.0
C641 C 0.77679 0.94389 0.52003 0.0
H642 H 0.7859 0.9361 0.51311 0.0
H643 H 0.76771 0.87986 0.55167 0.0
O644 O 0.7991 0.99141 0.61671 0.0
C645 C 0.78222 0.90983 0.61423 0.0
Co646 Co 0.47689 0.32441 0.59768 0.0
Co647 Co 0.48244 0.37011 0.5653 0.0
C648 C 0.4551 0.3576 0.57951 0.0
O649 O 0.4591 0.33866 0.59121 0.0
O650 O 0.46311 0.37144 0.56864 0.0
C651 C 0.4653 0.2762 0.60586 0.0
O652 O 0.45858 0.28398 0.5887 0.0
C653 C 0.48042 0.39835 0.52383 0.0
C654 C 0.50048 0.41241 0.51912 0.0
C655 C 0.48868 0.40937 0.50834 0.0
N656 N 0.48721 0.39378 0.54233 0.0
N657 N 0.49907 0.40314 0.5397 0.0
C658 C 0.46638 0.39136 0.52099 0.0
H659 H 0.46072 0.40015 0.53456 0.0
H660 H 0.46517 0.36996 0.52197 0.0
H661 H 0.46238 0.39876 0.50525 0.0
C662 C 0.49022 0.29381 0.5616 0.0
N663 N 0.48612 0.3164 0.57082 0.0
N664 N 0.48809 0.33545 0.55678 0.0
C665 C 0.49327 0.32535 0.5381 0.0
C666 C 0.49477 0.29853 0.54041 0.0
C667 C 0.49019 0.26801 0.57293 0.0
H668 H 0.49197 0.2705 0.59077 0.0
H669 H 0.48062 0.25852 0.57042 0.0
H670 H 0.49779 0.25508 0.56599 0.0
O671 O 0.48631 0.35028 0.61717 0.0
O672 O 0.49042 0.38256 0.59398 0.0
H673 H 0.50273 0.35594 0.52058 0.0
H674 H 0.49879 0.32826 0.50365 0.0
C675 C 0.49544 0.34053 0.51748 0.0
H676 H 0.48617 0.34957 0.51252 0.0
H677 H 0.50651 0.40126 0.55128 0.0
O678 O 0.47396 0.29125 0.61373 0.0
C679 C 0.49094 0.37292 0.61335 0.0
Co680 Co 0.22751 0.70905 0.34921 0.0
Co681 Co 0.23279 0.66366 0.31665 0.0
C682 C 0.20544 0.67759 0.33144 0.0
O683 O 0.20948 0.696 0.3437 0.0
O684 O 0.21338 0.66402 0.32019 0.0
C685 C 0.21605 0.75361 0.37096 0.0
O686 O 0.20495 0.742 0.3668 0.0
C687 C 0.23046 0.64153 0.27322 0.0
C688 C 0.24685 0.61391 0.27156 0.0
C689 C 0.23702 0.625 0.25902 0.0
N690 N 0.23621 0.64043 0.29302 0.0
N691 N 0.24583 0.62345 0.29212 0.0
C692 C 0.22008 0.66085 0.2675 0.0
H693 H 0.2197 0.67667 0.27986 0.0
H694 H 0.22181 0.66938 0.25101 0.0
H695 H 0.21052 0.65086 0.26726 0.0
C696 C 0.23897 0.73974 0.31178 0.0
N697 N 0.23595 0.71697 0.32175 0.0
N698 N 0.23917 0.69766 0.30871 0.0
C699 C 0.24488 0.70757 0.29046 0.0
C700 C 0.24477 0.73468 0.29146 0.0
C701 C 0.23504 0.76574 0.32058 0.0
H702 H 0.22499 0.76466 0.32709 0.0
H703 H 0.23539 0.78103 0.30776 0.0
H704 H 0.24163 0.77116 0.33428 0.0
O705 O 0.23704 0.68218 0.36785 0.0
O706 O 0.24065 0.64977 0.34457 0.0
H707 H 0.25943 0.70223 0.26541 0.0
H708 H 0.24401 0.68747 0.25966 0.0
C709 C 0.25115 0.69155 0.27286 0.0
H710 H 0.25475 0.67297 0.27974 0.0
H711 H 0.25214 0.61952 0.30515 0.0
O712 O 0.22663 0.74231 0.36588 0.0
C713 C 0.24139 0.65934 0.36391 0.0
Co714 Co 0.5472 0.07521 0.34678 0.0
Co715 Co 0.54122 0.12073 0.31474 0.0
C716 C 0.56881 0.10788 0.32834 0.0
O717 O 0.56495 0.08911 0.3403 0.0
O718 O 0.56067 0.12158 0.31762 0.0
C719 C 0.55904 0.02737 0.35664 0.0
O720 O 0.56637 0.03505 0.34021 0.0
C721 C 0.54299 0.14395 0.27167 0.0
C722 C 0.52588 0.1698 0.2703 0.0
C723 C 0.53592 0.15983 0.2576 0.0
N724 N 0.53728 0.14427 0.29152 0.0
N725 N 0.52726 0.16028 0.29081 0.0
C726 C 0.5538 0.12572 0.26573 0.0
H727 H 0.55437 0.10946 0.27765 0.0
H728 H 0.55242 0.11767 0.24897 0.0
H729 H 0.56315 0.13649 0.26611 0.0
C730 C 0.53423 0.04445 0.31021 0.0
N731 N 0.53799 0.06707 0.31981 0.0
N732 N 0.53493 0.08645 0.30666 0.0
C733 C 0.52877 0.07667 0.28868 0.0
C734 C 0.52837 0.04966 0.29005 0.0
C735 C 0.53599 0.01806 0.32006 0.0
H736 H 0.53382 0.01864 0.33789 0.0
H737 H 0.54619 1.01173 0.31766 0.0
H738 H 0.52951 1.0036 0.31206 0.0
O739 O 0.53778 0.10153 0.3662 0.0
O740 O 0.53353 0.13386 0.34312 0.0
H741 H 0.51551 0.08248 0.26152 0.0
H742 H 0.53139 0.09574 0.25779 0.0
C743 C 0.52359 0.09258 0.27003 0.0
H744 H 0.51999 0.11151 0.27611 0.0
H745 H 0.52088 0.16338 0.30388 0.0
O746 O 0.54995 0.04222 0.36326 0.0
C747 C 0.53315 0.12421 0.36247 0.0
Co748 Co 0.22766 0.07333 0.43601 0.0
Co749 Co 0.23381 0.11909 0.46778 0.0
C750 C 0.20618 0.10662 0.45385 0.0
O751 O 0.2099 0.08755 0.44207 0.0
O752 O 0.2144 0.12019 0.46457 0.0
C753 C 0.21527 0.02658 0.42093 0.0
O754 O 0.20526 0.03605 0.43165 0.0
C755 C 0.23241 0.14354 0.5105 0.0
C756 C 0.25009 0.16792 0.51125 0.0
C757 C 0.23993 0.15902 0.52423 0.0
N758 N 0.23801 0.14298 0.49057 0.0
N759 N 0.24836 0.15818 0.4909 0.0
C760 C 0.22124 0.12639 0.51686 0.0
H761 H 0.22028 0.1099 0.50523 0.0
H762 H 0.2225 0.11868 0.53376 0.0
H763 H 0.21214 0.13793 0.51638 0.0
C764 C 0.23987 0.04276 0.47299 0.0
N765 N 0.23656 0.06548 0.46319 0.0
N766 N 0.23981 0.08482 0.47624 0.0
C767 C 0.24572 0.07491 0.49439 0.0
C768 C 0.24575 0.04782 0.49321 0.0
C769 C 0.23745 0.01653 0.46318 0.0
H770 H 0.24124 1.01607 0.44614 0.0
H771 H 0.22683 1.01285 0.46262 0.0
H772 H 0.24223 1.0009 0.47281 0.0
O773 O 0.23724 0.09929 0.41656 0.0
O774 O 0.24166 0.13168 0.43947 0.0
H775 H 0.2546 0.10958 0.5071 0.0
H776 H 0.25857 0.08074 0.52221 0.0
C777 C 0.25073 0.09086 0.51316 0.0
H778 H 0.24275 0.09445 0.52497 0.0
H779 H 0.25474 0.16043 0.4777 0.0
O780 O 0.22567 0.03992 0.41979 0.0
C781 C 0.24201 0.12187 0.42019 0.0
Co782 Co 0.5482 0.71101 0.4326 0.0
Co783 Co 0.54187 0.66599 0.4652 0.0
C784 C 0.56955 0.67816 0.451 0.0
O785 O 0.56594 0.6972 0.43913 0.0
O786 O 0.56124 0.66477 0.46159 0.0
C787 C 0.56005 0.75857 0.42189 0.0
O788 O 0.56766 0.7508 0.43794 0.0
C789 C 0.54442 0.64392 0.50866 0.0
C790 C 0.5269 0.61951 0.51217 0.0
C791 C 0.5374 0.62946 0.5238 0.0
N792 N 0.53813 0.64336 0.4893 0.0
N793 N 0.52784 0.62817 0.4913 0.0
C794 C 0.55686 0.65851 0.51238 0.0
H795 H 0.55542 0.67938 0.50846 0.0
H796 H 0.56059 0.65626 0.52936 0.0
H797 H 0.56438 0.65088 0.50107 0.0
C798 C 0.53543 0.7425 0.46892 0.0
N799 N 0.53908 0.71972 0.45947 0.0
N800 N 0.53583 0.70053 0.47267 0.0
C801 C 0.52963 0.71055 0.49044 0.0
C802 C 0.52941 0.73753 0.48898 0.0
C803 C 0.53748 0.7688 0.45907 0.0
H804 H 0.53513 0.76836 0.4413 0.0
H805 H 0.5478 0.77452 0.46121 0.0
H806 H 0.53129 0.78361 0.46722 0.0
O807 O 0.53875 0.68406 0.41372 0.0
O808 O 0.53384 0.65252 0.43728 0.0
H809 H 0.52011 0.67652 0.50286 0.0
H810 H 0.51686 0.70559 0.51839 0.0
C811 C 0.52439 0.69484 0.50909 0.0
H812 H 0.53242 0.69038 0.52053 0.0
H813 H 0.52104 0.62499 0.47883 0.0
O814 O 0.55082 0.74377 0.4157 0.0
C815 C 0.53375 0.66173 0.41776 0.0
Co816 Co 0.79758 0.82381 0.18526 0.0
Co817 Co 0.79163 0.86893 0.21768 0.0
C818 C 0.81919 0.85641 0.20406 0.0
O819 O 0.81534 0.83803 0.19162 0.0
O820 O 0.81107 0.86967 0.2152 0.0
C821 C 0.80964 0.77633 0.17318 0.0
O822 O 0.81827 0.78449 0.18757 0.0
C823 C 0.79283 0.89287 0.2607 0.0
C824 C 0.77522 0.91738 0.26128 0.0
C825 C 0.78529 0.90828 0.2744 0.0
N826 N 0.78734 0.89253 0.24066 0.0
N827 N 0.77701 0.9078 0.2409 0.0
C828 C 0.80395 0.87561 0.26715 0.0
H829 H 0.80494 0.85921 0.25544 0.0
H830 H 0.8026 0.86776 0.28397 0.0
H831 H 0.81307 0.88712 0.2669 0.0
C832 C 0.78475 0.79266 0.22146 0.0
N833 N 0.78845 0.81546 0.21216 0.0
N834 N 0.7854 0.83459 0.22554 0.0
C835 C 0.77933 0.82449 0.24347 0.0
C836 C 0.77894 0.79746 0.24174 0.0
C837 C 0.7866 0.76654 0.21113 0.0
H838 H 0.78383 0.76732 0.19353 0.0
H839 H 0.79698 0.76091 0.21241 0.0
H840 H 0.78061 0.7515 0.21941 0.0
O841 O 0.78806 0.84989 0.16599 0.0
O842 O 0.784 0.88213 0.18922 0.0
H843 H 0.77068 0.85905 0.25674 0.0
H844 H 0.76671 0.83005 0.27159 0.0
C845 C 0.77452 0.84018 0.26252 0.0
H846 H 0.7826 0.84345 0.27423 0.0
H847 H 0.77071 0.91024 0.22759 0.0
O848 O 0.79997 0.79081 0.16868 0.0
C849 C 0.7835 0.87256 0.16985 0.0
Co850 Co 0.47745 0.45795 0.18456 0.0
Co851 Co 0.48408 0.41304 0.21692 0.0
C852 C 0.45633 0.42428 0.2032 0.0
O853 O 0.45996 0.44296 0.19093 0.0
O854 O 0.46461 0.41132 0.21428 0.0
C855 C 0.46463 0.50452 0.17256 0.0
O856 O 0.45631 0.4957 0.18712 0.0
C857 C 0.48309 0.391 0.26045 0.0
C858 C 0.5004 0.36566 0.2616 0.0
C859 C 0.49051 0.3758 0.27453 0.0
N860 N 0.48846 0.39017 0.24035 0.0
N861 N 0.49861 0.37446 0.24095 0.0
C862 C 0.47228 0.40919 0.2665 0.0
H863 H 0.47124 0.42478 0.25405 0.0
H864 H 0.47403 0.41813 0.28284 0.0
H865 H 0.46303 0.39813 0.26725 0.0
C866 C 0.48981 0.48966 0.22116 0.0
N867 N 0.48649 0.46676 0.21154 0.0
N868 N 0.48994 0.4476 0.22461 0.0
C869 C 0.49594 0.45775 0.24256 0.0
C870 C 0.49583 0.48478 0.24134 0.0
C871 C 0.4861 0.51571 0.21219 0.0
H872 H 0.48939 0.51735 0.19489 0.0
H873 H 0.47538 0.51759 0.2126 0.0
H874 H 0.49025 0.53193 0.22186 0.0
O875 O 0.48712 0.43183 0.16534 0.0
O876 O 0.49182 0.39994 0.18863 0.0
H877 H 0.51073 0.45327 0.26738 0.0
H878 H 0.49557 0.43778 0.27342 0.0
C879 C 0.50254 0.44214 0.26007 0.0
H880 H 0.50637 0.42378 0.25316 0.0
H881 H 0.5048 0.37113 0.22767 0.0
O882 O 0.47455 0.49081 0.16787 0.0
C883 C 0.49201 0.4094 0.1692 0.0
Co884 Co 0.79758 0.4594 0.09964 0.0
Co885 Co 0.79142 0.41462 0.06661 0.0
C886 C 0.81908 0.42694 0.08192 0.0
O887 O 0.81539 0.44579 0.09396 0.0
O888 O 0.81085 0.41375 0.07089 0.0
C889 C 0.80957 0.50515 0.11748 0.0
O890 O 0.81995 0.49562 0.10785 0.0
C891 C 0.79371 0.39519 0.0222 0.0
C892 C 0.77642 0.37021 0.0183 0.0
C893 C 0.78651 0.38163 1.00665 0.0
N894 N 0.78785 0.39283 0.04183 0.0
N895 N 0.77771 0.37727 0.03955 0.0
C896 C 0.80576 0.41098 0.01853 0.0
H897 H 0.81311 0.40597 0.0311 0.0
H898 H 0.80347 0.43195 0.02028 0.0
H899 H 0.81011 0.40718 1.00218 0.0
C900 C 0.78623 0.49121 0.06249 0.0
N901 N 0.78913 0.46824 0.07231 0.0
N902 N 0.78547 0.44916 0.05936 0.0
C903 C 0.77951 0.45942 0.04146 0.0
C904 C 0.78004 0.48648 0.04239 0.0
C905 C 0.79056 0.517 0.07121 0.0
H906 H 0.78516 0.52143 0.08653 0.0
H907 H 0.80106 0.51605 0.07526 0.0
H908 H 0.78905 0.53288 0.05918 0.0
O909 O 0.7879 0.43213 0.11778 0.0
O910 O 0.78314 0.4006 0.09411 0.0
H911 H 0.76847 0.42581 0.03189 0.0
H912 H 0.76421 0.45527 0.0175 0.0
C913 C 0.77237 0.44387 0.02453 0.0
H914 H 0.77906 0.4389 1.01097 0.0
H915 H 0.77118 0.37291 0.05215 0.0
O916 O 0.79903 0.4922 0.11693 0.0
C917 C 0.78294 0.4098 0.11363 0.0
Co918 Co 0.47618 0.82188 0.10012 0.0
Co919 Co 0.4819 0.86663 0.06686 0.0
C920 C 0.4545 0.85457 0.08128 0.0
O921 O 0.4584 0.83582 0.09327 0.0
O922 O 0.46257 0.86812 0.0703 0.0
C923 C 0.46461 0.77393 0.10933 0.0
O924 O 0.45795 0.78115 0.09193 0.0
C925 C 0.47971 0.89316 0.02469 0.0
C926 C 0.49967 0.90763 0.01954 0.0
C927 C 0.48789 0.90379 1.00889 0.0
N928 N 0.48655 0.88954 0.04329 0.0
N929 N 0.49834 0.89915 0.04038 0.0
C930 C 0.46572 0.88567 0.02211 0.0
H931 H 0.46467 0.86429 0.02369 0.0
H932 H 0.46164 0.89234 1.0062 0.0
H933 H 0.46001 0.89484 0.03543 0.0
C934 C 0.48949 0.79022 0.0646 0.0
N935 N 0.48543 0.81307 0.07342 0.0
N936 N 0.48753 0.83177 0.0591 0.0
C937 C 0.49281 0.8212 0.04069 0.0
C938 C 0.49419 0.79445 0.04344 0.0
C939 C 0.48924 0.76461 0.07623 0.0
H940 H 0.49101 0.76736 0.09405 0.0
H941 H 0.47961 0.75538 0.07378 0.0
H942 H 0.49675 0.75134 0.06948 0.0
O943 O 0.48552 0.84855 0.11905 0.0
O944 O 0.49 0.87987 0.09508 0.0
H945 H 0.50236 0.85161 0.02308 0.0
H946 H 0.49896 0.8234 1.00651 0.0
C947 C 0.49525 0.8359 0.01991 0.0
H948 H 0.486 0.84448 1.01426 0.0
H949 H 0.50579 0.89795 0.05199 0.0
O950 O 0.47324 0.78922 0.11694 0.0
C951 C 0.49033 0.87092 0.11469 0.0
Co952 Co 0.226 0.2098 0.84999 0.0
Co953 Co 0.23207 0.16473 0.81718 0.0
C954 C 0.20448 0.17714 0.83183 0.0
O955 O 0.20819 0.19617 0.84366 0.0
O956 O 0.2127 0.16364 0.82112 0.0
C957 C 0.21411 0.25694 0.8639 0.0
O958 O 0.20499 0.24893 0.85037 0.0
C959 C 0.22955 0.14134 0.77395 0.0
C960 C 0.24816 0.12058 0.76992 0.0
C961 C 0.23717 0.12855 0.75851 0.0
N962 N 0.23601 0.14198 0.79317 0.0
N963 N 0.24694 0.12878 0.79088 0.0
C964 C 0.21643 0.15336 0.77061 0.0
H965 H 0.20965 0.14574 0.78318 0.0
H966 H 0.2171 0.17473 0.77282 0.0
H967 H 0.21229 0.14866 0.75425 0.0
C968 C 0.23831 0.24133 0.81361 0.0
N969 N 0.23487 0.21841 0.82299 0.0
N970 N 0.23797 0.19937 0.80955 0.0
C971 C 0.24386 0.20967 0.79157 0.0
C972 C 0.24409 0.23665 0.79331 0.0
C973 C 0.23606 0.26744 0.82372 0.0
H974 H 0.22551 0.27184 0.82337 0.0
H975 H 0.24133 0.28293 0.8147 0.0
H976 H 0.23937 0.26731 0.84107 0.0
O977 O 0.23547 0.18285 0.86864 0.0
O978 O 0.24025 0.1513 0.84506 0.0
H979 H 0.2537 0.17666 0.77813 0.0
H980 H 0.25521 0.20566 0.76176 0.0
C981 C 0.24856 0.19426 0.77234 0.0
H982 H 0.2401 0.18848 0.76224 0.0
H983 H 0.254 0.12703 0.80312 0.0
O984 O 0.224 0.24257 0.86712 0.0
C985 C 0.24043 0.16054 0.86457 0.0
Co986 Co 0.5468 0.57083 0.85081 0.0
Co987 Co 0.54089 0.61634 0.81857 0.0
C988 C 0.5685 0.60308 0.83384 0.0
O989 O 0.56479 0.58377 0.84533 0.0
O990 O 0.56026 0.61677 0.82327 0.0
C991 C 0.55827 0.52615 0.87212 0.0
O992 O 0.56934 0.53754 0.86738 0.0
C993 C 0.54379 0.63569 0.77439 0.0
C994 C 0.52708 0.6621 0.77015 0.0
C995 C 0.53707 0.65001 0.75876 0.0
N996 N 0.53778 0.63838 0.79386 0.0
N997 N 0.52798 0.65473 0.79139 0.0
C998 C 0.55554 0.61894 0.77095 0.0
H999 H 0.5631 0.62413 0.78314 0.0
H1000 H 0.55292 0.59824 0.77356 0.0
H1001 H 0.55977 0.62154 0.75435 0.0
C1002 C 0.53569 0.54001 0.81299 0.0
N1003 N 0.53847 0.5627 0.82333 0.0
N1004 N 0.53476 0.5821 0.81082 0.0
C1005 C 0.52879 0.57233 0.79274 0.0
C1006 C 0.52945 0.54524 0.79303 0.0
C1007 C 0.54013 0.51405 0.82114 0.0
H1008 H 0.55008 0.51573 0.82802 0.0
H1009 H 0.54019 0.4993 0.80785 0.0
H1010 H 0.53354 0.50747 0.83446 0.0
O1011 O 0.53716 0.59807 0.86918 0.0
O1012 O 0.53258 0.63019 0.84601 0.0
H1013 H 0.51321 0.57716 0.7694 0.0
H1014 H 0.52799 0.59374 0.76273 0.0
C1015 C 0.52147 0.58836 0.77639 0.0
H1016 H 0.51769 0.60625 0.78425 0.0
H1017 H 0.52143 0.65953 0.80383 0.0
O1018 O 0.54765 0.53766 0.86757 0.0
C1019 C 0.53229 0.62056 0.86538 0.0
Co1020 Co 0.22715 0.57434 0.93758 0.0
Co1021 Co 0.23276 0.62033 0.96939 0.0
C1022 C 0.20529 0.60676 0.95545 0.0
O1023 O 0.20924 0.58787 0.94367 0.0
O1024 O 0.21336 0.62071 0.96612 0.0
C1025 C 0.21532 0.52656 0.92536 0.0
O1026 O 0.20653 0.53473 0.9394 0.0
C1027 C 0.2306 0.64451 1.01208 0.0
C1028 C 0.24773 0.67032 1.01344 0.0
C1029 C 0.23757 0.66069 0.02605 0.0
N1030 N 0.23648 0.64433 0.99237 0.0
N1031 N 0.24652 0.66033 0.99307 0.0
C1032 C 0.21969 0.62649 0.01804 0.0
H1033 H 0.21922 0.6099 1.00643 0.0
H1034 H 0.22087 0.6189 0.03498 0.0
H1035 H 0.21037 0.63728 1.01717 0.0
C1036 C 0.23988 0.54423 0.97449 0.0
N1037 N 0.23618 0.56676 0.96474 0.0
N1038 N 0.23909 0.58624 0.97787 0.0
C1039 C 0.24508 0.57664 0.99607 0.0
C1040 C 0.24557 0.54957 0.9948 0.0
C1041 C 0.23808 0.51786 0.96457 0.0
H1042 H 0.24104 0.5182 0.94706 0.0
H1043 H 0.22767 0.51236 0.96554 0.0
H1044 H 0.24393 0.50299 0.97334 0.0
O1045 O 0.23654 0.60064 0.91818 0.0
O1046 O 0.24058 0.63326 0.94108 0.0
H1047 H 0.25766 0.58312 0.02414 0.0
H1048 H 0.24164 0.59596 0.02662 0.0
C1049 C 0.24975 0.59283 1.01496 0.0
H1050 H 0.25339 0.61178 1.00899 0.0
H1051 H 0.25301 0.66309 0.9801 0.0
O1052 O 0.22506 0.54102 0.92124 0.0
C1053 C 0.2411 0.62341 0.92181 0.0
Co1054 Co 0.54686 0.20672 0.93516 0.0
Co1055 Co 0.54103 0.16104 0.96714 0.0
C1056 C 0.56857 0.17422 0.95278 0.0
O1057 O 0.56473 0.193 0.94077 0.0
O1058 O 0.56046 0.16069 0.96374 0.0
C1059 C 0.55882 0.25207 0.91577 0.0
O1060 O 0.56973 0.24119 0.92219 0.0
C1061 C 0.54303 0.13861 1.01048 0.0
C1062 C 0.52637 0.11161 1.01195 0.0
C1063 C 0.53625 0.12235 0.02461 0.0
N1064 N 0.53735 0.13771 0.99061 0.0
N1065 N 0.52757 0.12109 0.9914 0.0
C1066 C 0.55356 0.15759 1.01632 0.0
H1067 H 0.55413 0.17339 1.00398 0.0
H1068 H 0.55184 0.16617 0.0328 0.0
H1069 H 0.56303 0.14728 1.01666 0.0
C1070 C 0.53546 0.23729 0.97271 0.0
N1071 N 0.53835 0.21456 0.96256 0.0
N1072 N 0.53492 0.19519 0.97536 0.0
C1073 C 0.52919 0.20503 0.99364 0.0
C1074 C 0.52953 0.23215 0.99291 0.0
C1075 C 0.53966 0.26328 0.96422 0.0
H1076 H 0.53357 0.26856 0.94983 0.0
H1077 H 0.54991 0.26216 0.95873 0.0
H1078 H 0.53887 0.27867 0.97689 0.0
O1079 O 0.53718 0.18043 0.91616 0.0
O1080 O 0.53312 0.14777 0.93898 0.0
H1081 H 0.51897 0.17064 1.00387 0.0
H1082 H 0.51448 0.19986 0.01843 0.0
C1083 C 0.5227 0.189 1.01098 0.0
H1084 H 0.52973 0.1845 0.02424 0.0
H1085 H 0.52126 0.11742 0.97831 0.0
O1086 O 0.54814 0.24008 0.91874 0.0
C1087 C 0.53259 0.15769 0.91974 0.0
H1088 H 0.27581 0.44006 0.30741 0.0
H1089 H 0.27632 0.43515 0.34761 0.0
H1090 H 0.30056 0.36729 0.34083 0.0
H1091 H 0.29975 0.37149 0.30116 0.0
H1092 H 0.27828 0.35958 0.36644 0.0
H1093 H 0.30604 0.44699 0.39294 0.0
H1094 H 0.29263 0.45277 0.37456 0.0
H1095 H 0.3065 0.43483 0.36509 0.0
C1096 C 0.28148 0.42449 0.31458 0.0
C1097 C 0.28808 0.40672 0.30106 0.0
C1098 C 0.28179 0.42173 0.3375 0.0
C1099 C 0.28864 0.40105 0.34715 0.0
C1100 C 0.29536 0.38355 0.3337 0.0
H1101 H 0.30667 0.37086 0.48417 0.0
H1102 H 0.30749 0.37636 0.44416 0.0
C1103 C 0.29504 0.38627 0.31093 0.0
C1104 C 0.28806 0.39621 0.37111 0.0
H1105 H 0.297 0.42076 0.42101 0.0
C1106 C 0.28237 0.37295 0.37839 0.0
C1107 C 0.29351 0.41358 0.38656 0.0
C1108 C 0.30012 0.43838 0.37949 0.0
C1109 C 0.28191 0.36664 0.4008 0.0
C1110 C 0.28718 0.38419 0.41629 0.0
C1111 C 0.29295 0.40738 0.40903 0.0
C1112 C 0.28663 0.37903 0.44018 0.0
C1113 C 0.276 0.34108 0.40771 0.0
C1114 C 0.27462 0.37827 0.45106 0.0
C1115 C 0.27413 0.37531 0.47386 0.0
C1116 C 0.28566 0.37331 0.48617 0.0
C1117 C 0.29765 0.37294 0.47513 0.0
C1118 C 0.29814 0.37601 0.45232 0.0
H1119 H 0.2752 0.32729 0.39371 0.0
H1120 H 0.28185 0.33187 0.42094 0.0
H1121 H 0.26607 0.34459 0.41421 0.0
H1122 H 0.26564 0.38083 0.44199 0.0
H1123 H 0.26476 0.37579 0.48193 0.0
H1124 H 0.99457 0.93981 0.47733 0.0
H1125 H 0.99457 0.93485 0.43713 0.0
H1126 H 0.97572 0.86039 0.44365 0.0
H1127 H 0.97614 0.86466 0.48328 0.0
H1128 H 0.99765 0.85894 0.4177 0.0
H1129 H 0.96453 0.93885 0.39221 0.0
H1130 H 0.97769 0.94823 0.41 0.0
H1131 H 0.96523 0.9269 0.4201 0.0
C1132 C 0.99021 0.92265 0.4701 0.0
C1133 C 0.98497 0.90308 0.48356 0.0
C1134 C 0.99017 0.91988 0.44718 0.0
C1135 C 0.98495 0.89742 0.43743 0.0
C1136 C 0.97965 0.87801 0.45083 0.0
H1137 H 0.96815 0.86673 0.30003 0.0
H1138 H 0.96714 0.87123 0.34013 0.0
C1139 C 0.97972 0.88072 0.4736 0.0
C1140 C 0.98574 0.89301 0.41343 0.0
H1141 H 0.9752 0.91568 0.36381 0.0
C1142 C 0.99274 0.87134 0.4059 0.0
C1143 C 0.97921 0.90905 0.39815 0.0
C1144 C 0.97114 0.93196 0.40544 0.0
C1145 C 0.99344 0.86532 0.38345 0.0
C1146 C 0.98712 0.88165 0.36813 0.0
C1147 C 0.98005 0.90324 0.37564 0.0
C1148 C 0.98786 0.8769 0.34418 0.0
C1149 C 1.00073 0.8413 0.37637 0.0
C1150 C 0.99986 0.87816 0.33329 0.0
C1151 C 1.00044 0.87564 0.31047 0.0
C1152 C 0.98902 0.87214 0.29813 0.0
C1153 C 0.97707 0.86985 0.30913 0.0
C1154 C 0.97649 0.87239 0.33199 0.0
H1155 H 1.00205 0.82743 0.39019 0.0
H1156 H 0.99557 0.83121 0.36277 0.0
H1157 H 1.01051 0.84699 0.37037 0.0
H1158 H 1.00872 0.88199 0.34237 0.0
H1159 H 1.00977 0.87768 0.30239 0.0
H1160 H 0.27598 0.94163 0.80659 0.0
H1161 H 0.27623 0.93716 0.84684 0.0
H1162 H 0.29951 0.86786 0.84095 0.0
H1163 H 0.29894 0.87161 0.80125 0.0
H1164 H 0.27715 0.86161 0.86634 0.0
H1165 H 0.30578 0.94805 0.89242 0.0
H1166 H 0.29248 0.95428 0.87394 0.0
H1167 H 0.30616 0.93563 0.86465 0.0
C1168 C 0.28139 0.92581 0.81398 0.0
C1169 C 0.28779 0.90751 0.80069 0.0
C1170 C 0.28155 0.92331 0.83691 0.0
C1171 C 0.28805 0.90237 0.84683 0.0
C1172 C 0.29458 0.88433 0.83362 0.0
H1173 H 0.30577 0.87306 0.98384 0.0
H1174 H 0.30652 0.87851 0.94384 0.0
C1175 C 0.2944 0.88678 0.81083 0.0
C1176 C 0.2873 0.89785 0.87081 0.0
H1177 H 0.29635 0.92254 0.9206 0.0
C1178 C 0.28133 0.87493 0.87823 0.0
C1179 C 0.29288 0.91517 0.88619 0.0
C1180 C 0.29979 0.93959 0.879 0.0
C1181 C 0.28077 0.86885 0.90067 0.0
C1182 C 0.28618 0.88634 0.91608 0.0
C1183 C 0.29219 0.90922 0.90869 0.0
C1184 C 0.28565 0.8813 0.93999 0.0
C1185 C 0.2746 0.84356 0.90769 0.0
C1186 C 0.27366 0.88066 0.95095 0.0
C1187 C 0.27322 0.87767 0.97375 0.0
C1188 C 0.28478 0.87557 0.98598 0.0
C1189 C 0.29674 0.8752 0.97487 0.0
C1190 C 0.29718 0.87824 0.95206 0.0
H1191 H 0.27374 0.82966 0.89378 0.0
H1192 H 0.28032 0.83428 0.92105 0.0
H1193 H 0.26469 0.84747 0.91405 0.0
H1194 H 0.26466 0.88328 0.94194 0.0
H1195 H 0.26387 0.87818 0.98191 0.0
H1196 H 1.00839 0.40886 0.9805 0.0
H1197 H 1.00716 0.40488 0.94051 0.0
H1198 H 0.96528 0.40578 0.94386 0.0
H1199 H 0.96645 0.4101 0.98394 0.0
H1200 H 0.9756 0.36351 0.92011 0.0
H1201 H 0.99699 0.45688 0.89245 0.0
H1202 H 1.00675 0.43997 0.91231 0.0
H1203 H 0.99099 0.452 0.92003 0.0
C1204 C 0.99892 0.40879 0.97268 0.0
C1205 C 0.98751 0.40935 0.98535 0.0
C1206 C 0.99823 0.40652 0.94983 0.0
C1207 C 0.98613 0.4051 0.93923 0.0
C1208 C 0.97471 0.40674 0.95176 0.0
H1209 H 0.96572 0.37364 0.80233 0.0
H1210 H 0.96485 0.38017 0.84219 0.0
C1211 C 0.97539 0.40907 0.97463 0.0
C1212 C 0.98544 0.40002 0.9153 0.0
H1213 H 0.99509 0.42348 0.86546 0.0
C1214 C 0.97973 0.37672 0.9081 0.0
C1215 C 0.99089 0.41726 0.89975 0.0
C1216 C 0.99665 0.44305 0.90646 0.0
C1217 C 0.97968 0.36981 0.88577 0.0
C1218 C 0.98533 0.38687 0.87026 0.0
C1219 C 0.99084 0.41036 0.87743 0.0
C1220 C 0.98574 0.38075 0.84649 0.0
C1221 C 0.97396 0.344 0.87903 0.0
C1222 C 0.99776 0.37877 0.83573 0.0
C1223 C 0.99827 0.37533 0.81298 0.0
C1224 C 0.98676 0.37412 0.80056 0.0
C1225 C 0.97473 0.375 0.81146 0.0
C1226 C 0.97422 0.37846 0.83424 0.0
H1227 H 0.9729 0.33063 0.89326 0.0
H1228 H 0.96417 0.34722 0.87186 0.0
H1229 H 0.98009 0.33444 0.86639 0.0
H1230 H 1.00676 0.38048 0.84491 0.0
H1231 H 1.00768 0.37477 0.80502 0.0
H1232 H 0.7451 0.59061 0.72863 0.0
H1233 H 0.74569 0.59497 0.68836 0.0
H1234 H 0.72814 0.67079 0.69349 0.0
H1235 H 0.72801 0.66715 0.73317 0.0
H1236 H 0.72562 0.60465 0.65691 0.0
H1237 H 0.7618 0.68449 0.65957 0.0
H1238 H 0.75837 0.66414 0.68303 0.0
H1239 H 0.74772 0.69065 0.67615 0.0
C1240 C 0.74123 0.60804 0.72109 0.0
C1241 C 0.7362 0.62819 0.73416 0.0
C1242 C 0.74158 0.61051 0.69815 0.0
C1243 C 0.73708 0.63334 0.68803 0.0
C1244 C 0.73178 0.65314 0.701 0.0
H1245 H 0.71849 0.66333 0.55115 0.0
H1246 H 0.71797 0.65737 0.59115 0.0
C1247 C 0.73148 0.65075 0.72379 0.0
C1248 C 0.73819 0.63705 0.66398 0.0
H1249 H 0.75113 0.67748 0.62526 0.0
C1250 C 0.73126 0.62044 0.64993 0.0
C1251 C 0.7457 0.65749 0.65497 0.0
C1252 C 0.75393 0.67506 0.66918 0.0
C1253 C 0.73134 0.62419 0.62707 0.0
C1254 C 0.73837 0.64537 0.61815 0.0
C1255 C 0.74559 0.66152 0.63218 0.0
C1256 C 0.73867 0.65067 0.59423 0.0
C1257 C 0.72406 0.60526 0.61265 0.0
C1258 C 0.75055 0.65019 0.58293 0.0
C1259 C 0.75087 0.65377 0.56019 0.0
C1260 C 0.7393 0.65782 0.54836 0.0
C1261 C 0.72749 0.65967 0.55984 0.0
C1262 C 0.72719 0.65615 0.58262 0.0
H1263 H 0.72206 0.58669 0.62133 0.0
H1264 H 0.71459 0.61391 0.60785 0.0
H1265 H 0.72959 0.60096 0.59741 0.0
H1266 H 0.75954 0.64625 0.59161 0.0
H1267 H 0.7601 0.65222 0.55175 0.0
H1268 H 0.05636 0.16314 0.73386 0.0
H1269 H 0.05733 0.15772 0.69383 0.0
H1270 H 0.01556 0.15065 0.69149 0.0
H1271 H 0.01454 0.15572 0.73142 0.0
H1272 H 0.04788 0.11305 0.67072 0.0
H1273 H 0.024 0.2042 0.6431 0.0
H1274 H 0.03052 0.20023 0.67048 0.0
H1275 H 0.01509 0.18614 0.66338 0.0
C1276 C 0.04739 0.16057 0.72476 0.0
C1277 C 0.03539 0.15949 0.73573 0.0
C1278 C 0.04795 0.15753 0.70195 0.0
C1279 C 0.03651 0.15379 0.68976 0.0
C1280 C 0.02448 0.15381 0.70059 0.0
H1281 H 0.02759 0.09082 0.55708 0.0
H1282 H 0.02784 0.09596 0.59727 0.0
C1283 C 0.02392 0.15679 0.72338 0.0
C1284 C 0.03718 0.14856 0.66589 0.0
H1285 H 0.02767 0.17194 0.61596 0.0
C1286 C 0.04351 0.12593 0.6587 0.0
C1287 C 0.03149 0.16548 0.65033 0.0
C1288 C 0.02498 0.1905 0.65712 0.0
C1289 C 0.04423 0.11968 0.63626 0.0
C1290 C 0.03835 0.13638 0.62075 0.0
C1291 C 0.03208 0.15907 0.62796 0.0
C1292 C 0.03909 0.13153 0.59681 0.0
C1293 C 0.05147 0.09557 0.62928 0.0
C1294 C 0.04527 0.14979 0.58335 0.0
C1295 C 0.04509 0.14696 0.5606 0.0
C1296 C 0.03882 0.12563 0.55072 0.0
C1297 C 0.03274 0.10712 0.56425 0.0
C1298 C 0.03291 0.11 0.58716 0.0
H1299 H 0.05765 0.08773 0.64274 0.0
H1300 H 0.04437 0.08034 0.6245 0.0
H1301 H 0.05772 0.09967 0.61481 0.0
H1302 H 0.04995 0.1667 0.59047 0.0
H1303 H 0.04936 0.16229 0.55086 0.0
H1304 H 0.76042 0.12842 0.23192 0.0
H1305 H 0.7603 0.13513 0.19209 0.0
H1306 H 0.71842 0.13116 0.19175 0.0
H1307 H 0.71847 0.12416 0.23161 0.0
H1308 H 0.74994 0.10514 0.15772 0.0
H1309 H 0.72648 0.20214 0.16289 0.0
H1310 H 0.73353 0.18612 0.18647 0.0
H1311 H 0.71778 0.17653 0.17656 0.0
C1312 C 0.75119 0.12858 0.22331 0.0
C1313 C 0.73943 0.12627 0.23488 0.0
C1314 C 0.75114 0.13259 0.2006 0.0
C1315 C 0.73934 0.13433 0.18912 0.0
C1316 C 0.72761 0.13062 0.20045 0.0
H1317 H 0.72623 0.1229 0.05057 0.0
H1318 H 0.72612 0.11949 0.09033 0.0
C1319 C 0.72765 0.12658 0.22317 0.0
C1320 C 0.73934 0.14007 0.16529 0.0
H1321 H 0.72896 0.18414 0.1271 0.0
C1322 C 0.7454 0.12245 0.15102 0.0
C1323 C 0.73361 0.16292 0.15668 0.0
C1324 C 0.72758 0.18318 0.17142 0.0
C1325 C 0.74555 0.12667 0.12826 0.0
C1326 C 0.73934 0.14895 0.11957 0.0
C1327 C 0.73361 0.16699 0.13386 0.0
C1328 C 0.73832 0.15315 0.09559 0.0
C1329 C 0.75239 0.10728 0.11367 0.0
C1330 C 0.7448 0.1739 0.08539 0.0
C1331 C 0.74468 0.17626 0.06244 0.0
C1332 C 0.7379 0.15814 0.04946 0.0
C1333 C 0.73112 0.13786 0.05992 0.0
C1334 C 0.73124 0.13556 0.08273 0.0
H1335 H 0.75942 0.09522 0.12307 0.0
H1336 H 0.74507 0.09408 0.10622 0.0
H1337 H 0.75765 0.11724 0.10015 0.0
H1338 H 0.75032 0.18769 0.09511 0.0
H1339 H 0.75015 0.19182 0.0548 0.0
H1340 H 0.02874 0.69121 0.22954 0.0
H1341 H 0.02749 0.6878 0.18925 0.0
H1342 H 0.04126 0.60877 0.19287 0.0
H1343 H 0.04193 0.61154 0.23256 0.0
H1344 H 0.0465 0.67633 0.15793 0.0
H1345 H 1.00785 0.60143 0.15792 0.0
H1346 H 1.01205 0.61989 0.18214 0.0
H1347 H 0.0216 0.5921 0.17427 0.0
C1348 C 0.03157 0.6732 0.22166 0.0
C1349 C 0.03576 0.65192 0.2343 0.0
C1350 C 0.03085 0.67128 0.19871 0.0
C1351 C 0.03414 0.64791 0.18815 0.0
C1352 C 0.03851 0.62686 0.20071 0.0
H1353 H 0.05406 0.61939 0.05215 0.0
H1354 H 0.05392 0.62528 0.09215 0.0
C1355 C 0.03915 0.62871 0.22351 0.0
C1356 C 0.033 0.64518 0.16401 0.0
H1357 H 0.01947 0.60704 0.12416 0.0
C1358 C 0.0405 0.66137 0.1505 0.0
C1359 C 0.02501 0.62588 0.15436 0.0
C1360 C 0.01607 0.60902 0.16792 0.0
C1361 C 0.04057 0.65818 0.12758 0.0
C1362 C 0.03316 0.63787 0.11806 0.0
C1363 C 0.02532 0.62229 0.13153 0.0
C1364 C 0.03323 0.63275 0.0941 0.0
C1365 C 0.04847 0.67673 0.11378 0.0
C1366 C 0.02156 0.63362 0.08215 0.0
C1367 C 0.02161 0.62992 0.05942 0.0
C1368 C 0.03334 0.62541 0.04827 0.0
C1369 C 0.04493 0.62333 0.06035 0.0
C1370 C 0.04487 0.62686 0.08313 0.0
H1371 H 0.05048 0.69516 0.1227 0.0
H1372 H 0.05795 0.66762 0.10975 0.0
H1373 H 0.04341 0.6814 0.09814 0.0
H1374 H 0.01245 0.63788 0.09034 0.0
H1375 H 0.01254 0.6317 0.05047 0.0
H1376 H 0.78086 0.34444 0.97603 0.0
H1377 H 0.78043 0.34946 0.93585 0.0
H1378 H 0.79266 0.42925 0.94269 0.0
H1379 H 0.79246 0.42484 0.98228 0.0
H1380 H 0.77238 0.42465 0.91531 0.0
H1381 H 0.8107 0.3534 0.89287 0.0
H1382 H 0.79771 0.34023 0.90913 0.0
H1383 H 0.80828 0.36446 0.92073 0.0
C1384 C 0.7836 0.36292 0.96887 0.0
C1385 C 0.78716 0.38391 0.98239 0.0
C1386 C 0.78342 0.36573 0.94596 0.0
C1387 C 0.7868 0.38959 0.93628 0.0
C1388 C 0.79021 0.41056 0.94978 0.0
H1389 H 0.80474 0.41982 0.7992 0.0
H1390 H 0.8053 0.41628 0.83942 0.0
C1391 C 0.79028 0.40783 0.97253 0.0
C1392 C 0.78623 0.39345 0.91218 0.0
H1393 H 0.79905 0.37281 0.86351 0.0
C1394 C 0.77822 0.41333 0.90397 0.0
C1395 C 0.79399 0.37891 0.89749 0.0
C1396 C 0.80326 0.35821 0.90545 0.0
C1397 C 0.77774 0.41903 0.88146 0.0
C1398 C 0.78524 0.40403 0.8667 0.0
C1399 C 0.79329 0.38423 0.87489 0.0
C1400 C 0.78472 0.40826 0.84265 0.0
C1401 C 0.76942 0.44143 0.87377 0.0
C1402 C 0.77295 0.40529 0.83124 0.0
C1403 C 0.77262 0.40745 0.80838 0.0
C1404 C 0.78409 0.41216 0.79653 0.0
C1405 C 0.7958 0.41591 0.80799 0.0
C1406 C 0.79612 0.41387 0.83089 0.0
H1407 H 0.76746 0.45541 0.8873 0.0
H1408 H 0.77412 0.45203 0.86001 0.0
H1409 H 0.75993 0.43383 0.86791 0.0
H1410 H 0.76409 0.40045 0.83994 0.0
H1411 H 0.76349 0.40418 0.79992 0.0
H1412 H 0.47564 0.86648 0.98423 0.0
H1413 H 0.47488 0.86279 0.94449 0.0
H1414 H 0.49715 0.93339 0.93837 0.0
H1415 H 0.49767 0.93772 0.97865 0.0
H1416 H 0.46545 0.90002 0.91193 0.0
H1417 H 0.51792 0.87524 0.90441 0.0
H1418 H 0.5092 0.87289 0.93008 0.0
H1419 H 0.51408 0.90409 0.91983 0.0
C1420 C 0.47997 0.88185 0.97461 0.0
C1421 C 0.48633 0.90297 0.98468 0.0
C1422 C 0.47968 0.87944 0.95181 0.0
C1423 C 0.48598 0.89775 0.93857 0.0
C1424 C 0.49229 0.91899 0.94841 0.0
H1425 H 0.48066 0.92101 0.79957 0.0
H1426 H 0.47972 0.92337 0.83932 0.0
C1427 C 0.49251 0.92151 0.97133 0.0
C1428 C 0.4861 0.89404 0.91449 0.0
H1429 H 0.50598 0.87931 0.87134 0.0
C1430 C 0.47429 0.89553 0.90302 0.0
C1431 C 0.49763 0.88762 0.90309 0.0
C1432 C 0.51044 0.88463 0.91491 0.0
C1433 C 0.47375 0.89132 0.88026 0.0
C1434 C 0.48535 0.88571 0.86872 0.0
C1435 C 0.49712 0.88365 0.88027 0.0
C1436 C 0.48555 0.88348 0.84449 0.0
C1437 C 0.46076 0.89278 0.86875 0.0
C1438 C 0.48944 0.86035 0.83414 0.0
C1439 C 0.48989 0.85883 0.81115 0.0
C1440 C 0.48642 0.8804 0.79825 0.0
C1441 C 0.48282 0.90362 0.80881 0.0
C1442 C 0.48235 0.90511 0.83165 0.0
H1443 H 0.45256 0.89009 0.88042 0.0
H1444 H 0.45969 0.9122 0.86103 0.0
H1445 H 0.46001 0.87786 0.85562 0.0
H1446 H 0.49212 0.84353 0.84385 0.0
H1447 H 0.49296 0.84087 0.80345 0.0
H1448 H 0.79664 0.91504 0.48374 0.0
H1449 H 0.79695 0.91898 0.44407 0.0
H1450 H 0.77703 0.8456 0.43802 0.0
H1451 H 0.77709 0.84094 0.47829 0.0
H1452 H 0.79803 0.85379 0.40698 0.0
H1453 H 0.76341 0.93639 0.40991 0.0
H1454 H 0.77749 0.94066 0.42705 0.0
H1455 H 0.76612 0.91506 0.43303 0.0
C1456 C 0.79274 0.89917 0.47416 0.0
C1457 C 0.78717 0.87724 0.48427 0.0
C1458 C 0.79271 0.90175 0.45138 0.0
C1459 C 0.78688 0.88276 0.43817 0.0
C1460 C 0.78157 0.86049 0.44802 0.0
H1461 H 0.76462 0.90352 0.30178 0.0
H1462 H 0.76501 0.8975 0.34165 0.0
C1463 C 0.78162 0.85784 0.47095 0.0
C1464 C 0.78598 0.88689 0.41416 0.0
H1465 H 0.77385 0.92861 0.37564 0.0
C1466 C 0.79269 0.87002 0.40006 0.0
C1467 C 0.77887 0.90794 0.40524 0.0
C1468 C 0.77096 0.92593 0.41955 0.0
C1469 C 0.79275 0.87407 0.37723 0.0
C1470 C 0.78609 0.89578 0.36842 0.0
C1471 C 0.77911 0.91222 0.38249 0.0
C1472 C 0.78589 0.90128 0.34454 0.0
C1473 C 0.7998 0.85493 0.36273 0.0
C1474 C 0.79746 0.90645 0.33311 0.0
C1475 C 0.79725 0.91002 0.31033 0.0
C1476 C 0.78548 0.9085 0.29869 0.0
C1477 C 0.77384 0.9048 0.31035 0.0
C1478 C 0.77405 0.9012 0.33309 0.0
H1479 H 0.80161 0.83622 0.37132 0.0
H1480 H 0.79419 0.85097 0.34748 0.0
H1481 H 0.80935 0.86321 0.35795 0.0
H1482 H 0.80666 0.90733 0.34176 0.0
H1483 H 0.80632 0.91344 0.30177 0.0
H1484 H 0.4693 0.373 0.30166 0.0
H1485 H 0.46892 0.3801 0.3415 0.0
H1486 H 0.51074 0.38633 0.34201 0.0
H1487 H 0.51118 0.37948 0.3022 0.0
H1488 H 0.50066 0.35613 0.3763 0.0
H1489 H 0.47577 0.45162 0.3702 0.0
H1490 H 0.4675 0.42541 0.35655 0.0
H1491 H 0.48315 0.43581 0.34683 0.0
C1492 C 0.4784 0.37591 0.31029 0.0
C1493 C 0.49025 0.37621 0.29882 0.0
C1494 C 0.47817 0.38002 0.333 0.0
C1495 C 0.48978 0.38442 0.34456 0.0
C1496 C 0.50167 0.38326 0.33332 0.0
H1497 H 0.49883 0.44375 0.47876 0.0
H1498 H 0.49927 0.43933 0.43849 0.0
C1499 C 0.5019 0.37917 0.31063 0.0
C1500 C 0.48956 0.39032 0.36836 0.0
H1501 H 0.47831 0.43401 0.40613 0.0
C1502 C 0.49582 0.37319 0.38283 0.0
C1503 C 0.48344 0.41287 0.37675 0.0
C1504 C 0.47718 0.43266 0.3618 0.0
C1505 C 0.49579 0.3776 0.40557 0.0
C1506 C 0.48919 0.39954 0.41404 0.0
C1507 C 0.48326 0.4171 0.39955 0.0
C1508 C 0.48797 0.40385 0.43798 0.0
C1509 C 0.50286 0.35874 0.42038 0.0
C1510 C 0.48119 0.38581 0.45081 0.0
C1511 C 0.48093 0.38827 0.4736 0.0
C1512 C 0.48725 0.40914 0.48409 0.0
C1513 C 0.49371 0.4277 0.47112 0.0
C1514 C 0.49399 0.42518 0.44819 0.0
H1515 H 0.51016 0.34716 0.41118 0.0
H1516 H 0.50784 0.3691 0.43401 0.0
H1517 H 0.49573 0.34505 0.42767 0.0
H1518 H 0.47642 0.36931 0.44321 0.0
H1519 H 0.4763 0.37298 0.48291 0.0
H1520 H 0.25694 0.62344 0.22976 0.0
H1521 H 0.25567 0.62871 0.18985 0.0
H1522 H 0.21381 0.63045 0.19354 0.0
H1523 H 0.215 0.62478 0.23351 0.0
H1524 H 0.24231 0.59925 0.1565 0.0
H1525 H 0.22398 0.70062 0.1641 0.0
H1526 H 0.23134 0.68347 0.18681 0.0
H1527 H 0.21497 0.67612 0.17865 0.0
C1528 C 0.24745 0.6245 0.22204 0.0
C1529 C 0.23607 0.62433 0.23477 0.0
C1530 C 0.24676 0.62763 0.19927 0.0
C1531 C 0.23467 0.6306 0.18888 0.0
C1532 C 0.22325 0.62885 0.20137 0.0
H1533 H 0.21583 0.66444 0.05193 0.0
H1534 H 0.21467 0.65757 0.09181 0.0
C1535 C 0.22394 0.62566 0.22416 0.0
C1536 C 0.23411 0.63635 0.16508 0.0
H1537 H 0.22645 0.684 0.12819 0.0
C1538 C 0.23882 0.61774 0.15027 0.0
C1539 C 0.22953 0.6605 0.1571 0.0
C1540 C 0.22475 0.68148 0.17244 0.0
C1541 C 0.23906 0.62262 0.12759 0.0
C1542 C 0.23474 0.64697 0.11964 0.0
C1543 C 0.22981 0.66542 0.1344 0.0
C1544 C 0.23548 0.65366 0.09603 0.0
C1545 C 0.24384 0.60158 0.11231 0.0
C1546 C 0.24757 0.65487 0.08547 0.0
C1547 C 0.24825 0.65868 0.06278 0.0
C1548 C 0.23682 0.66131 0.0503 0.0
C1549 C 0.22476 0.66187 0.06112 0.0
C1550 C 0.22409 0.65805 0.08385 0.0
H1551 H 0.2436 0.58214 0.12024 0.0
H1552 H 0.2379 0.60087 0.09706 0.0
H1553 H 0.25405 0.60577 0.10759 0.0
H1554 H 0.25648 0.6521 0.09469 0.0
H1555 H 0.25768 0.65827 0.05488 0.0
H1556 H 0.51616 0.12171 0.05357 0.0
H1557 H 0.51726 0.12721 0.09348 0.0
H1558 H 0.55914 0.12736 0.09044 0.0
H1559 H 0.55812 0.12146 0.05049 0.0
H1560 H 0.53014 0.09754 0.12722 0.0
H1561 H 0.54951 0.19813 0.11939 0.0
H1562 H 0.5421 0.18106 0.09666 0.0
H1563 H 0.55837 0.17323 0.10507 0.0
C1564 C 0.52561 0.12246 0.06144 0.0
C1565 C 0.53706 0.12178 0.04888 0.0
C1566 C 0.52621 0.12573 0.08421 0.0
C1567 C 0.53827 0.12832 0.09478 0.0
C1568 C 0.54974 0.12606 0.08247 0.0
H1569 H 0.55751 0.16284 0.23132 0.0
H1570 H 0.55842 0.15552 0.1915 0.0
C1571 C 0.54914 0.12273 0.05968 0.0
C1572 C 0.53876 0.13424 0.11856 0.0
H1573 H 0.54686 0.18175 0.15535 0.0
C1574 C 0.53381 0.11591 0.13341 0.0
C1575 C 0.54357 0.15825 0.1265 0.0
C1576 C 0.5486 0.17895 0.11113 0.0
C1577 C 0.53358 0.12091 0.15608 0.0
C1578 C 0.53817 0.14511 0.16399 0.0
C1579 C 0.54331 0.16329 0.14918 0.0
C1580 C 0.53758 0.15189 0.18761 0.0
C1581 C 0.52857 0.10012 0.1714 0.0
C1582 C 0.52554 0.15339 0.19837 0.0
C1583 C 0.52502 0.15744 0.22104 0.0
C1584 C 0.53652 0.16003 0.23332 0.0
C1585 C 0.54852 0.16027 0.2223 0.0
C1586 C 0.54905 0.1562 0.19959 0.0
H1587 H 0.52863 0.08063 0.16351 0.0
H1588 H 0.53448 0.09925 0.18667 0.0
H1589 H 0.5184 0.1047 0.17604 0.0
H1590 H 0.51657 0.15073 0.1893 0.0
H1591 H 0.51563 0.15728 0.22909 0.0
H1592 H 0.26042 0.15353 0.55195 0.0
H1593 H 0.25979 0.14767 0.59182 0.0
H1594 H 0.21825 0.15923 0.59121 0.0
H1595 H 0.21883 0.16503 0.55119 0.0
H1596 H 0.2515 0.17888 0.62541 0.0
H1597 H 0.22205 0.08859 0.62139 0.0
H1598 H 0.22962 0.10279 0.59748 0.0
H1599 H 0.21466 0.11593 0.60795 0.0
C1600 C 0.25118 0.15522 0.56036 0.0
C1601 C 0.23963 0.15934 0.5485 0.0
C1602 C 0.25083 0.1517 0.5831 0.0
C1603 C 0.23894 0.15232 0.59436 0.0
C1604 C 0.22748 0.1579 0.58271 0.0
H1605 H 0.22838 0.16908 0.73327 0.0
H1606 H 0.22859 0.17278 0.6936 0.0
C1607 C 0.22782 0.16134 0.55993 0.0
C1608 C 0.23859 0.14702 0.61827 0.0
H1609 H 0.22561 0.10655 0.65698 0.0
C1610 C 0.24588 0.16302 0.63231 0.0
C1611 C 0.23146 0.12596 0.62716 0.0
C1612 C 0.2241 0.10715 0.61272 0.0
C1613 C 0.24596 0.15897 0.65509 0.0
C1614 C 0.23833 0.13869 0.66408 0.0
C1615 C 0.23133 0.12222 0.65002 0.0
C1616 C 0.23718 0.13501 0.68812 0.0
C1617 C 0.25429 0.17635 0.66931 0.0
C1618 C 0.24145 0.11199 0.69822 0.0
C1619 C 0.24103 0.10948 0.72115 0.0
C1620 C 0.23617 0.1298 0.73422 0.0
C1621 C 0.2317 0.15256 0.72388 0.0
C1622 C 0.23205 0.15498 0.70109 0.0
H1623 H 0.26226 0.1855 0.65972 0.0
H1624 H 0.24818 0.19216 0.67619 0.0
H1625 H 0.25862 0.16536 0.68321 0.0
H1626 H 0.24542 0.09631 0.68843 0.0
H1627 H 0.24471 0.09188 0.72868 0.0
H1628 H 0.54249 0.67128 0.55001 0.0
H1629 H 0.54336 0.67286 0.5898 0.0
H1630 H 0.53497 0.59081 0.59285 0.0
H1631 H 0.53398 0.58914 0.55243 0.0
H1632 H 0.51998 0.62006 0.62114 0.0
H1633 H 0.57182 0.64718 0.63043 0.0
H1634 H 0.56323 0.66857 0.61223 0.0
H1635 H 0.56521 0.63489 0.60496 0.0
C1636 C 0.54116 0.65337 0.55898 0.0
C1637 C 0.5386 0.62986 0.54802 0.0
C1638 C 0.54164 0.65435 0.58182 0.0
C1639 C 0.5396 0.63183 0.59427 0.0
C1640 C 0.53677 0.60834 0.58348 0.0
H1641 H 0.54126 0.60623 0.73419 0.0
H1642 H 0.54184 0.60243 0.69438 0.0
C1643 C 0.53623 0.60739 0.56048 0.0
C1644 C 0.53976 0.63346 0.61856 0.0
H1645 H 0.5583 0.6535 0.66203 0.0
C1646 C 0.52839 0.62711 0.6301 0.0
C1647 C 0.55077 0.64271 0.63019 0.0
C1648 C 0.56349 0.64848 0.61884 0.0
C1649 C 0.52764 0.63042 0.65295 0.0
C1650 C 0.5385 0.64034 0.66441 0.0
C1651 C 0.54993 0.64631 0.653 0.0
C1652 C 0.53837 0.64323 0.6885 0.0
C1653 C 0.51522 0.62358 0.6648 0.0
C1654 C 0.5363 0.66757 0.69828 0.0
C1655 C 0.536 0.6699 0.72121 0.0
C1656 C 0.53802 0.64799 0.73455 0.0
C1657 C 0.54007 0.62368 0.72453 0.0
C1658 C 0.54029 0.62136 0.70173 0.0
H1659 H 0.50722 0.61858 0.65326 0.0
H1660 H 0.51699 0.60669 0.67576 0.0
H1661 H 0.51209 0.64009 0.67529 0.0
H1662 H 0.53476 0.68464 0.68818 0.0
H1663 H 0.53423 0.68877 0.72852 0.0
H1664 H 0.33335 0.38257 0.23613 0.0
H1665 H 0.35646 0.39334 0.23624 0.0
H1666 H 0.36132 0.35268 0.17482 0.0
H1667 H 0.33819 0.34127 0.17488 0.0
H1668 H 0.38108 0.34229 0.20205 0.0
H1669 H 0.37366 0.44881 0.20023 0.0
H1670 H 0.36589 0.43377 0.22333 0.0
H1671 H 0.36055 0.42612 0.19587 0.0
C1672 C 0.33928 0.37601 0.22256 0.0
C1673 C 0.33381 0.36134 0.20535 0.0
C1674 C 0.35254 0.3823 0.2226 0.0
C1675 C 0.36064 0.37445 0.20525 0.0
C1676 C 0.35529 0.35919 0.18832 0.0
H1677 H 0.43653 0.44203 0.17698 0.0
H1678 H 0.41367 0.42915 0.17745 0.0
C1679 C 0.34204 0.35267 0.18838 0.0
C1680 C 0.37469 0.38199 0.20485 0.0
H1681 H 0.39522 0.43424 0.20727 0.0
C1682 C 0.38416 0.36242 0.20311 0.0
C1683 C 0.37878 0.40828 0.20587 0.0
C1684 C 0.36919 0.43046 0.20619 0.0
C1685 C 0.39754 0.36833 0.20269 0.0
C1686 C 0.40164 0.39454 0.20463 0.0
C1687 C 0.39215 0.41412 0.20606 0.0
C1688 C 0.41567 0.40223 0.20457 0.0
C1689 C 0.40711 0.34641 0.19959 0.0
C1690 C 0.4245 0.39177 0.21988 0.0
C1691 C 0.43766 0.39894 0.21952 0.0
C1692 C 0.44229 0.41708 0.20406 0.0
C1693 C 0.43336 0.428 0.18912 0.0
C1694 C 0.42024 0.42064 0.18936 0.0
H1695 H 0.40244 0.32917 0.19191 0.0
H1696 H 0.41542 0.35252 0.18918 0.0
H1697 H 0.41094 0.34038 0.21587 0.0
H1698 H 0.4212 0.37813 0.23222 0.0
H1699 H 0.4442 0.39032 0.23144 0.0
H1700 H 0.93613 0.94364 0.17744 0.0
H1701 H 0.91314 0.93169 0.17847 0.0
H1702 H 0.92025 0.88349 0.23521 0.0
H1703 H 0.94336 0.89461 0.23377 0.0
H1704 H 0.90511 0.85867 0.20765 0.0
H1705 H 0.88503 0.9576 0.21769 0.0
H1706 H 0.89484 0.95502 0.19346 0.0
H1707 H 0.90218 0.95089 0.22015 0.0
C1708 C 0.9328 0.93063 0.19025 0.0
C1709 C 0.94164 0.9202 0.20558 0.0
C1710 C 0.91959 0.92393 0.19091 0.0
C1711 C 0.9148 0.90707 0.2072 0.0
C1712 C 0.92362 0.89662 0.22252 0.0
H1713 H 0.83165 0.88796 0.2338 0.0
H1714 H 0.85477 0.89905 0.23535 0.0
C1715 C 0.93687 0.90305 0.2217 0.0
C1716 C 0.90073 0.8996 0.20783 0.0
H1717 H 0.86985 0.92434 0.20807 0.0
C1718 C 0.89742 0.87308 0.20789 0.0
C1719 C 0.8906 0.91826 0.20852 0.0
C1720 C 0.89333 0.94701 0.2102 0.0
C1721 C 0.88437 0.86474 0.2082 0.0
C1722 C 0.87424 0.88341 0.20774 0.0
C1723 C 0.87755 0.90993 0.20812 0.0
C1724 C 0.86016 0.87595 0.20704 0.0
C1725 C 0.88164 0.83597 0.20952 0.0
C1726 C 0.85534 0.85937 0.19054 0.0
C1727 C 0.84213 0.85269 0.1898 0.0
C1728 C 0.83332 0.86287 0.20527 0.0
C1729 C 0.83812 0.87973 0.22161 0.0
C1730 C 0.85137 0.88614 0.2225 0.0
H1731 H 0.88995 0.82525 0.21688 0.0
H1732 H 0.87281 0.83193 0.21944 0.0
H1733 H 0.88009 0.82823 0.1927 0.0
H1734 H 0.86177 0.85182 0.17799 0.0
H1735 H 0.83878 0.8399 0.17683 0.0
H1736 H 0.32939 0.88514 0.05904 0.0
H1737 H 0.35229 0.87217 0.05888 0.0
H1738 H 0.36182 0.93779 0.09993 0.0
H1739 H 0.33894 0.95063 0.10055 0.0
H1740 H 0.37415 0.89687 0.04463 0.0
H1741 H 0.37806 0.87856 0.13414 0.0
H1742 H 0.36264 0.88316 0.12051 0.0
H1743 H 0.37251 0.91074 0.12774 0.0
C1744 C 0.33634 0.89683 0.06809 0.0
C1745 C 0.33224 0.91884 0.07998 0.0
C1746 C 0.34946 0.88938 0.06795 0.0
C1747 C 0.3588 0.90367 0.07975 0.0
C1748 C 0.35479 0.92602 0.09116 0.0
H1749 H 0.44292 0.89757 0.06308 0.0
H1750 H 0.41984 0.90861 0.06223 0.0
C1751 C 0.34167 0.93345 0.09137 0.0
C1752 C 0.37272 0.89536 0.07991 0.0
H1753 H 0.39788 0.87887 0.11401 0.0
C1754 C 0.37932 0.89285 0.0598 0.0
C1755 C 0.37946 0.88966 0.09966 0.0
C1756 C 0.37278 0.89039 0.12173 0.0
C1757 C 0.39249 0.88538 0.05894 0.0
C1758 C 0.39937 0.88072 0.07875 0.0
C1759 C 0.39269 0.88269 0.09882 0.0
C1760 C 0.41349 0.87379 0.07904 0.0
C1761 C 0.39882 0.88211 0.03675 0.0
C1762 C 0.41776 0.85084 0.08929 0.0
C1763 C 0.43102 0.84452 0.08993 0.0
C1764 C 0.44036 0.86104 0.08038 0.0
C1765 C 0.43604 0.88412 0.07028 0.0
C1766 C 0.42279 0.89045 0.06971 0.0
H1767 H 0.39149 0.87883 0.0236 0.0
H1768 H 0.40427 0.90006 0.03262 0.0
H1769 H 0.40575 0.86556 0.03677 0.0
H1770 H 0.4108 0.83772 0.09674 0.0
H1771 H 0.43395 0.82663 0.09791 0.0
H1772 H 0.93626 0.34119 0.10886 0.0
H1773 H 0.9133 0.3532 0.10808 0.0
H1774 H 0.91978 0.39818 0.04927 0.0
H1775 H 0.94291 0.38708 0.05049 0.0
H1776 H 0.90488 0.4244 0.07587 0.0
H1777 H 0.88482 0.32492 0.07103 0.0
H1778 H 0.89486 0.32894 0.09488 0.0
H1779 H 0.90193 0.3315 0.06786 0.0
C1780 C 0.93281 0.35351 0.09566 0.0
C1781 C 0.94147 0.36305 0.07967 0.0
C1782 C 0.9196 0.36023 0.09513 0.0
C1783 C 0.91464 0.37616 0.07833 0.0
C1784 C 0.92329 0.38576 0.06237 0.0
H1785 H 0.83117 0.39241 0.05417 0.0
H1786 H 0.85423 0.3814 0.05243 0.0
C1787 C 0.93654 0.37936 0.06306 0.0
C1788 C 0.90056 0.3835 0.0778 0.0
H1789 H 0.86974 0.3586 0.08002 0.0
C1790 C 0.89721 0.40996 0.07662 0.0
C1791 C 0.89045 0.36476 0.07838 0.0
C1792 C 0.89319 0.33596 0.07786 0.0
C1793 C 0.88415 0.41818 0.07642 0.0
C1794 C 0.87406 0.39951 0.07821 0.0
C1795 C 0.87741 0.37303 0.07896 0.0
C1796 C 0.85999 0.40689 0.07905 0.0
C1797 C 0.88135 0.4468 0.07375 0.0
C1798 C 0.85537 0.42475 0.09471 0.0
C1799 C 0.84216 0.43147 0.09547 0.0
C1800 C 0.83317 0.42007 0.0809 0.0
C1801 C 0.83777 0.40178 0.06554 0.0
C1802 C 0.851 0.39537 0.06458 0.0
H1803 H 0.88953 0.457 0.0655 0.0
H1804 H 0.87236 0.45009 0.06403 0.0
H1805 H 0.88009 0.45572 0.09021 0.0
H1806 H 0.86195 0.43334 0.10656 0.0
H1807 H 0.83899 0.44536 0.10771 0.0
H1808 H 0.68407 0.70251 0.84952 0.0
H1809 H 0.6611 0.69014 0.84936 0.0
H1810 H 0.67043 0.62048 0.81329 0.0
H1811 H 0.69338 0.63287 0.81306 0.0
H1812 H 0.64891 0.64408 0.79674 0.0
H1813 H 0.64415 0.63498 0.88715 0.0
H1814 H 0.64987 0.6663 0.87851 0.0
H1815 H 0.65971 0.63795 0.87371 0.0
C1816 C 0.68126 0.68453 0.84155 0.0
C1817 C 0.69066 0.66868 0.83136 0.0
C1818 C 0.6681 0.67739 0.8416 0.0
C1819 C 0.664 0.6541 0.83168 0.0
C1820 C 0.67331 0.63848 0.82116 0.0
H1821 H 0.58916 0.57768 0.85292 0.0
H1822 H 0.61219 0.58958 0.85167 0.0
C1823 C 0.68647 0.64564 0.82103 0.0
C1824 C 0.65003 0.6461 0.83204 0.0
H1825 H 0.62457 0.63286 0.86643 0.0
C1826 C 0.6436 0.64158 0.81199 0.0
C1827 C 0.6431 0.6424 0.85192 0.0
C1828 C 0.64958 0.6454 0.87406 0.0
C1829 C 0.63046 0.63391 0.81127 0.0
C1830 C 0.6234 0.63112 0.83113 0.0
C1831 C 0.62989 0.63523 0.85118 0.0
C1832 C 0.60935 0.62375 0.8315 0.0
C1833 C 0.62434 0.62836 0.7892 0.0
C1834 C 0.59998 0.63906 0.82077 0.0
C1835 C 0.58678 0.63224 0.82136 0.0
C1836 C 0.58259 0.61005 0.83291 0.0
C1837 C 0.59198 0.59486 0.84381 0.0
C1838 C 0.60519 0.60167 0.84315 0.0
H1839 H 0.63179 0.62408 0.7765 0.0
H1840 H 0.61752 0.61166 0.79017 0.0
H1841 H 0.61879 0.64569 0.78373 0.0
H1842 H 0.60285 0.65653 0.81211 0.0
H1843 H 0.57986 0.64457 0.81291 0.0
H1844 H 0.07967 0.14694 0.80864 0.0
H1845 H 0.10271 0.15872 0.8082 0.0
H1846 H 0.11158 0.09253 0.84897 0.0
H1847 H 0.08853 0.08088 0.84989 0.0
H1848 H 0.12373 0.13585 0.86364 0.0
H1849 H 0.13213 0.12586 0.77409 0.0
H1850 H 0.11908 0.14765 0.78064 0.0
H1851 H 0.11766 0.11371 0.78733 0.0
C1852 C 0.08651 0.13475 0.81743 0.0
C1853 C 0.08218 0.11289 0.82928 0.0
C1854 C 0.09973 0.14145 0.81703 0.0
C1855 C 0.10897 0.12632 0.82826 0.0
C1856 C 0.10468 0.10449 0.84009 0.0
H1857 H 0.19321 0.13424 0.81282 0.0
H1858 H 0.1702 0.12225 0.81225 0.0
C1859 C 0.09147 0.09782 0.84057 0.0
C1860 C 0.12303 0.13367 0.82832 0.0
H1861 H 0.14902 0.1459 0.7948 0.0
C1862 C 0.12926 0.13797 0.84858 0.0
C1863 C 0.13035 0.13613 0.8087 0.0
C1864 C 0.12451 0.13035 0.78647 0.0
C1865 C 0.14248 0.14497 0.84976 0.0
C1866 C 0.14968 0.14833 0.83012 0.0
C1867 C 0.14351 0.14365 0.80987 0.0
C1868 C 0.16369 0.15609 0.83024 0.0
C1869 C 0.14867 0.14811 0.87212 0.0
C1870 C 0.16775 0.17937 0.84022 0.0
C1871 C 0.18095 0.18627 0.84066 0.0
C1872 C 0.1904 0.17019 0.83088 0.0
C1873 C 0.18625 0.14717 0.82048 0.0
C1874 C 0.17307 0.14024 0.82014 0.0
H1875 H 0.14304 0.13787 0.88507 0.0
H1876 H 0.15878 0.14055 0.87221 0.0
H1877 H 0.14896 0.16904 0.87645 0.0
H1878 H 0.16071 0.19229 0.84765 0.0
H1879 H 0.18373 0.20424 0.84865 0.0
H1880 H 0.58095 0.14077 0.98105 0.0
H1881 H 0.60404 0.12943 0.98209 0.0
H1882 H 0.61118 0.18023 0.92704 0.0
H1883 H 0.5882 0.19226 0.92631 0.0
H1884 H 0.61923 0.106 0.95296 0.0
H1885 H 0.63904 0.20438 0.96823 0.0
H1886 H 0.62192 0.1972 0.97034 0.0
H1887 H 0.62921 0.2031 0.94389 0.0
C1888 C 0.58744 0.1497 0.96924 0.0
C1889 C 0.58268 0.16759 0.95368 0.0
C1890 C 0.60067 0.14315 0.96984 0.0
C1891 C 0.60948 0.15426 0.95489 0.0
C1892 C 0.60472 0.17189 0.93917 0.0
H1893 H 0.6865 0.09094 0.92461 0.0
H1894 H 0.66338 0.10208 0.92482 0.0
C1895 C 0.59151 0.17865 0.93869 0.0
C1896 C 0.62354 0.14686 0.9554 0.0
H1897 H 0.65434 0.1718 0.95804 0.0
C1898 C 0.6269 0.12041 0.95418 0.0
C1899 C 0.63361 0.16554 0.95733 0.0
C1900 C 0.63078 0.1941 0.96025 0.0
C1901 C 0.63996 0.11218 0.9545 0.0
C1902 C 0.65004 0.13094 0.95547 0.0
C1903 C 0.64668 0.15736 0.95702 0.0
C1904 C 0.66413 0.12368 0.95536 0.0
C1905 C 0.64277 0.0834 0.95433 0.0
C1906 C 0.67244 0.13259 0.9721 0.0
C1907 C 0.68572 0.12659 0.97182 0.0
C1908 C 0.69107 0.11147 0.9548 0.0
C1909 C 0.68273 0.10242 0.9381 0.0
C1910 C 0.66945 0.10866 0.93827 0.0
H1911 H 0.63433 0.07197 0.96035 0.0
H1912 H 0.64482 0.07712 0.93724 0.0
H1913 H 0.65135 0.07869 0.96469 0.0
H1914 H 0.66864 0.14422 0.98548 0.0
H1915 H 0.69178 0.13374 0.98504 0.0
H1916 H 0.08944 0.70167 0.93628 0.0
H1917 H 0.11238 0.68939 0.93739 0.0
H1918 H 0.1028 0.62171 0.97586 0.0
H1919 H 0.07983 0.63416 0.97528 0.0
H1920 H 0.12433 0.64554 0.99166 0.0
H1921 H 0.1294 0.63279 0.90168 0.0
H1922 H 0.12372 0.66455 0.90912 0.0
H1923 H 0.1138 0.63653 0.91483 0.0
C1924 C 0.09217 0.68415 0.945 0.0
C1925 C 0.0827 0.66882 0.95555 0.0
C1926 C 0.10533 0.67704 0.94548 0.0
C1927 C 0.10935 0.65428 0.95629 0.0
C1928 C 0.09997 0.63925 0.96726 0.0
H1929 H 0.18496 0.58009 0.9366 0.0
H1930 H 0.16179 0.5908 0.93778 0.0
C1931 C 0.0868 0.64641 0.96689 0.0
C1932 C 0.12333 0.64628 0.95631 0.0
H1933 H 0.149 0.63252 0.92253 0.0
C1934 C 0.1297 0.6426 0.97653 0.0
C1935 C 0.13035 0.64198 0.93661 0.0
C1936 C 0.12395 0.64389 0.91433 0.0
C1937 C 0.1429 0.6353 0.97759 0.0
C1938 C 0.15006 0.63208 0.95787 0.0
C1939 C 0.14361 0.63525 0.93767 0.0
C1940 C 0.16419 0.62526 0.95778 0.0
C1941 C 0.14894 0.63063 0.99985 0.0
C1942 C 0.17337 0.6411 0.96849 0.0
C1943 C 0.18664 0.63493 0.96797 0.0
C1944 C 0.19112 0.61292 0.95647 0.0
C1945 C 0.18192 0.59717 0.94564 0.0
C1946 C 0.16863 0.6033 0.94627 0.0
H1947 H 0.14146 0.62622 1.01246 0.0
H1948 H 0.15599 0.6143 0.9993 0.0
H1949 H 0.15419 0.64841 1.00514 0.0
H1950 H 0.17029 0.65851 0.97702 0.0
H1951 H 0.19342 0.64764 0.97638 0.0
H1952 H 0.44335 0.88964 0.72506 0.0
H1953 H 0.42041 0.87767 0.72559 0.0
H1954 H 0.41242 0.93489 0.6756 0.0
H1955 H 0.4353 0.94784 0.67571 0.0
H1956 H 0.39411 0.93636 0.70554 0.0
H1957 H 0.40133 0.83338 0.68261 0.0
H1958 H 0.41002 0.84168 0.70719 0.0
H1959 H 0.41432 0.85689 0.68153 0.0
C1960 C 0.43674 0.89985 0.71425 0.0
C1961 C 0.44127 0.91979 0.70037 0.0
C1962 C 0.42359 0.89271 0.71437 0.0
C1963 C 0.41464 0.90489 0.70026 0.0
C1964 C 0.41909 0.92502 0.68656 0.0
H1965 H 0.33689 0.84354 0.67218 0.0
H1966 H 0.35988 0.85587 0.671 0.0
C1967 C 0.43222 0.93241 0.68663 0.0
C1968 C 0.40061 0.8971 0.70013 0.0
H1969 H 0.3802 0.84481 0.6956 0.0
C1970 C 0.39109 0.91634 0.70324 0.0
C1971 C 0.39655 0.87106 0.69674 0.0
C1972 C 0.40609 0.84963 0.69159 0.0
C1973 C 0.37774 0.91027 0.70346 0.0
C1974 C 0.37372 0.88404 0.70121 0.0
C1975 C 0.38322 0.86487 0.69766 0.0
C1976 C 0.35973 0.87612 0.7022 0.0
C1977 C 0.3681 0.93223 0.70559 0.0
C1978 C 0.35195 0.88278 0.72034 0.0
C1979 C 0.33876 0.87601 0.72092 0.0
C1980 C 0.33303 0.86195 0.70358 0.0
C1981 C 0.34094 0.85442 0.68581 0.0
C1982 C 0.35411 0.86149 0.68511 0.0
H1983 H 0.37235 0.951 0.70011 0.0
H1984 H 0.35918 0.92841 0.69579 0.0
H1985 H 0.3653 0.93441 0.7231 0.0
H1986 H 0.35609 0.89323 0.73413 0.0
H1987 H 0.33308 0.88166 0.73508 0.0
H1988 H 0.94355 0.38441 0.72496 0.0
H1989 H 0.92055 0.37239 0.72519 0.0
H1990 H 0.91144 0.44018 0.68651 0.0
H1991 H 0.93446 0.45203 0.68572 0.0
H1992 H 0.89919 0.39642 0.74076 0.0
H1993 H 0.89413 0.38398 0.6507 0.0
H1994 H 0.90974 0.38754 0.66394 0.0
H1995 H 0.89988 0.41566 0.65831 0.0
C1996 C 0.93668 0.39679 0.71643 0.0
C1997 C 0.94095 0.41911 0.70514 0.0
C1998 C 0.92349 0.38987 0.71662 0.0
C1999 C 0.91422 0.40505 0.7055 0.0
C2000 C 0.9184 0.42772 0.69471 0.0
H2001 H 0.83006 0.39714 0.72517 0.0
H2002 H 0.85312 0.40862 0.72592 0.0
C2003 C 0.9316 0.43459 0.69441 0.0
C2004 C 0.90021 0.39724 0.70542 0.0
H2005 H 0.87457 0.38331 0.67148 0.0
C2006 C 0.89383 0.39349 0.7256 0.0
C2007 C 0.8932 0.39295 0.68567 0.0
C2008 C 0.89961 0.39497 0.66343 0.0
C2009 C 0.88066 0.38604 0.72657 0.0
C2010 C 0.87352 0.38273 0.70682 0.0
C2011 C 0.87996 0.38608 0.68665 0.0
C2012 C 0.85942 0.37558 0.70665 0.0
C2013 C 0.87462 0.38121 0.7488 0.0
C2014 C 0.85511 0.35351 0.69511 0.0
C2015 C 0.84187 0.34703 0.69442 0.0
C2016 C 0.83257 0.36252 0.70523 0.0
C2017 C 0.83691 0.38462 0.71678 0.0
C2018 C 0.85015 0.39115 0.71735 0.0
H2019 H 0.88212 0.37697 0.76146 0.0
H2020 H 0.86927 0.39887 0.75407 0.0
H2021 H 0.86766 0.36473 0.7482 0.0
H2022 H 0.86203 0.3412 0.68663 0.0
H2023 H 0.83893 0.32989 0.68534 0.0
H2024 H 0.33888 0.45101 0.60078 0.0
H2025 H 0.36193 0.43941 0.59949 0.0
H2026 H 0.35289 0.3738 0.5581 0.0
H2027 H 0.32985 0.38553 0.55894 0.0
H2028 H 0.37422 0.3957 0.61343 0.0
H2029 H 0.38206 0.40766 0.52389 0.0
H2030 H 0.36768 0.4195 0.53759 0.0
H2031 H 0.36907 0.38569 0.53041 0.0
C2032 C 0.34177 0.4342 0.59126 0.0
C2033 C 0.33244 0.41929 0.5799 0.0
C2034 C 0.35499 0.42755 0.59057 0.0
C2035 C 0.35924 0.40591 0.57845 0.0
C2036 C 0.34995 0.39092 0.56717 0.0
H2037 H 0.43468 0.32924 0.59609 0.0
H2038 H 0.41155 0.3404 0.59575 0.0
C2039 C 0.33673 0.39758 0.56779 0.0
C2040 C 0.37331 0.39868 0.57817 0.0
H2041 H 0.39917 0.38771 0.54405 0.0
C2042 C 0.37967 0.39401 0.59825 0.0
C2043 C 0.38053 0.39676 0.55841 0.0
C2044 C 0.37454 0.40291 0.53636 0.0
C2045 C 0.39293 0.38722 0.59911 0.0
C2046 C 0.40004 0.38449 0.57931 0.0
C2047 C 0.39373 0.38948 0.55924 0.0
C2048 C 0.41411 0.3772 0.57907 0.0
C2049 C 0.39925 0.38365 0.6213 0.0
C2050 C 0.4233 0.39369 0.5692 0.0
C2051 C 0.43654 0.38724 0.56919 0.0
C2052 C 0.44095 0.36404 0.57897 0.0
C2053 C 0.43169 0.34735 0.58855 0.0
C2054 C 0.41844 0.35379 0.58849 0.0
H2055 H 0.3936 0.39327 0.63456 0.0
H2056 H 0.39976 0.3626 0.62516 0.0
H2057 H 0.4093 0.39157 0.62141 0.0
H2058 H 0.42025 0.41182 0.56177 0.0
H2059 H 0.44334 0.40068 0.56177 0.0
H2060 H 0.82962 0.88227 0.56351 0.0
H2061 H 0.85256 0.86999 0.56368 0.0
H2062 H 0.86195 0.93975 0.59961 0.0
H2063 H 0.83898 0.95212 0.5997 0.0
H2064 H 0.87397 0.8944 0.54681 0.0
H2065 H 0.87914 0.88413 0.63712 0.0
H2066 H 0.86351 0.88685 0.62379 0.0
H2067 H 0.8732 0.91538 0.62868 0.0
C2068 C 0.83654 0.89512 0.57138 0.0
C2069 C 0.83237 0.91823 0.58159 0.0
C2070 C 0.84969 0.888 0.57151 0.0
C2071 C 0.85901 0.90369 0.58195 0.0
C2072 C 0.85494 0.92698 0.59187 0.0
H2073 H 0.94292 0.89683 0.56288 0.0
H2074 H 0.91986 0.90799 0.5626 0.0
C2075 C 0.84177 0.93411 0.59179 0.0
C2076 C 0.87299 0.89581 0.58213 0.0
H2077 H 0.89862 0.8822 0.61618 0.0
C2078 C 0.87934 0.89168 0.56199 0.0
C2079 C 0.88 0.89184 0.60192 0.0
C2080 C 0.87361 0.89452 0.62412 0.0
C2081 C 0.89249 0.88419 0.56107 0.0
C2082 C 0.89962 0.88111 0.58085 0.0
C2083 C 0.89322 0.88477 0.601 0.0
C2084 C 0.91372 0.87415 0.58097 0.0
C2085 C 0.89856 0.87918 0.5389 0.0
C2086 C 0.9181 0.8517 0.59187 0.0
C2087 C 0.93135 0.84525 0.59213 0.0
C2088 C 0.94057 0.86118 0.58156 0.0
C2089 C 0.93614 0.88381 0.57087 0.0
C2090 C 0.92291 0.89023 0.57064 0.0
H2091 H 0.89108 0.87516 0.52615 0.0
H2092 H 0.90409 0.89666 0.53371 0.0
H2093 H 0.90539 0.86249 0.53959 0.0
H2094 H 0.91123 0.83904 0.60008 0.0
H2095 H 0.93437 0.82775 0.6006 0.0
H2096 H 0.58058 0.14896 0.30742 0.0
H2097 H 0.6037 0.1601 0.30685 0.0
H2098 H 0.61233 0.09235 0.3459 0.0
H2099 H 0.5892 0.08138 0.34701 0.0
H2100 H 0.62496 0.13409 0.36138 0.0
H2101 H 0.63269 0.12835 0.27144 0.0
H2102 H 0.61992 0.15039 0.27886 0.0
H2103 H 0.61815 0.11623 0.28447 0.0
C2104 C 0.58739 0.1363 0.3158 0.0
C2105 C 0.58296 0.11421 0.32724 0.0
C2106 C 0.60066 0.14263 0.31532 0.0
C2107 C 0.60986 0.12687 0.32602 0.0
C2108 C 0.60547 0.1048 0.33743 0.0
H2109 H 0.69418 0.13477 0.30897 0.0
H2110 H 0.67114 0.12288 0.30825 0.0
C2111 C 0.5922 0.09853 0.33802 0.0
C2112 C 0.62399 0.13382 0.32603 0.0
H2113 H 0.64982 0.14727 0.29246 0.0
C2114 C 0.63039 0.13687 0.34629 0.0
C2115 C 0.63119 0.13712 0.30637 0.0
C2116 C 0.62518 0.1326 0.28406 0.0
C2117 C 0.64366 0.14348 0.34746 0.0
C2118 C 0.65074 0.14779 0.32782 0.0
C2119 C 0.6444 0.14431 0.30755 0.0
C2120 C 0.66477 0.15548 0.32796 0.0
C2121 C 0.65002 0.14521 0.36979 0.0
C2122 C 0.66893 0.17806 0.33893 0.0
C2123 C 0.68213 0.18484 0.3395 0.0
C2124 C 0.69152 0.16936 0.32889 0.0
C2125 C 0.68728 0.14713 0.31742 0.0
C2126 C 0.67407 0.1403 0.31696 0.0
H2127 H 0.64448 0.13416 0.38238 0.0
H2128 H 0.66013 0.13766 0.36934 0.0
H2129 H 0.65034 0.16584 0.37506 0.0
H2130 H 0.66195 0.19053 0.34705 0.0
H2131 H 0.68497 0.20223 0.34832 0.0
H2132 H 0.19251 0.64751 0.30127 0.0
H2133 H 0.16937 0.63656 0.30035 0.0
H2134 H 0.16328 0.68124 0.35945 0.0
H2135 H 0.18629 0.6931 0.35996 0.0
H2136 H 0.15478 0.61007 0.32722 0.0
H2137 H 0.13446 0.70939 0.32297 0.0
H2138 H 0.15156 0.70298 0.31947 0.0
H2139 H 0.14465 0.70522 0.34662 0.0
C2140 C 0.18623 0.65523 0.31397 0.0
C2141 C 0.19129 0.67136 0.33061 0.0
C2142 C 0.17297 0.6489 0.31345 0.0
C2143 C 0.16443 0.65839 0.3296 0.0
C2144 C 0.1695 0.67426 0.34638 0.0
H2145 H 0.08883 0.58817 0.35847 0.0
H2146 H 0.11175 0.60061 0.35771 0.0
C2147 C 0.18273 0.68091 0.34675 0.0
C2148 C 0.15036 0.65091 0.32928 0.0
H2149 H 0.11947 0.67542 0.33149 0.0
C2150 C 0.14708 0.62441 0.32802 0.0
C2151 C 0.14021 0.66952 0.32994 0.0
C2152 C 0.14288 0.69836 0.32958 0.0
C2153 C 0.13404 0.61603 0.32775 0.0
C2154 C 0.1239 0.63457 0.32952 0.0
C2155 C 0.12718 0.66109 0.33042 0.0
C2156 C 0.10985 0.627 0.33016 0.0
C2157 C 0.13132 0.58739 0.32498 0.0
C2158 C 0.10091 0.63833 0.31552 0.0
C2159 C 0.0877 0.63165 0.31624 0.0
C2160 C 0.08307 0.61331 0.33153 0.0
C2161 C 0.09203 0.60211 0.34627 0.0
C2162 C 0.10521 0.60907 0.34574 0.0
H2163 H 0.13956 0.57728 0.31684 0.0
H2164 H 0.12998 0.57843 0.34141 0.0
H2165 H 0.12239 0.58402 0.31512 0.0
H2166 H 0.10416 0.65232 0.30342 0.0
H2167 H 0.08113 0.64086 0.30473 0.0
H2168 H 0.69415 0.64678 0.47497 0.0
H2169 H 0.67113 0.65854 0.47528 0.0
H2170 H 0.66232 0.59238 0.43438 0.0
H2171 H 0.68538 0.58078 0.43355 0.0
H2172 H 0.65014 0.63531 0.41969 0.0
H2173 H 0.64165 0.62611 0.50924 0.0
H2174 H 0.65468 0.64798 0.50274 0.0
H2175 H 0.65618 0.61401 0.49615 0.0
C2176 C 0.68733 0.63459 0.46613 0.0
C2177 C 0.69168 0.61276 0.45426 0.0
C2178 C 0.67411 0.64127 0.46645 0.0
C2179 C 0.66488 0.62614 0.45516 0.0
C2180 C 0.6692 0.60434 0.44331 0.0
H2181 H 0.58063 0.63553 0.47069 0.0
H2182 H 0.60357 0.62312 0.47137 0.0
C2183 C 0.68242 0.59769 0.44289 0.0
C2184 C 0.65082 0.63351 0.45503 0.0
H2185 H 0.62486 0.64642 0.48843 0.0
C2186 C 0.64461 0.63764 0.43474 0.0
C2187 C 0.6435 0.63625 0.47462 0.0
C2188 C 0.64929 0.63061 0.49691 0.0
C2189 C 0.63141 0.64477 0.43349 0.0
C2190 C 0.62422 0.64847 0.4531 0.0
C2191 C 0.63037 0.64393 0.47339 0.0
C2192 C 0.61025 0.65648 0.45291 0.0
C2193 C 0.62524 0.64768 0.4111 0.0
C2194 C 0.60629 0.67965 0.44265 0.0
C2195 C 0.59313 0.68677 0.44213 0.0
C2196 C 0.58361 0.67104 0.4521 0.0
C2197 C 0.58765 0.64816 0.46283 0.0
C2198 C 0.6008 0.64101 0.46324 0.0
H2199 H 0.63081 0.63711 0.39826 0.0
H2200 H 0.61509 0.64035 0.41108 0.0
H2201 H 0.62508 0.66856 0.40653 0.0
H2202 H 0.61339 0.69231 0.43505 0.0
H2203 H 0.59043 0.70464 0.43389 0.0
H2204 H 0.18565 0.08211 0.43358 0.0
H2205 H 0.1627 0.09456 0.43404 0.0
H2206 H 0.17177 0.15969 0.47594 0.0
H2207 H 0.19471 0.14712 0.47595 0.0
H2208 H 0.15008 0.13442 0.48978 0.0
H2209 H 0.14616 0.15394 0.40045 0.0
H2210 H 0.15182 0.12176 0.40656 0.0
H2211 H 0.16159 0.1494 0.41406 0.0
C2212 C 0.18279 0.0991 0.44292 0.0
C2213 C 0.19211 0.11368 0.45461 0.0
C2214 C 0.16964 0.10631 0.44302 0.0
C2215 C 0.16549 0.12841 0.45465 0.0
C2216 C 0.17472 0.14268 0.46671 0.0
H2217 H 0.08997 0.20467 0.43757 0.0
H2218 H 0.11319 0.19394 0.43836 0.0
C2219 C 0.18786 0.13545 0.46667 0.0
C2220 C 0.15153 0.13646 0.45452 0.0
H2221 H 0.12633 0.15318 0.42057 0.0
C2222 C 0.14491 0.13861 0.47464 0.0
C2223 C 0.14478 0.14237 0.43482 0.0
C2224 C 0.15147 0.14203 0.41276 0.0
C2225 C 0.13173 0.14593 0.47557 0.0
C2226 C 0.12484 0.15081 0.45581 0.0
C2227 C 0.13153 0.14921 0.43572 0.0
C2228 C 0.1107 0.15749 0.45559 0.0
C2229 C 0.12539 0.14881 0.49779 0.0
C2230 C 0.10149 0.14048 0.46475 0.0
C2231 C 0.08822 0.14661 0.46439 0.0
C2232 C 0.08378 0.16982 0.45469 0.0
C2233 C 0.09301 0.18668 0.44525 0.0
C2234 C 0.10631 0.18055 0.44568 0.0
H2235 H 0.1327 0.15202 0.51097 0.0
H2236 H 0.1184 0.16524 0.49793 0.0
H2237 H 0.12001 0.13071 0.50175 0.0
H2238 H 0.10455 0.12223 0.47195 0.0
H2239 H 0.08143 0.13289 0.47145 0.0
H2240 H 0.3248 0.0461 0.09619 0.0
H2241 H 0.32499 0.0914 0.10782 0.0
H2242 H 0.29671 0.07408 0.15805 0.0
H2243 H 0.29606 0.02871 0.14583 0.0
H2244 H 0.2902 0.1168 0.13703 0.0
H2245 H 0.34218 0.12443 0.1594 0.0
H2246 H 0.34015 0.11381 0.13155 0.0
H2247 H 0.33447 0.09365 0.15378 0.0
C2248 C 0.31873 0.0518 0.10991 0.0
C2249 C 0.31048 0.03375 0.12021 0.0
C2250 C 0.31891 0.07775 0.11662 0.0
C2251 C 0.31108 0.08612 0.13412 0.0
C2252 C 0.3029 0.06806 0.14458 0.0
H2253 H 0.32009 0.23513 0.19866 0.0
H2254 H 0.32031 0.18953 0.18793 0.0
C2255 C 0.30256 0.04213 0.13765 0.0
C2256 C 0.31098 0.11392 0.14077 0.0
H2257 H 0.33072 0.16453 0.15513 0.0
C2258 C 0.29905 0.12719 0.14117 0.0
C2259 C 0.3225 0.12744 0.14644 0.0
C2260 C 0.33552 0.11401 0.14801 0.0
C2261 C 0.29833 0.15363 0.14678 0.0
C2262 C 0.30993 0.16745 0.15139 0.0
C2263 C 0.32184 0.15408 0.15127 0.0
C2264 C 0.30993 0.19547 0.15737 0.0
C2265 C 0.28511 0.16622 0.14827 0.0
C2266 C 0.30423 0.21421 0.14357 0.0
C2267 C 0.30391 0.24039 0.14985 0.0
C2268 C 0.30957 0.24836 0.16978 0.0
C2269 C 0.31569 0.2297 0.18314 0.0
C2270 C 0.31581 0.20355 0.17704 0.0
H2271 H 0.27731 0.15157 0.15075 0.0
H2272 H 0.2847 0.18046 0.16197 0.0
H2273 H 0.28302 0.1766 0.13267 0.0
H2274 H 0.29997 0.2086 0.12799 0.0
H2275 H 0.29922 0.25435 0.13915 0.0
H2276 H 0.97539 0.02928 0.13934 0.0
H2277 H 0.9747 0.07509 0.1284 0.0
H2278 H 0.95321 0.09348 0.18727 0.0
H2279 H 0.95336 0.04778 0.19772 0.0
H2280 H 0.94338 0.11873 0.15425 0.0
H2281 H 0.9968 0.13211 0.15255 0.0
H2282 H 0.99147 0.10719 0.134 0.0
H2283 H 0.98929 0.10305 0.16317 0.0
C2284 C 0.97045 0.0431 0.14984 0.0
C2285 C 0.96445 0.03492 0.16939 0.0
C2286 C 0.97018 0.06932 0.1437 0.0
C2287 C 0.96418 0.08789 0.15728 0.0
C2288 C 0.95795 0.07959 0.17656 0.0
H2289 H 0.97796 0.25483 0.14597 0.0
H2290 H 0.97726 0.20954 0.15838 0.0
C2291 C 0.95803 0.0534 0.1825 0.0
C2292 C 0.96422 0.11596 0.15145 0.0
H2293 H 0.98407 0.16674 0.13802 0.0
C2294 C 0.95229 0.12924 0.15081 0.0
C2295 C 0.97586 0.12987 0.14742 0.0
C2296 C 0.98908 0.1174 0.14954 0.0
C2297 C 0.95166 0.15588 0.14597 0.0
C2298 C 0.96323 0.16947 0.14079 0.0
C2299 C 0.97518 0.1563 0.14176 0.0
C2300 C 0.96317 0.19723 0.13401 0.0
C2301 C 0.9386 0.16922 0.14698 0.0
C2302 C 0.95552 0.20541 0.11619 0.0
C2303 C 0.95572 0.23131 0.10938 0.0
C2304 C 0.96383 0.2495 0.11989 0.0
C2305 C 0.97158 0.2413 0.13762 0.0
C2306 C 0.97121 0.21541 0.14467 0.0
H2307 H 0.93183 0.15883 0.15817 0.0
H2308 H 0.93953 0.18963 0.15268 0.0
H2309 H 0.93416 0.16924 0.13035 0.0
H2310 H 0.94957 0.19165 0.10723 0.0
H2311 H 0.9498 0.23687 0.09542 0.0
H2312 H 0.7033 0.98533 0.94695 0.0
H2313 H 0.70296 0.93969 0.93626 0.0
H2314 H 0.72542 0.95781 0.87839 0.0
H2315 H 0.72623 1.00356 0.88949 0.0
H2316 H 0.69341 0.91505 0.9021 0.0
H2317 H 0.74674 0.90005 0.90392 0.0
H2318 H 0.7392 0.92916 0.91437 0.0
H2319 H 0.74196 0.92535 0.88533 0.0
C2320 C 0.70814 0.97968 0.9319 0.0
C2321 C 0.71485 0.99807 0.91912 0.0
C2322 C 0.70795 0.95352 0.92582 0.0
C2323 C 0.71438 0.94516 0.90676 0.0
C2324 C 0.7207 0.96364 0.89351 0.0
H2325 H 0.70062 0.79696 0.84314 0.0
H2326 H 0.70044 0.84215 0.85505 0.0
C2327 C 0.72106 0.98983 0.89975 0.0
C2328 C 0.71432 0.91714 0.90082 0.0
H2329 H 0.73406 0.86575 0.88873 0.0
C2330 C 0.70231 0.90425 0.89927 0.0
C2331 C 0.72593 0.90288 0.89758 0.0
C2332 C 0.73919 0.91499 0.90061 0.0
C2333 C 0.70157 0.87766 0.89426 0.0
C2334 C 0.71316 0.8637 0.88995 0.0
C2335 C 0.72518 0.87648 0.89184 0.0
C2336 C 0.71303 0.83597 0.88312 0.0
C2337 C 0.68839 0.86475 0.89414 0.0
C2338 C 0.72047 0.81745 0.89453 0.0
C2339 C 0.72079 0.79155 0.88749 0.0
C2340 C 0.71361 0.7837 0.86896 0.0
C2341 C 0.7061 0.80225 0.85769 0.0
C2342 C 0.70593 0.82814 0.86455 0.0
H2343 H 0.68137 0.87541 0.90468 0.0
H2344 H 0.68448 0.86476 0.87714 0.0
H2345 H 0.68898 0.84434 0.89997 0.0
H2346 H 0.72609 0.82306 0.90884 0.0
H2347 H 0.72672 0.77775 0.89644 0.0
H2348 H 0.07728 0.98946 0.85181 0.0
H2349 H 0.07721 0.94355 0.86198 0.0
H2350 H 0.04143 0.95452 0.89766 0.0
H2351 H 0.0414 1.00064 0.88759 0.0
H2352 H 0.0611 0.92391 0.91997 0.0
H2353 H 0.05134 0.8901 0.83478 0.0
H2354 H 0.06486 0.91201 0.83755 0.0
H2355 H 0.0487 0.92327 0.84341 0.0
C2356 C 0.06943 0.98222 0.86197 0.0
C2357 C 0.0593 0.99871 0.86879 0.0
C2358 C 0.06938 0.95593 0.86765 0.0
C2359 C 0.0592 0.94561 0.88023 0.0
C2360 C 0.04933 0.96214 0.8878 0.0
H2361 H 0.04015 0.78239 0.89968 0.0
H2362 H 0.03982 0.82858 0.89 0.0
C2363 C 0.04934 0.98848 0.88206 0.0
C2364 C 0.05882 0.91747 0.88522 0.0
H2365 H 0.05658 0.85767 0.8611 0.0
C2366 C 0.06007 0.9094 0.90714 0.0
C2367 C 0.05731 0.89866 0.86844 0.0
C2368 C 0.05536 0.90635 0.84472 0.0
C2369 C 0.06017 0.88292 0.91268 0.0
C2370 C 0.0591 0.8641 0.8958 0.0
C2371 C 0.05753 0.87218 0.87395 0.0
C2372 C 0.05957 0.83591 0.90059 0.0
C2373 C 0.06129 0.87525 0.93654 0.0
C2374 C 0.07091 0.82465 0.90916 0.0
C2375 C 0.07116 0.79827 0.9146 0.0
C2376 C 0.06007 0.78266 0.91155 0.0
C2377 C 0.04886 0.79385 0.90225 0.0
C2378 C 0.04863 0.82024 0.89675 0.0
H2379 H 0.059 0.89172 0.9477 0.0
H2380 H 0.05467 0.85881 0.94038 0.0
H2381 H 0.0714 0.86887 0.93997 0.0
H2382 H 0.07952 0.83635 0.91187 0.0
H2383 H 0.07997 0.79029 0.92165 0.0
H2384 H 0.29037 0.75073 0.64793 0.0
H2385 H 0.29031 0.70468 0.63768 0.0
H2386 H 0.32707 0.69414 0.67065 0.0
H2387 H 0.32718 0.73996 0.68112 0.0
H2388 H 0.30846 0.67477 0.61372 0.0
H2389 H 0.30326 0.63955 0.69949 0.0
H2390 H 0.30041 0.67295 0.69179 0.0
H2391 H 0.31674 0.66122 0.69537 0.0
C2392 C 0.2985 0.73867 0.65284 0.0
C2393 C 0.30875 0.74899 0.66546 0.0
C2394 C 0.29843 0.71237 0.64701 0.0
C2395 C 0.30856 0.69594 0.65379 0.0
C2396 C 0.31902 0.70638 0.66567 0.0
H2397 H 0.32809 0.54235 0.60644 0.0
H2398 H 0.32774 0.58821 0.61681 0.0
C2399 C 0.3191 0.73263 0.6715 0.0
C2400 C 0.30817 0.66781 0.6486 0.0
H2401 H 0.30778 0.60762 0.67227 0.0
C2402 C 0.30827 0.66007 0.62649 0.0
C2403 C 0.30771 0.64872 0.66533 0.0
C2404 C 0.3069 0.65595 0.68933 0.0
C2405 C 0.30825 0.63367 0.62066 0.0
C2406 C 0.30832 0.61458 0.6374 0.0
C2407 C 0.30788 0.62232 0.65949 0.0
C2408 C 0.30882 0.58646 0.63225 0.0
C2409 C 0.30803 0.62643 0.59662 0.0
C2410 C 0.29853 0.57005 0.63828 0.0
C2411 C 0.29872 0.54373 0.63251 0.0
C2412 C 0.30927 0.53337 0.6207 0.0
C2413 C 0.31979 0.54971 0.61542 0.0
C2414 C 0.31957 0.57598 0.6212 0.0
H2415 H 0.30467 0.64283 0.58618 0.0
H2416 H 0.318 0.62112 0.59132 0.0
H2417 H 0.30159 0.60945 0.59369 0.0
H2418 H 0.29019 0.57775 0.64697 0.0
H2419 H 0.29047 0.53169 0.63682 0.0
H2420 H 0.98633 0.53472 0.6606 0.0
H2421 H 0.9863 0.58135 0.65296 0.0
H2422 H 0.94462 0.57959 0.64514 0.0
H2423 H 0.94451 0.53305 0.65326 0.0
H2424 H 0.97803 0.60977 0.6174 0.0
H2425 H 0.94943 0.63573 0.69148 0.0
H2426 H 0.95644 0.60393 0.6876 0.0
H2427 H 0.9415 0.61249 0.67401 0.0
C2428 C 0.97715 0.54419 0.65713 0.0
C2429 C 0.9654 0.53018 0.65776 0.0
C2430 C 0.97716 0.57087 0.65279 0.0
C2431 C 0.96543 0.58406 0.649 0.0
C2432 C 0.95375 0.56993 0.64862 0.0
H2433 H 0.9445 0.74163 0.6157 0.0
H2434 H 0.94499 0.69539 0.62493 0.0
C2435 C 0.95372 0.54327 0.65308 0.0
C2436 C 0.96544 0.6126 0.64554 0.0
H2437 H 0.95319 0.66957 0.66564 0.0
C2438 C 0.97267 0.62287 0.62802 0.0
C2439 C 0.95848 0.62966 0.65951 0.0
C2440 C 0.95112 0.61997 0.67934 0.0
C2441 C 0.97287 0.64968 0.62376 0.0
C2442 C 0.96577 0.66665 0.63753 0.0
C2443 C 0.95861 0.65645 0.65512 0.0
C2444 C 0.9654 0.69501 0.63352 0.0
C2445 C 0.98044 0.65965 0.60425 0.0
C2446 C 0.97663 0.71022 0.63593 0.0
C2447 C 0.97638 0.73671 0.63081 0.0
C2448 C 0.96488 0.7484 0.62311 0.0
C2449 C 0.95353 0.73324 0.6215 0.0
C2450 C 0.95378 0.70681 0.62675 0.0
H2451 H 0.98331 0.64373 0.59291 0.0
H2452 H 0.97463 0.67415 0.59494 0.0
H2453 H 0.98941 0.66942 0.61014 0.0
H2454 H 0.98565 0.70149 0.64144 0.0
H2455 H 0.98529 0.74782 0.63224 0.0
H2456 H 0.69681 0.48945 0.4313 0.0
H2457 H 0.69709 0.44347 0.42134 0.0
H2458 H 0.73286 0.45486 0.38572 0.0
H2459 H 0.73268 0.50105 0.39557 0.0
H2460 H 0.71343 0.4237 0.36351 0.0
H2461 H 0.7231 0.39071 0.44893 0.0
H2462 H 0.70948 0.4123 0.44597 0.0
H2463 H 0.72559 0.42388 0.44017 0.0
C2464 C 0.7047 0.48229 0.42119 0.0
C2465 C 0.71477 0.49892 0.41432 0.0
C2466 C 0.70487 0.45596 0.41564 0.0
C2467 C 0.71511 0.44574 0.40315 0.0
C2468 C 0.72492 0.4624 0.39552 0.0
H2469 H 0.73459 0.28245 0.38437 0.0
H2470 H 0.7349 0.32872 0.39388 0.0
C2471 C 0.72478 0.48878 0.40112 0.0
C2472 C 0.71563 0.41756 0.39831 0.0
H2473 H 0.71802 0.35798 0.42274 0.0
C2474 C 0.71448 0.40931 0.37642 0.0
C2475 C 0.71717 0.39891 0.41519 0.0
C2476 C 0.71902 0.4068 0.43888 0.0
C2477 C 0.71449 0.38278 0.37101 0.0
C2478 C 0.71557 0.36411 0.38799 0.0
C2479 C 0.71706 0.37237 0.40981 0.0
C2480 C 0.71513 0.33588 0.38334 0.0
C2481 C 0.71345 0.37491 0.34718 0.0
C2482 C 0.70379 0.32452 0.37486 0.0
C2483 C 0.70355 0.29811 0.36953 0.0
C2484 C 0.71465 0.28257 0.37259 0.0
C2485 C 0.72587 0.29386 0.3818 0.0
C2486 C 0.72608 0.32029 0.3872 0.0
H2487 H 0.71573 0.39132 0.33595 0.0
H2488 H 0.72013 0.35852 0.34348 0.0
H2489 H 0.70337 0.36837 0.34371 0.0
H2490 H 0.69517 0.33616 0.37213 0.0
H2491 H 0.69473 0.29005 0.36254 0.0
H2492 H 0.04968 0.2775 0.38888 0.0
H2493 H 0.05082 0.32293 0.37686 0.0
H2494 H 0.07079 0.34313 0.4369 0.0
H2495 H 0.07018 0.29787 0.4485 0.0
H2496 H 0.04058 0.36507 0.39408 0.0
H2497 H 0.09394 0.37762 0.39345 0.0
H2498 H 0.08639 0.34615 0.39608 0.0
H2499 H 0.08837 0.36679 0.41979 0.0
C2500 C 0.05448 0.2916 0.39933 0.0
C2501 C 0.05997 0.28404 0.4195 0.0
C2502 C 0.05509 0.31755 0.39249 0.0
C2503 C 0.06112 0.33641 0.40577 0.0
C2504 C 0.06647 0.32887 0.42601 0.0
H2505 H 0.04617 0.50308 0.39625 0.0
H2506 H 0.04648 0.45722 0.40706 0.0
C2507 C 0.06605 0.30294 0.43268 0.0
C2508 C 0.06132 0.36416 0.399 0.0
H2509 H 0.08131 0.41669 0.39314 0.0
C2510 C 0.04951 0.3763 0.39367 0.0
C2511 C 0.07298 0.37878 0.39816 0.0
C2512 C 0.08614 0.36657 0.40194 0.0
C2513 C 0.04899 0.40272 0.38791 0.0
C2514 C 0.06056 0.41766 0.38827 0.0
C2515 C 0.0724 0.40539 0.39322 0.0
C2516 C 0.06073 0.44579 0.38269 0.0
C2517 C 0.03609 0.41409 0.38101 0.0
C2518 C 0.06909 0.45492 0.36619 0.0
C2519 C 0.06919 0.48117 0.36044 0.0
C2520 C 0.06082 0.49887 0.37091 0.0
C2521 C 0.05265 0.48987 0.38778 0.0
C2522 C 0.05272 0.46361 0.3938 0.0
H2523 H 0.02928 0.39878 0.3752 0.0
H2524 H 0.03153 0.42384 0.39533 0.0
H2525 H 0.03731 0.42862 0.36768 0.0
H2526 H 0.0754 0.44162 0.35744 0.0
H2527 H 0.07556 0.48742 0.3473 0.0
H2528 H 0.82828 0.04114 0.6062 0.0
H2529 H 0.82859 0.08676 0.61725 0.0
H2530 H 0.79132 0.07735 0.64865 0.0
H2531 H 0.79095 0.03152 0.63783 0.0
H2532 H 0.81027 0.12438 0.60507 0.0
H2533 H 0.81338 0.11404 0.69584 0.0
H2534 H 0.81698 0.08764 0.67726 0.0
H2535 H 0.8004 0.09612 0.6831 0.0
C2536 C 0.82021 0.04863 0.61571 0.0
C2537 C 0.8096 0.03265 0.62118 0.0
C2538 C 0.8204 0.07475 0.62195 0.0
C2539 C 0.81003 0.08538 0.63389 0.0
C2540 C 0.79952 0.06941 0.63974 0.0
H2541 H 0.79131 0.2496 0.64808 0.0
H2542 H 0.7916 0.20367 0.6376 0.0
C2543 C 0.79932 0.04324 0.63351 0.0
C2544 C 0.80999 0.11347 0.63925 0.0
H2545 H 0.80982 0.15652 0.68195 0.0
C2546 C 0.81019 0.13144 0.62188 0.0
C2547 C 0.80999 0.12257 0.66118 0.0
C2548 C 0.81029 0.10414 0.68046 0.0
C2549 C 0.8103 0.15831 0.62585 0.0
C2550 C 0.81004 0.16741 0.64777 0.0
C2551 C 0.80994 0.14945 0.66515 0.0
C2552 C 0.81011 0.19551 0.65311 0.0
C2553 C 0.81094 0.17673 0.60658 0.0
C2554 C 0.82037 0.2061 0.66538 0.0
C2555 C 0.82023 0.23229 0.67141 0.0
C2556 C 0.80976 0.24838 0.66541 0.0
C2557 C 0.79957 0.2378 0.65281 0.0
C2558 C 0.79973 0.21157 0.64677 0.0
H2559 H 0.81421 0.16678 0.59135 0.0
H2560 H 0.80113 0.1849 0.6035 0.0
H2561 H 0.81766 0.19313 0.61007 0.0
H2562 H 0.82846 0.19401 0.67045 0.0
H2563 H 0.82822 0.23976 0.68115 0.0
H2564 H 0.4508 0.04743 0.68821 0.0
H2565 H 0.45038 0.09257 0.67623 0.0
H2566 H 0.47616 0.07391 0.62262 0.0
H2567 H 0.47703 0.02864 0.63507 0.0
H2568 H 0.48394 0.11669 0.64294 0.0
H2569 H 0.43125 0.12551 0.62638 0.0
H2570 H 0.43432 0.11481 0.65393 0.0
H2571 H 0.43899 0.09456 0.6311 0.0
C2572 C 0.45626 0.05279 0.67368 0.0
C2573 C 0.46388 0.03438 0.66249 0.0
C2574 C 0.45594 0.07864 0.66678 0.0
C2575 C 0.46302 0.08658 0.64825 0.0
C2576 C 0.47056 0.0682 0.63689 0.0
H2577 H 0.45281 0.23635 0.58528 0.0
H2578 H 0.45261 0.19059 0.59559 0.0
C2579 C 0.47101 0.04233 0.64397 0.0
C2580 C 0.46304 0.11431 0.64147 0.0
H2581 H 0.44311 0.16538 0.62938 0.0
C2582 C 0.47501 0.12729 0.63979 0.0
C2583 C 0.45141 0.12808 0.63708 0.0
C2584 C 0.43829 0.11494 0.63698 0.0
C2585 C 0.47567 0.15374 0.63421 0.0
C2586 C 0.464 0.16782 0.63093 0.0
C2587 C 0.45204 0.15472 0.63225 0.0
C2588 C 0.46396 0.1959 0.62525 0.0
C2589 C 0.48888 0.1661 0.63141 0.0
C2590 C 0.47018 0.21431 0.63872 0.0
C2591 C 0.47046 0.24056 0.6327 0.0
C2592 C 0.46427 0.24892 0.61334 0.0
C2593 C 0.45764 0.2306 0.60035 0.0
C2594 C 0.45753 0.20437 0.6062 0.0
H2595 H 0.4965 0.15133 0.62803 0.0
H2596 H 0.48886 0.18044 0.61777 0.0
H2597 H 0.49159 0.17633 0.64681 0.0
H2598 H 0.47488 0.20837 0.65385 0.0
H2599 H 0.47557 0.25425 0.64313 0.0
H2600 H 0.19533 0.78393 0.38264 0.0
H2601 H 0.19546 0.83044 0.39109 0.0
H2602 H 0.23717 0.832 0.38427 0.0
H2603 H 0.23717 0.78554 0.37578 0.0
H2604 H 0.20959 0.85866 0.42507 0.0
H2605 H 0.22352 0.88798 0.34031 0.0
H2606 H 0.21715 0.85614 0.34664 0.0
H2607 H 0.23373 0.86397 0.35309 0.0
C2608 C 0.20455 0.79409 0.38312 0.0
C2609 C 0.21623 0.78104 0.37839 0.0
C2610 C 0.2046 0.82066 0.38792 0.0
C2611 C 0.21629 0.83468 0.38791 0.0
C2612 C 0.22802 0.82158 0.38397 0.0
H2613 H 0.23563 0.99768 0.40524 0.0
H2614 H 0.23575 0.95113 0.39704 0.0
C2615 C 0.228 0.79499 0.37927 0.0
C2616 C 0.2162 0.86309 0.39175 0.0
H2617 H 0.22223 0.92138 0.36692 0.0
C2618 C 0.21232 0.87241 0.41238 0.0
C2619 C 0.21981 0.8809 0.37513 0.0
C2620 C 0.2237 0.87187 0.35247 0.0
C2621 C 0.21213 0.89915 0.41697 0.0
C2622 C 0.21561 0.91702 0.40027 0.0
C2623 C 0.21954 0.90765 0.37966 0.0
C2624 C 0.2153 0.94551 0.40397 0.0
C2625 C 0.2085 0.90796 0.43983 0.0
C2626 C 0.20368 0.95795 0.40988 0.0
C2627 C 0.20359 0.98451 0.41467 0.0
C2628 C 0.21509 0.99921 0.41338 0.0
C2629 C 0.2266 0.98693 0.40643 0.0
C2630 C 0.22669 0.96032 0.40177 0.0
H2631 H 0.20963 0.89207 0.45205 0.0
H2632 H 0.21456 0.92471 0.44511 0.0
H2633 H 0.19817 0.91414 0.43992 0.0
H2634 H 0.19471 0.94703 0.4111 0.0
H2635 H 0.19454 0.9934 0.41978 0.0
H2636 H 0.54797 1.0062 0.39353 0.0
H2637 H 0.549 0.96079 0.40563 0.0
H2638 H 0.57272 0.94201 0.34938 0.0
H2639 H 0.57218 0.98727 0.33777 0.0
H2640 H 0.54038 0.91819 0.38641 0.0
H2641 H 0.59357 0.90858 0.39677 0.0
H2642 H 0.58579 0.93964 0.39289 0.0
H2643 H 0.58947 0.91928 0.3696 0.0
C2644 C 0.55356 0.99243 0.38396 0.0
C2645 C 0.56011 1.00039 0.36484 0.0
C2646 C 0.55411 0.96649 0.39083 0.0
C2647 C 0.56115 0.94803 0.37865 0.0
C2648 C 0.56758 0.95597 0.35946 0.0
H2649 H 0.54808 0.7804 0.38601 0.0
H2650 H 0.54845 0.82619 0.37494 0.0
C2651 C 0.5672 0.9819 0.35277 0.0
C2652 C 0.56129 0.92027 0.38537 0.0
H2653 H 0.58149 0.86889 0.39504 0.0
C2654 C 0.54937 0.90746 0.38849 0.0
C2655 C 0.57302 0.90631 0.38836 0.0
C2656 C 0.58617 0.91925 0.38696 0.0
C2657 C 0.54885 0.88103 0.39417 0.0
C2658 C 0.56057 0.86675 0.39604 0.0
C2659 C 0.57249 0.87968 0.39325 0.0
C2660 C 0.56077 0.8387 0.40185 0.0
C2661 C 0.53575 0.86891 0.39864 0.0
C2662 C 0.56807 0.83024 0.41998 0.0
C2663 C 0.56815 0.80407 0.42597 0.0
C2664 C 0.56083 0.78575 0.41406 0.0
C2665 C 0.55375 0.79408 0.39559 0.0
C2666 C 0.55384 0.82029 0.38939 0.0
H2667 H 0.52837 0.88382 0.40294 0.0
H2668 H 0.53232 0.85872 0.38363 0.0
H2669 H 0.5363 0.85459 0.41226 0.0
H2670 H 0.57354 0.84401 0.42981 0.0
H2671 H 0.57368 0.79835 0.44034 0.0
H2672 H 0.78939 0.53255 0.13562 0.0
H2673 H 0.78901 0.57889 0.14494 0.0
H2674 H 0.8293 0.58568 0.12632 0.0
H2675 H 0.82981 0.53951 0.11699 0.0
H2676 H 0.80559 0.60838 0.17497 0.0
H2677 H 0.8095 0.64046 0.088 0.0
H2678 H 0.80472 0.60791 0.09562 0.0
H2679 H 0.82153 0.61727 0.09666 0.0
C2680 C 0.79821 0.54383 0.13373 0.0
C2681 C 0.80962 0.53235 0.12545 0.0
C2682 C 0.79796 0.57029 0.13901 0.0
C2683 C 0.80906 0.58571 0.13594 0.0
C2684 C 0.82057 0.57415 0.12844 0.0
H2685 H 0.82775 0.73933 0.18301 0.0
H2686 H 0.8272 0.69323 0.17349 0.0
C2687 C 0.82086 0.54772 0.12325 0.0
C2688 C 0.80861 0.61399 0.1403 0.0
H2689 H 0.81147 0.67318 0.11535 0.0
C2690 C 0.80682 0.62257 0.16196 0.0
C2691 C 0.81005 0.6324 0.1232 0.0
C2692 C 0.81145 0.62416 0.09951 0.0
C2693 C 0.80679 0.64918 0.16707 0.0
C2694 C 0.80871 0.66756 0.15009 0.0
C2695 C 0.81014 0.659 0.12834 0.0
C2696 C 0.80938 0.69577 0.15469 0.0
C2697 C 0.80464 0.65746 0.19059 0.0
C2698 C 0.79978 0.71261 0.1466 0.0
C2699 C 0.80007 0.73905 0.15195 0.0
C2700 C 0.81004 0.74908 0.16537 0.0
C2701 C 0.81991 0.73226 0.17271 0.0
C2702 C 0.81958 0.70586 0.16741 0.0
H2703 H 0.80033 0.64159 0.20061 0.0
H2704 H 0.81411 0.6629 0.19804 0.0
H2705 H 0.79814 0.67467 0.19139 0.0
H2706 H 0.79188 0.70516 0.13661 0.0
H2707 H 0.79232 0.75147 0.14604 0.0
H2708 H 0.47782 0.52798 0.13877 0.0
H2709 H 0.47719 0.57396 0.12835 0.0
H2710 H 0.44929 0.58876 0.17978 0.0
H2711 H 0.44944 0.54286 0.18956 0.0
H2712 H 0.44262 0.61412 0.14466 0.0
H2713 H 0.49496 0.6321 0.15974 0.0
H2714 H 0.49234 0.60726 0.13955 0.0
H2715 H 0.48711 0.60214 0.16747 0.0
C2716 C 0.47149 0.54104 0.14772 0.0
C2717 C 0.4637 0.53179 0.165 0.0
C2718 C 0.47124 0.56736 0.14192 0.0
C2719 C 0.46344 0.585 0.15365 0.0
C2720 C 0.45544 0.57561 0.17055 0.0
H2721 H 0.47435 0.7534 0.14759 0.0
H2722 H 0.47334 0.70797 0.15966 0.0
C2723 C 0.45552 0.5493 0.1761 0.0
C2724 C 0.46346 0.61319 0.14831 0.0
H2725 H 0.48325 0.66594 0.14174 0.0
C2726 C 0.45151 0.62546 0.14414 0.0
C2727 C 0.47501 0.6282 0.14812 0.0
C2728 C 0.48805 0.61682 0.1542 0.0
C2729 C 0.4508 0.65212 0.13942 0.0
C2730 C 0.46242 0.6668 0.13801 0.0
C2731 C 0.47435 0.65466 0.14258 0.0
C2732 C 0.46246 0.69458 0.13133 0.0
C2733 C 0.43756 0.6643 0.13648 0.0
C2734 C 0.45672 0.70218 0.1114 0.0
C2735 C 0.45708 0.72811 0.10471 0.0
C2736 C 0.46346 0.74695 0.11754 0.0
C2737 C 0.4693 0.73935 0.13742 0.0
C2738 C 0.46877 0.7134 0.14428 0.0
H2739 H 0.42995 0.65317 0.14539 0.0
H2740 H 0.43741 0.68469 0.14243 0.0
H2741 H 0.43496 0.66416 0.11877 0.0
H2742 H 0.45218 0.68796 0.10075 0.0
H2743 H 0.45267 0.7332 0.08912 0.0
H2744 H 0.23268 0.28219 0.88831 0.0
H2745 H 0.23288 0.32805 0.89908 0.0
H2746 H 0.19522 0.33864 0.86919 0.0
H2747 H 0.19494 0.29298 0.85825 0.0
H2748 H 0.21401 0.37576 0.85631 0.0
H2749 H 0.21147 0.36518 0.94714 0.0
H2750 H 0.22405 0.34668 0.93392 0.0
H2751 H 0.20729 0.3391 0.92855 0.0
C2752 C 0.22435 0.29417 0.88431 0.0
C2753 C 0.21378 0.28389 0.87246 0.0
C2754 C 0.22448 0.32037 0.8905 0.0
C2755 C 0.21403 0.33667 0.88505 0.0
C2756 C 0.20338 0.32636 0.87357 0.0
H2757 H 0.19622 0.49071 0.93238 0.0
H2758 H 0.19609 0.44502 0.92152 0.0
C2759 C 0.20323 0.30022 0.8674 0.0
C2760 C 0.21437 0.36474 0.89045 0.0
H2761 H 0.21493 0.40761 0.93327 0.0
C2762 C 0.21421 0.38277 0.87313 0.0
C2763 C 0.21454 0.37375 0.9124 0.0
C2764 C 0.21424 0.35523 0.93162 0.0
C2765 C 0.21427 0.40963 0.87718 0.0
C2766 C 0.21463 0.41864 0.89912 0.0
C2767 C 0.21473 0.40061 0.91645 0.0
C2768 C 0.21454 0.44672 0.90455 0.0
C2769 C 0.21367 0.42816 0.85798 0.0
C2770 C 0.22493 0.46287 0.89846 0.0
C2771 C 0.22504 0.48908 0.90461 0.0
C2772 C 0.21477 0.49953 0.91704 0.0
C2773 C 0.20428 0.48334 0.92278 0.0
C2774 C 0.2042 0.45718 0.91665 0.0
H2775 H 0.21051 0.41827 0.84263 0.0
H2776 H 0.20689 0.44444 0.86144 0.0
H2777 H 0.22347 0.4365 0.85513 0.0
H2778 H 0.23311 0.45506 0.8894 0.0
H2779 H 0.2333 0.50097 0.90007 0.0
H2780 H 0.53773 0.28236 0.90588 0.0
H2781 H 0.53756 0.3289 0.89773 0.0
H2782 H 0.57941 0.33072 0.90185 0.0
H2783 H 0.57971 0.28418 0.90977 0.0
H2784 H 0.54728 0.36789 0.92544 0.0
H2785 H 0.572 0.36946 0.84439 0.0
H2786 H 0.56525 0.34016 0.85606 0.0
H2787 H 0.58072 0.35217 0.86538 0.0
C2788 C 0.54692 0.29254 0.90469 0.0
C2789 C 0.55874 0.27952 0.90844 0.0
C2790 C 0.54679 0.31916 0.90011 0.0
C2791 C 0.55847 0.3332 0.89901 0.0
C2792 C 0.5703 0.32016 0.90225 0.0
H2793 H 0.5791 0.49515 0.88169 0.0
H2794 H 0.57893 0.44858 0.88968 0.0
C2795 C 0.57044 0.29356 0.90685 0.0
C2796 C 0.55825 0.36173 0.89576 0.0
H2797 H 0.56895 0.4102 0.86203 0.0
C2798 C 0.55195 0.37717 0.91151 0.0
C2799 C 0.56439 0.37373 0.87763 0.0
C2800 C 0.57088 0.35805 0.85977 0.0
C2801 C 0.55183 0.40438 0.90984 0.0
C2802 C 0.55801 0.41639 0.89174 0.0
C2803 C 0.56428 0.40093 0.87595 0.0
C2804 C 0.55798 0.44496 0.88865 0.0
C2805 C 0.54537 0.42006 0.92772 0.0
C2806 C 0.54624 0.4584 0.88562 0.0
C2807 C 0.5463 0.48504 0.88114 0.0
C2808 C 0.55811 0.49869 0.87942 0.0
C2809 C 0.56984 0.48526 0.88294 0.0
C2810 C 0.56976 0.45863 0.88745 0.0
H2811 H 0.5442 0.4086 0.94307 0.0
H2812 H 0.55104 0.43788 0.93151 0.0
H2813 H 0.53555 0.42606 0.92209 0.0
H2814 H 0.53705 0.44814 0.88606 0.0
H2815 H 0.5371 0.49473 0.87836 0.0
H2816 H 0.24295 0.10972 0.37596 0.0
H2817 H 0.24993 0.13744 0.34538 0.0
H2818 H 0.25918 0.19875 0.39106 0.0
H2819 H 0.25244 0.17113 0.42165 0.0
H2820 H 0.24041 0.18374 0.33114 0.0
H2821 H 0.29195 0.19738 0.35471 0.0
H2822 H 0.28174 0.17308 0.36733 0.0
H2823 H 0.28089 0.20642 0.37618 0.0
C2824 C 0.24664 0.12896 0.37958 0.0
C2825 C 0.24718 0.13794 0.40147 0.0
C2826 C 0.25059 0.14491 0.36199 0.0
C2827 C 0.25529 0.17024 0.36573 0.0
C2828 C 0.2559 0.17918 0.38757 0.0
H2829 H 0.25868 0.29825 0.2705 0.0
H2830 H 0.2527 0.26734 0.29947 0.0
C2831 C 0.25196 0.16328 0.40515 0.0
C2832 C 0.25908 0.1876 0.34684 0.0
H2833 H 0.2838 0.22547 0.32672 0.0
C2834 C 0.24993 0.19273 0.33017 0.0
C2835 C 0.27155 0.19925 0.34519 0.0
C2836 C 0.28214 0.19358 0.36168 0.0
C2837 C 0.25277 0.20945 0.31237 0.0
C2838 C 0.26507 0.2219 0.31119 0.0
C2839 C 0.27432 0.21629 0.32759 0.0
C2840 C 0.26855 0.24069 0.29313 0.0
C2841 C 0.2426 0.21324 0.29477 0.0
C2842 C 0.27961 0.23659 0.27995 0.0
C2843 C 0.28311 0.25445 0.26346 0.0
C2844 C 0.27572 0.27707 0.2598 0.0
C2845 C 0.26462 0.2811 0.2729 0.0
C2846 C 0.26112 0.26325 0.28938 0.0
H2847 H 0.2355 0.19696 0.29451 0.0
H2848 H 0.23715 0.23142 0.29814 0.0
H2849 H 0.24711 0.21489 0.27826 0.0
H2850 H 0.28559 0.21951 0.28245 0.0
H2851 H 0.29179 0.25084 0.25389 0.0
H2852 H 0.02988 0.1727 0.37754 0.0
H2853 H 0.02285 0.14461 0.34725 0.0
H2854 H 0.01944 0.08021 0.39216 0.0
H2855 H 0.02612 0.10828 0.42256 0.0
H2856 H 0.03354 0.10277 0.3295 0.0
H2857 H 0.98535 0.0736 0.36118 0.0
H2858 H 0.9947 0.09946 0.3735 0.0
H2859 H 0.99815 0.06605 0.38018 0.0
C2860 C 0.02746 0.15266 0.38109 0.0
C2861 C 0.0285 0.14299 0.40272 0.0
C2862 C 0.02348 0.13649 0.36364 0.0
C2863 C 0.02037 0.11017 0.36723 0.0
C2864 C 0.0214 0.1005 0.38882 0.0
H2865 H 0.01966 0.9896 0.26436 0.0
H2866 H 0.02542 0.01955 0.29418 0.0
C2867 C 0.02531 0.11666 0.40629 0.0
C2868 C 0.01657 0.09269 0.34834 0.0
H2869 H 0.99353 0.04904 0.33093 0.0
C2870 C 0.02475 0.09115 0.32983 0.0
C2871 C 1.00499 0.07763 0.34833 0.0
C2872 C 0.99523 0.07943 0.36675 0.0
C2873 C 0.02186 0.07483 0.31177 0.0
C2874 C 1.01058 0.0589 0.3122 0.0
C2875 C 1.00227 0.06085 0.3305 0.0
C2876 C 1.00713 0.0404 0.29383 0.0
C2877 C 0.03082 0.07536 0.29216 0.0
C2878 C 0.99478 0.04133 0.28378 0.0
C2879 C 0.99138 0.02375 0.267 0.0
C2880 C 1.00017 1.00456 0.25985 0.0
C2881 C 0.01255 1.00377 0.26971 0.0
C2882 C 0.01594 0.02125 0.28659 0.0
H2883 H 0.03638 0.09386 0.29133 0.0
H2884 H 0.03795 0.05927 0.29359 0.0
H2885 H 0.02535 0.07291 0.27655 0.0
H2886 H 0.98774 0.05573 0.28892 0.0
H2887 H 0.98176 0.0249 0.25982 0.0
H2888 H 0.28507 0.98427 0.99866 0.0
H2889 H 0.27877 1.01436 0.96927 0.0
H2890 H 0.25721 0.06018 1.01597 0.0
H2891 H 0.26322 0.02967 0.04536 0.0
H2892 H 0.25348 0.02885 0.95441 0.0
H2893 H 0.28063 0.11466 0.9854 0.0
H2894 H 0.28388 0.08206 0.99494 0.0
H2895 H 0.26994 0.09946 1.0049 0.0
C2896 C 0.27892 1.00067 1.00269 0.0
C2897 C 0.27478 1.00464 0.0245 0.0
C2898 C 0.27536 0.01798 0.98583 0.0
C2899 C 0.26767 0.03994 0.99031 0.0
C2900 C 0.26339 0.0438 1.01205 0.0
H2901 H 0.23825 0.16866 0.90927 0.0
H2902 H 0.24476 0.13963 0.93923 0.0
C2903 C 0.26686 0.02634 0.0289 0.0
C2904 C 0.26394 0.05835 0.97215 0.0
H2905 H 0.26709 0.12131 0.95447 0.0
C2906 C 0.25649 0.04905 0.95441 0.0
C2907 C 0.26777 0.08483 0.97206 0.0
C2908 C 0.27609 0.09592 0.99022 0.0
C2909 C 0.25261 0.0654 0.93694 0.0
C2910 C 0.25659 0.09185 0.93664 0.0
C2911 C 0.26402 0.10115 0.95446 0.0
C2912 C 0.25309 0.11014 0.91815 0.0
C2913 C 0.24389 0.05423 0.91934 0.0
C2914 C 0.25587 0.10392 0.8961 0.0
C2915 C 0.25206 0.12047 0.87884 0.0
C2916 C 0.24554 0.14404 0.88308 0.0
C2917 C 0.24324 0.15076 0.90522 0.0
C2918 C 0.24696 0.13407 0.92247 0.0
H2919 H 0.23847 0.03697 0.9254 0.0
H2920 H 0.23676 0.06883 0.91342 0.0
H2921 H 0.24992 0.04788 0.90522 0.0
H2922 H 0.26097 0.08613 0.89214 0.0
H2923 H 0.25413 0.11461 0.86211 0.0
H2924 H 0.03464 0.11326 0.90891 0.0
H2925 H 0.02801 0.14179 0.93922 0.0
H2926 H 0.01254 0.19676 0.89267 0.0
H2927 H 0.01914 0.16848 0.8623 0.0
H2928 H 0.03599 0.19491 0.94662 0.0
H2929 H 0.98245 0.18739 0.93716 0.0
H2930 H 0.99351 0.16416 0.9251 0.0
H2931 H 0.99116 0.19535 0.91246 0.0
C2932 C 0.02968 0.13125 0.90506 0.0
C2933 C 0.0274 0.13834 0.88299 0.0
C2934 C 0.02594 0.14766 0.92248 0.0
C2935 C 0.01964 0.17145 0.91839 0.0
C2936 C 0.01719 0.17841 0.89641 0.0
H2937 H 0.98864 0.29867 0.9982 0.0
H2938 H 0.99505 0.2686 0.96894 0.0
C2939 C 0.02103 0.16215 0.87899 0.0
C2940 C 0.01606 0.18938 0.93696 0.0
H2941 H 0.99025 0.21912 0.9621 0.0
C2942 C 0.02598 0.20007 0.95009 0.0
C2943 C 1.00302 0.1964 0.9415 0.0
C2944 C 0.99188 0.18512 0.92847 0.0
C2945 C 0.02327 0.21794 0.96715 0.0
C2946 C 1.01019 0.22487 0.97184 0.0
C2947 C 1.00028 0.214 0.95872 0.0
C2948 C 1.00655 0.24358 0.98994 0.0
C2949 C 0.03455 0.2299 0.97939 0.0
C2950 C 1.01076 0.23985 1.01178 0.0
C2951 C 1.00726 0.25741 0.02853 0.0
C2952 C 0.99922 0.2789 0.02405 0.0
C2953 C 0.99494 0.28251 1.00227 0.0
C2954 C 0.99853 0.26512 0.9855 0.0
H2955 H 0.04364 0.22912 0.96957 0.0
H2956 H 0.03256 0.25049 0.98371 0.0
H2957 H 0.03625 0.21886 0.99479 0.0
H2958 H 0.01668 0.2232 1.016 0.0
H2959 H 1.0109 0.25418 0.04502 0.0
H2960 H 0.76821 0.74261 0.77344 0.0
H2961 H 0.77423 0.77321 0.74417 0.0
H2962 H 0.73479 0.80163 0.74241 0.0
H2963 H 0.72896 0.77167 0.77218 0.0
H2964 H 0.76735 0.77796 0.70342 0.0
H2965 H 0.75289 0.86944 0.74411 0.0
H2966 H 0.75345 0.83893 0.75863 0.0
H2967 H 0.73951 0.84725 0.74207 0.0
C2968 C 0.76087 0.75557 0.76689 0.0
C2969 C 0.74812 0.75477 0.77518 0.0
C2970 C 0.7643 0.77309 0.75009 0.0
C2971 C 0.75507 0.79033 0.74107 0.0
C2972 C 0.74227 0.78932 0.74933 0.0
H2973 H 0.76745 0.86511 0.6119 0.0
H2974 H 0.76046 0.83684 0.64201 0.0
C2975 C 0.7389 0.77201 0.76631 0.0
C2976 C 0.75875 0.80858 0.72263 0.0
H2977 H 0.75731 0.87212 0.70571 0.0
C2978 C 0.76518 0.79857 0.70405 0.0
C2979 C 0.75619 0.8357 0.72327 0.0
C2980 C 0.75026 0.84852 0.74319 0.0
C2981 C 0.76896 0.81456 0.68626 0.0
C2982 C 0.76586 0.84148 0.68645 0.0
C2983 C 0.75957 0.85155 0.70516 0.0
C2984 C 0.76943 0.85962 0.66787 0.0
C2985 C 0.77661 0.8024 0.66778 0.0
C2986 C 0.77621 0.8829 0.67206 0.0
C2987 C 0.77994 0.89953 0.65482 0.0
C2988 C 0.77708 0.89339 0.63274 0.0
C2989 C 0.76996 0.87048 0.62859 0.0
C2990 C 0.76607 0.85404 0.64589 0.0
H2991 H 0.78167 0.78445 0.67325 0.0
H2992 H 0.76987 0.7969 0.65432 0.0
H2993 H 0.78398 0.81607 0.66115 0.0
H2994 H 0.7789 0.888 0.68874 0.0
H2995 H 0.78542 0.91689 0.65879 0.0
H2996 H 0.04297 1.00882 0.7738 0.0
H2997 H 0.03724 0.97817 0.74446 0.0
H2998 H 0.99903 1.01229 0.74021 0.0
H2999 H 1.00456 0.04201 0.77036 0.0
H3000 H 0.99702 0.96143 0.73685 0.0
H3001 H 0.03602 0.99205 0.67993 0.0
H3002 H 0.04228 0.98099 0.7058 0.0
H3003 H 0.03233 1.00976 0.70473 0.0
C3004 C 0.03332 1.0097 0.76666 0.0
C3005 C 0.02432 0.02829 0.77417 0.0
C3006 C 0.03009 0.99234 0.74963 0.0
C3007 C 0.01779 0.9932 0.73943 0.0
C3008 C 1.00865 1.01128 0.74743 0.0
H3009 H 0.99803 0.92354 0.61206 0.0
H3010 H 1.00447 0.95195 0.64242 0.0
C3011 C 1.01186 0.02851 0.76457 0.0
C3012 C 0.01435 0.9751 0.72077 0.0
H3013 H 0.02428 0.95398 0.67 0.0
C3014 C 1.003 0.95989 0.72224 0.0
C3015 C 0.02194 0.97315 0.70135 0.0
C3016 C 0.03374 0.99004 0.6977 0.0
C3017 C 0.99916 0.94281 0.70522 0.0
C3018 C 1.00702 0.94012 0.68618 0.0
C3019 C 0.01829 0.95557 0.68458 0.0
C3020 C 1.00353 0.92214 0.66746 0.0
C3021 C 0.98645 0.92843 0.70761 0.0
C3022 C 1.00112 0.8955 0.67097 0.0
C3023 C 0.99733 0.87913 0.65354 0.0
C3024 C 0.99601 0.88879 0.63196 0.0
C3025 C 0.99891 0.91524 0.62835 0.0
C3026 C 1.00261 0.93162 0.6458 0.0
H3027 H 0.97987 0.93823 0.71948 0.0
H3028 H 0.98133 0.92675 0.6916 0.0
H3029 H 0.9884 0.90857 0.71391 0.0
H3030 H 1.00212 0.88729 0.68726 0.0
H3031 H 0.99529 0.85891 0.65707 0.0
H3032 H 0.7735 0.9222 0.17156 0.0
H3033 H 0.76666 0.95 0.14109 0.0
H3034 H 0.77504 0.88843 0.09524 0.0
H3035 H 0.7821 0.86055 0.12565 0.0
H3036 H 0.78474 0.93442 0.08072 0.0
H3037 H 0.73352 0.94937 0.10547 0.0
H3038 H 0.74487 0.95818 0.12663 0.0
H3039 H 0.74369 0.92484 0.11788 0.0
C3040 C 0.77377 0.91436 0.15504 0.0
C3041 C 0.77833 0.88889 0.15126 0.0
C3042 C 0.76977 0.93035 0.13754 0.0
C3043 C 0.77011 0.92138 0.11569 0.0
C3044 C 0.7746 0.89593 0.11186 0.0
H3045 H 0.73295 1.00155 1.00415 0.0
H3046 H 0.73925 0.97052 0.0329 0.0
C3047 C 0.7786 0.8799 0.12936 0.0
C3048 C 0.76625 0.93878 0.09685 0.0
H3049 H 0.74153 0.97693 0.07706 0.0
C3050 C 0.77526 0.94359 0.07993 0.0
C3051 C 0.75383 0.95066 0.09542 0.0
C3052 C 0.74337 0.94534 0.11219 0.0
C3053 C 0.77233 0.96019 0.06208 0.0
C3054 C 0.76009 0.97286 0.0611 0.0
C3055 C 0.75097 0.96759 0.07776 0.0
C3056 C 0.75652 0.99148 0.04295 0.0
C3057 C 0.78235 0.9636 0.04422 0.0
C3058 C 0.76404 1.01383 0.03879 0.0
C3059 C 0.76048 0.0315 0.02218 0.0
C3060 C 0.74924 0.02752 1.0094 0.0
C3061 C 0.74175 1.00512 1.01348 0.0
C3062 C 0.7453 0.98743 0.03009 0.0
H3063 H 0.78936 0.94718 0.04391 0.0
H3064 H 0.77768 0.96516 0.0278 0.0
H3065 H 0.78792 0.9817 0.04732 0.0
H3066 H 0.77258 0.01788 0.04863 0.0
H3067 H 0.7665 0.04847 0.01945 0.0
H3068 H 0.01556 0.78098 0.98921 0.0
H3069 H 1.00993 0.81198 0.01841 0.0
H3070 H 0.02827 0.76221 0.06626 0.0
H3071 H 0.0345 0.73207 0.03704 0.0
H3072 H 0.99506 0.80882 0.05393 0.0
H3073 H 0.04505 0.82921 0.08268 0.0
H3074 H 0.04184 0.81154 0.05765 0.0
H3075 H 0.04128 0.79523 0.08384 0.0
C3076 C 0.01858 0.77687 1.00591 0.0
C3077 C 0.02563 0.75409 1.01064 0.0
C3078 C 0.01526 0.79455 0.02269 0.0
C3079 C 0.01889 0.78997 0.0447 0.0
C3080 C 0.02564 0.76685 0.04947 0.0
H3081 H 1.00361 0.86357 0.17178 0.0
H3082 H 1.01026 0.83541 0.14134 0.0
C3083 C 0.02904 0.74931 0.03271 0.0
C3084 C 0.01535 0.80895 0.06267 0.0
H3085 H 0.02787 0.84384 0.10592 0.0
C3086 C 1.00229 0.81661 0.06514 0.0
C3087 C 0.02469 0.81939 0.07748 0.0
C3088 C 0.03901 0.81364 0.07517 0.0
C3089 C 0.99831 0.83361 0.08211 0.0
C3090 C 1.00761 0.84366 0.0971 0.0
C3091 C 0.02068 0.83617 0.09458 0.0
C3092 C 1.00395 0.86159 0.11566 0.0
C3093 C 0.98407 0.84012 0.08423 0.0
C3094 C 0.99843 0.88617 0.1116 0.0
C3095 C 0.99469 0.90251 0.12907 0.0
C3096 C 0.99633 0.89474 0.15114 0.0
C3097 C 1.00214 0.87035 0.15511 0.0
C3098 C 1.00596 0.85413 0.13764 0.0
H3099 H 0.97784 0.82635 0.07487 0.0
H3100 H 0.98101 0.83989 0.10173 0.0
H3101 H 0.98234 0.85994 0.07767 0.0
H3102 H 0.99697 0.89273 0.09487 0.0
H3103 H 0.99027 0.92106 0.12522 0.0
H3104 H 0.25793 0.79743 0.76982 0.0
H3105 H 0.25206 0.7671 0.79934 0.0
H3106 H 0.28613 0.72137 0.7851 0.0
H3107 H 0.29221 0.75214 0.75604 0.0
H3108 H 0.2463 0.7158 0.80007 0.0
H3109 H 0.29045 0.73209 0.85048 0.0
H3110 H 0.28624 0.75264 0.82752 0.0
H3111 H 0.29393 0.7217 0.82295 0.0
C3112 C 0.26421 0.78097 0.77307 0.0
C3113 C 0.27562 0.77744 0.76068 0.0
C3114 C 0.26081 0.76353 0.78994 0.0
C3115 C 0.26875 0.74204 0.79496 0.0
C3116 C 0.27996 0.73804 0.78209 0.0
H3117 H 0.24297 0.61053 0.8778 0.0
H3118 H 0.24988 0.63815 0.84715 0.0
C3119 C 0.28336 0.75552 0.76524 0.0
C3120 C 0.26523 0.7239 0.8135 0.0
H3121 H 0.27648 0.69796 0.86187 0.0
C3122 C 0.25293 0.71192 0.81355 0.0
C3123 C 0.27372 0.71895 0.83143 0.0
C3124 C 0.28677 0.73219 0.8333 0.0
C3125 C 0.24897 0.69513 0.83069 0.0
C3126 C 0.2576 0.68958 0.8483 0.0
C3127 C 0.26986 0.70179 0.84837 0.0
C3128 C 0.25394 0.672 0.86715 0.0
C3129 C 0.23538 0.68409 0.83002 0.0
C3130 C 0.25437 0.68117 0.88894 0.0
C3131 C 0.25054 0.66526 0.9066 0.0
C3132 C 0.24621 0.63956 0.90308 0.0
C3133 C 0.24616 0.63016 0.88129 0.0
C3134 C 0.25001 0.6461 0.86363 0.0
H3135 H 0.22891 0.69558 0.81909 0.0
H3136 H 0.23575 0.66394 0.82355 0.0
H3137 H 0.23102 0.68352 0.84671 0.0
H3138 H 0.25742 0.70093 0.8923 0.0
H3139 H 0.25076 0.67335 0.92303 0.0
H3140 H 0.02014 0.61374 0.92159 0.0
H3141 H 0.01349 0.5856 0.89115 0.0
H3142 H 0.02764 0.64212 0.84474 0.0
H3143 H 0.0344 0.67042 0.87513 0.0
H3144 H 0.99631 0.59358 0.8558 0.0
H3145 H 0.0463 0.57561 0.82508 0.0
H3146 H 0.04317 0.58973 0.85172 0.0
H3147 H 0.04186 0.60926 0.82733 0.0
C3148 C 0.0218 0.62036 0.90493 0.0
C3149 C 0.02789 0.6445 0.90099 0.0
C3150 C 0.01798 0.60414 0.88746 0.0
C3151 C 0.02024 0.61136 0.8655 0.0
C3152 C 0.026 0.63572 0.86146 0.0
H3153 H 1.00809 0.52936 0.73976 0.0
H3154 H 0.01386 0.56075 0.7686 0.0
C3155 C 0.02977 0.65206 0.87894 0.0
C3156 C 0.01656 0.59334 0.847 0.0
H3157 H 0.02906 0.55794 0.80418 0.0
C3158 C 1.00349 0.58579 0.84454 0.0
C3159 C 0.02585 0.58311 0.83212 0.0
C3160 C 0.0401 0.5896 0.8342 0.0
C3161 C 0.99946 0.56873 0.82764 0.0
C3162 C 1.00879 0.55812 0.81295 0.0
C3163 C 0.02185 0.56587 0.81531 0.0
C3164 C 1.00523 0.53884 0.79524 0.0
C3165 C 0.98515 0.56281 0.82541 0.0
C3166 C 0.99863 0.51564 0.80034 0.0
C3167 C 0.99518 0.49782 0.78379 0.0
C3168 C 0.99839 0.50242 0.76163 0.0
C3169 C 1.00527 0.52532 0.75657 0.0
C3170 C 1.00865 0.54325 0.77313 0.0
H3171 H 0.97909 0.57838 0.83283 0.0
H3172 H 0.98229 0.56051 0.80791 0.0
H3173 H 0.98294 0.54445 0.83421 0.0
H3174 H 0.99614 0.51118 0.81721 0.0
H3175 H 0.98981 0.48058 0.78838 0.0
H3176 H 0.25477 0.49062 0.52156 0.0
H3177 H 0.24927 0.52033 0.49142 0.0
H3178 H 0.28765 0.55381 0.49514 0.0
H3179 H 0.29336 0.52314 0.52445 0.0
H3180 H 0.24746 0.57116 0.48789 0.0
H3181 H 0.28615 0.53966 0.43071 0.0
H3182 H 0.28248 0.52215 0.45561 0.0
H3183 H 0.29255 0.55078 0.45648 0.0
C3184 C 0.26212 0.50396 0.51565 0.0
C3185 C 0.27462 0.504 0.52509 0.0
C3186 C 0.25892 0.5212 0.49851 0.0
C3187 C 0.26811 0.53909 0.49037 0.0
C3188 C 0.28045 0.53978 0.50043 0.0
H3189 H 0.24572 0.67294 0.40728 0.0
H3190 H 0.2525 0.64489 0.43773 0.0
C3191 C 0.28368 0.5224 0.51744 0.0
C3192 C 0.26468 0.55715 0.4717 0.0
H3193 H 0.27454 0.57784 0.42077 0.0
C3194 C 0.2534 0.57253 0.47322 0.0
C3195 C 0.27223 0.55889 0.45221 0.0
C3196 C 0.28394 0.5418 0.4485 0.0
C3197 C 0.24956 0.58955 0.45616 0.0
C3198 C 0.25738 0.59201 0.43703 0.0
C3199 C 0.26858 0.57643 0.43541 0.0
C3200 C 0.25386 0.6098 0.41821 0.0
C3201 C 0.23691 0.60409 0.4586 0.0
C3202 C 0.25292 0.60005 0.39664 0.0
C3203 C 0.24927 0.61623 0.37905 0.0
C3204 C 0.24642 0.64275 0.38243 0.0
C3205 C 0.24772 0.65266 0.40393 0.0
C3206 C 0.25148 0.63649 0.4215 0.0
H3207 H 0.23035 0.59446 0.4706 0.0
H3208 H 0.23894 0.62398 0.46476 0.0
H3209 H 0.23174 0.60569 0.44263 0.0
H3210 H 0.25476 0.57968 0.39342 0.0
H3211 H 0.24839 0.60772 0.36283 0.0
H3212 H 0.98031 0.7536 0.52711 0.0
H3213 H 0.98647 0.72242 0.49837 0.0
H3214 H 0.02297 0.76242 0.48992 0.0
H3215 H 0.01702 0.79289 0.51923 0.0
H3216 H 0.99125 0.72865 0.45573 0.0
H3217 H 0.03589 0.68927 0.49391 0.0
H3218 H 0.02459 0.70937 0.50889 0.0
H3219 H 0.0365 0.72393 0.49104 0.0
C3220 C 0.98973 0.75549 0.51934 0.0
C3221 C 0.99816 0.77581 0.52548 0.0
C3222 C 0.99323 0.73772 0.50276 0.0
C3223 C 1.0053 0.73962 0.49195 0.0
C3224 C 0.01374 0.75994 0.49817 0.0
H3225 H 0.02398 0.6719 0.36342 0.0
H3226 H 0.01702 0.69949 0.39388 0.0
C3227 C 1.01026 0.77761 0.51481 0.0
C3228 C 1.00885 0.72098 0.47377 0.0
H3229 H 0.03262 0.67923 0.456 0.0
C3230 C 1.00028 0.71778 0.45591 0.0
C3231 C 0.02053 0.70626 0.4739 0.0
C3232 C 0.02984 0.70714 0.49307 0.0
C3233 C 1.00314 0.70096 0.43817 0.0
C3234 C 0.01509 0.68716 0.43782 0.0
C3235 C 0.02353 0.68989 0.45593 0.0
C3236 C 0.01905 0.66989 0.41893 0.0
C3237 C 0.99314 0.69781 0.4202 0.0
C3238 C 0.02287 0.64395 0.42254 0.0
C3239 C 0.02701 0.62805 0.40504 0.0
C3240 C 0.02751 0.63763 0.38333 0.0
C3241 C 0.02361 0.66357 0.37975 0.0
C3242 C 0.01953 0.67946 0.39726 0.0
H3243 H 0.98322 0.70267 0.42613 0.0
H3244 H 0.99549 0.71127 0.40652 0.0
H3245 H 0.99304 0.67766 0.41368 0.0
H3246 H 0.02269 0.63594 0.43901 0.0
H3247 H 0.02999 0.60831 0.4086 0.0
H3248 H 0.78462 0.41838 0.15836 0.0
H3249 H 0.77814 0.38933 0.1883 0.0
H3250 H 0.76294 0.33472 0.14108 0.0
H3251 H 0.76972 0.36327 0.11108 0.0
H3252 H 0.7557 0.36998 0.20284 0.0
H3253 H 0.78584 0.28707 0.17545 0.0
H3254 H 0.78729 0.31894 0.1634 0.0
H3255 H 0.7745 0.29727 0.15478 0.0
C3256 C 0.77985 0.40024 0.15428 0.0
C3257 C 0.77782 0.39325 0.13211 0.0
C3258 C 0.77615 0.38354 0.17151 0.0
C3259 C 0.77031 0.3593 0.16717 0.0
C3260 C 0.76779 0.35278 0.14508 0.0
H3261 H 0.73965 0.23173 0.24715 0.0
H3262 H 0.74588 0.26192 0.21785 0.0
C3263 C 0.77158 0.36937 0.12783 0.0
C3264 C 0.76684 0.341 0.18566 0.0
H3265 H 0.77067 0.2784 0.20402 0.0
C3266 C 0.75907 0.35002 0.20311 0.0
C3267 C 0.77121 0.31481 0.18632 0.0
C3268 C 0.78028 0.304 0.16911 0.0
C3269 C 0.75532 0.33363 0.22067 0.0
C3270 C 0.75954 0.3074 0.22113 0.0
C3271 C 0.76735 0.2984 0.20376 0.0
C3272 C 0.75586 0.28892 0.23928 0.0
C3273 C 0.74657 0.3444 0.23834 0.0
C3274 C 0.75954 0.29354 0.26126 0.0
C3275 C 0.75611 0.27603 0.27808 0.0
C3276 C 0.74887 0.25343 0.27343 0.0
C3277 C 0.74533 0.24873 0.2514 0.0
C3278 C 0.74883 0.26613 0.23458 0.0
H3279 H 0.74167 0.36258 0.23301 0.0
H3280 H 0.73904 0.32999 0.24307 0.0
H3281 H 0.75247 0.3489 0.25314 0.0
H3282 H 0.76521 0.31059 0.26539 0.0
H3283 H 0.75923 0.28005 0.29475 0.0
H3284 H 0.01479 0.50162 0.29565 0.0
H3285 H 1.00914 0.47093 0.26619 0.0
H3286 H 0.02968 0.51871 0.2195 0.0
H3287 H 0.03593 0.54845 0.24904 0.0
H3288 H 0.99521 0.475 0.22987 0.0
H3289 H 0.04524 0.4504 0.20411 0.0
H3290 H 0.04193 0.46848 0.22888 0.0
H3291 H 0.04224 0.48466 0.20261 0.0
C3292 C 0.01833 0.50528 0.27918 0.0
C3293 C 0.02603 0.52732 0.27488 0.0
C3294 C 0.01499 0.48781 0.26224 0.0
C3295 C 0.01922 0.49191 0.24047 0.0
C3296 C 0.0266 0.51438 0.23611 0.0
H3297 H 1.00416 0.41932 0.1127 0.0
H3298 H 1.0109 0.44724 0.14331 0.0
C3299 C 0.03003 0.53168 0.25305 0.0
C3300 C 0.01563 0.4732 0.22232 0.0
H3301 H 0.02821 0.43722 0.17982 0.0
C3302 C 1.00247 0.46661 0.2191 0.0
C3303 C 0.02502 0.46198 0.20806 0.0
C3304 C 0.0394 0.46651 0.21121 0.0
C3305 C 0.99847 0.44988 0.20193 0.0
C3306 C 1.00783 0.43907 0.18749 0.0
C3307 C 0.02098 0.44551 0.19073 0.0
C3308 C 1.00414 0.42131 0.16883 0.0
C3309 C 0.98416 0.44441 0.19902 0.0
C3310 C 0.99834 0.39698 0.17276 0.0
C3311 C 0.99456 0.38077 0.15522 0.0
C3312 C 0.99642 0.38846 0.13318 0.0
C3313 C 1.00251 0.41261 0.12934 0.0
C3314 C 1.00638 0.42869 0.1469 0.0
H3315 H 0.97803 0.45848 0.20821 0.0
H3316 H 0.98141 0.4451 0.18137 0.0
H3317 H 0.98197 0.42462 0.20525 0.0
H3318 H 0.99667 0.39051 0.18946 0.0
H3319 H 0.98991 0.36241 0.15897 0.0
H3320 H 0.77931 0.35789 0.62554 0.0
H3321 H 0.77254 0.3858 0.59496 0.0
H3322 H 0.76909 0.45067 0.63941 0.0
H3323 H 0.77543 0.42279 0.67007 0.0
H3324 H 0.74957 0.45176 0.61175 0.0
H3325 H 0.79431 0.43747 0.56273 0.0
H3326 H 0.78595 0.40758 0.56823 0.0
H3327 H 0.79283 0.42595 0.59061 0.0
C3328 C 0.77705 0.37806 0.62887 0.0
C3329 C 0.778 0.38793 0.65044 0.0
C3330 C 0.77329 0.39417 0.61124 0.0
C3331 C 0.77057 0.42073 0.61455 0.0
C3332 C 0.77119 0.4304 0.63617 0.0
H3333 H 0.76936 0.54163 0.51276 0.0
H3334 H 0.77491 0.51143 0.54254 0.0
C3335 C 0.77483 0.41431 0.6538 0.0
C3336 C 0.76701 0.43849 0.59575 0.0
H3337 H 0.77715 0.46053 0.54538 0.0
C3338 C 0.75564 0.45362 0.59726 0.0
C3339 C 0.77495 0.44153 0.57684 0.0
C3340 C 0.78775 0.42749 0.57454 0.0
C3341 C 0.75198 0.4713 0.58059 0.0
C3342 C 0.75967 0.47364 0.56132 0.0
C3343 C 0.7711 0.45869 0.55988 0.0
C3344 C 0.75625 0.49193 0.54281 0.0
C3345 C 0.74008 0.48791 0.58423 0.0
C3346 C 0.744 0.49099 0.53245 0.0
C3347 C 0.74074 0.50864 0.51566 0.0
C3348 C 0.74968 0.52757 0.50855 0.0
C3349 C 0.7621 0.52786 0.51827 0.0
C3350 C 0.76533 0.51035 0.53519 0.0
H3351 H 0.7377 0.48963 0.60198 0.0
H3352 H 0.74144 0.50774 0.57742 0.0
H3353 H 0.73163 0.4788 0.5759 0.0
H3354 H 0.7369 0.47658 0.53734 0.0
H3355 H 0.73113 0.5077 0.50841 0.0
H3356 H 0.99267 0.4212 0.62715 0.0
H3357 H 0.99954 0.39347 0.59655 0.0
H3358 H 1.00739 0.33107 0.64189 0.0
H3359 H 1.00079 0.35878 0.67257 0.0
H3360 H 0.02629 0.33389 0.61142 0.0
H3361 H 0.97869 0.33579 0.56873 0.0
H3362 H 0.98551 0.36751 0.57298 0.0
H3363 H 0.98083 0.34811 0.59627 0.0
C3364 C 0.99592 0.40163 0.6307 0.0
C3365 C 0.99608 0.39237 0.65252 0.0
C3366 C 0.99975 0.38562 0.61306 0.0
C3367 C 1.00375 0.35979 0.61665 0.0
C3368 C 1.00428 0.35078 0.63847 0.0
H3369 H 1.00791 0.23424 0.51923 0.0
H3370 H 1.00192 0.26452 0.54873 0.0
C3371 C 1.00048 0.36675 0.6561 0.0
C3372 C 1.00741 0.34214 0.59784 0.0
H3373 H 0.99611 0.31571 0.54966 0.0
C3374 C 0.01966 0.32998 0.59793 0.0
C3375 C 0.99877 0.33648 0.58025 0.0
C3376 C 0.98517 0.34743 0.57957 0.0
C3377 C 0.02354 0.31278 0.58104 0.0
C3378 C 0.01506 0.30774 0.5631 0.0
C3379 C 1.00274 0.31965 0.56314 0.0
C3380 C 0.01861 0.28965 0.54455 0.0
C3381 C 0.03659 0.29958 0.58295 0.0
C3382 C 0.02986 0.29373 0.53179 0.0
C3383 C 0.03333 0.27627 0.51497 0.0
C3384 C 0.02564 0.25429 0.51034 0.0
C3385 C 0.01417 0.25071 0.52258 0.0
C3386 C 1.0107 0.26813 0.53942 0.0
H3387 H 0.04022 0.29965 0.60016 0.0
H3388 H 0.03609 0.27915 0.57713 0.0
H3389 H 0.04377 0.31014 0.57269 0.0
H3390 H 0.036 0.31043 0.53486 0.0
H3391 H 0.04222 0.27969 0.50588 0.0
H3392 H 0.74779 0.17425 0.92188 0.0
H3393 H 0.75422 0.2027 0.89157 0.0
H3394 H 0.7522 0.13795 0.84674 0.0
H3395 H 0.74543 0.1095 0.87688 0.0
H3396 H 0.77423 0.2046 0.86415 0.0
H3397 H 0.72988 0.18887 0.81431 0.0
H3398 H 0.73128 0.17751 0.84225 0.0
H3399 H 0.73838 0.15922 0.82007 0.0
C3400 C 0.74874 0.16594 0.90561 0.0
C3401 C 0.74597 0.13942 0.90199 0.0
C3402 C 0.75243 0.18234 0.88818 0.0
C3403 C 0.75345 0.17284 0.86654 0.0
C3404 C 0.75113 0.14617 0.86302 0.0
H3405 H 0.79306 0.25875 0.7602 0.0
H3406 H 0.78723 0.22826 0.78957 0.0
C3407 C 0.74737 0.12976 0.88042 0.0
C3408 C 0.75697 0.1908 0.84786 0.0
H3409 H 0.74704 0.2121 0.7971 0.0
C3410 C 0.76825 0.2062 0.84952 0.0
C3411 C 0.74913 0.1935 0.82876 0.0
C3412 C 0.73643 0.17911 0.82627 0.0
C3413 C 0.77196 0.22372 0.83275 0.0
C3414 C 0.76438 0.22568 0.81329 0.0
C3415 C 0.75301 0.21055 0.81175 0.0
C3416 C 0.76788 0.24371 0.79463 0.0
C3417 C 0.7838 0.2405 0.83643 0.0
C3418 C 0.75883 0.26201 0.78667 0.0
C3419 C 0.76211 0.27919 0.76954 0.0
C3420 C 0.77453 0.27865 0.75989 0.0
C3421 C 0.78344 0.25986 0.76736 0.0
C3422 C 0.78015 0.24258 0.78441 0.0
H3423 H 0.78611 0.24247 0.8542 0.0
H3424 H 0.79231 0.23139 0.8283 0.0
H3425 H 0.78241 0.26023 0.82943 0.0
H3426 H 0.74924 0.26324 0.79392 0.0
H3427 H 0.75488 0.29291 0.76381 0.0
H3428 H 0.48071 0.02663 0.7561 0.0
H3429 H 0.48664 0.05725 0.78541 0.0
H3430 H 0.52457 0.02195 0.78983 0.0
H3431 H 0.51884 0.99222 0.75984 0.0
H3432 H 0.49256 0.04982 0.8272 0.0
H3433 H 0.53509 0.0965 0.78822 0.0
H3434 H 0.52417 0.07561 0.77314 0.0
H3435 H 0.53691 0.06191 0.78987 0.0
C3436 C 0.49038 0.02568 0.76311 0.0
C3437 C 0.49925 1.00679 0.75571 0.0
C3438 C 0.49376 0.04312 0.78001 0.0
C3439 C 0.50615 0.04234 0.78992 0.0
C3440 C 0.51505 0.02355 0.78235 0.0
H3441 H 0.52504 0.10634 0.91993 0.0
H3442 H 0.51839 0.07929 0.88889 0.0
C3443 C 0.5117 1.00623 0.76535 0.0
C3444 C 0.50954 0.06047 0.80858 0.0
H3445 H 0.5324 0.10409 0.82667 0.0
C3446 C 0.50125 0.06176 0.82696 0.0
C3447 C 0.52075 0.07657 0.8084 0.0
C3448 C 0.52966 0.07783 0.78875 0.0
C3449 C 0.50396 0.07804 0.84512 0.0
C3450 C 0.5155 0.09322 0.84539 0.0
C3451 C 0.52363 0.09236 0.8268 0.0
C3452 C 0.51931 0.11007 0.86467 0.0
C3453 C 0.49422 0.07917 0.86362 0.0
C3454 C 0.52244 0.1365 0.86171 0.0
C3455 C 0.52643 0.15207 0.87954 0.0
C3456 C 0.52744 0.14169 0.90093 0.0
C3457 C 0.52424 0.11526 0.90387 0.0
C3458 C 0.52034 0.09969 0.88602 0.0
H3459 H 0.48434 0.07353 0.85793 0.0
H3460 H 0.49716 0.06531 0.87667 0.0
H3461 H 0.4937 0.09894 0.87088 0.0
H3462 H 0.52182 0.14516 0.84551 0.0
H3463 H 0.52886 0.17222 0.87647 0.0
H3464 H 0.79292 0.02819 0.52785 0.0
H3465 H 0.78684 0.05947 0.49915 0.0
H3466 H 0.75059 0.0189 0.48949 0.0
H3467 H 0.75644 0.98834 0.5188 0.0
H3468 H 0.78249 0.05357 0.45642 0.0
H3469 H 0.73725 0.09168 0.49328 0.0
H3470 H 0.74849 0.07168 0.50853 0.0
H3471 H 0.73684 0.05704 0.49019 0.0
C3472 C 0.78356 0.0262 0.51984 0.0
C3473 C 0.77519 1.00567 0.52564 0.0
C3474 C 0.78011 0.04403 0.50327 0.0
C3475 C 0.76814 0.042 0.49211 0.0
C3476 C 0.75975 0.02149 0.498 0.0
H3477 H 0.75046 0.10973 0.3632 0.0
H3478 H 0.75719 0.08227 0.39389 0.0
C3479 C 0.76317 1.00376 0.51464 0.0
C3480 C 0.76466 0.0607 0.4739 0.0
H3481 H 0.74083 0.10199 0.4555 0.0
C3482 C 0.7734 0.06423 0.45635 0.0
C3483 C 0.7529 0.07515 0.4737 0.0
C3484 C 0.7434 0.07394 0.49254 0.0
C3485 C 0.77062 0.08108 0.4386 0.0
C3486 C 0.75859 0.09459 0.43789 0.0
C3487 C 0.74999 0.09155 0.4557 0.0
C3488 C 0.75471 0.1118 0.41888 0.0
C3489 C 0.78079 0.08458 0.42099 0.0
C3490 C 0.7507 0.13766 0.42238 0.0
C3491 C 0.74669 0.1535 0.40472 0.0
C3492 C 0.74651 0.14393 0.38299 0.0
C3493 C 0.75057 0.11806 0.37955 0.0
C3494 C 0.75452 0.10225 0.3972 0.0
H3495 H 0.79068 0.07997 0.42726 0.0
H3496 H 0.77869 0.07112 0.40718 0.0
H3497 H 0.78082 0.10477 0.41454 0.0
H3498 H 0.75066 0.14566 0.43885 0.0
H3499 H 0.74358 0.17318 0.40818 0.0
H3500 H 0.48221 0.25398 0.52743 0.0
H3501 H 0.48852 0.22301 0.49866 0.0
H3502 H 0.52275 0.26865 0.48516 0.0
H3503 H 0.51669 0.29906 0.51446 0.0
H3504 H 0.49142 0.22905 0.45514 0.0
H3505 H 0.53872 0.19761 0.48935 0.0
H3506 H 0.52716 0.21617 0.50517 0.0
H3507 H 0.53775 0.23217 0.48588 0.0
C3508 C 0.49119 0.25718 0.51858 0.0
C3509 C 0.49893 0.27907 0.52332 0.0
C3510 C 0.49477 0.23952 0.50196 0.0
C3511 C 0.50624 0.24307 0.4897 0.0
C3512 C 0.514 0.26493 0.49452 0.0
H3513 H 0.52324 0.17392 0.36097 0.0
H3514 H 0.51648 0.20166 0.39148 0.0
C3515 C 0.51045 0.28254 0.51117 0.0
C3516 C 0.50984 0.22445 0.47152 0.0
H3517 H 0.53436 0.18544 0.45224 0.0
C3518 C 0.5008 0.21947 0.45462 0.0
C3519 C 0.522 0.21142 0.47074 0.0
C3520 C 0.53192 0.21437 0.48886 0.0
C3521 C 0.50365 0.20253 0.43696 0.0
C3522 C 0.51601 0.19034 0.43572 0.0
C3523 C 0.52493 0.19485 0.45287 0.0
C3524 C 0.51987 0.17295 0.41684 0.0
C3525 C 0.49322 0.19749 0.42001 0.0
C3526 C 0.52435 0.14746 0.42059 0.0
C3527 C 0.52833 0.13145 0.40304 0.0
C3528 C 0.52804 0.14049 0.38115 0.0
C3529 C 0.52351 0.16601 0.37745 0.0
C3530 C 0.51955 0.18198 0.395 0.0
H3531 H 0.48337 0.20154 0.42665 0.0
H3532 H 0.49479 0.2105 0.40572 0.0
H3533 H 0.49351 0.17706 0.41414 0.0
H3534 H 0.52479 0.13989 0.43719 0.0
H3535 H 0.53181 0.11207 0.4067 0.0
H3536 H 0.23968 0.73241 0.24715 0.0
H3537 H 0.24613 0.76297 0.21834 0.0
H3538 H 0.26453 0.81159 0.26702 0.0
H3539 H 0.25867 0.78027 0.29574 0.0
H3540 H 0.23997 0.81219 0.21096 0.0
H3541 H 0.29329 0.80811 0.22312 0.0
H3542 H 0.28237 0.78544 0.23618 0.0
H3543 H 0.28473 0.81742 0.24755 0.0
C3544 C 0.24533 0.74932 0.25171 0.0
C3545 C 0.24875 0.75364 0.27385 0.0
C3546 C 0.24892 0.76702 0.23517 0.0
C3547 C 0.25606 0.78961 0.2402 0.0
C3548 C 0.25934 0.79412 0.26239 0.0
H3549 H 0.2842 0.9206 0.15967 0.0
H3550 H 0.27739 0.8922 0.18995 0.0
C3551 C 0.25582 0.77631 0.27893 0.0
C3552 C 0.25972 0.80857 0.22232 0.0
H3553 H 0.28545 0.8408 0.19894 0.0
C3554 C 0.24994 0.81831 0.20835 0.0
C3555 C 0.27273 0.81682 0.21867 0.0
C3556 C 0.2839 0.80623 0.23202 0.0
C3557 C 0.25273 0.83602 0.19123 0.0
C3558 C 0.26571 0.84424 0.18762 0.0
C3559 C 0.27548 0.83471 0.20166 0.0
C3560 C 0.26939 0.86215 0.16906 0.0
C3561 C 0.24166 0.84614 0.17737 0.0
C3562 C 0.26723 0.85494 0.14705 0.0
C3563 C 0.27114 0.87115 0.12965 0.0
C3564 C 0.27735 0.89514 0.1337 0.0
C3565 C 0.27937 0.90247 0.15579 0.0
C3566 C 0.27552 0.88613 0.17319 0.0
H3567 H 0.23214 0.84373 0.18574 0.0
H3568 H 0.24305 0.86701 0.17338 0.0
H3569 H 0.24129 0.8351 0.16171 0.0
H3570 H 0.26276 0.83642 0.14325 0.0
H3571 H 0.26947 0.86461 0.11296 0.0
H3572 H 0.5437 1.01387 0.26939 0.0
H3573 H 0.53781 0.98368 0.23975 0.0
H3574 H 0.49824 1.01126 0.24222 0.0
H3575 H 0.50427 0.04193 0.27143 0.0
H3576 H 0.52236 0.9439 0.23634 0.0
H3577 H 0.50404 0.01751 0.1779 0.0
H3578 H 0.51251 0.0263 0.20277 0.0
H3579 H 0.49543 0.01854 0.20348 0.0
C3580 C 0.53375 1.01352 0.26352 0.0
C3581 C 0.52451 0.03061 0.27253 0.0
C3582 C 0.53036 0.99622 0.24653 0.0
C3583 C 0.5176 0.99538 0.23811 0.0
C3584 C 0.50825 1.01194 0.24767 0.0
H3585 H 0.48728 0.86469 0.15939 0.0
H3586 H 0.49395 0.89407 0.1889 0.0
C3587 C 0.51169 0.02944 0.26452 0.0
C3588 C 0.51408 0.97692 0.21971 0.0
H3589 H 0.49941 0.97334 0.16913 0.0
C3590 C 0.51738 0.95045 0.22162 0.0
C3591 C 0.50781 0.98519 0.2001 0.0
C3592 C 0.50487 1.01347 0.19579 0.0
C3593 C 0.51445 0.93221 0.20493 0.0
C3594 C 0.5076 0.94026 0.18581 0.0
C3595 C 0.5045 0.96681 0.18374 0.0
C3596 C 0.50369 0.9217 0.16769 0.0
C3597 C 0.51912 0.90463 0.20781 0.0
C3598 C 0.5065 0.92739 0.14553 0.0
C3599 C 0.50244 0.91074 0.12847 0.0
C3600 C 0.49549 0.88772 0.13298 0.0
C3601 C 0.49278 0.88192 0.15516 0.0
C3602 C 0.49669 0.89876 0.17219 0.0
H3603 H 0.52766 0.90366 0.21898 0.0
H3604 H 0.51124 0.89285 0.21529 0.0
H3605 H 0.52184 0.89575 0.19183 0.0
H3606 H 0.51183 0.94486 0.14136 0.0
H3607 H 0.50469 0.91604 0.11167 0.0
H3608 H 0.27752 0.85956 0.62843 0.0
H3609 H 0.27071 0.88802 0.59831 0.0
H3610 H 0.27001 0.95326 0.64273 0.0
H3611 H 0.27645 0.92479 0.67305 0.0
H3612 H 0.2498 0.95606 0.61584 0.0
H3613 H 0.29334 0.93734 0.56493 0.0
H3614 H 0.28449 0.90821 0.57108 0.0
H3615 H 0.29208 0.92629 0.59297 0.0
C3616 C 0.27585 0.87993 0.63189 0.0
C3617 C 0.27763 0.88973 0.65334 0.0
C3618 C 0.27207 0.89633 0.6145 0.0
C3619 C 0.27013 0.92314 0.6179 0.0
C3620 C 0.27151 0.93279 0.63944 0.0
H3621 H 0.26938 0.0417 0.51396 0.0
H3622 H 0.27488 1.01218 0.54425 0.0
C3623 C 0.2752 0.91638 0.65686 0.0
C3624 C 0.26665 0.94109 0.59918 0.0
H3625 H 0.27629 0.9612 0.54795 0.0
C3626 C 0.25563 0.95715 0.60103 0.0
C3627 C 0.27431 0.94312 0.57983 0.0
C3628 C 0.28678 0.92804 0.57712 0.0
C3629 C 0.25199 0.97468 0.58422 0.0
C3630 C 0.25936 0.97597 0.56452 0.0
C3631 C 0.27048 0.96017 0.56279 0.0
C3632 C 0.25592 0.99396 0.5458 0.0
C3633 C 0.24046 0.99221 0.58812 0.0
C3634 C 0.2435 0.99351 0.53601 0.0
C3635 C 0.24029 1.01075 0.51887 0.0
C3636 C 0.24943 0.02875 0.51086 0.0
C3637 C 0.26198 0.0286 0.5201 0.0
C3638 C 0.26517 1.01149 0.53734 0.0
H3639 H 0.23842 0.99457 0.60594 0.0
H3640 H 0.24205 1.01175 0.58086 0.0
H3641 H 0.23171 0.98349 0.58038 0.0
H3642 H 0.23624 0.97977 0.54156 0.0
H3643 H 0.23056 1.01019 0.51203 0.0
H3644 H 0.50555 0.86571 0.66979 0.0
H3645 H 0.51276 0.83787 0.63951 0.0
H3646 H 0.49538 0.89061 0.59293 0.0
H3647 H 0.48862 0.91897 0.62302 0.0
H3648 H 0.50026 0.81069 0.61062 0.0
H3649 H 0.52934 0.8816 0.5635 0.0
H3650 H 0.52339 0.88854 0.59073 0.0
H3651 H 0.51297 0.89267 0.56713 0.0
C3652 C 0.50343 0.87165 0.65309 0.0
C3653 C 0.49659 0.8949 0.64901 0.0
C3654 C 0.50753 0.85557 0.63569 0.0
C3655 C 0.50488 0.8621 0.61363 0.0
C3656 C 0.49799 0.88527 0.60957 0.0
H3657 H 0.50522 0.74592 0.50679 0.0
H3658 H 0.49923 0.77598 0.53644 0.0
C3659 C 0.49403 0.90152 0.62693 0.0
C3660 C 0.50881 0.84419 0.5951 0.0
H3661 H 0.52387 0.84223 0.54483 0.0
C3662 C 0.50549 0.81767 0.59632 0.0
C3663 C 0.51584 0.85283 0.57639 0.0
C3664 C 0.52071 0.8804 0.57444 0.0
C3665 C 0.50877 0.7999 0.57949 0.0
C3666 C 0.51523 0.8088 0.56028 0.0
C3667 C 0.51875 0.83522 0.55923 0.0
C3668 C 0.5187 0.79101 0.54142 0.0
C3669 C 0.50556 0.77156 0.58288 0.0
C3670 C 0.53151 0.79003 0.53328 0.0
C3671 C 0.53488 0.77313 0.516 0.0
C3672 C 0.52555 0.75662 0.50643 0.0
C3673 C 0.51268 0.75804 0.51409 0.0
C3674 C 0.50927 0.77514 0.53122 0.0
H3675 H 0.50459 0.76679 0.60062 0.0
H3676 H 0.49612 0.76713 0.57485 0.0
H3677 H 0.51313 0.75878 0.57567 0.0
H3678 H 0.53902 0.80206 0.54056 0.0
H3679 H 0.54488 0.77255 0.51043 0.0
H3680 H 0.74515 0.60911 0.37585 0.0
H3681 H 0.75224 0.63709 0.34552 0.0
H3682 H 0.75572 0.7016 0.39036 0.0
H3683 H 0.74905 0.67367 0.42075 0.0
H3684 H 0.74178 0.67878 0.32748 0.0
H3685 H 0.7898 0.70811 0.35988 0.0
H3686 H 0.78039 0.68238 0.37218 0.0
H3687 H 0.77699 0.71585 0.37873 0.0
C3688 C 0.74761 0.62916 0.37936 0.0
C3689 C 0.74661 0.63889 0.40096 0.0
C3690 C 0.75162 0.64525 0.3619 0.0
C3691 C 0.75478 0.67157 0.36547 0.0
C3692 C 0.75375 0.68131 0.38703 0.0
H3693 H 0.75538 0.79219 0.26288 0.0
H3694 H 0.74964 0.76196 0.29245 0.0
C3695 C 0.74983 0.66522 0.40449 0.0
C3696 C 0.75864 0.689 0.34663 0.0
H3697 H 0.7816 0.73304 0.32978 0.0
C3698 C 0.75054 0.6905 0.328 0.0
C3699 C 0.77018 0.70418 0.34684 0.0
C3700 C 0.77991 0.70237 0.36537 0.0
C3701 C 0.75346 0.70692 0.31003 0.0
C3702 C 0.76466 0.72304 0.31073 0.0
C3703 C 0.77291 0.72111 0.32915 0.0
C3704 C 0.76811 0.74176 0.29255 0.0
C3705 C 0.7446 0.70628 0.29025 0.0
C3706 C 0.78056 0.74135 0.28289 0.0
C3707 C 0.78396 0.75916 0.26631 0.0
C3708 C 0.77505 0.77801 0.25894 0.0
C3709 C 0.76257 0.7783 0.26842 0.0
C3710 C 0.7592 0.76063 0.28513 0.0
H3711 H 0.73921 0.6876 0.28919 0.0
H3712 H 0.73732 0.7221 0.29168 0.0
H3713 H 0.75012 0.70905 0.27476 0.0
H3714 H 0.78769 0.72718 0.28818 0.0
H3715 H 0.79366 0.75841 0.25943 0.0
H3716 H 0.48943 0.48377 0.28501 0.0
H3717 H 0.4957 0.51434 0.31409 0.0
H3718 H 0.51741 0.55932 0.26699 0.0
H3719 H 0.51141 0.52835 0.23792 0.0
H3720 H 0.5209 0.529 0.329 0.0
H3721 H 0.49405 0.61444 0.29669 0.0
H3722 H 0.49079 0.58171 0.28746 0.0
H3723 H 0.5048 0.59888 0.27748 0.0
C3724 C 0.4956 0.50009 0.28083 0.0
C3725 C 0.49977 0.50371 0.25899 0.0
C3726 C 0.49914 0.51767 0.29751 0.0
C3727 C 0.50687 0.53955 0.29282 0.0
C3728 C 0.5112 0.54303 0.27106 0.0
H3729 H 0.53626 0.66935 0.37301 0.0
H3730 H 0.52985 0.64 0.34316 0.0
C3731 C 0.50773 0.5253 0.25439 0.0
C3732 C 0.51057 0.55826 0.31079 0.0
H3733 H 0.5075 0.62156 0.32766 0.0
C3734 C 0.51793 0.54922 0.32871 0.0
C3735 C 0.50681 0.58477 0.3105 0.0
C3736 C 0.49859 0.5956 0.29212 0.0
C3737 C 0.52179 0.56586 0.34603 0.0
C3738 C 0.51786 0.59234 0.34597 0.0
C3739 C 0.51054 0.60138 0.32794 0.0
C3740 C 0.52128 0.61087 0.36433 0.0
C3741 C 0.5304 0.55493 0.36387 0.0
C3742 C 0.51832 0.60499 0.38637 0.0
C3743 C 0.52207 0.62171 0.40355 0.0
C3744 C 0.5287 0.64515 0.39924 0.0
C3745 C 0.53117 0.65157 0.3771 0.0
C3746 C 0.52751 0.63469 0.35992 0.0
H3747 H 0.53582 0.53755 0.35808 0.0
H3748 H 0.53753 0.56959 0.36974 0.0
H3749 H 0.52428 0.54883 0.37797 0.0
H3750 H 0.51314 0.5873 0.39038 0.0
H3751 H 0.51986 0.61608 0.42029 0.0
H3752 H 0.73992 0.67004 0.90901 0.0
H3753 H 0.74702 0.64196 0.93928 0.0
H3754 H 0.76048 0.58505 0.89263 0.0
H3755 H 0.75344 0.61296 0.86228 0.0
H3756 H 0.73876 0.5909 0.94925 0.0
H3757 H 0.79187 0.59246 0.93382 0.0
H3758 H 0.7809 0.6158 0.92167 0.0
H3759 H 0.78221 0.58363 0.91036 0.0
C3760 C 0.74454 0.65171 0.9051 0.0
C3761 C 0.74613 0.64401 0.883 0.0
C3762 C 0.74856 0.63555 0.92252 0.0
C3763 C 0.75445 0.61136 0.91843 0.0
C3764 C 0.75619 0.60374 0.8964 0.0
H3765 H 0.78484 0.48343 0.99813 0.0
H3766 H 0.77822 0.51338 0.96897 0.0
C3767 C 0.7521 0.61978 0.87897 0.0
C3768 C 0.75834 0.59374 0.9371 0.0
H3769 H 0.78431 0.56212 0.96021 0.0
C3770 C 0.74874 0.58476 0.95172 0.0
C3771 C 0.77134 0.58545 0.9404 0.0
C3772 C 0.78222 0.59497 0.92588 0.0
C3773 C 0.75169 0.56737 0.96903 0.0
C3774 C 0.76472 0.55911 0.97242 0.0
C3775 C 0.77432 0.56827 0.95783 0.0
C3776 C 0.76858 0.54065 0.99059 0.0
C3777 C 0.74067 0.55731 0.98299 0.0
C3778 C 0.76556 0.54573 1.01279 0.0
C3779 C 0.76918 0.52827 0.02956 0.0
C3780 C 0.77613 0.5054 0.02469 0.0
C3781 C 0.77932 0.50056 1.00255 0.0
C3782 C 0.77562 0.51789 0.98579 0.0
H3783 H 0.73118 0.55897 0.97437 0.0
H3784 H 0.7422 0.53665 0.98758 0.0
H3785 H 0.74007 0.56901 0.99828 0.0
H3786 H 0.76045 0.56334 1.01724 0.0
H3787 H 0.76646 0.53259 0.04636 0.0
H3788 H 0.53032 0.60769 0.90936 0.0
H3789 H 0.52325 0.63524 0.93996 0.0
H3790 H 0.51609 0.69815 0.8948 0.0
H3791 H 0.52286 0.67064 0.86415 0.0
H3792 H 0.53309 0.67963 0.95601 0.0
H3793 H 0.48273 0.69945 0.92886 0.0
H3794 H 0.49267 0.67476 0.9162 0.0
H3795 H 0.4945 0.70835 0.90849 0.0
C3796 C 0.52707 0.62726 0.90583 0.0
C3797 C 0.5271 0.63669 0.88406 0.0
C3798 C 0.52306 0.64312 0.92346 0.0
C3799 C 0.5189 0.66885 0.91989 0.0
C3800 C 0.5189 0.67827 0.89816 0.0
H3801 H 0.51647 0.79363 0.01849 0.0
H3802 H 0.52244 0.76298 0.98931 0.0
C3803 C 0.52286 0.66243 0.88054 0.0
C3804 C 0.51505 0.68608 0.93888 0.0
H3805 H 0.49086 0.72602 0.95795 0.0
C3806 C 0.52382 0.68963 0.95642 0.0
C3807 C 0.50288 0.69904 0.93985 0.0
C3808 C 0.4926 0.69503 0.92246 0.0
C3809 C 0.52092 0.70602 0.97442 0.0
C3810 C 0.50898 0.71984 0.97492 0.0
C3811 C 0.50009 0.71581 0.95764 0.0
C3812 C 0.50549 0.73843 0.99316 0.0
C3813 C 0.53063 0.70795 0.99296 0.0
C3814 C 0.49383 0.73547 1.00504 0.0
C3815 C 0.49033 0.75323 0.02162 0.0
C3816 C 0.49833 0.77464 0.02666 0.0
C3817 C 0.51004 0.77747 1.01496 0.0
C3818 C 0.51353 0.75974 0.99836 0.0
H3819 H 0.53713 0.69072 0.99347 0.0
H3820 H 0.5368 0.72539 0.99046 0.0
H3821 H 0.52568 0.70978 1.0091 0.0
H3822 H 0.48737 0.71937 1.00144 0.0
H3823 H 0.4812 0.75055 0.03016 0.0
H3824 H 0.26821 0.24444 0.77519 0.0
H3825 H 0.27439 0.27512 0.74608 0.0
H3826 H 0.23478 0.30237 0.74274 0.0
H3827 H 0.22876 0.27228 0.77231 0.0
H3828 H 0.26784 0.27928 0.70499 0.0
H3829 H 0.25254 0.37072 0.74492 0.0
H3830 H 0.25315 0.3403 0.75957 0.0
H3831 H 0.23933 0.34817 0.7426 0.0
C3832 C 0.26087 0.25717 0.76833 0.0
C3833 C 0.24801 0.256 0.77611 0.0
C3834 C 0.26439 0.27473 0.75163 0.0
C3835 C 0.25515 0.29164 0.74221 0.0
C3836 C 0.24226 0.2903 0.74997 0.0
H3837 H 0.2678 0.36547 0.61312 0.0
H3838 H 0.26083 0.33757 0.64345 0.0
C3839 C 0.23877 0.27292 0.76684 0.0
C3840 C 0.25894 0.30987 0.72384 0.0
H3841 H 0.25742 0.3733 0.70665 0.0
C3842 C 0.26559 0.29986 0.70548 0.0
C3843 C 0.25626 0.33695 0.72432 0.0
C3844 C 0.25006 0.34973 0.74401 0.0
C3845 C 0.26945 0.31581 0.68774 0.0
C3846 C 0.26625 0.34266 0.68775 0.0
C3847 C 0.25976 0.35276 0.70625 0.0
C3848 C 0.26981 0.36066 0.66909 0.0
C3849 C 0.27729 0.30367 0.66947 0.0
C3850 C 0.2766 0.38398 0.67311 0.0
C3851 C 0.28035 0.4004 0.65571 0.0
C3852 C 0.27747 0.39398 0.6337 0.0
C3853 C 0.27034 0.37104 0.62976 0.0
C3854 C 0.26645 0.35482 0.64718 0.0
H3855 H 0.28239 0.28584 0.67512 0.0
H3856 H 0.27067 0.29797 0.65589 0.0
H3857 H 0.28465 0.31743 0.66292 0.0
H3858 H 0.27928 0.38926 0.68974 0.0
H3859 H 0.28584 0.4178 0.65951 0.0
H3860 H 0.51681 0.49792 0.79606 0.0
H3861 H 0.51117 0.46769 0.76626 0.0
H3862 H 0.52721 0.52114 0.71893 0.0
H3863 H 0.53346 0.55054 0.74864 0.0
H3864 H 0.49534 0.47123 0.73171 0.0
H3865 H 0.54498 0.45645 0.69927 0.0
H3866 H 0.542 0.47268 0.72505 0.0
H3867 H 0.54048 0.4901 0.69949 0.0
C3868 C 0.51932 0.50304 0.77933 0.0
C3869 C 0.52568 0.52672 0.7749 0.0
C3870 C 0.516 0.48578 0.76221 0.0
C3871 C 0.51896 0.49164 0.74014 0.0
C3872 C 0.52508 0.51556 0.7357 0.0
H3873 H 0.5025 0.42133 0.61172 0.0
H3874 H 0.50926 0.44909 0.64244 0.0
C3875 C 0.52848 0.53268 0.75279 0.0
C3876 C 0.51539 0.47318 0.72178 0.0
H3877 H 0.52756 0.44134 0.67666 0.0
C3878 C 0.50244 0.46456 0.71983 0.0
C3879 C 0.52457 0.46425 0.70605 0.0
C3880 C 0.5388 0.47112 0.70766 0.0
C3881 C 0.4984 0.44804 0.70253 0.0
C3882 C 0.50754 0.43942 0.68667 0.0
C3883 C 0.52049 0.44791 0.68865 0.0
C3884 C 0.50382 0.42183 0.66787 0.0
C3885 C 0.48425 0.4405 0.70105 0.0
C3886 C 0.49877 0.3968 0.67165 0.0
C3887 C 0.49495 0.38072 0.65404 0.0
C3888 C 0.49607 0.38917 0.63206 0.0
C3889 C 0.50144 0.41401 0.62832 0.0
C3890 C 0.50533 0.43001 0.64594 0.0
H3891 H 0.47799 0.45358 0.71099 0.0
H3892 H 0.48082 0.4409 0.68374 0.0
H3893 H 0.48302 0.42043 0.70738 0.0
H3894 H 0.49772 0.38966 0.6883 0.0
H3895 H 0.4909 0.3618 0.65774 0.0
H3896 H 0.27892 0.36056 0.12808 0.0
H3897 H 0.27201 0.38938 0.09827 0.0
H3898 H 0.27057 0.45371 0.14358 0.0
H3899 H 0.27712 0.42488 0.17358 0.0
H3900 H 0.25037 0.45619 0.11653 0.0
H3901 H 0.29427 0.44029 0.06579 0.0
H3902 H 0.2857 0.4107 0.07148 0.0
H3903 H 0.29303 0.42867 0.09367 0.0
C3904 C 0.27707 0.38081 0.1318 0.0
C3905 C 0.27867 0.39023 0.15341 0.0
C3906 C 0.27323 0.39743 0.11458 0.0
C3907 C 0.27104 0.42409 0.11833 0.0
C3908 C 0.27226 0.43337 0.14002 0.0
H3909 H 0.26913 0.54483 1.01609 0.0
H3910 H 0.27493 0.51514 0.04612 0.0
C3911 C 0.27602 0.41674 0.15726 0.0
C3912 C 0.26744 0.44228 0.09983 0.0
H3913 H 0.27704 0.46383 0.049 0.0
C3914 C 0.25624 0.45782 0.1018 0.0
C3915 C 0.27514 0.44502 0.0806 0.0
C3916 C 0.28777 0.4305 0.0778 0.0
C3917 C 0.25246 0.47551 0.08518 0.0
C3918 C 0.25989 0.4775 0.06558 0.0
C3919 C 0.27119 0.46224 0.06376 0.0
C3920 C 0.25628 0.49563 0.04706 0.0
C3921 C 0.24072 0.49242 0.08916 0.0
C3922 C 0.24394 0.49454 0.03701 0.0
C3923 C 0.24056 0.51183 0.02001 0.0
C3924 C 0.24944 0.5306 1.01242 0.0
C3925 C 0.26192 0.53114 0.02193 0.0
C3926 C 0.26529 0.51394 0.03901 0.0
H3927 H 0.23855 0.49429 0.10699 0.0
H3928 H 0.24213 0.51219 0.08224 0.0
H3929 H 0.23211 0.4835 0.08114 0.0
H3930 H 0.23688 0.48023 0.04226 0.0
H3931 H 0.2309 0.51071 1.01295 0.0
H3932 H 0.51578 0.27797 0.9892 0.0
H3933 H 0.51024 0.30916 0.01829 0.0
H3934 H 0.52843 0.25938 0.0663 0.0
H3935 H 0.53455 0.22901 0.0372 0.0
H3936 H 0.49537 0.30624 0.05397 0.0
H3937 H 0.5455 0.32637 0.08222 0.0
H3938 H 0.54216 0.30861 0.05728 0.0
H3939 H 0.54162 0.29244 0.08353 0.0
C3940 C 0.51876 0.27386 1.00592 0.0
C3941 C 0.52572 0.25099 1.01072 0.0
C3942 C 0.51551 0.29167 0.02263 0.0
C3943 C 0.51912 0.28714 0.04466 0.0
C3944 C 0.5258 0.26395 0.04951 0.0
H3945 H 0.50455 0.36215 0.17133 0.0
H3946 H 0.51109 0.33373 0.14101 0.0
C3947 C 0.52912 0.24627 0.0328 0.0
C3948 C 0.51568 0.30629 0.06253 0.0
H3949 H 0.5284 0.34151 0.10541 0.0
C3950 C 0.50264 0.31408 0.06505 0.0
C3951 C 0.52509 0.31678 0.07719 0.0
C3952 C 0.53938 0.31085 0.07481 0.0
C3953 C 0.49875 0.33128 0.08194 0.0
C3954 C 0.50813 0.34141 0.09677 0.0
C3955 C 0.52116 0.33378 0.09419 0.0
C3956 C 0.50456 0.35955 0.11523 0.0
C3957 C 0.48452 0.33788 0.08415 0.0
C3958 C 0.49897 0.38404 0.11108 0.0
C3959 C 0.49528 0.40053 0.12848 0.0
C3960 C 0.49706 0.39301 0.15057 0.0
C3961 C 0.50297 0.36874 0.15464 0.0
C3962 C 0.50673 0.35236 0.13724 0.0
H3963 H 0.47825 0.32398 0.07503 0.0
H3964 H 0.48153 0.33797 0.10169 0.0
H3965 H 0.48279 0.35759 0.07736 0.0
H3966 H 0.49739 0.3904 0.09432 0.0
H3967 H 0.49077 0.41898 0.12456 0.0
loop_
_geom_bond_atom_site_label_1
_geom_bond_atom_site_label_2
_geom_bond_distance
_geom_bond_site_symmetry_2
_ccdc_geom_bond_type
Co0 O3 1.970 . S
Co0 N17 1.989 . S
Co0 O25 1.967 . S
Co0 O32 1.920 . S
Co1 O4 1.966 . S
Co1 N10 2.022 . S
Co1 N18 1.993 . S
Co1 O26 1.941 . S
C2 O3 1.258 . S
C2 O4 1.263 . S
O3 Co0 1.970 . S
O3 C2 1.258 . S
O4 Co1 1.966 . S
O4 C2 1.263 . S
C5 O6 1.235 . S
C5 O32 1.289 . S
O6 C5 1.235 . S
C7 C9 1.400 . S
C7 N10 1.351 . S
C7 C12 1.501 . S
C8 C9 1.387 . S
C8 N11 1.341 . S
C9 C7 1.400 . S
C9 C8 1.387 . S
N10 Co1 2.022 . S
N10 C7 1.351 . S
N10 N11 1.365 . S
N11 C8 1.341 . S
N11 N10 1.365 . S
N11 H31 0.862 . S
C12 C7 1.501 . S
C12 H13 0.961 . S
C12 H14 0.961 . S
C12 H15 0.960 . S
H13 C12 0.961 . S
H14 C12 0.961 . S
H15 C12 0.960 . S
C16 N17 1.342 . S
C16 C20 1.401 . S
C16 C21 1.499 . S
N17 Co0 1.989 . S
N17 C16 1.342 . S
N17 N18 1.388 . S
N18 Co1 1.993 . S
N18 N17 1.388 . S
N18 C19 1.346 . S
C19 N18 1.346 . S
C19 C20 1.396 . S
C19 C29 1.510 . S
C20 C16 1.401 . S
C20 C19 1.396 . S
C21 C16 1.499 . S
C21 H22 0.959 . S
C21 H23 0.960 . S
C21 H24 0.961 . S
H22 C21 0.959 . S
H23 C21 0.960 . S
H24 C21 0.961 . S
O25 Co0 1.967 . S
O25 C33 1.258 . S
O26 Co1 1.941 . S
O26 C33 1.266 . S
H27 C29 0.959 . S
H28 C29 0.961 . S
C29 C19 1.510 . S
C29 H27 0.959 . S
C29 H28 0.961 . S
C29 H30 0.960 . S
H30 C29 0.960 . S
H31 N11 0.862 . S
O32 Co0 1.920 . S
O32 C5 1.289 . S
C33 O25 1.258 . S
C33 O26 1.266 . S
Co34 O37 1.970 . S
Co34 N51 1.990 . S
Co34 O59 1.967 . S
Co34 O66 1.920 1_565 S
Co35 O38 1.966 . S
Co35 N44 2.022 . S
Co35 N52 1.993 . S
Co35 O60 1.941 . S
C36 O37 1.258 . S
C36 O38 1.263 . S
O37 Co34 1.970 . S
O37 C36 1.258 . S
O38 Co35 1.966 . S
O38 C36 1.263 . S
C39 O40 1.235 . S
C39 O66 1.289 . S
O40 C39 1.235 . S
C41 C43 1.400 . S
C41 N44 1.351 . S
C41 C46 1.501 . S
C42 C43 1.387 . S
C42 N45 1.341 . S
C43 C41 1.400 . S
C43 C42 1.387 . S
N44 Co35 2.022 . S
N44 C41 1.351 . S
N44 N45 1.365 . S
N45 C42 1.341 . S
N45 N44 1.365 . S
N45 H65 0.862 . S
C46 C41 1.501 . S
C46 H47 0.961 . S
C46 H48 0.961 . S
C46 H49 0.960 . S
H47 C46 0.961 . S
H48 C46 0.961 . S
H49 C46 0.960 . S
C50 N51 1.339 1_545 S
C50 C54 1.401 . S
C50 C55 1.499 . S
N51 Co34 1.990 . S
N51 C50 1.339 1_565 S
N51 N52 1.390 . S
N52 Co35 1.993 . S
N52 N51 1.390 . S
N52 C53 1.346 . S
C53 N52 1.346 . S
C53 C54 1.396 1_565 S
C53 C63 1.510 . S
C54 C50 1.401 . S
C54 C53 1.396 1_545 S
C55 C50 1.499 . S
C55 H56 0.959 . S
C55 H57 0.960 . S
C55 H58 0.961 . S
H56 C55 0.959 . S
H57 C55 0.960 . S
H58 C55 0.961 . S
O59 Co34 1.967 . S
O59 C67 1.258 . S
O60 Co35 1.941 . S
O60 C67 1.266 . S
H61 C63 0.959 . S
H62 C63 0.961 . S
C63 C53 1.510 . S
C63 H61 0.959 . S
C63 H62 0.961 . S
C63 H64 0.960 . S
H64 C63 0.960 . S
H65 N45 0.862 . S
O66 Co34 1.920 1_545 S
O66 C39 1.289 . S
C67 O59 1.258 . S
C67 O60 1.266 . S
Co68 O71 1.970 . S
Co68 N85 1.990 . S
Co68 O93 1.967 . S
Co68 O100 1.920 1_565 S
Co69 O72 1.966 . S
Co69 N78 2.022 1_554 S
Co69 N86 1.993 . S
Co69 O94 1.941 . S
C70 O71 1.258 . S
C70 O72 1.263 . S
O71 Co68 1.970 . S
O71 C70 1.258 . S
O72 Co69 1.966 . S
O72 C70 1.263 . S
C73 O74 1.235 . S
C73 O100 1.289 . S
O74 C73 1.235 . S
C75 C77 1.400 . S
C75 N78 1.351 . S
C75 C80 1.501 . S
C76 C77 1.387 . S
C76 N79 1.341 . S
C77 C75 1.400 . S
C77 C76 1.387 . S
N78 Co69 2.022 1_556 S
N78 C75 1.351 . S
N78 N79 1.365 . S
N79 C76 1.341 . S
N79 N78 1.365 . S
N79 H99 0.862 . S
C80 C75 1.501 . S
C80 H81 0.961 . S
C80 H82 0.961 . S
C80 H83 0.960 . S
H81 C80 0.961 . S
H82 C80 0.961 . S
H83 C80 0.960 . S
C84 N85 1.339 1_545 S
C84 C88 1.401 1_554 S
C84 C89 1.499 . S
N85 Co68 1.990 . S
N85 C84 1.339 1_565 S
N85 N86 1.390 . S
N86 Co69 1.993 . S
N86 N85 1.390 . S
N86 C87 1.346 1_554 S
C87 N86 1.346 1_556 S
C87 C88 1.396 1_565 S
C87 C97 1.510 . S
C88 C84 1.401 1_556 S
C88 C87 1.396 1_545 S
C89 C84 1.499 . S
C89 H90 0.959 . S
C89 H91 0.960 . S
C89 H92 0.961 . S
H90 C89 0.959 . S
H91 C89 0.960 . S
H92 C89 0.961 . S
O93 Co68 1.967 . S
O93 C101 1.258 . S
O94 Co69 1.941 . S
O94 C101 1.266 . S
H95 C97 0.959 . S
H96 C97 0.961 . S
C97 C87 1.510 . S
C97 H95 0.959 . S
C97 H96 0.961 . S
C97 H98 0.960 . S
H98 C97 0.960 . S
H99 N79 0.862 . S
O100 Co68 1.920 1_545 S
O100 C73 1.289 . S
C101 O93 1.258 . S
C101 O94 1.266 . S
Co102 O105 1.970 . S
Co102 N119 1.989 . S
Co102 O127 1.967 . S
Co102 O134 1.920 . S
Co103 O106 1.966 . S
Co103 N112 2.022 1_554 S
Co103 N120 1.993 . S
Co103 O128 1.941 . S
C104 O105 1.258 . S
C104 O106 1.263 . S
O105 Co102 1.970 . S
O105 C104 1.258 . S
O106 Co103 1.966 . S
O106 C104 1.263 . S
C107 O108 1.235 . S
C107 O134 1.289 . S
O108 C107 1.235 . S
C109 C111 1.400 . S
C109 N112 1.351 . S
C109 C114 1.501 . S
C110 C111 1.387 . S
C110 N113 1.341 . S
C111 C109 1.400 . S
C111 C110 1.387 . S
N112 Co103 2.022 1_556 S
N112 C109 1.351 . S
N112 N113 1.365 . S
N113 C110 1.341 . S
N113 N112 1.365 . S
N113 H133 0.862 . S
C114 C109 1.501 . S
C114 H115 0.961 . S
C114 H116 0.961 . S
C114 H117 0.960 . S
H115 C114 0.961 . S
H116 C114 0.961 . S
H117 C114 0.960 . S
C118 N119 1.342 . S
C118 C122 1.401 1_554 S
C118 C123 1.499 . S
N119 Co102 1.989 . S
N119 C118 1.342 . S
N119 N120 1.388 . S
N120 Co103 1.993 . S
N120 N119 1.388 . S
N120 C121 1.346 1_554 S
C121 N120 1.346 1_556 S
C121 C122 1.396 . S
C121 C131 1.510 . S
C122 C118 1.401 1_556 S
C122 C121 1.396 . S
C123 C118 1.499 . S
C123 H124 0.959 . S
C123 H125 0.960 . S
C123 H126 0.961 . S
H124 C123 0.959 . S
H125 C123 0.960 . S
H126 C123 0.961 . S
O127 Co102 1.967 . S
O127 C135 1.258 . S
O128 Co103 1.941 . S
O128 C135 1.266 . S
H129 C131 0.959 . S
H130 C131 0.961 . S
C131 C121 1.510 . S
C131 H129 0.959 . S
C131 H130 0.961 . S
C131 H132 0.960 . S
H132 C131 0.960 . S
H133 N113 0.862 . S
O134 Co102 1.920 . S
O134 C107 1.289 . S
C135 O127 1.258 . S
C135 O128 1.266 . S
Co136 O139 1.970 . S
Co136 N153 1.989 . S
Co136 O161 1.967 . S
Co136 O168 1.920 . S
Co137 O140 1.966 . S
Co137 N146 2.022 . S
Co137 N154 1.993 . S
Co137 O162 1.941 . S
C138 O139 1.258 . S
C138 O140 1.263 . S
O139 Co136 1.970 . S
O139 C138 1.258 . S
O140 Co137 1.966 . S
O140 C138 1.263 . S
C141 O142 1.235 . S
C141 O168 1.289 . S
O142 C141 1.235 . S
C143 C145 1.400 . S
C143 N146 1.351 . S
C143 C148 1.501 . S
C144 C145 1.387 . S
C144 N147 1.341 . S
C145 C143 1.400 . S
C145 C144 1.387 . S
N146 Co137 2.022 . S
N146 C143 1.351 . S
N146 N147 1.365 . S
N147 C144 1.341 . S
N147 N146 1.365 . S
N147 H167 0.862 . S
C148 C143 1.501 . S
C148 H149 0.961 . S
C148 H150 0.961 . S
C148 H151 0.960 . S
H149 C148 0.961 . S
H150 C148 0.961 . S
H151 C148 0.960 . S
C152 N153 1.342 . S
C152 C156 1.401 . S
C152 C157 1.499 . S
N153 Co136 1.989 . S
N153 C152 1.342 . S
N153 N154 1.388 . S
N154 Co137 1.993 . S
N154 N153 1.388 . S
N154 C155 1.346 . S
C155 N154 1.346 . S
C155 C156 1.396 . S
C155 C165 1.510 . S
C156 C152 1.401 . S
C156 C155 1.396 . S
C157 C152 1.499 . S
C157 H158 0.959 . S
C157 H159 0.960 . S
C157 H160 0.961 . S
H158 C157 0.959 . S
H159 C157 0.960 . S
H160 C157 0.961 . S
O161 Co136 1.967 . S
O161 C169 1.258 . S
O162 Co137 1.941 . S
O162 C169 1.266 . S
H163 C165 0.959 . S
H164 C165 0.961 . S
C165 C155 1.510 . S
C165 H163 0.959 . S
C165 H164 0.961 . S
C165 H166 0.960 . S
H166 C165 0.960 . S
H167 N147 0.862 . S
O168 Co136 1.920 . S
O168 C141 1.289 . S
C169 O161 1.258 . S
C169 O162 1.266 . S
Co170 O173 1.970 . S
Co170 N187 1.990 . S
Co170 O195 1.967 . S
Co170 O202 1.920 1_545 S
Co171 O174 1.966 . S
Co171 N180 2.022 . S
Co171 N188 1.993 . S
Co171 O196 1.941 . S
C172 O173 1.258 . S
C172 O174 1.263 . S
O173 Co170 1.970 . S
O173 C172 1.258 . S
O174 Co171 1.966 . S
O174 C172 1.263 . S
C175 O176 1.235 . S
C175 O202 1.289 . S
O176 C175 1.235 . S
C177 C179 1.400 . S
C177 N180 1.351 . S
C177 C182 1.501 . S
C178 C179 1.387 . S
C178 N181 1.341 . S
C179 C177 1.400 . S
C179 C178 1.387 . S
N180 Co171 2.022 . S
N180 C177 1.351 . S
N180 N181 1.365 . S
N181 C178 1.341 . S
N181 N180 1.365 . S
N181 H201 0.862 . S
C182 C177 1.501 . S
C182 H183 0.961 . S
C182 H184 0.961 . S
C182 H185 0.960 . S
H183 C182 0.961 . S
H184 C182 0.961 . S
H185 C182 0.960 . S
C186 N187 1.339 1_565 S
C186 C190 1.401 . S
C186 C191 1.499 . S
N187 Co170 1.990 . S
N187 C186 1.339 1_545 S
N187 N188 1.390 . S
N188 Co171 1.993 . S
N188 N187 1.390 . S
N188 C189 1.346 . S
C189 N188 1.346 . S
C189 C190 1.396 1_545 S
C189 C199 1.510 . S
C190 C186 1.401 . S
C190 C189 1.396 1_565 S
C191 C186 1.499 . S
C191 H192 0.959 . S
C191 H193 0.960 . S
C191 H194 0.961 . S
H192 C191 0.959 . S
H193 C191 0.960 . S
H194 C191 0.961 . S
O195 Co170 1.967 . S
O195 C203 1.258 . S
O196 Co171 1.941 . S
O196 C203 1.266 . S
H197 C199 0.959 . S
H198 C199 0.961 . S
C199 C189 1.510 . S
C199 H197 0.959 . S
C199 H198 0.961 . S
C199 H200 0.960 . S
H200 C199 0.960 . S
H201 N181 0.862 . S
O202 Co170 1.920 1_565 S
O202 C175 1.289 . S
C203 O195 1.258 . S
C203 O196 1.266 . S
Co204 O207 1.970 . S
Co204 N221 1.990 . S
Co204 O229 1.967 . S
Co204 O236 1.920 1_545 S
Co205 O208 1.966 . S
Co205 N214 2.022 1_556 S
Co205 N222 1.993 . S
Co205 O230 1.941 . S
C206 O207 1.258 . S
C206 O208 1.263 . S
O207 Co204 1.970 . S
O207 C206 1.258 . S
O208 Co205 1.966 . S
O208 C206 1.263 . S
C209 O210 1.235 . S
C209 O236 1.289 . S
O210 C209 1.235 . S
C211 C213 1.400 . S
C211 N214 1.351 . S
C211 C216 1.501 . S
C212 C213 1.387 . S
C212 N215 1.341 . S
C213 C211 1.400 . S
C213 C212 1.387 . S
N214 Co205 2.022 1_554 S
N214 C211 1.351 . S
N214 N215 1.365 . S
N215 C212 1.341 . S
N215 N214 1.365 . S
N215 H235 0.862 . S
C216 C211 1.501 . S
C216 H217 0.961 . S
C216 H218 0.961 . S
C216 H219 0.960 . S
H217 C216 0.961 . S
H218 C216 0.961 . S
H219 C216 0.960 . S
C220 N221 1.339 1_565 S
C220 C224 1.401 1_556 S
C220 C225 1.499 . S
N221 Co204 1.990 . S
N221 C220 1.339 1_545 S
N221 N222 1.390 . S
N222 Co205 1.993 . S
N222 N221 1.390 . S
N222 C223 1.346 1_556 S
C223 N222 1.346 1_554 S
C223 C224 1.396 1_545 S
C223 C233 1.510 . S
C224 C220 1.401 1_554 S
C224 C223 1.396 1_565 S
C225 C220 1.499 . S
C225 H226 0.959 . S
C225 H227 0.960 . S
C225 H228 0.961 . S
H226 C225 0.959 . S
H227 C225 0.960 . S
H228 C225 0.961 . S
O229 Co204 1.967 . S
O229 C237 1.258 . S
O230 Co205 1.941 . S
O230 C237 1.266 . S
H231 C233 0.959 . S
H232 C233 0.961 . S
C233 C223 1.510 . S
C233 H231 0.959 . S
C233 H232 0.961 . S
C233 H234 0.960 . S
H234 C233 0.960 . S
H235 N215 0.862 . S
O236 Co204 1.920 1_565 S
O236 C209 1.289 . S
C237 O229 1.258 . S
C237 O230 1.266 . S
Co238 O241 1.970 . S
Co238 N255 1.989 . S
Co238 O263 1.967 . S
Co238 O270 1.920 . S
Co239 O242 1.966 . S
Co239 N248 2.022 1_556 S
Co239 N256 1.993 . S
Co239 O264 1.941 . S
C240 O241 1.258 . S
C240 O242 1.263 . S
O241 Co238 1.970 . S
O241 C240 1.258 . S
O242 Co239 1.966 . S
O242 C240 1.263 . S
C243 O244 1.235 . S
C243 O270 1.289 . S
O244 C243 1.235 . S
C245 C247 1.400 . S
C245 N248 1.351 . S
C245 C250 1.501 . S
C246 C247 1.387 . S
C246 N249 1.341 . S
C247 C245 1.400 . S
C247 C246 1.387 . S
N248 Co239 2.022 1_554 S
N248 C245 1.351 . S
N248 N249 1.365 . S
N249 C246 1.341 . S
N249 N248 1.365 . S
N249 H269 0.862 . S
C250 C245 1.501 . S
C250 H251 0.961 . S
C250 H252 0.961 . S
C250 H253 0.960 . S
H251 C250 0.961 . S
H252 C250 0.961 . S
H253 C250 0.960 . S
C254 N255 1.342 . S
C254 C258 1.401 1_556 S
C254 C259 1.499 . S
N255 Co238 1.989 . S
N255 C254 1.342 . S
N255 N256 1.388 . S
N256 Co239 1.993 . S
N256 N255 1.388 . S
N256 C257 1.346 1_556 S
C257 N256 1.346 1_554 S
C257 C258 1.396 . S
C257 C267 1.510 . S
C258 C254 1.401 1_554 S
C258 C257 1.396 . S
C259 C254 1.499 . S
C259 H260 0.959 . S
C259 H261 0.960 . S
C259 H262 0.961 . S
H260 C259 0.959 . S
H261 C259 0.960 . S
H262 C259 0.961 . S
O263 Co238 1.967 . S
O263 C271 1.258 . S
O264 Co239 1.941 . S
O264 C271 1.266 . S
H265 C267 0.959 . S
H266 C267 0.961 . S
C267 C257 1.510 . S
C267 H265 0.959 . S
C267 H266 0.961 . S
C267 H268 0.960 . S
H268 C267 0.960 . S
H269 N249 0.862 . S
O270 Co238 1.920 . S
O270 C243 1.289 . S
C271 O263 1.258 . S
C271 O264 1.266 . S
Co272 O275 1.970 . S
Co272 N289 1.989 . S
Co272 O297 1.967 . S
Co272 O304 1.920 . S
Co273 O276 1.966 . S
Co273 N282 2.022 . S
Co273 N290 1.993 . S
Co273 O298 1.941 . S
C274 O275 1.258 . S
C274 O276 1.263 . S
O275 Co272 1.970 . S
O275 C274 1.258 . S
O276 Co273 1.966 . S
O276 C274 1.263 . S
C277 O278 1.235 . S
C277 O304 1.289 . S
O278 C277 1.235 . S
C279 C281 1.400 . S
C279 N282 1.351 . S
C279 C284 1.501 . S
C280 C281 1.387 . S
C280 N283 1.341 . S
C281 C279 1.400 . S
C281 C280 1.387 . S
N282 Co273 2.022 . S
N282 C279 1.351 . S
N282 N283 1.365 . S
N283 C280 1.341 . S
N283 N282 1.365 . S
N283 H303 0.862 . S
C284 C279 1.501 . S
C284 H285 0.961 . S
C284 H286 0.961 . S
C284 H287 0.960 . S
H285 C284 0.961 . S
H286 C284 0.961 . S
H287 C284 0.960 . S
C288 N289 1.342 . S
C288 C292 1.401 . S
C288 C293 1.499 . S
N289 Co272 1.989 . S
N289 C288 1.342 . S
N289 N290 1.388 . S
N290 Co273 1.993 . S
N290 N289 1.388 . S
N290 C291 1.346 . S
C291 N290 1.346 . S
C291 C292 1.396 . S
C291 C301 1.510 . S
C292 C288 1.401 . S
C292 C291 1.396 . S
C293 C288 1.499 . S
C293 H294 0.959 . S
C293 H295 0.960 . S
C293 H296 0.961 . S
H294 C293 0.959 . S
H295 C293 0.960 . S
H296 C293 0.961 . S
O297 Co272 1.967 . S
O297 C305 1.258 . S
O298 Co273 1.941 . S
O298 C305 1.266 . S
H299 C301 0.959 . S
H300 C301 0.961 . S
C301 C291 1.510 . S
C301 H299 0.959 . S
C301 H300 0.961 . S
C301 H302 0.960 . S
H302 C301 0.960 . S
H303 N283 0.862 . S
O304 Co272 1.920 . S
O304 C277 1.289 . S
C305 O297 1.258 . S
C305 O298 1.266 . S
Co306 O309 1.970 . S
Co306 N323 1.989 . S
Co306 O331 1.967 . S
Co306 O338 1.920 . S
Co307 O310 1.966 . S
Co307 N316 2.022 . S
Co307 N324 1.993 . S
Co307 O332 1.941 . S
C308 O309 1.258 . S
C308 O310 1.263 . S
O309 Co306 1.970 . S
O309 C308 1.258 . S
O310 Co307 1.966 . S
O310 C308 1.263 . S
C311 O312 1.235 . S
C311 O338 1.289 . S
O312 C311 1.235 . S
C313 C315 1.400 . S
C313 N316 1.351 . S
C313 C318 1.501 . S
C314 C315 1.387 . S
C314 N317 1.341 . S
C315 C313 1.400 . S
C315 C314 1.387 . S
N316 Co307 2.022 . S
N316 C313 1.351 . S
N316 N317 1.365 . S
N317 C314 1.341 . S
N317 N316 1.365 . S
N317 H337 0.862 . S
C318 C313 1.501 . S
C318 H319 0.961 . S
C318 H320 0.961 . S
C318 H321 0.960 . S
H319 C318 0.961 . S
H320 C318 0.961 . S
H321 C318 0.960 . S
C322 N323 1.342 . S
C322 C326 1.401 . S
C322 C327 1.499 . S
N323 Co306 1.989 . S
N323 C322 1.342 . S
N323 N324 1.388 . S
N324 Co307 1.993 . S
N324 N323 1.388 . S
N324 C325 1.346 . S
C325 N324 1.346 . S
C325 C326 1.396 . S
C325 C335 1.510 . S
C326 C322 1.401 . S
C326 C325 1.396 . S
C327 C322 1.499 . S
C327 H328 0.959 . S
C327 H329 0.960 . S
C327 H330 0.961 . S
H328 C327 0.959 . S
H329 C327 0.960 . S
H330 C327 0.961 . S
O331 Co306 1.967 . S
O331 C339 1.258 . S
O332 Co307 1.941 . S
O332 C339 1.266 . S
H333 C335 0.959 . S
H334 C335 0.961 . S
C335 C325 1.510 . S
C335 H333 0.959 . S
C335 H334 0.961 . S
C335 H336 0.960 . S
H336 C335 0.960 . S
H337 N317 0.862 . S
O338 Co306 1.920 . S
O338 C311 1.289 . S
C339 O331 1.258 . S
C339 O332 1.266 . S
Co340 O343 1.970 . S
Co340 N357 1.989 . S
Co340 O365 1.967 . S
Co340 O372 1.920 . S
Co341 O344 1.966 . S
Co341 N350 2.022 . S
Co341 N358 1.993 . S
Co341 O366 1.941 . S
C342 O343 1.258 . S
C342 O344 1.263 . S
O343 Co340 1.970 . S
O343 C342 1.258 . S
O344 Co341 1.966 . S
O344 C342 1.263 . S
C345 O346 1.235 . S
C345 O372 1.289 . S
O346 C345 1.235 . S
C347 C349 1.400 . S
C347 N350 1.351 . S
C347 C352 1.501 . S
C348 C349 1.387 . S
C348 N351 1.341 . S
C349 C347 1.400 . S
C349 C348 1.387 . S
N350 Co341 2.022 . S
N350 C347 1.351 . S
N350 N351 1.365 . S
N351 C348 1.341 . S
N351 N350 1.365 . S
N351 H371 0.862 . S
C352 C347 1.501 . S
C352 H353 0.961 . S
C352 H354 0.961 . S
C352 H355 0.960 . S
H353 C352 0.961 . S
H354 C352 0.961 . S
H355 C352 0.960 . S
C356 N357 1.342 . S
C356 C360 1.401 . S
C356 C361 1.499 . S
N357 Co340 1.989 . S
N357 C356 1.342 . S
N357 N358 1.388 . S
N358 Co341 1.993 . S
N358 N357 1.388 . S
N358 C359 1.346 . S
C359 N358 1.346 . S
C359 C360 1.396 . S
C359 C369 1.510 . S
C360 C356 1.401 . S
C360 C359 1.396 . S
C361 C356 1.499 . S
C361 H362 0.959 . S
C361 H363 0.960 . S
C361 H364 0.961 . S
H362 C361 0.959 . S
H363 C361 0.960 . S
H364 C361 0.961 . S
O365 Co340 1.967 . S
O365 C373 1.258 . S
O366 Co341 1.941 . S
O366 C373 1.266 . S
H367 C369 0.959 . S
H368 C369 0.961 . S
C369 C359 1.510 . S
C369 H367 0.959 . S
C369 H368 0.961 . S
C369 H370 0.960 . S
H370 C369 0.960 . S
H371 N351 0.862 . S
O372 Co340 1.920 . S
O372 C345 1.289 . S
C373 O365 1.258 . S
C373 O366 1.266 . S
Co374 O377 1.970 . S
Co374 N391 1.989 . S
Co374 O399 1.967 . S
Co374 O406 1.920 . S
Co375 O378 1.966 . S
Co375 N384 2.022 . S
Co375 N392 1.993 . S
Co375 O400 1.941 . S
C376 O377 1.258 . S
C376 O378 1.263 . S
O377 Co374 1.970 . S
O377 C376 1.258 . S
O378 Co375 1.966 . S
O378 C376 1.263 . S
C379 O380 1.235 . S
C379 O406 1.289 . S
O380 C379 1.235 . S
C381 C383 1.400 . S
C381 N384 1.351 . S
C381 C386 1.501 . S
C382 C383 1.387 . S
C382 N385 1.341 . S
C383 C381 1.400 . S
C383 C382 1.387 . S
N384 Co375 2.022 . S
N384 C381 1.351 . S
N384 N385 1.365 . S
N385 C382 1.341 . S
N385 N384 1.365 . S
N385 H405 0.862 . S
C386 C381 1.501 . S
C386 H387 0.961 . S
C386 H388 0.961 . S
C386 H389 0.960 . S
H387 C386 0.961 . S
H388 C386 0.961 . S
H389 C386 0.960 . S
C390 N391 1.342 . S
C390 C394 1.401 . S
C390 C395 1.499 . S
N391 Co374 1.989 . S
N391 C390 1.342 . S
N391 N392 1.388 . S
N392 Co375 1.993 . S
N392 N391 1.388 . S
N392 C393 1.346 . S
C393 N392 1.346 . S
C393 C394 1.396 . S
C393 C403 1.510 . S
C394 C390 1.401 . S
C394 C393 1.396 . S
C395 C390 1.499 . S
C395 H396 0.959 . S
C395 H397 0.960 . S
C395 H398 0.961 . S
H396 C395 0.959 . S
H397 C395 0.960 . S
H398 C395 0.961 . S
O399 Co374 1.967 . S
O399 C407 1.258 . S
O400 Co375 1.941 . S
O400 C407 1.266 . S
H401 C403 0.959 . S
H402 C403 0.961 . S
C403 C393 1.510 . S
C403 H401 0.959 . S
C403 H402 0.961 . S
C403 H404 0.960 . S
H404 C403 0.960 . S
H405 N385 0.862 . S
O406 Co374 1.920 . S
O406 C379 1.289 . S
C407 O399 1.258 . S
C407 O400 1.266 . S
Co408 O411 1.970 . S
Co408 N425 1.989 . S
Co408 O433 1.967 . S
Co408 O440 1.920 . S
Co409 O412 1.966 . S
Co409 N418 2.022 . S
Co409 N426 1.993 . S
Co409 O434 1.941 . S
C410 O411 1.258 . S
C410 O412 1.263 . S
O411 Co408 1.970 . S
O411 C410 1.258 . S
O412 Co409 1.966 . S
O412 C410 1.263 . S
C413 O414 1.235 . S
C413 O440 1.289 . S
O414 C413 1.235 . S
C415 C417 1.400 . S
C415 N418 1.351 . S
C415 C420 1.501 . S
C416 C417 1.387 . S
C416 N419 1.341 . S
C417 C415 1.400 . S
C417 C416 1.387 . S
N418 Co409 2.022 . S
N418 C415 1.351 . S
N418 N419 1.365 . S
N419 C416 1.341 . S
N419 N418 1.365 . S
N419 H439 0.862 . S
C420 C415 1.501 . S
C420 H421 0.961 . S
C420 H422 0.961 . S
C420 H423 0.960 . S
H421 C420 0.961 . S
H422 C420 0.961 . S
H423 C420 0.960 . S
C424 N425 1.342 . S
C424 C428 1.401 . S
C424 C429 1.499 . S
N425 Co408 1.989 . S
N425 C424 1.342 . S
N425 N426 1.388 . S
N426 Co409 1.993 . S
N426 N425 1.388 . S
N426 C427 1.346 . S
C427 N426 1.346 . S
C427 C428 1.396 . S
C427 C437 1.510 . S
C428 C424 1.401 . S
C428 C427 1.396 . S
C429 C424 1.499 . S
C429 H430 0.959 . S
C429 H431 0.960 . S
C429 H432 0.961 . S
H430 C429 0.959 . S
H431 C429 0.960 . S
H432 C429 0.961 . S
O433 Co408 1.967 . S
O433 C441 1.258 . S
O434 Co409 1.941 . S
O434 C441 1.266 . S
H435 C437 0.959 . S
H436 C437 0.961 . S
C437 C427 1.510 . S
C437 H435 0.959 . S
C437 H436 0.961 . S
C437 H438 0.960 . S
H438 C437 0.960 . S
H439 N419 0.862 . S
O440 Co408 1.920 . S
O440 C413 1.289 . S
C441 O433 1.258 . S
C441 O434 1.266 . S
Co442 O445 1.970 . S
Co442 N459 1.989 . S
Co442 O467 1.967 . S
Co442 O474 1.920 . S
Co443 O446 1.966 . S
Co443 N452 2.022 . S
Co443 N460 1.993 . S
Co443 O468 1.941 . S
C444 O445 1.258 . S
C444 O446 1.263 . S
O445 Co442 1.970 . S
O445 C444 1.258 . S
O446 Co443 1.966 . S
O446 C444 1.263 . S
C447 O448 1.235 . S
C447 O474 1.289 . S
O448 C447 1.235 . S
C449 C451 1.400 . S
C449 N452 1.351 . S
C449 C454 1.501 . S
C450 C451 1.387 . S
C450 N453 1.341 . S
C451 C449 1.400 . S
C451 C450 1.387 . S
N452 Co443 2.022 . S
N452 C449 1.351 . S
N452 N453 1.365 . S
N453 C450 1.341 . S
N453 N452 1.365 . S
N453 H473 0.862 . S
C454 C449 1.501 . S
C454 H455 0.961 . S
C454 H456 0.961 . S
C454 H457 0.960 . S
H455 C454 0.961 . S
H456 C454 0.961 . S
H457 C454 0.960 . S
C458 N459 1.342 . S
C458 C462 1.401 . S
C458 C463 1.499 . S
N459 Co442 1.989 . S
N459 C458 1.342 . S
N459 N460 1.388 . S
N460 Co443 1.993 . S
N460 N459 1.388 . S
N460 C461 1.346 . S
C461 N460 1.346 . S
C461 C462 1.396 . S
C461 C471 1.510 . S
C462 C458 1.401 . S
C462 C461 1.396 . S
C463 C458 1.499 . S
C463 H464 0.959 . S
C463 H465 0.960 . S
C463 H466 0.961 . S
H464 C463 0.959 . S
H465 C463 0.960 . S
H466 C463 0.961 . S
O467 Co442 1.967 . S
O467 C475 1.258 . S
O468 Co443 1.941 . S
O468 C475 1.266 . S
H469 C471 0.959 . S
H470 C471 0.961 . S
C471 C461 1.510 . S
C471 H469 0.959 . S
C471 H470 0.961 . S
C471 H472 0.960 . S
H472 C471 0.960 . S
H473 N453 0.862 . S
O474 Co442 1.920 . S
O474 C447 1.289 . S
C475 O467 1.258 . S
C475 O468 1.266 . S
Co476 O479 1.970 . S
Co476 N493 1.989 . S
Co476 O501 1.967 . S
Co476 O508 1.920 . S
Co477 O480 1.966 . S
Co477 N486 2.022 . S
Co477 N494 1.993 . S
Co477 O502 1.941 . S
C478 O479 1.258 . S
C478 O480 1.263 . S
O479 Co476 1.970 . S
O479 C478 1.258 . S
O480 Co477 1.966 . S
O480 C478 1.263 . S
C481 O482 1.235 . S
C481 O508 1.289 . S
O482 C481 1.235 . S
C483 C485 1.400 . S
C483 N486 1.351 . S
C483 C488 1.501 . S
C484 C485 1.387 . S
C484 N487 1.341 . S
C485 C483 1.400 . S
C485 C484 1.387 . S
N486 Co477 2.022 . S
N486 C483 1.351 . S
N486 N487 1.365 . S
N487 C484 1.341 . S
N487 N486 1.365 . S
N487 H507 0.862 . S
C488 C483 1.501 . S
C488 H489 0.961 . S
C488 H490 0.961 . S
C488 H491 0.960 . S
H489 C488 0.961 . S
H490 C488 0.961 . S
H491 C488 0.960 . S
C492 N493 1.342 . S
C492 C496 1.401 . S
C492 C497 1.499 . S
N493 Co476 1.989 . S
N493 C492 1.342 . S
N493 N494 1.388 . S
N494 Co477 1.993 . S
N494 N493 1.388 . S
N494 C495 1.346 . S
C495 N494 1.346 . S
C495 C496 1.396 . S
C495 C505 1.510 . S
C496 C492 1.401 . S
C496 C495 1.396 . S
C497 C492 1.499 . S
C497 H498 0.959 . S
C497 H499 0.960 . S
C497 H500 0.961 . S
H498 C497 0.959 . S
H499 C497 0.960 . S
H500 C497 0.961 . S
O501 Co476 1.967 . S
O501 C509 1.258 . S
O502 Co477 1.941 . S
O502 C509 1.266 . S
H503 C505 0.959 . S
H504 C505 0.961 . S
C505 C495 1.510 . S
C505 H503 0.959 . S
C505 H504 0.961 . S
C505 H506 0.960 . S
H506 C505 0.960 . S
H507 N487 0.862 . S
O508 Co476 1.920 . S
O508 C481 1.289 . S
C509 O501 1.258 . S
C509 O502 1.266 . S
Co510 O513 1.970 . S
Co510 N527 1.989 . S
Co510 O535 1.967 . S
Co510 O542 1.920 . S
Co511 O514 1.966 . S
Co511 N520 2.022 . S
Co511 N528 1.993 . S
Co511 O536 1.941 . S
C512 O513 1.258 . S
C512 O514 1.263 . S
O513 Co510 1.970 . S
O513 C512 1.258 . S
O514 Co511 1.966 . S
O514 C512 1.263 . S
C515 O516 1.235 . S
C515 O542 1.289 . S
O516 C515 1.235 . S
C517 C519 1.400 . S
C517 N520 1.351 . S
C517 C522 1.501 . S
C518 C519 1.387 . S
C518 N521 1.341 . S
C519 C517 1.400 . S
C519 C518 1.387 . S
N520 Co511 2.022 . S
N520 C517 1.351 . S
N520 N521 1.365 . S
N521 C518 1.341 . S
N521 N520 1.365 . S
N521 H541 0.862 . S
C522 C517 1.501 . S
C522 H523 0.961 . S
C522 H524 0.961 . S
C522 H525 0.960 . S
H523 C522 0.961 . S
H524 C522 0.961 . S
H525 C522 0.960 . S
C526 N527 1.342 . S
C526 C530 1.401 . S
C526 C531 1.499 . S
N527 Co510 1.989 . S
N527 C526 1.342 . S
N527 N528 1.388 . S
N528 Co511 1.993 . S
N528 N527 1.388 . S
N528 C529 1.346 . S
C529 N528 1.346 . S
C529 C530 1.396 . S
C529 C539 1.510 . S
C530 C526 1.401 . S
C530 C529 1.396 . S
C531 C526 1.499 . S
C531 H532 0.959 . S
C531 H533 0.960 . S
C531 H534 0.961 . S
H532 C531 0.959 . S
H533 C531 0.960 . S
H534 C531 0.961 . S
O535 Co510 1.967 . S
O535 C543 1.258 . S
O536 Co511 1.941 . S
O536 C543 1.266 . S
H537 C539 0.959 . S
H538 C539 0.961 . S
C539 C529 1.510 . S
C539 H537 0.959 . S
C539 H538 0.961 . S
C539 H540 0.960 . S
H540 C539 0.960 . S
H541 N521 0.862 . S
O542 Co510 1.920 . S
O542 C515 1.289 . S
C543 O535 1.258 . S
C543 O536 1.266 . S
Co544 O547 1.970 . S
Co544 N561 1.989 . S
Co544 O569 1.967 . S
Co544 O576 1.920 . S
Co545 O548 1.966 . S
Co545 N554 2.022 . S
Co545 N562 1.993 . S
Co545 O570 1.941 . S
C546 O547 1.258 . S
C546 O548 1.263 . S
O547 Co544 1.970 . S
O547 C546 1.258 . S
O548 Co545 1.966 . S
O548 C546 1.263 . S
C549 O550 1.235 . S
C549 O576 1.289 . S
O550 C549 1.235 . S
C551 C553 1.400 . S
C551 N554 1.351 . S
C551 C556 1.501 . S
C552 C553 1.387 . S
C552 N555 1.341 . S
C553 C551 1.400 . S
C553 C552 1.387 . S
N554 Co545 2.022 . S
N554 C551 1.351 . S
N554 N555 1.365 . S
N555 C552 1.341 . S
N555 N554 1.365 . S
N555 H575 0.862 . S
C556 C551 1.501 . S
C556 H557 0.961 . S
C556 H558 0.961 . S
C556 H559 0.960 . S
H557 C556 0.961 . S
H558 C556 0.961 . S
H559 C556 0.960 . S
C560 N561 1.342 . S
C560 C564 1.401 . S
C560 C565 1.499 . S
N561 Co544 1.989 . S
N561 C560 1.342 . S
N561 N562 1.388 . S
N562 Co545 1.993 . S
N562 N561 1.388 . S
N562 C563 1.346 . S
C563 N562 1.346 . S
C563 C564 1.396 . S
C563 C573 1.510 . S
C564 C560 1.401 . S
C564 C563 1.396 . S
C565 C560 1.499 . S
C565 H566 0.959 . S
C565 H567 0.960 . S
C565 H568 0.961 . S
H566 C565 0.959 . S
H567 C565 0.960 . S
H568 C565 0.961 . S
O569 Co544 1.967 . S
O569 C577 1.258 . S
O570 Co545 1.941 . S
O570 C577 1.266 . S
H571 C573 0.959 . S
H572 C573 0.961 . S
C573 C563 1.510 . S
C573 H571 0.959 . S
C573 H572 0.961 . S
C573 H574 0.960 . S
H574 C573 0.960 . S
H575 N555 0.862 . S
O576 Co544 1.920 . S
O576 C549 1.289 . S
C577 O569 1.258 . S
C577 O570 1.266 . S
Co578 O581 1.970 . S
Co578 N595 1.990 . S
Co578 O603 1.967 . S
Co578 O610 1.920 1_565 S
Co579 O582 1.966 . S
Co579 N588 2.022 . S
Co579 N596 1.993 . S
Co579 O604 1.941 . S
C580 O581 1.258 . S
C580 O582 1.263 . S
O581 Co578 1.970 . S
O581 C580 1.258 . S
O582 Co579 1.966 . S
O582 C580 1.263 . S
C583 O584 1.235 . S
C583 O610 1.289 . S
O584 C583 1.235 . S
C585 C587 1.400 . S
C585 N588 1.351 . S
C585 C590 1.501 . S
C586 C587 1.387 . S
C586 N589 1.341 . S
C587 C585 1.400 . S
C587 C586 1.387 . S
N588 Co579 2.022 . S
N588 C585 1.351 . S
N588 N589 1.365 . S
N589 C586 1.341 . S
N589 N588 1.365 . S
N589 H609 0.862 . S
C590 C585 1.501 . S
C590 H591 0.961 . S
C590 H592 0.961 . S
C590 H593 0.960 . S
H591 C590 0.961 . S
H592 C590 0.961 . S
H593 C590 0.960 . S
C594 N595 1.339 1_545 S
C594 C598 1.401 . S
C594 C599 1.499 . S
N595 Co578 1.990 . S
N595 C594 1.339 1_565 S
N595 N596 1.390 . S
N596 Co579 1.993 . S
N596 N595 1.390 . S
N596 C597 1.346 . S
C597 N596 1.346 . S
C597 C598 1.396 1_565 S
C597 C607 1.510 . S
C598 C594 1.401 . S
C598 C597 1.396 1_545 S
C599 C594 1.499 . S
C599 H600 0.959 . S
C599 H601 0.960 . S
C599 H602 0.961 . S
H600 C599 0.959 . S
H601 C599 0.960 . S
H602 C599 0.961 . S
O603 Co578 1.967 . S
O603 C611 1.258 . S
O604 Co579 1.941 . S
O604 C611 1.266 . S
H605 C607 0.959 . S
H606 C607 0.961 . S
C607 C597 1.510 . S
C607 H605 0.959 . S
C607 H606 0.961 . S
C607 H608 0.960 . S
H608 C607 0.960 . S
H609 N589 0.862 . S
O610 Co578 1.920 1_545 S
O610 C583 1.289 . S
C611 O603 1.258 . S
C611 O604 1.266 . S
Co612 O615 1.970 . S
Co612 N629 1.990 . S
Co612 O637 1.967 . S
Co612 O644 1.920 1_565 S
Co613 O616 1.966 . S
Co613 N622 2.022 . S
Co613 N630 1.993 . S
Co613 O638 1.941 . S
C614 O615 1.258 . S
C614 O616 1.263 . S
O615 Co612 1.970 . S
O615 C614 1.258 . S
O616 Co613 1.966 . S
O616 C614 1.263 . S
C617 O618 1.235 . S
C617 O644 1.289 . S
O618 C617 1.235 . S
C619 C621 1.400 . S
C619 N622 1.351 . S
C619 C624 1.501 . S
C620 C621 1.387 . S
C620 N623 1.341 . S
C621 C619 1.400 . S
C621 C620 1.387 . S
N622 Co613 2.022 . S
N622 C619 1.351 . S
N622 N623 1.365 . S
N623 C620 1.341 . S
N623 N622 1.365 . S
N623 H643 0.862 . S
C624 C619 1.501 . S
C624 H625 0.961 . S
C624 H626 0.961 . S
C624 H627 0.960 . S
H625 C624 0.961 . S
H626 C624 0.961 . S
H627 C624 0.960 . S
C628 N629 1.339 1_545 S
C628 C632 1.401 . S
C628 C633 1.499 . S
N629 Co612 1.990 . S
N629 C628 1.339 1_565 S
N629 N630 1.390 . S
N630 Co613 1.993 . S
N630 N629 1.390 . S
N630 C631 1.346 . S
C631 N630 1.346 . S
C631 C632 1.396 1_565 S
C631 C641 1.510 . S
C632 C628 1.401 . S
C632 C631 1.396 1_545 S
C633 C628 1.499 . S
C633 H634 0.959 . S
C633 H635 0.960 . S
C633 H636 0.961 . S
H634 C633 0.959 . S
H635 C633 0.960 . S
H636 C633 0.961 . S
O637 Co612 1.967 . S
O637 C645 1.258 . S
O638 Co613 1.941 . S
O638 C645 1.266 . S
H639 C641 0.959 . S
H640 C641 0.961 . S
C641 C631 1.510 . S
C641 H639 0.959 . S
C641 H640 0.961 . S
C641 H642 0.960 . S
H642 C641 0.960 . S
H643 N623 0.862 . S
O644 Co612 1.920 1_545 S
O644 C617 1.289 . S
C645 O637 1.258 . S
C645 O638 1.266 . S
Co646 O649 1.970 . S
Co646 N663 1.989 . S
Co646 O671 1.967 . S
Co646 O678 1.920 . S
Co647 O650 1.966 . S
Co647 N656 2.022 . S
Co647 N664 1.993 . S
Co647 O672 1.941 . S
C648 O649 1.258 . S
C648 O650 1.263 . S
O649 Co646 1.970 . S
O649 C648 1.258 . S
O650 Co647 1.966 . S
O650 C648 1.263 . S
C651 O652 1.235 . S
C651 O678 1.289 . S
O652 C651 1.235 . S
C653 C655 1.400 . S
C653 N656 1.351 . S
C653 C658 1.501 . S
C654 C655 1.387 . S
C654 N657 1.341 . S
C655 C653 1.400 . S
C655 C654 1.387 . S
N656 Co647 2.022 . S
N656 C653 1.351 . S
N656 N657 1.365 . S
N657 C654 1.341 . S
N657 N656 1.365 . S
N657 H677 0.862 . S
C658 C653 1.501 . S
C658 H659 0.961 . S
C658 H660 0.961 . S
C658 H661 0.960 . S
H659 C658 0.961 . S
H660 C658 0.961 . S
H661 C658 0.960 . S
C662 N663 1.342 . S
C662 C666 1.401 . S
C662 C667 1.499 . S
N663 Co646 1.989 . S
N663 C662 1.342 . S
N663 N664 1.388 . S
N664 Co647 1.993 . S
N664 N663 1.388 . S
N664 C665 1.346 . S
C665 N664 1.346 . S
C665 C666 1.396 . S
C665 C675 1.510 . S
C666 C662 1.401 . S
C666 C665 1.396 . S
C667 C662 1.499 . S
C667 H668 0.959 . S
C667 H669 0.960 . S
C667 H670 0.961 . S
H668 C667 0.959 . S
H669 C667 0.960 . S
H670 C667 0.961 . S
O671 Co646 1.967 . S
O671 C679 1.258 . S
O672 Co647 1.941 . S
O672 C679 1.266 . S
H673 C675 0.959 . S
H674 C675 0.961 . S
C675 C665 1.510 . S
C675 H673 0.959 . S
C675 H674 0.961 . S
C675 H676 0.960 . S
H676 C675 0.960 . S
H677 N657 0.862 . S
O678 Co646 1.920 . S
O678 C651 1.289 . S
C679 O671 1.258 . S
C679 O672 1.266 . S
Co680 O683 1.970 . S
Co680 N697 1.989 . S
Co680 O705 1.967 . S
Co680 O712 1.920 . S
Co681 O684 1.966 . S
Co681 N690 2.022 . S
Co681 N698 1.993 . S
Co681 O706 1.941 . S
C682 O683 1.258 . S
C682 O684 1.263 . S
O683 Co680 1.970 . S
O683 C682 1.258 . S
O684 Co681 1.966 . S
O684 C682 1.263 . S
C685 O686 1.235 . S
C685 O712 1.289 . S
O686 C685 1.235 . S
C687 C689 1.400 . S
C687 N690 1.351 . S
C687 C692 1.501 . S
C688 C689 1.387 . S
C688 N691 1.341 . S
C689 C687 1.400 . S
C689 C688 1.387 . S
N690 Co681 2.022 . S
N690 C687 1.351 . S
N690 N691 1.365 . S
N691 C688 1.341 . S
N691 N690 1.365 . S
N691 H711 0.862 . S
C692 C687 1.501 . S
C692 H693 0.961 . S
C692 H694 0.961 . S
C692 H695 0.960 . S
H693 C692 0.961 . S
H694 C692 0.961 . S
H695 C692 0.960 . S
C696 N697 1.342 . S
C696 C700 1.401 . S
C696 C701 1.499 . S
N697 Co680 1.989 . S
N697 C696 1.342 . S
N697 N698 1.388 . S
N698 Co681 1.993 . S
N698 N697 1.388 . S
N698 C699 1.346 . S
C699 N698 1.346 . S
C699 C700 1.396 . S
C699 C709 1.510 . S
C700 C696 1.401 . S
C700 C699 1.396 . S
C701 C696 1.499 . S
C701 H702 0.959 . S
C701 H703 0.960 . S
C701 H704 0.961 . S
H702 C701 0.959 . S
H703 C701 0.960 . S
H704 C701 0.961 . S
O705 Co680 1.967 . S
O705 C713 1.258 . S
O706 Co681 1.941 . S
O706 C713 1.266 . S
H707 C709 0.959 . S
H708 C709 0.961 . S
C709 C699 1.510 . S
C709 H707 0.959 . S
C709 H708 0.961 . S
C709 H710 0.960 . S
H710 C709 0.960 . S
H711 N691 0.862 . S
O712 Co680 1.920 . S
O712 C685 1.289 . S
C713 O705 1.258 . S
C713 O706 1.266 . S
Co714 O717 1.970 . S
Co714 N731 1.990 . S
Co714 O739 1.967 . S
Co714 O746 1.920 1_545 S
Co715 O718 1.966 . S
Co715 N724 2.022 . S
Co715 N732 1.993 . S
Co715 O740 1.941 . S
C716 O717 1.258 . S
C716 O718 1.263 . S
O717 Co714 1.970 . S
O717 C716 1.258 . S
O718 Co715 1.966 . S
O718 C716 1.263 . S
C719 O720 1.235 . S
C719 O746 1.289 . S
O720 C719 1.235 . S
C721 C723 1.400 . S
C721 N724 1.351 . S
C721 C726 1.501 . S
C722 C723 1.387 . S
C722 N725 1.341 . S
C723 C721 1.400 . S
C723 C722 1.387 . S
N724 Co715 2.022 . S
N724 C721 1.351 . S
N724 N725 1.365 . S
N725 C722 1.341 . S
N725 N724 1.365 . S
N725 H745 0.862 . S
C726 C721 1.501 . S
C726 H727 0.961 . S
C726 H728 0.961 . S
C726 H729 0.960 . S
H727 C726 0.961 . S
H728 C726 0.961 . S
H729 C726 0.960 . S
C730 N731 1.339 1_565 S
C730 C734 1.401 . S
C730 C735 1.499 . S
N731 Co714 1.990 . S
N731 C730 1.339 1_545 S
N731 N732 1.390 . S
N732 Co715 1.993 . S
N732 N731 1.390 . S
N732 C733 1.346 . S
C733 N732 1.346 . S
C733 C734 1.396 1_545 S
C733 C743 1.510 . S
C734 C730 1.401 . S
C734 C733 1.396 1_565 S
C735 C730 1.499 . S
C735 H736 0.959 . S
C735 H737 0.960 . S
C735 H738 0.961 . S
H736 C735 0.959 . S
H737 C735 0.960 . S
H738 C735 0.961 . S
O739 Co714 1.967 . S
O739 C747 1.258 . S
O740 Co715 1.941 . S
O740 C747 1.266 . S
H741 C743 0.959 . S
H742 C743 0.961 . S
C743 C733 1.510 . S
C743 H741 0.959 . S
C743 H742 0.961 . S
C743 H744 0.960 . S
H744 C743 0.960 . S
H745 N725 0.862 . S
O746 Co714 1.920 1_565 S
O746 C719 1.289 . S
C747 O739 1.258 . S
C747 O740 1.266 . S
Co748 O751 1.970 . S
Co748 N765 1.990 . S
Co748 O773 1.967 . S
Co748 O780 1.920 1_545 S
Co749 O752 1.966 . S
Co749 N758 2.022 . S
Co749 N766 1.993 . S
Co749 O774 1.941 . S
C750 O751 1.258 . S
C750 O752 1.263 . S
O751 Co748 1.970 . S
O751 C750 1.258 . S
O752 Co749 1.966 . S
O752 C750 1.263 . S
C753 O754 1.235 . S
C753 O780 1.289 . S
O754 C753 1.235 . S
C755 C757 1.400 . S
C755 N758 1.351 . S
C755 C760 1.501 . S
C756 C757 1.387 . S
C756 N759 1.341 . S
C757 C755 1.400 . S
C757 C756 1.387 . S
N758 Co749 2.022 . S
N758 C755 1.351 . S
N758 N759 1.365 . S
N759 C756 1.341 . S
N759 N758 1.365 . S
N759 H779 0.862 . S
C760 C755 1.501 . S
C760 H761 0.961 . S
C760 H762 0.961 . S
C760 H763 0.960 . S
H761 C760 0.961 . S
H762 C760 0.961 . S
H763 C760 0.960 . S
C764 N765 1.339 1_565 S
C764 C768 1.401 . S
C764 C769 1.499 . S
N765 Co748 1.990 . S
N765 C764 1.339 1_545 S
N765 N766 1.390 . S
N766 Co749 1.993 . S
N766 N765 1.390 . S
N766 C767 1.346 . S
C767 N766 1.346 . S
C767 C768 1.396 1_545 S
C767 C777 1.510 . S
C768 C764 1.401 . S
C768 C767 1.396 1_565 S
C769 C764 1.499 . S
C769 H770 0.959 . S
C769 H771 0.960 . S
C769 H772 0.961 . S
H770 C769 0.959 . S
H771 C769 0.960 . S
H772 C769 0.961 . S
O773 Co748 1.967 . S
O773 C781 1.258 . S
O774 Co749 1.941 . S
O774 C781 1.266 . S
H775 C777 0.959 . S
H776 C777 0.961 . S
C777 C767 1.510 . S
C777 H775 0.959 . S
C777 H776 0.961 . S
C777 H778 0.960 . S
H778 C777 0.960 . S
H779 N759 0.862 . S
O780 Co748 1.920 1_565 S
O780 C753 1.289 . S
C781 O773 1.258 . S
C781 O774 1.266 . S
Co782 O785 1.970 . S
Co782 N799 1.989 . S
Co782 O807 1.967 . S
Co782 O814 1.920 . S
Co783 O786 1.966 . S
Co783 N792 2.022 . S
Co783 N800 1.993 . S
Co783 O808 1.941 . S
C784 O785 1.258 . S
C784 O786 1.263 . S
O785 Co782 1.970 . S
O785 C784 1.258 . S
O786 Co783 1.966 . S
O786 C784 1.263 . S
C787 O788 1.235 . S
C787 O814 1.289 . S
O788 C787 1.235 . S
C789 C791 1.400 . S
C789 N792 1.351 . S
C789 C794 1.501 . S
C790 C791 1.387 . S
C790 N793 1.341 . S
C791 C789 1.400 . S
C791 C790 1.387 . S
N792 Co783 2.022 . S
N792 C789 1.351 . S
N792 N793 1.365 . S
N793 C790 1.341 . S
N793 N792 1.365 . S
N793 H813 0.862 . S
C794 C789 1.501 . S
C794 H795 0.961 . S
C794 H796 0.961 . S
C794 H797 0.960 . S
H795 C794 0.961 . S
H796 C794 0.961 . S
H797 C794 0.960 . S
C798 N799 1.342 . S
C798 C802 1.401 . S
C798 C803 1.499 . S
N799 Co782 1.989 . S
N799 C798 1.342 . S
N799 N800 1.388 . S
N800 Co783 1.993 . S
N800 N799 1.388 . S
N800 C801 1.346 . S
C801 N800 1.346 . S
C801 C802 1.396 . S
C801 C811 1.510 . S
C802 C798 1.401 . S
C802 C801 1.396 . S
C803 C798 1.499 . S
C803 H804 0.959 . S
C803 H805 0.960 . S
C803 H806 0.961 . S
H804 C803 0.959 . S
H805 C803 0.960 . S
H806 C803 0.961 . S
O807 Co782 1.967 . S
O807 C815 1.258 . S
O808 Co783 1.941 . S
O808 C815 1.266 . S
H809 C811 0.959 . S
H810 C811 0.961 . S
C811 C801 1.510 . S
C811 H809 0.959 . S
C811 H810 0.961 . S
C811 H812 0.960 . S
H812 C811 0.960 . S
H813 N793 0.862 . S
O814 Co782 1.920 . S
O814 C787 1.289 . S
C815 O807 1.258 . S
C815 O808 1.266 . S
Co816 O819 1.970 . S
Co816 N833 1.989 . S
Co816 O841 1.967 . S
Co816 O848 1.920 . S
Co817 O820 1.966 . S
Co817 N826 2.022 . S
Co817 N834 1.993 . S
Co817 O842 1.941 . S
C818 O819 1.258 . S
C818 O820 1.263 . S
O819 Co816 1.970 . S
O819 C818 1.258 . S
O820 Co817 1.966 . S
O820 C818 1.263 . S
C821 O822 1.235 . S
C821 O848 1.289 . S
O822 C821 1.235 . S
C823 C825 1.400 . S
C823 N826 1.351 . S
C823 C828 1.501 . S
C824 C825 1.387 . S
C824 N827 1.341 . S
C825 C823 1.400 . S
C825 C824 1.387 . S
N826 Co817 2.022 . S
N826 C823 1.351 . S
N826 N827 1.365 . S
N827 C824 1.341 . S
N827 N826 1.365 . S
N827 H847 0.862 . S
C828 C823 1.501 . S
C828 H829 0.961 . S
C828 H830 0.961 . S
C828 H831 0.960 . S
H829 C828 0.961 . S
H830 C828 0.961 . S
H831 C828 0.960 . S
C832 N833 1.342 . S
C832 C836 1.401 . S
C832 C837 1.499 . S
N833 Co816 1.989 . S
N833 C832 1.342 . S
N833 N834 1.388 . S
N834 Co817 1.993 . S
N834 N833 1.388 . S
N834 C835 1.346 . S
C835 N834 1.346 . S
C835 C836 1.396 . S
C835 C845 1.510 . S
C836 C832 1.401 . S
C836 C835 1.396 . S
C837 C832 1.499 . S
C837 H838 0.959 . S
C837 H839 0.960 . S
C837 H840 0.961 . S
H838 C837 0.959 . S
H839 C837 0.960 . S
H840 C837 0.961 . S
O841 Co816 1.967 . S
O841 C849 1.258 . S
O842 Co817 1.941 . S
O842 C849 1.266 . S
H843 C845 0.959 . S
H844 C845 0.961 . S
C845 C835 1.510 . S
C845 H843 0.959 . S
C845 H844 0.961 . S
C845 H846 0.960 . S
H846 C845 0.960 . S
H847 N827 0.862 . S
O848 Co816 1.920 . S
O848 C821 1.289 . S
C849 O841 1.258 . S
C849 O842 1.266 . S
Co850 O853 1.970 . S
Co850 N867 1.989 . S
Co850 O875 1.967 . S
Co850 O882 1.920 . S
Co851 O854 1.966 . S
Co851 N860 2.022 . S
Co851 N868 1.993 . S
Co851 O876 1.941 . S
C852 O853 1.258 . S
C852 O854 1.263 . S
O853 Co850 1.970 . S
O853 C852 1.258 . S
O854 Co851 1.966 . S
O854 C852 1.263 . S
C855 O856 1.235 . S
C855 O882 1.289 . S
O856 C855 1.235 . S
C857 C859 1.400 . S
C857 N860 1.351 . S
C857 C862 1.501 . S
C858 C859 1.387 . S
C858 N861 1.341 . S
C859 C857 1.400 . S
C859 C858 1.387 . S
N860 Co851 2.022 . S
N860 C857 1.351 . S
N860 N861 1.365 . S
N861 C858 1.341 . S
N861 N860 1.365 . S
N861 H881 0.862 . S
C862 C857 1.501 . S
C862 H863 0.961 . S
C862 H864 0.961 . S
C862 H865 0.960 . S
H863 C862 0.961 . S
H864 C862 0.961 . S
H865 C862 0.960 . S
C866 N867 1.342 . S
C866 C870 1.401 . S
C866 C871 1.499 . S
N867 Co850 1.989 . S
N867 C866 1.342 . S
N867 N868 1.388 . S
N868 Co851 1.993 . S
N868 N867 1.388 . S
N868 C869 1.346 . S
C869 N868 1.346 . S
C869 C870 1.396 . S
C869 C879 1.510 . S
C870 C866 1.401 . S
C870 C869 1.396 . S
C871 C866 1.499 . S
C871 H872 0.959 . S
C871 H873 0.960 . S
C871 H874 0.961 . S
H872 C871 0.959 . S
H873 C871 0.960 . S
H874 C871 0.961 . S
O875 Co850 1.967 . S
O875 C883 1.258 . S
O876 Co851 1.941 . S
O876 C883 1.266 . S
H877 C879 0.959 . S
H878 C879 0.961 . S
C879 C869 1.510 . S
C879 H877 0.959 . S
C879 H878 0.961 . S
C879 H880 0.960 . S
H880 C879 0.960 . S
H881 N861 0.862 . S
O882 Co850 1.920 . S
O882 C855 1.289 . S
C883 O875 1.258 . S
C883 O876 1.266 . S
Co884 O887 1.970 . S
Co884 N901 1.989 . S
Co884 O909 1.967 . S
Co884 O916 1.920 . S
Co885 O888 1.966 . S
Co885 N894 2.022 1_554 S
Co885 N902 1.993 . S
Co885 O910 1.941 . S
C886 O887 1.258 . S
C886 O888 1.263 . S
O887 Co884 1.970 . S
O887 C886 1.258 . S
O888 Co885 1.966 . S
O888 C886 1.263 . S
C889 O890 1.235 . S
C889 O916 1.289 . S
O890 C889 1.235 . S
C891 C893 1.400 . S
C891 N894 1.351 . S
C891 C896 1.501 . S
C892 C893 1.387 . S
C892 N895 1.341 . S
C893 C891 1.400 . S
C893 C892 1.387 . S
N894 Co885 2.022 1_556 S
N894 C891 1.351 . S
N894 N895 1.365 . S
N895 C892 1.341 . S
N895 N894 1.365 . S
N895 H915 0.862 . S
C896 C891 1.501 . S
C896 H897 0.961 . S
C896 H898 0.961 . S
C896 H899 0.960 . S
H897 C896 0.961 . S
H898 C896 0.961 . S
H899 C896 0.960 . S
C900 N901 1.342 . S
C900 C904 1.401 1_554 S
C900 C905 1.499 . S
N901 Co884 1.989 . S
N901 C900 1.342 . S
N901 N902 1.388 . S
N902 Co885 1.993 . S
N902 N901 1.388 . S
N902 C903 1.346 1_554 S
C903 N902 1.346 1_556 S
C903 C904 1.396 . S
C903 C913 1.510 . S
C904 C900 1.401 1_556 S
C904 C903 1.396 . S
C905 C900 1.499 . S
C905 H906 0.959 . S
C905 H907 0.960 . S
C905 H908 0.961 . S
H906 C905 0.959 . S
H907 C905 0.960 . S
H908 C905 0.961 . S
O909 Co884 1.967 . S
O909 C917 1.258 . S
O910 Co885 1.941 . S
O910 C917 1.266 . S
H911 C913 0.959 . S
H912 C913 0.961 . S
C913 C903 1.510 . S
C913 H911 0.959 . S
C913 H912 0.961 . S
C913 H914 0.960 . S
H914 C913 0.960 . S
H915 N895 0.862 . S
O916 Co884 1.920 . S
O916 C889 1.289 . S
C917 O909 1.258 . S
C917 O910 1.266 . S
Co918 O921 1.970 . S
Co918 N935 1.989 . S
Co918 O943 1.967 . S
Co918 O950 1.920 . S
Co919 O922 1.966 . S
Co919 N928 2.022 1_554 S
Co919 N936 1.993 . S
Co919 O944 1.941 . S
C920 O921 1.258 . S
C920 O922 1.263 . S
O921 Co918 1.970 . S
O921 C920 1.258 . S
O922 Co919 1.966 . S
O922 C920 1.263 . S
C923 O924 1.235 . S
C923 O950 1.289 . S
O924 C923 1.235 . S
C925 C927 1.400 . S
C925 N928 1.351 . S
C925 C930 1.501 . S
C926 C927 1.387 . S
C926 N929 1.341 . S
C927 C925 1.400 . S
C927 C926 1.387 . S
N928 Co919 2.022 1_556 S
N928 C925 1.351 . S
N928 N929 1.365 . S
N929 C926 1.341 . S
N929 N928 1.365 . S
N929 H949 0.862 . S
C930 C925 1.501 . S
C930 H931 0.961 . S
C930 H932 0.961 . S
C930 H933 0.960 . S
H931 C930 0.961 . S
H932 C930 0.961 . S
H933 C930 0.960 . S
C934 N935 1.342 . S
C934 C938 1.401 1_554 S
C934 C939 1.499 . S
N935 Co918 1.989 . S
N935 C934 1.342 . S
N935 N936 1.388 . S
N936 Co919 1.993 . S
N936 N935 1.388 . S
N936 C937 1.346 1_554 S
C937 N936 1.346 1_556 S
C937 C938 1.396 . S
C937 C947 1.510 . S
C938 C934 1.401 1_556 S
C938 C937 1.396 . S
C939 C934 1.499 . S
C939 H940 0.959 . S
C939 H941 0.960 . S
C939 H942 0.961 . S
H940 C939 0.959 . S
H941 C939 0.960 . S
H942 C939 0.961 . S
O943 Co918 1.967 . S
O943 C951 1.258 . S
O944 Co919 1.941 . S
O944 C951 1.266 . S
H945 C947 0.959 . S
H946 C947 0.961 . S
C947 C937 1.510 . S
C947 H945 0.959 . S
C947 H946 0.961 . S
C947 H948 0.960 . S
H948 C947 0.960 . S
H949 N929 0.862 . S
O950 Co918 1.920 . S
O950 C923 1.289 . S
C951 O943 1.258 . S
C951 O944 1.266 . S
Co952 O955 1.970 . S
Co952 N969 1.989 . S
Co952 O977 1.967 . S
Co952 O984 1.920 . S
Co953 O956 1.966 . S
Co953 N962 2.022 . S
Co953 N970 1.993 . S
Co953 O978 1.941 . S
C954 O955 1.258 . S
C954 O956 1.263 . S
O955 Co952 1.970 . S
O955 C954 1.258 . S
O956 Co953 1.966 . S
O956 C954 1.263 . S
C957 O958 1.235 . S
C957 O984 1.289 . S
O958 C957 1.235 . S
C959 C961 1.400 . S
C959 N962 1.351 . S
C959 C964 1.501 . S
C960 C961 1.387 . S
C960 N963 1.341 . S
C961 C959 1.400 . S
C961 C960 1.387 . S
N962 Co953 2.022 . S
N962 C959 1.351 . S
N962 N963 1.365 . S
N963 C960 1.341 . S
N963 N962 1.365 . S
N963 H983 0.862 . S
C964 C959 1.501 . S
C964 H965 0.961 . S
C964 H966 0.961 . S
C964 H967 0.960 . S
H965 C964 0.961 . S
H966 C964 0.961 . S
H967 C964 0.960 . S
C968 N969 1.342 . S
C968 C972 1.401 . S
C968 C973 1.499 . S
N969 Co952 1.989 . S
N969 C968 1.342 . S
N969 N970 1.388 . S
N970 Co953 1.993 . S
N970 N969 1.388 . S
N970 C971 1.346 . S
C971 N970 1.346 . S
C971 C972 1.396 . S
C971 C981 1.510 . S
C972 C968 1.401 . S
C972 C971 1.396 . S
C973 C968 1.499 . S
C973 H974 0.959 . S
C973 H975 0.960 . S
C973 H976 0.961 . S
H974 C973 0.959 . S
H975 C973 0.960 . S
H976 C973 0.961 . S
O977 Co952 1.967 . S
O977 C985 1.258 . S
O978 Co953 1.941 . S
O978 C985 1.266 . S
H979 C981 0.959 . S
H980 C981 0.961 . S
C981 C971 1.510 . S
C981 H979 0.959 . S
C981 H980 0.961 . S
C981 H982 0.960 . S
H982 C981 0.960 . S
H983 N963 0.862 . S
O984 Co952 1.920 . S
O984 C957 1.289 . S
C985 O977 1.258 . S
C985 O978 1.266 . S
Co986 O989 1.970 . S
Co986 N1003 1.989 . S
Co986 O1011 1.967 . S
Co986 O1018 1.920 . S
Co987 O990 1.966 . S
Co987 N996 2.022 . S
Co987 N1004 1.993 . S
Co987 O1012 1.941 . S
C988 O989 1.258 . S
C988 O990 1.263 . S
O989 Co986 1.970 . S
O989 C988 1.258 . S
O990 Co987 1.966 . S
O990 C988 1.263 . S
C991 O992 1.235 . S
C991 O1018 1.289 . S
O992 C991 1.235 . S
C993 C995 1.400 . S
C993 N996 1.351 . S
C993 C998 1.501 . S
C994 C995 1.387 . S
C994 N997 1.341 . S
C995 C993 1.400 . S
C995 C994 1.387 . S
N996 Co987 2.022 . S
N996 C993 1.351 . S
N996 N997 1.365 . S
N997 C994 1.341 . S
N997 N996 1.365 . S
N997 H1017 0.862 . S
C998 C993 1.501 . S
C998 H999 0.961 . S
C998 H1000 0.961 . S
C998 H1001 0.960 . S
H999 C998 0.961 . S
H1000 C998 0.961 . S
H1001 C998 0.960 . S
C1002 N1003 1.342 . S
C1002 C1006 1.401 . S
C1002 C1007 1.499 . S
N1003 Co986 1.989 . S
N1003 C1002 1.342 . S
N1003 N1004 1.388 . S
N1004 Co987 1.993 . S
N1004 N1003 1.388 . S
N1004 C1005 1.346 . S
C1005 N1004 1.346 . S
C1005 C1006 1.396 . S
C1005 C1015 1.510 . S
C1006 C1002 1.401 . S
C1006 C1005 1.396 . S
C1007 C1002 1.499 . S
C1007 H1008 0.959 . S
C1007 H1009 0.960 . S
C1007 H1010 0.961 . S
H1008 C1007 0.959 . S
H1009 C1007 0.960 . S
H1010 C1007 0.961 . S
O1011 Co986 1.967 . S
O1011 C1019 1.258 . S
O1012 Co987 1.941 . S
O1012 C1019 1.266 . S
H1013 C1015 0.959 . S
H1014 C1015 0.961 . S
C1015 C1005 1.510 . S
C1015 H1013 0.959 . S
C1015 H1014 0.961 . S
C1015 H1016 0.960 . S
H1016 C1015 0.960 . S
H1017 N997 0.862 . S
O1018 Co986 1.920 . S
O1018 C991 1.289 . S
C1019 O1011 1.258 . S
C1019 O1012 1.266 . S
Co1020 O1023 1.970 . S
Co1020 N1037 1.989 . S
Co1020 O1045 1.967 . S
Co1020 O1052 1.920 . S
Co1021 O1024 1.966 . S
Co1021 N1030 2.022 1_556 S
Co1021 N1038 1.993 . S
Co1021 O1046 1.941 . S
C1022 O1023 1.258 . S
C1022 O1024 1.263 . S
O1023 Co1020 1.970 . S
O1023 C1022 1.258 . S
O1024 Co1021 1.966 . S
O1024 C1022 1.263 . S
C1025 O1026 1.235 . S
C1025 O1052 1.289 . S
O1026 C1025 1.235 . S
C1027 C1029 1.400 . S
C1027 N1030 1.351 . S
C1027 C1032 1.501 . S
C1028 C1029 1.387 . S
C1028 N1031 1.341 . S
C1029 C1027 1.400 . S
C1029 C1028 1.387 . S
N1030 Co1021 2.022 1_554 S
N1030 C1027 1.351 . S
N1030 N1031 1.365 . S
N1031 C1028 1.341 . S
N1031 N1030 1.365 . S
N1031 H1051 0.862 . S
C1032 C1027 1.501 . S
C1032 H1033 0.961 . S
C1032 H1034 0.961 . S
C1032 H1035 0.960 . S
H1033 C1032 0.961 . S
H1034 C1032 0.961 . S
H1035 C1032 0.960 . S
C1036 N1037 1.342 . S
C1036 C1040 1.401 1_556 S
C1036 C1041 1.499 . S
N1037 Co1020 1.989 . S
N1037 C1036 1.342 . S
N1037 N1038 1.388 . S
N1038 Co1021 1.993 . S
N1038 N1037 1.388 . S
N1038 C1039 1.346 1_556 S
C1039 N1038 1.346 1_554 S
C1039 C1040 1.396 . S
C1039 C1049 1.510 . S
C1040 C1036 1.401 1_554 S
C1040 C1039 1.396 . S
C1041 C1036 1.499 . S
C1041 H1042 0.959 . S
C1041 H1043 0.960 . S
C1041 H1044 0.961 . S
H1042 C1041 0.959 . S
H1043 C1041 0.960 . S
H1044 C1041 0.961 . S
O1045 Co1020 1.967 . S
O1045 C1053 1.258 . S
O1046 Co1021 1.941 . S
O1046 C1053 1.266 . S
H1047 C1049 0.959 . S
H1048 C1049 0.961 . S
C1049 C1039 1.510 . S
C1049 H1047 0.959 . S
C1049 H1048 0.961 . S
C1049 H1050 0.960 . S
H1050 C1049 0.960 . S
H1051 N1031 0.862 . S
O1052 Co1020 1.920 . S
O1052 C1025 1.289 . S
C1053 O1045 1.258 . S
C1053 O1046 1.266 . S
Co1054 O1057 1.970 . S
Co1054 N1071 1.989 . S
Co1054 O1079 1.967 . S
Co1054 O1086 1.920 . S
Co1055 O1058 1.966 . S
Co1055 N1064 2.022 1_556 S
Co1055 N1072 1.993 . S
Co1055 O1080 1.941 . S
C1056 O1057 1.258 . S
C1056 O1058 1.263 . S
O1057 Co1054 1.970 . S
O1057 C1056 1.258 . S
O1058 Co1055 1.966 . S
O1058 C1056 1.263 . S
C1059 O1060 1.235 . S
C1059 O1086 1.289 . S
O1060 C1059 1.235 . S
C1061 C1063 1.400 . S
C1061 N1064 1.351 . S
C1061 C1066 1.501 . S
C1062 C1063 1.387 . S
C1062 N1065 1.341 . S
C1063 C1061 1.400 . S
C1063 C1062 1.387 . S
N1064 Co1055 2.022 1_554 S
N1064 C1061 1.351 . S
N1064 N1065 1.365 . S
N1065 C1062 1.341 . S
N1065 N1064 1.365 . S
N1065 H1085 0.862 . S
C1066 C1061 1.501 . S
C1066 H1067 0.961 . S
C1066 H1068 0.961 . S
C1066 H1069 0.960 . S
H1067 C1066 0.961 . S
H1068 C1066 0.961 . S
H1069 C1066 0.960 . S
C1070 N1071 1.342 . S
C1070 C1074 1.401 1_556 S
C1070 C1075 1.499 . S
N1071 Co1054 1.989 . S
N1071 C1070 1.342 . S
N1071 N1072 1.388 . S
N1072 Co1055 1.993 . S
N1072 N1071 1.388 . S
N1072 C1073 1.346 1_556 S
C1073 N1072 1.346 1_554 S
C1073 C1074 1.396 . S
C1073 C1083 1.510 . S
C1074 C1070 1.401 1_554 S
C1074 C1073 1.396 . S
C1075 C1070 1.499 . S
C1075 H1076 0.959 . S
C1075 H1077 0.960 . S
C1075 H1078 0.961 . S
H1076 C1075 0.959 . S
H1077 C1075 0.960 . S
H1078 C1075 0.961 . S
O1079 Co1054 1.967 . S
O1079 C1087 1.258 . S
O1080 Co1055 1.941 . S
O1080 C1087 1.266 . S
H1081 C1083 0.959 . S
H1082 C1083 0.961 . S
C1083 C1073 1.510 . S
C1083 H1081 0.959 . S
C1083 H1082 0.961 . S
C1083 H1084 0.960 . S
H1084 C1083 0.960 . S
H1085 N1065 0.862 . S
O1086 Co1054 1.920 . S
O1086 C1059 1.289 . S
C1087 O1079 1.258 . S
C1087 O1080 1.266 . S
H1088 C1096 0.929 . S
H1089 C1098 0.930 . S
H1090 C1100 0.930 . S
H1091 C1103 0.929 . S
H1092 C1106 0.930 . S
H1093 C1108 0.960 . S
H1094 C1108 0.960 . S
H1095 C1108 0.960 . S
C1096 H1088 0.929 . S
C1096 C1097 1.377 . S
C1096 C1098 1.384 . S
C1097 C1096 1.377 . S
C1097 C1103 1.390 . S
C1098 H1089 0.930 . S
C1098 C1096 1.384 . S
C1098 C1099 1.372 . S
C1099 C1098 1.372 . S
C1099 C1100 1.400 . S
C1099 C1104 1.490 . S
C1100 H1090 0.930 . S
C1100 C1099 1.400 . S
C1100 C1103 1.386 . S
H1101 C1117 0.930 . S
H1102 C1118 0.931 . S
C1103 H1091 0.929 . S
C1103 C1097 1.390 . S
C1103 C1100 1.386 . S
C1104 C1099 1.490 . S
C1104 C1106 1.395 . S
C1104 C1107 1.403 . S
H1105 C1111 0.930 . S
C1106 H1092 0.930 . S
C1106 C1104 1.395 . S
C1106 C1109 1.403 . S
C1107 C1104 1.403 . S
C1107 C1108 1.524 . S
C1107 C1111 1.400 . S
C1108 H1093 0.960 . S
C1108 H1094 0.960 . S
C1108 H1095 0.960 . S
C1108 C1107 1.524 . S
C1109 C1106 1.403 . S
C1109 C1110 1.392 . S
C1109 C1113 1.495 . S
C1110 C1109 1.392 . S
C1110 C1111 1.385 . S
C1110 C1112 1.478 . S
C1111 H1105 0.930 . S
C1111 C1107 1.400 . S
C1111 C1110 1.385 . S
C1112 C1110 1.478 . S
C1112 C1114 1.381 . S
C1112 C1118 1.383 . S
C1113 C1109 1.495 . S
C1113 H1119 0.959 . S
C1113 H1120 0.961 . S
C1113 H1121 0.960 . S
C1114 C1112 1.381 . S
C1114 C1115 1.394 . S
C1114 H1122 0.930 . S
C1115 C1114 1.394 . S
C1115 C1116 1.383 . S
C1115 H1123 0.929 . S
C1116 C1115 1.383 . S
C1116 C1117 1.377 . S
C1117 H1101 0.930 . S
C1117 C1116 1.377 . S
C1117 C1118 1.379 . S
C1118 H1102 0.931 . S
C1118 C1112 1.383 . S
C1118 C1117 1.379 . S
H1119 C1113 0.959 . S
H1120 C1113 0.961 . S
H1121 C1113 0.960 . S
H1122 C1114 0.930 . S
H1123 C1115 0.929 . S
H1124 C1132 0.929 . S
H1125 C1134 0.930 . S
H1126 C1136 0.930 . S
H1127 C1139 0.929 . S
H1128 C1142 0.930 . S
H1129 C1144 0.960 . S
H1130 C1144 0.960 . S
H1131 C1144 0.960 . S
C1132 H1124 0.929 . S
C1132 C1133 1.377 . S
C1132 C1134 1.384 . S
C1133 C1132 1.377 . S
C1133 C1139 1.390 . S
C1134 H1125 0.930 . S
C1134 C1132 1.384 . S
C1134 C1135 1.372 . S
C1135 C1134 1.372 . S
C1135 C1136 1.400 . S
C1135 C1140 1.490 . S
C1136 H1126 0.930 . S
C1136 C1135 1.400 . S
C1136 C1139 1.386 . S
H1137 C1153 0.930 . S
H1138 C1154 0.931 . S
C1139 H1127 0.929 . S
C1139 C1133 1.390 . S
C1139 C1136 1.386 . S
C1140 C1135 1.490 . S
C1140 C1142 1.395 . S
C1140 C1143 1.403 . S
H1141 C1147 0.930 . S
C1142 H1128 0.930 . S
C1142 C1140 1.395 . S
C1142 C1145 1.403 . S
C1143 C1140 1.403 . S
C1143 C1144 1.524 . S
C1143 C1147 1.400 . S
C1144 H1129 0.960 . S
C1144 H1130 0.960 . S
C1144 H1131 0.960 . S
C1144 C1143 1.524 . S
C1145 C1142 1.403 . S
C1145 C1146 1.392 . S
C1145 C1149 1.495 . S
C1146 C1145 1.392 . S
C1146 C1147 1.385 . S
C1146 C1148 1.478 . S
C1147 H1141 0.930 . S
C1147 C1143 1.400 . S
C1147 C1146 1.385 . S
C1148 C1146 1.478 . S
C1148 C1150 1.381 . S
C1148 C1154 1.383 . S
C1149 C1145 1.495 . S
C1149 H1155 0.959 . S
C1149 H1156 0.961 . S
C1149 H1157 0.960 . S
C1150 C1148 1.381 . S
C1150 C1151 1.394 . S
C1150 H1158 0.930 . S
C1151 C1150 1.394 . S
C1151 C1152 1.383 . S
C1151 H1159 0.929 . S
C1152 C1151 1.383 . S
C1152 C1153 1.377 . S
C1153 H1137 0.930 . S
C1153 C1152 1.377 . S
C1153 C1154 1.379 . S
C1154 H1138 0.931 . S
C1154 C1148 1.383 . S
C1154 C1153 1.379 . S
H1155 C1149 0.959 . S
H1156 C1149 0.961 . S
H1157 C1149 0.960 . S
H1158 C1150 0.930 . S
H1159 C1151 0.929 . S
H1160 C1168 0.929 . S
H1161 C1170 0.930 . S
H1162 C1172 0.930 . S
H1163 C1175 0.929 . S
H1164 C1178 0.930 . S
H1165 C1180 0.960 . S
H1166 C1180 0.960 . S
H1167 C1180 0.960 . S
C1168 H1160 0.929 . S
C1168 C1169 1.377 . S
C1168 C1170 1.384 . S
C1169 C1168 1.377 . S
C1169 C1175 1.390 . S
C1170 H1161 0.930 . S
C1170 C1168 1.384 . S
C1170 C1171 1.372 . S
C1171 C1170 1.372 . S
C1171 C1172 1.400 . S
C1171 C1176 1.490 . S
C1172 H1162 0.930 . S
C1172 C1171 1.400 . S
C1172 C1175 1.386 . S
H1173 C1189 0.930 . S
H1174 C1190 0.931 . S
C1175 H1163 0.929 . S
C1175 C1169 1.390 . S
C1175 C1172 1.386 . S
C1176 C1171 1.490 . S
C1176 C1178 1.395 . S
C1176 C1179 1.403 . S
H1177 C1183 0.930 . S
C1178 H1164 0.930 . S
C1178 C1176 1.395 . S
C1178 C1181 1.403 . S
C1179 C1176 1.403 . S
C1179 C1180 1.524 . S
C1179 C1183 1.400 . S
C1180 H1165 0.960 . S
C1180 H1166 0.960 . S
C1180 H1167 0.960 . S
C1180 C1179 1.524 . S
C1181 C1178 1.403 . S
C1181 C1182 1.392 . S
C1181 C1185 1.495 . S
C1182 C1181 1.392 . S
C1182 C1183 1.385 . S
C1182 C1184 1.478 . S
C1183 H1177 0.930 . S
C1183 C1179 1.400 . S
C1183 C1182 1.385 . S
C1184 C1182 1.478 . S
C1184 C1186 1.381 . S
C1184 C1190 1.383 . S
C1185 C1181 1.495 . S
C1185 H1191 0.959 . S
C1185 H1192 0.961 . S
C1185 H1193 0.960 . S
C1186 C1184 1.381 . S
C1186 C1187 1.394 . S
C1186 H1194 0.930 . S
C1187 C1186 1.394 . S
C1187 C1188 1.383 . S
C1187 H1195 0.929 . S
C1188 C1187 1.383 . S
C1188 C1189 1.377 . S
C1189 H1173 0.930 . S
C1189 C1188 1.377 . S
C1189 C1190 1.379 . S
C1190 H1174 0.931 . S
C1190 C1184 1.383 . S
C1190 C1189 1.379 . S
H1191 C1185 0.959 . S
H1192 C1185 0.961 . S
H1193 C1185 0.960 . S
H1194 C1186 0.930 . S
H1195 C1187 0.929 . S
H1196 C1204 0.929 . S
H1197 C1206 0.930 . S
H1198 C1208 0.930 . S
H1199 C1211 0.929 . S
H1200 C1214 0.930 . S
H1201 C1216 0.960 . S
H1202 C1216 0.960 . S
H1203 C1216 0.960 . S
C1204 H1196 0.929 . S
C1204 C1205 1.377 . S
C1204 C1206 1.384 . S
C1205 C1204 1.377 . S
C1205 C1211 1.390 . S
C1206 H1197 0.930 . S
C1206 C1204 1.384 . S
C1206 C1207 1.372 . S
C1207 C1206 1.372 . S
C1207 C1208 1.400 . S
C1207 C1212 1.490 . S
C1208 H1198 0.930 . S
C1208 C1207 1.400 . S
C1208 C1211 1.386 . S
H1209 C1225 0.930 . S
H1210 C1226 0.931 . S
C1211 H1199 0.929 . S
C1211 C1205 1.390 . S
C1211 C1208 1.386 . S
C1212 C1207 1.490 . S
C1212 C1214 1.395 . S
C1212 C1215 1.403 . S
H1213 C1219 0.930 . S
C1214 H1200 0.930 . S
C1214 C1212 1.395 . S
C1214 C1217 1.403 . S
C1215 C1212 1.403 . S
C1215 C1216 1.524 . S
C1215 C1219 1.400 . S
C1216 H1201 0.960 . S
C1216 H1202 0.960 . S
C1216 H1203 0.960 . S
C1216 C1215 1.524 . S
C1217 C1214 1.403 . S
C1217 C1218 1.392 . S
C1217 C1221 1.495 . S
C1218 C1217 1.392 . S
C1218 C1219 1.385 . S
C1218 C1220 1.478 . S
C1219 H1213 0.930 . S
C1219 C1215 1.400 . S
C1219 C1218 1.385 . S
C1220 C1218 1.478 . S
C1220 C1222 1.381 . S
C1220 C1226 1.383 . S
C1221 C1217 1.495 . S
C1221 H1227 0.959 . S
C1221 H1228 0.961 . S
C1221 H1229 0.960 . S
C1222 C1220 1.381 . S
C1222 C1223 1.394 . S
C1222 H1230 0.930 . S
C1223 C1222 1.394 . S
C1223 C1224 1.383 . S
C1223 H1231 0.929 . S
C1224 C1223 1.383 . S
C1224 C1225 1.377 . S
C1225 H1209 0.930 . S
C1225 C1224 1.377 . S
C1225 C1226 1.379 . S
C1226 H1210 0.931 . S
C1226 C1220 1.383 . S
C1226 C1225 1.379 . S
H1227 C1221 0.959 . S
H1228 C1221 0.961 . S
H1229 C1221 0.960 . S
H1230 C1222 0.930 . S
H1231 C1223 0.929 . S
H1232 C1240 0.929 . S
H1233 C1242 0.930 . S
H1234 C1244 0.930 . S
H1235 C1247 0.929 . S
H1236 C1250 0.930 . S
H1237 C1252 0.960 . S
H1238 C1252 0.960 . S
H1239 C1252 0.960 . S
C1240 H1232 0.929 . S
C1240 C1241 1.377 . S
C1240 C1242 1.384 . S
C1241 C1240 1.377 . S
C1241 C1247 1.390 . S
C1242 H1233 0.930 . S
C1242 C1240 1.384 . S
C1242 C1243 1.372 . S
C1243 C1242 1.372 . S
C1243 C1244 1.400 . S
C1243 C1248 1.490 . S
C1244 H1234 0.930 . S
C1244 C1243 1.400 . S
C1244 C1247 1.386 . S
H1245 C1261 0.930 . S
H1246 C1262 0.931 . S
C1247 H1235 0.929 . S
C1247 C1241 1.390 . S
C1247 C1244 1.386 . S
C1248 C1243 1.490 . S
C1248 C1250 1.395 . S
C1248 C1251 1.403 . S
H1249 C1255 0.930 . S
C1250 H1236 0.930 . S
C1250 C1248 1.395 . S
C1250 C1253 1.403 . S
C1251 C1248 1.403 . S
C1251 C1252 1.524 . S
C1251 C1255 1.400 . S
C1252 H1237 0.960 . S
C1252 H1238 0.960 . S
C1252 H1239 0.960 . S
C1252 C1251 1.524 . S
C1253 C1250 1.403 . S
C1253 C1254 1.392 . S
C1253 C1257 1.495 . S
C1254 C1253 1.392 . S
C1254 C1255 1.385 . S
C1254 C1256 1.478 . S
C1255 H1249 0.930 . S
C1255 C1251 1.400 . S
C1255 C1254 1.385 . S
C1256 C1254 1.478 . S
C1256 C1258 1.381 . S
C1256 C1262 1.383 . S
C1257 C1253 1.495 . S
C1257 H1263 0.959 . S
C1257 H1264 0.961 . S
C1257 H1265 0.960 . S
C1258 C1256 1.381 . S
C1258 C1259 1.394 . S
C1258 H1266 0.930 . S
C1259 C1258 1.394 . S
C1259 C1260 1.383 . S
C1259 H1267 0.929 . S
C1260 C1259 1.383 . S
C1260 C1261 1.377 . S
C1261 H1245 0.930 . S
C1261 C1260 1.377 . S
C1261 C1262 1.379 . S
C1262 H1246 0.931 . S
C1262 C1256 1.383 . S
C1262 C1261 1.379 . S
H1263 C1257 0.959 . S
H1264 C1257 0.961 . S
H1265 C1257 0.960 . S
H1266 C1258 0.930 . S
H1267 C1259 0.929 . S
H1268 C1276 0.929 . S
H1269 C1278 0.930 . S
H1270 C1280 0.930 . S
H1271 C1283 0.929 . S
H1272 C1286 0.930 . S
H1273 C1288 0.960 . S
H1274 C1288 0.960 . S
H1275 C1288 0.960 . S
C1276 H1268 0.929 . S
C1276 C1277 1.377 . S
C1276 C1278 1.384 . S
C1277 C1276 1.377 . S
C1277 C1283 1.390 . S
C1278 H1269 0.930 . S
C1278 C1276 1.384 . S
C1278 C1279 1.372 . S
C1279 C1278 1.372 . S
C1279 C1280 1.400 . S
C1279 C1284 1.490 . S
C1280 H1270 0.930 . S
C1280 C1279 1.400 . S
C1280 C1283 1.386 . S
H1281 C1297 0.930 . S
H1282 C1298 0.931 . S
C1283 H1271 0.929 . S
C1283 C1277 1.390 . S
C1283 C1280 1.386 . S
C1284 C1279 1.490 . S
C1284 C1286 1.395 . S
C1284 C1287 1.403 . S
H1285 C1291 0.930 . S
C1286 H1272 0.930 . S
C1286 C1284 1.395 . S
C1286 C1289 1.403 . S
C1287 C1284 1.403 . S
C1287 C1288 1.524 . S
C1287 C1291 1.400 . S
C1288 H1273 0.960 . S
C1288 H1274 0.960 . S
C1288 H1275 0.960 . S
C1288 C1287 1.524 . S
C1289 C1286 1.403 . S
C1289 C1290 1.392 . S
C1289 C1293 1.495 . S
C1290 C1289 1.392 . S
C1290 C1291 1.385 . S
C1290 C1292 1.478 . S
C1291 H1285 0.930 . S
C1291 C1287 1.400 . S
C1291 C1290 1.385 . S
C1292 C1290 1.478 . S
C1292 C1294 1.381 . S
C1292 C1298 1.383 . S
C1293 C1289 1.495 . S
C1293 H1299 0.959 . S
C1293 H1300 0.961 . S
C1293 H1301 0.960 . S
C1294 C1292 1.381 . S
C1294 C1295 1.394 . S
C1294 H1302 0.930 . S
C1295 C1294 1.394 . S
C1295 C1296 1.383 . S
C1295 H1303 0.929 . S
C1296 C1295 1.383 . S
C1296 C1297 1.377 . S
C1297 H1281 0.930 . S
C1297 C1296 1.377 . S
C1297 C1298 1.379 . S
C1298 H1282 0.931 . S
C1298 C1292 1.383 . S
C1298 C1297 1.379 . S
H1299 C1293 0.959 . S
H1300 C1293 0.961 . S
H1301 C1293 0.960 . S
H1302 C1294 0.930 . S
H1303 C1295 0.929 . S
H1304 C1312 0.929 . S
H1305 C1314 0.930 . S
H1306 C1316 0.930 . S
H1307 C1319 0.929 . S
H1308 C1322 0.930 . S
H1309 C1324 0.960 . S
H1310 C1324 0.960 . S
H1311 C1324 0.960 . S
C1312 H1304 0.929 . S
C1312 C1313 1.377 . S
C1312 C1314 1.384 . S
C1313 C1312 1.377 . S
C1313 C1319 1.390 . S
C1314 H1305 0.930 . S
C1314 C1312 1.384 . S
C1314 C1315 1.372 . S
C1315 C1314 1.372 . S
C1315 C1316 1.400 . S
C1315 C1320 1.490 . S
C1316 H1306 0.930 . S
C1316 C1315 1.400 . S
C1316 C1319 1.386 . S
H1317 C1333 0.930 . S
H1318 C1334 0.931 . S
C1319 H1307 0.929 . S
C1319 C1313 1.390 . S
C1319 C1316 1.386 . S
C1320 C1315 1.490 . S
C1320 C1322 1.395 . S
C1320 C1323 1.403 . S
H1321 C1327 0.930 . S
C1322 H1308 0.930 . S
C1322 C1320 1.395 . S
C1322 C1325 1.403 . S
C1323 C1320 1.403 . S
C1323 C1324 1.524 . S
C1323 C1327 1.400 . S
C1324 H1309 0.960 . S
C1324 H1310 0.960 . S
C1324 H1311 0.960 . S
C1324 C1323 1.524 . S
C1325 C1322 1.403 . S
C1325 C1326 1.392 . S
C1325 C1329 1.495 . S
C1326 C1325 1.392 . S
C1326 C1327 1.385 . S
C1326 C1328 1.478 . S
C1327 H1321 0.930 . S
C1327 C1323 1.400 . S
C1327 C1326 1.385 . S
C1328 C1326 1.478 . S
C1328 C1330 1.381 . S
C1328 C1334 1.383 . S
C1329 C1325 1.495 . S
C1329 H1335 0.959 . S
C1329 H1336 0.961 . S
C1329 H1337 0.960 . S
C1330 C1328 1.381 . S
C1330 C1331 1.394 . S
C1330 H1338 0.930 . S
C1331 C1330 1.394 . S
C1331 C1332 1.383 . S
C1331 H1339 0.929 . S
C1332 C1331 1.383 . S
C1332 C1333 1.377 . S
C1333 H1317 0.930 . S
C1333 C1332 1.377 . S
C1333 C1334 1.379 . S
C1334 H1318 0.931 . S
C1334 C1328 1.383 . S
C1334 C1333 1.379 . S
H1335 C1329 0.959 . S
H1336 C1329 0.961 . S
H1337 C1329 0.960 . S
H1338 C1330 0.930 . S
H1339 C1331 0.929 . S
H1340 C1348 0.929 . S
H1341 C1350 0.930 . S
H1342 C1352 0.930 . S
H1343 C1355 0.929 . S
H1344 C1358 0.930 . S
H1345 C1360 0.960 . S
H1346 C1360 0.960 . S
H1347 C1360 0.960 . S
C1348 H1340 0.929 . S
C1348 C1349 1.377 . S
C1348 C1350 1.384 . S
C1349 C1348 1.377 . S
C1349 C1355 1.390 . S
C1350 H1341 0.930 . S
C1350 C1348 1.384 . S
C1350 C1351 1.372 . S
C1351 C1350 1.372 . S
C1351 C1352 1.400 . S
C1351 C1356 1.490 . S
C1352 H1342 0.930 . S
C1352 C1351 1.400 . S
C1352 C1355 1.386 . S
H1353 C1369 0.930 . S
H1354 C1370 0.931 . S
C1355 H1343 0.929 . S
C1355 C1349 1.390 . S
C1355 C1352 1.386 . S
C1356 C1351 1.490 . S
C1356 C1358 1.395 . S
C1356 C1359 1.403 . S
H1357 C1363 0.930 . S
C1358 H1344 0.930 . S
C1358 C1356 1.395 . S
C1358 C1361 1.403 . S
C1359 C1356 1.403 . S
C1359 C1360 1.524 . S
C1359 C1363 1.400 . S
C1360 H1345 0.960 . S
C1360 H1346 0.960 . S
C1360 H1347 0.960 . S
C1360 C1359 1.524 . S
C1361 C1358 1.403 . S
C1361 C1362 1.392 . S
C1361 C1365 1.495 . S
C1362 C1361 1.392 . S
C1362 C1363 1.385 . S
C1362 C1364 1.478 . S
C1363 H1357 0.930 . S
C1363 C1359 1.400 . S
C1363 C1362 1.385 . S
C1364 C1362 1.478 . S
C1364 C1366 1.381 . S
C1364 C1370 1.383 . S
C1365 C1361 1.495 . S
C1365 H1371 0.959 . S
C1365 H1372 0.961 . S
C1365 H1373 0.960 . S
C1366 C1364 1.381 . S
C1366 C1367 1.394 . S
C1366 H1374 0.930 . S
C1367 C1366 1.394 . S
C1367 C1368 1.383 . S
C1367 H1375 0.929 . S
C1368 C1367 1.383 . S
C1368 C1369 1.377 . S
C1369 H1353 0.930 . S
C1369 C1368 1.377 . S
C1369 C1370 1.379 . S
C1370 H1354 0.931 . S
C1370 C1364 1.383 . S
C1370 C1369 1.379 . S
H1371 C1365 0.959 . S
H1372 C1365 0.961 . S
H1373 C1365 0.960 . S
H1374 C1366 0.930 . S
H1375 C1367 0.929 . S
H1376 C1384 0.929 . S
H1377 C1386 0.930 . S
H1378 C1388 0.930 . S
H1379 C1391 0.929 . S
H1380 C1394 0.930 . S
H1381 C1396 0.960 . S
H1382 C1396 0.960 . S
H1383 C1396 0.960 . S
C1384 H1376 0.929 . S
C1384 C1385 1.377 . S
C1384 C1386 1.384 . S
C1385 C1384 1.377 . S
C1385 C1391 1.390 . S
C1386 H1377 0.930 . S
C1386 C1384 1.384 . S
C1386 C1387 1.372 . S
C1387 C1386 1.372 . S
C1387 C1388 1.400 . S
C1387 C1392 1.490 . S
C1388 H1378 0.930 . S
C1388 C1387 1.400 . S
C1388 C1391 1.386 . S
H1389 C1405 0.930 . S
H1390 C1406 0.931 . S
C1391 H1379 0.929 . S
C1391 C1385 1.390 . S
C1391 C1388 1.386 . S
C1392 C1387 1.490 . S
C1392 C1394 1.395 . S
C1392 C1395 1.403 . S
H1393 C1399 0.930 . S
C1394 H1380 0.930 . S
C1394 C1392 1.395 . S
C1394 C1397 1.403 . S
C1395 C1392 1.403 . S
C1395 C1396 1.524 . S
C1395 C1399 1.400 . S
C1396 H1381 0.960 . S
C1396 H1382 0.960 . S
C1396 H1383 0.960 . S
C1396 C1395 1.524 . S
C1397 C1394 1.403 . S
C1397 C1398 1.392 . S
C1397 C1401 1.495 . S
C1398 C1397 1.392 . S
C1398 C1399 1.385 . S
C1398 C1400 1.478 . S
C1399 H1393 0.930 . S
C1399 C1395 1.400 . S
C1399 C1398 1.385 . S
C1400 C1398 1.478 . S
C1400 C1402 1.381 . S
C1400 C1406 1.383 . S
C1401 C1397 1.495 . S
C1401 H1407 0.959 . S
C1401 H1408 0.961 . S
C1401 H1409 0.960 . S
C1402 C1400 1.381 . S
C1402 C1403 1.394 . S
C1402 H1410 0.930 . S
C1403 C1402 1.394 . S
C1403 C1404 1.383 . S
C1403 H1411 0.929 . S
C1404 C1403 1.383 . S
C1404 C1405 1.377 . S
C1405 H1389 0.930 . S
C1405 C1404 1.377 . S
C1405 C1406 1.379 . S
C1406 H1390 0.931 . S
C1406 C1400 1.383 . S
C1406 C1405 1.379 . S
H1407 C1401 0.959 . S
H1408 C1401 0.961 . S
H1409 C1401 0.960 . S
H1410 C1402 0.930 . S
H1411 C1403 0.929 . S
H1412 C1420 0.929 . S
H1413 C1422 0.930 . S
H1414 C1424 0.930 . S
H1415 C1427 0.929 . S
H1416 C1430 0.930 . S
H1417 C1432 0.960 . S
H1418 C1432 0.960 . S
H1419 C1432 0.960 . S
C1420 H1412 0.929 . S
C1420 C1421 1.377 . S
C1420 C1422 1.384 . S
C1421 C1420 1.377 . S
C1421 C1427 1.390 . S
C1422 H1413 0.930 . S
C1422 C1420 1.384 . S
C1422 C1423 1.372 . S
C1423 C1422 1.372 . S
C1423 C1424 1.400 . S
C1423 C1428 1.490 . S
C1424 H1414 0.930 . S
C1424 C1423 1.400 . S
C1424 C1427 1.386 . S
H1425 C1441 0.930 . S
H1426 C1442 0.931 . S
C1427 H1415 0.929 . S
C1427 C1421 1.390 . S
C1427 C1424 1.386 . S
C1428 C1423 1.490 . S
C1428 C1430 1.395 . S
C1428 C1431 1.403 . S
H1429 C1435 0.930 . S
C1430 H1416 0.930 . S
C1430 C1428 1.395 . S
C1430 C1433 1.403 . S
C1431 C1428 1.403 . S
C1431 C1432 1.524 . S
C1431 C1435 1.400 . S
C1432 H1417 0.960 . S
C1432 H1418 0.960 . S
C1432 H1419 0.960 . S
C1432 C1431 1.524 . S
C1433 C1430 1.403 . S
C1433 C1434 1.392 . S
C1433 C1437 1.495 . S
C1434 C1433 1.392 . S
C1434 C1435 1.385 . S
C1434 C1436 1.478 . S
C1435 H1429 0.930 . S
C1435 C1431 1.400 . S
C1435 C1434 1.385 . S
C1436 C1434 1.478 . S
C1436 C1438 1.381 . S
C1436 C1442 1.383 . S
C1437 C1433 1.495 . S
C1437 H1443 0.959 . S
C1437 H1444 0.961 . S
C1437 H1445 0.960 . S
C1438 C1436 1.381 . S
C1438 C1439 1.394 . S
C1438 H1446 0.930 . S
C1439 C1438 1.394 . S
C1439 C1440 1.383 . S
C1439 H1447 0.929 . S
C1440 C1439 1.383 . S
C1440 C1441 1.377 . S
C1441 H1425 0.930 . S
C1441 C1440 1.377 . S
C1441 C1442 1.379 . S
C1442 H1426 0.931 . S
C1442 C1436 1.383 . S
C1442 C1441 1.379 . S
H1443 C1437 0.959 . S
H1444 C1437 0.961 . S
H1445 C1437 0.960 . S
H1446 C1438 0.930 . S
H1447 C1439 0.929 . S
H1448 C1456 0.929 . S
H1449 C1458 0.930 . S
H1450 C1460 0.930 . S
H1451 C1463 0.929 . S
H1452 C1466 0.930 . S
H1453 C1468 0.960 . S
H1454 C1468 0.960 . S
H1455 C1468 0.960 . S
C1456 H1448 0.929 . S
C1456 C1457 1.377 . S
C1456 C1458 1.384 . S
C1457 C1456 1.377 . S
C1457 C1463 1.390 . S
C1458 H1449 0.930 . S
C1458 C1456 1.384 . S
C1458 C1459 1.372 . S
C1459 C1458 1.372 . S
C1459 C1460 1.400 . S
C1459 C1464 1.490 . S
C1460 H1450 0.930 . S
C1460 C1459 1.400 . S
C1460 C1463 1.386 . S
H1461 C1477 0.930 . S
H1462 C1478 0.931 . S
C1463 H1451 0.929 . S
C1463 C1457 1.390 . S
C1463 C1460 1.386 . S
C1464 C1459 1.490 . S
C1464 C1466 1.395 . S
C1464 C1467 1.403 . S
H1465 C1471 0.930 . S
C1466 H1452 0.930 . S
C1466 C1464 1.395 . S
C1466 C1469 1.403 . S
C1467 C1464 1.403 . S
C1467 C1468 1.524 . S
C1467 C1471 1.400 . S
C1468 H1453 0.960 . S
C1468 H1454 0.960 . S
C1468 H1455 0.960 . S
C1468 C1467 1.524 . S
C1469 C1466 1.403 . S
C1469 C1470 1.392 . S
C1469 C1473 1.495 . S
C1470 C1469 1.392 . S
C1470 C1471 1.385 . S
C1470 C1472 1.478 . S
C1471 H1465 0.930 . S
C1471 C1467 1.400 . S
C1471 C1470 1.385 . S
C1472 C1470 1.478 . S
C1472 C1474 1.381 . S
C1472 C1478 1.383 . S
C1473 C1469 1.495 . S
C1473 H1479 0.959 . S
C1473 H1480 0.961 . S
C1473 H1481 0.960 . S
C1474 C1472 1.381 . S
C1474 C1475 1.394 . S
C1474 H1482 0.930 . S
C1475 C1474 1.394 . S
C1475 C1476 1.383 . S
C1475 H1483 0.929 . S
C1476 C1475 1.383 . S
C1476 C1477 1.377 . S
C1477 H1461 0.930 . S
C1477 C1476 1.377 . S
C1477 C1478 1.379 . S
C1478 H1462 0.931 . S
C1478 C1472 1.383 . S
C1478 C1477 1.379 . S
H1479 C1473 0.959 . S
H1480 C1473 0.961 . S
H1481 C1473 0.960 . S
H1482 C1474 0.930 . S
H1483 C1475 0.929 . S
H1484 C1492 0.929 . S
H1485 C1494 0.930 . S
H1486 C1496 0.930 . S
H1487 C1499 0.929 . S
H1488 C1502 0.930 . S
H1489 C1504 0.960 . S
H1490 C1504 0.960 . S
H1491 C1504 0.960 . S
C1492 H1484 0.929 . S
C1492 C1493 1.377 . S
C1492 C1494 1.384 . S
C1493 C1492 1.377 . S
C1493 C1499 1.390 . S
C1494 H1485 0.930 . S
C1494 C1492 1.384 . S
C1494 C1495 1.372 . S
C1495 C1494 1.372 . S
C1495 C1496 1.400 . S
C1495 C1500 1.490 . S
C1496 H1486 0.930 . S
C1496 C1495 1.400 . S
C1496 C1499 1.386 . S
H1497 C1513 0.930 . S
H1498 C1514 0.931 . S
C1499 H1487 0.929 . S
C1499 C1493 1.390 . S
C1499 C1496 1.386 . S
C1500 C1495 1.490 . S
C1500 C1502 1.395 . S
C1500 C1503 1.403 . S
H1501 C1507 0.930 . S
C1502 H1488 0.930 . S
C1502 C1500 1.395 . S
C1502 C1505 1.403 . S
C1503 C1500 1.403 . S
C1503 C1504 1.524 . S
C1503 C1507 1.400 . S
C1504 H1489 0.960 . S
C1504 H1490 0.960 . S
C1504 H1491 0.960 . S
C1504 C1503 1.524 . S
C1505 C1502 1.403 . S
C1505 C1506 1.392 . S
C1505 C1509 1.495 . S
C1506 C1505 1.392 . S
C1506 C1507 1.385 . S
C1506 C1508 1.478 . S
C1507 H1501 0.930 . S
C1507 C1503 1.400 . S
C1507 C1506 1.385 . S
C1508 C1506 1.478 . S
C1508 C1510 1.381 . S
C1508 C1514 1.383 . S
C1509 C1505 1.495 . S
C1509 H1515 0.959 . S
C1509 H1516 0.961 . S
C1509 H1517 0.960 . S
C1510 C1508 1.381 . S
C1510 C1511 1.394 . S
C1510 H1518 0.930 . S
C1511 C1510 1.394 . S
C1511 C1512 1.383 . S
C1511 H1519 0.929 . S
C1512 C1511 1.383 . S
C1512 C1513 1.377 . S
C1513 H1497 0.930 . S
C1513 C1512 1.377 . S
C1513 C1514 1.379 . S
C1514 H1498 0.931 . S
C1514 C1508 1.383 . S
C1514 C1513 1.379 . S
H1515 C1509 0.959 . S
H1516 C1509 0.961 . S
H1517 C1509 0.960 . S
H1518 C1510 0.930 . S
H1519 C1511 0.929 . S
H1520 C1528 0.929 . S
H1521 C1530 0.930 . S
H1522 C1532 0.930 . S
H1523 C1535 0.929 . S
H1524 C1538 0.930 . S
H1525 C1540 0.960 . S
H1526 C1540 0.960 . S
H1527 C1540 0.960 . S
C1528 H1520 0.929 . S
C1528 C1529 1.377 . S
C1528 C1530 1.384 . S
C1529 C1528 1.377 . S
C1529 C1535 1.390 . S
C1530 H1521 0.930 . S
C1530 C1528 1.384 . S
C1530 C1531 1.372 . S
C1531 C1530 1.372 . S
C1531 C1532 1.400 . S
C1531 C1536 1.490 . S
C1532 H1522 0.930 . S
C1532 C1531 1.400 . S
C1532 C1535 1.386 . S
H1533 C1549 0.930 . S
H1534 C1550 0.931 . S
C1535 H1523 0.929 . S
C1535 C1529 1.390 . S
C1535 C1532 1.386 . S
C1536 C1531 1.490 . S
C1536 C1538 1.395 . S
C1536 C1539 1.403 . S
H1537 C1543 0.930 . S
C1538 H1524 0.930 . S
C1538 C1536 1.395 . S
C1538 C1541 1.403 . S
C1539 C1536 1.403 . S
C1539 C1540 1.524 . S
C1539 C1543 1.400 . S
C1540 H1525 0.960 . S
C1540 H1526 0.960 . S
C1540 H1527 0.960 . S
C1540 C1539 1.524 . S
C1541 C1538 1.403 . S
C1541 C1542 1.392 . S
C1541 C1545 1.495 . S
C1542 C1541 1.392 . S
C1542 C1543 1.385 . S
C1542 C1544 1.478 . S
C1543 H1537 0.930 . S
C1543 C1539 1.400 . S
C1543 C1542 1.385 . S
C1544 C1542 1.478 . S
C1544 C1546 1.381 . S
C1544 C1550 1.383 . S
C1545 C1541 1.495 . S
C1545 H1551 0.959 . S
C1545 H1552 0.961 . S
C1545 H1553 0.960 . S
C1546 C1544 1.381 . S
C1546 C1547 1.394 . S
C1546 H1554 0.930 . S
C1547 C1546 1.394 . S
C1547 C1548 1.383 . S
C1547 H1555 0.929 . S
C1548 C1547 1.383 . S
C1548 C1549 1.377 . S
C1549 H1533 0.930 . S
C1549 C1548 1.377 . S
C1549 C1550 1.379 . S
C1550 H1534 0.931 . S
C1550 C1544 1.383 . S
C1550 C1549 1.379 . S
H1551 C1545 0.959 . S
H1552 C1545 0.961 . S
H1553 C1545 0.960 . S
H1554 C1546 0.930 . S
H1555 C1547 0.929 . S
H1556 C1564 0.929 . S
H1557 C1566 0.930 . S
H1558 C1568 0.930 . S
H1559 C1571 0.929 . S
H1560 C1574 0.930 . S
H1561 C1576 0.960 . S
H1562 C1576 0.960 . S
H1563 C1576 0.960 . S
C1564 H1556 0.929 . S
C1564 C1565 1.377 . S
C1564 C1566 1.384 . S
C1565 C1564 1.377 . S
C1565 C1571 1.390 . S
C1566 H1557 0.930 . S
C1566 C1564 1.384 . S
C1566 C1567 1.372 . S
C1567 C1566 1.372 . S
C1567 C1568 1.400 . S
C1567 C1572 1.490 . S
C1568 H1558 0.930 . S
C1568 C1567 1.400 . S
C1568 C1571 1.386 . S
H1569 C1585 0.930 . S
H1570 C1586 0.931 . S
C1571 H1559 0.929 . S
C1571 C1565 1.390 . S
C1571 C1568 1.386 . S
C1572 C1567 1.490 . S
C1572 C1574 1.395 . S
C1572 C1575 1.403 . S
H1573 C1579 0.930 . S
C1574 H1560 0.930 . S
C1574 C1572 1.395 . S
C1574 C1577 1.403 . S
C1575 C1572 1.403 . S
C1575 C1576 1.524 . S
C1575 C1579 1.400 . S
C1576 H1561 0.960 . S
C1576 H1562 0.960 . S
C1576 H1563 0.960 . S
C1576 C1575 1.524 . S
C1577 C1574 1.403 . S
C1577 C1578 1.392 . S
C1577 C1581 1.495 . S
C1578 C1577 1.392 . S
C1578 C1579 1.385 . S
C1578 C1580 1.478 . S
C1579 H1573 0.930 . S
C1579 C1575 1.400 . S
C1579 C1578 1.385 . S
C1580 C1578 1.478 . S
C1580 C1582 1.381 . S
C1580 C1586 1.383 . S
C1581 C1577 1.495 . S
C1581 H1587 0.959 . S
C1581 H1588 0.961 . S
C1581 H1589 0.960 . S
C1582 C1580 1.381 . S
C1582 C1583 1.394 . S
C1582 H1590 0.930 . S
C1583 C1582 1.394 . S
C1583 C1584 1.383 . S
C1583 H1591 0.929 . S
C1584 C1583 1.383 . S
C1584 C1585 1.377 . S
C1585 H1569 0.930 . S
C1585 C1584 1.377 . S
C1585 C1586 1.379 . S
C1586 H1570 0.931 . S
C1586 C1580 1.383 . S
C1586 C1585 1.379 . S
H1587 C1581 0.959 . S
H1588 C1581 0.961 . S
H1589 C1581 0.960 . S
H1590 C1582 0.930 . S
H1591 C1583 0.929 . S
H1592 C1600 0.929 . S
H1593 C1602 0.930 . S
H1594 C1604 0.930 . S
H1595 C1607 0.929 . S
H1596 C1610 0.930 . S
H1597 C1612 0.960 . S
H1598 C1612 0.960 . S
H1599 C1612 0.960 . S
C1600 H1592 0.929 . S
C1600 C1601 1.377 . S
C1600 C1602 1.384 . S
C1601 C1600 1.377 . S
C1601 C1607 1.390 . S
C1602 H1593 0.930 . S
C1602 C1600 1.384 . S
C1602 C1603 1.372 . S
C1603 C1602 1.372 . S
C1603 C1604 1.400 . S
C1603 C1608 1.490 . S
C1604 H1594 0.930 . S
C1604 C1603 1.400 . S
C1604 C1607 1.386 . S
H1605 C1621 0.930 . S
H1606 C1622 0.931 . S
C1607 H1595 0.929 . S
C1607 C1601 1.390 . S
C1607 C1604 1.386 . S
C1608 C1603 1.490 . S
C1608 C1610 1.395 . S
C1608 C1611 1.403 . S
H1609 C1615 0.930 . S
C1610 H1596 0.930 . S
C1610 C1608 1.395 . S
C1610 C1613 1.403 . S
C1611 C1608 1.403 . S
C1611 C1612 1.524 . S
C1611 C1615 1.400 . S
C1612 H1597 0.960 . S
C1612 H1598 0.960 . S
C1612 H1599 0.960 . S
C1612 C1611 1.524 . S
C1613 C1610 1.403 . S
C1613 C1614 1.392 . S
C1613 C1617 1.495 . S
C1614 C1613 1.392 . S
C1614 C1615 1.385 . S
C1614 C1616 1.478 . S
C1615 H1609 0.930 . S
C1615 C1611 1.400 . S
C1615 C1614 1.385 . S
C1616 C1614 1.478 . S
C1616 C1618 1.381 . S
C1616 C1622 1.383 . S
C1617 C1613 1.495 . S
C1617 H1623 0.959 . S
C1617 H1624 0.961 . S
C1617 H1625 0.960 . S
C1618 C1616 1.381 . S
C1618 C1619 1.394 . S
C1618 H1626 0.930 . S
C1619 C1618 1.394 . S
C1619 C1620 1.383 . S
C1619 H1627 0.929 . S
C1620 C1619 1.383 . S
C1620 C1621 1.377 . S
C1621 H1605 0.930 . S
C1621 C1620 1.377 . S
C1621 C1622 1.379 . S
C1622 H1606 0.931 . S
C1622 C1616 1.383 . S
C1622 C1621 1.379 . S
H1623 C1617 0.959 . S
H1624 C1617 0.961 . S
H1625 C1617 0.960 . S
H1626 C1618 0.930 . S
H1627 C1619 0.929 . S
H1628 C1636 0.929 . S
H1629 C1638 0.930 . S
H1630 C1640 0.930 . S
H1631 C1643 0.929 . S
H1632 C1646 0.930 . S
H1633 C1648 0.960 . S
H1634 C1648 0.960 . S
H1635 C1648 0.960 . S
C1636 H1628 0.929 . S
C1636 C1637 1.377 . S
C1636 C1638 1.384 . S
C1637 C1636 1.377 . S
C1637 C1643 1.390 . S
C1638 H1629 0.930 . S
C1638 C1636 1.384 . S
C1638 C1639 1.372 . S
C1639 C1638 1.372 . S
C1639 C1640 1.400 . S
C1639 C1644 1.490 . S
C1640 H1630 0.930 . S
C1640 C1639 1.400 . S
C1640 C1643 1.386 . S
H1641 C1657 0.930 . S
H1642 C1658 0.931 . S
C1643 H1631 0.929 . S
C1643 C1637 1.390 . S
C1643 C1640 1.386 . S
C1644 C1639 1.490 . S
C1644 C1646 1.395 . S
C1644 C1647 1.403 . S
H1645 C1651 0.930 . S
C1646 H1632 0.930 . S
C1646 C1644 1.395 . S
C1646 C1649 1.403 . S
C1647 C1644 1.403 . S
C1647 C1648 1.524 . S
C1647 C1651 1.400 . S
C1648 H1633 0.960 . S
C1648 H1634 0.960 . S
C1648 H1635 0.960 . S
C1648 C1647 1.524 . S
C1649 C1646 1.403 . S
C1649 C1650 1.392 . S
C1649 C1653 1.495 . S
C1650 C1649 1.392 . S
C1650 C1651 1.385 . S
C1650 C1652 1.478 . S
C1651 H1645 0.930 . S
C1651 C1647 1.400 . S
C1651 C1650 1.385 . S
C1652 C1650 1.478 . S
C1652 C1654 1.381 . S
C1652 C1658 1.383 . S
C1653 C1649 1.495 . S
C1653 H1659 0.959 . S
C1653 H1660 0.961 . S
C1653 H1661 0.960 . S
C1654 C1652 1.381 . S
C1654 C1655 1.394 . S
C1654 H1662 0.930 . S
C1655 C1654 1.394 . S
C1655 C1656 1.383 . S
C1655 H1663 0.929 . S
C1656 C1655 1.383 . S
C1656 C1657 1.377 . S
C1657 H1641 0.930 . S
C1657 C1656 1.377 . S
C1657 C1658 1.379 . S
C1658 H1642 0.931 . S
C1658 C1652 1.383 . S
C1658 C1657 1.379 . S
H1659 C1653 0.959 . S
H1660 C1653 0.961 . S
H1661 C1653 0.960 . S
H1662 C1654 0.930 . S
H1663 C1655 0.929 . S
H1664 C1672 0.929 . S
H1665 C1674 0.930 . S
H1666 C1676 0.930 . S
H1667 C1679 0.929 . S
H1668 C1682 0.930 . S
H1669 C1684 0.960 . S
H1670 C1684 0.960 . S
H1671 C1684 0.960 . S
C1672 H1664 0.929 . S
C1672 C1673 1.377 . S
C1672 C1674 1.384 . S
C1673 C1672 1.377 . S
C1673 C1679 1.390 . S
C1674 H1665 0.930 . S
C1674 C1672 1.384 . S
C1674 C1675 1.372 . S
C1675 C1674 1.372 . S
C1675 C1676 1.400 . S
C1675 C1680 1.490 . S
C1676 H1666 0.930 . S
C1676 C1675 1.400 . S
C1676 C1679 1.386 . S
H1677 C1693 0.930 . S
H1678 C1694 0.931 . S
C1679 H1667 0.929 . S
C1679 C1673 1.390 . S
C1679 C1676 1.386 . S
C1680 C1675 1.490 . S
C1680 C1682 1.395 . S
C1680 C1683 1.403 . S
H1681 C1687 0.930 . S
C1682 H1668 0.930 . S
C1682 C1680 1.395 . S
C1682 C1685 1.403 . S
C1683 C1680 1.403 . S
C1683 C1684 1.524 . S
C1683 C1687 1.400 . S
C1684 H1669 0.960 . S
C1684 H1670 0.960 . S
C1684 H1671 0.960 . S
C1684 C1683 1.524 . S
C1685 C1682 1.403 . S
C1685 C1686 1.392 . S
C1685 C1689 1.495 . S
C1686 C1685 1.392 . S
C1686 C1687 1.385 . S
C1686 C1688 1.478 . S
C1687 H1681 0.930 . S
C1687 C1683 1.400 . S
C1687 C1686 1.385 . S
C1688 C1686 1.478 . S
C1688 C1690 1.381 . S
C1688 C1694 1.383 . S
C1689 C1685 1.495 . S
C1689 H1695 0.959 . S
C1689 H1696 0.961 . S
C1689 H1697 0.960 . S
C1690 C1688 1.381 . S
C1690 C1691 1.394 . S
C1690 H1698 0.930 . S
C1691 C1690 1.394 . S
C1691 C1692 1.383 . S
C1691 H1699 0.929 . S
C1692 C1691 1.383 . S
C1692 C1693 1.377 . S
C1693 H1677 0.930 . S
C1693 C1692 1.377 . S
C1693 C1694 1.379 . S
C1694 H1678 0.931 . S
C1694 C1688 1.383 . S
C1694 C1693 1.379 . S
H1695 C1689 0.959 . S
H1696 C1689 0.961 . S
H1697 C1689 0.960 . S
H1698 C1690 0.930 . S
H1699 C1691 0.929 . S
H1700 C1708 0.929 . S
H1701 C1710 0.930 . S
H1702 C1712 0.930 . S
H1703 C1715 0.929 . S
H1704 C1718 0.930 . S
H1705 C1720 0.960 . S
H1706 C1720 0.960 . S
H1707 C1720 0.960 . S
C1708 H1700 0.929 . S
C1708 C1709 1.377 . S
C1708 C1710 1.384 . S
C1709 C1708 1.377 . S
C1709 C1715 1.390 . S
C1710 H1701 0.930 . S
C1710 C1708 1.384 . S
C1710 C1711 1.372 . S
C1711 C1710 1.372 . S
C1711 C1712 1.400 . S
C1711 C1716 1.490 . S
C1712 H1702 0.930 . S
C1712 C1711 1.400 . S
C1712 C1715 1.386 . S
H1713 C1729 0.930 . S
H1714 C1730 0.931 . S
C1715 H1703 0.929 . S
C1715 C1709 1.390 . S
C1715 C1712 1.386 . S
C1716 C1711 1.490 . S
C1716 C1718 1.395 . S
C1716 C1719 1.403 . S
H1717 C1723 0.930 . S
C1718 H1704 0.930 . S
C1718 C1716 1.395 . S
C1718 C1721 1.403 . S
C1719 C1716 1.403 . S
C1719 C1720 1.524 . S
C1719 C1723 1.400 . S
C1720 H1705 0.960 . S
C1720 H1706 0.960 . S
C1720 H1707 0.960 . S
C1720 C1719 1.524 . S
C1721 C1718 1.403 . S
C1721 C1722 1.392 . S
C1721 C1725 1.495 . S
C1722 C1721 1.392 . S
C1722 C1723 1.385 . S
C1722 C1724 1.478 . S
C1723 H1717 0.930 . S
C1723 C1719 1.400 . S
C1723 C1722 1.385 . S
C1724 C1722 1.478 . S
C1724 C1726 1.381 . S
C1724 C1730 1.383 . S
C1725 C1721 1.495 . S
C1725 H1731 0.959 . S
C1725 H1732 0.961 . S
C1725 H1733 0.960 . S
C1726 C1724 1.381 . S
C1726 C1727 1.394 . S
C1726 H1734 0.930 . S
C1727 C1726 1.394 . S
C1727 C1728 1.383 . S
C1727 H1735 0.929 . S
C1728 C1727 1.383 . S
C1728 C1729 1.377 . S
C1729 H1713 0.930 . S
C1729 C1728 1.377 . S
C1729 C1730 1.379 . S
C1730 H1714 0.931 . S
C1730 C1724 1.383 . S
C1730 C1729 1.379 . S
H1731 C1725 0.959 . S
H1732 C1725 0.961 . S
H1733 C1725 0.960 . S
H1734 C1726 0.930 . S
H1735 C1727 0.929 . S
H1736 C1744 0.929 . S
H1737 C1746 0.930 . S
H1738 C1748 0.930 . S
H1739 C1751 0.929 . S
H1740 C1754 0.930 . S
H1741 C1756 0.960 . S
H1742 C1756 0.960 . S
H1743 C1756 0.960 . S
C1744 H1736 0.929 . S
C1744 C1745 1.377 . S
C1744 C1746 1.384 . S
C1745 C1744 1.377 . S
C1745 C1751 1.390 . S
C1746 H1737 0.930 . S
C1746 C1744 1.384 . S
C1746 C1747 1.372 . S
C1747 C1746 1.372 . S
C1747 C1748 1.400 . S
C1747 C1752 1.490 . S
C1748 H1738 0.930 . S
C1748 C1747 1.400 . S
C1748 C1751 1.386 . S
H1749 C1765 0.930 . S
H1750 C1766 0.931 . S
C1751 H1739 0.929 . S
C1751 C1745 1.390 . S
C1751 C1748 1.386 . S
C1752 C1747 1.490 . S
C1752 C1754 1.395 . S
C1752 C1755 1.403 . S
H1753 C1759 0.930 . S
C1754 H1740 0.930 . S
C1754 C1752 1.395 . S
C1754 C1757 1.403 . S
C1755 C1752 1.403 . S
C1755 C1756 1.524 . S
C1755 C1759 1.400 . S
C1756 H1741 0.960 . S
C1756 H1742 0.960 . S
C1756 H1743 0.960 . S
C1756 C1755 1.524 . S
C1757 C1754 1.403 . S
C1757 C1758 1.392 . S
C1757 C1761 1.495 . S
C1758 C1757 1.392 . S
C1758 C1759 1.385 . S
C1758 C1760 1.478 . S
C1759 H1753 0.930 . S
C1759 C1755 1.400 . S
C1759 C1758 1.385 . S
C1760 C1758 1.478 . S
C1760 C1762 1.381 . S
C1760 C1766 1.383 . S
C1761 C1757 1.495 . S
C1761 H1767 0.959 . S
C1761 H1768 0.961 . S
C1761 H1769 0.960 . S
C1762 C1760 1.381 . S
C1762 C1763 1.394 . S
C1762 H1770 0.930 . S
C1763 C1762 1.394 . S
C1763 C1764 1.383 . S
C1763 H1771 0.929 . S
C1764 C1763 1.383 . S
C1764 C1765 1.377 . S
C1765 H1749 0.930 . S
C1765 C1764 1.377 . S
C1765 C1766 1.379 . S
C1766 H1750 0.931 . S
C1766 C1760 1.383 . S
C1766 C1765 1.379 . S
H1767 C1761 0.959 . S
H1768 C1761 0.961 . S
H1769 C1761 0.960 . S
H1770 C1762 0.930 . S
H1771 C1763 0.929 . S
H1772 C1780 0.929 . S
H1773 C1782 0.930 . S
H1774 C1784 0.930 . S
H1775 C1787 0.929 . S
H1776 C1790 0.930 . S
H1777 C1792 0.960 . S
H1778 C1792 0.960 . S
H1779 C1792 0.960 . S
C1780 H1772 0.929 . S
C1780 C1781 1.377 . S
C1780 C1782 1.384 . S
C1781 C1780 1.377 . S
C1781 C1787 1.390 . S
C1782 H1773 0.930 . S
C1782 C1780 1.384 . S
C1782 C1783 1.372 . S
C1783 C1782 1.372 . S
C1783 C1784 1.400 . S
C1783 C1788 1.490 . S
C1784 H1774 0.930 . S
C1784 C1783 1.400 . S
C1784 C1787 1.386 . S
H1785 C1801 0.930 . S
H1786 C1802 0.931 . S
C1787 H1775 0.929 . S
C1787 C1781 1.390 . S
C1787 C1784 1.386 . S
C1788 C1783 1.490 . S
C1788 C1790 1.395 . S
C1788 C1791 1.403 . S
H1789 C1795 0.930 . S
C1790 H1776 0.930 . S
C1790 C1788 1.395 . S
C1790 C1793 1.403 . S
C1791 C1788 1.403 . S
C1791 C1792 1.524 . S
C1791 C1795 1.400 . S
C1792 H1777 0.960 . S
C1792 H1778 0.960 . S
C1792 H1779 0.960 . S
C1792 C1791 1.524 . S
C1793 C1790 1.403 . S
C1793 C1794 1.392 . S
C1793 C1797 1.495 . S
C1794 C1793 1.392 . S
C1794 C1795 1.385 . S
C1794 C1796 1.478 . S
C1795 H1789 0.930 . S
C1795 C1791 1.400 . S
C1795 C1794 1.385 . S
C1796 C1794 1.478 . S
C1796 C1798 1.381 . S
C1796 C1802 1.383 . S
C1797 C1793 1.495 . S
C1797 H1803 0.959 . S
C1797 H1804 0.961 . S
C1797 H1805 0.960 . S
C1798 C1796 1.381 . S
C1798 C1799 1.394 . S
C1798 H1806 0.930 . S
C1799 C1798 1.394 . S
C1799 C1800 1.383 . S
C1799 H1807 0.929 . S
C1800 C1799 1.383 . S
C1800 C1801 1.377 . S
C1801 H1785 0.930 . S
C1801 C1800 1.377 . S
C1801 C1802 1.379 . S
C1802 H1786 0.931 . S
C1802 C1796 1.383 . S
C1802 C1801 1.379 . S
H1803 C1797 0.959 . S
H1804 C1797 0.961 . S
H1805 C1797 0.960 . S
H1806 C1798 0.930 . S
H1807 C1799 0.929 . S
H1808 C1816 0.929 . S
H1809 C1818 0.930 . S
H1810 C1820 0.930 . S
H1811 C1823 0.929 . S
H1812 C1826 0.930 . S
H1813 C1828 0.960 . S
H1814 C1828 0.960 . S
H1815 C1828 0.960 . S
C1816 H1808 0.929 . S
C1816 C1817 1.377 . S
C1816 C1818 1.384 . S
C1817 C1816 1.377 . S
C1817 C1823 1.390 . S
C1818 H1809 0.930 . S
C1818 C1816 1.384 . S
C1818 C1819 1.372 . S
C1819 C1818 1.372 . S
C1819 C1820 1.400 . S
C1819 C1824 1.490 . S
C1820 H1810 0.930 . S
C1820 C1819 1.400 . S
C1820 C1823 1.386 . S
H1821 C1837 0.930 . S
H1822 C1838 0.931 . S
C1823 H1811 0.929 . S
C1823 C1817 1.390 . S
C1823 C1820 1.386 . S
C1824 C1819 1.490 . S
C1824 C1826 1.395 . S
C1824 C1827 1.403 . S
H1825 C1831 0.930 . S
C1826 H1812 0.930 . S
C1826 C1824 1.395 . S
C1826 C1829 1.403 . S
C1827 C1824 1.403 . S
C1827 C1828 1.524 . S
C1827 C1831 1.400 . S
C1828 H1813 0.960 . S
C1828 H1814 0.960 . S
C1828 H1815 0.960 . S
C1828 C1827 1.524 . S
C1829 C1826 1.403 . S
C1829 C1830 1.392 . S
C1829 C1833 1.495 . S
C1830 C1829 1.392 . S
C1830 C1831 1.385 . S
C1830 C1832 1.478 . S
C1831 H1825 0.930 . S
C1831 C1827 1.400 . S
C1831 C1830 1.385 . S
C1832 C1830 1.478 . S
C1832 C1834 1.381 . S
C1832 C1838 1.383 . S
C1833 C1829 1.495 . S
C1833 H1839 0.959 . S
C1833 H1840 0.961 . S
C1833 H1841 0.960 . S
C1834 C1832 1.381 . S
C1834 C1835 1.394 . S
C1834 H1842 0.930 . S
C1835 C1834 1.394 . S
C1835 C1836 1.383 . S
C1835 H1843 0.929 . S
C1836 C1835 1.383 . S
C1836 C1837 1.377 . S
C1837 H1821 0.930 . S
C1837 C1836 1.377 . S
C1837 C1838 1.379 . S
C1838 H1822 0.931 . S
C1838 C1832 1.383 . S
C1838 C1837 1.379 . S
H1839 C1833 0.959 . S
H1840 C1833 0.961 . S
H1841 C1833 0.960 . S
H1842 C1834 0.930 . S
H1843 C1835 0.929 . S
H1844 C1852 0.929 . S
H1845 C1854 0.930 . S
H1846 C1856 0.930 . S
H1847 C1859 0.929 . S
H1848 C1862 0.930 . S
H1849 C1864 0.960 . S
H1850 C1864 0.960 . S
H1851 C1864 0.960 . S
C1852 H1844 0.929 . S
C1852 C1853 1.377 . S
C1852 C1854 1.384 . S
C1853 C1852 1.377 . S
C1853 C1859 1.390 . S
C1854 H1845 0.930 . S
C1854 C1852 1.384 . S
C1854 C1855 1.372 . S
C1855 C1854 1.372 . S
C1855 C1856 1.400 . S
C1855 C1860 1.490 . S
C1856 H1846 0.930 . S
C1856 C1855 1.400 . S
C1856 C1859 1.386 . S
H1857 C1873 0.930 . S
H1858 C1874 0.931 . S
C1859 H1847 0.929 . S
C1859 C1853 1.390 . S
C1859 C1856 1.386 . S
C1860 C1855 1.490 . S
C1860 C1862 1.395 . S
C1860 C1863 1.403 . S
H1861 C1867 0.930 . S
C1862 H1848 0.930 . S
C1862 C1860 1.395 . S
C1862 C1865 1.403 . S
C1863 C1860 1.403 . S
C1863 C1864 1.524 . S
C1863 C1867 1.400 . S
C1864 H1849 0.960 . S
C1864 H1850 0.960 . S
C1864 H1851 0.960 . S
C1864 C1863 1.524 . S
C1865 C1862 1.403 . S
C1865 C1866 1.392 . S
C1865 C1869 1.495 . S
C1866 C1865 1.392 . S
C1866 C1867 1.385 . S
C1866 C1868 1.478 . S
C1867 H1861 0.930 . S
C1867 C1863 1.400 . S
C1867 C1866 1.385 . S
C1868 C1866 1.478 . S
C1868 C1870 1.381 . S
C1868 C1874 1.383 . S
C1869 C1865 1.495 . S
C1869 H1875 0.959 . S
C1869 H1876 0.961 . S
C1869 H1877 0.960 . S
C1870 C1868 1.381 . S
C1870 C1871 1.394 . S
C1870 H1878 0.930 . S
C1871 C1870 1.394 . S
C1871 C1872 1.383 . S
C1871 H1879 0.929 . S
C1872 C1871 1.383 . S
C1872 C1873 1.377 . S
C1873 H1857 0.930 . S
C1873 C1872 1.377 . S
C1873 C1874 1.379 . S
C1874 H1858 0.931 . S
C1874 C1868 1.383 . S
C1874 C1873 1.379 . S
H1875 C1869 0.959 . S
H1876 C1869 0.961 . S
H1877 C1869 0.960 . S
H1878 C1870 0.930 . S
H1879 C1871 0.929 . S
H1880 C1888 0.929 . S
H1881 C1890 0.930 . S
H1882 C1892 0.930 . S
H1883 C1895 0.929 . S
H1884 C1898 0.930 . S
H1885 C1900 0.960 . S
H1886 C1900 0.960 . S
H1887 C1900 0.960 . S
C1888 H1880 0.929 . S
C1888 C1889 1.377 . S
C1888 C1890 1.384 . S
C1889 C1888 1.377 . S
C1889 C1895 1.390 . S
C1890 H1881 0.930 . S
C1890 C1888 1.384 . S
C1890 C1891 1.372 . S
C1891 C1890 1.372 . S
C1891 C1892 1.400 . S
C1891 C1896 1.490 . S
C1892 H1882 0.930 . S
C1892 C1891 1.400 . S
C1892 C1895 1.386 . S
H1893 C1909 0.930 . S
H1894 C1910 0.931 . S
C1895 H1883 0.929 . S
C1895 C1889 1.390 . S
C1895 C1892 1.386 . S
C1896 C1891 1.490 . S
C1896 C1898 1.395 . S
C1896 C1899 1.403 . S
H1897 C1903 0.930 . S
C1898 H1884 0.930 . S
C1898 C1896 1.395 . S
C1898 C1901 1.403 . S
C1899 C1896 1.403 . S
C1899 C1900 1.524 . S
C1899 C1903 1.400 . S
C1900 H1885 0.960 . S
C1900 H1886 0.960 . S
C1900 H1887 0.960 . S
C1900 C1899 1.524 . S
C1901 C1898 1.403 . S
C1901 C1902 1.392 . S
C1901 C1905 1.495 . S
C1902 C1901 1.392 . S
C1902 C1903 1.385 . S
C1902 C1904 1.478 . S
C1903 H1897 0.930 . S
C1903 C1899 1.400 . S
C1903 C1902 1.385 . S
C1904 C1902 1.478 . S
C1904 C1906 1.381 . S
C1904 C1910 1.383 . S
C1905 C1901 1.495 . S
C1905 H1911 0.959 . S
C1905 H1912 0.961 . S
C1905 H1913 0.960 . S
C1906 C1904 1.381 . S
C1906 C1907 1.394 . S
C1906 H1914 0.930 . S
C1907 C1906 1.394 . S
C1907 C1908 1.383 . S
C1907 H1915 0.929 . S
C1908 C1907 1.383 . S
C1908 C1909 1.377 . S
C1909 H1893 0.930 . S
C1909 C1908 1.377 . S
C1909 C1910 1.379 . S
C1910 H1894 0.931 . S
C1910 C1904 1.383 . S
C1910 C1909 1.379 . S
H1911 C1905 0.959 . S
H1912 C1905 0.961 . S
H1913 C1905 0.960 . S
H1914 C1906 0.930 . S
H1915 C1907 0.929 . S
H1916 C1924 0.929 . S
H1917 C1926 0.930 . S
H1918 C1928 0.930 . S
H1919 C1931 0.929 . S
H1920 C1934 0.930 . S
H1921 C1936 0.960 . S
H1922 C1936 0.960 . S
H1923 C1936 0.960 . S
C1924 H1916 0.929 . S
C1924 C1925 1.377 . S
C1924 C1926 1.384 . S
C1925 C1924 1.377 . S
C1925 C1931 1.390 . S
C1926 H1917 0.930 . S
C1926 C1924 1.384 . S
C1926 C1927 1.372 . S
C1927 C1926 1.372 . S
C1927 C1928 1.400 . S
C1927 C1932 1.490 . S
C1928 H1918 0.930 . S
C1928 C1927 1.400 . S
C1928 C1931 1.386 . S
H1929 C1945 0.930 . S
H1930 C1946 0.931 . S
C1931 H1919 0.929 . S
C1931 C1925 1.390 . S
C1931 C1928 1.386 . S
C1932 C1927 1.490 . S
C1932 C1934 1.395 . S
C1932 C1935 1.403 . S
H1933 C1939 0.930 . S
C1934 H1920 0.930 . S
C1934 C1932 1.395 . S
C1934 C1937 1.403 . S
C1935 C1932 1.403 . S
C1935 C1936 1.524 . S
C1935 C1939 1.400 . S
C1936 H1921 0.960 . S
C1936 H1922 0.960 . S
C1936 H1923 0.960 . S
C1936 C1935 1.524 . S
C1937 C1934 1.403 . S
C1937 C1938 1.392 . S
C1937 C1941 1.495 . S
C1938 C1937 1.392 . S
C1938 C1939 1.385 . S
C1938 C1940 1.478 . S
C1939 H1933 0.930 . S
C1939 C1935 1.400 . S
C1939 C1938 1.385 . S
C1940 C1938 1.478 . S
C1940 C1942 1.381 . S
C1940 C1946 1.383 . S
C1941 C1937 1.495 . S
C1941 H1947 0.959 . S
C1941 H1948 0.961 . S
C1941 H1949 0.960 . S
C1942 C1940 1.381 . S
C1942 C1943 1.394 . S
C1942 H1950 0.930 . S
C1943 C1942 1.394 . S
C1943 C1944 1.383 . S
C1943 H1951 0.929 . S
C1944 C1943 1.383 . S
C1944 C1945 1.377 . S
C1945 H1929 0.930 . S
C1945 C1944 1.377 . S
C1945 C1946 1.379 . S
C1946 H1930 0.931 . S
C1946 C1940 1.383 . S
C1946 C1945 1.379 . S
H1947 C1941 0.959 . S
H1948 C1941 0.961 . S
H1949 C1941 0.960 . S
H1950 C1942 0.930 . S
H1951 C1943 0.929 . S
H1952 C1960 0.929 . S
H1953 C1962 0.930 . S
H1954 C1964 0.930 . S
H1955 C1967 0.929 . S
H1956 C1970 0.930 . S
H1957 C1972 0.960 . S
H1958 C1972 0.960 . S
H1959 C1972 0.960 . S
C1960 H1952 0.929 . S
C1960 C1961 1.377 . S
C1960 C1962 1.384 . S
C1961 C1960 1.377 . S
C1961 C1967 1.390 . S
C1962 H1953 0.930 . S
C1962 C1960 1.384 . S
C1962 C1963 1.372 . S
C1963 C1962 1.372 . S
C1963 C1964 1.400 . S
C1963 C1968 1.490 . S
C1964 H1954 0.930 . S
C1964 C1963 1.400 . S
C1964 C1967 1.386 . S
H1965 C1981 0.930 . S
H1966 C1982 0.931 . S
C1967 H1955 0.929 . S
C1967 C1961 1.390 . S
C1967 C1964 1.386 . S
C1968 C1963 1.490 . S
C1968 C1970 1.395 . S
C1968 C1971 1.403 . S
H1969 C1975 0.930 . S
C1970 H1956 0.930 . S
C1970 C1968 1.395 . S
C1970 C1973 1.403 . S
C1971 C1968 1.403 . S
C1971 C1972 1.524 . S
C1971 C1975 1.400 . S
C1972 H1957 0.960 . S
C1972 H1958 0.960 . S
C1972 H1959 0.960 . S
C1972 C1971 1.524 . S
C1973 C1970 1.403 . S
C1973 C1974 1.392 . S
C1973 C1977 1.495 . S
C1974 C1973 1.392 . S
C1974 C1975 1.385 . S
C1974 C1976 1.478 . S
C1975 H1969 0.930 . S
C1975 C1971 1.400 . S
C1975 C1974 1.385 . S
C1976 C1974 1.478 . S
C1976 C1978 1.381 . S
C1976 C1982 1.383 . S
C1977 C1973 1.495 . S
C1977 H1983 0.959 . S
C1977 H1984 0.961 . S
C1977 H1985 0.960 . S
C1978 C1976 1.381 . S
C1978 C1979 1.394 . S
C1978 H1986 0.930 . S
C1979 C1978 1.394 . S
C1979 C1980 1.383 . S
C1979 H1987 0.929 . S
C1980 C1979 1.383 . S
C1980 C1981 1.377 . S
C1981 H1965 0.930 . S
C1981 C1980 1.377 . S
C1981 C1982 1.379 . S
C1982 H1966 0.931 . S
C1982 C1976 1.383 . S
C1982 C1981 1.379 . S
H1983 C1977 0.959 . S
H1984 C1977 0.961 . S
H1985 C1977 0.960 . S
H1986 C1978 0.930 . S
H1987 C1979 0.929 . S
H1988 C1996 0.929 . S
H1989 C1998 0.930 . S
H1990 C2000 0.930 . S
H1991 C2003 0.929 . S
H1992 C2006 0.930 . S
H1993 C2008 0.960 . S
H1994 C2008 0.960 . S
H1995 C2008 0.960 . S
C1996 H1988 0.929 . S
C1996 C1997 1.377 . S
C1996 C1998 1.384 . S
C1997 C1996 1.377 . S
C1997 C2003 1.390 . S
C1998 H1989 0.930 . S
C1998 C1996 1.384 . S
C1998 C1999 1.372 . S
C1999 C1998 1.372 . S
C1999 C2000 1.400 . S
C1999 C2004 1.490 . S
C2000 H1990 0.930 . S
C2000 C1999 1.400 . S
C2000 C2003 1.386 . S
H2001 C2017 0.930 . S
H2002 C2018 0.931 . S
C2003 H1991 0.929 . S
C2003 C1997 1.390 . S
C2003 C2000 1.386 . S
C2004 C1999 1.490 . S
C2004 C2006 1.395 . S
C2004 C2007 1.403 . S
H2005 C2011 0.930 . S
C2006 H1992 0.930 . S
C2006 C2004 1.395 . S
C2006 C2009 1.403 . S
C2007 C2004 1.403 . S
C2007 C2008 1.524 . S
C2007 C2011 1.400 . S
C2008 H1993 0.960 . S
C2008 H1994 0.960 . S
C2008 H1995 0.960 . S
C2008 C2007 1.524 . S
C2009 C2006 1.403 . S
C2009 C2010 1.392 . S
C2009 C2013 1.495 . S
C2010 C2009 1.392 . S
C2010 C2011 1.385 . S
C2010 C2012 1.478 . S
C2011 H2005 0.930 . S
C2011 C2007 1.400 . S
C2011 C2010 1.385 . S
C2012 C2010 1.478 . S
C2012 C2014 1.381 . S
C2012 C2018 1.383 . S
C2013 C2009 1.495 . S
C2013 H2019 0.959 . S
C2013 H2020 0.961 . S
C2013 H2021 0.960 . S
C2014 C2012 1.381 . S
C2014 C2015 1.394 . S
C2014 H2022 0.930 . S
C2015 C2014 1.394 . S
C2015 C2016 1.383 . S
C2015 H2023 0.929 . S
C2016 C2015 1.383 . S
C2016 C2017 1.377 . S
C2017 H2001 0.930 . S
C2017 C2016 1.377 . S
C2017 C2018 1.379 . S
C2018 H2002 0.931 . S
C2018 C2012 1.383 . S
C2018 C2017 1.379 . S
H2019 C2013 0.959 . S
H2020 C2013 0.961 . S
H2021 C2013 0.960 . S
H2022 C2014 0.930 . S
H2023 C2015 0.929 . S
H2024 C2032 0.929 . S
H2025 C2034 0.930 . S
H2026 C2036 0.930 . S
H2027 C2039 0.929 . S
H2028 C2042 0.930 . S
H2029 C2044 0.960 . S
H2030 C2044 0.960 . S
H2031 C2044 0.960 . S
C2032 H2024 0.929 . S
C2032 C2033 1.377 . S
C2032 C2034 1.384 . S
C2033 C2032 1.377 . S
C2033 C2039 1.390 . S
C2034 H2025 0.930 . S
C2034 C2032 1.384 . S
C2034 C2035 1.372 . S
C2035 C2034 1.372 . S
C2035 C2036 1.400 . S
C2035 C2040 1.490 . S
C2036 H2026 0.930 . S
C2036 C2035 1.400 . S
C2036 C2039 1.386 . S
H2037 C2053 0.930 . S
H2038 C2054 0.931 . S
C2039 H2027 0.929 . S
C2039 C2033 1.390 . S
C2039 C2036 1.386 . S
C2040 C2035 1.490 . S
C2040 C2042 1.395 . S
C2040 C2043 1.403 . S
H2041 C2047 0.930 . S
C2042 H2028 0.930 . S
C2042 C2040 1.395 . S
C2042 C2045 1.403 . S
C2043 C2040 1.403 . S
C2043 C2044 1.524 . S
C2043 C2047 1.400 . S
C2044 H2029 0.960 . S
C2044 H2030 0.960 . S
C2044 H2031 0.960 . S
C2044 C2043 1.524 . S
C2045 C2042 1.403 . S
C2045 C2046 1.392 . S
C2045 C2049 1.495 . S
C2046 C2045 1.392 . S
C2046 C2047 1.385 . S
C2046 C2048 1.478 . S
C2047 H2041 0.930 . S
C2047 C2043 1.400 . S
C2047 C2046 1.385 . S
C2048 C2046 1.478 . S
C2048 C2050 1.381 . S
C2048 C2054 1.383 . S
C2049 C2045 1.495 . S
C2049 H2055 0.959 . S
C2049 H2056 0.961 . S
C2049 H2057 0.960 . S
C2050 C2048 1.381 . S
C2050 C2051 1.394 . S
C2050 H2058 0.930 . S
C2051 C2050 1.394 . S
C2051 C2052 1.383 . S
C2051 H2059 0.929 . S
C2052 C2051 1.383 . S
C2052 C2053 1.377 . S
C2053 H2037 0.930 . S
C2053 C2052 1.377 . S
C2053 C2054 1.379 . S
C2054 H2038 0.931 . S
C2054 C2048 1.383 . S
C2054 C2053 1.379 . S
H2055 C2049 0.959 . S
H2056 C2049 0.961 . S
H2057 C2049 0.960 . S
H2058 C2050 0.930 . S
H2059 C2051 0.929 . S
H2060 C2068 0.929 . S
H2061 C2070 0.930 . S
H2062 C2072 0.930 . S
H2063 C2075 0.929 . S
H2064 C2078 0.930 . S
H2065 C2080 0.960 . S
H2066 C2080 0.960 . S
H2067 C2080 0.960 . S
C2068 H2060 0.929 . S
C2068 C2069 1.377 . S
C2068 C2070 1.384 . S
C2069 C2068 1.377 . S
C2069 C2075 1.390 . S
C2070 H2061 0.930 . S
C2070 C2068 1.384 . S
C2070 C2071 1.372 . S
C2071 C2070 1.372 . S
C2071 C2072 1.400 . S
C2071 C2076 1.490 . S
C2072 H2062 0.930 . S
C2072 C2071 1.400 . S
C2072 C2075 1.386 . S
H2073 C2089 0.930 . S
H2074 C2090 0.931 . S
C2075 H2063 0.929 . S
C2075 C2069 1.390 . S
C2075 C2072 1.386 . S
C2076 C2071 1.490 . S
C2076 C2078 1.395 . S
C2076 C2079 1.403 . S
H2077 C2083 0.930 . S
C2078 H2064 0.930 . S
C2078 C2076 1.395 . S
C2078 C2081 1.403 . S
C2079 C2076 1.403 . S
C2079 C2080 1.524 . S
C2079 C2083 1.400 . S
C2080 H2065 0.960 . S
C2080 H2066 0.960 . S
C2080 H2067 0.960 . S
C2080 C2079 1.524 . S
C2081 C2078 1.403 . S
C2081 C2082 1.392 . S
C2081 C2085 1.495 . S
C2082 C2081 1.392 . S
C2082 C2083 1.385 . S
C2082 C2084 1.478 . S
C2083 H2077 0.930 . S
C2083 C2079 1.400 . S
C2083 C2082 1.385 . S
C2084 C2082 1.478 . S
C2084 C2086 1.381 . S
C2084 C2090 1.383 . S
C2085 C2081 1.495 . S
C2085 H2091 0.959 . S
C2085 H2092 0.961 . S
C2085 H2093 0.960 . S
C2086 C2084 1.381 . S
C2086 C2087 1.394 . S
C2086 H2094 0.930 . S
C2087 C2086 1.394 . S
C2087 C2088 1.383 . S
C2087 H2095 0.929 . S
C2088 C2087 1.383 . S
C2088 C2089 1.377 . S
C2089 H2073 0.930 . S
C2089 C2088 1.377 . S
C2089 C2090 1.379 . S
C2090 H2074 0.931 . S
C2090 C2084 1.383 . S
C2090 C2089 1.379 . S
H2091 C2085 0.959 . S
H2092 C2085 0.961 . S
H2093 C2085 0.960 . S
H2094 C2086 0.930 . S
H2095 C2087 0.929 . S
H2096 C2104 0.929 . S
H2097 C2106 0.930 . S
H2098 C2108 0.930 . S
H2099 C2111 0.929 . S
H2100 C2114 0.930 . S
H2101 C2116 0.960 . S
H2102 C2116 0.960 . S
H2103 C2116 0.960 . S
C2104 H2096 0.929 . S
C2104 C2105 1.377 . S
C2104 C2106 1.384 . S
C2105 C2104 1.377 . S
C2105 C2111 1.390 . S
C2106 H2097 0.930 . S
C2106 C2104 1.384 . S
C2106 C2107 1.372 . S
C2107 C2106 1.372 . S
C2107 C2108 1.400 . S
C2107 C2112 1.490 . S
C2108 H2098 0.930 . S
C2108 C2107 1.400 . S
C2108 C2111 1.386 . S
H2109 C2125 0.930 . S
H2110 C2126 0.931 . S
C2111 H2099 0.929 . S
C2111 C2105 1.390 . S
C2111 C2108 1.386 . S
C2112 C2107 1.490 . S
C2112 C2114 1.395 . S
C2112 C2115 1.403 . S
H2113 C2119 0.930 . S
C2114 H2100 0.930 . S
C2114 C2112 1.395 . S
C2114 C2117 1.403 . S
C2115 C2112 1.403 . S
C2115 C2116 1.524 . S
C2115 C2119 1.400 . S
C2116 H2101 0.960 . S
C2116 H2102 0.960 . S
C2116 H2103 0.960 . S
C2116 C2115 1.524 . S
C2117 C2114 1.403 . S
C2117 C2118 1.392 . S
C2117 C2121 1.495 . S
C2118 C2117 1.392 . S
C2118 C2119 1.385 . S
C2118 C2120 1.478 . S
C2119 H2113 0.930 . S
C2119 C2115 1.400 . S
C2119 C2118 1.385 . S
C2120 C2118 1.478 . S
C2120 C2122 1.381 . S
C2120 C2126 1.383 . S
C2121 C2117 1.495 . S
C2121 H2127 0.959 . S
C2121 H2128 0.961 . S
C2121 H2129 0.960 . S
C2122 C2120 1.381 . S
C2122 C2123 1.394 . S
C2122 H2130 0.930 . S
C2123 C2122 1.394 . S
C2123 C2124 1.383 . S
C2123 H2131 0.929 . S
C2124 C2123 1.383 . S
C2124 C2125 1.377 . S
C2125 H2109 0.930 . S
C2125 C2124 1.377 . S
C2125 C2126 1.379 . S
C2126 H2110 0.931 . S
C2126 C2120 1.383 . S
C2126 C2125 1.379 . S
H2127 C2121 0.959 . S
H2128 C2121 0.961 . S
H2129 C2121 0.960 . S
H2130 C2122 0.930 . S
H2131 C2123 0.929 . S
H2132 C2140 0.929 . S
H2133 C2142 0.930 . S
H2134 C2144 0.930 . S
H2135 C2147 0.929 . S
H2136 C2150 0.930 . S
H2137 C2152 0.960 . S
H2138 C2152 0.960 . S
H2139 C2152 0.960 . S
C2140 H2132 0.929 . S
C2140 C2141 1.377 . S
C2140 C2142 1.384 . S
C2141 C2140 1.377 . S
C2141 C2147 1.390 . S
C2142 H2133 0.930 . S
C2142 C2140 1.384 . S
C2142 C2143 1.372 . S
C2143 C2142 1.372 . S
C2143 C2144 1.400 . S
C2143 C2148 1.490 . S
C2144 H2134 0.930 . S
C2144 C2143 1.400 . S
C2144 C2147 1.386 . S
H2145 C2161 0.930 . S
H2146 C2162 0.931 . S
C2147 H2135 0.929 . S
C2147 C2141 1.390 . S
C2147 C2144 1.386 . S
C2148 C2143 1.490 . S
C2148 C2150 1.395 . S
C2148 C2151 1.403 . S
H2149 C2155 0.930 . S
C2150 H2136 0.930 . S
C2150 C2148 1.395 . S
C2150 C2153 1.403 . S
C2151 C2148 1.403 . S
C2151 C2152 1.524 . S
C2151 C2155 1.400 . S
C2152 H2137 0.960 . S
C2152 H2138 0.960 . S
C2152 H2139 0.960 . S
C2152 C2151 1.524 . S
C2153 C2150 1.403 . S
C2153 C2154 1.392 . S
C2153 C2157 1.495 . S
C2154 C2153 1.392 . S
C2154 C2155 1.385 . S
C2154 C2156 1.478 . S
C2155 H2149 0.930 . S
C2155 C2151 1.400 . S
C2155 C2154 1.385 . S
C2156 C2154 1.478 . S
C2156 C2158 1.381 . S
C2156 C2162 1.383 . S
C2157 C2153 1.495 . S
C2157 H2163 0.959 . S
C2157 H2164 0.961 . S
C2157 H2165 0.960 . S
C2158 C2156 1.381 . S
C2158 C2159 1.394 . S
C2158 H2166 0.930 . S
C2159 C2158 1.394 . S
C2159 C2160 1.383 . S
C2159 H2167 0.929 . S
C2160 C2159 1.383 . S
C2160 C2161 1.377 . S
C2161 H2145 0.930 . S
C2161 C2160 1.377 . S
C2161 C2162 1.379 . S
C2162 H2146 0.931 . S
C2162 C2156 1.383 . S
C2162 C2161 1.379 . S
H2163 C2157 0.959 . S
H2164 C2157 0.961 . S
H2165 C2157 0.960 . S
H2166 C2158 0.930 . S
H2167 C2159 0.929 . S
H2168 C2176 0.929 . S
H2169 C2178 0.930 . S
H2170 C2180 0.930 . S
H2171 C2183 0.929 . S
H2172 C2186 0.930 . S
H2173 C2188 0.960 . S
H2174 C2188 0.960 . S
H2175 C2188 0.960 . S
C2176 H2168 0.929 . S
C2176 C2177 1.377 . S
C2176 C2178 1.384 . S
C2177 C2176 1.377 . S
C2177 C2183 1.390 . S
C2178 H2169 0.930 . S
C2178 C2176 1.384 . S
C2178 C2179 1.372 . S
C2179 C2178 1.372 . S
C2179 C2180 1.400 . S
C2179 C2184 1.490 . S
C2180 H2170 0.930 . S
C2180 C2179 1.400 . S
C2180 C2183 1.386 . S
H2181 C2197 0.930 . S
H2182 C2198 0.931 . S
C2183 H2171 0.929 . S
C2183 C2177 1.390 . S
C2183 C2180 1.386 . S
C2184 C2179 1.490 . S
C2184 C2186 1.395 . S
C2184 C2187 1.403 . S
H2185 C2191 0.930 . S
C2186 H2172 0.930 . S
C2186 C2184 1.395 . S
C2186 C2189 1.403 . S
C2187 C2184 1.403 . S
C2187 C2188 1.524 . S
C2187 C2191 1.400 . S
C2188 H2173 0.960 . S
C2188 H2174 0.960 . S
C2188 H2175 0.960 . S
C2188 C2187 1.524 . S
C2189 C2186 1.403 . S
C2189 C2190 1.392 . S
C2189 C2193 1.495 . S
C2190 C2189 1.392 . S
C2190 C2191 1.385 . S
C2190 C2192 1.478 . S
C2191 H2185 0.930 . S
C2191 C2187 1.400 . S
C2191 C2190 1.385 . S
C2192 C2190 1.478 . S
C2192 C2194 1.381 . S
C2192 C2198 1.383 . S
C2193 C2189 1.495 . S
C2193 H2199 0.959 . S
C2193 H2200 0.961 . S
C2193 H2201 0.960 . S
C2194 C2192 1.381 . S
C2194 C2195 1.394 . S
C2194 H2202 0.930 . S
C2195 C2194 1.394 . S
C2195 C2196 1.383 . S
C2195 H2203 0.929 . S
C2196 C2195 1.383 . S
C2196 C2197 1.377 . S
C2197 H2181 0.930 . S
C2197 C2196 1.377 . S
C2197 C2198 1.379 . S
C2198 H2182 0.931 . S
C2198 C2192 1.383 . S
C2198 C2197 1.379 . S
H2199 C2193 0.959 . S
H2200 C2193 0.961 . S
H2201 C2193 0.960 . S
H2202 C2194 0.930 . S
H2203 C2195 0.929 . S
H2204 C2212 0.929 . S
H2205 C2214 0.930 . S
H2206 C2216 0.930 . S
H2207 C2219 0.929 . S
H2208 C2222 0.930 . S
H2209 C2224 0.960 . S
H2210 C2224 0.960 . S
H2211 C2224 0.960 . S
C2212 H2204 0.929 . S
C2212 C2213 1.377 . S
C2212 C2214 1.384 . S
C2213 C2212 1.377 . S
C2213 C2219 1.390 . S
C2214 H2205 0.930 . S
C2214 C2212 1.384 . S
C2214 C2215 1.372 . S
C2215 C2214 1.372 . S
C2215 C2216 1.400 . S
C2215 C2220 1.490 . S
C2216 H2206 0.930 . S
C2216 C2215 1.400 . S
C2216 C2219 1.386 . S
H2217 C2233 0.930 . S
H2218 C2234 0.931 . S
C2219 H2207 0.929 . S
C2219 C2213 1.390 . S
C2219 C2216 1.386 . S
C2220 C2215 1.490 . S
C2220 C2222 1.395 . S
C2220 C2223 1.403 . S
H2221 C2227 0.930 . S
C2222 H2208 0.930 . S
C2222 C2220 1.395 . S
C2222 C2225 1.403 . S
C2223 C2220 1.403 . S
C2223 C2224 1.524 . S
C2223 C2227 1.400 . S
C2224 H2209 0.960 . S
C2224 H2210 0.960 . S
C2224 H2211 0.960 . S
C2224 C2223 1.524 . S
C2225 C2222 1.403 . S
C2225 C2226 1.392 . S
C2225 C2229 1.495 . S
C2226 C2225 1.392 . S
C2226 C2227 1.385 . S
C2226 C2228 1.478 . S
C2227 H2221 0.930 . S
C2227 C2223 1.400 . S
C2227 C2226 1.385 . S
C2228 C2226 1.478 . S
C2228 C2230 1.381 . S
C2228 C2234 1.383 . S
C2229 C2225 1.495 . S
C2229 H2235 0.959 . S
C2229 H2236 0.961 . S
C2229 H2237 0.960 . S
C2230 C2228 1.381 . S
C2230 C2231 1.394 . S
C2230 H2238 0.930 . S
C2231 C2230 1.394 . S
C2231 C2232 1.383 . S
C2231 H2239 0.929 . S
C2232 C2231 1.383 . S
C2232 C2233 1.377 . S
C2233 H2217 0.930 . S
C2233 C2232 1.377 . S
C2233 C2234 1.379 . S
C2234 H2218 0.931 . S
C2234 C2228 1.383 . S
C2234 C2233 1.379 . S
H2235 C2229 0.959 . S
H2236 C2229 0.961 . S
H2237 C2229 0.960 . S
H2238 C2230 0.930 . S
H2239 C2231 0.929 . S
H2240 C2248 0.929 . S
H2241 C2250 0.930 . S
H2242 C2252 0.930 . S
H2243 C2255 0.929 . S
H2244 C2258 0.930 . S
H2245 C2260 0.960 . S
H2246 C2260 0.960 . S
H2247 C2260 0.960 . S
C2248 H2240 0.929 . S
C2248 C2249 1.377 . S
C2248 C2250 1.384 . S
C2249 C2248 1.377 . S
C2249 C2255 1.390 . S
C2250 H2241 0.930 . S
C2250 C2248 1.384 . S
C2250 C2251 1.372 . S
C2251 C2250 1.372 . S
C2251 C2252 1.400 . S
C2251 C2256 1.490 . S
C2252 H2242 0.930 . S
C2252 C2251 1.400 . S
C2252 C2255 1.386 . S
H2253 C2269 0.930 . S
H2254 C2270 0.931 . S
C2255 H2243 0.929 . S
C2255 C2249 1.390 . S
C2255 C2252 1.386 . S
C2256 C2251 1.490 . S
C2256 C2258 1.395 . S
C2256 C2259 1.403 . S
H2257 C2263 0.930 . S
C2258 H2244 0.930 . S
C2258 C2256 1.395 . S
C2258 C2261 1.403 . S
C2259 C2256 1.403 . S
C2259 C2260 1.524 . S
C2259 C2263 1.400 . S
C2260 H2245 0.960 . S
C2260 H2246 0.960 . S
C2260 H2247 0.960 . S
C2260 C2259 1.524 . S
C2261 C2258 1.403 . S
C2261 C2262 1.392 . S
C2261 C2265 1.495 . S
C2262 C2261 1.392 . S
C2262 C2263 1.385 . S
C2262 C2264 1.478 . S
C2263 H2257 0.930 . S
C2263 C2259 1.400 . S
C2263 C2262 1.385 . S
C2264 C2262 1.478 . S
C2264 C2266 1.381 . S
C2264 C2270 1.383 . S
C2265 C2261 1.495 . S
C2265 H2271 0.959 . S
C2265 H2272 0.961 . S
C2265 H2273 0.960 . S
C2266 C2264 1.381 . S
C2266 C2267 1.394 . S
C2266 H2274 0.930 . S
C2267 C2266 1.394 . S
C2267 C2268 1.383 . S
C2267 H2275 0.929 . S
C2268 C2267 1.383 . S
C2268 C2269 1.377 . S
C2269 H2253 0.930 . S
C2269 C2268 1.377 . S
C2269 C2270 1.379 . S
C2270 H2254 0.931 . S
C2270 C2264 1.383 . S
C2270 C2269 1.379 . S
H2271 C2265 0.959 . S
H2272 C2265 0.961 . S
H2273 C2265 0.960 . S
H2274 C2266 0.930 . S
H2275 C2267 0.929 . S
H2276 C2284 0.929 . S
H2277 C2286 0.930 . S
H2278 C2288 0.930 . S
H2279 C2291 0.929 . S
H2280 C2294 0.930 . S
H2281 C2296 0.960 . S
H2282 C2296 0.960 . S
H2283 C2296 0.960 . S
C2284 H2276 0.929 . S
C2284 C2285 1.377 . S
C2284 C2286 1.384 . S
C2285 C2284 1.377 . S
C2285 C2291 1.390 . S
C2286 H2277 0.930 . S
C2286 C2284 1.384 . S
C2286 C2287 1.372 . S
C2287 C2286 1.372 . S
C2287 C2288 1.400 . S
C2287 C2292 1.490 . S
C2288 H2278 0.930 . S
C2288 C2287 1.400 . S
C2288 C2291 1.386 . S
H2289 C2305 0.930 . S
H2290 C2306 0.931 . S
C2291 H2279 0.929 . S
C2291 C2285 1.390 . S
C2291 C2288 1.386 . S
C2292 C2287 1.490 . S
C2292 C2294 1.395 . S
C2292 C2295 1.403 . S
H2293 C2299 0.930 . S
C2294 H2280 0.930 . S
C2294 C2292 1.395 . S
C2294 C2297 1.403 . S
C2295 C2292 1.403 . S
C2295 C2296 1.524 . S
C2295 C2299 1.400 . S
C2296 H2281 0.960 . S
C2296 H2282 0.960 . S
C2296 H2283 0.960 . S
C2296 C2295 1.524 . S
C2297 C2294 1.403 . S
C2297 C2298 1.392 . S
C2297 C2301 1.495 . S
C2298 C2297 1.392 . S
C2298 C2299 1.385 . S
C2298 C2300 1.478 . S
C2299 H2293 0.930 . S
C2299 C2295 1.400 . S
C2299 C2298 1.385 . S
C2300 C2298 1.478 . S
C2300 C2302 1.381 . S
C2300 C2306 1.383 . S
C2301 C2297 1.495 . S
C2301 H2307 0.959 . S
C2301 H2308 0.961 . S
C2301 H2309 0.960 . S
C2302 C2300 1.381 . S
C2302 C2303 1.394 . S
C2302 H2310 0.930 . S
C2303 C2302 1.394 . S
C2303 C2304 1.383 . S
C2303 H2311 0.929 . S
C2304 C2303 1.383 . S
C2304 C2305 1.377 . S
C2305 H2289 0.930 . S
C2305 C2304 1.377 . S
C2305 C2306 1.379 . S
C2306 H2290 0.931 . S
C2306 C2300 1.383 . S
C2306 C2305 1.379 . S
H2307 C2301 0.959 . S
H2308 C2301 0.961 . S
H2309 C2301 0.960 . S
H2310 C2302 0.930 . S
H2311 C2303 0.929 . S
H2312 C2320 0.929 . S
H2313 C2322 0.930 . S
H2314 C2324 0.930 . S
H2315 C2327 0.929 . S
H2316 C2330 0.930 . S
H2317 C2332 0.960 . S
H2318 C2332 0.960 . S
H2319 C2332 0.960 . S
C2320 H2312 0.929 . S
C2320 C2321 1.377 . S
C2320 C2322 1.384 . S
C2321 C2320 1.377 . S
C2321 C2327 1.390 . S
C2322 H2313 0.930 . S
C2322 C2320 1.384 . S
C2322 C2323 1.372 . S
C2323 C2322 1.372 . S
C2323 C2324 1.400 . S
C2323 C2328 1.490 . S
C2324 H2314 0.930 . S
C2324 C2323 1.400 . S
C2324 C2327 1.386 . S
H2325 C2341 0.930 . S
H2326 C2342 0.931 . S
C2327 H2315 0.929 . S
C2327 C2321 1.390 . S
C2327 C2324 1.386 . S
C2328 C2323 1.490 . S
C2328 C2330 1.395 . S
C2328 C2331 1.403 . S
H2329 C2335 0.930 . S
C2330 H2316 0.930 . S
C2330 C2328 1.395 . S
C2330 C2333 1.403 . S
C2331 C2328 1.403 . S
C2331 C2332 1.524 . S
C2331 C2335 1.400 . S
C2332 H2317 0.960 . S
C2332 H2318 0.960 . S
C2332 H2319 0.960 . S
C2332 C2331 1.524 . S
C2333 C2330 1.403 . S
C2333 C2334 1.392 . S
C2333 C2337 1.495 . S
C2334 C2333 1.392 . S
C2334 C2335 1.385 . S
C2334 C2336 1.478 . S
C2335 H2329 0.930 . S
C2335 C2331 1.400 . S
C2335 C2334 1.385 . S
C2336 C2334 1.478 . S
C2336 C2338 1.381 . S
C2336 C2342 1.383 . S
C2337 C2333 1.495 . S
C2337 H2343 0.959 . S
C2337 H2344 0.961 . S
C2337 H2345 0.960 . S
C2338 C2336 1.381 . S
C2338 C2339 1.394 . S
C2338 H2346 0.930 . S
C2339 C2338 1.394 . S
C2339 C2340 1.383 . S
C2339 H2347 0.929 . S
C2340 C2339 1.383 . S
C2340 C2341 1.377 . S
C2341 H2325 0.930 . S
C2341 C2340 1.377 . S
C2341 C2342 1.379 . S
C2342 H2326 0.931 . S
C2342 C2336 1.383 . S
C2342 C2341 1.379 . S
H2343 C2337 0.959 . S
H2344 C2337 0.961 . S
H2345 C2337 0.960 . S
H2346 C2338 0.930 . S
H2347 C2339 0.929 . S
H2348 C2356 0.929 . S
H2349 C2358 0.930 . S
H2350 C2360 0.930 . S
H2351 C2363 0.929 . S
H2352 C2366 0.930 . S
H2353 C2368 0.960 . S
H2354 C2368 0.960 . S
H2355 C2368 0.960 . S
C2356 H2348 0.929 . S
C2356 C2357 1.377 . S
C2356 C2358 1.384 . S
C2357 C2356 1.377 . S
C2357 C2363 1.390 . S
C2358 H2349 0.930 . S
C2358 C2356 1.384 . S
C2358 C2359 1.372 . S
C2359 C2358 1.372 . S
C2359 C2360 1.400 . S
C2359 C2364 1.490 . S
C2360 H2350 0.930 . S
C2360 C2359 1.400 . S
C2360 C2363 1.386 . S
H2361 C2377 0.930 . S
H2362 C2378 0.931 . S
C2363 H2351 0.929 . S
C2363 C2357 1.390 . S
C2363 C2360 1.386 . S
C2364 C2359 1.490 . S
C2364 C2366 1.395 . S
C2364 C2367 1.403 . S
H2365 C2371 0.930 . S
C2366 H2352 0.930 . S
C2366 C2364 1.395 . S
C2366 C2369 1.403 . S
C2367 C2364 1.403 . S
C2367 C2368 1.524 . S
C2367 C2371 1.400 . S
C2368 H2353 0.960 . S
C2368 H2354 0.960 . S
C2368 H2355 0.960 . S
C2368 C2367 1.524 . S
C2369 C2366 1.403 . S
C2369 C2370 1.392 . S
C2369 C2373 1.495 . S
C2370 C2369 1.392 . S
C2370 C2371 1.385 . S
C2370 C2372 1.478 . S
C2371 H2365 0.930 . S
C2371 C2367 1.400 . S
C2371 C2370 1.385 . S
C2372 C2370 1.478 . S
C2372 C2374 1.381 . S
C2372 C2378 1.383 . S
C2373 C2369 1.495 . S
C2373 H2379 0.959 . S
C2373 H2380 0.961 . S
C2373 H2381 0.960 . S
C2374 C2372 1.381 . S
C2374 C2375 1.394 . S
C2374 H2382 0.930 . S
C2375 C2374 1.394 . S
C2375 C2376 1.383 . S
C2375 H2383 0.929 . S
C2376 C2375 1.383 . S
C2376 C2377 1.377 . S
C2377 H2361 0.930 . S
C2377 C2376 1.377 . S
C2377 C2378 1.379 . S
C2378 H2362 0.931 . S
C2378 C2372 1.383 . S
C2378 C2377 1.379 . S
H2379 C2373 0.959 . S
H2380 C2373 0.961 . S
H2381 C2373 0.960 . S
H2382 C2374 0.930 . S
H2383 C2375 0.929 . S
H2384 C2392 0.929 . S
H2385 C2394 0.930 . S
H2386 C2396 0.930 . S
H2387 C2399 0.929 . S
H2388 C2402 0.930 . S
H2389 C2404 0.960 . S
H2390 C2404 0.960 . S
H2391 C2404 0.960 . S
C2392 H2384 0.929 . S
C2392 C2393 1.377 . S
C2392 C2394 1.384 . S
C2393 C2392 1.377 . S
C2393 C2399 1.390 . S
C2394 H2385 0.930 . S
C2394 C2392 1.384 . S
C2394 C2395 1.372 . S
C2395 C2394 1.372 . S
C2395 C2396 1.400 . S
C2395 C2400 1.490 . S
C2396 H2386 0.930 . S
C2396 C2395 1.400 . S
C2396 C2399 1.386 . S
H2397 C2413 0.930 . S
H2398 C2414 0.931 . S
C2399 H2387 0.929 . S
C2399 C2393 1.390 . S
C2399 C2396 1.386 . S
C2400 C2395 1.490 . S
C2400 C2402 1.395 . S
C2400 C2403 1.403 . S
H2401 C2407 0.930 . S
C2402 H2388 0.930 . S
C2402 C2400 1.395 . S
C2402 C2405 1.403 . S
C2403 C2400 1.403 . S
C2403 C2404 1.524 . S
C2403 C2407 1.400 . S
C2404 H2389 0.960 . S
C2404 H2390 0.960 . S
C2404 H2391 0.960 . S
C2404 C2403 1.524 . S
C2405 C2402 1.403 . S
C2405 C2406 1.392 . S
C2405 C2409 1.495 . S
C2406 C2405 1.392 . S
C2406 C2407 1.385 . S
C2406 C2408 1.478 . S
C2407 H2401 0.930 . S
C2407 C2403 1.400 . S
C2407 C2406 1.385 . S
C2408 C2406 1.478 . S
C2408 C2410 1.381 . S
C2408 C2414 1.383 . S
C2409 C2405 1.495 . S
C2409 H2415 0.959 . S
C2409 H2416 0.961 . S
C2409 H2417 0.960 . S
C2410 C2408 1.381 . S
C2410 C2411 1.394 . S
C2410 H2418 0.930 . S
C2411 C2410 1.394 . S
C2411 C2412 1.383 . S
C2411 H2419 0.929 . S
C2412 C2411 1.383 . S
C2412 C2413 1.377 . S
C2413 H2397 0.930 . S
C2413 C2412 1.377 . S
C2413 C2414 1.379 . S
C2414 H2398 0.931 . S
C2414 C2408 1.383 . S
C2414 C2413 1.379 . S
H2415 C2409 0.959 . S
H2416 C2409 0.961 . S
H2417 C2409 0.960 . S
H2418 C2410 0.930 . S
H2419 C2411 0.929 . S
H2420 C2428 0.929 . S
H2421 C2430 0.930 . S
H2422 C2432 0.930 . S
H2423 C2435 0.929 . S
H2424 C2438 0.930 . S
H2425 C2440 0.960 . S
H2426 C2440 0.960 . S
H2427 C2440 0.960 . S
C2428 H2420 0.929 . S
C2428 C2429 1.377 . S
C2428 C2430 1.384 . S
C2429 C2428 1.377 . S
C2429 C2435 1.390 . S
C2430 H2421 0.930 . S
C2430 C2428 1.384 . S
C2430 C2431 1.372 . S
C2431 C2430 1.372 . S
C2431 C2432 1.400 . S
C2431 C2436 1.490 . S
C2432 H2422 0.930 . S
C2432 C2431 1.400 . S
C2432 C2435 1.386 . S
H2433 C2449 0.930 . S
H2434 C2450 0.931 . S
C2435 H2423 0.929 . S
C2435 C2429 1.390 . S
C2435 C2432 1.386 . S
C2436 C2431 1.490 . S
C2436 C2438 1.395 . S
C2436 C2439 1.403 . S
H2437 C2443 0.930 . S
C2438 H2424 0.930 . S
C2438 C2436 1.395 . S
C2438 C2441 1.403 . S
C2439 C2436 1.403 . S
C2439 C2440 1.524 . S
C2439 C2443 1.400 . S
C2440 H2425 0.960 . S
C2440 H2426 0.960 . S
C2440 H2427 0.960 . S
C2440 C2439 1.524 . S
C2441 C2438 1.403 . S
C2441 C2442 1.392 . S
C2441 C2445 1.495 . S
C2442 C2441 1.392 . S
C2442 C2443 1.385 . S
C2442 C2444 1.478 . S
C2443 H2437 0.930 . S
C2443 C2439 1.400 . S
C2443 C2442 1.385 . S
C2444 C2442 1.478 . S
C2444 C2446 1.381 . S
C2444 C2450 1.383 . S
C2445 C2441 1.495 . S
C2445 H2451 0.959 . S
C2445 H2452 0.961 . S
C2445 H2453 0.960 . S
C2446 C2444 1.381 . S
C2446 C2447 1.394 . S
C2446 H2454 0.930 . S
C2447 C2446 1.394 . S
C2447 C2448 1.383 . S
C2447 H2455 0.929 . S
C2448 C2447 1.383 . S
C2448 C2449 1.377 . S
C2449 H2433 0.930 . S
C2449 C2448 1.377 . S
C2449 C2450 1.379 . S
C2450 H2434 0.931 . S
C2450 C2444 1.383 . S
C2450 C2449 1.379 . S
H2451 C2445 0.959 . S
H2452 C2445 0.961 . S
H2453 C2445 0.960 . S
H2454 C2446 0.930 . S
H2455 C2447 0.929 . S
H2456 C2464 0.929 . S
H2457 C2466 0.930 . S
H2458 C2468 0.930 . S
H2459 C2471 0.929 . S
H2460 C2474 0.930 . S
H2461 C2476 0.960 . S
H2462 C2476 0.960 . S
H2463 C2476 0.960 . S
C2464 H2456 0.929 . S
C2464 C2465 1.377 . S
C2464 C2466 1.384 . S
C2465 C2464 1.377 . S
C2465 C2471 1.390 . S
C2466 H2457 0.930 . S
C2466 C2464 1.384 . S
C2466 C2467 1.372 . S
C2467 C2466 1.372 . S
C2467 C2468 1.400 . S
C2467 C2472 1.490 . S
C2468 H2458 0.930 . S
C2468 C2467 1.400 . S
C2468 C2471 1.386 . S
H2469 C2485 0.930 . S
H2470 C2486 0.931 . S
C2471 H2459 0.929 . S
C2471 C2465 1.390 . S
C2471 C2468 1.386 . S
C2472 C2467 1.490 . S
C2472 C2474 1.395 . S
C2472 C2475 1.403 . S
H2473 C2479 0.930 . S
C2474 H2460 0.930 . S
C2474 C2472 1.395 . S
C2474 C2477 1.403 . S
C2475 C2472 1.403 . S
C2475 C2476 1.524 . S
C2475 C2479 1.400 . S
C2476 H2461 0.960 . S
C2476 H2462 0.960 . S
C2476 H2463 0.960 . S
C2476 C2475 1.524 . S
C2477 C2474 1.403 . S
C2477 C2478 1.392 . S
C2477 C2481 1.495 . S
C2478 C2477 1.392 . S
C2478 C2479 1.385 . S
C2478 C2480 1.478 . S
C2479 H2473 0.930 . S
C2479 C2475 1.400 . S
C2479 C2478 1.385 . S
C2480 C2478 1.478 . S
C2480 C2482 1.381 . S
C2480 C2486 1.383 . S
C2481 C2477 1.495 . S
C2481 H2487 0.959 . S
C2481 H2488 0.961 . S
C2481 H2489 0.960 . S
C2482 C2480 1.381 . S
C2482 C2483 1.394 . S
C2482 H2490 0.930 . S
C2483 C2482 1.394 . S
C2483 C2484 1.383 . S
C2483 H2491 0.929 . S
C2484 C2483 1.383 . S
C2484 C2485 1.377 . S
C2485 H2469 0.930 . S
C2485 C2484 1.377 . S
C2485 C2486 1.379 . S
C2486 H2470 0.931 . S
C2486 C2480 1.383 . S
C2486 C2485 1.379 . S
H2487 C2481 0.959 . S
H2488 C2481 0.961 . S
H2489 C2481 0.960 . S
H2490 C2482 0.930 . S
H2491 C2483 0.929 . S
H2492 C2500 0.929 . S
H2493 C2502 0.930 . S
H2494 C2504 0.930 . S
H2495 C2507 0.929 . S
H2496 C2510 0.930 . S
H2497 C2512 0.960 . S
H2498 C2512 0.960 . S
H2499 C2512 0.960 . S
C2500 H2492 0.929 . S
C2500 C2501 1.377 . S
C2500 C2502 1.384 . S
C2501 C2500 1.377 . S
C2501 C2507 1.390 . S
C2502 H2493 0.930 . S
C2502 C2500 1.384 . S
C2502 C2503 1.372 . S
C2503 C2502 1.372 . S
C2503 C2504 1.400 . S
C2503 C2508 1.490 . S
C2504 H2494 0.930 . S
C2504 C2503 1.400 . S
C2504 C2507 1.386 . S
H2505 C2521 0.930 . S
H2506 C2522 0.931 . S
C2507 H2495 0.929 . S
C2507 C2501 1.390 . S
C2507 C2504 1.386 . S
C2508 C2503 1.490 . S
C2508 C2510 1.395 . S
C2508 C2511 1.403 . S
H2509 C2515 0.930 . S
C2510 H2496 0.930 . S
C2510 C2508 1.395 . S
C2510 C2513 1.403 . S
C2511 C2508 1.403 . S
C2511 C2512 1.524 . S
C2511 C2515 1.400 . S
C2512 H2497 0.960 . S
C2512 H2498 0.960 . S
C2512 H2499 0.960 . S
C2512 C2511 1.524 . S
C2513 C2510 1.403 . S
C2513 C2514 1.392 . S
C2513 C2517 1.495 . S
C2514 C2513 1.392 . S
C2514 C2515 1.385 . S
C2514 C2516 1.478 . S
C2515 H2509 0.930 . S
C2515 C2511 1.400 . S
C2515 C2514 1.385 . S
C2516 C2514 1.478 . S
C2516 C2518 1.381 . S
C2516 C2522 1.383 . S
C2517 C2513 1.495 . S
C2517 H2523 0.959 . S
C2517 H2524 0.961 . S
C2517 H2525 0.960 . S
C2518 C2516 1.381 . S
C2518 C2519 1.394 . S
C2518 H2526 0.930 . S
C2519 C2518 1.394 . S
C2519 C2520 1.383 . S
C2519 H2527 0.929 . S
C2520 C2519 1.383 . S
C2520 C2521 1.377 . S
C2521 H2505 0.930 . S
C2521 C2520 1.377 . S
C2521 C2522 1.379 . S
C2522 H2506 0.931 . S
C2522 C2516 1.383 . S
C2522 C2521 1.379 . S
H2523 C2517 0.959 . S
H2524 C2517 0.961 . S
H2525 C2517 0.960 . S
H2526 C2518 0.930 . S
H2527 C2519 0.929 . S
H2528 C2536 0.929 . S
H2529 C2538 0.930 . S
H2530 C2540 0.930 . S
H2531 C2543 0.929 . S
H2532 C2546 0.930 . S
H2533 C2548 0.960 . S
H2534 C2548 0.960 . S
H2535 C2548 0.960 . S
C2536 H2528 0.929 . S
C2536 C2537 1.377 . S
C2536 C2538 1.384 . S
C2537 C2536 1.377 . S
C2537 C2543 1.390 . S
C2538 H2529 0.930 . S
C2538 C2536 1.384 . S
C2538 C2539 1.372 . S
C2539 C2538 1.372 . S
C2539 C2540 1.400 . S
C2539 C2544 1.490 . S
C2540 H2530 0.930 . S
C2540 C2539 1.400 . S
C2540 C2543 1.386 . S
H2541 C2557 0.930 . S
H2542 C2558 0.931 . S
C2543 H2531 0.929 . S
C2543 C2537 1.390 . S
C2543 C2540 1.386 . S
C2544 C2539 1.490 . S
C2544 C2546 1.395 . S
C2544 C2547 1.403 . S
H2545 C2551 0.930 . S
C2546 H2532 0.930 . S
C2546 C2544 1.395 . S
C2546 C2549 1.403 . S
C2547 C2544 1.403 . S
C2547 C2548 1.524 . S
C2547 C2551 1.400 . S
C2548 H2533 0.960 . S
C2548 H2534 0.960 . S
C2548 H2535 0.960 . S
C2548 C2547 1.524 . S
C2549 C2546 1.403 . S
C2549 C2550 1.392 . S
C2549 C2553 1.495 . S
C2550 C2549 1.392 . S
C2550 C2551 1.385 . S
C2550 C2552 1.478 . S
C2551 H2545 0.930 . S
C2551 C2547 1.400 . S
C2551 C2550 1.385 . S
C2552 C2550 1.478 . S
C2552 C2554 1.381 . S
C2552 C2558 1.383 . S
C2553 C2549 1.495 . S
C2553 H2559 0.959 . S
C2553 H2560 0.961 . S
C2553 H2561 0.960 . S
C2554 C2552 1.381 . S
C2554 C2555 1.394 . S
C2554 H2562 0.930 . S
C2555 C2554 1.394 . S
C2555 C2556 1.383 . S
C2555 H2563 0.929 . S
C2556 C2555 1.383 . S
C2556 C2557 1.377 . S
C2557 H2541 0.930 . S
C2557 C2556 1.377 . S
C2557 C2558 1.379 . S
C2558 H2542 0.931 . S
C2558 C2552 1.383 . S
C2558 C2557 1.379 . S
H2559 C2553 0.959 . S
H2560 C2553 0.961 . S
H2561 C2553 0.960 . S
H2562 C2554 0.930 . S
H2563 C2555 0.929 . S
H2564 C2572 0.929 . S
H2565 C2574 0.930 . S
H2566 C2576 0.930 . S
H2567 C2579 0.929 . S
H2568 C2582 0.930 . S
H2569 C2584 0.960 . S
H2570 C2584 0.960 . S
H2571 C2584 0.960 . S
C2572 H2564 0.929 . S
C2572 C2573 1.377 . S
C2572 C2574 1.384 . S
C2573 C2572 1.377 . S
C2573 C2579 1.390 . S
C2574 H2565 0.930 . S
C2574 C2572 1.384 . S
C2574 C2575 1.372 . S
C2575 C2574 1.372 . S
C2575 C2576 1.400 . S
C2575 C2580 1.490 . S
C2576 H2566 0.930 . S
C2576 C2575 1.400 . S
C2576 C2579 1.386 . S
H2577 C2593 0.930 . S
H2578 C2594 0.931 . S
C2579 H2567 0.929 . S
C2579 C2573 1.390 . S
C2579 C2576 1.386 . S
C2580 C2575 1.490 . S
C2580 C2582 1.395 . S
C2580 C2583 1.403 . S
H2581 C2587 0.930 . S
C2582 H2568 0.930 . S
C2582 C2580 1.395 . S
C2582 C2585 1.403 . S
C2583 C2580 1.403 . S
C2583 C2584 1.524 . S
C2583 C2587 1.400 . S
C2584 H2569 0.960 . S
C2584 H2570 0.960 . S
C2584 H2571 0.960 . S
C2584 C2583 1.524 . S
C2585 C2582 1.403 . S
C2585 C2586 1.392 . S
C2585 C2589 1.495 . S
C2586 C2585 1.392 . S
C2586 C2587 1.385 . S
C2586 C2588 1.478 . S
C2587 H2581 0.930 . S
C2587 C2583 1.400 . S
C2587 C2586 1.385 . S
C2588 C2586 1.478 . S
C2588 C2590 1.381 . S
C2588 C2594 1.383 . S
C2589 C2585 1.495 . S
C2589 H2595 0.959 . S
C2589 H2596 0.961 . S
C2589 H2597 0.960 . S
C2590 C2588 1.381 . S
C2590 C2591 1.394 . S
C2590 H2598 0.930 . S
C2591 C2590 1.394 . S
C2591 C2592 1.383 . S
C2591 H2599 0.929 . S
C2592 C2591 1.383 . S
C2592 C2593 1.377 . S
C2593 H2577 0.930 . S
C2593 C2592 1.377 . S
C2593 C2594 1.379 . S
C2594 H2578 0.931 . S
C2594 C2588 1.383 . S
C2594 C2593 1.379 . S
H2595 C2589 0.959 . S
H2596 C2589 0.961 . S
H2597 C2589 0.960 . S
H2598 C2590 0.930 . S
H2599 C2591 0.929 . S
H2600 C2608 0.929 . S
H2601 C2610 0.930 . S
H2602 C2612 0.930 . S
H2603 C2615 0.929 . S
H2604 C2618 0.930 . S
H2605 C2620 0.960 . S
H2606 C2620 0.960 . S
H2607 C2620 0.960 . S
C2608 H2600 0.929 . S
C2608 C2609 1.377 . S
C2608 C2610 1.384 . S
C2609 C2608 1.377 . S
C2609 C2615 1.390 . S
C2610 H2601 0.930 . S
C2610 C2608 1.384 . S
C2610 C2611 1.372 . S
C2611 C2610 1.372 . S
C2611 C2612 1.400 . S
C2611 C2616 1.490 . S
C2612 H2602 0.930 . S
C2612 C2611 1.400 . S
C2612 C2615 1.386 . S
H2613 C2629 0.930 . S
H2614 C2630 0.931 . S
C2615 H2603 0.929 . S
C2615 C2609 1.390 . S
C2615 C2612 1.386 . S
C2616 C2611 1.490 . S
C2616 C2618 1.395 . S
C2616 C2619 1.403 . S
H2617 C2623 0.930 . S
C2618 H2604 0.930 . S
C2618 C2616 1.395 . S
C2618 C2621 1.403 . S
C2619 C2616 1.403 . S
C2619 C2620 1.524 . S
C2619 C2623 1.400 . S
C2620 H2605 0.960 . S
C2620 H2606 0.960 . S
C2620 H2607 0.960 . S
C2620 C2619 1.524 . S
C2621 C2618 1.403 . S
C2621 C2622 1.392 . S
C2621 C2625 1.495 . S
C2622 C2621 1.392 . S
C2622 C2623 1.385 . S
C2622 C2624 1.478 . S
C2623 H2617 0.930 . S
C2623 C2619 1.400 . S
C2623 C2622 1.385 . S
C2624 C2622 1.478 . S
C2624 C2626 1.381 . S
C2624 C2630 1.383 . S
C2625 C2621 1.495 . S
C2625 H2631 0.959 . S
C2625 H2632 0.961 . S
C2625 H2633 0.960 . S
C2626 C2624 1.381 . S
C2626 C2627 1.394 . S
C2626 H2634 0.930 . S
C2627 C2626 1.394 . S
C2627 C2628 1.383 . S
C2627 H2635 0.929 . S
C2628 C2627 1.383 . S
C2628 C2629 1.377 . S
C2629 H2613 0.930 . S
C2629 C2628 1.377 . S
C2629 C2630 1.379 . S
C2630 H2614 0.931 . S
C2630 C2624 1.383 . S
C2630 C2629 1.379 . S
H2631 C2625 0.959 . S
H2632 C2625 0.961 . S
H2633 C2625 0.960 . S
H2634 C2626 0.930 . S
H2635 C2627 0.929 . S
H2636 C2644 0.929 . S
H2637 C2646 0.930 . S
H2638 C2648 0.930 . S
H2639 C2651 0.929 . S
H2640 C2654 0.930 . S
H2641 C2656 0.960 . S
H2642 C2656 0.960 . S
H2643 C2656 0.960 . S
C2644 H2636 0.929 . S
C2644 C2645 1.377 . S
C2644 C2646 1.384 . S
C2645 C2644 1.377 . S
C2645 C2651 1.390 . S
C2646 H2637 0.930 . S
C2646 C2644 1.384 . S
C2646 C2647 1.372 . S
C2647 C2646 1.372 . S
C2647 C2648 1.400 . S
C2647 C2652 1.490 . S
C2648 H2638 0.930 . S
C2648 C2647 1.400 . S
C2648 C2651 1.386 . S
H2649 C2665 0.930 . S
H2650 C2666 0.931 . S
C2651 H2639 0.929 . S
C2651 C2645 1.390 . S
C2651 C2648 1.386 . S
C2652 C2647 1.490 . S
C2652 C2654 1.395 . S
C2652 C2655 1.403 . S
H2653 C2659 0.930 . S
C2654 H2640 0.930 . S
C2654 C2652 1.395 . S
C2654 C2657 1.403 . S
C2655 C2652 1.403 . S
C2655 C2656 1.524 . S
C2655 C2659 1.400 . S
C2656 H2641 0.960 . S
C2656 H2642 0.960 . S
C2656 H2643 0.960 . S
C2656 C2655 1.524 . S
C2657 C2654 1.403 . S
C2657 C2658 1.392 . S
C2657 C2661 1.495 . S
C2658 C2657 1.392 . S
C2658 C2659 1.385 . S
C2658 C2660 1.478 . S
C2659 H2653 0.930 . S
C2659 C2655 1.400 . S
C2659 C2658 1.385 . S
C2660 C2658 1.478 . S
C2660 C2662 1.381 . S
C2660 C2666 1.383 . S
C2661 C2657 1.495 . S
C2661 H2667 0.959 . S
C2661 H2668 0.961 . S
C2661 H2669 0.960 . S
C2662 C2660 1.381 . S
C2662 C2663 1.394 . S
C2662 H2670 0.930 . S
C2663 C2662 1.394 . S
C2663 C2664 1.383 . S
C2663 H2671 0.929 . S
C2664 C2663 1.383 . S
C2664 C2665 1.377 . S
C2665 H2649 0.930 . S
C2665 C2664 1.377 . S
C2665 C2666 1.379 . S
C2666 H2650 0.931 . S
C2666 C2660 1.383 . S
C2666 C2665 1.379 . S
H2667 C2661 0.959 . S
H2668 C2661 0.961 . S
H2669 C2661 0.960 . S
H2670 C2662 0.930 . S
H2671 C2663 0.929 . S
H2672 C2680 0.929 . S
H2673 C2682 0.930 . S
H2674 C2684 0.930 . S
H2675 C2687 0.929 . S
H2676 C2690 0.930 . S
H2677 C2692 0.960 . S
H2678 C2692 0.960 . S
H2679 C2692 0.960 . S
C2680 H2672 0.929 . S
C2680 C2681 1.377 . S
C2680 C2682 1.384 . S
C2681 C2680 1.377 . S
C2681 C2687 1.390 . S
C2682 H2673 0.930 . S
C2682 C2680 1.384 . S
C2682 C2683 1.372 . S
C2683 C2682 1.372 . S
C2683 C2684 1.400 . S
C2683 C2688 1.490 . S
C2684 H2674 0.930 . S
C2684 C2683 1.400 . S
C2684 C2687 1.386 . S
H2685 C2701 0.930 . S
H2686 C2702 0.931 . S
C2687 H2675 0.929 . S
C2687 C2681 1.390 . S
C2687 C2684 1.386 . S
C2688 C2683 1.490 . S
C2688 C2690 1.395 . S
C2688 C2691 1.403 . S
H2689 C2695 0.930 . S
C2690 H2676 0.930 . S
C2690 C2688 1.395 . S
C2690 C2693 1.403 . S
C2691 C2688 1.403 . S
C2691 C2692 1.524 . S
C2691 C2695 1.400 . S
C2692 H2677 0.960 . S
C2692 H2678 0.960 . S
C2692 H2679 0.960 . S
C2692 C2691 1.524 . S
C2693 C2690 1.403 . S
C2693 C2694 1.392 . S
C2693 C2697 1.495 . S
C2694 C2693 1.392 . S
C2694 C2695 1.385 . S
C2694 C2696 1.478 . S
C2695 H2689 0.930 . S
C2695 C2691 1.400 . S
C2695 C2694 1.385 . S
C2696 C2694 1.478 . S
C2696 C2698 1.381 . S
C2696 C2702 1.383 . S
C2697 C2693 1.495 . S
C2697 H2703 0.959 . S
C2697 H2704 0.961 . S
C2697 H2705 0.960 . S
C2698 C2696 1.381 . S
C2698 C2699 1.394 . S
C2698 H2706 0.930 . S
C2699 C2698 1.394 . S
C2699 C2700 1.383 . S
C2699 H2707 0.929 . S
C2700 C2699 1.383 . S
C2700 C2701 1.377 . S
C2701 H2685 0.930 . S
C2701 C2700 1.377 . S
C2701 C2702 1.379 . S
C2702 H2686 0.931 . S
C2702 C2696 1.383 . S
C2702 C2701 1.379 . S
H2703 C2697 0.959 . S
H2704 C2697 0.961 . S
H2705 C2697 0.960 . S
H2706 C2698 0.930 . S
H2707 C2699 0.929 . S
H2708 C2716 0.929 . S
H2709 C2718 0.930 . S
H2710 C2720 0.930 . S
H2711 C2723 0.929 . S
H2712 C2726 0.930 . S
H2713 C2728 0.960 . S
H2714 C2728 0.960 . S
H2715 C2728 0.960 . S
C2716 H2708 0.929 . S
C2716 C2717 1.377 . S
C2716 C2718 1.384 . S
C2717 C2716 1.377 . S
C2717 C2723 1.390 . S
C2718 H2709 0.930 . S
C2718 C2716 1.384 . S
C2718 C2719 1.372 . S
C2719 C2718 1.372 . S
C2719 C2720 1.400 . S
C2719 C2724 1.490 . S
C2720 H2710 0.930 . S
C2720 C2719 1.400 . S
C2720 C2723 1.386 . S
H2721 C2737 0.930 . S
H2722 C2738 0.931 . S
C2723 H2711 0.929 . S
C2723 C2717 1.390 . S
C2723 C2720 1.386 . S
C2724 C2719 1.490 . S
C2724 C2726 1.395 . S
C2724 C2727 1.403 . S
H2725 C2731 0.930 . S
C2726 H2712 0.930 . S
C2726 C2724 1.395 . S
C2726 C2729 1.403 . S
C2727 C2724 1.403 . S
C2727 C2728 1.524 . S
C2727 C2731 1.400 . S
C2728 H2713 0.960 . S
C2728 H2714 0.960 . S
C2728 H2715 0.960 . S
C2728 C2727 1.524 . S
C2729 C2726 1.403 . S
C2729 C2730 1.392 . S
C2729 C2733 1.495 . S
C2730 C2729 1.392 . S
C2730 C2731 1.385 . S
C2730 C2732 1.478 . S
C2731 H2725 0.930 . S
C2731 C2727 1.400 . S
C2731 C2730 1.385 . S
C2732 C2730 1.478 . S
C2732 C2734 1.381 . S
C2732 C2738 1.383 . S
C2733 C2729 1.495 . S
C2733 H2739 0.959 . S
C2733 H2740 0.961 . S
C2733 H2741 0.960 . S
C2734 C2732 1.381 . S
C2734 C2735 1.394 . S
C2734 H2742 0.930 . S
C2735 C2734 1.394 . S
C2735 C2736 1.383 . S
C2735 H2743 0.929 . S
C2736 C2735 1.383 . S
C2736 C2737 1.377 . S
C2737 H2721 0.930 . S
C2737 C2736 1.377 . S
C2737 C2738 1.379 . S
C2738 H2722 0.931 . S
C2738 C2732 1.383 . S
C2738 C2737 1.379 . S
H2739 C2733 0.959 . S
H2740 C2733 0.961 . S
H2741 C2733 0.960 . S
H2742 C2734 0.930 . S
H2743 C2735 0.929 . S
H2744 C2752 0.929 . S
H2745 C2754 0.930 . S
H2746 C2756 0.930 . S
H2747 C2759 0.929 . S
H2748 C2762 0.930 . S
H2749 C2764 0.960 . S
H2750 C2764 0.960 . S
H2751 C2764 0.960 . S
C2752 H2744 0.929 . S
C2752 C2753 1.377 . S
C2752 C2754 1.384 . S
C2753 C2752 1.377 . S
C2753 C2759 1.390 . S
C2754 H2745 0.930 . S
C2754 C2752 1.384 . S
C2754 C2755 1.372 . S
C2755 C2754 1.372 . S
C2755 C2756 1.400 . S
C2755 C2760 1.490 . S
C2756 H2746 0.930 . S
C2756 C2755 1.400 . S
C2756 C2759 1.386 . S
H2757 C2773 0.930 . S
H2758 C2774 0.931 . S
C2759 H2747 0.929 . S
C2759 C2753 1.390 . S
C2759 C2756 1.386 . S
C2760 C2755 1.490 . S
C2760 C2762 1.395 . S
C2760 C2763 1.403 . S
H2761 C2767 0.930 . S
C2762 H2748 0.930 . S
C2762 C2760 1.395 . S
C2762 C2765 1.403 . S
C2763 C2760 1.403 . S
C2763 C2764 1.524 . S
C2763 C2767 1.400 . S
C2764 H2749 0.960 . S
C2764 H2750 0.960 . S
C2764 H2751 0.960 . S
C2764 C2763 1.524 . S
C2765 C2762 1.403 . S
C2765 C2766 1.392 . S
C2765 C2769 1.495 . S
C2766 C2765 1.392 . S
C2766 C2767 1.385 . S
C2766 C2768 1.478 . S
C2767 H2761 0.930 . S
C2767 C2763 1.400 . S
C2767 C2766 1.385 . S
C2768 C2766 1.478 . S
C2768 C2770 1.381 . S
C2768 C2774 1.383 . S
C2769 C2765 1.495 . S
C2769 H2775 0.959 . S
C2769 H2776 0.961 . S
C2769 H2777 0.960 . S
C2770 C2768 1.381 . S
C2770 C2771 1.394 . S
C2770 H2778 0.930 . S
C2771 C2770 1.394 . S
C2771 C2772 1.383 . S
C2771 H2779 0.929 . S
C2772 C2771 1.383 . S
C2772 C2773 1.377 . S
C2773 H2757 0.930 . S
C2773 C2772 1.377 . S
C2773 C2774 1.379 . S
C2774 H2758 0.931 . S
C2774 C2768 1.383 . S
C2774 C2773 1.379 . S
H2775 C2769 0.959 . S
H2776 C2769 0.961 . S
H2777 C2769 0.960 . S
H2778 C2770 0.930 . S
H2779 C2771 0.929 . S
H2780 C2788 0.929 . S
H2781 C2790 0.930 . S
H2782 C2792 0.930 . S
H2783 C2795 0.929 . S
H2784 C2798 0.930 . S
H2785 C2800 0.960 . S
H2786 C2800 0.960 . S
H2787 C2800 0.960 . S
C2788 H2780 0.929 . S
C2788 C2789 1.377 . S
C2788 C2790 1.384 . S
C2789 C2788 1.377 . S
C2789 C2795 1.390 . S
C2790 H2781 0.930 . S
C2790 C2788 1.384 . S
C2790 C2791 1.372 . S
C2791 C2790 1.372 . S
C2791 C2792 1.400 . S
C2791 C2796 1.490 . S
C2792 H2782 0.930 . S
C2792 C2791 1.400 . S
C2792 C2795 1.386 . S
H2793 C2809 0.930 . S
H2794 C2810 0.931 . S
C2795 H2783 0.929 . S
C2795 C2789 1.390 . S
C2795 C2792 1.386 . S
C2796 C2791 1.490 . S
C2796 C2798 1.395 . S
C2796 C2799 1.403 . S
H2797 C2803 0.930 . S
C2798 H2784 0.930 . S
C2798 C2796 1.395 . S
C2798 C2801 1.403 . S
C2799 C2796 1.403 . S
C2799 C2800 1.524 . S
C2799 C2803 1.400 . S
C2800 H2785 0.960 . S
C2800 H2786 0.960 . S
C2800 H2787 0.960 . S
C2800 C2799 1.524 . S
C2801 C2798 1.403 . S
C2801 C2802 1.392 . S
C2801 C2805 1.495 . S
C2802 C2801 1.392 . S
C2802 C2803 1.385 . S
C2802 C2804 1.478 . S
C2803 H2797 0.930 . S
C2803 C2799 1.400 . S
C2803 C2802 1.385 . S
C2804 C2802 1.478 . S
C2804 C2806 1.381 . S
C2804 C2810 1.383 . S
C2805 C2801 1.495 . S
C2805 H2811 0.959 . S
C2805 H2812 0.961 . S
C2805 H2813 0.960 . S
C2806 C2804 1.381 . S
C2806 C2807 1.394 . S
C2806 H2814 0.930 . S
C2807 C2806 1.394 . S
C2807 C2808 1.383 . S
C2807 H2815 0.929 . S
C2808 C2807 1.383 . S
C2808 C2809 1.377 . S
C2809 H2793 0.930 . S
C2809 C2808 1.377 . S
C2809 C2810 1.379 . S
C2810 H2794 0.931 . S
C2810 C2804 1.383 . S
C2810 C2809 1.379 . S
H2811 C2805 0.959 . S
H2812 C2805 0.961 . S
H2813 C2805 0.960 . S
H2814 C2806 0.930 . S
H2815 C2807 0.929 . S
H2816 C2824 0.929 . S
H2817 C2826 0.930 . S
H2818 C2828 0.930 . S
H2819 C2831 0.929 . S
H2820 C2834 0.930 . S
H2821 C2836 0.960 . S
H2822 C2836 0.960 . S
H2823 C2836 0.960 . S
C2824 H2816 0.929 . S
C2824 C2825 1.377 . S
C2824 C2826 1.384 . S
C2825 C2824 1.377 . S
C2825 C2831 1.390 . S
C2826 H2817 0.930 . S
C2826 C2824 1.384 . S
C2826 C2827 1.372 . S
C2827 C2826 1.372 . S
C2827 C2828 1.400 . S
C2827 C2832 1.490 . S
C2828 H2818 0.930 . S
C2828 C2827 1.400 . S
C2828 C2831 1.386 . S
H2829 C2845 0.930 . S
H2830 C2846 0.931 . S
C2831 H2819 0.929 . S
C2831 C2825 1.390 . S
C2831 C2828 1.386 . S
C2832 C2827 1.490 . S
C2832 C2834 1.395 . S
C2832 C2835 1.403 . S
H2833 C2839 0.930 . S
C2834 H2820 0.930 . S
C2834 C2832 1.395 . S
C2834 C2837 1.403 . S
C2835 C2832 1.403 . S
C2835 C2836 1.524 . S
C2835 C2839 1.400 . S
C2836 H2821 0.960 . S
C2836 H2822 0.960 . S
C2836 H2823 0.960 . S
C2836 C2835 1.524 . S
C2837 C2834 1.403 . S
C2837 C2838 1.392 . S
C2837 C2841 1.495 . S
C2838 C2837 1.392 . S
C2838 C2839 1.385 . S
C2838 C2840 1.478 . S
C2839 H2833 0.930 . S
C2839 C2835 1.400 . S
C2839 C2838 1.385 . S
C2840 C2838 1.478 . S
C2840 C2842 1.381 . S
C2840 C2846 1.383 . S
C2841 C2837 1.495 . S
C2841 H2847 0.959 . S
C2841 H2848 0.961 . S
C2841 H2849 0.960 . S
C2842 C2840 1.381 . S
C2842 C2843 1.394 . S
C2842 H2850 0.930 . S
C2843 C2842 1.394 . S
C2843 C2844 1.383 . S
C2843 H2851 0.929 . S
C2844 C2843 1.383 . S
C2844 C2845 1.377 . S
C2845 H2829 0.930 . S
C2845 C2844 1.377 . S
C2845 C2846 1.379 . S
C2846 H2830 0.931 . S
C2846 C2840 1.383 . S
C2846 C2845 1.379 . S
H2847 C2841 0.959 . S
H2848 C2841 0.961 . S
H2849 C2841 0.960 . S
H2850 C2842 0.930 . S
H2851 C2843 0.929 . S
H2852 C2860 0.929 . S
H2853 C2862 0.930 . S
H2854 C2864 0.930 . S
H2855 C2867 0.929 . S
H2856 C2870 0.930 . S
H2857 C2872 0.960 . S
H2858 C2872 0.960 . S
H2859 C2872 0.960 . S
C2860 H2852 0.929 . S
C2860 C2861 1.377 . S
C2860 C2862 1.384 . S
C2861 C2860 1.377 . S
C2861 C2867 1.390 . S
C2862 H2853 0.930 . S
C2862 C2860 1.384 . S
C2862 C2863 1.372 . S
C2863 C2862 1.372 . S
C2863 C2864 1.400 . S
C2863 C2868 1.490 . S
C2864 H2854 0.930 . S
C2864 C2863 1.400 . S
C2864 C2867 1.386 . S
H2865 C2881 0.930 . S
H2866 C2882 0.883 1_455 S
C2867 H2855 0.929 . S
C2867 C2861 1.390 . S
C2867 C2864 1.386 . S
C2868 C2863 1.490 . S
C2868 C2870 1.395 . S
C2868 C2871 1.403 1_455 S
H2869 C2875 0.930 . S
C2870 H2856 0.930 . S
C2870 C2868 1.395 . S
C2870 C2873 1.403 . S
C2871 C2868 1.403 1_655 S
C2871 C2872 1.524 . S
C2871 C2875 1.400 . S
C2872 H2857 0.960 . S
C2872 H2858 0.960 . S
C2872 H2859 0.960 . S
C2872 C2871 1.524 . S
C2873 C2870 1.403 . S
C2873 C2874 1.392 1_455 S
C2873 C2877 1.495 . S
C2874 C2873 1.392 1_655 S
C2874 C2875 1.385 . S
C2874 C2876 1.478 . S
C2875 H2869 0.930 . S
C2875 C2871 1.400 . S
C2875 C2874 1.385 . S
C2876 C2874 1.478 . S
C2876 C2878 1.381 . S
C2876 C2882 1.383 . S
C2877 C2873 1.495 . S
C2877 H2883 0.959 . S
C2877 H2884 0.961 . S
C2877 H2885 0.960 . S
C2878 C2876 1.381 . S
C2878 C2879 1.394 . S
C2878 H2886 0.930 . S
C2879 C2878 1.394 . S
C2879 C2880 1.383 . S
C2879 H2887 0.929 . S
C2880 C2879 1.383 . S
C2880 C2881 1.377 . S
C2881 H2865 0.930 . S
C2881 C2880 1.377 . S
C2881 C2882 1.379 . S
C2882 H2866 0.883 1_655 S
C2882 C2876 1.383 . S
C2882 C2881 1.379 . S
H2883 C2877 0.959 . S
H2884 C2877 0.961 . S
H2885 C2877 0.960 . S
H2886 C2878 0.930 . S
H2887 C2879 0.929 . S
H2888 C2896 0.929 . S
H2889 C2898 0.930 . S
H2890 C2900 0.930 . S
H2891 C2903 0.929 . S
H2892 C2906 0.930 . S
H2893 C2908 0.960 . S
H2894 C2908 0.960 . S
H2895 C2908 0.960 . S
C2896 H2888 0.929 . S
C2896 C2897 1.377 . S
C2896 C2898 1.384 . S
C2897 C2896 1.377 . S
C2897 C2903 1.390 . S
C2898 H2889 0.930 . S
C2898 C2896 1.384 . S
C2898 C2899 1.372 . S
C2899 C2898 1.372 . S
C2899 C2900 1.400 . S
C2899 C2904 1.490 . S
C2900 H2890 0.930 . S
C2900 C2899 1.400 . S
C2900 C2903 1.386 . S
H2901 C2917 0.930 . S
H2902 C2918 0.931 . S
C2903 H2891 0.929 . S
C2903 C2897 1.390 . S
C2903 C2900 1.386 . S
C2904 C2899 1.490 . S
C2904 C2906 1.395 . S
C2904 C2907 1.403 . S
H2905 C2911 0.930 . S
C2906 H2892 0.930 . S
C2906 C2904 1.395 . S
C2906 C2909 1.403 . S
C2907 C2904 1.403 . S
C2907 C2908 1.524 . S
C2907 C2911 1.400 . S
C2908 H2893 0.960 . S
C2908 H2894 0.960 . S
C2908 H2895 0.960 . S
C2908 C2907 1.524 . S
C2909 C2906 1.403 . S
C2909 C2910 1.392 . S
C2909 C2913 1.495 . S
C2910 C2909 1.392 . S
C2910 C2911 1.385 . S
C2910 C2912 1.478 . S
C2911 H2905 0.930 . S
C2911 C2907 1.400 . S
C2911 C2910 1.385 . S
C2912 C2910 1.478 . S
C2912 C2914 1.381 . S
C2912 C2918 1.383 . S
C2913 C2909 1.495 . S
C2913 H2919 0.959 . S
C2913 H2920 0.961 . S
C2913 H2921 0.960 . S
C2914 C2912 1.381 . S
C2914 C2915 1.394 . S
C2914 H2922 0.930 . S
C2915 C2914 1.394 . S
C2915 C2916 1.383 . S
C2915 H2923 0.929 . S
C2916 C2915 1.383 . S
C2916 C2917 1.377 . S
C2917 H2901 0.930 . S
C2917 C2916 1.377 . S
C2917 C2918 1.379 . S
C2918 H2902 0.931 . S
C2918 C2912 1.383 . S
C2918 C2917 1.379 . S
H2919 C2913 0.959 . S
H2920 C2913 0.961 . S
H2921 C2913 0.960 . S
H2922 C2914 0.930 . S
H2923 C2915 0.929 . S
H2924 C2932 0.929 . S
H2925 C2934 0.930 . S
H2926 C2936 0.930 . S
H2927 C2939 0.929 . S
H2928 C2942 0.930 . S
H2929 C2944 0.960 . S
H2930 C2944 0.960 . S
H2931 C2944 0.960 . S
C2932 H2924 0.929 . S
C2932 C2933 1.377 . S
C2932 C2934 1.384 . S
C2933 C2932 1.377 . S
C2933 C2939 1.390 . S
C2934 H2925 0.930 . S
C2934 C2932 1.384 . S
C2934 C2935 1.372 . S
C2935 C2934 1.372 . S
C2935 C2936 1.400 . S
C2935 C2940 1.490 . S
C2936 H2926 0.930 . S
C2936 C2935 1.400 . S
C2936 C2939 1.386 . S
H2937 C2953 0.930 . S
H2938 C2954 0.931 . S
C2939 H2927 0.929 . S
C2939 C2933 1.390 . S
C2939 C2936 1.386 . S
C2940 C2935 1.490 . S
C2940 C2942 1.395 . S
C2940 C2943 1.403 1_455 S
H2941 C2947 0.930 . S
C2942 H2928 0.930 . S
C2942 C2940 1.395 . S
C2942 C2945 1.403 . S
C2943 C2940 1.403 1_655 S
C2943 C2944 1.524 . S
C2943 C2947 1.400 . S
C2944 H2929 0.960 . S
C2944 H2930 0.960 . S
C2944 H2931 0.960 . S
C2944 C2943 1.524 . S
C2945 C2942 1.403 . S
C2945 C2946 1.379 1_455 S
C2945 C2949 1.495 . S
C2946 C2945 1.379 1_655 S
C2946 C2947 1.394 . S
C2946 C2948 1.483 . S
C2947 H2941 0.930 . S
C2947 C2943 1.400 . S
C2947 C2946 1.394 . S
C2948 C2946 1.483 . S
C2948 C2950 1.381 . S
C2948 C2954 1.383 . S
C2949 C2945 1.495 . S
C2949 H2955 0.959 . S
C2949 H2956 0.961 . S
C2949 H2957 0.960 . S
C2950 C2948 1.381 . S
C2950 C2951 1.394 . S
C2950 H2958 0.930 1_655 S
C2951 C2950 1.394 . S
C2951 C2952 1.383 . S
C2951 H2959 0.929 . S
C2952 C2951 1.383 . S
C2952 C2953 1.377 . S
C2953 H2937 0.930 . S
C2953 C2952 1.377 . S
C2953 C2954 1.379 . S
C2954 H2938 0.931 . S
C2954 C2948 1.383 . S
C2954 C2953 1.379 . S
H2955 C2949 0.959 . S
H2956 C2949 0.961 . S
H2957 C2949 0.960 . S
H2958 C2950 0.930 1_455 S
H2959 C2951 0.929 . S
H2960 C2968 0.929 . S
H2961 C2970 0.930 . S
H2962 C2972 0.930 . S
H2963 C2975 0.929 . S
H2964 C2978 0.930 . S
H2965 C2980 0.960 . S
H2966 C2980 0.960 . S
H2967 C2980 0.960 . S
C2968 H2960 0.929 . S
C2968 C2969 1.377 . S
C2968 C2970 1.384 . S
C2969 C2968 1.377 . S
C2969 C2975 1.390 . S
C2970 H2961 0.930 . S
C2970 C2968 1.384 . S
C2970 C2971 1.372 . S
C2971 C2970 1.372 . S
C2971 C2972 1.400 . S
C2971 C2976 1.490 . S
C2972 H2962 0.930 . S
C2972 C2971 1.400 . S
C2972 C2975 1.386 . S
H2973 C2989 0.930 . S
H2974 C2990 0.931 . S
C2975 H2963 0.929 . S
C2975 C2969 1.390 . S
C2975 C2972 1.386 . S
C2976 C2971 1.490 . S
C2976 C2978 1.395 . S
C2976 C2979 1.403 . S
H2977 C2983 0.930 . S
C2978 H2964 0.930 . S
C2978 C2976 1.395 . S
C2978 C2981 1.403 . S
C2979 C2976 1.403 . S
C2979 C2980 1.524 . S
C2979 C2983 1.400 . S
C2980 H2965 0.960 . S
C2980 H2966 0.960 . S
C2980 H2967 0.960 . S
C2980 C2979 1.524 . S
C2981 C2978 1.403 . S
C2981 C2982 1.392 . S
C2981 C2985 1.495 . S
C2982 C2981 1.392 . S
C2982 C2983 1.385 . S
C2982 C2984 1.478 . S
C2983 H2977 0.930 . S
C2983 C2979 1.400 . S
C2983 C2982 1.385 . S
C2984 C2982 1.478 . S
C2984 C2986 1.381 . S
C2984 C2990 1.383 . S
C2985 C2981 1.495 . S
C2985 H2991 0.959 . S
C2985 H2992 0.961 . S
C2985 H2993 0.960 . S
C2986 C2984 1.381 . S
C2986 C2987 1.394 . S
C2986 H2994 0.930 . S
C2987 C2986 1.394 . S
C2987 C2988 1.383 . S
C2987 H2995 0.929 . S
C2988 C2987 1.383 . S
C2988 C2989 1.377 . S
C2989 H2973 0.930 . S
C2989 C2988 1.377 . S
C2989 C2990 1.379 . S
C2990 H2974 0.931 . S
C2990 C2984 1.383 . S
C2990 C2989 1.379 . S
H2991 C2985 0.959 . S
H2992 C2985 0.961 . S
H2993 C2985 0.960 . S
H2994 C2986 0.930 . S
H2995 C2987 0.929 . S
H2996 C3004 0.929 . S
H2997 C3006 0.930 . S
H2998 C3008 0.930 1_655 S
H2999 C3011 0.929 . S
H3000 C3014 0.930 . S
H3001 C3016 0.960 . S
H3002 C3016 0.960 . S
H3003 C3016 0.960 . S
C3004 H2996 0.929 . S
C3004 C3005 1.377 . S
C3004 C3006 1.384 . S
C3005 C3004 1.377 . S
C3005 C3011 1.390 . S
C3006 H2997 0.930 . S
C3006 C3004 1.384 . S
C3006 C3007 1.372 . S
C3007 C3006 1.372 . S
C3007 C3008 1.400 . S
C3007 C3012 1.490 . S
C3008 H2998 0.930 1_455 S
C3008 C3007 1.400 . S
C3008 C3011 1.386 . S
H3009 C3025 0.930 . S
H3010 C3026 0.931 . S
C3011 H2999 0.929 . S
C3011 C3005 1.390 . S
C3011 C3008 1.386 . S
C3012 C3007 1.490 . S
C3012 C3014 1.395 1_455 S
C3012 C3015 1.403 . S
H3013 C3019 0.938 . S
C3014 H3000 0.930 . S
C3014 C3012 1.395 1_655 S
C3014 C3017 1.403 . S
C3015 C3012 1.403 . S
C3015 C3016 1.524 . S
C3015 C3019 1.400 1_455 S
C3016 H3001 0.960 . S
C3016 H3002 0.960 . S
C3016 H3003 0.960 . S
C3016 C3015 1.524 . S
C3017 C3014 1.403 . S
C3017 C3018 1.392 . S
C3017 C3021 1.495 . S
C3018 C3017 1.392 . S
C3018 C3019 1.385 . S
C3018 C3020 1.478 . S
C3019 H3013 0.938 . S
C3019 C3015 1.400 1_655 S
C3019 C3018 1.385 . S
C3020 C3018 1.478 . S
C3020 C3022 1.381 . S
C3020 C3026 1.383 . S
C3021 C3017 1.495 . S
C3021 H3027 0.959 . S
C3021 H3028 0.961 . S
C3021 H3029 0.960 . S
C3022 C3020 1.381 . S
C3022 C3023 1.394 . S
C3022 H3030 0.930 . S
C3023 C3022 1.394 . S
C3023 C3024 1.383 . S
C3023 H3031 0.929 . S
C3024 C3023 1.383 . S
C3024 C3025 1.377 . S
C3025 H3009 0.930 . S
C3025 C3024 1.377 . S
C3025 C3026 1.379 . S
C3026 H3010 0.931 . S
C3026 C3020 1.383 . S
C3026 C3025 1.379 . S
H3027 C3021 0.959 . S
H3028 C3021 0.961 . S
H3029 C3021 0.960 . S
H3030 C3022 0.930 . S
H3031 C3023 0.929 . S
H3032 C3040 0.929 . S
H3033 C3042 0.930 . S
H3034 C3044 0.930 . S
H3035 C3047 0.929 . S
H3036 C3050 0.930 . S
H3037 C3052 0.960 . S
H3038 C3052 0.960 . S
H3039 C3052 0.960 . S
C3040 H3032 0.929 . S
C3040 C3041 1.377 . S
C3040 C3042 1.384 . S
C3041 C3040 1.377 . S
C3041 C3047 1.390 . S
C3042 H3033 0.930 . S
C3042 C3040 1.384 . S
C3042 C3043 1.372 . S
C3043 C3042 1.372 . S
C3043 C3044 1.400 . S
C3043 C3048 1.490 . S
C3044 H3034 0.930 . S
C3044 C3043 1.400 . S
C3044 C3047 1.386 . S
H3045 C3061 0.930 . S
H3046 C3062 0.931 . S
C3047 H3035 0.929 . S
C3047 C3041 1.390 . S
C3047 C3044 1.386 . S
C3048 C3043 1.490 . S
C3048 C3050 1.395 . S
C3048 C3051 1.403 . S
H3049 C3055 0.930 . S
C3050 H3036 0.930 . S
C3050 C3048 1.395 . S
C3050 C3053 1.403 . S
C3051 C3048 1.403 . S
C3051 C3052 1.524 . S
C3051 C3055 1.400 . S
C3052 H3037 0.960 . S
C3052 H3038 0.960 . S
C3052 H3039 0.960 . S
C3052 C3051 1.524 . S
C3053 C3050 1.403 . S
C3053 C3054 1.392 . S
C3053 C3057 1.495 . S
C3054 C3053 1.392 . S
C3054 C3055 1.385 . S
C3054 C3056 1.478 . S
C3055 H3049 0.930 . S
C3055 C3051 1.400 . S
C3055 C3054 1.385 . S
C3056 C3054 1.478 . S
C3056 C3058 1.381 . S
C3056 C3062 1.383 . S
C3057 C3053 1.495 . S
C3057 H3063 0.959 . S
C3057 H3064 0.961 . S
C3057 H3065 0.960 . S
C3058 C3056 1.381 . S
C3058 C3059 1.394 . S
C3058 H3066 0.930 . S
C3059 C3058 1.394 . S
C3059 C3060 1.383 . S
C3059 H3067 0.929 . S
C3060 C3059 1.383 . S
C3060 C3061 1.377 . S
C3061 H3045 0.930 . S
C3061 C3060 1.377 . S
C3061 C3062 1.379 . S
C3062 H3046 0.931 . S
C3062 C3056 1.383 . S
C3062 C3061 1.379 . S
H3063 C3057 0.959 . S
H3064 C3057 0.961 . S
H3065 C3057 0.960 . S
H3066 C3058 0.930 . S
H3067 C3059 0.929 . S
H3068 C3076 0.929 . S
H3069 C3078 0.930 . S
H3070 C3080 0.930 . S
H3071 C3083 0.929 . S
H3072 C3086 0.930 . S
H3073 C3088 0.960 . S
H3074 C3088 0.960 . S
H3075 C3088 0.960 . S
C3076 H3068 0.929 . S
C3076 C3077 1.377 . S
C3076 C3078 1.384 . S
C3077 C3076 1.377 . S
C3077 C3083 1.390 . S
C3078 H3069 0.930 . S
C3078 C3076 1.384 . S
C3078 C3079 1.372 . S
C3079 C3078 1.372 . S
C3079 C3080 1.400 . S
C3079 C3084 1.490 . S
C3080 H3070 0.930 . S
C3080 C3079 1.400 . S
C3080 C3083 1.386 . S
H3081 C3097 0.930 . S
H3082 C3098 0.931 . S
C3083 H3071 0.929 . S
C3083 C3077 1.390 . S
C3083 C3080 1.386 . S
C3084 C3079 1.490 . S
C3084 C3086 1.395 1_455 S
C3084 C3087 1.403 . S
H3085 C3091 0.930 . S
C3086 H3072 0.930 . S
C3086 C3084 1.395 1_655 S
C3086 C3089 1.403 . S
C3087 C3084 1.403 . S
C3087 C3088 1.524 . S
C3087 C3091 1.400 . S
C3088 H3073 0.960 . S
C3088 H3074 0.960 . S
C3088 H3075 0.960 . S
C3088 C3087 1.524 . S
C3089 C3086 1.403 . S
C3089 C3090 1.392 . S
C3089 C3093 1.495 . S
C3090 C3089 1.392 . S
C3090 C3091 1.385 1_655 S
C3090 C3092 1.478 . S
C3091 H3085 0.930 . S
C3091 C3087 1.400 . S
C3091 C3090 1.385 1_455 S
C3092 C3090 1.478 . S
C3092 C3094 1.381 . S
C3092 C3098 1.383 . S
C3093 C3089 1.495 . S
C3093 H3099 0.959 . S
C3093 H3100 0.961 . S
C3093 H3101 0.960 . S
C3094 C3092 1.381 . S
C3094 C3095 1.394 . S
C3094 H3102 0.930 . S
C3095 C3094 1.394 . S
C3095 C3096 1.383 . S
C3095 H3103 0.929 . S
C3096 C3095 1.383 . S
C3096 C3097 1.377 . S
C3097 H3081 0.930 . S
C3097 C3096 1.377 . S
C3097 C3098 1.379 . S
C3098 H3082 0.931 . S
C3098 C3092 1.383 . S
C3098 C3097 1.379 . S
H3099 C3093 0.959 . S
H3100 C3093 0.961 . S
H3101 C3093 0.960 . S
H3102 C3094 0.930 . S
H3103 C3095 0.929 . S
H3104 C3112 0.929 . S
H3105 C3114 0.930 . S
H3106 C3116 0.930 . S
H3107 C3119 0.929 . S
H3108 C3122 0.930 . S
H3109 C3124 0.960 . S
H3110 C3124 0.960 . S
H3111 C3124 0.960 . S
C3112 H3104 0.929 . S
C3112 C3113 1.377 . S
C3112 C3114 1.384 . S
C3113 C3112 1.377 . S
C3113 C3119 1.390 . S
C3114 H3105 0.930 . S
C3114 C3112 1.384 . S
C3114 C3115 1.372 . S
C3115 C3114 1.372 . S
C3115 C3116 1.400 . S
C3115 C3120 1.490 . S
C3116 H3106 0.930 . S
C3116 C3115 1.400 . S
C3116 C3119 1.386 . S
H3117 C3133 0.930 . S
H3118 C3134 0.931 . S
C3119 H3107 0.929 . S
C3119 C3113 1.390 . S
C3119 C3116 1.386 . S
C3120 C3115 1.490 . S
C3120 C3122 1.395 . S
C3120 C3123 1.403 . S
H3121 C3127 0.930 . S
C3122 H3108 0.930 . S
C3122 C3120 1.395 . S
C3122 C3125 1.403 . S
C3123 C3120 1.403 . S
C3123 C3124 1.524 . S
C3123 C3127 1.400 . S
C3124 H3109 0.960 . S
C3124 H3110 0.960 . S
C3124 H3111 0.960 . S
C3124 C3123 1.524 . S
C3125 C3122 1.403 . S
C3125 C3126 1.392 . S
C3125 C3129 1.495 . S
C3126 C3125 1.392 . S
C3126 C3127 1.385 . S
C3126 C3128 1.478 . S
C3127 H3121 0.930 . S
C3127 C3123 1.400 . S
C3127 C3126 1.385 . S
C3128 C3126 1.478 . S
C3128 C3130 1.381 . S
C3128 C3134 1.383 . S
C3129 C3125 1.495 . S
C3129 H3135 0.959 . S
C3129 H3136 0.961 . S
C3129 H3137 0.960 . S
C3130 C3128 1.381 . S
C3130 C3131 1.394 . S
C3130 H3138 0.930 . S
C3131 C3130 1.394 . S
C3131 C3132 1.383 . S
C3131 H3139 0.929 . S
C3132 C3131 1.383 . S
C3132 C3133 1.377 . S
C3133 H3117 0.930 . S
C3133 C3132 1.377 . S
C3133 C3134 1.379 . S
C3134 H3118 0.931 . S
C3134 C3128 1.383 . S
C3134 C3133 1.379 . S
H3135 C3129 0.959 . S
H3136 C3129 0.961 . S
H3137 C3129 0.960 . S
H3138 C3130 0.930 . S
H3139 C3131 0.929 . S
H3140 C3148 0.929 . S
H3141 C3150 0.930 . S
H3142 C3152 0.930 . S
H3143 C3155 0.929 . S
H3144 C3158 0.930 . S
H3145 C3160 0.960 . S
H3146 C3160 0.960 . S
H3147 C3160 0.960 . S
C3148 H3140 0.929 . S
C3148 C3149 1.377 . S
C3148 C3150 1.384 . S
C3149 C3148 1.377 . S
C3149 C3155 1.390 . S
C3150 H3141 0.930 . S
C3150 C3148 1.384 . S
C3150 C3151 1.372 . S
C3151 C3150 1.372 . S
C3151 C3152 1.400 . S
C3151 C3156 1.490 . S
C3152 H3142 0.930 . S
C3152 C3151 1.400 . S
C3152 C3155 1.386 . S
H3153 C3169 0.930 . S
H3154 C3170 0.931 . S
C3155 H3143 0.929 . S
C3155 C3149 1.390 . S
C3155 C3152 1.386 . S
C3156 C3151 1.490 . S
C3156 C3158 1.395 1_455 S
C3156 C3159 1.403 . S
H3157 C3163 0.930 . S
C3158 H3144 0.930 . S
C3158 C3156 1.395 1_655 S
C3158 C3161 1.403 . S
C3159 C3156 1.403 . S
C3159 C3160 1.524 . S
C3159 C3163 1.400 . S
C3160 H3145 0.960 . S
C3160 H3146 0.960 . S
C3160 H3147 0.960 . S
C3160 C3159 1.524 . S
C3161 C3158 1.403 . S
C3161 C3162 1.392 . S
C3161 C3165 1.495 . S
C3162 C3161 1.392 . S
C3162 C3163 1.385 1_655 S
C3162 C3164 1.478 . S
C3163 H3157 0.930 . S
C3163 C3159 1.400 . S
C3163 C3162 1.385 1_455 S
C3164 C3162 1.478 . S
C3164 C3166 1.381 . S
C3164 C3170 1.383 . S
C3165 C3161 1.495 . S
C3165 H3171 0.959 . S
C3165 H3172 0.961 . S
C3165 H3173 0.960 . S
C3166 C3164 1.381 . S
C3166 C3167 1.394 . S
C3166 H3174 0.930 . S
C3167 C3166 1.394 . S
C3167 C3168 1.383 . S
C3167 H3175 0.929 . S
C3168 C3167 1.383 . S
C3168 C3169 1.377 . S
C3169 H3153 0.930 . S
C3169 C3168 1.377 . S
C3169 C3170 1.379 . S
C3170 H3154 0.931 . S
C3170 C3164 1.383 . S
C3170 C3169 1.379 . S
H3171 C3165 0.959 . S
H3172 C3165 0.961 . S
H3173 C3165 0.960 . S
H3174 C3166 0.930 . S
H3175 C3167 0.929 . S
H3176 C3184 0.929 . S
H3177 C3186 0.930 . S
H3178 C3188 0.930 . S
H3179 C3191 0.929 . S
H3180 C3194 0.930 . S
H3181 C3196 0.960 . S
H3182 C3196 0.960 . S
H3183 C3196 0.960 . S
C3184 H3176 0.929 . S
C3184 C3185 1.377 . S
C3184 C3186 1.384 . S
C3185 C3184 1.377 . S
C3185 C3191 1.390 . S
C3186 H3177 0.930 . S
C3186 C3184 1.384 . S
C3186 C3187 1.372 . S
C3187 C3186 1.372 . S
C3187 C3188 1.400 . S
C3187 C3192 1.490 . S
C3188 H3178 0.930 . S
C3188 C3187 1.400 . S
C3188 C3191 1.386 . S
H3189 C3205 0.930 . S
H3190 C3206 0.931 . S
C3191 H3179 0.929 . S
C3191 C3185 1.390 . S
C3191 C3188 1.386 . S
C3192 C3187 1.490 . S
C3192 C3194 1.395 . S
C3192 C3195 1.403 . S
H3193 C3199 0.930 . S
C3194 H3180 0.930 . S
C3194 C3192 1.395 . S
C3194 C3197 1.403 . S
C3195 C3192 1.403 . S
C3195 C3196 1.524 . S
C3195 C3199 1.400 . S
C3196 H3181 0.960 . S
C3196 H3182 0.960 . S
C3196 H3183 0.960 . S
C3196 C3195 1.524 . S
C3197 C3194 1.403 . S
C3197 C3198 1.392 . S
C3197 C3201 1.495 . S
C3198 C3197 1.392 . S
C3198 C3199 1.385 . S
C3198 C3200 1.478 . S
C3199 H3193 0.930 . S
C3199 C3195 1.400 . S
C3199 C3198 1.385 . S
C3200 C3198 1.478 . S
C3200 C3202 1.381 . S
C3200 C3206 1.383 . S
C3201 C3197 1.495 . S
C3201 H3207 0.959 . S
C3201 H3208 0.961 . S
C3201 H3209 0.960 . S
C3202 C3200 1.381 . S
C3202 C3203 1.394 . S
C3202 H3210 0.930 . S
C3203 C3202 1.394 . S
C3203 C3204 1.383 . S
C3203 H3211 0.929 . S
C3204 C3203 1.383 . S
C3204 C3205 1.377 . S
C3205 H3189 0.930 . S
C3205 C3204 1.377 . S
C3205 C3206 1.379 . S
C3206 H3190 0.931 . S
C3206 C3200 1.383 . S
C3206 C3205 1.379 . S
H3207 C3201 0.959 . S
H3208 C3201 0.961 . S
H3209 C3201 0.960 . S
H3210 C3202 0.930 . S
H3211 C3203 0.929 . S
H3212 C3220 0.929 . S
H3213 C3222 0.930 . S
H3214 C3224 0.930 1_455 S
H3215 C3227 0.929 . S
H3216 C3230 0.930 . S
H3217 C3232 0.960 . S
H3218 C3232 0.960 . S
H3219 C3232 0.960 . S
C3220 H3212 0.929 . S
C3220 C3221 1.377 . S
C3220 C3222 1.384 . S
C3221 C3220 1.377 . S
C3221 C3227 1.390 . S
C3222 H3213 0.930 . S
C3222 C3220 1.384 . S
C3222 C3223 1.372 . S
C3223 C3222 1.372 . S
C3223 C3224 1.400 . S
C3223 C3228 1.490 . S
C3224 H3214 0.930 1_655 S
C3224 C3223 1.400 . S
C3224 C3227 1.386 . S
H3225 C3241 0.930 . S
H3226 C3242 0.931 . S
C3227 H3215 0.929 . S
C3227 C3221 1.390 . S
C3227 C3224 1.386 . S
C3228 C3223 1.490 . S
C3228 C3230 1.395 . S
C3228 C3231 1.403 1_655 S
H3229 C3235 0.930 . S
C3230 H3216 0.930 . S
C3230 C3228 1.395 . S
C3230 C3233 1.403 . S
C3231 C3228 1.403 1_455 S
C3231 C3232 1.524 . S
C3231 C3235 1.400 . S
C3232 H3217 0.960 . S
C3232 H3218 0.960 . S
C3232 H3219 0.960 . S
C3232 C3231 1.524 . S
C3233 C3230 1.403 . S
C3233 C3234 1.392 1_655 S
C3233 C3237 1.495 . S
C3234 C3233 1.392 1_455 S
C3234 C3235 1.385 . S
C3234 C3236 1.478 . S
C3235 H3229 0.930 . S
C3235 C3231 1.400 . S
C3235 C3234 1.385 . S
C3236 C3234 1.478 . S
C3236 C3238 1.381 . S
C3236 C3242 1.383 . S
C3237 C3233 1.495 . S
C3237 H3243 0.959 . S
C3237 H3244 0.961 . S
C3237 H3245 0.960 . S
C3238 C3236 1.381 . S
C3238 C3239 1.394 . S
C3238 H3246 0.930 1_455 S
C3239 C3238 1.394 . S
C3239 C3240 1.383 . S
C3239 H3247 0.929 . S
C3240 C3239 1.383 . S
C3240 C3241 1.377 . S
C3241 H3225 0.930 . S
C3241 C3240 1.377 . S
C3241 C3242 1.379 . S
C3242 H3226 0.931 . S
C3242 C3236 1.383 . S
C3242 C3241 1.379 . S
H3243 C3237 0.959 . S
H3244 C3237 0.961 . S
H3245 C3237 0.960 . S
H3246 C3238 0.930 1_655 S
H3247 C3239 0.929 . S
H3248 C3256 0.929 . S
H3249 C3258 0.930 . S
H3250 C3260 0.930 . S
H3251 C3263 0.929 . S
H3252 C3266 0.930 . S
H3253 C3268 0.960 . S
H3254 C3268 0.960 . S
H3255 C3268 0.960 . S
C3256 H3248 0.929 . S
C3256 C3257 1.377 . S
C3256 C3258 1.384 . S
C3257 C3256 1.377 . S
C3257 C3263 1.390 . S
C3258 H3249 0.930 . S
C3258 C3256 1.384 . S
C3258 C3259 1.372 . S
C3259 C3258 1.372 . S
C3259 C3260 1.400 . S
C3259 C3264 1.490 . S
C3260 H3250 0.930 . S
C3260 C3259 1.400 . S
C3260 C3263 1.386 . S
H3261 C3277 0.930 . S
H3262 C3278 0.931 . S
C3263 H3251 0.929 . S
C3263 C3257 1.390 . S
C3263 C3260 1.386 . S
C3264 C3259 1.490 . S
C3264 C3266 1.395 . S
C3264 C3267 1.403 . S
H3265 C3271 0.930 . S
C3266 H3252 0.930 . S
C3266 C3264 1.395 . S
C3266 C3269 1.403 . S
C3267 C3264 1.403 . S
C3267 C3268 1.524 . S
C3267 C3271 1.400 . S
C3268 H3253 0.960 . S
C3268 H3254 0.960 . S
C3268 H3255 0.960 . S
C3268 C3267 1.524 . S
C3269 C3266 1.403 . S
C3269 C3270 1.392 . S
C3269 C3273 1.495 . S
C3270 C3269 1.392 . S
C3270 C3271 1.385 . S
C3270 C3272 1.478 . S
C3271 H3265 0.930 . S
C3271 C3267 1.400 . S
C3271 C3270 1.385 . S
C3272 C3270 1.478 . S
C3272 C3274 1.381 . S
C3272 C3278 1.383 . S
C3273 C3269 1.495 . S
C3273 H3279 0.959 . S
C3273 H3280 0.961 . S
C3273 H3281 0.960 . S
C3274 C3272 1.381 . S
C3274 C3275 1.394 . S
C3274 H3282 0.930 . S
C3275 C3274 1.394 . S
C3275 C3276 1.383 . S
C3275 H3283 0.929 . S
C3276 C3275 1.383 . S
C3276 C3277 1.377 . S
C3277 H3261 0.930 . S
C3277 C3276 1.377 . S
C3277 C3278 1.379 . S
C3278 H3262 0.931 . S
C3278 C3272 1.383 . S
C3278 C3277 1.379 . S
H3279 C3273 0.959 . S
H3280 C3273 0.961 . S
H3281 C3273 0.960 . S
H3282 C3274 0.930 . S
H3283 C3275 0.929 . S
H3284 C3292 0.929 . S
H3285 C3294 0.930 1_655 S
H3286 C3296 0.930 . S
H3287 C3299 0.929 . S
H3288 C3302 0.930 . S
H3289 C3304 0.960 . S
H3290 C3304 0.960 . S
H3291 C3304 0.960 . S
C3292 H3284 0.929 . S
C3292 C3293 1.377 . S
C3292 C3294 1.384 . S
C3293 C3292 1.377 . S
C3293 C3299 1.390 . S
C3294 H3285 0.930 1_455 S
C3294 C3292 1.384 . S
C3294 C3295 1.372 . S
C3295 C3294 1.372 . S
C3295 C3296 1.400 . S
C3295 C3300 1.490 . S
C3296 H3286 0.930 . S
C3296 C3295 1.400 . S
C3296 C3299 1.386 . S
H3297 C3313 0.930 . S
H3298 C3314 0.931 . S
C3299 H3287 0.929 . S
C3299 C3293 1.390 . S
C3299 C3296 1.386 . S
C3300 C3295 1.490 . S
C3300 C3302 1.395 1_455 S
C3300 C3303 1.403 . S
H3301 C3307 0.930 . S
C3302 H3288 0.930 . S
C3302 C3300 1.395 1_655 S
C3302 C3305 1.403 . S
C3303 C3300 1.403 . S
C3303 C3304 1.524 . S
C3303 C3307 1.400 . S
C3304 H3289 0.960 . S
C3304 H3290 0.960 . S
C3304 H3291 0.960 . S
C3304 C3303 1.524 . S
C3305 C3302 1.403 . S
C3305 C3306 1.392 . S
C3305 C3309 1.495 . S
C3306 C3305 1.392 . S
C3306 C3307 1.385 1_655 S
C3306 C3308 1.478 . S
C3307 H3301 0.930 . S
C3307 C3303 1.400 . S
C3307 C3306 1.385 1_455 S
C3308 C3306 1.478 . S
C3308 C3310 1.381 . S
C3308 C3314 1.383 . S
C3309 C3305 1.495 . S
C3309 H3315 0.959 . S
C3309 H3316 0.961 . S
C3309 H3317 0.960 . S
C3310 C3308 1.381 . S
C3310 C3311 1.394 . S
C3310 H3318 0.930 . S
C3311 C3310 1.394 . S
C3311 C3312 1.383 . S
C3311 H3319 0.929 . S
C3312 C3311 1.383 . S
C3312 C3313 1.377 . S
C3313 H3297 0.930 . S
C3313 C3312 1.377 . S
C3313 C3314 1.379 . S
C3314 H3298 0.931 . S
C3314 C3308 1.383 . S
C3314 C3313 1.379 . S
H3315 C3309 0.959 . S
H3316 C3309 0.961 . S
H3317 C3309 0.960 . S
H3318 C3310 0.930 . S
H3319 C3311 0.929 . S
H3320 C3328 0.929 . S
H3321 C3330 0.930 . S
H3322 C3332 0.930 . S
H3323 C3335 0.929 . S
H3324 C3338 0.930 . S
H3325 C3340 0.960 . S
H3326 C3340 0.960 . S
H3327 C3340 0.960 . S
C3328 H3320 0.929 . S
C3328 C3329 1.377 . S
C3328 C3330 1.384 . S
C3329 C3328 1.377 . S
C3329 C3335 1.390 . S
C3330 H3321 0.930 . S
C3330 C3328 1.384 . S
C3330 C3331 1.372 . S
C3331 C3330 1.372 . S
C3331 C3332 1.400 . S
C3331 C3336 1.490 . S
C3332 H3322 0.930 . S
C3332 C3331 1.400 . S
C3332 C3335 1.386 . S
H3333 C3349 0.930 . S
H3334 C3350 0.931 . S
C3335 H3323 0.929 . S
C3335 C3329 1.390 . S
C3335 C3332 1.386 . S
C3336 C3331 1.490 . S
C3336 C3338 1.395 . S
C3336 C3339 1.403 . S
H3337 C3343 0.930 . S
C3338 H3324 0.930 . S
C3338 C3336 1.395 . S
C3338 C3341 1.403 . S
C3339 C3336 1.403 . S
C3339 C3340 1.524 . S
C3339 C3343 1.400 . S
C3340 H3325 0.960 . S
C3340 H3326 0.960 . S
C3340 H3327 0.960 . S
C3340 C3339 1.524 . S
C3341 C3338 1.403 . S
C3341 C3342 1.392 . S
C3341 C3345 1.495 . S
C3342 C3341 1.392 . S
C3342 C3343 1.385 . S
C3342 C3344 1.478 . S
C3343 H3337 0.930 . S
C3343 C3339 1.400 . S
C3343 C3342 1.385 . S
C3344 C3342 1.478 . S
C3344 C3346 1.381 . S
C3344 C3350 1.383 . S
C3345 C3341 1.495 . S
C3345 H3351 0.959 . S
C3345 H3352 0.961 . S
C3345 H3353 0.960 . S
C3346 C3344 1.381 . S
C3346 C3347 1.394 . S
C3346 H3354 0.930 . S
C3347 C3346 1.394 . S
C3347 C3348 1.383 . S
C3347 H3355 0.929 . S
C3348 C3347 1.383 . S
C3348 C3349 1.377 . S
C3349 H3333 0.930 . S
C3349 C3348 1.377 . S
C3349 C3350 1.379 . S
C3350 H3334 0.931 . S
C3350 C3344 1.383 . S
C3350 C3349 1.379 . S
H3351 C3345 0.959 . S
H3352 C3345 0.961 . S
H3353 C3345 0.960 . S
H3354 C3346 0.930 . S
H3355 C3347 0.929 . S
H3356 C3364 0.929 . S
H3357 C3366 0.930 . S
H3358 C3368 0.930 . S
H3359 C3371 0.929 . S
H3360 C3374 0.930 . S
H3361 C3376 0.960 . S
H3362 C3376 0.960 . S
H3363 C3376 0.960 . S
C3364 H3356 0.929 . S
C3364 C3365 1.377 . S
C3364 C3366 1.384 . S
C3365 C3364 1.377 . S
C3365 C3371 1.390 . S
C3366 H3357 0.930 . S
C3366 C3364 1.384 . S
C3366 C3367 1.372 . S
C3367 C3366 1.372 . S
C3367 C3368 1.400 . S
C3367 C3372 1.490 . S
C3368 H3358 0.930 . S
C3368 C3367 1.400 . S
C3368 C3371 1.386 . S
H3369 C3385 0.930 . S
H3370 C3386 0.931 . S
C3371 H3359 0.929 . S
C3371 C3365 1.390 . S
C3371 C3368 1.386 . S
C3372 C3367 1.490 . S
C3372 C3374 1.395 1_655 S
C3372 C3375 1.403 . S
H3373 C3379 0.930 . S
C3374 H3360 0.930 . S
C3374 C3372 1.395 1_455 S
C3374 C3377 1.403 . S
C3375 C3372 1.403 . S
C3375 C3376 1.524 . S
C3375 C3379 1.400 . S
C3376 H3361 0.960 . S
C3376 H3362 0.960 . S
C3376 H3363 0.960 . S
C3376 C3375 1.524 . S
C3377 C3374 1.403 . S
C3377 C3378 1.392 . S
C3377 C3381 1.495 . S
C3378 C3377 1.392 . S
C3378 C3379 1.385 1_455 S
C3378 C3380 1.478 . S
C3379 H3373 0.930 . S
C3379 C3375 1.400 . S
C3379 C3378 1.385 1_655 S
C3380 C3378 1.478 . S
C3380 C3382 1.381 . S
C3380 C3386 1.383 . S
C3381 C3377 1.495 . S
C3381 H3387 0.959 . S
C3381 H3388 0.961 . S
C3381 H3389 0.960 . S
C3382 C3380 1.381 . S
C3382 C3383 1.394 . S
C3382 H3390 0.930 . S
C3383 C3382 1.394 . S
C3383 C3384 1.383 . S
C3383 H3391 0.929 . S
C3384 C3383 1.383 . S
C3384 C3385 1.377 . S
C3385 H3369 0.930 . S
C3385 C3384 1.377 . S
C3385 C3386 1.379 . S
C3386 H3370 0.931 . S
C3386 C3380 1.383 . S
C3386 C3385 1.379 . S
H3387 C3381 0.959 . S
H3388 C3381 0.961 . S
H3389 C3381 0.960 . S
H3390 C3382 0.930 . S
H3391 C3383 0.929 . S
H3392 C3400 0.929 . S
H3393 C3402 0.930 . S
H3394 C3404 0.930 . S
H3395 C3407 0.929 . S
H3396 C3410 0.930 . S
H3397 C3412 0.960 . S
H3398 C3412 0.960 . S
H3399 C3412 0.960 . S
C3400 H3392 0.929 . S
C3400 C3401 1.377 . S
C3400 C3402 1.384 . S
C3401 C3400 1.377 . S
C3401 C3407 1.390 . S
C3402 H3393 0.930 . S
C3402 C3400 1.384 . S
C3402 C3403 1.372 . S
C3403 C3402 1.372 . S
C3403 C3404 1.400 . S
C3403 C3408 1.490 . S
C3404 H3394 0.930 . S
C3404 C3403 1.400 . S
C3404 C3407 1.386 . S
H3405 C3421 0.930 . S
H3406 C3422 0.931 . S
C3407 H3395 0.929 . S
C3407 C3401 1.390 . S
C3407 C3404 1.386 . S
C3408 C3403 1.490 . S
C3408 C3410 1.395 . S
C3408 C3411 1.403 . S
H3409 C3415 0.930 . S
C3410 H3396 0.930 . S
C3410 C3408 1.395 . S
C3410 C3413 1.403 . S
C3411 C3408 1.403 . S
C3411 C3412 1.524 . S
C3411 C3415 1.400 . S
C3412 H3397 0.960 . S
C3412 H3398 0.960 . S
C3412 H3399 0.960 . S
C3412 C3411 1.524 . S
C3413 C3410 1.403 . S
C3413 C3414 1.392 . S
C3413 C3417 1.495 . S
C3414 C3413 1.392 . S
C3414 C3415 1.385 . S
C3414 C3416 1.478 . S
C3415 H3409 0.930 . S
C3415 C3411 1.400 . S
C3415 C3414 1.385 . S
C3416 C3414 1.478 . S
C3416 C3418 1.381 . S
C3416 C3422 1.383 . S
C3417 C3413 1.495 . S
C3417 H3423 0.959 . S
C3417 H3424 0.961 . S
C3417 H3425 0.960 . S
C3418 C3416 1.381 . S
C3418 C3419 1.394 . S
C3418 H3426 0.930 . S
C3419 C3418 1.394 . S
C3419 C3420 1.383 . S
C3419 H3427 0.929 . S
C3420 C3419 1.383 . S
C3420 C3421 1.377 . S
C3421 H3405 0.930 . S
C3421 C3420 1.377 . S
C3421 C3422 1.379 . S
C3422 H3406 0.931 . S
C3422 C3416 1.383 . S
C3422 C3421 1.379 . S
H3423 C3417 0.959 . S
H3424 C3417 0.961 . S
H3425 C3417 0.960 . S
H3426 C3418 0.930 . S
H3427 C3419 0.929 . S
H3428 C3436 0.929 . S
H3429 C3438 0.930 . S
H3430 C3440 0.930 . S
H3431 C3443 0.929 . S
H3432 C3446 0.930 . S
H3433 C3448 0.960 . S
H3434 C3448 0.960 . S
H3435 C3448 0.960 . S
C3436 H3428 0.929 . S
C3436 C3437 1.377 . S
C3436 C3438 1.384 . S
C3437 C3436 1.377 . S
C3437 C3443 1.390 . S
C3438 H3429 0.930 . S
C3438 C3436 1.384 . S
C3438 C3439 1.372 . S
C3439 C3438 1.372 . S
C3439 C3440 1.400 . S
C3439 C3444 1.490 . S
C3440 H3430 0.930 . S
C3440 C3439 1.400 . S
C3440 C3443 1.386 . S
H3441 C3457 0.930 . S
H3442 C3458 0.931 . S
C3443 H3431 0.929 . S
C3443 C3437 1.390 . S
C3443 C3440 1.386 . S
C3444 C3439 1.490 . S
C3444 C3446 1.395 . S
C3444 C3447 1.403 . S
H3445 C3451 0.930 . S
C3446 H3432 0.930 . S
C3446 C3444 1.395 . S
C3446 C3449 1.403 . S
C3447 C3444 1.403 . S
C3447 C3448 1.524 . S
C3447 C3451 1.400 . S
C3448 H3433 0.960 . S
C3448 H3434 0.960 . S
C3448 H3435 0.960 . S
C3448 C3447 1.524 . S
C3449 C3446 1.403 . S
C3449 C3450 1.392 . S
C3449 C3453 1.495 . S
C3450 C3449 1.392 . S
C3450 C3451 1.385 . S
C3450 C3452 1.478 . S
C3451 H3445 0.930 . S
C3451 C3447 1.400 . S
C3451 C3450 1.385 . S
C3452 C3450 1.478 . S
C3452 C3454 1.381 . S
C3452 C3458 1.383 . S
C3453 C3449 1.495 . S
C3453 H3459 0.959 . S
C3453 H3460 0.961 . S
C3453 H3461 0.960 . S
C3454 C3452 1.381 . S
C3454 C3455 1.394 . S
C3454 H3462 0.930 . S
C3455 C3454 1.394 . S
C3455 C3456 1.383 . S
C3455 H3463 0.929 . S
C3456 C3455 1.383 . S
C3456 C3457 1.377 . S
C3457 H3441 0.930 . S
C3457 C3456 1.377 . S
C3457 C3458 1.379 . S
C3458 H3442 0.931 . S
C3458 C3452 1.383 . S
C3458 C3457 1.379 . S
H3459 C3453 0.959 . S
H3460 C3453 0.961 . S
H3461 C3453 0.960 . S
H3462 C3454 0.930 . S
H3463 C3455 0.929 . S
H3464 C3472 0.929 . S
H3465 C3474 0.930 . S
H3466 C3476 0.930 . S
H3467 C3479 0.929 . S
H3468 C3482 0.930 . S
H3469 C3484 0.960 . S
H3470 C3484 0.960 . S
H3471 C3484 0.960 . S
C3472 H3464 0.929 . S
C3472 C3473 1.377 . S
C3472 C3474 1.384 . S
C3473 C3472 1.377 . S
C3473 C3479 1.390 . S
C3474 H3465 0.930 . S
C3474 C3472 1.384 . S
C3474 C3475 1.372 . S
C3475 C3474 1.372 . S
C3475 C3476 1.400 . S
C3475 C3480 1.490 . S
C3476 H3466 0.930 . S
C3476 C3475 1.400 . S
C3476 C3479 1.386 . S
H3477 C3493 0.930 . S
H3478 C3494 0.931 . S
C3479 H3467 0.929 . S
C3479 C3473 1.390 . S
C3479 C3476 1.386 . S
C3480 C3475 1.490 . S
C3480 C3482 1.395 . S
C3480 C3483 1.403 . S
H3481 C3487 0.930 . S
C3482 H3468 0.930 . S
C3482 C3480 1.395 . S
C3482 C3485 1.403 . S
C3483 C3480 1.403 . S
C3483 C3484 1.524 . S
C3483 C3487 1.400 . S
C3484 H3469 0.960 . S
C3484 H3470 0.960 . S
C3484 H3471 0.960 . S
C3484 C3483 1.524 . S
C3485 C3482 1.403 . S
C3485 C3486 1.392 . S
C3485 C3489 1.495 . S
C3486 C3485 1.392 . S
C3486 C3487 1.385 . S
C3486 C3488 1.478 . S
C3487 H3481 0.930 . S
C3487 C3483 1.400 . S
C3487 C3486 1.385 . S
C3488 C3486 1.478 . S
C3488 C3490 1.381 . S
C3488 C3494 1.383 . S
C3489 C3485 1.495 . S
C3489 H3495 0.959 . S
C3489 H3496 0.961 . S
C3489 H3497 0.960 . S
C3490 C3488 1.381 . S
C3490 C3491 1.394 . S
C3490 H3498 0.930 . S
C3491 C3490 1.394 . S
C3491 C3492 1.383 . S
C3491 H3499 0.929 . S
C3492 C3491 1.383 . S
C3492 C3493 1.377 . S
C3493 H3477 0.930 . S
C3493 C3492 1.377 . S
C3493 C3494 1.379 . S
C3494 H3478 0.931 . S
C3494 C3488 1.383 . S
C3494 C3493 1.379 . S
H3495 C3489 0.959 . S
H3496 C3489 0.961 . S
H3497 C3489 0.960 . S
H3498 C3490 0.930 . S
H3499 C3491 0.929 . S
H3500 C3508 0.929 . S
H3501 C3510 0.930 . S
H3502 C3512 0.930 . S
H3503 C3515 0.929 . S
H3504 C3518 0.930 . S
H3505 C3520 0.960 . S
H3506 C3520 0.960 . S
H3507 C3520 0.960 . S
C3508 H3500 0.929 . S
C3508 C3509 1.377 . S
C3508 C3510 1.384 . S
C3509 C3508 1.377 . S
C3509 C3515 1.390 . S
C3510 H3501 0.930 . S
C3510 C3508 1.384 . S
C3510 C3511 1.372 . S
C3511 C3510 1.372 . S
C3511 C3512 1.400 . S
C3511 C3516 1.490 . S
C3512 H3502 0.930 . S
C3512 C3511 1.400 . S
C3512 C3515 1.386 . S
H3513 C3529 0.930 . S
H3514 C3530 0.931 . S
C3515 H3503 0.929 . S
C3515 C3509 1.390 . S
C3515 C3512 1.386 . S
C3516 C3511 1.490 . S
C3516 C3518 1.395 . S
C3516 C3519 1.403 . S
H3517 C3523 0.930 . S
C3518 H3504 0.930 . S
C3518 C3516 1.395 . S
C3518 C3521 1.403 . S
C3519 C3516 1.403 . S
C3519 C3520 1.524 . S
C3519 C3523 1.400 . S
C3520 H3505 0.960 . S
C3520 H3506 0.960 . S
C3520 H3507 0.960 . S
C3520 C3519 1.524 . S
C3521 C3518 1.403 . S
C3521 C3522 1.392 . S
C3521 C3525 1.495 . S
C3522 C3521 1.392 . S
C3522 C3523 1.385 . S
C3522 C3524 1.478 . S
C3523 H3517 0.930 . S
C3523 C3519 1.400 . S
C3523 C3522 1.385 . S
C3524 C3522 1.478 . S
C3524 C3526 1.381 . S
C3524 C3530 1.383 . S
C3525 C3521 1.495 . S
C3525 H3531 0.959 . S
C3525 H3532 0.961 . S
C3525 H3533 0.960 . S
C3526 C3524 1.381 . S
C3526 C3527 1.394 . S
C3526 H3534 0.930 . S
C3527 C3526 1.394 . S
C3527 C3528 1.383 . S
C3527 H3535 0.929 . S
C3528 C3527 1.383 . S
C3528 C3529 1.377 . S
C3529 H3513 0.930 . S
C3529 C3528 1.377 . S
C3529 C3530 1.379 . S
C3530 H3514 0.931 . S
C3530 C3524 1.383 . S
C3530 C3529 1.379 . S
H3531 C3525 0.959 . S
H3532 C3525 0.961 . S
H3533 C3525 0.960 . S
H3534 C3526 0.930 . S
H3535 C3527 0.929 . S
H3536 C3544 0.929 . S
H3537 C3546 0.930 . S
H3538 C3548 0.930 . S
H3539 C3551 0.929 . S
H3540 C3554 0.930 . S
H3541 C3556 0.960 . S
H3542 C3556 0.960 . S
H3543 C3556 0.960 . S
C3544 H3536 0.929 . S
C3544 C3545 1.377 . S
C3544 C3546 1.384 . S
C3545 C3544 1.377 . S
C3545 C3551 1.390 . S
C3546 H3537 0.930 . S
C3546 C3544 1.384 . S
C3546 C3547 1.372 . S
C3547 C3546 1.372 . S
C3547 C3548 1.400 . S
C3547 C3552 1.490 . S
C3548 H3538 0.930 . S
C3548 C3547 1.400 . S
C3548 C3551 1.386 . S
H3549 C3565 0.930 . S
H3550 C3566 0.931 . S
C3551 H3539 0.929 . S
C3551 C3545 1.390 . S
C3551 C3548 1.386 . S
C3552 C3547 1.490 . S
C3552 C3554 1.395 . S
C3552 C3555 1.403 . S
H3553 C3559 0.930 . S
C3554 H3540 0.930 . S
C3554 C3552 1.395 . S
C3554 C3557 1.403 . S
C3555 C3552 1.403 . S
C3555 C3556 1.524 . S
C3555 C3559 1.400 . S
C3556 H3541 0.960 . S
C3556 H3542 0.960 . S
C3556 H3543 0.960 . S
C3556 C3555 1.524 . S
C3557 C3554 1.403 . S
C3557 C3558 1.392 . S
C3557 C3561 1.495 . S
C3558 C3557 1.392 . S
C3558 C3559 1.385 . S
C3558 C3560 1.478 . S
C3559 H3553 0.930 . S
C3559 C3555 1.400 . S
C3559 C3558 1.385 . S
C3560 C3558 1.478 . S
C3560 C3562 1.381 . S
C3560 C3566 1.383 . S
C3561 C3557 1.495 . S
C3561 H3567 0.959 . S
C3561 H3568 0.961 . S
C3561 H3569 0.960 . S
C3562 C3560 1.381 . S
C3562 C3563 1.394 . S
C3562 H3570 0.930 . S
C3563 C3562 1.394 . S
C3563 C3564 1.383 . S
C3563 H3571 0.929 . S
C3564 C3563 1.383 . S
C3564 C3565 1.377 . S
C3565 H3549 0.930 . S
C3565 C3564 1.377 . S
C3565 C3566 1.379 . S
C3566 H3550 0.931 . S
C3566 C3560 1.383 . S
C3566 C3565 1.379 . S
H3567 C3561 0.959 . S
H3568 C3561 0.961 . S
H3569 C3561 0.960 . S
H3570 C3562 0.930 . S
H3571 C3563 0.929 . S
H3572 C3580 0.929 . S
H3573 C3582 0.930 . S
H3574 C3584 0.930 . S
H3575 C3587 0.929 . S
H3576 C3590 0.930 . S
H3577 C3592 0.960 . S
H3578 C3592 0.960 . S
H3579 C3592 0.960 . S
C3580 H3572 0.929 . S
C3580 C3581 1.377 . S
C3580 C3582 1.384 . S
C3581 C3580 1.377 . S
C3581 C3587 1.390 . S
C3582 H3573 0.930 . S
C3582 C3580 1.384 . S
C3582 C3583 1.372 . S
C3583 C3582 1.372 . S
C3583 C3584 1.400 . S
C3583 C3588 1.490 . S
C3584 H3574 0.930 . S
C3584 C3583 1.400 . S
C3584 C3587 1.386 . S
H3585 C3601 0.930 . S
H3586 C3602 0.931 . S
C3587 H3575 0.929 . S
C3587 C3581 1.390 . S
C3587 C3584 1.386 . S
C3588 C3583 1.490 . S
C3588 C3590 1.395 . S
C3588 C3591 1.403 . S
H3589 C3595 0.930 . S
C3590 H3576 0.930 . S
C3590 C3588 1.395 . S
C3590 C3593 1.403 . S
C3591 C3588 1.403 . S
C3591 C3592 1.524 . S
C3591 C3595 1.400 . S
C3592 H3577 0.960 . S
C3592 H3578 0.960 . S
C3592 H3579 0.960 . S
C3592 C3591 1.524 . S
C3593 C3590 1.403 . S
C3593 C3594 1.392 . S
C3593 C3597 1.495 . S
C3594 C3593 1.392 . S
C3594 C3595 1.385 . S
C3594 C3596 1.478 . S
C3595 H3589 0.930 . S
C3595 C3591 1.400 . S
C3595 C3594 1.385 . S
C3596 C3594 1.478 . S
C3596 C3598 1.381 . S
C3596 C3602 1.383 . S
C3597 C3593 1.495 . S
C3597 H3603 0.959 . S
C3597 H3604 0.961 . S
C3597 H3605 0.960 . S
C3598 C3596 1.381 . S
C3598 C3599 1.394 . S
C3598 H3606 0.930 . S
C3599 C3598 1.394 . S
C3599 C3600 1.383 . S
C3599 H3607 0.929 . S
C3600 C3599 1.383 . S
C3600 C3601 1.377 . S
C3601 H3585 0.930 . S
C3601 C3600 1.377 . S
C3601 C3602 1.379 . S
C3602 H3586 0.931 . S
C3602 C3596 1.383 . S
C3602 C3601 1.379 . S
H3603 C3597 0.959 . S
H3604 C3597 0.961 . S
H3605 C3597 0.960 . S
H3606 C3598 0.930 . S
H3607 C3599 0.929 . S
H3608 C3616 0.929 . S
H3609 C3618 0.930 . S
H3610 C3620 0.930 . S
H3611 C3623 0.929 . S
H3612 C3626 0.930 . S
H3613 C3628 0.960 . S
H3614 C3628 0.960 . S
H3615 C3628 0.960 . S
C3616 H3608 0.929 . S
C3616 C3617 1.377 . S
C3616 C3618 1.384 . S
C3617 C3616 1.377 . S
C3617 C3623 1.390 . S
C3618 H3609 0.930 . S
C3618 C3616 1.384 . S
C3618 C3619 1.372 . S
C3619 C3618 1.372 . S
C3619 C3620 1.400 . S
C3619 C3624 1.490 . S
C3620 H3610 0.930 . S
C3620 C3619 1.400 . S
C3620 C3623 1.386 . S
H3621 C3637 0.930 . S
H3622 C3638 0.931 . S
C3623 H3611 0.929 . S
C3623 C3617 1.390 . S
C3623 C3620 1.386 . S
C3624 C3619 1.490 . S
C3624 C3626 1.395 . S
C3624 C3627 1.403 . S
H3625 C3631 0.930 . S
C3626 H3612 0.930 . S
C3626 C3624 1.395 . S
C3626 C3629 1.403 . S
C3627 C3624 1.403 . S
C3627 C3628 1.524 . S
C3627 C3631 1.400 . S
C3628 H3613 0.960 . S
C3628 H3614 0.960 . S
C3628 H3615 0.960 . S
C3628 C3627 1.524 . S
C3629 C3626 1.403 . S
C3629 C3630 1.392 . S
C3629 C3633 1.495 . S
C3630 C3629 1.392 . S
C3630 C3631 1.385 . S
C3630 C3632 1.478 . S
C3631 H3625 0.930 . S
C3631 C3627 1.400 . S
C3631 C3630 1.385 . S
C3632 C3630 1.478 . S
C3632 C3634 1.381 . S
C3632 C3638 1.383 . S
C3633 C3629 1.495 . S
C3633 H3639 0.959 . S
C3633 H3640 0.961 . S
C3633 H3641 0.960 . S
C3634 C3632 1.381 . S
C3634 C3635 1.394 . S
C3634 H3642 0.930 . S
C3635 C3634 1.394 . S
C3635 C3636 1.383 . S
C3635 H3643 0.929 . S
C3636 C3635 1.383 . S
C3636 C3637 1.377 . S
C3637 H3621 0.930 . S
C3637 C3636 1.377 . S
C3637 C3638 1.379 . S
C3638 H3622 0.931 . S
C3638 C3632 1.383 . S
C3638 C3637 1.379 . S
H3639 C3633 0.959 . S
H3640 C3633 0.961 . S
H3641 C3633 0.960 . S
H3642 C3634 0.930 . S
H3643 C3635 0.929 . S
H3644 C3652 0.929 . S
H3645 C3654 0.930 . S
H3646 C3656 0.930 . S
H3647 C3659 0.929 . S
H3648 C3662 0.930 . S
H3649 C3664 0.960 . S
H3650 C3664 0.960 . S
H3651 C3664 0.960 . S
C3652 H3644 0.929 . S
C3652 C3653 1.377 . S
C3652 C3654 1.384 . S
C3653 C3652 1.377 . S
C3653 C3659 1.390 . S
C3654 H3645 0.930 . S
C3654 C3652 1.384 . S
C3654 C3655 1.372 . S
C3655 C3654 1.372 . S
C3655 C3656 1.400 . S
C3655 C3660 1.490 . S
C3656 H3646 0.930 . S
C3656 C3655 1.400 . S
C3656 C3659 1.386 . S
H3657 C3673 0.930 . S
H3658 C3674 0.931 . S
C3659 H3647 0.929 . S
C3659 C3653 1.390 . S
C3659 C3656 1.386 . S
C3660 C3655 1.490 . S
C3660 C3662 1.395 . S
C3660 C3663 1.403 . S
H3661 C3667 0.930 . S
C3662 H3648 0.930 . S
C3662 C3660 1.395 . S
C3662 C3665 1.403 . S
C3663 C3660 1.403 . S
C3663 C3664 1.524 . S
C3663 C3667 1.400 . S
C3664 H3649 0.960 . S
C3664 H3650 0.960 . S
C3664 H3651 0.960 . S
C3664 C3663 1.524 . S
C3665 C3662 1.403 . S
C3665 C3666 1.392 . S
C3665 C3669 1.495 . S
C3666 C3665 1.392 . S
C3666 C3667 1.385 . S
C3666 C3668 1.478 . S
C3667 H3661 0.930 . S
C3667 C3663 1.400 . S
C3667 C3666 1.385 . S
C3668 C3666 1.478 . S
C3668 C3670 1.381 . S
C3668 C3674 1.383 . S
C3669 C3665 1.495 . S
C3669 H3675 0.959 . S
C3669 H3676 0.961 . S
C3669 H3677 0.960 . S
C3670 C3668 1.381 . S
C3670 C3671 1.394 . S
C3670 H3678 0.930 . S
C3671 C3670 1.394 . S
C3671 C3672 1.383 . S
C3671 H3679 0.929 . S
C3672 C3671 1.383 . S
C3672 C3673 1.377 . S
C3673 H3657 0.930 . S
C3673 C3672 1.377 . S
C3673 C3674 1.379 . S
C3674 H3658 0.931 . S
C3674 C3668 1.383 . S
C3674 C3673 1.379 . S
H3675 C3669 0.959 . S
H3676 C3669 0.961 . S
H3677 C3669 0.960 . S
H3678 C3670 0.930 . S
H3679 C3671 0.929 . S
H3680 C3688 0.929 . S
H3681 C3690 0.930 . S
H3682 C3692 0.930 . S
H3683 C3695 0.929 . S
H3684 C3698 0.930 . S
H3685 C3700 0.960 . S
H3686 C3700 0.960 . S
H3687 C3700 0.960 . S
C3688 H3680 0.929 . S
C3688 C3689 1.377 . S
C3688 C3690 1.384 . S
C3689 C3688 1.377 . S
C3689 C3695 1.390 . S
C3690 H3681 0.930 . S
C3690 C3688 1.384 . S
C3690 C3691 1.372 . S
C3691 C3690 1.372 . S
C3691 C3692 1.400 . S
C3691 C3696 1.490 . S
C3692 H3682 0.930 . S
C3692 C3691 1.400 . S
C3692 C3695 1.386 . S
H3693 C3709 0.930 . S
H3694 C3710 0.931 . S
C3695 H3683 0.929 . S
C3695 C3689 1.390 . S
C3695 C3692 1.386 . S
C3696 C3691 1.490 . S
C3696 C3698 1.395 . S
C3696 C3699 1.403 . S
H3697 C3703 0.930 . S
C3698 H3684 0.930 . S
C3698 C3696 1.395 . S
C3698 C3701 1.403 . S
C3699 C3696 1.403 . S
C3699 C3700 1.524 . S
C3699 C3703 1.400 . S
C3700 H3685 0.960 . S
C3700 H3686 0.960 . S
C3700 H3687 0.960 . S
C3700 C3699 1.524 . S
C3701 C3698 1.403 . S
C3701 C3702 1.392 . S
C3701 C3705 1.495 . S
C3702 C3701 1.392 . S
C3702 C3703 1.385 . S
C3702 C3704 1.478 . S
C3703 H3697 0.930 . S
C3703 C3699 1.400 . S
C3703 C3702 1.385 . S
C3704 C3702 1.478 . S
C3704 C3706 1.381 . S
C3704 C3710 1.383 . S
C3705 C3701 1.495 . S
C3705 H3711 0.959 . S
C3705 H3712 0.961 . S
C3705 H3713 0.960 . S
C3706 C3704 1.381 . S
C3706 C3707 1.394 . S
C3706 H3714 0.930 . S
C3707 C3706 1.394 . S
C3707 C3708 1.383 . S
C3707 H3715 0.929 . S
C3708 C3707 1.383 . S
C3708 C3709 1.377 . S
C3709 H3693 0.930 . S
C3709 C3708 1.377 . S
C3709 C3710 1.379 . S
C3710 H3694 0.931 . S
C3710 C3704 1.383 . S
C3710 C3709 1.379 . S
H3711 C3705 0.959 . S
H3712 C3705 0.961 . S
H3713 C3705 0.960 . S
H3714 C3706 0.930 . S
H3715 C3707 0.929 . S
H3716 C3724 0.929 . S
H3717 C3726 0.930 . S
H3718 C3728 0.930 . S
H3719 C3731 0.929 . S
H3720 C3734 0.930 . S
H3721 C3736 0.960 . S
H3722 C3736 0.960 . S
H3723 C3736 0.960 . S
C3724 H3716 0.929 . S
C3724 C3725 1.377 . S
C3724 C3726 1.384 . S
C3725 C3724 1.377 . S
C3725 C3731 1.390 . S
C3726 H3717 0.930 . S
C3726 C3724 1.384 . S
C3726 C3727 1.372 . S
C3727 C3726 1.372 . S
C3727 C3728 1.400 . S
C3727 C3732 1.490 . S
C3728 H3718 0.930 . S
C3728 C3727 1.400 . S
C3728 C3731 1.386 . S
H3729 C3745 0.930 . S
H3730 C3746 0.931 . S
C3731 H3719 0.929 . S
C3731 C3725 1.390 . S
C3731 C3728 1.386 . S
C3732 C3727 1.490 . S
C3732 C3734 1.395 . S
C3732 C3735 1.403 . S
H3733 C3739 0.930 . S
C3734 H3720 0.930 . S
C3734 C3732 1.395 . S
C3734 C3737 1.403 . S
C3735 C3732 1.403 . S
C3735 C3736 1.524 . S
C3735 C3739 1.400 . S
C3736 H3721 0.960 . S
C3736 H3722 0.960 . S
C3736 H3723 0.960 . S
C3736 C3735 1.524 . S
C3737 C3734 1.403 . S
C3737 C3738 1.392 . S
C3737 C3741 1.495 . S
C3738 C3737 1.392 . S
C3738 C3739 1.385 . S
C3738 C3740 1.478 . S
C3739 H3733 0.930 . S
C3739 C3735 1.400 . S
C3739 C3738 1.385 . S
C3740 C3738 1.478 . S
C3740 C3742 1.381 . S
C3740 C3746 1.383 . S
C3741 C3737 1.495 . S
C3741 H3747 0.959 . S
C3741 H3748 0.961 . S
C3741 H3749 0.960 . S
C3742 C3740 1.381 . S
C3742 C3743 1.394 . S
C3742 H3750 0.930 . S
C3743 C3742 1.394 . S
C3743 C3744 1.383 . S
C3743 H3751 0.929 . S
C3744 C3743 1.383 . S
C3744 C3745 1.377 . S
C3745 H3729 0.930 . S
C3745 C3744 1.377 . S
C3745 C3746 1.379 . S
C3746 H3730 0.931 . S
C3746 C3740 1.383 . S
C3746 C3745 1.379 . S
H3747 C3741 0.959 . S
H3748 C3741 0.961 . S
H3749 C3741 0.960 . S
H3750 C3742 0.930 . S
H3751 C3743 0.929 . S
H3752 C3760 0.929 . S
H3753 C3762 0.930 . S
H3754 C3764 0.930 . S
H3755 C3767 0.929 . S
H3756 C3770 0.930 . S
H3757 C3772 0.960 . S
H3758 C3772 0.960 . S
H3759 C3772 0.960 . S
C3760 H3752 0.929 . S
C3760 C3761 1.377 . S
C3760 C3762 1.384 . S
C3761 C3760 1.377 . S
C3761 C3767 1.390 . S
C3762 H3753 0.930 . S
C3762 C3760 1.384 . S
C3762 C3763 1.372 . S
C3763 C3762 1.372 . S
C3763 C3764 1.400 . S
C3763 C3768 1.490 . S
C3764 H3754 0.930 . S
C3764 C3763 1.400 . S
C3764 C3767 1.386 . S
H3765 C3781 0.930 . S
H3766 C3782 0.931 . S
C3767 H3755 0.929 . S
C3767 C3761 1.390 . S
C3767 C3764 1.386 . S
C3768 C3763 1.490 . S
C3768 C3770 1.395 . S
C3768 C3771 1.403 . S
H3769 C3775 0.930 . S
C3770 H3756 0.930 . S
C3770 C3768 1.395 . S
C3770 C3773 1.403 . S
C3771 C3768 1.403 . S
C3771 C3772 1.524 . S
C3771 C3775 1.400 . S
C3772 H3757 0.960 . S
C3772 H3758 0.960 . S
C3772 H3759 0.960 . S
C3772 C3771 1.524 . S
C3773 C3770 1.403 . S
C3773 C3774 1.392 . S
C3773 C3777 1.495 . S
C3774 C3773 1.392 . S
C3774 C3775 1.385 . S
C3774 C3776 1.478 . S
C3775 H3769 0.930 . S
C3775 C3771 1.400 . S
C3775 C3774 1.385 . S
C3776 C3774 1.478 . S
C3776 C3778 1.381 . S
C3776 C3782 1.383 . S
C3777 C3773 1.495 . S
C3777 H3783 0.959 . S
C3777 H3784 0.961 . S
C3777 H3785 0.960 . S
C3778 C3776 1.381 . S
C3778 C3779 1.394 . S
C3778 H3786 0.930 . S
C3779 C3778 1.394 . S
C3779 C3780 1.383 . S
C3779 H3787 0.929 . S
C3780 C3779 1.383 . S
C3780 C3781 1.377 . S
C3781 H3765 0.930 . S
C3781 C3780 1.377 . S
C3781 C3782 1.379 . S
C3782 H3766 0.931 . S
C3782 C3776 1.383 . S
C3782 C3781 1.379 . S
H3783 C3777 0.959 . S
H3784 C3777 0.961 . S
H3785 C3777 0.960 . S
H3786 C3778 0.930 . S
H3787 C3779 0.929 . S
H3788 C3796 0.929 . S
H3789 C3798 0.930 . S
H3790 C3800 0.930 . S
H3791 C3803 0.929 . S
H3792 C3806 0.930 . S
H3793 C3808 0.960 . S
H3794 C3808 0.960 . S
H3795 C3808 0.960 . S
C3796 H3788 0.929 . S
C3796 C3797 1.377 . S
C3796 C3798 1.384 . S
C3797 C3796 1.377 . S
C3797 C3803 1.390 . S
C3798 H3789 0.930 . S
C3798 C3796 1.384 . S
C3798 C3799 1.372 . S
C3799 C3798 1.372 . S
C3799 C3800 1.400 . S
C3799 C3804 1.490 . S
C3800 H3790 0.930 . S
C3800 C3799 1.400 . S
C3800 C3803 1.386 . S
H3801 C3817 0.930 . S
H3802 C3818 0.931 . S
C3803 H3791 0.929 . S
C3803 C3797 1.390 . S
C3803 C3800 1.386 . S
C3804 C3799 1.490 . S
C3804 C3806 1.395 . S
C3804 C3807 1.403 . S
H3805 C3811 0.930 . S
C3806 H3792 0.930 . S
C3806 C3804 1.395 . S
C3806 C3809 1.403 . S
C3807 C3804 1.403 . S
C3807 C3808 1.524 . S
C3807 C3811 1.400 . S
C3808 H3793 0.960 . S
C3808 H3794 0.960 . S
C3808 H3795 0.960 . S
C3808 C3807 1.524 . S
C3809 C3806 1.403 . S
C3809 C3810 1.392 . S
C3809 C3813 1.495 . S
C3810 C3809 1.392 . S
C3810 C3811 1.385 . S
C3810 C3812 1.478 . S
C3811 H3805 0.930 . S
C3811 C3807 1.400 . S
C3811 C3810 1.385 . S
C3812 C3810 1.478 . S
C3812 C3814 1.381 . S
C3812 C3818 1.383 . S
C3813 C3809 1.495 . S
C3813 H3819 0.959 . S
C3813 H3820 0.961 . S
C3813 H3821 0.960 . S
C3814 C3812 1.381 . S
C3814 C3815 1.394 . S
C3814 H3822 0.930 . S
C3815 C3814 1.394 . S
C3815 C3816 1.383 . S
C3815 H3823 0.929 . S
C3816 C3815 1.383 . S
C3816 C3817 1.377 . S
C3817 H3801 0.930 . S
C3817 C3816 1.377 . S
C3817 C3818 1.379 . S
C3818 H3802 0.931 . S
C3818 C3812 1.383 . S
C3818 C3817 1.379 . S
H3819 C3813 0.959 . S
H3820 C3813 0.961 . S
H3821 C3813 0.960 . S
H3822 C3814 0.930 . S
H3823 C3815 0.929 . S
H3824 C3832 0.929 . S
H3825 C3834 0.930 . S
H3826 C3836 0.930 . S
H3827 C3839 0.929 . S
H3828 C3842 0.930 . S
H3829 C3844 0.960 . S
H3830 C3844 0.960 . S
H3831 C3844 0.960 . S
C3832 H3824 0.929 . S
C3832 C3833 1.377 . S
C3832 C3834 1.384 . S
C3833 C3832 1.377 . S
C3833 C3839 1.390 . S
C3834 H3825 0.930 . S
C3834 C3832 1.384 . S
C3834 C3835 1.372 . S
C3835 C3834 1.372 . S
C3835 C3836 1.400 . S
C3835 C3840 1.490 . S
C3836 H3826 0.930 . S
C3836 C3835 1.400 . S
C3836 C3839 1.386 . S
H3837 C3853 0.930 . S
H3838 C3854 0.931 . S
C3839 H3827 0.929 . S
C3839 C3833 1.390 . S
C3839 C3836 1.386 . S
C3840 C3835 1.490 . S
C3840 C3842 1.395 . S
C3840 C3843 1.403 . S
H3841 C3847 0.930 . S
C3842 H3828 0.930 . S
C3842 C3840 1.395 . S
C3842 C3845 1.403 . S
C3843 C3840 1.403 . S
C3843 C3844 1.524 . S
C3843 C3847 1.400 . S
C3844 H3829 0.960 . S
C3844 H3830 0.960 . S
C3844 H3831 0.960 . S
C3844 C3843 1.524 . S
C3845 C3842 1.403 . S
C3845 C3846 1.392 . S
C3845 C3849 1.495 . S
C3846 C3845 1.392 . S
C3846 C3847 1.385 . S
C3846 C3848 1.478 . S
C3847 H3841 0.930 . S
C3847 C3843 1.400 . S
C3847 C3846 1.385 . S
C3848 C3846 1.478 . S
C3848 C3850 1.381 . S
C3848 C3854 1.383 . S
C3849 C3845 1.495 . S
C3849 H3855 0.959 . S
C3849 H3856 0.961 . S
C3849 H3857 0.960 . S
C3850 C3848 1.381 . S
C3850 C3851 1.394 . S
C3850 H3858 0.930 . S
C3851 C3850 1.394 . S
C3851 C3852 1.383 . S
C3851 H3859 0.929 . S
C3852 C3851 1.383 . S
C3852 C3853 1.377 . S
C3853 H3837 0.930 . S
C3853 C3852 1.377 . S
C3853 C3854 1.379 . S
C3854 H3838 0.931 . S
C3854 C3848 1.383 . S
C3854 C3853 1.379 . S
H3855 C3849 0.959 . S
H3856 C3849 0.961 . S
H3857 C3849 0.960 . S
H3858 C3850 0.930 . S
H3859 C3851 0.929 . S
H3860 C3868 0.929 . S
H3861 C3870 0.930 . S
H3862 C3872 0.930 . S
H3863 C3875 0.929 . S
H3864 C3878 0.930 . S
H3865 C3880 0.960 . S
H3866 C3880 0.960 . S
H3867 C3880 0.960 . S
C3868 H3860 0.929 . S
C3868 C3869 1.377 . S
C3868 C3870 1.384 . S
C3869 C3868 1.377 . S
C3869 C3875 1.390 . S
C3870 H3861 0.930 . S
C3870 C3868 1.384 . S
C3870 C3871 1.372 . S
C3871 C3870 1.372 . S
C3871 C3872 1.400 . S
C3871 C3876 1.490 . S
C3872 H3862 0.930 . S
C3872 C3871 1.400 . S
C3872 C3875 1.386 . S
H3873 C3889 0.930 . S
H3874 C3890 0.931 . S
C3875 H3863 0.929 . S
C3875 C3869 1.390 . S
C3875 C3872 1.386 . S
C3876 C3871 1.490 . S
C3876 C3878 1.395 . S
C3876 C3879 1.403 . S
H3877 C3883 0.930 . S
C3878 H3864 0.930 . S
C3878 C3876 1.395 . S
C3878 C3881 1.403 . S
C3879 C3876 1.403 . S
C3879 C3880 1.524 . S
C3879 C3883 1.400 . S
C3880 H3865 0.960 . S
C3880 H3866 0.960 . S
C3880 H3867 0.960 . S
C3880 C3879 1.524 . S
C3881 C3878 1.403 . S
C3881 C3882 1.392 . S
C3881 C3885 1.495 . S
C3882 C3881 1.392 . S
C3882 C3883 1.385 . S
C3882 C3884 1.478 . S
C3883 H3877 0.930 . S
C3883 C3879 1.400 . S
C3883 C3882 1.385 . S
C3884 C3882 1.478 . S
C3884 C3886 1.381 . S
C3884 C3890 1.383 . S
C3885 C3881 1.495 . S
C3885 H3891 0.959 . S
C3885 H3892 0.961 . S
C3885 H3893 0.960 . S
C3886 C3884 1.381 . S
C3886 C3887 1.394 . S
C3886 H3894 0.930 . S
C3887 C3886 1.394 . S
C3887 C3888 1.383 . S
C3887 H3895 0.929 . S
C3888 C3887 1.383 . S
C3888 C3889 1.377 . S
C3889 H3873 0.930 . S
C3889 C3888 1.377 . S
C3889 C3890 1.379 . S
C3890 H3874 0.931 . S
C3890 C3884 1.383 . S
C3890 C3889 1.379 . S
H3891 C3885 0.959 . S
H3892 C3885 0.961 . S
H3893 C3885 0.960 . S
H3894 C3886 0.930 . S
H3895 C3887 0.929 . S
H3896 C3904 0.929 . S
H3897 C3906 0.930 . S
H3898 C3908 0.930 . S
H3899 C3911 0.929 . S
H3900 C3914 0.930 . S
H3901 C3916 0.960 . S
H3902 C3916 0.960 . S
H3903 C3916 0.960 . S
C3904 H3896 0.929 . S
C3904 C3905 1.377 . S
C3904 C3906 1.384 . S
C3905 C3904 1.377 . S
C3905 C3911 1.390 . S
C3906 H3897 0.930 . S
C3906 C3904 1.384 . S
C3906 C3907 1.372 . S
C3907 C3906 1.372 . S
C3907 C3908 1.400 . S
C3907 C3912 1.490 . S
C3908 H3898 0.930 . S
C3908 C3907 1.400 . S
C3908 C3911 1.386 . S
H3909 C3925 0.930 . S
H3910 C3926 0.931 . S
C3911 H3899 0.929 . S
C3911 C3905 1.390 . S
C3911 C3908 1.386 . S
C3912 C3907 1.490 . S
C3912 C3914 1.395 . S
C3912 C3915 1.403 . S
H3913 C3919 0.930 . S
C3914 H3900 0.930 . S
C3914 C3912 1.395 . S
C3914 C3917 1.403 . S
C3915 C3912 1.403 . S
C3915 C3916 1.524 . S
C3915 C3919 1.400 . S
C3916 H3901 0.960 . S
C3916 H3902 0.960 . S
C3916 H3903 0.960 . S
C3916 C3915 1.524 . S
C3917 C3914 1.403 . S
C3917 C3918 1.392 . S
C3917 C3921 1.495 . S
C3918 C3917 1.392 . S
C3918 C3919 1.385 . S
C3918 C3920 1.478 . S
C3919 H3913 0.930 . S
C3919 C3915 1.400 . S
C3919 C3918 1.385 . S
C3920 C3918 1.478 . S
C3920 C3922 1.381 . S
C3920 C3926 1.383 . S
C3921 C3917 1.495 . S
C3921 H3927 0.959 . S
C3921 H3928 0.961 . S
C3921 H3929 0.960 . S
C3922 C3920 1.381 . S
C3922 C3923 1.394 . S
C3922 H3930 0.930 . S
C3923 C3922 1.394 . S
C3923 C3924 1.383 . S
C3923 H3931 0.929 . S
C3924 C3923 1.383 . S
C3924 C3925 1.377 . S
C3925 H3909 0.930 . S
C3925 C3924 1.377 . S
C3925 C3926 1.379 . S
C3926 H3910 0.931 . S
C3926 C3920 1.383 . S
C3926 C3925 1.379 . S
H3927 C3921 0.959 . S
H3928 C3921 0.961 . S
H3929 C3921 0.960 . S
H3930 C3922 0.930 . S
H3931 C3923 0.929 . S
H3932 C3940 0.929 . S
H3933 C3942 0.930 . S
H3934 C3944 0.930 . S
H3935 C3947 0.929 . S
H3936 C3950 0.930 . S
H3937 C3952 0.960 . S
H3938 C3952 0.960 . S
H3939 C3952 0.960 . S
C3940 H3932 0.929 . S
C3940 C3941 1.377 . S
C3940 C3942 1.384 . S
C3941 C3940 1.377 . S
C3941 C3947 1.390 . S
C3942 H3933 0.930 . S
C3942 C3940 1.384 . S
C3942 C3943 1.372 . S
C3943 C3942 1.372 . S
C3943 C3944 1.400 . S
C3943 C3948 1.490 . S
C3944 H3934 0.930 . S
C3944 C3943 1.400 . S
C3944 C3947 1.386 . S
H3945 C3961 0.930 . S
H3946 C3962 0.931 . S
C3947 H3935 0.929 . S
C3947 C3941 1.390 . S
C3947 C3944 1.386 . S
C3948 C3943 1.490 . S
C3948 C3950 1.395 . S
C3948 C3951 1.403 . S
H3949 C3955 0.930 . S
C3950 H3936 0.930 . S
C3950 C3948 1.395 . S
C3950 C3953 1.403 . S
C3951 C3948 1.403 . S
C3951 C3952 1.524 . S
C3951 C3955 1.400 . S
C3952 H3937 0.960 . S
C3952 H3938 0.960 . S
C3952 H3939 0.960 . S
C3952 C3951 1.524 . S
C3953 C3950 1.403 . S
C3953 C3954 1.392 . S
C3953 C3957 1.495 . S
C3954 C3953 1.392 . S
C3954 C3955 1.385 . S
C3954 C3956 1.478 . S
C3955 H3949 0.930 . S
C3955 C3951 1.400 . S
C3955 C3954 1.385 . S
C3956 C3954 1.478 . S
C3956 C3958 1.381 . S
C3956 C3962 1.383 . S
C3957 C3953 1.495 . S
C3957 H3963 0.959 . S
C3957 H3964 0.961 . S
C3957 H3965 0.960 . S
C3958 C3956 1.381 . S
C3958 C3959 1.394 . S
C3958 H3966 0.930 . S
C3959 C3958 1.394 . S
C3959 C3960 1.383 . S
C3959 H3967 0.929 . S
C3960 C3959 1.383 . S
C3960 C3961 1.377 . S
C3961 H3945 0.930 . S
C3961 C3960 1.377 . S
C3961 C3962 1.379 . S
C3962 H3946 0.931 . S
C3962 C3956 1.383 . S
C3962 C3961 1.379 . S
H3963 C3957 0.959 . S
H3964 C3957 0.961 . S
H3965 C3957 0.960 . S
H3966 C3958 0.930 . S
H3967 C3959 0.929 . S
C1097 C9 0.512 . S
C1116 C349 0.495 . S
C1133 C383 0.524 . S
C1152 C43 0.466 . S
C1169 C281 0.512 . S
C1188 C77 0.494 . S
C1205 C111 0.511 . S
C1224 C315 0.587 . S
C1241 C145 0.507 . S
C1260 C485 0.560 . S
C1277 C179 0.522 . S
C1296 C519 0.575 . S
C1313 C417 0.522 . S
C1332 C213 0.482 . S
C1349 C451 0.509 . S
C1368 C247 0.547 . S
C1385 C893 0.517 . S
C1404 C553 0.474 . S
C1421 C927 0.524 . S
C1440 C587 0.589 . S
C1457 C621 0.516 . S
C1476 C825 0.595 . S
C1493 C859 0.533 . S
C1512 C655 0.546 . S
C1529 C689 0.511 . S
C1548 C1029 0.534 . S
C1565 C1063 0.510 . S
C1584 C723 0.536 . S
C1601 C757 0.520 . S
C1620 C961 0.488 . S
C1637 C791 0.519 . S
C1656 C995 0.492 . S
C1673 C2 1.819 . S
C1692 C852 1.808 . S
C1709 C36 1.823 . S
C1728 C818 1.828 . S
C1745 C70 1.823 . S
C1764 C920 1.824 . S
C1781 C104 1.823 . S
C1800 C886 1.828 . S
C1817 C138 1.823 . S
C1836 C988 1.806 . S
C1853 C172 1.820 . S
C1872 C954 1.828 . S
C1889 C1056 1.820 . S
C1908 C206 1.827 . S
C1925 C240 1.822 . S
C1944 C1022 1.806 . S
C1961 C580 1.819 . S
C1980 C274 1.807 . S
C1997 C308 1.823 . S
C2016 C546 1.824 . S
C2033 C342 1.821 . S
C2052 C648 1.817 . S
C2069 C614 1.822 . S
C2088 C376 1.823 . S
C2105 C716 1.819 . S
C2124 C410 1.828 . S
C2141 C682 1.820 . S
C2160 C444 1.827 . S
C2177 C478 1.819 . S
C2196 C784 1.824 . S
C2213 C750 1.822 . S
C2232 C512 1.806 . S
C2249 C73 0.413 . S
C2268 C5 0.452 . S
C2285 C39 0.436 . S
C2304 C107 0.433 . S
C2321 C209 0.412 . S
C2340 C141 0.413 . S
C2357 C175 0.415 . S
C2376 C243 0.364 . S
C2393 C277 0.412 . S
C2412 C345 0.385 . S
C2429 C311 0.411 . S
C2448 C379 0.397 . S
C2465 C481 0.415 . S
C2484 C413 0.364 . S
C2501 C515 0.427 . S
C2520 C447 0.397 . S
C2537 C617 0.435 . S
C2556 C549 0.471 . S
C2573 C583 0.416 . S
C2592 C651 0.467 . S
C2609 C685 0.410 . S
C2628 C753 0.386 . S
C2645 C719 0.427 . S
C2664 C787 0.398 . S
C2681 C889 0.417 . S
C2700 C821 0.366 . S
C2717 C855 0.429 . S
C2736 C923 0.381 . S
C2753 C957 0.428 . S
C2772 C1025 0.484 . S
C2789 C1059 0.436 . S
C2808 C991 0.468 . S
C2825 C781 2.509 . S
C2844 C20 2.497 . S
C2861 C543 2.510 . S
C2880 C54 2.499 . S
C2897 C88 2.493 . S
C2916 C985 2.500 . S
C2933 C203 2.509 . S
C2952 C122 2.495 . S
C2969 C156 2.496 . S
C2988 C645 2.501 . S
C3005 C190 2.493 . S
C3024 C407 2.503 . S
C3041 C849 2.509 . S
C3060 C224 2.498 . S
C3077 C258 2.494 . S
C3096 C67 2.500 . S
C3113 C292 2.493 . S
C3132 C1053 2.499 . S
C3149 C271 2.508 . S
C3168 C326 2.482 . S
C3185 C360 2.493 . S
C3204 C713 2.499 . S
C3221 C394 2.495 . S
C3240 C475 2.507 . S
C3257 C917 2.507 . S
C3276 C428 2.495 . S
C3293 C462 2.496 . S
C3312 C135 2.499 . S
C3329 C577 2.509 . S
C3348 C496 2.482 . S
C3365 C339 2.508 . S
C3384 C530 2.484 . S
C3401 C237 2.508 . S
C3420 C564 2.484 . S
C3437 C598 2.495 . S
C3456 C1087 2.507 . S
C3473 C632 2.496 . S
C3492 C441 2.509 . S
C3509 C666 2.496 . S
C3528 C747 2.509 . S
C3545 C700 2.494 . S
C3564 C101 2.509 . S
C3581 C734 2.493 . S
C3600 C951 2.507 . S
C3617 C305 2.508 . S
C3636 C768 2.484 . S
C3653 C611 2.509 . S
C3672 C802 2.482 . S
C3689 C509 2.510 . S
C3708 C836 2.499 . S
C3725 C870 2.494 . S
C3744 C815 2.504 . S
C3761 C169 2.508 . S
C3780 C904 2.492 . S
C3797 C1019 2.509 . S
C3816 C938 2.498 . S
C3833 C972 2.496 . S
C3852 C373 2.500 . S
C3869 C1006 2.495 . S
C3888 C679 2.499 . S
C3905 C33 2.508 . S
C3924 C1040 2.483 . S
C3941 C1074 2.495 . S
C3960 C883 2.499 . S
