# Generated by pormake.
# Topology fcg, (5)-cn, num edge types: 1
# Building blocks:
#     Node 0, Type 0, BuildingBlock: BEQFEK_clean_sbu_0, # of connection points: 5
#     Node 1, Type 0, BuildingBlock: BEQFEK_clean_sbu_0, # of connection points: 5
#     Node 2, Type 0, BuildingBlock: BEQFEK_clean_sbu_0, # of connection points: 5
#     Node 3, Type 0, BuildingBlock: BEQFEK_clean_sbu_0, # of connection points: 5
#     Node 4, Type 0, BuildingBlock: BEQFEK_clean_sbu_0, # of connection points: 5
#     Node 5, Type 0, BuildingBlock: BEQFEK_clean_sbu_0, # of connection points: 5
#     Node 6, Type 0, BuildingBlock: BEQFEK_clean_sbu_0, # of connection points: 5
#     Node 7, Type 0, BuildingBlock: BEQFEK_clean_sbu_0, # of connection points: 5
#     Node 8, Type 0, BuildingBlock: BEQFEK_clean_sbu_0, # of connection points: 5
#     Node 9, Type 0, BuildingBlock: BEQFEK_clean_sbu_0, # of connection points: 5
#     Node 10, Type 0, BuildingBlock: BEQFEK_clean_sbu_0, # of connection points: 5
#     Node 11, Type 0, BuildingBlock: BEQFEK_clean_sbu_0, # of connection points: 5
#     Node 12, Type 0, BuildingBlock: BEQFEK_clean_sbu_0, # of connection points: 5
#     Node 13, Type 0, BuildingBlock: BEQFEK_clean_sbu_0, # of connection points: 5
#     Node 14, Type 0, BuildingBlock: BEQFEK_clean_sbu_0, # of connection points: 5
#     Node 15, Type 0, BuildingBlock: BEQFEK_clean_sbu_0, # of connection points: 5
#     Node 16, Type 0, BuildingBlock: BEQFEK_clean_sbu_0, # of connection points: 5
#     Node 17, Type 0, BuildingBlock: BEQFEK_clean_sbu_0, # of connection points: 5
#     Node 18, Type 0, BuildingBlock: BEQFEK_clean_sbu_0, # of connection points: 5
#     Node 19, Type 0, BuildingBlock: BEQFEK_clean_sbu_0, # of connection points: 5
#     Node 20, Type 0, BuildingBlock: BEQFEK_clean_sbu_0, # of connection points: 5
#     Node 21, Type 0, BuildingBlock: BEQFEK_clean_sbu_0, # of connection points: 5
#     Node 22, Type 0, BuildingBlock: BEQFEK_clean_sbu_0, # of connection points: 5
#     Node 23, Type 0, BuildingBlock: BEQFEK_clean_sbu_0, # of connection points: 5
#     Node 24, Type 0, BuildingBlock: BEQFEK_clean_sbu_0, # of connection points: 5
#     Node 25, Type 0, BuildingBlock: BEQFEK_clean_sbu_0, # of connection points: 5
#     Node 26, Type 0, BuildingBlock: BEQFEK_clean_sbu_0, # of connection points: 5
#     Node 27, Type 0, BuildingBlock: BEQFEK_clean_sbu_0, # of connection points: 5
#     Node 28, Type 0, BuildingBlock: BEQFEK_clean_sbu_0, # of connection points: 5
#     Node 29, Type 0, BuildingBlock: BEQFEK_clean_sbu_0, # of connection points: 5
#     Node 30, Type 0, BuildingBlock: BEQFEK_clean_sbu_0, # of connection points: 5
#     Node 31, Type 0, BuildingBlock: BEQFEK_clean_sbu_0, # of connection points: 5
#     Node 32, Type 0, BuildingBlock: BEQFEK_clean_sbu_0, # of connection points: 5
#     Node 33, Type 0, BuildingBlock: BEQFEK_clean_sbu_0, # of connection points: 5
#     Node 34, Type 0, BuildingBlock: BEQFEK_clean_sbu_0, # of connection points: 5
#     Node 35, Type 0, BuildingBlock: BEQFEK_clean_sbu_0, # of connection points: 5
#     Node 36, Type 0, BuildingBlock: BEQFEK_clean_sbu_0, # of connection points: 5
#     Node 37, Type 0, BuildingBlock: BEQFEK_clean_sbu_0, # of connection points: 5
#     Node 38, Type 0, BuildingBlock: BEQFEK_clean_sbu_0, # of connection points: 5
#     Node 39, Type 0, BuildingBlock: BEQFEK_clean_sbu_0, # of connection points: 5
#     Node 40, Type 0, BuildingBlock: BEQFEK_clean_sbu_0, # of connection points: 5
#     Node 41, Type 0, BuildingBlock: BEQFEK_clean_sbu_0, # of connection points: 5
#     Node 42, Type 0, BuildingBlock: BEQFEK_clean_sbu_0, # of connection points: 5
#     Node 43, Type 0, BuildingBlock: BEQFEK_clean_sbu_0, # of connection points: 5
#     Node 44, Type 0, BuildingBlock: BEQFEK_clean_sbu_0, # of connection points: 5
#     Node 45, Type 0, BuildingBlock: BEQFEK_clean_sbu_0, # of connection points: 5
#     Node 46, Type 0, BuildingBlock: BEQFEK_clean_sbu_0, # of connection points: 5
#     Node 47, Type 0, BuildingBlock: BEQFEK_clean_sbu_0, # of connection points: 5
#     Edge 48, Type (0, 0), BuildingBlock: CIFDUS_clean_linker_0, # of connection points: 2
#     Edge 49, Type (0, 0), BuildingBlock: CIFDUS_clean_linker_0, # of connection points: 2
#     Edge 50, Type (0, 0), BuildingBlock: CIFDUS_clean_linker_0, # of connection points: 2
#     Edge 51, Type (0, 0), BuildingBlock: CIFDUS_clean_linker_0, # of connection points: 2
#     Edge 52, Type (0, 0), BuildingBlock: CIFDUS_clean_linker_0, # of connection points: 2
#     Edge 53, Type (0, 0), BuildingBlock: CIFDUS_clean_linker_0, # of connection points: 2
#     Edge 54, Type (0, 0), BuildingBlock: CIFDUS_clean_linker_0, # of connection points: 2
#     Edge 55, Type (0, 0), BuildingBlock: CIFDUS_clean_linker_0, # of connection points: 2
#     Edge 56, Type (0, 0), BuildingBlock: CIFDUS_clean_linker_0, # of connection points: 2
#     Edge 57, Type (0, 0), BuildingBlock: CIFDUS_clean_linker_0, # of connection points: 2
#     Edge 58, Type (0, 0), BuildingBlock: CIFDUS_clean_linker_0, # of connection points: 2
#     Edge 59, Type (0, 0), BuildingBlock: CIFDUS_clean_linker_0, # of connection points: 2
#     Edge 60, Type (0, 0), BuildingBlock: CIFDUS_clean_linker_0, # of connection points: 2
#     Edge 61, Type (0, 0), BuildingBlock: CIFDUS_clean_linker_0, # of connection points: 2
#     Edge 62, Type (0, 0), BuildingBlock: CIFDUS_clean_linker_0, # of connection points: 2
#     Edge 63, Type (0, 0), BuildingBlock: CIFDUS_clean_linker_0, # of connection points: 2
#     Edge 64, Type (0, 0), BuildingBlock: CIFDUS_clean_linker_0, # of connection points: 2
#     Edge 65, Type (0, 0), BuildingBlock: CIFDUS_clean_linker_0, # of connection points: 2
#     Edge 66, Type (0, 0), BuildingBlock: CIFDUS_clean_linker_0, # of connection points: 2
#     Edge 67, Type (0, 0), BuildingBlock: CIFDUS_clean_linker_0, # of connection points: 2
#     Edge 68, Type (0, 0), BuildingBlock: CIFDUS_clean_linker_0, # of connection points: 2
#     Edge 69, Type (0, 0), BuildingBlock: CIFDUS_clean_linker_0, # of connection points: 2
#     Edge 70, Type (0, 0), BuildingBlock: CIFDUS_clean_linker_0, # of connection points: 2
#     Edge 71, Type (0, 0), BuildingBlock: CIFDUS_clean_linker_0, # of connection points: 2
#     Edge 72, Type (0, 0), BuildingBlock: CIFDUS_clean_linker_0, # of connection points: 2
#     Edge 73, Type (0, 0), BuildingBlock: CIFDUS_clean_linker_0, # of connection points: 2
#     Edge 74, Type (0, 0), BuildingBlock: CIFDUS_clean_linker_0, # of connection points: 2
#     Edge 75, Type (0, 0), BuildingBlock: CIFDUS_clean_linker_0, # of connection points: 2
#     Edge 76, Type (0, 0), BuildingBlock: CIFDUS_clean_linker_0, # of connection points: 2
#     Edge 77, Type (0, 0), BuildingBlock: CIFDUS_clean_linker_0, # of connection points: 2
#     Edge 78, Type (0, 0), BuildingBlock: CIFDUS_clean_linker_0, # of connection points: 2
#     Edge 79, Type (0, 0), BuildingBlock: CIFDUS_clean_linker_0, # of connection points: 2
#     Edge 80, Type (0, 0), BuildingBlock: CIFDUS_clean_linker_0, # of connection points: 2
#     Edge 81, Type (0, 0), BuildingBlock: CIFDUS_clean_linker_0, # of connection points: 2
#     Edge 82, Type (0, 0), BuildingBlock: CIFDUS_clean_linker_0, # of connection points: 2
#     Edge 83, Type (0, 0), BuildingBlock: CIFDUS_clean_linker_0, # of connection points: 2
#     Edge 84, Type (0, 0), BuildingBlock: CIFDUS_clean_linker_0, # of connection points: 2
#     Edge 85, Type (0, 0), BuildingBlock: CIFDUS_clean_linker_0, # of connection points: 2
#     Edge 86, Type (0, 0), BuildingBlock: CIFDUS_clean_linker_0, # of connection points: 2
#     Edge 87, Type (0, 0), BuildingBlock: CIFDUS_clean_linker_0, # of connection points: 2
#     Edge 88, Type (0, 0), BuildingBlock: CIFDUS_clean_linker_0, # of connection points: 2
#     Edge 89, Type (0, 0), BuildingBlock: CIFDUS_clean_linker_0, # of connection points: 2
#     Edge 90, Type (0, 0), BuildingBlock: CIFDUS_clean_linker_0, # of connection points: 2
#     Edge 91, Type (0, 0), BuildingBlock: CIFDUS_clean_linker_0, # of connection points: 2
#     Edge 92, Type (0, 0), BuildingBlock: CIFDUS_clean_linker_0, # of connection points: 2
#     Edge 93, Type (0, 0), BuildingBlock: CIFDUS_clean_linker_0, # of connection points: 2
#     Edge 94, Type (0, 0), BuildingBlock: CIFDUS_clean_linker_0, # of connection points: 2
#     Edge 95, Type (0, 0), BuildingBlock: CIFDUS_clean_linker_0, # of connection points: 2
#     Edge 96, Type (0, 0), BuildingBlock: CIFDUS_clean_linker_0, # of connection points: 2
#     Edge 97, Type (0, 0), BuildingBlock: CIFDUS_clean_linker_0, # of connection points: 2
#     Edge 98, Type (0, 0), BuildingBlock: CIFDUS_clean_linker_0, # of connection points: 2
#     Edge 99, Type (0, 0), BuildingBlock: CIFDUS_clean_linker_0, # of connection points: 2
#     Edge 100, Type (0, 0), BuildingBlock: CIFDUS_clean_linker_0, # of connection points: 2
#     Edge 101, Type (0, 0), BuildingBlock: CIFDUS_clean_linker_0, # of connection points: 2
#     Edge 102, Type (0, 0), BuildingBlock: CIFDUS_clean_linker_0, # of connection points: 2
#     Edge 103, Type (0, 0), BuildingBlock: CIFDUS_clean_linker_0, # of connection points: 2
#     Edge 104, Type (0, 0), BuildingBlock: CIFDUS_clean_linker_0, # of connection points: 2
#     Edge 105, Type (0, 0), BuildingBlock: CIFDUS_clean_linker_0, # of connection points: 2
#     Edge 106, Type (0, 0), BuildingBlock: CIFDUS_clean_linker_0, # of connection points: 2
#     Edge 107, Type (0, 0), BuildingBlock: CIFDUS_clean_linker_0, # of connection points: 2
#     Edge 108, Type (0, 0), BuildingBlock: CIFDUS_clean_linker_0, # of connection points: 2
#     Edge 109, Type (0, 0), BuildingBlock: CIFDUS_clean_linker_0, # of connection points: 2
#     Edge 110, Type (0, 0), BuildingBlock: CIFDUS_clean_linker_0, # of connection points: 2
#     Edge 111, Type (0, 0), BuildingBlock: CIFDUS_clean_linker_0, # of connection points: 2
#     Edge 112, Type (0, 0), BuildingBlock: CIFDUS_clean_linker_0, # of connection points: 2
#     Edge 113, Type (0, 0), BuildingBlock: CIFDUS_clean_linker_0, # of connection points: 2
#     Edge 114, Type (0, 0), BuildingBlock: CIFDUS_clean_linker_0, # of connection points: 2
#     Edge 115, Type (0, 0), BuildingBlock: CIFDUS_clean_linker_0, # of connection points: 2
#     Edge 116, Type (0, 0), BuildingBlock: CIFDUS_clean_linker_0, # of connection points: 2
#     Edge 117, Type (0, 0), BuildingBlock: CIFDUS_clean_linker_0, # of connection points: 2
#     Edge 118, Type (0, 0), BuildingBlock: CIFDUS_clean_linker_0, # of connection points: 2
#     Edge 119, Type (0, 0), BuildingBlock: CIFDUS_clean_linker_0, # of connection points: 2
#     Edge 120, Type (0, 0), BuildingBlock: CIFDUS_clean_linker_0, # of connection points: 2
#     Edge 121, Type (0, 0), BuildingBlock: CIFDUS_clean_linker_0, # of connection points: 2
#     Edge 122, Type (0, 0), BuildingBlock: CIFDUS_clean_linker_0, # of connection points: 2
#     Edge 123, Type (0, 0), BuildingBlock: CIFDUS_clean_linker_0, # of connection points: 2
#     Edge 124, Type (0, 0), BuildingBlock: CIFDUS_clean_linker_0, # of connection points: 2
#     Edge 125, Type (0, 0), BuildingBlock: CIFDUS_clean_linker_0, # of connection points: 2
#     Edge 126, Type (0, 0), BuildingBlock: CIFDUS_clean_linker_0, # of connection points: 2
#     Edge 127, Type (0, 0), BuildingBlock: CIFDUS_clean_linker_0, # of connection points: 2
#     Edge 128, Type (0, 0), BuildingBlock: CIFDUS_clean_linker_0, # of connection points: 2
#     Edge 129, Type (0, 0), BuildingBlock: CIFDUS_clean_linker_0, # of connection points: 2
#     Edge 130, Type (0, 0), BuildingBlock: CIFDUS_clean_linker_0, # of connection points: 2
#     Edge 131, Type (0, 0), BuildingBlock: CIFDUS_clean_linker_0, # of connection points: 2
#     Edge 132, Type (0, 0), BuildingBlock: CIFDUS_clean_linker_0, # of connection points: 2
#     Edge 133, Type (0, 0), BuildingBlock: CIFDUS_clean_linker_0, # of connection points: 2
#     Edge 134, Type (0, 0), BuildingBlock: CIFDUS_clean_linker_0, # of connection points: 2
#     Edge 135, Type (0, 0), BuildingBlock: CIFDUS_clean_linker_0, # of connection points: 2
#     Edge 136, Type (0, 0), BuildingBlock: CIFDUS_clean_linker_0, # of connection points: 2
#     Edge 137, Type (0, 0), BuildingBlock: CIFDUS_clean_linker_0, # of connection points: 2
#     Edge 138, Type (0, 0), BuildingBlock: CIFDUS_clean_linker_0, # of connection points: 2
#     Edge 139, Type (0, 0), BuildingBlock: CIFDUS_clean_linker_0, # of connection points: 2
#     Edge 140, Type (0, 0), BuildingBlock: CIFDUS_clean_linker_0, # of connection points: 2
#     Edge 141, Type (0, 0), BuildingBlock: CIFDUS_clean_linker_0, # of connection points: 2
#     Edge 142, Type (0, 0), BuildingBlock: CIFDUS_clean_linker_0, # of connection points: 2
#     Edge 143, Type (0, 0), BuildingBlock: CIFDUS_clean_linker_0, # of connection points: 2
#     Edge 144, Type (0, 0), BuildingBlock: CIFDUS_clean_linker_0, # of connection points: 2
#     Edge 145, Type (0, 0), BuildingBlock: CIFDUS_clean_linker_0, # of connection points: 2
#     Edge 146, Type (0, 0), BuildingBlock: CIFDUS_clean_linker_0, # of connection points: 2
#     Edge 147, Type (0, 0), BuildingBlock: CIFDUS_clean_linker_0, # of connection points: 2
#     Edge 148, Type (0, 0), BuildingBlock: CIFDUS_clean_linker_0, # of connection points: 2
#     Edge 149, Type (0, 0), BuildingBlock: CIFDUS_clean_linker_0, # of connection points: 2
#     Edge 150, Type (0, 0), BuildingBlock: CIFDUS_clean_linker_0, # of connection points: 2
#     Edge 151, Type (0, 0), BuildingBlock: CIFDUS_clean_linker_0, # of connection points: 2
#     Edge 152, Type (0, 0), BuildingBlock: CIFDUS_clean_linker_0, # of connection points: 2
#     Edge 153, Type (0, 0), BuildingBlock: CIFDUS_clean_linker_0, # of connection points: 2
#     Edge 154, Type (0, 0), BuildingBlock: CIFDUS_clean_linker_0, # of connection points: 2
#     Edge 155, Type (0, 0), BuildingBlock: CIFDUS_clean_linker_0, # of connection points: 2
#     Edge 156, Type (0, 0), BuildingBlock: CIFDUS_clean_linker_0, # of connection points: 2
#     Edge 157, Type (0, 0), BuildingBlock: CIFDUS_clean_linker_0, # of connection points: 2
#     Edge 158, Type (0, 0), BuildingBlock: CIFDUS_clean_linker_0, # of connection points: 2
#     Edge 159, Type (0, 0), BuildingBlock: CIFDUS_clean_linker_0, # of connection points: 2
#     Edge 160, Type (0, 0), BuildingBlock: CIFDUS_clean_linker_0, # of connection points: 2
#     Edge 161, Type (0, 0), BuildingBlock: CIFDUS_clean_linker_0, # of connection points: 2
#     Edge 162, Type (0, 0), BuildingBlock: CIFDUS_clean_linker_0, # of connection points: 2
#     Edge 163, Type (0, 0), BuildingBlock: CIFDUS_clean_linker_0, # of connection points: 2
#     Edge 164, Type (0, 0), BuildingBlock: CIFDUS_clean_linker_0, # of connection points: 2
#     Edge 165, Type (0, 0), BuildingBlock: CIFDUS_clean_linker_0, # of connection points: 2
#     Edge 166, Type (0, 0), BuildingBlock: CIFDUS_clean_linker_0, # of connection points: 2
#     Edge 167, Type (0, 0), BuildingBlock: CIFDUS_clean_linker_0, # of connection points: 2
# Relax obj value: 0.233
# Max RMSD: 0.172
# Mean RMSD: 0.172
data_MOF--net-fcg--node1-BEQFEK_clean_sbu_0--edge1-CIFDUS_clean_linker_0
_symmetry_space_group_name_H-M    P1
_symmetry_Int_Tables_number       1
_symmetry_cell_setting            triclinic
loop_
_symmetry_equiv_pos_as_xyz
'x, y, z'
_cell_length_a     59.447994
_cell_length_b     59.445779
_cell_length_c     59.449091
_cell_angle_alpha  89.982694
_cell_angle_beta   89.981085
_cell_angle_gamma 90.004804
loop_
_atom_site_label
_atom_site_type_symbol
_atom_site_fract_x
_atom_site_fract_y
_atom_site_fract_z
_atom_type_partial_charge
Co0 Co 0.15279 0.30274 0.15563 0.0
Co1 Co 0.10168 0.31494 0.15471 0.0
C2 C 0.1146 0.27332 0.17473 0.0
O3 O 0.13463 0.28003 0.17146 0.0
O4 O 0.09782 0.28394 0.16672 0.0
C5 C 0.18101 0.26912 0.13962 0.0
O6 O 0.16167 0.26268 0.13107 0.0
C7 C 0.05265 0.32185 0.14876 0.0
C8 C 0.05119 0.35894 0.1462 0.0
C9 C 0.03793 0.3398 0.14595 0.0
N10 N 0.07367 0.33007 0.15037 0.0
N11 N 0.07265 0.35223 0.14879 0.0
C12 C 0.04695 0.29748 0.15158 0.0
H13 H 0.05502 0.29099 0.16708 0.0
H14 H 0.05382 0.28785 0.13715 0.0
H15 H 0.02856 0.29466 0.15285 0.0
C16 C 0.1488 0.31264 0.10732 0.0
N17 N 0.13997 0.31125 0.1281 0.0
N18 N 0.11828 0.31537 0.12717 0.0
C19 C 0.1125 0.31904 0.10549 0.0
C20 C 0.1317 0.31729 0.0922 0.0
C21 C 0.17334 0.31044 0.10209 0.0
H22 H 0.18361 0.31525 0.11689 0.0
H23 H 0.17714 0.29275 0.09755 0.0
H24 H 0.17793 0.32123 0.08754 0.0
O25 O 0.15458 0.32797 0.17676 0.0
O26 O 0.1174 0.33127 0.17983 0.0
H27 H 0.08381 0.34023 0.10167 0.0
H28 H 0.08736 0.32009 0.07921 0.0
C29 C 0.0889 0.32274 0.09762 0.0
H30 H 0.07737 0.31116 0.10661 0.0
H31 H 0.08664 0.36279 0.14961 0.0
O32 O 0.18187 0.28735 0.15084 0.0
C33 C 0.13726 0.33591 0.18654 0.0
Co34 Co 0.69959 0.14989 0.15365 0.0
Co35 Co 0.67608 0.10297 0.15824 0.0
C36 C 0.72503 0.10947 0.1682 0.0
O37 O 0.72412 0.1297 0.16162 0.0
O38 O 0.70761 0.09703 0.16859 0.0
C39 C 0.73226 0.17704 0.13322 0.0
O40 O 0.73771 0.15748 0.12451 0.0
C41 C 0.67043 0.05603 0.14687 0.0
C42 C 0.63598 0.0483 0.15846 0.0
C43 C 0.65467 0.03874 0.14821 0.0
N44 N 0.66145 0.07464 0.15593 0.0
N45 N 0.64086 0.06999 0.16286 0.0
C46 C 0.69311 0.05585 0.13588 0.0
H47 H 0.69801 0.07312 0.13076 0.0
H48 H 0.69313 0.04471 0.1209 0.0
H49 H 0.70583 0.04974 0.14809 0.0
C50 C 0.67957 0.14751 0.10837 0.0
N51 N 0.68312 0.13888 0.12898 0.0
N52 N 0.67405 0.11873 0.13017 0.0
C53 C 0.66456 0.11384 0.11007 0.0
C54 C 0.66805 0.13185 0.09556 0.0
C55 C 0.68633 0.17069 0.1012 0.0
H56 H 0.6852 0.18248 0.1156 0.0
H57 H 0.70391 0.17036 0.09498 0.0
H58 H 0.67538 0.17684 0.08738 0.0
O59 O 0.6809 0.15285 0.18122 0.0
O60 O 0.662 0.12048 0.18295 0.0
H61 H 0.64104 0.08764 0.11779 0.0
H62 H 0.64484 0.09238 0.08804 0.0
C63 C 0.65344 0.09193 0.10455 0.0
H64 H 0.66631 0.07849 0.10393 0.0
H65 H 0.63015 0.08161 0.17051 0.0
O66 O 0.71521 0.1783 0.14616 0.0
C67 C 0.66673 0.13987 0.19082 0.0
Co68 Co 0.85358 0.70599 0.1525 0.0
Co69 Co 0.90092 0.68255 0.15604 0.0
C70 C 0.89373 0.73108 0.16827 0.0
O71 O 0.87354 0.73044 0.16154 0.0
O72 O 0.90622 0.71371 0.16788 0.0
C73 C 0.82682 0.73887 0.13272 0.0
O74 O 0.84694 0.74526 0.12619 0.0
C75 C 0.94786 0.67681 0.14189 0.0
C76 C 0.95625 0.6431 0.15503 0.0
C77 C 0.96514 0.66105 0.14304 0.0
N78 N 0.92966 0.6684 0.15243 0.0
N79 N 0.93478 0.64821 0.16019 0.0
C80 C 0.94879 0.69996 0.13197 0.0
H81 H 0.94778 0.69885 0.11339 0.0
H82 H 0.96487 0.70831 0.1365 0.0
H83 H 0.93447 0.71032 0.13771 0.0
C84 C 0.85499 0.68564 0.1073 0.0
N85 N 0.86452 0.69015 0.12735 0.0
N86 N 0.88469 0.68106 0.12814 0.0
C87 C 0.88867 0.67063 0.10829 0.0
C88 C 0.87 0.67327 0.09452 0.0
C89 C 0.83201 0.69333 0.10039 0.0
H90 H 0.82008 0.69135 0.11459 0.0
H91 H 0.83281 0.71134 0.09564 0.0
H92 H 0.82556 0.68388 0.0857 0.0
O93 O 0.85091 0.68622 0.17943 0.0
O94 O 0.88351 0.66755 0.18059 0.0
H95 H 0.91301 0.64563 0.11728 0.0
H96 H 0.90683 0.64691 0.08753 0.0
C97 C 0.90917 0.65703 0.10304 0.0
H98 H 0.92366 0.66847 0.10054 0.0
H99 H 0.92365 0.63797 0.16913 0.0
O100 O 0.82492 0.72125 0.14477 0.0
C101 C 0.86405 0.67191 0.18865 0.0
Co102 Co 0.30121 0.84625 0.1547 0.0
Co103 Co 0.32111 0.89516 0.16023 0.0
C104 C 0.27476 0.884 0.17523 0.0
O105 O 0.27718 0.86394 0.16844 0.0
O106 O 0.29028 0.89851 0.17295 0.0
C107 C 0.26772 0.82152 0.13398 0.0
O108 O 0.26136 0.84232 0.13001 0.0
C109 C 0.32214 0.94337 0.15342 0.0
C110 C 0.35726 0.95279 0.16095 0.0
C111 C 0.33657 0.96166 0.15482 0.0
N112 N 0.33363 0.92467 0.15869 0.0
N113 N 0.35466 0.93035 0.16315 0.0
C114 C 0.29816 0.94324 0.14575 0.0
H115 H 0.29413 0.92698 0.1375 0.0
H116 H 0.29488 0.95727 0.13388 0.0
H117 H 0.28697 0.94515 0.16057 0.0
C118 C 0.31891 0.85255 0.10887 0.0
N119 N 0.31463 0.8604 0.12967 0.0
N120 N 0.32201 0.88119 0.13133 0.0
C121 C 0.33081 0.88741 0.11129 0.0
C122 C 0.32919 0.8694 0.09649 0.0
C123 C 0.31306 0.82934 0.10098 0.0
H124 H 0.3163 0.81697 0.11456 0.0
H125 H 0.29494 0.82881 0.0966 0.0
H126 H 0.32269 0.82442 0.08583 0.0
O127 O 0.32292 0.84222 0.17969 0.0
O128 O 0.33754 0.87672 0.18311 0.0
H129 H 0.35556 0.9123 0.11903 0.0
H130 H 0.34864 0.9105 0.08947 0.0
C131 C 0.34175 0.90961 0.10679 0.0
H132 H 0.32924 0.92324 0.10913 0.0
H133 H 0.36718 0.91895 0.16778 0.0
O134 O 0.28586 0.81816 0.14489 0.0
C135 C 0.33587 0.85627 0.18955 0.0
Co136 Co 0.14848 0.7117 0.84699 0.0
Co137 Co 0.1029 0.68612 0.83853 0.0
C138 C 0.10951 0.73339 0.82359 0.0
O139 O 0.12909 0.73352 0.8319 0.0
O140 O 0.09711 0.71606 0.82462 0.0
C141 C 0.16666 0.74879 0.86755 0.0
O142 O 0.14498 0.75193 0.87034 0.0
C143 C 0.05545 0.68262 0.84528 0.0
C144 C 0.04665 0.64764 0.83648 0.0
C145 C 0.03746 0.66788 0.84367 0.0
N146 N 0.07426 0.6718 0.83915 0.0
N147 N 0.069 0.65085 0.8339 0.0
C148 C 0.05538 0.70617 0.85428 0.0
H149 H 0.05229 0.71811 0.84028 0.0
H150 H 0.07196 0.7103 0.8618 0.0
H151 H 0.04202 0.70835 0.86714 0.0
C152 C 0.14102 0.69517 0.89279 0.0
N153 N 0.13431 0.69757 0.87134 0.0
N154 N 0.11496 0.68728 0.86844 0.0
C155 C 0.10858 0.67813 0.8883 0.0
C156 C 0.12485 0.68306 0.90441 0.0
C157 C 0.16352 0.70248 0.90146 0.0
H158 H 0.1764 0.70092 0.88806 0.0
H159 H 0.16254 0.72033 0.90679 0.0
H160 H 0.1688 0.6922 0.91612 0.0
O161 O 0.15666 0.68959 0.82331 0.0
O162 O 0.12435 0.67132 0.81725 0.0
H163 H 0.08637 0.6512 0.87948 0.0
H164 H 0.08587 0.65841 0.90907 0.0
C165 C 0.08725 0.6652 0.89177 0.0
H166 H 0.07271 0.67644 0.88881 0.0
H167 H 0.08059 0.63879 0.82859 0.0
O168 O 0.17355 0.73096 0.85786 0.0
C169 C 0.14505 0.675 0.81255 0.0
Co170 Co 0.29158 0.14954 0.85207 0.0
Co171 Co 0.31472 0.10262 0.84302 0.0
C172 C 0.26628 0.10959 0.83386 0.0
O173 O 0.2677 0.12966 0.84106 0.0
O174 O 0.28325 0.09657 0.8336 0.0
C175 C 0.2577 0.17439 0.87409 0.0
O176 O 0.24983 0.154 0.87741 0.0
C177 C 0.3235 0.05419 0.84621 0.0
C178 C 0.36032 0.05235 0.84131 0.0
C179 C 0.34151 0.03931 0.84576 0.0
N180 N 0.33139 0.07509 0.84264 0.0
N181 N 0.35338 0.07386 0.83962 0.0
C182 C 0.29899 0.04879 0.8485 0.0
H183 H 0.29022 0.05384 0.83283 0.0
H184 H 0.29169 0.05872 0.86251 0.0
H185 H 0.29584 0.03064 0.85122 0.0
C186 C 0.31143 0.14275 0.89648 0.0
N187 N 0.30803 0.136 0.87521 0.0
N188 N 0.31649 0.11576 0.8724 0.0
C189 C 0.32501 0.10868 0.89228 0.0
C190 C 0.32191 0.12556 0.90822 0.0
C191 C 0.30562 0.16569 0.90514 0.0
H192 H 0.30796 0.17841 0.8917 0.0
H193 H 0.28778 0.16589 0.91058 0.0
H194 H 0.31632 0.17028 0.91973 0.0
O195 O 0.31053 0.15618 0.82577 0.0
O196 O 0.32672 0.12308 0.81901 0.0
H197 H 0.35036 0.0838 0.88691 0.0
H198 H 0.33733 0.08237 0.91436 0.0
C199 C 0.33432 0.08564 0.89625 0.0
H200 H 0.32235 0.07291 0.88976 0.0
H201 H 0.36369 0.08776 0.83663 0.0
O202 O 0.27606 0.17689 0.86334 0.0
C203 C 0.32317 0.14364 0.8138 0.0
Co204 Co 0.85865 0.27916 0.84481 0.0
Co205 Co 0.90253 0.30838 0.83839 0.0
C206 C 0.89807 0.26331 0.81736 0.0
O207 O 0.87882 0.26133 0.82628 0.0
O208 O 0.91011 0.28073 0.82055 0.0
C209 C 0.84016 0.23787 0.85842 0.0
O210 O 0.86132 0.23191 0.85634 0.0
C211 C 0.94948 0.31903 0.84636 0.0
C212 C 0.95136 0.35559 0.84004 0.0
C213 C 0.96427 0.33726 0.84665 0.0
N214 N 0.92909 0.32636 0.83998 0.0
N215 N 0.9303 0.3482 0.83609 0.0
C216 C 0.95365 0.29528 0.85367 0.0
H217 H 0.93756 0.28689 0.85808 0.0
H218 H 0.96513 0.29479 0.86837 0.0
H219 H 0.96136 0.28577 0.83958 0.0
C220 C 0.86715 0.28892 0.89197 0.0
N221 N 0.87307 0.29049 0.87024 0.0
N222 N 0.89152 0.30257 0.86834 0.0
C223 C 0.89787 0.30918 0.88922 0.0
C224 C 0.88279 0.30034 0.9048 0.0
C225 C 0.84572 0.27844 0.90013 0.0
H226 H 0.8318 0.28247 0.88839 0.0
H227 H 0.84783 0.25991 0.90082 0.0
H228 H 0.84108 0.28454 0.91714 0.0
O229 O 0.84806 0.30353 0.82481 0.0
O230 O 0.87927 0.32374 0.81962 0.0
H231 H 0.9182 0.33817 0.88233 0.0
H232 H 0.91733 0.33026 0.9117 0.0
C233 C 0.91773 0.32381 0.89422 0.0
H234 H 0.93334 0.31387 0.89215 0.0
H235 H 0.91669 0.35811 0.83112 0.0
O236 O 0.83438 0.25805 0.85409 0.0
C237 C 0.85858 0.31971 0.81533 0.0
Co238 Co 0.70209 0.8476 0.8487 0.0
Co239 Co 0.69146 0.89936 0.8475 0.0
C240 C 0.7312 0.88336 0.82515 0.0
O241 O 0.72424 0.86377 0.83009 0.0
O242 O 0.72165 0.90085 0.833 0.0
C243 C 0.73638 0.82223 0.86559 0.0
O244 O 0.74331 0.84305 0.86832 0.0
C245 C 0.68814 0.94865 0.85502 0.0
C246 C 0.65124 0.95294 0.85651 0.0
C247 C 0.67133 0.96453 0.85863 0.0
N248 N 0.67836 0.92854 0.8514 0.0
N249 N 0.65631 0.93131 0.85219 0.0
C250 C 0.713 0.95262 0.85397 0.0
H251 H 0.72064 0.94205 0.84069 0.0
H252 H 0.72071 0.94791 0.87029 0.0
H253 H 0.71686 0.97051 0.85032 0.0
C254 C 0.69386 0.85442 0.89672 0.0
N255 N 0.69523 0.86245 0.87563 0.0
N256 N 0.69185 0.88429 0.87583 0.0
C257 C 0.68859 0.89091 0.89736 0.0
C258 C 0.68996 0.87213 0.91124 0.0
C259 C 0.69507 0.83002 0.90287 0.0
H260 H 0.68904 0.81943 0.88876 0.0
H261 H 0.71274 0.82552 0.9068 0.0
H262 H 0.68474 0.82651 0.91804 0.0
O263 O 0.67557 0.84549 0.8291 0.0
O264 O 0.67265 0.88269 0.82483 0.0
H265 H 0.66844 0.92061 0.89824 0.0
H266 H 0.68539 0.91642 0.92313 0.0
C267 C 0.68498 0.91473 0.90455 0.0
H268 H 0.69818 0.92555 0.89705 0.0
H269 H 0.6447 0.91831 0.85011 0.0
O270 O 0.71729 0.81886 0.85642 0.0
C271 C 0.6672 0.86264 0.81925 0.0
Co272 Co 0.15024 0.15203 0.30118 0.0
Co273 Co 0.15256 0.10049 0.31251 0.0
C274 C 0.17315 0.11651 0.27158 0.0
O275 O 0.16802 0.13615 0.27823 0.0
O276 O 0.16615 0.09911 0.28189 0.0
C277 C 0.13309 0.18028 0.26813 0.0
O278 O 0.12709 0.16046 0.26039 0.0
C279 C 0.14406 0.05134 0.31595 0.0
C280 C 0.14935 0.04593 0.35235 0.0
C281 C 0.14328 0.03499 0.3327 0.0
N282 N 0.14991 0.07107 0.32543 0.0
N283 N 0.15311 0.06764 0.34716 0.0
C284 C 0.14038 0.04808 0.29124 0.0
H285 H 0.14913 0.06122 0.28142 0.0
H286 H 0.12215 0.04923 0.28747 0.0
H287 H 0.14645 0.03126 0.28588 0.0
C288 C 0.10221 0.14474 0.31182 0.0
N289 N 0.12338 0.13705 0.30917 0.0
N290 N 0.12392 0.11534 0.31336 0.0
C291 C 0.10287 0.10844 0.31853 0.0
C292 C 0.0884 0.12683 0.31768 0.0
C293 C 0.09532 0.16865 0.30772 0.0
H294 H 0.09172 0.17089 0.28956 0.0
H295 H 0.07994 0.1733 0.31707 0.0
H296 H 0.10908 0.18023 0.31263 0.0
O297 O 0.1711 0.15415 0.3269 0.0
O298 O 0.17589 0.11711 0.33038 0.0
H299 H 0.07908 0.08366 0.33084 0.0
H300 H 0.09973 0.07347 0.31101 0.0
C301 C 0.09687 0.08498 0.32538 0.0
H302 H 0.10782 0.0796 0.33946 0.0
H303 H 0.15768 0.08022 0.35852 0.0
O304 O 0.14346 0.18137 0.28685 0.0
C305 C 0.18148 0.13729 0.3352 0.0
Co306 Co 0.8471 0.1505 0.28846 0.0
Co307 Co 0.89385 0.1588 0.3124 0.0
C308 C 0.88571 0.17141 0.2642 0.0
O309 O 0.86615 0.16291 0.2646 0.0
O310 O 0.89836 0.17132 0.28146 0.0
C311 C 0.82146 0.12983 0.25439 0.0
O312 O 0.84171 0.12704 0.246 0.0
C313 C 0.94238 0.15139 0.32037 0.0
C314 C 0.94629 0.16376 0.35515 0.0
C315 C 0.95823 0.15435 0.33743 0.0
N316 N 0.92221 0.15854 0.32786 0.0
N317 N 0.9247 0.16586 0.34868 0.0
C318 C 0.94625 0.14275 0.29703 0.0
H319 H 0.94757 0.12414 0.29749 0.0
H320 H 0.96211 0.1497 0.29005 0.0
H321 H 0.93205 0.14709 0.28585 0.0
C322 C 0.85319 0.10566 0.30825 0.0
N323 N 0.86084 0.1265 0.30378 0.0
N324 N 0.88056 0.12936 0.31342 0.0
C325 C 0.88613 0.11012 0.32426 0.0
C326 C 0.86891 0.09457 0.32136 0.0
C327 C 0.83117 0.09658 0.30003 0.0
H328 H 0.83216 0.09412 0.28158 0.0
H329 H 0.8269 0.08016 0.30774 0.0
H330 H 0.81756 0.10881 0.30365 0.0
O331 O 0.84095 0.17609 0.30911 0.0
O332 O 0.87363 0.18147 0.32671 0.0
H333 H 0.90761 0.12113 0.35093 0.0
H334 H 0.90641 0.0909 0.34761 0.0
C335 C 0.90662 0.10722 0.33855 0.0
H336 H 0.92179 0.10797 0.32774 0.0
H337 H 0.91166 0.17238 0.35845 0.0
O338 O 0.81928 0.13985 0.2732 0.0
C339 C 0.85319 0.18701 0.32302 0.0
Co340 Co 0.85506 0.85152 0.29068 0.0
Co341 Co 0.84641 0.89849 0.31418 0.0
C342 C 0.83857 0.8913 0.26505 0.0
O343 O 0.84611 0.87137 0.26602 0.0
O344 O 0.83719 0.90362 0.28246 0.0
C345 C 0.87751 0.82569 0.25796 0.0
O346 O 0.88244 0.84601 0.25079 0.0
C347 C 0.85428 0.94666 0.31968 0.0
C348 C 0.8477 0.95241 0.35579 0.0
C349 C 0.8551 0.963 0.33637 0.0
N350 N 0.84734 0.92721 0.32894 0.0
N351 N 0.84322 0.93079 0.35049 0.0
C352 C 0.8589 0.94939 0.29504 0.0
H353 H 0.84325 0.94585 0.28556 0.0
H354 H 0.87173 0.93693 0.28967 0.0
H355 H 0.86441 0.96659 0.29056 0.0
C356 C 0.89892 0.85681 0.31228 0.0
N357 N 0.87805 0.86429 0.30795 0.0
N358 N 0.87538 0.88437 0.31683 0.0
C359 C 0.89495 0.89053 0.32671 0.0
C360 C 0.91051 0.87326 0.32397 0.0
C361 C 0.90733 0.83384 0.30622 0.0
H362 H 0.89357 0.82135 0.30778 0.0
H363 H 0.91341 0.83397 0.28858 0.0
H364 H 0.92144 0.82868 0.31731 0.0
O365 O 0.82762 0.84656 0.30886 0.0
O366 O 0.8217 0.87905 0.32669 0.0
H367 H 0.88745 0.91547 0.35149 0.0
H368 H 0.91669 0.9148 0.34317 0.0
C369 C 0.89913 0.91304 0.33716 0.0
H370 H 0.89585 0.92638 0.32458 0.0
H371 H 0.83789 0.91838 0.3617 0.0
O372 O 0.86567 0.82348 0.2757 0.0
C373 C 0.8159 0.85883 0.32205 0.0
Co374 Co 0.15597 0.84346 0.30085 0.0
Co375 Co 0.10767 0.83885 0.32162 0.0
C376 C 0.11744 0.82742 0.27354 0.0
O377 O 0.13749 0.83436 0.27529 0.0
O378 O 0.1041 0.82744 0.29024 0.0
C379 C 0.18375 0.86405 0.26941 0.0
O380 O 0.16389 0.87145 0.26313 0.0
C381 C 0.06053 0.8498 0.32189 0.0
C382 C 0.04871 0.83891 0.35538 0.0
C383 C 0.04145 0.84832 0.33528 0.0
N384 N 0.07806 0.84148 0.33339 0.0
N385 N 0.07098 0.83503 0.35345 0.0
C386 C 0.06275 0.86018 0.29903 0.0
H387 H 0.08007 0.86669 0.29652 0.0
H388 H 0.05046 0.87405 0.2968 0.0
H389 H 0.05962 0.84715 0.28604 0.0
C390 C 0.15208 0.88892 0.32056 0.0
N391 N 0.14368 0.86835 0.31614 0.0
N392 N 0.12293 0.86711 0.32377 0.0
C393 C 0.11733 0.88719 0.33285 0.0
C394 C 0.13562 0.90158 0.33108 0.0
C395 C 0.17522 0.89659 0.31418 0.0
H396 H 0.18735 0.88256 0.31595 0.0
H397 H 0.17507 0.90233 0.29643 0.0
H398 H 0.18089 0.91087 0.32472 0.0
O399 O 0.15785 0.81633 0.32043 0.0
O400 O 0.12446 0.8147 0.33761 0.0
H401 H 0.09078 0.87881 0.35572 0.0
H402 H 0.09583 0.90867 0.35285 0.0
C403 C 0.09525 0.89239 0.34375 0.0
H404 H 0.082 0.89329 0.33068 0.0
H405 H 0.08128 0.82786 0.36572 0.0
O406 O 0.18511 0.85143 0.28668 0.0
C407 C 0.14417 0.80693 0.3341 0.0
Co408 Co 0.15122 0.84828 0.69727 0.0
Co409 Co 0.15635 0.89848 0.68121 0.0
C410 C 0.16985 0.88565 0.72685 0.0
O411 O 0.16483 0.86545 0.72218 0.0
O412 O 0.16671 0.90152 0.71287 0.0
C413 C 0.12971 0.82272 0.72943 0.0
O414 O 0.12523 0.84335 0.73599 0.0
C415 C 0.14775 0.94692 0.67571 0.0
C416 C 0.1632 0.95365 0.64257 0.0
C417 C 0.15204 0.96391 0.66026 0.0
N418 N 0.15583 0.92749 0.66741 0.0
N419 N 0.16489 0.93161 0.64752 0.0
C420 C 0.13778 0.94939 0.69871 0.0
H421 H 0.13912 0.9335 0.70834 0.0
H422 H 0.11973 0.95382 0.69733 0.0
H423 H 0.14635 0.96321 0.70788 0.0
C424 C 0.10582 0.85477 0.67882 0.0
N425 N 0.12627 0.86282 0.68424 0.0
N426 N 0.12774 0.88403 0.67808 0.0
C427 C 0.1079 0.89025 0.66883 0.0
C428 C 0.09345 0.87189 0.66901 0.0
C429 C 0.09828 0.83112 0.68317 0.0
H430 H 0.09311 0.82958 0.70103 0.0
H431 H 0.08369 0.82632 0.67265 0.0
H432 H 0.11229 0.81925 0.67994 0.0
O433 O 0.17549 0.84434 0.67482 0.0
O434 O 0.18054 0.88058 0.66634 0.0
H435 H 0.0869 0.91304 0.64973 0.0
H436 H 0.10297 0.92562 0.67218 0.0
C437 C 0.10328 0.91279 0.65868 0.0
H438 H 0.11688 0.91721 0.64671 0.0
H439 H 0.17263 0.91944 0.63752 0.0
O440 O 0.14128 0.81982 0.71164 0.0
C441 C 0.18628 0.85995 0.66476 0.0
Co442 Co 0.13954 0.14671 0.72237 0.0
Co443 Co 0.09618 0.15518 0.69306 0.0
C444 C 0.09989 0.17124 0.74058 0.0
O445 O 0.11883 0.16181 0.74266 0.0
O446 O 0.08907 0.1706 0.72216 0.0
C447 C 0.15827 0.12929 0.76163 0.0
O448 O 0.13681 0.12869 0.76677 0.0
C449 C 0.0497 0.14408 0.68328 0.0
C450 C 0.04541 0.15449 0.6479 0.0
C451 C 0.03439 0.14394 0.6656 0.0
N452 N 0.06891 0.15365 0.67616 0.0
N453 N 0.06623 0.15998 0.65502 0.0
C454 C 0.04623 0.13569 0.70682 0.0
H455 H 0.05837 0.14343 0.71854 0.0
H456 H 0.04897 0.11725 0.70735 0.0
H457 H 0.02886 0.13935 0.7126 0.0
C458 C 0.13299 0.10061 0.7062 0.0
N459 N 0.12627 0.12216 0.70785 0.0
N460 N 0.10824 0.1253 0.69543 0.0
C461 C 0.1031 0.10563 0.68517 0.0
C462 C 0.11851 0.08941 0.69182 0.0
C463 C 0.15289 0.09103 0.71834 0.0
H464 H 0.16794 0.10153 0.71496 0.0
H465 H 0.14953 0.09134 0.73667 0.0
H466 H 0.1564 0.07339 0.71348 0.0
O467 O 0.14879 0.17065 0.70063 0.0
O468 O 0.11841 0.17594 0.67915 0.0
H469 H 0.08555 0.11763 0.65601 0.0
H470 H 0.08862 0.08747 0.65716 0.0
C471 C 0.08556 0.10283 0.66732 0.0
H472 H 0.0688 0.10126 0.67531 0.0
H473 H 0.07872 0.16764 0.64535 0.0
O474 O 0.16433 0.13629 0.74229 0.0
C475 C 0.13852 0.18108 0.68483 0.0
Co476 Co 0.84483 0.15319 0.6949 0.0
Co477 Co 0.83955 0.10256 0.6802 0.0
C478 C 0.82358 0.11592 0.72363 0.0
O479 O 0.82826 0.1358 0.71755 0.0
O480 O 0.82959 0.09911 0.71193 0.0
C481 C 0.86814 0.17076 0.72936 0.0
O482 O 0.87068 0.14885 0.73071 0.0
C483 C 0.84652 0.05401 0.67612 0.0
C484 C 0.84308 0.04831 0.63956 0.0
C485 C 0.84859 0.03764 0.65955 0.0
N486 N 0.84074 0.07353 0.66627 0.0
N487 N 0.83843 0.06996 0.64445 0.0
C488 C 0.84885 0.05119 0.70106 0.0
H489 H 0.83345 0.05753 0.70941 0.0
H490 H 0.86328 0.06136 0.70713 0.0
H491 H 0.85098 0.03339 0.70609 0.0
C492 C 0.88967 0.14628 0.67623 0.0
N493 N 0.86936 0.13819 0.68199 0.0
N494 N 0.86818 0.11672 0.67696 0.0
C495 C 0.88821 0.11026 0.6683 0.0
C496 C 0.90238 0.12887 0.66739 0.0
C497 C 0.89685 0.17015 0.68007 0.0
H498 H 0.90395 0.17166 0.69725 0.0
H499 H 0.90996 0.1756 0.66805 0.0
H500 H 0.88219 0.18159 0.6786 0.0
O501 O 0.82143 0.15834 0.67202 0.0
O502 O 0.81523 0.1216 0.66602 0.0
H503 H 0.88244 0.08322 0.64541 0.0
H504 H 0.91116 0.08539 0.65472 0.0
C505 C 0.89335 0.08706 0.66002 0.0
H506 H 0.88967 0.07468 0.67347 0.0
H507 H 0.83439 0.08246 0.6328 0.0
O508 O 0.8567 0.17886 0.71309 0.0
C509 C 0.80989 0.14233 0.66342 0.0
Co510 Co 0.84569 0.84466 0.69304 0.0
Co511 Co 0.89674 0.84447 0.67894 0.0
C512 C 0.88401 0.82826 0.72305 0.0
O513 O 0.86376 0.83122 0.71706 0.0
O514 O 0.9003 0.8345 0.7107 0.0
C515 C 0.81808 0.86364 0.72553 0.0
O516 O 0.83766 0.87251 0.73068 0.0
C517 C 0.94498 0.85529 0.67541 0.0
C518 C 0.95088 0.85242 0.63882 0.0
C519 C 0.96128 0.8582 0.65886 0.0
N520 N 0.92574 0.84871 0.66547 0.0
N521 N 0.92945 0.84684 0.64363 0.0
C522 C 0.94771 0.8573 0.70038 0.0
H523 H 0.94159 0.8417 0.70853 0.0
H524 H 0.93732 0.87149 0.70663 0.0
H525 H 0.96547 0.85971 0.70543 0.0
C526 C 0.84867 0.89102 0.6761 0.0
N527 N 0.85821 0.87114 0.68121 0.0
N528 N 0.87974 0.87173 0.67614 0.0
C529 C 0.88471 0.89246 0.6682 0.0
C530 C 0.86515 0.90527 0.66779 0.0
C531 C 0.82431 0.89632 0.67981 0.0
H532 H 0.81396 0.881 0.67744 0.0
H533 H 0.82203 0.90249 0.69726 0.0
H534 H 0.8182 0.90961 0.6683 0.0
O535 O 0.84424 0.82113 0.66987 0.0
O536 O 0.88122 0.81849 0.66348 0.0
H537 H 0.91216 0.88931 0.64526 0.0
H538 H 0.90787 0.91754 0.6553 0.0
C539 C 0.90748 0.89953 0.66013 0.0
H540 H 0.92006 0.89643 0.67354 0.0
H541 H 0.91722 0.84215 0.63195 0.0
O542 O 0.81669 0.85091 0.70834 0.0
C543 C 0.86107 0.81146 0.66071 0.0
Co544 Co 0.30599 0.15424 0.15842 0.0
Co545 Co 0.31599 0.15693 0.10672 0.0
C546 C 0.27401 0.17442 0.1235 0.0
O547 O 0.28149 0.17004 0.14299 0.0
O548 O 0.28451 0.16819 0.10596 0.0
C549 C 0.27442 0.13442 0.18621 0.0
O550 O 0.26869 0.12657 0.16636 0.0
C551 C 0.31464 0.14853 0.05848 0.0
C552 C 0.3497 0.15493 0.04795 0.0
C553 C 0.32876 0.14859 0.03982 0.0
N554 N 0.32666 0.15462 0.0766 0.0
N555 N 0.3476 0.15847 0.07023 0.0
C556 C 0.29059 0.14112 0.05976 0.0
H557 H 0.28663 0.13477 0.07685 0.0
H558 H 0.28708 0.12774 0.04722 0.0
H559 H 0.27948 0.15573 0.05634 0.0
C560 C 0.31961 0.10718 0.15118 0.0
N561 N 0.31537 0.128 0.1434 0.0
N562 N 0.31914 0.12862 0.12162 0.0
C563 C 0.32573 0.10794 0.11479 0.0
C564 C 0.32609 0.09367 0.13334 0.0
C565 C 0.31909 0.10073 0.17553 0.0
H566 H 0.32276 0.11554 0.18624 0.0
H567 H 0.30211 0.09426 0.17981 0.0
H568 H 0.33151 0.08725 0.17908 0.0
O569 O 0.33036 0.17678 0.15959 0.0
O570 O 0.33328 0.18135 0.12241 0.0
H571 H 0.34545 0.11203 0.08498 0.0
H572 H 0.33492 0.08376 0.08902 0.0
C573 C 0.33097 0.10187 0.09093 0.0
H574 H 0.31631 0.10585 0.08019 0.0
H575 H 0.36048 0.16334 0.08112 0.0
O576 O 0.29192 0.14672 0.18778 0.0
C577 C 0.33807 0.1873 0.14251 0.0
Co578 Co 0.29421 0.85113 0.85011 0.0
Co579 Co 0.31352 0.84608 0.8995 0.0
C580 C 0.26735 0.83153 0.88869 0.0
O581 O 0.27029 0.83765 0.86844 0.0
O582 O 0.28259 0.83417 0.90346 0.0
C583 C 0.25965 0.86862 0.82306 0.0
O584 O 0.25117 0.87219 0.84316 0.0
C585 C 0.31859 0.85467 0.94796 0.0
C586 C 0.35514 0.85015 0.95298 0.0
C587 C 0.33556 0.85644 0.96397 0.0
N588 N 0.32786 0.84829 0.92832 0.0
N589 N 0.34967 0.84539 0.9315 0.0
C590 C 0.2938 0.8578 0.95129 0.0
H591 H 0.28468 0.84321 0.94418 0.0
H592 H 0.28818 0.87307 0.94214 0.0
H593 H 0.28919 0.85913 0.96929 0.0
C594 C 0.30963 0.89773 0.85668 0.0
N595 N 0.30685 0.87652 0.86413 0.0
N596 N 0.31437 0.87491 0.88489 0.0
C597 C 0.32196 0.89535 0.89138 0.0
C598 C 0.31923 0.91041 0.87371 0.0
C599 C 0.30189 0.90585 0.83412 0.0
H600 H 0.3065 0.89343 0.82099 0.0
H601 H 0.28333 0.90758 0.83436 0.0
H602 H 0.30908 0.92243 0.82966 0.0
O603 O 0.31695 0.82702 0.84592 0.0
O604 O 0.32876 0.82231 0.88128 0.0
H605 H 0.34651 0.88853 0.91674 0.0
H606 H 0.33886 0.91776 0.91467 0.0
C607 C 0.33237 0.90029 0.91375 0.0
H608 H 0.31967 0.89779 0.92717 0.0
H609 H 0.36092 0.84067 0.91888 0.0
O610 O 0.27908 0.85969 0.82143 0.0
C611 C 0.32864 0.81654 0.86059 0.0
Co612 Co 0.15608 0.29748 0.84882 0.0
Co613 Co 0.15921 0.319 0.89715 0.0
C614 C 0.17057 0.27111 0.88966 0.0
O615 O 0.16545 0.27314 0.86906 0.0
O616 O 0.16941 0.28764 0.90318 0.0
C617 C 0.1334 0.26519 0.82454 0.0
O618 O 0.12746 0.26065 0.84535 0.0
C619 C 0.14932 0.32489 0.94498 0.0
C620 C 0.15511 0.3612 0.95026 0.0
C621 C 0.14855 0.34168 0.96125 0.0
N622 N 0.15611 0.33405 0.92544 0.0
N623 N 0.15959 0.35576 0.92871 0.0
C624 C 0.14201 0.30089 0.94727 0.0
H625 H 0.13601 0.29433 0.93087 0.0
H626 H 0.12842 0.29924 0.95997 0.0
H627 H 0.15659 0.29054 0.95265 0.0
C628 C 0.11059 0.31612 0.85133 0.0
N629 N 0.13121 0.3134 0.86017 0.0
N630 N 0.13116 0.3203 0.88118 0.0
C631 C 0.10997 0.32676 0.88657 0.0
C632 C 0.09624 0.32401 0.86782 0.0
C633 C 0.10445 0.31161 0.82731 0.0
H634 H 0.1193 0.31369 0.81623 0.0
H635 H 0.09779 0.29427 0.82569 0.0
H636 H 0.09099 0.32332 0.82178 0.0
O637 O 0.18289 0.31679 0.84554 0.0
O638 O 0.1846 0.33302 0.8794 0.0
H639 H 0.11336 0.34776 0.91559 0.0
H640 H 0.08477 0.3392 0.90974 0.0
C641 C 0.10262 0.33375 0.90959 0.0
H642 H 0.10463 0.31942 0.92133 0.0
H643 H 0.16476 0.36691 0.91616 0.0
O644 O 0.14682 0.28153 0.82095 0.0
C645 C 0.19251 0.32985 0.85962 0.0
Co646 Co 0.70138 0.15568 0.8475 0.0
Co647 Co 0.68375 0.15968 0.89708 0.0
C648 C 0.73151 0.16895 0.88565 0.0
O649 O 0.72774 0.16335 0.86542 0.0
O650 O 0.71593 0.16881 0.90032 0.0
C651 C 0.73119 0.13462 0.81784 0.0
O652 O 0.73756 0.12546 0.83692 0.0
C653 C 0.68166 0.15054 0.94506 0.0
C654 C 0.64738 0.16161 0.95419 0.0
C655 C 0.66705 0.15286 0.96319 0.0
N656 N 0.67117 0.15778 0.92643 0.0
N657 N 0.65066 0.16434 0.93194 0.0
C658 C 0.70473 0.14045 0.94482 0.0
H659 H 0.70849 0.13328 0.928 0.0
H660 H 0.70628 0.12712 0.9578 0.0
H661 H 0.7173 0.15381 0.94828 0.0
C662 C 0.68039 0.1108 0.85147 0.0
N663 N 0.68569 0.13111 0.85998 0.0
N664 N 0.67971 0.13192 0.88129 0.0
C665 C 0.67095 0.11177 0.88713 0.0
C666 C 0.67109 0.09783 0.86841 0.0
C667 C 0.68511 0.10354 0.82783 0.0
H668 H 0.70236 0.09649 0.82692 0.0
H669 H 0.67322 0.09027 0.82234 0.0
H670 H 0.68382 0.11807 0.81622 0.0
O671 O 0.68284 0.18345 0.8464 0.0
O672 O 0.66878 0.18501 0.88115 0.0
H673 H 0.64998 0.11877 0.91554 0.0
H674 H 0.65433 0.08912 0.91029 0.0
C675 C 0.66239 0.10596 0.91007 0.0
H676 H 0.67657 0.10607 0.92216 0.0
H677 H 0.63899 0.17081 0.92054 0.0
O678 O 0.71453 0.1481 0.81784 0.0
C679 C 0.67078 0.19304 0.86136 0.0
Co680 Co 0.84928 0.70766 0.85002 0.0
Co681 Co 0.84261 0.6857 0.89781 0.0
C682 C 0.831 0.73379 0.88861 0.0
O683 O 0.83873 0.73248 0.86877 0.0
O684 O 0.83096 0.71693 0.9018 0.0
C685 C 0.86986 0.73947 0.82113 0.0
O686 O 0.87769 0.74714 0.84032 0.0
C687 C 0.85088 0.68096 0.94621 0.0
C688 C 0.84628 0.6445 0.95177 0.0
C689 C 0.85255 0.66423 0.96248 0.0
N690 N 0.84453 0.67143 0.9267 0.0
N691 N 0.84159 0.64966 0.93019 0.0
C692 C 0.85434 0.70576 0.94906 0.0
H693 H 0.83893 0.71474 0.94365 0.0
H694 H 0.86833 0.71141 0.93807 0.0
H695 H 0.85778 0.71049 0.96674 0.0
C696 C 0.89415 0.68832 0.85487 0.0
N697 N 0.87347 0.69243 0.86293 0.0
N698 N 0.87168 0.68432 0.88343 0.0
C699 C 0.89177 0.67535 0.88935 0.0
C700 C 0.90668 0.67773 0.87141 0.0
C701 C 0.90122 0.69286 0.8311 0.0
H702 H 0.88675 0.69063 0.81956 0.0
H703 H 0.90737 0.71041 0.82973 0.0
H704 H 0.91494 0.68134 0.82585 0.0
O705 O 0.82356 0.68742 0.84594 0.0
O706 O 0.81869 0.67075 0.87916 0.0
H707 H 0.88666 0.65045 0.91477 0.0
H708 H 0.91494 0.66163 0.91399 0.0
C709 C 0.89687 0.66582 0.91207 0.0
H710 H 0.89228 0.67824 0.92516 0.0
H711 H 0.83691 0.63825 0.9177 0.0
O712 O 0.85763 0.7219 0.82114 0.0
C713 C 0.81277 0.67399 0.85873 0.0
Co714 Co 0.71127 0.85209 0.15174 0.0
Co715 Co 0.68743 0.84445 0.10514 0.0
C716 C 0.73482 0.83088 0.11237 0.0
O717 O 0.73394 0.8381 0.13241 0.0
O718 O 0.71805 0.83227 0.09919 0.0
C719 C 0.7466 0.87284 0.17423 0.0
O720 O 0.75317 0.87524 0.15327 0.0
C721 C 0.68102 0.85215 0.0575 0.0
C722 C 0.64506 0.84461 0.05203 0.0
C723 C 0.66436 0.85197 0.04112 0.0
N724 N 0.67201 0.84524 0.07703 0.0
N725 N 0.65053 0.84062 0.07368 0.0
C726 C 0.70461 0.8608 0.05549 0.0
H727 H 0.71071 0.86694 0.07202 0.0
H728 H 0.7056 0.87464 0.043 0.0
H729 H 0.71578 0.8469 0.05 0.0
C730 C 0.69509 0.89793 0.14462 0.0
N731 N 0.69693 0.87644 0.13791 0.0
N732 N 0.68757 0.87407 0.11801 0.0
C733 C 0.67974 0.8944 0.11129 0.0
C734 C 0.68461 0.91013 0.12787 0.0
C735 C 0.70227 0.90664 0.16714 0.0
H736 H 0.69948 0.89369 0.18026 0.0
H737 H 0.72039 0.91102 0.16657 0.0
H738 H 0.69272 0.92201 0.17174 0.0
O739 O 0.68996 0.8279 0.15901 0.0
O740 O 0.6736 0.82158 0.12583 0.0
H741 H 0.6551 0.8864 0.08626 0.0
H742 H 0.66125 0.91608 0.0886 0.0
C743 C 0.66857 0.89894 0.08921 0.0
H744 H 0.68114 0.89747 0.07553 0.0
H745 H 0.63952 0.83522 0.08624 0.0
O746 O 0.72814 0.86279 0.17833 0.0
C747 C 0.67661 0.81661 0.14657 0.0
Co748 Co 0.1549 0.70657 0.14999 0.0
Co749 Co 0.15977 0.68524 0.10183 0.0
C750 C 0.17285 0.73303 0.11175 0.0
O751 O 0.16544 0.73169 0.13167 0.0
O752 O 0.17225 0.7163 0.09847 0.0
C753 C 0.13547 0.73914 0.17746 0.0
O754 O 0.1305 0.74691 0.15738 0.0
C755 C 0.14834 0.68505 0.05476 0.0
C756 C 0.16046 0.6522 0.04242 0.0
C757 C 0.1502 0.672 0.03546 0.0
N758 N 0.15723 0.67365 0.07208 0.0
N759 N 0.16442 0.65397 0.06469 0.0
C760 C 0.13717 0.70747 0.05741 0.0
H761 H 0.13092 0.70957 0.07488 0.0
H762 H 0.12298 0.70929 0.04542 0.0
H763 H 0.14965 0.72097 0.05417 0.0
C764 C 0.1094 0.68726 0.1458 0.0
N765 N 0.12985 0.6919 0.13724 0.0
N766 N 0.13137 0.68348 0.11684 0.0
C767 C 0.1117 0.67327 0.11172 0.0
C768 C 0.09719 0.67533 0.12992 0.0
C769 C 0.1016 0.69459 0.16863 0.0
H770 H 0.0985 0.71296 0.16833 0.0
H771 H 0.08576 0.68629 0.17378 0.0
H772 H 0.11482 0.69098 0.18128 0.0
O773 O 0.18143 0.68605 0.15246 0.0
O774 O 0.18321 0.66885 0.11907 0.0
H775 H 0.12181 0.64905 0.08706 0.0
H776 H 0.09176 0.65029 0.09173 0.0
C777 C 0.10742 0.66038 0.09054 0.0
H778 H 0.10582 0.67232 0.0763 0.0
H779 H 0.17217 0.64186 0.07476 0.0
O780 O 0.14631 0.72071 0.17908 0.0
C781 C 0.19074 0.67215 0.13892 0.0
Co782 Co 0.84671 0.29985 0.14941 0.0
Co783 Co 0.8439 0.31015 0.09776 0.0
C784 C 0.82816 0.26765 0.11335 0.0
O785 O 0.83178 0.27543 0.13289 0.0
O786 O 0.83476 0.27807 0.09588 0.0
C787 C 0.86638 0.26705 0.17537 0.0
O788 O 0.87079 0.26052 0.15472 0.0
C789 C 0.85421 0.31302 0.04982 0.0
C790 C 0.84205 0.34703 0.04112 0.0
C791 C 0.85274 0.32833 0.03206 0.0
N792 N 0.84502 0.32243 0.0682 0.0
N793 N 0.83764 0.34268 0.06288 0.0
C794 C 0.86556 0.29054 0.05035 0.0
H795 H 0.86934 0.28553 0.06792 0.0
H796 H 0.88142 0.29093 0.04049 0.0
H797 H 0.85415 0.2777 0.04306 0.0
C798 C 0.89347 0.31479 0.14245 0.0
N799 N 0.87256 0.31086 0.13465 0.0
N800 N 0.87198 0.31464 0.11286 0.0
C801 C 0.89277 0.32096 0.10611 0.0
C802 C 0.90703 0.32102 0.12457 0.0
C803 C 0.9006 0.31114 0.16633 0.0
H804 H 0.88647 0.3148 0.17793 0.0
H805 H 0.9058 0.29335 0.1685 0.0
H806 H 0.9151 0.3219 0.17089 0.0
O807 O 0.8226 0.32274 0.15133 0.0
O808 O 0.81817 0.32452 0.11411 0.0
H809 H 0.88573 0.33808 0.07512 0.0
H810 H 0.91513 0.33705 0.08241 0.0
C811 C 0.89908 0.32751 0.08264 0.0
H812 H 0.9013 0.31215 0.07236 0.0
H813 H 0.82997 0.35367 0.07421 0.0
O814 O 0.85554 0.28533 0.1783 0.0
C815 C 0.81148 0.32897 0.13404 0.0
Co816 Co 0.65186 0.80884 0.65872 0.0
Co817 Co 0.601 0.8219 0.66102 0.0
C818 C 0.61429 0.77888 0.67799 0.0
O819 O 0.63425 0.7854 0.67405 0.0
O820 O 0.59737 0.79036 0.67165 0.0
C821 C 0.67854 0.77593 0.63931 0.0
O822 O 0.65869 0.77067 0.63112 0.0
C823 C 0.55202 0.82892 0.65589 0.0
C824 C 0.55017 0.86608 0.65636 0.0
C825 C 0.53717 0.8469 0.65417 0.0
N826 N 0.57289 0.8372 0.6586 0.0
N827 N 0.57164 0.85939 0.65893 0.0
C828 C 0.54654 0.80434 0.65634 0.0
H829 H 0.55492 0.79637 0.67096 0.0
H830 H 0.55317 0.79626 0.64088 0.0
H831 H 0.5282 0.80127 0.65766 0.0
C832 C 0.64588 0.82209 0.61144 0.0
N833 N 0.63788 0.81906 0.63238 0.0
N834 N 0.61627 0.82364 0.63276 0.0
C835 C 0.60968 0.8293 0.61175 0.0
C836 C 0.62827 0.8284 0.59754 0.0
C837 C 0.6702 0.82034 0.60515 0.0
H838 H 0.68102 0.82385 0.61993 0.0
H839 H 0.67377 0.80309 0.59902 0.0
H840 H 0.67434 0.83233 0.59143 0.0
O841 O 0.65495 0.83299 0.68099 0.0
O842 O 0.61803 0.83728 0.68588 0.0
H843 H 0.58144 0.85146 0.61127 0.0
H844 H 0.58352 0.83359 0.58679 0.0
C845 C 0.5859 0.83436 0.60528 0.0
H846 H 0.57443 0.82216 0.61348 0.0
H847 H 0.58551 0.86999 0.66079 0.0
O848 O 0.6804 0.79333 0.65165 0.0
C849 C 0.63832 0.84118 0.69174 0.0
Co850 Co 0.21003 0.64314 0.65368 0.0
Co851 Co 0.18622 0.59617 0.65686 0.0
C852 C 0.23442 0.60403 0.67108 0.0
O853 O 0.23472 0.62345 0.6623 0.0
O854 O 0.21668 0.59202 0.67105 0.0
C855 C 0.24226 0.67282 0.63549 0.0
O856 O 0.24952 0.65399 0.62647 0.0
C857 C 0.18092 0.54863 0.64372 0.0
C858 C 0.14566 0.5419 0.65324 0.0
C859 C 0.16437 0.532 0.6434 0.0
N860 N 0.17219 0.56738 0.65295 0.0
N861 N 0.15111 0.56321 0.65863 0.0
C862 C 0.20487 0.54676 0.63615 0.0
H863 H 0.21527 0.56029 0.64355 0.0
H864 H 0.20567 0.54853 0.6176 0.0
H865 H 0.21193 0.53013 0.64088 0.0
C866 C 0.19069 0.64195 0.60801 0.0
N867 N 0.19477 0.63247 0.62817 0.0
N868 N 0.18584 0.61223 0.62878 0.0
C869 C 0.17604 0.60809 0.60866 0.0
C870 C 0.17881 0.62679 0.59494 0.0
C871 C 0.19839 0.66499 0.60128 0.0
H872 H 0.21642 0.66424 0.5966 0.0
H873 H 0.18899 0.67151 0.58658 0.0
H874 H 0.19634 0.67681 0.61554 0.0
O875 O 0.18995 0.64494 0.68044 0.0
O876 O 0.16966 0.61337 0.68029 0.0
H877 H 0.15033 0.58409 0.61632 0.0
H878 H 0.15443 0.58883 0.58657 0.0
C879 C 0.16304 0.58729 0.60306 0.0
H880 H 0.17467 0.57274 0.60245 0.0
H881 H 0.14041 0.57496 0.66607 0.0
O882 O 0.22467 0.67245 0.64771 0.0
C883 C 0.17474 0.63236 0.68894 0.0
Co884 Co 0.34621 0.20179 0.64997 0.0
Co885 Co 0.394 0.17951 0.6548 0.0
C886 C 0.38613 0.2276 0.66664 0.0
O887 O 0.3659 0.22605 0.66009 0.0
O888 O 0.39941 0.21082 0.66587 0.0
C889 C 0.32013 0.23542 0.62996 0.0
O890 O 0.34047 0.24259 0.62514 0.0
C891 C 0.44147 0.17423 0.64499 0.0
C892 C 0.44838 0.13897 0.6545 0.0
C893 C 0.45845 0.1582 0.64593 0.0
N894 N 0.42241 0.16494 0.65273 0.0
N895 N 0.42659 0.14387 0.65844 0.0
C896 C 0.44258 0.19747 0.63536 0.0
H897 H 0.42585 0.20257 0.62884 0.0
H898 H 0.45521 0.1984 0.62163 0.0
H899 H 0.4474 0.20946 0.64882 0.0
C900 C 0.34978 0.18196 0.60472 0.0
N901 N 0.3584 0.1863 0.6252 0.0
N902 N 0.37884 0.17793 0.6265 0.0
C903 C 0.38401 0.16828 0.60656 0.0
C904 C 0.36574 0.17053 0.59222 0.0
C905 C 0.3269 0.18922 0.59709 0.0
H906 H 0.31449 0.18656 0.61076 0.0
H907 H 0.32738 0.20738 0.5929 0.0
H908 H 0.32134 0.17997 0.5819 0.0
O909 O 0.34262 0.1819 0.67667 0.0
O910 O 0.37599 0.16479 0.67878 0.0
H911 H 0.40862 0.14334 0.61472 0.0
H912 H 0.40501 0.1479 0.58489 0.0
C913 C 0.40551 0.15621 0.6016 0.0
H914 H 0.41963 0.16838 0.60187 0.0
H915 H 0.41456 0.13281 0.66486 0.0
O916 O 0.31785 0.21717 0.64097 0.0
C917 C 0.35614 0.16817 0.6862 0.0
Co918 Co 0.79445 0.35296 0.65746 0.0
Co919 Co 0.81557 0.40135 0.66007 0.0
C920 C 0.76735 0.39349 0.67041 0.0
O921 O 0.76951 0.37286 0.66544 0.0
O922 O 0.7839 0.40704 0.66973 0.0
C923 C 0.7629 0.32445 0.63736 0.0
O924 O 0.75651 0.3438 0.62879 0.0
C925 C 0.823 0.44982 0.65341 0.0
C926 C 0.86013 0.45176 0.65234 0.0
C927 C 0.84082 0.46463 0.65036 0.0
N928 N 0.83143 0.42908 0.65657 0.0
N929 N 0.85362 0.43037 0.65603 0.0
C930 C 0.79844 0.45523 0.65494 0.0
H931 H 0.79176 0.44881 0.67112 0.0
H932 H 0.78933 0.44658 0.64114 0.0
H933 H 0.7951 0.47354 0.65425 0.0
C934 C 0.81265 0.35534 0.61159 0.0
N935 N 0.81007 0.364 0.63232 0.0
N936 N 0.81707 0.38498 0.6324 0.0
C937 C 0.82357 0.39056 0.61133 0.0
C938 C 0.82084 0.37193 0.59747 0.0
C939 C 0.80754 0.33152 0.60521 0.0
H940 H 0.80991 0.3202 0.61984 0.0
H941 H 0.78991 0.3303 0.59926 0.0
H942 H 0.81866 0.32597 0.59127 0.0
O943 O 0.81352 0.35087 0.68449 0.0
O944 O 0.82989 0.38458 0.68549 0.0
H945 H 0.84702 0.41774 0.61094 0.0
H946 H 0.83048 0.41544 0.5856 0.0
C947 C 0.83009 0.4138 0.60418 0.0
H948 H 0.818 0.42614 0.61122 0.0
H949 H 0.86433 0.41659 0.65794 0.0
O950 O 0.77985 0.32395 0.65045 0.0
C951 C 0.82669 0.36502 0.69375 0.0
Co952 Co 0.65066 0.21404 0.35308 0.0
Co953 Co 0.60307 0.19206 0.34388 0.0
C954 C 0.61392 0.23972 0.33102 0.0
O955 O 0.63305 0.2389 0.34042 0.0
O956 O 0.6008 0.22282 0.33074 0.0
C957 C 0.67676 0.24609 0.37575 0.0
O958 O 0.65648 0.25408 0.37938 0.0
C959 C 0.55455 0.1879 0.35252 0.0
C960 C 0.54738 0.15321 0.34142 0.0
C961 C 0.5374 0.17191 0.35124 0.0
N962 N 0.57361 0.17882 0.34431 0.0
N963 N 0.56916 0.15812 0.33758 0.0
C964 C 0.55304 0.21159 0.36097 0.0
H965 H 0.56724 0.22183 0.35475 0.0
H966 H 0.55387 0.21159 0.3796 0.0
H967 H 0.53696 0.21943 0.35562 0.0
C968 C 0.64302 0.19396 0.39754 0.0
N969 N 0.63586 0.19922 0.37672 0.0
N970 N 0.61574 0.19058 0.37345 0.0
C971 C 0.60936 0.17975 0.39243 0.0
C972 C 0.62646 0.18159 0.40816 0.0
C973 C 0.66557 0.20017 0.40691 0.0
H974 H 0.67881 0.1971 0.39414 0.0
H975 H 0.66555 0.21829 0.41129 0.0
H976 H 0.66963 0.19054 0.42235 0.0
O977 O 0.65599 0.19306 0.32759 0.0
O978 O 0.62284 0.1763 0.32194 0.0
H979 H 0.58672 0.15435 0.38071 0.0
H980 H 0.58816 0.15667 0.41098 0.0
C981 C 0.58828 0.16626 0.39496 0.0
H982 H 0.57358 0.1777 0.39474 0.0
H983 H 0.58108 0.14723 0.33069 0.0
O984 O 0.67891 0.22808 0.36433 0.0
C985 C 0.64348 0.17937 0.31668 0.0
Co986 Co 0.78364 0.64317 0.34674 0.0
Co987 Co 0.81117 0.59848 0.33787 0.0
C988 C 0.76357 0.60312 0.32335 0.0
O989 O 0.76315 0.62266 0.3318 0.0
O990 O 0.78117 0.59098 0.32423 0.0
C991 C 0.74461 0.66234 0.36473 0.0
O992 O 0.73916 0.64095 0.36534 0.0
C993 C 0.8232 0.5512 0.34573 0.0
C994 C 0.8573 0.54906 0.33116 0.0
C995 C 0.8409 0.53639 0.3419 0.0
N996 N 0.82901 0.57162 0.33787 0.0
N997 N 0.84946 0.57024 0.32926 0.0
C998 C 0.80053 0.54579 0.3553 0.0
H999 H 0.78839 0.55949 0.35189 0.0
H1000 H 0.80184 0.5438 0.37379 0.0
H1001 H 0.7942 0.52971 0.3482 0.0
C1002 C 0.8004 0.63625 0.39233 0.0
N1003 N 0.79821 0.62936 0.37092 0.0
N1004 N 0.80987 0.61079 0.36782 0.0
C1005 C 0.82016 0.60549 0.38745 0.0
C1006 C 0.81419 0.62134 0.40354 0.0
C1007 C 0.79046 0.65748 0.40154 0.0
H1008 H 0.79349 0.67154 0.38966 0.0
H1009 H 0.77204 0.65527 0.40342 0.0
H1010 H 0.79763 0.66184 0.41821 0.0
O1011 O 0.80521 0.6525 0.32293 0.0
O1012 O 0.82424 0.62082 0.31638 0.0
H1013 H 0.8486 0.58648 0.37608 0.0
H1014 H 0.84617 0.58857 0.40639 0.0
C1015 C 0.83667 0.58676 0.39042 0.0
H1016 H 0.82752 0.57053 0.39078 0.0
H1017 H 0.85796 0.5837 0.32184 0.0
O1018 O 0.76396 0.66812 0.35754 0.0
C1019 C 0.81992 0.64139 0.31183 0.0
Co1020 Co 0.36509 0.77886 0.34767 0.0
Co1021 Co 0.40803 0.80948 0.34183 0.0
C1022 C 0.40801 0.76237 0.32623 0.0
O1023 O 0.38795 0.76032 0.33311 0.0
O1024 O 0.4188 0.78071 0.32834 0.0
C1025 C 0.34817 0.73848 0.36488 0.0
O1026 O 0.36981 0.73412 0.36558 0.0
C1027 C 0.45431 0.82429 0.34826 0.0
C1028 C 0.45195 0.86125 0.34495 0.0
C1029 C 0.4669 0.84393 0.3494 0.0
N1030 N 0.43286 0.82979 0.3438 0.0
N1031 N 0.43153 0.8519 0.34178 0.0
C1032 C 0.46245 0.80047 0.34967 0.0
H1033 H 0.461 0.79264 0.3328 0.0
H1034 H 0.45155 0.79078 0.36133 0.0
H1035 H 0.48023 0.79919 0.35503 0.0
C1036 C 0.36954 0.79335 0.39423 0.0
N1037 N 0.37657 0.79373 0.37278 0.0
N1038 N 0.39513 0.80565 0.37122 0.0
C1039 C 0.40072 0.81296 0.39207 0.0
C1040 C 0.38474 0.80511 0.40729 0.0
C1041 C 0.34794 0.78289 0.40196 0.0
H1042 H 0.3348 0.7849 0.38888 0.0
H1043 H 0.35068 0.76471 0.40508 0.0
H1044 H 0.34191 0.79075 0.41778 0.0
O1045 O 0.35493 0.80004 0.32427 0.0
O1046 O 0.38558 0.82109 0.31938 0.0
H1047 H 0.42104 0.84234 0.38802 0.0
H1048 H 0.42281 0.82977 0.41569 0.0
C1049 C 0.4214 0.82623 0.39743 0.0
H1050 H 0.43645 0.81669 0.39195 0.0
H1051 H 0.41667 0.8606 0.33838 0.0
O1052 O 0.34142 0.75737 0.35737 0.0
C1053 C 0.36555 0.81554 0.31385 0.0
Co1054 Co 0.19284 0.3415 0.34823 0.0
Co1055 Co 0.1805 0.3926 0.34591 0.0
C1056 C 0.22286 0.37793 0.32757 0.0
O1057 O 0.21627 0.35811 0.33195 0.0
O1058 O 0.21184 0.39501 0.33426 0.0
C1059 C 0.2262 0.31367 0.3656 0.0
O1060 O 0.23324 0.33348 0.37243 0.0
C1061 C 0.1779 0.44049 0.35632 0.0
C1062 C 0.14295 0.44883 0.34681 0.0
C1063 C 0.1624 0.45807 0.35582 0.0
N1064 N 0.16796 0.42196 0.34806 0.0
N1065 N 0.14712 0.42704 0.34231 0.0
C1066 C 0.20116 0.44035 0.36596 0.0
H1067 H 0.20619 0.42298 0.37059 0.0
H1068 H 0.20214 0.45136 0.381 0.0
H1069 H 0.21319 0.44654 0.35309 0.0
C1070 C 0.18027 0.34801 0.3959 0.0
N1071 N 0.18337 0.35593 0.37488 0.0
N1072 N 0.17835 0.37747 0.37429 0.0
C1073 C 0.17199 0.38397 0.39514 0.0
C1074 C 0.17315 0.36557 0.4095 0.0
C1075 C 0.18519 0.32429 0.40288 0.0
H1076 H 0.18109 0.31254 0.389 0.0
H1077 H 0.20334 0.32279 0.40687 0.0
H1078 H 0.17566 0.31929 0.41806 0.0
O1079 O 0.16812 0.33923 0.32616 0.0
O1080 O 0.16393 0.37623 0.32164 0.0
H1081 H 0.15176 0.41301 0.38819 0.0
H1082 H 0.15505 0.40699 0.41769 0.0
C1083 C 0.16369 0.40697 0.40114 0.0
H1084 H 0.17812 0.41871 0.40199 0.0
H1085 H 0.13565 0.41556 0.33562 0.0
O1086 O 0.20766 0.31238 0.35493 0.0
C1087 C 0.1598 0.35602 0.31568 0.0
Co1088 Co 0.65213 0.64998 0.79711 0.0
Co1089 Co 0.65577 0.60166 0.81845 0.0
C1090 C 0.67081 0.61078 0.77143 0.0
O1091 O 0.66412 0.63099 0.77306 0.0
O1092 O 0.66889 0.59689 0.78768 0.0
C1093 C 0.63298 0.67928 0.76475 0.0
O1094 O 0.62459 0.66028 0.75719 0.0
C1095 C 0.64837 0.55327 0.82596 0.0
C1096 C 0.65305 0.55063 0.86277 0.0
C1097 C 0.64796 0.53816 0.84379 0.0
N1098 N 0.65314 0.57379 0.83414 0.0
N1099 N 0.6559 0.5721 0.85614 0.0
C1100 C 0.64598 0.54836 0.80137 0.0
H1101 H 0.66257 0.55072 0.79313 0.0
H1102 H 0.63418 0.56058 0.79365 0.0
H1103 H 0.64019 0.53095 0.79815 0.0
C1104 C 0.60534 0.64538 0.81311 0.0
N1105 N 0.62633 0.63731 0.81046 0.0
N1106 N 0.62724 0.6166 0.8182 0.0
C1107 C 0.60657 0.61067 0.82561 0.0
C1108 C 0.592 0.62872 0.82251 0.0
C1109 C 0.59851 0.66913 0.80826 0.0
H1110 H 0.6129 0.68069 0.81093 0.0
H1111 H 0.59288 0.67043 0.79052 0.0
H1112 H 0.58436 0.67438 0.81926 0.0
O1113 O 0.67729 0.6533 0.81859 0.0
O1114 O 0.67886 0.61956 0.8348 0.0
H1115 H 0.60931 0.58516 0.85079 0.0
H1116 H 0.58232 0.58576 0.83677 0.0
C1117 C 0.60071 0.58784 0.83445 0.0
H1118 H 0.6067 0.57486 0.82253 0.0
H1119 H 0.6598 0.58562 0.86663 0.0
O1120 O 0.64512 0.67903 0.78239 0.0
C1121 C 0.6862 0.63955 0.83243 0.0
Co1122 Co 0.34232 0.65481 0.80093 0.0
Co1123 Co 0.39337 0.65886 0.8142 0.0
C1124 C 0.37865 0.67522 0.77083 0.0
O1125 O 0.35874 0.67073 0.77706 0.0
O1126 O 0.39552 0.66937 0.78254 0.0
C1127 C 0.31813 0.63342 0.76797 0.0
O1128 O 0.33917 0.62979 0.76223 0.0
C1129 C 0.44165 0.65104 0.81466 0.0
C1130 C 0.45157 0.66034 0.84922 0.0
C1131 C 0.46011 0.65271 0.82889 0.0
N1132 N 0.42321 0.65755 0.82597 0.0
N1133 N 0.4292 0.66309 0.84664 0.0
C1134 C 0.44099 0.64195 0.79119 0.0
H1135 H 0.42429 0.6344 0.78766 0.0
H1136 H 0.45432 0.62913 0.78864 0.0
H1137 H 0.44368 0.65595 0.77913 0.0
C1138 C 0.34927 0.60896 0.81796 0.0
N1139 N 0.35734 0.6294 0.81252 0.0
N1140 N 0.37884 0.63043 0.81754 0.0
C1141 C 0.38528 0.61032 0.82602 0.0
C1142 C 0.36669 0.59611 0.82664 0.0
C1143 C 0.32536 0.60184 0.81425 0.0
H1144 H 0.3233 0.59663 0.79646 0.0
H1145 H 0.32045 0.58741 0.8249 0.0
H1146 H 0.31384 0.6161 0.81769 0.0
O1147 O 0.33914 0.67812 0.82443 0.0
O1148 O 0.37603 0.68325 0.82997 0.0
H1149 H 0.41313 0.61805 0.84741 0.0
H1150 H 0.40922 0.58833 0.84249 0.0
C1151 C 0.40834 0.60527 0.83471 0.0
H1152 H 0.42057 0.60622 0.82067 0.0
H1153 H 0.41804 0.66871 0.85897 0.0
O1154 O 0.31415 0.64476 0.78574 0.0
C1155 C 0.35553 0.68891 0.83321 0.0
Co1156 Co 0.35069 0.35615 0.77832 0.0
Co1157 Co 0.34285 0.40044 0.80671 0.0
C1158 C 0.32686 0.39583 0.75915 0.0
O1159 O 0.33592 0.37665 0.75748 0.0
O1160 O 0.32767 0.40701 0.77734 0.0
C1161 C 0.36768 0.33599 0.73946 0.0
O1162 O 0.36876 0.35734 0.73391 0.0
C1163 C 0.35446 0.44727 0.81486 0.0
C1164 C 0.34309 0.45319 0.8497 0.0
C1165 C 0.35397 0.46348 0.83175 0.0
N1166 N 0.3448 0.42834 0.82266 0.0
N1167 N 0.33797 0.43199 0.84349 0.0
C1168 C 0.36334 0.44964 0.79138 0.0
H1169 H 0.35666 0.4363 0.7803 0.0
H1170 H 0.38191 0.44791 0.79152 0.0
H1171 H 0.35893 0.46637 0.78438 0.0
C1172 C 0.39696 0.36254 0.79431 0.0
N1173 N 0.37547 0.36946 0.79256 0.0
N1174 N 0.37254 0.38777 0.80463 0.0
C1175 C 0.39228 0.39289 0.81475 0.0
C1176 C 0.40835 0.37716 0.80842 0.0
C1177 C 0.40633 0.34245 0.78233 0.0
H1178 H 0.39584 0.32747 0.78608 0.0
H1179 H 0.40575 0.34553 0.76396 0.0
H1180 H 0.42403 0.33897 0.78698 0.0
O1181 O 0.32666 0.348 0.80049 0.0
O1182 O 0.32168 0.3789 0.82132 0.0
H1183 H 0.3804 0.41154 0.84328 0.0
H1184 H 0.41051 0.40784 0.84245 0.0
C1185 C 0.39529 0.41089 0.8321 0.0
H1186 H 0.3972 0.42738 0.82363 0.0
H1187 H 0.33002 0.41996 0.85351 0.0
O1188 O 0.36063 0.33052 0.75896 0.0
C1189 C 0.31637 0.3587 0.81612 0.0
Co1190 Co 0.64518 0.35477 0.79078 0.0
Co1191 Co 0.5996 0.34382 0.81553 0.0
C1192 C 0.60834 0.32974 0.76787 0.0
O1193 O 0.62717 0.33982 0.76776 0.0
O1194 O 0.59569 0.32999 0.78515 0.0
C1195 C 0.66987 0.37474 0.75547 0.0
O1196 O 0.64977 0.375 0.74629 0.0
C1197 C 0.55138 0.34994 0.82255 0.0
C1198 C 0.54564 0.33376 0.85551 0.0
C1199 C 0.53475 0.34491 0.83815 0.0
N1200 N 0.57118 0.34238 0.83045 0.0
N1201 N 0.56766 0.33281 0.85021 0.0
C1202 C 0.54834 0.3601 0.7997 0.0
H1203 H 0.56396 0.3587 0.78963 0.0
H1204 H 0.54411 0.37818 0.80132 0.0
H1205 H 0.53421 0.35171 0.79083 0.0
C1206 C 0.63504 0.4001 0.80739 0.0
N1207 N 0.62957 0.37829 0.80489 0.0
N1208 N 0.61043 0.37421 0.81526 0.0
C1209 C 0.60317 0.39356 0.82481 0.0
C1210 C 0.61852 0.41051 0.82003 0.0
C1211 C 0.65551 0.41084 0.79732 0.0
H1212 H 0.67065 0.4009 0.80177 0.0
H1213 H 0.65376 0.41098 0.77877 0.0
H1214 H 0.65785 0.42844 0.80294 0.0
O1215 O 0.65328 0.33054 0.81227 0.0
O1216 O 0.62131 0.32317 0.83042 0.0
H1217 H 0.58178 0.38074 0.85091 0.0
H1218 H 0.58373 0.41111 0.85002 0.0
C1219 C 0.58297 0.39558 0.83968 0.0
H1220 H 0.56764 0.39631 0.82913 0.0
H1221 H 0.58023 0.32532 0.8599 0.0
O1222 O 0.67225 0.3666 0.77514 0.0
C1223 C 0.64205 0.31907 0.82656 0.0
Co1224 Co 0.65389 0.35026 0.19983 0.0
Co1225 Co 0.65505 0.40236 0.19142 0.0
C1226 C 0.6703 0.38607 0.23367 0.0
O1227 O 0.66741 0.36678 0.22501 0.0
O1228 O 0.66355 0.40375 0.22371 0.0
C1229 C 0.63314 0.32463 0.23142 0.0
O1230 O 0.62764 0.34539 0.23663 0.0
C1231 C 0.64587 0.45104 0.18869 0.0
C1232 C 0.64886 0.45698 0.1521 0.0
C1233 C 0.64324 0.46739 0.17217 0.0
N1234 N 0.65215 0.43174 0.1787 0.0
N1235 N 0.65413 0.43548 0.15688 0.0
C1236 C 0.64356 0.45378 0.21363 0.0
H1237 H 0.65783 0.44545 0.22221 0.0
H1238 H 0.6278 0.44558 0.21935 0.0
H1239 H 0.64343 0.47174 0.21865 0.0
C1240 C 0.60802 0.35577 0.18253 0.0
N1241 N 0.62813 0.36433 0.18835 0.0
N1242 N 0.62768 0.38633 0.18632 0.0
C1243 C 0.60683 0.39255 0.17973 0.0
C1244 C 0.59378 0.37334 0.17702 0.0
C1245 C 0.60228 0.33126 0.18345 0.0
H1246 H 0.59541 0.32723 0.20033 0.0
H1247 H 0.58933 0.32682 0.17082 0.0
H1248 H 0.61753 0.32093 0.18051 0.0
O1249 O 0.67844 0.34968 0.17759 0.0
O1250 O 0.68157 0.38711 0.17675 0.0
H1251 H 0.58137 0.4175 0.17213 0.0
H1252 H 0.6038 0.42672 0.19055 0.0
C1253 C 0.59965 0.41631 0.17565 0.0
H1254 H 0.60899 0.42313 0.16102 0.0
H1255 H 0.6585 0.42317 0.14515 0.0
O1256 O 0.64516 0.32121 0.21398 0.0
C1257 C 0.68903 0.36751 0.1719 0.0
Co1258 Co 0.64453 0.65643 0.21048 0.0
Co1259 Co 0.59912 0.66322 0.18359 0.0
C1260 C 0.60379 0.67864 0.23089 0.0
O1261 O 0.62367 0.67099 0.23124 0.0
O1262 O 0.59142 0.67695 0.2135 0.0
C1263 C 0.66197 0.63486 0.24763 0.0
O1264 O 0.64019 0.633 0.25084 0.0
C1265 C 0.55226 0.6551 0.16985 0.0
C1266 C 0.5527 0.66613 0.13435 0.0
C1267 C 0.53893 0.65692 0.15074 0.0
N1268 N 0.57304 0.66249 0.16482 0.0
N1269 N 0.57318 0.66907 0.14358 0.0
C1270 C 0.54513 0.64762 0.19284 0.0
H1271 H 0.55733 0.6532 0.20574 0.0
H1272 H 0.54429 0.62901 0.19341 0.0
H1273 H 0.52816 0.6543 0.19685 0.0
C1274 C 0.63975 0.61095 0.19215 0.0
N1275 N 0.63168 0.63185 0.19534 0.0
N1276 N 0.61224 0.63391 0.18496 0.0
C1277 C 0.60726 0.61406 0.17499 0.0
C1278 C 0.62451 0.59899 0.17938 0.0
C1279 C 0.66205 0.60276 0.20055 0.0
H1280 H 0.67483 0.61626 0.19899 0.0
H1281 H 0.66042 0.59803 0.21851 0.0
H1282 H 0.66787 0.58772 0.19118 0.0
O1283 O 0.65298 0.68098 0.18937 0.0
O1284 O 0.62086 0.68472 0.17016 0.0
H1285 H 0.58683 0.62308 0.14677 0.0
H1286 H 0.58834 0.59316 0.15197 0.0
C1287 C 0.58747 0.60998 0.16002 0.0
H1288 H 0.57184 0.61101 0.17008 0.0
H1289 H 0.58729 0.67552 0.13536 0.0
O1290 O 0.66915 0.64506 0.23019 0.0
C1291 C 0.64106 0.69066 0.17429 0.0
Co1292 Co 0.35802 0.65047 0.20314 0.0
Co1293 Co 0.3466 0.60398 0.18056 0.0
C1294 C 0.34063 0.61151 0.22979 0.0
O1295 O 0.34876 0.63117 0.22826 0.0
O1296 O 0.33842 0.59896 0.21262 0.0
C1297 C 0.38366 0.67447 0.23435 0.0
O1298 O 0.38811 0.65372 0.24053 0.0
C1299 C 0.35213 0.55591 0.17462 0.0
C1300 C 0.34033 0.54988 0.13992 0.0
C1301 C 0.34935 0.53918 0.15859 0.0
N1302 N 0.34504 0.5755 0.1659 0.0
N1303 N 0.33788 0.57182 0.14518 0.0
C1304 C 0.36323 0.55392 0.19714 0.0
H1305 H 0.37128 0.5701 0.20183 0.0
H1306 H 0.37605 0.54035 0.19709 0.0
H1307 H 0.3503 0.54991 0.20999 0.0
C1308 C 0.40089 0.64324 0.1794 0.0
N1309 N 0.37994 0.63669 0.18495 0.0
N1310 N 0.37595 0.61667 0.17639 0.0
C1311 C 0.39466 0.60963 0.16552 0.0
C1312 C 0.41099 0.62626 0.16705 0.0
C1313 C 0.41152 0.66475 0.18715 0.0
H1314 H 0.39903 0.67857 0.18669 0.0
H1315 H 0.41761 0.66256 0.20463 0.0
H1316 H 0.4261 0.66964 0.17668 0.0
O1317 O 0.33018 0.65696 0.18588 0.0
O1318 O 0.3225 0.62435 0.16903 0.0
H1319 H 0.41284 0.58668 0.1439 0.0
H1320 H 0.3967 0.57376 0.16614 0.0
C1321 C 0.39693 0.58758 0.15363 0.0
H1322 H 0.38256 0.58523 0.142 0.0
H1323 H 0.33171 0.58432 0.13452 0.0
O1324 O 0.37056 0.67777 0.21773 0.0
C1325 C 0.3176 0.64483 0.17336 0.0
Co1326 Co 0.34328 0.34586 0.19898 0.0
Co1327 Co 0.39525 0.34643 0.18953 0.0
C1328 C 0.37928 0.32498 0.2296 0.0
O1329 O 0.35971 0.32894 0.22204 0.0
O1330 O 0.39669 0.33311 0.22017 0.0
C1331 C 0.31445 0.3621 0.23166 0.0
O1332 O 0.33396 0.36984 0.23856 0.0
C1333 C 0.44435 0.3546 0.18817 0.0
C1334 C 0.44987 0.35933 0.15171 0.0
C1335 C 0.46072 0.35993 0.17231 0.0
N1336 N 0.42467 0.35152 0.17741 0.0
N1337 N 0.42816 0.35421 0.15562 0.0
C1338 C 0.44736 0.3513 0.21296 0.0
H1339 H 0.43869 0.3357 0.2183 0.0
H1340 H 0.43962 0.36562 0.22208 0.0
H1341 H 0.46534 0.34984 0.21766 0.0
C1342 C 0.34843 0.3942 0.19008 0.0
N1343 N 0.35702 0.37335 0.19191 0.0
N1344 N 0.37891 0.37412 0.18887 0.0
C1345 C 0.38498 0.39577 0.18542 0.0
C1346 C 0.36582 0.40912 0.18617 0.0
C1347 C 0.32389 0.39974 0.1911 0.0
H1348 H 0.31365 0.38505 0.18589 0.0
H1349 H 0.31937 0.40445 0.20858 0.0
H1350 H 0.32 0.41429 0.18006 0.0
O1351 O 0.34298 0.32537 0.17305 0.0
O1352 O 0.38034 0.32223 0.17106 0.0
H1353 H 0.41483 0.39864 0.16568 0.0
H1354 H 0.40998 0.4222 0.18418 0.0
C1355 C 0.4087 0.40364 0.18257 0.0
H1356 H 0.41958 0.39553 0.19536 0.0
H1357 H 0.41559 0.35296 0.14344 0.0
O1358 O 0.3136 0.35106 0.2133 0.0
C1359 C 0.3606 0.31582 0.16539 0.0
Co1360 Co 0.79555 0.65275 0.65233 0.0
Co1361 Co 0.8062 0.65725 0.6004 0.0
C1362 C 0.76514 0.67645 0.61817 0.0
O1363 O 0.77203 0.67062 0.63753 0.0
O1364 O 0.77553 0.67059 0.60041 0.0
C1365 C 0.76268 0.63387 0.67944 0.0
O1366 O 0.75466 0.63068 0.65909 0.0
C1367 C 0.80684 0.64932 0.5513 0.0
C1368 C 0.84327 0.65073 0.54409 0.0
C1369 C 0.82264 0.64594 0.53433 0.0
N1370 N 0.81776 0.65502 0.5703 0.0
N1371 N 0.83948 0.65619 0.56574 0.0
C1372 C 0.78174 0.64788 0.54949 0.0
H1373 H 0.77381 0.66118 0.55981 0.0
H1374 H 0.77596 0.63135 0.55592 0.0
H1375 H 0.77608 0.64998 0.53184 0.0
C1376 C 0.80727 0.60567 0.643 0.0
N1377 N 0.80375 0.62692 0.63601 0.0
N1378 N 0.80736 0.62822 0.61422 0.0
C1379 C 0.81285 0.60752 0.60656 0.0
C1380 C 0.813 0.59264 0.62456 0.0
C1381 C 0.80455 0.59798 0.66686 0.0
H1382 H 0.78654 0.59428 0.67002 0.0
H1383 H 0.81418 0.58245 0.6704 0.0
H1384 H 0.81008 0.61139 0.67857 0.0
O1385 O 0.82109 0.67394 0.65447 0.0
O1386 O 0.82488 0.67966 0.6175 0.0
H1387 H 0.83389 0.61249 0.57786 0.0
H1388 H 0.82352 0.58421 0.58059 0.0
C1389 C 0.81915 0.60222 0.58278 0.0
H1390 H 0.80494 0.60645 0.57152 0.0
H1391 H 0.85184 0.65988 0.57765 0.0
O1392 O 0.78166 0.64363 0.68157 0.0
C1393 C 0.82971 0.68458 0.63788 0.0
Co1394 Co 0.79482 0.34861 0.35789 0.0
Co1395 Co 0.82061 0.34413 0.40354 0.0
C1396 C 0.77155 0.33292 0.39901 0.0
O1397 O 0.77126 0.34008 0.37895 0.0
O1398 O 0.78957 0.3327 0.41056 0.0
C1399 C 0.76034 0.36661 0.33052 0.0
O1400 O 0.75355 0.37484 0.34987 0.0
C1401 C 0.82813 0.35507 0.4505 0.0
C1402 C 0.86334 0.34468 0.45623 0.0
C1403 C 0.8448 0.35405 0.46689 0.0
N1404 N 0.83641 0.34662 0.43128 0.0
N1405 N 0.85746 0.34041 0.43476 0.0
C1406 C 0.80517 0.3653 0.45223 0.0
H1407 H 0.79945 0.37122 0.43547 0.0
H1408 H 0.80515 0.37957 0.46427 0.0
H1409 H 0.79311 0.35234 0.45815 0.0
C1410 C 0.81368 0.39463 0.35981 0.0
N1411 N 0.81109 0.37377 0.36829 0.0
N1412 N 0.82117 0.37247 0.38795 0.0
C1413 C 0.83035 0.39274 0.39268 0.0
C1414 C 0.82586 0.40744 0.37505 0.0
C1415 C 0.80313 0.40254 0.33834 0.0
H1416 H 0.80445 0.38925 0.32534 0.0
H1417 H 0.78511 0.40619 0.34143 0.0
H1418 H 0.81102 0.4181 0.33187 0.0
O1419 O 0.81397 0.32138 0.3541 0.0
O1420 O 0.83462 0.31981 0.38532 0.0
H1421 H 0.85599 0.38431 0.41656 0.0
H1422 H 0.8528 0.41414 0.41171 0.0
C1423 C 0.84367 0.39793 0.41339 0.0
H1424 H 0.83216 0.39902 0.42801 0.0
H1425 H 0.86783 0.33336 0.42247 0.0
O1426 O 0.77845 0.3552 0.32974 0.0
C1427 C 0.82897 0.3119 0.36619 0.0
Co1428 Co 0.65304 0.79883 0.35072 0.0
Co1429 Co 0.66073 0.81792 0.3997 0.0
C1430 C 0.6718 0.77036 0.38777 0.0
O1431 O 0.664 0.77308 0.36809 0.0
O1432 O 0.67194 0.78634 0.402 0.0
C1433 C 0.63058 0.76755 0.32356 0.0
O1434 O 0.62582 0.75991 0.34375 0.0
C1435 C 0.65423 0.81883 0.44819 0.0
C1436 C 0.66209 0.85397 0.45732 0.0
C1437 C 0.65532 0.83353 0.4663 0.0
N1438 N 0.66014 0.83001 0.42946 0.0
N1439 N 0.66491 0.851 0.43501 0.0
C1440 C 0.64597 0.79505 0.44818 0.0
H1441 H 0.6381 0.79097 0.43175 0.0
H1442 H 0.63361 0.79226 0.4619 0.0
H1443 H 0.66045 0.78355 0.45071 0.0
C1444 C 0.60777 0.81794 0.35869 0.0
N1445 N 0.62898 0.81357 0.36541 0.0
N1446 N 0.6316 0.82046 0.38629 0.0
C1447 C 0.61188 0.82905 0.39364 0.0
C1448 C 0.59618 0.82776 0.37639 0.0
C1449 C 0.59845 0.81143 0.3362 0.0
H1450 H 0.61132 0.81398 0.32296 0.0
H1451 H 0.5936 0.79343 0.33662 0.0
H1452 H 0.58328 0.82123 0.33173 0.0
O1453 O 0.67974 0.81896 0.34723 0.0
O1454 O 0.68375 0.83401 0.38143 0.0
H1455 H 0.62114 0.85177 0.41993 0.0
H1456 H 0.5913 0.84664 0.41804 0.0
C1457 C 0.60818 0.83882 0.41653 0.0
H1458 H 0.60982 0.82536 0.42933 0.0
H1459 H 0.66982 0.86336 0.42354 0.0
O1460 O 0.64258 0.78526 0.32178 0.0
C1461 C 0.69008 0.83185 0.36101 0.0
Co1462 Co 0.21712 0.64536 0.3509 0.0
Co1463 Co 0.19494 0.65229 0.39866 0.0
C1464 C 0.24232 0.66513 0.39008 0.0
O1465 O 0.24055 0.65807 0.37003 0.0
O1466 O 0.22589 0.66418 0.40377 0.0
C1467 C 0.2521 0.62612 0.32591 0.0
O1468 O 0.25997 0.62335 0.34637 0.0
C1469 C 0.18889 0.64507 0.44689 0.0
C1470 C 0.15213 0.64838 0.45128 0.0
C1471 C 0.17176 0.64308 0.46267 0.0
N1472 N 0.17972 0.65069 0.427 0.0
N1473 N 0.15776 0.65288 0.42977 0.0
C1474 C 0.21372 0.64282 0.45057 0.0
H1475 H 0.22191 0.6591 0.44658 0.0
H1476 H 0.22067 0.63004 0.43888 0.0
H1477 H 0.21801 0.63843 0.46815 0.0
C1478 C 0.20187 0.59931 0.35809 0.0
N1479 N 0.20333 0.62083 0.36479 0.0
N1480 N 0.19501 0.62284 0.3852 0.0
C1481 C 0.18831 0.60223 0.39227 0.0
C1482 C 0.19274 0.58671 0.37534 0.0
C1483 C 0.2085 0.59094 0.33527 0.0
H1484 H 0.20485 0.60387 0.32234 0.0
H1485 H 0.22676 0.58716 0.33516 0.0
H1486 H 0.19927 0.57529 0.33095 0.0
O1487 O 0.19567 0.66991 0.34521 0.0
O1488 O 0.18016 0.67544 0.37889 0.0
H1489 H 0.16393 0.60754 0.41817 0.0
H1490 H 0.17479 0.57917 0.41707 0.0
C1491 C 0.17915 0.59721 0.41516 0.0
H1492 H 0.19189 0.60166 0.42801 0.0
H1493 H 0.14656 0.65685 0.41686 0.0
O1494 O 0.23304 0.63552 0.32322 0.0
C1495 C 0.18251 0.68083 0.35819 0.0
Co1496 Co 0.3419 0.1925 0.34339 0.0
Co1497 Co 0.34184 0.18083 0.39471 0.0
C1498 C 0.32283 0.22286 0.38051 0.0
O1499 O 0.3263 0.21594 0.36063 0.0
O1500 O 0.33034 0.21215 0.39743 0.0
C1501 C 0.3599 0.2254 0.31621 0.0
O1502 O 0.36766 0.23104 0.33613 0.0
C1503 C 0.35181 0.17785 0.44315 0.0
C1504 C 0.34882 0.14127 0.44921 0.0
C1505 C 0.35416 0.16142 0.45963 0.0
N1506 N 0.34583 0.16776 0.42381 0.0
N1507 N 0.34396 0.14592 0.42759 0.0
C1508 C 0.35371 0.20284 0.4458 0.0
H1509 H 0.33827 0.21093 0.43922 0.0
H1510 H 0.36812 0.20908 0.43571 0.0
H1511 H 0.35575 0.20794 0.4636 0.0
C1512 C 0.38928 0.17873 0.34755 0.0
N1513 N 0.36893 0.18279 0.35661 0.0
N1514 N 0.36955 0.17879 0.37834 0.0
C1515 C 0.39071 0.17258 0.38393 0.0
C1516 C 0.40388 0.17227 0.36457 0.0
C1517 C 0.39471 0.18187 0.32313 0.0
H1518 H 0.40022 0.19948 0.32034 0.0
H1519 H 0.4085 0.17072 0.31752 0.0
H1520 H 0.37963 0.17852 0.3127 0.0
O1521 O 0.31985 0.16793 0.34196 0.0
O1522 O 0.31664 0.16421 0.3792 0.0
H1523 H 0.38808 0.15116 0.41266 0.0
H1524 H 0.41606 0.16176 0.40783 0.0
C1525 C 0.39791 0.16601 0.40713 0.0
H1526 H 0.39435 0.18 0.41893 0.0
H1527 H 0.33963 0.13416 0.41531 0.0
O1528 O 0.34802 0.20765 0.31439 0.0
C1529 C 0.30998 0.15985 0.35923 0.0
Co1530 Co 0.19956 0.34251 0.65105 0.0
Co1531 Co 0.1777 0.33594 0.60312 0.0
C1532 C 0.22579 0.32536 0.61132 0.0
O1533 O 0.22399 0.33201 0.63151 0.0
O1534 O 0.20915 0.32564 0.59788 0.0
C1535 C 0.23162 0.36657 0.67474 0.0
O1536 O 0.23655 0.37175 0.65382 0.0
C1537 C 0.16974 0.34028 0.55442 0.0
C1538 C 0.13291 0.33563 0.55222 0.0
C1539 C 0.15184 0.34003 0.53935 0.0
N1540 N 0.16162 0.33662 0.57522 0.0
N1541 N 0.13962 0.33378 0.57377 0.0
C1542 C 0.19433 0.34218 0.54927 0.0
H1543 H 0.20311 0.32707 0.55577 0.0
H1544 H 0.20137 0.35706 0.55808 0.0
H1545 H 0.1978 0.34335 0.53101 0.0
C1546 C 0.17827 0.38706 0.64614 0.0
N1547 N 0.18324 0.36647 0.63812 0.0
N1548 N 0.17579 0.3647 0.61737 0.0
C1549 C 0.16657 0.38458 0.61125 0.0
C1550 C 0.16773 0.39929 0.62936 0.0
C1551 C 0.18407 0.39513 0.6693 0.0
H1552 H 0.18324 0.38102 0.68146 0.0
H1553 H 0.20135 0.40215 0.66916 0.0
H1554 H 0.17255 0.40862 0.67499 0.0
O1555 O 0.18044 0.31554 0.65605 0.0
O1556 O 0.16413 0.31201 0.62241 0.0
H1557 H 0.14098 0.37882 0.58674 0.0
H1558 H 0.15171 0.40721 0.58688 0.0
C1559 C 0.15633 0.38922 0.58875 0.0
H1560 H 0.16836 0.38445 0.57531 0.0
H1561 H 0.12917 0.33067 0.58753 0.0
O1562 O 0.21519 0.35334 0.67853 0.0
C1563 C 0.16731 0.3052 0.64255 0.0
Co1564 Co 0.6501 0.20394 0.65346 0.0
Co1565 Co 0.65188 0.18852 0.60307 0.0
C1566 C 0.67248 0.23009 0.61486 0.0
O1567 O 0.66811 0.22451 0.63497 0.0
O1568 O 0.66474 0.219 0.59834 0.0
C1569 C 0.6331 0.24148 0.67236 0.0
O1570 O 0.63015 0.24416 0.65064 0.0
C1571 C 0.64338 0.18358 0.55503 0.0
C1572 C 0.64191 0.14667 0.55071 0.0
C1573 C 0.63895 0.16683 0.5394 0.0
N1574 N 0.64816 0.17378 0.57482 0.0
N1575 N 0.64747 0.15172 0.5721 0.0
C1576 C 0.64411 0.2085 0.55127 0.0
H1577 H 0.66117 0.21476 0.55547 0.0
H1578 H 0.63204 0.21692 0.56273 0.0
H1579 H 0.64047 0.21319 0.53361 0.0
C1580 C 0.60245 0.19366 0.6475 0.0
N1581 N 0.62352 0.1947 0.63941 0.0
N1582 N 0.62353 0.18919 0.61802 0.0
C1583 C 0.60213 0.18471 0.61171 0.0
C1584 C 0.58812 0.18758 0.63023 0.0
C1585 C 0.59625 0.19754 0.6716 0.0
H1586 H 0.61053 0.19314 0.68277 0.0
H1587 H 0.59202 0.21555 0.67403 0.0
H1588 H 0.5813 0.18738 0.67631 0.0
O1589 O 0.67086 0.1786 0.65823 0.0
O1590 O 0.67544 0.1724 0.62139 0.0
H1591 H 0.60222 0.1623 0.58364 0.0
H1592 H 0.57653 0.17826 0.58658 0.0
C1593 C 0.5951 0.1789 0.58827 0.0
H1594 H 0.60181 0.19163 0.57643 0.0
H1595 H 0.65017 0.14013 0.58501 0.0
O1596 O 0.64191 0.22329 0.67956 0.0
C1597 C 0.68119 0.16917 0.64189 0.0
Co1598 Co 0.34741 0.80435 0.65141 0.0
Co1599 Co 0.34469 0.81578 0.60008 0.0
C1600 C 0.32848 0.77281 0.61539 0.0
O1601 O 0.3325 0.78001 0.63507 0.0
O1602 O 0.33445 0.78389 0.59809 0.0
C1603 C 0.36545 0.77198 0.67984 0.0
O1604 O 0.37296 0.76504 0.66024 0.0
C1605 C 0.35589 0.81844 0.55227 0.0
C1606 C 0.34453 0.85269 0.54341 0.0
C1607 C 0.35501 0.8338 0.53452 0.0
N1608 N 0.34656 0.82799 0.5705 0.0
N1609 N 0.33966 0.84839 0.56508 0.0
C1610 C 0.36684 0.79576 0.55292 0.0
H1611 H 0.37053 0.7908 0.57054 0.0
H1612 H 0.38268 0.7958 0.54303 0.0
H1613 H 0.35518 0.78309 0.54572 0.0
C1614 C 0.39444 0.81837 0.64495 0.0
N1615 N 0.3736 0.81458 0.63697 0.0
N1616 N 0.37298 0.81918 0.61532 0.0
C1617 C 0.39374 0.8259 0.60883 0.0
C1618 C 0.40795 0.82542 0.62733 0.0
C1619 C 0.40142 0.81422 0.66881 0.0
H1620 H 0.38725 0.81782 0.68037 0.0
H1621 H 0.40636 0.79633 0.67068 0.0
H1622 H 0.41602 0.82467 0.6737 0.0
O1623 O 0.32466 0.82824 0.65327 0.0
O1624 O 0.31973 0.83181 0.61623 0.0
H1625 H 0.41598 0.84323 0.58587 0.0
H1626 H 0.4019 0.81901 0.57454 0.0
C1627 C 0.39988 0.83376 0.58573 0.0
H1628 H 0.38651 0.84479 0.57895 0.0
H1629 H 0.33202 0.85952 0.5763 0.0
O1630 O 0.35424 0.79021 0.68078 0.0
C1631 C 0.31393 0.83612 0.63646 0.0
H1632 H 0.15729 0.30719 0.99018 0.0
H1633 H 0.12667 0.37283 0.98677 0.0
H1634 H 0.11729 0.37075 0.02683 0.0
H1635 H 0.11896 0.35052 0.06329 0.0
H1636 H 0.1495 0.28484 0.06588 0.0
H1637 H 0.15713 0.28632 0.02555 0.0
C1638 C 0.14798 0.32077 0.99796 0.0
C1639 C 0.14223 0.33991 0.98534 0.0
C1640 C 0.14264 0.31943 0.02092 0.0
C1641 C 0.13118 0.35784 0.9961 0.0
C1642 C 0.12576 0.35664 0.01898 0.0
C1643 C 0.12696 0.33647 0.05485 0.0
C1644 C 0.13379 0.31765 0.06741 0.0
C1645 C 0.13151 0.33755 0.03162 0.0
C1646 C 0.14433 0.29958 0.05648 0.0
C1647 C 0.14869 0.30041 0.03346 0.0
H1648 H 0.69872 0.14079 0.06371 0.0
H1649 H 0.62829 0.12639 0.07287 0.0
H1650 H 0.62197 0.13049 0.03227 0.0
H1651 H 0.63651 0.13964 0.99442 0.0
H1652 H 0.70646 0.15757 0.98673 0.0
H1653 H 0.71296 0.15065 0.02643 0.0
C1654 C 0.68198 0.13859 0.05677 0.0
C1655 C 0.66401 0.13315 0.07107 0.0
C1656 C 0.67845 0.14155 0.03368 0.0
C1657 C 0.64243 0.13019 0.06202 0.0
C1658 C 0.63881 0.13272 0.03889 0.0
C1659 C 0.6532 0.14192 0.00144 0.0
C1660 C 0.67113 0.14832 0.98736 0.0
C1661 C 0.6567 0.13858 0.02458 0.0
C1662 C 0.69257 0.15157 0.99678 0.0
C1663 C 0.69625 0.14796 0.01965 0.0
H1664 H 0.89314 0.68705 0.05795 0.0
H1665 H 0.83939 0.64324 0.07887 0.0
H1666 H 0.82986 0.63552 0.03951 0.0
H1667 H 0.83481 0.64398 0.99921 0.0
H1668 H 0.8888 0.68763 0.97828 0.0
H1669 H 0.90025 0.69281 0.01743 0.0
C1670 C 0.87963 0.67551 0.05376 0.0
C1671 C 0.86682 0.66581 0.07105 0.0
C1672 C 0.87405 0.67151 0.03114 0.0
C1673 C 0.84933 0.65092 0.06566 0.0
C1674 C 0.84385 0.64661 0.04322 0.0
C1675 C 0.84914 0.65452 0.00328 0.0
C1676 C 0.86037 0.66616 0.98604 0.0
C1677 C 0.85572 0.65727 0.02582 0.0
C1678 C 0.87924 0.67935 0.9914 0.0
C1679 C 0.88596 0.68211 0.01375 0.0
H1680 H 0.35849 0.8398 0.99955 0.0
H1681 H 0.31025 0.89081 0.98141 0.0
H1682 H 0.30534 0.90072 0.021 0.0
H1683 H 0.31259 0.8927 0.06116 0.0
H1684 H 0.36158 0.84247 0.0791 0.0
H1685 H 0.36888 0.83478 0.03929 0.0
C1686 C 0.34702 0.85318 0.00429 0.0
C1687 C 0.33394 0.8638 0.98772 0.0
C1688 C 0.34455 0.859 0.02705 0.0
C1689 C 0.3196 0.88152 0.99399 0.0
C1690 C 0.31701 0.88742 0.0166 0.0
C1691 C 0.32517 0.88043 0.05622 0.0
C1692 C 0.33642 0.86797 0.07279 0.0
C1693 C 0.32901 0.87592 0.03333 0.0
C1694 C 0.35268 0.8521 0.06644 0.0
C1695 C 0.35676 0.84765 0.04374 0.0
H1696 H 0.13613 0.64369 0.00243 0.0
H1697 H 0.15221 0.71334 0.01513 0.0
H1698 H 0.14287 0.72296 0.97661 0.0
H1699 H 0.13216 0.71153 0.93864 0.0
H1700 H 0.12003 0.6416 0.92409 0.0
H1701 H 0.12543 0.63213 0.9639 0.0
C1702 C 0.13743 0.66098 0.99677 0.0
C1703 C 0.1441 0.67787 0.01198 0.0
C1704 C 0.13271 0.66634 0.9742 0.0
C1705 C 0.14607 0.70014 0.00427 0.0
C1706 C 0.14104 0.70564 0.98205 0.0
C1707 C 0.13056 0.69423 0.94426 0.0
C1708 C 0.12552 0.67731 0.92862 0.0
C1709 C 0.1345 0.68889 0.96686 0.0
C1710 C 0.12345 0.65496 0.93598 0.0
C1711 C 0.1268 0.64954 0.95866 0.0
H1712 H 0.29267 0.13626 0.94094 0.0
H1713 H 0.36089 0.11433 0.93015 0.0
H1714 H 0.36867 0.11818 0.97054 0.0
H1715 H 0.35654 0.13049 0.00839 0.0
H1716 H 0.28935 0.15662 0.01724 0.0
H1717 H 0.28073 0.14864 0.97816 0.0
C1718 C 0.30926 0.13235 0.94745 0.0
C1719 C 0.32624 0.12518 0.9327 0.0
C1720 C 0.31376 0.13545 0.97034 0.0
C1721 C 0.34753 0.11972 0.94131 0.0
C1722 C 0.35201 0.12213 0.96431 0.0
C1723 C 0.33998 0.13432 0.00177 0.0
C1724 C 0.32339 0.14344 0.01603 0.0
C1725 C 0.33535 0.13042 0.97891 0.0
C1726 C 0.30213 0.14861 0.0071 0.0
C1727 C 0.29725 0.14435 0.98458 0.0
H1728 H 0.86092 0.29032 0.00669 0.0
H1729 H 0.86222 0.36287 0.0035 0.0
H1730 H 0.87366 0.361 0.96416 0.0
H1731 H 0.88094 0.33855 0.92993 0.0
H1732 H 0.88233 0.26624 0.93461 0.0
H1733 H 0.87332 0.26824 0.97465 0.0
C1734 C 0.86462 0.30581 0.99799 0.0
C1735 C 0.86109 0.32669 0.00851 0.0
C1736 C 0.87181 0.30465 0.97555 0.0
C1737 C 0.86475 0.34648 0.99597 0.0
C1738 C 0.87142 0.34547 0.97345 0.0
C1739 C 0.88002 0.32334 0.93995 0.0
C1740 C 0.88235 0.30229 0.92953 0.0
C1741 C 0.87478 0.32463 0.96298 0.0
C1742 C 0.88063 0.28261 0.94246 0.0
C1743 C 0.87532 0.28375 0.96526 0.0
H1744 H 0.69966 0.84564 0.01266 0.0
H1745 H 0.63232 0.87239 0.01542 0.0
H1746 H 0.63472 0.88297 0.97566 0.0
H1747 H 0.6558 0.88331 0.93961 0.0
H1748 H 0.72315 0.85661 0.9378 0.0
H1749 H 0.72135 0.84818 0.97798 0.0
C1750 C 0.68575 0.85441 0.00484 0.0
C1751 C 0.66605 0.8587 0.01716 0.0
C1752 C 0.68734 0.86057 0.98214 0.0
C1753 C 0.64773 0.86899 0.00631 0.0
C1754 C 0.64913 0.87513 0.98362 0.0
C1755 C 0.67016 0.8761 0.94824 0.0
C1756 C 0.6896 0.87064 0.936 0.0
C1757 C 0.66884 0.87092 0.97132 0.0
C1758 C 0.70805 0.86095 0.94707 0.0
C1759 C 0.70699 0.85603 0.96995 0.0
H1760 H 0.06426 0.15273 0.34651 0.0
H1761 H 0.05725 0.10137 0.29591 0.0
H1762 H 0.01619 0.10405 0.29851 0.0
H1763 H 0.98254 0.12227 0.31402 0.0
H1764 H 0.98987 0.17643 0.36183 0.0
H1765 H 0.03053 0.17128 0.36163 0.0
C1766 C 0.05369 0.14232 0.33589 0.0
C1767 C 0.06366 0.12717 0.32075 0.0
C1768 C 0.03019 0.14453 0.33693 0.0
C1769 C 0.04987 0.11319 0.30766 0.0
C1770 C 0.02643 0.11482 0.30905 0.0
C1771 C 0.9929 0.13344 0.32391 0.0
C1772 C 0.98297 0.15027 0.33732 0.0
C1773 C 0.01641 0.13077 0.32331 0.0
C1774 C 0.99694 0.16349 0.35113 0.0
C1775 C 0.02025 0.1606 0.35102 0.0
H1776 H 0.83565 2e-05 0.3544 0.0
H1777 H 0.89295 0.97864 0.3155 0.0
H1778 H 0.90375 0.01783 0.30916 0.0
H1779 H 0.89473 0.05834 0.31173 0.0
H1780 H 0.83782 0.07963 0.35114 0.0
H1781 H 0.82929 0.04049 0.36076 0.0
C1782 C 0.8506 0.004 0.34472 0.0
C1783 C 0.8629 0.98659 0.33455 0.0
C1784 C 0.8568 0.02657 0.34133 0.0
C1785 C 0.88257 0.99186 0.32253 0.0
C1786 C 0.88891 0.01424 0.31912 0.0
C1787 C 0.88081 0.05432 0.32283 0.0
C1788 C 0.86677 0.07161 0.33061 0.0
C1789 C 0.87582 0.03176 0.32794 0.0
C1790 C 0.84873 0.06641 0.34494 0.0
C1791 C 0.8438 0.04408 0.35031 0.0
H1792 H 0.00881 0.86427 0.36308 0.0
H1793 H 0.02072 0.84353 0.29452 0.0
H1794 H 0.98211 0.8523 0.28473 0.0
H1795 H 0.94441 0.86394 0.29579 0.0
H1796 H 0.9305 0.88107 0.36478 0.0
H1797 H 0.97041 0.87603 0.37428 0.0
C1798 C 0.00293 0.86181 0.34598 0.0
C1799 C 0.01792 0.85399 0.32939 0.0
C1800 C 0.98033 0.86626 0.34057 0.0
C1801 C 0.00999 0.85055 0.3074 0.0
C1802 C 0.98774 0.85526 0.30182 0.0
C1803 C 0.95017 0.86662 0.3129 0.0
C1804 C 0.93471 0.87281 0.32959 0.0
C1805 C 0.97278 0.86296 0.31827 0.0
C1806 C 0.94227 0.87651 0.35164 0.0
C1807 C 0.96499 0.87342 0.35707 0.0
H1808 H 0.11245 0.93537 0.31167 0.0
H1809 H 0.16209 0.92136 0.3625 0.0
H1810 H 0.16827 0.96175 0.3681 0.0
H1811 H 0.16142 0.00081 0.35651 0.0
H1812 H 0.11153 0.01488 0.30575 0.0
H1813 H 0.10372 0.97478 0.3019 0.0
C1814 C 0.12432 0.9413 0.3242 0.0
C1815 C 0.13689 0.92569 0.33665 0.0
C1816 C 0.12804 0.96447 0.32697 0.0
C1817 C 0.15233 0.93329 0.35276 0.0
C1818 C 0.15591 0.95629 0.35587 0.0
C1819 C 0.14877 0.99509 0.34467 0.0
C1820 C 0.13768 0.01077 0.33086 0.0
C1821 C 0.14419 0.97201 0.34273 0.0
C1822 C 0.12109 0.00315 0.31584 0.0
C1823 C 0.11637 0.98021 0.31385 0.0
H1824 H 0.99754 0.84264 0.63628 0.0
H1825 H 0.97776 0.89187 0.68569 0.0
H1826 H 0.01715 0.90189 0.69194 0.0
H1827 H 0.05753 0.89435 0.68547 0.0
H1828 H 0.0771 0.84597 0.63526 0.0
H1829 H 0.03754 0.83827 0.6267 0.0
C1830 C 0.00187 0.85567 0.6483 0.0
C1831 C 0.9849 0.86573 0.6613 0.0
C1832 C 0.02452 0.86156 0.65153 0.0
C1833 C 0.99065 0.88301 0.67637 0.0
C1834 C 0.01314 0.88897 0.67973 0.0
C1835 C 0.05301 0.88248 0.67237 0.0
C1836 C 0.06996 0.87049 0.66116 0.0
C1837 C 0.03026 0.87798 0.66778 0.0
C1838 C 0.06414 0.85518 0.64418 0.0
C1839 C 0.04159 0.85073 0.63937 0.0
H1840 H 0.1534 0.06935 0.67081 0.0
H1841 H 0.08677 0.0569 0.69636 0.0
H1842 H 0.09066 0.0167 0.68779 0.0
H1843 H 0.11404 0.98499 0.67493 0.0
H1844 H 0.18101 0.99756 0.6501 0.0
H1845 H 0.17597 0.03793 0.65613 0.0
C1846 C 0.13976 0.05775 0.67439 0.0
C1847 C 0.11999 0.06576 0.68448 0.0
C1848 C 0.14227 0.03479 0.66965 0.0
C1849 C 0.10217 0.05089 0.68869 0.0
C1850 C 0.10445 0.02798 0.68389 0.0
C1851 C 0.12762 0.99653 0.6712 0.0
C1852 C 0.14811 0.98832 0.66274 0.0
C1853 C 0.12461 0.01968 0.6748 0.0
C1854 C 0.16517 0.00355 0.65684 0.0
C1855 C 0.16232 0.02659 0.66033 0.0
H1856 H 0.99948 0.15966 0.64089 0.0
H1857 H 0.01677 0.10729 0.68805 0.0
H1858 H 0.97739 0.09696 0.69166 0.0
H1859 H 0.93744 0.10541 0.6843 0.0
H1860 H 0.92027 0.15525 0.63461 0.0
H1861 H 0.96015 0.16357 0.62859 0.0
C1862 C 0.99467 0.14584 0.65178 0.0
C1863 C 0.01096 0.13529 0.6653 0.0
C1864 C 0.97196 0.13947 0.65325 0.0
C1865 C 0.00451 0.11689 0.67872 0.0
C1866 C 0.98195 0.11064 0.68049 0.0
C1867 C 0.94253 0.11767 0.67178 0.0
C1868 C 0.92614 0.13013 0.66029 0.0
C1869 C 0.96545 0.12227 0.66837 0.0
C1870 C 0.93277 0.14587 0.64398 0.0
C1871 C 0.95551 0.15062 0.64056 0.0
H1872 H 0.83283 0.00127 0.63716 0.0
H1873 H 0.8827 0.02131 0.68581 0.0
H1874 H 0.89297 0.98203 0.69201 0.0
H1875 H 0.88592 0.94167 0.68541 0.0
H1876 H 0.83801 0.92172 0.63489 0.0
H1877 H 0.82901 0.9612 0.62728 0.0
C1878 C 0.84601 0.997 0.64903 0.0
C1879 C 0.85615 0.01402 0.66189 0.0
C1880 C 0.85219 0.9744 0.65212 0.0
C1881 C 0.87371 0.00837 0.67669 0.0
C1882 C 0.87982 0.98594 0.68001 0.0
C1883 C 0.8738 0.94608 0.67249 0.0
C1884 C 0.86228 0.929 0.661 0.0
C1885 C 0.86884 0.96877 0.66817 0.0
C1886 C 0.8467 0.93473 0.64423 0.0
C1887 C 0.8416 0.95725 0.63987 0.0
H1888 H 0.30009 0.06122 0.15112 0.0
H1889 H 0.36366 0.07198 0.11807 0.0
H1890 H 0.37256 0.03181 0.12154 0.0
H1891 H 0.36237 0.99371 0.13494 0.0
H1892 H 0.29906 0.98387 0.16902 0.0
H1893 H 0.28993 0.02353 0.16432 0.0
C1894 C 0.31588 0.0547 0.1447 0.0
C1895 C 0.33118 0.06935 0.13429 0.0
C1896 C 0.32088 0.03177 0.14696 0.0
C1897 C 0.35154 0.06084 0.12588 0.0
C1898 C 0.35666 0.03796 0.12801 0.0
C1899 C 0.34657 0.00031 0.14126 0.0
C1900 C 0.33118 0.98577 0.15182 0.0
C1901 C 0.34149 0.02327 0.13864 0.0
C1902 C 0.31086 0.99451 0.16014 0.0
C1903 C 0.30571 0.01726 0.15766 0.0
H1904 H 0.32074 0.0162 0.87927 0.0
H1905 H 0.36304 0.00757 0.82103 0.0
H1906 H 0.36153 0.96665 0.82568 0.0
H1907 H 0.34606 0.93331 0.84492 0.0
H1908 H 0.30232 0.94197 0.90203 0.0
H1909 H 0.30647 0.98291 0.89938 0.0
C1910 C 0.32936 0.0053 0.86745 0.0
C1911 C 0.34137 0.01473 0.8494 0.0
C1912 C 0.32817 0.98186 0.8701 0.0
C1913 C 0.3534 0.00058 0.83483 0.0
C1914 C 0.35251 0.97723 0.83747 0.0
C1915 C 0.33752 0.94426 0.85677 0.0
C1916 C 0.32373 0.93485 0.87347 0.0
C1917 C 0.33963 0.96769 0.8548 0.0
C1918 C 0.31302 0.94898 0.88904 0.0
C1919 C 0.31529 0.97232 0.88744 0.0
H1920 H 0.06546 0.35772 0.87413 0.0
H1921 H 0.07174 0.28724 0.85833 0.0
H1922 H 0.03168 0.28506 0.84993 0.0
H1923 H 0.99594 0.30373 0.84404 0.0
H1924 H 0.98773 0.3734 0.86257 0.0
H1925 H 0.02767 0.37562 0.87215 0.0
C1926 C 0.05785 0.34186 0.8693 0.0
C1927 C 0.07143 0.32272 0.86662 0.0
C1928 C 0.03464 0.34068 0.86459 0.0
C1929 C 0.06155 0.30224 0.86023 0.0
C1930 C 0.03869 0.30098 0.85539 0.0
C1931 C 0.00239 0.31918 0.85106 0.0
C1932 C 0.98846 0.33815 0.85313 0.0
C1933 C 0.02516 0.32017 0.85712 0.0
C1934 C 0.99797 0.35842 0.86087 0.0
C1935 C 0.02082 0.35971 0.86647 0.0
H1936 H 0.64491 0.99839 0.84382 0.0
H1937 H 0.70179 0.98472 0.88669 0.0
H1938 H 0.70571 0.02483 0.89478 0.0
H1939 H 0.69394 0.06411 0.88825 0.0
H1940 H 0.63739 0.07778 0.84514 0.0
H1941 H 0.63195 0.03737 0.83887 0.0
C1942 C 0.65811 0.00423 0.85498 0.0
C1943 C 0.67348 0.98873 0.86406 0.0
C1944 C 0.66016 0.02729 0.85964 0.0
C1945 C 0.69032 0.99642 0.87874 0.0
C1946 C 0.6924 0.01932 0.8836 0.0
C1947 C 0.68024 0.05809 0.87781 0.0
C1948 C 0.666 0.07361 0.86718 0.0
C1949 C 0.67759 0.03493 0.87393 0.0
C1950 C 0.64844 0.06592 0.85348 0.0
C1951 C 0.64542 0.0429 0.84983 0.0
H1952 H 0.00591 0.64018 0.86228 0.0
H1953 H 0.01463 0.70618 0.83328 0.0
H1954 H 0.97589 0.71561 0.84198 0.0
H1955 H 0.93941 0.70524 0.85722 0.0
H1956 H 0.92813 0.63814 0.88213 0.0
H1957 H 0.96804 0.62909 0.87625 0.0
C1958 C 0.99925 0.65659 0.85788 0.0
C1959 C 0.01342 0.67276 0.84794 0.0
C1960 C 0.97656 0.66174 0.86239 0.0
C1961 C 0.00449 0.69381 0.84194 0.0
C1962 C 0.98221 0.69916 0.84668 0.0
C1963 C 0.94567 0.68859 0.86127 0.0
C1964 C 0.93096 0.67238 0.87007 0.0
C1965 C 0.96817 0.68331 0.85695 0.0
C1966 C 0.93929 0.65099 0.87562 0.0
C1967 C 0.96201 0.64576 0.87201 0.0
H1968 H 0.64649 0.93537 0.12396 0.0
H1969 H 0.71845 0.93982 0.13156 0.0
H1970 H 0.7157 0.98021 0.13822 0.0
H1971 H 0.69268 0.01289 0.14593 0.0
H1972 H 0.62084 0.01018 0.13611 0.0
H1973 H 0.62356 0.97015 0.12696 0.0
C1974 C 0.66152 0.94539 0.12645 0.0
C1975 C 0.68262 0.93483 0.12734 0.0
C1976 C 0.6598 0.96868 0.13033 0.0
C1977 C 0.70204 0.94775 0.1309 0.0
C1978 C 0.70048 0.97077 0.13481 0.0
C1979 C 0.67767 0.00406 0.1408 0.0
C1980 C 0.65667 0.01487 0.14115 0.0
C1981 C 0.67941 0.98129 0.13508 0.0
C1982 C 0.63728 0.00234 0.13589 0.0
C1983 C 0.63881 0.97946 0.13057 0.0
H1984 H 0.06104 0.68608 0.10443 0.0
H1985 H 0.08163 0.64576 0.16097 0.0
H1986 H 0.04234 0.63657 0.16925 0.0
H1987 H 0.00213 0.64317 0.16258 0.0
H1988 H 0.98147 0.68226 0.10505 0.0
H1989 H 0.02062 0.68892 0.09506 0.0
C1990 C 0.05683 0.67496 0.11828 0.0
C1991 C 0.07396 0.66686 0.13233 0.0
C1992 C 0.03421 0.66996 0.12303 0.0
C1993 C 0.06853 0.65237 0.15017 0.0
C1994 C 0.04612 0.64719 0.15492 0.0
C1995 C 0.00617 0.65298 0.14773 0.0
C1996 C 0.98881 0.66311 0.13525 0.0
C1997 C 0.02879 0.65641 0.14184 0.0
C1998 C 0.99438 0.67536 0.11579 0.0
C1999 C 0.01685 0.67889 0.10982 0.0
H2000 H 0.01257 0.31271 0.11926 0.0
H2001 H 0.00815 0.36723 0.16683 0.0
H2002 H 0.96711 0.36715 0.16361 0.0
H2003 H 0.93239 0.35071 0.14809 0.0
H2004 H 0.93675 0.29594 0.10089 0.0
H2005 H 0.9779 0.29699 0.10291 0.0
C2006 C 0.00255 0.32433 0.12913 0.0
C2007 C 0.01321 0.33955 0.1437 0.0
C2008 C 0.97902 0.3242 0.12713 0.0
C2009 C 0.00019 0.35518 0.15571 0.0
C2010 C 0.97678 0.35514 0.15388 0.0
C2011 C 0.94244 0.33902 0.13834 0.0
C2012 C 0.93177 0.32311 0.12458 0.0
C2013 C 0.966 0.3396 0.13979 0.0
C2014 C 0.94478 0.30832 0.11158 0.0
C2015 C 0.96823 0.30884 0.11283 0.0
H2016 H 0.64617 0.80049 0.56669 0.0
H2017 H 0.6132 0.86463 0.57359 0.0
H2018 H 0.61831 0.87186 0.53324 0.0
H2019 H 0.63379 0.86038 0.49632 0.0
H2020 H 0.66744 0.79639 0.49027 0.0
H2021 H 0.66064 0.78866 0.52997 0.0
C2022 C 0.64013 0.81605 0.55931 0.0
C2023 C 0.62946 0.83209 0.57296 0.0
C2024 C 0.64333 0.82009 0.5363 0.0
C2025 C 0.62134 0.85202 0.56327 0.0
C2026 C 0.62441 0.85618 0.54028 0.0
C2027 C 0.63954 0.84474 0.50374 0.0
C2028 C 0.65076 0.82881 0.49031 0.0
C2029 C 0.63564 0.84044 0.52669 0.0
C2030 C 0.65822 0.80864 0.50009 0.0
C2031 C 0.6545 0.80428 0.52285 0.0
H2032 H 0.15084 0.6611 0.49887 0.0
H2033 H 0.19508 0.60718 0.47913 0.0
H2034 H 0.19974 0.5961 0.51846 0.0
H2035 H 0.19336 0.60355 0.55879 0.0
H2036 H 0.14901 0.65726 0.57857 0.0
H2037 H 0.14183 0.66643 0.53902 0.0
C2038 C 0.16139 0.64686 0.50325 0.0
C2039 C 0.17332 0.63552 0.48631 0.0
C2040 C 0.16387 0.64053 0.52589 0.0
C2041 C 0.18654 0.61678 0.49204 0.0
C2042 C 0.18902 0.61029 0.51448 0.0
C2043 C 0.18184 0.61697 0.55431 0.0
C2044 C 0.17183 0.62988 0.57132 0.0
C2045 C 0.17813 0.62233 0.53159 0.0
C2046 C 0.15695 0.64727 0.56556 0.0
C2047 C 0.15293 0.65253 0.54302 0.0
H2048 H 0.33618 0.14018 0.49549 0.0
H2049 H 0.38792 0.18747 0.47691 0.0
H2050 H 0.39734 0.19321 0.51655 0.0
H2051 H 0.38911 0.18648 0.55673 0.0
H2052 H 0.33737 0.13925 0.57515 0.0
H2053 H 0.32993 0.13131 0.5354 0.0
C2054 C 0.34959 0.15165 0.50017 0.0
C2055 C 0.36079 0.16402 0.48345 0.0
C2056 C 0.35496 0.15473 0.52294 0.0
C2057 C 0.37841 0.1785 0.48961 0.0
C2058 C 0.38397 0.18159 0.51223 0.0
C2059 C 0.3765 0.1742 0.55191 0.0
C2060 C 0.3637 0.16347 0.56856 0.0
C2061 C 0.37208 0.17009 0.52907 0.0
C2062 C 0.34732 0.14766 0.5624 0.0
C2063 C 0.34303 0.14323 0.53975 0.0
H2064 H 0.85641 0.37983 0.5696 0.0
H2065 H 0.78636 0.36115 0.57015 0.0
H2066 H 0.78739 0.35434 0.5297 0.0
H2067 H 0.80877 0.35092 0.49502 0.0
H2068 H 0.87862 0.37036 0.49322 0.0
H2069 H 0.87734 0.37915 0.53345 0.0
C2070 C 0.84137 0.37461 0.56068 0.0
C2071 C 0.82141 0.37075 0.57269 0.0
C2072 C 0.84213 0.37061 0.53735 0.0
C2073 C 0.80198 0.3639 0.56116 0.0
C2074 C 0.80255 0.36003 0.53808 0.0
C2075 C 0.82353 0.35783 0.5031 0.0
C2076 C 0.84359 0.36052 0.49094 0.0
C2077 C 0.82261 0.36297 0.52608 0.0
C2078 C 0.86289 0.36828 0.50219 0.0
C2079 C 0.86216 0.37336 0.52517 0.0
H2080 H 0.65458 0.14483 0.50283 0.0
H2081 H 0.60554 0.19393 0.52376 0.0
H2082 H 0.59536 0.20105 0.48455 0.0
H2083 H 0.60314 0.19592 0.44415 0.0
H2084 H 0.65266 0.14746 0.42316 0.0
H2085 H 0.65966 0.13698 0.46243 0.0
C2086 C 0.64153 0.1569 0.49872 0.0
C2087 C 0.63138 0.16945 0.51593 0.0
C2088 C 0.63584 0.16093 0.47615 0.0
C2089 C 0.61418 0.18474 0.5106 0.0
C2090 C 0.60823 0.18868 0.48824 0.0
C2091 C 0.61506 0.18273 0.4483 0.0
C2092 C 0.62744 0.17243 0.43112 0.0
C2093 C 0.61935 0.17729 0.47086 0.0
C2094 C 0.64299 0.15548 0.43636 0.0
C2095 C 0.64707 0.14964 0.45874 0.0
H2096 H 0.7942 0.60461 0.44054 0.0
H2097 H 0.85027 0.64472 0.41842 0.0
H2098 H 0.85836 0.65556 0.45741 0.0
H2099 H 0.84725 0.65613 0.49732 0.0
H2100 H 0.79187 0.61479 0.5195 0.0
H2101 H 0.78549 0.60215 0.48105 0.0
C2102 C 0.80852 0.61523 0.44446 0.0
C2103 C 0.82188 0.62367 0.42695 0.0
C2104 C 0.81275 0.62165 0.4668 0.0
C2105 C 0.8401 0.63779 0.43188 0.0
C2106 C 0.84454 0.64414 0.45407 0.0
C2107 C 0.83382 0.6443 0.49374 0.0
C2108 C 0.81933 0.63735 0.51112 0.0
C2109 C 0.83062 0.63662 0.47161 0.0
C2110 C 0.80241 0.62154 0.50629 0.0
C2111 C 0.79899 0.61395 0.48433 0.0
H2112 H 0.3616 0.79566 0.50908 0.0
H2113 H 0.36659 0.86805 0.50635 0.0
H2114 H 0.37829 0.86585 0.46707 0.0
H2115 H 0.38483 0.84324 0.4327 0.0
H2116 H 0.3821 0.77093 0.43697 0.0
H2117 H 0.37293 0.77318 0.47692 0.0
C2118 C 0.36613 0.81098 0.50046 0.0
C2119 C 0.36359 0.83195 0.51107 0.0
C2120 C 0.37336 0.8096 0.47805 0.0
C2121 C 0.36836 0.8516 0.49871 0.0
C2122 C 0.37517 0.8504 0.47623 0.0
C2123 C 0.38284 0.82805 0.44261 0.0
C2124 C 0.38398 0.80697 0.43204 0.0
C2125 C 0.37749 0.82948 0.46562 0.0
C2126 C 0.38113 0.78734 0.44486 0.0
C2127 C 0.37579 0.78861 0.46763 0.0
H2128 H 0.17492 0.37155 0.51536 0.0
H2129 H 0.12819 0.31656 0.50818 0.0
H2130 H 0.1292 0.32073 0.46724 0.0
H2131 H 0.14489 0.33882 0.43341 0.0
H2132 H 0.19356 0.39202 0.44054 0.0
H2133 H 0.19031 0.38989 0.48157 0.0
C2134 C 0.16533 0.3602 0.50479 0.0
C2135 C 0.15212 0.34325 0.51468 0.0
C2136 C 0.16631 0.36245 0.4813 0.0
C2137 C 0.13877 0.3295 0.50088 0.0
C2138 C 0.13936 0.33184 0.47751 0.0
C2139 C 0.15491 0.34975 0.44402 0.0
C2140 C 0.16974 0.36525 0.43414 0.0
C2141 C 0.15334 0.34802 0.46752 0.0
C2142 C 0.18209 0.37991 0.44791 0.0
C2143 C 0.18032 0.37862 0.47131 0.0
H2144 H 0.49162 0.63532 0.85699 0.0
H2145 H 0.48285 0.66144 0.78984 0.0
H2146 H 0.52238 0.65471 0.78167 0.0
H2147 H 0.55979 0.64247 0.7938 0.0
H2148 H 0.56969 0.61835 0.8614 0.0
H2149 H 0.52941 0.62297 0.86921 0.0
C2150 C 0.49839 0.63944 0.84055 0.0
C2151 C 0.48413 0.64829 0.82386 0.0
C2152 C 0.52135 0.63588 0.83607 0.0
C2153 C 0.49316 0.65378 0.80272 0.0
C2154 C 0.51588 0.6502 0.7981 0.0
C2155 C 0.55308 0.63827 0.81024 0.0
C2156 C 0.56755 0.63009 0.82701 0.0
C2157 C 0.53012 0.64133 0.81465 0.0
C2158 C 0.55873 0.62444 0.84818 0.0
C2159 C 0.53579 0.62724 0.85267 0.0
H2160 H 0.39051 0.56093 0.8103 0.0
H2161 H 0.34009 0.57834 0.85932 0.0
H2162 H 0.33237 0.53847 0.86613 0.0
H2163 H 0.33723 0.49892 0.85504 0.0
H2164 H 0.39009 0.48144 0.80848 0.0
H2165 H 0.39951 0.52091 0.80374 0.0
C2166 C 0.37819 0.5559 0.8228 0.0
C2167 C 0.36543 0.57236 0.83389 0.0
C2168 C 0.37392 0.53296 0.82666 0.0
C2169 C 0.34969 0.5658 0.85022 0.0
C2170 C 0.34528 0.54306 0.8541 0.0
C2171 C 0.35095 0.50369 0.844 0.0
C2172 C 0.36194 0.4872 0.83106 0.0
C2173 C 0.3568 0.5265 0.84187 0.0
C2174 C 0.38016 0.49372 0.81741 0.0
C2175 C 0.3859 0.51637 0.815 0.0
H2176 H 0.51294 0.38272 0.82412 0.0
H2177 H 0.50155 0.31545 0.84872 0.0
H2178 H 0.46102 0.32004 0.84322 0.0
H2179 H 0.42911 0.34233 0.82904 0.0
H2180 H 0.44052 0.40921 0.80363 0.0
H2181 H 0.48082 0.40574 0.81174 0.0
C2182 C 0.50162 0.36897 0.82793 0.0
C2183 C 0.51023 0.34853 0.83616 0.0
C2184 C 0.4784 0.3717 0.82461 0.0
C2185 C 0.49528 0.33126 0.84216 0.0
C2186 C 0.47214 0.33385 0.83896 0.0
C2187 C 0.4405 0.35611 0.82537 0.0
C2188 C 0.43214 0.37584 0.81545 0.0
C2189 C 0.46357 0.35384 0.82984 0.0
C2190 C 0.44677 0.39384 0.81116 0.0
C2191 C 0.46975 0.39181 0.8157 0.0
H2192 H 0.64844 0.43234 0.84603 0.0
H2193 H 0.58754 0.44189 0.80806 0.0
H2194 H 0.59062 0.4828 0.81283 0.0
H2195 H 0.61274 0.51587 0.82503 0.0
H2196 H 0.67396 0.50594 0.86255 0.0
H2197 H 0.66877 0.46513 0.86087 0.0
C2198 C 0.63569 0.44346 0.83918 0.0
C2199 C 0.61792 0.43441 0.82659 0.0
C2200 C 0.63789 0.46681 0.84161 0.0
C2201 C 0.60133 0.4487 0.81783 0.0
C2202 C 0.60323 0.47202 0.82039 0.0
C2203 C 0.62496 0.50468 0.83268 0.0
C2204 C 0.64403 0.51368 0.84333 0.0
C2205 C 0.6218 0.48127 0.83168 0.0
C2206 C 0.65934 0.49923 0.85398 0.0
C2207 C 0.65637 0.47596 0.85304 0.0
H2208 H 0.55875 0.38952 0.20104 0.0
H2209 H 0.57522 0.35296 0.14072 0.0
H2210 H 0.53523 0.34596 0.13361 0.0
H2211 H 0.4958 0.34845 0.14583 0.0
H2212 H 0.47916 0.38582 0.20571 0.0
H2213 H 0.51892 0.39422 0.21188 0.0
C2214 C 0.55344 0.38032 0.1862 0.0
C2215 C 0.56967 0.37164 0.17143 0.0
C2216 C 0.53048 0.37621 0.1824 0.0
C2217 C 0.56284 0.35964 0.15231 0.0
C2218 C 0.54006 0.35562 0.1483 0.0
C2219 C 0.50091 0.35847 0.1602 0.0
C2220 C 0.48469 0.36574 0.17578 0.0
C2221 C 0.52376 0.36348 0.16344 0.0
C2222 C 0.49145 0.3791 0.19407 0.0
C2223 C 0.51415 0.38418 0.19744 0.0
H2224 H 0.65797 0.50374 0.14922 0.0
H2225 H 0.60954 0.48331 0.19922 0.0
H2226 H 0.59793 0.52239 0.20441 0.0
H2227 H 0.60348 0.56278 0.19654 0.0
H2228 H 0.65179 0.58315 0.14659 0.0
H2229 H 0.66117 0.5437 0.13901 0.0
C2230 C 0.6448 0.50787 0.16116 0.0
C2231 C 0.63529 0.49084 0.1745 0.0
C2232 C 0.63806 0.53034 0.16386 0.0
C2233 C 0.6179 0.49629 0.18956 0.0
C2234 C 0.61104 0.51859 0.19231 0.0
C2235 C 0.61567 0.55841 0.18368 0.0
C2236 C 0.62692 0.57552 0.172 0.0
C2237 C 0.62129 0.53579 0.17986 0.0
C2238 C 0.64289 0.57 0.15556 0.0
C2239 C 0.64835 0.54754 0.15139 0.0
H2240 H 0.43375 0.65415 0.13931 0.0
H2241 H 0.44173 0.59588 0.18161 0.0
H2242 H 0.48274 0.59882 0.17844 0.0
H2243 H 0.51601 0.62074 0.16731 0.0
H2244 H 0.50782 0.68071 0.12732 0.0
H2245 H 0.46723 0.67431 0.12563 0.0
C2246 C 0.44458 0.64194 0.1475 0.0
C2247 C 0.43499 0.62503 0.1609 0.0
C2248 C 0.46801 0.64431 0.14631 0.0
C2249 C 0.44891 0.60903 0.17122 0.0
C2250 C 0.47229 0.61087 0.1696 0.0
C2251 C 0.50532 0.63256 0.15849 0.0
C2252 C 0.51476 0.65163 0.14818 0.0
C2253 C 0.482 0.62896 0.15791 0.0
C2254 C 0.50086 0.66609 0.13569 0.0
C2255 C 0.47767 0.66246 0.13474 0.0
H2256 H 0.34248 0.5118 0.19444 0.0
H2257 H 0.36784 0.5122 0.12652 0.0
H2258 H 0.37686 0.47207 0.12942 0.0
H2259 H 0.37661 0.43653 0.15125 0.0
H2260 H 0.34996 0.4365 0.21863 0.0
H2261 H 0.34293 0.47697 0.21631 0.0
C2262 C 0.35041 0.50324 0.18044 0.0
C2263 C 0.35492 0.515 0.16046 0.0
C2264 C 0.35539 0.48025 0.18222 0.0
C2265 C 0.36433 0.50345 0.14212 0.0
C2266 C 0.36955 0.48056 0.1438 0.0
C2267 C 0.36958 0.44558 0.16545 0.0
C2268 C 0.36391 0.43382 0.18512 0.0
C2269 C 0.36511 0.46876 0.16377 0.0
C2270 C 0.35446 0.44541 0.20337 0.0
C2271 C 0.35039 0.46846 0.20202 0.0
H2272 H 0.81365 0.48689 0.62112 0.0
H2273 H 0.86724 0.49687 0.66891 0.0
H2274 H 0.86485 0.53762 0.66348 0.0
H2275 H 0.8456 0.57046 0.64716 0.0
H2276 H 0.79048 0.56057 0.60122 0.0
H2277 H 0.7953 0.51968 0.60376 0.0
C2278 C 0.82456 0.49805 0.63056 0.0
C2279 C 0.84006 0.48906 0.64597 0.0
C2280 C 0.8228 0.52139 0.62763 0.0
C2281 C 0.85493 0.50352 0.65724 0.0
C2282 C 0.85354 0.52677 0.65417 0.0
C2283 C 0.8347 0.55926 0.63774 0.0
C2284 C 0.81753 0.56826 0.6243 0.0
C2285 C 0.83724 0.53589 0.63976 0.0
C2286 C 0.80376 0.55382 0.61172 0.0
C2287 C 0.80645 0.53053 0.61327 0.0
H2288 H 0.84833 0.43041 0.34269 0.0
H2289 H 0.8126 0.43916 0.4051 0.0
H2290 H 0.81518 0.48012 0.40118 0.0
H2291 H 0.82555 0.51329 0.37869 0.0
H2292 H 0.85972 0.50442 0.31531 0.0
H2293 H 0.86004 0.46369 0.32094 0.0
C2294 C 0.84119 0.44137 0.35541 0.0
C2295 C 0.83003 0.43195 0.37398 0.0
C2296 C 0.84231 0.46482 0.35275 0.0
C2297 C 0.82124 0.44615 0.39066 0.0
C2298 C 0.82259 0.46952 0.38833 0.0
C2299 C 0.83269 0.50246 0.36591 0.0
C2300 C 0.84196 0.51185 0.34626 0.0
C2301 C 0.83262 0.47904 0.36918 0.0
C2302 C 0.85226 0.49759 0.33047 0.0
C2303 C 0.85241 0.4743 0.33365 0.0
H2304 H 0.57212 0.85581 0.34971 0.0
H2305 H 0.56586 0.80983 0.40537 0.0
H2306 H 0.52478 0.81262 0.40347 0.0
H2307 H 0.4908 0.82518 0.38344 0.0
H2308 H 0.49709 0.86901 0.32605 0.0
H2309 H 0.53797 0.87031 0.33117 0.0
C2310 C 0.56167 0.84655 0.36147 0.0
C2311 C 0.57179 0.83238 0.37742 0.0
C2312 C 0.53815 0.8477 0.35977 0.0
C2313 C 0.55829 0.8208 0.39294 0.0
C2314 C 0.53487 0.82227 0.39174 0.0
C2315 C 0.5012 0.83485 0.37198 0.0
C2316 C 0.49119 0.84634 0.35392 0.0
C2317 C 0.52463 0.83511 0.37478 0.0
C2318 C 0.50459 0.85973 0.33983 0.0
C2319 C 0.52791 0.86043 0.34272 0.0
H2320 H 0.2006 0.48388 0.35628 0.0
H2321 H 0.12947 0.48631 0.37054 0.0
H2322 H 0.1326 0.52619 0.37995 0.0
H2323 H 0.15539 0.56103 0.38176 0.0
H2324 H 0.22664 0.55736 0.36899 0.0
H2325 H 0.22384 0.51693 0.36239 0.0
C2326 C 0.18589 0.49268 0.36232 0.0
C2327 C 0.16493 0.48182 0.36312 0.0
C2328 C 0.18786 0.51547 0.36802 0.0
C2329 C 0.14588 0.49421 0.36978 0.0
C2330 C 0.14764 0.51701 0.37525 0.0
C2331 C 0.1703 0.55117 0.37811 0.0
C2332 C 0.19116 0.56197 0.37575 0.0
C2333 C 0.16852 0.52791 0.37417 0.0
C2334 C 0.21041 0.54926 0.37075 0.0
C2335 C 0.2088 0.52621 0.36689 0.0
H2336 H 0.5024 0.14781 0.3348 0.0
H2337 H 0.518 0.19812 0.38477 0.0
H2338 H 0.47836 0.20236 0.39337 0.0
H2339 H 0.43862 0.19303 0.38554 0.0
H2340 H 0.42329 0.14003 0.33861 0.0
H2341 H 0.46334 0.13521 0.33039 0.0
C2342 C 0.49721 0.15967 0.34765 0.0
C2343 C 0.51333 0.17352 0.35812 0.0
C2344 C 0.4743 0.16143 0.3532 0.0
C2345 C 0.50616 0.1883 0.37518 0.0
C2346 C 0.48336 0.19044 0.38051 0.0
C2347 C 0.44417 0.18021 0.3738 0.0
C2348 C 0.42815 0.16724 0.36228 0.0
C2349 C 0.46723 0.17737 0.36937 0.0
C2350 C 0.4354 0.15057 0.34722 0.0
C2351 C 0.45826 0.14778 0.34258 0.0
H2352 H 0.14051 0.4966 0.65918 0.0
H2353 H 0.19 0.51388 0.60895 0.0
H2354 H 0.1942 0.47439 0.59908 0.0
H2355 H 0.18575 0.43435 0.60663 0.0
H2356 H 0.13516 0.41733 0.65561 0.0
H2357 H 0.12888 0.45726 0.66356 0.0
C2358 C 0.15212 0.4918 0.64595 0.0
C2359 C 0.16573 0.50823 0.63567 0.0
C2360 C 0.15407 0.46903 0.63996 0.0
C2361 C 0.18029 0.50164 0.6182 0.0
C2362 C 0.18242 0.479 0.61222 0.0
C2363 C 0.17302 0.43953 0.61865 0.0
C2364 C 0.16099 0.42315 0.63067 0.0
C2365 C 0.16975 0.46249 0.62331 0.0
C2366 C 0.14461 0.42982 0.64627 0.0
C2367 C 0.14113 0.45259 0.65089 0.0
H2368 H 0.56139 0.15202 0.61972 0.0
H2369 H 0.55988 0.22018 0.64432 0.0
H2370 H 0.51942 0.21735 0.65092 0.0
H2371 H 0.48522 0.19475 0.65208 0.0
H2372 H 0.48593 0.12656 0.62743 0.0
H2373 H 0.52609 0.12989 0.61884 0.0
C2374 C 0.55202 0.1663 0.62614 0.0
C2375 C 0.56339 0.18626 0.63155 0.0
C2376 C 0.52877 0.16444 0.63012 0.0
C2377 C 0.55134 0.20463 0.64017 0.0
C2378 C 0.52827 0.20301 0.64396 0.0
C2379 C 0.49392 0.18084 0.64419 0.0
C2380 C 0.48248 0.16063 0.6399 0.0
C2381 C 0.51689 0.1829 0.6393 0.0
C2382 C 0.49438 0.14236 0.63076 0.0
C2383 C 0.5173 0.14427 0.62579 0.0
H2384 H 0.51368 0.82125 0.62455 0.0
H2385 H 0.50592 0.8727 0.67504 0.0
H2386 H 0.46507 0.87192 0.66999 0.0
H2387 H 0.43147 0.85524 0.65245 0.0
H2388 H 0.43914 0.80301 0.60285 0.0
H2389 H 0.48016 0.80551 0.60605 0.0
C2390 C 0.50298 0.83202 0.63465 0.0
C2391 C 0.51261 0.84652 0.65062 0.0
C2392 C 0.47957 0.83141 0.6317 0.0
C2393 C 0.49874 0.86118 0.66288 0.0
C2394 C 0.47544 0.86073 0.66001 0.0
C2395 C 0.44222 0.84442 0.64243 0.0
C2396 C 0.43253 0.82873 0.62772 0.0
C2397 C 0.46566 0.84571 0.64468 0.0
C2398 C 0.44641 0.81516 0.61432 0.0
C2399 C 0.46978 0.8165 0.61625 0.0
H2400 H 0.16852 0.37892 0.27779 0.0
H2401 H 0.12905 0.3239 0.30377 0.0
H2402 H 0.11601 0.31505 0.26561 0.0
H2403 H 0.11888 0.32081 0.2247 0.0
H2404 H 0.16304 0.372 0.19857 0.0
H2405 H 0.17119 0.38483 0.23698 0.0
C2406 C 0.15663 0.36532 0.27511 0.0
C2407 C 0.14936 0.35228 0.2935 0.0
C2408 C 0.15027 0.35966 0.25311 0.0
C2409 C 0.13461 0.33425 0.28984 0.0
C2410 C 0.12726 0.32918 0.26806 0.0
C2411 C 0.12987 0.33512 0.2275 0.0
C2412 C 0.14004 0.34585 0.20901 0.0
C2413 C 0.13537 0.34148 0.24955 0.0
C2414 C 0.15486 0.3638 0.21265 0.0
C2415 C 0.15955 0.37101 0.23455 0.0
H2416 H 0.62019 0.15553 0.28496 0.0
H2417 H 0.68602 0.18267 0.29964 0.0
H2418 H 0.6984 0.17381 0.26163 0.0
H2419 H 0.69011 0.16034 0.22362 0.0
H2420 H 0.62527 0.13143 0.20895 0.0
H2421 H 0.61276 0.13941 0.24749 0.0
C2422 C 0.63737 0.15919 0.28001 0.0
C2423 C 0.65206 0.16994 0.29521 0.0
C2424 C 0.64439 0.15424 0.25796 0.0
C2425 C 0.67427 0.17449 0.28838 0.0
C2426 C 0.68135 0.16959 0.26654 0.0
C2427 C 0.67314 0.15605 0.22881 0.0
C2428 C 0.65839 0.14587 0.21341 0.0
C2429 C 0.66641 0.15998 0.25107 0.0
C2430 C 0.63674 0.13964 0.22049 0.0
C2431 C 0.62967 0.14406 0.24252 0.0
H2432 H 0.83913 0.69213 0.22076 0.0
H2433 H 0.87607 0.63128 0.20684 0.0
H2434 H 0.86718 0.61707 0.24456 0.0
H2435 H 0.84802 0.6217 0.28108 0.0
H2436 H 0.8125 0.68357 0.29506 0.0
H2437 H 0.82226 0.6978 0.25791 0.0
C2438 C 0.84503 0.67563 0.22589 0.0
C2439 C 0.8578 0.66254 0.21087 0.0
C2440 C 0.84043 0.66792 0.24773 0.0
C2441 C 0.86594 0.64153 0.21801 0.0
C2442 C 0.86096 0.63347 0.23959 0.0
C2443 C 0.84267 0.63844 0.27617 0.0
C2444 C 0.82938 0.65144 0.29094 0.0
C2445 C 0.84819 0.64653 0.2546 0.0
C2446 C 0.8227 0.67311 0.28416 0.0
C2447 C 0.82813 0.68124 0.2628 0.0
H2448 H 0.3856 0.84281 0.28252 0.0
H2449 H 0.32372 0.80739 0.29679 0.0
H2450 H 0.31008 0.8156 0.2591 0.0
H2451 H 0.31612 0.83131 0.22158 0.0
H2452 H 0.37657 0.86871 0.20733 0.0
H2453 H 0.39058 0.86087 0.2454 0.0
C2454 C 0.36898 0.83719 0.27755 0.0
C2455 C 0.35581 0.82435 0.29257 0.0
C2456 C 0.3612 0.84184 0.25566 0.0
C2457 C 0.3343 0.81724 0.28569 0.0
C2458 C 0.32651 0.82177 0.26403 0.0
C2459 C 0.33254 0.83742 0.2267 0.0
C2460 C 0.34562 0.85 0.21153 0.0
C2461 C 0.34 0.83361 0.24875 0.0
C2462 C 0.36644 0.85861 0.21862 0.0
C2463 C 0.37433 0.85428 0.24041 0.0
H2464 H 0.12374 0.64955 0.78063 0.0
H2465 H 0.18825 0.67859 0.79733 0.0
H2466 H 0.20258 0.66861 0.76029 0.0
H2467 H 0.19633 0.65377 0.72245 0.0
H2468 H 0.13272 0.62326 0.70566 0.0
H2469 H 0.11838 0.63201 0.74339 0.0
C2470 C 0.14105 0.65338 0.77635 0.0
C2471 C 0.1548 0.66499 0.79182 0.0
C2472 C 0.14919 0.6478 0.75483 0.0
C2473 C 0.17721 0.66976 0.78585 0.0
C2474 C 0.18541 0.6642 0.76457 0.0
C2475 C 0.17922 0.64926 0.72696 0.0
C2476 C 0.16537 0.63841 0.71116 0.0
C2477 C 0.1714 0.65374 0.74877 0.0
C2478 C 0.14354 0.63194 0.71747 0.0
C2479 C 0.13542 0.63683 0.73905 0.0
H2480 H 0.33493 0.19021 0.71941 0.0
H2481 H 0.36608 0.12672 0.70355 0.0
H2482 H 0.35996 0.11379 0.7423 0.0
H2483 H 0.34558 0.12078 0.78064 0.0
H2484 H 0.31681 0.18565 0.79646 0.0
H2485 H 0.32277 0.19798 0.75792 0.0
C2486 C 0.34002 0.17339 0.72436 0.0
C2487 C 0.35037 0.15917 0.70859 0.0
C2488 C 0.33733 0.16652 0.74677 0.0
C2489 C 0.35769 0.13776 0.71538 0.0
C2490 C 0.35437 0.13047 0.73753 0.0
C2491 C 0.34092 0.13773 0.77578 0.0
C2492 C 0.33063 0.15217 0.79154 0.0
C2493 C 0.34432 0.14479 0.75343 0.0
C2494 C 0.32473 0.1741 0.78481 0.0
C2495 C 0.32796 0.18116 0.76267 0.0
H2496 H 0.80592 0.34216 0.72675 0.0
H2497 H 0.86757 0.37707 0.7113 0.0
H2498 H 0.88212 0.36835 0.74896 0.0
H2499 H 0.8779 0.3488 0.78534 0.0
H2500 H 0.81526 0.31522 0.80072 0.0
H2501 H 0.80026 0.32609 0.76422 0.0
C2502 C 0.82262 0.34771 0.73159 0.0
C2503 C 0.83594 0.35969 0.71616 0.0
C2504 C 0.83052 0.34319 0.75334 0.0
C2505 C 0.8572 0.3675 0.72285 0.0
C2506 C 0.86544 0.36261 0.74437 0.0
C2507 C 0.8608 0.34424 0.78094 0.0
C2508 C 0.84787 0.33094 0.79576 0.0
C2509 C 0.8523 0.35028 0.7597 0.0
C2510 C 0.8257 0.32531 0.78969 0.0
C2511 C 0.81713 0.33135 0.7687 0.0
H2512 H 0.67557 0.88425 0.78064 0.0
H2513 H 0.63371 0.83257 0.80952 0.0
H2514 H 0.61853 0.82376 0.77213 0.0
H2515 H 0.62028 0.82825 0.73097 0.0
H2516 H 0.66671 0.87575 0.70195 0.0
H2517 H 0.67702 0.88902 0.73966 0.0
C2518 C 0.66269 0.87145 0.77877 0.0
C2519 C 0.65537 0.85932 0.79774 0.0
C2520 C 0.65511 0.86569 0.75719 0.0
C2521 C 0.63931 0.84224 0.79512 0.0
C2522 C 0.63077 0.83717 0.77378 0.0
C2523 C 0.63227 0.84186 0.73299 0.0
C2524 C 0.64248 0.85139 0.71388 0.0
C2525 C 0.63895 0.84844 0.75466 0.0
C2526 C 0.65852 0.86846 0.71651 0.0
C2527 C 0.66443 0.87592 0.73802 0.0
H2528 H 0.21993 0.11537 0.32645 0.0
H2529 H 0.19235 0.16869 0.3671 0.0
H2530 H 0.23019 0.17809 0.3807 0.0
H2531 H 0.2713 0.1735 0.37789 0.0
H2532 H 0.29889 0.12413 0.3326 0.0
H2533 H 0.26087 0.11053 0.32395 0.0
C2534 C 0.22218 0.12868 0.33874 0.0
C2535 C 0.20342 0.14108 0.34617 0.0
C2536 C 0.24401 0.13473 0.34541 0.0
C2537 C 0.20656 0.15879 0.36142 0.0
C2538 C 0.22817 0.1642 0.36907 0.0
C2539 C 0.26892 0.15941 0.36654 0.0
C2540 C 0.28772 0.14944 0.35619 0.0
C2541 C 0.24704 0.1526 0.36078 0.0
C2542 C 0.28459 0.13176 0.34092 0.0
C2543 C 0.2629 0.1241 0.33594 0.0
H2544 H 0.80646 0.28005 0.34302 0.0
H2545 H 0.87002 0.29309 0.3754 0.0
H2546 H 0.88269 0.25489 0.36629 0.0
H2547 H 0.87575 0.21803 0.34854 0.0
H2548 H 0.81122 0.20497 0.31774 0.0
H2549 H 0.79874 0.24277 0.32735 0.0
C2550 C 0.82321 0.27463 0.34783 0.0
C2551 C 0.83749 0.28951 0.35942 0.0
C2552 C 0.83005 0.25252 0.34317 0.0
C2553 C 0.85885 0.28202 0.36619 0.0
C2554 C 0.86603 0.26016 0.3611 0.0
C2555 C 0.85883 0.2233 0.34419 0.0
C2556 C 0.84452 0.20856 0.3323 0.0
C2557 C 0.85174 0.24523 0.34962 0.0
C2558 C 0.82266 0.21583 0.32685 0.0
C2559 C 0.81552 0.23755 0.3322 0.0
H2560 H 0.72143 0.81223 0.33495 0.0
H2561 H 0.70858 0.87211 0.3737 0.0
H2562 H 0.74681 0.88564 0.36587 0.0
H2563 H 0.7841 0.88003 0.34814 0.0
H2564 H 0.79698 0.81834 0.31189 0.0
H2565 H 0.75877 0.80581 0.31904 0.0
C2566 C 0.72688 0.82843 0.34136 0.0
C2567 C 0.71208 0.84142 0.35443 0.0
C2568 C 0.74907 0.83558 0.3376 0.0
C2569 C 0.7196 0.862 0.36329 0.0
C2570 C 0.74149 0.86963 0.35895 0.0
C2571 C 0.77865 0.86373 0.34203 0.0
C2572 C 0.79356 0.85025 0.32941 0.0
C2573 C 0.75647 0.85646 0.34626 0.0
C2574 C 0.78605 0.82916 0.32166 0.0
C2575 C 0.76407 0.82198 0.32559 0.0
H2576 H 0.15983 0.71326 0.38199 0.0
H2577 H 0.18415 0.69715 0.31538 0.0
H2578 H 0.17541 0.73502 0.30273 0.0
H2579 H 0.16303 0.77334 0.31084 0.0
H2580 H 0.13628 0.78965 0.37617 0.0
H2581 H 0.14411 0.75117 0.3892 0.0
C2582 C 0.16286 0.71789 0.36461 0.0
C2583 C 0.17289 0.70231 0.34978 0.0
C2584 C 0.15786 0.73989 0.35735 0.0
C2585 C 0.1766 0.70871 0.32728 0.0
C2586 C 0.17175 0.73046 0.32001 0.0
C2587 C 0.15917 0.76852 0.32802 0.0
C2588 C 0.14975 0.78436 0.34278 0.0
C2589 C 0.16292 0.74631 0.33502 0.0
C2590 C 0.14397 0.77776 0.36471 0.0
C2591 C 0.14831 0.75577 0.37206 0.0
H2592 H 0.27457 0.81979 0.6223 0.0
H2593 H 0.30385 0.87382 0.66065 0.0
H2594 H 0.26613 0.88763 0.6704 0.0
H2595 H 0.22509 0.88232 0.6704 0.0
H2596 H 0.19624 0.82499 0.63668 0.0
H2597 H 0.23352 0.81435 0.62248 0.0
C2598 C 0.27257 0.83485 0.63243 0.0
C2599 C 0.29172 0.84615 0.64045 0.0
C2600 C 0.25098 0.84188 0.63884 0.0
C2601 C 0.2892 0.86516 0.65414 0.0
C2602 C 0.26771 0.87293 0.65974 0.0
C2603 C 0.22697 0.86775 0.65958 0.0
C2604 C 0.20804 0.8546 0.65422 0.0
C2605 C 0.24851 0.86119 0.65249 0.0
C2606 C 0.21064 0.83539 0.64079 0.0
C2607 C 0.2319 0.82932 0.63277 0.0
H2608 H 0.1193 0.21148 0.65619 0.0
H2609 H 0.17994 0.19889 0.69421 0.0
H2610 H 0.19337 0.23667 0.68564 0.0
H2611 H 0.18727 0.27392 0.66883 0.0
H2612 H 0.12754 0.28623 0.62959 0.0
H2613 H 0.11417 0.24807 0.63759 0.0
C2614 C 0.13563 0.2168 0.66233 0.0
C2615 C 0.1485 0.20223 0.67592 0.0
C2616 C 0.14318 0.23873 0.65758 0.0
C2617 C 0.16961 0.20961 0.6837 0.0
C2618 C 0.17725 0.23133 0.67898 0.0
C2619 C 0.17116 0.26834 0.66232 0.0
C2620 C 0.15814 0.28301 0.64908 0.0
C2621 C 0.16397 0.24619 0.66636 0.0
C2622 C 0.13768 0.27533 0.64011 0.0
C2623 C 0.13013 0.25348 0.64454 0.0
H2624 H 0.77073 0.12478 0.67716 0.0
H2625 H 0.79903 0.17225 0.63024 0.0
H2626 H 0.76109 0.18265 0.6176 0.0
H2627 H 0.72002 0.17992 0.62185 0.0
H2628 H 0.69181 0.13653 0.67262 0.0
H2629 H 0.7296 0.12256 0.68189 0.0
C2630 C 0.76851 0.13711 0.66387 0.0
C2631 C 0.78748 0.14748 0.65423 0.0
C2632 C 0.74673 0.1437 0.65757 0.0
C2633 C 0.78458 0.16395 0.63762 0.0
C2634 C 0.76295 0.16988 0.63049 0.0
C2635 C 0.72218 0.16706 0.63463 0.0
C2636 C 0.70327 0.15881 0.64625 0.0
C2637 C 0.74392 0.16007 0.64056 0.0
C2638 C 0.70618 0.14281 0.66332 0.0
C2639 C 0.72773 0.13494 0.66863 0.0
H2640 H 0.8265 0.72314 0.61433 0.0
H2641 H 0.85898 0.69385 0.67219 0.0
H2642 H 0.87425 0.73076 0.68249 0.0
H2643 H 0.87495 0.7719 0.67714 0.0
H2644 H 0.83797 0.80158 0.62239 0.0
H2645 H 0.82791 0.76401 0.6085 0.0
C2646 C 0.83739 0.72475 0.62889 0.0
C2647 C 0.84191 0.70578 0.64234 0.0
C2648 C 0.84507 0.74615 0.63529 0.0
C2649 C 0.85546 0.7082 0.66152 0.0
C2650 C 0.86408 0.72929 0.66744 0.0
C2651 C 0.86511 0.77 0.66188 0.0
C2652 C 0.85748 0.78925 0.65046 0.0
C2653 C 0.85853 0.74846 0.65475 0.0
C2654 C 0.84419 0.78687 0.63116 0.0
C2655 C 0.8384 0.76544 0.62334 0.0
H2656 H 0.38042 0.27742 0.17803 0.0
H2657 H 0.3339 0.30472 0.12964 0.0
H2658 H 0.3256 0.26667 0.11588 0.0
H2659 H 0.32854 0.22567 0.12065 0.0
H2660 H 0.37042 0.19849 0.1732 0.0
H2661 H 0.38387 0.23643 0.18234 0.0
C2662 C 0.36892 0.275 0.16406 0.0
C2663 C 0.35809 0.29373 0.15445 0.0
C2664 C 0.36332 0.2531 0.15725 0.0
C2665 C 0.34261 0.29049 0.13698 0.0
C2666 C 0.33781 0.26878 0.12925 0.0
C2667 C 0.34104 0.22806 0.13373 0.0
C2668 C 0.34884 0.20938 0.14603 0.0
C2669 C 0.34765 0.24995 0.13965 0.0
C2670 C 0.36443 0.21265 0.16342 0.0
C2671 C 0.372 0.23431 0.16867 0.0
H2672 H 0.32506 0.77739 0.88301 0.0
H2673 H 0.35355 0.80695 0.82324 0.0
H2674 H 0.36616 0.76975 0.8106 0.0
H2675 H 0.36666 0.72859 0.81541 0.0
H2676 H 0.33387 0.69859 0.87263 0.0
H2677 H 0.32524 0.73616 0.88763 0.0
C2678 C 0.33446 0.77568 0.86746 0.0
C2679 C 0.33883 0.79483 0.85423 0.0
C2680 C 0.34059 0.75416 0.85984 0.0
C2681 C 0.35031 0.79243 0.83376 0.0
C2682 C 0.35739 0.77118 0.82653 0.0
C2683 C 0.35785 0.7304 0.8313 0.0
C2684 C 0.35109 0.7111 0.84316 0.0
C2685 C 0.35227 0.75192 0.83924 0.0
C2686 C 0.33928 0.71336 0.86342 0.0
C2687 C 0.33439 0.73478 0.87192 0.0
H2688 H 0.28641 0.37808 0.84542 0.0
H2689 H 0.29849 0.31726 0.80749 0.0
H2690 H 0.26104 0.30369 0.81693 0.0
H2691 H 0.22412 0.30978 0.83405 0.0
H2692 H 0.21197 0.36936 0.87354 0.0
H2693 H 0.25009 0.38287 0.86512 0.0
C2694 C 0.28104 0.36169 0.83951 0.0
C2695 C 0.29538 0.34883 0.82559 0.0
C2696 C 0.25927 0.35396 0.84487 0.0
C2697 C 0.28797 0.32761 0.81817 0.0
C2698 C 0.26642 0.31986 0.82342 0.0
C2699 C 0.22972 0.32585 0.84063 0.0
C2700 C 0.21507 0.33883 0.85395 0.0
C2701 C 0.25178 0.33311 0.8363 0.0
C2702 C 0.22284 0.35924 0.86297 0.0
C2703 C 0.24465 0.36688 0.85825 0.0
H2704 H 0.62193 0.28689 0.85264 0.0
H2705 H 0.68452 0.30307 0.81934 0.0
H2706 H 0.69822 0.26512 0.82621 0.0
H2707 H 0.69168 0.22661 0.83941 0.0
H2708 H 0.63037 0.21052 0.87457 0.0
H2709 H 0.61671 0.24906 0.86884 0.0
C2710 C 0.63874 0.28229 0.84724 0.0
C2711 C 0.65204 0.29789 0.83528 0.0
C2712 C 0.64652 0.26027 0.85105 0.0
C2713 C 0.67382 0.29151 0.82851 0.0
C2714 C 0.68164 0.2697 0.83224 0.0
C2715 C 0.67521 0.23151 0.84557 0.0
C2716 C 0.66174 0.2157 0.85683 0.0
C2717 C 0.66792 0.2538 0.84294 0.0
C2718 C 0.64081 0.22238 0.86549 0.0
C2719 C 0.63311 0.24442 0.86236 0.0
H2720 H 0.77873 0.65396 0.88277 0.0
H2721 H 0.79772 0.67435 0.81559 0.0
H2722 H 0.75987 0.66682 0.80227 0.0
H2723 H 0.72094 0.65646 0.80974 0.0
H2724 H 0.70153 0.63319 0.87555 0.0
H2725 H 0.73988 0.64019 0.88952 0.0
C2726 C 0.7747 0.65635 0.86514 0.0
C2727 C 0.7911 0.66495 0.8503 0.0
C2728 C 0.75269 0.65203 0.85747 0.0
C2729 C 0.7855 0.66793 0.82749 0.0
C2730 C 0.76377 0.66377 0.81982 0.0
C2731 C 0.72506 0.65324 0.82724 0.0
C2732 C 0.70842 0.64507 0.84185 0.0
C2733 C 0.74715 0.65637 0.83475 0.0
C2734 C 0.71407 0.64 0.86421 0.0
C2735 C 0.73598 0.64382 0.87209 0.0
H2736 H 0.65817 0.78176 0.12294 0.0
H2737 H 0.67624 0.80244 0.19021 0.0
H2738 H 0.66894 0.76459 0.20409 0.0
H2739 H 0.6587 0.72529 0.19708 0.0
H2740 H 0.63831 0.70472 0.13068 0.0
H2741 H 0.64586 0.74271 0.11632 0.0
C2742 C 0.66013 0.77812 0.14071 0.0
C2743 C 0.66783 0.795 0.15546 0.0
C2744 C 0.65615 0.75617 0.1486 0.0
C2745 C 0.67038 0.78985 0.17843 0.0
C2746 C 0.6664 0.76812 0.18638 0.0
C2747 C 0.65641 0.72905 0.17936 0.0
C2748 C 0.6487 0.71219 0.16474 0.0
C2749 C 0.65976 0.75106 0.17155 0.0
C2750 C 0.64479 0.7174 0.14205 0.0
C2751 C 0.64885 0.73913 0.13394 0.0
H2752 H 0.28457 0.62346 0.14938 0.0
H2753 H 0.30003 0.68627 0.18256 0.0
H2754 H 0.26171 0.69924 0.17637 0.0
H2755 H 0.22356 0.69266 0.16239 0.0
H2756 H 0.20817 0.63119 0.12719 0.0
H2757 H 0.24659 0.61759 0.13373 0.0
C2758 C 0.27967 0.6401 0.15504 0.0
C2759 C 0.29529 0.65379 0.1665 0.0
C2760 C 0.25747 0.64752 0.15149 0.0
C2761 C 0.2885 0.67531 0.17367 0.0
C2762 C 0.26649 0.68272 0.1703 0.0
C2763 C 0.22851 0.67612 0.1565 0.0
C2764 C 0.21295 0.66269 0.14481 0.0
C2765 C 0.25076 0.66886 0.15955 0.0
C2766 C 0.2198 0.64164 0.13655 0.0
C2767 C 0.24178 0.63397 0.14014 0.0
H2768 H 0.79425 0.36362 0.15912 0.0
H2769 H 0.77574 0.30888 0.11536 0.0
H2770 H 0.73593 0.31618 0.12223 0.0
H2771 H 0.70626 0.33664 0.1427 0.0
H2772 H 0.72439 0.39359 0.18373 0.0
H2773 H 0.76418 0.38724 0.17574 0.0
C2774 C 0.78142 0.35357 0.15092 0.0
C2775 C 0.7878 0.33577 0.13682 0.0
C2776 C 0.75845 0.35826 0.15445 0.0
C2777 C 0.77112 0.32283 0.12616 0.0
C2778 C 0.74837 0.32691 0.13015 0.0
C2779 C 0.71894 0.34784 0.14953 0.0
C2780 C 0.71243 0.3655 0.16376 0.0
C2781 C 0.74181 0.34438 0.14451 0.0
C2782 C 0.72898 0.37999 0.1725 0.0
C2783 C 0.75178 0.37627 0.1681 0.0
H2784 H 0.10608 0.18432 0.2313 0.0
H2785 H 0.15038 0.2222 0.27468 0.0
H2786 H 0.14663 0.25493 0.25025 0.0
H2787 H 0.13363 0.27161 0.21508 0.0
H2788 H 0.0891 0.23476 0.17139 0.0
H2789 H 0.08978 0.20268 0.19764 0.0
C2790 C 0.11477 0.19979 0.23549 0.0
C2791 C 0.12878 0.20072 0.25462 0.0
C2792 C 0.11253 0.2186 0.22133 0.0
C2793 C 0.13963 0.22098 0.26002 0.0
C2794 C 0.13753 0.2397 0.24603 0.0
C2795 C 0.12388 0.25659 0.21144 0.0
C2796 C 0.11158 0.25522 0.19132 0.0
C2797 C 0.12448 0.23849 0.22644 0.0
C2798 C 0.09869 0.23602 0.18683 0.0
C2799 C 0.09922 0.21773 0.20174 0.0
H2800 H 0.81965 0.11646 0.2108 0.0
H2801 H 0.77873 0.12403 0.27031 0.0
H2802 H 0.74541 0.11266 0.24909 0.0
H2803 H 0.7273 0.10557 0.21269 0.0
H2804 H 0.76744 0.10282 0.15249 0.0
H2805 H 0.80186 0.10641 0.17491 0.0
C2806 C 0.8035 0.11534 0.21921 0.0
C2807 C 0.80161 0.12134 0.24203 0.0
C2808 C 0.78434 0.10935 0.20676 0.0
C2809 C 0.78056 0.11981 0.25268 0.0
C2810 C 0.76153 0.1132 0.24058 0.0
C2811 C 0.74369 0.10476 0.20467 0.0
C2812 C 0.74506 0.10331 0.18114 0.0
C2813 C 0.76314 0.10849 0.21751 0.0
C2814 C 0.76619 0.10328 0.17067 0.0
C2815 C 0.78577 0.10573 0.18346 0.0
H2816 H 0.8963 0.73179 0.21291 0.0
H2817 H 0.90199 0.77385 0.15424 0.0
H2818 H 0.90008 0.80761 0.1779 0.0
H2819 H 0.89112 0.82468 0.21445 0.0
H2820 H 0.8805 0.78216 0.27234 0.0
H2821 H 0.88986 0.74896 0.24992 0.0
C2822 C 0.89804 0.7484 0.20551 0.0
C2823 C 0.89993 0.75053 0.18206 0.0
C2824 C 0.89535 0.76755 0.21904 0.0
C2825 C 0.90116 0.77198 0.17236 0.0
C2826 C 0.89972 0.7912 0.18585 0.0
C2827 C 0.89117 0.80818 0.22225 0.0
C2828 C 0.88494 0.80583 0.24497 0.0
C2829 C 0.89591 0.78915 0.20909 0.0
C2830 C 0.88498 0.78435 0.25481 0.0
C2831 C 0.89041 0.76539 0.24202 0.0
H2832 H 0.27562 0.87019 0.21742 0.0
H2833 H 0.23393 0.90467 0.16929 0.0
H2834 H 0.20203 0.90323 0.19567 0.0
H2835 H 0.18544 0.88842 0.23069 0.0
H2836 H 0.22729 0.85204 0.27767 0.0
H2837 H 0.2599 0.85802 0.25347 0.0
C2838 C 0.25963 0.87786 0.21302 0.0
C2839 C 0.25693 0.88773 0.19176 0.0
C2840 C 0.24147 0.8763 0.22789 0.0
C2841 C 0.23626 0.89731 0.18579 0.0
C2842 C 0.21808 0.89627 0.20077 0.0
C2843 C 0.20174 0.882 0.23577 0.0
C2844 C 0.20387 0.86957 0.25586 0.0
C2845 C 0.22036 0.88522 0.2216 0.0
C2846 C 0.22514 0.86149 0.26224 0.0
C2847 C 0.24379 0.86491 0.24841 0.0
H2848 H 0.10972 0.73126 0.77886 0.0
H2849 H 0.09993 0.77668 0.83438 0.0
H2850 H 0.1028 0.80897 0.80887 0.0
H2851 H 0.11369 0.82393 0.77203 0.0
H2852 H 0.12811 0.77833 0.71741 0.0
H2853 H 0.11797 0.74633 0.74123 0.0
C2854 C 0.10732 0.74826 0.7851 0.0
C2855 C 0.10402 0.75179 0.80821 0.0
C2856 C 0.1105 0.7666 0.7706 0.0
C2857 C 0.10188 0.77375 0.8165 0.0
C2858 C 0.10386 0.79213 0.80198 0.0
C2859 C 0.11432 0.80701 0.76522 0.0
C2860 C 0.12186 0.80346 0.74306 0.0
C2861 C 0.10907 0.78873 0.77918 0.0
C2862 C 0.12263 0.78146 0.73451 0.0
C2863 C 0.11675 0.76319 0.74809 0.0
H2864 H 0.19667 0.10508 0.75621 0.0
H2865 H 0.15662 0.13991 0.80564 0.0
H2866 H 0.18536 0.13323 0.83422 0.0
H2867 H 0.22375 0.12171 0.84367 0.0
H2868 H 0.26355 0.0856 0.795 0.0
H2869 H 0.23271 0.08767 0.76783 0.0
C2870 C 0.19428 0.11099 0.77331 0.0
C2871 C 0.17495 0.12337 0.77884 0.0
C2872 C 0.21064 0.10662 0.78979 0.0
C2873 C 0.17156 0.13052 0.80107 0.0
C2874 C 0.18793 0.12668 0.8174 0.0
C2875 C 0.22534 0.11364 0.82737 0.0
C2876 C 0.24585 0.10372 0.82121 0.0
C2877 C 0.20776 0.11526 0.81179 0.0
C2878 C 0.2478 0.09321 0.80014 0.0
C2879 C 0.23032 0.09472 0.78448 0.0
H2880 H 0.88646 0.21306 0.72697 0.0
H2881 H 0.86998 0.15944 0.77304 0.0
H2882 H 0.88277 0.18205 0.80467 0.0
H2883 H 0.89419 0.21849 0.81965 0.0
H2884 H 0.9112 0.27249 0.77449 0.0
H2885 H 0.90375 0.24812 0.74208 0.0
C2886 C 0.88581 0.20642 0.74395 0.0
C2887 C 0.87688 0.18485 0.74778 0.0
C2888 C 0.89368 0.2194 0.76216 0.0
C2889 C 0.8766 0.1761 0.76974 0.0
C2890 C 0.88399 0.18896 0.78784 0.0
C2891 C 0.89717 0.22458 0.80269 0.0
C2892 C 0.90326 0.24713 0.79939 0.0
C2893 C 0.89212 0.21076 0.7843 0.0
C2894 C 0.90688 0.25503 0.77741 0.0
C2895 C 0.90214 0.24123 0.75888 0.0
H2896 H 0.7333 0.85794 0.7883 0.0
H2897 H 0.76698 0.91271 0.82179 0.0
H2898 H 0.79661 0.91224 0.79282 0.0
H2899 H 0.81382 0.89431 0.75935 0.0
H2900 H 0.77868 0.84027 0.72584 0.0
H2901 H 0.74843 0.84256 0.75345 0.0
C2902 C 0.74715 0.86981 0.78926 0.0
C2903 C 0.74834 0.88503 0.80732 0.0
C2904 C 0.76373 0.86955 0.77258 0.0
C2905 C 0.76592 0.90074 0.80809 0.0
C2906 C 0.7828 0.90041 0.79159 0.0
C2907 C 0.79945 0.88316 0.758 0.0
C2908 C 0.79864 0.86693 0.7407 0.0
C2909 C 0.78204 0.8846 0.77396 0.0
C2910 C 0.77977 0.85283 0.73899 0.0
C2911 C 0.76251 0.85407 0.75482 0.0
H2912 H 0.23993 0.10445 0.18988 0.0
H2913 H 0.27442 0.15724 0.22596 0.0
H2914 H 0.24618 0.15558 0.2557 0.0
H2915 H 0.2105 0.14122 0.27003 0.0
H2916 H 0.17618 0.08752 0.2355 0.0
H2917 H 0.20566 0.08738 0.20638 0.0
C2918 C 0.24138 0.11544 0.20437 0.0
C2919 C 0.25913 0.13115 0.20558 0.0
C2920 C 0.22504 0.11439 0.22145 0.0
C2921 C 0.26094 0.14505 0.22458 0.0
C2922 C 0.24473 0.1442 0.24153 0.0
C2923 C 0.20946 0.12948 0.25608 0.0
C2924 C 0.19102 0.11475 0.25449 0.0
C2925 C 0.2265 0.12931 0.23986 0.0
C2926 C 0.19015 0.09915 0.23683 0.0
C2927 C 0.20696 0.09912 0.22026 0.0
H2928 H 0.88014 0.22369 0.17375 0.0
H2929 H 0.86874 0.27853 0.21993 0.0
H2930 H 0.87857 0.25408 0.25158 0.0
H2931 H 0.8863 0.21615 0.26625 0.0
H2932 H 0.89304 0.16056 0.22035 0.0
H2933 H 0.88986 0.18633 0.18827 0.0
C2934 C 0.88006 0.2304 0.19072 0.0
C2935 C 0.87356 0.25287 0.19452 0.0
C2936 C 0.88514 0.21611 0.2088 0.0
C2937 C 0.87345 0.26125 0.2166 0.0
C2938 C 0.87915 0.2473 0.23467 0.0
C2939 C 0.88792 0.20991 0.24917 0.0
C2940 C 0.89055 0.18671 0.24547 0.0
C2941 C 0.88458 0.2246 0.23099 0.0
C2942 C 0.89164 0.17847 0.22342 0.0
C2943 C 0.88949 0.19316 0.20517 0.0
H2944 H 0.79121 0.88148 0.173 0.0
H2945 H 0.73326 0.8841 0.21663 0.0
H2946 H 0.75709 0.89606 0.24795 0.0
H2947 H 0.7948 0.90044 0.26394 0.0
H2948 H 0.85302 0.89217 0.22165 0.0
H2949 H 0.82879 0.88864 0.18848 0.0
C2950 C 0.78378 0.88499 0.18929 0.0
C2951 C 0.76061 0.88169 0.19265 0.0
C2952 C 0.79767 0.89109 0.20734 0.0
C2953 C 0.75114 0.8862 0.2138 0.0
C2954 C 0.76473 0.89315 0.23165 0.0
C2955 C 0.80211 0.89882 0.24729 0.0
C2956 C 0.82554 0.89704 0.24497 0.0
C2957 C 0.78807 0.89502 0.22875 0.0
C2958 C 0.83499 0.89406 0.22357 0.0
C2959 C 0.82114 0.89169 0.20475 0.0
H2960 H 0.11657 0.78278 0.27207 0.0
H2961 H 0.10979 0.8419 0.23081 0.0
H2962 H 0.11256 0.81877 0.19673 0.0
H2963 H 0.12198 0.7826 0.17922 0.0
H2964 H 0.13332 0.72423 0.22091 0.0
H2965 H 0.12389 0.74614 0.25444 0.0
C2966 C 0.11486 0.79038 0.25555 0.0
C2967 C 0.11235 0.81378 0.25371 0.0
C2968 C 0.11793 0.77718 0.23625 0.0
C2969 C 0.11111 0.82379 0.23241 0.0
C2970 C 0.11302 0.81061 0.21303 0.0
C2971 C 0.12213 0.77459 0.19562 0.0
C2972 C 0.12852 0.75187 0.19763 0.0
C2973 C 0.11725 0.78742 0.2148 0.0
C2974 C 0.12872 0.74176 0.21898 0.0
C2975 C 0.12323 0.75425 0.23811 0.0
H2976 H 0.21454 0.88372 0.72825 0.0
H2977 H 0.15607 0.89339 0.76987 0.0
H2978 H 0.17947 0.89063 0.80382 0.0
H2979 H 0.21586 0.88159 0.82129 0.0
H2980 H 0.27382 0.86916 0.7793 0.0
H2981 H 0.25137 0.87685 0.74575 0.0
C2982 C 0.20714 0.88588 0.74481 0.0
C2983 C 0.18386 0.88928 0.74679 0.0
C2984 C 0.22053 0.88334 0.76406 0.0
C2985 C 0.1741 0.89132 0.76814 0.0
C2986 C 0.18743 0.88948 0.78745 0.0
C2987 C 0.22367 0.88078 0.80482 0.0
C2988 C 0.24647 0.87463 0.8028 0.0
C2989 C 0.21056 0.88488 0.7856 0.0
C2990 C 0.25628 0.87364 0.78132 0.0
C2991 C 0.24346 0.8781 0.76213 0.0
H2992 H 0.10578 0.21515 0.73555 0.0
H2993 H 0.08593 0.16478 0.78364 0.0
H2994 H 0.09254 0.19127 0.81454 0.0
H2995 H 0.11009 0.22618 0.8277 0.0
H2996 H 0.1347 0.27462 0.7795 0.0
H2997 H 0.12045 0.25141 0.74868 0.0
C2998 C 0.10191 0.21043 0.75277 0.0
C2999 C 0.09478 0.18839 0.75745 0.0
C3000 C 0.10748 0.22511 0.77036 0.0
C3001 C 0.09076 0.18193 0.77976 0.0
C3002 C 0.09498 0.19692 0.79737 0.0
C3003 C 0.11213 0.23181 0.81047 0.0
C3004 C 0.12373 0.25194 0.80587 0.0
C3005 C 0.10437 0.21814 0.79288 0.0
C3006 C 0.12616 0.25902 0.78346 0.0
C3007 C 0.11789 0.24583 0.76585 0.0
H3008 H 0.78552 0.13887 0.72745 0.0
H3009 H 0.82464 0.08743 0.76024 0.0
H3010 H 0.7982 0.08762 0.79219 0.0
H3011 H 0.76563 0.10489 0.81166 0.0
H3012 H 0.72675 0.15599 0.77758 0.0
H3013 H 0.75141 0.15329 0.74497 0.0
C3014 C 0.78818 0.12761 0.74159 0.0
C3015 C 0.80709 0.11345 0.74189 0.0
C3016 C 0.77302 0.12782 0.75954 0.0
C3017 C 0.8102 0.09854 0.75987 0.0
C3018 C 0.79516 0.09874 0.77807 0.0
C3019 C 0.76244 0.11528 0.79701 0.0
C3020 C 0.74453 0.13086 0.79719 0.0
C3021 C 0.77676 0.11368 0.77826 0.0
C3022 C 0.74045 0.14398 0.77797 0.0
C3023 C 0.75458 0.1425 0.75933 0.0
H3024 H 0.86649 0.78759 0.72729 0.0
H3025 H 0.90966 0.8349 0.76112 0.0
H3026 H 0.91042 0.81039 0.79457 0.0
H3027 H 0.8957 0.77703 0.81492 0.0
H3028 H 0.85258 0.73019 0.77982 0.0
H3029 H 0.85506 0.75297 0.74592 0.0
C3030 C 0.87625 0.79239 0.74196 0.0
C3031 C 0.88776 0.81299 0.74209 0.0
C3032 C 0.87648 0.77839 0.76082 0.0
C3033 C 0.90067 0.81905 0.76085 0.0
C3034 C 0.90097 0.80512 0.77991 0.0
C3035 C 0.88703 0.77171 0.79979 0.0
C3036 C 0.87369 0.75209 0.80003 0.0
C3037 C 0.88847 0.78498 0.78025 0.0
C3038 C 0.8628 0.74528 0.7802 0.0
C3039 C 0.86417 0.75831 0.76079 0.0
H3040 H 0.18774 0.23494 0.10985 0.0
H3041 H 0.21894 0.27036 0.16507 0.0
H3042 H 0.25032 0.24399 0.16455 0.0
H3043 H 0.26794 0.21015 0.14979 0.0
H3044 H 0.23875 0.17524 0.09336 0.0
H3045 H 0.20732 0.20223 0.09289 0.0
C3046 C 0.20149 0.23693 0.12167 0.0
C3047 C 0.20093 0.25445 0.13764 0.0
C3048 C 0.21963 0.22176 0.12116 0.0
C3049 C 0.21897 0.25704 0.15264 0.0
C3050 C 0.23686 0.24191 0.15242 0.0
C3051 C 0.25462 0.20837 0.13743 0.0
C3052 C 0.25525 0.19052 0.12196 0.0
C3053 C 0.23715 0.22407 0.13702 0.0
C3054 C 0.23838 0.18876 0.10557 0.0
C3055 C 0.2205 0.20416 0.10533 0.0
H3056 H 0.22571 0.83592 0.8715 0.0
H3057 H 0.26583 0.79412 0.91506 0.0
H3058 H 0.23764 0.76418 0.91278 0.0
H3059 H 0.20386 0.74821 0.89412 0.0
H3060 H 0.16324 0.79101 0.85202 0.0
H3061 H 0.18942 0.82221 0.8577 0.0
C3062 C 0.22791 0.8205 0.88103 0.0
C3063 C 0.24777 0.81711 0.89331 0.0
C3064 C 0.21185 0.80335 0.87937 0.0
C3065 C 0.25052 0.79715 0.90566 0.0
C3066 C 0.23458 0.7799 0.90407 0.0
C3067 C 0.20082 0.76445 0.88637 0.0
C3068 C 0.1821 0.76739 0.87233 0.0
C3069 C 0.21563 0.78249 0.89023 0.0
C3070 C 0.1778 0.7885 0.86271 0.0
C3071 C 0.19268 0.8063 0.866 0.0
H3072 H 0.21335 0.17614 0.88456 0.0
H3073 H 0.27337 0.21687 0.88143 0.0
H3074 H 0.25151 0.25024 0.89142 0.0
H3075 H 0.21476 0.26847 0.89597 0.0
H3076 H 0.15436 0.22861 0.89411 0.0
H3077 H 0.17684 0.19408 0.8919 0.0
C3078 C 0.22169 0.19226 0.8864 0.0
C3079 C 0.24489 0.19412 0.88206 0.0
C3080 C 0.2089 0.21146 0.89146 0.0
C3081 C 0.25547 0.2151 0.88441 0.0
C3082 C 0.24301 0.23415 0.8902 0.0
C3083 C 0.20665 0.25211 0.89602 0.0
C3084 C 0.18309 0.25083 0.89581 0.0
C3085 C 0.21964 0.23262 0.89317 0.0
C3086 C 0.17253 0.22977 0.89489 0.0
C3087 C 0.18538 0.21013 0.89328 0.0
H3088 H 0.77202 0.15811 0.86854 0.0
H3089 H 0.73866 0.20609 0.91145 0.0
H3090 H 0.77037 0.23206 0.90748 0.0
H3091 H 0.80482 0.24323 0.88688 0.0
H3092 H 0.83849 0.19453 0.84498 0.0
H3093 H 0.80931 0.16675 0.85322 0.0
C3094 C 0.77208 0.17395 0.87763 0.0
C3095 C 0.75306 0.18031 0.89011 0.0
C3096 C 0.79009 0.18889 0.87487 0.0
C3097 C 0.75325 0.20078 0.9019 0.0
C3098 C 0.7712 0.21578 0.89931 0.0
C3099 C 0.80575 0.22646 0.87974 0.0
C3100 C 0.82335 0.22097 0.86497 0.0
C3101 C 0.7892 0.21042 0.88499 0.0
C3102 C 0.82487 0.1991 0.85622 0.0
C3103 C 0.80826 0.18323 0.86095 0.0
H3104 H 0.7802 0.82421 0.87767 0.0
H3105 H 0.72434 0.77821 0.87177 0.0
H3106 H 0.74852 0.74709 0.88368 0.0
H3107 H 0.78638 0.73247 0.89155 0.0
H3108 H 0.84287 0.77777 0.89277 0.0
H3109 H 0.81753 0.80994 0.88775 0.0
C3110 C 0.77323 0.80741 0.8792 0.0
C3111 C 0.75056 0.80346 0.87362 0.0
C3112 C 0.78733 0.7896 0.88554 0.0
C3113 C 0.7418 0.78161 0.87567 0.0
C3114 C 0.75559 0.76386 0.8826 0.0
C3115 C 0.79294 0.74951 0.89163 0.0
C3116 C 0.81626 0.753 0.89316 0.0
C3117 C 0.77846 0.7676 0.88714 0.0
C3118 C 0.82487 0.77492 0.89224 0.0
C3119 C 0.81043 0.79319 0.88901 0.0
H3120 H 0.82627 0.78021 0.11339 0.0
H3121 H 0.78258 0.72715 0.13695 0.0
H3122 H 0.74967 0.75014 0.12817 0.0
H3123 H 0.73363 0.78671 0.11785 0.0
H3124 H 0.77723 0.84107 0.09819 0.0
H3125 H 0.81 0.81602 0.10068 0.0
C3126 C 0.80955 0.77356 0.11637 0.0
C3127 C 0.80687 0.75208 0.12602 0.0
C3128 C 0.79075 0.78705 0.11174 0.0
C3129 C 0.78509 0.74372 0.12977 0.0
C3130 C 0.76627 0.75681 0.12468 0.0
C3131 C 0.75027 0.79274 0.11333 0.0
C3132 C 0.7532 0.81537 0.10728 0.0
C3133 C 0.76894 0.77865 0.11612 0.0
C3134 C 0.77474 0.82349 0.1023 0.0
C3135 C 0.7934 0.80926 0.10405 0.0
H3136 H 0.21749 0.73119 0.11077 0.0
H3137 H 0.16165 0.77696 0.1053 0.0
H3138 H 0.18723 0.80909 0.10944 0.0
H3139 H 0.22446 0.82348 0.11989 0.0
H3140 H 0.27945 0.77719 0.13011 0.0
H3141 H 0.25526 0.74578 0.11905 0.0
C3142 C 0.21115 0.74828 0.1096 0.0
C3143 C 0.18795 0.75193 0.10708 0.0
C3144 C 0.22572 0.76642 0.11354 0.0
C3145 C 0.17958 0.77396 0.10659 0.0
C3146 C 0.19415 0.79222 0.1093 0.0
C3147 C 0.23125 0.80656 0.11944 0.0
C3148 C 0.25367 0.80262 0.12599 0.0
C3149 C 0.2171 0.78858 0.11364 0.0
C3150 C 0.26218 0.7806 0.12539 0.0
C3151 C 0.24839 0.76267 0.11898 0.0
H3152 H 0.76818 0.18057 0.10479 0.0
H3153 H 0.72883 0.21815 0.15301 0.0
H3154 H 0.75476 0.24969 0.14988 0.0
H3155 H 0.78966 0.26553 0.13569 0.0
H3156 H 0.82936 0.22938 0.08699 0.0
H3157 H 0.80205 0.19817 0.0879 0.0
C3158 C 0.7652 0.19573 0.11448 0.0
C3159 C 0.74673 0.19688 0.12935 0.0
C3160 C 0.78025 0.21388 0.11262 0.0
C3161 C 0.74294 0.21674 0.14157 0.0
C3162 C 0.75779 0.23477 0.13984 0.0
C3163 C 0.79233 0.25078 0.12525 0.0
C3164 C 0.81161 0.24936 0.11166 0.0
C3165 C 0.77668 0.2333 0.12581 0.0
C3166 C 0.81467 0.23061 0.09771 0.0
C3167 C 0.79912 0.21284 0.0983 0.0
H3168 H 0.63671 0.77293 0.7161 0.0
H3169 H 0.5862 0.7421 0.6743 0.0
H3170 H 0.58668 0.70841 0.69847 0.0
H3171 H 0.60395 0.68698 0.72991 0.0
H3172 H 0.65401 0.7193 0.77154 0.0
H3173 H 0.65111 0.75335 0.74901 0.0
C3174 C 0.62568 0.75885 0.71238 0.0
C3175 C 0.6117 0.75966 0.69336 0.0
C3176 C 0.62608 0.73988 0.72623 0.0
C3177 C 0.59713 0.74168 0.68887 0.0
C3178 C 0.59752 0.72246 0.7026 0.0
C3179 C 0.6141 0.70154 0.73412 0.0
C3180 C 0.62942 0.70047 0.75222 0.0
C3181 C 0.61232 0.72121 0.72107 0.0
C3182 C 0.64221 0.71958 0.75766 0.0
C3183 C 0.6406 0.73907 0.74476 0.0
H3184 H 0.32199 0.61516 0.72639 0.0
H3185 H 0.27311 0.63111 0.77768 0.0
H3186 H 0.24283 0.61802 0.75306 0.0
H3187 H 0.23009 0.6064 0.71549 0.0
H3188 H 0.27861 0.59509 0.66293 0.0
H3189 H 0.3094 0.60114 0.68971 0.0
C3190 C 0.30474 0.61555 0.73232 0.0
C3191 C 0.29979 0.62431 0.75378 0.0
C3192 C 0.28744 0.60849 0.7179 0.0
C3193 C 0.27735 0.62469 0.76116 0.0
C3194 C 0.26005 0.61711 0.74713 0.0
C3195 C 0.24745 0.60431 0.71022 0.0
C3196 C 0.25224 0.59963 0.68754 0.0
C3197 C 0.26487 0.60943 0.72531 0.0
C3198 C 0.27468 0.598 0.68049 0.0
C3199 C 0.29219 0.60185 0.69571 0.0
H3200 H 0.37417 0.27023 0.65731 0.0
H3201 H 0.40979 0.2298 0.70578 0.0
H3202 H 0.40778 0.26046 0.73322 0.0
H3203 H 0.39094 0.29684 0.74497 0.0
H3204 H 0.35664 0.33741 0.69558 0.0
H3205 H 0.36283 0.30859 0.667 0.0
C3206 C 0.38216 0.26846 0.67363 0.0
C3207 C 0.39202 0.24786 0.6796 0.0
C3208 C 0.38056 0.28594 0.68935 0.0
C3209 C 0.40232 0.24565 0.70075 0.0
C3210 C 0.40082 0.26303 0.71657 0.0
C3211 C 0.38499 0.2993 0.72789 0.0
C3212 C 0.37295 0.31888 0.72239 0.0
C3213 C 0.38912 0.28287 0.71136 0.0
C3214 C 0.36577 0.32231 0.70016 0.0
C3215 C 0.36933 0.30589 0.68382 0.0
H3216 H 0.76342 0.40172 0.71423 0.0
H3217 H 0.72522 0.39587 0.65303 0.0
H3218 H 0.69037 0.39224 0.67476 0.0
H3219 H 0.67212 0.38432 0.71092 0.0
H3220 H 0.71139 0.38543 0.77197 0.0
H3221 H 0.74454 0.39715 0.75068 0.0
C3222 C 0.74729 0.40065 0.70575 0.0
C3223 C 0.74661 0.39961 0.68218 0.0
C3224 C 0.72769 0.39694 0.71837 0.0
C3225 C 0.72589 0.39728 0.67119 0.0
C3226 C 0.70608 0.39482 0.68362 0.0
C3227 C 0.68785 0.38743 0.71962 0.0
C3228 C 0.68939 0.38371 0.74294 0.0
C3229 C 0.70696 0.39358 0.70719 0.0
C3230 C 0.70987 0.38784 0.75398 0.0
C3231 C 0.7288 0.39464 0.74183 0.0
H3232 H 0.61307 0.23617 0.28637 0.0
H3233 H 0.60921 0.2843 0.34035 0.0
H3234 H 0.61269 0.31529 0.31329 0.0
H3235 H 0.62121 0.32813 0.27507 0.0
H3236 H 0.63004 0.27969 0.22175 0.0
H3237 H 0.62042 0.24916 0.24775 0.0
C3238 C 0.61223 0.25351 0.29202 0.0
C3239 C 0.61024 0.25818 0.3151 0.0
C3240 C 0.61571 0.27101 0.27656 0.0
C3241 C 0.61015 0.28053 0.32255 0.0
C3242 C 0.61242 0.29814 0.30713 0.0
C3243 C 0.62077 0.31091 0.26905 0.0
C3244 C 0.62637 0.30611 0.24654 0.0
C3245 C 0.6159 0.29351 0.28421 0.0
C3246 C 0.62597 0.28374 0.23904 0.0
C3247 C 0.62039 0.26633 0.25387 0.0
H3248 H 0.71961 0.60866 0.33182 0.0
H3249 H 0.7661 0.58758 0.28042 0.0
H3250 H 0.7378 0.595 0.25141 0.0
H3251 H 0.70213 0.61384 0.24058 0.0
H3252 H 0.65591 0.63451 0.29255 0.0
H3253 H 0.68189 0.62131 0.32146 0.0
C3254 C 0.72316 0.60479 0.31433 0.0
C3255 C 0.74482 0.59766 0.30819 0.0
C3256 C 0.70716 0.60988 0.29782 0.0
C3257 C 0.7494 0.59278 0.28553 0.0
C3258 C 0.73338 0.5975 0.26892 0.0
C3259 C 0.6978 0.61528 0.25825 0.0
C3260 C 0.67748 0.62559 0.26455 0.0
C3261 C 0.71265 0.60718 0.27482 0.0
C3262 C 0.67164 0.62686 0.28739 0.0
C3263 C 0.68641 0.61924 0.30391 0.0
H3264 H 0.40779 0.76556 0.28174 0.0
H3265 H 0.42197 0.72005 0.33622 0.0
H3266 H 0.41858 0.6879 0.31067 0.0
H3267 H 0.40432 0.67297 0.27496 0.0
H3268 H 0.385 0.71873 0.22199 0.0
H3269 H 0.39745 0.75062 0.24473 0.0
C3270 C 0.41122 0.74862 0.28766 0.0
C3271 C 0.41566 0.74502 0.31057 0.0
C3272 C 0.40744 0.7303 0.2733 0.0
C3273 C 0.41916 0.72309 0.31847 0.0
C3274 C 0.41677 0.70475 0.30395 0.0
C3275 C 0.40317 0.68989 0.26823 0.0
C3276 C 0.39341 0.69353 0.24697 0.0
C3277 C 0.40973 0.70815 0.28166 0.0
C3278 C 0.3921 0.71553 0.23846 0.0
C3279 C 0.39931 0.73376 0.25141 0.0
H3280 H 0.22661 0.35431 0.28978 0.0
H3281 H 0.25906 0.40696 0.32757 0.0
H3282 H 0.29016 0.40751 0.30017 0.0
H3283 H 0.30886 0.39102 0.26675 0.0
H3284 H 0.27488 0.33922 0.2288 0.0
H3285 H 0.2433 0.3405 0.25498 0.0
C3286 C 0.24052 0.36594 0.29201 0.0
C3287 C 0.24095 0.38026 0.31081 0.0
C3288 C 0.25791 0.36628 0.27619 0.0
C3289 C 0.2586 0.39569 0.31327 0.0
C3290 C 0.27631 0.39593 0.29766 0.0
C3291 C 0.29446 0.38013 0.26413 0.0
C3292 C 0.29433 0.36482 0.246 0.0
C3293 C 0.27629 0.38101 0.27925 0.0
C3294 C 0.27543 0.35108 0.24262 0.0
C3295 C 0.25742 0.35174 0.25763 0.0
H3296 H 0.71538 0.61431 0.77241 0.0
H3297 H 0.65985 0.59966 0.72836 0.0
H3298 H 0.68456 0.60363 0.69551 0.0
H3299 H 0.72054 0.61618 0.67956 0.0
H3300 H 0.77517 0.63439 0.72381 0.0
H3301 H 0.75226 0.62425 0.75645 0.0
C3302 C 0.709 0.61113 0.7556 0.0
C3303 C 0.6861 0.60604 0.75265 0.0
C3304 C 0.72299 0.61473 0.73692 0.0
C3305 C 0.6776 0.60291 0.73091 0.0
C3306 C 0.69165 0.60553 0.71219 0.0
C3307 C 0.72757 0.61773 0.69632 0.0
C3308 C 0.7495 0.62628 0.69923 0.0
C3309 C 0.71416 0.61224 0.715 0.0
C3310 C 0.75829 0.62809 0.72109 0.0
C3311 C 0.74522 0.62222 0.73976 0.0
H3312 H 0.35648 0.71383 0.76752 0.0
H3313 H 0.40696 0.67397 0.73414 0.0
H3314 H 0.40829 0.70148 0.70314 0.0
H3315 H 0.39305 0.7357 0.68486 0.0
H3316 H 0.34352 0.77575 0.71986 0.0
H3317 H 0.34408 0.74938 0.75126 0.0
C3318 C 0.36778 0.71119 0.75341 0.0
C3319 C 0.38125 0.6918 0.75267 0.0
C3320 C 0.36863 0.72709 0.73612 0.0
C3321 C 0.39631 0.68874 0.73479 0.0
C3322 C 0.39701 0.70442 0.71717 0.0
C3323 C 0.38253 0.73875 0.69945 0.0
C3324 C 0.36804 0.75753 0.69991 0.0
C3325 C 0.38296 0.72349 0.71752 0.0
C3326 C 0.35475 0.76142 0.71904 0.0
C3327 C 0.35498 0.7463 0.73696 0.0
H3328 H 0.28256 0.39246 0.76371 0.0
H3329 H 0.33454 0.40808 0.71578 0.0
H3330 H 0.30792 0.40278 0.68475 0.0
H3331 H 0.27197 0.38751 0.67151 0.0
H3332 H 0.22159 0.36703 0.71964 0.0
H3333 H 0.24545 0.38017 0.75045 0.0
C3334 C 0.28768 0.39568 0.74648 0.0
C3335 C 0.31018 0.40125 0.74189 0.0
C3336 C 0.27277 0.39092 0.72883 0.0
C3337 C 0.31709 0.40443 0.71957 0.0
C3338 C 0.30198 0.40099 0.70189 0.0
C3339 C 0.26606 0.38619 0.68872 0.0
C3340 C 0.24516 0.37604 0.69332 0.0
C3341 C 0.28011 0.39322 0.70633 0.0
C3342 C 0.23775 0.37447 0.7157 0.0
C3343 C 0.25133 0.38208 0.7333 0.0
H3344 H 0.60907 0.24112 0.71144 0.0
H3345 H 0.64527 0.28442 0.66589 0.0
H3346 H 0.63744 0.31687 0.68979 0.0
H3347 H 0.62309 0.33226 0.72504 0.0
H3348 H 0.58589 0.28973 0.77055 0.0
H3349 H 0.59036 0.2579 0.74485 0.0
C3350 C 0.61521 0.25769 0.70692 0.0
C3351 C 0.62813 0.26046 0.68734 0.0
C3352 C 0.6101 0.27644 0.72045 0.0
C3353 C 0.63552 0.282 0.68111 0.0
C3354 C 0.63097 0.30054 0.69467 0.0
C3355 C 0.61542 0.31618 0.72903 0.0
C3356 C 0.60435 0.31331 0.7497 0.0
C3357 C 0.61853 0.2979 0.7145 0.0
C3358 C 0.59437 0.29243 0.75464 0.0
C3359 C 0.59725 0.27411 0.74013 0.0
H3360 H 0.72576 0.39616 0.32381 0.0
H3361 H 0.76367 0.3432 0.29152 0.0
H3362 H 0.73917 0.34526 0.25883 0.0
H3363 H 0.70644 0.36065 0.24014 0.0
H3364 H 0.66858 0.41457 0.27042 0.0
H3365 H 0.69381 0.41376 0.30333 0.0
C3366 C 0.72869 0.38517 0.30955 0.0
C3367 C 0.7464 0.3694 0.31017 0.0
C3368 C 0.71457 0.38656 0.29062 0.0
C3369 C 0.75018 0.35546 0.29149 0.0
C3370 C 0.73614 0.35656 0.27282 0.0
C3371 C 0.7036 0.37221 0.254 0.0
C3372 C 0.68545 0.38732 0.25322 0.0
C3373 C 0.71818 0.37179 0.27237 0.0
C3374 C 0.68237 0.40267 0.27086 0.0
C3375 C 0.69674 0.40215 0.2896 0.0
H3376 H 0.61014 0.72285 0.22971 0.0
H3377 H 0.58819 0.66899 0.27283 0.0
H3378 H 0.59253 0.69332 0.30587 0.0
H3379 H 0.60815 0.72774 0.32254 0.0
H3380 H 0.6339 0.78019 0.27937 0.0
H3381 H 0.62267 0.75861 0.24622 0.0
C3382 C 0.60537 0.71686 0.2463 0.0
C3383 C 0.59821 0.69449 0.24894 0.0
C3384 C 0.60932 0.73047 0.26518 0.0
C3385 C 0.59303 0.6864 0.27047 0.0
C3386 C 0.59591 0.7002 0.28932 0.0
C3387 C 0.61108 0.73461 0.30589 0.0
C3388 C 0.62213 0.75545 0.30345 0.0
C3389 C 0.60496 0.72192 0.28693 0.0
C3390 C 0.62568 0.7641 0.28174 0.0
C3391 C 0.61918 0.7518 0.26278 0.0
H3392 H 0.29708 0.61951 0.32445 0.0
H3393 H 0.2371 0.61591 0.28376 0.0
H3394 H 0.25974 0.60577 0.25092 0.0
H3395 H 0.29678 0.60254 0.23297 0.0
H3396 H 0.35677 0.61136 0.27258 0.0
H3397 H 0.33406 0.61407 0.3069 0.0
C3398 C 0.28895 0.6162 0.30845 0.0
C3399 C 0.26551 0.61861 0.30643 0.0
C3400 C 0.30213 0.6111 0.28955 0.0
C3401 C 0.25517 0.61443 0.28561 0.0
C3402 C 0.26809 0.60854 0.26689 0.0
C3403 C 0.30484 0.60418 0.24928 0.0
C3404 C 0.32833 0.60623 0.2505 0.0
C3405 C 0.29161 0.60734 0.26855 0.0
C3406 C 0.3387 0.60926 0.27147 0.0
C3407 C 0.32571 0.61112 0.29096 0.0
H3408 H 0.3564 0.28658 0.2303 0.0
H3409 H 0.40661 0.32375 0.26707 0.0
H3410 H 0.406 0.29503 0.29696 0.0
H3411 H 0.38888 0.26079 0.31343 0.0
H3412 H 0.33924 0.22381 0.27537 0.0
H3413 H 0.34209 0.25107 0.24486 0.0
C3414 C 0.36725 0.28838 0.24488 0.0
C3415 C 0.38117 0.30738 0.24689 0.0
C3416 C 0.36686 0.2719 0.26162 0.0
C3417 C 0.39564 0.3093 0.2654 0.0
C3418 C 0.39521 0.29294 0.28242 0.0
C3419 C 0.37882 0.25861 0.29838 0.0
C3420 C 0.36362 0.24045 0.29679 0.0
C3421 C 0.38054 0.27439 0.28086 0.0
C3422 C 0.35096 0.23766 0.27707 0.0
C3423 C 0.35252 0.25328 0.25965 0.0
H3424 H 0.76224 0.71198 0.64517 0.0
H3425 H 0.72944 0.68034 0.58881 0.0
H3426 H 0.69984 0.70933 0.58972 0.0
H3427 H 0.68268 0.74261 0.60811 0.0
H3428 H 0.71739 0.77457 0.66336 0.0
H3429 H 0.7472 0.74652 0.66114 0.0
C3430 C 0.74854 0.71138 0.63311 0.0
C3431 C 0.74758 0.69387 0.61728 0.0
C3432 C 0.73211 0.72817 0.63351 0.0
C3433 C 0.73026 0.69359 0.60128 0.0
C3434 C 0.71343 0.71012 0.60184 0.0
C3435 C 0.69687 0.74351 0.61954 0.0
C3436 C 0.69772 0.76051 0.63605 0.0
C3437 C 0.71407 0.72734 0.61809 0.0
C3438 C 0.71633 0.76168 0.65053 0.0
C3439 C 0.73332 0.74558 0.64936 0.0
H3440 H 0.67804 0.28817 0.39339 0.0
H3441 H 0.72012 0.23094 0.37834 0.0
H3442 H 0.75336 0.25204 0.39016 0.0
H3443 H 0.77081 0.28826 0.39954 0.0
H3444 H 0.72924 0.34664 0.40977 0.0
H3445 H 0.69531 0.32349 0.40602 0.0
C3446 C 0.69444 0.28019 0.39299 0.0
C3447 C 0.69664 0.25811 0.3847 0.0
C3448 C 0.71352 0.29262 0.39925 0.0
C3449 C 0.71801 0.24802 0.38433 0.0
C3450 C 0.737 0.26004 0.39119 0.0
C3451 C 0.75427 0.29563 0.40196 0.0
C3452 C 0.75235 0.31891 0.40553 0.0
C3453 C 0.73502 0.28253 0.39808 0.0
C3454 C 0.73098 0.32862 0.40766 0.0
C3455 C 0.71165 0.31545 0.4051 0.0
H3456 H 0.74972 0.70003 0.39015 0.0
H3457 H 0.70111 0.662 0.35209 0.0
H3458 H 0.67268 0.69094 0.35873 0.0
H3459 H 0.66298 0.72874 0.37202 0.0
H3460 H 0.71065 0.76627 0.41169 0.0
H3461 H 0.73787 0.73554 0.40855 0.0
C3462 C 0.73284 0.69814 0.38349 0.0
C3463 C 0.72751 0.67929 0.37031 0.0
C3464 C 0.71639 0.71457 0.38789 0.0
C3465 C 0.70553 0.67656 0.36214 0.0
C3466 C 0.68929 0.69304 0.36596 0.0
C3467 C 0.6791 0.72987 0.38052 0.0
C3468 C 0.6849 0.74972 0.39192 0.0
C3469 C 0.69467 0.71231 0.37842 0.0
C3470 C 0.70575 0.75105 0.40296 0.0
C3471 C 0.72144 0.73362 0.40088 0.0
H3472 H 0.30996 0.74437 0.38917 0.0
H3473 H 0.35089 0.69386 0.35702 0.0
H3474 H 0.32295 0.66504 0.36593 0.0
H3475 H 0.28491 0.65543 0.37852 0.0
H3476 H 0.24422 0.70532 0.4118 0.0
H3477 H 0.27442 0.73304 0.40773 0.0
C3478 C 0.31274 0.727 0.38434 0.0
C3479 C 0.33205 0.72119 0.37203 0.0
C3480 C 0.29686 0.71044 0.38999 0.0
C3481 C 0.33594 0.69863 0.36629 0.0
C3482 C 0.32004 0.68218 0.37142 0.0
C3483 C 0.28303 0.67216 0.38559 0.0
C3484 C 0.26246 0.67846 0.3953 0.0
C3485 C 0.30021 0.68801 0.38275 0.0
C3486 C 0.26006 0.70009 0.40445 0.0
C3487 C 0.27716 0.71604 0.40177 0.0
H3488 H 0.26297 0.30956 0.39272 0.0
H3489 H 0.22179 0.27278 0.34548 0.0
H3490 H 0.24779 0.24113 0.34716 0.0
H3491 H 0.28338 0.22509 0.35969 0.0
H3492 H 0.32463 0.26046 0.40763 0.0
H3493 H 0.29729 0.29163 0.40822 0.0
C3494 C 0.2596 0.29454 0.38294 0.0
C3495 C 0.2406 0.29364 0.36876 0.0
C3496 C 0.27466 0.27632 0.38401 0.0
C3497 C 0.2363 0.27395 0.35645 0.0
C3498 C 0.2512 0.25588 0.35733 0.0
C3499 C 0.28633 0.23963 0.37034 0.0
C3500 C 0.30607 0.24086 0.38328 0.0
C3501 C 0.27061 0.2571 0.37066 0.0
C3502 C 0.30956 0.25937 0.39745 0.0
C3503 C 0.29399 0.27712 0.39769 0.0
H3504 H 0.31938 0.27925 0.61751 0.0
H3505 H 0.27661 0.22121 0.62605 0.0
H3506 H 0.24371 0.24375 0.61596 0.0
H3507 H 0.22676 0.28076 0.60894 0.0
H3508 H 0.2689 0.33952 0.60519 0.0
H3509 H 0.3026 0.3159 0.60841 0.0
C3510 C 0.30289 0.27147 0.61689 0.0
C3511 C 0.30038 0.24864 0.62268 0.0
C3512 C 0.28403 0.28467 0.61167 0.0
C3513 C 0.27892 0.23881 0.62193 0.0
C3514 C 0.26014 0.25166 0.61605 0.0
C3515 C 0.24341 0.28819 0.60794 0.0
C3516 C 0.24558 0.31164 0.60616 0.0
C3517 C 0.26245 0.27468 0.61135 0.0
C3518 C 0.26704 0.3214 0.60591 0.0
C3519 C 0.2862 0.30793 0.60809 0.0
H3520 H 0.72831 0.31929 0.60767 0.0
H3521 H 0.76893 0.28299 0.6558 0.0
H3522 H 0.74568 0.24968 0.65064 0.0
H3523 H 0.71189 0.23217 0.63552 0.0
H3524 H 0.67046 0.26762 0.58781 0.0
H3525 H 0.69625 0.30003 0.58936 0.0
C3526 C 0.73218 0.30403 0.61689 0.0
C3527 C 0.75012 0.30374 0.63239 0.0
C3528 C 0.71864 0.28489 0.6139 0.0
C3529 C 0.75512 0.28375 0.64394 0.0
C3530 C 0.74183 0.26469 0.64101 0.0
C3531 C 0.70872 0.24692 0.62521 0.0
C3532 C 0.68935 0.24783 0.61176 0.0
C3533 C 0.72329 0.26529 0.62649 0.0
C3534 C 0.68539 0.2667 0.59822 0.0
C3535 C 0.7 0.2852 0.59929 0.0
H3536 H 0.27585 0.68119 0.60526 0.0
H3537 H 0.23716 0.71192 0.65857 0.0
H3538 H 0.25999 0.74581 0.6559 0.0
H3539 H 0.29207 0.76575 0.6403 0.0
H3540 H 0.33077 0.73663 0.58636 0.0
H3541 H 0.30659 0.70295 0.58718 0.0
C3542 C 0.27236 0.69537 0.61619 0.0
C3543 C 0.25498 0.69393 0.6323 0.0
C3544 C 0.28554 0.71494 0.6145 0.0
C3545 C 0.25045 0.71253 0.64612 0.0
C3546 C 0.26353 0.73191 0.64465 0.0
C3547 C 0.2952 0.75202 0.62866 0.0
C3548 C 0.31334 0.75331 0.61357 0.0
C3549 C 0.28129 0.7331 0.62921 0.0
C3550 C 0.31693 0.73581 0.59819 0.0
C3551 C 0.30318 0.71662 0.59875 0.0
loop_
_geom_bond_atom_site_label_1
_geom_bond_atom_site_label_2
_geom_bond_distance
_geom_bond_site_symmetry_2
_ccdc_geom_bond_type
Co0 O3 1.970 . S
Co0 N17 1.989 . S
Co0 O25 1.967 . S
Co0 O32 1.920 . S
Co1 O4 1.966 . S
Co1 N10 2.022 . S
Co1 N18 1.993 . S
Co1 O26 1.941 . S
C2 O3 1.258 . S
C2 O4 1.263 . S
O3 Co0 1.970 . S
O3 C2 1.258 . S
O4 Co1 1.966 . S
O4 C2 1.263 . S
C5 O6 1.235 . S
C5 O32 1.289 . S
O6 C5 1.235 . S
C7 C9 1.400 . S
C7 N10 1.351 . S
C7 C12 1.501 . S
C8 C9 1.387 . S
C8 N11 1.341 . S
C9 C7 1.400 . S
C9 C8 1.387 . S
N10 Co1 2.022 . S
N10 C7 1.351 . S
N10 N11 1.365 . S
N11 C8 1.341 . S
N11 N10 1.365 . S
N11 H31 0.862 . S
C12 C7 1.501 . S
C12 H13 0.961 . S
C12 H14 0.961 . S
C12 H15 0.960 . S
H13 C12 0.961 . S
H14 C12 0.961 . S
H15 C12 0.960 . S
C16 N17 1.342 . S
C16 C20 1.401 . S
C16 C21 1.499 . S
N17 Co0 1.989 . S
N17 C16 1.342 . S
N17 N18 1.388 . S
N18 Co1 1.993 . S
N18 N17 1.388 . S
N18 C19 1.346 . S
C19 N18 1.346 . S
C19 C20 1.396 . S
C19 C29 1.510 . S
C20 C16 1.401 . S
C20 C19 1.396 . S
C21 C16 1.499 . S
C21 H22 0.959 . S
C21 H23 0.960 . S
C21 H24 0.961 . S
H22 C21 0.959 . S
H23 C21 0.960 . S
H24 C21 0.961 . S
O25 Co0 1.967 . S
O25 C33 1.258 . S
O26 Co1 1.941 . S
O26 C33 1.266 . S
H27 C29 0.959 . S
H28 C29 0.961 . S
C29 C19 1.510 . S
C29 H27 0.959 . S
C29 H28 0.961 . S
C29 H30 0.960 . S
H30 C29 0.960 . S
H31 N11 0.862 . S
O32 Co0 1.920 . S
O32 C5 1.289 . S
C33 O25 1.258 . S
C33 O26 1.266 . S
Co34 O37 1.970 . S
Co34 N51 1.989 . S
Co34 O59 1.967 . S
Co34 O66 1.920 . S
Co35 O38 1.966 . S
Co35 N44 2.022 . S
Co35 N52 1.993 . S
Co35 O60 1.941 . S
C36 O37 1.258 . S
C36 O38 1.263 . S
O37 Co34 1.970 . S
O37 C36 1.258 . S
O38 Co35 1.966 . S
O38 C36 1.263 . S
C39 O40 1.235 . S
C39 O66 1.289 . S
O40 C39 1.235 . S
C41 C43 1.400 . S
C41 N44 1.351 . S
C41 C46 1.501 . S
C42 C43 1.387 . S
C42 N45 1.341 . S
C43 C41 1.400 . S
C43 C42 1.387 . S
N44 Co35 2.022 . S
N44 C41 1.351 . S
N44 N45 1.365 . S
N45 C42 1.341 . S
N45 N44 1.365 . S
N45 H65 0.862 . S
C46 C41 1.501 . S
C46 H47 0.961 . S
C46 H48 0.961 . S
C46 H49 0.960 . S
H47 C46 0.961 . S
H48 C46 0.961 . S
H49 C46 0.960 . S
C50 N51 1.342 . S
C50 C54 1.401 . S
C50 C55 1.499 . S
N51 Co34 1.989 . S
N51 C50 1.342 . S
N51 N52 1.388 . S
N52 Co35 1.993 . S
N52 N51 1.388 . S
N52 C53 1.346 . S
C53 N52 1.346 . S
C53 C54 1.396 . S
C53 C63 1.510 . S
C54 C50 1.401 . S
C54 C53 1.396 . S
C55 C50 1.499 . S
C55 H56 0.959 . S
C55 H57 0.960 . S
C55 H58 0.961 . S
H56 C55 0.959 . S
H57 C55 0.960 . S
H58 C55 0.961 . S
O59 Co34 1.967 . S
O59 C67 1.258 . S
O60 Co35 1.941 . S
O60 C67 1.266 . S
H61 C63 0.959 . S
H62 C63 0.961 . S
C63 C53 1.510 . S
C63 H61 0.959 . S
C63 H62 0.961 . S
C63 H64 0.960 . S
H64 C63 0.960 . S
H65 N45 0.862 . S
O66 Co34 1.920 . S
O66 C39 1.289 . S
C67 O59 1.258 . S
C67 O60 1.266 . S
Co68 O71 1.970 . S
Co68 N85 1.989 . S
Co68 O93 1.967 . S
Co68 O100 1.920 . S
Co69 O72 1.966 . S
Co69 N78 2.022 . S
Co69 N86 1.993 . S
Co69 O94 1.941 . S
C70 O71 1.258 . S
C70 O72 1.263 . S
O71 Co68 1.970 . S
O71 C70 1.258 . S
O72 Co69 1.966 . S
O72 C70 1.263 . S
C73 O74 1.235 . S
C73 O100 1.289 . S
O74 C73 1.235 . S
C75 C77 1.400 . S
C75 N78 1.351 . S
C75 C80 1.501 . S
C76 C77 1.387 . S
C76 N79 1.341 . S
C77 C75 1.400 . S
C77 C76 1.387 . S
N78 Co69 2.022 . S
N78 C75 1.351 . S
N78 N79 1.365 . S
N79 C76 1.341 . S
N79 N78 1.365 . S
N79 H99 0.862 . S
C80 C75 1.501 . S
C80 H81 0.961 . S
C80 H82 0.961 . S
C80 H83 0.960 . S
H81 C80 0.961 . S
H82 C80 0.961 . S
H83 C80 0.960 . S
C84 N85 1.342 . S
C84 C88 1.401 . S
C84 C89 1.499 . S
N85 Co68 1.989 . S
N85 C84 1.342 . S
N85 N86 1.388 . S
N86 Co69 1.993 . S
N86 N85 1.388 . S
N86 C87 1.346 . S
C87 N86 1.346 . S
C87 C88 1.396 . S
C87 C97 1.510 . S
C88 C84 1.401 . S
C88 C87 1.396 . S
C89 C84 1.499 . S
C89 H90 0.959 . S
C89 H91 0.960 . S
C89 H92 0.961 . S
H90 C89 0.959 . S
H91 C89 0.960 . S
H92 C89 0.961 . S
O93 Co68 1.967 . S
O93 C101 1.258 . S
O94 Co69 1.941 . S
O94 C101 1.266 . S
H95 C97 0.959 . S
H96 C97 0.961 . S
C97 C87 1.510 . S
C97 H95 0.959 . S
C97 H96 0.961 . S
C97 H98 0.960 . S
H98 C97 0.960 . S
H99 N79 0.862 . S
O100 Co68 1.920 . S
O100 C73 1.289 . S
C101 O93 1.258 . S
C101 O94 1.266 . S
Co102 O105 1.970 . S
Co102 N119 1.989 . S
Co102 O127 1.967 . S
Co102 O134 1.920 . S
Co103 O106 1.966 . S
Co103 N112 2.022 . S
Co103 N120 1.993 . S
Co103 O128 1.941 . S
C104 O105 1.258 . S
C104 O106 1.263 . S
O105 Co102 1.970 . S
O105 C104 1.258 . S
O106 Co103 1.966 . S
O106 C104 1.263 . S
C107 O108 1.235 . S
C107 O134 1.289 . S
O108 C107 1.235 . S
C109 C111 1.400 . S
C109 N112 1.351 . S
C109 C114 1.501 . S
C110 C111 1.387 . S
C110 N113 1.341 . S
C111 C109 1.400 . S
C111 C110 1.387 . S
N112 Co103 2.022 . S
N112 C109 1.351 . S
N112 N113 1.365 . S
N113 C110 1.341 . S
N113 N112 1.365 . S
N113 H133 0.862 . S
C114 C109 1.501 . S
C114 H115 0.961 . S
C114 H116 0.961 . S
C114 H117 0.960 . S
H115 C114 0.961 . S
H116 C114 0.961 . S
H117 C114 0.960 . S
C118 N119 1.342 . S
C118 C122 1.401 . S
C118 C123 1.499 . S
N119 Co102 1.989 . S
N119 C118 1.342 . S
N119 N120 1.388 . S
N120 Co103 1.993 . S
N120 N119 1.388 . S
N120 C121 1.346 . S
C121 N120 1.346 . S
C121 C122 1.396 . S
C121 C131 1.510 . S
C122 C118 1.401 . S
C122 C121 1.396 . S
C123 C118 1.499 . S
C123 H124 0.959 . S
C123 H125 0.960 . S
C123 H126 0.961 . S
H124 C123 0.959 . S
H125 C123 0.960 . S
H126 C123 0.961 . S
O127 Co102 1.967 . S
O127 C135 1.258 . S
O128 Co103 1.941 . S
O128 C135 1.266 . S
H129 C131 0.959 . S
H130 C131 0.961 . S
C131 C121 1.510 . S
C131 H129 0.959 . S
C131 H130 0.961 . S
C131 H132 0.960 . S
H132 C131 0.960 . S
H133 N113 0.862 . S
O134 Co102 1.920 . S
O134 C107 1.289 . S
C135 O127 1.258 . S
C135 O128 1.266 . S
Co136 O139 1.970 . S
Co136 N153 1.989 . S
Co136 O161 1.967 . S
Co136 O168 1.920 . S
Co137 O140 1.966 . S
Co137 N146 2.022 . S
Co137 N154 1.993 . S
Co137 O162 1.941 . S
C138 O139 1.258 . S
C138 O140 1.263 . S
O139 Co136 1.970 . S
O139 C138 1.258 . S
O140 Co137 1.966 . S
O140 C138 1.263 . S
C141 O142 1.235 . S
C141 O168 1.289 . S
O142 C141 1.235 . S
C143 C145 1.400 . S
C143 N146 1.351 . S
C143 C148 1.501 . S
C144 C145 1.387 . S
C144 N147 1.341 . S
C145 C143 1.400 . S
C145 C144 1.387 . S
N146 Co137 2.022 . S
N146 C143 1.351 . S
N146 N147 1.365 . S
N147 C144 1.341 . S
N147 N146 1.365 . S
N147 H167 0.862 . S
C148 C143 1.501 . S
C148 H149 0.961 . S
C148 H150 0.961 . S
C148 H151 0.960 . S
H149 C148 0.961 . S
H150 C148 0.961 . S
H151 C148 0.960 . S
C152 N153 1.342 . S
C152 C156 1.401 . S
C152 C157 1.499 . S
N153 Co136 1.989 . S
N153 C152 1.342 . S
N153 N154 1.388 . S
N154 Co137 1.993 . S
N154 N153 1.388 . S
N154 C155 1.346 . S
C155 N154 1.346 . S
C155 C156 1.396 . S
C155 C165 1.510 . S
C156 C152 1.401 . S
C156 C155 1.396 . S
C157 C152 1.499 . S
C157 H158 0.959 . S
C157 H159 0.960 . S
C157 H160 0.961 . S
H158 C157 0.959 . S
H159 C157 0.960 . S
H160 C157 0.961 . S
O161 Co136 1.967 . S
O161 C169 1.258 . S
O162 Co137 1.941 . S
O162 C169 1.266 . S
H163 C165 0.959 . S
H164 C165 0.961 . S
C165 C155 1.510 . S
C165 H163 0.959 . S
C165 H164 0.961 . S
C165 H166 0.960 . S
H166 C165 0.960 . S
H167 N147 0.862 . S
O168 Co136 1.920 . S
O168 C141 1.289 . S
C169 O161 1.258 . S
C169 O162 1.266 . S
Co170 O173 1.970 . S
Co170 N187 1.989 . S
Co170 O195 1.967 . S
Co170 O202 1.920 . S
Co171 O174 1.966 . S
Co171 N180 2.022 . S
Co171 N188 1.993 . S
Co171 O196 1.941 . S
C172 O173 1.258 . S
C172 O174 1.263 . S
O173 Co170 1.970 . S
O173 C172 1.258 . S
O174 Co171 1.966 . S
O174 C172 1.263 . S
C175 O176 1.235 . S
C175 O202 1.289 . S
O176 C175 1.235 . S
C177 C179 1.400 . S
C177 N180 1.351 . S
C177 C182 1.501 . S
C178 C179 1.387 . S
C178 N181 1.341 . S
C179 C177 1.400 . S
C179 C178 1.387 . S
N180 Co171 2.022 . S
N180 C177 1.351 . S
N180 N181 1.365 . S
N181 C178 1.341 . S
N181 N180 1.365 . S
N181 H201 0.862 . S
C182 C177 1.501 . S
C182 H183 0.961 . S
C182 H184 0.961 . S
C182 H185 0.960 . S
H183 C182 0.961 . S
H184 C182 0.961 . S
H185 C182 0.960 . S
C186 N187 1.342 . S
C186 C190 1.401 . S
C186 C191 1.499 . S
N187 Co170 1.989 . S
N187 C186 1.342 . S
N187 N188 1.388 . S
N188 Co171 1.993 . S
N188 N187 1.388 . S
N188 C189 1.346 . S
C189 N188 1.346 . S
C189 C190 1.396 . S
C189 C199 1.510 . S
C190 C186 1.401 . S
C190 C189 1.396 . S
C191 C186 1.499 . S
C191 H192 0.959 . S
C191 H193 0.960 . S
C191 H194 0.961 . S
H192 C191 0.959 . S
H193 C191 0.960 . S
H194 C191 0.961 . S
O195 Co170 1.967 . S
O195 C203 1.258 . S
O196 Co171 1.941 . S
O196 C203 1.266 . S
H197 C199 0.959 . S
H198 C199 0.961 . S
C199 C189 1.510 . S
C199 H197 0.959 . S
C199 H198 0.961 . S
C199 H200 0.960 . S
H200 C199 0.960 . S
H201 N181 0.862 . S
O202 Co170 1.920 . S
O202 C175 1.289 . S
C203 O195 1.258 . S
C203 O196 1.266 . S
Co204 O207 1.970 . S
Co204 N221 1.989 . S
Co204 O229 1.967 . S
Co204 O236 1.920 . S
Co205 O208 1.966 . S
Co205 N214 2.022 . S
Co205 N222 1.993 . S
Co205 O230 1.941 . S
C206 O207 1.258 . S
C206 O208 1.263 . S
O207 Co204 1.970 . S
O207 C206 1.258 . S
O208 Co205 1.966 . S
O208 C206 1.263 . S
C209 O210 1.235 . S
C209 O236 1.289 . S
O210 C209 1.235 . S
C211 C213 1.400 . S
C211 N214 1.351 . S
C211 C216 1.501 . S
C212 C213 1.387 . S
C212 N215 1.341 . S
C213 C211 1.400 . S
C213 C212 1.387 . S
N214 Co205 2.022 . S
N214 C211 1.351 . S
N214 N215 1.365 . S
N215 C212 1.341 . S
N215 N214 1.365 . S
N215 H235 0.862 . S
C216 C211 1.501 . S
C216 H217 0.961 . S
C216 H218 0.961 . S
C216 H219 0.960 . S
H217 C216 0.961 . S
H218 C216 0.961 . S
H219 C216 0.960 . S
C220 N221 1.342 . S
C220 C224 1.401 . S
C220 C225 1.499 . S
N221 Co204 1.989 . S
N221 C220 1.342 . S
N221 N222 1.388 . S
N222 Co205 1.993 . S
N222 N221 1.388 . S
N222 C223 1.346 . S
C223 N222 1.346 . S
C223 C224 1.396 . S
C223 C233 1.510 . S
C224 C220 1.401 . S
C224 C223 1.396 . S
C225 C220 1.499 . S
C225 H226 0.959 . S
C225 H227 0.960 . S
C225 H228 0.961 . S
H226 C225 0.959 . S
H227 C225 0.960 . S
H228 C225 0.961 . S
O229 Co204 1.967 . S
O229 C237 1.258 . S
O230 Co205 1.941 . S
O230 C237 1.266 . S
H231 C233 0.959 . S
H232 C233 0.961 . S
C233 C223 1.510 . S
C233 H231 0.959 . S
C233 H232 0.961 . S
C233 H234 0.960 . S
H234 C233 0.960 . S
H235 N215 0.862 . S
O236 Co204 1.920 . S
O236 C209 1.289 . S
C237 O229 1.258 . S
C237 O230 1.266 . S
Co238 O241 1.970 . S
Co238 N255 1.989 . S
Co238 O263 1.967 . S
Co238 O270 1.920 . S
Co239 O242 1.966 . S
Co239 N248 2.022 . S
Co239 N256 1.993 . S
Co239 O264 1.941 . S
C240 O241 1.258 . S
C240 O242 1.263 . S
O241 Co238 1.970 . S
O241 C240 1.258 . S
O242 Co239 1.966 . S
O242 C240 1.263 . S
C243 O244 1.235 . S
C243 O270 1.289 . S
O244 C243 1.235 . S
C245 C247 1.400 . S
C245 N248 1.351 . S
C245 C250 1.501 . S
C246 C247 1.387 . S
C246 N249 1.341 . S
C247 C245 1.400 . S
C247 C246 1.387 . S
N248 Co239 2.022 . S
N248 C245 1.351 . S
N248 N249 1.365 . S
N249 C246 1.341 . S
N249 N248 1.365 . S
N249 H269 0.862 . S
C250 C245 1.501 . S
C250 H251 0.961 . S
C250 H252 0.961 . S
C250 H253 0.960 . S
H251 C250 0.961 . S
H252 C250 0.961 . S
H253 C250 0.960 . S
C254 N255 1.342 . S
C254 C258 1.401 . S
C254 C259 1.499 . S
N255 Co238 1.989 . S
N255 C254 1.342 . S
N255 N256 1.388 . S
N256 Co239 1.993 . S
N256 N255 1.388 . S
N256 C257 1.346 . S
C257 N256 1.346 . S
C257 C258 1.396 . S
C257 C267 1.510 . S
C258 C254 1.401 . S
C258 C257 1.396 . S
C259 C254 1.499 . S
C259 H260 0.959 . S
C259 H261 0.960 . S
C259 H262 0.961 . S
H260 C259 0.959 . S
H261 C259 0.960 . S
H262 C259 0.961 . S
O263 Co238 1.967 . S
O263 C271 1.258 . S
O264 Co239 1.941 . S
O264 C271 1.266 . S
H265 C267 0.959 . S
H266 C267 0.961 . S
C267 C257 1.510 . S
C267 H265 0.959 . S
C267 H266 0.961 . S
C267 H268 0.960 . S
H268 C267 0.960 . S
H269 N249 0.862 . S
O270 Co238 1.920 . S
O270 C243 1.289 . S
C271 O263 1.258 . S
C271 O264 1.266 . S
Co272 O275 1.970 . S
Co272 N289 1.989 . S
Co272 O297 1.967 . S
Co272 O304 1.920 . S
Co273 O276 1.966 . S
Co273 N282 2.022 . S
Co273 N290 1.993 . S
Co273 O298 1.941 . S
C274 O275 1.258 . S
C274 O276 1.263 . S
O275 Co272 1.970 . S
O275 C274 1.258 . S
O276 Co273 1.966 . S
O276 C274 1.263 . S
C277 O278 1.235 . S
C277 O304 1.289 . S
O278 C277 1.235 . S
C279 C281 1.400 . S
C279 N282 1.351 . S
C279 C284 1.501 . S
C280 C281 1.387 . S
C280 N283 1.341 . S
C281 C279 1.400 . S
C281 C280 1.387 . S
N282 Co273 2.022 . S
N282 C279 1.351 . S
N282 N283 1.365 . S
N283 C280 1.341 . S
N283 N282 1.365 . S
N283 H303 0.862 . S
C284 C279 1.501 . S
C284 H285 0.961 . S
C284 H286 0.961 . S
C284 H287 0.960 . S
H285 C284 0.961 . S
H286 C284 0.961 . S
H287 C284 0.960 . S
C288 N289 1.342 . S
C288 C292 1.401 . S
C288 C293 1.499 . S
N289 Co272 1.989 . S
N289 C288 1.342 . S
N289 N290 1.388 . S
N290 Co273 1.993 . S
N290 N289 1.388 . S
N290 C291 1.346 . S
C291 N290 1.346 . S
C291 C292 1.396 . S
C291 C301 1.510 . S
C292 C288 1.401 . S
C292 C291 1.396 . S
C293 C288 1.499 . S
C293 H294 0.959 . S
C293 H295 0.960 . S
C293 H296 0.961 . S
H294 C293 0.959 . S
H295 C293 0.960 . S
H296 C293 0.961 . S
O297 Co272 1.967 . S
O297 C305 1.258 . S
O298 Co273 1.941 . S
O298 C305 1.266 . S
H299 C301 0.959 . S
H300 C301 0.961 . S
C301 C291 1.510 . S
C301 H299 0.959 . S
C301 H300 0.961 . S
C301 H302 0.960 . S
H302 C301 0.960 . S
H303 N283 0.862 . S
O304 Co272 1.920 . S
O304 C277 1.289 . S
C305 O297 1.258 . S
C305 O298 1.266 . S
Co306 O309 1.970 . S
Co306 N323 1.989 . S
Co306 O331 1.967 . S
Co306 O338 1.920 . S
Co307 O310 1.966 . S
Co307 N316 2.022 . S
Co307 N324 1.993 . S
Co307 O332 1.941 . S
C308 O309 1.258 . S
C308 O310 1.263 . S
O309 Co306 1.970 . S
O309 C308 1.258 . S
O310 Co307 1.966 . S
O310 C308 1.263 . S
C311 O312 1.235 . S
C311 O338 1.289 . S
O312 C311 1.235 . S
C313 C315 1.400 . S
C313 N316 1.351 . S
C313 C318 1.501 . S
C314 C315 1.387 . S
C314 N317 1.341 . S
C315 C313 1.400 . S
C315 C314 1.387 . S
N316 Co307 2.022 . S
N316 C313 1.351 . S
N316 N317 1.365 . S
N317 C314 1.341 . S
N317 N316 1.365 . S
N317 H337 0.862 . S
C318 C313 1.501 . S
C318 H319 0.961 . S
C318 H320 0.961 . S
C318 H321 0.960 . S
H319 C318 0.961 . S
H320 C318 0.961 . S
H321 C318 0.960 . S
C322 N323 1.342 . S
C322 C326 1.401 . S
C322 C327 1.499 . S
N323 Co306 1.989 . S
N323 C322 1.342 . S
N323 N324 1.388 . S
N324 Co307 1.993 . S
N324 N323 1.388 . S
N324 C325 1.346 . S
C325 N324 1.346 . S
C325 C326 1.396 . S
C325 C335 1.510 . S
C326 C322 1.401 . S
C326 C325 1.396 . S
C327 C322 1.499 . S
C327 H328 0.959 . S
C327 H329 0.960 . S
C327 H330 0.961 . S
H328 C327 0.959 . S
H329 C327 0.960 . S
H330 C327 0.961 . S
O331 Co306 1.967 . S
O331 C339 1.258 . S
O332 Co307 1.941 . S
O332 C339 1.266 . S
H333 C335 0.959 . S
H334 C335 0.961 . S
C335 C325 1.510 . S
C335 H333 0.959 . S
C335 H334 0.961 . S
C335 H336 0.960 . S
H336 C335 0.960 . S
H337 N317 0.862 . S
O338 Co306 1.920 . S
O338 C311 1.289 . S
C339 O331 1.258 . S
C339 O332 1.266 . S
Co340 O343 1.970 . S
Co340 N357 1.989 . S
Co340 O365 1.967 . S
Co340 O372 1.920 . S
Co341 O344 1.966 . S
Co341 N350 2.022 . S
Co341 N358 1.993 . S
Co341 O366 1.941 . S
C342 O343 1.258 . S
C342 O344 1.263 . S
O343 Co340 1.970 . S
O343 C342 1.258 . S
O344 Co341 1.966 . S
O344 C342 1.263 . S
C345 O346 1.235 . S
C345 O372 1.289 . S
O346 C345 1.235 . S
C347 C349 1.400 . S
C347 N350 1.351 . S
C347 C352 1.501 . S
C348 C349 1.387 . S
C348 N351 1.341 . S
C349 C347 1.400 . S
C349 C348 1.387 . S
N350 Co341 2.022 . S
N350 C347 1.351 . S
N350 N351 1.365 . S
N351 C348 1.341 . S
N351 N350 1.365 . S
N351 H371 0.862 . S
C352 C347 1.501 . S
C352 H353 0.961 . S
C352 H354 0.961 . S
C352 H355 0.960 . S
H353 C352 0.961 . S
H354 C352 0.961 . S
H355 C352 0.960 . S
C356 N357 1.342 . S
C356 C360 1.401 . S
C356 C361 1.499 . S
N357 Co340 1.989 . S
N357 C356 1.342 . S
N357 N358 1.388 . S
N358 Co341 1.993 . S
N358 N357 1.388 . S
N358 C359 1.346 . S
C359 N358 1.346 . S
C359 C360 1.396 . S
C359 C369 1.510 . S
C360 C356 1.401 . S
C360 C359 1.396 . S
C361 C356 1.499 . S
C361 H362 0.959 . S
C361 H363 0.960 . S
C361 H364 0.961 . S
H362 C361 0.959 . S
H363 C361 0.960 . S
H364 C361 0.961 . S
O365 Co340 1.967 . S
O365 C373 1.258 . S
O366 Co341 1.941 . S
O366 C373 1.266 . S
H367 C369 0.959 . S
H368 C369 0.961 . S
C369 C359 1.510 . S
C369 H367 0.959 . S
C369 H368 0.961 . S
C369 H370 0.960 . S
H370 C369 0.960 . S
H371 N351 0.862 . S
O372 Co340 1.920 . S
O372 C345 1.289 . S
C373 O365 1.258 . S
C373 O366 1.266 . S
Co374 O377 1.970 . S
Co374 N391 1.989 . S
Co374 O399 1.967 . S
Co374 O406 1.920 . S
Co375 O378 1.966 . S
Co375 N384 2.022 . S
Co375 N392 1.993 . S
Co375 O400 1.941 . S
C376 O377 1.258 . S
C376 O378 1.263 . S
O377 Co374 1.970 . S
O377 C376 1.258 . S
O378 Co375 1.966 . S
O378 C376 1.263 . S
C379 O380 1.235 . S
C379 O406 1.289 . S
O380 C379 1.235 . S
C381 C383 1.400 . S
C381 N384 1.351 . S
C381 C386 1.501 . S
C382 C383 1.387 . S
C382 N385 1.341 . S
C383 C381 1.400 . S
C383 C382 1.387 . S
N384 Co375 2.022 . S
N384 C381 1.351 . S
N384 N385 1.365 . S
N385 C382 1.341 . S
N385 N384 1.365 . S
N385 H405 0.862 . S
C386 C381 1.501 . S
C386 H387 0.961 . S
C386 H388 0.961 . S
C386 H389 0.960 . S
H387 C386 0.961 . S
H388 C386 0.961 . S
H389 C386 0.960 . S
C390 N391 1.342 . S
C390 C394 1.401 . S
C390 C395 1.499 . S
N391 Co374 1.989 . S
N391 C390 1.342 . S
N391 N392 1.388 . S
N392 Co375 1.993 . S
N392 N391 1.388 . S
N392 C393 1.346 . S
C393 N392 1.346 . S
C393 C394 1.396 . S
C393 C403 1.510 . S
C394 C390 1.401 . S
C394 C393 1.396 . S
C395 C390 1.499 . S
C395 H396 0.959 . S
C395 H397 0.960 . S
C395 H398 0.961 . S
H396 C395 0.959 . S
H397 C395 0.960 . S
H398 C395 0.961 . S
O399 Co374 1.967 . S
O399 C407 1.258 . S
O400 Co375 1.941 . S
O400 C407 1.266 . S
H401 C403 0.959 . S
H402 C403 0.961 . S
C403 C393 1.510 . S
C403 H401 0.959 . S
C403 H402 0.961 . S
C403 H404 0.960 . S
H404 C403 0.960 . S
H405 N385 0.862 . S
O406 Co374 1.920 . S
O406 C379 1.289 . S
C407 O399 1.258 . S
C407 O400 1.266 . S
Co408 O411 1.970 . S
Co408 N425 1.989 . S
Co408 O433 1.967 . S
Co408 O440 1.920 . S
Co409 O412 1.966 . S
Co409 N418 2.022 . S
Co409 N426 1.993 . S
Co409 O434 1.941 . S
C410 O411 1.258 . S
C410 O412 1.263 . S
O411 Co408 1.970 . S
O411 C410 1.258 . S
O412 Co409 1.966 . S
O412 C410 1.263 . S
C413 O414 1.235 . S
C413 O440 1.289 . S
O414 C413 1.235 . S
C415 C417 1.400 . S
C415 N418 1.351 . S
C415 C420 1.501 . S
C416 C417 1.387 . S
C416 N419 1.341 . S
C417 C415 1.400 . S
C417 C416 1.387 . S
N418 Co409 2.022 . S
N418 C415 1.351 . S
N418 N419 1.365 . S
N419 C416 1.341 . S
N419 N418 1.365 . S
N419 H439 0.862 . S
C420 C415 1.501 . S
C420 H421 0.961 . S
C420 H422 0.961 . S
C420 H423 0.960 . S
H421 C420 0.961 . S
H422 C420 0.961 . S
H423 C420 0.960 . S
C424 N425 1.342 . S
C424 C428 1.401 . S
C424 C429 1.499 . S
N425 Co408 1.989 . S
N425 C424 1.342 . S
N425 N426 1.388 . S
N426 Co409 1.993 . S
N426 N425 1.388 . S
N426 C427 1.346 . S
C427 N426 1.346 . S
C427 C428 1.396 . S
C427 C437 1.510 . S
C428 C424 1.401 . S
C428 C427 1.396 . S
C429 C424 1.499 . S
C429 H430 0.959 . S
C429 H431 0.960 . S
C429 H432 0.961 . S
H430 C429 0.959 . S
H431 C429 0.960 . S
H432 C429 0.961 . S
O433 Co408 1.967 . S
O433 C441 1.258 . S
O434 Co409 1.941 . S
O434 C441 1.266 . S
H435 C437 0.959 . S
H436 C437 0.961 . S
C437 C427 1.510 . S
C437 H435 0.959 . S
C437 H436 0.961 . S
C437 H438 0.960 . S
H438 C437 0.960 . S
H439 N419 0.862 . S
O440 Co408 1.920 . S
O440 C413 1.289 . S
C441 O433 1.258 . S
C441 O434 1.266 . S
Co442 O445 1.970 . S
Co442 N459 1.989 . S
Co442 O467 1.967 . S
Co442 O474 1.920 . S
Co443 O446 1.966 . S
Co443 N452 2.022 . S
Co443 N460 1.993 . S
Co443 O468 1.941 . S
C444 O445 1.258 . S
C444 O446 1.263 . S
O445 Co442 1.970 . S
O445 C444 1.258 . S
O446 Co443 1.966 . S
O446 C444 1.263 . S
C447 O448 1.235 . S
C447 O474 1.289 . S
O448 C447 1.235 . S
C449 C451 1.400 . S
C449 N452 1.351 . S
C449 C454 1.501 . S
C450 C451 1.387 . S
C450 N453 1.341 . S
C451 C449 1.400 . S
C451 C450 1.387 . S
N452 Co443 2.022 . S
N452 C449 1.351 . S
N452 N453 1.365 . S
N453 C450 1.341 . S
N453 N452 1.365 . S
N453 H473 0.862 . S
C454 C449 1.501 . S
C454 H455 0.961 . S
C454 H456 0.961 . S
C454 H457 0.960 . S
H455 C454 0.961 . S
H456 C454 0.961 . S
H457 C454 0.960 . S
C458 N459 1.342 . S
C458 C462 1.401 . S
C458 C463 1.499 . S
N459 Co442 1.989 . S
N459 C458 1.342 . S
N459 N460 1.388 . S
N460 Co443 1.993 . S
N460 N459 1.388 . S
N460 C461 1.346 . S
C461 N460 1.346 . S
C461 C462 1.396 . S
C461 C471 1.510 . S
C462 C458 1.401 . S
C462 C461 1.396 . S
C463 C458 1.499 . S
C463 H464 0.959 . S
C463 H465 0.960 . S
C463 H466 0.961 . S
H464 C463 0.959 . S
H465 C463 0.960 . S
H466 C463 0.961 . S
O467 Co442 1.967 . S
O467 C475 1.258 . S
O468 Co443 1.941 . S
O468 C475 1.266 . S
H469 C471 0.959 . S
H470 C471 0.961 . S
C471 C461 1.510 . S
C471 H469 0.959 . S
C471 H470 0.961 . S
C471 H472 0.960 . S
H472 C471 0.960 . S
H473 N453 0.862 . S
O474 Co442 1.920 . S
O474 C447 1.289 . S
C475 O467 1.258 . S
C475 O468 1.266 . S
Co476 O479 1.970 . S
Co476 N493 1.989 . S
Co476 O501 1.967 . S
Co476 O508 1.920 . S
Co477 O480 1.966 . S
Co477 N486 2.022 . S
Co477 N494 1.993 . S
Co477 O502 1.941 . S
C478 O479 1.258 . S
C478 O480 1.263 . S
O479 Co476 1.970 . S
O479 C478 1.258 . S
O480 Co477 1.966 . S
O480 C478 1.263 . S
C481 O482 1.235 . S
C481 O508 1.289 . S
O482 C481 1.235 . S
C483 C485 1.400 . S
C483 N486 1.351 . S
C483 C488 1.501 . S
C484 C485 1.387 . S
C484 N487 1.341 . S
C485 C483 1.400 . S
C485 C484 1.387 . S
N486 Co477 2.022 . S
N486 C483 1.351 . S
N486 N487 1.365 . S
N487 C484 1.341 . S
N487 N486 1.365 . S
N487 H507 0.862 . S
C488 C483 1.501 . S
C488 H489 0.961 . S
C488 H490 0.961 . S
C488 H491 0.960 . S
H489 C488 0.961 . S
H490 C488 0.961 . S
H491 C488 0.960 . S
C492 N493 1.342 . S
C492 C496 1.401 . S
C492 C497 1.499 . S
N493 Co476 1.989 . S
N493 C492 1.342 . S
N493 N494 1.388 . S
N494 Co477 1.993 . S
N494 N493 1.388 . S
N494 C495 1.346 . S
C495 N494 1.346 . S
C495 C496 1.396 . S
C495 C505 1.510 . S
C496 C492 1.401 . S
C496 C495 1.396 . S
C497 C492 1.499 . S
C497 H498 0.959 . S
C497 H499 0.960 . S
C497 H500 0.961 . S
H498 C497 0.959 . S
H499 C497 0.960 . S
H500 C497 0.961 . S
O501 Co476 1.967 . S
O501 C509 1.258 . S
O502 Co477 1.941 . S
O502 C509 1.266 . S
H503 C505 0.959 . S
H504 C505 0.961 . S
C505 C495 1.510 . S
C505 H503 0.959 . S
C505 H504 0.961 . S
C505 H506 0.960 . S
H506 C505 0.960 . S
H507 N487 0.862 . S
O508 Co476 1.920 . S
O508 C481 1.289 . S
C509 O501 1.258 . S
C509 O502 1.266 . S
Co510 O513 1.970 . S
Co510 N527 1.989 . S
Co510 O535 1.967 . S
Co510 O542 1.920 . S
Co511 O514 1.966 . S
Co511 N520 2.022 . S
Co511 N528 1.993 . S
Co511 O536 1.941 . S
C512 O513 1.258 . S
C512 O514 1.263 . S
O513 Co510 1.970 . S
O513 C512 1.258 . S
O514 Co511 1.966 . S
O514 C512 1.263 . S
C515 O516 1.235 . S
C515 O542 1.289 . S
O516 C515 1.235 . S
C517 C519 1.400 . S
C517 N520 1.351 . S
C517 C522 1.501 . S
C518 C519 1.387 . S
C518 N521 1.341 . S
C519 C517 1.400 . S
C519 C518 1.387 . S
N520 Co511 2.022 . S
N520 C517 1.351 . S
N520 N521 1.365 . S
N521 C518 1.341 . S
N521 N520 1.365 . S
N521 H541 0.862 . S
C522 C517 1.501 . S
C522 H523 0.961 . S
C522 H524 0.961 . S
C522 H525 0.960 . S
H523 C522 0.961 . S
H524 C522 0.961 . S
H525 C522 0.960 . S
C526 N527 1.342 . S
C526 C530 1.401 . S
C526 C531 1.499 . S
N527 Co510 1.989 . S
N527 C526 1.342 . S
N527 N528 1.388 . S
N528 Co511 1.993 . S
N528 N527 1.388 . S
N528 C529 1.346 . S
C529 N528 1.346 . S
C529 C530 1.396 . S
C529 C539 1.510 . S
C530 C526 1.401 . S
C530 C529 1.396 . S
C531 C526 1.499 . S
C531 H532 0.959 . S
C531 H533 0.960 . S
C531 H534 0.961 . S
H532 C531 0.959 . S
H533 C531 0.960 . S
H534 C531 0.961 . S
O535 Co510 1.967 . S
O535 C543 1.258 . S
O536 Co511 1.941 . S
O536 C543 1.266 . S
H537 C539 0.959 . S
H538 C539 0.961 . S
C539 C529 1.510 . S
C539 H537 0.959 . S
C539 H538 0.961 . S
C539 H540 0.960 . S
H540 C539 0.960 . S
H541 N521 0.862 . S
O542 Co510 1.920 . S
O542 C515 1.289 . S
C543 O535 1.258 . S
C543 O536 1.266 . S
Co544 O547 1.970 . S
Co544 N561 1.989 . S
Co544 O569 1.967 . S
Co544 O576 1.920 . S
Co545 O548 1.966 . S
Co545 N554 2.022 . S
Co545 N562 1.993 . S
Co545 O570 1.941 . S
C546 O547 1.258 . S
C546 O548 1.263 . S
O547 Co544 1.970 . S
O547 C546 1.258 . S
O548 Co545 1.966 . S
O548 C546 1.263 . S
C549 O550 1.235 . S
C549 O576 1.289 . S
O550 C549 1.235 . S
C551 C553 1.400 . S
C551 N554 1.351 . S
C551 C556 1.501 . S
C552 C553 1.387 . S
C552 N555 1.341 . S
C553 C551 1.400 . S
C553 C552 1.387 . S
N554 Co545 2.022 . S
N554 C551 1.351 . S
N554 N555 1.365 . S
N555 C552 1.341 . S
N555 N554 1.365 . S
N555 H575 0.862 . S
C556 C551 1.501 . S
C556 H557 0.961 . S
C556 H558 0.961 . S
C556 H559 0.960 . S
H557 C556 0.961 . S
H558 C556 0.961 . S
H559 C556 0.960 . S
C560 N561 1.342 . S
C560 C564 1.401 . S
C560 C565 1.499 . S
N561 Co544 1.989 . S
N561 C560 1.342 . S
N561 N562 1.388 . S
N562 Co545 1.993 . S
N562 N561 1.388 . S
N562 C563 1.346 . S
C563 N562 1.346 . S
C563 C564 1.396 . S
C563 C573 1.510 . S
C564 C560 1.401 . S
C564 C563 1.396 . S
C565 C560 1.499 . S
C565 H566 0.959 . S
C565 H567 0.960 . S
C565 H568 0.961 . S
H566 C565 0.959 . S
H567 C565 0.960 . S
H568 C565 0.961 . S
O569 Co544 1.967 . S
O569 C577 1.258 . S
O570 Co545 1.941 . S
O570 C577 1.266 . S
H571 C573 0.959 . S
H572 C573 0.961 . S
C573 C563 1.510 . S
C573 H571 0.959 . S
C573 H572 0.961 . S
C573 H574 0.960 . S
H574 C573 0.960 . S
H575 N555 0.862 . S
O576 Co544 1.920 . S
O576 C549 1.289 . S
C577 O569 1.258 . S
C577 O570 1.266 . S
Co578 O581 1.970 . S
Co578 N595 1.989 . S
Co578 O603 1.967 . S
Co578 O610 1.920 . S
Co579 O582 1.966 . S
Co579 N588 2.022 . S
Co579 N596 1.993 . S
Co579 O604 1.941 . S
C580 O581 1.258 . S
C580 O582 1.263 . S
O581 Co578 1.970 . S
O581 C580 1.258 . S
O582 Co579 1.966 . S
O582 C580 1.263 . S
C583 O584 1.235 . S
C583 O610 1.289 . S
O584 C583 1.235 . S
C585 C587 1.400 . S
C585 N588 1.351 . S
C585 C590 1.501 . S
C586 C587 1.387 . S
C586 N589 1.341 . S
C587 C585 1.400 . S
C587 C586 1.387 . S
N588 Co579 2.022 . S
N588 C585 1.351 . S
N588 N589 1.365 . S
N589 C586 1.341 . S
N589 N588 1.365 . S
N589 H609 0.862 . S
C590 C585 1.501 . S
C590 H591 0.961 . S
C590 H592 0.961 . S
C590 H593 0.960 . S
H591 C590 0.961 . S
H592 C590 0.961 . S
H593 C590 0.960 . S
C594 N595 1.342 . S
C594 C598 1.401 . S
C594 C599 1.499 . S
N595 Co578 1.989 . S
N595 C594 1.342 . S
N595 N596 1.388 . S
N596 Co579 1.993 . S
N596 N595 1.388 . S
N596 C597 1.346 . S
C597 N596 1.346 . S
C597 C598 1.396 . S
C597 C607 1.510 . S
C598 C594 1.401 . S
C598 C597 1.396 . S
C599 C594 1.499 . S
C599 H600 0.959 . S
C599 H601 0.960 . S
C599 H602 0.961 . S
H600 C599 0.959 . S
H601 C599 0.960 . S
H602 C599 0.961 . S
O603 Co578 1.967 . S
O603 C611 1.258 . S
O604 Co579 1.941 . S
O604 C611 1.266 . S
H605 C607 0.959 . S
H606 C607 0.961 . S
C607 C597 1.510 . S
C607 H605 0.959 . S
C607 H606 0.961 . S
C607 H608 0.960 . S
H608 C607 0.960 . S
H609 N589 0.862 . S
O610 Co578 1.920 . S
O610 C583 1.289 . S
C611 O603 1.258 . S
C611 O604 1.266 . S
Co612 O615 1.970 . S
Co612 N629 1.989 . S
Co612 O637 1.967 . S
Co612 O644 1.920 . S
Co613 O616 1.966 . S
Co613 N622 2.022 . S
Co613 N630 1.993 . S
Co613 O638 1.941 . S
C614 O615 1.258 . S
C614 O616 1.263 . S
O615 Co612 1.970 . S
O615 C614 1.258 . S
O616 Co613 1.966 . S
O616 C614 1.263 . S
C617 O618 1.235 . S
C617 O644 1.289 . S
O618 C617 1.235 . S
C619 C621 1.400 . S
C619 N622 1.351 . S
C619 C624 1.501 . S
C620 C621 1.387 . S
C620 N623 1.341 . S
C621 C619 1.400 . S
C621 C620 1.387 . S
N622 Co613 2.022 . S
N622 C619 1.351 . S
N622 N623 1.365 . S
N623 C620 1.341 . S
N623 N622 1.365 . S
N623 H643 0.862 . S
C624 C619 1.501 . S
C624 H625 0.961 . S
C624 H626 0.961 . S
C624 H627 0.960 . S
H625 C624 0.961 . S
H626 C624 0.961 . S
H627 C624 0.960 . S
C628 N629 1.342 . S
C628 C632 1.401 . S
C628 C633 1.499 . S
N629 Co612 1.989 . S
N629 C628 1.342 . S
N629 N630 1.388 . S
N630 Co613 1.993 . S
N630 N629 1.388 . S
N630 C631 1.346 . S
C631 N630 1.346 . S
C631 C632 1.396 . S
C631 C641 1.510 . S
C632 C628 1.401 . S
C632 C631 1.396 . S
C633 C628 1.499 . S
C633 H634 0.959 . S
C633 H635 0.960 . S
C633 H636 0.961 . S
H634 C633 0.959 . S
H635 C633 0.960 . S
H636 C633 0.961 . S
O637 Co612 1.967 . S
O637 C645 1.258 . S
O638 Co613 1.941 . S
O638 C645 1.266 . S
H639 C641 0.959 . S
H640 C641 0.961 . S
C641 C631 1.510 . S
C641 H639 0.959 . S
C641 H640 0.961 . S
C641 H642 0.960 . S
H642 C641 0.960 . S
H643 N623 0.862 . S
O644 Co612 1.920 . S
O644 C617 1.289 . S
C645 O637 1.258 . S
C645 O638 1.266 . S
Co646 O649 1.970 . S
Co646 N663 1.989 . S
Co646 O671 1.967 . S
Co646 O678 1.920 . S
Co647 O650 1.966 . S
Co647 N656 2.022 . S
Co647 N664 1.993 . S
Co647 O672 1.941 . S
C648 O649 1.258 . S
C648 O650 1.263 . S
O649 Co646 1.970 . S
O649 C648 1.258 . S
O650 Co647 1.966 . S
O650 C648 1.263 . S
C651 O652 1.235 . S
C651 O678 1.289 . S
O652 C651 1.235 . S
C653 C655 1.400 . S
C653 N656 1.351 . S
C653 C658 1.501 . S
C654 C655 1.387 . S
C654 N657 1.341 . S
C655 C653 1.400 . S
C655 C654 1.387 . S
N656 Co647 2.022 . S
N656 C653 1.351 . S
N656 N657 1.365 . S
N657 C654 1.341 . S
N657 N656 1.365 . S
N657 H677 0.862 . S
C658 C653 1.501 . S
C658 H659 0.961 . S
C658 H660 0.961 . S
C658 H661 0.960 . S
H659 C658 0.961 . S
H660 C658 0.961 . S
H661 C658 0.960 . S
C662 N663 1.342 . S
C662 C666 1.401 . S
C662 C667 1.499 . S
N663 Co646 1.989 . S
N663 C662 1.342 . S
N663 N664 1.388 . S
N664 Co647 1.993 . S
N664 N663 1.388 . S
N664 C665 1.346 . S
C665 N664 1.346 . S
C665 C666 1.396 . S
C665 C675 1.510 . S
C666 C662 1.401 . S
C666 C665 1.396 . S
C667 C662 1.499 . S
C667 H668 0.959 . S
C667 H669 0.960 . S
C667 H670 0.961 . S
H668 C667 0.959 . S
H669 C667 0.960 . S
H670 C667 0.961 . S
O671 Co646 1.967 . S
O671 C679 1.258 . S
O672 Co647 1.941 . S
O672 C679 1.266 . S
H673 C675 0.959 . S
H674 C675 0.961 . S
C675 C665 1.510 . S
C675 H673 0.959 . S
C675 H674 0.961 . S
C675 H676 0.960 . S
H676 C675 0.960 . S
H677 N657 0.862 . S
O678 Co646 1.920 . S
O678 C651 1.289 . S
C679 O671 1.258 . S
C679 O672 1.266 . S
Co680 O683 1.970 . S
Co680 N697 1.989 . S
Co680 O705 1.967 . S
Co680 O712 1.920 . S
Co681 O684 1.966 . S
Co681 N690 2.022 . S
Co681 N698 1.993 . S
Co681 O706 1.941 . S
C682 O683 1.258 . S
C682 O684 1.263 . S
O683 Co680 1.970 . S
O683 C682 1.258 . S
O684 Co681 1.966 . S
O684 C682 1.263 . S
C685 O686 1.235 . S
C685 O712 1.289 . S
O686 C685 1.235 . S
C687 C689 1.400 . S
C687 N690 1.351 . S
C687 C692 1.501 . S
C688 C689 1.387 . S
C688 N691 1.341 . S
C689 C687 1.400 . S
C689 C688 1.387 . S
N690 Co681 2.022 . S
N690 C687 1.351 . S
N690 N691 1.365 . S
N691 C688 1.341 . S
N691 N690 1.365 . S
N691 H711 0.862 . S
C692 C687 1.501 . S
C692 H693 0.961 . S
C692 H694 0.961 . S
C692 H695 0.960 . S
H693 C692 0.961 . S
H694 C692 0.961 . S
H695 C692 0.960 . S
C696 N697 1.342 . S
C696 C700 1.401 . S
C696 C701 1.499 . S
N697 Co680 1.989 . S
N697 C696 1.342 . S
N697 N698 1.388 . S
N698 Co681 1.993 . S
N698 N697 1.388 . S
N698 C699 1.346 . S
C699 N698 1.346 . S
C699 C700 1.396 . S
C699 C709 1.510 . S
C700 C696 1.401 . S
C700 C699 1.396 . S
C701 C696 1.499 . S
C701 H702 0.959 . S
C701 H703 0.960 . S
C701 H704 0.961 . S
H702 C701 0.959 . S
H703 C701 0.960 . S
H704 C701 0.961 . S
O705 Co680 1.967 . S
O705 C713 1.258 . S
O706 Co681 1.941 . S
O706 C713 1.266 . S
H707 C709 0.959 . S
H708 C709 0.961 . S
C709 C699 1.510 . S
C709 H707 0.959 . S
C709 H708 0.961 . S
C709 H710 0.960 . S
H710 C709 0.960 . S
H711 N691 0.862 . S
O712 Co680 1.920 . S
O712 C685 1.289 . S
C713 O705 1.258 . S
C713 O706 1.266 . S
Co714 O717 1.970 . S
Co714 N731 1.989 . S
Co714 O739 1.967 . S
Co714 O746 1.920 . S
Co715 O718 1.966 . S
Co715 N724 2.022 . S
Co715 N732 1.993 . S
Co715 O740 1.941 . S
C716 O717 1.258 . S
C716 O718 1.263 . S
O717 Co714 1.970 . S
O717 C716 1.258 . S
O718 Co715 1.966 . S
O718 C716 1.263 . S
C719 O720 1.235 . S
C719 O746 1.289 . S
O720 C719 1.235 . S
C721 C723 1.400 . S
C721 N724 1.351 . S
C721 C726 1.501 . S
C722 C723 1.387 . S
C722 N725 1.341 . S
C723 C721 1.400 . S
C723 C722 1.387 . S
N724 Co715 2.022 . S
N724 C721 1.351 . S
N724 N725 1.365 . S
N725 C722 1.341 . S
N725 N724 1.365 . S
N725 H745 0.862 . S
C726 C721 1.501 . S
C726 H727 0.961 . S
C726 H728 0.961 . S
C726 H729 0.960 . S
H727 C726 0.961 . S
H728 C726 0.961 . S
H729 C726 0.960 . S
C730 N731 1.342 . S
C730 C734 1.401 . S
C730 C735 1.499 . S
N731 Co714 1.989 . S
N731 C730 1.342 . S
N731 N732 1.388 . S
N732 Co715 1.993 . S
N732 N731 1.388 . S
N732 C733 1.346 . S
C733 N732 1.346 . S
C733 C734 1.396 . S
C733 C743 1.510 . S
C734 C730 1.401 . S
C734 C733 1.396 . S
C735 C730 1.499 . S
C735 H736 0.959 . S
C735 H737 0.960 . S
C735 H738 0.961 . S
H736 C735 0.959 . S
H737 C735 0.960 . S
H738 C735 0.961 . S
O739 Co714 1.967 . S
O739 C747 1.258 . S
O740 Co715 1.941 . S
O740 C747 1.266 . S
H741 C743 0.959 . S
H742 C743 0.961 . S
C743 C733 1.510 . S
C743 H741 0.959 . S
C743 H742 0.961 . S
C743 H744 0.960 . S
H744 C743 0.960 . S
H745 N725 0.862 . S
O746 Co714 1.920 . S
O746 C719 1.289 . S
C747 O739 1.258 . S
C747 O740 1.266 . S
Co748 O751 1.970 . S
Co748 N765 1.989 . S
Co748 O773 1.967 . S
Co748 O780 1.920 . S
Co749 O752 1.966 . S
Co749 N758 2.022 . S
Co749 N766 1.993 . S
Co749 O774 1.941 . S
C750 O751 1.258 . S
C750 O752 1.263 . S
O751 Co748 1.970 . S
O751 C750 1.258 . S
O752 Co749 1.966 . S
O752 C750 1.263 . S
C753 O754 1.235 . S
C753 O780 1.289 . S
O754 C753 1.235 . S
C755 C757 1.400 . S
C755 N758 1.351 . S
C755 C760 1.501 . S
C756 C757 1.387 . S
C756 N759 1.341 . S
C757 C755 1.400 . S
C757 C756 1.387 . S
N758 Co749 2.022 . S
N758 C755 1.351 . S
N758 N759 1.365 . S
N759 C756 1.341 . S
N759 N758 1.365 . S
N759 H779 0.862 . S
C760 C755 1.501 . S
C760 H761 0.961 . S
C760 H762 0.961 . S
C760 H763 0.960 . S
H761 C760 0.961 . S
H762 C760 0.961 . S
H763 C760 0.960 . S
C764 N765 1.342 . S
C764 C768 1.401 . S
C764 C769 1.499 . S
N765 Co748 1.989 . S
N765 C764 1.342 . S
N765 N766 1.388 . S
N766 Co749 1.993 . S
N766 N765 1.388 . S
N766 C767 1.346 . S
C767 N766 1.346 . S
C767 C768 1.396 . S
C767 C777 1.510 . S
C768 C764 1.401 . S
C768 C767 1.396 . S
C769 C764 1.499 . S
C769 H770 0.959 . S
C769 H771 0.960 . S
C769 H772 0.961 . S
H770 C769 0.959 . S
H771 C769 0.960 . S
H772 C769 0.961 . S
O773 Co748 1.967 . S
O773 C781 1.258 . S
O774 Co749 1.941 . S
O774 C781 1.266 . S
H775 C777 0.959 . S
H776 C777 0.961 . S
C777 C767 1.510 . S
C777 H775 0.959 . S
C777 H776 0.961 . S
C777 H778 0.960 . S
H778 C777 0.960 . S
H779 N759 0.862 . S
O780 Co748 1.920 . S
O780 C753 1.289 . S
C781 O773 1.258 . S
C781 O774 1.266 . S
Co782 O785 1.970 . S
Co782 N799 1.989 . S
Co782 O807 1.967 . S
Co782 O814 1.920 . S
Co783 O786 1.966 . S
Co783 N792 2.022 . S
Co783 N800 1.993 . S
Co783 O808 1.941 . S
C784 O785 1.258 . S
C784 O786 1.263 . S
O785 Co782 1.970 . S
O785 C784 1.258 . S
O786 Co783 1.966 . S
O786 C784 1.263 . S
C787 O788 1.235 . S
C787 O814 1.289 . S
O788 C787 1.235 . S
C789 C791 1.400 . S
C789 N792 1.351 . S
C789 C794 1.501 . S
C790 C791 1.387 . S
C790 N793 1.341 . S
C791 C789 1.400 . S
C791 C790 1.387 . S
N792 Co783 2.022 . S
N792 C789 1.351 . S
N792 N793 1.365 . S
N793 C790 1.341 . S
N793 N792 1.365 . S
N793 H813 0.862 . S
C794 C789 1.501 . S
C794 H795 0.961 . S
C794 H796 0.961 . S
C794 H797 0.960 . S
H795 C794 0.961 . S
H796 C794 0.961 . S
H797 C794 0.960 . S
C798 N799 1.342 . S
C798 C802 1.401 . S
C798 C803 1.499 . S
N799 Co782 1.989 . S
N799 C798 1.342 . S
N799 N800 1.388 . S
N800 Co783 1.993 . S
N800 N799 1.388 . S
N800 C801 1.346 . S
C801 N800 1.346 . S
C801 C802 1.396 . S
C801 C811 1.510 . S
C802 C798 1.401 . S
C802 C801 1.396 . S
C803 C798 1.499 . S
C803 H804 0.959 . S
C803 H805 0.960 . S
C803 H806 0.961 . S
H804 C803 0.959 . S
H805 C803 0.960 . S
H806 C803 0.961 . S
O807 Co782 1.967 . S
O807 C815 1.258 . S
O808 Co783 1.941 . S
O808 C815 1.266 . S
H809 C811 0.959 . S
H810 C811 0.961 . S
C811 C801 1.510 . S
C811 H809 0.959 . S
C811 H810 0.961 . S
C811 H812 0.960 . S
H812 C811 0.960 . S
H813 N793 0.862 . S
O814 Co782 1.920 . S
O814 C787 1.289 . S
C815 O807 1.258 . S
C815 O808 1.266 . S
Co816 O819 1.970 . S
Co816 N833 1.989 . S
Co816 O841 1.967 . S
Co816 O848 1.920 . S
Co817 O820 1.966 . S
Co817 N826 2.022 . S
Co817 N834 1.993 . S
Co817 O842 1.941 . S
C818 O819 1.258 . S
C818 O820 1.263 . S
O819 Co816 1.970 . S
O819 C818 1.258 . S
O820 Co817 1.966 . S
O820 C818 1.263 . S
C821 O822 1.235 . S
C821 O848 1.289 . S
O822 C821 1.235 . S
C823 C825 1.400 . S
C823 N826 1.351 . S
C823 C828 1.501 . S
C824 C825 1.387 . S
C824 N827 1.341 . S
C825 C823 1.400 . S
C825 C824 1.387 . S
N826 Co817 2.022 . S
N826 C823 1.351 . S
N826 N827 1.365 . S
N827 C824 1.341 . S
N827 N826 1.365 . S
N827 H847 0.862 . S
C828 C823 1.501 . S
C828 H829 0.961 . S
C828 H830 0.961 . S
C828 H831 0.960 . S
H829 C828 0.961 . S
H830 C828 0.961 . S
H831 C828 0.960 . S
C832 N833 1.342 . S
C832 C836 1.401 . S
C832 C837 1.499 . S
N833 Co816 1.989 . S
N833 C832 1.342 . S
N833 N834 1.388 . S
N834 Co817 1.993 . S
N834 N833 1.388 . S
N834 C835 1.346 . S
C835 N834 1.346 . S
C835 C836 1.396 . S
C835 C845 1.510 . S
C836 C832 1.401 . S
C836 C835 1.396 . S
C837 C832 1.499 . S
C837 H838 0.959 . S
C837 H839 0.960 . S
C837 H840 0.961 . S
H838 C837 0.959 . S
H839 C837 0.960 . S
H840 C837 0.961 . S
O841 Co816 1.967 . S
O841 C849 1.258 . S
O842 Co817 1.941 . S
O842 C849 1.266 . S
H843 C845 0.959 . S
H844 C845 0.961 . S
C845 C835 1.510 . S
C845 H843 0.959 . S
C845 H844 0.961 . S
C845 H846 0.960 . S
H846 C845 0.960 . S
H847 N827 0.862 . S
O848 Co816 1.920 . S
O848 C821 1.289 . S
C849 O841 1.258 . S
C849 O842 1.266 . S
Co850 O853 1.970 . S
Co850 N867 1.989 . S
Co850 O875 1.967 . S
Co850 O882 1.920 . S
Co851 O854 1.966 . S
Co851 N860 2.022 . S
Co851 N868 1.993 . S
Co851 O876 1.941 . S
C852 O853 1.258 . S
C852 O854 1.263 . S
O853 Co850 1.970 . S
O853 C852 1.258 . S
O854 Co851 1.966 . S
O854 C852 1.263 . S
C855 O856 1.235 . S
C855 O882 1.289 . S
O856 C855 1.235 . S
C857 C859 1.400 . S
C857 N860 1.351 . S
C857 C862 1.501 . S
C858 C859 1.387 . S
C858 N861 1.341 . S
C859 C857 1.400 . S
C859 C858 1.387 . S
N860 Co851 2.022 . S
N860 C857 1.351 . S
N860 N861 1.365 . S
N861 C858 1.341 . S
N861 N860 1.365 . S
N861 H881 0.862 . S
C862 C857 1.501 . S
C862 H863 0.961 . S
C862 H864 0.961 . S
C862 H865 0.960 . S
H863 C862 0.961 . S
H864 C862 0.961 . S
H865 C862 0.960 . S
C866 N867 1.342 . S
C866 C870 1.401 . S
C866 C871 1.499 . S
N867 Co850 1.989 . S
N867 C866 1.342 . S
N867 N868 1.388 . S
N868 Co851 1.993 . S
N868 N867 1.388 . S
N868 C869 1.346 . S
C869 N868 1.346 . S
C869 C870 1.396 . S
C869 C879 1.510 . S
C870 C866 1.401 . S
C870 C869 1.396 . S
C871 C866 1.499 . S
C871 H872 0.959 . S
C871 H873 0.960 . S
C871 H874 0.961 . S
H872 C871 0.959 . S
H873 C871 0.960 . S
H874 C871 0.961 . S
O875 Co850 1.967 . S
O875 C883 1.258 . S
O876 Co851 1.941 . S
O876 C883 1.266 . S
H877 C879 0.959 . S
H878 C879 0.961 . S
C879 C869 1.510 . S
C879 H877 0.959 . S
C879 H878 0.961 . S
C879 H880 0.960 . S
H880 C879 0.960 . S
H881 N861 0.862 . S
O882 Co850 1.920 . S
O882 C855 1.289 . S
C883 O875 1.258 . S
C883 O876 1.266 . S
Co884 O887 1.970 . S
Co884 N901 1.989 . S
Co884 O909 1.967 . S
Co884 O916 1.920 . S
Co885 O888 1.966 . S
Co885 N894 2.022 . S
Co885 N902 1.993 . S
Co885 O910 1.941 . S
C886 O887 1.258 . S
C886 O888 1.263 . S
O887 Co884 1.970 . S
O887 C886 1.258 . S
O888 Co885 1.966 . S
O888 C886 1.263 . S
C889 O890 1.235 . S
C889 O916 1.289 . S
O890 C889 1.235 . S
C891 C893 1.400 . S
C891 N894 1.351 . S
C891 C896 1.501 . S
C892 C893 1.387 . S
C892 N895 1.341 . S
C893 C891 1.400 . S
C893 C892 1.387 . S
N894 Co885 2.022 . S
N894 C891 1.351 . S
N894 N895 1.365 . S
N895 C892 1.341 . S
N895 N894 1.365 . S
N895 H915 0.862 . S
C896 C891 1.501 . S
C896 H897 0.961 . S
C896 H898 0.961 . S
C896 H899 0.960 . S
H897 C896 0.961 . S
H898 C896 0.961 . S
H899 C896 0.960 . S
C900 N901 1.342 . S
C900 C904 1.401 . S
C900 C905 1.499 . S
N901 Co884 1.989 . S
N901 C900 1.342 . S
N901 N902 1.388 . S
N902 Co885 1.993 . S
N902 N901 1.388 . S
N902 C903 1.346 . S
C903 N902 1.346 . S
C903 C904 1.396 . S
C903 C913 1.510 . S
C904 C900 1.401 . S
C904 C903 1.396 . S
C905 C900 1.499 . S
C905 H906 0.959 . S
C905 H907 0.960 . S
C905 H908 0.961 . S
H906 C905 0.959 . S
H907 C905 0.960 . S
H908 C905 0.961 . S
O909 Co884 1.967 . S
O909 C917 1.258 . S
O910 Co885 1.941 . S
O910 C917 1.266 . S
H911 C913 0.959 . S
H912 C913 0.961 . S
C913 C903 1.510 . S
C913 H911 0.959 . S
C913 H912 0.961 . S
C913 H914 0.960 . S
H914 C913 0.960 . S
H915 N895 0.862 . S
O916 Co884 1.920 . S
O916 C889 1.289 . S
C917 O909 1.258 . S
C917 O910 1.266 . S
Co918 O921 1.970 . S
Co918 N935 1.989 . S
Co918 O943 1.967 . S
Co918 O950 1.920 . S
Co919 O922 1.966 . S
Co919 N928 2.022 . S
Co919 N936 1.993 . S
Co919 O944 1.941 . S
C920 O921 1.258 . S
C920 O922 1.263 . S
O921 Co918 1.970 . S
O921 C920 1.258 . S
O922 Co919 1.966 . S
O922 C920 1.263 . S
C923 O924 1.235 . S
C923 O950 1.289 . S
O924 C923 1.235 . S
C925 C927 1.400 . S
C925 N928 1.351 . S
C925 C930 1.501 . S
C926 C927 1.387 . S
C926 N929 1.341 . S
C927 C925 1.400 . S
C927 C926 1.387 . S
N928 Co919 2.022 . S
N928 C925 1.351 . S
N928 N929 1.365 . S
N929 C926 1.341 . S
N929 N928 1.365 . S
N929 H949 0.862 . S
C930 C925 1.501 . S
C930 H931 0.961 . S
C930 H932 0.961 . S
C930 H933 0.960 . S
H931 C930 0.961 . S
H932 C930 0.961 . S
H933 C930 0.960 . S
C934 N935 1.342 . S
C934 C938 1.401 . S
C934 C939 1.499 . S
N935 Co918 1.989 . S
N935 C934 1.342 . S
N935 N936 1.388 . S
N936 Co919 1.993 . S
N936 N935 1.388 . S
N936 C937 1.346 . S
C937 N936 1.346 . S
C937 C938 1.396 . S
C937 C947 1.510 . S
C938 C934 1.401 . S
C938 C937 1.396 . S
C939 C934 1.499 . S
C939 H940 0.959 . S
C939 H941 0.960 . S
C939 H942 0.961 . S
H940 C939 0.959 . S
H941 C939 0.960 . S
H942 C939 0.961 . S
O943 Co918 1.967 . S
O943 C951 1.258 . S
O944 Co919 1.941 . S
O944 C951 1.266 . S
H945 C947 0.959 . S
H946 C947 0.961 . S
C947 C937 1.510 . S
C947 H945 0.959 . S
C947 H946 0.961 . S
C947 H948 0.960 . S
H948 C947 0.960 . S
H949 N929 0.862 . S
O950 Co918 1.920 . S
O950 C923 1.289 . S
C951 O943 1.258 . S
C951 O944 1.266 . S
Co952 O955 1.970 . S
Co952 N969 1.989 . S
Co952 O977 1.967 . S
Co952 O984 1.920 . S
Co953 O956 1.966 . S
Co953 N962 2.022 . S
Co953 N970 1.993 . S
Co953 O978 1.941 . S
C954 O955 1.258 . S
C954 O956 1.263 . S
O955 Co952 1.970 . S
O955 C954 1.258 . S
O956 Co953 1.966 . S
O956 C954 1.263 . S
C957 O958 1.235 . S
C957 O984 1.289 . S
O958 C957 1.235 . S
C959 C961 1.400 . S
C959 N962 1.351 . S
C959 C964 1.501 . S
C960 C961 1.387 . S
C960 N963 1.341 . S
C961 C959 1.400 . S
C961 C960 1.387 . S
N962 Co953 2.022 . S
N962 C959 1.351 . S
N962 N963 1.365 . S
N963 C960 1.341 . S
N963 N962 1.365 . S
N963 H983 0.862 . S
C964 C959 1.501 . S
C964 H965 0.961 . S
C964 H966 0.961 . S
C964 H967 0.960 . S
H965 C964 0.961 . S
H966 C964 0.961 . S
H967 C964 0.960 . S
C968 N969 1.342 . S
C968 C972 1.401 . S
C968 C973 1.499 . S
N969 Co952 1.989 . S
N969 C968 1.342 . S
N969 N970 1.388 . S
N970 Co953 1.993 . S
N970 N969 1.388 . S
N970 C971 1.346 . S
C971 N970 1.346 . S
C971 C972 1.396 . S
C971 C981 1.510 . S
C972 C968 1.401 . S
C972 C971 1.396 . S
C973 C968 1.499 . S
C973 H974 0.959 . S
C973 H975 0.960 . S
C973 H976 0.961 . S
H974 C973 0.959 . S
H975 C973 0.960 . S
H976 C973 0.961 . S
O977 Co952 1.967 . S
O977 C985 1.258 . S
O978 Co953 1.941 . S
O978 C985 1.266 . S
H979 C981 0.959 . S
H980 C981 0.961 . S
C981 C971 1.510 . S
C981 H979 0.959 . S
C981 H980 0.961 . S
C981 H982 0.960 . S
H982 C981 0.960 . S
H983 N963 0.862 . S
O984 Co952 1.920 . S
O984 C957 1.289 . S
C985 O977 1.258 . S
C985 O978 1.266 . S
Co986 O989 1.970 . S
Co986 N1003 1.989 . S
Co986 O1011 1.967 . S
Co986 O1018 1.920 . S
Co987 O990 1.966 . S
Co987 N996 2.022 . S
Co987 N1004 1.993 . S
Co987 O1012 1.941 . S
C988 O989 1.258 . S
C988 O990 1.263 . S
O989 Co986 1.970 . S
O989 C988 1.258 . S
O990 Co987 1.966 . S
O990 C988 1.263 . S
C991 O992 1.235 . S
C991 O1018 1.289 . S
O992 C991 1.235 . S
C993 C995 1.400 . S
C993 N996 1.351 . S
C993 C998 1.501 . S
C994 C995 1.387 . S
C994 N997 1.341 . S
C995 C993 1.400 . S
C995 C994 1.387 . S
N996 Co987 2.022 . S
N996 C993 1.351 . S
N996 N997 1.365 . S
N997 C994 1.341 . S
N997 N996 1.365 . S
N997 H1017 0.862 . S
C998 C993 1.501 . S
C998 H999 0.961 . S
C998 H1000 0.961 . S
C998 H1001 0.960 . S
H999 C998 0.961 . S
H1000 C998 0.961 . S
H1001 C998 0.960 . S
C1002 N1003 1.342 . S
C1002 C1006 1.401 . S
C1002 C1007 1.499 . S
N1003 Co986 1.989 . S
N1003 C1002 1.342 . S
N1003 N1004 1.388 . S
N1004 Co987 1.993 . S
N1004 N1003 1.388 . S
N1004 C1005 1.346 . S
C1005 N1004 1.346 . S
C1005 C1006 1.396 . S
C1005 C1015 1.510 . S
C1006 C1002 1.401 . S
C1006 C1005 1.396 . S
C1007 C1002 1.499 . S
C1007 H1008 0.959 . S
C1007 H1009 0.960 . S
C1007 H1010 0.961 . S
H1008 C1007 0.959 . S
H1009 C1007 0.960 . S
H1010 C1007 0.961 . S
O1011 Co986 1.967 . S
O1011 C1019 1.258 . S
O1012 Co987 1.941 . S
O1012 C1019 1.266 . S
H1013 C1015 0.959 . S
H1014 C1015 0.961 . S
C1015 C1005 1.510 . S
C1015 H1013 0.959 . S
C1015 H1014 0.961 . S
C1015 H1016 0.960 . S
H1016 C1015 0.960 . S
H1017 N997 0.862 . S
O1018 Co986 1.920 . S
O1018 C991 1.289 . S
C1019 O1011 1.258 . S
C1019 O1012 1.266 . S
Co1020 O1023 1.970 . S
Co1020 N1037 1.989 . S
Co1020 O1045 1.967 . S
Co1020 O1052 1.920 . S
Co1021 O1024 1.966 . S
Co1021 N1030 2.022 . S
Co1021 N1038 1.993 . S
Co1021 O1046 1.941 . S
C1022 O1023 1.258 . S
C1022 O1024 1.263 . S
O1023 Co1020 1.970 . S
O1023 C1022 1.258 . S
O1024 Co1021 1.966 . S
O1024 C1022 1.263 . S
C1025 O1026 1.235 . S
C1025 O1052 1.289 . S
O1026 C1025 1.235 . S
C1027 C1029 1.400 . S
C1027 N1030 1.351 . S
C1027 C1032 1.501 . S
C1028 C1029 1.387 . S
C1028 N1031 1.341 . S
C1029 C1027 1.400 . S
C1029 C1028 1.387 . S
N1030 Co1021 2.022 . S
N1030 C1027 1.351 . S
N1030 N1031 1.365 . S
N1031 C1028 1.341 . S
N1031 N1030 1.365 . S
N1031 H1051 0.862 . S
C1032 C1027 1.501 . S
C1032 H1033 0.961 . S
C1032 H1034 0.961 . S
C1032 H1035 0.960 . S
H1033 C1032 0.961 . S
H1034 C1032 0.961 . S
H1035 C1032 0.960 . S
C1036 N1037 1.342 . S
C1036 C1040 1.401 . S
C1036 C1041 1.499 . S
N1037 Co1020 1.989 . S
N1037 C1036 1.342 . S
N1037 N1038 1.388 . S
N1038 Co1021 1.993 . S
N1038 N1037 1.388 . S
N1038 C1039 1.346 . S
C1039 N1038 1.346 . S
C1039 C1040 1.396 . S
C1039 C1049 1.510 . S
C1040 C1036 1.401 . S
C1040 C1039 1.396 . S
C1041 C1036 1.499 . S
C1041 H1042 0.959 . S
C1041 H1043 0.960 . S
C1041 H1044 0.961 . S
H1042 C1041 0.959 . S
H1043 C1041 0.960 . S
H1044 C1041 0.961 . S
O1045 Co1020 1.967 . S
O1045 C1053 1.258 . S
O1046 Co1021 1.941 . S
O1046 C1053 1.266 . S
H1047 C1049 0.959 . S
H1048 C1049 0.961 . S
C1049 C1039 1.510 . S
C1049 H1047 0.959 . S
C1049 H1048 0.961 . S
C1049 H1050 0.960 . S
H1050 C1049 0.960 . S
H1051 N1031 0.862 . S
O1052 Co1020 1.920 . S
O1052 C1025 1.289 . S
C1053 O1045 1.258 . S
C1053 O1046 1.266 . S
Co1054 O1057 1.970 . S
Co1054 N1071 1.989 . S
Co1054 O1079 1.967 . S
Co1054 O1086 1.920 . S
Co1055 O1058 1.966 . S
Co1055 N1064 2.022 . S
Co1055 N1072 1.993 . S
Co1055 O1080 1.941 . S
C1056 O1057 1.258 . S
C1056 O1058 1.263 . S
O1057 Co1054 1.970 . S
O1057 C1056 1.258 . S
O1058 Co1055 1.966 . S
O1058 C1056 1.263 . S
C1059 O1060 1.235 . S
C1059 O1086 1.289 . S
O1060 C1059 1.235 . S
C1061 C1063 1.400 . S
C1061 N1064 1.351 . S
C1061 C1066 1.501 . S
C1062 C1063 1.387 . S
C1062 N1065 1.341 . S
C1063 C1061 1.400 . S
C1063 C1062 1.387 . S
N1064 Co1055 2.022 . S
N1064 C1061 1.351 . S
N1064 N1065 1.365 . S
N1065 C1062 1.341 . S
N1065 N1064 1.365 . S
N1065 H1085 0.862 . S
C1066 C1061 1.501 . S
C1066 H1067 0.961 . S
C1066 H1068 0.961 . S
C1066 H1069 0.960 . S
H1067 C1066 0.961 . S
H1068 C1066 0.961 . S
H1069 C1066 0.960 . S
C1070 N1071 1.342 . S
C1070 C1074 1.401 . S
C1070 C1075 1.499 . S
N1071 Co1054 1.989 . S
N1071 C1070 1.342 . S
N1071 N1072 1.388 . S
N1072 Co1055 1.993 . S
N1072 N1071 1.388 . S
N1072 C1073 1.346 . S
C1073 N1072 1.346 . S
C1073 C1074 1.396 . S
C1073 C1083 1.510 . S
C1074 C1070 1.401 . S
C1074 C1073 1.396 . S
C1075 C1070 1.499 . S
C1075 H1076 0.959 . S
C1075 H1077 0.960 . S
C1075 H1078 0.961 . S
H1076 C1075 0.959 . S
H1077 C1075 0.960 . S
H1078 C1075 0.961 . S
O1079 Co1054 1.967 . S
O1079 C1087 1.258 . S
O1080 Co1055 1.941 . S
O1080 C1087 1.266 . S
H1081 C1083 0.959 . S
H1082 C1083 0.961 . S
C1083 C1073 1.510 . S
C1083 H1081 0.959 . S
C1083 H1082 0.961 . S
C1083 H1084 0.960 . S
H1084 C1083 0.960 . S
H1085 N1065 0.862 . S
O1086 Co1054 1.920 . S
O1086 C1059 1.289 . S
C1087 O1079 1.258 . S
C1087 O1080 1.266 . S
Co1088 O1091 1.970 . S
Co1088 N1105 1.989 . S
Co1088 O1113 1.967 . S
Co1088 O1120 1.920 . S
Co1089 O1092 1.966 . S
Co1089 N1098 2.022 . S
Co1089 N1106 1.993 . S
Co1089 O1114 1.941 . S
C1090 O1091 1.258 . S
C1090 O1092 1.263 . S
O1091 Co1088 1.970 . S
O1091 C1090 1.258 . S
O1092 Co1089 1.966 . S
O1092 C1090 1.263 . S
C1093 O1094 1.235 . S
C1093 O1120 1.289 . S
O1094 C1093 1.235 . S
C1095 C1097 1.400 . S
C1095 N1098 1.351 . S
C1095 C1100 1.501 . S
C1096 C1097 1.387 . S
C1096 N1099 1.341 . S
C1097 C1095 1.400 . S
C1097 C1096 1.387 . S
N1098 Co1089 2.022 . S
N1098 C1095 1.351 . S
N1098 N1099 1.365 . S
N1099 C1096 1.341 . S
N1099 N1098 1.365 . S
N1099 H1119 0.862 . S
C1100 C1095 1.501 . S
C1100 H1101 0.961 . S
C1100 H1102 0.961 . S
C1100 H1103 0.960 . S
H1101 C1100 0.961 . S
H1102 C1100 0.961 . S
H1103 C1100 0.960 . S
C1104 N1105 1.342 . S
C1104 C1108 1.401 . S
C1104 C1109 1.499 . S
N1105 Co1088 1.989 . S
N1105 C1104 1.342 . S
N1105 N1106 1.388 . S
N1106 Co1089 1.993 . S
N1106 N1105 1.388 . S
N1106 C1107 1.346 . S
C1107 N1106 1.346 . S
C1107 C1108 1.396 . S
C1107 C1117 1.510 . S
C1108 C1104 1.401 . S
C1108 C1107 1.396 . S
C1109 C1104 1.499 . S
C1109 H1110 0.959 . S
C1109 H1111 0.960 . S
C1109 H1112 0.961 . S
H1110 C1109 0.959 . S
H1111 C1109 0.960 . S
H1112 C1109 0.961 . S
O1113 Co1088 1.967 . S
O1113 C1121 1.258 . S
O1114 Co1089 1.941 . S
O1114 C1121 1.266 . S
H1115 C1117 0.959 . S
H1116 C1117 0.961 . S
C1117 C1107 1.510 . S
C1117 H1115 0.959 . S
C1117 H1116 0.961 . S
C1117 H1118 0.960 . S
H1118 C1117 0.960 . S
H1119 N1099 0.862 . S
O1120 Co1088 1.920 . S
O1120 C1093 1.289 . S
C1121 O1113 1.258 . S
C1121 O1114 1.266 . S
Co1122 O1125 1.970 . S
Co1122 N1139 1.989 . S
Co1122 O1147 1.967 . S
Co1122 O1154 1.920 . S
Co1123 O1126 1.966 . S
Co1123 N1132 2.022 . S
Co1123 N1140 1.993 . S
Co1123 O1148 1.941 . S
C1124 O1125 1.258 . S
C1124 O1126 1.263 . S
O1125 Co1122 1.970 . S
O1125 C1124 1.258 . S
O1126 Co1123 1.966 . S
O1126 C1124 1.263 . S
C1127 O1128 1.235 . S
C1127 O1154 1.289 . S
O1128 C1127 1.235 . S
C1129 C1131 1.400 . S
C1129 N1132 1.351 . S
C1129 C1134 1.501 . S
C1130 C1131 1.387 . S
C1130 N1133 1.341 . S
C1131 C1129 1.400 . S
C1131 C1130 1.387 . S
N1132 Co1123 2.022 . S
N1132 C1129 1.351 . S
N1132 N1133 1.365 . S
N1133 C1130 1.341 . S
N1133 N1132 1.365 . S
N1133 H1153 0.862 . S
C1134 C1129 1.501 . S
C1134 H1135 0.961 . S
C1134 H1136 0.961 . S
C1134 H1137 0.960 . S
H1135 C1134 0.961 . S
H1136 C1134 0.961 . S
H1137 C1134 0.960 . S
C1138 N1139 1.342 . S
C1138 C1142 1.401 . S
C1138 C1143 1.499 . S
N1139 Co1122 1.989 . S
N1139 C1138 1.342 . S
N1139 N1140 1.388 . S
N1140 Co1123 1.993 . S
N1140 N1139 1.388 . S
N1140 C1141 1.346 . S
C1141 N1140 1.346 . S
C1141 C1142 1.396 . S
C1141 C1151 1.510 . S
C1142 C1138 1.401 . S
C1142 C1141 1.396 . S
C1143 C1138 1.499 . S
C1143 H1144 0.959 . S
C1143 H1145 0.960 . S
C1143 H1146 0.961 . S
H1144 C1143 0.959 . S
H1145 C1143 0.960 . S
H1146 C1143 0.961 . S
O1147 Co1122 1.967 . S
O1147 C1155 1.258 . S
O1148 Co1123 1.941 . S
O1148 C1155 1.266 . S
H1149 C1151 0.959 . S
H1150 C1151 0.961 . S
C1151 C1141 1.510 . S
C1151 H1149 0.959 . S
C1151 H1150 0.961 . S
C1151 H1152 0.960 . S
H1152 C1151 0.960 . S
H1153 N1133 0.862 . S
O1154 Co1122 1.920 . S
O1154 C1127 1.289 . S
C1155 O1147 1.258 . S
C1155 O1148 1.266 . S
Co1156 O1159 1.970 . S
Co1156 N1173 1.989 . S
Co1156 O1181 1.967 . S
Co1156 O1188 1.920 . S
Co1157 O1160 1.966 . S
Co1157 N1166 2.022 . S
Co1157 N1174 1.993 . S
Co1157 O1182 1.941 . S
C1158 O1159 1.258 . S
C1158 O1160 1.263 . S
O1159 Co1156 1.970 . S
O1159 C1158 1.258 . S
O1160 Co1157 1.966 . S
O1160 C1158 1.263 . S
C1161 O1162 1.235 . S
C1161 O1188 1.289 . S
O1162 C1161 1.235 . S
C1163 C1165 1.400 . S
C1163 N1166 1.351 . S
C1163 C1168 1.501 . S
C1164 C1165 1.387 . S
C1164 N1167 1.341 . S
C1165 C1163 1.400 . S
C1165 C1164 1.387 . S
N1166 Co1157 2.022 . S
N1166 C1163 1.351 . S
N1166 N1167 1.365 . S
N1167 C1164 1.341 . S
N1167 N1166 1.365 . S
N1167 H1187 0.862 . S
C1168 C1163 1.501 . S
C1168 H1169 0.961 . S
C1168 H1170 0.961 . S
C1168 H1171 0.960 . S
H1169 C1168 0.961 . S
H1170 C1168 0.961 . S
H1171 C1168 0.960 . S
C1172 N1173 1.342 . S
C1172 C1176 1.401 . S
C1172 C1177 1.499 . S
N1173 Co1156 1.989 . S
N1173 C1172 1.342 . S
N1173 N1174 1.388 . S
N1174 Co1157 1.993 . S
N1174 N1173 1.388 . S
N1174 C1175 1.346 . S
C1175 N1174 1.346 . S
C1175 C1176 1.396 . S
C1175 C1185 1.510 . S
C1176 C1172 1.401 . S
C1176 C1175 1.396 . S
C1177 C1172 1.499 . S
C1177 H1178 0.959 . S
C1177 H1179 0.960 . S
C1177 H1180 0.961 . S
H1178 C1177 0.959 . S
H1179 C1177 0.960 . S
H1180 C1177 0.961 . S
O1181 Co1156 1.967 . S
O1181 C1189 1.258 . S
O1182 Co1157 1.941 . S
O1182 C1189 1.266 . S
H1183 C1185 0.959 . S
H1184 C1185 0.961 . S
C1185 C1175 1.510 . S
C1185 H1183 0.959 . S
C1185 H1184 0.961 . S
C1185 H1186 0.960 . S
H1186 C1185 0.960 . S
H1187 N1167 0.862 . S
O1188 Co1156 1.920 . S
O1188 C1161 1.289 . S
C1189 O1181 1.258 . S
C1189 O1182 1.266 . S
Co1190 O1193 1.970 . S
Co1190 N1207 1.989 . S
Co1190 O1215 1.967 . S
Co1190 O1222 1.920 . S
Co1191 O1194 1.966 . S
Co1191 N1200 2.022 . S
Co1191 N1208 1.993 . S
Co1191 O1216 1.941 . S
C1192 O1193 1.258 . S
C1192 O1194 1.263 . S
O1193 Co1190 1.970 . S
O1193 C1192 1.258 . S
O1194 Co1191 1.966 . S
O1194 C1192 1.263 . S
C1195 O1196 1.235 . S
C1195 O1222 1.289 . S
O1196 C1195 1.235 . S
C1197 C1199 1.400 . S
C1197 N1200 1.351 . S
C1197 C1202 1.501 . S
C1198 C1199 1.387 . S
C1198 N1201 1.341 . S
C1199 C1197 1.400 . S
C1199 C1198 1.387 . S
N1200 Co1191 2.022 . S
N1200 C1197 1.351 . S
N1200 N1201 1.365 . S
N1201 C1198 1.341 . S
N1201 N1200 1.365 . S
N1201 H1221 0.862 . S
C1202 C1197 1.501 . S
C1202 H1203 0.961 . S
C1202 H1204 0.961 . S
C1202 H1205 0.960 . S
H1203 C1202 0.961 . S
H1204 C1202 0.961 . S
H1205 C1202 0.960 . S
C1206 N1207 1.342 . S
C1206 C1210 1.401 . S
C1206 C1211 1.499 . S
N1207 Co1190 1.989 . S
N1207 C1206 1.342 . S
N1207 N1208 1.388 . S
N1208 Co1191 1.993 . S
N1208 N1207 1.388 . S
N1208 C1209 1.346 . S
C1209 N1208 1.346 . S
C1209 C1210 1.396 . S
C1209 C1219 1.510 . S
C1210 C1206 1.401 . S
C1210 C1209 1.396 . S
C1211 C1206 1.499 . S
C1211 H1212 0.959 . S
C1211 H1213 0.960 . S
C1211 H1214 0.961 . S
H1212 C1211 0.959 . S
H1213 C1211 0.960 . S
H1214 C1211 0.961 . S
O1215 Co1190 1.967 . S
O1215 C1223 1.258 . S
O1216 Co1191 1.941 . S
O1216 C1223 1.266 . S
H1217 C1219 0.959 . S
H1218 C1219 0.961 . S
C1219 C1209 1.510 . S
C1219 H1217 0.959 . S
C1219 H1218 0.961 . S
C1219 H1220 0.960 . S
H1220 C1219 0.960 . S
H1221 N1201 0.862 . S
O1222 Co1190 1.920 . S
O1222 C1195 1.289 . S
C1223 O1215 1.258 . S
C1223 O1216 1.266 . S
Co1224 O1227 1.970 . S
Co1224 N1241 1.989 . S
Co1224 O1249 1.967 . S
Co1224 O1256 1.920 . S
Co1225 O1228 1.966 . S
Co1225 N1234 2.022 . S
Co1225 N1242 1.993 . S
Co1225 O1250 1.941 . S
C1226 O1227 1.258 . S
C1226 O1228 1.263 . S
O1227 Co1224 1.970 . S
O1227 C1226 1.258 . S
O1228 Co1225 1.966 . S
O1228 C1226 1.263 . S
C1229 O1230 1.235 . S
C1229 O1256 1.289 . S
O1230 C1229 1.235 . S
C1231 C1233 1.400 . S
C1231 N1234 1.351 . S
C1231 C1236 1.501 . S
C1232 C1233 1.387 . S
C1232 N1235 1.341 . S
C1233 C1231 1.400 . S
C1233 C1232 1.387 . S
N1234 Co1225 2.022 . S
N1234 C1231 1.351 . S
N1234 N1235 1.365 . S
N1235 C1232 1.341 . S
N1235 N1234 1.365 . S
N1235 H1255 0.862 . S
C1236 C1231 1.501 . S
C1236 H1237 0.961 . S
C1236 H1238 0.961 . S
C1236 H1239 0.960 . S
H1237 C1236 0.961 . S
H1238 C1236 0.961 . S
H1239 C1236 0.960 . S
C1240 N1241 1.342 . S
C1240 C1244 1.401 . S
C1240 C1245 1.499 . S
N1241 Co1224 1.989 . S
N1241 C1240 1.342 . S
N1241 N1242 1.388 . S
N1242 Co1225 1.993 . S
N1242 N1241 1.388 . S
N1242 C1243 1.346 . S
C1243 N1242 1.346 . S
C1243 C1244 1.396 . S
C1243 C1253 1.510 . S
C1244 C1240 1.401 . S
C1244 C1243 1.396 . S
C1245 C1240 1.499 . S
C1245 H1246 0.959 . S
C1245 H1247 0.960 . S
C1245 H1248 0.961 . S
H1246 C1245 0.959 . S
H1247 C1245 0.960 . S
H1248 C1245 0.961 . S
O1249 Co1224 1.967 . S
O1249 C1257 1.258 . S
O1250 Co1225 1.941 . S
O1250 C1257 1.266 . S
H1251 C1253 0.959 . S
H1252 C1253 0.961 . S
C1253 C1243 1.510 . S
C1253 H1251 0.959 . S
C1253 H1252 0.961 . S
C1253 H1254 0.960 . S
H1254 C1253 0.960 . S
H1255 N1235 0.862 . S
O1256 Co1224 1.920 . S
O1256 C1229 1.289 . S
C1257 O1249 1.258 . S
C1257 O1250 1.266 . S
Co1258 O1261 1.970 . S
Co1258 N1275 1.989 . S
Co1258 O1283 1.967 . S
Co1258 O1290 1.920 . S
Co1259 O1262 1.966 . S
Co1259 N1268 2.022 . S
Co1259 N1276 1.993 . S
Co1259 O1284 1.941 . S
C1260 O1261 1.258 . S
C1260 O1262 1.263 . S
O1261 Co1258 1.970 . S
O1261 C1260 1.258 . S
O1262 Co1259 1.966 . S
O1262 C1260 1.263 . S
C1263 O1264 1.235 . S
C1263 O1290 1.289 . S
O1264 C1263 1.235 . S
C1265 C1267 1.400 . S
C1265 N1268 1.351 . S
C1265 C1270 1.501 . S
C1266 C1267 1.387 . S
C1266 N1269 1.341 . S
C1267 C1265 1.400 . S
C1267 C1266 1.387 . S
N1268 Co1259 2.022 . S
N1268 C1265 1.351 . S
N1268 N1269 1.365 . S
N1269 C1266 1.341 . S
N1269 N1268 1.365 . S
N1269 H1289 0.862 . S
C1270 C1265 1.501 . S
C1270 H1271 0.961 . S
C1270 H1272 0.961 . S
C1270 H1273 0.960 . S
H1271 C1270 0.961 . S
H1272 C1270 0.961 . S
H1273 C1270 0.960 . S
C1274 N1275 1.342 . S
C1274 C1278 1.401 . S
C1274 C1279 1.499 . S
N1275 Co1258 1.989 . S
N1275 C1274 1.342 . S
N1275 N1276 1.388 . S
N1276 Co1259 1.993 . S
N1276 N1275 1.388 . S
N1276 C1277 1.346 . S
C1277 N1276 1.346 . S
C1277 C1278 1.396 . S
C1277 C1287 1.510 . S
C1278 C1274 1.401 . S
C1278 C1277 1.396 . S
C1279 C1274 1.499 . S
C1279 H1280 0.959 . S
C1279 H1281 0.960 . S
C1279 H1282 0.961 . S
H1280 C1279 0.959 . S
H1281 C1279 0.960 . S
H1282 C1279 0.961 . S
O1283 Co1258 1.967 . S
O1283 C1291 1.258 . S
O1284 Co1259 1.941 . S
O1284 C1291 1.266 . S
H1285 C1287 0.959 . S
H1286 C1287 0.961 . S
C1287 C1277 1.510 . S
C1287 H1285 0.959 . S
C1287 H1286 0.961 . S
C1287 H1288 0.960 . S
H1288 C1287 0.960 . S
H1289 N1269 0.862 . S
O1290 Co1258 1.920 . S
O1290 C1263 1.289 . S
C1291 O1283 1.258 . S
C1291 O1284 1.266 . S
Co1292 O1295 1.970 . S
Co1292 N1309 1.989 . S
Co1292 O1317 1.967 . S
Co1292 O1324 1.920 . S
Co1293 O1296 1.966 . S
Co1293 N1302 2.022 . S
Co1293 N1310 1.993 . S
Co1293 O1318 1.941 . S
C1294 O1295 1.258 . S
C1294 O1296 1.263 . S
O1295 Co1292 1.970 . S
O1295 C1294 1.258 . S
O1296 Co1293 1.966 . S
O1296 C1294 1.263 . S
C1297 O1298 1.235 . S
C1297 O1324 1.289 . S
O1298 C1297 1.235 . S
C1299 C1301 1.400 . S
C1299 N1302 1.351 . S
C1299 C1304 1.501 . S
C1300 C1301 1.387 . S
C1300 N1303 1.341 . S
C1301 C1299 1.400 . S
C1301 C1300 1.387 . S
N1302 Co1293 2.022 . S
N1302 C1299 1.351 . S
N1302 N1303 1.365 . S
N1303 C1300 1.341 . S
N1303 N1302 1.365 . S
N1303 H1323 0.862 . S
C1304 C1299 1.501 . S
C1304 H1305 0.961 . S
C1304 H1306 0.961 . S
C1304 H1307 0.960 . S
H1305 C1304 0.961 . S
H1306 C1304 0.961 . S
H1307 C1304 0.960 . S
C1308 N1309 1.342 . S
C1308 C1312 1.401 . S
C1308 C1313 1.499 . S
N1309 Co1292 1.989 . S
N1309 C1308 1.342 . S
N1309 N1310 1.388 . S
N1310 Co1293 1.993 . S
N1310 N1309 1.388 . S
N1310 C1311 1.346 . S
C1311 N1310 1.346 . S
C1311 C1312 1.396 . S
C1311 C1321 1.510 . S
C1312 C1308 1.401 . S
C1312 C1311 1.396 . S
C1313 C1308 1.499 . S
C1313 H1314 0.959 . S
C1313 H1315 0.960 . S
C1313 H1316 0.961 . S
H1314 C1313 0.959 . S
H1315 C1313 0.960 . S
H1316 C1313 0.961 . S
O1317 Co1292 1.967 . S
O1317 C1325 1.258 . S
O1318 Co1293 1.941 . S
O1318 C1325 1.266 . S
H1319 C1321 0.959 . S
H1320 C1321 0.961 . S
C1321 C1311 1.510 . S
C1321 H1319 0.959 . S
C1321 H1320 0.961 . S
C1321 H1322 0.960 . S
H1322 C1321 0.960 . S
H1323 N1303 0.862 . S
O1324 Co1292 1.920 . S
O1324 C1297 1.289 . S
C1325 O1317 1.258 . S
C1325 O1318 1.266 . S
Co1326 O1329 1.970 . S
Co1326 N1343 1.989 . S
Co1326 O1351 1.967 . S
Co1326 O1358 1.920 . S
Co1327 O1330 1.966 . S
Co1327 N1336 2.022 . S
Co1327 N1344 1.993 . S
Co1327 O1352 1.941 . S
C1328 O1329 1.258 . S
C1328 O1330 1.263 . S
O1329 Co1326 1.970 . S
O1329 C1328 1.258 . S
O1330 Co1327 1.966 . S
O1330 C1328 1.263 . S
C1331 O1332 1.235 . S
C1331 O1358 1.289 . S
O1332 C1331 1.235 . S
C1333 C1335 1.400 . S
C1333 N1336 1.351 . S
C1333 C1338 1.501 . S
C1334 C1335 1.387 . S
C1334 N1337 1.341 . S
C1335 C1333 1.400 . S
C1335 C1334 1.387 . S
N1336 Co1327 2.022 . S
N1336 C1333 1.351 . S
N1336 N1337 1.365 . S
N1337 C1334 1.341 . S
N1337 N1336 1.365 . S
N1337 H1357 0.862 . S
C1338 C1333 1.501 . S
C1338 H1339 0.961 . S
C1338 H1340 0.961 . S
C1338 H1341 0.960 . S
H1339 C1338 0.961 . S
H1340 C1338 0.961 . S
H1341 C1338 0.960 . S
C1342 N1343 1.342 . S
C1342 C1346 1.401 . S
C1342 C1347 1.499 . S
N1343 Co1326 1.989 . S
N1343 C1342 1.342 . S
N1343 N1344 1.388 . S
N1344 Co1327 1.993 . S
N1344 N1343 1.388 . S
N1344 C1345 1.346 . S
C1345 N1344 1.346 . S
C1345 C1346 1.396 . S
C1345 C1355 1.510 . S
C1346 C1342 1.401 . S
C1346 C1345 1.396 . S
C1347 C1342 1.499 . S
C1347 H1348 0.959 . S
C1347 H1349 0.960 . S
C1347 H1350 0.961 . S
H1348 C1347 0.959 . S
H1349 C1347 0.960 . S
H1350 C1347 0.961 . S
O1351 Co1326 1.967 . S
O1351 C1359 1.258 . S
O1352 Co1327 1.941 . S
O1352 C1359 1.266 . S
H1353 C1355 0.959 . S
H1354 C1355 0.961 . S
C1355 C1345 1.510 . S
C1355 H1353 0.959 . S
C1355 H1354 0.961 . S
C1355 H1356 0.960 . S
H1356 C1355 0.960 . S
H1357 N1337 0.862 . S
O1358 Co1326 1.920 . S
O1358 C1331 1.289 . S
C1359 O1351 1.258 . S
C1359 O1352 1.266 . S
Co1360 O1363 1.970 . S
Co1360 N1377 1.989 . S
Co1360 O1385 1.967 . S
Co1360 O1392 1.920 . S
Co1361 O1364 1.966 . S
Co1361 N1370 2.022 . S
Co1361 N1378 1.993 . S
Co1361 O1386 1.941 . S
C1362 O1363 1.258 . S
C1362 O1364 1.263 . S
O1363 Co1360 1.970 . S
O1363 C1362 1.258 . S
O1364 Co1361 1.966 . S
O1364 C1362 1.263 . S
C1365 O1366 1.235 . S
C1365 O1392 1.289 . S
O1366 C1365 1.235 . S
C1367 C1369 1.400 . S
C1367 N1370 1.351 . S
C1367 C1372 1.501 . S
C1368 C1369 1.387 . S
C1368 N1371 1.341 . S
C1369 C1367 1.400 . S
C1369 C1368 1.387 . S
N1370 Co1361 2.022 . S
N1370 C1367 1.351 . S
N1370 N1371 1.365 . S
N1371 C1368 1.341 . S
N1371 N1370 1.365 . S
N1371 H1391 0.862 . S
C1372 C1367 1.501 . S
C1372 H1373 0.961 . S
C1372 H1374 0.961 . S
C1372 H1375 0.960 . S
H1373 C1372 0.961 . S
H1374 C1372 0.961 . S
H1375 C1372 0.960 . S
C1376 N1377 1.342 . S
C1376 C1380 1.401 . S
C1376 C1381 1.499 . S
N1377 Co1360 1.989 . S
N1377 C1376 1.342 . S
N1377 N1378 1.388 . S
N1378 Co1361 1.993 . S
N1378 N1377 1.388 . S
N1378 C1379 1.346 . S
C1379 N1378 1.346 . S
C1379 C1380 1.396 . S
C1379 C1389 1.510 . S
C1380 C1376 1.401 . S
C1380 C1379 1.396 . S
C1381 C1376 1.499 . S
C1381 H1382 0.959 . S
C1381 H1383 0.960 . S
C1381 H1384 0.961 . S
H1382 C1381 0.959 . S
H1383 C1381 0.960 . S
H1384 C1381 0.961 . S
O1385 Co1360 1.967 . S
O1385 C1393 1.258 . S
O1386 Co1361 1.941 . S
O1386 C1393 1.266 . S
H1387 C1389 0.959 . S
H1388 C1389 0.961 . S
C1389 C1379 1.510 . S
C1389 H1387 0.959 . S
C1389 H1388 0.961 . S
C1389 H1390 0.960 . S
H1390 C1389 0.960 . S
H1391 N1371 0.862 . S
O1392 Co1360 1.920 . S
O1392 C1365 1.289 . S
C1393 O1385 1.258 . S
C1393 O1386 1.266 . S
Co1394 O1397 1.970 . S
Co1394 N1411 1.989 . S
Co1394 O1419 1.967 . S
Co1394 O1426 1.920 . S
Co1395 O1398 1.966 . S
Co1395 N1404 2.022 . S
Co1395 N1412 1.993 . S
Co1395 O1420 1.941 . S
C1396 O1397 1.258 . S
C1396 O1398 1.263 . S
O1397 Co1394 1.970 . S
O1397 C1396 1.258 . S
O1398 Co1395 1.966 . S
O1398 C1396 1.263 . S
C1399 O1400 1.235 . S
C1399 O1426 1.289 . S
O1400 C1399 1.235 . S
C1401 C1403 1.400 . S
C1401 N1404 1.351 . S
C1401 C1406 1.501 . S
C1402 C1403 1.387 . S
C1402 N1405 1.341 . S
C1403 C1401 1.400 . S
C1403 C1402 1.387 . S
N1404 Co1395 2.022 . S
N1404 C1401 1.351 . S
N1404 N1405 1.365 . S
N1405 C1402 1.341 . S
N1405 N1404 1.365 . S
N1405 H1425 0.862 . S
C1406 C1401 1.501 . S
C1406 H1407 0.961 . S
C1406 H1408 0.961 . S
C1406 H1409 0.960 . S
H1407 C1406 0.961 . S
H1408 C1406 0.961 . S
H1409 C1406 0.960 . S
C1410 N1411 1.342 . S
C1410 C1414 1.401 . S
C1410 C1415 1.499 . S
N1411 Co1394 1.989 . S
N1411 C1410 1.342 . S
N1411 N1412 1.388 . S
N1412 Co1395 1.993 . S
N1412 N1411 1.388 . S
N1412 C1413 1.346 . S
C1413 N1412 1.346 . S
C1413 C1414 1.396 . S
C1413 C1423 1.510 . S
C1414 C1410 1.401 . S
C1414 C1413 1.396 . S
C1415 C1410 1.499 . S
C1415 H1416 0.959 . S
C1415 H1417 0.960 . S
C1415 H1418 0.961 . S
H1416 C1415 0.959 . S
H1417 C1415 0.960 . S
H1418 C1415 0.961 . S
O1419 Co1394 1.967 . S
O1419 C1427 1.258 . S
O1420 Co1395 1.941 . S
O1420 C1427 1.266 . S
H1421 C1423 0.959 . S
H1422 C1423 0.961 . S
C1423 C1413 1.510 . S
C1423 H1421 0.959 . S
C1423 H1422 0.961 . S
C1423 H1424 0.960 . S
H1424 C1423 0.960 . S
H1425 N1405 0.862 . S
O1426 Co1394 1.920 . S
O1426 C1399 1.289 . S
C1427 O1419 1.258 . S
C1427 O1420 1.266 . S
Co1428 O1431 1.970 . S
Co1428 N1445 1.989 . S
Co1428 O1453 1.967 . S
Co1428 O1460 1.920 . S
Co1429 O1432 1.966 . S
Co1429 N1438 2.022 . S
Co1429 N1446 1.993 . S
Co1429 O1454 1.941 . S
C1430 O1431 1.258 . S
C1430 O1432 1.263 . S
O1431 Co1428 1.970 . S
O1431 C1430 1.258 . S
O1432 Co1429 1.966 . S
O1432 C1430 1.263 . S
C1433 O1434 1.235 . S
C1433 O1460 1.289 . S
O1434 C1433 1.235 . S
C1435 C1437 1.400 . S
C1435 N1438 1.351 . S
C1435 C1440 1.501 . S
C1436 C1437 1.387 . S
C1436 N1439 1.341 . S
C1437 C1435 1.400 . S
C1437 C1436 1.387 . S
N1438 Co1429 2.022 . S
N1438 C1435 1.351 . S
N1438 N1439 1.365 . S
N1439 C1436 1.341 . S
N1439 N1438 1.365 . S
N1439 H1459 0.862 . S
C1440 C1435 1.501 . S
C1440 H1441 0.961 . S
C1440 H1442 0.961 . S
C1440 H1443 0.960 . S
H1441 C1440 0.961 . S
H1442 C1440 0.961 . S
H1443 C1440 0.960 . S
C1444 N1445 1.342 . S
C1444 C1448 1.401 . S
C1444 C1449 1.499 . S
N1445 Co1428 1.989 . S
N1445 C1444 1.342 . S
N1445 N1446 1.388 . S
N1446 Co1429 1.993 . S
N1446 N1445 1.388 . S
N1446 C1447 1.346 . S
C1447 N1446 1.346 . S
C1447 C1448 1.396 . S
C1447 C1457 1.510 . S
C1448 C1444 1.401 . S
C1448 C1447 1.396 . S
C1449 C1444 1.499 . S
C1449 H1450 0.959 . S
C1449 H1451 0.960 . S
C1449 H1452 0.961 . S
H1450 C1449 0.959 . S
H1451 C1449 0.960 . S
H1452 C1449 0.961 . S
O1453 Co1428 1.967 . S
O1453 C1461 1.258 . S
O1454 Co1429 1.941 . S
O1454 C1461 1.266 . S
H1455 C1457 0.959 . S
H1456 C1457 0.961 . S
C1457 C1447 1.510 . S
C1457 H1455 0.959 . S
C1457 H1456 0.961 . S
C1457 H1458 0.960 . S
H1458 C1457 0.960 . S
H1459 N1439 0.862 . S
O1460 Co1428 1.920 . S
O1460 C1433 1.289 . S
C1461 O1453 1.258 . S
C1461 O1454 1.266 . S
Co1462 O1465 1.970 . S
Co1462 N1479 1.989 . S
Co1462 O1487 1.967 . S
Co1462 O1494 1.920 . S
Co1463 O1466 1.966 . S
Co1463 N1472 2.022 . S
Co1463 N1480 1.993 . S
Co1463 O1488 1.941 . S
C1464 O1465 1.258 . S
C1464 O1466 1.263 . S
O1465 Co1462 1.970 . S
O1465 C1464 1.258 . S
O1466 Co1463 1.966 . S
O1466 C1464 1.263 . S
C1467 O1468 1.235 . S
C1467 O1494 1.289 . S
O1468 C1467 1.235 . S
C1469 C1471 1.400 . S
C1469 N1472 1.351 . S
C1469 C1474 1.501 . S
C1470 C1471 1.387 . S
C1470 N1473 1.341 . S
C1471 C1469 1.400 . S
C1471 C1470 1.387 . S
N1472 Co1463 2.022 . S
N1472 C1469 1.351 . S
N1472 N1473 1.365 . S
N1473 C1470 1.341 . S
N1473 N1472 1.365 . S
N1473 H1493 0.862 . S
C1474 C1469 1.501 . S
C1474 H1475 0.961 . S
C1474 H1476 0.961 . S
C1474 H1477 0.960 . S
H1475 C1474 0.961 . S
H1476 C1474 0.961 . S
H1477 C1474 0.960 . S
C1478 N1479 1.342 . S
C1478 C1482 1.401 . S
C1478 C1483 1.499 . S
N1479 Co1462 1.989 . S
N1479 C1478 1.342 . S
N1479 N1480 1.388 . S
N1480 Co1463 1.993 . S
N1480 N1479 1.388 . S
N1480 C1481 1.346 . S
C1481 N1480 1.346 . S
C1481 C1482 1.396 . S
C1481 C1491 1.510 . S
C1482 C1478 1.401 . S
C1482 C1481 1.396 . S
C1483 C1478 1.499 . S
C1483 H1484 0.959 . S
C1483 H1485 0.960 . S
C1483 H1486 0.961 . S
H1484 C1483 0.959 . S
H1485 C1483 0.960 . S
H1486 C1483 0.961 . S
O1487 Co1462 1.967 . S
O1487 C1495 1.258 . S
O1488 Co1463 1.941 . S
O1488 C1495 1.266 . S
H1489 C1491 0.959 . S
H1490 C1491 0.961 . S
C1491 C1481 1.510 . S
C1491 H1489 0.959 . S
C1491 H1490 0.961 . S
C1491 H1492 0.960 . S
H1492 C1491 0.960 . S
H1493 N1473 0.862 . S
O1494 Co1462 1.920 . S
O1494 C1467 1.289 . S
C1495 O1487 1.258 . S
C1495 O1488 1.266 . S
Co1496 O1499 1.970 . S
Co1496 N1513 1.989 . S
Co1496 O1521 1.967 . S
Co1496 O1528 1.920 . S
Co1497 O1500 1.966 . S
Co1497 N1506 2.022 . S
Co1497 N1514 1.993 . S
Co1497 O1522 1.941 . S
C1498 O1499 1.258 . S
C1498 O1500 1.263 . S
O1499 Co1496 1.970 . S
O1499 C1498 1.258 . S
O1500 Co1497 1.966 . S
O1500 C1498 1.263 . S
C1501 O1502 1.235 . S
C1501 O1528 1.289 . S
O1502 C1501 1.235 . S
C1503 C1505 1.400 . S
C1503 N1506 1.351 . S
C1503 C1508 1.501 . S
C1504 C1505 1.387 . S
C1504 N1507 1.341 . S
C1505 C1503 1.400 . S
C1505 C1504 1.387 . S
N1506 Co1497 2.022 . S
N1506 C1503 1.351 . S
N1506 N1507 1.365 . S
N1507 C1504 1.341 . S
N1507 N1506 1.365 . S
N1507 H1527 0.862 . S
C1508 C1503 1.501 . S
C1508 H1509 0.961 . S
C1508 H1510 0.961 . S
C1508 H1511 0.960 . S
H1509 C1508 0.961 . S
H1510 C1508 0.961 . S
H1511 C1508 0.960 . S
C1512 N1513 1.342 . S
C1512 C1516 1.401 . S
C1512 C1517 1.499 . S
N1513 Co1496 1.989 . S
N1513 C1512 1.342 . S
N1513 N1514 1.388 . S
N1514 Co1497 1.993 . S
N1514 N1513 1.388 . S
N1514 C1515 1.346 . S
C1515 N1514 1.346 . S
C1515 C1516 1.396 . S
C1515 C1525 1.510 . S
C1516 C1512 1.401 . S
C1516 C1515 1.396 . S
C1517 C1512 1.499 . S
C1517 H1518 0.959 . S
C1517 H1519 0.960 . S
C1517 H1520 0.961 . S
H1518 C1517 0.959 . S
H1519 C1517 0.960 . S
H1520 C1517 0.961 . S
O1521 Co1496 1.967 . S
O1521 C1529 1.258 . S
O1522 Co1497 1.941 . S
O1522 C1529 1.266 . S
H1523 C1525 0.959 . S
H1524 C1525 0.961 . S
C1525 C1515 1.510 . S
C1525 H1523 0.959 . S
C1525 H1524 0.961 . S
C1525 H1526 0.960 . S
H1526 C1525 0.960 . S
H1527 N1507 0.862 . S
O1528 Co1496 1.920 . S
O1528 C1501 1.289 . S
C1529 O1521 1.258 . S
C1529 O1522 1.266 . S
Co1530 O1533 1.970 . S
Co1530 N1547 1.989 . S
Co1530 O1555 1.967 . S
Co1530 O1562 1.920 . S
Co1531 O1534 1.966 . S
Co1531 N1540 2.022 . S
Co1531 N1548 1.993 . S
Co1531 O1556 1.941 . S
C1532 O1533 1.258 . S
C1532 O1534 1.263 . S
O1533 Co1530 1.970 . S
O1533 C1532 1.258 . S
O1534 Co1531 1.966 . S
O1534 C1532 1.263 . S
C1535 O1536 1.235 . S
C1535 O1562 1.289 . S
O1536 C1535 1.235 . S
C1537 C1539 1.400 . S
C1537 N1540 1.351 . S
C1537 C1542 1.501 . S
C1538 C1539 1.387 . S
C1538 N1541 1.341 . S
C1539 C1537 1.400 . S
C1539 C1538 1.387 . S
N1540 Co1531 2.022 . S
N1540 C1537 1.351 . S
N1540 N1541 1.365 . S
N1541 C1538 1.341 . S
N1541 N1540 1.365 . S
N1541 H1561 0.862 . S
C1542 C1537 1.501 . S
C1542 H1543 0.961 . S
C1542 H1544 0.961 . S
C1542 H1545 0.960 . S
H1543 C1542 0.961 . S
H1544 C1542 0.961 . S
H1545 C1542 0.960 . S
C1546 N1547 1.342 . S
C1546 C1550 1.401 . S
C1546 C1551 1.499 . S
N1547 Co1530 1.989 . S
N1547 C1546 1.342 . S
N1547 N1548 1.388 . S
N1548 Co1531 1.993 . S
N1548 N1547 1.388 . S
N1548 C1549 1.346 . S
C1549 N1548 1.346 . S
C1549 C1550 1.396 . S
C1549 C1559 1.510 . S
C1550 C1546 1.401 . S
C1550 C1549 1.396 . S
C1551 C1546 1.499 . S
C1551 H1552 0.959 . S
C1551 H1553 0.960 . S
C1551 H1554 0.961 . S
H1552 C1551 0.959 . S
H1553 C1551 0.960 . S
H1554 C1551 0.961 . S
O1555 Co1530 1.967 . S
O1555 C1563 1.258 . S
O1556 Co1531 1.941 . S
O1556 C1563 1.266 . S
H1557 C1559 0.959 . S
H1558 C1559 0.961 . S
C1559 C1549 1.510 . S
C1559 H1557 0.959 . S
C1559 H1558 0.961 . S
C1559 H1560 0.960 . S
H1560 C1559 0.960 . S
H1561 N1541 0.862 . S
O1562 Co1530 1.920 . S
O1562 C1535 1.289 . S
C1563 O1555 1.258 . S
C1563 O1556 1.266 . S
Co1564 O1567 1.970 . S
Co1564 N1581 1.989 . S
Co1564 O1589 1.967 . S
Co1564 O1596 1.920 . S
Co1565 O1568 1.966 . S
Co1565 N1574 2.022 . S
Co1565 N1582 1.993 . S
Co1565 O1590 1.941 . S
C1566 O1567 1.258 . S
C1566 O1568 1.263 . S
O1567 Co1564 1.970 . S
O1567 C1566 1.258 . S
O1568 Co1565 1.966 . S
O1568 C1566 1.263 . S
C1569 O1570 1.235 . S
C1569 O1596 1.289 . S
O1570 C1569 1.235 . S
C1571 C1573 1.400 . S
C1571 N1574 1.351 . S
C1571 C1576 1.501 . S
C1572 C1573 1.387 . S
C1572 N1575 1.341 . S
C1573 C1571 1.400 . S
C1573 C1572 1.387 . S
N1574 Co1565 2.022 . S
N1574 C1571 1.351 . S
N1574 N1575 1.365 . S
N1575 C1572 1.341 . S
N1575 N1574 1.365 . S
N1575 H1595 0.862 . S
C1576 C1571 1.501 . S
C1576 H1577 0.961 . S
C1576 H1578 0.961 . S
C1576 H1579 0.960 . S
H1577 C1576 0.961 . S
H1578 C1576 0.961 . S
H1579 C1576 0.960 . S
C1580 N1581 1.342 . S
C1580 C1584 1.401 . S
C1580 C1585 1.499 . S
N1581 Co1564 1.989 . S
N1581 C1580 1.342 . S
N1581 N1582 1.388 . S
N1582 Co1565 1.993 . S
N1582 N1581 1.388 . S
N1582 C1583 1.346 . S
C1583 N1582 1.346 . S
C1583 C1584 1.396 . S
C1583 C1593 1.510 . S
C1584 C1580 1.401 . S
C1584 C1583 1.396 . S
C1585 C1580 1.499 . S
C1585 H1586 0.959 . S
C1585 H1587 0.960 . S
C1585 H1588 0.961 . S
H1586 C1585 0.959 . S
H1587 C1585 0.960 . S
H1588 C1585 0.961 . S
O1589 Co1564 1.967 . S
O1589 C1597 1.258 . S
O1590 Co1565 1.941 . S
O1590 C1597 1.266 . S
H1591 C1593 0.959 . S
H1592 C1593 0.961 . S
C1593 C1583 1.510 . S
C1593 H1591 0.959 . S
C1593 H1592 0.961 . S
C1593 H1594 0.960 . S
H1594 C1593 0.960 . S
H1595 N1575 0.862 . S
O1596 Co1564 1.920 . S
O1596 C1569 1.289 . S
C1597 O1589 1.258 . S
C1597 O1590 1.266 . S
Co1598 O1601 1.970 . S
Co1598 N1615 1.989 . S
Co1598 O1623 1.967 . S
Co1598 O1630 1.920 . S
Co1599 O1602 1.966 . S
Co1599 N1608 2.022 . S
Co1599 N1616 1.993 . S
Co1599 O1624 1.941 . S
C1600 O1601 1.258 . S
C1600 O1602 1.263 . S
O1601 Co1598 1.970 . S
O1601 C1600 1.258 . S
O1602 Co1599 1.966 . S
O1602 C1600 1.263 . S
C1603 O1604 1.235 . S
C1603 O1630 1.289 . S
O1604 C1603 1.235 . S
C1605 C1607 1.400 . S
C1605 N1608 1.351 . S
C1605 C1610 1.501 . S
C1606 C1607 1.387 . S
C1606 N1609 1.341 . S
C1607 C1605 1.400 . S
C1607 C1606 1.387 . S
N1608 Co1599 2.022 . S
N1608 C1605 1.351 . S
N1608 N1609 1.365 . S
N1609 C1606 1.341 . S
N1609 N1608 1.365 . S
N1609 H1629 0.862 . S
C1610 C1605 1.501 . S
C1610 H1611 0.961 . S
C1610 H1612 0.961 . S
C1610 H1613 0.960 . S
H1611 C1610 0.961 . S
H1612 C1610 0.961 . S
H1613 C1610 0.960 . S
C1614 N1615 1.342 . S
C1614 C1618 1.401 . S
C1614 C1619 1.499 . S
N1615 Co1598 1.989 . S
N1615 C1614 1.342 . S
N1615 N1616 1.388 . S
N1616 Co1599 1.993 . S
N1616 N1615 1.388 . S
N1616 C1617 1.346 . S
C1617 N1616 1.346 . S
C1617 C1618 1.396 . S
C1617 C1627 1.510 . S
C1618 C1614 1.401 . S
C1618 C1617 1.396 . S
C1619 C1614 1.499 . S
C1619 H1620 0.959 . S
C1619 H1621 0.960 . S
C1619 H1622 0.961 . S
H1620 C1619 0.959 . S
H1621 C1619 0.960 . S
H1622 C1619 0.961 . S
O1623 Co1598 1.967 . S
O1623 C1631 1.258 . S
O1624 Co1599 1.941 . S
O1624 C1631 1.266 . S
H1625 C1627 0.959 . S
H1626 C1627 0.961 . S
C1627 C1617 1.510 . S
C1627 H1625 0.959 . S
C1627 H1626 0.961 . S
C1627 H1628 0.960 . S
H1628 C1627 0.960 . S
H1629 N1609 0.862 . S
O1630 Co1598 1.920 . S
O1630 C1603 1.289 . S
C1631 O1623 1.258 . S
C1631 O1624 1.266 . S
H1632 C1638 0.930 1_556 S
H1633 C1641 0.930 . S
H1634 C1642 0.930 . S
H1635 C1643 0.930 . S
H1636 C1646 0.930 . S
H1637 C1647 0.930 . S
C1638 H1632 0.930 1_554 S
C1638 C1639 1.355 1_554 S
C1638 C1640 1.415 . S
C1639 C1638 1.355 1_556 S
C1639 C1641 1.419 . S
C1640 C1638 1.415 . S
C1640 C1645 1.425 . S
C1640 C1647 1.409 . S
C1641 H1633 0.930 . S
C1641 C1639 1.419 . S
C1641 C1642 1.362 1_556 S
C1642 H1634 0.930 . S
C1642 C1641 1.362 1_554 S
C1642 C1645 1.409 . S
C1643 H1635 0.930 . S
C1643 C1644 1.355 . S
C1643 C1645 1.415 . S
C1644 C1643 1.355 . S
C1644 C1646 1.419 . S
C1645 C1640 1.425 . S
C1645 C1642 1.409 . S
C1645 C1643 1.415 . S
C1646 H1636 0.930 . S
C1646 C1644 1.419 . S
C1646 C1647 1.362 . S
C1647 H1637 0.930 . S
C1647 C1640 1.409 . S
C1647 C1646 1.362 . S
H1648 C1654 0.930 . S
H1649 C1657 0.930 . S
H1650 C1658 0.930 . S
H1651 C1659 0.953 . S
H1652 C1662 0.930 . S
H1653 C1663 0.930 . S
C1654 H1648 0.930 . S
C1654 C1655 1.355 . S
C1654 C1656 1.415 . S
C1655 C1654 1.355 . S
C1655 C1657 1.419 . S
C1656 C1654 1.415 . S
C1656 C1661 1.425 . S
C1656 C1663 1.409 . S
C1657 H1649 0.930 . S
C1657 C1655 1.419 . S
C1657 C1658 1.362 . S
C1658 H1650 0.930 . S
C1658 C1657 1.362 . S
C1658 C1661 1.409 . S
C1659 H1651 0.953 . S
C1659 C1660 1.382 . S
C1659 C1661 1.365 1_556 S
C1660 C1659 1.382 . S
C1660 C1662 1.419 . S
C1661 C1656 1.425 . S
C1661 C1658 1.409 . S
C1661 C1659 1.365 1_554 S
C1662 H1652 0.930 . S
C1662 C1660 1.419 . S
C1662 C1663 1.362 1_556 S
C1663 H1653 0.930 . S
C1663 C1656 1.409 . S
C1663 C1662 1.362 1_554 S
H1664 C1670 0.930 . S
H1665 C1673 0.930 . S
H1666 C1674 0.930 . S
H1667 C1675 0.929 . S
H1668 C1678 0.930 . S
H1669 C1679 0.930 . S
C1670 H1664 0.930 . S
C1670 C1671 1.355 . S
C1670 C1672 1.415 . S
C1671 C1670 1.355 . S
C1671 C1673 1.419 . S
C1672 C1670 1.415 . S
C1672 C1677 1.425 . S
C1672 C1679 1.409 . S
C1673 H1665 0.930 . S
C1673 C1671 1.419 . S
C1673 C1674 1.362 . S
C1674 H1666 0.930 . S
C1674 C1673 1.362 . S
C1674 C1677 1.409 . S
C1675 H1667 0.929 . S
C1675 C1676 1.355 1_554 S
C1675 C1677 1.415 . S
C1676 C1675 1.355 1_556 S
C1676 C1678 1.419 . S
C1677 C1672 1.425 . S
C1677 C1674 1.409 . S
C1677 C1675 1.415 . S
C1678 H1668 0.930 . S
C1678 C1676 1.419 . S
C1678 C1679 1.362 1_556 S
C1679 H1669 0.930 . S
C1679 C1672 1.409 . S
C1679 C1678 1.362 1_554 S
H1680 C1686 0.929 . S
H1681 C1689 0.930 . S
H1682 C1690 0.930 . S
H1683 C1691 0.930 . S
H1684 C1694 0.930 . S
H1685 C1695 0.930 . S
C1686 H1680 0.929 . S
C1686 C1687 1.355 1_554 S
C1686 C1688 1.415 . S
C1687 C1686 1.355 1_556 S
C1687 C1689 1.419 . S
C1688 C1686 1.415 . S
C1688 C1693 1.425 . S
C1688 C1695 1.409 . S
C1689 H1681 0.930 . S
C1689 C1687 1.419 . S
C1689 C1690 1.362 1_556 S
C1690 H1682 0.930 . S
C1690 C1689 1.362 1_554 S
C1690 C1693 1.409 . S
C1691 H1683 0.930 . S
C1691 C1692 1.355 . S
C1691 C1693 1.415 . S
C1692 C1691 1.355 . S
C1692 C1694 1.419 . S
C1693 C1688 1.425 . S
C1693 C1690 1.409 . S
C1693 C1691 1.415 . S
C1694 H1684 0.930 . S
C1694 C1692 1.419 . S
C1694 C1695 1.362 . S
C1695 H1685 0.930 . S
C1695 C1688 1.409 . S
C1695 C1694 1.362 . S
H1696 C1702 0.948 . S
H1697 C1705 0.930 . S
H1698 C1706 0.930 . S
H1699 C1707 0.930 . S
H1700 C1710 0.930 . S
H1701 C1711 0.930 . S
C1702 H1696 0.948 . S
C1702 C1703 1.377 . S
C1702 C1704 1.375 1_554 S
C1703 C1702 1.377 . S
C1703 C1705 1.419 . S
C1704 C1702 1.375 1_556 S
C1704 C1709 1.425 . S
C1704 C1711 1.409 . S
C1705 H1697 0.930 . S
C1705 C1703 1.419 . S
C1705 C1706 1.362 1_554 S
C1706 H1698 0.930 . S
C1706 C1705 1.362 1_556 S
C1706 C1709 1.409 . S
C1707 H1699 0.930 . S
C1707 C1708 1.355 . S
C1707 C1709 1.415 . S
C1708 C1707 1.355 . S
C1708 C1710 1.419 . S
C1709 C1704 1.425 . S
C1709 C1706 1.409 . S
C1709 C1707 1.415 . S
C1710 H1700 0.930 . S
C1710 C1708 1.419 . S
C1710 C1711 1.362 . S
C1711 H1701 0.930 . S
C1711 C1704 1.409 . S
C1711 C1710 1.362 . S
H1712 C1718 0.930 . S
H1713 C1721 0.930 . S
H1714 C1722 0.930 . S
H1715 C1723 0.930 . S
H1716 C1726 0.930 . S
H1717 C1727 0.930 . S
C1718 H1712 0.930 . S
C1718 C1719 1.355 . S
C1718 C1720 1.415 . S
C1719 C1718 1.355 . S
C1719 C1721 1.419 . S
C1720 C1718 1.415 . S
C1720 C1725 1.425 . S
C1720 C1727 1.409 . S
C1721 H1713 0.930 . S
C1721 C1719 1.419 . S
C1721 C1722 1.362 . S
C1722 H1714 0.930 . S
C1722 C1721 1.362 . S
C1722 C1725 1.409 . S
C1723 H1715 0.930 . S
C1723 C1724 1.355 . S
C1723 C1725 1.415 1_554 S
C1724 C1723 1.355 . S
C1724 C1726 1.419 . S
C1725 C1720 1.425 . S
C1725 C1722 1.409 . S
C1725 C1723 1.415 1_556 S
C1726 H1716 0.930 . S
C1726 C1724 1.419 . S
C1726 C1727 1.362 1_554 S
C1727 H1717 0.930 . S
C1727 C1720 1.409 . S
C1727 C1726 1.362 1_556 S
H1728 C1734 0.920 1_554 S
H1729 C1737 0.930 . S
H1730 C1738 0.930 . S
H1731 C1739 0.930 . S
H1732 C1742 0.930 . S
H1733 C1743 0.930 . S
C1734 H1728 0.920 1_556 S
C1734 C1735 1.355 1_556 S
C1734 C1736 1.415 . S
C1735 C1734 1.355 1_554 S
C1735 C1737 1.419 . S
C1736 C1734 1.415 . S
C1736 C1741 1.425 . S
C1736 C1743 1.409 . S
C1737 H1729 0.930 . S
C1737 C1735 1.419 . S
C1737 C1738 1.362 1_554 S
C1738 H1730 0.930 . S
C1738 C1737 1.362 1_556 S
C1738 C1741 1.409 . S
C1739 H1731 0.930 . S
C1739 C1740 1.355 . S
C1739 C1741 1.415 . S
C1740 C1739 1.355 . S
C1740 C1742 1.419 . S
C1741 C1736 1.425 . S
C1741 C1738 1.409 . S
C1741 C1739 1.415 . S
C1742 H1732 0.930 . S
C1742 C1740 1.419 . S
C1742 C1743 1.362 . S
C1743 H1733 0.930 . S
C1743 C1736 1.409 . S
C1743 C1742 1.362 . S
H1744 C1750 0.930 1_554 S
H1745 C1753 0.930 . S
H1746 C1754 0.930 . S
H1747 C1755 0.930 . S
H1748 C1758 0.930 . S
H1749 C1759 0.930 . S
C1750 H1744 0.930 1_556 S
C1750 C1751 1.355 1_556 S
C1750 C1752 1.415 . S
C1751 C1750 1.355 1_554 S
C1751 C1753 1.419 . S
C1752 C1750 1.415 . S
C1752 C1757 1.425 . S
C1752 C1759 1.409 . S
C1753 H1745 0.930 . S
C1753 C1751 1.419 . S
C1753 C1754 1.362 1_554 S
C1754 H1746 0.930 . S
C1754 C1753 1.362 1_556 S
C1754 C1757 1.409 . S
C1755 H1747 0.930 . S
C1755 C1756 1.355 . S
C1755 C1757 1.415 . S
C1756 C1755 1.355 . S
C1756 C1758 1.419 . S
C1757 C1752 1.425 . S
C1757 C1754 1.409 . S
C1757 C1755 1.415 . S
C1758 H1748 0.930 . S
C1758 C1756 1.419 . S
C1758 C1759 1.362 . S
C1759 H1749 0.930 . S
C1759 C1752 1.409 . S
C1759 C1758 1.362 . S
H1760 C1766 0.930 . S
H1761 C1769 0.930 . S
H1762 C1770 0.930 . S
H1763 C1771 0.930 . S
H1764 C1774 0.930 . S
H1765 C1775 0.930 . S
C1766 H1760 0.930 . S
C1766 C1767 1.355 . S
C1766 C1768 1.415 . S
C1767 C1766 1.355 . S
C1767 C1769 1.419 . S
C1768 C1766 1.415 . S
C1768 C1773 1.425 . S
C1768 C1775 1.409 . S
C1769 H1761 0.930 . S
C1769 C1767 1.419 . S
C1769 C1770 1.362 . S
C1770 H1762 0.930 . S
C1770 C1769 1.362 . S
C1770 C1773 1.409 . S
C1771 H1763 0.930 . S
C1771 C1772 1.355 . S
C1771 C1773 1.415 1_655 S
C1772 C1771 1.355 . S
C1772 C1774 1.419 . S
C1773 C1768 1.425 . S
C1773 C1770 1.409 . S
C1773 C1771 1.415 1_455 S
C1774 H1764 0.930 . S
C1774 C1772 1.419 . S
C1774 C1775 1.362 1_655 S
C1775 H1765 0.930 . S
C1775 C1768 1.409 . S
C1775 C1774 1.362 1_455 S
H1776 C1782 0.935 . S
H1777 C1785 0.930 . S
H1778 C1786 0.930 . S
H1779 C1787 0.930 . S
H1780 C1790 0.930 . S
H1781 C1791 0.930 . S
C1782 H1776 0.935 . S
C1782 C1783 1.355 1_545 S
C1782 C1784 1.415 . S
C1783 C1782 1.355 1_565 S
C1783 C1785 1.419 . S
C1784 C1782 1.415 . S
C1784 C1789 1.425 . S
C1784 C1791 1.409 . S
C1785 H1777 0.930 . S
C1785 C1783 1.419 . S
C1785 C1786 1.362 1_565 S
C1786 H1778 0.930 . S
C1786 C1785 1.362 1_545 S
C1786 C1789 1.409 . S
C1787 H1779 0.930 . S
C1787 C1788 1.355 . S
C1787 C1789 1.415 . S
C1788 C1787 1.355 . S
C1788 C1790 1.419 . S
C1789 C1784 1.425 . S
C1789 C1786 1.409 . S
C1789 C1787 1.415 . S
C1790 H1780 0.930 . S
C1790 C1788 1.419 . S
C1790 C1791 1.362 . S
C1791 H1781 0.930 . S
C1791 C1784 1.409 . S
C1791 C1790 1.362 . S
H1792 C1798 0.943 . S
H1793 C1801 0.930 . S
H1794 C1802 0.930 . S
H1795 C1803 0.930 . S
H1796 C1806 0.930 . S
H1797 C1807 0.930 . S
C1798 H1792 0.943 . S
C1798 C1799 1.371 . S
C1798 C1800 1.386 1_455 S
C1799 C1798 1.371 . S
C1799 C1801 1.419 . S
C1800 C1798 1.386 1_655 S
C1800 C1805 1.425 . S
C1800 C1807 1.409 . S
C1801 H1793 0.930 . S
C1801 C1799 1.419 . S
C1801 C1802 1.362 1_455 S
C1802 H1794 0.930 . S
C1802 C1801 1.362 1_655 S
C1802 C1805 1.409 . S
C1803 H1795 0.930 . S
C1803 C1804 1.355 . S
C1803 C1805 1.415 . S
C1804 C1803 1.355 . S
C1804 C1806 1.419 . S
C1805 C1800 1.425 . S
C1805 C1802 1.409 . S
C1805 C1803 1.415 . S
C1806 H1796 0.930 . S
C1806 C1804 1.419 . S
C1806 C1807 1.362 . S
C1807 H1797 0.930 . S
C1807 C1800 1.409 . S
C1807 C1806 1.362 . S
H1808 C1814 0.930 . S
H1809 C1817 0.930 . S
H1810 C1818 0.930 . S
H1811 C1819 0.926 1_545 S
H1812 C1822 0.930 . S
H1813 C1823 0.930 . S
C1814 H1808 0.930 . S
C1814 C1815 1.355 . S
C1814 C1816 1.415 . S
C1815 C1814 1.355 . S
C1815 C1817 1.419 . S
C1816 C1814 1.415 . S
C1816 C1821 1.425 . S
C1816 C1823 1.409 . S
C1817 H1809 0.930 . S
C1817 C1815 1.419 . S
C1817 C1818 1.362 . S
C1818 H1810 0.930 . S
C1818 C1817 1.362 . S
C1818 C1821 1.409 . S
C1819 H1811 0.926 1_565 S
C1819 C1820 1.355 1_565 S
C1819 C1821 1.415 . S
C1820 C1819 1.355 1_545 S
C1820 C1822 1.419 . S
C1821 C1816 1.425 . S
C1821 C1818 1.409 . S
C1821 C1819 1.415 . S
C1822 H1812 0.930 . S
C1822 C1820 1.419 . S
C1822 C1823 1.362 1_545 S
C1823 H1813 0.930 . S
C1823 C1816 1.409 . S
C1823 C1822 1.362 1_565 S
H1824 C1830 0.936 . S
H1825 C1833 0.930 . S
H1826 C1834 0.930 . S
H1827 C1835 0.930 . S
H1828 C1838 0.930 . S
H1829 C1839 0.930 . S
C1830 H1824 0.936 . S
C1830 C1831 1.355 1_455 S
C1830 C1832 1.415 . S
C1831 C1830 1.355 1_655 S
C1831 C1833 1.419 . S
C1832 C1830 1.415 . S
C1832 C1837 1.425 . S
C1832 C1839 1.409 . S
C1833 H1825 0.930 . S
C1833 C1831 1.419 . S
C1833 C1834 1.362 1_655 S
C1834 H1826 0.930 . S
C1834 C1833 1.362 1_455 S
C1834 C1837 1.409 . S
C1835 H1827 0.930 . S
C1835 C1836 1.355 . S
C1835 C1837 1.415 . S
C1836 C1835 1.355 . S
C1836 C1838 1.419 . S
C1837 C1832 1.425 . S
C1837 C1834 1.409 . S
C1837 C1835 1.415 . S
C1838 H1828 0.930 . S
C1838 C1836 1.419 . S
C1838 C1839 1.362 . S
C1839 H1829 0.930 . S
C1839 C1832 1.409 . S
C1839 C1838 1.362 . S
H1840 C1846 0.930 . S
H1841 C1849 0.930 . S
H1842 C1850 0.930 . S
H1843 C1851 0.931 1_565 S
H1844 C1854 0.930 . S
H1845 C1855 0.930 . S
C1846 H1840 0.930 . S
C1846 C1847 1.355 . S
C1846 C1848 1.415 . S
C1847 C1846 1.355 . S
C1847 C1849 1.419 . S
C1848 C1846 1.415 . S
C1848 C1853 1.425 . S
C1848 C1855 1.409 . S
C1849 H1841 0.930 . S
C1849 C1847 1.419 . S
C1849 C1850 1.362 . S
C1850 H1842 0.930 . S
C1850 C1849 1.362 . S
C1850 C1853 1.409 . S
C1851 H1843 0.931 1_545 S
C1851 C1852 1.356 1_545 S
C1851 C1853 1.412 . S
C1852 C1851 1.356 1_565 S
C1852 C1854 1.419 . S
C1853 C1848 1.425 . S
C1853 C1850 1.409 . S
C1853 C1851 1.412 . S
C1854 H1844 0.930 . S
C1854 C1852 1.419 . S
C1854 C1855 1.362 1_565 S
C1855 H1845 0.930 . S
C1855 C1848 1.409 . S
C1855 C1854 1.362 1_545 S
H1856 C1862 0.935 . S
H1857 C1865 0.930 . S
H1858 C1866 0.930 . S
H1859 C1867 0.930 . S
H1860 C1870 0.930 . S
H1861 C1871 0.930 . S
C1862 H1856 0.935 . S
C1862 C1863 1.355 1_655 S
C1862 C1864 1.415 . S
C1863 C1862 1.355 1_455 S
C1863 C1865 1.419 . S
C1864 C1862 1.415 . S
C1864 C1869 1.425 . S
C1864 C1871 1.409 . S
C1865 H1857 0.930 . S
C1865 C1863 1.419 . S
C1865 C1866 1.362 1_455 S
C1866 H1858 0.930 . S
C1866 C1865 1.362 1_655 S
C1866 C1869 1.409 . S
C1867 H1859 0.930 . S
C1867 C1868 1.355 . S
C1867 C1869 1.415 . S
C1868 C1867 1.355 . S
C1868 C1870 1.419 . S
C1869 C1864 1.425 . S
C1869 C1866 1.409 . S
C1869 C1867 1.415 . S
C1870 H1860 0.930 . S
C1870 C1868 1.419 . S
C1870 C1871 1.362 . S
C1871 H1861 0.930 . S
C1871 C1864 1.409 . S
C1871 C1870 1.362 . S
H1872 C1878 0.930 1_545 S
H1873 C1881 0.930 . S
H1874 C1882 0.930 . S
H1875 C1883 0.930 . S
H1876 C1886 0.930 . S
H1877 C1887 0.930 . S
C1878 H1872 0.930 1_565 S
C1878 C1879 1.355 1_565 S
C1878 C1880 1.415 . S
C1879 C1878 1.355 1_545 S
C1879 C1881 1.419 . S
C1880 C1878 1.415 . S
C1880 C1885 1.425 . S
C1880 C1887 1.409 . S
C1881 H1873 0.930 . S
C1881 C1879 1.419 . S
C1881 C1882 1.362 1_545 S
C1882 H1874 0.930 . S
C1882 C1881 1.362 1_565 S
C1882 C1885 1.409 . S
C1883 H1875 0.930 . S
C1883 C1884 1.355 . S
C1883 C1885 1.415 . S
C1884 C1883 1.355 . S
C1884 C1886 1.419 . S
C1885 C1880 1.425 . S
C1885 C1882 1.409 . S
C1885 C1883 1.415 . S
C1886 H1876 0.930 . S
C1886 C1884 1.419 . S
C1886 C1887 1.362 . S
C1887 H1877 0.930 . S
C1887 C1880 1.409 . S
C1887 C1886 1.362 . S
H1888 C1894 0.930 . S
H1889 C1897 0.930 . S
H1890 C1898 0.930 . S
H1891 C1899 0.930 . S
H1892 C1902 0.930 . S
H1893 C1903 0.930 . S
C1894 H1888 0.930 . S
C1894 C1895 1.355 . S
C1894 C1896 1.415 . S
C1895 C1894 1.355 . S
C1895 C1897 1.419 . S
C1896 C1894 1.415 . S
C1896 C1901 1.425 . S
C1896 C1903 1.409 . S
C1897 H1889 0.930 . S
C1897 C1895 1.419 . S
C1897 C1898 1.362 . S
C1898 H1890 0.930 . S
C1898 C1897 1.362 . S
C1898 C1901 1.409 . S
C1899 H1891 0.930 . S
C1899 C1900 1.355 . S
C1899 C1901 1.415 1_565 S
C1900 C1899 1.355 . S
C1900 C1902 1.419 . S
C1901 C1896 1.425 . S
C1901 C1898 1.409 . S
C1901 C1899 1.415 1_545 S
C1902 H1892 0.930 . S
C1902 C1900 1.419 . S
C1902 C1903 1.362 1_565 S
C1903 H1893 0.930 . S
C1903 C1896 1.409 . S
C1903 C1902 1.362 1_545 S
H1904 C1910 0.941 . S
H1905 C1913 0.930 . S
H1906 C1914 0.930 . S
H1907 C1915 0.930 . S
H1908 C1918 0.930 . S
H1909 C1919 0.930 . S
C1910 H1904 0.941 . S
C1910 C1911 1.369 . S
C1910 C1912 1.389 1_545 S
C1911 C1910 1.369 . S
C1911 C1913 1.419 . S
C1912 C1910 1.389 1_565 S
C1912 C1917 1.425 . S
C1912 C1919 1.409 . S
C1913 H1905 0.930 . S
C1913 C1911 1.419 . S
C1913 C1914 1.362 1_545 S
C1914 H1906 0.930 . S
C1914 C1913 1.362 1_565 S
C1914 C1917 1.409 . S
C1915 H1907 0.930 . S
C1915 C1916 1.355 . S
C1915 C1917 1.415 . S
C1916 C1915 1.355 . S
C1916 C1918 1.419 . S
C1917 C1912 1.425 . S
C1917 C1914 1.409 . S
C1917 C1915 1.415 . S
C1918 H1908 0.930 . S
C1918 C1916 1.419 . S
C1918 C1919 1.362 . S
C1919 H1909 0.930 . S
C1919 C1912 1.409 . S
C1919 C1918 1.362 . S
H1920 C1926 0.930 . S
H1921 C1929 0.930 . S
H1922 C1930 0.930 . S
H1923 C1931 0.934 . S
H1924 C1934 0.930 . S
H1925 C1935 0.930 . S
C1926 H1920 0.930 . S
C1926 C1927 1.355 . S
C1926 C1928 1.415 . S
C1927 C1926 1.355 . S
C1927 C1929 1.419 . S
C1928 C1926 1.415 . S
C1928 C1933 1.425 . S
C1928 C1935 1.409 . S
C1929 H1921 0.930 . S
C1929 C1927 1.419 . S
C1929 C1930 1.362 . S
C1930 H1922 0.930 . S
C1930 C1929 1.362 . S
C1930 C1933 1.409 . S
C1931 H1923 0.934 . S
C1931 C1932 1.355 1_455 S
C1931 C1933 1.415 . S
C1932 C1931 1.355 1_655 S
C1932 C1934 1.419 . S
C1933 C1928 1.425 . S
C1933 C1930 1.409 . S
C1933 C1931 1.415 . S
C1934 H1924 0.930 . S
C1934 C1932 1.419 . S
C1934 C1935 1.362 1_655 S
C1935 H1925 0.930 . S
C1935 C1928 1.409 . S
C1935 C1934 1.362 1_455 S
H1936 C1942 0.933 . S
H1937 C1945 0.930 . S
H1938 C1946 0.930 . S
H1939 C1947 0.930 . S
H1940 C1950 0.930 . S
H1941 C1951 0.930 . S
C1942 H1936 0.933 . S
C1942 C1943 1.355 1_545 S
C1942 C1944 1.415 . S
C1943 C1942 1.355 1_565 S
C1943 C1945 1.419 . S
C1944 C1942 1.415 . S
C1944 C1949 1.425 . S
C1944 C1951 1.409 . S
C1945 H1937 0.930 . S
C1945 C1943 1.419 . S
C1945 C1946 1.362 1_565 S
C1946 H1938 0.930 . S
C1946 C1945 1.362 1_545 S
C1946 C1949 1.409 . S
C1947 H1939 0.930 . S
C1947 C1948 1.355 . S
C1947 C1949 1.415 . S
C1948 C1947 1.355 . S
C1948 C1950 1.419 . S
C1949 C1944 1.425 . S
C1949 C1946 1.409 . S
C1949 C1947 1.415 . S
C1950 H1940 0.930 . S
C1950 C1948 1.419 . S
C1950 C1951 1.362 . S
C1951 H1941 0.930 . S
C1951 C1944 1.409 . S
C1951 C1950 1.362 . S
H1952 C1958 0.930 . S
H1953 C1961 0.930 . S
H1954 C1962 0.930 . S
H1955 C1963 0.930 . S
H1956 C1966 0.930 . S
H1957 C1967 0.930 . S
C1958 H1952 0.930 . S
C1958 C1959 1.355 . S
C1958 C1960 1.415 1_455 S
C1959 C1958 1.355 . S
C1959 C1961 1.419 . S
C1960 C1958 1.415 1_655 S
C1960 C1965 1.425 . S
C1960 C1967 1.409 . S
C1961 H1953 0.930 . S
C1961 C1959 1.419 . S
C1961 C1962 1.362 1_455 S
C1962 H1954 0.930 . S
C1962 C1961 1.362 1_655 S
C1962 C1965 1.409 . S
C1963 H1955 0.930 . S
C1963 C1964 1.355 . S
C1963 C1965 1.415 . S
C1964 C1963 1.355 . S
C1964 C1966 1.419 . S
C1965 C1960 1.425 . S
C1965 C1962 1.409 . S
C1965 C1963 1.415 . S
C1966 H1956 0.930 . S
C1966 C1964 1.419 . S
C1966 C1967 1.362 . S
C1967 H1957 0.930 . S
C1967 C1960 1.409 . S
C1967 C1966 1.362 . S
H1968 C1974 0.930 . S
H1969 C1977 0.930 . S
H1970 C1978 0.930 . S
H1971 C1979 0.925 1_545 S
H1972 C1982 0.930 . S
H1973 C1983 0.930 . S
C1974 H1968 0.930 . S
C1974 C1975 1.355 . S
C1974 C1976 1.415 . S
C1975 C1974 1.355 . S
C1975 C1977 1.419 . S
C1976 C1974 1.415 . S
C1976 C1981 1.425 . S
C1976 C1983 1.409 . S
C1977 H1969 0.930 . S
C1977 C1975 1.419 . S
C1977 C1978 1.362 . S
C1978 H1970 0.930 . S
C1978 C1977 1.362 . S
C1978 C1981 1.409 . S
C1979 H1971 0.925 1_565 S
C1979 C1980 1.355 1_565 S
C1979 C1981 1.415 . S
C1980 C1979 1.355 1_545 S
C1980 C1982 1.419 . S
C1981 C1976 1.425 . S
C1981 C1978 1.409 . S
C1981 C1979 1.415 . S
C1982 H1972 0.930 . S
C1982 C1980 1.419 . S
C1982 C1983 1.362 1_545 S
C1983 H1973 0.930 . S
C1983 C1976 1.409 . S
C1983 C1982 1.362 1_565 S
H1984 C1990 0.930 . S
H1985 C1993 0.930 . S
H1986 C1994 0.930 . S
H1987 C1995 0.934 . S
H1988 C1998 0.930 . S
H1989 C1999 0.930 . S
C1990 H1984 0.930 . S
C1990 C1991 1.355 . S
C1990 C1992 1.415 . S
C1991 C1990 1.355 . S
C1991 C1993 1.419 . S
C1992 C1990 1.415 . S
C1992 C1997 1.425 . S
C1992 C1999 1.409 . S
C1993 H1985 0.930 . S
C1993 C1991 1.419 . S
C1993 C1994 1.362 . S
C1994 H1986 0.930 . S
C1994 C1993 1.362 . S
C1994 C1997 1.409 . S
C1995 H1987 0.934 . S
C1995 C1996 1.355 1_455 S
C1995 C1997 1.415 . S
C1996 C1995 1.355 1_655 S
C1996 C1998 1.419 . S
C1997 C1992 1.425 . S
C1997 C1994 1.409 . S
C1997 C1995 1.415 . S
C1998 H1988 0.930 . S
C1998 C1996 1.419 . S
C1998 C1999 1.362 1_655 S
C1999 H1989 0.930 . S
C1999 C1992 1.409 . S
C1999 C1998 1.362 1_455 S
H2000 C2006 0.951 . S
H2001 C2009 0.930 . S
H2002 C2010 0.930 . S
H2003 C2011 0.930 . S
H2004 C2014 0.930 . S
H2005 C2015 0.930 . S
C2006 H2000 0.951 . S
C2006 C2007 1.380 . S
C2006 C2008 1.370 1_455 S
C2007 C2006 1.380 . S
C2007 C2009 1.419 . S
C2008 C2006 1.370 1_655 S
C2008 C2013 1.425 . S
C2008 C2015 1.409 . S
C2009 H2001 0.930 . S
C2009 C2007 1.419 . S
C2009 C2010 1.362 1_455 S
C2010 H2002 0.930 . S
C2010 C2009 1.362 1_655 S
C2010 C2013 1.409 . S
C2011 H2003 0.930 . S
C2011 C2012 1.355 . S
C2011 C2013 1.415 . S
C2012 C2011 1.355 . S
C2012 C2014 1.419 . S
C2013 C2008 1.425 . S
C2013 C2010 1.409 . S
C2013 C2011 1.415 . S
C2014 H2004 0.930 . S
C2014 C2012 1.419 . S
C2014 C2015 1.362 . S
C2015 H2005 0.930 . S
C2015 C2008 1.409 . S
C2015 C2014 1.362 . S
H2016 C2022 0.930 . S
H2017 C2025 0.930 . S
H2018 C2026 0.930 . S
H2019 C2027 0.930 . S
H2020 C2030 0.930 . S
H2021 C2031 0.930 . S
C2022 H2016 0.930 . S
C2022 C2023 1.355 . S
C2022 C2024 1.415 . S
C2023 C2022 1.355 . S
C2023 C2025 1.419 . S
C2024 C2022 1.415 . S
C2024 C2029 1.425 . S
C2024 C2031 1.409 . S
C2025 H2017 0.930 . S
C2025 C2023 1.419 . S
C2025 C2026 1.362 . S
C2026 H2018 0.930 . S
C2026 C2025 1.362 . S
C2026 C2029 1.409 . S
C2027 H2019 0.930 . S
C2027 C2028 1.355 . S
C2027 C2029 1.415 . S
C2028 C2027 1.355 . S
C2028 C2030 1.419 . S
C2029 C2024 1.425 . S
C2029 C2026 1.409 . S
C2029 C2027 1.415 . S
C2030 H2020 0.930 . S
C2030 C2028 1.419 . S
C2030 C2031 1.362 . S
C2031 H2021 0.930 . S
C2031 C2024 1.409 . S
C2031 C2030 1.362 . S
H2032 C2038 0.930 . S
H2033 C2041 0.930 . S
H2034 C2042 0.930 . S
H2035 C2043 0.930 . S
H2036 C2046 0.930 . S
H2037 C2047 0.930 . S
C2038 H2032 0.930 . S
C2038 C2039 1.355 . S
C2038 C2040 1.415 . S
C2039 C2038 1.355 . S
C2039 C2041 1.419 . S
C2040 C2038 1.415 . S
C2040 C2045 1.425 . S
C2040 C2047 1.409 . S
C2041 H2033 0.930 . S
C2041 C2039 1.419 . S
C2041 C2042 1.362 . S
C2042 H2034 0.930 . S
C2042 C2041 1.362 . S
C2042 C2045 1.409 . S
C2043 H2035 0.930 . S
C2043 C2044 1.355 . S
C2043 C2045 1.415 . S
C2044 C2043 1.355 . S
C2044 C2046 1.419 . S
C2045 C2040 1.425 . S
C2045 C2042 1.409 . S
C2045 C2043 1.415 . S
C2046 H2036 0.930 . S
C2046 C2044 1.419 . S
C2046 C2047 1.362 . S
C2047 H2037 0.930 . S
C2047 C2040 1.409 . S
C2047 C2046 1.362 . S
H2048 C2054 0.930 . S
H2049 C2057 0.930 . S
H2050 C2058 0.930 . S
H2051 C2059 0.930 . S
H2052 C2062 0.930 . S
H2053 C2063 0.930 . S
C2054 H2048 0.930 . S
C2054 C2055 1.355 . S
C2054 C2056 1.415 . S
C2055 C2054 1.355 . S
C2055 C2057 1.419 . S
C2056 C2054 1.415 . S
C2056 C2061 1.425 . S
C2056 C2063 1.409 . S
C2057 H2049 0.930 . S
C2057 C2055 1.419 . S
C2057 C2058 1.362 . S
C2058 H2050 0.930 . S
C2058 C2057 1.362 . S
C2058 C2061 1.409 . S
C2059 H2051 0.930 . S
C2059 C2060 1.355 . S
C2059 C2061 1.415 . S
C2060 C2059 1.355 . S
C2060 C2062 1.419 . S
C2061 C2056 1.425 . S
C2061 C2058 1.409 . S
C2061 C2059 1.415 . S
C2062 H2052 0.930 . S
C2062 C2060 1.419 . S
C2062 C2063 1.362 . S
C2063 H2053 0.930 . S
C2063 C2056 1.409 . S
C2063 C2062 1.362 . S
H2064 C2070 0.930 . S
H2065 C2073 0.930 . S
H2066 C2074 0.930 . S
H2067 C2075 0.930 . S
H2068 C2078 0.930 . S
H2069 C2079 0.930 . S
C2070 H2064 0.930 . S
C2070 C2071 1.355 . S
C2070 C2072 1.415 . S
C2071 C2070 1.355 . S
C2071 C2073 1.419 . S
C2072 C2070 1.415 . S
C2072 C2077 1.425 . S
C2072 C2079 1.409 . S
C2073 H2065 0.930 . S
C2073 C2071 1.419 . S
C2073 C2074 1.362 . S
C2074 H2066 0.930 . S
C2074 C2073 1.362 . S
C2074 C2077 1.409 . S
C2075 H2067 0.930 . S
C2075 C2076 1.355 . S
C2075 C2077 1.415 . S
C2076 C2075 1.355 . S
C2076 C2078 1.419 . S
C2077 C2072 1.425 . S
C2077 C2074 1.409 . S
C2077 C2075 1.415 . S
C2078 H2068 0.930 . S
C2078 C2076 1.419 . S
C2078 C2079 1.362 . S
C2079 H2069 0.930 . S
C2079 C2072 1.409 . S
C2079 C2078 1.362 . S
H2080 C2086 0.930 . S
H2081 C2089 0.930 . S
H2082 C2090 0.930 . S
H2083 C2091 0.930 . S
H2084 C2094 0.930 . S
H2085 C2095 0.930 . S
C2086 H2080 0.930 . S
C2086 C2087 1.355 . S
C2086 C2088 1.415 . S
C2087 C2086 1.355 . S
C2087 C2089 1.419 . S
C2088 C2086 1.415 . S
C2088 C2093 1.425 . S
C2088 C2095 1.409 . S
C2089 H2081 0.930 . S
C2089 C2087 1.419 . S
C2089 C2090 1.362 . S
C2090 H2082 0.930 . S
C2090 C2089 1.362 . S
C2090 C2093 1.409 . S
C2091 H2083 0.930 . S
C2091 C2092 1.355 . S
C2091 C2093 1.415 . S
C2092 C2091 1.355 . S
C2092 C2094 1.419 . S
C2093 C2088 1.425 . S
C2093 C2090 1.409 . S
C2093 C2091 1.415 . S
C2094 H2084 0.930 . S
C2094 C2092 1.419 . S
C2094 C2095 1.362 . S
C2095 H2085 0.930 . S
C2095 C2088 1.409 . S
C2095 C2094 1.362 . S
H2096 C2102 0.930 . S
H2097 C2105 0.930 . S
H2098 C2106 0.930 . S
H2099 C2107 0.930 . S
H2100 C2110 0.930 . S
H2101 C2111 0.930 . S
C2102 H2096 0.930 . S
C2102 C2103 1.355 . S
C2102 C2104 1.415 . S
C2103 C2102 1.355 . S
C2103 C2105 1.419 . S
C2104 C2102 1.415 . S
C2104 C2109 1.425 . S
C2104 C2111 1.409 . S
C2105 H2097 0.930 . S
C2105 C2103 1.419 . S
C2105 C2106 1.362 . S
C2106 H2098 0.930 . S
C2106 C2105 1.362 . S
C2106 C2109 1.409 . S
C2107 H2099 0.930 . S
C2107 C2108 1.355 . S
C2107 C2109 1.415 . S
C2108 C2107 1.355 . S
C2108 C2110 1.419 . S
C2109 C2104 1.425 . S
C2109 C2106 1.409 . S
C2109 C2107 1.415 . S
C2110 H2100 0.930 . S
C2110 C2108 1.419 . S
C2110 C2111 1.362 . S
C2111 H2101 0.930 . S
C2111 C2104 1.409 . S
C2111 C2110 1.362 . S
H2112 C2118 0.930 . S
H2113 C2121 0.930 . S
H2114 C2122 0.930 . S
H2115 C2123 0.930 . S
H2116 C2126 0.930 . S
H2117 C2127 0.930 . S
C2118 H2112 0.930 . S
C2118 C2119 1.355 . S
C2118 C2120 1.415 . S
C2119 C2118 1.355 . S
C2119 C2121 1.419 . S
C2120 C2118 1.415 . S
C2120 C2125 1.425 . S
C2120 C2127 1.409 . S
C2121 H2113 0.930 . S
C2121 C2119 1.419 . S
C2121 C2122 1.362 . S
C2122 H2114 0.930 . S
C2122 C2121 1.362 . S
C2122 C2125 1.409 . S
C2123 H2115 0.930 . S
C2123 C2124 1.355 . S
C2123 C2125 1.415 . S
C2124 C2123 1.355 . S
C2124 C2126 1.419 . S
C2125 C2120 1.425 . S
C2125 C2122 1.409 . S
C2125 C2123 1.415 . S
C2126 H2116 0.930 . S
C2126 C2124 1.419 . S
C2126 C2127 1.362 . S
C2127 H2117 0.930 . S
C2127 C2120 1.409 . S
C2127 C2126 1.362 . S
H2128 C2134 0.930 . S
H2129 C2137 0.930 . S
H2130 C2138 0.930 . S
H2131 C2139 0.930 . S
H2132 C2142 0.930 . S
H2133 C2143 0.930 . S
C2134 H2128 0.930 . S
C2134 C2135 1.355 . S
C2134 C2136 1.415 . S
C2135 C2134 1.355 . S
C2135 C2137 1.419 . S
C2136 C2134 1.415 . S
C2136 C2141 1.425 . S
C2136 C2143 1.409 . S
C2137 H2129 0.930 . S
C2137 C2135 1.419 . S
C2137 C2138 1.362 . S
C2138 H2130 0.930 . S
C2138 C2137 1.362 . S
C2138 C2141 1.409 . S
C2139 H2131 0.930 . S
C2139 C2140 1.355 . S
C2139 C2141 1.415 . S
C2140 C2139 1.355 . S
C2140 C2142 1.419 . S
C2141 C2136 1.425 . S
C2141 C2138 1.409 . S
C2141 C2139 1.415 . S
C2142 H2132 0.930 . S
C2142 C2140 1.419 . S
C2142 C2143 1.362 . S
C2143 H2133 0.930 . S
C2143 C2136 1.409 . S
C2143 C2142 1.362 . S
H2144 C2150 0.930 . S
H2145 C2153 0.930 . S
H2146 C2154 0.930 . S
H2147 C2155 0.930 . S
H2148 C2158 0.930 . S
H2149 C2159 0.930 . S
C2150 H2144 0.930 . S
C2150 C2151 1.355 . S
C2150 C2152 1.415 . S
C2151 C2150 1.355 . S
C2151 C2153 1.419 . S
C2152 C2150 1.415 . S
C2152 C2157 1.425 . S
C2152 C2159 1.409 . S
C2153 H2145 0.930 . S
C2153 C2151 1.419 . S
C2153 C2154 1.362 . S
C2154 H2146 0.930 . S
C2154 C2153 1.362 . S
C2154 C2157 1.409 . S
C2155 H2147 0.930 . S
C2155 C2156 1.355 . S
C2155 C2157 1.415 . S
C2156 C2155 1.355 . S
C2156 C2158 1.419 . S
C2157 C2152 1.425 . S
C2157 C2154 1.409 . S
C2157 C2155 1.415 . S
C2158 H2148 0.930 . S
C2158 C2156 1.419 . S
C2158 C2159 1.362 . S
C2159 H2149 0.930 . S
C2159 C2152 1.409 . S
C2159 C2158 1.362 . S
H2160 C2166 0.930 . S
H2161 C2169 0.930 . S
H2162 C2170 0.930 . S
H2163 C2171 0.930 . S
H2164 C2174 0.930 . S
H2165 C2175 0.930 . S
C2166 H2160 0.930 . S
C2166 C2167 1.355 . S
C2166 C2168 1.415 . S
C2167 C2166 1.355 . S
C2167 C2169 1.419 . S
C2168 C2166 1.415 . S
C2168 C2173 1.425 . S
C2168 C2175 1.409 . S
C2169 H2161 0.930 . S
C2169 C2167 1.419 . S
C2169 C2170 1.362 . S
C2170 H2162 0.930 . S
C2170 C2169 1.362 . S
C2170 C2173 1.409 . S
C2171 H2163 0.930 . S
C2171 C2172 1.355 . S
C2171 C2173 1.415 . S
C2172 C2171 1.355 . S
C2172 C2174 1.419 . S
C2173 C2168 1.425 . S
C2173 C2170 1.409 . S
C2173 C2171 1.415 . S
C2174 H2164 0.930 . S
C2174 C2172 1.419 . S
C2174 C2175 1.362 . S
C2175 H2165 0.930 . S
C2175 C2168 1.409 . S
C2175 C2174 1.362 . S
H2176 C2182 0.930 . S
H2177 C2185 0.930 . S
H2178 C2186 0.930 . S
H2179 C2187 0.930 . S
H2180 C2190 0.930 . S
H2181 C2191 0.930 . S
C2182 H2176 0.930 . S
C2182 C2183 1.355 . S
C2182 C2184 1.415 . S
C2183 C2182 1.355 . S
C2183 C2185 1.419 . S
C2184 C2182 1.415 . S
C2184 C2189 1.425 . S
C2184 C2191 1.409 . S
C2185 H2177 0.930 . S
C2185 C2183 1.419 . S
C2185 C2186 1.362 . S
C2186 H2178 0.930 . S
C2186 C2185 1.362 . S
C2186 C2189 1.409 . S
C2187 H2179 0.930 . S
C2187 C2188 1.355 . S
C2187 C2189 1.415 . S
C2188 C2187 1.355 . S
C2188 C2190 1.419 . S
C2189 C2184 1.425 . S
C2189 C2186 1.409 . S
C2189 C2187 1.415 . S
C2190 H2180 0.930 . S
C2190 C2188 1.419 . S
C2190 C2191 1.362 . S
C2191 H2181 0.930 . S
C2191 C2184 1.409 . S
C2191 C2190 1.362 . S
H2192 C2198 0.930 . S
H2193 C2201 0.930 . S
H2194 C2202 0.930 . S
H2195 C2203 0.930 . S
H2196 C2206 0.930 . S
H2197 C2207 0.930 . S
C2198 H2192 0.930 . S
C2198 C2199 1.355 . S
C2198 C2200 1.415 . S
C2199 C2198 1.355 . S
C2199 C2201 1.419 . S
C2200 C2198 1.415 . S
C2200 C2205 1.425 . S
C2200 C2207 1.409 . S
C2201 H2193 0.930 . S
C2201 C2199 1.419 . S
C2201 C2202 1.362 . S
C2202 H2194 0.930 . S
C2202 C2201 1.362 . S
C2202 C2205 1.409 . S
C2203 H2195 0.930 . S
C2203 C2204 1.355 . S
C2203 C2205 1.415 . S
C2204 C2203 1.355 . S
C2204 C2206 1.419 . S
C2205 C2200 1.425 . S
C2205 C2202 1.409 . S
C2205 C2203 1.415 . S
C2206 H2196 0.930 . S
C2206 C2204 1.419 . S
C2206 C2207 1.362 . S
C2207 H2197 0.930 . S
C2207 C2200 1.409 . S
C2207 C2206 1.362 . S
H2208 C2214 0.930 . S
H2209 C2217 0.930 . S
H2210 C2218 0.930 . S
H2211 C2219 0.930 . S
H2212 C2222 0.930 . S
H2213 C2223 0.930 . S
C2214 H2208 0.930 . S
C2214 C2215 1.355 . S
C2214 C2216 1.415 . S
C2215 C2214 1.355 . S
C2215 C2217 1.419 . S
C2216 C2214 1.415 . S
C2216 C2221 1.425 . S
C2216 C2223 1.409 . S
C2217 H2209 0.930 . S
C2217 C2215 1.419 . S
C2217 C2218 1.362 . S
C2218 H2210 0.930 . S
C2218 C2217 1.362 . S
C2218 C2221 1.409 . S
C2219 H2211 0.930 . S
C2219 C2220 1.355 . S
C2219 C2221 1.415 . S
C2220 C2219 1.355 . S
C2220 C2222 1.419 . S
C2221 C2216 1.425 . S
C2221 C2218 1.409 . S
C2221 C2219 1.415 . S
C2222 H2212 0.930 . S
C2222 C2220 1.419 . S
C2222 C2223 1.362 . S
C2223 H2213 0.930 . S
C2223 C2216 1.409 . S
C2223 C2222 1.362 . S
H2224 C2230 0.930 . S
H2225 C2233 0.930 . S
H2226 C2234 0.930 . S
H2227 C2235 0.930 . S
H2228 C2238 0.930 . S
H2229 C2239 0.930 . S
C2230 H2224 0.930 . S
C2230 C2231 1.355 . S
C2230 C2232 1.415 . S
C2231 C2230 1.355 . S
C2231 C2233 1.419 . S
C2232 C2230 1.415 . S
C2232 C2237 1.425 . S
C2232 C2239 1.409 . S
C2233 H2225 0.930 . S
C2233 C2231 1.419 . S
C2233 C2234 1.362 . S
C2234 H2226 0.930 . S
C2234 C2233 1.362 . S
C2234 C2237 1.409 . S
C2235 H2227 0.930 . S
C2235 C2236 1.355 . S
C2235 C2237 1.415 . S
C2236 C2235 1.355 . S
C2236 C2238 1.419 . S
C2237 C2232 1.425 . S
C2237 C2234 1.409 . S
C2237 C2235 1.415 . S
C2238 H2228 0.930 . S
C2238 C2236 1.419 . S
C2238 C2239 1.362 . S
C2239 H2229 0.930 . S
C2239 C2232 1.409 . S
C2239 C2238 1.362 . S
H2240 C2246 0.930 . S
H2241 C2249 0.930 . S
H2242 C2250 0.930 . S
H2243 C2251 0.930 . S
H2244 C2254 0.930 . S
H2245 C2255 0.930 . S
C2246 H2240 0.930 . S
C2246 C2247 1.355 . S
C2246 C2248 1.415 . S
C2247 C2246 1.355 . S
C2247 C2249 1.419 . S
C2248 C2246 1.415 . S
C2248 C2253 1.425 . S
C2248 C2255 1.409 . S
C2249 H2241 0.930 . S
C2249 C2247 1.419 . S
C2249 C2250 1.362 . S
C2250 H2242 0.930 . S
C2250 C2249 1.362 . S
C2250 C2253 1.409 . S
C2251 H2243 0.930 . S
C2251 C2252 1.355 . S
C2251 C2253 1.415 . S
C2252 C2251 1.355 . S
C2252 C2254 1.419 . S
C2253 C2248 1.425 . S
C2253 C2250 1.409 . S
C2253 C2251 1.415 . S
C2254 H2244 0.930 . S
C2254 C2252 1.419 . S
C2254 C2255 1.362 . S
C2255 H2245 0.930 . S
C2255 C2248 1.409 . S
C2255 C2254 1.362 . S
H2256 C2262 0.930 . S
H2257 C2265 0.930 . S
H2258 C2266 0.930 . S
H2259 C2267 0.930 . S
H2260 C2270 0.930 . S
H2261 C2271 0.930 . S
C2262 H2256 0.930 . S
C2262 C2263 1.355 . S
C2262 C2264 1.415 . S
C2263 C2262 1.355 . S
C2263 C2265 1.419 . S
C2264 C2262 1.415 . S
C2264 C2269 1.425 . S
C2264 C2271 1.409 . S
C2265 H2257 0.930 . S
C2265 C2263 1.419 . S
C2265 C2266 1.362 . S
C2266 H2258 0.930 . S
C2266 C2265 1.362 . S
C2266 C2269 1.409 . S
C2267 H2259 0.930 . S
C2267 C2268 1.355 . S
C2267 C2269 1.415 . S
C2268 C2267 1.355 . S
C2268 C2270 1.419 . S
C2269 C2264 1.425 . S
C2269 C2266 1.409 . S
C2269 C2267 1.415 . S
C2270 H2260 0.930 . S
C2270 C2268 1.419 . S
C2270 C2271 1.362 . S
C2271 H2261 0.930 . S
C2271 C2264 1.409 . S
C2271 C2270 1.362 . S
H2272 C2278 0.930 . S
H2273 C2281 0.930 . S
H2274 C2282 0.930 . S
H2275 C2283 0.930 . S
H2276 C2286 0.930 . S
H2277 C2287 0.930 . S
C2278 H2272 0.930 . S
C2278 C2279 1.355 . S
C2278 C2280 1.415 . S
C2279 C2278 1.355 . S
C2279 C2281 1.419 . S
C2280 C2278 1.415 . S
C2280 C2285 1.425 . S
C2280 C2287 1.409 . S
C2281 H2273 0.930 . S
C2281 C2279 1.419 . S
C2281 C2282 1.362 . S
C2282 H2274 0.930 . S
C2282 C2281 1.362 . S
C2282 C2285 1.409 . S
C2283 H2275 0.930 . S
C2283 C2284 1.355 . S
C2283 C2285 1.415 . S
C2284 C2283 1.355 . S
C2284 C2286 1.419 . S
C2285 C2280 1.425 . S
C2285 C2282 1.409 . S
C2285 C2283 1.415 . S
C2286 H2276 0.930 . S
C2286 C2284 1.419 . S
C2286 C2287 1.362 . S
C2287 H2277 0.930 . S
C2287 C2280 1.409 . S
C2287 C2286 1.362 . S
H2288 C2294 0.930 . S
H2289 C2297 0.930 . S
H2290 C2298 0.930 . S
H2291 C2299 0.930 . S
H2292 C2302 0.930 . S
H2293 C2303 0.930 . S
C2294 H2288 0.930 . S
C2294 C2295 1.355 . S
C2294 C2296 1.415 . S
C2295 C2294 1.355 . S
C2295 C2297 1.419 . S
C2296 C2294 1.415 . S
C2296 C2301 1.425 . S
C2296 C2303 1.409 . S
C2297 H2289 0.930 . S
C2297 C2295 1.419 . S
C2297 C2298 1.362 . S
C2298 H2290 0.930 . S
C2298 C2297 1.362 . S
C2298 C2301 1.409 . S
C2299 H2291 0.930 . S
C2299 C2300 1.355 . S
C2299 C2301 1.415 . S
C2300 C2299 1.355 . S
C2300 C2302 1.419 . S
C2301 C2296 1.425 . S
C2301 C2298 1.409 . S
C2301 C2299 1.415 . S
C2302 H2292 0.930 . S
C2302 C2300 1.419 . S
C2302 C2303 1.362 . S
C2303 H2293 0.930 . S
C2303 C2296 1.409 . S
C2303 C2302 1.362 . S
H2304 C2310 0.930 . S
H2305 C2313 0.930 . S
H2306 C2314 0.930 . S
H2307 C2315 0.930 . S
H2308 C2318 0.930 . S
H2309 C2319 0.930 . S
C2310 H2304 0.930 . S
C2310 C2311 1.355 . S
C2310 C2312 1.415 . S
C2311 C2310 1.355 . S
C2311 C2313 1.419 . S
C2312 C2310 1.415 . S
C2312 C2317 1.425 . S
C2312 C2319 1.409 . S
C2313 H2305 0.930 . S
C2313 C2311 1.419 . S
C2313 C2314 1.362 . S
C2314 H2306 0.930 . S
C2314 C2313 1.362 . S
C2314 C2317 1.409 . S
C2315 H2307 0.930 . S
C2315 C2316 1.355 . S
C2315 C2317 1.415 . S
C2316 C2315 1.355 . S
C2316 C2318 1.419 . S
C2317 C2312 1.425 . S
C2317 C2314 1.409 . S
C2317 C2315 1.415 . S
C2318 H2308 0.930 . S
C2318 C2316 1.419 . S
C2318 C2319 1.362 . S
C2319 H2309 0.930 . S
C2319 C2312 1.409 . S
C2319 C2318 1.362 . S
H2320 C2326 0.930 . S
H2321 C2329 0.930 . S
H2322 C2330 0.930 . S
H2323 C2331 0.930 . S
H2324 C2334 0.930 . S
H2325 C2335 0.930 . S
C2326 H2320 0.930 . S
C2326 C2327 1.355 . S
C2326 C2328 1.415 . S
C2327 C2326 1.355 . S
C2327 C2329 1.419 . S
C2328 C2326 1.415 . S
C2328 C2333 1.425 . S
C2328 C2335 1.409 . S
C2329 H2321 0.930 . S
C2329 C2327 1.419 . S
C2329 C2330 1.362 . S
C2330 H2322 0.930 . S
C2330 C2329 1.362 . S
C2330 C2333 1.409 . S
C2331 H2323 0.930 . S
C2331 C2332 1.355 . S
C2331 C2333 1.415 . S
C2332 C2331 1.355 . S
C2332 C2334 1.419 . S
C2333 C2328 1.425 . S
C2333 C2330 1.409 . S
C2333 C2331 1.415 . S
C2334 H2324 0.930 . S
C2334 C2332 1.419 . S
C2334 C2335 1.362 . S
C2335 H2325 0.930 . S
C2335 C2328 1.409 . S
C2335 C2334 1.362 . S
H2336 C2342 0.930 . S
H2337 C2345 0.930 . S
H2338 C2346 0.930 . S
H2339 C2347 0.930 . S
H2340 C2350 0.930 . S
H2341 C2351 0.930 . S
C2342 H2336 0.930 . S
C2342 C2343 1.355 . S
C2342 C2344 1.415 . S
C2343 C2342 1.355 . S
C2343 C2345 1.419 . S
C2344 C2342 1.415 . S
C2344 C2349 1.425 . S
C2344 C2351 1.409 . S
C2345 H2337 0.930 . S
C2345 C2343 1.419 . S
C2345 C2346 1.362 . S
C2346 H2338 0.930 . S
C2346 C2345 1.362 . S
C2346 C2349 1.409 . S
C2347 H2339 0.930 . S
C2347 C2348 1.355 . S
C2347 C2349 1.415 . S
C2348 C2347 1.355 . S
C2348 C2350 1.419 . S
C2349 C2344 1.425 . S
C2349 C2346 1.409 . S
C2349 C2347 1.415 . S
C2350 H2340 0.930 . S
C2350 C2348 1.419 . S
C2350 C2351 1.362 . S
C2351 H2341 0.930 . S
C2351 C2344 1.409 . S
C2351 C2350 1.362 . S
H2352 C2358 0.930 . S
H2353 C2361 0.930 . S
H2354 C2362 0.930 . S
H2355 C2363 0.930 . S
H2356 C2366 0.930 . S
H2357 C2367 0.930 . S
C2358 H2352 0.930 . S
C2358 C2359 1.355 . S
C2358 C2360 1.415 . S
C2359 C2358 1.355 . S
C2359 C2361 1.419 . S
C2360 C2358 1.415 . S
C2360 C2365 1.425 . S
C2360 C2367 1.409 . S
C2361 H2353 0.930 . S
C2361 C2359 1.419 . S
C2361 C2362 1.362 . S
C2362 H2354 0.930 . S
C2362 C2361 1.362 . S
C2362 C2365 1.409 . S
C2363 H2355 0.930 . S
C2363 C2364 1.355 . S
C2363 C2365 1.415 . S
C2364 C2363 1.355 . S
C2364 C2366 1.419 . S
C2365 C2360 1.425 . S
C2365 C2362 1.409 . S
C2365 C2363 1.415 . S
C2366 H2356 0.930 . S
C2366 C2364 1.419 . S
C2366 C2367 1.362 . S
C2367 H2357 0.930 . S
C2367 C2360 1.409 . S
C2367 C2366 1.362 . S
H2368 C2374 0.930 . S
H2369 C2377 0.930 . S
H2370 C2378 0.930 . S
H2371 C2379 0.930 . S
H2372 C2382 0.930 . S
H2373 C2383 0.930 . S
C2374 H2368 0.930 . S
C2374 C2375 1.355 . S
C2374 C2376 1.415 . S
C2375 C2374 1.355 . S
C2375 C2377 1.419 . S
C2376 C2374 1.415 . S
C2376 C2381 1.425 . S
C2376 C2383 1.409 . S
C2377 H2369 0.930 . S
C2377 C2375 1.419 . S
C2377 C2378 1.362 . S
C2378 H2370 0.930 . S
C2378 C2377 1.362 . S
C2378 C2381 1.409 . S
C2379 H2371 0.930 . S
C2379 C2380 1.355 . S
C2379 C2381 1.415 . S
C2380 C2379 1.355 . S
C2380 C2382 1.419 . S
C2381 C2376 1.425 . S
C2381 C2378 1.409 . S
C2381 C2379 1.415 . S
C2382 H2372 0.930 . S
C2382 C2380 1.419 . S
C2382 C2383 1.362 . S
C2383 H2373 0.930 . S
C2383 C2376 1.409 . S
C2383 C2382 1.362 . S
H2384 C2390 0.930 . S
H2385 C2393 0.930 . S
H2386 C2394 0.930 . S
H2387 C2395 0.930 . S
H2388 C2398 0.930 . S
H2389 C2399 0.930 . S
C2390 H2384 0.930 . S
C2390 C2391 1.355 . S
C2390 C2392 1.415 . S
C2391 C2390 1.355 . S
C2391 C2393 1.419 . S
C2392 C2390 1.415 . S
C2392 C2397 1.425 . S
C2392 C2399 1.409 . S
C2393 H2385 0.930 . S
C2393 C2391 1.419 . S
C2393 C2394 1.362 . S
C2394 H2386 0.930 . S
C2394 C2393 1.362 . S
C2394 C2397 1.409 . S
C2395 H2387 0.930 . S
C2395 C2396 1.355 . S
C2395 C2397 1.415 . S
C2396 C2395 1.355 . S
C2396 C2398 1.419 . S
C2397 C2392 1.425 . S
C2397 C2394 1.409 . S
C2397 C2395 1.415 . S
C2398 H2388 0.930 . S
C2398 C2396 1.419 . S
C2398 C2399 1.362 . S
C2399 H2389 0.930 . S
C2399 C2392 1.409 . S
C2399 C2398 1.362 . S
H2400 C2406 0.930 . S
H2401 C2409 0.930 . S
H2402 C2410 0.930 . S
H2403 C2411 0.930 . S
H2404 C2414 0.930 . S
H2405 C2415 0.930 . S
C2406 H2400 0.930 . S
C2406 C2407 1.355 . S
C2406 C2408 1.415 . S
C2407 C2406 1.355 . S
C2407 C2409 1.419 . S
C2408 C2406 1.415 . S
C2408 C2413 1.425 . S
C2408 C2415 1.409 . S
C2409 H2401 0.930 . S
C2409 C2407 1.419 . S
C2409 C2410 1.362 . S
C2410 H2402 0.930 . S
C2410 C2409 1.362 . S
C2410 C2413 1.409 . S
C2411 H2403 0.930 . S
C2411 C2412 1.355 . S
C2411 C2413 1.415 . S
C2412 C2411 1.355 . S
C2412 C2414 1.419 . S
C2413 C2408 1.425 . S
C2413 C2410 1.409 . S
C2413 C2411 1.415 . S
C2414 H2404 0.930 . S
C2414 C2412 1.419 . S
C2414 C2415 1.362 . S
C2415 H2405 0.930 . S
C2415 C2408 1.409 . S
C2415 C2414 1.362 . S
H2416 C2422 0.930 . S
H2417 C2425 0.930 . S
H2418 C2426 0.930 . S
H2419 C2427 0.930 . S
H2420 C2430 0.930 . S
H2421 C2431 0.930 . S
C2422 H2416 0.930 . S
C2422 C2423 1.355 . S
C2422 C2424 1.415 . S
C2423 C2422 1.355 . S
C2423 C2425 1.419 . S
C2424 C2422 1.415 . S
C2424 C2429 1.425 . S
C2424 C2431 1.409 . S
C2425 H2417 0.930 . S
C2425 C2423 1.419 . S
C2425 C2426 1.362 . S
C2426 H2418 0.930 . S
C2426 C2425 1.362 . S
C2426 C2429 1.409 . S
C2427 H2419 0.930 . S
C2427 C2428 1.355 . S
C2427 C2429 1.415 . S
C2428 C2427 1.355 . S
C2428 C2430 1.419 . S
C2429 C2424 1.425 . S
C2429 C2426 1.409 . S
C2429 C2427 1.415 . S
C2430 H2420 0.930 . S
C2430 C2428 1.419 . S
C2430 C2431 1.362 . S
C2431 H2421 0.930 . S
C2431 C2424 1.409 . S
C2431 C2430 1.362 . S
H2432 C2438 0.930 . S
H2433 C2441 0.930 . S
H2434 C2442 0.930 . S
H2435 C2443 0.930 . S
H2436 C2446 0.930 . S
H2437 C2447 0.930 . S
C2438 H2432 0.930 . S
C2438 C2439 1.355 . S
C2438 C2440 1.415 . S
C2439 C2438 1.355 . S
C2439 C2441 1.419 . S
C2440 C2438 1.415 . S
C2440 C2445 1.425 . S
C2440 C2447 1.409 . S
C2441 H2433 0.930 . S
C2441 C2439 1.419 . S
C2441 C2442 1.362 . S
C2442 H2434 0.930 . S
C2442 C2441 1.362 . S
C2442 C2445 1.409 . S
C2443 H2435 0.930 . S
C2443 C2444 1.355 . S
C2443 C2445 1.415 . S
C2444 C2443 1.355 . S
C2444 C2446 1.419 . S
C2445 C2440 1.425 . S
C2445 C2442 1.409 . S
C2445 C2443 1.415 . S
C2446 H2436 0.930 . S
C2446 C2444 1.419 . S
C2446 C2447 1.362 . S
C2447 H2437 0.930 . S
C2447 C2440 1.409 . S
C2447 C2446 1.362 . S
H2448 C2454 0.930 . S
H2449 C2457 0.930 . S
H2450 C2458 0.930 . S
H2451 C2459 0.930 . S
H2452 C2462 0.930 . S
H2453 C2463 0.930 . S
C2454 H2448 0.930 . S
C2454 C2455 1.355 . S
C2454 C2456 1.415 . S
C2455 C2454 1.355 . S
C2455 C2457 1.419 . S
C2456 C2454 1.415 . S
C2456 C2461 1.425 . S
C2456 C2463 1.409 . S
C2457 H2449 0.930 . S
C2457 C2455 1.419 . S
C2457 C2458 1.362 . S
C2458 H2450 0.930 . S
C2458 C2457 1.362 . S
C2458 C2461 1.409 . S
C2459 H2451 0.930 . S
C2459 C2460 1.355 . S
C2459 C2461 1.415 . S
C2460 C2459 1.355 . S
C2460 C2462 1.419 . S
C2461 C2456 1.425 . S
C2461 C2458 1.409 . S
C2461 C2459 1.415 . S
C2462 H2452 0.930 . S
C2462 C2460 1.419 . S
C2462 C2463 1.362 . S
C2463 H2453 0.930 . S
C2463 C2456 1.409 . S
C2463 C2462 1.362 . S
H2464 C2470 0.930 . S
H2465 C2473 0.930 . S
H2466 C2474 0.930 . S
H2467 C2475 0.930 . S
H2468 C2478 0.930 . S
H2469 C2479 0.930 . S
C2470 H2464 0.930 . S
C2470 C2471 1.355 . S
C2470 C2472 1.415 . S
C2471 C2470 1.355 . S
C2471 C2473 1.419 . S
C2472 C2470 1.415 . S
C2472 C2477 1.425 . S
C2472 C2479 1.409 . S
C2473 H2465 0.930 . S
C2473 C2471 1.419 . S
C2473 C2474 1.362 . S
C2474 H2466 0.930 . S
C2474 C2473 1.362 . S
C2474 C2477 1.409 . S
C2475 H2467 0.930 . S
C2475 C2476 1.355 . S
C2475 C2477 1.415 . S
C2476 C2475 1.355 . S
C2476 C2478 1.419 . S
C2477 C2472 1.425 . S
C2477 C2474 1.409 . S
C2477 C2475 1.415 . S
C2478 H2468 0.930 . S
C2478 C2476 1.419 . S
C2478 C2479 1.362 . S
C2479 H2469 0.930 . S
C2479 C2472 1.409 . S
C2479 C2478 1.362 . S
H2480 C2486 0.930 . S
H2481 C2489 0.930 . S
H2482 C2490 0.930 . S
H2483 C2491 0.930 . S
H2484 C2494 0.930 . S
H2485 C2495 0.930 . S
C2486 H2480 0.930 . S
C2486 C2487 1.355 . S
C2486 C2488 1.415 . S
C2487 C2486 1.355 . S
C2487 C2489 1.419 . S
C2488 C2486 1.415 . S
C2488 C2493 1.425 . S
C2488 C2495 1.409 . S
C2489 H2481 0.930 . S
C2489 C2487 1.419 . S
C2489 C2490 1.362 . S
C2490 H2482 0.930 . S
C2490 C2489 1.362 . S
C2490 C2493 1.409 . S
C2491 H2483 0.930 . S
C2491 C2492 1.355 . S
C2491 C2493 1.415 . S
C2492 C2491 1.355 . S
C2492 C2494 1.419 . S
C2493 C2488 1.425 . S
C2493 C2490 1.409 . S
C2493 C2491 1.415 . S
C2494 H2484 0.930 . S
C2494 C2492 1.419 . S
C2494 C2495 1.362 . S
C2495 H2485 0.930 . S
C2495 C2488 1.409 . S
C2495 C2494 1.362 . S
H2496 C2502 0.930 . S
H2497 C2505 0.930 . S
H2498 C2506 0.930 . S
H2499 C2507 0.930 . S
H2500 C2510 0.930 . S
H2501 C2511 0.930 . S
C2502 H2496 0.930 . S
C2502 C2503 1.355 . S
C2502 C2504 1.415 . S
C2503 C2502 1.355 . S
C2503 C2505 1.419 . S
C2504 C2502 1.415 . S
C2504 C2509 1.425 . S
C2504 C2511 1.409 . S
C2505 H2497 0.930 . S
C2505 C2503 1.419 . S
C2505 C2506 1.362 . S
C2506 H2498 0.930 . S
C2506 C2505 1.362 . S
C2506 C2509 1.409 . S
C2507 H2499 0.930 . S
C2507 C2508 1.355 . S
C2507 C2509 1.415 . S
C2508 C2507 1.355 . S
C2508 C2510 1.419 . S
C2509 C2504 1.425 . S
C2509 C2506 1.409 . S
C2509 C2507 1.415 . S
C2510 H2500 0.930 . S
C2510 C2508 1.419 . S
C2510 C2511 1.362 . S
C2511 H2501 0.930 . S
C2511 C2504 1.409 . S
C2511 C2510 1.362 . S
H2512 C2518 0.930 . S
H2513 C2521 0.930 . S
H2514 C2522 0.930 . S
H2515 C2523 0.930 . S
H2516 C2526 0.930 . S
H2517 C2527 0.930 . S
C2518 H2512 0.930 . S
C2518 C2519 1.355 . S
C2518 C2520 1.415 . S
C2519 C2518 1.355 . S
C2519 C2521 1.419 . S
C2520 C2518 1.415 . S
C2520 C2525 1.425 . S
C2520 C2527 1.409 . S
C2521 H2513 0.930 . S
C2521 C2519 1.419 . S
C2521 C2522 1.362 . S
C2522 H2514 0.930 . S
C2522 C2521 1.362 . S
C2522 C2525 1.409 . S
C2523 H2515 0.930 . S
C2523 C2524 1.355 . S
C2523 C2525 1.415 . S
C2524 C2523 1.355 . S
C2524 C2526 1.419 . S
C2525 C2520 1.425 . S
C2525 C2522 1.409 . S
C2525 C2523 1.415 . S
C2526 H2516 0.930 . S
C2526 C2524 1.419 . S
C2526 C2527 1.362 . S
C2527 H2517 0.930 . S
C2527 C2520 1.409 . S
C2527 C2526 1.362 . S
H2528 C2534 0.930 . S
H2529 C2537 0.930 . S
H2530 C2538 0.930 . S
H2531 C2539 0.930 . S
H2532 C2542 0.930 . S
H2533 C2543 0.930 . S
C2534 H2528 0.930 . S
C2534 C2535 1.355 . S
C2534 C2536 1.415 . S
C2535 C2534 1.355 . S
C2535 C2537 1.419 . S
C2536 C2534 1.415 . S
C2536 C2541 1.425 . S
C2536 C2543 1.409 . S
C2537 H2529 0.930 . S
C2537 C2535 1.419 . S
C2537 C2538 1.362 . S
C2538 H2530 0.930 . S
C2538 C2537 1.362 . S
C2538 C2541 1.409 . S
C2539 H2531 0.930 . S
C2539 C2540 1.355 . S
C2539 C2541 1.415 . S
C2540 C2539 1.355 . S
C2540 C2542 1.419 . S
C2541 C2536 1.425 . S
C2541 C2538 1.409 . S
C2541 C2539 1.415 . S
C2542 H2532 0.930 . S
C2542 C2540 1.419 . S
C2542 C2543 1.362 . S
C2543 H2533 0.930 . S
C2543 C2536 1.409 . S
C2543 C2542 1.362 . S
H2544 C2550 0.930 . S
H2545 C2553 0.930 . S
H2546 C2554 0.930 . S
H2547 C2555 0.930 . S
H2548 C2558 0.930 . S
H2549 C2559 0.930 . S
C2550 H2544 0.930 . S
C2550 C2551 1.355 . S
C2550 C2552 1.415 . S
C2551 C2550 1.355 . S
C2551 C2553 1.419 . S
C2552 C2550 1.415 . S
C2552 C2557 1.425 . S
C2552 C2559 1.409 . S
C2553 H2545 0.930 . S
C2553 C2551 1.419 . S
C2553 C2554 1.362 . S
C2554 H2546 0.930 . S
C2554 C2553 1.362 . S
C2554 C2557 1.409 . S
C2555 H2547 0.930 . S
C2555 C2556 1.355 . S
C2555 C2557 1.415 . S
C2556 C2555 1.355 . S
C2556 C2558 1.419 . S
C2557 C2552 1.425 . S
C2557 C2554 1.409 . S
C2557 C2555 1.415 . S
C2558 H2548 0.930 . S
C2558 C2556 1.419 . S
C2558 C2559 1.362 . S
C2559 H2549 0.930 . S
C2559 C2552 1.409 . S
C2559 C2558 1.362 . S
H2560 C2566 0.930 . S
H2561 C2569 0.930 . S
H2562 C2570 0.930 . S
H2563 C2571 0.930 . S
H2564 C2574 0.930 . S
H2565 C2575 0.930 . S
C2566 H2560 0.930 . S
C2566 C2567 1.355 . S
C2566 C2568 1.415 . S
C2567 C2566 1.355 . S
C2567 C2569 1.419 . S
C2568 C2566 1.415 . S
C2568 C2573 1.425 . S
C2568 C2575 1.409 . S
C2569 H2561 0.930 . S
C2569 C2567 1.419 . S
C2569 C2570 1.362 . S
C2570 H2562 0.930 . S
C2570 C2569 1.362 . S
C2570 C2573 1.409 . S
C2571 H2563 0.930 . S
C2571 C2572 1.355 . S
C2571 C2573 1.415 . S
C2572 C2571 1.355 . S
C2572 C2574 1.419 . S
C2573 C2568 1.425 . S
C2573 C2570 1.409 . S
C2573 C2571 1.415 . S
C2574 H2564 0.930 . S
C2574 C2572 1.419 . S
C2574 C2575 1.362 . S
C2575 H2565 0.930 . S
C2575 C2568 1.409 . S
C2575 C2574 1.362 . S
H2576 C2582 0.930 . S
H2577 C2585 0.930 . S
H2578 C2586 0.930 . S
H2579 C2587 0.930 . S
H2580 C2590 0.930 . S
H2581 C2591 0.930 . S
C2582 H2576 0.930 . S
C2582 C2583 1.355 . S
C2582 C2584 1.415 . S
C2583 C2582 1.355 . S
C2583 C2585 1.419 . S
C2584 C2582 1.415 . S
C2584 C2589 1.425 . S
C2584 C2591 1.409 . S
C2585 H2577 0.930 . S
C2585 C2583 1.419 . S
C2585 C2586 1.362 . S
C2586 H2578 0.930 . S
C2586 C2585 1.362 . S
C2586 C2589 1.409 . S
C2587 H2579 0.930 . S
C2587 C2588 1.355 . S
C2587 C2589 1.415 . S
C2588 C2587 1.355 . S
C2588 C2590 1.419 . S
C2589 C2584 1.425 . S
C2589 C2586 1.409 . S
C2589 C2587 1.415 . S
C2590 H2580 0.930 . S
C2590 C2588 1.419 . S
C2590 C2591 1.362 . S
C2591 H2581 0.930 . S
C2591 C2584 1.409 . S
C2591 C2590 1.362 . S
H2592 C2598 0.930 . S
H2593 C2601 0.930 . S
H2594 C2602 0.930 . S
H2595 C2603 0.930 . S
H2596 C2606 0.930 . S
H2597 C2607 0.930 . S
C2598 H2592 0.930 . S
C2598 C2599 1.355 . S
C2598 C2600 1.415 . S
C2599 C2598 1.355 . S
C2599 C2601 1.419 . S
C2600 C2598 1.415 . S
C2600 C2605 1.425 . S
C2600 C2607 1.409 . S
C2601 H2593 0.930 . S
C2601 C2599 1.419 . S
C2601 C2602 1.362 . S
C2602 H2594 0.930 . S
C2602 C2601 1.362 . S
C2602 C2605 1.409 . S
C2603 H2595 0.930 . S
C2603 C2604 1.355 . S
C2603 C2605 1.415 . S
C2604 C2603 1.355 . S
C2604 C2606 1.419 . S
C2605 C2600 1.425 . S
C2605 C2602 1.409 . S
C2605 C2603 1.415 . S
C2606 H2596 0.930 . S
C2606 C2604 1.419 . S
C2606 C2607 1.362 . S
C2607 H2597 0.930 . S
C2607 C2600 1.409 . S
C2607 C2606 1.362 . S
H2608 C2614 0.930 . S
H2609 C2617 0.930 . S
H2610 C2618 0.930 . S
H2611 C2619 0.930 . S
H2612 C2622 0.930 . S
H2613 C2623 0.930 . S
C2614 H2608 0.930 . S
C2614 C2615 1.355 . S
C2614 C2616 1.415 . S
C2615 C2614 1.355 . S
C2615 C2617 1.419 . S
C2616 C2614 1.415 . S
C2616 C2621 1.425 . S
C2616 C2623 1.409 . S
C2617 H2609 0.930 . S
C2617 C2615 1.419 . S
C2617 C2618 1.362 . S
C2618 H2610 0.930 . S
C2618 C2617 1.362 . S
C2618 C2621 1.409 . S
C2619 H2611 0.930 . S
C2619 C2620 1.355 . S
C2619 C2621 1.415 . S
C2620 C2619 1.355 . S
C2620 C2622 1.419 . S
C2621 C2616 1.425 . S
C2621 C2618 1.409 . S
C2621 C2619 1.415 . S
C2622 H2612 0.930 . S
C2622 C2620 1.419 . S
C2622 C2623 1.362 . S
C2623 H2613 0.930 . S
C2623 C2616 1.409 . S
C2623 C2622 1.362 . S
H2624 C2630 0.930 . S
H2625 C2633 0.930 . S
H2626 C2634 0.930 . S
H2627 C2635 0.930 . S
H2628 C2638 0.930 . S
H2629 C2639 0.930 . S
C2630 H2624 0.930 . S
C2630 C2631 1.355 . S
C2630 C2632 1.415 . S
C2631 C2630 1.355 . S
C2631 C2633 1.419 . S
C2632 C2630 1.415 . S
C2632 C2637 1.425 . S
C2632 C2639 1.409 . S
C2633 H2625 0.930 . S
C2633 C2631 1.419 . S
C2633 C2634 1.362 . S
C2634 H2626 0.930 . S
C2634 C2633 1.362 . S
C2634 C2637 1.409 . S
C2635 H2627 0.930 . S
C2635 C2636 1.355 . S
C2635 C2637 1.415 . S
C2636 C2635 1.355 . S
C2636 C2638 1.419 . S
C2637 C2632 1.425 . S
C2637 C2634 1.409 . S
C2637 C2635 1.415 . S
C2638 H2628 0.930 . S
C2638 C2636 1.419 . S
C2638 C2639 1.362 . S
C2639 H2629 0.930 . S
C2639 C2632 1.409 . S
C2639 C2638 1.362 . S
H2640 C2646 0.930 . S
H2641 C2649 0.930 . S
H2642 C2650 0.930 . S
H2643 C2651 0.930 . S
H2644 C2654 0.930 . S
H2645 C2655 0.930 . S
C2646 H2640 0.930 . S
C2646 C2647 1.355 . S
C2646 C2648 1.415 . S
C2647 C2646 1.355 . S
C2647 C2649 1.419 . S
C2648 C2646 1.415 . S
C2648 C2653 1.425 . S
C2648 C2655 1.409 . S
C2649 H2641 0.930 . S
C2649 C2647 1.419 . S
C2649 C2650 1.362 . S
C2650 H2642 0.930 . S
C2650 C2649 1.362 . S
C2650 C2653 1.409 . S
C2651 H2643 0.930 . S
C2651 C2652 1.355 . S
C2651 C2653 1.415 . S
C2652 C2651 1.355 . S
C2652 C2654 1.419 . S
C2653 C2648 1.425 . S
C2653 C2650 1.409 . S
C2653 C2651 1.415 . S
C2654 H2644 0.930 . S
C2654 C2652 1.419 . S
C2654 C2655 1.362 . S
C2655 H2645 0.930 . S
C2655 C2648 1.409 . S
C2655 C2654 1.362 . S
H2656 C2662 0.930 . S
H2657 C2665 0.930 . S
H2658 C2666 0.930 . S
H2659 C2667 0.930 . S
H2660 C2670 0.930 . S
H2661 C2671 0.930 . S
C2662 H2656 0.930 . S
C2662 C2663 1.355 . S
C2662 C2664 1.415 . S
C2663 C2662 1.355 . S
C2663 C2665 1.419 . S
C2664 C2662 1.415 . S
C2664 C2669 1.425 . S
C2664 C2671 1.409 . S
C2665 H2657 0.930 . S
C2665 C2663 1.419 . S
C2665 C2666 1.362 . S
C2666 H2658 0.930 . S
C2666 C2665 1.362 . S
C2666 C2669 1.409 . S
C2667 H2659 0.930 . S
C2667 C2668 1.355 . S
C2667 C2669 1.415 . S
C2668 C2667 1.355 . S
C2668 C2670 1.419 . S
C2669 C2664 1.425 . S
C2669 C2666 1.409 . S
C2669 C2667 1.415 . S
C2670 H2660 0.930 . S
C2670 C2668 1.419 . S
C2670 C2671 1.362 . S
C2671 H2661 0.930 . S
C2671 C2664 1.409 . S
C2671 C2670 1.362 . S
H2672 C2678 0.930 . S
H2673 C2681 0.930 . S
H2674 C2682 0.930 . S
H2675 C2683 0.930 . S
H2676 C2686 0.930 . S
H2677 C2687 0.930 . S
C2678 H2672 0.930 . S
C2678 C2679 1.355 . S
C2678 C2680 1.415 . S
C2679 C2678 1.355 . S
C2679 C2681 1.419 . S
C2680 C2678 1.415 . S
C2680 C2685 1.425 . S
C2680 C2687 1.409 . S
C2681 H2673 0.930 . S
C2681 C2679 1.419 . S
C2681 C2682 1.362 . S
C2682 H2674 0.930 . S
C2682 C2681 1.362 . S
C2682 C2685 1.409 . S
C2683 H2675 0.930 . S
C2683 C2684 1.355 . S
C2683 C2685 1.415 . S
C2684 C2683 1.355 . S
C2684 C2686 1.419 . S
C2685 C2680 1.425 . S
C2685 C2682 1.409 . S
C2685 C2683 1.415 . S
C2686 H2676 0.930 . S
C2686 C2684 1.419 . S
C2686 C2687 1.362 . S
C2687 H2677 0.930 . S
C2687 C2680 1.409 . S
C2687 C2686 1.362 . S
H2688 C2694 0.930 . S
H2689 C2697 0.930 . S
H2690 C2698 0.930 . S
H2691 C2699 0.930 . S
H2692 C2702 0.930 . S
H2693 C2703 0.930 . S
C2694 H2688 0.930 . S
C2694 C2695 1.355 . S
C2694 C2696 1.415 . S
C2695 C2694 1.355 . S
C2695 C2697 1.419 . S
C2696 C2694 1.415 . S
C2696 C2701 1.425 . S
C2696 C2703 1.409 . S
C2697 H2689 0.930 . S
C2697 C2695 1.419 . S
C2697 C2698 1.362 . S
C2698 H2690 0.930 . S
C2698 C2697 1.362 . S
C2698 C2701 1.409 . S
C2699 H2691 0.930 . S
C2699 C2700 1.355 . S
C2699 C2701 1.415 . S
C2700 C2699 1.355 . S
C2700 C2702 1.419 . S
C2701 C2696 1.425 . S
C2701 C2698 1.409 . S
C2701 C2699 1.415 . S
C2702 H2692 0.930 . S
C2702 C2700 1.419 . S
C2702 C2703 1.362 . S
C2703 H2693 0.930 . S
C2703 C2696 1.409 . S
C2703 C2702 1.362 . S
H2704 C2710 0.930 . S
H2705 C2713 0.930 . S
H2706 C2714 0.930 . S
H2707 C2715 0.930 . S
H2708 C2718 0.930 . S
H2709 C2719 0.930 . S
C2710 H2704 0.930 . S
C2710 C2711 1.355 . S
C2710 C2712 1.415 . S
C2711 C2710 1.355 . S
C2711 C2713 1.419 . S
C2712 C2710 1.415 . S
C2712 C2717 1.425 . S
C2712 C2719 1.409 . S
C2713 H2705 0.930 . S
C2713 C2711 1.419 . S
C2713 C2714 1.362 . S
C2714 H2706 0.930 . S
C2714 C2713 1.362 . S
C2714 C2717 1.409 . S
C2715 H2707 0.930 . S
C2715 C2716 1.355 . S
C2715 C2717 1.415 . S
C2716 C2715 1.355 . S
C2716 C2718 1.419 . S
C2717 C2712 1.425 . S
C2717 C2714 1.409 . S
C2717 C2715 1.415 . S
C2718 H2708 0.930 . S
C2718 C2716 1.419 . S
C2718 C2719 1.362 . S
C2719 H2709 0.930 . S
C2719 C2712 1.409 . S
C2719 C2718 1.362 . S
H2720 C2726 0.930 . S
H2721 C2729 0.930 . S
H2722 C2730 0.930 . S
H2723 C2731 0.930 . S
H2724 C2734 0.930 . S
H2725 C2735 0.930 . S
C2726 H2720 0.930 . S
C2726 C2727 1.355 . S
C2726 C2728 1.415 . S
C2727 C2726 1.355 . S
C2727 C2729 1.419 . S
C2728 C2726 1.415 . S
C2728 C2733 1.425 . S
C2728 C2735 1.409 . S
C2729 H2721 0.930 . S
C2729 C2727 1.419 . S
C2729 C2730 1.362 . S
C2730 H2722 0.930 . S
C2730 C2729 1.362 . S
C2730 C2733 1.409 . S
C2731 H2723 0.930 . S
C2731 C2732 1.355 . S
C2731 C2733 1.415 . S
C2732 C2731 1.355 . S
C2732 C2734 1.419 . S
C2733 C2728 1.425 . S
C2733 C2730 1.409 . S
C2733 C2731 1.415 . S
C2734 H2724 0.930 . S
C2734 C2732 1.419 . S
C2734 C2735 1.362 . S
C2735 H2725 0.930 . S
C2735 C2728 1.409 . S
C2735 C2734 1.362 . S
H2736 C2742 0.930 . S
H2737 C2745 0.930 . S
H2738 C2746 0.930 . S
H2739 C2747 0.930 . S
H2740 C2750 0.930 . S
H2741 C2751 0.930 . S
C2742 H2736 0.930 . S
C2742 C2743 1.355 . S
C2742 C2744 1.415 . S
C2743 C2742 1.355 . S
C2743 C2745 1.419 . S
C2744 C2742 1.415 . S
C2744 C2749 1.425 . S
C2744 C2751 1.409 . S
C2745 H2737 0.930 . S
C2745 C2743 1.419 . S
C2745 C2746 1.362 . S
C2746 H2738 0.930 . S
C2746 C2745 1.362 . S
C2746 C2749 1.409 . S
C2747 H2739 0.930 . S
C2747 C2748 1.355 . S
C2747 C2749 1.415 . S
C2748 C2747 1.355 . S
C2748 C2750 1.419 . S
C2749 C2744 1.425 . S
C2749 C2746 1.409 . S
C2749 C2747 1.415 . S
C2750 H2740 0.930 . S
C2750 C2748 1.419 . S
C2750 C2751 1.362 . S
C2751 H2741 0.930 . S
C2751 C2744 1.409 . S
C2751 C2750 1.362 . S
H2752 C2758 0.930 . S
H2753 C2761 0.930 . S
H2754 C2762 0.930 . S
H2755 C2763 0.930 . S
H2756 C2766 0.930 . S
H2757 C2767 0.930 . S
C2758 H2752 0.930 . S
C2758 C2759 1.355 . S
C2758 C2760 1.415 . S
C2759 C2758 1.355 . S
C2759 C2761 1.419 . S
C2760 C2758 1.415 . S
C2760 C2765 1.425 . S
C2760 C2767 1.409 . S
C2761 H2753 0.930 . S
C2761 C2759 1.419 . S
C2761 C2762 1.362 . S
C2762 H2754 0.930 . S
C2762 C2761 1.362 . S
C2762 C2765 1.409 . S
C2763 H2755 0.930 . S
C2763 C2764 1.355 . S
C2763 C2765 1.415 . S
C2764 C2763 1.355 . S
C2764 C2766 1.419 . S
C2765 C2760 1.425 . S
C2765 C2762 1.409 . S
C2765 C2763 1.415 . S
C2766 H2756 0.930 . S
C2766 C2764 1.419 . S
C2766 C2767 1.362 . S
C2767 H2757 0.930 . S
C2767 C2760 1.409 . S
C2767 C2766 1.362 . S
H2768 C2774 0.930 . S
H2769 C2777 0.930 . S
H2770 C2778 0.930 . S
H2771 C2779 0.930 . S
H2772 C2782 0.930 . S
H2773 C2783 0.930 . S
C2774 H2768 0.930 . S
C2774 C2775 1.355 . S
C2774 C2776 1.415 . S
C2775 C2774 1.355 . S
C2775 C2777 1.419 . S
C2776 C2774 1.415 . S
C2776 C2781 1.425 . S
C2776 C2783 1.409 . S
C2777 H2769 0.930 . S
C2777 C2775 1.419 . S
C2777 C2778 1.362 . S
C2778 H2770 0.930 . S
C2778 C2777 1.362 . S
C2778 C2781 1.409 . S
C2779 H2771 0.930 . S
C2779 C2780 1.355 . S
C2779 C2781 1.415 . S
C2780 C2779 1.355 . S
C2780 C2782 1.419 . S
C2781 C2776 1.425 . S
C2781 C2778 1.409 . S
C2781 C2779 1.415 . S
C2782 H2772 0.930 . S
C2782 C2780 1.419 . S
C2782 C2783 1.362 . S
C2783 H2773 0.930 . S
C2783 C2776 1.409 . S
C2783 C2782 1.362 . S
H2784 C2790 0.930 . S
H2785 C2793 0.930 . S
H2786 C2794 0.930 . S
H2787 C2795 0.930 . S
H2788 C2798 0.930 . S
H2789 C2799 0.930 . S
C2790 H2784 0.930 . S
C2790 C2791 1.355 . S
C2790 C2792 1.415 . S
C2791 C2790 1.355 . S
C2791 C2793 1.419 . S
C2792 C2790 1.415 . S
C2792 C2797 1.425 . S
C2792 C2799 1.409 . S
C2793 H2785 0.930 . S
C2793 C2791 1.419 . S
C2793 C2794 1.362 . S
C2794 H2786 0.930 . S
C2794 C2793 1.362 . S
C2794 C2797 1.409 . S
C2795 H2787 0.930 . S
C2795 C2796 1.355 . S
C2795 C2797 1.415 . S
C2796 C2795 1.355 . S
C2796 C2798 1.419 . S
C2797 C2792 1.425 . S
C2797 C2794 1.409 . S
C2797 C2795 1.415 . S
C2798 H2788 0.930 . S
C2798 C2796 1.419 . S
C2798 C2799 1.362 . S
C2799 H2789 0.930 . S
C2799 C2792 1.409 . S
C2799 C2798 1.362 . S
H2800 C2806 0.930 . S
H2801 C2809 0.930 . S
H2802 C2810 0.930 . S
H2803 C2811 0.930 . S
H2804 C2814 0.930 . S
H2805 C2815 0.930 . S
C2806 H2800 0.930 . S
C2806 C2807 1.355 . S
C2806 C2808 1.415 . S
C2807 C2806 1.355 . S
C2807 C2809 1.419 . S
C2808 C2806 1.415 . S
C2808 C2813 1.425 . S
C2808 C2815 1.409 . S
C2809 H2801 0.930 . S
C2809 C2807 1.419 . S
C2809 C2810 1.362 . S
C2810 H2802 0.930 . S
C2810 C2809 1.362 . S
C2810 C2813 1.409 . S
C2811 H2803 0.930 . S
C2811 C2812 1.355 . S
C2811 C2813 1.415 . S
C2812 C2811 1.355 . S
C2812 C2814 1.419 . S
C2813 C2808 1.425 . S
C2813 C2810 1.409 . S
C2813 C2811 1.415 . S
C2814 H2804 0.930 . S
C2814 C2812 1.419 . S
C2814 C2815 1.362 . S
C2815 H2805 0.930 . S
C2815 C2808 1.409 . S
C2815 C2814 1.362 . S
H2816 C2822 0.930 . S
H2817 C2825 0.930 . S
H2818 C2826 0.930 . S
H2819 C2827 0.930 . S
H2820 C2830 0.930 . S
H2821 C2831 0.930 . S
C2822 H2816 0.930 . S
C2822 C2823 1.355 . S
C2822 C2824 1.415 . S
C2823 C2822 1.355 . S
C2823 C2825 1.419 . S
C2824 C2822 1.415 . S
C2824 C2829 1.425 . S
C2824 C2831 1.409 . S
C2825 H2817 0.930 . S
C2825 C2823 1.419 . S
C2825 C2826 1.362 . S
C2826 H2818 0.930 . S
C2826 C2825 1.362 . S
C2826 C2829 1.409 . S
C2827 H2819 0.930 . S
C2827 C2828 1.355 . S
C2827 C2829 1.415 . S
C2828 C2827 1.355 . S
C2828 C2830 1.419 . S
C2829 C2824 1.425 . S
C2829 C2826 1.409 . S
C2829 C2827 1.415 . S
C2830 H2820 0.930 . S
C2830 C2828 1.419 . S
C2830 C2831 1.362 . S
C2831 H2821 0.930 . S
C2831 C2824 1.409 . S
C2831 C2830 1.362 . S
H2832 C2838 0.930 . S
H2833 C2841 0.930 . S
H2834 C2842 0.930 . S
H2835 C2843 0.930 . S
H2836 C2846 0.930 . S
H2837 C2847 0.930 . S
C2838 H2832 0.930 . S
C2838 C2839 1.355 . S
C2838 C2840 1.415 . S
C2839 C2838 1.355 . S
C2839 C2841 1.419 . S
C2840 C2838 1.415 . S
C2840 C2845 1.425 . S
C2840 C2847 1.409 . S
C2841 H2833 0.930 . S
C2841 C2839 1.419 . S
C2841 C2842 1.362 . S
C2842 H2834 0.930 . S
C2842 C2841 1.362 . S
C2842 C2845 1.409 . S
C2843 H2835 0.930 . S
C2843 C2844 1.355 . S
C2843 C2845 1.415 . S
C2844 C2843 1.355 . S
C2844 C2846 1.419 . S
C2845 C2840 1.425 . S
C2845 C2842 1.409 . S
C2845 C2843 1.415 . S
C2846 H2836 0.930 . S
C2846 C2844 1.419 . S
C2846 C2847 1.362 . S
C2847 H2837 0.930 . S
C2847 C2840 1.409 . S
C2847 C2846 1.362 . S
H2848 C2854 0.930 . S
H2849 C2857 0.930 . S
H2850 C2858 0.930 . S
H2851 C2859 0.930 . S
H2852 C2862 0.930 . S
H2853 C2863 0.930 . S
C2854 H2848 0.930 . S
C2854 C2855 1.355 . S
C2854 C2856 1.415 . S
C2855 C2854 1.355 . S
C2855 C2857 1.419 . S
C2856 C2854 1.415 . S
C2856 C2861 1.425 . S
C2856 C2863 1.409 . S
C2857 H2849 0.930 . S
C2857 C2855 1.419 . S
C2857 C2858 1.362 . S
C2858 H2850 0.930 . S
C2858 C2857 1.362 . S
C2858 C2861 1.409 . S
C2859 H2851 0.930 . S
C2859 C2860 1.355 . S
C2859 C2861 1.415 . S
C2860 C2859 1.355 . S
C2860 C2862 1.419 . S
C2861 C2856 1.425 . S
C2861 C2858 1.409 . S
C2861 C2859 1.415 . S
C2862 H2852 0.930 . S
C2862 C2860 1.419 . S
C2862 C2863 1.362 . S
C2863 H2853 0.930 . S
C2863 C2856 1.409 . S
C2863 C2862 1.362 . S
H2864 C2870 0.930 . S
H2865 C2873 0.930 . S
H2866 C2874 0.930 . S
H2867 C2875 0.930 . S
H2868 C2878 0.930 . S
H2869 C2879 0.930 . S
C2870 H2864 0.930 . S
C2870 C2871 1.355 . S
C2870 C2872 1.415 . S
C2871 C2870 1.355 . S
C2871 C2873 1.419 . S
C2872 C2870 1.415 . S
C2872 C2877 1.425 . S
C2872 C2879 1.409 . S
C2873 H2865 0.930 . S
C2873 C2871 1.419 . S
C2873 C2874 1.362 . S
C2874 H2866 0.930 . S
C2874 C2873 1.362 . S
C2874 C2877 1.409 . S
C2875 H2867 0.930 . S
C2875 C2876 1.355 . S
C2875 C2877 1.415 . S
C2876 C2875 1.355 . S
C2876 C2878 1.419 . S
C2877 C2872 1.425 . S
C2877 C2874 1.409 . S
C2877 C2875 1.415 . S
C2878 H2868 0.930 . S
C2878 C2876 1.419 . S
C2878 C2879 1.362 . S
C2879 H2869 0.930 . S
C2879 C2872 1.409 . S
C2879 C2878 1.362 . S
H2880 C2886 0.930 . S
H2881 C2889 0.930 . S
H2882 C2890 0.930 . S
H2883 C2891 0.930 . S
H2884 C2894 0.930 . S
H2885 C2895 0.930 . S
C2886 H2880 0.930 . S
C2886 C2887 1.355 . S
C2886 C2888 1.415 . S
C2887 C2886 1.355 . S
C2887 C2889 1.419 . S
C2888 C2886 1.415 . S
C2888 C2893 1.425 . S
C2888 C2895 1.409 . S
C2889 H2881 0.930 . S
C2889 C2887 1.419 . S
C2889 C2890 1.362 . S
C2890 H2882 0.930 . S
C2890 C2889 1.362 . S
C2890 C2893 1.409 . S
C2891 H2883 0.930 . S
C2891 C2892 1.355 . S
C2891 C2893 1.415 . S
C2892 C2891 1.355 . S
C2892 C2894 1.419 . S
C2893 C2888 1.425 . S
C2893 C2890 1.409 . S
C2893 C2891 1.415 . S
C2894 H2884 0.930 . S
C2894 C2892 1.419 . S
C2894 C2895 1.362 . S
C2895 H2885 0.930 . S
C2895 C2888 1.409 . S
C2895 C2894 1.362 . S
H2896 C2902 0.930 . S
H2897 C2905 0.930 . S
H2898 C2906 0.930 . S
H2899 C2907 0.930 . S
H2900 C2910 0.930 . S
H2901 C2911 0.930 . S
C2902 H2896 0.930 . S
C2902 C2903 1.355 . S
C2902 C2904 1.415 . S
C2903 C2902 1.355 . S
C2903 C2905 1.419 . S
C2904 C2902 1.415 . S
C2904 C2909 1.425 . S
C2904 C2911 1.409 . S
C2905 H2897 0.930 . S
C2905 C2903 1.419 . S
C2905 C2906 1.362 . S
C2906 H2898 0.930 . S
C2906 C2905 1.362 . S
C2906 C2909 1.409 . S
C2907 H2899 0.930 . S
C2907 C2908 1.355 . S
C2907 C2909 1.415 . S
C2908 C2907 1.355 . S
C2908 C2910 1.419 . S
C2909 C2904 1.425 . S
C2909 C2906 1.409 . S
C2909 C2907 1.415 . S
C2910 H2900 0.930 . S
C2910 C2908 1.419 . S
C2910 C2911 1.362 . S
C2911 H2901 0.930 . S
C2911 C2904 1.409 . S
C2911 C2910 1.362 . S
H2912 C2918 0.930 . S
H2913 C2921 0.930 . S
H2914 C2922 0.930 . S
H2915 C2923 0.930 . S
H2916 C2926 0.930 . S
H2917 C2927 0.930 . S
C2918 H2912 0.930 . S
C2918 C2919 1.355 . S
C2918 C2920 1.415 . S
C2919 C2918 1.355 . S
C2919 C2921 1.419 . S
C2920 C2918 1.415 . S
C2920 C2925 1.425 . S
C2920 C2927 1.409 . S
C2921 H2913 0.930 . S
C2921 C2919 1.419 . S
C2921 C2922 1.362 . S
C2922 H2914 0.930 . S
C2922 C2921 1.362 . S
C2922 C2925 1.409 . S
C2923 H2915 0.930 . S
C2923 C2924 1.355 . S
C2923 C2925 1.415 . S
C2924 C2923 1.355 . S
C2924 C2926 1.419 . S
C2925 C2920 1.425 . S
C2925 C2922 1.409 . S
C2925 C2923 1.415 . S
C2926 H2916 0.930 . S
C2926 C2924 1.419 . S
C2926 C2927 1.362 . S
C2927 H2917 0.930 . S
C2927 C2920 1.409 . S
C2927 C2926 1.362 . S
H2928 C2934 0.930 . S
H2929 C2937 0.930 . S
H2930 C2938 0.930 . S
H2931 C2939 0.930 . S
H2932 C2942 0.930 . S
H2933 C2943 0.930 . S
C2934 H2928 0.930 . S
C2934 C2935 1.355 . S
C2934 C2936 1.415 . S
C2935 C2934 1.355 . S
C2935 C2937 1.419 . S
C2936 C2934 1.415 . S
C2936 C2941 1.425 . S
C2936 C2943 1.409 . S
C2937 H2929 0.930 . S
C2937 C2935 1.419 . S
C2937 C2938 1.362 . S
C2938 H2930 0.930 . S
C2938 C2937 1.362 . S
C2938 C2941 1.409 . S
C2939 H2931 0.930 . S
C2939 C2940 1.355 . S
C2939 C2941 1.415 . S
C2940 C2939 1.355 . S
C2940 C2942 1.419 . S
C2941 C2936 1.425 . S
C2941 C2938 1.409 . S
C2941 C2939 1.415 . S
C2942 H2932 0.930 . S
C2942 C2940 1.419 . S
C2942 C2943 1.362 . S
C2943 H2933 0.930 . S
C2943 C2936 1.409 . S
C2943 C2942 1.362 . S
H2944 C2950 0.930 . S
H2945 C2953 0.930 . S
H2946 C2954 0.930 . S
H2947 C2955 0.930 . S
H2948 C2958 0.930 . S
H2949 C2959 0.930 . S
C2950 H2944 0.930 . S
C2950 C2951 1.355 . S
C2950 C2952 1.415 . S
C2951 C2950 1.355 . S
C2951 C2953 1.419 . S
C2952 C2950 1.415 . S
C2952 C2957 1.425 . S
C2952 C2959 1.409 . S
C2953 H2945 0.930 . S
C2953 C2951 1.419 . S
C2953 C2954 1.362 . S
C2954 H2946 0.930 . S
C2954 C2953 1.362 . S
C2954 C2957 1.409 . S
C2955 H2947 0.930 . S
C2955 C2956 1.355 . S
C2955 C2957 1.415 . S
C2956 C2955 1.355 . S
C2956 C2958 1.419 . S
C2957 C2952 1.425 . S
C2957 C2954 1.409 . S
C2957 C2955 1.415 . S
C2958 H2948 0.930 . S
C2958 C2956 1.419 . S
C2958 C2959 1.362 . S
C2959 H2949 0.930 . S
C2959 C2952 1.409 . S
C2959 C2958 1.362 . S
H2960 C2966 0.930 . S
H2961 C2969 0.930 . S
H2962 C2970 0.930 . S
H2963 C2971 0.930 . S
H2964 C2974 0.930 . S
H2965 C2975 0.930 . S
C2966 H2960 0.930 . S
C2966 C2967 1.355 . S
C2966 C2968 1.415 . S
C2967 C2966 1.355 . S
C2967 C2969 1.419 . S
C2968 C2966 1.415 . S
C2968 C2973 1.425 . S
C2968 C2975 1.409 . S
C2969 H2961 0.930 . S
C2969 C2967 1.419 . S
C2969 C2970 1.362 . S
C2970 H2962 0.930 . S
C2970 C2969 1.362 . S
C2970 C2973 1.409 . S
C2971 H2963 0.930 . S
C2971 C2972 1.355 . S
C2971 C2973 1.415 . S
C2972 C2971 1.355 . S
C2972 C2974 1.419 . S
C2973 C2968 1.425 . S
C2973 C2970 1.409 . S
C2973 C2971 1.415 . S
C2974 H2964 0.930 . S
C2974 C2972 1.419 . S
C2974 C2975 1.362 . S
C2975 H2965 0.930 . S
C2975 C2968 1.409 . S
C2975 C2974 1.362 . S
H2976 C2982 0.930 . S
H2977 C2985 0.930 . S
H2978 C2986 0.930 . S
H2979 C2987 0.930 . S
H2980 C2990 0.930 . S
H2981 C2991 0.930 . S
C2982 H2976 0.930 . S
C2982 C2983 1.355 . S
C2982 C2984 1.415 . S
C2983 C2982 1.355 . S
C2983 C2985 1.419 . S
C2984 C2982 1.415 . S
C2984 C2989 1.425 . S
C2984 C2991 1.409 . S
C2985 H2977 0.930 . S
C2985 C2983 1.419 . S
C2985 C2986 1.362 . S
C2986 H2978 0.930 . S
C2986 C2985 1.362 . S
C2986 C2989 1.409 . S
C2987 H2979 0.930 . S
C2987 C2988 1.355 . S
C2987 C2989 1.415 . S
C2988 C2987 1.355 . S
C2988 C2990 1.419 . S
C2989 C2984 1.425 . S
C2989 C2986 1.409 . S
C2989 C2987 1.415 . S
C2990 H2980 0.930 . S
C2990 C2988 1.419 . S
C2990 C2991 1.362 . S
C2991 H2981 0.930 . S
C2991 C2984 1.409 . S
C2991 C2990 1.362 . S
H2992 C2998 0.930 . S
H2993 C3001 0.930 . S
H2994 C3002 0.930 . S
H2995 C3003 0.930 . S
H2996 C3006 0.930 . S
H2997 C3007 0.930 . S
C2998 H2992 0.930 . S
C2998 C2999 1.355 . S
C2998 C3000 1.415 . S
C2999 C2998 1.355 . S
C2999 C3001 1.419 . S
C3000 C2998 1.415 . S
C3000 C3005 1.425 . S
C3000 C3007 1.409 . S
C3001 H2993 0.930 . S
C3001 C2999 1.419 . S
C3001 C3002 1.362 . S
C3002 H2994 0.930 . S
C3002 C3001 1.362 . S
C3002 C3005 1.409 . S
C3003 H2995 0.930 . S
C3003 C3004 1.355 . S
C3003 C3005 1.415 . S
C3004 C3003 1.355 . S
C3004 C3006 1.419 . S
C3005 C3000 1.425 . S
C3005 C3002 1.409 . S
C3005 C3003 1.415 . S
C3006 H2996 0.930 . S
C3006 C3004 1.419 . S
C3006 C3007 1.362 . S
C3007 H2997 0.930 . S
C3007 C3000 1.409 . S
C3007 C3006 1.362 . S
H3008 C3014 0.930 . S
H3009 C3017 0.930 . S
H3010 C3018 0.930 . S
H3011 C3019 0.930 . S
H3012 C3022 0.930 . S
H3013 C3023 0.930 . S
C3014 H3008 0.930 . S
C3014 C3015 1.355 . S
C3014 C3016 1.415 . S
C3015 C3014 1.355 . S
C3015 C3017 1.419 . S
C3016 C3014 1.415 . S
C3016 C3021 1.425 . S
C3016 C3023 1.409 . S
C3017 H3009 0.930 . S
C3017 C3015 1.419 . S
C3017 C3018 1.362 . S
C3018 H3010 0.930 . S
C3018 C3017 1.362 . S
C3018 C3021 1.409 . S
C3019 H3011 0.930 . S
C3019 C3020 1.355 . S
C3019 C3021 1.415 . S
C3020 C3019 1.355 . S
C3020 C3022 1.419 . S
C3021 C3016 1.425 . S
C3021 C3018 1.409 . S
C3021 C3019 1.415 . S
C3022 H3012 0.930 . S
C3022 C3020 1.419 . S
C3022 C3023 1.362 . S
C3023 H3013 0.930 . S
C3023 C3016 1.409 . S
C3023 C3022 1.362 . S
H3024 C3030 0.930 . S
H3025 C3033 0.930 . S
H3026 C3034 0.930 . S
H3027 C3035 0.930 . S
H3028 C3038 0.930 . S
H3029 C3039 0.930 . S
C3030 H3024 0.930 . S
C3030 C3031 1.355 . S
C3030 C3032 1.415 . S
C3031 C3030 1.355 . S
C3031 C3033 1.419 . S
C3032 C3030 1.415 . S
C3032 C3037 1.425 . S
C3032 C3039 1.409 . S
C3033 H3025 0.930 . S
C3033 C3031 1.419 . S
C3033 C3034 1.362 . S
C3034 H3026 0.930 . S
C3034 C3033 1.362 . S
C3034 C3037 1.409 . S
C3035 H3027 0.930 . S
C3035 C3036 1.355 . S
C3035 C3037 1.415 . S
C3036 C3035 1.355 . S
C3036 C3038 1.419 . S
C3037 C3032 1.425 . S
C3037 C3034 1.409 . S
C3037 C3035 1.415 . S
C3038 H3028 0.930 . S
C3038 C3036 1.419 . S
C3038 C3039 1.362 . S
C3039 H3029 0.930 . S
C3039 C3032 1.409 . S
C3039 C3038 1.362 . S
H3040 C3046 0.930 . S
H3041 C3049 0.930 . S
H3042 C3050 0.930 . S
H3043 C3051 0.930 . S
H3044 C3054 0.930 . S
H3045 C3055 0.930 . S
C3046 H3040 0.930 . S
C3046 C3047 1.355 . S
C3046 C3048 1.415 . S
C3047 C3046 1.355 . S
C3047 C3049 1.419 . S
C3048 C3046 1.415 . S
C3048 C3053 1.425 . S
C3048 C3055 1.409 . S
C3049 H3041 0.930 . S
C3049 C3047 1.419 . S
C3049 C3050 1.362 . S
C3050 H3042 0.930 . S
C3050 C3049 1.362 . S
C3050 C3053 1.409 . S
C3051 H3043 0.930 . S
C3051 C3052 1.355 . S
C3051 C3053 1.415 . S
C3052 C3051 1.355 . S
C3052 C3054 1.419 . S
C3053 C3048 1.425 . S
C3053 C3050 1.409 . S
C3053 C3051 1.415 . S
C3054 H3044 0.930 . S
C3054 C3052 1.419 . S
C3054 C3055 1.362 . S
C3055 H3045 0.930 . S
C3055 C3048 1.409 . S
C3055 C3054 1.362 . S
H3056 C3062 0.930 . S
H3057 C3065 0.930 . S
H3058 C3066 0.930 . S
H3059 C3067 0.930 . S
H3060 C3070 0.930 . S
H3061 C3071 0.930 . S
C3062 H3056 0.930 . S
C3062 C3063 1.355 . S
C3062 C3064 1.415 . S
C3063 C3062 1.355 . S
C3063 C3065 1.419 . S
C3064 C3062 1.415 . S
C3064 C3069 1.425 . S
C3064 C3071 1.409 . S
C3065 H3057 0.930 . S
C3065 C3063 1.419 . S
C3065 C3066 1.362 . S
C3066 H3058 0.930 . S
C3066 C3065 1.362 . S
C3066 C3069 1.409 . S
C3067 H3059 0.930 . S
C3067 C3068 1.355 . S
C3067 C3069 1.415 . S
C3068 C3067 1.355 . S
C3068 C3070 1.419 . S
C3069 C3064 1.425 . S
C3069 C3066 1.409 . S
C3069 C3067 1.415 . S
C3070 H3060 0.930 . S
C3070 C3068 1.419 . S
C3070 C3071 1.362 . S
C3071 H3061 0.930 . S
C3071 C3064 1.409 . S
C3071 C3070 1.362 . S
H3072 C3078 0.930 . S
H3073 C3081 0.930 . S
H3074 C3082 0.930 . S
H3075 C3083 0.930 . S
H3076 C3086 0.930 . S
H3077 C3087 0.930 . S
C3078 H3072 0.930 . S
C3078 C3079 1.355 . S
C3078 C3080 1.415 . S
C3079 C3078 1.355 . S
C3079 C3081 1.419 . S
C3080 C3078 1.415 . S
C3080 C3085 1.425 . S
C3080 C3087 1.409 . S
C3081 H3073 0.930 . S
C3081 C3079 1.419 . S
C3081 C3082 1.362 . S
C3082 H3074 0.930 . S
C3082 C3081 1.362 . S
C3082 C3085 1.409 . S
C3083 H3075 0.930 . S
C3083 C3084 1.355 . S
C3083 C3085 1.415 . S
C3084 C3083 1.355 . S
C3084 C3086 1.419 . S
C3085 C3080 1.425 . S
C3085 C3082 1.409 . S
C3085 C3083 1.415 . S
C3086 H3076 0.930 . S
C3086 C3084 1.419 . S
C3086 C3087 1.362 . S
C3087 H3077 0.930 . S
C3087 C3080 1.409 . S
C3087 C3086 1.362 . S
H3088 C3094 0.930 . S
H3089 C3097 0.930 . S
H3090 C3098 0.930 . S
H3091 C3099 0.930 . S
H3092 C3102 0.930 . S
H3093 C3103 0.930 . S
C3094 H3088 0.930 . S
C3094 C3095 1.355 . S
C3094 C3096 1.415 . S
C3095 C3094 1.355 . S
C3095 C3097 1.419 . S
C3096 C3094 1.415 . S
C3096 C3101 1.425 . S
C3096 C3103 1.409 . S
C3097 H3089 0.930 . S
C3097 C3095 1.419 . S
C3097 C3098 1.362 . S
C3098 H3090 0.930 . S
C3098 C3097 1.362 . S
C3098 C3101 1.409 . S
C3099 H3091 0.930 . S
C3099 C3100 1.355 . S
C3099 C3101 1.415 . S
C3100 C3099 1.355 . S
C3100 C3102 1.419 . S
C3101 C3096 1.425 . S
C3101 C3098 1.409 . S
C3101 C3099 1.415 . S
C3102 H3092 0.930 . S
C3102 C3100 1.419 . S
C3102 C3103 1.362 . S
C3103 H3093 0.930 . S
C3103 C3096 1.409 . S
C3103 C3102 1.362 . S
H3104 C3110 0.930 . S
H3105 C3113 0.930 . S
H3106 C3114 0.930 . S
H3107 C3115 0.930 . S
H3108 C3118 0.930 . S
H3109 C3119 0.930 . S
C3110 H3104 0.930 . S
C3110 C3111 1.355 . S
C3110 C3112 1.415 . S
C3111 C3110 1.355 . S
C3111 C3113 1.419 . S
C3112 C3110 1.415 . S
C3112 C3117 1.425 . S
C3112 C3119 1.409 . S
C3113 H3105 0.930 . S
C3113 C3111 1.419 . S
C3113 C3114 1.362 . S
C3114 H3106 0.930 . S
C3114 C3113 1.362 . S
C3114 C3117 1.409 . S
C3115 H3107 0.930 . S
C3115 C3116 1.355 . S
C3115 C3117 1.415 . S
C3116 C3115 1.355 . S
C3116 C3118 1.419 . S
C3117 C3112 1.425 . S
C3117 C3114 1.409 . S
C3117 C3115 1.415 . S
C3118 H3108 0.930 . S
C3118 C3116 1.419 . S
C3118 C3119 1.362 . S
C3119 H3109 0.930 . S
C3119 C3112 1.409 . S
C3119 C3118 1.362 . S
H3120 C3126 0.930 . S
H3121 C3129 0.930 . S
H3122 C3130 0.930 . S
H3123 C3131 0.930 . S
H3124 C3134 0.930 . S
H3125 C3135 0.930 . S
C3126 H3120 0.930 . S
C3126 C3127 1.355 . S
C3126 C3128 1.415 . S
C3127 C3126 1.355 . S
C3127 C3129 1.419 . S
C3128 C3126 1.415 . S
C3128 C3133 1.425 . S
C3128 C3135 1.409 . S
C3129 H3121 0.930 . S
C3129 C3127 1.419 . S
C3129 C3130 1.362 . S
C3130 H3122 0.930 . S
C3130 C3129 1.362 . S
C3130 C3133 1.409 . S
C3131 H3123 0.930 . S
C3131 C3132 1.355 . S
C3131 C3133 1.415 . S
C3132 C3131 1.355 . S
C3132 C3134 1.419 . S
C3133 C3128 1.425 . S
C3133 C3130 1.409 . S
C3133 C3131 1.415 . S
C3134 H3124 0.930 . S
C3134 C3132 1.419 . S
C3134 C3135 1.362 . S
C3135 H3125 0.930 . S
C3135 C3128 1.409 . S
C3135 C3134 1.362 . S
H3136 C3142 0.930 . S
H3137 C3145 0.930 . S
H3138 C3146 0.930 . S
H3139 C3147 0.930 . S
H3140 C3150 0.930 . S
H3141 C3151 0.930 . S
C3142 H3136 0.930 . S
C3142 C3143 1.355 . S
C3142 C3144 1.415 . S
C3143 C3142 1.355 . S
C3143 C3145 1.419 . S
C3144 C3142 1.415 . S
C3144 C3149 1.425 . S
C3144 C3151 1.409 . S
C3145 H3137 0.930 . S
C3145 C3143 1.419 . S
C3145 C3146 1.362 . S
C3146 H3138 0.930 . S
C3146 C3145 1.362 . S
C3146 C3149 1.409 . S
C3147 H3139 0.930 . S
C3147 C3148 1.355 . S
C3147 C3149 1.415 . S
C3148 C3147 1.355 . S
C3148 C3150 1.419 . S
C3149 C3144 1.425 . S
C3149 C3146 1.409 . S
C3149 C3147 1.415 . S
C3150 H3140 0.930 . S
C3150 C3148 1.419 . S
C3150 C3151 1.362 . S
C3151 H3141 0.930 . S
C3151 C3144 1.409 . S
C3151 C3150 1.362 . S
H3152 C3158 0.930 . S
H3153 C3161 0.930 . S
H3154 C3162 0.930 . S
H3155 C3163 0.930 . S
H3156 C3166 0.930 . S
H3157 C3167 0.930 . S
C3158 H3152 0.930 . S
C3158 C3159 1.355 . S
C3158 C3160 1.415 . S
C3159 C3158 1.355 . S
C3159 C3161 1.419 . S
C3160 C3158 1.415 . S
C3160 C3165 1.425 . S
C3160 C3167 1.409 . S
C3161 H3153 0.930 . S
C3161 C3159 1.419 . S
C3161 C3162 1.362 . S
C3162 H3154 0.930 . S
C3162 C3161 1.362 . S
C3162 C3165 1.409 . S
C3163 H3155 0.930 . S
C3163 C3164 1.355 . S
C3163 C3165 1.415 . S
C3164 C3163 1.355 . S
C3164 C3166 1.419 . S
C3165 C3160 1.425 . S
C3165 C3162 1.409 . S
C3165 C3163 1.415 . S
C3166 H3156 0.930 . S
C3166 C3164 1.419 . S
C3166 C3167 1.362 . S
C3167 H3157 0.930 . S
C3167 C3160 1.409 . S
C3167 C3166 1.362 . S
H3168 C3174 0.930 . S
H3169 C3177 0.930 . S
H3170 C3178 0.930 . S
H3171 C3179 0.930 . S
H3172 C3182 0.930 . S
H3173 C3183 0.930 . S
C3174 H3168 0.930 . S
C3174 C3175 1.355 . S
C3174 C3176 1.415 . S
C3175 C3174 1.355 . S
C3175 C3177 1.419 . S
C3176 C3174 1.415 . S
C3176 C3181 1.425 . S
C3176 C3183 1.409 . S
C3177 H3169 0.930 . S
C3177 C3175 1.419 . S
C3177 C3178 1.362 . S
C3178 H3170 0.930 . S
C3178 C3177 1.362 . S
C3178 C3181 1.409 . S
C3179 H3171 0.930 . S
C3179 C3180 1.355 . S
C3179 C3181 1.415 . S
C3180 C3179 1.355 . S
C3180 C3182 1.419 . S
C3181 C3176 1.425 . S
C3181 C3178 1.409 . S
C3181 C3179 1.415 . S
C3182 H3172 0.930 . S
C3182 C3180 1.419 . S
C3182 C3183 1.362 . S
C3183 H3173 0.930 . S
C3183 C3176 1.409 . S
C3183 C3182 1.362 . S
H3184 C3190 0.930 . S
H3185 C3193 0.930 . S
H3186 C3194 0.930 . S
H3187 C3195 0.930 . S
H3188 C3198 0.930 . S
H3189 C3199 0.930 . S
C3190 H3184 0.930 . S
C3190 C3191 1.355 . S
C3190 C3192 1.415 . S
C3191 C3190 1.355 . S
C3191 C3193 1.419 . S
C3192 C3190 1.415 . S
C3192 C3197 1.425 . S
C3192 C3199 1.409 . S
C3193 H3185 0.930 . S
C3193 C3191 1.419 . S
C3193 C3194 1.362 . S
C3194 H3186 0.930 . S
C3194 C3193 1.362 . S
C3194 C3197 1.409 . S
C3195 H3187 0.930 . S
C3195 C3196 1.355 . S
C3195 C3197 1.415 . S
C3196 C3195 1.355 . S
C3196 C3198 1.419 . S
C3197 C3192 1.425 . S
C3197 C3194 1.409 . S
C3197 C3195 1.415 . S
C3198 H3188 0.930 . S
C3198 C3196 1.419 . S
C3198 C3199 1.362 . S
C3199 H3189 0.930 . S
C3199 C3192 1.409 . S
C3199 C3198 1.362 . S
H3200 C3206 0.930 . S
H3201 C3209 0.930 . S
H3202 C3210 0.930 . S
H3203 C3211 0.930 . S
H3204 C3214 0.930 . S
H3205 C3215 0.930 . S
C3206 H3200 0.930 . S
C3206 C3207 1.355 . S
C3206 C3208 1.415 . S
C3207 C3206 1.355 . S
C3207 C3209 1.419 . S
C3208 C3206 1.415 . S
C3208 C3213 1.425 . S
C3208 C3215 1.409 . S
C3209 H3201 0.930 . S
C3209 C3207 1.419 . S
C3209 C3210 1.362 . S
C3210 H3202 0.930 . S
C3210 C3209 1.362 . S
C3210 C3213 1.409 . S
C3211 H3203 0.930 . S
C3211 C3212 1.355 . S
C3211 C3213 1.415 . S
C3212 C3211 1.355 . S
C3212 C3214 1.419 . S
C3213 C3208 1.425 . S
C3213 C3210 1.409 . S
C3213 C3211 1.415 . S
C3214 H3204 0.930 . S
C3214 C3212 1.419 . S
C3214 C3215 1.362 . S
C3215 H3205 0.930 . S
C3215 C3208 1.409 . S
C3215 C3214 1.362 . S
H3216 C3222 0.930 . S
H3217 C3225 0.930 . S
H3218 C3226 0.930 . S
H3219 C3227 0.930 . S
H3220 C3230 0.930 . S
H3221 C3231 0.930 . S
C3222 H3216 0.930 . S
C3222 C3223 1.355 . S
C3222 C3224 1.415 . S
C3223 C3222 1.355 . S
C3223 C3225 1.419 . S
C3224 C3222 1.415 . S
C3224 C3229 1.425 . S
C3224 C3231 1.409 . S
C3225 H3217 0.930 . S
C3225 C3223 1.419 . S
C3225 C3226 1.362 . S
C3226 H3218 0.930 . S
C3226 C3225 1.362 . S
C3226 C3229 1.409 . S
C3227 H3219 0.930 . S
C3227 C3228 1.355 . S
C3227 C3229 1.415 . S
C3228 C3227 1.355 . S
C3228 C3230 1.419 . S
C3229 C3224 1.425 . S
C3229 C3226 1.409 . S
C3229 C3227 1.415 . S
C3230 H3220 0.930 . S
C3230 C3228 1.419 . S
C3230 C3231 1.362 . S
C3231 H3221 0.930 . S
C3231 C3224 1.409 . S
C3231 C3230 1.362 . S
H3232 C3238 0.930 . S
H3233 C3241 0.930 . S
H3234 C3242 0.930 . S
H3235 C3243 0.930 . S
H3236 C3246 0.930 . S
H3237 C3247 0.930 . S
C3238 H3232 0.930 . S
C3238 C3239 1.355 . S
C3238 C3240 1.415 . S
C3239 C3238 1.355 . S
C3239 C3241 1.419 . S
C3240 C3238 1.415 . S
C3240 C3245 1.425 . S
C3240 C3247 1.409 . S
C3241 H3233 0.930 . S
C3241 C3239 1.419 . S
C3241 C3242 1.362 . S
C3242 H3234 0.930 . S
C3242 C3241 1.362 . S
C3242 C3245 1.409 . S
C3243 H3235 0.930 . S
C3243 C3244 1.355 . S
C3243 C3245 1.415 . S
C3244 C3243 1.355 . S
C3244 C3246 1.419 . S
C3245 C3240 1.425 . S
C3245 C3242 1.409 . S
C3245 C3243 1.415 . S
C3246 H3236 0.930 . S
C3246 C3244 1.419 . S
C3246 C3247 1.362 . S
C3247 H3237 0.930 . S
C3247 C3240 1.409 . S
C3247 C3246 1.362 . S
H3248 C3254 0.930 . S
H3249 C3257 0.930 . S
H3250 C3258 0.930 . S
H3251 C3259 0.930 . S
H3252 C3262 0.930 . S
H3253 C3263 0.930 . S
C3254 H3248 0.930 . S
C3254 C3255 1.355 . S
C3254 C3256 1.415 . S
C3255 C3254 1.355 . S
C3255 C3257 1.419 . S
C3256 C3254 1.415 . S
C3256 C3261 1.425 . S
C3256 C3263 1.409 . S
C3257 H3249 0.930 . S
C3257 C3255 1.419 . S
C3257 C3258 1.362 . S
C3258 H3250 0.930 . S
C3258 C3257 1.362 . S
C3258 C3261 1.409 . S
C3259 H3251 0.930 . S
C3259 C3260 1.355 . S
C3259 C3261 1.415 . S
C3260 C3259 1.355 . S
C3260 C3262 1.419 . S
C3261 C3256 1.425 . S
C3261 C3258 1.409 . S
C3261 C3259 1.415 . S
C3262 H3252 0.930 . S
C3262 C3260 1.419 . S
C3262 C3263 1.362 . S
C3263 H3253 0.930 . S
C3263 C3256 1.409 . S
C3263 C3262 1.362 . S
H3264 C3270 0.930 . S
H3265 C3273 0.930 . S
H3266 C3274 0.930 . S
H3267 C3275 0.930 . S
H3268 C3278 0.930 . S
H3269 C3279 0.930 . S
C3270 H3264 0.930 . S
C3270 C3271 1.355 . S
C3270 C3272 1.415 . S
C3271 C3270 1.355 . S
C3271 C3273 1.419 . S
C3272 C3270 1.415 . S
C3272 C3277 1.425 . S
C3272 C3279 1.409 . S
C3273 H3265 0.930 . S
C3273 C3271 1.419 . S
C3273 C3274 1.362 . S
C3274 H3266 0.930 . S
C3274 C3273 1.362 . S
C3274 C3277 1.409 . S
C3275 H3267 0.930 . S
C3275 C3276 1.355 . S
C3275 C3277 1.415 . S
C3276 C3275 1.355 . S
C3276 C3278 1.419 . S
C3277 C3272 1.425 . S
C3277 C3274 1.409 . S
C3277 C3275 1.415 . S
C3278 H3268 0.930 . S
C3278 C3276 1.419 . S
C3278 C3279 1.362 . S
C3279 H3269 0.930 . S
C3279 C3272 1.409 . S
C3279 C3278 1.362 . S
H3280 C3286 0.930 . S
H3281 C3289 0.930 . S
H3282 C3290 0.930 . S
H3283 C3291 0.930 . S
H3284 C3294 0.930 . S
H3285 C3295 0.930 . S
C3286 H3280 0.930 . S
C3286 C3287 1.355 . S
C3286 C3288 1.415 . S
C3287 C3286 1.355 . S
C3287 C3289 1.419 . S
C3288 C3286 1.415 . S
C3288 C3293 1.425 . S
C3288 C3295 1.409 . S
C3289 H3281 0.930 . S
C3289 C3287 1.419 . S
C3289 C3290 1.362 . S
C3290 H3282 0.930 . S
C3290 C3289 1.362 . S
C3290 C3293 1.409 . S
C3291 H3283 0.930 . S
C3291 C3292 1.355 . S
C3291 C3293 1.415 . S
C3292 C3291 1.355 . S
C3292 C3294 1.419 . S
C3293 C3288 1.425 . S
C3293 C3290 1.409 . S
C3293 C3291 1.415 . S
C3294 H3284 0.930 . S
C3294 C3292 1.419 . S
C3294 C3295 1.362 . S
C3295 H3285 0.930 . S
C3295 C3288 1.409 . S
C3295 C3294 1.362 . S
H3296 C3302 0.930 . S
H3297 C3305 0.930 . S
H3298 C3306 0.930 . S
H3299 C3307 0.930 . S
H3300 C3310 0.930 . S
H3301 C3311 0.930 . S
C3302 H3296 0.930 . S
C3302 C3303 1.355 . S
C3302 C3304 1.415 . S
C3303 C3302 1.355 . S
C3303 C3305 1.419 . S
C3304 C3302 1.415 . S
C3304 C3309 1.425 . S
C3304 C3311 1.409 . S
C3305 H3297 0.930 . S
C3305 C3303 1.419 . S
C3305 C3306 1.362 . S
C3306 H3298 0.930 . S
C3306 C3305 1.362 . S
C3306 C3309 1.409 . S
C3307 H3299 0.930 . S
C3307 C3308 1.355 . S
C3307 C3309 1.415 . S
C3308 C3307 1.355 . S
C3308 C3310 1.419 . S
C3309 C3304 1.425 . S
C3309 C3306 1.409 . S
C3309 C3307 1.415 . S
C3310 H3300 0.930 . S
C3310 C3308 1.419 . S
C3310 C3311 1.362 . S
C3311 H3301 0.930 . S
C3311 C3304 1.409 . S
C3311 C3310 1.362 . S
H3312 C3318 0.930 . S
H3313 C3321 0.930 . S
H3314 C3322 0.930 . S
H3315 C3323 0.930 . S
H3316 C3326 0.930 . S
H3317 C3327 0.930 . S
C3318 H3312 0.930 . S
C3318 C3319 1.355 . S
C3318 C3320 1.415 . S
C3319 C3318 1.355 . S
C3319 C3321 1.419 . S
C3320 C3318 1.415 . S
C3320 C3325 1.425 . S
C3320 C3327 1.409 . S
C3321 H3313 0.930 . S
C3321 C3319 1.419 . S
C3321 C3322 1.362 . S
C3322 H3314 0.930 . S
C3322 C3321 1.362 . S
C3322 C3325 1.409 . S
C3323 H3315 0.930 . S
C3323 C3324 1.355 . S
C3323 C3325 1.415 . S
C3324 C3323 1.355 . S
C3324 C3326 1.419 . S
C3325 C3320 1.425 . S
C3325 C3322 1.409 . S
C3325 C3323 1.415 . S
C3326 H3316 0.930 . S
C3326 C3324 1.419 . S
C3326 C3327 1.362 . S
C3327 H3317 0.930 . S
C3327 C3320 1.409 . S
C3327 C3326 1.362 . S
H3328 C3334 0.930 . S
H3329 C3337 0.930 . S
H3330 C3338 0.930 . S
H3331 C3339 0.930 . S
H3332 C3342 0.930 . S
H3333 C3343 0.930 . S
C3334 H3328 0.930 . S
C3334 C3335 1.355 . S
C3334 C3336 1.415 . S
C3335 C3334 1.355 . S
C3335 C3337 1.419 . S
C3336 C3334 1.415 . S
C3336 C3341 1.425 . S
C3336 C3343 1.409 . S
C3337 H3329 0.930 . S
C3337 C3335 1.419 . S
C3337 C3338 1.362 . S
C3338 H3330 0.930 . S
C3338 C3337 1.362 . S
C3338 C3341 1.409 . S
C3339 H3331 0.930 . S
C3339 C3340 1.355 . S
C3339 C3341 1.415 . S
C3340 C3339 1.355 . S
C3340 C3342 1.419 . S
C3341 C3336 1.425 . S
C3341 C3338 1.409 . S
C3341 C3339 1.415 . S
C3342 H3332 0.930 . S
C3342 C3340 1.419 . S
C3342 C3343 1.362 . S
C3343 H3333 0.930 . S
C3343 C3336 1.409 . S
C3343 C3342 1.362 . S
H3344 C3350 0.930 . S
H3345 C3353 0.930 . S
H3346 C3354 0.930 . S
H3347 C3355 0.930 . S
H3348 C3358 0.930 . S
H3349 C3359 0.930 . S
C3350 H3344 0.930 . S
C3350 C3351 1.355 . S
C3350 C3352 1.415 . S
C3351 C3350 1.355 . S
C3351 C3353 1.419 . S
C3352 C3350 1.415 . S
C3352 C3357 1.425 . S
C3352 C3359 1.409 . S
C3353 H3345 0.930 . S
C3353 C3351 1.419 . S
C3353 C3354 1.362 . S
C3354 H3346 0.930 . S
C3354 C3353 1.362 . S
C3354 C3357 1.409 . S
C3355 H3347 0.930 . S
C3355 C3356 1.355 . S
C3355 C3357 1.415 . S
C3356 C3355 1.355 . S
C3356 C3358 1.419 . S
C3357 C3352 1.425 . S
C3357 C3354 1.409 . S
C3357 C3355 1.415 . S
C3358 H3348 0.930 . S
C3358 C3356 1.419 . S
C3358 C3359 1.362 . S
C3359 H3349 0.930 . S
C3359 C3352 1.409 . S
C3359 C3358 1.362 . S
H3360 C3366 0.930 . S
H3361 C3369 0.930 . S
H3362 C3370 0.930 . S
H3363 C3371 0.930 . S
H3364 C3374 0.930 . S
H3365 C3375 0.930 . S
C3366 H3360 0.930 . S
C3366 C3367 1.355 . S
C3366 C3368 1.415 . S
C3367 C3366 1.355 . S
C3367 C3369 1.419 . S
C3368 C3366 1.415 . S
C3368 C3373 1.425 . S
C3368 C3375 1.409 . S
C3369 H3361 0.930 . S
C3369 C3367 1.419 . S
C3369 C3370 1.362 . S
C3370 H3362 0.930 . S
C3370 C3369 1.362 . S
C3370 C3373 1.409 . S
C3371 H3363 0.930 . S
C3371 C3372 1.355 . S
C3371 C3373 1.415 . S
C3372 C3371 1.355 . S
C3372 C3374 1.419 . S
C3373 C3368 1.425 . S
C3373 C3370 1.409 . S
C3373 C3371 1.415 . S
C3374 H3364 0.930 . S
C3374 C3372 1.419 . S
C3374 C3375 1.362 . S
C3375 H3365 0.930 . S
C3375 C3368 1.409 . S
C3375 C3374 1.362 . S
H3376 C3382 0.930 . S
H3377 C3385 0.930 . S
H3378 C3386 0.930 . S
H3379 C3387 0.930 . S
H3380 C3390 0.930 . S
H3381 C3391 0.930 . S
C3382 H3376 0.930 . S
C3382 C3383 1.355 . S
C3382 C3384 1.415 . S
C3383 C3382 1.355 . S
C3383 C3385 1.419 . S
C3384 C3382 1.415 . S
C3384 C3389 1.425 . S
C3384 C3391 1.409 . S
C3385 H3377 0.930 . S
C3385 C3383 1.419 . S
C3385 C3386 1.362 . S
C3386 H3378 0.930 . S
C3386 C3385 1.362 . S
C3386 C3389 1.409 . S
C3387 H3379 0.930 . S
C3387 C3388 1.355 . S
C3387 C3389 1.415 . S
C3388 C3387 1.355 . S
C3388 C3390 1.419 . S
C3389 C3384 1.425 . S
C3389 C3386 1.409 . S
C3389 C3387 1.415 . S
C3390 H3380 0.930 . S
C3390 C3388 1.419 . S
C3390 C3391 1.362 . S
C3391 H3381 0.930 . S
C3391 C3384 1.409 . S
C3391 C3390 1.362 . S
H3392 C3398 0.930 . S
H3393 C3401 0.930 . S
H3394 C3402 0.930 . S
H3395 C3403 0.930 . S
H3396 C3406 0.930 . S
H3397 C3407 0.930 . S
C3398 H3392 0.930 . S
C3398 C3399 1.355 . S
C3398 C3400 1.415 . S
C3399 C3398 1.355 . S
C3399 C3401 1.419 . S
C3400 C3398 1.415 . S
C3400 C3405 1.425 . S
C3400 C3407 1.409 . S
C3401 H3393 0.930 . S
C3401 C3399 1.419 . S
C3401 C3402 1.362 . S
C3402 H3394 0.930 . S
C3402 C3401 1.362 . S
C3402 C3405 1.409 . S
C3403 H3395 0.930 . S
C3403 C3404 1.355 . S
C3403 C3405 1.415 . S
C3404 C3403 1.355 . S
C3404 C3406 1.419 . S
C3405 C3400 1.425 . S
C3405 C3402 1.409 . S
C3405 C3403 1.415 . S
C3406 H3396 0.930 . S
C3406 C3404 1.419 . S
C3406 C3407 1.362 . S
C3407 H3397 0.930 . S
C3407 C3400 1.409 . S
C3407 C3406 1.362 . S
H3408 C3414 0.930 . S
H3409 C3417 0.930 . S
H3410 C3418 0.930 . S
H3411 C3419 0.930 . S
H3412 C3422 0.930 . S
H3413 C3423 0.930 . S
C3414 H3408 0.930 . S
C3414 C3415 1.355 . S
C3414 C3416 1.415 . S
C3415 C3414 1.355 . S
C3415 C3417 1.419 . S
C3416 C3414 1.415 . S
C3416 C3421 1.425 . S
C3416 C3423 1.409 . S
C3417 H3409 0.930 . S
C3417 C3415 1.419 . S
C3417 C3418 1.362 . S
C3418 H3410 0.930 . S
C3418 C3417 1.362 . S
C3418 C3421 1.409 . S
C3419 H3411 0.930 . S
C3419 C3420 1.355 . S
C3419 C3421 1.415 . S
C3420 C3419 1.355 . S
C3420 C3422 1.419 . S
C3421 C3416 1.425 . S
C3421 C3418 1.409 . S
C3421 C3419 1.415 . S
C3422 H3412 0.930 . S
C3422 C3420 1.419 . S
C3422 C3423 1.362 . S
C3423 H3413 0.930 . S
C3423 C3416 1.409 . S
C3423 C3422 1.362 . S
H3424 C3430 0.930 . S
H3425 C3433 0.930 . S
H3426 C3434 0.930 . S
H3427 C3435 0.930 . S
H3428 C3438 0.930 . S
H3429 C3439 0.930 . S
C3430 H3424 0.930 . S
C3430 C3431 1.355 . S
C3430 C3432 1.415 . S
C3431 C3430 1.355 . S
C3431 C3433 1.419 . S
C3432 C3430 1.415 . S
C3432 C3437 1.425 . S
C3432 C3439 1.409 . S
C3433 H3425 0.930 . S
C3433 C3431 1.419 . S
C3433 C3434 1.362 . S
C3434 H3426 0.930 . S
C3434 C3433 1.362 . S
C3434 C3437 1.409 . S
C3435 H3427 0.930 . S
C3435 C3436 1.355 . S
C3435 C3437 1.415 . S
C3436 C3435 1.355 . S
C3436 C3438 1.419 . S
C3437 C3432 1.425 . S
C3437 C3434 1.409 . S
C3437 C3435 1.415 . S
C3438 H3428 0.930 . S
C3438 C3436 1.419 . S
C3438 C3439 1.362 . S
C3439 H3429 0.930 . S
C3439 C3432 1.409 . S
C3439 C3438 1.362 . S
H3440 C3446 0.930 . S
H3441 C3449 0.930 . S
H3442 C3450 0.930 . S
H3443 C3451 0.930 . S
H3444 C3454 0.930 . S
H3445 C3455 0.930 . S
C3446 H3440 0.930 . S
C3446 C3447 1.355 . S
C3446 C3448 1.415 . S
C3447 C3446 1.355 . S
C3447 C3449 1.419 . S
C3448 C3446 1.415 . S
C3448 C3453 1.425 . S
C3448 C3455 1.409 . S
C3449 H3441 0.930 . S
C3449 C3447 1.419 . S
C3449 C3450 1.362 . S
C3450 H3442 0.930 . S
C3450 C3449 1.362 . S
C3450 C3453 1.409 . S
C3451 H3443 0.930 . S
C3451 C3452 1.355 . S
C3451 C3453 1.415 . S
C3452 C3451 1.355 . S
C3452 C3454 1.419 . S
C3453 C3448 1.425 . S
C3453 C3450 1.409 . S
C3453 C3451 1.415 . S
C3454 H3444 0.930 . S
C3454 C3452 1.419 . S
C3454 C3455 1.362 . S
C3455 H3445 0.930 . S
C3455 C3448 1.409 . S
C3455 C3454 1.362 . S
H3456 C3462 0.930 . S
H3457 C3465 0.930 . S
H3458 C3466 0.930 . S
H3459 C3467 0.930 . S
H3460 C3470 0.930 . S
H3461 C3471 0.930 . S
C3462 H3456 0.930 . S
C3462 C3463 1.355 . S
C3462 C3464 1.415 . S
C3463 C3462 1.355 . S
C3463 C3465 1.419 . S
C3464 C3462 1.415 . S
C3464 C3469 1.425 . S
C3464 C3471 1.409 . S
C3465 H3457 0.930 . S
C3465 C3463 1.419 . S
C3465 C3466 1.362 . S
C3466 H3458 0.930 . S
C3466 C3465 1.362 . S
C3466 C3469 1.409 . S
C3467 H3459 0.930 . S
C3467 C3468 1.355 . S
C3467 C3469 1.415 . S
C3468 C3467 1.355 . S
C3468 C3470 1.419 . S
C3469 C3464 1.425 . S
C3469 C3466 1.409 . S
C3469 C3467 1.415 . S
C3470 H3460 0.930 . S
C3470 C3468 1.419 . S
C3470 C3471 1.362 . S
C3471 H3461 0.930 . S
C3471 C3464 1.409 . S
C3471 C3470 1.362 . S
H3472 C3478 0.930 . S
H3473 C3481 0.930 . S
H3474 C3482 0.930 . S
H3475 C3483 0.930 . S
H3476 C3486 0.930 . S
H3477 C3487 0.930 . S
C3478 H3472 0.930 . S
C3478 C3479 1.355 . S
C3478 C3480 1.415 . S
C3479 C3478 1.355 . S
C3479 C3481 1.419 . S
C3480 C3478 1.415 . S
C3480 C3485 1.425 . S
C3480 C3487 1.409 . S
C3481 H3473 0.930 . S
C3481 C3479 1.419 . S
C3481 C3482 1.362 . S
C3482 H3474 0.930 . S
C3482 C3481 1.362 . S
C3482 C3485 1.409 . S
C3483 H3475 0.930 . S
C3483 C3484 1.355 . S
C3483 C3485 1.415 . S
C3484 C3483 1.355 . S
C3484 C3486 1.419 . S
C3485 C3480 1.425 . S
C3485 C3482 1.409 . S
C3485 C3483 1.415 . S
C3486 H3476 0.930 . S
C3486 C3484 1.419 . S
C3486 C3487 1.362 . S
C3487 H3477 0.930 . S
C3487 C3480 1.409 . S
C3487 C3486 1.362 . S
H3488 C3494 0.930 . S
H3489 C3497 0.930 . S
H3490 C3498 0.930 . S
H3491 C3499 0.930 . S
H3492 C3502 0.930 . S
H3493 C3503 0.930 . S
C3494 H3488 0.930 . S
C3494 C3495 1.355 . S
C3494 C3496 1.415 . S
C3495 C3494 1.355 . S
C3495 C3497 1.419 . S
C3496 C3494 1.415 . S
C3496 C3501 1.425 . S
C3496 C3503 1.409 . S
C3497 H3489 0.930 . S
C3497 C3495 1.419 . S
C3497 C3498 1.362 . S
C3498 H3490 0.930 . S
C3498 C3497 1.362 . S
C3498 C3501 1.409 . S
C3499 H3491 0.930 . S
C3499 C3500 1.355 . S
C3499 C3501 1.415 . S
C3500 C3499 1.355 . S
C3500 C3502 1.419 . S
C3501 C3496 1.425 . S
C3501 C3498 1.409 . S
C3501 C3499 1.415 . S
C3502 H3492 0.930 . S
C3502 C3500 1.419 . S
C3502 C3503 1.362 . S
C3503 H3493 0.930 . S
C3503 C3496 1.409 . S
C3503 C3502 1.362 . S
H3504 C3510 0.930 . S
H3505 C3513 0.930 . S
H3506 C3514 0.930 . S
H3507 C3515 0.930 . S
H3508 C3518 0.930 . S
H3509 C3519 0.930 . S
C3510 H3504 0.930 . S
C3510 C3511 1.355 . S
C3510 C3512 1.415 . S
C3511 C3510 1.355 . S
C3511 C3513 1.419 . S
C3512 C3510 1.415 . S
C3512 C3517 1.425 . S
C3512 C3519 1.409 . S
C3513 H3505 0.930 . S
C3513 C3511 1.419 . S
C3513 C3514 1.362 . S
C3514 H3506 0.930 . S
C3514 C3513 1.362 . S
C3514 C3517 1.409 . S
C3515 H3507 0.930 . S
C3515 C3516 1.355 . S
C3515 C3517 1.415 . S
C3516 C3515 1.355 . S
C3516 C3518 1.419 . S
C3517 C3512 1.425 . S
C3517 C3514 1.409 . S
C3517 C3515 1.415 . S
C3518 H3508 0.930 . S
C3518 C3516 1.419 . S
C3518 C3519 1.362 . S
C3519 H3509 0.930 . S
C3519 C3512 1.409 . S
C3519 C3518 1.362 . S
H3520 C3526 0.930 . S
H3521 C3529 0.930 . S
H3522 C3530 0.930 . S
H3523 C3531 0.930 . S
H3524 C3534 0.930 . S
H3525 C3535 0.930 . S
C3526 H3520 0.930 . S
C3526 C3527 1.355 . S
C3526 C3528 1.415 . S
C3527 C3526 1.355 . S
C3527 C3529 1.419 . S
C3528 C3526 1.415 . S
C3528 C3533 1.425 . S
C3528 C3535 1.409 . S
C3529 H3521 0.930 . S
C3529 C3527 1.419 . S
C3529 C3530 1.362 . S
C3530 H3522 0.930 . S
C3530 C3529 1.362 . S
C3530 C3533 1.409 . S
C3531 H3523 0.930 . S
C3531 C3532 1.355 . S
C3531 C3533 1.415 . S
C3532 C3531 1.355 . S
C3532 C3534 1.419 . S
C3533 C3528 1.425 . S
C3533 C3530 1.409 . S
C3533 C3531 1.415 . S
C3534 H3524 0.930 . S
C3534 C3532 1.419 . S
C3534 C3535 1.362 . S
C3535 H3525 0.930 . S
C3535 C3528 1.409 . S
C3535 C3534 1.362 . S
H3536 C3542 0.930 . S
H3537 C3545 0.930 . S
H3538 C3546 0.930 . S
H3539 C3547 0.930 . S
H3540 C3550 0.930 . S
H3541 C3551 0.930 . S
C3542 H3536 0.930 . S
C3542 C3543 1.355 . S
C3542 C3544 1.415 . S
C3543 C3542 1.355 . S
C3543 C3545 1.419 . S
C3544 C3542 1.415 . S
C3544 C3549 1.425 . S
C3544 C3551 1.409 . S
C3545 H3537 0.930 . S
C3545 C3543 1.419 . S
C3545 C3546 1.362 . S
C3546 H3538 0.930 . S
C3546 C3545 1.362 . S
C3546 C3549 1.409 . S
C3547 H3539 0.930 . S
C3547 C3548 1.355 . S
C3547 C3549 1.415 . S
C3548 C3547 1.355 . S
C3548 C3550 1.419 . S
C3549 C3544 1.425 . S
C3549 C3546 1.409 . S
C3549 C3547 1.415 . S
C3550 H3540 0.930 . S
C3550 C3548 1.419 . S
C3550 C3551 1.362 . S
C3551 H3541 0.930 . S
C3551 C3544 1.409 . S
C3551 C3550 1.362 . S
C1639 C621 1.621 . S
C1644 C20 1.617 . S
C1655 C54 1.662 . S
C1660 C655 1.658 . S
C1671 C88 1.629 . S
C1676 C689 1.638 . S
C1687 C587 1.654 . S
C1692 C122 1.646 . S
C1703 C757 1.646 . S
C1708 C156 1.656 . S
C1719 C190 1.661 . S
C1724 C553 1.656 . S
C1735 C791 1.626 . S
C1740 C224 1.620 . S
C1751 C723 1.620 . S
C1756 C258 1.616 . S
C1767 C292 1.654 . S
C1772 C315 1.644 . S
C1783 C349 1.649 . S
C1788 C326 1.640 . S
C1799 C383 1.649 . S
C1804 C360 1.658 . S
C1815 C394 1.633 . S
C1820 C281 1.642 . S
C1831 C519 1.644 . S
C1836 C428 1.635 . S
C1847 C462 1.634 . S
C1852 C417 1.622 . S
C1863 C451 1.641 . S
C1868 C496 1.632 . S
C1879 C485 1.660 . S
C1884 C530 1.661 . S
C1895 C564 1.659 . S
C1900 C111 1.652 . S
C1911 C179 1.615 . S
C1916 C598 1.624 . S
C1927 C632 1.618 . S
C1932 C213 1.622 . S
C1943 C247 1.651 . S
C1948 C666 1.642 . S
C1959 C145 1.631 . S
C1964 C700 1.644 . S
C1975 C734 1.616 . S
C1980 C43 1.615 . S
C1991 C768 1.624 . S
C1996 C77 1.632 . S
C2007 C9 1.617 . S
C2012 C802 1.628 . S
C2023 C836 1.657 . S
C2028 C1437 1.660 . S
C2039 C1471 1.649 . S
C2044 C870 1.640 . S
C2055 C1505 1.661 . S
C2060 C904 1.659 . S
C2071 C938 1.616 . S
C2076 C1403 1.617 . S
C2087 C1573 1.657 . S
C2092 C972 1.651 . S
C2103 C1006 1.646 . S
C2108 C1369 1.654 . S
C2119 C1607 1.639 . S
C2124 C1040 1.630 . S
C2135 C1539 1.614 . S
C2140 C1074 1.616 . S
C2151 C1131 1.635 . S
C2156 C1108 1.648 . S
C2167 C1142 1.629 . S
C2172 C1165 1.638 . S
C2183 C1199 1.615 . S
C2188 C1176 1.623 . S
C2199 C1210 1.643 . S
C2204 C1097 1.630 . S
C2215 C1244 1.621 . S
C2220 C1335 1.628 . S
C2231 C1233 1.661 . S
C2236 C1278 1.659 . S
C2247 C1312 1.650 . S
C2252 C1267 1.638 . S
C2263 C1301 1.637 . S
C2268 C1346 1.628 . S
C2279 C927 1.620 . S
C2284 C1380 1.631 . S
C2295 C1414 1.639 . S
C2300 C995 1.627 . S
C2311 C1448 1.639 . S
C2316 C1029 1.626 . S
C2327 C1063 1.617 . S
C2332 C1482 1.616 . S
C2343 C961 1.652 . S
C2348 C1516 1.643 . S
C2359 C859 1.654 . S
C2364 C1550 1.646 . S
C2375 C1584 1.618 . S
C2380 C893 1.622 . S
C2391 C825 1.624 . S
C2396 C1618 1.636 . S
C2407 C1087 1.314 . S
C2412 C33 1.283 . S
C2423 C985 1.345 . S
C2428 C67 1.337 . S
C2439 C101 1.247 . S
C2444 C1019 1.225 . S
C2455 C1053 1.223 . S
C2460 C135 1.242 . S
C2471 C169 1.256 . S
C2476 C883 1.288 . S
C2487 C917 1.263 . S
C2492 C203 1.235 . S
C2503 C951 1.246 . S
C2508 C237 1.225 . S
C2519 C271 1.305 . S
C2524 C849 1.331 . S
C2535 C305 1.315 . S
C2540 C1529 1.284 . S
C2551 C1427 1.233 . S
C2556 C339 1.220 . S
C2567 C1461 1.317 . S
C2572 C373 1.286 . S
C2583 C1495 1.280 . S
C2588 C407 1.312 . S
C2599 C1631 1.295 . S
C2604 C441 1.263 . S
C2615 C475 1.267 . S
C2620 C1563 1.300 . S
C2631 C509 1.344 . S
C2636 C1597 1.342 . S
C2647 C1393 1.313 . S
C2652 C543 1.282 . S
C2663 C1359 1.278 . S
C2668 C577 1.310 . S
C2679 C611 1.345 . S
C2684 C1155 1.331 . S
C2695 C1189 1.259 . S
C2700 C645 1.292 . S
C2711 C1223 1.329 . S
C2716 C679 1.344 . S
C2727 C713 1.253 . S
C2732 C1121 1.285 . S
C2743 C747 1.242 . S
C2748 C1291 1.272 . S
C2759 C1325 1.225 . S
C2764 C781 1.248 . S
C2775 C815 1.219 . S
C2780 C1257 1.227 . S
C2791 C277 1.390 . S
C2796 C2 1.430 . S
C2807 C311 1.291 . S
C2812 C36 1.419 . S
C2823 C70 1.417 . S
C2828 C345 1.380 . S
C2839 C104 1.418 . S
C2844 C379 1.290 . S
C2855 C138 1.446 . S
C2860 C413 1.336 . S
C2871 C447 1.279 . S
C2876 C172 1.404 . S
C2887 C481 1.312 . S
C2892 C206 1.384 . S
C2903 C240 1.408 . S
C2908 C515 1.369 . S
C2919 C549 1.338 . S
C2924 C274 1.447 . S
C2935 C787 1.280 . S
C2940 C308 1.406 . S
C2951 C719 1.384 . S
C2956 C342 1.422 . S
C2967 C376 1.409 . S
C2972 C753 1.371 . S
C2983 C410 1.383 . S
C2988 C583 1.304 . S
C2999 C444 1.396 . S
C3004 C617 1.350 . S
C3015 C478 1.451 . S
C3020 C651 1.352 . S
C3031 C512 1.433 . S
C3036 C685 1.308 . S
C3047 C5 1.305 . S
C3052 C546 1.430 . S
C3063 C580 1.409 . S
C3068 C141 1.282 . S
C3079 C175 1.292 . S
C3084 C614 1.420 . S
C3095 C648 1.413 . S
C3100 C209 1.285 . S
C3111 C243 1.392 . S
C3116 C682 1.442 . S
C3127 C73 1.329 . S
C3132 C716 1.443 . S
C3143 C750 1.420 . S
C3148 C107 1.292 . S
C3159 C39 1.392 . S
C3164 C784 1.442 . S
C3175 C818 1.431 . S
C3180 C1093 1.390 . S
C3191 C1127 1.362 . S
C3196 C852 1.453 . S
C3207 C886 1.425 . S
C3212 C1161 1.298 . S
C3223 C920 1.420 . S
C3228 C1195 1.383 . S
C3239 C954 1.398 . S
C3244 C1229 1.278 . S
C3255 C988 1.401 . S
C3260 C1263 1.278 . S
C3271 C1022 1.383 . S
C3276 C1297 1.307 . S
C3287 C1056 1.407 . S
C3292 C1331 1.368 . S
C3303 C1090 1.405 . S
C3308 C1365 1.366 . S
C3319 C1124 1.453 . S
C3324 C1603 1.378 . S
C3335 C1158 1.438 . S
C3340 C1535 1.318 . S
C3351 C1569 1.288 . S
C3356 C1192 1.385 . S
C3367 C1399 1.279 . S
C3372 C1226 1.391 . S
C3383 C1260 1.420 . S
C3388 C1433 1.383 . S
C3399 C1467 1.387 . S
C3404 C1294 1.449 . S
C3415 C1328 1.451 . S
C3420 C1501 1.354 . S
C3431 C1362 1.417 . S
C3436 C821 1.288 . S
C3447 C957 1.351 . S
C3452 C1396 1.397 . S
C3463 C991 1.278 . S
C3468 C1430 1.395 . S
C3479 C1025 1.283 . S
C3484 C1464 1.387 . S
C3495 C1059 1.281 . S
C3500 C1498 1.407 . S
C3511 C889 1.286 . S
C3516 C1532 1.414 . S
C3527 C923 1.278 . S
C3532 C1566 1.395 . S
C3543 C855 1.383 . S
C3548 C1600 1.452 . S
