# Generated by pormake.
# Topology lcs, (4)-cn, num edge types: 1
# Building blocks:
#     Node 0, Type 0, BuildingBlock: AZAVOO_clean_sbu_0, # of connection points: 4
#     Node 1, Type 0, BuildingBlock: AZAVOO_clean_sbu_0, # of connection points: 4
#     Node 2, Type 0, BuildingBlock: AZAVOO_clean_sbu_0, # of connection points: 4
#     Node 3, Type 0, BuildingBlock: AZAVOO_clean_sbu_0, # of connection points: 4
#     Node 4, Type 0, BuildingBlock: AZAVOO_clean_sbu_0, # of connection points: 4
#     Node 5, Type 0, BuildingBlock: AZAVOO_clean_sbu_0, # of connection points: 4
#     Node 6, Type 0, BuildingBlock: AZAVOO_clean_sbu_0, # of connection points: 4
#     Node 7, Type 0, BuildingBlock: AZAVOO_clean_sbu_0, # of connection points: 4
#     Node 8, Type 0, BuildingBlock: AZAVOO_clean_sbu_0, # of connection points: 4
#     Node 9, Type 0, BuildingBlock: AZAVOO_clean_sbu_0, # of connection points: 4
#     Node 10, Type 0, BuildingBlock: AZAVOO_clean_sbu_0, # of connection points: 4
#     Node 11, Type 0, BuildingBlock: AZAVOO_clean_sbu_0, # of connection points: 4
#     Node 12, Type 0, BuildingBlock: AZAVOO_clean_sbu_0, # of connection points: 4
#     Node 13, Type 0, BuildingBlock: AZAVOO_clean_sbu_0, # of connection points: 4
#     Node 14, Type 0, BuildingBlock: AZAVOO_clean_sbu_0, # of connection points: 4
#     Node 15, Type 0, BuildingBlock: AZAVOO_clean_sbu_0, # of connection points: 4
#     Node 16, Type 0, BuildingBlock: AZAVOO_clean_sbu_0, # of connection points: 4
#     Node 17, Type 0, BuildingBlock: AZAVOO_clean_sbu_0, # of connection points: 4
#     Node 18, Type 0, BuildingBlock: AZAVOO_clean_sbu_0, # of connection points: 4
#     Node 19, Type 0, BuildingBlock: AZAVOO_clean_sbu_0, # of connection points: 4
#     Node 20, Type 0, BuildingBlock: AZAVOO_clean_sbu_0, # of connection points: 4
#     Node 21, Type 0, BuildingBlock: AZAVOO_clean_sbu_0, # of connection points: 4
#     Node 22, Type 0, BuildingBlock: AZAVOO_clean_sbu_0, # of connection points: 4
#     Node 23, Type 0, BuildingBlock: AZAVOO_clean_sbu_0, # of connection points: 4
#     Edge 24, Type (0, 0), BuildingBlock: XUDNAN_clean_linker_2, # of connection points: 2
#     Edge 25, Type (0, 0), BuildingBlock: XUDNAN_clean_linker_2, # of connection points: 2
#     Edge 26, Type (0, 0), BuildingBlock: XUDNAN_clean_linker_2, # of connection points: 2
#     Edge 27, Type (0, 0), BuildingBlock: XUDNAN_clean_linker_2, # of connection points: 2
#     Edge 28, Type (0, 0), BuildingBlock: XUDNAN_clean_linker_2, # of connection points: 2
#     Edge 29, Type (0, 0), BuildingBlock: XUDNAN_clean_linker_2, # of connection points: 2
#     Edge 30, Type (0, 0), BuildingBlock: XUDNAN_clean_linker_2, # of connection points: 2
#     Edge 31, Type (0, 0), BuildingBlock: XUDNAN_clean_linker_2, # of connection points: 2
#     Edge 32, Type (0, 0), BuildingBlock: XUDNAN_clean_linker_2, # of connection points: 2
#     Edge 33, Type (0, 0), BuildingBlock: XUDNAN_clean_linker_2, # of connection points: 2
#     Edge 34, Type (0, 0), BuildingBlock: XUDNAN_clean_linker_2, # of connection points: 2
#     Edge 35, Type (0, 0), BuildingBlock: XUDNAN_clean_linker_2, # of connection points: 2
#     Edge 36, Type (0, 0), BuildingBlock: XUDNAN_clean_linker_2, # of connection points: 2
#     Edge 37, Type (0, 0), BuildingBlock: XUDNAN_clean_linker_2, # of connection points: 2
#     Edge 38, Type (0, 0), BuildingBlock: XUDNAN_clean_linker_2, # of connection points: 2
#     Edge 39, Type (0, 0), BuildingBlock: XUDNAN_clean_linker_2, # of connection points: 2
#     Edge 40, Type (0, 0), BuildingBlock: XUDNAN_clean_linker_2, # of connection points: 2
#     Edge 41, Type (0, 0), BuildingBlock: XUDNAN_clean_linker_2, # of connection points: 2
#     Edge 42, Type (0, 0), BuildingBlock: XUDNAN_clean_linker_2, # of connection points: 2
#     Edge 43, Type (0, 0), BuildingBlock: XUDNAN_clean_linker_2, # of connection points: 2
#     Edge 44, Type (0, 0), BuildingBlock: XUDNAN_clean_linker_2, # of connection points: 2
#     Edge 45, Type (0, 0), BuildingBlock: XUDNAN_clean_linker_2, # of connection points: 2
#     Edge 46, Type (0, 0), BuildingBlock: XUDNAN_clean_linker_2, # of connection points: 2
#     Edge 47, Type (0, 0), BuildingBlock: XUDNAN_clean_linker_2, # of connection points: 2
#     Edge 48, Type (0, 0), BuildingBlock: XUDNAN_clean_linker_2, # of connection points: 2
#     Edge 49, Type (0, 0), BuildingBlock: XUDNAN_clean_linker_2, # of connection points: 2
#     Edge 50, Type (0, 0), BuildingBlock: XUDNAN_clean_linker_2, # of connection points: 2
#     Edge 51, Type (0, 0), BuildingBlock: XUDNAN_clean_linker_2, # of connection points: 2
#     Edge 52, Type (0, 0), BuildingBlock: XUDNAN_clean_linker_2, # of connection points: 2
#     Edge 53, Type (0, 0), BuildingBlock: XUDNAN_clean_linker_2, # of connection points: 2
#     Edge 54, Type (0, 0), BuildingBlock: XUDNAN_clean_linker_2, # of connection points: 2
#     Edge 55, Type (0, 0), BuildingBlock: XUDNAN_clean_linker_2, # of connection points: 2
#     Edge 56, Type (0, 0), BuildingBlock: XUDNAN_clean_linker_2, # of connection points: 2
#     Edge 57, Type (0, 0), BuildingBlock: XUDNAN_clean_linker_2, # of connection points: 2
#     Edge 58, Type (0, 0), BuildingBlock: XUDNAN_clean_linker_2, # of connection points: 2
#     Edge 59, Type (0, 0), BuildingBlock: XUDNAN_clean_linker_2, # of connection points: 2
#     Edge 60, Type (0, 0), BuildingBlock: XUDNAN_clean_linker_2, # of connection points: 2
#     Edge 61, Type (0, 0), BuildingBlock: XUDNAN_clean_linker_2, # of connection points: 2
#     Edge 62, Type (0, 0), BuildingBlock: XUDNAN_clean_linker_2, # of connection points: 2
#     Edge 63, Type (0, 0), BuildingBlock: XUDNAN_clean_linker_2, # of connection points: 2
#     Edge 64, Type (0, 0), BuildingBlock: XUDNAN_clean_linker_2, # of connection points: 2
#     Edge 65, Type (0, 0), BuildingBlock: XUDNAN_clean_linker_2, # of connection points: 2
#     Edge 66, Type (0, 0), BuildingBlock: XUDNAN_clean_linker_2, # of connection points: 2
#     Edge 67, Type (0, 0), BuildingBlock: XUDNAN_clean_linker_2, # of connection points: 2
#     Edge 68, Type (0, 0), BuildingBlock: XUDNAN_clean_linker_2, # of connection points: 2
#     Edge 69, Type (0, 0), BuildingBlock: XUDNAN_clean_linker_2, # of connection points: 2
#     Edge 70, Type (0, 0), BuildingBlock: XUDNAN_clean_linker_2, # of connection points: 2
#     Edge 71, Type (0, 0), BuildingBlock: XUDNAN_clean_linker_2, # of connection points: 2
# Relax obj value: 0.140
# Max RMSD: 0.191
# Mean RMSD: 0.183
data_MOF--net-lcs--node1-AZAVOO_clean_sbu_0--edge1-XUDNAN_clean_linker_2
_symmetry_space_group_name_H-M    P1
_symmetry_Int_Tables_number       1
_symmetry_cell_setting            triclinic
loop_
_symmetry_equiv_pos_as_xyz
'x, y, z'
_cell_length_a     48.892907
_cell_length_b     48.036684
_cell_length_c     48.040563
_cell_angle_alpha  94.036486
_cell_angle_beta   94.027711
_cell_angle_gamma 94.001556
loop_
_atom_site_label
_atom_site_type_symbol
_atom_site_fract_x
_atom_site_fract_y
_atom_site_fract_z
_atom_type_partial_charge
Mg0 Mg 0.01534 0.26889 0.46887 0.0
O1 O 0.99372 0.24091 0.43149 0.0
O2 O 0.95226 0.25714 0.42316 0.0
Mg3 Mg 0.9454 0.29074 0.4576 0.0
C4 C 0.97058 0.24045 0.4172 0.0
C5 C 0.07822 0.27086 0.46536 0.0
O6 O 0.07506 0.29709 0.47336 0.0
O7 O 0.02017 0.30625 0.44132 0.0
O8 O 0.97737 0.32012 0.44013 0.0
O9 O -0.00075 0.2383 0.49833 0.0
O10 O 0.97769 0.27437 0.48419 0.0
C11 C 0.0025 0.32355 0.43468 0.0
C12 C 0.97745 0.25208 0.49749 0.0
O13 O 0.05706 0.25393 0.46001 0.0
Mg14 Mg 0.97168 0.75851 0.5583 0.0
O15 O 0.98266 0.7894 0.59669 0.0
O16 O 0.94337 0.80008 0.61461 0.0
Mg17 Mg 0.90732 0.77774 0.58685 0.0
C18 C 0.96959 0.80238 0.61502 0.0
C19 C 0.02908 0.74588 0.5369 0.0
O20 O 0.0158 0.74978 0.51292 0.0
O21 O 0.96074 0.72313 0.58664 0.0
O22 O 0.92025 0.7356 0.6001 0.0
O23 O 0.96895 0.79458 0.5309 0.0
O24 O 0.93414 0.77624 0.55209 0.0
C25 C 0.93909 0.71851 0.59959 0.0
C26 C 0.94377 0.79551 0.53739 0.0
O27 O 0.01648 0.74766 0.55915 0.0
Mg28 Mg 0.51835 0.78504 0.95373 0.0
O29 O 0.48831 0.75481 0.92471 0.0
O30 O 0.44796 0.77401 0.92066 0.0
Mg31 Mg 0.45189 0.81583 0.94687 0.0
C32 C 0.46329 0.75428 0.91486 0.0
C33 C 0.5677 0.74929 0.96134 0.0
O34 O 0.56134 0.75409 0.98727 0.0
O35 O 0.52376 0.81459 0.91805 0.0
O36 O 0.48239 0.83176 0.91708 0.0
O37 O 0.50214 0.76438 0.99056 0.0
O38 O 0.48595 0.80166 0.97285 0.0
C39 C 0.50623 0.83056 0.90802 0.0
C40 C 0.48386 0.7826 0.99017 0.0
O41 O 0.55378 0.75966 0.94178 0.0
Mg42 Mg 0.51672 0.25134 0.07738 0.0
O43 O 0.5366 0.2811 0.11319 0.0
O44 O 0.5064 0.29012 0.14465 0.0
Mg45 Mg 0.46583 0.26537 0.12836 0.0
C46 C 0.53041 0.29347 0.13595 0.0
C47 C 0.57416 0.26788 0.05869 0.0
O48 O 0.56271 0.29181 0.06089 0.0
O49 O 0.5177 0.21396 0.10469 0.0
O50 O 0.48431 0.22317 0.13274 0.0
O51 O 0.50192 0.28833 0.05579 0.0
O52 O 0.47809 0.26501 0.08505 0.0
C53 C 0.50222 0.20721 0.12393 0.0
C54 C 0.4802 0.28569 0.06959 0.0
O55 O 0.56011 0.24565 0.06349 0.0
Mg56 Mg 0.99455 0.78805 0.16378 0.0
O57 O 0.95535 0.77701 0.13363 0.0
O58 O 0.94886 0.81532 0.1109 0.0
Mg59 Mg 0.98197 0.84985 0.12521 0.0
C60 C 0.94181 0.79009 0.11557 0.0
C61 C 0.00094 0.73426 0.19636 0.0
O62 O -0.00027 0.75283 0.21758 0.0
O63 O 0.0214 0.78404 0.1268 0.0
O64 O 0.01316 0.82287 0.10542 0.0
O65 O 0.97012 0.80707 0.19771 0.0
O66 O 0.9882 0.83038 0.16482 0.0
C67 C 0.02529 0.80031 0.10731 0.0
C68 C 0.97395 0.83051 0.18625 0.0
O69 O 0.9982 0.74199 0.17159 0.0
Mg70 Mg 0.5154 0.73846 0.35837 0.0
O71 O 0.50366 0.76439 0.32199 0.0
O72 O 0.54213 0.78075 0.30425 0.0
Mg73 Mg 0.57861 0.76473 0.32931 0.0
C74 C 0.51596 0.77844 0.30437 0.0
C75 C 0.46375 0.69596 0.36084 0.0
O76 O 0.48253 0.67781 0.35868 0.0
O77 O 0.52493 0.7032 0.32753 0.0
O78 O 0.56489 0.71928 0.31253 0.0
O79 O 0.51862 0.77649 0.38762 0.0
O80 O 0.55342 0.76131 0.36533 0.0
C81 C 0.54547 0.70007 0.31291 0.0
C82 C 0.54401 0.78014 0.38176 0.0
O83 O 0.47073 0.72183 0.35987 0.0
Mg84 Mg 0.49292 0.29344 0.68024 0.0
O85 O 0.45789 0.26953 0.65127 0.0
O86 O 0.44463 0.29927 0.62007 0.0
Mg87 Mg 0.46792 0.34202 0.63019 0.0
C88 C 0.44309 0.27511 0.62963 0.0
C89 C 0.51164 0.25354 0.72362 0.0
O90 O 0.50818 0.27675 0.73871 0.0
O91 O 0.52157 0.28998 0.64494 0.0
O92 O 0.50659 0.322 0.61703 0.0
O93 O 0.46386 0.3106 0.71035 0.0
O94 O 0.47643 0.33139 0.67337 0.0
C95 C 0.52332 0.30372 0.62323 0.0
C96 C 0.46221 0.3315 0.69486 0.0
O97 O 0.50645 0.25275 0.69725 0.0
Mg98 Mg 0.04332 0.24318 0.83809 0.0
O99 O 0.03466 0.27725 0.80809 0.0
O100 O 0.0728 0.28622 0.78607 0.0
Mg101 Mg 0.1062 0.25992 0.80305 0.0
C102 C 0.04784 0.29022 0.79025 0.0
C103 C 0.98697 0.2102 0.84401 0.0
O104 O 0.0021 0.18953 0.83735 0.0
O105 O 0.04153 0.21042 0.80116 0.0
O106 O 0.08129 0.22074 0.78243 0.0
O107 O 0.05865 0.27531 0.87238 0.0
O108 O 0.0849 0.25655 0.84167 0.0
C109 C 0.05883 0.20559 0.78303 0.0
C110 C 0.08266 0.27413 0.86274 0.0
O111 O 0.99756 0.2352 0.84476 0.0
Mg112 Mg 0.42339 0.98333 0.22689 0.0
O113 O 0.38642 0.96894 0.19502 0.0
O114 O 0.36066 0.9375 0.21614 0.0
Mg115 Mg 0.3819 0.9287 0.25823 0.0
C116 C 0.36506 0.95197 0.19536 0.0
C117 C 0.45922 0.02348 0.1949 0.0
O118 O 0.47476 0.00257 0.19832 0.0
O119 O 0.39609 0.00776 0.25563 0.0
O120 O 0.37558 0.97273 0.27663 0.0
O121 O 0.44812 0.94959 0.2087 0.0
O122 O 0.42044 0.94426 0.24257 0.0
C123 C 0.38078 0.99882 0.27414 0.0
C124 C 0.43656 0.93342 0.22558 0.0
O125 O 0.43529 0.02206 0.20385 0.0
Mg126 Mg 0.26924 0.10743 0.47147 0.0
O127 O 0.30605 0.13281 0.49599 0.0
O128 O 0.32301 0.16459 0.4688 0.0
Mg129 Mg 0.29847 0.15874 0.42631 0.0
C130 C 0.32307 0.1533 0.49207 0.0
C131 C 0.23506 0.07883 0.51876 0.0
O132 O 0.21351 0.07903 0.50086 0.0
O133 O 0.24297 0.14481 0.47739 0.0
O134 O 0.26151 0.17393 0.44814 0.0
O135 O 0.29642 0.07674 0.45257 0.0
O136 O 0.28547 0.11513 0.43323 0.0
C137 C 0.24387 0.16789 0.4656 0.0
C138 C 0.29875 0.09293 0.43228 0.0
O139 O 0.25831 0.08924 0.51254 0.0
Mg140 Mg 0.15166 0.97833 0.7355 0.0
O141 O 0.11534 0.94477 0.72341 0.0
O142 O 0.09139 0.94478 0.76153 0.0
Mg143 Mg 0.11142 0.97478 0.79699 0.0
C144 C 0.09482 0.93587 0.73642 0.0
C145 C 0.18853 0.98951 0.6895 0.0
O146 O 0.20442 0.99006 0.7128 0.0
O147 O 0.12185 0.01232 0.73135 0.0
O148 O 0.10001 0.01085 0.77058 0.0
O149 O 0.17869 0.9466 0.75306 0.0
O150 O 0.14981 0.96992 0.77713 0.0
C151 C 0.10442 0.02157 0.74757 0.0
C152 C 0.16723 0.9511 0.77628 0.0
O153 O 0.16296 0.98294 0.69042 0.0
Mg154 Mg 0.24715 0.81126 0.98254 0.0
O155 O 0.26237 0.84809 0.01472 0.0
O156 O 0.30106 0.86773 -0.00012 0.0
Mg157 Mg 0.31064 0.84345 0.95936 0.0
C158 C 0.28287 0.86644 0.0177 0.0
C159 C 0.19744 0.79549 0.01863 0.0
O160 O 0.21589 0.78248 0.0329 0.0
O161 O 0.23354 0.84141 0.95103 0.0
O162 O 0.27253 0.85844 0.93493 0.0
O163 O 0.27099 0.78246 0.00746 0.0
O164 O 0.2874 0.80694 0.97405 0.0
C165 C 0.2463 0.85647 0.93457 0.0
C166 C 0.29173 0.79095 0.99413 0.0
O167 O 0.20451 0.80908 0.99823 0.0
Mg168 Mg 0.25283 0.39141 0.03838 0.0
O169 O 0.25686 0.4297 0.01238 0.0
O170 O 0.21443 0.44116 0.9996 0.0
Mg171 Mg 0.18356 0.41095 0.01746 0.0
C172 C 0.24052 0.4452 -0.00018 0.0
C173 C 0.30735 0.37568 0.06429 0.0
O174 O 0.28914 0.35679 0.07188 0.0
O175 O 0.24205 0.41898 0.07615 0.0
O176 O 0.1998 0.42952 0.06124 0.0
O177 O 0.25079 0.36375 0.99928 0.0
O178 O 0.21427 0.37972 0.01783 0.0
C179 C 0.22011 0.43132 0.07966 0.0
C180 C 0.22455 0.36624 0.9974 0.0
O181 O 0.2988 0.39576 0.05108 0.0
Mg182 Mg 0.80568 0.18635 0.00366 0.0
O183 O 0.7774 0.15539 0.97457 0.0
O184 O 0.80137 0.12059 0.95843 0.0
Mg185 Mg 0.84587 0.12987 0.97669 0.0
C186 C 0.77889 0.13245 0.95986 0.0
C187 C 0.76298 0.23063 0.01615 0.0
O188 O 0.78181 0.24668 0.0055 0.0
O189 O 0.80578 0.15555 0.03806 0.0
O190 O 0.83179 0.1232 0.02035 0.0
O191 O 0.81736 0.21011 0.96682 0.0
O192 O 0.83906 0.17464 0.98196 0.0
C193 C 0.81783 0.1329 0.03984 0.0
C194 C 0.836 0.19256 0.96356 0.0
O195 O 0.7672 0.20515 0.01897 0.0
Mg196 Mg 0.07553 0.49554 0.27251 0.0
O197 O 0.10417 0.51668 0.30922 0.0
O198 O 0.12791 0.4828 0.32667 0.0
Mg199 Mg 0.11413 0.44088 0.30271 0.0
C200 C 0.12222 0.50836 0.32672 0.0
C201 C 0.05713 0.55789 0.26727 0.0
O202 O 0.05154 0.55648 0.29351 0.0
O203 O 0.1121 0.49179 0.24659 0.0
O204 O 0.13386 0.45659 0.26372 0.0
O205 O 0.04312 0.48775 0.30157 0.0
O206 O 0.07455 0.45822 0.29215 0.0
C207 C 0.13144 0.47531 0.24625 0.0
C208 C 0.05453 0.46492 0.30676 0.0
O209 O 0.06738 0.53735 0.25469 0.0
Mg210 Mg 0.72958 0.91687 0.52205 0.0
O211 O 0.73678 0.95289 0.4941 0.0
O212 O 0.69869 0.97585 0.48987 0.0
Mg213 Mg 0.66683 0.95435 0.51529 0.0
C214 C 0.72346 0.97247 0.4844 0.0
C215 C 0.78911 0.90844 0.50398 0.0
O216 O 0.77692 0.91269 0.47956 0.0
O217 O 0.73337 0.94761 0.56078 0.0
O218 O 0.69364 0.96775 0.5558 0.0
O219 O 0.71287 0.88861 0.48509 0.0
O220 O 0.6875 0.91518 0.51052 0.0
C221 C 0.7164 0.96464 0.5696 0.0
C222 C 0.68908 0.89776 0.48916 0.0
O223 O 0.77546 0.90992 0.52557 0.0
Mg224 Mg 0.83935 0.02902 0.28052 0.0
O225 O 0.87088 0.06417 0.29928 0.0
O226 O 0.89056 0.04932 0.33842 0.0
Mg227 Mg 0.87 0.00621 0.34584 0.0
C228 C 0.88809 0.06786 0.32075 0.0
C229 C 0.82721 0.06818 0.22956 0.0
O230 O 0.81628 0.08508 0.24764 0.0
O231 O 0.87344 0.00231 0.26788 0.0
O232 O 0.88841 0.98479 0.30762 0.0
O233 O 0.80649 0.04778 0.3042 0.0
O234 O 0.8336 0.01658 0.32003 0.0
C235 C 0.88838 0.98616 0.28116 0.0
C236 C 0.81439 0.03298 0.32441 0.0
O237 O 0.83772 0.0464 0.23767 0.0
Mg238 Mg 0.27501 0.6722 0.50963 0.0
O239 O 0.24696 0.64003 0.48159 0.0
O240 O 0.2707 0.60327 0.47055 0.0
Mg241 Mg 0.31449 0.61238 0.49096 0.0
C242 C 0.2486 0.61597 0.46903 0.0
C243 C 0.21774 0.69902 0.50594 0.0
O244 O 0.22011 0.69423 0.47898 0.0
O245 O 0.27308 0.64506 0.54653 0.0
O246 O 0.29929 0.61039 0.5351 0.0
O247 O 0.28861 0.69223 0.47156 0.0
O248 O 0.30868 0.65755 0.49058 0.0
C249 C 0.28459 0.6229 0.55228 0.0
C250 C 0.30678 0.67387 0.47052 0.0
O251 O 0.23715 0.69338 0.52317 0.0
Mg252 Mg 0.33121 0.53169 0.79603 0.0
O253 O 0.36228 0.5682 0.81196 0.0
O254 O 0.38903 0.55473 0.84735 0.0
Mg255 Mg 0.37384 0.5097 0.85507 0.0
C256 C 0.382 0.5732 0.83093 0.0
C257 C 0.31962 0.5422 0.73204 0.0
O258 O 0.32651 0.51632 0.72839 0.0
O259 O 0.36406 0.50761 0.77554 0.0
O260 O 0.38617 0.49124 0.81258 0.0
O261 O 0.30201 0.54659 0.82641 0.0
O262 O 0.33296 0.51646 0.83553 0.0
C263 C 0.38175 0.49224 0.78613 0.0
C264 C 0.31378 0.5312 0.84409 0.0
O265 O 0.32025 0.55385 0.7567 0.0
Mg266 Mg 0.59884 0.01803 0.77227 0.0
O267 O 0.62465 0.03337 0.81291 0.0
O268 O 0.64787 0.99797 0.82753 0.0
Mg269 Mg 0.63539 0.95932 0.79778 0.0
C270 C 0.6418 0.0234 0.83013 0.0
C271 C 0.58169 0.07811 0.78339 0.0
O272 O 0.57882 0.06726 0.80746 0.0
O273 O 0.63782 0.01874 0.74898 0.0
O274 O 0.65764 0.98118 0.76362 0.0
O275 O 0.56323 0.00403 0.79531 0.0
O276 O 0.59669 0.97729 0.78515 0.0
C277 C 0.65704 0.00203 0.74847 0.0
C278 C 0.57421 0.98041 0.79705 0.0
O279 O 0.59064 0.06322 0.76354 0.0
Mg280 Mg 0.77477 0.60337 0.98454 0.0
O281 O 0.80384 0.64177 0.00127 0.0
O282 O 0.81163 0.66616 0.9642 0.0
Mg283 Mg 0.79304 0.64174 0.92388 0.0
C284 C 0.81442 0.66317 0.99044 0.0
C285 C 0.75666 0.57119 0.03561 0.0
O286 O 0.75599 0.55028 0.01634 0.0
O287 O 0.73896 0.6317 0.97704 0.0
O288 O 0.75045 0.64951 0.93724 0.0
O289 O 0.81054 0.57688 0.97602 0.0
O290 O 0.79154 0.60383 0.94613 0.0
C291 C 0.73362 0.64598 0.95605 0.0
C292 C 0.81018 0.58725 0.95187 0.0
O293 O 0.7635 0.59582 0.02912 0.0
Mg294 Mg 0.92819 0.49538 0.73568 0.0
O295 O 0.89198 0.46994 0.71019 0.0
O296 O 0.87857 0.43459 0.7352 0.0
Mg297 Mg 0.90802 0.43527 0.77453 0.0
C298 C 0.87611 0.44833 0.71348 0.0
C299 C 0.94118 0.54546 0.69806 0.0
O300 O 0.96618 0.53716 0.70104 0.0
O301 O 0.90082 0.5127 0.7686 0.0
O302 O 0.89249 0.47581 0.79342 0.0
O303 O 0.95744 0.46894 0.71401 0.0
O304 O 0.93951 0.45946 0.75351 0.0
C305 C 0.89079 0.50166 0.78948 0.0
C306 C 0.95456 0.45216 0.73375 0.0
O307 O 0.92182 0.5324 0.70932 0.0
Mg308 Mg 0.75012 0.29838 0.50386 0.0
O309 O 0.76979 0.33105 0.5379 0.0
O310 O 0.81082 0.34629 0.52485 0.0
Mg311 Mg 0.81724 0.32242 0.48281 0.0
C312 C 0.7922 0.34658 0.54224 0.0
C313 C 0.70044 0.29128 0.54221 0.0
O314 O 0.71763 0.27787 0.55763 0.0
O315 O 0.74177 0.33247 0.47483 0.0
O316 O 0.78284 0.34507 0.46005 0.0
O317 O 0.7696 0.26515 0.5266 0.0
O318 O 0.78822 0.2879 0.4931 0.0
C319 C 0.75686 0.34694 0.45975 0.0
C320 C 0.7903 0.27005 0.51179 0.0
O321 O 0.70837 0.30199 0.52047 0.0
Mg322 Mg 0.68023 0.49833 0.27569 0.0
O323 O 0.65588 0.45978 0.25183 0.0
O324 O 0.62476 0.44413 0.28016 0.0
Mg325 Mg 0.62917 0.47086 0.32137 0.0
C326 C 0.63598 0.4426 0.25696 0.0
C327 C 0.70049 0.50052 0.21237 0.0
O328 O 0.69346 0.47354 0.20892 0.0
O329 O 0.64351 0.5245 0.26882 0.0
O330 O 0.61399 0.50753 0.29807 0.0
O331 O 0.71054 0.47085 0.29567 0.0
O332 O 0.67218 0.48214 0.31352 0.0
C333 C 0.62055 0.52451 0.27993 0.0
C334 C 0.69381 0.46844 0.31526 0.0
O335 O 0.69768 0.51374 0.23577 0.0
H336 H 0.07118 0.4136 0.3205 0.0
H337 H 0.01792 0.47837 0.3448 0.0
H338 H 0.00207 0.45047 0.38243 0.0
H339 H 0.02499 0.35604 0.33088 0.0
H340 H 0.05082 0.33459 0.34457 0.0
H341 H 0.05974 0.36044 0.32072 0.0
H342 H 0.09822 0.38292 0.35684 0.0
H343 H 0.08939 0.35711 0.38085 0.0
H344 H 0.08982 0.39385 0.39169 0.0
H345 H 0.9896 0.4151 0.41489 0.0
H346 H 0.98048 0.37345 0.44069 0.0
H347 H 0.04214 0.33092 0.39683 0.0
C348 C 0.05649 0.42207 0.33399 0.0
C349 C 0.04588 0.44826 0.32978 0.0
C350 C 0.02636 0.45841 0.34761 0.0
C351 C 0.0173 0.44277 0.36914 0.0
C352 C 0.02803 0.41705 0.37265 0.0
C353 C 0.0472 0.40669 0.35567 0.0
C354 C 0.05431 0.37775 0.36326 0.0
C355 C 0.04702 0.35592 0.33838 0.0
C356 C 0.08475 0.37793 0.37379 0.0
C357 C 0.03565 0.37327 0.38675 0.0
C358 C 0.02088 0.39639 0.39183 0.0
C359 C 0.00122 0.39698 0.41135 0.0
C360 C 0.99613 0.37316 0.42581 0.0
C361 C 0.01067 0.34901 0.42081 0.0
C362 C 0.03107 0.34925 0.40137 0.0
H363 H 0.90594 0.82068 0.56778 0.0
H364 H 0.9434 0.82205 0.48877 0.0
H365 H 0.91072 0.85607 0.47309 0.0
H366 H 0.83842 0.81987 0.54105 0.0
H367 H 0.82723 0.84177 0.56944 0.0
H368 H 0.85587 0.8209 0.57548 0.0
H369 H 0.88644 0.86532 0.59463 0.0
H370 H 0.85781 0.8864 0.58866 0.0
H371 H 0.88976 0.89471 0.57343 0.0
H372 H 0.86973 0.88489 0.46411 0.0
H373 H 0.82549 0.90694 0.46303 0.0
H374 H 0.81564 0.88636 0.54845 0.0
C375 C 0.90735 0.82806 0.54721 0.0
C376 C 0.92683 0.81835 0.52927 0.0
C377 C 0.92859 0.82932 0.50283 0.0
C378 C 0.91011 0.84859 0.49378 0.0
C379 C 0.89043 0.85698 0.5117 0.0
C380 C 0.88925 0.8473 0.53803 0.0
C381 C 0.86529 0.85804 0.55276 0.0
C382 C 0.84554 0.8337 0.56009 0.0
C383 C 0.87544 0.87727 0.57892 0.0
C384 C 0.85238 0.8744 0.53018 0.0
C385 C 0.8673 0.87386 0.50676 0.0
C386 C 0.85817 0.88584 0.48251 0.0
C387 C 0.83297 0.89825 0.48208 0.0
C388 C 0.81715 0.8985 0.50571 0.0
C389 C 0.8274 0.88691 0.53019 0.0
H390 H 0.42549 0.59274 0.86864 0.0
H391 H 0.36762 0.61958 0.80494 0.0
H392 H 0.38486 0.66858 0.81722 0.0
H393 H 0.41895 0.6468 0.91913 0.0
H394 H 0.45468 0.65098 0.93183 0.0
H395 H 0.44011 0.61761 0.91618 0.0
H396 H 0.47734 0.61743 0.88039 0.0
H397 H 0.4922 0.65075 0.89609 0.0
H398 H 0.48195 0.64665 0.85916 0.0
H399 H 0.40353 0.71473 0.84047 0.0
H400 H 0.42563 0.75506 0.87054 0.0
H401 H 0.47341 0.69896 0.91753 0.0
C402 C 0.41683 0.60884 0.85683 0.0
C403 C 0.39513 0.60216 0.83579 0.0
C404 C 0.38429 0.62399 0.82106 0.0
C405 C 0.39393 0.65197 0.8279 0.0
C406 C 0.41474 0.65786 0.84924 0.0
C407 C 0.42642 0.63692 0.8632 0.0
C408 C 0.44771 0.6491 0.88615 0.0
C409 C 0.43988 0.64062 0.91502 0.0
C410 C 0.47651 0.64047 0.88007 0.0
C411 C 0.4455 0.68014 0.88346 0.0
C412 C 0.42634 0.68469 0.86202 0.0
C413 C 0.419 0.71148 0.85692 0.0
C414 C 0.43153 0.73422 0.87418 0.0
C415 C 0.45142 0.73011 0.89608 0.0
C416 C 0.45871 0.70272 0.90052 0.0
H417 H 0.60609 0.22266 0.05517 0.0
H418 H 0.60813 0.31219 0.04664 0.0
H419 H 0.65663 0.31239 0.0359 0.0
H420 H 0.67479 0.22246 0.08805 0.0
H421 H 0.6818 0.18981 0.07009 0.0
H422 H 0.64704 0.19644 0.07711 0.0
H423 H 0.63175 0.18699 0.02435 0.0
H424 H 0.66645 0.18023 0.01719 0.0
H425 H 0.64915 0.20646 0.9992 0.0
H426 H 0.70468 0.30317 0.02567 0.0
H427 H 0.74925 0.28484 0.01612 0.0
H428 H 0.71669 0.20137 0.03167 0.0
C429 C 0.61672 0.24228 0.05098 0.0
C430 C 0.6032 0.2674 0.05171 0.0
C431 C 0.61793 0.29265 0.04619 0.0
C432 C 0.64555 0.29302 0.04009 0.0
C433 C 0.65828 0.26798 0.03963 0.0
C434 C 0.64441 0.24306 0.0449 0.0
C435 C 0.66302 0.21912 0.04297 0.0
C436 C 0.66689 0.2062 0.07124 0.0
C437 C 0.65193 0.19689 0.01953 0.0
C438 C 0.68942 0.23451 0.03569 0.0
C439 C 0.68619 0.26268 0.03391 0.0
C440 C 0.7075 0.28115 0.02706 0.0
C441 C 0.73275 0.27053 0.02168 0.0
C442 C 0.73655 0.24169 0.0232 0.0
C443 C 0.71455 0.22355 0.0305 0.0
H444 H 0.03814 0.60736 0.28794 0.0
H445 H 0.05972 0.56364 0.21124 0.0
H446 H 0.04615 0.6032 0.18471 0.0
H447 H 0.97898 0.63841 0.258 0.0
H448 H 0.98569 0.67105 0.27908 0.0
H449 H 0.9968 0.63915 0.29223 0.0
H450 H 0.04681 0.66144 0.3002 0.0
H451 H 0.03581 0.69345 0.28726 0.0
H452 H 0.06308 0.67617 0.27148 0.0
H453 H 0.02954 0.64706 0.16621 0.0
H454 H 0.01415 0.69375 0.1576 0.0
H455 H 0.00442 0.70964 0.24634 0.0
C456 C 0.04005 0.6061 0.26557 0.0
C457 C 0.04995 0.5823 0.2517 0.0
C458 C 0.05223 0.5816 0.2224 0.0
C459 C 0.04447 0.60394 0.20708 0.0
C460 C 0.03458 0.62695 0.22134 0.0
C461 C 0.03256 0.62832 0.24995 0.0
C462 C 0.02185 0.65578 0.26022 0.0
C463 C 0.99419 0.65079 0.27314 0.0
C464 C 0.04316 0.67271 0.28101 0.0
C465 C 0.01828 0.66964 0.23294 0.0
C466 C 0.02551 0.65252 0.21074 0.0
C467 C 0.02388 0.66068 0.18344 0.0
C468 C 0.01501 0.68723 0.17875 0.0
C469 C 0.0081 0.70542 0.20128 0.0
C470 C 0.00957 0.69628 0.22867 0.0
H471 H 0.60002 0.78834 0.38238 0.0
H472 H 0.52793 0.82676 0.41016 0.0
H473 H 0.55779 0.86492 0.43601 0.0
H474 H 0.63875 0.79951 0.44508 0.0
H475 H 0.67135 0.8067 0.4307 0.0
H476 H 0.64452 0.78509 0.4105 0.0
H477 H 0.64715 0.81792 0.37006 0.0
H478 H 0.67419 0.83963 0.39012 0.0
H479 H 0.6436 0.85481 0.37703 0.0
H480 H 0.59499 0.89492 0.4638 0.0
H481 H 0.63694 0.91489 0.49146 0.0
H482 H 0.68521 0.85737 0.44558 0.0
C483 C 0.5905 0.80522 0.39322 0.0
C484 C 0.56167 0.80471 0.39413 0.0
C485 C 0.54998 0.82681 0.4091 0.0
C486 C 0.56677 0.84863 0.42375 0.0
C487 C 0.59517 0.8481 0.4231 0.0
C488 C 0.60698 0.82709 0.40807 0.0
C489 C 0.63802 0.82991 0.41305 0.0
C490 C 0.64877 0.80376 0.42558 0.0
C491 C 0.65153 0.83594 0.38595 0.0
C492 C 0.64174 0.85515 0.43406 0.0
C493 C 0.61679 0.86556 0.43924 0.0
C494 C 0.61472 0.88736 0.4595 0.0
C495 C 0.63872 0.89859 0.47513 0.0
C496 C 0.66446 0.88798 0.47048 0.0
C497 C 0.66593 0.86629 0.44931 0.0
H498 H 0.44938 0.34968 0.74718 0.0
H499 H 0.44069 0.3688 0.66026 0.0
H500 H 0.42007 0.41262 0.67405 0.0
H501 H 0.3862 0.37849 0.76837 0.0
H502 H 0.40173 0.3921 0.80217 0.0
H503 H 0.41397 0.36137 0.78495 0.0
H504 H 0.46329 0.38564 0.78913 0.0
H505 H 0.4511 0.41663 0.80591 0.0
H506 H 0.46934 0.41899 0.77473 0.0
H507 H 0.40125 0.45511 0.69763 0.0
H508 H 0.38436 0.49206 0.7291 0.0
H509 H 0.40756 0.44603 0.80065 0.0
C510 C 0.4426 0.3628 0.731 0.0
C511 C 0.44652 0.35574 0.70261 0.0
C512 C 0.43797 0.37377 0.68212 0.0
C513 C 0.42622 0.39875 0.68977 0.0
C514 C 0.42338 0.40551 0.71803 0.0
C515 C 0.43122 0.38801 0.73832 0.0
C516 C 0.42688 0.4006 0.76731 0.0
C517 C 0.40594 0.38204 0.78153 0.0
C518 C 0.45429 0.40577 0.78532 0.0
C519 C 0.41538 0.42789 0.76014 0.0
C520 C 0.41341 0.43032 0.73161 0.0
C521 C 0.40275 0.45348 0.72003 0.0
C522 C 0.39332 0.47441 0.73807 0.0
C523 C 0.39484 0.47214 0.76738 0.0
C524 C 0.40645 0.44871 0.77842 0.0
H525 H 0.95577 0.24608 0.8731 0.0
H526 H 0.95634 0.16015 0.83864 0.0
H527 H 0.91358 0.14795 0.86078 0.0
H528 H 0.93618 0.23055 0.93794 0.0
H529 H 0.91437 0.25896 0.9429 0.0
H530 H 0.9423 0.26228 0.92065 0.0
H531 H 0.90844 0.27311 0.87959 0.0
H532 H 0.88033 0.26997 0.9018 0.0
H533 H 0.87899 0.24906 0.86901 0.0
H534 H 0.87521 0.14335 0.89173 0.0
H535 H 0.84303 0.14694 0.92893 0.0
H536 H 0.86623 0.23575 0.94339 0.0
C537 C 0.94643 0.2249 0.86951 0.0
C538 C 0.95934 0.20409 0.85399 0.0
C539 C 0.94682 0.17646 0.85035 0.0
C540 C 0.92245 0.16934 0.86277 0.0
C541 C 0.91071 0.19012 0.87864 0.0
C542 C 0.92211 0.21741 0.88188 0.0
C543 C 0.90679 0.23507 0.90216 0.0
C544 C 0.92606 0.24743 0.9274 0.0
C545 C 0.89281 0.25817 0.88724 0.0
C546 C 0.88573 0.21319 0.91064 0.0
C547 C 0.88819 0.18748 0.89653 0.0
C548 C 0.87274 0.16345 0.90253 0.0
C549 C 0.85468 0.16563 0.92383 0.0
C550 C 0.85216 0.19161 0.93881 0.0
C551 C 0.86738 0.2158 0.93171 0.0
H552 H 0.31733 0.042 0.41761 0.0
H553 H 0.31499 0.12644 0.39138 0.0
H554 H 0.33744 0.1124 0.34873 0.0
H555 H 0.38286 0.02629 0.38996 0.0
H556 H 0.37084 0.99061 0.37901 0.0
H557 H 0.35721 0.00828 0.40873 0.0
H558 H 0.30783 0.99732 0.38539 0.0
H559 H 0.32131 0.9799 0.35549 0.0
H560 H 0.29961 0.00831 0.35086 0.0
H561 H 0.35885 0.08817 0.30754 0.0
H562 H 0.37622 0.05564 0.27159 0.0
H563 H 0.36169 0.9871 0.32428 0.0
C564 C 0.32206 0.05772 0.40322 0.0
C565 C 0.31472 0.08544 0.40811 0.0
C566 C 0.32066 0.10516 0.38834 0.0
C567 C 0.33339 0.09736 0.36396 0.0
C568 C 0.33985 0.06969 0.35951 0.0
C569 C 0.33435 0.05019 0.37863 0.0
C570 C 0.34163 0.02141 0.3682 0.0
C571 C 0.3645 0.01105 0.38763 0.0
C572 C 0.31607 0.00052 0.36478 0.0
C573 C 0.35186 0.02769 0.34015 0.0
C574 C 0.35101 0.05566 0.33554 0.0
C575 C 0.3596 0.0662 0.31095 0.0
C576 C 0.36939 0.0476 0.29064 0.0
C577 C 0.37008 0.01878 0.29493 0.0
C578 C 0.36114 0.00892 0.32008 0.0
H579 H 0.16095 0.00351 0.64062 0.0
H580 H 0.24267 0.99885 0.68095 0.0
H581 H 0.26298 0.02023 0.64141 0.0
H582 H 0.17999 0.98879 0.56838 0.0
H583 H 0.15717 0.01298 0.55413 0.0
H584 H 0.14885 0.99559 0.58482 0.0
H585 H 0.14503 0.04369 0.61163 0.0
H586 H 0.15358 0.06123 0.58113 0.0
H587 H 0.17372 0.06965 0.6139 0.0
H588 H 0.27463 0.04489 0.59969 0.0
H589 H 0.2772 0.06888 0.55625 0.0
H590 H 0.18829 0.05751 0.54156 0.0
C591 C 0.18312 0.00652 0.64086 0.0
C592 C 0.2002 0.99943 0.66395 0.0
C593 C 0.22912 0.00408 0.66359 0.0
C594 C 0.2409 0.01625 0.6412 0.0
C595 C 0.22356 0.02361 0.61914 0.0
C596 C 0.19532 0.01872 0.61855 0.0
C597 C 0.1815 0.02944 0.5925 0.0
C598 C 0.16596 0.00526 0.57385 0.0
C599 C 0.16233 0.05237 0.60026 0.0
C600 C 0.20638 0.04137 0.57883 0.0
C601 C 0.23039 0.03775 0.59465 0.0
C602 C 0.256 0.04764 0.58695 0.0
C603 C 0.25722 0.06136 0.56224 0.0
C604 C 0.23298 0.06506 0.54535 0.0
C605 C 0.20721 0.05492 0.55389 0.0
H606 H 0.21625 0.93052 0.79243 0.0
H607 H 0.13256 0.93593 0.81566 0.0
H608 H 0.14386 0.91274 0.85869 0.0
H609 H 0.22674 0.86261 0.81907 0.0
H610 H 0.26199 0.87221 0.83158 0.0
H611 H 0.24694 0.8882 0.80194 0.0
H612 H 0.26002 0.93725 0.82722 0.0
H613 H 0.27488 0.92142 0.85704 0.0
H614 H 0.24844 0.94534 0.86147 0.0
H615 H 0.16416 0.88945 0.89933 0.0
H616 H 0.19217 0.86735 0.93507 0.0
H617 H 0.26335 0.87817 0.88656 0.0
C618 C 0.20026 0.92647 0.80644 0.0
C619 C 0.17355 0.93516 0.80082 0.0
C620 C 0.15324 0.92988 0.81976 0.0
C621 C 0.15943 0.91656 0.8442 0.0
C622 C 0.1861 0.90879 0.84948 0.0
C623 C 0.20622 0.91349 0.83117 0.0
C624 C 0.23345 0.90377 0.84231 0.0
C625 C 0.24282 0.8803 0.82255 0.0
C626 C 0.25549 0.92842 0.84731 0.0
C627 C 0.22545 0.89287 0.8697 0.0
C628 C 0.19801 0.89586 0.87332 0.0
C629 C 0.1857 0.887 0.89676 0.0
C630 C 0.2018 0.87448 0.91696 0.0
C631 C 0.23 0.8711 0.91372 0.0
C632 C 0.24194 0.88068 0.88981 0.0
H633 H 0.32908 0.90022 0.03634 0.0
H634 H 0.24764 0.87328 0.05938 0.0
H635 H 0.25799 0.89859 0.10585 0.0
H636 H 0.36341 0.88971 0.09889 0.0
H637 H 0.38809 0.91949 0.09962 0.0
H638 H 0.37286 0.90353 0.06669 0.0
H639 H 0.35598 0.95112 0.0535 0.0
H640 H 0.37134 0.96741 0.0864 0.0
H641 H 0.33537 0.97015 0.07683 0.0
H642 H 0.27936 0.92056 0.15169 0.0
H643 H 0.30998 0.93788 0.19328 0.0
H644 H 0.37732 0.95151 0.14053 0.0
C645 C 0.31305 0.90032 0.05079 0.0
C646 C 0.28741 0.88487 0.04403 0.0
C647 C 0.26735 0.88504 0.06393 0.0
C648 C 0.27302 0.89945 0.09039 0.0
C649 C 0.29877 0.91377 0.09662 0.0
C650 C 0.3184 0.91451 0.0773 0.0
C651 C 0.34537 0.92905 0.09007 0.0
C652 C 0.3688 0.90926 0.08875 0.0
C653 C 0.35242 0.95604 0.07585 0.0
C654 C 0.33817 0.93551 0.1199 0.0
C655 C 0.31108 0.9268 0.12314 0.0
C656 C 0.30039 0.92804 0.14929 0.0
C657 C 0.31795 0.93786 0.1728 0.0
C658 C 0.34587 0.94646 0.17004 0.0
C659 C 0.35586 0.94589 0.14314 0.0
H660 H 0.33126 0.33456 0.0914 0.0
H661 H 0.35024 0.40499 0.04243 0.0
H662 H 0.39826 0.39195 0.04135 0.0
H663 H 0.39872 0.33681 0.13196 0.0
H664 H 0.39782 0.29918 0.131 0.0
H665 H 0.36623 0.3164 0.13087 0.0
H666 H 0.34805 0.28669 0.08533 0.0
H667 H 0.37958 0.26957 0.08519 0.0
H668 H 0.36793 0.28718 0.05513 0.0
H669 H 0.44306 0.36755 0.04126 0.0
H670 H 0.48049 0.33532 0.04396 0.0
H671 H 0.43084 0.28134 0.0925 0.0
C672 C 0.34561 0.34769 0.08098 0.0
C673 C 0.33698 0.37084 0.06706 0.0
C674 C 0.35642 0.38725 0.05342 0.0
C675 C 0.38374 0.37998 0.05266 0.0
C676 C 0.39131 0.35641 0.06585 0.0
C677 C 0.37281 0.34074 0.08003 0.0
C678 C 0.38531 0.31536 0.09094 0.0
C679 C 0.38713 0.31705 0.1231 0.0
C680 C 0.36927 0.28811 0.07838 0.0
C681 C 0.4135 0.31868 0.08003 0.0
C682 C 0.4168 0.34256 0.06582 0.0
C683 C 0.44081 0.34902 0.05272 0.0
C684 C 0.46191 0.33057 0.05426 0.0
C685 C 0.45874 0.30596 0.06869 0.0
C686 C 0.43422 0.3002 0.08177 0.0
H687 H 0.94551 0.8397 0.23345 0.0
H688 H 0.9781 0.8813 0.16411 0.0
H689 H 0.96049 0.92518 0.18134 0.0
H690 H 0.88407 0.87671 0.23755 0.0
H691 H 0.88572 0.87952 0.27525 0.0
H692 H 0.90006 0.85061 0.25696 0.0
H693 H 0.94696 0.86354 0.28505 0.0
H694 H 0.9328 0.89262 0.30329 0.0
H695 H 0.96316 0.89838 0.28462 0.0
H696 H 0.93818 0.96427 0.20451 0.0
H697 H 0.91379 0.99703 0.23411 0.0
H698 H 0.89884 0.93229 0.29098 0.0
C699 C 0.94873 0.85798 0.2218 0.0
C700 C 0.96259 0.85667 0.19692 0.0
C701 C 0.96688 0.88129 0.18266 0.0
C702 C 0.95716 0.90655 0.19244 0.0
C703 C 0.94359 0.90715 0.21689 0.0
C704 C 0.93954 0.88368 0.23159 0.0
C705 C 0.92487 0.89049 0.25774 0.0
C706 C 0.89702 0.87332 0.2568 0.0
C707 C 0.94304 0.88599 0.28424 0.0
C708 C 0.92113 0.92133 0.25513 0.0
C709 C 0.93198 0.93039 0.23128 0.0
C710 C 0.92987 0.95758 0.22345 0.0
C711 C 0.91601 0.97601 0.24033 0.0
C712 C 0.90485 0.96726 0.26494 0.0
C713 C 0.90775 0.93966 0.27258 0.0
H714 H 0.17118 0.71073 0.47481 0.0
H715 H 0.20539 0.70826 0.56043 0.0
H716 H 0.16119 0.7209 0.57766 0.0
H717 H 0.12957 0.76976 0.48792 0.0
H718 H 0.10169 0.75537 0.46344 0.0
H719 H 0.13643 0.74733 0.45792 0.0
H720 H 0.12155 0.69434 0.45601 0.0
H721 H 0.08681 0.7022 0.46167 0.0
H722 H 0.10475 0.6805 0.48485 0.0
H723 H 0.11258 0.7316 0.58556 0.0
H724 H 0.06356 0.74122 0.58359 0.0
H725 H 0.06116 0.7371 0.49284 0.0
C726 C 0.16951 0.71314 0.4972 0.0
C727 C 0.19182 0.70854 0.51626 0.0
C728 C 0.18865 0.71175 0.54539 0.0
C729 C 0.1636 0.7189 0.5554 0.0
C730 C 0.14192 0.7229 0.53604 0.0
C731 C 0.14467 0.72032 0.50756 0.0
C732 C 0.11802 0.72521 0.49118 0.0
C733 C 0.12165 0.75095 0.47411 0.0
C734 C 0.10715 0.699 0.47232 0.0
C735 C 0.09978 0.73062 0.5149 0.0
C736 C 0.11397 0.72922 0.5406 0.0
C737 C 0.1013 0.73292 0.56556 0.0
C738 C 0.07342 0.7383 0.5642 0.0
C739 C 0.05848 0.73997 0.53807 0.0
C740 C 0.07198 0.73608 0.51316 0.0
H741 H 0.97671 0.68 0.61335 0.0
H742 H 0.89119 0.69784 0.6186 0.0
H743 H 0.88265 0.65518 0.64282 0.0
H744 H 0.96442 0.60433 0.60208 0.0
H745 H 0.99453 0.59727 0.62351 0.0
H746 H 0.99422 0.62899 0.60563 0.0
H747 H 0.00655 0.65831 0.65275 0.0
H748 H 0.00693 0.62668 0.67076 0.0
H749 H 0.98519 0.65368 0.68142 0.0
H750 H 0.88277 0.61132 0.66672 0.0
H751 H 0.89215 0.5689 0.69052 0.0
H752 H 0.97762 0.57877 0.67115 0.0
C753 C 0.95618 0.67483 0.61947 0.0
C754 C 0.93467 0.6924 0.614 0.0
C755 C 0.90812 0.68492 0.62259 0.0
C756 C 0.90296 0.66062 0.63631 0.0
C757 C 0.92453 0.64388 0.64148 0.0
C758 C 0.95064 0.65058 0.63348 0.0
C759 C 0.97019 0.62911 0.64245 0.0
C760 C 0.9815 0.61403 0.61689 0.0
C761 C 0.9936 0.64277 0.66307 0.0
C762 C 0.95093 0.6095 0.65677 0.0
C763 C 0.92467 0.61842 0.65577 0.0
C764 C 0.90325 0.60405 0.66765 0.0
C765 C 0.9088 0.57994 0.68113 0.0
C766 C 0.93562 0.57044 0.68276 0.0
C767 C 0.9569 0.58544 0.67025 0.0
H768 H 0.18902 0.15651 0.47146 0.0
H769 H 0.25178 0.22455 0.46923 0.0
H770 H 0.21622 0.25861 0.47053 0.0
H771 H 0.14092 0.18357 0.42516 0.0
H772 H 0.11101 0.17209 0.44239 0.0
H773 H 0.14147 0.15316 0.44509 0.0
H774 H 0.14307 0.15946 0.49921 0.0
H775 H 0.11233 0.17803 0.49669 0.0
H776 H 0.14287 0.1941 0.51626 0.0
H777 H 0.17387 0.28494 0.46927 0.0
H778 H 0.12729 0.30194 0.46599 0.0
H779 H 0.09185 0.21652 0.46617 0.0
C780 C 0.19527 0.17865 0.47209 0.0
C781 C 0.22309 0.18805 0.47066 0.0
C782 C 0.23053 0.21706 0.47055 0.0
C783 C 0.21051 0.23651 0.47126 0.0
C784 C 0.18314 0.22656 0.47178 0.0
C785 C 0.17546 0.19834 0.47226 0.0
C786 C 0.14446 0.19305 0.47068 0.0
C787 C 0.13386 0.17437 0.44425 0.0
C788 C 0.13514 0.18042 0.4973 0.0
C789 C 0.13598 0.22264 0.46894 0.0
C790 C 0.1586 0.24168 0.46989 0.0
C791 C 0.15597 0.27026 0.4686 0.0
C792 C 0.12946 0.2797 0.46665 0.0
C793 C 0.10599 0.26056 0.46567 0.0
C794 C 0.10939 0.23165 0.46662 0.0
H795 H 0.58742 0.4105 0.25575 0.0
H796 H 0.65993 0.42376 0.20967 0.0
H797 H 0.64163 0.38562 0.1746 0.0
H798 H 0.57929 0.33549 0.24398 0.0
H799 H 0.54228 0.33429 0.24025 0.0
H800 H 0.56144 0.36211 0.26196 0.0
H801 H 0.53783 0.39888 0.23353 0.0
H802 H 0.5185 0.37119 0.21182 0.0
H803 H 0.5394 0.39727 0.19607 0.0
H804 H 0.61522 0.34587 0.14473 0.0
H805 H 0.58181 0.3097 0.12075 0.0
H806 H 0.52625 0.32343 0.18628 0.0
C807 C 0.59961 0.40536 0.23839 0.0
C808 C 0.62521 0.42009 0.23553 0.0
C809 C 0.64025 0.41285 0.21227 0.0
C810 C 0.63008 0.39113 0.19233 0.0
C811 C 0.60481 0.377 0.19591 0.0
C812 C 0.58971 0.38397 0.21827 0.0
C813 C 0.56274 0.36623 0.21693 0.0
C814 C 0.56138 0.34848 0.24229 0.0
C815 C 0.53817 0.38448 0.21443 0.0
C816 C 0.56493 0.34817 0.19022 0.0
C817 C 0.58943 0.35454 0.17852 0.0
C818 C 0.59598 0.34073 0.1537 0.0
C819 C 0.57683 0.32014 0.14027 0.0
C820 C 0.55129 0.31367 0.15158 0.0
C821 C 0.54553 0.32779 0.17706 0.0
H822 H 0.3366 0.8276 0.00098 0.0
H823 H 0.30977 0.74078 0.00801 0.0
H824 H 0.35826 0.73009 0.01814 0.0
H825 H 0.39183 0.81719 0.96475 0.0
H826 H 0.41354 0.84624 0.98171 0.0
H827 H 0.37688 0.84721 0.98043 0.0
H828 H 0.37951 0.85545 0.03456 0.0
H829 H 0.41636 0.85427 0.03595 0.0
H830 H 0.39615 0.83117 0.05583 0.0
H831 H 0.40981 0.72777 0.01761 0.0
H832 H 0.45852 0.73414 0.00668 0.0
H833 H 0.45087 0.82319 0.00361 0.0
C834 C 0.34092 0.80646 0.00512 0.0
C835 C 0.31978 0.78491 0.0034 0.0
C836 C 0.32594 0.75752 0.0093 0.0
C837 C 0.35333 0.75135 0.01519 0.0
C838 C 0.37398 0.77305 0.01593 0.0
C839 C 0.36792 0.80018 0.01153 0.0
C840 C 0.39359 0.81934 0.0107 0.0
C841 C 0.39397 0.83327 0.98274 0.0
C842 C 0.39658 0.84135 0.03576 0.0
C843 C 0.41511 0.7984 0.01326 0.0
C844 C 0.4036 0.77187 0.01683 0.0
C845 C 0.41918 0.74856 0.0157 0.0
C846 C 0.44685 0.75234 0.00959 0.0
C847 C 0.45831 0.77917 0.00445 0.0
C848 C 0.4426 0.8025 0.00777 0.0
H849 H 0.9501 0.41286 0.77184 0.0
H850 H 0.99051 0.43193 0.69713 0.0
H851 H 0.01635 0.38966 0.70103 0.0
H852 H 0.00604 0.39113 0.80933 0.0
H853 H 0.98739 0.36349 0.82523 0.0
H854 H 0.97011 0.39333 0.81476 0.0
H855 H 0.93367 0.36074 0.78404 0.0
H856 H 0.95072 0.33068 0.79462 0.0
H857 H 0.94466 0.33593 0.75797 0.0
H858 H 0.04142 0.34851 0.7166 0.0
H859 H 0.06217 0.31069 0.74109 0.0
H860 H 0.00328 0.31805 0.80424 0.0
C861 C 0.96374 0.40789 0.75578 0.0
C862 C 0.96807 0.42561 0.73402 0.0
C863 C 0.98673 0.41854 0.71388 0.0
C864 C 0.00145 0.39458 0.71591 0.0
C865 C 0.99692 0.37781 0.73796 0.0
C866 C 0.97824 0.38402 0.75731 0.0
C867 C 0.97809 0.36366 0.77992 0.0
C868 C 0.98588 0.37882 0.80901 0.0
C869 C 0.95012 0.34675 0.77907 0.0
C870 C 0.00029 0.34545 0.77082 0.0
C871 C 0.01085 0.35383 0.74652 0.0
C872 C 0.03298 0.34145 0.73534 0.0
C873 C 0.04469 0.3201 0.74947 0.0
C874 C 0.03419 0.31132 0.77446 0.0
C875 C 0.01144 0.32395 0.78493 0.0
H876 H 0.35211 0.20438 0.49608 0.0
H877 H 0.33633 0.13113 0.5422 0.0
H878 H 0.36567 0.15389 0.58271 0.0
H879 H 0.42284 0.22108 0.52264 0.0
H880 H 0.41959 0.25829 0.52405 0.0
H881 H 0.39864 0.23539 0.4985 0.0
H882 H 0.35479 0.25541 0.51676 0.0
H883 H 0.37559 0.2782 0.54252 0.0
H884 H 0.34886 0.25444 0.55331 0.0
H885 H 0.39687 0.18557 0.61858 0.0
H886 H 0.42616 0.22327 0.64636 0.0
H887 H 0.41905 0.27574 0.57661 0.0
C888 C 0.35506 0.19287 0.51451 0.0
C889 C 0.34207 0.16584 0.51582 0.0
C890 C 0.34616 0.15182 0.54062 0.0
C891 C 0.36278 0.16458 0.56375 0.0
C892 C 0.37498 0.19144 0.56182 0.0
C893 C 0.37124 0.20538 0.53779 0.0
C894 C 0.38569 0.23442 0.5412 0.0
C895 C 0.40802 0.23746 0.52037 0.0
C896 C 0.36499 0.25694 0.53828 0.0
C897 C 0.39817 0.23475 0.57093 0.0
C898 C 0.39199 0.20976 0.58251 0.0
C899 C 0.40175 0.20524 0.60971 0.0
C900 C 0.41835 0.22677 0.62534 0.0
C901 C 0.42477 0.25259 0.61381 0.0
C902 C 0.41434 0.25645 0.58626 0.0
H903 H 0.59035 0.68215 0.28781 0.0
H904 H 0.50746 0.65486 0.3062 0.0
H905 H 0.51539 0.60657 0.28978 0.0
H906 H 0.59533 0.62913 0.22569 0.0
H907 H 0.63089 0.62518 0.23619 0.0
H908 H 0.61663 0.65844 0.24273 0.0
H909 H 0.63231 0.65839 0.29538 0.0
H910 H 0.64641 0.62524 0.28908 0.0
H911 H 0.62127 0.62916 0.31451 0.0
H912 H 0.53505 0.5609 0.28165 0.0
H913 H 0.5648 0.52148 0.28161 0.0
H914 H 0.63474 0.57782 0.26731 0.0
C915 C 0.57349 0.66624 0.2874 0.0
C916 C 0.54828 0.67235 0.29828 0.0
C917 C 0.52695 0.65075 0.29793 0.0
C918 C 0.53121 0.62324 0.28848 0.0
C919 C 0.55675 0.61769 0.27909 0.0
C920 C 0.57744 0.63866 0.27811 0.0
C921 C 0.60414 0.62673 0.27083 0.0
C922 C 0.61222 0.63538 0.24215 0.0
C923 C 0.62737 0.63538 0.29382 0.0
C924 C 0.59573 0.59572 0.26973 0.0
C925 C 0.56814 0.59096 0.27393 0.0
C926 C 0.55645 0.56427 0.2775 0.0
C927 C 0.57352 0.54203 0.27758 0.0
C928 C 0.60195 0.54663 0.2741 0.0
C929 C 0.61292 0.57362 0.26915 0.0
H930 H 0.07348 0.77523 0.1162 0.0
H931 H 0.0238 0.81366 0.05331 0.0
H932 H 0.06128 0.81171 0.02168 0.0
H933 H 0.13376 0.81322 0.10733 0.0
H934 H 0.15641 0.78566 0.11232 0.0
H935 H 0.12416 0.78484 0.12818 0.0
H936 H 0.11018 0.7356 0.10374 0.0
H937 H 0.14263 0.73606 0.08806 0.0
H938 H 0.11091 0.73009 0.0663 0.0
H939 H 0.10546 0.81211 -0.0001 0.0
H940 H 0.15365 0.81306 0.98807 0.0
H941 H 0.17573 0.77488 0.06503 0.0
C942 C 0.0702 0.78223 0.09537 0.0
C943 C 0.04573 0.79435 0.08701 0.0
C944 C 0.0424 0.8042 0.05999 0.0
C945 C 0.06352 0.80311 0.04187 0.0
C946 C 0.08784 0.7921 0.0511 0.0
C947 C 0.09127 0.78158 0.07709 0.0
C948 C 0.12049 0.77364 0.08293 0.0
C949 C 0.13452 0.79035 0.10924 0.0
C950 C 0.12108 0.74196 0.0854 0.0
C951 C 0.1331 0.78234 0.05665 0.0
C952 C 0.11376 0.79259 0.03846 0.0
C953 C 0.12072 0.80367 0.0137 0.0
C954 C 0.1482 0.80429 0.00727 0.0
C955 C 0.16845 0.79396 0.02559 0.0
C956 C 0.16067 0.78263 0.05047 0.0
H957 H 0.68784 0.00594 0.59288 0.0
H958 H 0.75417 0.95315 0.61156 0.0
H959 H 0.75304 0.9671 0.6618 0.0
H960 H 0.70604 0.06118 0.65515 0.0
H961 H 0.66998 0.06417 0.65929 0.0
H962 H 0.68172 0.05723 0.62489 0.0
H963 H 0.64755 0.01321 0.61704 0.0
H964 H 0.63598 0.01976 0.65128 0.0
H965 H 0.64906 0.98654 0.6416 0.0
H966 H 0.73648 0.97586 0.70898 0.0
H967 H 0.70734 0.98028 0.74867 0.0
H968 H 0.65206 0.02809 0.69994 0.0
C969 C 0.70294 0.99823 0.60742 0.0
C970 C 0.72102 0.97839 0.59828 0.0
C971 C 0.74024 0.96853 0.61799 0.0
C972 C 0.73978 0.9764 0.64663 0.0
C973 C 0.72037 0.99456 0.65514 0.0
C974 C 0.70267 0.00586 0.636 0.0
C975 C 0.68093 0.02123 0.65039 0.0
C976 C 0.68492 0.05283 0.64725 0.0
C977 C 0.65169 0.00945 0.63944 0.0
C978 C 0.68762 0.0147 0.68034 0.0
C979 C 0.71092 -1e-05 0.6828 0.0
C980 C 0.71877 0.98814 0.70753 0.0
C981 C 0.70199 0.99061 0.72993 0.0
C982 C 0.67754 0.0047 0.72742 0.0
C983 C 0.67098 0.01783 0.70271 0.0
H984 H 0.82594 0.00243 0.36892 0.0
H985 H 0.77216 0.06416 0.33975 0.0
H986 H 0.7462 0.06005 0.38182 0.0
H987 H 0.77642 0.95818 0.39139 0.0
H988 H 0.79634 0.94827 0.42163 0.0
H989 H 0.81341 0.95964 0.39206 0.0
H990 H 0.84236 0.99822 0.42401 0.0
H991 H 0.82545 0.98675 0.45381 0.0
H992 H 0.82525 0.02277 0.44556 0.0
H993 H 0.72227 0.04391 0.4232 0.0
H994 H 0.70284 0.0178 0.46059 0.0
H995 H 0.77319 0.96736 0.46257 0.0
C996 C 0.8093 0.01581 0.37173 0.0
C997 C 0.80122 0.03379 0.35116 0.0
C998 C 0.77884 0.05039 0.35537 0.0
C999 C 0.76402 0.04824 0.37923 0.0
C1000 C 0.77211 0.02966 0.39873 0.0
C1001 C 0.79445 0.01397 0.39535 0.0
C1002 C 0.79744 0.99358 0.41777 0.0
C1003 C 0.79578 0.96314 0.40493 0.0
C1004 C 0.82421 0.00078 0.4364 0.0
C1005 C 0.77257 0.99933 0.43359 0.0
C1006 C 0.75841 0.02047 0.42261 0.0
C1007 C 0.73348 0.02773 0.43234 0.0
C1008 C 0.72256 0.01268 0.45352 0.0
C1009 C 0.7365 0.99053 0.46459 0.0
C1010 C 0.76213 0.98434 0.45484 0.0
H1011 H 0.80361 0.15197 0.0922 0.0
H1012 H 0.83079 0.07934 0.04576 0.0
H1013 H 0.83435 0.05489 0.08894 0.0
H1014 H 0.84827 0.1488 0.15259 0.0
H1015 H 0.82407 0.15902 0.17732 0.0
H1016 H 0.82118 0.17048 0.14242 0.0
H1017 H 0.77094 0.14883 0.13529 0.0
H1018 H 0.77358 0.13752 0.1703 0.0
H1019 H 0.76359 0.11246 0.14102 0.0
H1020 H 0.83865 0.03948 0.13673 0.0
H1021 H 0.84104 0.03265 0.18699 0.0
H1022 H 0.81068 0.11462 0.20378 0.0
C1023 C 0.80979 0.13074 0.09105 0.0
C1024 C 0.81694 0.11762 0.06553 0.0
C1025 C 0.82531 0.08992 0.06501 0.0
C1026 C 0.82737 0.07579 0.08944 0.0
C1027 C 0.82089 0.08952 0.11429 0.0
C1028 C 0.81204 0.11624 0.11538 0.0
C1029 C 0.80746 0.12641 0.14523 0.0
C1030 C 0.82638 0.15274 0.15495 0.0
C1031 C 0.77708 0.1316 0.14812 0.0
C1032 C 0.81561 0.10139 0.16066 0.0
C1033 C 0.82321 0.0804 0.14228 0.0
C1034 C 0.83249 0.05562 0.15135 0.0
C1035 C 0.83388 0.05202 0.18002 0.0
C1036 C 0.82598 0.07306 0.19941 0.0
C1037 C 0.8167 0.09808 0.1895 0.0
H1038 H 0.69039 0.01572 0.8593 0.0
H1039 H 0.62727 0.07448 0.85106 0.0
H1040 H 0.65418 0.10768 0.886 0.0
H1041 H 0.70965 0.03156 0.93424 0.0
H1042 H 0.74564 0.02823 0.92999 0.0
H1043 H 0.72 0.00803 0.90667 0.0
H1044 H 0.74196 0.0283 0.86413 0.0
H1045 H 0.76753 0.04865 0.88727 0.0
H1046 H 0.74632 0.06572 0.86248 0.0
H1047 H 0.68916 0.13533 0.92006 0.0
H1048 H 0.73013 0.15607 0.94916 0.0
H1049 H 0.77098 0.0797 0.93333 0.0
C1050 C 0.6819 0.03531 0.86525 0.0
C1051 C 0.65659 0.0424 0.85266 0.0
C1052 C 0.64656 0.06856 0.86053 0.0
C1053 C 0.66166 0.08751 0.8804 0.0
C1054 C 0.68677 0.08002 0.89205 0.0
C1055 C 0.69683 0.05456 0.88472 0.0
C1056 C 0.72524 0.05236 0.89869 0.0
C1057 C 0.72511 0.02864 0.91858 0.0
C1058 C 0.74651 0.04854 0.87683 0.0
C1059 C 0.72981 0.08074 0.91471 0.0
C1060 C 0.70725 0.09625 0.91092 0.0
C1061 C 0.70689 0.12332 0.92327 0.0
C1062 C 0.73028 0.13492 0.93977 0.0
C1063 C 0.75384 0.11956 0.94349 0.0
C1064 C 0.75338 0.09204 0.93087 0.0
H1065 H 0.60242 0.72529 0.99864 0.0
H1066 H 0.58519 0.73449 0.90992 0.0
H1067 H 0.62411 0.70657 0.89939 0.0
H1068 H 0.67517 0.73183 0.99861 0.0
H1069 H 0.68094 0.70621 0.02365 0.0
H1070 H 0.65076 0.72561 0.02434 0.0
H1071 H 0.61991 0.67919 0.01997 0.0
H1072 H 0.65002 0.65962 0.01922 0.0
H1073 H 0.62321 0.65366 0.99128 0.0
H1074 H 0.66558 0.68023 0.89837 0.0
H1075 H 0.7081 0.65675 0.90659 0.0
H1076 H 0.69904 0.6635 0.99607 0.0
C1077 C 0.60669 0.72126 0.97697 0.0
C1078 C 0.59073 0.73208 0.95507 0.0
C1079 C 0.5971 0.72645 0.92703 0.0
C1080 C 0.61912 0.71054 0.92083 0.0
C1081 C 0.63448 0.70033 0.94288 0.0
C1082 C 0.62861 0.70537 0.97038 0.0
C1083 C 0.64907 0.69269 0.99014 0.0
C1084 C 0.66492 0.71545 0.01037 0.0
C1085 C 0.63469 0.66994 0.00609 0.0
C1086 C 0.66763 0.68013 0.9694 0.0
C1087 C 0.65862 0.68475 0.94228 0.0
C1088 C 0.67276 0.67631 0.91946 0.0
C1089 C 0.69697 0.66308 0.92441 0.0
C1090 C 0.70691 0.65832 0.95199 0.0
C1091 C 0.69178 0.66659 0.97477 0.0
H1092 H 0.06462 0.04583 0.77594 0.0
H1093 H 0.11309 0.05493 0.7044 0.0
H1094 H 0.0957 0.10123 0.69854 0.0
H1095 H 0.00558 0.08902 0.75032 0.0
H1096 H 0.00266 0.10334 0.7856 0.0
H1097 H 0.01243 0.06805 0.77934 0.0
H1098 H 0.05636 0.08003 0.81263 0.0
H1099 H 0.04676 0.11509 0.81894 0.0
H1100 H 0.07979 0.10913 0.8061 0.0
H1101 H 0.08338 0.14973 0.70771 0.0
H1102 H 0.07717 0.19593 0.73117 0.0
H1103 H 0.03509 0.15577 0.79572 0.0
C1104 C 0.07082 0.05711 0.75841 0.0
C1105 C 0.0903 0.04677 0.74071 0.0
C1106 C 0.09814 0.06233 0.71821 0.0
C1107 C 0.08821 0.08862 0.7146 0.0
C1108 C 0.07006 0.09883 0.7333 0.0
C1109 C 0.06107 0.08332 0.75453 0.0
C1110 C 0.04503 0.10052 0.7744 0.0
C1111 C 0.01461 0.08958 0.77227 0.0
C1112 C 0.05778 0.10125 0.80478 0.0
C1113 C 0.04854 0.1288 0.76253 0.0
C1114 C 0.0623 0.1272 0.7383 0.0
C1115 C 0.07178 0.15115 0.72606 0.0
C1116 C 0.06824 0.17732 0.73956 0.0
C1117 C 0.05534 0.17929 0.765 0.0
C1118 C 0.04418 0.1548 0.77579 0.0
H1119 H 0.93282 0.23366 0.46451 0.0
H1120 H 0.96346 0.24793 0.55123 0.0
H1121 H 0.91569 0.2431 0.56555 0.0
H1122 H 0.88526 0.27747 0.46803 0.0
H1123 H 0.85927 0.25874 0.44395 0.0
H1124 H 0.89473 0.25281 0.44095 0.0
H1125 H 0.88461 0.19978 0.44533 0.0
H1126 H 0.8487 0.20526 0.44768 0.0
H1127 H 0.86699 0.18796 0.47456 0.0
H1128 H 0.865 0.24762 0.56928 0.0
H1129 H 0.81752 0.26235 0.56211 0.0
H1130 H 0.82143 0.24948 0.47246 0.0
C1131 C 0.92942 0.23442 0.48652 0.0
C1132 C 0.95144 0.24071 0.50683 0.0
C1133 C 0.94663 0.24236 0.5355 0.0
C1134 C 0.91959 0.23971 0.54372 0.0
C1135 C 0.89793 0.23533 0.52292 0.0
C1136 C 0.9027 0.23237 0.49482 0.0
C1137 C 0.87664 0.23338 0.47621 0.0
C1138 C 0.87915 0.25701 0.45616 0.0
C1139 C 0.86877 0.20489 0.46 0.0
C1140 C 0.85675 0.2395 0.49806 0.0
C1141 C 0.869 0.23945 0.52493 0.0
C1142 C 0.85506 0.24705 0.54838 0.0
C1143 C 0.8282 0.25543 0.54417 0.0
C1144 C 0.81617 0.25691 0.51676 0.0
C1145 C 0.83034 0.24826 0.49359 0.0
H1146 H 0.59729 0.94091 0.82866 0.0
H1147 H 0.5195 0.96834 0.7959 0.0
H1148 H 0.49476 0.92936 0.81655 0.0
H1149 H 0.57828 0.86531 0.82166 0.0
H1150 H 0.596 0.85898 0.85453 0.0
H1151 H 0.6083 0.88743 0.83504 0.0
H1152 H 0.60529 0.92235 0.87812 0.0
H1153 H 0.59323 0.894 0.89778 0.0
H1154 H 0.57325 0.92389 0.89439 0.0
H1155 H 0.4783 0.88889 0.84037 0.0
H1156 H 0.46965 0.8523 0.87232 0.0
H1157 H 0.55747 0.85144 0.89354 0.0
C1158 C 0.57508 0.93841 0.82565 0.0
C1159 C 0.56021 0.95738 0.81049 0.0
C1160 C 0.53118 0.95401 0.80748 0.0
C1161 C 0.51699 0.93181 0.8189 0.0
C1162 C 0.53212 0.9134 0.83363 0.0
C1163 C 0.56045 0.91662 0.83756 0.0
C1164 C 0.57126 0.89521 0.85659 0.0
C1165 C 0.58954 0.87556 0.84102 0.0
C1166 C 0.58666 0.90973 0.88331 0.0
C1167 C 0.54448 0.87976 0.86293 0.0
C1168 C 0.52234 0.89039 0.84888 0.0
C1169 C 0.49541 0.88039 0.85156 0.0
C1170 C 0.49075 0.85959 0.86987 0.0
C1171 C 0.51286 0.84912 0.88568 0.0
C1172 C 0.54019 0.85885 0.88159 0.0
H1173 H 0.97818 0.18496 0.41888 0.0
H1174 H 0.94406 0.24556 0.3663 0.0
H1175 H 0.92471 0.20723 0.33194 0.0
H1176 H 0.99171 0.13093 0.36209 0.0
H1177 H 0.98063 0.10263 0.38237 0.0
H1178 H 0.99656 0.1348 0.39975 0.0
H1179 H 0.9543 0.13942 0.42895 0.0
H1180 H 0.93816 0.10749 0.41158 0.0
H1181 H 0.92055 0.13921 0.4112 0.0
H1182 H 0.9047 0.16252 0.30623 0.0
H1183 H 0.88318 0.11517 0.29246 0.0
H1184 H 0.92804 0.08342 0.36331 0.0
C1185 C 0.9676 0.1901 0.39955 0.0
C1186 C 0.96316 0.21813 0.39475 0.0
C1187 C 0.94804 0.22417 0.36999 0.0
C1188 C 0.93705 0.20256 0.35038 0.0
C1189 C 0.94109 0.17501 0.35605 0.0
C1190 C 0.95595 0.1687 0.38009 0.0
C1191 C 0.95404 0.13745 0.38314 0.0
C1192 C 0.98243 0.12577 0.38175 0.0
C1193 C 0.94098 0.1305 0.41032 0.0
C1194 C 0.93522 0.12725 0.35751 0.0
C1195 C 0.92846 0.14917 0.34186 0.0
C1196 C 0.91013 0.14514 0.31812 0.0
C1197 C 0.89798 0.1181 0.31047 0.0
C1198 C 0.90388 0.09544 0.32675 0.0
C1199 C 0.9232 0.10016 0.35026 0.0
H1200 H 0.57158 0.10286 0.73384 0.0
H1201 H 0.57185 0.1177 0.82409 0.0
H1202 H 0.55471 0.16411 0.81832 0.0
H1203 H 0.59241 0.17476 0.71962 0.0
H1204 H 0.57022 0.17368 0.68792 0.0
H1205 H 0.58393 0.14206 0.69903 0.0
H1206 H 0.53453 0.11843 0.69769 0.0
H1207 H 0.52067 0.15001 0.68675 0.0
H1208 H 0.50931 0.13481 0.7176 0.0
H1209 H 0.53651 0.20813 0.80323 0.0
H1210 H 0.51842 0.2476 0.77962 0.0
H1211 H 0.52862 0.20459 0.69882 0.0
C1212 C 0.56835 0.11604 0.75238 0.0
C1213 C 0.57314 0.10665 0.77945 0.0
C1214 C 0.56832 0.12438 0.80315 0.0
C1215 C 0.5586 0.15082 0.80011 0.0
C1216 C 0.55368 0.15928 0.7732 0.0
C1217 C 0.5584 0.14252 0.74971 0.0
C1218 C 0.55055 0.15646 0.72319 0.0
C1219 C 0.57578 0.16208 0.70646 0.0
C1220 C 0.52739 0.13888 0.70526 0.0
C1221 C 0.54054 0.18355 0.73552 0.0
C1222 C 0.54269 0.18471 0.76441 0.0
C1223 C 0.53477 0.20751 0.78061 0.0
C1224 C 0.52449 0.22985 0.76697 0.0
C1225 C 0.52204 0.22924 0.73736 0.0
C1226 C 0.53013 0.20566 0.72147 0.0
H1227 H 0.1683 0.36189 0.98992 0.0
H1228 H 0.2418 0.34485 0.94794 0.0
H1229 H 0.21296 0.32388 0.90651 0.0
H1230 H 0.13087 0.29915 0.96707 0.0
H1231 H 0.09807 0.31391 0.96274 0.0
H1232 H 0.12437 0.33046 0.98776 0.0
H1233 H 0.12136 0.37704 0.96396 0.0
H1234 H 0.09499 0.3606 0.93881 0.0
H1235 H 0.12567 0.37758 0.92703 0.0
H1236 H 0.17657 0.301 0.87169 0.0
H1237 H 0.13521 0.27684 0.84623 0.0
H1238 H 0.08517 0.3092 0.91049 0.0
C1239 C 0.17833 0.35427 0.97181 0.0
C1240 C 0.20728 0.35514 0.97207 0.0
C1241 C 0.21964 0.34443 0.94818 0.0
C1242 C 0.20344 0.33262 0.92449 0.0
C1243 C 0.17495 0.33179 0.92503 0.0
C1244 C 0.16248 0.34237 0.94803 0.0
C1245 C 0.13151 0.33704 0.94404 0.0
C1246 C 0.12058 0.31906 0.96674 0.0
C1247 C 0.11757 0.36472 0.94342 0.0
C1248 C 0.12858 0.32107 0.91556 0.0
C1249 C 0.15386 0.31859 0.90481 0.0
C1250 C 0.1566 0.30319 0.87964 0.0
C1251 C 0.13293 0.28954 0.86529 0.0
C1252 C 0.10687 0.29136 0.87617 0.0
C1253 C 0.10472 0.30777 0.90139 0.0
H1254 H 0.42432 0.72915 0.37932 0.0
H1255 H 0.44101 0.64236 0.3617 0.0
H1256 H 0.39797 0.62723 0.38201 0.0
H1257 H 0.40236 0.72175 0.44425 0.0
H1258 H 0.37576 0.74586 0.44227 0.0
H1259 H 0.40477 0.75003 0.42156 0.0
H1260 H 0.37213 0.748 0.37647 0.0
H1261 H 0.34288 0.74402 0.39711 0.0
H1262 H 0.34708 0.71865 0.36854 0.0
H1263 H 0.35771 0.62159 0.4106 0.0
H1264 H 0.32265 0.62584 0.44479 0.0
H1265 H 0.33166 0.71616 0.44414 0.0
C1266 C 0.41849 0.70696 0.37888 0.0
C1267 C 0.43598 0.68692 0.36878 0.0
C1268 C 0.4279 0.65808 0.3692 0.0
C1269 C 0.40342 0.64928 0.38062 0.0
C1270 C 0.38714 0.66958 0.39132 0.0
C1271 C 0.39418 0.69784 0.39031 0.0
C1272 C 0.37474 0.71537 0.40594 0.0
C1273 C 0.39035 0.73435 0.42992 0.0
C1274 C 0.35822 0.73252 0.38581 0.0
C1275 C 0.35645 0.69256 0.417 0.0
C1276 C 0.36371 0.6663 0.40794 0.0
C1277 C 0.35154 0.64201 0.41743 0.0
C1278 C 0.33186 0.64463 0.43709 0.0
C1279 C 0.32459 0.67131 0.4471 0.0
C1280 C 0.3365 0.69551 0.43635 0.0
H1281 H 0.86611 0.48519 0.83586 0.0
H1282 H 0.89079 0.55905 0.79381 0.0
H1283 H 0.87692 0.58902 0.8335 0.0
H1284 H 0.80649 0.51216 0.86447 0.0
H1285 H 0.81124 0.49525 0.8966 0.0
H1286 H 0.82333 0.47996 0.86489 0.0
H1287 H 0.87213 0.48013 0.88981 0.0
H1288 H 0.86028 0.49599 0.92145 0.0
H1289 H 0.88895 0.51256 0.90569 0.0
H1290 H 0.86064 0.61089 0.87772 0.0
H1291 H 0.83805 0.62314 0.92083 0.0
H1292 H 0.82405 0.53517 0.93417 0.0
C1293 C 0.86849 0.50767 0.83483 0.0
C1294 C 0.87962 0.51973 0.81163 0.0
C1295 C 0.88224 0.54926 0.81122 0.0
C1296 C 0.87464 0.56647 0.83379 0.0
C1297 C 0.86445 0.55385 0.8566 0.0
C1298 C 0.86102 0.52513 0.85712 0.0
C1299 C 0.84876 0.51681 0.88372 0.0
C1300 C 0.82079 0.50007 0.87701 0.0
C1301 C 0.86873 0.5004 0.9012 0.0
C1302 C 0.84555 0.54538 0.89802 0.0
C1303 C 0.85501 0.56645 0.88211 0.0
C1304 C 0.85319 0.59459 0.89033 0.0
C1305 C 0.84032 0.60134 0.91481 0.0
C1306 C 0.82941 0.58008 0.93071 0.0
C1307 C 0.83282 0.5518 0.92269 0.0
H1308 H 0.70754 0.47973 0.15854 0.0
H1309 H 0.71631 0.5564 0.21303 0.0
H1310 H 0.73195 0.5826 0.17404 0.0
H1311 H 0.76719 0.49507 0.11997 0.0
H1312 H 0.75093 0.47969 0.0871 0.0
H1313 H 0.74086 0.46679 0.11946 0.0
H1314 H 0.69021 0.47578 0.10573 0.0
H1315 H 0.70014 0.48877 0.07336 0.0
H1316 H 0.6819 0.51024 0.09695 0.0
H1317 H 0.74583 0.60082 0.12886 0.0
H1318 H 0.75749 0.6095 0.08087 0.0
H1319 H 0.73986 0.52109 0.05573 0.0
C1320 C 0.71287 0.502 0.16234 0.0
C1321 C 0.71069 0.51595 0.18895 0.0
C1322 C 0.71781 0.54516 0.19291 0.0
C1323 C 0.72672 0.56028 0.17086 0.0
C1324 C 0.72849 0.54594 0.14491 0.0
C1325 C 0.72183 0.51745 0.14054 0.0
C1326 C 0.7253 0.50716 0.11051 0.0
C1327 C 0.74739 0.48592 0.1092 0.0
C1328 C 0.69775 0.49476 0.09577 0.0
C1329 C 0.73482 0.53433 0.09868 0.0
C1330 C 0.73653 0.55645 0.11888 0.0
C1331 C 0.74463 0.58365 0.11288 0.0
C1332 C 0.75119 0.58837 0.08554 0.0
C1333 C 0.74963 0.56601 0.06447 0.0
C1334 C 0.74132 0.53866 0.0713 0.0
H1335 H 0.77634 0.3685 0.4126 0.0
H1336 H 0.70714 0.36847 0.46458 0.0
H1337 H 0.68395 0.39933 0.43317 0.0
H1338 H 0.77533 0.44048 0.39485 0.0
H1339 H 0.78369 0.43294 0.35929 0.0
H1340 H 0.79545 0.41144 0.38628 0.0
H1341 H 0.77208 0.36736 0.35767 0.0
H1342 H 0.76015 0.38873 0.33064 0.0
H1343 H 0.73594 0.36617 0.34682 0.0
H1344 H 0.66862 0.43058 0.39731 0.0
H1345 H 0.66091 0.45945 0.35787 0.0
H1346 H 0.73852 0.4377 0.32667 0.0
C1347 C 0.75641 0.37519 0.41748 0.0
C1348 C 0.74359 0.36616 0.44114 0.0
C1349 C 0.71734 0.37506 0.44658 0.0
C1350 C 0.70401 0.39263 0.42889 0.0
C1351 C 0.71707 0.40094 0.40568 0.0
C1352 C 0.7426 0.39248 0.39978 0.0
C1353 C 0.75161 0.40397 0.37295 0.0
C1354 C 0.77809 0.42336 0.3787 0.0
C1355 C 0.75515 0.38013 0.35071 0.0
C1356 C 0.72717 0.42028 0.36482 0.0
C1357 C 0.70763 0.41829 0.38415 0.0
C1358 C 0.6836 0.43203 0.38182 0.0
C1359 C 0.67932 0.44829 0.35911 0.0
C1360 C 0.69876 0.45044 0.33867 0.0
C1361 C 0.72306 0.43619 0.34167 0.0
H1362 H 0.88231 0.44831 0.65739 0.0
H1363 H 0.82586 0.42085 0.71733 0.0
H1364 H 0.79538 0.39608 0.6788 0.0
H1365 H 0.83056 0.4551 0.59791 0.0
H1366 H 0.85253 0.44118 0.57259 0.0
H1367 H 0.8674 0.46062 0.60415 0.0
H1368 H 0.89589 0.41886 0.61574 0.0
H1369 H 0.88102 0.39926 0.5844 0.0
H1370 H 0.87846 0.38482 0.61783 0.0
H1371 H 0.77322 0.37101 0.63446 0.0
H1372 H 0.76216 0.34543 0.5883 0.0
H1373 H 0.83455 0.38691 0.55743 0.0
C1374 C 0.86307 0.43786 0.66225 0.0
C1375 C 0.85612 0.43691 0.69025 0.0
C1376 C 0.83135 0.42208 0.69597 0.0
C1377 C 0.81391 0.40802 0.67422 0.0
C1378 C 0.82169 0.40875 0.64689 0.0
C1379 C 0.84572 0.42323 0.64083 0.0
C1380 C 0.85091 0.41809 0.6102 0.0
C1381 C 0.85031 0.44537 0.59534 0.0
C1382 C 0.87818 0.40444 0.60687 0.0
C1383 C 0.82639 0.39795 0.60012 0.0
C1384 C 0.80952 0.39328 0.62148 0.0
C1385 C 0.78615 0.3747 0.61751 0.0
C1386 C 0.78004 0.36025 0.59115 0.0
C1387 C 0.79746 0.36409 0.56912 0.0
C1388 C 0.82074 0.38352 0.57373 0.0
H1389 H 0.43789 0.07495 0.19451 0.0
H1390 H 0.50584 0.02925 0.16692 0.0
H1391 H 0.52548 0.07165 0.1472 0.0
H1392 H 0.43053 0.1161 0.13524 0.0
H1393 H 0.42275 0.14702 0.15576 0.0
H1394 H 0.41414 0.11294 0.16745 0.0
H1395 H 0.44214 0.12731 0.21474 0.0
H1396 H 0.45104 0.16137 0.20307 0.0
H1397 H 0.47775 0.13996 0.21485 0.0
H1398 H 0.53724 0.11917 0.12949 0.0
H1399 H 0.5397 0.16773 0.11511 0.0
H1400 H 0.46498 0.18224 0.15602 0.0
C1401 C 0.45681 0.0738 0.18419 0.0
C1402 C 0.47026 0.04874 0.18219 0.0
C1403 C 0.49514 0.04821 0.16872 0.0
C1404 C 0.5065 0.0722 0.15748 0.0
C1405 C 0.49287 0.09665 0.16004 0.0
C1406 C 0.46858 0.09762 0.17309 0.0
C1407 C 0.45805 0.12649 0.17318 0.0
C1408 C 0.42969 0.12557 0.15693 0.0
C1409 C 0.45721 0.13954 0.20325 0.0
C1410 C 0.48005 0.14153 0.15793 0.0
C1411 C 0.49998 0.12403 0.15048 0.0
C1412 C 0.52183 0.13314 0.13537 0.0
C1413 C 0.5231 0.16076 0.12733 0.0
C1414 C 0.50269 0.17896 0.13456 0.0
C1415 C 0.48117 0.16911 0.1504 0.0
H1416 H 0.02243 0.82632 0.615 0.0
H1417 H 0.95191 0.82121 0.66509 0.0
H1418 H 0.9771 0.85354 0.70174 0.0
H1419 H 0.07537 0.8307 0.6726 0.0
H1420 H 0.0977 0.85562 0.65695 0.0
H1421 H 0.07474 0.83091 0.63505 0.0
H1422 H 0.05382 0.87174 0.61057 0.0
H1423 H 0.07666 0.89656 0.63241 0.0
H1424 H 0.04004 0.89939 0.63137 0.0
H1425 H 0.00903 0.88637 0.73246 0.0
H1426 H 0.04542 0.91959 0.75542 0.0
H1427 H 0.09551 0.90538 0.68521 0.0
C1428 C 0.01241 0.83178 0.63381 0.0
C1429 C 0.98522 0.82111 0.63726 0.0
C1430 C 0.97267 0.82911 0.66198 0.0
C1431 C 0.98684 0.8474 0.68295 0.0
C1432 C 0.01347 0.85768 0.67882 0.0
C1433 C 0.02616 0.85032 0.65488 0.0
C1434 C 0.05456 0.86538 0.65533 0.0
C1435 C 0.07691 0.84439 0.65497 0.0
C1436 C 0.05636 0.8844 0.63098 0.0
C1437 C 0.05577 0.8824 0.68327 0.0
C1438 C 0.03187 0.87737 0.69645 0.0
C1439 C 0.02786 0.89048 0.72239 0.0
C1440 C 0.04878 0.90935 0.73527 0.0
C1441 C 0.07347 0.9152 0.72218 0.0
C1442 C 0.07693 0.90143 0.69577 0.0
H1443 H 0.53389 0.82096 0.27344 0.0
H1444 H 0.4603 0.77191 0.29189 0.0
H1445 H 0.4319 0.80216 0.2645 0.0
H1446 H 0.50885 0.88416 0.28393 0.0
H1447 H 0.52542 0.90086 0.25647 0.0
H1448 H 0.54034 0.87194 0.27189 0.0
H1449 H 0.53951 0.8454 0.22294 0.0
H1450 H 0.52455 0.87439 0.20728 0.0
H1451 H 0.50764 0.8397 0.20137 0.0
H1452 H 0.41129 0.84201 0.24351 0.0
H1453 H 0.4001 0.88901 0.23075 0.0
H1454 H 0.48656 0.91232 0.22491 0.0
C1455 C 0.51187 0.81598 0.2709 0.0
C1456 C 0.49934 0.794 0.28472 0.0
C1457 C 0.47039 0.78861 0.28148 0.0
C1458 C 0.45408 0.80556 0.26577 0.0
C1459 C 0.46701 0.82765 0.25321 0.0
C1460 C 0.49528 0.83279 0.25538 0.0
C1461 C 0.50382 0.86 0.24313 0.0
C1462 C 0.52057 0.88043 0.26517 0.0
C1463 C 0.51983 0.85454 0.21713 0.0
C1464 C 0.47589 0.87016 0.23525 0.0
C1465 C 0.45494 0.85088 0.24068 0.0
C1466 C 0.42745 0.85697 0.23847 0.0
C1467 C 0.42129 0.88373 0.23142 0.0
C1468 C 0.4425 0.90397 0.22667 0.0
C1469 C 0.46999 0.89679 0.2276 0.0
H1470 H 0.84813 0.6593 0.0384 0.0
H1471 H 0.81509 0.71865 0.98336 0.0
H1472 H 0.84089 0.75749 0.01234 0.0
H1473 H 0.85066 0.70401 0.10429 0.0
H1474 H 0.88308 0.69247 0.11743 0.0
H1475 H 0.85986 0.66922 0.09421 0.0
H1476 H 0.89834 0.66271 0.06043 0.0
H1477 H 0.92165 0.68586 0.08356 0.0
H1478 H 0.91547 0.69308 0.04743 0.0
H1479 H 0.87096 0.78954 0.0454 0.0
H1480 H 0.90688 0.81334 0.07864 0.0
H1481 H 0.92336 0.73381 0.11189 0.0
C1482 C 0.84607 0.68054 0.0328 0.0
C1483 C 0.82947 0.68606 0.00877 0.0
C1484 C 0.82771 0.714 0.00166 0.0
C1485 C 0.84214 0.73621 0.01808 0.0
C1486 C 0.85852 0.73014 0.04144 0.0
C1487 C 0.86085 0.70305 0.04874 0.0
C1488 C 0.88176 0.70238 0.0736 0.0
C1489 C 0.86801 0.69137 0.09888 0.0
C1490 C 0.90572 0.68498 0.06578 0.0
C1491 C 0.89102 0.73328 0.07878 0.0
C1492 C 0.87693 0.74883 0.0602 0.0
C1493 C 0.88212 0.77764 0.06013 0.0
C1494 C 0.90267 0.79096 0.07916 0.0
C1495 C 0.91815 0.77553 0.09795 0.0
C1496 C 0.91184 0.74628 0.09799 0.0
H1497 H 0.57215 0.28064 0.63608 0.0
H1498 H 0.52614 0.31822 0.56965 0.0
H1499 H 0.56577 0.3164 0.5409 0.0
H1500 H 0.63498 0.31791 0.62945 0.0
H1501 H 0.65618 0.28955 0.63621 0.0
H1502 H 0.62327 0.29062 0.65067 0.0
H1503 H 0.60832 0.24119 0.62717 0.0
H1504 H 0.64134 0.23981 0.61284 0.0
H1505 H 0.61028 0.23451 0.58998 0.0
H1506 H 0.61091 0.31478 0.52118 0.0
H1507 H 0.65907 0.31162 0.51044 0.0
H1508 H 0.67659 0.27503 0.58936 0.0
C1509 C 0.57022 0.28788 0.61524 0.0
C1510 C 0.54605 0.29955 0.60509 0.0
C1511 C 0.54448 0.30928 0.5779 0.0
C1512 C 0.56684 0.30827 0.56135 0.0
C1513 C 0.5906 0.2974 0.57226 0.0
C1514 C 0.59246 0.28716 0.59844 0.0
C1515 C 0.62103 0.27816 0.60572 0.0
C1516 C 0.63466 0.29508 0.63207 0.0
C1517 C 0.62018 0.24653 0.60912 0.0
C1518 C 0.63503 0.28556 0.57978 0.0
C1519 C 0.61697 0.29645 0.56073 0.0
C1520 C 0.62521 0.30598 0.53573 0.0
C1521 C 0.65267 0.30421 0.52992 0.0
C1522 C 0.67161 0.29302 0.54904 0.0
C1523 C 0.66257 0.2835 0.57425 0.0
H1524 H 0.22224 0.41175 0.13139 0.0
H1525 H 0.20746 0.48508 0.08677 0.0
H1526 H 0.19065 0.50817 0.12917 0.0
H1527 H 0.16255 0.40942 0.1615 0.0
H1528 H 0.17454 0.39771 0.19473 0.0
H1529 H 0.19269 0.3899 0.16425 0.0
H1530 H 0.23779 0.41371 0.1894 0.0
H1531 H 0.21983 0.4213 0.22025 0.0
H1532 H 0.23836 0.44917 0.20458 0.0
H1533 H 0.16732 0.5193 0.1719 0.0
H1534 H 0.13909 0.5181 0.2123 0.0
H1535 H 0.16713 0.4368 0.22947 0.0
C1536 C 0.21682 0.43321 0.13119 0.0
C1537 C 0.21677 0.44709 0.10631 0.0
C1538 C 0.20814 0.47453 0.10599 0.0
C1539 C 0.19861 0.48775 0.12995 0.0
C1540 C 0.19767 0.4731 0.15393 0.0
C1541 C 0.20673 0.44648 0.15487 0.0
C1542 C 0.19935 0.4336 0.18154 0.0
C1543 C 0.1812 0.40605 0.1751 0.0
C1544 C 0.22539 0.42919 0.20004 0.0
C1545 C 0.18344 0.45645 0.19462 0.0
C1546 C 0.18331 0.4793 0.17867 0.0
C1547 C 0.16778 0.50183 0.18493 0.0
C1548 C 0.15163 0.50085 0.20783 0.0
C1549 C 0.15093 0.47738 0.22412 0.0
C1550 C 0.16758 0.45523 0.21773 0.0
H1551 H 0.33251 0.49773 0.88377 0.0
H1552 H 0.27277 0.55847 0.86776 0.0
H1553 H 0.25183 0.54826 0.91156 0.0
H1554 H 0.28855 0.44807 0.90492 0.0
H1555 H 0.3113 0.43587 0.93184 0.0
H1556 H 0.32529 0.45212 0.90289 0.0
H1557 H 0.35436 0.48863 0.93708 0.0
H1558 H 0.34063 0.47229 0.9663 0.0
H1559 H 0.3377 0.50911 0.96288 0.0
H1560 H 0.23221 0.52514 0.95128 0.0
H1561 H 0.21638 0.49211 0.9849 0.0
H1562 H 0.28958 0.44719 0.97586 0.0
C1563 C 0.31569 0.50968 0.88996 0.0
C1564 C 0.30437 0.52901 0.87244 0.0
C1565 C 0.2819 0.54369 0.88097 0.0
C1566 C 0.26992 0.53809 0.90586 0.0
C1567 C 0.28092 0.51806 0.92212 0.0
C1568 C 0.30358 0.50436 0.91472 0.0
C1569 C 0.30951 0.48149 0.93392 0.0
C1570 C 0.30858 0.4527 0.9174 0.0
C1571 C 0.33719 0.4883 0.95107 0.0
C1572 C 0.28574 0.48338 0.95231 0.0
C1573 C 0.26974 0.50491 0.94547 0.0
C1574 C 0.24495 0.50872 0.95735 0.0
C1575 C 0.23606 0.48976 0.97629 0.0
C1576 C 0.25192 0.46729 0.98316 0.0
C1577 C 0.2774 0.46459 0.97155 0.0
H1578 H 0.30422 0.57504 0.57159 0.0
H1579 H 0.26226 0.64825 0.59748 0.0
H1580 H 0.265 0.63445 0.64604 0.0
H1581 H 0.27253 0.52777 0.61942 0.0
H1582 H 0.30371 0.5105 0.62563 0.0
H1583 H 0.29635 0.52495 0.59254 0.0
H1584 H 0.34322 0.55422 0.59899 0.0
H1585 H 0.3506 0.54013 0.63219 0.0
H1586 H 0.35124 0.57747 0.63005 0.0
H1587 H 0.27648 0.61535 0.69243 0.0
H1588 H 0.29248 0.59013 0.73283 0.0
H1589 H 0.32581 0.52873 0.6765 0.0
C1590 C 0.29516 0.58797 0.58733 0.0
C1591 C 0.28304 0.61279 0.58063 0.0
C1592 C 0.27156 0.6291 0.60198 0.0
C1593 C 0.27307 0.62147 0.62967 0.0
C1594 C 0.28584 0.59732 0.63564 0.0
C1595 C 0.29634 0.58058 0.61501 0.0
C1596 C 0.30983 0.55618 0.62709 0.0
C1597 C 0.29469 0.52819 0.61548 0.0
C1598 C 0.34054 0.55707 0.62176 0.0
C1599 C 0.30581 0.56215 0.65783 0.0
C1600 C 0.29194 0.58597 0.66232 0.0
C1601 C 0.28702 0.59645 0.68914 0.0
C1602 C 0.29632 0.58206 0.71196 0.0
C1603 C 0.31026 0.55738 0.70781 0.0
C1604 C 0.31495 0.54735 0.68033 0.0
H1605 H 0.16935 0.5015 0.35881 0.0
H1606 H 0.10853 0.56131 0.34302 0.0
H1607 H 0.13288 0.59455 0.37974 0.0
H1608 H 0.17954 0.51628 0.43352 0.0
H1609 H 0.216 0.51243 0.43453 0.0
H1610 H 0.19323 0.49309 0.40773 0.0
H1611 H 0.22146 0.51396 0.36941 0.0
H1612 H 0.2444 0.53319 0.39607 0.0
H1613 H 0.22725 0.55141 0.36917 0.0
H1614 H 0.16407 0.6211 0.41842 0.0
H1615 H 0.20141 0.64038 0.4531 0.0
H1616 H 0.2422 0.56329 0.44221 0.0
C1617 C 0.161 0.52152 0.36312 0.0
C1618 C 0.13693 0.52874 0.34814 0.0
C1619 C 0.12695 0.55533 0.35421 0.0
C1620 C 0.14056 0.57427 0.37511 0.0
C1621 C 0.16416 0.56635 0.38958 0.0
C1622 C 0.17441 0.5407 0.38365 0.0
C1623 C 0.20072 0.53762 0.40134 0.0
C1624 C 0.19714 0.51342 0.42041 0.0
C1625 C 0.22488 0.53383 0.38289 0.0
C1626 C 0.20381 0.56564 0.4181 0.0
C1627 C 0.18238 0.58182 0.41127 0.0
C1628 C 0.18095 0.60862 0.42391 0.0
C1629 C 0.20226 0.61935 0.44366 0.0
C1630 C 0.22485 0.60341 0.45038 0.0
C1631 C 0.22529 0.57606 0.43759 0.0
loop_
_geom_bond_atom_site_label_1
_geom_bond_atom_site_label_2
_geom_bond_distance
_geom_bond_site_symmetry_2
_ccdc_geom_bond_type
Mg0 O1 2.028 . S
Mg0 O7 1.986 . S
Mg0 O9 2.114 1_455 S
Mg0 O10 2.251 1_455 S
Mg0 O13 2.010 . S
O1 Mg0 2.028 . S
O1 C4 1.250 1_455 S
O2 Mg3 2.028 . S
O2 C4 1.248 . S
Mg3 O2 2.028 . S
Mg3 O8 2.032 . S
Mg3 O10 2.079 . S
C4 O1 1.250 1_655 S
C4 O2 1.248 . S
C5 O6 1.264 . S
C5 O13 1.249 . S
O6 C5 1.264 . S
O7 Mg0 1.986 . S
O7 C11 1.246 . S
O8 Mg3 2.032 . S
O8 C11 1.259 1_655 S
O9 Mg0 2.114 1_655 S
O9 C12 1.252 . S
O10 Mg0 2.251 1_655 S
O10 Mg3 2.079 . S
O10 C12 1.273 . S
C11 O7 1.246 . S
C11 O8 1.259 1_455 S
C12 O9 1.252 . S
C12 O10 1.273 . S
O13 Mg0 2.010 . S
O13 C5 1.249 . S
Mg14 O15 2.028 . S
Mg14 O21 1.986 . S
Mg14 O23 2.114 1_455 S
Mg14 O24 2.251 1_455 S
Mg14 O27 2.010 . S
O15 Mg14 2.028 . S
O15 C18 1.250 . S
O16 Mg17 2.028 1_455 S
O16 C18 1.248 . S
Mg17 O16 2.028 1_655 S
Mg17 O22 2.032 . S
Mg17 O24 2.079 . S
C18 O15 1.250 . S
C18 O16 1.248 . S
C19 O20 1.264 . S
C19 O27 1.249 . S
O20 C19 1.264 . S
O21 Mg14 1.986 . S
O21 C25 1.246 1_455 S
O22 Mg17 2.032 . S
O22 C25 1.259 . S
O23 Mg14 2.114 1_655 S
O23 C26 1.252 . S
O24 Mg14 2.251 1_655 S
O24 Mg17 2.079 . S
O24 C26 1.273 . S
C25 O21 1.246 1_655 S
C25 O22 1.259 . S
C26 O23 1.252 . S
C26 O24 1.273 . S
O27 Mg14 2.010 . S
O27 C19 1.249 . S
Mg28 O29 2.028 . S
Mg28 O35 1.986 . S
Mg28 O37 2.114 . S
Mg28 O38 2.251 . S
Mg28 O41 2.010 . S
O29 Mg28 2.028 . S
O29 C32 1.250 . S
O30 Mg31 2.028 . S
O30 C32 1.248 . S
Mg31 O30 2.028 . S
Mg31 O36 2.032 . S
Mg31 O38 2.079 . S
C32 O29 1.250 . S
C32 O30 1.248 . S
C33 O34 1.264 . S
C33 O41 1.249 . S
O34 C33 1.264 . S
O35 Mg28 1.986 . S
O35 C39 1.246 . S
O36 Mg31 2.032 . S
O36 C39 1.259 . S
O37 Mg28 2.114 . S
O37 C40 1.252 . S
O38 Mg28 2.251 . S
O38 Mg31 2.079 . S
O38 C40 1.273 . S
C39 O35 1.246 . S
C39 O36 1.259 . S
C40 O37 1.252 . S
C40 O38 1.273 . S
O41 Mg28 2.010 . S
O41 C33 1.249 . S
Mg42 O43 2.028 . S
Mg42 O49 1.986 . S
Mg42 O51 2.114 . S
Mg42 O52 2.251 . S
Mg42 O55 2.010 . S
O43 Mg42 2.028 . S
O43 C46 1.250 . S
O44 Mg45 2.028 . S
O44 C46 1.248 . S
Mg45 O44 2.028 . S
Mg45 O50 2.032 . S
Mg45 O52 2.079 . S
C46 O43 1.250 . S
C46 O44 1.248 . S
C47 O48 1.264 . S
C47 O55 1.249 . S
O48 C47 1.264 . S
O49 Mg42 1.986 . S
O49 C53 1.246 . S
O50 Mg45 2.032 . S
O50 C53 1.259 . S
O51 Mg42 2.114 . S
O51 C54 1.252 . S
O52 Mg42 2.251 . S
O52 Mg45 2.079 . S
O52 C54 1.273 . S
C53 O49 1.246 . S
C53 O50 1.259 . S
C54 O51 1.252 . S
C54 O52 1.273 . S
O55 Mg42 2.010 . S
O55 C47 1.249 . S
Mg56 O57 2.028 1_455 S
Mg56 O63 1.986 . S
Mg56 O65 2.114 1_455 S
Mg56 O66 2.251 1_455 S
Mg56 O69 2.010 . S
O57 Mg56 2.028 1_655 S
O57 C60 1.250 . S
O58 Mg59 2.028 . S
O58 C60 1.248 . S
Mg59 O58 2.028 . S
Mg59 O64 2.032 1_655 S
Mg59 O66 2.079 . S
C60 O57 1.250 . S
C60 O58 1.248 . S
C61 O62 1.264 . S
C61 O69 1.249 . S
O62 C61 1.264 . S
O63 Mg56 1.986 . S
O63 C67 1.246 . S
O64 Mg59 2.032 1_455 S
O64 C67 1.259 . S
O65 Mg56 2.114 1_655 S
O65 C68 1.252 . S
O66 Mg56 2.251 1_655 S
O66 Mg59 2.079 . S
O66 C68 1.273 . S
C67 O63 1.246 . S
C67 O64 1.259 . S
C68 O65 1.252 . S
C68 O66 1.273 . S
O69 Mg56 2.010 . S
O69 C61 1.249 . S
Mg70 O71 2.028 . S
Mg70 O77 1.986 . S
Mg70 O79 2.114 . S
Mg70 O80 2.251 . S
Mg70 O83 2.010 . S
O71 Mg70 2.028 . S
O71 C74 1.250 . S
O72 Mg73 2.028 . S
O72 C74 1.248 . S
Mg73 O72 2.028 . S
Mg73 O78 2.032 . S
Mg73 O80 2.079 . S
C74 O71 1.250 . S
C74 O72 1.248 . S
C75 O76 1.264 . S
C75 O83 1.249 . S
O76 C75 1.264 . S
O77 Mg70 1.986 . S
O77 C81 1.246 . S
O78 Mg73 2.032 . S
O78 C81 1.259 . S
O79 Mg70 2.114 . S
O79 C82 1.252 . S
O80 Mg70 2.251 . S
O80 Mg73 2.079 . S
O80 C82 1.273 . S
C81 O77 1.246 . S
C81 O78 1.259 . S
C82 O79 1.252 . S
C82 O80 1.273 . S
O83 Mg70 2.010 . S
O83 C75 1.249 . S
Mg84 O85 2.028 . S
Mg84 O91 1.986 . S
Mg84 O93 2.114 . S
Mg84 O94 2.251 . S
Mg84 O97 2.010 . S
O85 Mg84 2.028 . S
O85 C88 1.250 . S
O86 Mg87 2.028 . S
O86 C88 1.248 . S
Mg87 O86 2.028 . S
Mg87 O92 2.032 . S
Mg87 O94 2.079 . S
C88 O85 1.250 . S
C88 O86 1.248 . S
C89 O90 1.264 . S
C89 O97 1.249 . S
O90 C89 1.264 . S
O91 Mg84 1.986 . S
O91 C95 1.246 . S
O92 Mg87 2.032 . S
O92 C95 1.259 . S
O93 Mg84 2.114 . S
O93 C96 1.252 . S
O94 Mg84 2.251 . S
O94 Mg87 2.079 . S
O94 C96 1.273 . S
C95 O91 1.246 . S
C95 O92 1.259 . S
C96 O93 1.252 . S
C96 O94 1.273 . S
O97 Mg84 2.010 . S
O97 C89 1.249 . S
Mg98 O99 2.028 1_455 S
Mg98 O105 1.986 . S
Mg98 O107 2.114 . S
Mg98 O108 2.251 . S
Mg98 O111 2.010 1_455 S
O99 Mg98 2.028 1_655 S
O99 C102 1.250 . S
O100 Mg101 2.028 . S
O100 C102 1.248 1_455 S
Mg101 O100 2.028 . S
Mg101 O106 2.032 . S
Mg101 O108 2.079 . S
C102 O99 1.250 . S
C102 O100 1.248 1_655 S
C103 O104 1.264 . S
C103 O111 1.249 . S
O104 C103 1.264 . S
O105 Mg98 1.986 . S
O105 C109 1.246 . S
O106 Mg101 2.032 . S
O106 C109 1.259 . S
O107 Mg98 2.114 . S
O107 C110 1.252 . S
O108 Mg98 2.251 . S
O108 Mg101 2.079 . S
O108 C110 1.273 . S
C109 O105 1.246 . S
C109 O106 1.259 . S
C110 O107 1.252 . S
C110 O108 1.273 . S
O111 Mg98 2.010 1_655 S
O111 C103 1.249 . S
Mg112 O113 2.028 1_545 S
Mg112 O119 1.986 . S
Mg112 O121 2.114 1_545 S
Mg112 O122 2.251 1_545 S
Mg112 O125 2.010 . S
O113 Mg112 2.028 1_565 S
O113 C116 1.250 . S
O114 Mg115 2.028 . S
O114 C116 1.248 . S
Mg115 O114 2.028 . S
Mg115 O120 2.032 . S
Mg115 O122 2.079 . S
C116 O113 1.250 . S
C116 O114 1.248 . S
C117 O118 1.264 . S
C117 O125 1.249 . S
O118 C117 1.264 . S
O119 Mg112 1.986 . S
O119 C123 1.246 . S
O120 Mg115 2.032 . S
O120 C123 1.259 1_565 S
O121 Mg112 2.114 1_565 S
O121 C124 1.252 . S
O122 Mg112 2.251 1_565 S
O122 Mg115 2.079 . S
O122 C124 1.273 . S
C123 O119 1.246 . S
C123 O120 1.259 1_545 S
C124 O121 1.252 . S
C124 O122 1.273 . S
O125 Mg112 2.010 . S
O125 C117 1.249 . S
Mg126 O127 2.028 . S
Mg126 O133 1.986 . S
Mg126 O135 2.114 . S
Mg126 O136 2.251 . S
Mg126 O139 2.010 . S
O127 Mg126 2.028 . S
O127 C130 1.250 . S
O128 Mg129 2.028 . S
O128 C130 1.248 . S
Mg129 O128 2.028 . S
Mg129 O134 2.032 . S
Mg129 O136 2.079 . S
C130 O127 1.250 . S
C130 O128 1.248 . S
C131 O132 1.264 . S
C131 O139 1.249 . S
O132 C131 1.264 . S
O133 Mg126 1.986 . S
O133 C137 1.246 . S
O134 Mg129 2.032 . S
O134 C137 1.259 . S
O135 Mg126 2.114 . S
O135 C138 1.252 . S
O136 Mg126 2.251 . S
O136 Mg129 2.079 . S
O136 C138 1.273 . S
C137 O133 1.246 . S
C137 O134 1.259 . S
C138 O135 1.252 . S
C138 O136 1.273 . S
O139 Mg126 2.010 . S
O139 C131 1.249 . S
Mg140 O141 2.028 1_545 S
Mg140 O147 1.986 . S
Mg140 O149 2.114 1_545 S
Mg140 O150 2.251 1_545 S
Mg140 O153 2.010 . S
O141 Mg140 2.028 1_565 S
O141 C144 1.250 . S
O142 Mg143 2.028 . S
O142 C144 1.248 . S
Mg143 O142 2.028 . S
Mg143 O148 2.032 1_565 S
Mg143 O150 2.079 . S
C144 O141 1.250 . S
C144 O142 1.248 . S
C145 O146 1.264 . S
C145 O153 1.249 . S
O146 C145 1.264 . S
O147 Mg140 1.986 . S
O147 C151 1.246 . S
O148 Mg143 2.032 1_545 S
O148 C151 1.259 . S
O149 Mg140 2.114 1_565 S
O149 C152 1.252 . S
O150 Mg140 2.251 1_565 S
O150 Mg143 2.079 . S
O150 C152 1.273 . S
C151 O147 1.246 . S
C151 O148 1.259 . S
C152 O149 1.252 . S
C152 O150 1.273 . S
O153 Mg140 2.010 . S
O153 C145 1.249 . S
Mg154 O155 2.028 1_556 S
Mg154 O161 1.986 . S
Mg154 O163 2.114 1_556 S
Mg154 O164 2.251 . S
Mg154 O167 2.010 1_556 S
O155 Mg154 2.028 1_554 S
O155 C158 1.250 . S
O156 Mg157 2.028 1_554 S
O156 C158 1.248 . S
Mg157 O156 2.028 1_556 S
Mg157 O162 2.032 . S
Mg157 O164 2.079 . S
C158 O155 1.250 . S
C158 O156 1.248 . S
C159 O160 1.264 . S
C159 O167 1.249 . S
O160 C159 1.264 . S
O161 Mg154 1.986 . S
O161 C165 1.246 . S
O162 Mg157 2.032 . S
O162 C165 1.259 . S
O163 Mg154 2.114 1_554 S
O163 C166 1.252 1_554 S
O164 Mg154 2.251 . S
O164 Mg157 2.079 . S
O164 C166 1.273 . S
C165 O161 1.246 . S
C165 O162 1.259 . S
C166 O163 1.252 1_556 S
C166 O164 1.273 . S
O167 Mg154 2.010 1_554 S
O167 C159 1.249 . S
Mg168 O169 2.028 1_554 S
Mg168 O175 1.986 . S
Mg168 O177 2.114 1_554 S
Mg168 O178 2.251 1_554 S
Mg168 O181 2.010 . S
O169 Mg168 2.028 1_556 S
O169 C172 1.250 . S
O170 Mg171 2.028 . S
O170 C172 1.248 . S
Mg171 O170 2.028 . S
Mg171 O176 2.032 1_556 S
Mg171 O178 2.079 . S
C172 O169 1.250 . S
C172 O170 1.248 . S
C173 O174 1.264 . S
C173 O181 1.249 . S
O174 C173 1.264 . S
O175 Mg168 1.986 . S
O175 C179 1.246 . S
O176 Mg171 2.032 1_554 S
O176 C179 1.259 . S
O177 Mg168 2.114 1_556 S
O177 C180 1.252 . S
O178 Mg168 2.251 1_556 S
O178 Mg171 2.079 . S
O178 C180 1.273 . S
C179 O175 1.246 . S
C179 O176 1.259 . S
C180 O177 1.252 . S
C180 O178 1.273 . S
O181 Mg168 2.010 . S
O181 C173 1.249 . S
Mg182 O183 2.028 1_554 S
Mg182 O189 1.986 . S
Mg182 O191 2.114 1_554 S
Mg182 O192 2.251 1_554 S
Mg182 O195 2.010 . S
O183 Mg182 2.028 1_556 S
O183 C186 1.250 . S
O184 Mg185 2.028 . S
O184 C186 1.248 . S
Mg185 O184 2.028 . S
Mg185 O190 2.032 1_556 S
Mg185 O192 2.079 . S
C186 O183 1.250 . S
C186 O184 1.248 . S
C187 O188 1.264 . S
C187 O195 1.249 . S
O188 C187 1.264 . S
O189 Mg182 1.986 . S
O189 C193 1.246 . S
O190 Mg185 2.032 1_554 S
O190 C193 1.259 . S
O191 Mg182 2.114 1_556 S
O191 C194 1.252 . S
O192 Mg182 2.251 1_556 S
O192 Mg185 2.079 . S
O192 C194 1.273 . S
C193 O189 1.246 . S
C193 O190 1.259 . S
C194 O191 1.252 . S
C194 O192 1.273 . S
O195 Mg182 2.010 . S
O195 C187 1.249 . S
Mg196 O197 2.028 . S
Mg196 O203 1.986 . S
Mg196 O205 2.114 . S
Mg196 O206 2.251 . S
Mg196 O209 2.010 . S
O197 Mg196 2.028 . S
O197 C200 1.250 . S
O198 Mg199 2.028 . S
O198 C200 1.248 . S
Mg199 O198 2.028 . S
Mg199 O204 2.032 . S
Mg199 O206 2.079 . S
C200 O197 1.250 . S
C200 O198 1.248 . S
C201 O202 1.264 . S
C201 O209 1.249 . S
O202 C201 1.264 . S
O203 Mg196 1.986 . S
O203 C207 1.246 . S
O204 Mg199 2.032 . S
O204 C207 1.259 . S
O205 Mg196 2.114 . S
O205 C208 1.252 . S
O206 Mg196 2.251 . S
O206 Mg199 2.079 . S
O206 C208 1.273 . S
C207 O203 1.246 . S
C207 O204 1.259 . S
C208 O205 1.252 . S
C208 O206 1.273 . S
O209 Mg196 2.010 . S
O209 C201 1.249 . S
Mg210 O211 2.028 . S
Mg210 O217 1.986 . S
Mg210 O219 2.114 . S
Mg210 O220 2.251 . S
Mg210 O223 2.010 . S
O211 Mg210 2.028 . S
O211 C214 1.250 . S
O212 Mg213 2.028 . S
O212 C214 1.248 . S
Mg213 O212 2.028 . S
Mg213 O218 2.032 . S
Mg213 O220 2.079 . S
C214 O211 1.250 . S
C214 O212 1.248 . S
C215 O216 1.264 . S
C215 O223 1.249 . S
O216 C215 1.264 . S
O217 Mg210 1.986 . S
O217 C221 1.246 . S
O218 Mg213 2.032 . S
O218 C221 1.259 . S
O219 Mg210 2.114 . S
O219 C222 1.252 . S
O220 Mg210 2.251 . S
O220 Mg213 2.079 . S
O220 C222 1.273 . S
C221 O217 1.246 . S
C221 O218 1.259 . S
C222 O219 1.252 . S
C222 O220 1.273 . S
O223 Mg210 2.010 . S
O223 C215 1.249 . S
Mg224 O225 2.028 . S
Mg224 O231 1.986 1_545 S
Mg224 O233 2.114 . S
Mg224 O234 2.251 1_545 S
Mg224 O237 2.010 . S
O225 Mg224 2.028 . S
O225 C228 1.250 . S
O226 Mg227 2.028 1_545 S
O226 C228 1.248 . S
Mg227 O226 2.028 1_565 S
Mg227 O232 2.032 . S
Mg227 O234 2.079 . S
C228 O225 1.250 . S
C228 O226 1.248 . S
C229 O230 1.264 . S
C229 O237 1.249 . S
O230 C229 1.264 . S
O231 Mg224 1.986 1_565 S
O231 C235 1.246 . S
O232 Mg227 2.032 . S
O232 C235 1.259 . S
O233 Mg224 2.114 . S
O233 C236 1.252 1_545 S
O234 Mg224 2.251 1_565 S
O234 Mg227 2.079 . S
O234 C236 1.273 . S
C235 O231 1.246 . S
C235 O232 1.259 . S
C236 O233 1.252 1_565 S
C236 O234 1.273 . S
O237 Mg224 2.010 . S
O237 C229 1.249 . S
Mg238 O239 2.028 . S
Mg238 O245 1.986 . S
Mg238 O247 2.114 . S
Mg238 O248 2.251 . S
Mg238 O251 2.010 . S
O239 Mg238 2.028 . S
O239 C242 1.250 . S
O240 Mg241 2.028 . S
O240 C242 1.248 . S
Mg241 O240 2.028 . S
Mg241 O246 2.032 . S
Mg241 O248 2.079 . S
C242 O239 1.250 . S
C242 O240 1.248 . S
C243 O244 1.264 . S
C243 O251 1.249 . S
O244 C243 1.264 . S
O245 Mg238 1.986 . S
O245 C249 1.246 . S
O246 Mg241 2.032 . S
O246 C249 1.259 . S
O247 Mg238 2.114 . S
O247 C250 1.252 . S
O248 Mg238 2.251 . S
O248 Mg241 2.079 . S
O248 C250 1.273 . S
C249 O245 1.246 . S
C249 O246 1.259 . S
C250 O247 1.252 . S
C250 O248 1.273 . S
O251 Mg238 2.010 . S
O251 C243 1.249 . S
Mg252 O253 2.028 . S
Mg252 O259 1.986 . S
Mg252 O261 2.114 . S
Mg252 O262 2.251 . S
Mg252 O265 2.010 . S
O253 Mg252 2.028 . S
O253 C256 1.250 . S
O254 Mg255 2.028 . S
O254 C256 1.248 . S
Mg255 O254 2.028 . S
Mg255 O260 2.032 . S
Mg255 O262 2.079 . S
C256 O253 1.250 . S
C256 O254 1.248 . S
C257 O258 1.264 . S
C257 O265 1.249 . S
O258 C257 1.264 . S
O259 Mg252 1.986 . S
O259 C263 1.246 . S
O260 Mg255 2.032 . S
O260 C263 1.259 . S
O261 Mg252 2.114 . S
O261 C264 1.252 . S
O262 Mg252 2.251 . S
O262 Mg255 2.079 . S
O262 C264 1.273 . S
C263 O259 1.246 . S
C263 O260 1.259 . S
C264 O261 1.252 . S
C264 O262 1.273 . S
O265 Mg252 2.010 . S
O265 C257 1.249 . S
Mg266 O267 2.028 . S
Mg266 O273 1.986 . S
Mg266 O275 2.114 1_545 S
Mg266 O276 2.251 1_545 S
Mg266 O279 2.010 . S
O267 Mg266 2.028 . S
O267 C270 1.250 . S
O268 Mg269 2.028 1_545 S
O268 C270 1.248 . S
Mg269 O268 2.028 1_565 S
Mg269 O274 2.032 . S
Mg269 O276 2.079 . S
C270 O267 1.250 . S
C270 O268 1.248 . S
C271 O272 1.264 . S
C271 O279 1.249 . S
O272 C271 1.264 . S
O273 Mg266 1.986 . S
O273 C277 1.246 1_545 S
O274 Mg269 2.032 . S
O274 C277 1.259 . S
O275 Mg266 2.114 1_565 S
O275 C278 1.252 . S
O276 Mg266 2.251 1_565 S
O276 Mg269 2.079 . S
O276 C278 1.273 . S
C277 O273 1.246 1_565 S
C277 O274 1.259 . S
C278 O275 1.252 . S
C278 O276 1.273 . S
O279 Mg266 2.010 . S
O279 C271 1.249 . S
Mg280 O281 2.026 1_556 S
Mg280 O287 1.986 . S
Mg280 O289 2.115 . S
Mg280 O290 2.255 . S
Mg280 O293 2.007 1_556 S
O281 Mg280 2.026 1_554 S
O281 C284 1.250 . S
O282 Mg283 2.028 . S
O282 C284 1.248 1_556 S
Mg283 O282 2.028 . S
Mg283 O288 2.032 . S
Mg283 O290 2.079 . S
C284 O281 1.250 . S
C284 O282 1.248 1_554 S
C285 O286 1.264 . S
C285 O293 1.249 . S
O286 C285 1.264 . S
O287 Mg280 1.986 . S
O287 C291 1.246 . S
O288 Mg283 2.032 . S
O288 C291 1.259 . S
O289 Mg280 2.115 . S
O289 C292 1.252 . S
O290 Mg280 2.255 . S
O290 Mg283 2.079 . S
O290 C292 1.273 . S
C291 O287 1.246 . S
C291 O288 1.259 . S
C292 O289 1.252 . S
C292 O290 1.273 . S
O293 Mg280 2.007 1_554 S
O293 C285 1.249 . S
Mg294 O295 2.028 . S
Mg294 O301 1.986 . S
Mg294 O303 2.114 . S
Mg294 O304 2.251 . S
Mg294 O307 2.010 . S
O295 Mg294 2.028 . S
O295 C298 1.250 . S
O296 Mg297 2.028 . S
O296 C298 1.248 . S
Mg297 O296 2.028 . S
Mg297 O302 2.032 . S
Mg297 O304 2.079 . S
C298 O295 1.250 . S
C298 O296 1.248 . S
C299 O300 1.264 . S
C299 O307 1.249 . S
O300 C299 1.264 . S
O301 Mg294 1.986 . S
O301 C305 1.246 . S
O302 Mg297 2.032 . S
O302 C305 1.259 . S
O303 Mg294 2.114 . S
O303 C306 1.252 . S
O304 Mg294 2.251 . S
O304 Mg297 2.079 . S
O304 C306 1.273 . S
C305 O301 1.246 . S
C305 O302 1.259 . S
C306 O303 1.252 . S
C306 O304 1.273 . S
O307 Mg294 2.010 . S
O307 C299 1.249 . S
Mg308 O309 2.028 . S
Mg308 O315 1.986 . S
Mg308 O317 2.114 . S
Mg308 O318 2.251 . S
Mg308 O321 2.010 . S
O309 Mg308 2.028 . S
O309 C312 1.250 . S
O310 Mg311 2.028 . S
O310 C312 1.248 . S
Mg311 O310 2.028 . S
Mg311 O316 2.032 . S
Mg311 O318 2.079 . S
C312 O309 1.250 . S
C312 O310 1.248 . S
C313 O314 1.264 . S
C313 O321 1.249 . S
O314 C313 1.264 . S
O315 Mg308 1.986 . S
O315 C319 1.246 . S
O316 Mg311 2.032 . S
O316 C319 1.259 . S
O317 Mg308 2.114 . S
O317 C320 1.252 . S
O318 Mg308 2.251 . S
O318 Mg311 2.079 . S
O318 C320 1.273 . S
C319 O315 1.246 . S
C319 O316 1.259 . S
C320 O317 1.252 . S
C320 O318 1.273 . S
O321 Mg308 2.010 . S
O321 C313 1.249 . S
Mg322 O323 2.028 . S
Mg322 O329 1.986 . S
Mg322 O331 2.114 . S
Mg322 O332 2.251 . S
Mg322 O335 2.010 . S
O323 Mg322 2.028 . S
O323 C326 1.250 . S
O324 Mg325 2.028 . S
O324 C326 1.248 . S
Mg325 O324 2.028 . S
Mg325 O330 2.032 . S
Mg325 O332 2.079 . S
C326 O323 1.250 . S
C326 O324 1.248 . S
C327 O328 1.264 . S
C327 O335 1.249 . S
O328 C327 1.264 . S
O329 Mg322 1.986 . S
O329 C333 1.246 . S
O330 Mg325 2.032 . S
O330 C333 1.259 . S
O331 Mg322 2.114 . S
O331 C334 1.252 . S
O332 Mg322 2.251 . S
O332 Mg325 2.079 . S
O332 C334 1.273 . S
C333 O329 1.246 . S
C333 O330 1.259 . S
C334 O331 1.252 . S
C334 O332 1.273 . S
O335 Mg322 2.010 . S
O335 C327 1.249 . S
H336 C348 0.930 . S
H337 C350 0.930 . S
H338 C351 0.930 . S
H339 C355 0.959 . S
H340 C355 0.959 . S
H341 C355 0.961 . S
H342 C356 0.960 . S
H343 C356 0.961 . S
H344 C356 0.959 . S
H345 C359 0.929 . S
H346 C360 0.931 . S
H347 C362 0.930 . S
C348 H336 0.930 . S
C348 C349 1.399 . S
C348 C353 1.399 . S
C349 C348 1.399 . S
C349 C350 1.376 . S
C350 H337 0.930 . S
C350 C349 1.376 . S
C350 C351 1.388 . S
C351 H338 0.930 . S
C351 C350 1.388 . S
C351 C352 1.390 . S
C352 C351 1.390 . S
C352 C353 1.394 . S
C352 C358 1.465 . S
C353 C348 1.399 . S
C353 C352 1.394 . S
C353 C354 1.516 . S
C354 C353 1.516 . S
C354 C355 1.502 . S
C354 C356 1.561 . S
C354 C357 1.526 . S
C355 H339 0.959 . S
C355 H340 0.959 . S
C355 H341 0.961 . S
C355 C354 1.502 . S
C356 H342 0.960 . S
C356 H343 0.961 . S
C356 H344 0.959 . S
C356 C354 1.561 . S
C357 C354 1.526 . S
C357 C358 1.396 . S
C357 C362 1.390 . S
C358 C352 1.465 . S
C358 C357 1.396 . S
C358 C359 1.399 . S
C359 H345 0.929 . S
C359 C358 1.399 . S
C359 C360 1.385 . S
C360 H346 0.931 . S
C360 C359 1.385 . S
C360 C361 1.389 . S
C361 C360 1.389 . S
C361 C362 1.387 . S
C362 H347 0.930 . S
C362 C357 1.390 . S
C362 C361 1.387 . S
H363 C375 0.930 . S
H364 C377 0.930 . S
H365 C378 0.930 . S
H366 C382 0.959 . S
H367 C382 0.959 . S
H368 C382 0.961 . S
H369 C383 0.960 . S
H370 C383 0.961 . S
H371 C383 0.959 . S
H372 C386 0.929 . S
H373 C387 0.931 . S
H374 C389 0.930 . S
C375 H363 0.930 . S
C375 C376 1.399 . S
C375 C380 1.399 . S
C376 C375 1.399 . S
C376 C377 1.376 . S
C377 H364 0.930 . S
C377 C376 1.376 . S
C377 C378 1.388 . S
C378 H365 0.930 . S
C378 C377 1.388 . S
C378 C379 1.390 . S
C379 C378 1.390 . S
C379 C380 1.394 . S
C379 C385 1.465 . S
C380 C375 1.399 . S
C380 C379 1.394 . S
C380 C381 1.516 . S
C381 C380 1.516 . S
C381 C382 1.502 . S
C381 C383 1.561 . S
C381 C384 1.526 . S
C382 H366 0.959 . S
C382 H367 0.959 . S
C382 H368 0.961 . S
C382 C381 1.502 . S
C383 H369 0.960 . S
C383 H370 0.961 . S
C383 H371 0.959 . S
C383 C381 1.561 . S
C384 C381 1.526 . S
C384 C385 1.396 . S
C384 C389 1.390 . S
C385 C379 1.465 . S
C385 C384 1.396 . S
C385 C386 1.399 . S
C386 H372 0.929 . S
C386 C385 1.399 . S
C386 C387 1.385 . S
C387 H373 0.931 . S
C387 C386 1.385 . S
C387 C388 1.389 . S
C388 C387 1.389 . S
C388 C389 1.387 . S
C389 H374 0.930 . S
C389 C384 1.390 . S
C389 C388 1.387 . S
H390 C402 0.930 . S
H391 C404 0.930 . S
H392 C405 0.930 . S
H393 C409 0.959 . S
H394 C409 0.959 . S
H395 C409 0.961 . S
H396 C410 0.960 . S
H397 C410 0.961 . S
H398 C410 0.959 . S
H399 C413 0.929 . S
H400 C414 0.931 . S
H401 C416 0.930 . S
C402 H390 0.930 . S
C402 C403 1.399 . S
C402 C407 1.399 . S
C403 C402 1.399 . S
C403 C404 1.376 . S
C404 H391 0.930 . S
C404 C403 1.376 . S
C404 C405 1.388 . S
C405 H392 0.930 . S
C405 C404 1.388 . S
C405 C406 1.390 . S
C406 C405 1.390 . S
C406 C407 1.394 . S
C406 C412 1.465 . S
C407 C402 1.399 . S
C407 C406 1.394 . S
C407 C408 1.516 . S
C408 C407 1.516 . S
C408 C409 1.502 . S
C408 C410 1.561 . S
C408 C411 1.526 . S
C409 H393 0.959 . S
C409 H394 0.959 . S
C409 H395 0.961 . S
C409 C408 1.502 . S
C410 H396 0.960 . S
C410 H397 0.961 . S
C410 H398 0.959 . S
C410 C408 1.561 . S
C411 C408 1.526 . S
C411 C412 1.396 . S
C411 C416 1.390 . S
C412 C406 1.465 . S
C412 C411 1.396 . S
C412 C413 1.399 . S
C413 H399 0.929 . S
C413 C412 1.399 . S
C413 C414 1.385 . S
C414 H400 0.931 . S
C414 C413 1.385 . S
C414 C415 1.389 . S
C415 C414 1.389 . S
C415 C416 1.387 . S
C416 H401 0.930 . S
C416 C411 1.390 . S
C416 C415 1.387 . S
H417 C429 0.930 . S
H418 C431 0.930 . S
H419 C432 0.930 . S
H420 C436 0.959 . S
H421 C436 0.959 . S
H422 C436 0.961 . S
H423 C437 0.960 . S
H424 C437 0.961 . S
H425 C437 0.959 . S
H426 C440 0.929 . S
H427 C441 0.931 . S
H428 C443 0.930 . S
C429 H417 0.930 . S
C429 C430 1.399 . S
C429 C434 1.399 . S
C430 C429 1.399 . S
C430 C431 1.376 . S
C431 H418 0.930 . S
C431 C430 1.376 . S
C431 C432 1.388 . S
C432 H419 0.930 . S
C432 C431 1.388 . S
C432 C433 1.390 . S
C433 C432 1.390 . S
C433 C434 1.394 . S
C433 C439 1.465 . S
C434 C429 1.399 . S
C434 C433 1.394 . S
C434 C435 1.516 . S
C435 C434 1.516 . S
C435 C436 1.502 . S
C435 C437 1.561 . S
C435 C438 1.526 . S
C436 H420 0.959 . S
C436 H421 0.959 . S
C436 H422 0.961 . S
C436 C435 1.502 . S
C437 H423 0.960 . S
C437 H424 0.961 . S
C437 H425 0.959 . S
C437 C435 1.561 . S
C438 C435 1.526 . S
C438 C439 1.396 . S
C438 C443 1.390 . S
C439 C433 1.465 . S
C439 C438 1.396 . S
C439 C440 1.399 . S
C440 H426 0.929 . S
C440 C439 1.399 . S
C440 C441 1.385 . S
C441 H427 0.931 . S
C441 C440 1.385 . S
C441 C442 1.389 . S
C442 C441 1.389 . S
C442 C443 1.387 . S
C443 H428 0.930 . S
C443 C438 1.390 . S
C443 C442 1.387 . S
H444 C456 0.930 . S
H445 C458 0.930 . S
H446 C459 0.930 . S
H447 C463 0.965 . S
H448 C463 0.933 1_655 S
H449 C463 0.957 1_655 S
H450 C464 0.960 . S
H451 C464 0.961 . S
H452 C464 0.959 . S
H453 C467 0.929 . S
H454 C468 0.931 . S
H455 C470 0.930 . S
C456 H444 0.930 . S
C456 C457 1.399 . S
C456 C461 1.399 . S
C457 C456 1.399 . S
C457 C458 1.376 . S
C458 H445 0.930 . S
C458 C457 1.376 . S
C458 C459 1.388 . S
C459 H446 0.930 . S
C459 C458 1.388 . S
C459 C460 1.390 . S
C460 C459 1.390 . S
C460 C461 1.394 . S
C460 C466 1.465 . S
C461 C456 1.399 . S
C461 C460 1.394 . S
C461 C462 1.516 . S
C462 C461 1.516 . S
C462 C463 1.529 . S
C462 C464 1.561 . S
C462 C465 1.526 . S
C463 H447 0.965 . S
C463 H448 0.933 1_455 S
C463 H449 0.957 1_455 S
C463 C462 1.529 . S
C464 H450 0.960 . S
C464 H451 0.961 . S
C464 H452 0.959 . S
C464 C462 1.561 . S
C465 C462 1.526 . S
C465 C466 1.396 . S
C465 C470 1.390 . S
C466 C460 1.465 . S
C466 C465 1.396 . S
C466 C467 1.399 . S
C467 H453 0.929 . S
C467 C466 1.399 . S
C467 C468 1.385 . S
C468 H454 0.931 . S
C468 C467 1.385 . S
C468 C469 1.389 . S
C469 C468 1.389 . S
C469 C470 1.387 . S
C470 H455 0.930 . S
C470 C465 1.390 . S
C470 C469 1.387 . S
H471 C483 0.930 . S
H472 C485 0.930 . S
H473 C486 0.930 . S
H474 C490 0.959 . S
H475 C490 0.959 . S
H476 C490 0.961 . S
H477 C491 0.960 . S
H478 C491 0.961 . S
H479 C491 0.959 . S
H480 C494 0.929 . S
H481 C495 0.931 . S
H482 C497 0.930 . S
C483 H471 0.930 . S
C483 C484 1.399 . S
C483 C488 1.399 . S
C484 C483 1.399 . S
C484 C485 1.376 . S
C485 H472 0.930 . S
C485 C484 1.376 . S
C485 C486 1.388 . S
C486 H473 0.930 . S
C486 C485 1.388 . S
C486 C487 1.390 . S
C487 C486 1.390 . S
C487 C488 1.394 . S
C487 C493 1.465 . S
C488 C483 1.399 . S
C488 C487 1.394 . S
C488 C489 1.516 . S
C489 C488 1.516 . S
C489 C490 1.502 . S
C489 C491 1.561 . S
C489 C492 1.526 . S
C490 H474 0.959 . S
C490 H475 0.959 . S
C490 H476 0.961 . S
C490 C489 1.502 . S
C491 H477 0.960 . S
C491 H478 0.961 . S
C491 H479 0.959 . S
C491 C489 1.561 . S
C492 C489 1.526 . S
C492 C493 1.396 . S
C492 C497 1.390 . S
C493 C487 1.465 . S
C493 C492 1.396 . S
C493 C494 1.399 . S
C494 H480 0.929 . S
C494 C493 1.399 . S
C494 C495 1.385 . S
C495 H481 0.931 . S
C495 C494 1.385 . S
C495 C496 1.389 . S
C496 C495 1.389 . S
C496 C497 1.387 . S
C497 H482 0.930 . S
C497 C492 1.390 . S
C497 C496 1.387 . S
H498 C510 0.930 . S
H499 C512 0.930 . S
H500 C513 0.930 . S
H501 C517 0.959 . S
H502 C517 0.959 . S
H503 C517 0.961 . S
H504 C518 0.960 . S
H505 C518 0.961 . S
H506 C518 0.959 . S
H507 C521 0.929 . S
H508 C522 0.931 . S
H509 C524 0.930 . S
C510 H498 0.930 . S
C510 C511 1.399 . S
C510 C515 1.399 . S
C511 C510 1.399 . S
C511 C512 1.376 . S
C512 H499 0.930 . S
C512 C511 1.376 . S
C512 C513 1.388 . S
C513 H500 0.930 . S
C513 C512 1.388 . S
C513 C514 1.390 . S
C514 C513 1.390 . S
C514 C515 1.394 . S
C514 C520 1.465 . S
C515 C510 1.399 . S
C515 C514 1.394 . S
C515 C516 1.516 . S
C516 C515 1.516 . S
C516 C517 1.502 . S
C516 C518 1.561 . S
C516 C519 1.526 . S
C517 H501 0.959 . S
C517 H502 0.959 . S
C517 H503 0.961 . S
C517 C516 1.502 . S
C518 H504 0.960 . S
C518 H505 0.961 . S
C518 H506 0.959 . S
C518 C516 1.561 . S
C519 C516 1.526 . S
C519 C520 1.396 . S
C519 C524 1.390 . S
C520 C514 1.465 . S
C520 C519 1.396 . S
C520 C521 1.399 . S
C521 H507 0.929 . S
C521 C520 1.399 . S
C521 C522 1.385 . S
C522 H508 0.931 . S
C522 C521 1.385 . S
C522 C523 1.389 . S
C523 C522 1.389 . S
C523 C524 1.387 . S
C524 H509 0.930 . S
C524 C519 1.390 . S
C524 C523 1.387 . S
H525 C537 0.930 . S
H526 C539 0.930 . S
H527 C540 0.930 . S
H528 C544 0.959 . S
H529 C544 0.959 . S
H530 C544 0.961 . S
H531 C545 0.960 . S
H532 C545 0.961 . S
H533 C545 0.959 . S
H534 C548 0.929 . S
H535 C549 0.931 1_554 S
H536 C551 0.930 . S
C537 H525 0.930 . S
C537 C538 1.399 . S
C537 C542 1.399 . S
C538 C537 1.399 . S
C538 C539 1.376 . S
C539 H526 0.930 . S
C539 C538 1.376 . S
C539 C540 1.388 . S
C540 H527 0.930 . S
C540 C539 1.388 . S
C540 C541 1.390 . S
C541 C540 1.390 . S
C541 C542 1.394 . S
C541 C547 1.465 . S
C542 C537 1.399 . S
C542 C541 1.394 . S
C542 C543 1.516 . S
C543 C542 1.516 . S
C543 C544 1.502 . S
C543 C545 1.561 . S
C543 C546 1.526 . S
C544 H528 0.959 . S
C544 H529 0.959 . S
C544 H530 0.961 . S
C544 C543 1.502 . S
C545 H531 0.960 . S
C545 H532 0.961 . S
C545 H533 0.959 . S
C545 C543 1.561 . S
C546 C543 1.526 . S
C546 C547 1.396 . S
C546 C551 1.390 . S
C547 C541 1.465 . S
C547 C546 1.396 . S
C547 C548 1.399 . S
C548 H534 0.929 . S
C548 C547 1.399 . S
C548 C549 1.385 . S
C549 H535 0.931 1_556 S
C549 C548 1.385 . S
C549 C550 1.389 . S
C550 C549 1.389 . S
C550 C551 1.387 . S
C551 H536 0.930 . S
C551 C546 1.390 . S
C551 C550 1.387 . S
H552 C564 0.930 . S
H553 C566 0.930 . S
H554 C567 0.930 . S
H555 C571 0.959 . S
H556 C571 0.959 . S
H557 C571 0.961 . S
H558 C572 0.966 . S
H559 C572 0.980 . S
H560 C572 0.955 1_545 S
H561 C575 0.929 . S
H562 C576 0.931 . S
H563 C578 0.930 . S
C564 H552 0.930 . S
C564 C565 1.399 . S
C564 C569 1.399 . S
C565 C564 1.399 . S
C565 C566 1.376 . S
C566 H553 0.930 . S
C566 C565 1.376 . S
C566 C567 1.388 . S
C567 H554 0.930 . S
C567 C566 1.388 . S
C567 C568 1.390 . S
C568 C567 1.390 . S
C568 C569 1.394 . S
C568 C574 1.465 . S
C569 C564 1.399 . S
C569 C568 1.394 . S
C569 C570 1.516 . S
C570 C569 1.516 . S
C570 C571 1.502 . S
C570 C572 1.541 1_545 S
C570 C573 1.526 . S
C571 H555 0.959 . S
C571 H556 0.959 . S
C571 H557 0.961 . S
C571 C570 1.502 . S
C572 H558 0.966 . S
C572 H559 0.980 . S
C572 H560 0.955 1_565 S
C572 C570 1.541 1_565 S
C573 C570 1.526 . S
C573 C574 1.396 . S
C573 C578 1.390 . S
C574 C568 1.465 . S
C574 C573 1.396 . S
C574 C575 1.399 . S
C575 H561 0.929 . S
C575 C574 1.399 . S
C575 C576 1.385 . S
C576 H562 0.931 . S
C576 C575 1.385 . S
C576 C577 1.389 . S
C577 C576 1.389 . S
C577 C578 1.387 . S
C578 H563 0.930 . S
C578 C573 1.390 . S
C578 C577 1.387 . S
H579 C591 0.930 . S
H580 C593 0.930 . S
H581 C594 0.930 . S
H582 C598 0.959 1_565 S
H583 C598 0.959 . S
H584 C598 0.961 1_565 S
H585 C599 0.960 . S
H586 C599 0.961 . S
H587 C599 0.959 . S
H588 C602 0.929 . S
H589 C603 0.931 . S
H590 C605 0.930 . S
C591 H579 0.930 . S
C591 C592 1.399 . S
C591 C596 1.399 . S
C592 C591 1.399 . S
C592 C593 1.376 . S
C593 H580 0.930 . S
C593 C592 1.376 . S
C593 C594 1.388 . S
C594 H581 0.930 . S
C594 C593 1.388 . S
C594 C595 1.390 . S
C595 C594 1.390 . S
C595 C596 1.394 . S
C595 C601 1.465 . S
C596 C591 1.399 . S
C596 C595 1.394 . S
C596 C597 1.516 . S
C597 C596 1.516 . S
C597 C598 1.502 . S
C597 C599 1.561 . S
C597 C600 1.526 . S
C598 H582 0.959 1_545 S
C598 H583 0.959 . S
C598 H584 0.961 1_545 S
C598 C597 1.502 . S
C599 H585 0.960 . S
C599 H586 0.961 . S
C599 H587 0.959 . S
C599 C597 1.561 . S
C600 C597 1.526 . S
C600 C601 1.396 . S
C600 C605 1.390 . S
C601 C595 1.465 . S
C601 C600 1.396 . S
C601 C602 1.399 . S
C602 H588 0.929 . S
C602 C601 1.399 . S
C602 C603 1.385 . S
C603 H589 0.931 . S
C603 C602 1.385 . S
C603 C604 1.389 . S
C604 C603 1.389 . S
C604 C605 1.387 . S
C605 H590 0.930 . S
C605 C600 1.390 . S
C605 C604 1.387 . S
H606 C618 0.930 1_545 S
H607 C620 0.930 . S
H608 C621 0.930 . S
H609 C625 0.959 . S
H610 C625 0.959 1_545 S
H611 C625 0.961 1_545 S
H612 C626 0.960 1_545 S
H613 C626 0.961 1_545 S
H614 C626 0.959 . S
H615 C629 0.929 . S
H616 C630 0.931 . S
H617 C632 0.930 . S
C618 H606 0.930 1_565 S
C618 C619 1.399 . S
C618 C623 1.399 . S
C619 C618 1.399 . S
C619 C620 1.376 . S
C620 H607 0.930 . S
C620 C619 1.376 . S
C620 C621 1.388 . S
C621 H608 0.930 . S
C621 C620 1.388 . S
C621 C622 1.390 . S
C622 C621 1.390 . S
C622 C623 1.394 . S
C622 C628 1.465 . S
C623 C618 1.399 . S
C623 C622 1.394 . S
C623 C624 1.516 . S
C624 C623 1.516 . S
C624 C625 1.502 . S
C624 C626 1.561 . S
C624 C627 1.526 . S
C625 H609 0.959 . S
C625 H610 0.959 1_565 S
C625 H611 0.961 1_565 S
C625 C624 1.502 . S
C626 H612 0.960 1_565 S
C626 H613 0.961 1_565 S
C626 H614 0.959 . S
C626 C624 1.561 . S
C627 C624 1.526 . S
C627 C628 1.396 . S
C627 C632 1.390 . S
C628 C622 1.465 . S
C628 C627 1.396 . S
C628 C629 1.399 . S
C629 H615 0.929 . S
C629 C628 1.399 . S
C629 C630 1.385 . S
C630 H616 0.931 . S
C630 C629 1.385 . S
C630 C631 1.389 . S
C631 C630 1.389 . S
C631 C632 1.387 . S
C632 H617 0.930 . S
C632 C627 1.390 . S
C632 C631 1.387 . S
H633 C645 0.930 . S
H634 C647 0.930 . S
H635 C648 0.930 . S
H636 C652 0.959 . S
H637 C652 0.959 . S
H638 C652 0.961 . S
H639 C653 0.960 . S
H640 C653 0.961 1_545 S
H641 C653 0.960 . S
H642 C656 0.929 . S
H643 C657 0.931 . S
H644 C659 0.930 . S
C645 H633 0.930 . S
C645 C646 1.399 . S
C645 C650 1.399 . S
C646 C645 1.399 . S
C646 C647 1.376 . S
C647 H634 0.930 . S
C647 C646 1.376 . S
C647 C648 1.388 . S
C648 H635 0.930 . S
C648 C647 1.388 . S
C648 C649 1.390 . S
C649 C648 1.390 . S
C649 C650 1.394 . S
C649 C655 1.465 . S
C650 C645 1.399 . S
C650 C649 1.394 . S
C650 C651 1.516 . S
C651 C650 1.516 . S
C651 C652 1.502 . S
C651 C653 1.561 . S
C651 C654 1.526 . S
C652 H636 0.959 . S
C652 H637 0.959 . S
C652 H638 0.961 . S
C652 C651 1.502 . S
C653 H639 0.960 . S
C653 H640 0.961 1_565 S
C653 H641 0.960 . S
C653 C651 1.561 . S
C654 C651 1.526 . S
C654 C655 1.396 . S
C654 C659 1.390 . S
C655 C649 1.465 . S
C655 C654 1.396 . S
C655 C656 1.399 . S
C656 H642 0.929 . S
C656 C655 1.399 . S
C656 C657 1.385 . S
C657 H643 0.931 . S
C657 C656 1.385 . S
C657 C658 1.389 . S
C658 C657 1.389 . S
C658 C659 1.387 . S
C659 H644 0.930 . S
C659 C654 1.390 . S
C659 C658 1.387 . S
H660 C672 0.930 . S
H661 C674 0.930 . S
H662 C675 0.930 . S
H663 C679 0.959 . S
H664 C679 0.959 . S
H665 C679 0.961 . S
H666 C680 0.960 . S
H667 C680 0.961 . S
H668 C680 0.959 . S
H669 C683 0.929 . S
H670 C684 0.931 . S
H671 C686 0.930 . S
C672 H660 0.930 . S
C672 C673 1.399 . S
C672 C677 1.399 . S
C673 C672 1.399 . S
C673 C674 1.376 . S
C674 H661 0.930 . S
C674 C673 1.376 . S
C674 C675 1.388 . S
C675 H662 0.930 . S
C675 C674 1.388 . S
C675 C676 1.390 . S
C676 C675 1.390 . S
C676 C677 1.394 . S
C676 C682 1.465 . S
C677 C672 1.399 . S
C677 C676 1.394 . S
C677 C678 1.516 . S
C678 C677 1.516 . S
C678 C679 1.502 . S
C678 C680 1.561 . S
C678 C681 1.526 . S
C679 H663 0.959 . S
C679 H664 0.959 . S
C679 H665 0.961 . S
C679 C678 1.502 . S
C680 H666 0.960 . S
C680 H667 0.961 . S
C680 H668 0.959 . S
C680 C678 1.561 . S
C681 C678 1.526 . S
C681 C682 1.396 . S
C681 C686 1.390 . S
C682 C676 1.465 . S
C682 C681 1.396 . S
C682 C683 1.399 . S
C683 H669 0.929 . S
C683 C682 1.399 . S
C683 C684 1.385 . S
C684 H670 0.931 . S
C684 C683 1.385 . S
C684 C685 1.389 . S
C685 C684 1.389 . S
C685 C686 1.387 . S
C686 H671 0.930 . S
C686 C681 1.390 . S
C686 C685 1.387 . S
H687 C699 0.930 . S
H688 C701 0.930 1_455 S
H689 C702 0.930 1_455 S
H690 C706 0.959 . S
H691 C706 0.959 . S
H692 C706 0.961 . S
H693 C707 0.960 . S
H694 C707 0.961 . S
H695 C707 0.959 . S
H696 C710 0.929 . S
H697 C711 0.931 . S
H698 C713 0.930 . S
C699 H687 0.930 . S
C699 C700 1.399 . S
C699 C704 1.399 . S
C700 C699 1.399 . S
C700 C701 1.376 . S
C701 H688 0.930 1_655 S
C701 C700 1.376 . S
C701 C702 1.388 . S
C702 H689 0.930 1_655 S
C702 C701 1.388 . S
C702 C703 1.390 . S
C703 C702 1.390 . S
C703 C704 1.394 . S
C703 C709 1.465 . S
C704 C699 1.399 . S
C704 C703 1.394 . S
C704 C705 1.516 . S
C705 C704 1.516 . S
C705 C706 1.502 . S
C705 C707 1.561 . S
C705 C708 1.526 . S
C706 H690 0.959 . S
C706 H691 0.959 . S
C706 H692 0.961 . S
C706 C705 1.502 . S
C707 H693 0.960 . S
C707 H694 0.961 . S
C707 H695 0.959 . S
C707 C705 1.561 . S
C708 C705 1.526 . S
C708 C709 1.396 . S
C708 C713 1.390 . S
C709 C703 1.465 . S
C709 C708 1.396 . S
C709 C710 1.399 . S
C710 H696 0.929 . S
C710 C709 1.399 . S
C710 C711 1.385 . S
C711 H697 0.931 . S
C711 C710 1.385 . S
C711 C712 1.389 . S
C712 C711 1.389 . S
C712 C713 1.387 . S
C713 H698 0.930 . S
C713 C708 1.390 . S
C713 C712 1.387 . S
H714 C726 0.930 . S
H715 C728 0.930 . S
H716 C729 0.930 . S
H717 C733 0.959 . S
H718 C733 0.959 . S
H719 C733 0.961 . S
H720 C734 0.960 . S
H721 C734 0.961 . S
H722 C734 0.959 . S
H723 C737 0.929 . S
H724 C738 0.931 . S
H725 C740 0.930 . S
C726 H714 0.930 . S
C726 C727 1.399 . S
C726 C731 1.399 . S
C727 C726 1.399 . S
C727 C728 1.376 . S
C728 H715 0.930 . S
C728 C727 1.376 . S
C728 C729 1.388 . S
C729 H716 0.930 . S
C729 C728 1.388 . S
C729 C730 1.390 . S
C730 C729 1.390 . S
C730 C731 1.394 . S
C730 C736 1.465 . S
C731 C726 1.399 . S
C731 C730 1.394 . S
C731 C732 1.516 . S
C732 C731 1.516 . S
C732 C733 1.502 . S
C732 C734 1.561 . S
C732 C735 1.526 . S
C733 H717 0.959 . S
C733 H718 0.959 . S
C733 H719 0.961 . S
C733 C732 1.502 . S
C734 H720 0.960 . S
C734 H721 0.961 . S
C734 H722 0.959 . S
C734 C732 1.561 . S
C735 C732 1.526 . S
C735 C736 1.396 . S
C735 C740 1.390 . S
C736 C730 1.465 . S
C736 C735 1.396 . S
C736 C737 1.399 . S
C737 H723 0.929 . S
C737 C736 1.399 . S
C737 C738 1.385 . S
C738 H724 0.931 . S
C738 C737 1.385 . S
C738 C739 1.389 . S
C739 C738 1.389 . S
C739 C740 1.387 . S
C740 H725 0.930 . S
C740 C735 1.390 . S
C740 C739 1.387 . S
H741 C753 0.930 . S
H742 C755 0.930 . S
H743 C756 0.930 . S
H744 C760 0.959 . S
H745 C760 0.959 . S
H746 C760 0.961 . S
H747 C761 0.960 . S
H748 C761 0.961 . S
H749 C761 0.959 . S
H750 C764 0.929 . S
H751 C765 0.931 . S
H752 C767 0.930 . S
C753 H741 0.930 . S
C753 C754 1.399 . S
C753 C758 1.399 . S
C754 C753 1.399 . S
C754 C755 1.376 . S
C755 H742 0.930 . S
C755 C754 1.376 . S
C755 C756 1.388 . S
C756 H743 0.930 . S
C756 C755 1.388 . S
C756 C757 1.390 . S
C757 C756 1.390 . S
C757 C758 1.394 . S
C757 C763 1.465 . S
C758 C753 1.399 . S
C758 C757 1.394 . S
C758 C759 1.516 . S
C759 C758 1.516 . S
C759 C760 1.502 1_655 S
C759 C761 1.561 . S
C759 C762 1.526 . S
C760 H744 0.959 . S
C760 H745 0.959 . S
C760 H746 0.961 . S
C760 C759 1.502 1_455 S
C761 H747 0.960 . S
C761 H748 0.961 . S
C761 H749 0.959 . S
C761 C759 1.561 . S
C762 C759 1.526 . S
C762 C763 1.396 . S
C762 C767 1.390 . S
C763 C757 1.465 . S
C763 C762 1.396 . S
C763 C764 1.399 . S
C764 H750 0.929 . S
C764 C763 1.399 . S
C764 C765 1.385 . S
C765 H751 0.931 . S
C765 C764 1.385 . S
C765 C766 1.389 . S
C766 C765 1.389 . S
C766 C767 1.387 . S
C767 H752 0.930 . S
C767 C762 1.390 . S
C767 C766 1.387 . S
H768 C780 0.930 . S
H769 C782 0.930 . S
H770 C783 0.930 . S
H771 C787 0.959 . S
H772 C787 0.959 . S
H773 C787 0.961 . S
H774 C788 0.960 . S
H775 C788 0.961 . S
H776 C788 0.959 . S
H777 C791 0.929 . S
H778 C792 0.931 . S
H779 C794 0.930 . S
C780 H768 0.930 . S
C780 C781 1.399 . S
C780 C785 1.399 . S
C781 C780 1.399 . S
C781 C782 1.376 . S
C782 H769 0.930 . S
C782 C781 1.376 . S
C782 C783 1.388 . S
C783 H770 0.930 . S
C783 C782 1.388 . S
C783 C784 1.390 . S
C784 C783 1.390 . S
C784 C785 1.394 . S
C784 C790 1.465 . S
C785 C780 1.399 . S
C785 C784 1.394 . S
C785 C786 1.516 . S
C786 C785 1.516 . S
C786 C787 1.502 . S
C786 C788 1.561 . S
C786 C789 1.526 . S
C787 H771 0.959 . S
C787 H772 0.959 . S
C787 H773 0.961 . S
C787 C786 1.502 . S
C788 H774 0.960 . S
C788 H775 0.961 . S
C788 H776 0.959 . S
C788 C786 1.561 . S
C789 C786 1.526 . S
C789 C790 1.396 . S
C789 C794 1.390 . S
C790 C784 1.465 . S
C790 C789 1.396 . S
C790 C791 1.399 . S
C791 H777 0.929 . S
C791 C790 1.399 . S
C791 C792 1.385 . S
C792 H778 0.931 . S
C792 C791 1.385 . S
C792 C793 1.389 . S
C793 C792 1.389 . S
C793 C794 1.387 . S
C794 H779 0.930 . S
C794 C789 1.390 . S
C794 C793 1.387 . S
H795 C807 0.930 . S
H796 C809 0.930 . S
H797 C810 0.930 . S
H798 C814 0.959 . S
H799 C814 0.959 . S
H800 C814 0.961 . S
H801 C815 0.960 . S
H802 C815 0.961 . S
H803 C815 0.959 . S
H804 C818 0.929 . S
H805 C819 0.931 . S
H806 C821 0.930 . S
C807 H795 0.930 . S
C807 C808 1.399 . S
C807 C812 1.399 . S
C808 C807 1.399 . S
C808 C809 1.376 . S
C809 H796 0.930 . S
C809 C808 1.376 . S
C809 C810 1.388 . S
C810 H797 0.930 . S
C810 C809 1.388 . S
C810 C811 1.390 . S
C811 C810 1.390 . S
C811 C812 1.394 . S
C811 C817 1.465 . S
C812 C807 1.399 . S
C812 C811 1.394 . S
C812 C813 1.516 . S
C813 C812 1.516 . S
C813 C814 1.502 . S
C813 C815 1.561 . S
C813 C816 1.526 . S
C814 H798 0.959 . S
C814 H799 0.959 . S
C814 H800 0.961 . S
C814 C813 1.502 . S
C815 H801 0.960 . S
C815 H802 0.961 . S
C815 H803 0.959 . S
C815 C813 1.561 . S
C816 C813 1.526 . S
C816 C817 1.396 . S
C816 C821 1.390 . S
C817 C811 1.465 . S
C817 C816 1.396 . S
C817 C818 1.399 . S
C818 H804 0.929 . S
C818 C817 1.399 . S
C818 C819 1.385 . S
C819 H805 0.931 . S
C819 C818 1.385 . S
C819 C820 1.389 . S
C820 C819 1.389 . S
C820 C821 1.387 . S
C821 H806 0.930 . S
C821 C816 1.390 . S
C821 C820 1.387 . S
H822 C834 0.930 . S
H823 C836 0.930 . S
H824 C837 0.931 1_554 S
H825 C841 0.959 . S
H826 C841 0.959 . S
H827 C841 0.961 . S
H828 C842 0.960 . S
H829 C842 0.961 . S
H830 C842 0.959 . S
H831 C845 0.929 . S
H832 C846 0.931 . S
H833 C848 0.930 . S
C834 H822 0.930 . S
C834 C835 1.399 . S
C834 C839 1.399 . S
C835 C834 1.399 . S
C835 C836 1.376 1_556 S
C836 H823 0.930 . S
C836 C835 1.376 1_554 S
C836 C837 1.389 1_554 S
C837 H824 0.931 1_556 S
C837 C836 1.389 1_556 S
C837 C838 1.389 . S
C838 C837 1.389 . S
C838 C839 1.394 . S
C838 C844 1.465 . S
C839 C834 1.399 . S
C839 C838 1.394 . S
C839 C840 1.516 . S
C840 C839 1.516 . S
C840 C841 1.502 . S
C840 C842 1.561 . S
C840 C843 1.526 . S
C841 H825 0.959 . S
C841 H826 0.959 . S
C841 H827 0.961 . S
C841 C840 1.502 . S
C842 H828 0.960 . S
C842 H829 0.961 . S
C842 H830 0.959 . S
C842 C840 1.561 . S
C843 C840 1.526 . S
C843 C844 1.396 . S
C843 C848 1.390 . S
C844 C838 1.465 . S
C844 C843 1.396 . S
C844 C845 1.399 . S
C845 H831 0.929 . S
C845 C844 1.399 . S
C845 C846 1.385 . S
C846 H832 0.931 . S
C846 C845 1.385 . S
C846 C847 1.389 . S
C847 C846 1.389 . S
C847 C848 1.387 . S
C848 H833 0.930 . S
C848 C843 1.390 . S
C848 C847 1.387 . S
H849 C861 0.930 . S
H850 C863 0.930 . S
H851 C864 0.930 . S
H852 C868 0.959 . S
H853 C868 0.959 . S
H854 C868 0.961 . S
H855 C869 0.960 . S
H856 C869 0.961 . S
H857 C869 0.959 . S
H858 C872 0.929 . S
H859 C873 0.931 1_455 S
H860 C875 0.930 . S
C861 H849 0.930 . S
C861 C862 1.399 . S
C861 C866 1.399 . S
C862 C861 1.399 . S
C862 C863 1.376 . S
C863 H850 0.930 . S
C863 C862 1.376 . S
C863 C864 1.388 . S
C864 H851 0.930 . S
C864 C863 1.388 . S
C864 C865 1.390 . S
C865 C864 1.390 . S
C865 C866 1.394 . S
C865 C871 1.465 . S
C866 C861 1.399 . S
C866 C865 1.394 . S
C866 C867 1.516 . S
C867 C866 1.516 . S
C867 C868 1.502 . S
C867 C869 1.561 . S
C867 C870 1.526 . S
C868 H852 0.959 . S
C868 H853 0.959 . S
C868 H854 0.961 . S
C868 C867 1.502 . S
C869 H855 0.960 . S
C869 H856 0.961 . S
C869 H857 0.959 . S
C869 C867 1.561 . S
C870 C867 1.526 . S
C870 C871 1.396 . S
C870 C875 1.390 . S
C871 C865 1.465 . S
C871 C870 1.396 . S
C871 C872 1.399 . S
C872 H858 0.929 . S
C872 C871 1.399 . S
C872 C873 1.385 . S
C873 H859 0.931 1_655 S
C873 C872 1.385 . S
C873 C874 1.389 . S
C874 C873 1.389 . S
C874 C875 1.387 . S
C875 H860 0.930 . S
C875 C870 1.390 . S
C875 C874 1.387 . S
H876 C888 0.930 . S
H877 C890 0.930 . S
H878 C891 0.930 . S
H879 C895 0.959 . S
H880 C895 0.959 . S
H881 C895 0.961 . S
H882 C896 0.960 . S
H883 C896 0.961 . S
H884 C896 0.959 . S
H885 C899 0.929 . S
H886 C900 0.931 . S
H887 C902 0.930 . S
C888 H876 0.930 . S
C888 C889 1.399 . S
C888 C893 1.399 . S
C889 C888 1.399 . S
C889 C890 1.376 . S
C890 H877 0.930 . S
C890 C889 1.376 . S
C890 C891 1.388 . S
C891 H878 0.930 . S
C891 C890 1.388 . S
C891 C892 1.390 . S
C892 C891 1.390 . S
C892 C893 1.394 . S
C892 C898 1.465 . S
C893 C888 1.399 . S
C893 C892 1.394 . S
C893 C894 1.516 . S
C894 C893 1.516 . S
C894 C895 1.502 . S
C894 C896 1.561 . S
C894 C897 1.526 . S
C895 H879 0.959 . S
C895 H880 0.959 . S
C895 H881 0.961 . S
C895 C894 1.502 . S
C896 H882 0.960 . S
C896 H883 0.961 . S
C896 H884 0.959 . S
C896 C894 1.561 . S
C897 C894 1.526 . S
C897 C898 1.396 . S
C897 C902 1.390 . S
C898 C892 1.465 . S
C898 C897 1.396 . S
C898 C899 1.399 . S
C899 H885 0.929 . S
C899 C898 1.399 . S
C899 C900 1.385 . S
C900 H886 0.931 . S
C900 C899 1.385 . S
C900 C901 1.389 . S
C901 C900 1.389 . S
C901 C902 1.387 . S
C902 H887 0.930 . S
C902 C897 1.390 . S
C902 C901 1.387 . S
H903 C915 0.930 . S
H904 C917 0.930 . S
H905 C918 0.930 . S
H906 C922 0.959 . S
H907 C922 0.959 . S
H908 C922 0.961 . S
H909 C923 0.960 . S
H910 C923 0.961 . S
H911 C923 0.959 . S
H912 C926 0.929 . S
H913 C927 0.931 . S
H914 C929 0.930 . S
C915 H903 0.930 . S
C915 C916 1.399 . S
C915 C920 1.399 . S
C916 C915 1.399 . S
C916 C917 1.376 . S
C917 H904 0.930 . S
C917 C916 1.376 . S
C917 C918 1.388 . S
C918 H905 0.930 . S
C918 C917 1.388 . S
C918 C919 1.390 . S
C919 C918 1.390 . S
C919 C920 1.394 . S
C919 C925 1.465 . S
C920 C915 1.399 . S
C920 C919 1.394 . S
C920 C921 1.516 . S
C921 C920 1.516 . S
C921 C922 1.502 . S
C921 C923 1.561 . S
C921 C924 1.526 . S
C922 H906 0.959 . S
C922 H907 0.959 . S
C922 H908 0.961 . S
C922 C921 1.502 . S
C923 H909 0.960 . S
C923 H910 0.961 . S
C923 H911 0.959 . S
C923 C921 1.561 . S
C924 C921 1.526 . S
C924 C925 1.396 . S
C924 C929 1.390 . S
C925 C919 1.465 . S
C925 C924 1.396 . S
C925 C926 1.399 . S
C926 H912 0.929 . S
C926 C925 1.399 . S
C926 C927 1.385 . S
C927 H913 0.931 . S
C927 C926 1.385 . S
C927 C928 1.389 . S
C928 C927 1.389 . S
C928 C929 1.387 . S
C929 H914 0.930 . S
C929 C924 1.390 . S
C929 C928 1.387 . S
H930 C942 0.930 . S
H931 C944 0.930 . S
H932 C945 0.930 . S
H933 C949 0.959 . S
H934 C949 0.959 . S
H935 C949 0.961 . S
H936 C950 0.960 . S
H937 C950 0.961 . S
H938 C950 0.959 . S
H939 C953 0.929 . S
H940 C954 0.931 . S
H941 C956 0.930 . S
C942 H930 0.930 . S
C942 C943 1.399 . S
C942 C947 1.399 . S
C943 C942 1.399 . S
C943 C944 1.376 . S
C944 H931 0.930 . S
C944 C943 1.376 . S
C944 C945 1.388 . S
C945 H932 0.930 . S
C945 C944 1.388 . S
C945 C946 1.390 . S
C946 C945 1.390 . S
C946 C947 1.394 . S
C946 C952 1.465 . S
C947 C942 1.399 . S
C947 C946 1.394 . S
C947 C948 1.516 . S
C948 C947 1.516 . S
C948 C949 1.502 . S
C948 C950 1.561 . S
C948 C951 1.526 . S
C949 H933 0.959 . S
C949 H934 0.959 . S
C949 H935 0.961 . S
C949 C948 1.502 . S
C950 H936 0.960 . S
C950 H937 0.961 . S
C950 H938 0.959 . S
C950 C948 1.561 . S
C951 C948 1.526 . S
C951 C952 1.396 . S
C951 C956 1.390 . S
C952 C946 1.465 . S
C952 C951 1.396 . S
C952 C953 1.399 . S
C953 H939 0.929 . S
C953 C952 1.399 . S
C953 C954 1.385 . S
C954 H940 0.931 . S
C954 C953 1.385 . S
C954 C955 1.389 . S
C955 C954 1.389 . S
C955 C956 1.387 . S
C956 H941 0.930 . S
C956 C951 1.390 . S
C956 C955 1.387 . S
H957 C969 0.930 . S
H958 C971 0.930 . S
H959 C972 0.930 . S
H960 C976 0.959 1_565 S
H961 C976 0.959 . S
H962 C976 0.961 . S
H963 C977 0.960 . S
H964 C977 0.961 . S
H965 C977 0.959 . S
H966 C980 0.929 . S
H967 C981 0.931 . S
H968 C983 0.930 1_545 S
C969 H957 0.930 . S
C969 C970 1.399 . S
C969 C974 1.399 . S
C970 C969 1.399 . S
C970 C971 1.376 . S
C971 H958 0.930 . S
C971 C970 1.376 . S
C971 C972 1.388 . S
C972 H959 0.930 . S
C972 C971 1.388 . S
C972 C973 1.390 . S
C973 C972 1.390 . S
C973 C974 1.394 . S
C973 C979 1.465 . S
C974 C969 1.399 . S
C974 C973 1.394 . S
C974 C975 1.516 . S
C975 C974 1.516 . S
C975 C976 1.502 1_565 S
C975 C977 1.561 1_565 S
C975 C978 1.526 . S
C976 H960 0.959 1_545 S
C976 H961 0.959 . S
C976 H962 0.961 . S
C976 C975 1.502 1_545 S
C977 H963 0.960 . S
C977 H964 0.961 . S
C977 H965 0.959 . S
C977 C975 1.561 1_545 S
C978 C975 1.526 . S
C978 C979 1.396 . S
C978 C983 1.390 . S
C979 C973 1.465 . S
C979 C978 1.396 . S
C979 C980 1.399 . S
C980 H966 0.929 . S
C980 C979 1.399 . S
C980 C981 1.385 . S
C981 H967 0.931 . S
C981 C980 1.385 . S
C981 C982 1.389 . S
C982 C981 1.389 . S
C982 C983 1.387 . S
C983 H968 0.930 1_565 S
C983 C978 1.390 . S
C983 C982 1.387 . S
H984 C996 0.930 1_545 S
H985 C998 0.930 . S
H986 C999 0.930 . S
H987 C1003 0.959 1_565 S
H988 C1003 0.959 . S
H989 C1003 0.961 . S
H990 C1004 0.960 . S
H991 C1004 0.961 . S
H992 C1004 0.959 . S
H993 C1007 0.929 . S
H994 C1008 0.931 . S
H995 C1010 0.930 . S
C996 H984 0.930 1_565 S
C996 C997 1.399 . S
C996 C1001 1.399 . S
C997 C996 1.399 . S
C997 C998 1.376 . S
C998 H985 0.930 . S
C998 C997 1.376 . S
C998 C999 1.388 . S
C999 H986 0.930 . S
C999 C998 1.388 . S
C999 C1000 1.390 . S
C1000 C999 1.390 . S
C1000 C1001 1.394 . S
C1000 C1006 1.465 . S
C1001 C996 1.399 . S
C1001 C1000 1.394 . S
C1001 C1002 1.516 . S
C1002 C1001 1.516 . S
C1002 C1003 1.502 1_565 S
C1002 C1004 1.561 1_565 S
C1002 C1005 1.526 . S
C1003 H987 0.959 1_545 S
C1003 H988 0.959 . S
C1003 H989 0.961 . S
C1003 C1002 1.502 1_545 S
C1004 H990 0.960 . S
C1004 H991 0.961 . S
C1004 H992 0.959 . S
C1004 C1002 1.561 1_545 S
C1005 C1002 1.526 . S
C1005 C1006 1.396 . S
C1005 C1010 1.390 . S
C1006 C1000 1.465 . S
C1006 C1005 1.396 . S
C1006 C1007 1.399 . S
C1007 H993 0.929 . S
C1007 C1006 1.399 . S
C1007 C1008 1.385 . S
C1008 H994 0.931 . S
C1008 C1007 1.385 . S
C1008 C1009 1.389 . S
C1009 C1008 1.389 . S
C1009 C1010 1.387 . S
C1010 H995 0.930 . S
C1010 C1005 1.390 . S
C1010 C1009 1.387 . S
H1011 C1023 0.930 . S
H1012 C1025 0.930 . S
H1013 C1026 0.930 . S
H1014 C1030 0.959 . S
H1015 C1030 0.959 . S
H1016 C1030 0.961 . S
H1017 C1031 0.960 . S
H1018 C1031 0.961 . S
H1019 C1031 0.959 . S
H1020 C1034 0.929 . S
H1021 C1035 0.931 . S
H1022 C1037 0.930 . S
C1023 H1011 0.930 . S
C1023 C1024 1.399 . S
C1023 C1028 1.399 . S
C1024 C1023 1.399 . S
C1024 C1025 1.376 . S
C1025 H1012 0.930 . S
C1025 C1024 1.376 . S
C1025 C1026 1.388 . S
C1026 H1013 0.930 . S
C1026 C1025 1.388 . S
C1026 C1027 1.390 . S
C1027 C1026 1.390 . S
C1027 C1028 1.394 . S
C1027 C1033 1.465 . S
C1028 C1023 1.399 . S
C1028 C1027 1.394 . S
C1028 C1029 1.516 . S
C1029 C1028 1.516 . S
C1029 C1030 1.502 . S
C1029 C1031 1.561 . S
C1029 C1032 1.526 . S
C1030 H1014 0.959 . S
C1030 H1015 0.959 . S
C1030 H1016 0.961 . S
C1030 C1029 1.502 . S
C1031 H1017 0.960 . S
C1031 H1018 0.961 . S
C1031 H1019 0.959 . S
C1031 C1029 1.561 . S
C1032 C1029 1.526 . S
C1032 C1033 1.396 . S
C1032 C1037 1.390 . S
C1033 C1027 1.465 . S
C1033 C1032 1.396 . S
C1033 C1034 1.399 . S
C1034 H1020 0.929 . S
C1034 C1033 1.399 . S
C1034 C1035 1.385 . S
C1035 H1021 0.931 . S
C1035 C1034 1.385 . S
C1035 C1036 1.389 . S
C1036 C1035 1.389 . S
C1036 C1037 1.387 . S
C1037 H1022 0.930 . S
C1037 C1032 1.390 . S
C1037 C1036 1.387 . S
H1038 C1050 0.930 . S
H1039 C1052 0.930 . S
H1040 C1053 0.930 . S
H1041 C1057 0.959 . S
H1042 C1057 0.959 . S
H1043 C1057 0.961 . S
H1044 C1058 0.960 . S
H1045 C1058 0.961 . S
H1046 C1058 0.959 . S
H1047 C1061 0.929 . S
H1048 C1062 0.931 . S
H1049 C1064 0.930 . S
C1050 H1038 0.930 . S
C1050 C1051 1.399 . S
C1050 C1055 1.399 . S
C1051 C1050 1.399 . S
C1051 C1052 1.376 . S
C1052 H1039 0.930 . S
C1052 C1051 1.376 . S
C1052 C1053 1.388 . S
C1053 H1040 0.930 . S
C1053 C1052 1.388 . S
C1053 C1054 1.390 . S
C1054 C1053 1.390 . S
C1054 C1055 1.394 . S
C1054 C1060 1.465 . S
C1055 C1050 1.399 . S
C1055 C1054 1.394 . S
C1055 C1056 1.516 . S
C1056 C1055 1.516 . S
C1056 C1057 1.502 . S
C1056 C1058 1.561 . S
C1056 C1059 1.526 . S
C1057 H1041 0.959 . S
C1057 H1042 0.959 . S
C1057 H1043 0.961 . S
C1057 C1056 1.502 . S
C1058 H1044 0.960 . S
C1058 H1045 0.961 . S
C1058 H1046 0.959 . S
C1058 C1056 1.561 . S
C1059 C1056 1.526 . S
C1059 C1060 1.396 . S
C1059 C1064 1.390 . S
C1060 C1054 1.465 . S
C1060 C1059 1.396 . S
C1060 C1061 1.399 . S
C1061 H1047 0.929 . S
C1061 C1060 1.399 . S
C1061 C1062 1.385 . S
C1062 H1048 0.931 . S
C1062 C1061 1.385 . S
C1062 C1063 1.389 . S
C1063 C1062 1.389 . S
C1063 C1064 1.387 . S
C1064 H1049 0.930 . S
C1064 C1059 1.390 . S
C1064 C1063 1.387 . S
H1065 C1077 0.930 . S
H1066 C1079 0.930 . S
H1067 C1080 0.930 . S
H1068 C1084 0.959 . S
H1069 C1084 0.959 1_554 S
H1070 C1084 0.961 . S
H1071 C1085 0.960 . S
H1072 C1085 0.961 . S
H1073 C1085 0.959 . S
H1074 C1088 0.929 . S
H1075 C1089 0.931 . S
H1076 C1091 0.930 1_554 S
C1077 H1065 0.930 . S
C1077 C1078 1.399 . S
C1077 C1082 1.399 . S
C1078 C1077 1.399 . S
C1078 C1079 1.376 . S
C1079 H1066 0.930 . S
C1079 C1078 1.376 . S
C1079 C1080 1.388 . S
C1080 H1067 0.930 . S
C1080 C1079 1.388 . S
C1080 C1081 1.390 . S
C1081 C1080 1.390 . S
C1081 C1082 1.394 . S
C1081 C1087 1.465 . S
C1082 C1077 1.399 . S
C1082 C1081 1.394 . S
C1082 C1083 1.516 . S
C1083 C1082 1.516 . S
C1083 C1084 1.502 . S
C1083 C1085 1.561 1_556 S
C1083 C1086 1.526 . S
C1084 H1068 0.959 . S
C1084 H1069 0.959 1_556 S
C1084 H1070 0.961 . S
C1084 C1083 1.502 . S
C1085 H1071 0.960 . S
C1085 H1072 0.961 . S
C1085 H1073 0.959 . S
C1085 C1083 1.561 1_554 S
C1086 C1083 1.526 . S
C1086 C1087 1.396 . S
C1086 C1091 1.390 . S
C1087 C1081 1.465 . S
C1087 C1086 1.396 . S
C1087 C1088 1.399 . S
C1088 H1074 0.929 . S
C1088 C1087 1.399 . S
C1088 C1089 1.385 . S
C1089 H1075 0.931 . S
C1089 C1088 1.385 . S
C1089 C1090 1.389 . S
C1090 C1089 1.389 . S
C1090 C1091 1.387 . S
C1091 H1076 0.930 1_556 S
C1091 C1086 1.390 . S
C1091 C1090 1.387 . S
H1092 C1104 0.930 . S
H1093 C1106 0.930 . S
H1094 C1107 0.930 . S
H1095 C1111 0.959 . S
H1096 C1111 0.959 . S
H1097 C1111 0.961 . S
H1098 C1112 0.960 . S
H1099 C1112 0.961 . S
H1100 C1112 0.959 . S
H1101 C1115 0.929 . S
H1102 C1116 0.931 . S
H1103 C1118 0.930 . S
C1104 H1092 0.930 . S
C1104 C1105 1.399 . S
C1104 C1109 1.399 . S
C1105 C1104 1.399 . S
C1105 C1106 1.376 . S
C1106 H1093 0.930 . S
C1106 C1105 1.376 . S
C1106 C1107 1.388 . S
C1107 H1094 0.930 . S
C1107 C1106 1.388 . S
C1107 C1108 1.390 . S
C1108 C1107 1.390 . S
C1108 C1109 1.394 . S
C1108 C1114 1.465 . S
C1109 C1104 1.399 . S
C1109 C1108 1.394 . S
C1109 C1110 1.516 . S
C1110 C1109 1.516 . S
C1110 C1111 1.502 . S
C1110 C1112 1.561 . S
C1110 C1113 1.526 . S
C1111 H1095 0.959 . S
C1111 H1096 0.959 . S
C1111 H1097 0.961 . S
C1111 C1110 1.502 . S
C1112 H1098 0.960 . S
C1112 H1099 0.961 . S
C1112 H1100 0.959 . S
C1112 C1110 1.561 . S
C1113 C1110 1.526 . S
C1113 C1114 1.396 . S
C1113 C1118 1.390 . S
C1114 C1108 1.465 . S
C1114 C1113 1.396 . S
C1114 C1115 1.399 . S
C1115 H1101 0.929 . S
C1115 C1114 1.399 . S
C1115 C1116 1.385 . S
C1116 H1102 0.931 . S
C1116 C1115 1.385 . S
C1116 C1117 1.389 . S
C1117 C1116 1.389 . S
C1117 C1118 1.387 . S
C1118 H1103 0.930 . S
C1118 C1113 1.390 . S
C1118 C1117 1.387 . S
H1119 C1131 0.930 . S
H1120 C1133 0.930 . S
H1121 C1134 0.930 . S
H1122 C1138 0.959 . S
H1123 C1138 0.959 . S
H1124 C1138 0.961 . S
H1125 C1139 0.960 . S
H1126 C1139 0.961 . S
H1127 C1139 0.959 . S
H1128 C1142 0.929 . S
H1129 C1143 0.931 . S
H1130 C1145 0.930 . S
C1131 H1119 0.930 . S
C1131 C1132 1.399 . S
C1131 C1136 1.399 . S
C1132 C1131 1.399 . S
C1132 C1133 1.376 . S
C1133 H1120 0.930 . S
C1133 C1132 1.376 . S
C1133 C1134 1.388 . S
C1134 H1121 0.930 . S
C1134 C1133 1.388 . S
C1134 C1135 1.390 . S
C1135 C1134 1.390 . S
C1135 C1136 1.394 . S
C1135 C1141 1.465 . S
C1136 C1131 1.399 . S
C1136 C1135 1.394 . S
C1136 C1137 1.516 . S
C1137 C1136 1.516 . S
C1137 C1138 1.502 . S
C1137 C1139 1.561 . S
C1137 C1140 1.526 . S
C1138 H1122 0.959 . S
C1138 H1123 0.959 . S
C1138 H1124 0.961 . S
C1138 C1137 1.502 . S
C1139 H1125 0.960 . S
C1139 H1126 0.961 . S
C1139 H1127 0.959 . S
C1139 C1137 1.561 . S
C1140 C1137 1.526 . S
C1140 C1141 1.396 . S
C1140 C1145 1.390 . S
C1141 C1135 1.465 . S
C1141 C1140 1.396 . S
C1141 C1142 1.399 . S
C1142 H1128 0.929 . S
C1142 C1141 1.399 . S
C1142 C1143 1.385 . S
C1143 H1129 0.931 . S
C1143 C1142 1.385 . S
C1143 C1144 1.389 . S
C1144 C1143 1.389 . S
C1144 C1145 1.387 . S
C1145 H1130 0.930 . S
C1145 C1140 1.390 . S
C1145 C1144 1.387 . S
H1146 C1158 0.930 . S
H1147 C1160 0.930 . S
H1148 C1161 0.930 . S
H1149 C1165 0.959 . S
H1150 C1165 0.959 . S
H1151 C1165 0.961 . S
H1152 C1166 0.960 . S
H1153 C1166 0.961 . S
H1154 C1166 0.959 . S
H1155 C1169 0.929 . S
H1156 C1170 0.931 . S
H1157 C1172 0.930 . S
C1158 H1146 0.930 . S
C1158 C1159 1.399 . S
C1158 C1163 1.399 . S
C1159 C1158 1.399 . S
C1159 C1160 1.376 . S
C1160 H1147 0.930 . S
C1160 C1159 1.376 . S
C1160 C1161 1.388 . S
C1161 H1148 0.930 . S
C1161 C1160 1.388 . S
C1161 C1162 1.390 . S
C1162 C1161 1.390 . S
C1162 C1163 1.394 . S
C1162 C1168 1.465 . S
C1163 C1158 1.399 . S
C1163 C1162 1.394 . S
C1163 C1164 1.516 . S
C1164 C1163 1.516 . S
C1164 C1165 1.502 . S
C1164 C1166 1.561 . S
C1164 C1167 1.526 . S
C1165 H1149 0.959 . S
C1165 H1150 0.959 . S
C1165 H1151 0.961 . S
C1165 C1164 1.502 . S
C1166 H1152 0.960 . S
C1166 H1153 0.961 . S
C1166 H1154 0.959 . S
C1166 C1164 1.561 . S
C1167 C1164 1.526 . S
C1167 C1168 1.396 . S
C1167 C1172 1.390 . S
C1168 C1162 1.465 . S
C1168 C1167 1.396 . S
C1168 C1169 1.399 . S
C1169 H1155 0.929 . S
C1169 C1168 1.399 . S
C1169 C1170 1.385 . S
C1170 H1156 0.931 . S
C1170 C1169 1.385 . S
C1170 C1171 1.389 . S
C1171 C1170 1.389 . S
C1171 C1172 1.387 . S
C1172 H1157 0.930 . S
C1172 C1167 1.390 . S
C1172 C1171 1.387 . S
H1173 C1185 0.930 1_455 S
H1174 C1187 0.930 . S
H1175 C1188 0.930 . S
H1176 C1192 0.959 . S
H1177 C1192 0.954 1_455 S
H1178 C1192 0.961 1_455 S
H1179 C1193 0.960 . S
H1180 C1193 0.961 . S
H1181 C1193 0.959 . S
H1182 C1196 0.929 . S
H1183 C1197 0.931 . S
H1184 C1199 0.930 . S
C1185 H1173 0.930 1_655 S
C1185 C1186 1.399 . S
C1185 C1190 1.399 . S
C1186 C1185 1.399 . S
C1186 C1187 1.376 . S
C1187 H1174 0.930 . S
C1187 C1186 1.376 . S
C1187 C1188 1.388 . S
C1188 H1175 0.930 . S
C1188 C1187 1.388 . S
C1188 C1189 1.390 . S
C1189 C1188 1.390 . S
C1189 C1190 1.394 . S
C1189 C1195 1.465 . S
C1190 C1185 1.399 . S
C1190 C1189 1.394 . S
C1190 C1191 1.516 . S
C1191 C1190 1.516 . S
C1191 C1192 1.502 . S
C1191 C1193 1.561 . S
C1191 C1194 1.526 . S
C1192 H1176 0.959 . S
C1192 H1177 0.954 1_655 S
C1192 H1178 0.961 1_655 S
C1192 C1191 1.502 . S
C1193 H1179 0.960 . S
C1193 H1180 0.961 . S
C1193 H1181 0.959 . S
C1193 C1191 1.561 . S
C1194 C1191 1.526 . S
C1194 C1195 1.396 . S
C1194 C1199 1.390 . S
C1195 C1189 1.465 . S
C1195 C1194 1.396 . S
C1195 C1196 1.399 . S
C1196 H1182 0.929 . S
C1196 C1195 1.399 . S
C1196 C1197 1.385 . S
C1197 H1183 0.931 . S
C1197 C1196 1.385 . S
C1197 C1198 1.389 . S
C1198 C1197 1.389 . S
C1198 C1199 1.387 . S
C1199 H1184 0.930 . S
C1199 C1194 1.390 . S
C1199 C1198 1.387 . S
H1200 C1212 0.930 . S
H1201 C1214 0.930 . S
H1202 C1215 0.930 . S
H1203 C1219 0.959 . S
H1204 C1219 0.959 . S
H1205 C1219 0.961 . S
H1206 C1220 0.960 . S
H1207 C1220 0.961 . S
H1208 C1220 0.959 . S
H1209 C1223 0.929 . S
H1210 C1224 0.931 . S
H1211 C1226 0.930 . S
C1212 H1200 0.930 . S
C1212 C1213 1.399 . S
C1212 C1217 1.399 . S
C1213 C1212 1.399 . S
C1213 C1214 1.376 . S
C1214 H1201 0.930 . S
C1214 C1213 1.376 . S
C1214 C1215 1.388 . S
C1215 H1202 0.930 . S
C1215 C1214 1.388 . S
C1215 C1216 1.390 . S
C1216 C1215 1.390 . S
C1216 C1217 1.394 . S
C1216 C1222 1.465 . S
C1217 C1212 1.399 . S
C1217 C1216 1.394 . S
C1217 C1218 1.516 . S
C1218 C1217 1.516 . S
C1218 C1219 1.502 . S
C1218 C1220 1.561 . S
C1218 C1221 1.526 . S
C1219 H1203 0.959 . S
C1219 H1204 0.959 . S
C1219 H1205 0.961 . S
C1219 C1218 1.502 . S
C1220 H1206 0.960 . S
C1220 H1207 0.961 . S
C1220 H1208 0.959 . S
C1220 C1218 1.561 . S
C1221 C1218 1.526 . S
C1221 C1222 1.396 . S
C1221 C1226 1.390 . S
C1222 C1216 1.465 . S
C1222 C1221 1.396 . S
C1222 C1223 1.399 . S
C1223 H1209 0.929 . S
C1223 C1222 1.399 . S
C1223 C1224 1.385 . S
C1224 H1210 0.931 . S
C1224 C1223 1.385 . S
C1224 C1225 1.389 . S
C1225 C1224 1.389 . S
C1225 C1226 1.387 . S
C1226 H1211 0.930 . S
C1226 C1221 1.390 . S
C1226 C1225 1.387 . S
H1227 C1239 0.930 . S
H1228 C1241 0.930 . S
H1229 C1242 0.930 . S
H1230 C1246 0.959 . S
H1231 C1246 0.959 . S
H1232 C1246 0.961 . S
H1233 C1247 0.960 . S
H1234 C1247 0.961 . S
H1235 C1247 0.959 . S
H1236 C1250 0.929 . S
H1237 C1251 0.931 . S
H1238 C1253 0.930 . S
C1239 H1227 0.930 . S
C1239 C1240 1.399 . S
C1239 C1244 1.399 . S
C1240 C1239 1.399 . S
C1240 C1241 1.376 . S
C1241 H1228 0.930 . S
C1241 C1240 1.376 . S
C1241 C1242 1.388 . S
C1242 H1229 0.930 . S
C1242 C1241 1.388 . S
C1242 C1243 1.390 . S
C1243 C1242 1.390 . S
C1243 C1244 1.394 . S
C1243 C1249 1.465 . S
C1244 C1239 1.399 . S
C1244 C1243 1.394 . S
C1244 C1245 1.516 . S
C1245 C1244 1.516 . S
C1245 C1246 1.502 . S
C1245 C1247 1.561 . S
C1245 C1248 1.526 . S
C1246 H1230 0.959 . S
C1246 H1231 0.959 . S
C1246 H1232 0.961 . S
C1246 C1245 1.502 . S
C1247 H1233 0.960 . S
C1247 H1234 0.961 . S
C1247 H1235 0.959 . S
C1247 C1245 1.561 . S
C1248 C1245 1.526 . S
C1248 C1249 1.396 . S
C1248 C1253 1.390 . S
C1249 C1243 1.465 . S
C1249 C1248 1.396 . S
C1249 C1250 1.399 . S
C1250 H1236 0.929 . S
C1250 C1249 1.399 . S
C1250 C1251 1.385 . S
C1251 H1237 0.931 . S
C1251 C1250 1.385 . S
C1251 C1252 1.389 . S
C1252 C1251 1.389 . S
C1252 C1253 1.387 . S
C1253 H1238 0.930 . S
C1253 C1248 1.390 . S
C1253 C1252 1.387 . S
H1254 C1266 0.930 . S
H1255 C1268 0.930 . S
H1256 C1269 0.930 . S
H1257 C1273 0.959 . S
H1258 C1273 0.959 . S
H1259 C1273 0.961 . S
H1260 C1274 0.960 . S
H1261 C1274 0.961 . S
H1262 C1274 0.959 . S
H1263 C1277 0.929 . S
H1264 C1278 0.931 . S
H1265 C1280 0.930 . S
C1266 H1254 0.930 . S
C1266 C1267 1.399 . S
C1266 C1271 1.399 . S
C1267 C1266 1.399 . S
C1267 C1268 1.376 . S
C1268 H1255 0.930 . S
C1268 C1267 1.376 . S
C1268 C1269 1.388 . S
C1269 H1256 0.930 . S
C1269 C1268 1.388 . S
C1269 C1270 1.390 . S
C1270 C1269 1.390 . S
C1270 C1271 1.394 . S
C1270 C1276 1.465 . S
C1271 C1266 1.399 . S
C1271 C1270 1.394 . S
C1271 C1272 1.516 . S
C1272 C1271 1.516 . S
C1272 C1273 1.502 . S
C1272 C1274 1.561 . S
C1272 C1275 1.526 . S
C1273 H1257 0.959 . S
C1273 H1258 0.959 . S
C1273 H1259 0.961 . S
C1273 C1272 1.502 . S
C1274 H1260 0.960 . S
C1274 H1261 0.961 . S
C1274 H1262 0.959 . S
C1274 C1272 1.561 . S
C1275 C1272 1.526 . S
C1275 C1276 1.396 . S
C1275 C1280 1.390 . S
C1276 C1270 1.465 . S
C1276 C1275 1.396 . S
C1276 C1277 1.399 . S
C1277 H1263 0.929 . S
C1277 C1276 1.399 . S
C1277 C1278 1.385 . S
C1278 H1264 0.931 . S
C1278 C1277 1.385 . S
C1278 C1279 1.389 . S
C1279 C1278 1.389 . S
C1279 C1280 1.387 . S
C1280 H1265 0.930 . S
C1280 C1275 1.390 . S
C1280 C1279 1.387 . S
H1281 C1293 0.930 . S
H1282 C1295 0.930 . S
H1283 C1296 0.930 . S
H1284 C1300 0.959 . S
H1285 C1300 0.959 . S
H1286 C1300 0.961 . S
H1287 C1301 0.960 . S
H1288 C1301 0.961 . S
H1289 C1301 0.959 . S
H1290 C1304 0.929 . S
H1291 C1305 0.931 . S
H1292 C1307 0.930 . S
C1293 H1281 0.930 . S
C1293 C1294 1.399 . S
C1293 C1298 1.399 . S
C1294 C1293 1.399 . S
C1294 C1295 1.376 . S
C1295 H1282 0.930 . S
C1295 C1294 1.376 . S
C1295 C1296 1.388 . S
C1296 H1283 0.930 . S
C1296 C1295 1.388 . S
C1296 C1297 1.390 . S
C1297 C1296 1.390 . S
C1297 C1298 1.394 . S
C1297 C1303 1.465 . S
C1298 C1293 1.399 . S
C1298 C1297 1.394 . S
C1298 C1299 1.516 . S
C1299 C1298 1.516 . S
C1299 C1300 1.502 . S
C1299 C1301 1.561 . S
C1299 C1302 1.526 . S
C1300 H1284 0.959 . S
C1300 H1285 0.959 . S
C1300 H1286 0.961 . S
C1300 C1299 1.502 . S
C1301 H1287 0.960 . S
C1301 H1288 0.961 . S
C1301 H1289 0.959 . S
C1301 C1299 1.561 . S
C1302 C1299 1.526 . S
C1302 C1303 1.396 . S
C1302 C1307 1.390 . S
C1303 C1297 1.465 . S
C1303 C1302 1.396 . S
C1303 C1304 1.399 . S
C1304 H1290 0.929 . S
C1304 C1303 1.399 . S
C1304 C1305 1.385 . S
C1305 H1291 0.931 . S
C1305 C1304 1.385 . S
C1305 C1306 1.389 . S
C1306 C1305 1.389 . S
C1306 C1307 1.387 . S
C1307 H1292 0.930 . S
C1307 C1302 1.390 . S
C1307 C1306 1.387 . S
H1308 C1320 0.930 . S
H1309 C1322 0.930 . S
H1310 C1323 0.930 . S
H1311 C1327 0.959 . S
H1312 C1327 0.959 . S
H1313 C1327 0.961 . S
H1314 C1328 0.960 . S
H1315 C1328 0.961 . S
H1316 C1328 0.959 . S
H1317 C1331 0.929 . S
H1318 C1332 0.931 . S
H1319 C1334 0.930 . S
C1320 H1308 0.930 . S
C1320 C1321 1.399 . S
C1320 C1325 1.399 . S
C1321 C1320 1.399 . S
C1321 C1322 1.376 . S
C1322 H1309 0.930 . S
C1322 C1321 1.376 . S
C1322 C1323 1.388 . S
C1323 H1310 0.930 . S
C1323 C1322 1.388 . S
C1323 C1324 1.390 . S
C1324 C1323 1.390 . S
C1324 C1325 1.394 . S
C1324 C1330 1.465 . S
C1325 C1320 1.399 . S
C1325 C1324 1.394 . S
C1325 C1326 1.516 . S
C1326 C1325 1.516 . S
C1326 C1327 1.502 . S
C1326 C1328 1.561 . S
C1326 C1329 1.526 . S
C1327 H1311 0.959 . S
C1327 H1312 0.959 . S
C1327 H1313 0.961 . S
C1327 C1326 1.502 . S
C1328 H1314 0.960 . S
C1328 H1315 0.961 . S
C1328 H1316 0.959 . S
C1328 C1326 1.561 . S
C1329 C1326 1.526 . S
C1329 C1330 1.396 . S
C1329 C1334 1.390 . S
C1330 C1324 1.465 . S
C1330 C1329 1.396 . S
C1330 C1331 1.399 . S
C1331 H1317 0.929 . S
C1331 C1330 1.399 . S
C1331 C1332 1.385 . S
C1332 H1318 0.931 . S
C1332 C1331 1.385 . S
C1332 C1333 1.389 . S
C1333 C1332 1.389 . S
C1333 C1334 1.387 . S
C1334 H1319 0.930 . S
C1334 C1329 1.390 . S
C1334 C1333 1.387 . S
H1335 C1347 0.930 . S
H1336 C1349 0.930 . S
H1337 C1350 0.930 . S
H1338 C1354 0.959 . S
H1339 C1354 0.959 . S
H1340 C1354 0.961 . S
H1341 C1355 0.960 . S
H1342 C1355 0.961 . S
H1343 C1355 0.959 . S
H1344 C1358 0.929 . S
H1345 C1359 0.931 . S
H1346 C1361 0.930 . S
C1347 H1335 0.930 . S
C1347 C1348 1.399 . S
C1347 C1352 1.399 . S
C1348 C1347 1.399 . S
C1348 C1349 1.376 . S
C1349 H1336 0.930 . S
C1349 C1348 1.376 . S
C1349 C1350 1.388 . S
C1350 H1337 0.930 . S
C1350 C1349 1.388 . S
C1350 C1351 1.390 . S
C1351 C1350 1.390 . S
C1351 C1352 1.394 . S
C1351 C1357 1.465 . S
C1352 C1347 1.399 . S
C1352 C1351 1.394 . S
C1352 C1353 1.516 . S
C1353 C1352 1.516 . S
C1353 C1354 1.502 . S
C1353 C1355 1.561 . S
C1353 C1356 1.526 . S
C1354 H1338 0.959 . S
C1354 H1339 0.959 . S
C1354 H1340 0.961 . S
C1354 C1353 1.502 . S
C1355 H1341 0.960 . S
C1355 H1342 0.961 . S
C1355 H1343 0.959 . S
C1355 C1353 1.561 . S
C1356 C1353 1.526 . S
C1356 C1357 1.396 . S
C1356 C1361 1.390 . S
C1357 C1351 1.465 . S
C1357 C1356 1.396 . S
C1357 C1358 1.399 . S
C1358 H1344 0.929 . S
C1358 C1357 1.399 . S
C1358 C1359 1.385 . S
C1359 H1345 0.931 . S
C1359 C1358 1.385 . S
C1359 C1360 1.389 . S
C1360 C1359 1.389 . S
C1360 C1361 1.387 . S
C1361 H1346 0.930 . S
C1361 C1356 1.390 . S
C1361 C1360 1.387 . S
H1362 C1374 0.930 . S
H1363 C1376 0.930 . S
H1364 C1377 0.930 . S
H1365 C1381 0.959 . S
H1366 C1381 0.959 . S
H1367 C1381 0.961 . S
H1368 C1382 0.960 . S
H1369 C1382 0.961 . S
H1370 C1382 0.959 . S
H1371 C1385 0.929 . S
H1372 C1386 0.931 . S
H1373 C1388 0.930 . S
C1374 H1362 0.930 . S
C1374 C1375 1.399 . S
C1374 C1379 1.399 . S
C1375 C1374 1.399 . S
C1375 C1376 1.376 . S
C1376 H1363 0.930 . S
C1376 C1375 1.376 . S
C1376 C1377 1.388 . S
C1377 H1364 0.930 . S
C1377 C1376 1.388 . S
C1377 C1378 1.390 . S
C1378 C1377 1.390 . S
C1378 C1379 1.394 . S
C1378 C1384 1.465 . S
C1379 C1374 1.399 . S
C1379 C1378 1.394 . S
C1379 C1380 1.516 . S
C1380 C1379 1.516 . S
C1380 C1381 1.502 . S
C1380 C1382 1.561 . S
C1380 C1383 1.526 . S
C1381 H1365 0.959 . S
C1381 H1366 0.959 . S
C1381 H1367 0.961 . S
C1381 C1380 1.502 . S
C1382 H1368 0.960 . S
C1382 H1369 0.961 . S
C1382 H1370 0.959 . S
C1382 C1380 1.561 . S
C1383 C1380 1.526 . S
C1383 C1384 1.396 . S
C1383 C1388 1.390 . S
C1384 C1378 1.465 . S
C1384 C1383 1.396 . S
C1384 C1385 1.399 . S
C1385 H1371 0.929 . S
C1385 C1384 1.399 . S
C1385 C1386 1.385 . S
C1386 H1372 0.931 . S
C1386 C1385 1.385 . S
C1386 C1387 1.389 . S
C1387 C1386 1.389 . S
C1387 C1388 1.387 . S
C1388 H1373 0.930 . S
C1388 C1383 1.390 . S
C1388 C1387 1.387 . S
H1389 C1401 0.930 . S
H1390 C1403 0.930 . S
H1391 C1404 0.930 . S
H1392 C1408 0.959 . S
H1393 C1408 0.959 . S
H1394 C1408 0.961 . S
H1395 C1409 0.960 . S
H1396 C1409 0.961 . S
H1397 C1409 0.959 . S
H1398 C1412 0.929 . S
H1399 C1413 0.931 . S
H1400 C1415 0.930 . S
C1401 H1389 0.930 . S
C1401 C1402 1.399 . S
C1401 C1406 1.399 . S
C1402 C1401 1.399 . S
C1402 C1403 1.376 . S
C1403 H1390 0.930 . S
C1403 C1402 1.376 . S
C1403 C1404 1.388 . S
C1404 H1391 0.930 . S
C1404 C1403 1.388 . S
C1404 C1405 1.390 . S
C1405 C1404 1.390 . S
C1405 C1406 1.394 . S
C1405 C1411 1.465 . S
C1406 C1401 1.399 . S
C1406 C1405 1.394 . S
C1406 C1407 1.516 . S
C1407 C1406 1.516 . S
C1407 C1408 1.502 . S
C1407 C1409 1.561 . S
C1407 C1410 1.526 . S
C1408 H1392 0.959 . S
C1408 H1393 0.959 . S
C1408 H1394 0.961 . S
C1408 C1407 1.502 . S
C1409 H1395 0.960 . S
C1409 H1396 0.961 . S
C1409 H1397 0.959 . S
C1409 C1407 1.561 . S
C1410 C1407 1.526 . S
C1410 C1411 1.396 . S
C1410 C1415 1.390 . S
C1411 C1405 1.465 . S
C1411 C1410 1.396 . S
C1411 C1412 1.399 . S
C1412 H1398 0.929 . S
C1412 C1411 1.399 . S
C1412 C1413 1.385 . S
C1413 H1399 0.931 . S
C1413 C1412 1.385 . S
C1413 C1414 1.389 . S
C1414 C1413 1.389 . S
C1414 C1415 1.387 . S
C1415 H1400 0.930 . S
C1415 C1410 1.390 . S
C1415 C1414 1.387 . S
H1416 C1428 0.930 . S
H1417 C1430 0.930 . S
H1418 C1431 0.930 . S
H1419 C1435 0.959 . S
H1420 C1435 0.959 . S
H1421 C1435 0.961 . S
H1422 C1436 0.960 . S
H1423 C1436 0.961 . S
H1424 C1436 0.959 . S
H1425 C1439 0.929 . S
H1426 C1440 0.931 . S
H1427 C1442 0.930 . S
C1428 H1416 0.930 . S
C1428 C1429 1.399 . S
C1428 C1433 1.399 . S
C1429 C1428 1.399 . S
C1429 C1430 1.376 . S
C1430 H1417 0.930 . S
C1430 C1429 1.376 . S
C1430 C1431 1.388 . S
C1431 H1418 0.930 . S
C1431 C1430 1.388 . S
C1431 C1432 1.390 . S
C1432 C1431 1.390 . S
C1432 C1433 1.394 . S
C1432 C1438 1.465 . S
C1433 C1428 1.399 . S
C1433 C1432 1.394 . S
C1433 C1434 1.516 . S
C1434 C1433 1.516 . S
C1434 C1435 1.502 . S
C1434 C1436 1.561 . S
C1434 C1437 1.526 . S
C1435 H1419 0.959 . S
C1435 H1420 0.959 . S
C1435 H1421 0.961 . S
C1435 C1434 1.502 . S
C1436 H1422 0.960 . S
C1436 H1423 0.961 . S
C1436 H1424 0.959 . S
C1436 C1434 1.561 . S
C1437 C1434 1.526 . S
C1437 C1438 1.396 . S
C1437 C1442 1.390 . S
C1438 C1432 1.465 . S
C1438 C1437 1.396 . S
C1438 C1439 1.399 . S
C1439 H1425 0.929 . S
C1439 C1438 1.399 . S
C1439 C1440 1.385 . S
C1440 H1426 0.931 . S
C1440 C1439 1.385 . S
C1440 C1441 1.389 . S
C1441 C1440 1.389 . S
C1441 C1442 1.387 . S
C1442 H1427 0.930 . S
C1442 C1437 1.390 . S
C1442 C1441 1.387 . S
H1443 C1455 0.930 . S
H1444 C1457 0.930 . S
H1445 C1458 0.930 . S
H1446 C1462 0.959 . S
H1447 C1462 0.959 . S
H1448 C1462 0.961 . S
H1449 C1463 0.960 . S
H1450 C1463 0.961 . S
H1451 C1463 0.959 . S
H1452 C1466 0.929 . S
H1453 C1467 0.931 . S
H1454 C1469 0.930 . S
C1455 H1443 0.930 . S
C1455 C1456 1.399 . S
C1455 C1460 1.399 . S
C1456 C1455 1.399 . S
C1456 C1457 1.376 . S
C1457 H1444 0.930 . S
C1457 C1456 1.376 . S
C1457 C1458 1.388 . S
C1458 H1445 0.930 . S
C1458 C1457 1.388 . S
C1458 C1459 1.390 . S
C1459 C1458 1.390 . S
C1459 C1460 1.394 . S
C1459 C1465 1.465 . S
C1460 C1455 1.399 . S
C1460 C1459 1.394 . S
C1460 C1461 1.516 . S
C1461 C1460 1.516 . S
C1461 C1462 1.502 . S
C1461 C1463 1.561 . S
C1461 C1464 1.526 . S
C1462 H1446 0.959 . S
C1462 H1447 0.959 . S
C1462 H1448 0.961 . S
C1462 C1461 1.502 . S
C1463 H1449 0.960 . S
C1463 H1450 0.961 . S
C1463 H1451 0.959 . S
C1463 C1461 1.561 . S
C1464 C1461 1.526 . S
C1464 C1465 1.396 . S
C1464 C1469 1.390 . S
C1465 C1459 1.465 . S
C1465 C1464 1.396 . S
C1465 C1466 1.399 . S
C1466 H1452 0.929 . S
C1466 C1465 1.399 . S
C1466 C1467 1.385 . S
C1467 H1453 0.931 . S
C1467 C1466 1.385 . S
C1467 C1468 1.389 . S
C1468 C1467 1.389 . S
C1468 C1469 1.387 . S
C1469 H1454 0.930 . S
C1469 C1464 1.390 . S
C1469 C1468 1.387 . S
H1470 C1482 0.930 . S
H1471 C1484 0.930 . S
H1472 C1485 0.930 . S
H1473 C1489 0.959 . S
H1474 C1489 0.959 . S
H1475 C1489 0.961 . S
H1476 C1490 0.960 . S
H1477 C1490 0.961 . S
H1478 C1490 0.959 . S
H1479 C1493 0.929 . S
H1480 C1494 0.931 . S
H1481 C1496 0.930 . S
C1482 H1470 0.930 . S
C1482 C1483 1.399 . S
C1482 C1487 1.399 . S
C1483 C1482 1.399 . S
C1483 C1484 1.376 . S
C1484 H1471 0.930 . S
C1484 C1483 1.376 . S
C1484 C1485 1.388 . S
C1485 H1472 0.930 . S
C1485 C1484 1.388 . S
C1485 C1486 1.390 . S
C1486 C1485 1.390 . S
C1486 C1487 1.394 . S
C1486 C1492 1.465 . S
C1487 C1482 1.399 . S
C1487 C1486 1.394 . S
C1487 C1488 1.516 . S
C1488 C1487 1.516 . S
C1488 C1489 1.502 . S
C1488 C1490 1.561 . S
C1488 C1491 1.526 . S
C1489 H1473 0.959 . S
C1489 H1474 0.959 . S
C1489 H1475 0.961 . S
C1489 C1488 1.502 . S
C1490 H1476 0.960 . S
C1490 H1477 0.961 . S
C1490 H1478 0.959 . S
C1490 C1488 1.561 . S
C1491 C1488 1.526 . S
C1491 C1492 1.396 . S
C1491 C1496 1.390 . S
C1492 C1486 1.465 . S
C1492 C1491 1.396 . S
C1492 C1493 1.399 . S
C1493 H1479 0.929 . S
C1493 C1492 1.399 . S
C1493 C1494 1.385 . S
C1494 H1480 0.931 . S
C1494 C1493 1.385 . S
C1494 C1495 1.389 . S
C1495 C1494 1.389 . S
C1495 C1496 1.387 . S
C1496 H1481 0.930 . S
C1496 C1491 1.390 . S
C1496 C1495 1.387 . S
H1497 C1509 0.930 . S
H1498 C1511 0.930 . S
H1499 C1512 0.930 . S
H1500 C1516 0.959 . S
H1501 C1516 0.959 . S
H1502 C1516 0.961 . S
H1503 C1517 0.960 . S
H1504 C1517 0.961 . S
H1505 C1517 0.959 . S
H1506 C1520 0.929 . S
H1507 C1521 0.931 . S
H1508 C1523 0.930 . S
C1509 H1497 0.930 . S
C1509 C1510 1.399 . S
C1509 C1514 1.399 . S
C1510 C1509 1.399 . S
C1510 C1511 1.376 . S
C1511 H1498 0.930 . S
C1511 C1510 1.376 . S
C1511 C1512 1.388 . S
C1512 H1499 0.930 . S
C1512 C1511 1.388 . S
C1512 C1513 1.390 . S
C1513 C1512 1.390 . S
C1513 C1514 1.394 . S
C1513 C1519 1.465 . S
C1514 C1509 1.399 . S
C1514 C1513 1.394 . S
C1514 C1515 1.516 . S
C1515 C1514 1.516 . S
C1515 C1516 1.502 . S
C1515 C1517 1.561 . S
C1515 C1518 1.526 . S
C1516 H1500 0.959 . S
C1516 H1501 0.959 . S
C1516 H1502 0.961 . S
C1516 C1515 1.502 . S
C1517 H1503 0.960 . S
C1517 H1504 0.961 . S
C1517 H1505 0.959 . S
C1517 C1515 1.561 . S
C1518 C1515 1.526 . S
C1518 C1519 1.396 . S
C1518 C1523 1.390 . S
C1519 C1513 1.465 . S
C1519 C1518 1.396 . S
C1519 C1520 1.399 . S
C1520 H1506 0.929 . S
C1520 C1519 1.399 . S
C1520 C1521 1.385 . S
C1521 H1507 0.931 . S
C1521 C1520 1.385 . S
C1521 C1522 1.389 . S
C1522 C1521 1.389 . S
C1522 C1523 1.387 . S
C1523 H1508 0.930 . S
C1523 C1518 1.390 . S
C1523 C1522 1.387 . S
H1524 C1536 0.930 . S
H1525 C1538 0.930 . S
H1526 C1539 0.930 . S
H1527 C1543 0.959 . S
H1528 C1543 0.959 . S
H1529 C1543 0.961 . S
H1530 C1544 0.960 . S
H1531 C1544 0.961 . S
H1532 C1544 0.959 . S
H1533 C1547 0.929 . S
H1534 C1548 0.931 . S
H1535 C1550 0.930 . S
C1536 H1524 0.930 . S
C1536 C1537 1.399 . S
C1536 C1541 1.399 . S
C1537 C1536 1.399 . S
C1537 C1538 1.376 . S
C1538 H1525 0.930 . S
C1538 C1537 1.376 . S
C1538 C1539 1.388 . S
C1539 H1526 0.930 . S
C1539 C1538 1.388 . S
C1539 C1540 1.390 . S
C1540 C1539 1.390 . S
C1540 C1541 1.394 . S
C1540 C1546 1.465 . S
C1541 C1536 1.399 . S
C1541 C1540 1.394 . S
C1541 C1542 1.516 . S
C1542 C1541 1.516 . S
C1542 C1543 1.502 . S
C1542 C1544 1.561 . S
C1542 C1545 1.526 . S
C1543 H1527 0.959 . S
C1543 H1528 0.959 . S
C1543 H1529 0.961 . S
C1543 C1542 1.502 . S
C1544 H1530 0.960 . S
C1544 H1531 0.961 . S
C1544 H1532 0.959 . S
C1544 C1542 1.561 . S
C1545 C1542 1.526 . S
C1545 C1546 1.396 . S
C1545 C1550 1.390 . S
C1546 C1540 1.465 . S
C1546 C1545 1.396 . S
C1546 C1547 1.399 . S
C1547 H1533 0.929 . S
C1547 C1546 1.399 . S
C1547 C1548 1.385 . S
C1548 H1534 0.931 . S
C1548 C1547 1.385 . S
C1548 C1549 1.389 . S
C1549 C1548 1.389 . S
C1549 C1550 1.387 . S
C1550 H1535 0.930 . S
C1550 C1545 1.390 . S
C1550 C1549 1.387 . S
H1551 C1563 0.930 . S
H1552 C1565 0.930 . S
H1553 C1566 0.930 . S
H1554 C1570 0.959 . S
H1555 C1570 0.959 . S
H1556 C1570 0.961 . S
H1557 C1571 0.960 . S
H1558 C1571 0.961 . S
H1559 C1571 0.959 . S
H1560 C1574 0.929 . S
H1561 C1575 0.931 . S
H1562 C1577 0.930 . S
C1563 H1551 0.930 . S
C1563 C1564 1.399 . S
C1563 C1568 1.399 . S
C1564 C1563 1.399 . S
C1564 C1565 1.376 . S
C1565 H1552 0.930 . S
C1565 C1564 1.376 . S
C1565 C1566 1.388 . S
C1566 H1553 0.930 . S
C1566 C1565 1.388 . S
C1566 C1567 1.390 . S
C1567 C1566 1.390 . S
C1567 C1568 1.394 . S
C1567 C1573 1.465 . S
C1568 C1563 1.399 . S
C1568 C1567 1.394 . S
C1568 C1569 1.516 . S
C1569 C1568 1.516 . S
C1569 C1570 1.502 . S
C1569 C1571 1.561 . S
C1569 C1572 1.526 . S
C1570 H1554 0.959 . S
C1570 H1555 0.959 . S
C1570 H1556 0.961 . S
C1570 C1569 1.502 . S
C1571 H1557 0.960 . S
C1571 H1558 0.961 . S
C1571 H1559 0.959 . S
C1571 C1569 1.561 . S
C1572 C1569 1.526 . S
C1572 C1573 1.396 . S
C1572 C1577 1.390 . S
C1573 C1567 1.465 . S
C1573 C1572 1.396 . S
C1573 C1574 1.399 . S
C1574 H1560 0.929 . S
C1574 C1573 1.399 . S
C1574 C1575 1.385 . S
C1575 H1561 0.931 . S
C1575 C1574 1.385 . S
C1575 C1576 1.389 . S
C1576 C1575 1.389 . S
C1576 C1577 1.387 . S
C1577 H1562 0.930 . S
C1577 C1572 1.390 . S
C1577 C1576 1.387 . S
H1578 C1590 0.930 . S
H1579 C1592 0.930 . S
H1580 C1593 0.930 . S
H1581 C1597 0.959 . S
H1582 C1597 0.959 . S
H1583 C1597 0.961 . S
H1584 C1598 0.960 . S
H1585 C1598 0.961 . S
H1586 C1598 0.959 . S
H1587 C1601 0.929 . S
H1588 C1602 0.931 . S
H1589 C1604 0.930 . S
C1590 H1578 0.930 . S
C1590 C1591 1.399 . S
C1590 C1595 1.399 . S
C1591 C1590 1.399 . S
C1591 C1592 1.376 . S
C1592 H1579 0.930 . S
C1592 C1591 1.376 . S
C1592 C1593 1.388 . S
C1593 H1580 0.930 . S
C1593 C1592 1.388 . S
C1593 C1594 1.390 . S
C1594 C1593 1.390 . S
C1594 C1595 1.394 . S
C1594 C1600 1.465 . S
C1595 C1590 1.399 . S
C1595 C1594 1.394 . S
C1595 C1596 1.516 . S
C1596 C1595 1.516 . S
C1596 C1597 1.502 . S
C1596 C1598 1.561 . S
C1596 C1599 1.526 . S
C1597 H1581 0.959 . S
C1597 H1582 0.959 . S
C1597 H1583 0.961 . S
C1597 C1596 1.502 . S
C1598 H1584 0.960 . S
C1598 H1585 0.961 . S
C1598 H1586 0.959 . S
C1598 C1596 1.561 . S
C1599 C1596 1.526 . S
C1599 C1600 1.396 . S
C1599 C1604 1.390 . S
C1600 C1594 1.465 . S
C1600 C1599 1.396 . S
C1600 C1601 1.399 . S
C1601 H1587 0.929 . S
C1601 C1600 1.399 . S
C1601 C1602 1.385 . S
C1602 H1588 0.931 . S
C1602 C1601 1.385 . S
C1602 C1603 1.389 . S
C1603 C1602 1.389 . S
C1603 C1604 1.387 . S
C1604 H1589 0.930 . S
C1604 C1599 1.390 . S
C1604 C1603 1.387 . S
H1605 C1617 0.930 . S
H1606 C1619 0.930 . S
H1607 C1620 0.930 . S
H1608 C1624 0.959 . S
H1609 C1624 0.959 . S
H1610 C1624 0.961 . S
H1611 C1625 0.960 . S
H1612 C1625 0.961 . S
H1613 C1625 0.959 . S
H1614 C1628 0.929 . S
H1615 C1629 0.931 . S
H1616 C1631 0.930 . S
C1617 H1605 0.930 . S
C1617 C1618 1.399 . S
C1617 C1622 1.399 . S
C1618 C1617 1.399 . S
C1618 C1619 1.376 . S
C1619 H1606 0.930 . S
C1619 C1618 1.376 . S
C1619 C1620 1.388 . S
C1620 H1607 0.930 . S
C1620 C1619 1.388 . S
C1620 C1621 1.390 . S
C1621 C1620 1.390 . S
C1621 C1622 1.394 . S
C1621 C1627 1.465 . S
C1622 C1617 1.399 . S
C1622 C1621 1.394 . S
C1622 C1623 1.516 . S
C1623 C1622 1.516 . S
C1623 C1624 1.502 . S
C1623 C1625 1.561 . S
C1623 C1626 1.526 . S
C1624 H1608 0.959 . S
C1624 H1609 0.959 . S
C1624 H1610 0.961 . S
C1624 C1623 1.502 . S
C1625 H1611 0.960 . S
C1625 H1612 0.961 . S
C1625 H1613 0.959 . S
C1625 C1623 1.561 . S
C1626 C1623 1.526 . S
C1626 C1627 1.396 . S
C1626 C1631 1.390 . S
C1627 C1621 1.465 . S
C1627 C1626 1.396 . S
C1627 C1628 1.399 . S
C1628 H1614 0.929 . S
C1628 C1627 1.399 . S
C1628 C1629 1.385 . S
C1629 H1615 0.931 . S
C1629 C1628 1.385 . S
C1629 C1630 1.389 . S
C1630 C1629 1.389 . S
C1630 C1631 1.387 . S
C1631 H1616 0.930 . S
C1631 C1626 1.390 . S
C1631 C1630 1.387 . S
C349 C208 1.332 . S
C361 C11 1.307 . S
C376 C26 1.265 . S
C388 C215 1.158 . S
C403 C256 1.368 . S
C415 C32 1.373 . S
C430 C47 0.973 . S
C442 C187 0.946 . S
C457 C201 1.037 . S
C469 C61 0.921 . S
C484 C82 1.274 . S
C496 C222 1.245 . S
C511 C96 1.314 . S
C523 C263 1.342 . S
C538 C103 1.004 . S
C550 C194 1.236 . S
C565 C138 1.315 . S
C577 C123 1.341 . S
C592 C145 0.891 . S
C604 C131 1.068 . S
C619 C152 1.321 . S
C631 C165 1.312 . S
C646 C158 1.380 . S
C658 C116 1.344 . S
C673 C173 1.049 . S
C685 C54 1.253 . S
C700 C68 1.322 . S
C712 C235 1.331 . S
C727 C243 1.028 . S
C739 C19 0.867 . S
C754 C25 1.407 . S
C766 C299 1.290 . S
C781 C137 1.396 . S
C793 C5 1.122 . S
C808 C326 1.346 . S
C820 C46 1.312 . S
C835 C166 1.502 . S
C847 C40 1.518 . S
C862 C306 1.530 . S
C874 C102 1.457 . S
C889 C130 1.421 . S
C901 C88 1.400 . S
C916 C81 1.386 . S
C928 C333 1.383 . S
C943 C67 1.385 . S
C955 C159 1.199 . S
C970 C221 1.331 . S
C982 C277 1.373 . S
C997 C236 1.529 . S
C1009 C214 1.461 . S
C1024 C193 1.424 . S
C1036 C229 1.136 . S
C1051 C270 1.330 . S
C1063 C186 1.287 . S
C1078 C33 1.275 . S
C1090 C291 1.383 . S
C1105 C151 1.386 . S
C1117 C109 1.371 . S
C1132 C12 1.507 . S
C1144 C320 1.489 . S
C1159 C278 1.326 . S
C1171 C39 1.318 . S
C1186 C4 1.328 . S
C1198 C228 1.370 . S
C1213 C271 0.985 . S
C1225 C89 1.000 . S
C1240 C180 1.274 . S
C1252 C110 1.240 . S
C1267 C75 1.004 . S
C1279 C250 1.236 . S
C1294 C305 1.342 . S
C1306 C292 1.314 . S
C1321 C327 0.939 . S
C1333 C285 1.018 . S
C1348 C319 1.338 . S
C1360 C334 1.314 . S
C1375 C298 1.345 . S
C1387 C312 1.341 . S
C1402 C117 1.224 . S
C1414 C53 1.424 . S
C1429 C18 1.281 . S
C1441 C144 1.323 . S
C1456 C74 1.505 . S
C1468 C124 1.510 . S
C1483 C284 1.422 . S
C1495 C60 1.400 . S
C1510 C95 1.383 . S
C1522 C313 1.220 . S
C1537 C179 1.375 . S
C1549 C207 1.387 . S
C1564 C264 1.532 . S
C1576 C172 1.449 . S
C1591 C249 1.407 . S
C1603 C257 1.291 . S
C1618 C200 1.339 . S
C1630 C242 1.298 . S
