# Generated by pormake.
# Topology sxb, (6)-cn, num edge types: 1
# Building blocks:
#     Node 0, Type 0, BuildingBlock: VOLQOD_clean_sbu_1, # of connection points: 6
#     Node 1, Type 0, BuildingBlock: VOLQOD_clean_sbu_1, # of connection points: 6
#     Node 2, Type 0, BuildingBlock: VOLQOD_clean_sbu_1, # of connection points: 6
#     Node 3, Type 0, BuildingBlock: VOLQOD_clean_sbu_1, # of connection points: 6
#     Edge 4, Type (0, 0), BuildingBlock: FUNLAD_clean_linker_1, # of connection points: 2
#     Edge 5, Type (0, 0), BuildingBlock: FUNLAD_clean_linker_1, # of connection points: 2
#     Edge 6, Type (0, 0), BuildingBlock: FUNLAD_clean_linker_1, # of connection points: 2
#     Edge 7, Type (0, 0), BuildingBlock: FUNLAD_clean_linker_1, # of connection points: 2
#     Edge 8, Type (0, 0), BuildingBlock: FUNLAD_clean_linker_1, # of connection points: 2
#     Edge 9, Type (0, 0), BuildingBlock: FUNLAD_clean_linker_1, # of connection points: 2
#     Edge 10, Type (0, 0), BuildingBlock: FUNLAD_clean_linker_1, # of connection points: 2
#     Edge 11, Type (0, 0), BuildingBlock: FUNLAD_clean_linker_1, # of connection points: 2
#     Edge 12, Type (0, 0), BuildingBlock: FUNLAD_clean_linker_1, # of connection points: 2
#     Edge 13, Type (0, 0), BuildingBlock: FUNLAD_clean_linker_1, # of connection points: 2
#     Edge 14, Type (0, 0), BuildingBlock: FUNLAD_clean_linker_1, # of connection points: 2
#     Edge 15, Type (0, 0), BuildingBlock: FUNLAD_clean_linker_1, # of connection points: 2
# Relax obj value: 0.285
# Max RMSD: 0.223
# Mean RMSD: 0.222
data_MOF--net-sxb--node1-VOLQOD_clean_sbu_1--edge1-FUNLAD_clean_linker_1
_symmetry_space_group_name_H-M    P1
_symmetry_Int_Tables_number       1
_symmetry_cell_setting            triclinic
loop_
_symmetry_equiv_pos_as_xyz
'x, y, z'
_cell_length_a     16.029915
_cell_length_b     31.329422
_cell_length_c     35.339444
_cell_angle_alpha  90.7609
_cell_angle_beta   90.485443
_cell_angle_gamma 90.205263
loop_
_atom_site_label
_atom_site_type_symbol
_atom_site_fract_x
_atom_site_fract_y
_atom_site_fract_z
_atom_type_partial_charge
O0 O 0.92491 0.96067 0.92181 0.0
Zn1 Zn 0.90268 0.94399 0.97543 0.0
O2 O 0.93726 0.99047 0.01008 0.0
Zn3 Zn 0.00996 0.96693 0.04827 0.0
Zn4 Zn -0.00994 0.03761 0.98266 0.0
Zn5 Zn 0.84354 0.01328 0.0368 0.0
O6 O 0.97106 0.97565 0.10179 0.0
O7 O 0.86022 0.01649 0.09308 0.0
O8 O 0.96716 0.88983 0.9852 0.0
O9 O 0.03803 0.90537 0.0379 0.0
O10 O 0.11673 -0.00345 0.04479 0.0
O11 O 0.11281 0.04223 0.99726 0.0
O12 O 0.93019 0.09426 0.99177 0.0
O13 O 0.77993 0.93029 0.98087 0.0
O14 O 0.81458 0.07182 0.01971 0.0
O15 O 0.74764 0.97565 0.02741 0.0
C16 C 0.95582 0.99372 0.90667 0.0
C17 C 0.91204 -0.00166 0.11488 0.0
C18 C 0.15195 0.02385 0.02399 0.0
C19 C 0.01825 0.87947 0.01122 0.0
C20 C 0.85718 0.10116 0.00455 0.0
C21 C 0.72882 0.94502 0.00503 0.0
O22 O -0.01752 0.02543 0.92635 0.0
O23 O 0.95474 0.97231 0.42825 0.0
Zn24 Zn -0.0275 0.96509 0.48392 0.0
O25 O 0.9433 0.01725 0.51149 0.0
Zn26 Zn 0.03323 0.03243 0.54597 0.0
Zn27 Zn 0.91974 0.06277 0.47511 0.0
Zn28 Zn 0.84747 0.00807 0.543 0.0
O29 O 0.00289 0.0292 0.60106 0.0
O30 O 0.86491 0.02475 0.59758 0.0
O31 O 0.09611 0.95361 0.48887 0.0
O32 O 0.13387 -0.00274 0.53615 0.0
O33 O 0.06862 0.09211 0.5357 0.0
O34 O -0.00777 0.1149 0.48701 0.0
O35 O 0.79535 0.0762 0.47386 0.0
O36 O 0.90062 0.9154 0.50025 0.0
O37 O 0.75038 0.03852 0.52238 0.0
O38 O 0.81375 0.94673 0.54073 0.0
C39 C 0.94941 0.00505 0.40753 0.0
C40 C 0.93181 0.02902 0.6168 0.0
C41 C 0.04928 0.12071 0.51205 0.0
C42 C 0.15112 0.96883 0.51154 0.0
C43 C 0.7364 0.0631 0.49476 0.0
C44 C 0.8387 0.91392 0.52267 0.0
O45 O 0.94295 0.04251 0.42167 0.0
O46 O 0.51953 0.47345 0.91939 0.0
Zn47 Zn 0.50059 0.46336 0.97459 0.0
O48 O 0.52839 0.51453 0.00469 0.0
Zn49 Zn 0.61878 0.50153 0.03961 0.0
Zn50 Zn 0.55992 0.56073 0.97059 0.0
Zn51 Zn 0.43438 0.53271 0.03461 0.0
O52 O 0.59244 0.51498 0.0942 0.0
O53 O 0.45907 0.53332 0.09028 0.0
O54 O 0.57126 0.41273 0.98961 0.0
O55 O 0.64984 0.43965 0.03627 0.0
O56 O 0.72112 0.53179 0.0235 0.0
O57 O 0.68491 0.56949 0.97312 0.0
O58 O 0.49633 0.61556 0.98184 0.0
O59 O 0.37776 0.44956 0.97909 0.0
O60 O 0.39979 0.59203 0.0213 0.0
O61 O 0.33706 0.4948 0.02439 0.0
C62 C 0.52693 0.50733 0.90029 0.0
C63 C 0.52454 0.52636 0.10971 0.0
C64 C 0.74006 0.55568 0.99599 0.0
C65 C 0.62803 0.40867 0.01477 0.0
C66 C 0.43079 0.62157 0.00137 0.0
C67 C 0.32216 0.46443 0.00111 0.0
O68 O 0.53596 0.54382 0.91617 0.0
O69 O 0.50398 0.46698 0.41982 0.0
Zn70 Zn 0.50693 0.45699 0.47592 0.0
O71 O 0.47531 0.50921 0.50337 0.0
Zn72 Zn 0.56348 0.52648 0.53742 0.0
Zn73 Zn 0.452 0.5544 0.46736 0.0
Zn74 Zn 0.37789 0.49983 0.53375 0.0
O75 O 0.53598 0.51858 0.59236 0.0
O76 O 0.39897 0.50839 0.58952 0.0
O77 O 0.62762 0.44225 0.48522 0.0
O78 O 0.66568 0.49533 0.52399 0.0
O79 O 0.59092 0.58783 0.53009 0.0
O80 O 0.50936 0.60989 0.48302 0.0
O81 O 0.32776 0.56212 0.4626 0.0
O82 O 0.42926 0.40791 0.4873 0.0
O83 O 0.28454 0.53733 0.51777 0.0
O84 O 0.33664 0.44001 0.52459 0.0
C85 C 0.50338 0.50082 0.40032 0.0
C86 C 0.46597 0.51374 0.60851 0.0
C87 C 0.56511 0.61699 0.50832 0.0
C88 C 0.68348 0.46314 0.50338 0.0
C89 C 0.27063 0.5561 0.48673 0.0
C90 C 0.36222 0.40732 0.50644 0.0
O91 O 0.49052 0.53737 0.41533 0.0
H92 H 0.42185 0.69048 0.98846 0.0
C93 C 0.38928 0.66363 0.0008 0.0
H94 H 0.27958 0.64211 0.02724 0.0
H95 H 0.14351 0.81233 0.09413 0.0
H96 H 0.18446 0.77495 0.15081 0.0
H97 H 0.2658 0.70839 0.14682 0.0
H98 H 0.30618 0.67871 0.0861 0.0
C99 C 0.31185 0.66888 0.01459 0.0
C100 C 0.26926 0.71107 0.01628 0.0
C101 C 0.24732 0.7285 0.05207 0.0
C102 C 0.20204 0.76739 0.0544 0.0
C103 C 0.17938 0.78339 0.09059 0.0
C104 C 0.2022 0.76216 0.12344 0.0
C105 C 0.24782 0.72466 0.12119 0.0
C106 C 0.2703 0.70789 0.08607 0.0
H107 H 0.02908 0.8122 0.99213 0.0
C108 C 0.05887 0.83733 0.00894 0.0
H109 H 0.1648 0.85611 0.04082 0.0
H110 H 0.29423 0.68477 0.94281 0.0
H111 H 0.25949 0.72371 0.88628 0.0
H112 H 0.19158 0.79408 0.89045 0.0
H113 H 0.15615 0.82525 0.95105 0.0
C114 C 0.13477 0.8308 0.02429 0.0
C115 C 0.17951 0.78925 0.02096 0.0
C116 C 0.20309 0.77231 0.98509 0.0
C117 C 0.24623 0.73268 0.98273 0.0
C118 C 0.26447 0.71538 0.94651 0.0
C119 C 0.2445 0.73734 0.91369 0.0
C120 C 0.20601 0.77687 0.91603 0.0
C121 C 0.18547 0.79429 0.95116 0.0
H122 H 0.72081 0.36616 0.0407 0.0
C123 C 0.67378 0.36816 0.01844 0.0
H124 H 0.61941 0.33723 0.97084 0.0
H125 H 0.91358 0.21148 0.93627 0.0
H126 H 0.92047 0.25905 0.88282 0.0
H127 H 0.83583 0.3246 0.88113 0.0
H128 H 0.74283 0.34267 0.9326 0.0
C129 C 0.66305 0.33498 0.99442 0.0
C130 C 0.71706 0.29643 0.99672 0.0
C131 C 0.77203 0.28658 0.96659 0.0
C132 C 0.82226 0.24923 0.96794 0.0
C133 C 0.87486 0.23966 0.93699 0.0
C134 C 0.87943 0.26671 0.90609 0.0
C135 C 0.83169 0.30358 0.90511 0.0
C136 C 0.77836 0.3135 0.93484 0.0
H137 H 0.75156 0.14533 0.00627 0.0
C138 C 0.81873 0.14368 0.00239 0.0
H139 H 0.92939 0.17927 0.995 0.0
H140 H 0.61443 0.3037 0.05835 0.0
H141 H 0.61915 0.26066 0.11475 0.0
H142 H 0.71949 0.20151 0.12045 0.0
H143 H 0.81367 0.18428 0.06918 0.0
C144 C 0.86225 0.1801 0.9989 0.0
C145 C 0.81842 0.22213 0.99968 0.0
C146 C 0.76837 0.23388 0.03112 0.0
C147 C 0.71498 0.26994 0.02897 0.0
C148 C 0.65974 0.27826 0.05926 0.0
C149 C 0.66128 0.25356 0.09175 0.0
C150 C 0.71742 0.22013 0.09488 0.0
C151 C 0.77052 0.2103 0.06505 0.0
H152 H 0.14821 0.16223 0.53484 0.0
C153 C 0.099 0.16023 0.51348 0.0
H154 H 0.04363 0.19047 0.46654 0.0
H155 H 0.28909 0.32627 0.56847 0.0
H156 H 0.19171 0.31598 0.61966 0.0
H157 H 0.0699 0.26827 0.61143 0.0
H158 H 0.04703 0.22933 0.55244 0.0
C159 C 0.08983 0.19242 0.48918 0.0
C160 C 0.14945 0.22905 0.49066 0.0
C161 C 0.1577 0.25427 0.52414 0.0
C162 C 0.22347 0.28458 0.52769 0.0
C163 C 0.23631 0.3054 0.56314 0.0
C164 C 0.18147 0.29936 0.59296 0.0
C165 C 0.11323 0.27232 0.58841 0.0
C166 C 0.10126 0.24989 0.55451 0.0
H167 H 0.24291 0.374 0.51257 0.0
C168 C 0.30814 0.36935 0.50572 0.0
H169 H 0.39997 0.32457 0.49019 0.0
H170 H 0.15187 0.18585 0.42274 0.0
H171 H 0.24397 0.19929 0.3702 0.0
H172 H 0.34957 0.25666 0.37407 0.0
H173 H 0.36479 0.30037 0.43074 0.0
C174 C 0.3351 0.32982 0.49754 0.0
C175 C 0.27524 0.29318 0.49621 0.0
C176 C 0.26584 0.26861 0.4624 0.0
C177 C 0.20349 0.23619 0.45979 0.0
C178 C 0.19721 0.21128 0.42613 0.0
C179 C 0.24975 0.21863 0.3957 0.0
C180 C 0.30926 0.25089 0.39791 0.0
C181 C 0.31737 0.27575 0.43071 0.0
H182 H 0.73255 0.87644 0.54297 0.0
C183 C 0.78827 0.87482 0.52565 0.0
H184 H 0.85722 0.83762 0.48694 0.0
H185 H 0.57703 0.70972 0.5714 0.0
H186 H 0.6432 0.72963 0.63116 0.0
H187 H 0.7604 0.78093 0.63317 0.0
H188 H 0.80953 0.81385 0.5758 0.0
C189 C 0.8039 0.83907 0.5057 0.0
C190 C 0.74228 0.80336 0.50439 0.0
C191 C 0.71918 0.78202 0.53792 0.0
C192 C 0.65673 0.74975 0.53639 0.0
C193 C 0.62833 0.73223 0.57073 0.0
C194 C 0.66515 0.74369 0.60524 0.0
C195 C 0.73077 0.77274 0.60639 0.0
C196 C 0.75782 0.79173 0.57323 0.0
H197 H 0.66691 0.65954 0.52602 0.0
C198 C 0.60673 0.65872 0.51156 0.0
H199 H 0.51491 0.69475 0.48343 0.0
H200 H 0.76411 0.84123 0.4356 0.0
H201 H 0.70072 0.81949 0.37592 0.0
H202 H 0.60356 0.75832 0.37236 0.0
H203 H 0.5678 0.71916 0.42857 0.0
C204 C 0.57472 0.69508 0.49812 0.0
C205 C 0.62417 0.73549 0.50089 0.0
C206 C 0.6457 0.75743 0.46751 0.0
C207 C 0.70381 0.79185 0.46937 0.0
C208 C 0.72207 0.81415 0.43578 0.0
C209 C 0.68589 0.80211 0.40129 0.0
C210 C 0.6311 0.76772 0.39929 0.0
C211 C 0.61112 0.74548 0.43187 0.0
H212 H 0.27788 0.03762 0.00224 0.0
C213 C 0.24339 0.0266 0.02661 0.0
H214 H 0.24859 0.99465 0.07899 0.0
H215 H 0.64502 0.9902 0.0843 0.0
H216 H 0.62861 0.05654 0.11878 0.0
H217 H 0.49163 0.09194 0.12225 0.0
H218 H 0.37027 0.06091 0.09067 0.0
C219 C 0.28269 0.00568 0.0545 0.0
C220 C 0.36585 0.98676 0.04919 0.0
C221 C 0.43563 0.00503 0.06791 0.0
C222 C 0.51412 0.98441 0.06595 0.0
C223 C 0.58341 0.00394 0.08463 0.0
C224 C 0.57495 0.04224 0.10469 0.0
C225 C 0.49789 0.06216 0.10666 0.0
C226 C 0.42879 0.04394 0.08851 0.0
H227 H 0.60557 0.93381 0.98021 0.0
C228 C 0.6426 0.92998 0.00583 0.0
H229 H 0.64488 0.92311 0.0647 0.0
H230 H 0.24184 0.94173 0.01165 0.0
H231 H 0.25737 0.8751 0.97747 0.0
H232 H 0.39274 0.83802 0.97561 0.0
H233 H 0.51472 0.86894 0.00689 0.0
C234 C 0.60588 0.92703 0.03967 0.0
C235 C 0.52197 0.94546 0.04508 0.0
C236 C 0.45141 0.92654 0.0273 0.0
C237 C 0.37311 0.94735 0.02914 0.0
C238 C 0.3033 0.92774 0.01108 0.0
C239 C 0.3111 0.8891 0.99156 0.0
C240 C 0.38743 0.8684 0.99034 0.0
C241 C 0.45697 0.88666 0.00813 0.0
H242 H 0.28142 0.96136 0.52862 0.0
C243 C 0.23981 0.96198 0.50415 0.0
H244 H 0.22851 0.97861 0.44676 0.0
H245 H 0.50357 0.11939 0.48688 0.0
H246 H 0.37966 0.1627 0.4769 0.0
H247 H 0.24343 0.1288 0.4631 0.0
H248 H 0.22987 0.05178 0.45898 0.0
C249 C 0.27067 0.97332 0.4705 0.0
C250 C 0.35477 0.99322 0.46941 0.0
C251 C 0.36181 0.03846 0.47028 0.0
C252 C 0.44022 0.05805 0.47831 0.0
C253 C 0.44528 0.1031 0.48075 0.0
C254 C 0.37479 0.12824 0.47509 0.0
C255 C 0.29805 0.10918 0.46729 0.0
C256 C 0.29117 0.06486 0.465 0.0
H257 H 0.63679 0.07711 0.45303 0.0
C258 C 0.64888 0.0678 0.48208 0.0
H259 H 0.60031 0.04039 0.53142 0.0
H260 H 0.36395 0.90656 0.46254 0.0
H261 H 0.48911 0.86333 0.46932 0.0
H262 H 0.62556 0.89713 0.48283 0.0
H263 H 0.63797 0.97413 0.4898 0.0
C264 C 0.58737 0.05069 0.50271 0.0
C265 C 0.51086 0.0323 0.48512 0.0
C266 C 0.50526 0.98727 0.48049 0.0
C267 C 0.42691 0.96772 0.47267 0.0
C268 C 0.42231 0.92275 0.46884 0.0
C269 C 0.49353 0.89769 0.47252 0.0
C270 C 0.57039 0.91672 0.48015 0.0
C271 C 0.57656 0.96095 0.4842 0.0
H272 H 0.84336 0.57018 0.9573 0.0
C273 C 0.82859 0.55858 0.98533 0.0
H274 H 0.87115 0.52467 0.0328 0.0
H275 H 0.10324 0.39546 0.95558 0.0
H276 H -0.01949 0.35127 0.96651 0.0
H277 H 0.84786 0.38395 0.98643 0.0
H278 H 0.83655 0.4606 0.99544 0.0
C279 C 0.88674 0.53766 0.00536 0.0
C280 C 0.96198 0.51971 0.98715 0.0
C281 C 0.96653 0.47481 0.98126 0.0
C282 C 0.04261 0.45592 0.9697 0.0
C283 C 0.04657 0.41109 0.96468 0.0
C284 C -0.02327 0.38551 0.97068 0.0
C285 C 0.90197 0.40391 0.98186 0.0
C286 C 0.8965 0.44798 0.98711 0.0
H287 H 0.19651 0.45162 0.0207 0.0
C288 C 0.23449 0.45302 0.99536 0.0
H289 H 0.23554 0.4685 0.9376 0.0
H290 H 0.97162 0.60692 0.99266 0.0
H291 H 0.09197 0.65087 0.97785 0.0
H292 H 0.22241 0.6179 0.95538 0.0
H293 H 0.23417 0.54125 0.94837 0.0
C294 C 0.19756 0.46262 0.96237 0.0
C295 C 0.11332 0.48191 0.96383 0.0
C296 C 0.10646 0.52705 0.96605 0.0
C297 C 0.0308 0.54603 0.97827 0.0
C298 C 0.02715 0.59097 0.98273 0.0
C299 C 0.09579 0.61654 0.97445 0.0
C300 C 0.16933 0.59803 0.96192 0.0
C301 C 0.1752 0.55387 0.95797 0.0
H302 H 0.14061 0.57365 0.49538 0.0
C303 C 0.18325 0.55909 0.47525 0.0
H304 H 0.19673 0.51137 0.43304 0.0
H305 H 0.9064 0.4344 0.5394 0.0
H306 H 0.02779 0.40533 0.57144 0.0
H307 H 0.16965 0.42331 0.55054 0.0
H308 H 0.19112 0.46906 0.49628 0.0
C309 C 0.15386 0.52968 0.45051 0.0
C310 C 0.06998 0.51131 0.45663 0.0
C311 C 0.05883 0.48143 0.48607 0.0
C312 C -0.02273 0.47089 0.49808 0.0
C313 C 0.96732 0.44324 0.52909 0.0
C314 C 0.03637 0.42629 0.54766 0.0
C315 C 0.11632 0.43627 0.53574 0.0
C316 C 0.12779 0.46303 0.505 0.0
H317 H 0.78918 0.42762 0.47806 0.0
C318 C 0.77148 0.45615 0.49383 0.0
H319 H 0.8066 0.51846 0.51161 0.0
H320 H 0.07162 0.56276 0.39494 0.0
H321 H 0.94981 0.58944 0.36107 0.0
H322 H 0.80759 0.57 0.38108 0.0
H323 H 0.78617 0.52393 0.43508 0.0
C324 C 0.82572 0.48862 0.4983 0.0
C325 C 0.90782 0.48944 0.47993 0.0
C326 C 0.91886 0.51551 0.44786 0.0
C327 C 0.00046 0.52658 0.43621 0.0
C328 C 0.01045 0.55361 0.40483 0.0
C329 C 0.94125 0.56899 0.38519 0.0
C330 C 0.86114 0.55805 0.39647 0.0
C331 C 0.84967 0.53174 0.42752 0.0
H332 H 0.95731 0.96595 0.35552 0.0
C333 C 0.95011 -0.00156 0.36622 0.0
H334 H 0.93574 0.06323 0.35146 0.0
H335 H 0.09149 0.03301 0.18867 0.0
H336 H 0.19976 0.07552 0.21941 0.0
H337 H 0.19201 0.09358 0.28745 0.0
H338 H 0.07557 0.06947 0.32511 0.0
C339 C 0.94079 0.03035 0.34159 0.0
C340 C 0.94247 0.02152 0.30016 0.0
C341 C 0.01102 0.03579 0.27862 0.0
C342 C 0.016 0.02489 0.23952 0.0
C343 C 0.08492 0.03989 0.21858 0.0
C344 C 0.14751 0.0644 0.23585 0.0
C345 C 0.14311 0.0746 0.27415 0.0
C346 C 0.07588 0.06055 0.29543 0.0
H347 H 0.85327 0.02526 0.16601 0.0
C348 C 0.90398 0.00522 0.156 0.0
H349 H 0.01098 0.97014 0.17151 0.0
H350 H 0.79687 0.99409 0.33208 0.0
H351 H 0.69043 0.94981 0.30197 0.0
H352 H 0.70426 0.92627 0.23542 0.0
H353 H 0.82374 0.94752 0.19846 0.0
C354 C 0.95808 0.98887 0.18109 0.0
C355 C 0.95246 -0.00033 0.2221 0.0
C356 C 0.88371 0.98543 0.24366 0.0
C357 C 0.87773 -0.00273 0.28252 0.0
C358 C 0.80628 0.98457 0.3029 0.0
C359 C 0.7444 0.95938 0.28589 0.0
C360 C 0.75202 0.94627 0.24839 0.0
C361 C 0.82074 0.95898 0.22741 0.0
H362 H 0.9592 0.96402 0.85003 0.0
C363 C 0.96082 0.99447 0.86516 0.0
H364 H 0.96337 0.06151 0.86057 0.0
H365 H 0.11187 0.07049 0.69664 0.0
H366 H 0.21365 0.11016 0.7341 0.0
H367 H 0.20469 0.11298 0.80372 0.0
H368 H 0.09308 0.07678 0.83624 0.0
C369 C 0.96218 0.03097 0.84564 0.0
C370 C 0.96539 0.03052 0.80345 0.0
C371 C 0.03226 0.05113 0.78494 0.0
C372 C 0.03884 0.04845 0.74484 0.0
C373 C 0.10473 0.07056 0.72704 0.0
C374 C 0.16359 0.0936 0.74821 0.0
C375 C 0.15847 0.09525 0.78739 0.0
C376 C 0.09383 0.07433 0.8057 0.0
H377 H 0.86686 0.04393 0.66998 0.0
C378 C 0.92574 0.03322 0.65818 0.0
H379 H 0.04678 0.01043 0.6697 0.0
H380 H 0.81727 -0.00308 0.8282 0.0
H381 H 0.72142 0.95239 0.79169 0.0
H382 H 0.74743 0.93644 0.72426 0.0
H383 H 0.8669 0.96665 0.69269 0.0
C384 C -0.01201 0.02135 0.68142 0.0
C385 C -0.01988 0.024 0.7234 0.0
C386 C 0.91427 0.00256 0.74209 0.0
C387 C 0.90402 0.00808 0.78175 0.0
C388 C 0.8318 0.99091 0.7988 0.0
C389 C 0.77571 0.96567 0.77806 0.0
C390 C 0.79001 0.95696 0.74007 0.0
C391 C 0.85842 0.97501 0.72217 0.0
H392 H 0.52998 0.46526 0.34761 0.0
C393 C 0.51838 0.49692 0.35938 0.0
H394 H 0.50846 0.56273 0.34776 0.0
H395 H 0.70643 0.55776 0.19481 0.0
H396 H 0.80266 0.59703 0.23573 0.0
H397 H 0.77762 0.60337 0.30437 0.0
H398 H 0.65553 0.57107 0.3324 0.0
C399 C 0.51722 0.53068 0.33637 0.0
C400 C 0.53302 0.5256 0.29515 0.0
C401 C 0.60525 0.54425 0.27931 0.0
C402 C 0.6206 0.53983 0.23987 0.0
C403 C 0.69223 0.55963 0.22465 0.0
C404 C 0.748 0.5823 0.24782 0.0
C405 C 0.73385 0.58593 0.28646 0.0
C406 C 0.6634 0.56726 0.30217 0.0
H407 H 0.46281 0.54468 0.16276 0.0
C408 C 0.51902 0.53047 0.15114 0.0
H409 H 0.63368 0.50049 0.16382 0.0
H410 H 0.38344 0.4897 0.31536 0.0
H411 H 0.29391 0.44527 0.27567 0.0
H412 H 0.32996 0.43018 0.20911 0.0
H413 H 0.45435 0.46062 0.18164 0.0
C414 C 0.57677 0.51457 0.17478 0.0
C415 C 0.5643 0.51624 0.21649 0.0
C416 C 0.49442 0.49564 0.23277 0.0
C417 C 0.47688 0.50179 0.2718 0.0
C418 C 0.4025 0.48413 0.28645 0.0
C419 C 0.35006 0.45881 0.26389 0.0
C420 C 0.3701 0.4505 0.22638 0.0
C421 C 0.44134 0.46857 0.21086 0.0
H422 H 0.39965 0.52075 0.66253 0.0
C423 C 0.46076 0.51602 0.65006 0.0
H424 H 0.58951 0.50814 0.6603 0.0
H425 H 0.61408 0.59454 0.8206 0.0
H426 H 0.70376 0.63939 0.78316 0.0
H427 H 0.70989 0.63034 0.71382 0.0
H428 H 0.62752 0.57587 0.6816 0.0
C429 C 0.52818 0.51246 0.67263 0.0
C430 C 0.52245 0.51807 0.7145 0.0
C431 C 0.5695 0.55091 0.73281 0.0
C432 C 0.56405 0.557 0.77268 0.0
C433 C 0.61422 0.589 0.79034 0.0
C434 C 0.66623 0.61499 0.76918 0.0
C435 C 0.6698 0.60984 0.73016 0.0
C436 C 0.62222 0.57828 0.71204 0.0
H437 H 0.53898 0.47209 0.84641 0.0
C438 C 0.52637 0.50335 0.85877 0.0
H439 H 0.49532 0.56748 0.84822 0.0
H440 H 0.43524 0.44697 0.69013 0.0
H441 H 0.3356 0.40652 0.72645 0.0
H442 H 0.30876 0.42501 0.79332 0.0
H443 H 0.38417 0.48286 0.82456 0.0
C444 C 0.50802 0.53614 0.83608 0.0
C445 C 0.5096 0.53113 0.79406 0.0
C446 C 0.45943 0.49969 0.77544 0.0
C447 C 0.46925 0.4916 0.73605 0.0
C448 C 0.42575 0.45664 0.71925 0.0
C449 C 0.36896 0.4328 0.73989 0.0
C450 C 0.35426 0.44302 0.77758 0.0
C451 C 0.39871 0.47604 0.79528 0.0
loop_
_geom_bond_atom_site_label_1
_geom_bond_atom_site_label_2
_geom_bond_distance
_geom_bond_site_symmetry_2
_ccdc_geom_bond_type
O0 Zn1 1.953 . S
O0 C16 1.225 1_665 S
Zn1 O0 1.953 . S
Zn1 O2 1.949 1_666 S
Zn1 O8 1.919 1_655 S
Zn1 O13 1.924 . S
O2 Zn1 1.949 1_444 S
O2 Zn3 1.923 1_545 S
O2 Zn4 1.950 1_554 S
O2 Zn5 1.945 1_455 S
Zn3 O2 1.923 1_565 S
Zn3 O6 1.933 1_565 S
Zn3 O9 1.941 . S
Zn3 O10 1.965 1_565 S
Zn4 O2 1.950 1_556 S
Zn4 O11 1.938 . S
Zn4 O12 1.906 . S
Zn4 O22 1.953 . S
Zn5 O2 1.945 1_655 S
Zn5 O7 1.932 . S
Zn5 O14 1.977 . S
Zn5 O15 1.910 . S
O6 Zn3 1.933 1_545 S
O6 C17 1.226 . S
O7 Zn5 1.932 . S
O7 C17 1.307 1_655 S
O8 Zn1 1.919 1_455 S
O8 C19 1.253 1_556 S
O9 Zn3 1.941 . S
O9 C19 1.283 . S
O10 Zn3 1.965 1_545 S
O10 C18 1.303 1_554 S
O11 Zn4 1.938 . S
O11 C18 1.247 . S
O12 Zn4 1.906 . S
O12 C20 1.304 1_456 S
O13 Zn1 1.924 . S
O13 C21 1.311 . S
O14 Zn5 1.977 . S
O14 C20 1.272 . S
O15 Zn5 1.910 . S
O15 C21 1.231 1_544 S
C16 O0 1.225 1_445 S
C16 O22 1.298 . S
C17 O6 1.226 . S
C17 O7 1.307 1_455 S
C18 O10 1.303 1_556 S
C18 O11 1.247 . S
C19 O8 1.253 1_554 S
C19 O9 1.283 . S
C20 O12 1.304 1_654 S
C20 O14 1.272 . S
C21 O13 1.311 . S
C21 O15 1.231 1_566 S
O22 Zn4 1.953 . S
O22 C16 1.298 . S
O23 Zn24 1.953 . S
O23 C39 1.225 1_565 S
Zn24 O23 1.953 . S
Zn24 O25 1.949 1_565 S
Zn24 O31 1.919 . S
Zn24 O36 1.924 . S
O25 Zn24 1.949 1_545 S
O25 Zn26 1.923 . S
O25 Zn27 1.950 1_455 S
O25 Zn28 1.945 1_445 S
Zn26 O25 1.923 . S
Zn26 O29 1.933 . S
Zn26 O32 1.941 . S
Zn26 O33 1.965 . S
Zn27 O25 1.950 1_655 S
Zn27 O34 1.938 . S
Zn27 O35 1.906 . S
Zn27 O45 1.953 . S
Zn28 O25 1.945 1_665 S
Zn28 O30 1.932 . S
Zn28 O37 1.977 . S
Zn28 O38 1.910 . S
O29 Zn26 1.933 . S
O29 C40 1.226 . S
O30 Zn28 1.932 . S
O30 C40 1.307 1_665 S
O31 Zn24 1.919 . S
O31 C42 1.253 . S
O32 Zn26 1.941 . S
O32 C42 1.283 1_545 S
O33 Zn26 1.965 . S
O33 C41 1.303 . S
O34 Zn27 1.938 . S
O34 C41 1.247 1_655 S
O35 Zn27 1.906 . S
O35 C43 1.304 . S
O36 Zn24 1.924 . S
O36 C44 1.311 1_455 S
O37 Zn28 1.977 . S
O37 C43 1.272 1_565 S
O38 Zn28 1.910 . S
O38 C44 1.231 . S
C39 O23 1.225 1_545 S
C39 O45 1.298 1_455 S
C40 O29 1.226 . S
C40 O30 1.307 1_445 S
C41 O33 1.303 . S
C41 O34 1.247 1_455 S
C42 O31 1.253 . S
C42 O32 1.283 1_565 S
C43 O35 1.304 . S
C43 O37 1.272 1_545 S
C44 O36 1.311 1_655 S
C44 O38 1.231 . S
O45 Zn27 1.953 . S
O45 C39 1.298 1_655 S
O46 Zn47 1.953 . S
O46 C62 1.225 . S
Zn47 O46 1.953 . S
Zn47 O48 1.949 1_556 S
Zn47 O54 1.919 . S
Zn47 O59 1.924 . S
O48 Zn47 1.949 1_554 S
O48 Zn49 1.923 . S
O48 Zn50 1.950 1_554 S
O48 Zn51 1.945 . S
Zn49 O48 1.923 . S
Zn49 O52 1.933 . S
Zn49 O55 1.941 . S
Zn49 O56 1.965 . S
Zn50 O48 1.950 1_556 S
Zn50 O57 1.938 . S
Zn50 O58 1.906 . S
Zn50 O68 1.953 . S
Zn51 O48 1.945 . S
Zn51 O53 1.932 . S
Zn51 O60 1.977 . S
Zn51 O61 1.910 . S
O52 Zn49 1.933 . S
O52 C63 1.226 . S
O53 Zn51 1.932 . S
O53 C63 1.307 . S
O54 Zn47 1.919 . S
O54 C65 1.253 1_556 S
O55 Zn49 1.941 . S
O55 C65 1.283 . S
O56 Zn49 1.965 . S
O56 C64 1.303 1_554 S
O57 Zn50 1.938 . S
O57 C64 1.247 . S
O58 Zn50 1.906 . S
O58 C66 1.304 1_556 S
O59 Zn47 1.924 . S
O59 C67 1.311 . S
O60 Zn51 1.977 . S
O60 C66 1.272 . S
O61 Zn51 1.910 . S
O61 C67 1.231 1_554 S
C62 O46 1.225 . S
C62 O68 1.298 . S
C63 O52 1.226 . S
C63 O53 1.307 . S
C64 O56 1.303 1_556 S
C64 O57 1.247 . S
C65 O54 1.253 1_554 S
C65 O55 1.283 . S
C66 O58 1.304 1_554 S
C66 O60 1.272 . S
C67 O59 1.311 . S
C67 O61 1.231 1_556 S
O68 Zn50 1.953 . S
O68 C62 1.298 . S
O69 Zn70 1.953 . S
O69 C85 1.225 . S
Zn70 O69 1.953 . S
Zn70 O71 1.949 . S
Zn70 O77 1.919 . S
Zn70 O82 1.924 . S
O71 Zn70 1.949 . S
O71 Zn72 1.923 . S
O71 Zn73 1.950 . S
O71 Zn74 1.945 . S
Zn72 O71 1.923 . S
Zn72 O75 1.933 . S
Zn72 O78 1.941 . S
Zn72 O79 1.965 . S
Zn73 O71 1.950 . S
Zn73 O80 1.938 . S
Zn73 O81 1.906 . S
Zn73 O91 1.953 . S
Zn74 O71 1.945 . S
Zn74 O76 1.932 . S
Zn74 O83 1.977 . S
Zn74 O84 1.910 . S
O75 Zn72 1.933 . S
O75 C86 1.226 . S
O76 Zn74 1.932 . S
O76 C86 1.307 . S
O77 Zn70 1.919 . S
O77 C88 1.253 . S
O78 Zn72 1.941 . S
O78 C88 1.283 . S
O79 Zn72 1.965 . S
O79 C87 1.303 . S
O80 Zn73 1.938 . S
O80 C87 1.247 . S
O81 Zn73 1.906 . S
O81 C89 1.304 . S
O82 Zn70 1.924 . S
O82 C90 1.311 . S
O83 Zn74 1.977 . S
O83 C89 1.272 . S
O84 Zn74 1.910 . S
O84 C90 1.231 . S
C85 O69 1.225 . S
C85 O91 1.298 . S
C86 O75 1.226 . S
C86 O76 1.307 . S
C87 O79 1.303 . S
C87 O80 1.247 . S
C88 O77 1.253 . S
C88 O78 1.283 . S
C89 O81 1.304 . S
C89 O83 1.272 . S
C90 O82 1.311 . S
C90 O84 1.231 . S
O91 Zn73 1.953 . S
O91 C85 1.298 . S
H92 C93 0.951 . S
C93 H92 0.951 . S
C93 C99 1.265 . S
H94 C99 0.950 . S
H95 C103 0.949 . S
H96 C104 0.950 . S
H97 C105 0.951 . S
H98 C106 0.951 . S
C99 C93 1.265 . S
C99 H94 0.950 . S
C99 C100 1.478 . S
C100 C99 1.478 . S
C100 C101 1.397 . S
C100 C117 1.394 1_554 S
C101 C100 1.397 . S
C101 C102 1.438 . S
C101 C106 1.429 . S
C102 C101 1.438 . S
C102 C103 1.428 . S
C102 C115 1.394 . S
C103 H95 0.949 . S
C103 C102 1.428 . S
C103 C104 1.345 . S
C104 H96 0.950 . S
C104 C103 1.345 . S
C104 C105 1.424 . S
C105 H97 0.951 . S
C105 C104 1.424 . S
C105 C106 1.347 . S
C106 H98 0.951 . S
C106 C101 1.429 . S
C106 C105 1.347 . S
H107 C108 0.951 . S
C108 H107 0.951 . S
C108 C114 1.265 . S
H109 C114 0.950 . S
H110 C118 0.949 . S
H111 C119 0.950 . S
H112 C120 0.951 . S
H113 C121 0.951 . S
C114 C108 1.265 . S
C114 H109 0.950 . S
C114 C115 1.478 . S
C115 C102 1.394 . S
C115 C114 1.478 . S
C115 C116 1.397 1_554 S
C116 C115 1.397 1_556 S
C116 C117 1.438 . S
C116 C121 1.429 . S
C117 C100 1.394 1_556 S
C117 C116 1.438 . S
C117 C118 1.428 . S
C118 H110 0.949 . S
C118 C117 1.428 . S
C118 C119 1.345 . S
C119 H111 0.950 . S
C119 C118 1.345 . S
C119 C120 1.424 . S
C120 H112 0.951 . S
C120 C119 1.424 . S
C120 C121 1.347 . S
C121 H113 0.951 . S
C121 C116 1.429 . S
C121 C120 1.347 . S
H122 C123 0.951 . S
C123 H122 0.951 . S
C123 C129 1.265 . S
H124 C129 0.950 . S
H125 C133 0.949 . S
H126 C134 0.950 . S
H127 C135 0.951 . S
H128 C136 0.951 . S
C129 C123 1.265 . S
C129 H124 0.950 . S
C129 C130 1.478 . S
C130 C129 1.478 . S
C130 C131 1.397 . S
C130 C147 1.394 . S
C131 C130 1.397 . S
C131 C132 1.437 1_554 S
C131 C136 1.429 1_554 S
C132 C131 1.437 1_556 S
C132 C133 1.431 . S
C132 C145 1.391 1_556 S
C133 H125 0.949 . S
C133 C132 1.431 . S
C133 C134 1.345 . S
C134 H126 0.950 . S
C134 C133 1.345 . S
C134 C135 1.424 . S
C135 H127 0.951 . S
C135 C134 1.424 . S
C135 C136 1.347 . S
C136 H128 0.951 . S
C136 C131 1.429 1_556 S
C136 C135 1.347 . S
H137 C138 0.951 . S
C138 H137 0.951 . S
C138 C144 1.265 . S
H139 C144 0.950 . S
H140 C148 0.949 . S
H141 C149 0.950 . S
H142 C150 0.951 . S
H143 C151 0.951 . S
C144 C138 1.265 . S
C144 H139 0.950 . S
C144 C145 1.478 . S
C145 C132 1.391 1_554 S
C145 C144 1.478 . S
C145 C146 1.397 . S
C146 C145 1.397 . S
C146 C147 1.438 . S
C146 C151 1.429 . S
C147 C130 1.394 . S
C147 C146 1.438 . S
C147 C148 1.428 . S
C148 H140 0.949 . S
C148 C147 1.428 . S
C148 C149 1.345 . S
C149 H141 0.950 . S
C149 C148 1.345 . S
C149 C150 1.424 . S
C150 H142 0.951 . S
C150 C149 1.424 . S
C150 C151 1.347 . S
C151 H143 0.951 . S
C151 C146 1.429 . S
C151 C150 1.347 . S
H152 C153 0.951 . S
C153 H152 0.951 . S
C153 C159 1.265 . S
H154 C159 0.950 . S
H155 C163 0.949 . S
H156 C164 0.950 . S
H157 C165 0.951 . S
H158 C166 0.951 . S
C159 C153 1.265 . S
C159 H154 0.950 . S
C159 C160 1.478 . S
C160 C159 1.478 . S
C160 C161 1.397 . S
C160 C177 1.394 . S
C161 C160 1.397 . S
C161 C162 1.438 . S
C161 C166 1.429 . S
C162 C161 1.438 . S
C162 C163 1.428 . S
C162 C175 1.394 . S
C163 H155 0.949 . S
C163 C162 1.428 . S
C163 C164 1.345 . S
C164 H156 0.950 . S
C164 C163 1.345 . S
C164 C165 1.424 . S
C165 H157 0.951 . S
C165 C164 1.424 . S
C165 C166 1.347 . S
C166 H158 0.951 . S
C166 C161 1.429 . S
C166 C165 1.347 . S
H167 C168 0.951 . S
C168 H167 0.951 . S
C168 C174 1.265 . S
H169 C174 0.950 . S
H170 C178 0.949 . S
H171 C179 0.950 . S
H172 C180 0.951 . S
H173 C181 0.951 . S
C174 C168 1.265 . S
C174 H169 0.950 . S
C174 C175 1.478 . S
C175 C162 1.394 . S
C175 C174 1.478 . S
C175 C176 1.397 . S
C176 C175 1.397 . S
C176 C177 1.438 . S
C176 C181 1.429 . S
C177 C160 1.394 . S
C177 C176 1.438 . S
C177 C178 1.428 . S
C178 H170 0.949 . S
C178 C177 1.428 . S
C178 C179 1.345 . S
C179 H171 0.950 . S
C179 C178 1.345 . S
C179 C180 1.424 . S
C180 H172 0.951 . S
C180 C179 1.424 . S
C180 C181 1.347 . S
C181 H173 0.951 . S
C181 C176 1.429 . S
C181 C180 1.347 . S
H182 C183 0.951 . S
C183 H182 0.951 . S
C183 C189 1.265 . S
H184 C189 0.950 . S
H185 C193 0.949 . S
H186 C194 0.950 . S
H187 C195 0.951 . S
H188 C196 0.951 . S
C189 C183 1.265 . S
C189 H184 0.950 . S
C189 C190 1.478 . S
C190 C189 1.478 . S
C190 C191 1.397 . S
C190 C207 1.394 . S
C191 C190 1.397 . S
C191 C192 1.438 . S
C191 C196 1.429 . S
C192 C191 1.438 . S
C192 C193 1.428 . S
C192 C205 1.394 . S
C193 H185 0.949 . S
C193 C192 1.428 . S
C193 C194 1.345 . S
C194 H186 0.950 . S
C194 C193 1.345 . S
C194 C195 1.424 . S
C195 H187 0.951 . S
C195 C194 1.424 . S
C195 C196 1.347 . S
C196 H188 0.951 . S
C196 C191 1.429 . S
C196 C195 1.347 . S
H197 C198 0.951 . S
C198 H197 0.951 . S
C198 C204 1.265 . S
H199 C204 0.950 . S
H200 C208 0.949 . S
H201 C209 0.950 . S
H202 C210 0.951 . S
H203 C211 0.951 . S
C204 C198 1.265 . S
C204 H199 0.950 . S
C204 C205 1.478 . S
C205 C192 1.394 . S
C205 C204 1.478 . S
C205 C206 1.397 . S
C206 C205 1.397 . S
C206 C207 1.438 . S
C206 C211 1.429 . S
C207 C190 1.394 . S
C207 C206 1.438 . S
C207 C208 1.428 . S
C208 H200 0.949 . S
C208 C207 1.428 . S
C208 C209 1.345 . S
C209 H201 0.950 . S
C209 C208 1.345 . S
C209 C210 1.424 . S
C210 H202 0.951 . S
C210 C209 1.424 . S
C210 C211 1.347 . S
C211 H203 0.951 . S
C211 C206 1.429 . S
C211 C210 1.347 . S
H212 C213 0.951 . S
C213 H212 0.951 . S
C213 C219 1.265 . S
H214 C219 0.950 . S
H215 C223 0.937 1_565 S
H216 C224 0.950 . S
H217 C225 0.951 . S
H218 C226 0.951 . S
C219 C213 1.265 . S
C219 H214 0.950 . S
C219 C220 1.478 . S
C220 C219 1.478 . S
C220 C221 1.397 1_556 S
C220 C237 1.394 . S
C221 C220 1.397 1_554 S
C221 C222 1.438 . S
C221 C226 1.429 . S
C222 C221 1.438 . S
C222 C223 1.431 . S
C222 C235 1.394 1_544 S
C223 H215 0.937 1_545 S
C223 C222 1.431 . S
C223 C224 1.354 . S
C224 H216 0.950 . S
C224 C223 1.354 . S
C224 C225 1.424 . S
C225 H217 0.951 . S
C225 C224 1.424 . S
C225 C226 1.347 . S
C226 H218 0.951 . S
C226 C221 1.429 . S
C226 C225 1.347 . S
H227 C228 0.951 1_545 S
C228 H227 0.951 1_565 S
C228 C234 1.265 . S
H229 C234 0.950 . S
H230 C238 0.949 . S
H231 C239 0.950 . S
H232 C240 0.951 . S
H233 C241 0.951 . S
C234 C228 1.265 . S
C234 H229 0.950 . S
C234 C235 1.478 . S
C235 C222 1.394 1_566 S
C235 C234 1.478 . S
C235 C236 1.397 . S
C236 C235 1.397 . S
C236 C237 1.438 1_565 S
C236 C241 1.429 . S
C237 C220 1.394 . S
C237 C236 1.438 1_545 S
C237 C238 1.428 . S
C238 H230 0.949 . S
C238 C237 1.428 . S
C238 C239 1.345 . S
C239 H231 0.950 . S
C239 C238 1.345 . S
C239 C240 1.424 1_545 S
C240 H232 0.951 . S
C240 C239 1.424 1_565 S
C240 C241 1.347 . S
C241 H233 0.951 . S
C241 C236 1.429 . S
C241 C240 1.347 . S
H242 C243 0.951 . S
C243 H242 0.951 . S
C243 C249 1.265 1_565 S
H244 C249 0.950 . S
H245 C253 0.949 . S
H246 C254 0.950 . S
H247 C255 0.951 . S
H248 C256 0.951 . S
C249 C243 1.265 1_545 S
C249 H244 0.950 . S
C249 C250 1.478 . S
C250 C249 1.478 . S
C250 C251 1.397 . S
C250 C267 1.394 1_545 S
C251 C250 1.397 . S
C251 C252 1.438 . S
C251 C256 1.429 . S
C252 C251 1.438 . S
C252 C253 1.428 . S
C252 C265 1.394 . S
C253 H245 0.949 . S
C253 C252 1.428 . S
C253 C254 1.345 . S
C254 H246 0.950 . S
C254 C253 1.345 . S
C254 C255 1.424 . S
C255 H247 0.951 . S
C255 C254 1.424 . S
C255 C256 1.347 . S
C256 H248 0.951 . S
C256 C251 1.429 . S
C256 C255 1.347 . S
H257 C258 0.951 . S
C258 H257 0.951 . S
C258 C264 1.265 . S
H259 C264 0.950 1_565 S
H260 C268 0.949 . S
H261 C269 0.950 . S
H262 C270 0.951 . S
H263 C271 0.951 . S
C264 C258 1.265 . S
C264 H259 0.950 1_545 S
C264 C265 1.478 . S
C265 C252 1.394 . S
C265 C264 1.478 . S
C265 C266 1.397 1_545 S
C266 C265 1.397 1_565 S
C266 C267 1.438 . S
C266 C271 1.429 . S
C267 C250 1.394 1_565 S
C267 C266 1.438 . S
C267 C268 1.428 . S
C268 H260 0.949 . S
C268 C267 1.428 . S
C268 C269 1.345 . S
C269 H261 0.950 . S
C269 C268 1.345 . S
C269 C270 1.424 . S
C270 H262 0.951 . S
C270 C269 1.424 . S
C270 C271 1.347 . S
C271 H263 0.951 . S
C271 C266 1.429 . S
C271 C270 1.347 . S
H272 C273 0.951 . S
C273 H272 0.951 . S
C273 C279 1.265 . S
H274 C279 0.950 . S
H275 C283 0.949 . S
H276 C284 0.950 . S
H277 C285 0.951 . S
H278 C286 0.951 . S
C279 C273 1.265 . S
C279 H274 0.950 . S
C279 C280 1.478 . S
C280 C279 1.478 . S
C280 C281 1.397 . S
C280 C297 1.394 1_556 S
C281 C280 1.397 . S
C281 C282 1.438 1_655 S
C281 C286 1.429 . S
C282 C281 1.438 1_455 S
C282 C283 1.428 . S
C282 C295 1.394 . S
C283 H275 0.949 . S
C283 C282 1.428 . S
C283 C284 1.345 . S
C284 H276 0.950 . S
C284 C283 1.345 . S
C284 C285 1.424 1_455 S
C285 H277 0.951 . S
C285 C284 1.424 1_655 S
C285 C286 1.347 . S
C286 H278 0.951 . S
C286 C281 1.429 . S
C286 C285 1.347 . S
H287 C288 0.951 . S
C288 H287 0.951 . S
C288 C294 1.265 . S
H289 C294 0.950 . S
H290 C298 0.949 . S
H291 C299 0.950 . S
H292 C300 0.951 . S
H293 C301 0.951 . S
C294 C288 1.265 . S
C294 H289 0.950 . S
C294 C295 1.478 . S
C295 C282 1.394 . S
C295 C294 1.478 . S
C295 C296 1.397 1_556 S
C296 C295 1.397 1_554 S
C296 C297 1.438 1_455 S
C296 C301 1.429 . S
C297 C280 1.394 1_554 S
C297 C296 1.438 1_655 S
C297 C298 1.428 . S
C298 H290 0.949 . S
C298 C297 1.428 . S
C298 C299 1.345 . S
C299 H291 0.950 . S
C299 C298 1.345 . S
C299 C300 1.424 1_655 S
C300 H292 0.951 . S
C300 C299 1.424 1_455 S
C300 C301 1.347 . S
C301 H293 0.951 . S
C301 C296 1.429 . S
C301 C300 1.347 . S
H302 C303 0.951 . S
C303 H302 0.951 . S
C303 C309 1.265 . S
H304 C309 0.950 . S
H305 C313 0.949 . S
H306 C314 0.950 . S
H307 C315 0.951 . S
H308 C316 0.951 . S
C309 C303 1.265 . S
C309 H304 0.950 . S
C309 C310 1.478 . S
C310 C309 1.478 . S
C310 C311 1.397 . S
C310 C327 1.394 . S
C311 C310 1.397 . S
C311 C312 1.438 1_455 S
C311 C316 1.429 . S
C312 C311 1.438 1_655 S
C312 C313 1.428 . S
C312 C325 1.394 . S
C313 H305 0.949 . S
C313 C312 1.428 . S
C313 C314 1.345 . S
C314 H306 0.950 . S
C314 C313 1.345 . S
C314 C315 1.424 1_655 S
C315 H307 0.951 . S
C315 C314 1.424 1_455 S
C315 C316 1.347 . S
C316 H308 0.951 . S
C316 C311 1.429 . S
C316 C315 1.347 . S
H317 C318 0.951 . S
C318 H317 0.951 . S
C318 C324 1.265 . S
H319 C324 0.950 . S
H320 C328 0.949 . S
H321 C329 0.950 . S
H322 C330 0.951 . S
H323 C331 0.951 . S
C324 C318 1.265 . S
C324 H319 0.950 . S
C324 C325 1.478 . S
C325 C312 1.394 . S
C325 C324 1.478 . S
C325 C326 1.397 . S
C326 C325 1.397 . S
C326 C327 1.438 1_655 S
C326 C331 1.429 . S
C327 C310 1.394 . S
C327 C326 1.438 1_455 S
C327 C328 1.428 . S
C328 H320 0.949 . S
C328 C327 1.428 . S
C328 C329 1.345 . S
C329 H321 0.950 . S
C329 C328 1.345 . S
C329 C330 1.424 1_455 S
C330 H322 0.951 . S
C330 C329 1.424 1_655 S
C330 C331 1.347 . S
C331 H323 0.951 . S
C331 C326 1.429 . S
C331 C330 1.347 . S
H332 C333 0.951 . S
C333 H332 0.951 . S
C333 C339 1.265 1_455 S
H334 C339 0.950 . S
H335 C343 0.949 . S
H336 C344 0.950 . S
H337 C345 0.951 . S
H338 C346 0.951 . S
C339 C333 1.265 1_655 S
C339 H334 0.950 . S
C339 C340 1.478 . S
C340 C339 1.478 . S
C340 C341 1.397 . S
C340 C357 1.394 1_645 S
C341 C340 1.397 . S
C341 C342 1.438 . S
C341 C346 1.429 . S
C342 C341 1.438 . S
C342 C343 1.428 . S
C342 C355 1.394 1_655 S
C343 H335 0.949 . S
C343 C342 1.428 . S
C343 C344 1.345 . S
C344 H336 0.950 . S
C344 C343 1.345 . S
C344 C345 1.424 . S
C345 H337 0.951 . S
C345 C344 1.424 . S
C345 C346 1.347 . S
C346 H338 0.951 . S
C346 C341 1.429 . S
C346 C345 1.347 . S
H347 C348 0.951 . S
C348 H347 0.951 . S
C348 C354 1.265 1_655 S
H349 C354 0.950 . S
H350 C358 0.949 . S
H351 C359 0.950 . S
H352 C360 0.951 . S
H353 C361 0.951 . S
C354 C348 1.265 1_455 S
C354 H349 0.950 . S
C354 C355 1.478 . S
C355 C342 1.394 1_455 S
C355 C354 1.478 . S
C355 C356 1.397 1_545 S
C356 C355 1.397 1_565 S
C356 C357 1.438 . S
C356 C361 1.429 . S
C357 C340 1.394 1_465 S
C357 C356 1.438 . S
C357 C358 1.428 . S
C358 H350 0.949 . S
C358 C357 1.428 . S
C358 C359 1.345 . S
C359 H351 0.950 . S
C359 C358 1.345 . S
C359 C360 1.424 . S
C360 H352 0.951 . S
C360 C359 1.424 . S
C360 C361 1.347 . S
C361 H353 0.951 . S
C361 C356 1.429 . S
C361 C360 1.347 . S
H362 C363 0.951 . S
C363 H362 0.951 . S
C363 C369 1.265 1_455 S
H364 C369 0.950 . S
H365 C373 0.949 . S
H366 C374 0.950 . S
H367 C375 0.951 . S
H368 C376 0.951 . S
C369 C363 1.265 1_655 S
C369 H364 0.950 . S
C369 C370 1.478 . S
C370 C369 1.478 . S
C370 C371 1.397 . S
C370 C387 1.394 1_645 S
C371 C370 1.397 . S
C371 C372 1.438 . S
C371 C376 1.429 . S
C372 C371 1.438 . S
C372 C373 1.428 . S
C372 C385 1.394 1_655 S
C373 H365 0.949 . S
C373 C372 1.428 . S
C373 C374 1.345 . S
C374 H366 0.950 . S
C374 C373 1.345 . S
C374 C375 1.424 . S
C375 H367 0.951 . S
C375 C374 1.424 . S
C375 C376 1.347 . S
C376 H368 0.951 . S
C376 C371 1.429 . S
C376 C375 1.347 . S
H377 C378 0.951 . S
C378 H377 0.951 . S
C378 C384 1.265 1_655 S
H379 C384 0.950 . S
H380 C388 0.949 . S
H381 C389 0.950 . S
H382 C390 0.951 . S
H383 C391 0.951 . S
C384 C378 1.265 1_455 S
C384 H379 0.950 . S
C384 C385 1.478 . S
C385 C372 1.394 1_455 S
C385 C384 1.478 . S
C385 C386 1.397 1_545 S
C386 C385 1.397 1_565 S
C386 C387 1.438 . S
C386 C391 1.429 . S
C387 C370 1.394 1_465 S
C387 C386 1.438 . S
C387 C388 1.428 . S
C388 H380 0.949 . S
C388 C387 1.428 . S
C388 C389 1.345 . S
C389 H381 0.950 . S
C389 C388 1.345 . S
C389 C390 1.424 . S
C390 H382 0.951 . S
C390 C389 1.424 . S
C390 C391 1.347 . S
C391 H383 0.951 . S
C391 C386 1.429 . S
C391 C390 1.347 . S
H392 C393 0.951 . S
C393 H392 0.951 . S
C393 C399 1.265 . S
H394 C399 0.950 . S
H395 C403 0.949 . S
H396 C404 0.950 . S
H397 C405 0.951 . S
H398 C406 0.951 . S
C399 C393 1.265 . S
C399 H394 0.950 . S
C399 C400 1.478 . S
C400 C399 1.478 . S
C400 C401 1.397 . S
C400 C417 1.394 . S
C401 C400 1.397 . S
C401 C402 1.438 . S
C401 C406 1.429 . S
C402 C401 1.438 . S
C402 C403 1.428 . S
C402 C415 1.394 . S
C403 H395 0.949 . S
C403 C402 1.428 . S
C403 C404 1.345 . S
C404 H396 0.950 . S
C404 C403 1.345 . S
C404 C405 1.424 . S
C405 H397 0.951 . S
C405 C404 1.424 . S
C405 C406 1.347 . S
C406 H398 0.951 . S
C406 C401 1.429 . S
C406 C405 1.347 . S
H407 C408 0.951 . S
C408 H407 0.951 . S
C408 C414 1.265 . S
H409 C414 0.950 . S
H410 C418 0.949 . S
H411 C419 0.950 . S
H412 C420 0.951 . S
H413 C421 0.951 . S
C414 C408 1.265 . S
C414 H409 0.950 . S
C414 C415 1.478 . S
C415 C402 1.394 . S
C415 C414 1.478 . S
C415 C416 1.397 . S
C416 C415 1.397 . S
C416 C417 1.438 . S
C416 C421 1.429 . S
C417 C400 1.394 . S
C417 C416 1.438 . S
C417 C418 1.428 . S
C418 H410 0.949 . S
C418 C417 1.428 . S
C418 C419 1.345 . S
C419 H411 0.950 . S
C419 C418 1.345 . S
C419 C420 1.424 . S
C420 H412 0.951 . S
C420 C419 1.424 . S
C420 C421 1.347 . S
C421 H413 0.951 . S
C421 C416 1.429 . S
C421 C420 1.347 . S
H422 C423 0.951 . S
C423 H422 0.951 . S
C423 C429 1.265 . S
H424 C429 0.950 . S
H425 C433 0.949 . S
H426 C434 0.950 . S
H427 C435 0.951 . S
H428 C436 0.951 . S
C429 C423 1.265 . S
C429 H424 0.950 . S
C429 C430 1.478 . S
C430 C429 1.478 . S
C430 C431 1.397 . S
C430 C447 1.394 . S
C431 C430 1.397 . S
C431 C432 1.438 . S
C431 C436 1.429 . S
C432 C431 1.438 . S
C432 C433 1.428 . S
C432 C445 1.394 . S
C433 H425 0.949 . S
C433 C432 1.428 . S
C433 C434 1.345 . S
C434 H426 0.950 . S
C434 C433 1.345 . S
C434 C435 1.424 . S
C435 H427 0.951 . S
C435 C434 1.424 . S
C435 C436 1.347 . S
C436 H428 0.951 . S
C436 C431 1.429 . S
C436 C435 1.347 . S
H437 C438 0.951 . S
C438 H437 0.951 . S
C438 C444 1.265 . S
H439 C444 0.950 . S
H440 C448 0.949 . S
H441 C449 0.950 . S
H442 C450 0.951 . S
H443 C451 0.951 . S
C444 C438 1.265 . S
C444 H439 0.950 . S
C444 C445 1.478 . S
C445 C432 1.394 . S
C445 C444 1.478 . S
C445 C446 1.397 . S
C446 C445 1.397 . S
C446 C447 1.438 . S
C446 C451 1.429 . S
C447 C430 1.394 . S
C447 C446 1.438 . S
C447 C448 1.428 . S
C448 H440 0.949 . S
C448 C447 1.428 . S
C448 C449 1.345 . S
C449 H441 0.950 . S
C449 C448 1.345 . S
C449 C450 1.424 . S
C450 H442 0.951 . S
C450 C449 1.424 . S
C450 C451 1.347 . S
C451 H443 0.951 . S
C451 C446 1.429 . S
C451 C450 1.347 . S
C93 C66 1.579 . S
C108 C19 1.576 . S
C123 C65 1.478 . S
C138 C20 1.506 . S
C153 C41 1.603 . S
C168 C90 1.583 . S
C183 C44 1.581 . S
C198 C87 1.605 . S
C213 C18 0.626 . S
C228 C21 0.555 . S
C243 C42 0.754 . S
C258 C43 0.752 . S
C273 C64 0.657 . S
C288 C67 0.692 . S
C303 C89 0.754 . S
C318 C88 0.752 . S
C333 C39 1.485 . S
C348 C17 1.492 1_655 S
C363 C16 1.490 . S
C378 C40 1.485 1_655 S
C393 C85 1.485 . S
C408 C63 1.492 . S
C423 C86 1.486 . S
C438 C62 1.490 . S
