# Generated by pormake.
# Topology uol, (4)-cn, num edge types: 1
# Building blocks:
#     Node 0, Type 0, BuildingBlock: ESEHIV_clean_sbu_0, # of connection points: 4
#     Node 1, Type 0, BuildingBlock: ESEHIV_clean_sbu_0, # of connection points: 4
#     Node 2, Type 0, BuildingBlock: ESEHIV_clean_sbu_0, # of connection points: 4
#     Node 3, Type 0, BuildingBlock: ESEHIV_clean_sbu_0, # of connection points: 4
#     Node 4, Type 0, BuildingBlock: ESEHIV_clean_sbu_0, # of connection points: 4
#     Node 5, Type 0, BuildingBlock: ESEHIV_clean_sbu_0, # of connection points: 4
#     Node 6, Type 0, BuildingBlock: ESEHIV_clean_sbu_0, # of connection points: 4
#     Node 7, Type 0, BuildingBlock: ESEHIV_clean_sbu_0, # of connection points: 4
#     Node 8, Type 0, BuildingBlock: ESEHIV_clean_sbu_0, # of connection points: 4
#     Node 9, Type 0, BuildingBlock: ESEHIV_clean_sbu_0, # of connection points: 4
#     Node 10, Type 0, BuildingBlock: ESEHIV_clean_sbu_0, # of connection points: 4
#     Node 11, Type 0, BuildingBlock: ESEHIV_clean_sbu_0, # of connection points: 4
#     Edge 12, Type (0, 0), BuildingBlock: OJICUG_clean_linker_0, # of connection points: 2
#     Edge 13, Type (0, 0), BuildingBlock: OJICUG_clean_linker_0, # of connection points: 2
#     Edge 14, Type (0, 0), BuildingBlock: OJICUG_clean_linker_0, # of connection points: 2
#     Edge 15, Type (0, 0), BuildingBlock: OJICUG_clean_linker_0, # of connection points: 2
#     Edge 16, Type (0, 0), BuildingBlock: OJICUG_clean_linker_0, # of connection points: 2
#     Edge 17, Type (0, 0), BuildingBlock: OJICUG_clean_linker_0, # of connection points: 2
#     Edge 18, Type (0, 0), BuildingBlock: OJICUG_clean_linker_0, # of connection points: 2
#     Edge 19, Type (0, 0), BuildingBlock: OJICUG_clean_linker_0, # of connection points: 2
#     Edge 20, Type (0, 0), BuildingBlock: OJICUG_clean_linker_0, # of connection points: 2
#     Edge 21, Type (0, 0), BuildingBlock: OJICUG_clean_linker_0, # of connection points: 2
#     Edge 22, Type (0, 0), BuildingBlock: OJICUG_clean_linker_0, # of connection points: 2
#     Edge 23, Type (0, 0), BuildingBlock: OJICUG_clean_linker_0, # of connection points: 2
#     Edge 24, Type (0, 0), BuildingBlock: OJICUG_clean_linker_0, # of connection points: 2
#     Edge 25, Type (0, 0), BuildingBlock: OJICUG_clean_linker_0, # of connection points: 2
#     Edge 26, Type (0, 0), BuildingBlock: OJICUG_clean_linker_0, # of connection points: 2
#     Edge 27, Type (0, 0), BuildingBlock: OJICUG_clean_linker_0, # of connection points: 2
#     Edge 28, Type (0, 0), BuildingBlock: OJICUG_clean_linker_0, # of connection points: 2
#     Edge 29, Type (0, 0), BuildingBlock: OJICUG_clean_linker_0, # of connection points: 2
#     Edge 30, Type (0, 0), BuildingBlock: OJICUG_clean_linker_0, # of connection points: 2
#     Edge 31, Type (0, 0), BuildingBlock: OJICUG_clean_linker_0, # of connection points: 2
#     Edge 32, Type (0, 0), BuildingBlock: OJICUG_clean_linker_0, # of connection points: 2
#     Edge 33, Type (0, 0), BuildingBlock: OJICUG_clean_linker_0, # of connection points: 2
#     Edge 34, Type (0, 0), BuildingBlock: OJICUG_clean_linker_0, # of connection points: 2
#     Edge 35, Type (0, 0), BuildingBlock: OJICUG_clean_linker_0, # of connection points: 2
# Relax obj value: 0.162
# Max RMSD: 0.228
# Mean RMSD: 0.228
data_MOF--net-uol--node1-ESEHIV_clean_sbu_0--edge1-OJICUG_clean_linker_0
_symmetry_space_group_name_H-M    P1
_symmetry_Int_Tables_number       1
_symmetry_cell_setting            triclinic
loop_
_symmetry_equiv_pos_as_xyz
'x, y, z'
_cell_length_a     29.451986
_cell_length_b     29.48092
_cell_length_c     40.819214
_cell_angle_alpha  89.455287
_cell_angle_beta   90.369944
_cell_angle_gamma 120.20584
loop_
_atom_site_label
_atom_site_type_symbol
_atom_site_fract_x
_atom_site_fract_y
_atom_site_fract_z
_atom_type_partial_charge
Cu0 Cu 0.15873 0.35521 0.09727 0.0
N1 N 0.20596 0.36734 0.13146 0.0
N2 N 0.26215 0.35953 0.16488 0.0
C3 C 0.23663 0.34591 0.13582 0.0
C4 C 0.24719 0.39105 0.17916 0.0
C5 C 0.21264 0.39582 0.15848 0.0
O6 O 0.17938 0.33051 0.05922 0.0
C7 C 0.07691 0.27373 0.13495 0.0
O8 O 0.1147 0.26604 0.1456 0.0
H9 H 0.23826 0.31892 0.11877 0.0
H10 H 0.19255 0.41729 0.16324 0.0
N11 N 0.16473 0.4191 0.08483 0.0
N12 N 0.16464 0.49501 0.08521 0.0
C13 C 0.15296 0.45062 0.10205 0.0
C14 C 0.18429 0.4441 0.0562 0.0
C15 C 0.18433 0.49078 0.05633 0.0
C16 C 0.17692 0.28647 0.05592 0.0
O17 O 0.15518 0.25069 0.07909 0.0
H18 H 0.13639 0.44112 0.12642 0.0
H19 H 0.19848 0.42974 0.03679 0.0
O20 O 0.08713 0.30815 0.11268 0.0
H21 H 0.25966 0.40874 0.20306 0.0
H22 H 0.19935 0.52001 0.03697 0.0
Cu23 Cu 0.84087 0.17214 0.27675 0.0
N24 N 0.88429 0.22266 0.30696 0.0
N25 N 0.95651 0.27764 0.33501 0.0
C26 C 0.93659 0.24352 0.3099 0.0
C27 C 0.91493 0.2783 0.34826 0.0
C28 C 0.87045 0.24441 0.33084 0.0
O29 O 0.88687 0.17847 0.24042 0.0
C30 C 0.84507 0.0901 0.30866 0.0
O31 O 0.89536 0.12102 0.30271 0.0
H32 H 0.9592 0.2325 0.29451 0.0
H33 H 0.83072 0.23572 0.33545 0.0
N34 N 0.78766 0.18658 0.26474 0.0
N35 N 0.7109 0.18543 0.26221 0.0
C36 C 0.73568 0.15904 0.27141 0.0
C37 C 0.79604 0.23206 0.25144 0.0
C38 C 0.74902 0.23132 0.24956 0.0
C39 C 0.88618 0.19348 0.21113 0.0
O40 O 0.84813 0.20157 0.2017 0.0
H41 H 0.71686 0.12117 0.28359 0.0
H42 H 0.83423 0.26448 0.24478 0.0
O43 O 0.8128 0.10385 0.29827 0.0
H44 H 0.9164 0.30145 0.36908 0.0
H45 H 0.74394 0.2634 0.24112 0.0
Cu46 Cu 0.70227 0.83411 0.44017 0.0
N47 N 0.68846 0.87157 0.47109 0.0
N48 N 0.70042 0.93979 0.50101 0.0
C49 C 0.71688 0.92385 0.4751 0.0
C50 C 0.65993 0.89562 0.51383 0.0
C51 C 0.65256 0.85353 0.49523 0.0
O52 O 0.731 0.8805 0.40224 0.0
C53 C 0.7643 0.78401 0.44935 0.0
O54 O 0.74659 0.76262 0.42055 0.0
H55 H 0.75048 0.9494 0.4601 0.0
H56 H 0.62398 0.8126 0.49945 0.0
N57 N 0.63962 0.77458 0.42759 0.0
N58 N 0.56577 0.69622 0.42711 0.0
C59 C 0.60957 0.72936 0.44415 0.0
C60 C 0.61422 0.7698 0.39922 0.0
C61 C 0.5688 0.72168 0.39882 0.0
C62 C 0.77918 0.91528 0.39912 0.0
O63 O 0.81321 0.91756 0.42097 0.0
H64 H 0.61913 0.72147 0.46841 0.0
H65 H 0.62777 0.79954 0.38019 0.0
O66 O 0.75066 0.81543 0.46071 0.0
H67 H 0.63765 0.89376 0.5353 0.0
H68 H 0.54047 0.70649 0.37903 0.0
Cu69 Cu 0.89917 0.68949 0.59818 0.0
N70 N 0.85121 0.67775 0.63126 0.0
N71 N 0.79518 0.68835 0.66228 0.0
C72 C 0.82938 0.70742 0.63709 0.0
C73 C 0.79555 0.64495 0.67272 0.0
C74 C 0.82992 0.63828 0.65332 0.0
O75 O 0.88102 0.72306 0.56295 0.0
C76 C 0.98313 0.72574 0.64291 0.0
O77 O 0.94949 0.6825 0.65833 0.0
H78 H 0.8389 0.74265 0.62331 0.0
H79 H 0.83866 0.60682 0.65506 0.0
N80 N 0.88917 0.62389 0.58584 0.0
N81 N 0.89098 0.54874 0.58655 0.0
C82 C 0.9139 0.59885 0.59727 0.0
C83 C 0.8492 0.58835 0.56745 0.0
C84 C 0.85043 0.54227 0.56761 0.0
C85 C 0.879 0.71455 0.53229 0.0
O86 O 0.89462 0.68306 0.52105 0.0
H87 H 0.94711 0.61655 0.61379 0.0
H88 H 0.8197 0.59479 0.55595 0.0
O89 O 0.96995 0.73621 0.61529 0.0
H90 H 0.77212 0.6195 0.69259 0.0
H91 H 0.82194 0.506 0.55606 0.0
Cu92 Cu 0.24051 0.88869 0.77106 0.0
N93 N 0.21532 0.84409 0.80728 0.0
N94 N 0.15343 0.78846 0.84195 0.0
C95 C 0.16435 0.80784 0.81113 0.0
C96 C 0.19972 0.81347 0.85814 0.0
C97 C 0.23785 0.84796 0.83668 0.0
O98 O 0.18579 0.85296 0.73817 0.0
C99 C 0.29088 0.99467 0.79335 0.0
O100 O 0.33458 0.99479 0.78697 0.0
H101 H 0.13497 0.79946 0.79245 0.0
H102 H 0.27804 0.87647 0.84277 0.0
N103 N 0.30424 0.89611 0.75647 0.0
N104 N 0.3829 0.90129 0.75528 0.0
C105 C 0.34238 0.89475 0.77422 0.0
C106 C 0.32101 0.90356 0.72528 0.0
C107 C 0.36933 0.90678 0.72444 0.0
C108 C 0.17455 0.86978 0.71231 0.0
O109 O 0.20332 0.91941 0.70384 0.0
H110 H 0.34071 0.88989 0.80052 0.0
H111 H 0.29937 0.90619 0.70455 0.0
O112 O 0.24705 0.95462 0.7858 0.0
H113 H 0.20517 0.80929 0.88401 0.0
H114 H 0.39215 0.91194 0.70262 0.0
Cu115 Cu 0.36962 0.22479 0.936 0.0
N116 N 0.38836 0.18878 0.966 0.0
N117 N 0.37703 0.12052 0.99659 0.0
C118 C 0.36022 0.13644 0.97048 0.0
C119 C 0.4176 0.16469 1.00906 0.0
C120 C 0.42455 0.20678 0.9901 0.0
O121 O 0.35045 0.1839 0.89584 0.0
C122 C 0.30583 0.2678 0.95653 0.0
O123 O 0.33868 0.30985 0.93979 0.0
H124 H 0.32594 0.11091 0.95601 0.0
H125 H 0.45253 0.24758 0.99457 0.0
N126 N 0.42581 0.29204 0.92579 0.0
N127 N 0.49847 0.37165 0.92707 0.0
C128 C 0.46403 0.32902 0.94478 0.0
C129 C 0.4362 0.31219 0.89526 0.0
C130 C 0.48073 0.36096 0.89592 0.0
C131 C 0.30559 0.14469 0.8892 0.0
O132 O 0.26627 0.13164 0.90939 0.0
H133 H 0.46653 0.32488 0.97094 0.0
H134 H 0.41335 0.29217 0.87382 0.0
O135 O 0.31121 0.2276 0.9561 0.0
H136 H 0.43976 0.16664 0.03079 0.0
H137 H 0.49957 0.3857 0.87479 0.0
Cu138 Cu 0.70387 0.89634 0.7811 0.0
N139 N 0.68421 0.84602 0.74853 0.0
N140 N 0.69144 0.78968 0.71584 0.0
C141 C 0.70529 0.81518 0.74468 0.0
C142 C 0.66015 0.80491 0.70101 0.0
C143 C 0.65584 0.83978 0.72123 0.0
O144 O 0.72897 0.87175 0.81783 0.0
C145 C 0.75764 1.00332 0.75669 0.0
O146 O 0.71735 1.0062 0.76766 0.0
H147 H 0.73353 0.81465 0.76154 0.0
H148 H 0.63624 0.86146 0.71538 0.0
N149 N 0.64583 0.90129 0.79496 0.0
N150 N 0.57058 0.90296 0.79612 0.0
C151 C 0.608 0.90296 0.77701 0.0
C152 C 0.63203 0.90059 0.82638 0.0
C153 C 0.58579 0.90159 0.8272 0.0
C154 C 0.7764 0.88228 0.82035 0.0
O155 O 0.81095 0.91399 0.79874 0.0
H156 H 0.60734 0.90317 0.75055 0.0
H157 H 0.65383 0.89875 0.84728 0.0
O158 O 0.75961 0.96164 0.76177 0.0
H159 H 0.6435 0.79353 0.67671 0.0
H160 H 0.56508 0.9014 0.84905 0.0
Cu161 Cu 0.83206 0.68441 0.94545 0.0
N162 N 0.87265 0.67224 0.91599 0.0
N163 N 0.94326 0.68163 0.88975 0.0
C164 C 0.92522 0.70074 0.91307 0.0
C165 C 0.9001 0.63929 0.87761 0.0
C166 C 0.85662 0.63352 0.89395 0.0
O167 O 0.88091 0.7257 0.98045 0.0
C168 C 0.83868 0.76951 0.91044 0.0
O169 O 0.88896 0.78715 0.91529 0.0
H170 H 0.94952 0.73548 0.92738 0.0
H171 H 0.81617 0.60326 0.8901 0.0
N172 N 0.77784 0.61841 0.95943 0.0
N173 N 0.70076 0.54282 0.96193 0.0
C174 C 0.72629 0.59352 0.95151 0.0
C175 C 0.78521 0.58209 0.97483 0.0
C176 C 0.73798 0.53587 0.97671 0.0
C177 C 0.88063 0.71228 1.01025 0.0
O178 O 0.84067 0.66863 1.02145 0.0
H179 H 0.70852 0.61169 0.93728 0.0
H180 H 0.82301 0.58806 0.98258 0.0
O181 O 0.80551 0.72499 0.92257 0.0
H182 H 0.89986 0.61409 0.85843 0.0
H183 H 0.73233 0.49909 0.98639 0.0
Cu184 Cu 0.15968 0.8135 0.11736 0.0
N185 N 0.20695 0.84862 0.08327 0.0
N186 N 0.26363 0.91349 0.0505 0.0
C187 C 0.23763 0.90092 0.07932 0.0
C188 C 0.249 0.86719 0.03593 0.0
C189 C 0.21412 0.82729 0.05622 0.0
O190 O 0.1821 0.85906 0.15539 0.0
C191 C 0.07843 0.81581 0.08051 0.0
O192 O 0.11712 0.86024 0.0691 0.0
H193 H 0.23889 0.92923 0.09649 0.0
H194 H 0.1942 0.78572 0.05116 0.0
N195 N 0.16411 0.75464 0.12957 0.0
N196 N 0.16359 0.67844 0.12899 0.0
C197 C 0.15334 0.71194 0.11192 0.0
C198 C 0.18155 0.74799 0.15871 0.0
C199 C 0.18132 0.70123 0.15846 0.0
C200 C 0.17996 0.90079 0.15867 0.0
O201 O 0.15724 0.9142 0.1358 0.0
H202 H 0.13851 0.70582 0.08708 0.0
H203 H 0.19453 0.77583 0.17857 0.0
O204 O 0.08812 0.79096 0.1026 0.0
H205 H 0.26185 0.86243 1.01209 0.0
H206 H 0.19487 0.6862 0.17818 0.0
Cu207 Cu 0.37249 0.15784 0.27924 0.0
N208 N 0.39148 0.21482 0.25103 0.0
N209 N 0.3788 0.27108 0.22068 0.0
C210 C 0.36165 0.23698 0.24612 0.0
C211 C 0.42136 0.27055 0.20914 0.0
C212 C 0.42912 0.2358 0.22793 0.0
O213 O 0.3446 0.17206 0.31859 0.0
C214 C 0.31153 0.05082 0.25692 0.0
O215 O 0.3408 0.04042 0.27647 0.0
H216 H 0.32591 0.22559 0.25959 0.0
H217 H 0.45852 0.22488 0.22386 0.0
N218 N 0.42979 0.1497 0.29127 0.0
N219 N 0.50445 0.14663 0.29196 0.0
C220 C 0.47044 0.15429 0.27344 0.0
C221 C 0.43824 0.13839 0.3219 0.0
C222 C 0.48398 0.1365 0.32244 0.0
C223 C 0.29652 0.15887 0.32179 0.0
O224 O 0.26303 0.13131 0.29859 0.0
H225 H 0.4749 0.16279 0.24747 0.0
H226 H 0.4131 0.1327 0.34259 0.0
O227 O 0.31866 0.09708 0.25587 0.0
H228 H 0.44425 0.29244 0.18804 0.0
H229 H 0.50161 0.12988 0.34394 0.0
Cu230 Cu 0.26029 0.35614 0.44988 0.0
N231 N 0.23082 0.3744 0.41529 0.0
N232 N 0.1671 0.3688 0.38251 0.0
C233 C 0.17948 0.3589 0.41262 0.0
C234 C 0.21277 0.39194 0.36569 0.0
C235 C 0.25195 0.39513 0.38595 0.0
O236 O 0.21277 0.33971 0.48682 0.0
C237 C 0.2355 0.26235 0.41692 0.0
O238 O 0.18936 0.25855 0.41328 0.0
H239 H 0.15111 0.33685 0.43157 0.0
H240 H 0.29221 0.40859 0.37913 0.0
N241 N 0.32578 0.41272 0.46183 0.0
N242 N 0.40089 0.49016 0.46299 0.0
C243 C 0.35563 0.45921 0.44653 0.0
C244 C 0.35284 0.41432 0.48886 0.0
C245 C 0.39903 0.46182 0.48967 0.0
C246 C 0.18028 0.29553 0.49954 0.0
O247 O 0.17834 0.25261 0.48906 0.0
H248 H 0.34459 0.46986 0.42367 0.0
H249 H 0.33965 0.38302 0.50683 0.0
O250 O 0.27015 0.29924 0.43443 0.0
H251 H 0.21724 0.4037 0.34018 0.0
H252 H 0.42847 0.47464 0.50879 0.0
Cu253 Cu 0.9218 0.24292 0.61689 0.0
N254 N 0.87173 0.21162 0.58384 0.0
N255 N 0.81296 0.14758 0.5518 0.0
C256 C 0.8387 0.15966 0.58076 0.0
C257 C 0.83047 0.19396 0.53611 0.0
C258 C 0.86686 0.23334 0.55587 0.0
O259 O 0.89372 0.19918 0.65609 0.0
C260 C 1.01417 0.28428 0.58046 0.0
O261 O 0.99988 0.31878 0.57309 0.0
H262 H 0.83639 0.13102 0.59846 0.0
H263 H 0.8902 0.27449 0.5495 0.0
N264 N 0.9347 0.31068 0.62621 0.0
N265 N 0.93543 0.38711 0.62431 0.0
C266 C 0.91253 0.33721 0.61316 0.0
C267 C 0.97251 0.34472 0.64642 0.0
C268 C 0.97308 0.39171 0.64534 0.0
C269 C 0.89635 0.15798 0.66165 0.0
O270 O 0.92263 0.1455 0.64128 0.0
H271 H 0.88047 0.32035 0.59579 0.0
H272 H 0.99884 0.33628 0.6603 0.0
O273 O 0.98619 0.24727 0.6005 0.0
H274 H 0.81931 0.199 0.51163 0.0
H275 H 1.0004 0.427 0.65826 0.0
C276 C 0.16047 0.62059 0.0842 0.0
C277 C 0.16 0.63031 0.11781 0.0
H278 H 0.16123 0.56985 0.04749 0.0
C279 C 0.15805 0.593 0.14043 0.0
H280 H 0.16214 0.64826 0.06599 0.0
C281 C 0.15846 0.54825 0.1298 0.0
C282 C 0.16056 0.53933 0.09622 0.0
H283 H 0.15665 0.59844 0.16649 0.0
H284 H 0.15855 0.52148 0.14806 0.0
C285 C 0.16062 0.57569 0.07356 0.0
C286 C 0.6275 0.13727 0.29349 0.0
C287 C 0.65678 0.17131 0.26774 0.0
H288 H 0.55608 0.10212 0.32105 0.0
C289 C 0.63321 0.19388 0.24856 0.0
H290 H 0.64418 0.11923 0.30886 0.0
C291 C 0.58273 0.18448 0.25576 0.0
C292 C 0.55434 0.15225 0.28239 0.0
H293 H 0.65409 0.21957 0.22817 0.0
H294 H 0.56682 0.20403 0.24112 0.0
C295 C 0.57703 0.12792 0.30073 0.0
C296 C 0.47299 0.62451 0.42409 0.0
C297 C 0.52408 0.64466 0.43676 0.0
H298 H 0.3939 0.56049 0.42276 0.0
C299 C 0.53378 0.61322 0.45847 0.0
H300 H 0.46381 0.64792 0.40776 0.0
C301 C 0.49356 0.56272 0.467 0.0
C302 C 0.44246 0.54239 0.45418 0.0
H303 H 0.57275 0.62718 0.46835 0.0
H304 H 0.50294 0.53937 0.48323 0.0
C305 C 0.43276 0.57415 0.43269 0.0
C306 C 0.92829 0.5112 0.62574 0.0
C307 C 0.90343 0.5087 0.59574 0.0
H308 H 0.95675 0.47428 0.65867 0.0
C309 C 0.88934 0.46541 0.57529 0.0
H310 H 0.93891 0.54337 0.6424 0.0
C311 C 0.89959 0.42558 0.58464 0.0
C312 C 0.92418 0.42789 0.61474 0.0
H313 H 0.87079 0.46248 0.55183 0.0
H314 H 0.88885 0.3934 0.56798 0.0
C315 C 0.93844 0.47133 0.63513 0.0
C316 C 0.52124 0.92473 0.75551 0.0
C317 C 0.52335 0.90265 0.78575 0.0
H318 H 0.47587 0.94277 0.72245 0.0
C319 C 0.47843 0.88021 0.80578 0.0
H320 H 0.55527 0.94298 0.73967 0.0
C321 C 0.43262 0.87977 0.79586 0.0
C322 C 0.43041 0.90196 0.76564 0.0
H323 H 0.47825 0.86206 0.82898 0.0
H324 H 0.39873 0.86122 0.81177 0.0
C325 C 0.47549 0.92454 0.74563 0.0
C326 C 0.57317 0.41421 0.96608 0.0
C327 C 0.54681 0.41696 0.93796 0.0
H328 H 0.642 0.45221 0.99607 0.0
C329 C 0.57027 0.46388 0.91947 0.0
H330 H 0.55661 0.37891 0.98094 0.0
C331 C 0.61977 0.50586 0.92792 0.0
C332 C 0.64722 0.50214 0.95515 0.0
H333 H 0.55081 0.46797 0.89803 0.0
H334 H 0.63722 0.54036 0.91234 0.0
C335 C 0.62262 0.45621 0.97456 0.0
C336 C 0.32396 0.31199 0.22675 0.0
C337 C 0.35262 0.29693 0.20667 0.0
H338 H 0.27279 0.34366 0.22926 0.0
C339 C 0.35284 0.30492 0.17264 0.0
H340 H 0.32336 0.30665 0.25305 0.0
C341 C 0.32371 0.32604 0.15895 0.0
C342 C 0.29429 0.34023 0.17902 0.0
H343 H 0.37414 0.29328 0.15651 0.0
H344 H 0.32403 0.33107 0.13263 0.0
C345 C 0.29536 0.33361 0.21312 0.0
C346 C 1.02199 0.31883 0.37954 0.0
C347 C 1.01023 0.30455 0.34647 0.0
H348 H 0.08116 0.35114 0.4168 0.0
C349 C 0.05167 0.31512 0.32504 0.0
H350 H 0.99114 0.31109 0.39679 0.0
C351 C 0.10331 0.33777 0.33658 0.0
C352 C 0.1148 0.3503 0.36988 0.0
H353 H 0.0442 0.30542 0.29933 0.0
H354 H 0.13385 0.34371 0.31955 0.0
C355 C 0.07361 0.34136 0.3911 0.0
C356 C 0.77891 0.08679 0.50485 0.0
C357 C 0.78035 0.09561 0.53872 0.0
H358 H 0.75192 0.03036 0.46632 0.0
C359 C 0.75191 0.05237 0.55976 0.0
H360 H 0.80058 0.11902 0.48792 0.0
C361 C 0.72419 1.00137 0.54735 0.0
C362 C 0.72458 0.99246 0.51361 0.0
H363 H 0.75171 0.05788 0.58593 0.0
H364 H 0.70407 0.96884 0.5643 0.0
C365 C 0.75147 0.03584 0.49247 0.0
C366 C 0.75386 0.70631 0.70906 0.0
C367 C 0.76552 0.7106 0.67547 0.0
H368 H 0.72077 0.72813 0.74824 0.0
C369 C 0.74933 0.73853 0.65507 0.0
H370 H 0.76605 0.68525 0.72538 0.0
C371 C 0.72328 0.76284 0.6681 0.0
C372 C 0.71332 0.76018 0.70188 0.0
H373 H 0.75717 0.74191 0.62902 0.0
H374 H 0.71269 0.7853 0.65188 0.0
C375 C 0.72829 0.73112 0.72216 0.0
C376 C 1.03901 0.73659 0.8996 0.0
C377 C 0.99691 0.70407 0.87883 0.0
H378 H 0.12181 0.78882 0.90429 0.0
C379 C 1.00807 0.69596 0.8467 0.0
H380 H 1.03202 0.74292 0.92469 0.0
C381 C 0.0597 0.72176 0.83516 0.0
C382 C 0.10149 0.75634 0.8554 0.0
H383 H 0.9768 0.67132 0.82998 0.0
H384 H 0.06679 0.71564 0.81004 0.0
C385 C 0.09069 0.76239 0.88804 0.0
C386 C 0.32326 1.0091 0.05736 0.0
C387 C 0.29564 0.96544 0.03683 0.0
H388 H 0.37112 0.09273 0.06066 0.0
C389 C 0.29795 0.97365 1.00275 0.0
H390 H 0.32273 1.00406 0.08368 0.0
C391 C 0.32574 1.02437 0.98959 0.0
C392 C 0.35223 0.06811 1.01014 0.0
H393 H 0.27686 0.94105 0.98623 0.0
H394 H 0.32604 0.02944 0.96328 0.0
C395 C 0.35146 0.05986 0.04416 0.0
C396 C 0.20722 0.23259 0.0255 0.0
C397 C 0.20445 0.27867 0.02803 0.0
H398 H 0.24088 0.19269 1.00081 0.0
C399 C 0.23157 0.31908 1.00486 0.0
H400 H 0.18673 0.20061 0.04282 0.0
C401 C 0.26272 0.31461 0.98081 0.0
C402 C 0.26746 0.26957 0.97922 0.0
H403 H 0.23017 0.35505 1.0059 0.0
H404 H 0.28434 0.34723 0.9641 0.0
C405 C 0.2383 0.22805 1.00136 0.0
C406 C 0.93829 0.23682 0.16014 0.0
C407 C 0.93183 0.20826 0.18927 0.0
H408 H 0.989 0.27991 0.12008 0.0
C409 C 0.9716 0.19766 0.19865 0.0
H410 H 0.90848 0.24575 0.15216 0.0
C411 C 1.01758 0.21694 0.18013 0.0
C412 C 1.02522 0.24772 0.1519 0.0
H413 H 0.96792 0.17563 0.22084 0.0
H414 H 0.04793 0.20921 0.1887 0.0
C415 C 0.98454 0.25651 0.14173 0.0
C416 C 0.77388 1.0071 0.33506 0.0
C417 C 0.8275 0.04264 0.32961 0.0
H418 H 0.71649 0.93854 0.36087 0.0
C419 C 0.86484 0.03381 0.34566 0.0
H420 H 0.7441 1.01264 0.32306 0.0
C421 C 0.8491 0.99167 0.3675 0.0
C422 C 0.79558 0.95687 0.3736 0.0
H423 H 0.90651 0.06029 0.34206 0.0
H424 H 0.87899 0.98692 0.38002 0.0
C425 C 0.75809 0.9645 0.35667 0.0
C426 C 0.84149 0.71872 0.47741 0.0
C427 C 0.85382 0.73582 0.51003 0.0
H428 H 0.80358 0.72028 0.43271 0.0
C429 C 0.8388 0.77102 0.52183 0.0
H430 H 0.85232 0.69154 0.46749 0.0
C431 C 0.81102 0.78762 0.50187 0.0
C432 C 0.79718 0.76924 0.46959 0.0
H433 H 0.84764 0.78511 0.54678 0.0
H434 H 0.79938 0.81402 0.51207 0.0
C435 C 0.81337 0.73511 0.45746 0.0
C436 C 0.09513 0.78108 0.70418 0.0
C437 C 0.1273 0.83295 0.69299 0.0
H438 H 1.0253 0.70713 0.69722 0.0
C439 C 0.11287 0.84885 0.66401 0.0
H440 H 0.10484 0.76717 0.72631 0.0
C441 C 0.06679 0.81386 0.64704 0.0
C442 C 1.0341 0.76241 0.65885 0.0
H443 H 0.13678 0.88844 0.65464 0.0
H444 H 0.05622 0.82745 0.62512 0.0
C445 C 0.04925 0.74645 0.68742 0.0
C446 C 0.25124 0.06557 0.85395 0.0
C447 C 0.30001 0.11002 0.86135 0.0
H448 H 0.20979 0.99462 0.82627 0.0
C449 C 0.34449 0.11881 0.84352 0.0
H450 H 0.21613 0.05768 0.86707 0.0
C451 C 0.3409 0.08256 0.82028 0.0
C452 C 0.29268 0.0368 0.81402 0.0
H453 H 0.38268 0.15269 0.84841 0.0
H454 H 0.37639 0.08961 0.80799 0.0
C455 C 0.24757 0.02947 0.83044 0.0
C456 C 0.75365 0.81131 0.86287 0.0
C457 C 0.79175 0.85542 0.84538 0.0
H458 H 0.7383 0.74924 0.89698 0.0
C459 C 0.84503 0.87206 0.85069 0.0
H460 H 0.71221 0.79728 0.85929 0.0
C461 C 0.85992 0.84484 0.87238 0.0
C462 C 0.82195 0.79983 0.88918 0.0
H463 H 0.87545 0.90589 0.83775 0.0
H464 H 0.90141 0.8586 0.87541 0.0
C465 C 0.76858 0.78365 0.88442 0.0
C466 C 0.93523 0.72022 0.05989 0.0
C467 C 0.92865 0.74196 0.03063 0.0
H468 H 0.98757 0.72626 0.0986 0.0
C469 C 0.97038 0.79025 1.01955 0.0
H470 H 0.90398 0.68302 0.06912 0.0
C471 C 1.01814 0.81517 0.03657 0.0
C472 C 1.02563 0.79222 0.06495 0.0
H473 H 0.96671 0.80821 0.99717 0.0
H474 H 0.0498 0.85161 0.02675 0.0
C475 C 0.98325 0.74494 0.07677 0.0
C476 C 0.23625 0.92406 0.2092 0.0
C477 C 0.20892 0.93703 0.18601 0.0
H478 H 0.28975 0.94948 0.24976 0.0
C479 C 0.21271 0.98639 0.18794 0.0
H480 H 0.23413 0.88632 0.20855 0.0
C481 C 0.24469 1.02267 0.21164 0.0
C482 C 0.27368 1.01046 0.23398 0.0
H483 H 0.19216 0.99768 0.17056 0.0
H484 H 0.24771 0.06083 0.21185 0.0
C485 C 0.26823 0.96033 0.23288 0.0
C486 C 0.31653 0.21533 0.37179 0.0
C487 C 0.27971 0.17992 0.34921 0.0
H488 H 0.3315 0.26879 0.41113 0.0
C489 C 0.22718 0.16782 0.35161 0.0
H490 H 0.3573 0.22542 0.37077 0.0
C491 C 0.21237 0.19258 0.3748 0.0
C492 C 0.2497 0.23013 0.3962 0.0
H493 H 0.19766 0.14049 0.33481 0.0
H494 H 0.17192 0.18364 0.37507 0.0
C495 C 0.3017 0.24016 0.39502 0.0
C496 C 0.1048 0.24535 0.53891 0.0
C497 C 0.14097 0.2928 0.52341 0.0
H498 H 1.03657 0.20537 0.56972 0.0
C499 C 0.13733 0.33778 0.52932 0.0
H500 H 0.10657 0.20999 0.53498 0.0
C501 C 0.09724 0.33498 0.54882 0.0
C502 C 0.05995 0.28732 0.56337 0.0
H503 H 0.16444 0.37508 0.51796 0.0
H504 H 0.09483 0.37017 0.55193 0.0
C505 C 0.06484 0.24272 0.55891 0.0
C506 C 0.79564 0.09201 0.72957 0.0
C507 C 0.79722 0.04567 0.73517 0.0
H508 H 0.82585 0.16394 0.70238 0.0
C509 C 0.8346 0.03863 0.71814 0.0
H510 H 0.76752 0.09889 0.7423 0.0
C511 C 0.86793 0.07588 0.69506 0.0
C512 C 0.86499 0.12129 0.68858 0.0
H513 H 0.83703 1.00348 0.72181 0.0
H514 H 0.89513 0.06838 0.68172 0.0
C515 C 0.8292 0.12942 0.70665 0.0
loop_
_geom_bond_atom_site_label_1
_geom_bond_atom_site_label_2
_geom_bond_distance
_geom_bond_site_symmetry_2
_ccdc_geom_bond_type
Cu0 N1 1.999 . S
Cu0 O6 1.974 . S
Cu0 N11 1.985 . S
Cu0 O20 1.959 . S
N1 Cu0 1.999 . S
N1 C3 1.263 . S
N1 C5 1.389 . S
N2 C3 1.358 . S
N2 C4 1.400 . S
C3 N1 1.263 . S
C3 N2 1.358 . S
C3 H9 0.930 . S
C4 N2 1.400 . S
C4 C5 1.351 . S
C4 H21 0.930 . S
C5 N1 1.389 . S
C5 C4 1.351 . S
C5 H10 0.930 . S
O6 Cu0 1.974 . S
O6 C16 1.282 . S
C7 O8 1.261 . S
C7 O20 1.251 . S
O8 C7 1.261 . S
H9 C3 0.930 . S
H10 C5 0.930 . S
N11 Cu0 1.985 . S
N11 C13 1.335 . S
N11 C14 1.390 . S
N12 C13 1.345 . S
N12 C15 1.336 . S
C13 N11 1.335 . S
C13 N12 1.345 . S
C13 H18 0.930 . S
C14 N11 1.390 . S
C14 C15 1.346 . S
C14 H19 0.930 . S
C15 N12 1.336 . S
C15 C14 1.346 . S
C15 H22 0.929 . S
C16 O6 1.282 . S
C16 O17 1.216 . S
O17 C16 1.216 . S
H18 C13 0.930 . S
H19 C14 0.930 . S
O20 Cu0 1.959 . S
O20 C7 1.251 . S
H21 C4 0.930 . S
H22 C15 0.929 . S
Cu23 N24 1.999 . S
Cu23 O29 1.974 . S
Cu23 N34 1.985 . S
Cu23 O43 1.959 . S
N24 Cu23 1.999 . S
N24 C26 1.263 . S
N24 C28 1.389 . S
N25 C26 1.358 . S
N25 C27 1.400 . S
C26 N24 1.263 . S
C26 N25 1.358 . S
C26 H32 0.930 . S
C27 N25 1.400 . S
C27 C28 1.351 . S
C27 H44 0.930 . S
C28 N24 1.389 . S
C28 C27 1.351 . S
C28 H33 0.930 . S
O29 Cu23 1.974 . S
O29 C39 1.282 . S
C30 O31 1.261 . S
C30 O43 1.251 . S
O31 C30 1.261 . S
H32 C26 0.930 . S
H33 C28 0.930 . S
N34 Cu23 1.985 . S
N34 C36 1.335 . S
N34 C37 1.390 . S
N35 C36 1.345 . S
N35 C38 1.336 . S
C36 N34 1.335 . S
C36 N35 1.345 . S
C36 H41 0.930 . S
C37 N34 1.390 . S
C37 C38 1.346 . S
C37 H42 0.930 . S
C38 N35 1.336 . S
C38 C37 1.346 . S
C38 H45 0.929 . S
C39 O29 1.282 . S
C39 O40 1.216 . S
O40 C39 1.216 . S
H41 C36 0.930 . S
H42 C37 0.930 . S
O43 Cu23 1.959 . S
O43 C30 1.251 . S
H44 C27 0.930 . S
H45 C38 0.929 . S
Cu46 N47 1.999 . S
Cu46 O52 1.974 . S
Cu46 N57 1.985 . S
Cu46 O66 1.959 . S
N47 Cu46 1.999 . S
N47 C49 1.263 . S
N47 C51 1.389 . S
N48 C49 1.358 . S
N48 C50 1.400 . S
C49 N47 1.263 . S
C49 N48 1.358 . S
C49 H55 0.930 . S
C50 N48 1.400 . S
C50 C51 1.351 . S
C50 H67 0.930 . S
C51 N47 1.389 . S
C51 C50 1.351 . S
C51 H56 0.930 . S
O52 Cu46 1.974 . S
O52 C62 1.282 . S
C53 O54 1.261 . S
C53 O66 1.251 . S
O54 C53 1.261 . S
H55 C49 0.930 . S
H56 C51 0.930 . S
N57 Cu46 1.985 . S
N57 C59 1.335 . S
N57 C60 1.390 . S
N58 C59 1.345 . S
N58 C61 1.336 . S
C59 N57 1.335 . S
C59 N58 1.345 . S
C59 H64 0.930 . S
C60 N57 1.390 . S
C60 C61 1.346 . S
C60 H65 0.930 . S
C61 N58 1.336 . S
C61 C60 1.346 . S
C61 H68 0.929 . S
C62 O52 1.282 . S
C62 O63 1.216 . S
O63 C62 1.216 . S
H64 C59 0.930 . S
H65 C60 0.930 . S
O66 Cu46 1.959 . S
O66 C53 1.251 . S
H67 C50 0.930 . S
H68 C61 0.929 . S
Cu69 N70 1.999 . S
Cu69 O75 1.974 . S
Cu69 N80 1.985 . S
Cu69 O89 1.959 . S
N70 Cu69 1.999 . S
N70 C72 1.263 . S
N70 C74 1.389 . S
N71 C72 1.358 . S
N71 C73 1.400 . S
C72 N70 1.263 . S
C72 N71 1.358 . S
C72 H78 0.930 . S
C73 N71 1.400 . S
C73 C74 1.351 . S
C73 H90 0.930 . S
C74 N70 1.389 . S
C74 C73 1.351 . S
C74 H79 0.930 . S
O75 Cu69 1.974 . S
O75 C85 1.282 . S
C76 O77 1.261 . S
C76 O89 1.251 . S
O77 C76 1.261 . S
H78 C72 0.930 . S
H79 C74 0.930 . S
N80 Cu69 1.985 . S
N80 C82 1.335 . S
N80 C83 1.390 . S
N81 C82 1.345 . S
N81 C84 1.336 . S
C82 N80 1.335 . S
C82 N81 1.345 . S
C82 H87 0.930 . S
C83 N80 1.390 . S
C83 C84 1.346 . S
C83 H88 0.930 . S
C84 N81 1.336 . S
C84 C83 1.346 . S
C84 H91 0.929 . S
C85 O75 1.282 . S
C85 O86 1.216 . S
O86 C85 1.216 . S
H87 C82 0.930 . S
H88 C83 0.930 . S
O89 Cu69 1.959 . S
O89 C76 1.251 . S
H90 C73 0.930 . S
H91 C84 0.929 . S
Cu92 N93 1.999 . S
Cu92 O98 1.974 . S
Cu92 N103 1.985 . S
Cu92 O112 1.959 . S
N93 Cu92 1.999 . S
N93 C95 1.263 . S
N93 C97 1.389 . S
N94 C95 1.358 . S
N94 C96 1.400 . S
C95 N93 1.263 . S
C95 N94 1.358 . S
C95 H101 0.930 . S
C96 N94 1.400 . S
C96 C97 1.351 . S
C96 H113 0.930 . S
C97 N93 1.389 . S
C97 C96 1.351 . S
C97 H102 0.930 . S
O98 Cu92 1.974 . S
O98 C108 1.282 . S
C99 O100 1.261 . S
C99 O112 1.251 . S
O100 C99 1.261 . S
H101 C95 0.930 . S
H102 C97 0.930 . S
N103 Cu92 1.985 . S
N103 C105 1.335 . S
N103 C106 1.390 . S
N104 C105 1.345 . S
N104 C107 1.336 . S
C105 N103 1.335 . S
C105 N104 1.345 . S
C105 H110 0.930 . S
C106 N103 1.390 . S
C106 C107 1.346 . S
C106 H111 0.930 . S
C107 N104 1.336 . S
C107 C106 1.346 . S
C107 H114 0.929 . S
C108 O98 1.282 . S
C108 O109 1.216 . S
O109 C108 1.216 . S
H110 C105 0.930 . S
H111 C106 0.930 . S
O112 Cu92 1.959 . S
O112 C99 1.251 . S
H113 C96 0.930 . S
H114 C107 0.929 . S
Cu115 N116 1.999 . S
Cu115 O121 1.974 . S
Cu115 N126 1.985 . S
Cu115 O135 1.959 . S
N116 Cu115 1.999 . S
N116 C118 1.263 . S
N116 C120 1.389 . S
N117 C118 1.358 . S
N117 C119 1.400 . S
C118 N116 1.263 . S
C118 N117 1.358 . S
C118 H124 0.930 . S
C119 N117 1.400 . S
C119 C120 1.351 . S
C119 H136 0.930 1_556 S
C120 N116 1.389 . S
C120 C119 1.351 . S
C120 H125 0.930 1_556 S
O121 Cu115 1.974 . S
O121 C131 1.282 . S
C122 O123 1.261 . S
C122 O135 1.251 . S
O123 C122 1.261 . S
H124 C118 0.930 . S
H125 C120 0.930 1_554 S
N126 Cu115 1.985 . S
N126 C128 1.335 . S
N126 C129 1.390 . S
N127 C128 1.345 . S
N127 C130 1.336 . S
C128 N126 1.335 . S
C128 N127 1.345 . S
C128 H133 0.930 . S
C129 N126 1.390 . S
C129 C130 1.346 . S
C129 H134 0.930 . S
C130 N127 1.336 . S
C130 C129 1.346 . S
C130 H137 0.929 . S
C131 O121 1.282 . S
C131 O132 1.216 . S
O132 C131 1.216 . S
H133 C128 0.930 . S
H134 C129 0.930 . S
O135 Cu115 1.959 . S
O135 C122 1.251 . S
H136 C119 0.930 1_554 S
H137 C130 0.929 . S
Cu138 N139 1.999 . S
Cu138 O144 1.974 . S
Cu138 N149 1.985 . S
Cu138 O158 1.959 . S
N139 Cu138 1.999 . S
N139 C141 1.263 . S
N139 C143 1.389 . S
N140 C141 1.358 . S
N140 C142 1.400 . S
C141 N139 1.263 . S
C141 N140 1.358 . S
C141 H147 0.930 . S
C142 N140 1.400 . S
C142 C143 1.351 . S
C142 H159 0.930 . S
C143 N139 1.389 . S
C143 C142 1.351 . S
C143 H148 0.930 . S
O144 Cu138 1.974 . S
O144 C154 1.282 . S
C145 O146 1.261 . S
C145 O158 1.251 . S
O146 C145 1.261 . S
H147 C141 0.930 . S
H148 C143 0.930 . S
N149 Cu138 1.985 . S
N149 C151 1.335 . S
N149 C152 1.390 . S
N150 C151 1.345 . S
N150 C153 1.336 . S
C151 N149 1.335 . S
C151 N150 1.345 . S
C151 H156 0.930 . S
C152 N149 1.390 . S
C152 C153 1.346 . S
C152 H157 0.930 . S
C153 N150 1.336 . S
C153 C152 1.346 . S
C153 H160 0.929 . S
C154 O144 1.282 . S
C154 O155 1.216 . S
O155 C154 1.216 . S
H156 C151 0.930 . S
H157 C152 0.930 . S
O158 Cu138 1.959 . S
O158 C145 1.251 . S
H159 C142 0.930 . S
H160 C153 0.929 . S
Cu161 N162 1.999 . S
Cu161 O167 1.974 . S
Cu161 N172 1.985 . S
Cu161 O181 1.959 . S
N162 Cu161 1.999 . S
N162 C164 1.263 . S
N162 C166 1.389 . S
N163 C164 1.358 . S
N163 C165 1.400 . S
C164 N162 1.263 . S
C164 N163 1.358 . S
C164 H170 0.930 . S
C165 N163 1.400 . S
C165 C166 1.351 . S
C165 H182 0.930 . S
C166 N162 1.389 . S
C166 C165 1.351 . S
C166 H171 0.930 . S
O167 Cu161 1.974 . S
O167 C177 1.282 . S
C168 O169 1.261 . S
C168 O181 1.251 . S
O169 C168 1.261 . S
H170 C164 0.930 . S
H171 C166 0.930 . S
N172 Cu161 1.985 . S
N172 C174 1.335 . S
N172 C175 1.390 . S
N173 C174 1.345 . S
N173 C176 1.336 . S
C174 N172 1.335 . S
C174 N173 1.345 . S
C174 H179 0.930 . S
C175 N172 1.390 . S
C175 C176 1.346 . S
C175 H180 0.930 . S
C176 N173 1.336 . S
C176 C175 1.346 . S
C176 H183 0.929 . S
C177 O167 1.282 . S
C177 O178 1.216 . S
O178 C177 1.216 . S
H179 C174 0.930 . S
H180 C175 0.930 . S
O181 Cu161 1.959 . S
O181 C168 1.251 . S
H182 C165 0.930 . S
H183 C176 0.929 . S
Cu184 N185 1.999 . S
Cu184 O190 1.974 . S
Cu184 N195 1.985 . S
Cu184 O204 1.959 . S
N185 Cu184 1.999 . S
N185 C187 1.263 . S
N185 C189 1.389 . S
N186 C187 1.358 . S
N186 C188 1.400 . S
C187 N185 1.263 . S
C187 N186 1.358 . S
C187 H193 0.930 . S
C188 N186 1.400 . S
C188 C189 1.351 . S
C188 H205 0.930 1_554 S
C189 N185 1.389 . S
C189 C188 1.351 . S
C189 H194 0.930 1_554 S
O190 Cu184 1.974 . S
O190 C200 1.282 . S
C191 O192 1.261 . S
C191 O204 1.251 . S
O192 C191 1.261 . S
H193 C187 0.930 . S
H194 C189 0.930 1_556 S
N195 Cu184 1.985 . S
N195 C197 1.335 . S
N195 C198 1.390 . S
N196 C197 1.345 . S
N196 C199 1.336 . S
C197 N195 1.335 . S
C197 N196 1.345 . S
C197 H202 0.930 . S
C198 N195 1.390 . S
C198 C199 1.346 . S
C198 H203 0.930 . S
C199 N196 1.336 . S
C199 C198 1.346 . S
C199 H206 0.929 . S
C200 O190 1.282 . S
C200 O201 1.216 . S
O201 C200 1.216 . S
H202 C197 0.930 . S
H203 C198 0.930 . S
O204 Cu184 1.959 . S
O204 C191 1.251 . S
H205 C188 0.930 1_556 S
H206 C199 0.929 . S
Cu207 N208 1.999 . S
Cu207 O213 1.974 . S
Cu207 N218 1.985 . S
Cu207 O227 1.959 . S
N208 Cu207 1.999 . S
N208 C210 1.263 . S
N208 C212 1.389 . S
N209 C210 1.358 . S
N209 C211 1.400 . S
C210 N208 1.263 . S
C210 N209 1.358 . S
C210 H216 0.930 . S
C211 N209 1.400 . S
C211 C212 1.351 . S
C211 H228 0.930 . S
C212 N208 1.389 . S
C212 C211 1.351 . S
C212 H217 0.930 . S
O213 Cu207 1.974 . S
O213 C223 1.282 . S
C214 O215 1.261 . S
C214 O227 1.251 . S
O215 C214 1.261 . S
H216 C210 0.930 . S
H217 C212 0.930 . S
N218 Cu207 1.985 . S
N218 C220 1.335 . S
N218 C221 1.390 . S
N219 C220 1.345 . S
N219 C222 1.336 . S
C220 N218 1.335 . S
C220 N219 1.345 . S
C220 H225 0.930 . S
C221 N218 1.390 . S
C221 C222 1.346 . S
C221 H226 0.930 . S
C222 N219 1.336 . S
C222 C221 1.346 . S
C222 H229 0.929 . S
C223 O213 1.282 . S
C223 O224 1.216 . S
O224 C223 1.216 . S
H225 C220 0.930 . S
H226 C221 0.930 . S
O227 Cu207 1.959 . S
O227 C214 1.251 . S
H228 C211 0.930 . S
H229 C222 0.929 . S
Cu230 N231 1.999 . S
Cu230 O236 1.974 . S
Cu230 N241 1.985 . S
Cu230 O250 1.959 . S
N231 Cu230 1.999 . S
N231 C233 1.263 . S
N231 C235 1.389 . S
N232 C233 1.358 . S
N232 C234 1.400 . S
C233 N231 1.263 . S
C233 N232 1.358 . S
C233 H239 0.930 . S
C234 N232 1.400 . S
C234 C235 1.351 . S
C234 H251 0.930 . S
C235 N231 1.389 . S
C235 C234 1.351 . S
C235 H240 0.930 . S
O236 Cu230 1.974 . S
O236 C246 1.282 . S
C237 O238 1.261 . S
C237 O250 1.251 . S
O238 C237 1.261 . S
H239 C233 0.930 . S
H240 C235 0.930 . S
N241 Cu230 1.985 . S
N241 C243 1.335 . S
N241 C244 1.390 . S
N242 C243 1.345 . S
N242 C245 1.336 . S
C243 N241 1.335 . S
C243 N242 1.345 . S
C243 H248 0.930 . S
C244 N241 1.390 . S
C244 C245 1.346 . S
C244 H249 0.930 . S
C245 N242 1.336 . S
C245 C244 1.346 . S
C245 H252 0.929 . S
C246 O236 1.282 . S
C246 O247 1.216 . S
O247 C246 1.216 . S
H248 C243 0.930 . S
H249 C244 0.930 . S
O250 Cu230 1.959 . S
O250 C237 1.251 . S
H251 C234 0.930 . S
H252 C245 0.929 . S
Cu253 N254 1.999 . S
Cu253 O259 1.974 . S
Cu253 N264 1.985 . S
Cu253 O273 1.959 . S
N254 Cu253 1.999 . S
N254 C256 1.263 . S
N254 C258 1.389 . S
N255 C256 1.358 . S
N255 C257 1.400 . S
C256 N254 1.263 . S
C256 N255 1.358 . S
C256 H262 0.930 . S
C257 N255 1.400 . S
C257 C258 1.351 . S
C257 H274 0.930 . S
C258 N254 1.389 . S
C258 C257 1.351 . S
C258 H263 0.930 . S
O259 Cu253 1.974 . S
O259 C269 1.282 . S
C260 O261 1.261 . S
C260 O273 1.251 . S
O261 C260 1.261 . S
H262 C256 0.930 . S
H263 C258 0.930 . S
N264 Cu253 1.985 . S
N264 C266 1.335 . S
N264 C267 1.390 . S
N265 C266 1.345 . S
N265 C268 1.336 . S
C266 N264 1.335 . S
C266 N265 1.345 . S
C266 H271 0.930 . S
C267 N264 1.390 . S
C267 C268 1.346 . S
C267 H272 0.930 . S
C268 N265 1.336 . S
C268 C267 1.346 . S
C268 H275 0.929 . S
C269 O259 1.282 . S
C269 O270 1.216 . S
O270 C269 1.216 . S
H271 C266 0.930 . S
H272 C267 0.930 . S
O273 Cu253 1.959 . S
O273 C260 1.251 . S
H274 C257 0.930 . S
H275 C268 0.929 . S
C276 C277 1.387 . S
C276 H280 0.950 . S
C276 C285 1.390 . S
C277 C276 1.387 . S
C277 C279 1.387 . S
H278 C285 0.950 . S
C279 C277 1.387 . S
C279 C281 1.390 . S
C279 H283 0.950 . S
H280 C276 0.950 . S
C281 C279 1.390 . S
C281 C282 1.387 . S
C281 H284 0.950 . S
C282 C281 1.387 . S
C282 C285 1.387 . S
H283 C279 0.950 . S
H284 C281 0.950 . S
C285 C276 1.390 . S
C285 H278 0.950 . S
C285 C282 1.387 . S
C286 C287 1.387 . S
C286 H290 0.950 1_545 S
C286 C295 1.390 . S
C287 C286 1.387 . S
C287 C289 1.387 . S
H288 C295 0.950 1_565 S
C289 C287 1.387 . S
C289 C291 1.390 . S
C289 H293 0.950 . S
H290 C286 0.950 1_565 S
C291 C289 1.390 . S
C291 C292 1.387 . S
C291 H294 0.950 . S
C292 C291 1.387 . S
C292 C295 1.387 . S
H293 C289 0.950 . S
H294 C291 0.950 . S
C295 C286 1.390 . S
C295 H288 0.950 1_545 S
C295 C292 1.387 . S
C296 C297 1.387 . S
C296 H300 0.950 . S
C296 C305 1.390 . S
C297 C296 1.387 . S
C297 C299 1.387 . S
H298 C305 0.950 . S
C299 C297 1.387 . S
C299 C301 1.390 . S
C299 H303 0.950 . S
H300 C296 0.950 . S
C301 C299 1.390 . S
C301 C302 1.387 . S
C301 H304 0.950 . S
C302 C301 1.387 . S
C302 C305 1.387 . S
H303 C299 0.950 . S
H304 C301 0.950 . S
C305 C296 1.390 . S
C305 H298 0.950 . S
C305 C302 1.387 . S
C306 C307 1.387 . S
C306 H310 0.950 . S
C306 C315 1.390 . S
C307 C306 1.387 . S
C307 C309 1.387 . S
H308 C315 0.950 . S
C309 C307 1.387 . S
C309 C311 1.390 . S
C309 H313 0.950 . S
H310 C306 0.950 . S
C311 C309 1.390 . S
C311 C312 1.387 . S
C311 H314 0.950 . S
C312 C311 1.387 . S
C312 C315 1.387 . S
H313 C309 0.950 . S
H314 C311 0.950 . S
C315 C306 1.390 . S
C315 H308 0.950 . S
C315 C312 1.387 . S
C316 C317 1.387 . S
C316 H320 0.950 1_565 S
C316 C325 1.390 . S
C317 C316 1.387 . S
C317 C319 1.387 . S
H318 C325 0.950 1_545 S
C319 C317 1.387 . S
C319 C321 1.390 . S
C319 H323 0.950 . S
H320 C316 0.950 1_545 S
C321 C319 1.390 . S
C321 C322 1.387 . S
C321 H324 0.950 . S
C322 C321 1.387 . S
C322 C325 1.387 . S
H323 C319 0.950 . S
H324 C321 0.950 . S
C325 C316 1.390 . S
C325 H318 0.950 1_565 S
C325 C322 1.387 . S
C326 C327 1.387 . S
C326 H330 0.950 . S
C326 C335 1.390 . S
C327 C326 1.387 . S
C327 C329 1.387 . S
H328 C335 0.950 . S
C329 C327 1.387 . S
C329 C331 1.390 . S
C329 H333 0.950 . S
H330 C326 0.950 . S
C331 C329 1.390 . S
C331 C332 1.387 . S
C331 H334 0.950 . S
C332 C331 1.387 . S
C332 C335 1.387 . S
H333 C329 0.950 . S
H334 C331 0.950 . S
C335 C326 1.390 . S
C335 H328 0.950 . S
C335 C332 1.387 . S
C336 C337 1.387 . S
C336 H340 0.950 . S
C336 C345 1.390 . S
C337 C336 1.387 . S
C337 C339 1.387 . S
H338 C345 0.950 . S
C339 C337 1.387 . S
C339 C341 1.390 . S
C339 H343 0.950 . S
H340 C336 0.950 . S
C341 C339 1.390 . S
C341 C342 1.387 . S
C341 H344 0.950 . S
C342 C341 1.387 . S
C342 C345 1.387 . S
H343 C339 0.950 . S
H344 C341 0.950 . S
C345 C336 1.390 . S
C345 H338 0.950 . S
C345 C342 1.387 . S
C346 C347 1.387 . S
C346 H350 0.950 . S
C346 C355 1.390 . S
C347 C346 1.387 . S
C347 C349 1.387 1_655 S
H348 C355 0.950 . S
C349 C347 1.387 1_455 S
C349 C351 1.390 . S
C349 H353 0.950 . S
H350 C346 0.950 . S
C351 C349 1.390 . S
C351 C352 1.387 . S
C351 H354 0.950 . S
C352 C351 1.387 . S
C352 C355 1.387 1_455 S
H353 C349 0.950 . S
H354 C351 0.950 . S
C355 C346 1.390 . S
C355 H348 0.950 . S
C355 C352 1.387 1_655 S
C356 C357 1.387 . S
C356 H360 0.950 . S
C356 C365 1.390 1_545 S
C357 C356 1.387 . S
C357 C359 1.387 . S
H358 C365 0.950 . S
C359 C357 1.387 . S
C359 C361 1.390 1_545 S
C359 H363 0.950 . S
H360 C356 0.950 . S
C361 C359 1.390 1_565 S
C361 C362 1.387 . S
C361 H364 0.950 . S
C362 C361 1.387 . S
C362 C365 1.387 . S
H363 C359 0.950 . S
H364 C361 0.950 . S
C365 C356 1.390 1_565 S
C365 H358 0.950 . S
C365 C362 1.387 . S
C366 C367 1.387 . S
C366 H370 0.950 . S
C366 C375 1.390 . S
C367 C366 1.387 . S
C367 C369 1.387 . S
H368 C375 0.950 . S
C369 C367 1.387 . S
C369 C371 1.390 . S
C369 H373 0.950 . S
H370 C366 0.950 . S
C371 C369 1.390 . S
C371 C372 1.387 . S
C371 H374 0.950 . S
C372 C371 1.387 . S
C372 C375 1.387 . S
H373 C369 0.950 . S
H374 C371 0.950 . S
C375 C366 1.390 . S
C375 H368 0.950 . S
C375 C372 1.387 . S
C376 C377 1.387 1_455 S
C376 H380 0.950 . S
C376 C385 1.390 . S
C377 C376 1.387 1_655 S
C377 C379 1.387 . S
H378 C385 0.950 . S
C379 C377 1.387 . S
C379 C381 1.390 . S
C379 H383 0.950 . S
H380 C376 0.950 . S
C381 C379 1.390 . S
C381 C382 1.387 1_655 S
C381 H384 0.950 . S
C382 C381 1.387 1_455 S
C382 C385 1.387 . S
H383 C379 0.950 . S
H384 C381 0.950 . S
C385 C376 1.390 . S
C385 H378 0.950 . S
C385 C382 1.387 . S
C386 C387 1.387 . S
C386 H390 0.950 . S
C386 C395 1.390 1_564 S
C387 C386 1.387 . S
C387 C389 1.387 . S
H388 C395 0.950 . S
C389 C387 1.387 . S
C389 C391 1.390 1_564 S
C389 H393 0.950 . S
H390 C386 0.950 . S
C391 C389 1.390 1_546 S
C391 C392 1.387 . S
C391 H394 0.950 . S
C392 C391 1.387 . S
C392 C395 1.387 . S
H393 C389 0.950 . S
H394 C391 0.950 . S
C395 C386 1.390 1_546 S
C395 H388 0.950 . S
C395 C392 1.387 . S
C396 C397 1.387 . S
C396 H400 0.950 . S
C396 C405 1.390 . S
C397 C396 1.387 . S
C397 C399 1.387 . S
H398 C405 0.950 . S
C399 C397 1.387 . S
C399 C401 1.390 1_554 S
C399 H403 0.950 1_554 S
H400 C396 0.950 . S
C401 C399 1.390 1_556 S
C401 C402 1.387 . S
C401 H404 0.950 . S
C402 C401 1.387 . S
C402 C405 1.387 1_556 S
H403 C399 0.950 1_556 S
H404 C401 0.950 . S
C405 C396 1.390 . S
C405 H398 0.950 . S
C405 C402 1.387 1_554 S
C406 C407 1.387 . S
C406 H410 0.950 . S
C406 C415 1.390 . S
C407 C406 1.387 . S
C407 C409 1.387 . S
H408 C415 0.950 . S
C409 C407 1.387 . S
C409 C411 1.390 . S
C409 H413 0.950 . S
H410 C406 0.950 . S
C411 C409 1.390 . S
C411 C412 1.387 . S
C411 H414 0.950 . S
C412 C411 1.387 . S
C412 C415 1.387 . S
H413 C409 0.950 . S
H414 C411 0.950 . S
C415 C406 1.390 . S
C415 H408 0.950 . S
C415 C412 1.387 . S
C416 C417 1.387 . S
C416 H420 0.938 1_565 S
C416 C425 1.390 . S
C417 C416 1.387 . S
C417 C419 1.387 . S
H418 C425 0.950 . S
C419 C417 1.387 . S
C419 C421 1.390 . S
C419 H423 0.950 . S
H420 C416 0.938 1_545 S
C421 C419 1.390 . S
C421 C422 1.387 . S
C421 H424 0.950 . S
C422 C421 1.387 . S
C422 C425 1.387 . S
H423 C419 0.950 . S
H424 C421 0.950 . S
C425 C416 1.390 . S
C425 H418 0.950 . S
C425 C422 1.387 . S
C426 C427 1.387 . S
C426 H430 0.950 . S
C426 C435 1.390 . S
C427 C426 1.387 . S
C427 C429 1.387 . S
H428 C435 0.950 . S
C429 C427 1.387 . S
C429 C431 1.390 . S
C429 H433 0.950 . S
H430 C426 0.950 . S
C431 C429 1.390 . S
C431 C432 1.387 . S
C431 H434 0.950 . S
C432 C431 1.387 . S
C432 C435 1.387 . S
H433 C429 0.950 . S
H434 C431 0.950 . S
C435 C426 1.390 . S
C435 H428 0.950 . S
C435 C432 1.387 . S
C436 C437 1.387 . S
C436 H440 0.950 . S
C436 C445 1.390 . S
C437 C436 1.387 . S
C437 C439 1.387 . S
H438 C445 0.950 . S
C439 C437 1.387 . S
C439 C441 1.390 . S
C439 H443 0.950 . S
H440 C436 0.950 . S
C441 C439 1.390 . S
C441 C442 1.387 . S
C441 H444 0.950 . S
C442 C441 1.387 . S
C442 C445 1.387 . S
H443 C439 0.950 . S
H444 C441 0.950 . S
C445 C436 1.390 . S
C445 H438 0.950 . S
C445 C442 1.387 . S
C446 C447 1.387 . S
C446 H450 0.950 . S
C446 C455 1.390 . S
C447 C446 1.387 . S
C447 C449 1.387 . S
H448 C455 0.950 . S
C449 C447 1.387 . S
C449 C451 1.390 . S
C449 H453 0.950 . S
H450 C446 0.950 . S
C451 C449 1.390 . S
C451 C452 1.387 . S
C451 H454 0.950 . S
C452 C451 1.387 . S
C452 C455 1.387 . S
H453 C449 0.950 . S
H454 C451 0.950 . S
C455 C446 1.390 . S
C455 H448 0.950 . S
C455 C452 1.387 . S
C456 C457 1.387 . S
C456 H460 0.950 . S
C456 C465 1.390 . S
C457 C456 1.387 . S
C457 C459 1.387 . S
H458 C465 0.950 . S
C459 C457 1.387 . S
C459 C461 1.390 . S
C459 H463 0.950 . S
H460 C456 0.950 . S
C461 C459 1.390 . S
C461 C462 1.387 . S
C461 H464 0.950 . S
C462 C461 1.387 . S
C462 C465 1.387 . S
H463 C459 0.950 . S
H464 C461 0.950 . S
C465 C456 1.390 . S
C465 H458 0.950 . S
C465 C462 1.387 . S
C466 C467 1.387 1_554 S
C466 H470 0.950 . S
C466 C475 1.390 . S
C467 C466 1.387 1_556 S
C467 C469 1.387 . S
H468 C475 0.950 . S
C469 C467 1.387 . S
C469 C471 1.390 . S
C469 H473 0.950 . S
H470 C466 0.950 . S
C471 C469 1.390 . S
C471 C472 1.387 1_556 S
C471 H474 0.950 1_655 S
C472 C471 1.387 1_554 S
C472 C475 1.387 . S
H473 C469 0.950 . S
H474 C471 0.950 1_455 S
C475 C466 1.390 . S
C475 H468 0.950 . S
C475 C472 1.387 . S
C476 C477 1.387 . S
C476 H480 0.950 . S
C476 C485 1.390 . S
C477 C476 1.387 . S
C477 C479 1.387 . S
H478 C485 0.950 . S
C479 C477 1.387 . S
C479 C481 1.390 . S
C479 H483 0.950 . S
H480 C476 0.950 . S
C481 C479 1.390 . S
C481 C482 1.387 . S
C481 H484 0.950 . S
C482 C481 1.387 . S
C482 C485 1.387 . S
H483 C479 0.950 . S
H484 C481 0.950 . S
C485 C476 1.390 . S
C485 H478 0.950 . S
C485 C482 1.387 . S
C486 C487 1.387 . S
C486 H490 0.950 . S
C486 C495 1.390 . S
C487 C486 1.387 . S
C487 C489 1.387 . S
H488 C495 0.950 . S
C489 C487 1.387 . S
C489 C491 1.390 . S
C489 H493 0.950 . S
H490 C486 0.950 . S
C491 C489 1.390 . S
C491 C492 1.387 . S
C491 H494 0.950 . S
C492 C491 1.387 . S
C492 C495 1.387 . S
H493 C489 0.950 . S
H494 C491 0.950 . S
C495 C486 1.390 . S
C495 H488 0.950 . S
C495 C492 1.387 . S
C496 C497 1.387 . S
C496 H500 0.950 . S
C496 C505 1.390 . S
C497 C496 1.387 . S
C497 C499 1.387 . S
H498 C505 0.950 1_655 S
C499 C497 1.387 . S
C499 C501 1.390 . S
C499 H503 0.950 . S
H500 C496 0.950 . S
C501 C499 1.390 . S
C501 C502 1.387 . S
C501 H504 0.950 . S
C502 C501 1.387 . S
C502 C505 1.387 . S
H503 C499 0.950 . S
H504 C501 0.950 . S
C505 C496 1.390 . S
C505 H498 0.950 1_455 S
C505 C502 1.387 . S
C506 C507 1.387 . S
C506 H510 0.950 . S
C506 C515 1.390 . S
C507 C506 1.387 . S
C507 C509 1.387 . S
H508 C515 0.950 . S
C509 C507 1.387 . S
C509 C511 1.390 . S
C509 H513 0.950 . S
H510 C506 0.950 . S
C511 C509 1.390 . S
C511 C512 1.387 . S
C511 H514 0.950 . S
C512 C511 1.387 . S
C512 C515 1.387 . S
H513 C509 0.950 . S
H514 C511 0.950 . S
C515 C506 1.390 . S
C515 H508 0.950 . S
C515 C512 1.387 . S
C277 N196 1.772 . S
C282 N12 1.770 . S
C287 N35 1.771 . S
C292 N219 1.771 . S
C297 N58 1.770 . S
C302 N242 1.771 . S
C307 N81 1.772 . S
C312 N265 1.770 . S
C317 N150 1.771 . S
C322 N104 1.771 . S
C327 N127 1.772 . S
C332 N173 1.770 . S
C337 N209 1.292 . S
C342 N2 1.291 . S
C347 N25 1.286 . S
C352 N232 1.288 . S
C357 N255 1.291 . S
C362 N48 1.291 . S
C367 N71 1.291 . S
C372 N140 1.292 . S
C377 N163 1.288 . S
C382 N94 1.286 . S
C387 N186 1.286 . S
C392 N117 1.286 . S
C397 C16 1.915 . S
C402 C122 1.868 . S
C407 C39 1.913 . S
C412 C7 1.870 1_655 S
C417 C30 1.868 1_565 S
C422 C62 1.915 . S
C427 C85 1.914 . S
C432 C53 1.871 . S
C437 C108 1.915 . S
C442 C76 1.869 1_455 S
C447 C131 1.914 . S
C452 C99 1.869 1_545 S
C457 C154 1.915 . S
C462 C168 1.869 . S
C467 C177 1.914 . S
C472 C191 1.871 1_655 S
C477 C200 1.914 . S
C482 C214 1.870 1_565 S
C487 C223 1.915 . S
C492 C237 1.869 . S
C497 C246 1.914 . S
C502 C260 1.868 1_455 S
C507 C145 1.870 1_545 S
C512 C269 1.914 . S
