# Generated by pormake.
# Topology wkr, (6)-cn, num edge types: 1
# Building blocks:
#     Node 0, Type 0, BuildingBlock: MIDCAF_clean_sbu_0, # of connection points: 6
#     Node 1, Type 0, BuildingBlock: MIDCAF_clean_sbu_0, # of connection points: 6
#     Node 2, Type 0, BuildingBlock: MIDCAF_clean_sbu_0, # of connection points: 6
#     Node 3, Type 0, BuildingBlock: MIDCAF_clean_sbu_0, # of connection points: 6
#     Node 4, Type 0, BuildingBlock: MIDCAF_clean_sbu_0, # of connection points: 6
#     Node 5, Type 0, BuildingBlock: MIDCAF_clean_sbu_0, # of connection points: 6
#     Node 6, Type 0, BuildingBlock: MIDCAF_clean_sbu_0, # of connection points: 6
#     Node 7, Type 0, BuildingBlock: MIDCAF_clean_sbu_0, # of connection points: 6
#     Node 8, Type 0, BuildingBlock: MIDCAF_clean_sbu_0, # of connection points: 6
#     Node 9, Type 0, BuildingBlock: MIDCAF_clean_sbu_0, # of connection points: 6
#     Node 10, Type 0, BuildingBlock: MIDCAF_clean_sbu_0, # of connection points: 6
#     Node 11, Type 0, BuildingBlock: MIDCAF_clean_sbu_0, # of connection points: 6
#     Node 12, Type 0, BuildingBlock: MIDCAF_clean_sbu_0, # of connection points: 6
#     Node 13, Type 0, BuildingBlock: MIDCAF_clean_sbu_0, # of connection points: 6
#     Node 14, Type 0, BuildingBlock: MIDCAF_clean_sbu_0, # of connection points: 6
#     Node 15, Type 0, BuildingBlock: MIDCAF_clean_sbu_0, # of connection points: 6
#     Node 16, Type 0, BuildingBlock: MIDCAF_clean_sbu_0, # of connection points: 6
#     Node 17, Type 0, BuildingBlock: MIDCAF_clean_sbu_0, # of connection points: 6
#     Node 18, Type 0, BuildingBlock: MIDCAF_clean_sbu_0, # of connection points: 6
#     Node 19, Type 0, BuildingBlock: MIDCAF_clean_sbu_0, # of connection points: 6
#     Node 20, Type 0, BuildingBlock: MIDCAF_clean_sbu_0, # of connection points: 6
#     Node 21, Type 0, BuildingBlock: MIDCAF_clean_sbu_0, # of connection points: 6
#     Node 22, Type 0, BuildingBlock: MIDCAF_clean_sbu_0, # of connection points: 6
#     Node 23, Type 0, BuildingBlock: MIDCAF_clean_sbu_0, # of connection points: 6
#     Edge 24, Type (0, 0), BuildingBlock: AJUNOK_clean_linker_0, # of connection points: 2
#     Edge 25, Type (0, 0), BuildingBlock: AJUNOK_clean_linker_0, # of connection points: 2
#     Edge 26, Type (0, 0), BuildingBlock: AJUNOK_clean_linker_0, # of connection points: 2
#     Edge 27, Type (0, 0), BuildingBlock: AJUNOK_clean_linker_0, # of connection points: 2
#     Edge 28, Type (0, 0), BuildingBlock: AJUNOK_clean_linker_0, # of connection points: 2
#     Edge 29, Type (0, 0), BuildingBlock: AJUNOK_clean_linker_0, # of connection points: 2
#     Edge 30, Type (0, 0), BuildingBlock: AJUNOK_clean_linker_0, # of connection points: 2
#     Edge 31, Type (0, 0), BuildingBlock: AJUNOK_clean_linker_0, # of connection points: 2
#     Edge 32, Type (0, 0), BuildingBlock: AJUNOK_clean_linker_0, # of connection points: 2
#     Edge 33, Type (0, 0), BuildingBlock: AJUNOK_clean_linker_0, # of connection points: 2
#     Edge 34, Type (0, 0), BuildingBlock: AJUNOK_clean_linker_0, # of connection points: 2
#     Edge 35, Type (0, 0), BuildingBlock: AJUNOK_clean_linker_0, # of connection points: 2
#     Edge 36, Type (0, 0), BuildingBlock: AJUNOK_clean_linker_0, # of connection points: 2
#     Edge 37, Type (0, 0), BuildingBlock: AJUNOK_clean_linker_0, # of connection points: 2
#     Edge 38, Type (0, 0), BuildingBlock: AJUNOK_clean_linker_0, # of connection points: 2
#     Edge 39, Type (0, 0), BuildingBlock: AJUNOK_clean_linker_0, # of connection points: 2
#     Edge 40, Type (0, 0), BuildingBlock: AJUNOK_clean_linker_0, # of connection points: 2
#     Edge 41, Type (0, 0), BuildingBlock: AJUNOK_clean_linker_0, # of connection points: 2
#     Edge 42, Type (0, 0), BuildingBlock: AJUNOK_clean_linker_0, # of connection points: 2
#     Edge 43, Type (0, 0), BuildingBlock: AJUNOK_clean_linker_0, # of connection points: 2
#     Edge 44, Type (0, 0), BuildingBlock: AJUNOK_clean_linker_0, # of connection points: 2
#     Edge 45, Type (0, 0), BuildingBlock: AJUNOK_clean_linker_0, # of connection points: 2
#     Edge 46, Type (0, 0), BuildingBlock: AJUNOK_clean_linker_0, # of connection points: 2
#     Edge 47, Type (0, 0), BuildingBlock: AJUNOK_clean_linker_0, # of connection points: 2
#     Edge 48, Type (0, 0), BuildingBlock: AJUNOK_clean_linker_0, # of connection points: 2
#     Edge 49, Type (0, 0), BuildingBlock: AJUNOK_clean_linker_0, # of connection points: 2
#     Edge 50, Type (0, 0), BuildingBlock: AJUNOK_clean_linker_0, # of connection points: 2
#     Edge 51, Type (0, 0), BuildingBlock: AJUNOK_clean_linker_0, # of connection points: 2
#     Edge 52, Type (0, 0), BuildingBlock: AJUNOK_clean_linker_0, # of connection points: 2
#     Edge 53, Type (0, 0), BuildingBlock: AJUNOK_clean_linker_0, # of connection points: 2
#     Edge 54, Type (0, 0), BuildingBlock: AJUNOK_clean_linker_0, # of connection points: 2
#     Edge 55, Type (0, 0), BuildingBlock: AJUNOK_clean_linker_0, # of connection points: 2
#     Edge 56, Type (0, 0), BuildingBlock: AJUNOK_clean_linker_0, # of connection points: 2
#     Edge 57, Type (0, 0), BuildingBlock: AJUNOK_clean_linker_0, # of connection points: 2
#     Edge 58, Type (0, 0), BuildingBlock: AJUNOK_clean_linker_0, # of connection points: 2
#     Edge 59, Type (0, 0), BuildingBlock: AJUNOK_clean_linker_0, # of connection points: 2
#     Edge 60, Type (0, 0), BuildingBlock: AJUNOK_clean_linker_0, # of connection points: 2
#     Edge 61, Type (0, 0), BuildingBlock: AJUNOK_clean_linker_0, # of connection points: 2
#     Edge 62, Type (0, 0), BuildingBlock: AJUNOK_clean_linker_0, # of connection points: 2
#     Edge 63, Type (0, 0), BuildingBlock: AJUNOK_clean_linker_0, # of connection points: 2
#     Edge 64, Type (0, 0), BuildingBlock: AJUNOK_clean_linker_0, # of connection points: 2
#     Edge 65, Type (0, 0), BuildingBlock: AJUNOK_clean_linker_0, # of connection points: 2
#     Edge 66, Type (0, 0), BuildingBlock: AJUNOK_clean_linker_0, # of connection points: 2
#     Edge 67, Type (0, 0), BuildingBlock: AJUNOK_clean_linker_0, # of connection points: 2
#     Edge 68, Type (0, 0), BuildingBlock: AJUNOK_clean_linker_0, # of connection points: 2
#     Edge 69, Type (0, 0), BuildingBlock: AJUNOK_clean_linker_0, # of connection points: 2
#     Edge 70, Type (0, 0), BuildingBlock: AJUNOK_clean_linker_0, # of connection points: 2
#     Edge 71, Type (0, 0), BuildingBlock: AJUNOK_clean_linker_0, # of connection points: 2
#     Edge 72, Type (0, 0), BuildingBlock: AJUNOK_clean_linker_0, # of connection points: 2
#     Edge 73, Type (0, 0), BuildingBlock: AJUNOK_clean_linker_0, # of connection points: 2
#     Edge 74, Type (0, 0), BuildingBlock: AJUNOK_clean_linker_0, # of connection points: 2
#     Edge 75, Type (0, 0), BuildingBlock: AJUNOK_clean_linker_0, # of connection points: 2
#     Edge 76, Type (0, 0), BuildingBlock: AJUNOK_clean_linker_0, # of connection points: 2
#     Edge 77, Type (0, 0), BuildingBlock: AJUNOK_clean_linker_0, # of connection points: 2
#     Edge 78, Type (0, 0), BuildingBlock: AJUNOK_clean_linker_0, # of connection points: 2
#     Edge 79, Type (0, 0), BuildingBlock: AJUNOK_clean_linker_0, # of connection points: 2
#     Edge 80, Type (0, 0), BuildingBlock: AJUNOK_clean_linker_0, # of connection points: 2
#     Edge 81, Type (0, 0), BuildingBlock: AJUNOK_clean_linker_0, # of connection points: 2
#     Edge 82, Type (0, 0), BuildingBlock: AJUNOK_clean_linker_0, # of connection points: 2
#     Edge 83, Type (0, 0), BuildingBlock: AJUNOK_clean_linker_0, # of connection points: 2
#     Edge 84, Type (0, 0), BuildingBlock: AJUNOK_clean_linker_0, # of connection points: 2
#     Edge 85, Type (0, 0), BuildingBlock: AJUNOK_clean_linker_0, # of connection points: 2
#     Edge 86, Type (0, 0), BuildingBlock: AJUNOK_clean_linker_0, # of connection points: 2
#     Edge 87, Type (0, 0), BuildingBlock: AJUNOK_clean_linker_0, # of connection points: 2
#     Edge 88, Type (0, 0), BuildingBlock: AJUNOK_clean_linker_0, # of connection points: 2
#     Edge 89, Type (0, 0), BuildingBlock: AJUNOK_clean_linker_0, # of connection points: 2
#     Edge 90, Type (0, 0), BuildingBlock: AJUNOK_clean_linker_0, # of connection points: 2
#     Edge 91, Type (0, 0), BuildingBlock: AJUNOK_clean_linker_0, # of connection points: 2
#     Edge 92, Type (0, 0), BuildingBlock: AJUNOK_clean_linker_0, # of connection points: 2
#     Edge 93, Type (0, 0), BuildingBlock: AJUNOK_clean_linker_0, # of connection points: 2
#     Edge 94, Type (0, 0), BuildingBlock: AJUNOK_clean_linker_0, # of connection points: 2
#     Edge 95, Type (0, 0), BuildingBlock: AJUNOK_clean_linker_0, # of connection points: 2
# Relax obj value: 0.670
# Max RMSD: 0.278
# Mean RMSD: 0.271
data_MOF--net-wkr--node1-MIDCAF_clean_sbu_0--edge1-AJUNOK_clean_linker_0
_symmetry_space_group_name_H-M    P1
_symmetry_Int_Tables_number       1
_symmetry_cell_setting            triclinic
loop_
_symmetry_equiv_pos_as_xyz
'x, y, z'
_cell_length_a     35.637957
_cell_length_b     35.701345
_cell_length_c     38.755695
_cell_angle_alpha  90.009371
_cell_angle_beta   90.055378
_cell_angle_gamma 119.66686
loop_
_atom_site_label
_atom_site_type_symbol
_atom_site_fract_x
_atom_site_fract_y
_atom_site_fract_z
_atom_type_partial_charge
Zn0 Zn 0.42149 0.15919 0.12018 0.0
Zn1 Zn 0.58799 0.1313 0.06975 0.0
Zn2 Zn 0.49339 0.15694 0.12237 0.0
C3 C 0.57853 0.13819 0.14515 0.0
C4 C 0.57023 0.20109 0.07722 0.0
O5 O 0.44704 0.11677 0.08121 0.0
O6 O 0.38629 0.11849 0.0834 0.0
C7 C 0.43874 0.16918 0.18667 0.0
O8 O 0.54725 0.14513 0.1373 0.0
O9 O 0.59995 0.13149 0.12176 0.0
O10 O 0.55273 0.16317 0.0648 0.0
O11 O 0.54732 0.20992 0.09739 0.0
O12 O 0.40409 0.15169 0.16938 0.0
O13 O 0.47328 0.17318 0.1727 0.0
O14 O 0.51614 0.22179 0.10548 0.0
O15 O 0.45456 0.22255 0.10734 0.0
C16 C 0.49507 0.24216 0.10309 0.0
O17 O 0.47174 0.0905 0.10337 0.0
O18 O 0.52479 0.1154 0.06713 0.0
C19 C 0.40993 0.10653 0.06829 0.0
C20 C 0.49813 0.08383 0.08544 0.0
Zn21 Zn 0.27443 0.45831 0.1093 0.0
Zn22 Zn 0.46878 0.5489 0.16423 0.0
Zn23 Zn 0.34827 0.49438 0.13399 0.0
C24 C 0.38987 0.49771 0.19885 0.0
C25 C 0.4196 0.59791 0.14219 0.0
O26 O 0.34509 0.45204 0.08997 0.0
O27 O 0.27565 0.41396 0.07872 0.0
C28 C 0.26426 0.44745 0.18192 0.0
O29 O 0.35123 0.48617 0.18979 0.0
O30 O 0.41263 0.49275 0.17629 0.0
O31 O 0.45204 0.5964 0.15479 0.0
O32 O 0.38399 0.56427 0.13321 0.0
O33 O 0.24309 0.44188 0.1544 0.0
O34 O 0.30565 0.46346 0.18007 0.0
O35 O 0.34092 0.54774 0.11794 0.0
O36 O 0.28136 0.51275 0.08722 0.0
C37 C 0.31253 0.54793 0.09787 0.0
O38 O 0.38928 0.47838 0.09986 0.0
O39 O 0.4275 0.48805 0.14533 0.0
C40 C 0.31375 0.42221 0.0724 0.0
C41 C 0.42424 0.48302 0.11297 0.0
Zn42 Zn 0.85249 0.40776 0.14597 0.0
Zn43 Zn 0.8249 0.26521 0.1209 0.0
Zn44 Zn 0.83709 0.34125 0.13581 0.0
C45 C 0.75237 0.27198 0.09941 0.0
C46 C 0.82019 0.26633 0.19195 0.0
O47 O 0.90094 0.39445 0.11373 0.0
O48 O 0.87931 0.44154 0.10436 0.0
C49 C 0.77055 0.37402 0.13845 0.0
O50 O 0.77593 0.31045 0.11073 0.0
O51 O 0.76547 0.24495 0.10068 0.0
O52 O 0.82474 0.24401 0.16871 0.0
O53 O 0.82595 0.30408 0.1846 0.0
O54 O 0.79605 0.40049 0.16037 0.0
O55 O 0.78232 0.35073 0.12133 0.0
O56 O 0.84627 0.35163 0.19153 0.0
O57 O 0.89686 0.41756 0.18122 0.0
C58 C 0.87687 0.38783 0.20262 0.0
O59 O 0.88404 0.34943 0.09672 0.0
O60 O 0.87207 0.28371 0.08638 0.0
C61 C 0.90934 0.43247 0.1036 0.0
C62 C 0.88935 0.32293 0.07772 0.0
Zn63 Zn 0.56586 0.83326 0.11531 0.0
Zn64 Zn 0.51994 0.9152 0.17505 0.0
Zn65 Zn 0.53365 0.86679 0.14299 0.0
C66 C 0.48632 0.84898 0.21031 0.0
C67 C 0.4414 0.85515 0.14016 0.0
O68 O 0.55336 0.89573 0.09085 0.0
O69 O 0.60071 0.87519 0.07886 0.0
C70 C 0.58799 0.83483 0.1837 0.0
O71 O 0.48011 0.83213 0.18006 0.0
O72 O 0.52295 0.88138 0.21587 0.0
O73 O 0.46001 0.89443 0.14932 0.0
O74 O 0.46279 0.83483 0.14361 0.0
O75 O 0.58999 0.81776 0.15577 0.0
O76 O 0.57582 0.86315 0.18271 0.0
O77 O 0.47863 0.80255 0.1408 0.0
O78 O 0.50932 0.78231 0.10119 0.0
C79 C 0.47728 0.77358 0.12032 0.0
O80 O 0.54279 0.92696 0.11597 0.0
O81 O 0.57116 0.97026 0.15994 0.0
C82 C 0.58141 0.89536 0.07005 0.0
C83 C 0.55817 0.96499 0.12905 0.0
Zn84 Zn 0.53649 0.48021 0.17072 0.0
Zn85 Zn 0.72992 0.54329 0.11589 0.0
Zn86 Zn 0.6578 0.51837 0.13914 0.0
C87 C 0.67826 0.45272 0.10681 0.0
C88 C 0.7438 0.55078 0.18714 0.0
O89 O 0.62949 0.54991 0.10776 0.0
O90 O 0.58936 0.53523 0.15256 0.0
C91 C 0.56566 0.4207 0.1362 0.0
O92 O 0.65081 0.45864 0.12363 0.0
O93 O 0.71287 0.48483 0.09642 0.0
O94 O 0.76442 0.556 0.15941 0.0
O95 O 0.70343 0.54028 0.18554 0.0
O96 O 0.5365 0.42732 0.14941 0.0
O97 O 0.60586 0.45017 0.13313 0.0
O98 O 0.65992 0.52636 0.19506 0.0
O99 O 0.5993 0.5227 0.18358 0.0
C100 C 0.62168 0.51519 0.20499 0.0
O101 O 0.67114 0.56425 0.09442 0.0
O102 O 0.7397 0.58916 0.08222 0.0
C103 C 0.59472 0.54546 0.1209 0.0
C104 C 0.70446 0.58793 0.07542 0.0
Zn105 Zn 0.16536 0.73335 0.1224 0.0
Zn106 Zn 0.16953 0.60714 0.09268 0.0
Zn107 Zn 0.16913 0.66333 0.12647 0.0
C108 C 0.15559 0.58127 0.16112 0.0
C109 C 0.24436 0.65797 0.08493 0.0
O110 O 0.13897 0.66799 0.07873 0.0
O111 O 0.13061 0.72505 0.07989 0.0
C112 C 0.17106 0.72833 0.18699 0.0
O113 O 0.1388 0.60561 0.15762 0.0
O114 O 0.18061 0.58166 0.13771 0.0
O115 O 0.21758 0.64346 0.06038 0.0
O116 O 0.2319 0.66678 0.11347 0.0
O117 O 0.14675 0.73847 0.17042 0.0
O118 O 0.18335 0.70394 0.17267 0.0
O119 O 0.23717 0.70872 0.13183 0.0
O120 O 0.23136 0.76589 0.11833 0.0
C121 C 0.25479 0.74951 0.126 0.0
O122 O 0.10453 0.60142 0.1246 0.0
O123 O 0.11001 0.57188 0.07613 0.0
C124 C 0.12564 0.69169 0.06454 0.0
C125 C 0.08711 0.57256 0.10068 0.0
Zn126 Zn 0.86345 0.45215 0.37198 0.0
Zn127 Zn 0.82662 0.56192 0.39343 0.0
Zn128 Zn 0.84616 0.50333 0.37969 0.0
C129 C 0.75682 0.48116 0.41252 0.0
C130 C 0.8264 0.55477 0.32011 0.0
O131 O 0.90572 0.51225 0.40845 0.0
O132 O 0.87373 0.44385 0.42128 0.0
C133 C 0.78513 0.40293 0.3755 0.0
O134 O 0.78279 0.46916 0.40082 0.0
O135 O 0.76823 0.52078 0.41384 0.0
O136 O 0.82272 0.57696 0.344 0.0
O137 O 0.83882 0.52731 0.32766 0.0
O138 O 0.81038 0.40444 0.35209 0.0
O139 O 0.79433 0.43718 0.39297 0.0
O140 O 0.85972 0.49957 0.32594 0.0
O141 O 0.91334 0.49035 0.34159 0.0
C142 C 0.89056 0.49251 0.31764 0.0
O143 O 0.89264 0.54587 0.41777 0.0
O144 O 0.87486 0.59587 0.42706 0.0
C145 C 0.907 0.48034 0.42324 0.0
C146 C 0.89487 0.57662 0.43654 0.0
Zn147 Zn 0.25725 0.83031 0.3853 0.0
Zn148 Zn 0.38652 0.8378 0.36001 0.0
Zn149 Zn 0.32628 0.83332 0.37411 0.0
C150 C 0.37584 0.86496 0.305 0.0
C151 C 0.3462 0.75875 0.36867 0.0
O152 O 0.33748 0.88473 0.41212 0.0
O153 O 0.27618 0.88543 0.40959 0.0
C154 C 0.2545 0.81775 0.31513 0.0
O155 O 0.33812 0.83885 0.31712 0.0
O156 O 0.40592 0.88593 0.32627 0.0
O157 O 0.36347 0.7789 0.34128 0.0
O158 O 0.33088 0.77569 0.38975 0.0
O159 O 0.23165 0.82066 0.33866 0.0
O160 O 0.29293 0.82513 0.32267 0.0
O161 O 0.29176 0.77409 0.40078 0.0
O162 O 0.23248 0.77555 0.41361 0.0
C163 C 0.25402 0.75608 0.41407 0.0
O164 O 0.38445 0.89029 0.39794 0.0
O165 O 0.41255 0.84894 0.40704 0.0
C166 C 0.31261 0.89864 0.42353 0.0
C167 C 0.41579 0.88555 0.40985 0.0
Zn168 Zn 0.60954 0.47038 0.35671 0.0
Zn169 Zn 0.42527 0.26494 0.38086 0.0
Zn170 Zn 0.48961 0.334 0.37163 0.0
C171 C 0.49631 0.26098 0.41013 0.0
C172 C 0.44103 0.26747 0.30965 0.0
O173 O 0.47901 0.38652 0.39091 0.0
O174 O 0.54548 0.42578 0.37389 0.0
C175 C 0.57862 0.3807 0.39611 0.0
O176 O 0.51596 0.30017 0.3996 0.0
O177 O 0.456 0.23821 0.40566 0.0
O178 O 0.41204 0.2459 0.33165 0.0
O179 O 0.47318 0.30421 0.31869 0.0
O180 O 0.57305 0.40626 0.37647 0.0
O181 O 0.54744 0.34218 0.39828 0.0
O182 O 0.50536 0.35257 0.31651 0.0
O183 O 0.55781 0.40847 0.34188 0.0
C184 C 0.53958 0.38952 0.3138 0.0
O185 O 0.44677 0.34577 0.40672 0.0
O186 O 0.39014 0.28098 0.41115 0.0
C187 C 0.51206 0.42422 0.38741 0.0
C188 C 0.41079 0.31956 0.42162 0.0
Zn189 Zn 0.17437 0.43744 0.38629 0.0
Zn190 Zn 0.12341 0.52888 0.34575 0.0
Zn191 Zn 0.14538 0.48556 0.36716 0.0
C192 C 0.11297 0.4902 0.28997 0.0
C193 C 0.19325 0.58753 0.36744 0.0
O194 O 0.10063 0.43957 0.40689 0.0
O195 O 0.12463 0.39386 0.41319 0.0
C196 C 0.18196 0.43992 0.31466 0.0
O197 O 0.13956 0.48393 0.30853 0.0
O198 O 0.08772 0.4999 0.30515 0.0
O199 O 0.17716 0.58388 0.33778 0.0
O200 O 0.18572 0.55328 0.38396 0.0
O201 O 0.19149 0.42487 0.34059 0.0
O202 O 0.1614 0.46098 0.3189 0.0
O203 O 0.20599 0.5274 0.39186 0.0
O204 O 0.22437 0.48199 0.41385 0.0
C205 C 0.23248 0.52028 0.40913 0.0
O206 O 0.08212 0.46741 0.3932 0.0
O207 O 0.09262 0.53277 0.3858 0.0
C208 C 0.09934 0.4071 0.42274 0.0
C209 C 0.07146 0.49647 0.39979 0.0
Zn210 Zn 0.57024 0.09984 0.34916 0.0
Zn211 Zn 0.72018 0.16006 0.38058 0.0
Zn212 Zn 0.64194 0.13488 0.36574 0.0
C213 C 0.69754 0.22559 0.39606 0.0
C214 C 0.7257 0.16565 0.31242 0.0
O215 O 0.60343 0.0703 0.39215 0.0
O216 O 0.54951 0.03929 0.35522 0.0
C217 C 0.57563 0.16142 0.39268 0.0
O218 O 0.65987 0.19679 0.38612 0.0
O219 O 0.72845 0.21771 0.39651 0.0
O220 O 0.74925 0.16398 0.33604 0.0
O221 O 0.68591 0.15444 0.31908 0.0
O222 O 0.54706 0.12479 0.38244 0.0
O223 O 0.61534 0.17494 0.38488 0.0
O224 O 0.6406 0.13096 0.30794 0.0
O225 O 0.57338 0.11703 0.30196 0.0
C226 C 0.60924 0.12681 0.28866 0.0
O227 O 0.64593 0.09518 0.4088 0.0
O228 O 0.71544 0.12014 0.41741 0.0
C229 C 0.56815 0.03701 0.382 0.0
C230 C 0.67692 0.09675 0.42726 0.0
Zn231 Zn 0.55289 0.73973 0.38807 0.0
Zn232 Zn 0.42837 0.53482 0.33912 0.0
Zn233 Zn 0.51404 0.66199 0.36602 0.0
C234 C 0.48588 0.62045 0.30438 0.0
C235 C 0.40248 0.58892 0.38083 0.0
O236 O 0.56 0.66391 0.40634 0.0
O237 O 0.58827 0.73121 0.424 0.0
C238 C 0.56576 0.74578 0.31584 0.0
O239 O 0.5149 0.65958 0.30916 0.0
O240 O 0.47459 0.59661 0.33058 0.0
O241 O 0.39246 0.55268 0.36671 0.0
O242 O 0.44083 0.6231 0.37971 0.0
O243 O 0.57777 0.76869 0.34285 0.0
O244 O 0.54185 0.70437 0.31868 0.0
O245 O 0.46356 0.66968 0.38623 0.0
O246 O 0.49745 0.73808 0.4019 0.0
C247 C 0.46274 0.70283 0.39778 0.0
O248 O 0.54057 0.62295 0.38948 0.0
O249 O 0.48351 0.58135 0.36109 0.0
C250 C 0.58458 0.69428 0.42735 0.0
C251 C 0.51265 0.58444 0.3813 0.0
Zn252 Zn 0.47461 0.79983 0.90129 0.0
Zn253 Zn 0.56098 0.89859 0.82757 0.0
Zn254 Zn 0.51209 0.84372 0.85888 0.0
C255 C 0.4861 0.84103 0.78824 0.0
C256 C 0.57639 0.83792 0.80524 0.0
O257 O 0.55779 0.86943 0.90193 0.0
O258 O 0.5005 0.8487 0.93414 0.0
C259 C 0.41833 0.81542 0.86395 0.0
O260 O 0.48902 0.81359 0.80821 0.0
O261 O 0.51299 0.88065 0.79253 0.0
O262 O 0.60188 0.8772 0.81291 0.0
O263 O 0.5377 0.81906 0.8174 0.0
O264 O 0.41812 0.78438 0.87968 0.0
O265 O 0.45432 0.84972 0.85804 0.0
O266 O 0.49136 0.77827 0.84037 0.0
O267 O 0.49929 0.76085 0.89306 0.0
C268 C 0.49252 0.751 0.86148 0.0
O269 O 0.49356 0.89289 0.8581 0.0
O270 O 0.56191 0.94373 0.8605 0.0
C271 C 0.54064 0.87254 0.93007 0.0
C272 C 0.5221 0.93257 0.8634 0.0
Zn273 Zn 0.65921 0.47863 0.92333 0.0
Zn274 Zn 0.67786 0.57176 0.83836 0.0
Zn275 Zn 0.68183 0.5173 0.86958 0.0
C276 C 0.63048 0.49879 0.79956 0.0
C277 C 0.75334 0.58769 0.82099 0.0
O278 O 0.69131 0.56402 0.91173 0.0
O279 O 0.64645 0.51776 0.94943 0.0
C280 C 0.59957 0.42286 0.87887 0.0
O281 O 0.63028 0.48442 0.83018 0.0
O282 O 0.65333 0.53868 0.79388 0.0
O283 O 0.74121 0.61405 0.83065 0.0
O284 O 0.7321 0.54842 0.83099 0.0
O285 O 0.61021 0.42348 0.9099 0.0
O286 O 0.61999 0.45674 0.85978 0.0
O287 O 0.71872 0.48367 0.87731 0.0
O288 O 0.7119 0.47333 0.93308 0.0
C289 C 0.72844 0.47075 0.90495 0.0
O290 O 0.61287 0.50006 0.86583 0.0
O291 O 0.62874 0.56795 0.86846 0.0
C292 C 0.67067 0.5563 0.9404 0.0
C293 C 0.60047 0.52811 0.87011 0.0
Zn294 Zn 0.19474 0.66761 0.89317 0.0
Zn295 Zn 0.10243 0.65085 0.81131 0.0
Zn296 Zn 0.15127 0.66126 0.85121 0.0
C297 C 0.17361 0.64085 0.78575 0.0
C298 C 0.15865 0.72663 0.79038 0.0
O299 O 0.13315 0.68645 0.89547 0.0
O300 O 0.14523 0.6421 0.9258 0.0
C301 C 0.18296 0.59665 0.86161 0.0
O302 O 0.19457 0.67197 0.80741 0.0
O303 O 0.13281 0.62394 0.7846 0.0
O304 O 0.11786 0.70932 0.79225 0.0
O305 O 0.17788 0.71078 0.8084 0.0
O306 O 0.21511 0.62976 0.87371 0.0
O307 O 0.14784 0.59746 0.8555 0.0
O308 O 0.21519 0.7094 0.83352 0.0
O309 O 0.23158 0.73139 0.88724 0.0
C310 C 0.24092 0.73762 0.85556 0.0
O311 O 0.10422 0.59307 0.84958 0.0
O312 O 0.05235 0.6083 0.8404 0.0
C313 C 0.12732 0.66481 0.92316 0.0
C314 C 0.06377 0.5812 0.84945 0.0
Zn315 Zn 0.43511 0.09949 0.83092 0.0
Zn316 Zn 0.51987 0.19375 0.9081 0.0
Zn317 Zn 0.48904 0.15469 0.86108 0.0
C318 C 0.50736 0.24527 0.86381 0.0
C319 C 0.58358 0.18238 0.88139 0.0
O320 O 0.50885 0.10751 0.86122 0.0
O321 O 0.43951 0.06133 0.86803 0.0
C322 C 0.42814 0.16728 0.80829 0.0
O323 O 0.5087 0.21809 0.84296 0.0
O324 O 0.5011 0.23645 0.89559 0.0
O325 O 0.58056 0.20991 0.89975 0.0
O326 O 0.54974 0.15238 0.8665 0.0
O327 O 0.4 0.12981 0.81837 0.0
O328 O 0.46761 0.18222 0.81813 0.0
O329 O 0.50559 0.17439 0.80681 0.0
O330 O 0.47573 0.10619 0.79259 0.0
C331 C 0.50279 0.14502 0.78589 0.0
O332 O 0.43703 0.12691 0.90005 0.0
O333 O 0.48684 0.14541 0.93983 0.0
C334 C 0.47858 0.06934 0.86872 0.0
C335 C 0.44796 0.12288 0.93078 0.0
Zn336 Zn 0.32221 0.50536 0.91409 0.0
Zn337 Zn 0.33633 0.42241 0.82849 0.0
Zn338 Zn 0.33253 0.47312 0.86593 0.0
C339 C 0.38348 0.50106 0.79644 0.0
C340 C 0.26242 0.41879 0.81031 0.0
O341 O 0.32602 0.4279 0.90695 0.0
O342 O 0.33833 0.47506 0.94803 0.0
C343 C 0.39369 0.56991 0.87751 0.0
O344 O 0.38393 0.51203 0.82827 0.0
O345 O 0.36206 0.46186 0.78798 0.0
O346 O 0.27103 0.38849 0.81498 0.0
O347 O 0.28335 0.45347 0.82783 0.0
O348 O 0.36652 0.56483 0.90056 0.0
O349 O 0.39054 0.53689 0.86144 0.0
O350 O 0.27898 0.48451 0.85441 0.0
O351 O 0.2602 0.48975 0.90733 0.0
C352 C 0.25297 0.48805 0.87528 0.0
O353 O 0.40144 0.49839 0.86053 0.0
O354 O 0.38777 0.43096 0.86151 0.0
C355 C 0.33432 0.43946 0.93857 0.0
C356 C 0.41501 0.47117 0.86483 0.0
Zn357 Zn 0.89873 0.327 0.81921 0.0
Zn358 Zn 0.76693 0.29498 0.95442 0.0
Zn359 Zn 0.85264 0.31788 0.86218 0.0
C360 C 0.76611 0.25676 0.8785 0.0
C361 C 0.81364 0.36648 0.89291 0.0
O362 O 0.89461 0.38647 0.85967 0.0
O363 O 0.94736 0.3728 0.85 0.0
C364 C 0.83944 0.24814 0.80628 0.0
O365 O 0.79049 0.26453 0.85234 0.0
O366 O 0.78331 0.27994 0.90534 0.0
O367 O 0.80303 0.33326 0.9117 0.0
O368 O 0.83898 0.37158 0.86761 0.0
O369 O 0.8803 0.26531 0.80616 0.0
O370 O 0.82205 0.26512 0.82497 0.0
O371 O 0.85698 0.373 0.83398 0.0
O372 O 0.87446 0.35377 0.78542 0.0
C373 C 0.8603 0.37549 0.8008 0.0
O374 O 0.88466 0.31352 0.9072 0.0
O375 O 0.82305 0.30365 0.92651 0.0
C376 C 0.93533 0.39952 0.85915 0.0
C377 C 0.86146 0.31107 0.93288 0.0
Zn378 Zn 0.19695 0.50819 0.58165 0.0
Zn379 Zn 0.10989 0.44643 0.66528 0.0
Zn380 Zn 0.15669 0.48533 0.62718 0.0
C381 C 0.17625 0.52611 0.69337 0.0
C382 C 0.17023 0.43183 0.68885 0.0
O383 O 0.12485 0.43135 0.58976 0.0
O384 O 0.15132 0.47812 0.54757 0.0
C385 C 0.18223 0.5741 0.60591 0.0
O386 O 0.19807 0.51664 0.67196 0.0
O387 O 0.13547 0.50294 0.69277 0.0
O388 O 0.12981 0.40611 0.68624 0.0
O389 O 0.18708 0.4661 0.67002 0.0
O390 O 0.21087 0.56826 0.59171 0.0
O391 O 0.14958 0.542 0.61992 0.0
O392 O 0.22599 0.51185 0.64264 0.0
O393 O 0.23811 0.48742 0.5948 0.0
C394 C 0.2523 0.50624 0.62335 0.0
O395 O 0.10634 0.50394 0.62913 0.0
O396 O 0.05644 0.43684 0.63981 0.0
C397 C 0.12372 0.44127 0.55807 0.0
C398 C 0.0661 0.47499 0.63119 0.0
Zn399 Zn 0.66235 0.0973 0.66185 0.0
Zn400 Zn 0.68144 0.20984 0.59741 0.0
Zn401 Zn 0.66667 0.1561 0.63468 0.0
C402 C 0.74047 0.24782 0.64901 0.0
C403 C 0.6002 0.18237 0.6289 0.0
O404 O 0.60078 0.10487 0.6301 0.0
O405 O 0.62349 0.05771 0.62442 0.0
C406 C 0.73322 0.15602 0.68968 0.0
O407 O 0.7099 0.21483 0.66452 0.0
O408 O 0.74077 0.2489 0.61636 0.0
O409 O 0.63273 0.21614 0.61786 0.0
O410 O 0.602 0.14754 0.63147 0.0
O411 O 0.72498 0.12008 0.67671 0.0
O412 O 0.7106 0.17337 0.68039 0.0
O413 O 0.66677 0.17572 0.68743 0.0
O414 O 0.62499 0.10663 0.69661 0.0
C415 C 0.63385 0.14494 0.70285 0.0
O416 O 0.69132 0.13224 0.59509 0.0
O417 O 0.66924 0.16578 0.56023 0.0
C418 C 0.59305 0.0666 0.62257 0.0
C419 C 0.67944 0.1369 0.56509 0.0
Zn420 Zn 0.51059 0.69837 0.58733 0.0
Zn421 Zn 0.57961 0.67017 0.66926 0.0
Zn422 Zn 0.53355 0.6788 0.63345 0.0
C423 C 0.49917 0.62142 0.69756 0.0
C424 C 0.59179 0.74634 0.68794 0.0
O425 O 0.58053 0.68661 0.59317 0.0
O426 O 0.5347 0.67751 0.55185 0.0
C427 C 0.43752 0.62685 0.61741 0.0
O428 O 0.49059 0.62316 0.66549 0.0
O429 O 0.53753 0.64288 0.70821 0.0
O430 O 0.61902 0.73406 0.68141 0.0
O431 O 0.55449 0.72637 0.67383 0.0
O432 O 0.44858 0.66014 0.59928 0.0
O433 O 0.46721 0.62247 0.63279 0.0
O434 O 0.52274 0.73254 0.64612 0.0
O435 O 0.53608 0.76192 0.59483 0.0
C436 C 0.52778 0.76349 0.62625 0.0
O437 O 0.50545 0.60882 0.63286 0.0
O438 O 0.57296 0.62266 0.63425 0.0
C439 C 0.56939 0.6794 0.56142 0.0
C440 C 0.53321 0.59592 0.62817 0.0
Zn441 Zn 0.9202 0.5867 0.67784 0.0
Zn442 Zn 0.81711 0.47141 0.60694 0.0
Zn443 Zn 0.84561 0.51418 0.65568 0.0
C444 C 0.75481 0.48322 0.62508 0.0
C445 C 0.82209 0.41982 0.65732 0.0
O446 O 0.89552 0.49703 0.6528 0.0
O447 O 0.94408 0.56428 0.63936 0.0
C448 C 0.84634 0.58849 0.69997 0.0
O449 O 0.77659 0.48439 0.65154 0.0
O450 O 0.77221 0.48868 0.59577 0.0
O451 O 0.79693 0.41669 0.6332 0.0
O452 O 0.85286 0.45725 0.66595 0.0
O453 O 0.88132 0.61534 0.68521 0.0
O454 O 0.83303 0.54814 0.69627 0.0
O455 O 0.85054 0.51966 0.71066 0.0
O456 O 0.92057 0.55209 0.71864 0.0
C457 C 0.88302 0.52431 0.72814 0.0
O458 O 0.86921 0.55385 0.6078 0.0
O459 O 0.87533 0.50117 0.58526 0.0
C460 C 0.93338 0.5245 0.64173 0.0
C461 C 0.88155 0.53905 0.58264 0.0
Zn462 Zn 0.34678 0.8213 0.5756 0.0
Zn463 Zn 0.3397 0.89525 0.6583 0.0
Zn464 Zn 0.3366 0.84271 0.62636 0.0
C465 C 0.35777 0.83876 0.69863 0.0
C466 C 0.26298 0.82857 0.67608 0.0
O467 O 0.31379 0.87257 0.58905 0.0
O468 O 0.3658 0.87966 0.55527 0.0
C469 C 0.41381 0.82767 0.61135 0.0
O470 O 0.33039 0.81175 0.67687 0.0
O471 O 0.36964 0.87831 0.69466 0.0
O472 O 0.27486 0.86757 0.66854 0.0
O473 O 0.2859 0.81213 0.66549 0.0
O474 O 0.39066 0.80452 0.58686 0.0
O475 O 0.40243 0.85164 0.62779 0.0
O476 O 0.28958 0.7756 0.63419 0.0
O477 O 0.28391 0.77474 0.57783 0.0
C478 C 0.26935 0.75631 0.60661 0.0
O479 O 0.40284 0.89297 0.63035 0.0
O480 O 0.38437 0.94353 0.62786 0.0
C481 C 0.33753 0.88986 0.56253 0.0
C482 C 0.41347 0.93275 0.62627 0.0
Zn483 Zn 0.50549 0.31511 0.5846 0.0
Zn484 Zn 0.42713 0.33799 0.67011 0.0
Zn485 Zn 0.4742 0.32772 0.63286 0.0
C486 C 0.50679 0.38784 0.69856 0.0
C487 C 0.41678 0.26038 0.68883 0.0
O488 O 0.42978 0.32195 0.59049 0.0
O489 O 0.47453 0.328 0.54902 0.0
C490 C 0.57154 0.38854 0.61737 0.0
O491 O 0.51567 0.3836 0.66696 0.0
O492 O 0.46842 0.36704 0.70924 0.0
O493 O 0.39032 0.2741 0.68401 0.0
O494 O 0.45276 0.27851 0.67258 0.0
O495 O 0.56589 0.36125 0.5943 0.0
O496 O 0.53923 0.38455 0.63517 0.0
O497 O 0.4844 0.27362 0.64638 0.0
O498 O 0.49056 0.25417 0.59389 0.0
C499 C 0.48836 0.24739 0.626 0.0
O500 O 0.50028 0.39705 0.63362 0.0
O501 O 0.43332 0.3848 0.63398 0.0
C502 C 0.44032 0.32719 0.55851 0.0
C503 C 0.47338 0.41087 0.62847 0.0
C504 C 0.47836 0.25509 0.25848 0.0
C505 C 0.44005 0.2456 0.27619 0.0
C506 C 0.47818 0.22941 0.2305 0.0
C507 C 0.43985 0.19273 0.21926 0.0
H508 H 0.50889 0.28199 0.26671 0.0
H509 H 0.50818 0.23906 0.21704 0.0
S510 S 0.33039 0.1552 0.25558 0.0
N511 N 0.36233 0.19798 0.27888 0.0
N512 N 0.36226 0.1496 0.22775 0.0
C513 C 0.40136 0.18343 0.23653 0.0
C514 C 0.40142 0.20976 0.2645 0.0
C515 C 0.26358 0.44805 0.24725 0.0
C516 C 0.24123 0.44059 0.21579 0.0
C517 C 0.24364 0.44675 0.27892 0.0
C518 C 0.20055 0.43828 0.28063 0.0
H519 H 0.29704 0.4558 0.24749 0.0
H520 H 0.26265 0.45373 0.30231 0.0
S521 S 0.12572 0.41171 0.20675 0.0
N522 N 0.17168 0.42101 0.1891 0.0
N523 N 0.13501 0.41852 0.24865 0.0
C524 C 0.17723 0.42913 0.24976 0.0
C525 C 0.1973 0.43018 0.21743 0.0
C526 C 0.80696 0.2126 0.23887 0.0
C527 C 0.79867 0.24411 0.22463 0.0
C528 C 0.78226 0.18626 0.26644 0.0
C529 C 0.74715 0.18913 0.28011 0.0
H530 H 0.8327 0.20815 0.2285 0.0
H531 H 0.79071 0.16338 0.27714 0.0
S532 S 0.71125 0.26576 0.25172 0.0
N533 N 0.75245 0.2763 0.22626 0.0
N534 N 0.70593 0.22667 0.27758 0.0
C535 C 0.73826 0.22025 0.26593 0.0
C536 C 0.76404 0.24775 0.2384 0.0
C537 C 0.5932 0.83445 0.24877 0.0
C538 C 0.58864 0.81367 0.217 0.0
C539 C 0.58744 0.81255 0.28026 0.0
C540 C 0.57583 0.76846 0.28161 0.0
H541 H 0.60026 0.86765 0.24935 0.0
H542 H 0.59057 0.83017 0.30384 0.0
S543 S 0.55964 0.69863 0.20574 0.0
N544 N 0.57221 0.74592 0.18899 0.0
N545 N 0.56093 0.70525 0.24795 0.0
C546 C 0.57183 0.74743 0.25006 0.0
C547 C 0.57837 0.76986 0.21793 0.0
C548 C 0.75447 0.56522 0.25148 0.0
C549 C 0.76598 0.55283 0.22066 0.0
C550 C 0.77545 0.56716 0.28288 0.0
C551 C 0.8083 0.55581 0.28525 0.0
H552 H 0.72923 0.57375 0.25136 0.0
H553 H 0.76484 0.57661 0.3058 0.0
S554 S 0.84922 0.51913 0.21224 0.0
N555 N 0.81205 0.52794 0.19468 0.0
N556 N 0.85059 0.53112 0.25354 0.0
C557 C 0.81976 0.5429 0.25467 0.0
C558 C 0.79891 0.54156 0.22254 0.0
C559 C 0.25683 0.79232 0.25467 0.0
C560 C 0.23364 0.79897 0.28103 0.0
C561 C 0.23615 0.76833 0.22489 0.0
C562 C 0.19144 0.75103 0.21971 0.0
H563 H 0.2912 0.80553 0.25711 0.0
H564 H 0.25553 0.76402 0.20546 0.0
S565 S 0.11565 0.76139 0.27894 0.0
N566 N 0.16279 0.78713 0.29874 0.0
N567 N 0.12488 0.74389 0.24226 0.0
C568 C 0.16805 0.75892 0.2449 0.0
C569 C 0.18884 0.78251 0.27557 0.0
C570 C 0.60267 0.81484 0.71534 0.0
C571 C 0.5969 0.77312 0.71866 0.0
C572 C 0.59889 0.83683 0.74418 0.0
C573 C 0.58758 0.81716 0.77697 0.0
H574 H 0.60862 0.8299 0.69017 0.0
H575 H 0.60233 0.86845 0.74038 0.0
S576 S 0.56851 0.70819 0.79883 0.0
N577 N 0.58039 0.71349 0.75732 0.0
N578 N 0.57104 0.75379 0.81085 0.0
C579 C 0.58211 0.77569 0.78053 0.0
C580 C 0.58732 0.75394 0.75153 0.0
C581 C 0.79223 0.60376 0.72836 0.0
C582 C 0.83017 0.60105 0.73059 0.0
C583 C 0.76949 0.60316 0.75829 0.0
C584 C 0.78317 0.5984 0.79136 0.0
H585 H 0.77873 0.60386 0.70333 0.0
H586 H 0.73932 0.6033 0.75537 0.0
S587 S 0.8808 0.59083 0.81114 0.0
N588 N 0.88163 0.59603 0.76875 0.0
N589 N 0.83727 0.5918 0.8245 0.0
C590 C 0.82154 0.59679 0.79395 0.0
C591 C 0.84544 0.59892 0.76367 0.0
C592 C 0.19095 0.77443 0.70052 0.0
C593 C 0.23345 0.80796 0.70547 0.0
C594 C 0.16572 0.75004 0.72868 0.0
C595 C 0.18246 0.75813 0.76257 0.0
H596 H 0.17778 0.76592 0.67468 0.0
H597 H 0.13384 0.72306 0.72361 0.0
S598 S 0.28973 0.8469 0.78925 0.0
N599 N 0.28947 0.85124 0.74686 0.0
N600 N 0.24228 0.80549 0.79955 0.0
C601 C 0.22396 0.79331 0.76786 0.0
C602 C 0.24938 0.81827 0.73934 0.0
C603 C 0.41555 0.17183 0.74506 0.0
C604 C 0.41885 0.18819 0.77876 0.0
C605 C 0.41306 0.19422 0.71588 0.0
C606 C 0.41243 0.23315 0.71939 0.0
H607 H 0.41687 0.14245 0.74114 0.0
H608 H 0.41263 0.18153 0.6904 0.0
S609 S 0.42227 0.29054 0.80163 0.0
N610 N 0.42307 0.2465 0.81358 0.0
N611 N 0.41679 0.28765 0.75923 0.0
C612 C 0.4151 0.2494 0.75297 0.0
C613 C 0.41873 0.2272 0.78251 0.0
C614 C 0.1806 0.38768 0.73575 0.0
C615 C 0.19563 0.42715 0.71792 0.0
C616 C 0.20216 0.3843 0.76535 0.0
C617 C 0.23875 0.42062 0.77894 0.0
H618 H 0.15175 0.35919 0.72692 0.0
H619 H 0.18954 0.35339 0.77808 0.0
S620 S 0.29223 0.53133 0.74189 0.0
N621 N 0.25095 0.50288 0.71613 0.0
N622 N 0.29001 0.49698 0.77127 0.0
C623 C 0.25429 0.46002 0.76109 0.0
C624 C 0.23317 0.46318 0.73079 0.0
C625 C 0.80608 0.19676 0.71766 0.0
C626 C 0.76096 0.17292 0.72048 0.0
C627 C 0.83185 0.21814 0.74654 0.0
C628 C 0.81322 0.21655 0.77906 0.0
H629 H 0.82134 0.20062 0.69275 0.0
H630 H 0.86631 0.23832 0.74276 0.0
S631 S 0.69657 0.15284 0.80026 0.0
N632 N 0.69894 0.14502 0.75852 0.0
N633 N 0.74697 0.18474 0.81268 0.0
C634 C 0.76823 0.19033 0.78238 0.0
C635 C 0.7422 0.16872 0.75308 0.0
C636 C 0.53486 0.04011 0.07354 0.0
C637 C 0.50912 0.04984 0.09551 0.0
C638 C 0.55074 0.01266 0.08402 0.0
C639 C 0.54133 0.99361 0.11686 0.0
H640 H 0.54372 0.05472 0.0482 0.0
H641 H 0.57156 0.00747 0.06674 0.0
S642 S 0.47452 0.0072 0.18411 0.0
N643 N 0.47433 0.03687 0.15155 0.0
N644 N 0.50387 0.98582 0.17118 0.0
C645 C 0.515 0.00245 0.13883 0.0
C646 C 0.49873 0.03009 0.12813 0.0
C647 C 0.52778 0.48901 0.09304 0.0
C648 C 0.55578 0.53299 0.0996 0.0
C649 C 0.48288 0.47234 0.0907 0.0
C650 C 0.46494 0.49955 0.09332 0.0
H651 H 0.54008 0.46685 0.09386 0.0
H652 H 0.46199 0.43768 0.09121 0.0
S653 S 0.52632 0.6188 0.09685 0.0
N654 N 0.5637 0.60441 0.1001 0.0
N655 N 0.47982 0.57359 0.0923 0.0
C656 C 0.49352 0.54426 0.09268 0.0
C657 C 0.53897 0.56099 0.09673 0.0
C658 C 0.98937 0.46031 0.10059 0.0
C659 C 0.95452 0.46829 0.09881 0.0
C660 C 0.03223 0.49442 0.10177 0.0
C661 C 0.04178 0.53769 0.10233 0.0
H662 H 0.98356 0.42754 0.10164 0.0
H663 H 0.05817 0.4869 0.10275 0.0
S664 S 0.96351 0.57688 0.09614 0.0
N665 N 0.93347 0.52384 0.09539 0.0
N666 N 0.01385 0.58708 0.09963 0.0
C667 C 0.0077 0.54635 0.10029 0.0
C668 C 0.96415 0.51188 0.09791 0.0
C669 C 0.98694 0.52121 0.43281 0.0
C670 C 0.9489 0.48158 0.42915 0.0
C671 C 0.02739 0.52443 0.4278 0.0
C672 C 0.03138 0.48841 0.4178 0.0
H673 H 0.9854 0.5504 0.43716 0.0
H674 H 0.0556 0.55631 0.42869 0.0
S675 S 0.94223 0.37578 0.41113 0.0
N676 N 0.91831 0.40384 0.42104 0.0
N677 N 0.99431 0.41104 0.40945 0.0
C678 C 0.99407 0.44792 0.41771 0.0
C679 C 0.95281 0.44427 0.42382 0.0
C680 C 0.46752 0.96251 0.42607 0.0
C681 C 0.46036 0.92286 0.41334 0.0
C682 C 0.50761 0.00017 0.42192 0.0
C683 C 0.54174 -0.00042 0.40398 0.0
H684 H 0.4411 0.96488 0.43692 0.0
H685 H 0.50995 0.0307 0.42874 0.0
S686 S 0.54167 0.90368 0.36827 0.0
N687 N 0.49307 0.88476 0.38509 0.0
N688 N 0.56736 0.95591 0.37636 0.0
C689 C 0.5365 0.95968 0.39408 0.0
C690 C 0.496 0.92121 0.39875 0.0
C691 C 0.47327 0.46594 0.39187 0.0
C692 C 0.51175 0.46464 0.39491 0.0
C693 C 0.47391 0.5054 0.39081 0.0
C694 C 0.51306 0.54493 0.39192 0.0
H695 H 0.44278 0.43651 0.38822 0.0
H696 H 0.4435 0.50482 0.38726 0.0
S697 S 0.6215 0.55851 0.40791 0.0
N698 N 0.58904 0.50581 0.40638 0.0
N699 N 0.59047 0.58014 0.40143 0.0
C700 C 0.55127 0.54402 0.39825 0.0
C701 C 0.55052 0.50374 0.40033 0.0
C702 C 0.52959 0.04124 0.88005 0.0
C703 C 0.48779 0.0333 0.87196 0.0
C704 C 0.53997 0.00807 0.87869 0.0
C705 C 0.50905 0.96579 0.86891 0.0
H706 H 0.55476 0.07351 0.88668 0.0
H707 H 0.57283 0.01596 0.88444 0.0
S708 S 0.3952 0.92877 0.84398 0.0
N709 N 0.41536 0.98013 0.85362 0.0
N710 N 0.4348 0.91837 0.85078 0.0
C711 C 0.46688 0.9574 0.86152 0.0
C712 C 0.45628 0.99099 0.86311 0.0
C713 C 0.52231 0.47396 0.88321 0.0
C714 C 0.55348 0.51473 0.8707 0.0
C715 C 0.4777 0.46024 0.88185 0.0
C716 C 0.46242 0.48668 0.86781 0.0
H717 H 0.53243 0.45244 0.89408 0.0
H718 H 0.45503 0.4286 0.89174 0.0
S719 S 0.53038 0.59387 0.8272 0.0
N720 N 0.56535 0.57986 0.84134 0.0
N721 N 0.48245 0.55419 0.83843 0.0
C722 C 0.49334 0.52719 0.85468 0.0
C723 C 0.53853 0.54115 0.85622 0.0
C724 C 0.01192 0.45988 0.86003 0.0
C725 C 0.96752 0.44617 0.86185 0.0
C726 C 0.04283 0.50366 0.85727 0.0
C727 C 0.03073 0.53566 0.85631 0.0
H728 H 0.02296 0.43655 0.8595 0.0
H729 H 0.07633 0.51223 0.85435 0.0
S730 S 0.9188 0.51727 0.86246 0.0
N731 N 0.9132 0.46861 0.86433 0.0
N732 N 0.9712 0.55069 0.85919 0.0
C733 C 0.98656 0.52259 0.8595 0.0
C734 C 0.95504 0.47797 0.86236 0.0
C735 C 0.98967 0.45768 0.64124 0.0
C736 C 0.03129 0.48654 0.62862 0.0
C737 C 0.9577 0.46956 0.64388 0.0
C738 C 0.9657 0.51073 0.63383 0.0
H739 H 0.9821 0.42614 0.65065 0.0
H740 H 0.92709 0.44681 0.65535 0.0
S741 S 0.06733 0.59638 0.59458 0.0
N742 N 0.07726 0.55674 0.60275 0.0
N743 N 0.01726 0.57905 0.60747 0.0
C744 C 0.00634 0.53906 0.61924 0.0
C745 C 0.03904 0.52698 0.61669 0.0
C746 C 0.51615 0.03649 0.60369 0.0
C747 C 0.54806 0.03106 0.62061 0.0
C748 C 0.47248 0.00422 0.60498 0.0
C749 C 0.45949 0.96583 0.62353 0.0
H750 H 0.52496 0.06598 0.58971 0.0
H751 H 0.44875 0.00948 0.59166 0.0
S752 S 0.52981 0.93948 0.67697 0.0
N753 N 0.56318 0.98623 0.65898 0.0
N754 N 0.48146 0.92645 0.66212 0.0
C755 C 0.49106 0.96064 0.64121 0.0
C756 C 0.53531 0.99306 0.63956 0.0
C757 C 0.46 0.47378 0.62234 0.0
C758 C 0.48929 0.45798 0.62323 0.0
C759 C 0.47437 0.51833 0.62222 0.0
C760 C 0.51872 0.54917 0.62292 0.0
H761 H 0.42554 0.45161 0.62297 0.0
H762 H 0.45039 0.52856 0.62287 0.0
S763 S 0.60902 0.52519 0.62267 0.0
N764 N 0.56506 0.47741 0.62271 0.0
N765 N 0.59186 0.56043 0.62226 0.0
C766 C 0.54834 0.53383 0.62212 0.0
C767 C 0.53372 0.48854 0.62233 0.0
C768 C 0.61065 0.11473 0.19234 0.0
C769 C 0.59158 0.13933 0.18152 0.0
C770 C 0.62113 0.11364 0.22723 0.0
C771 C 0.61395 0.13816 0.25191 0.0
H772 H 0.61539 0.09446 0.17408 0.0
H773 H 0.63209 0.09156 0.23518 0.0
S774 S 0.57088 0.21212 0.23647 0.0
N775 N 0.56882 0.1906 0.19834 0.0
N776 N 0.59187 0.19124 0.26291 0.0
C777 C 0.59844 0.16543 0.24085 0.0
C778 C 0.58614 0.16518 0.20595 0.0
C779 C 0.48278 0.578 0.25414 0.0
C780 C 0.46574 0.60051 0.2715 0.0
C781 C 0.45709 0.54402 0.23195 0.0
C782 C 0.41362 0.53196 0.22499 0.0
H783 H 0.51522 0.58439 0.25985 0.0
H784 H 0.47158 0.52666 0.2203 0.0
S785 S 0.35314 0.57981 0.26571 0.0
N786 N 0.40209 0.60682 0.28255 0.0
N787 N 0.35467 0.54541 0.23806 0.0
C788 C 0.39633 0.55483 0.24177 0.0
C789 C 0.42228 0.58865 0.26546 0.0
C790 C 0.91766 0.43185 0.25202 0.0
C791 C 0.87731 0.40308 0.23765 0.0
C792 C 0.922 0.4627 0.27629 0.0
C793 C 0.88606 0.46601 0.28709 0.0
H794 H 0.94643 0.43203 0.24284 0.0
H795 H 0.95379 0.48415 0.28676 0.0
S796 S 0.77239 0.39485 0.25977 0.0
N797 N 0.80027 0.37744 0.2376 0.0
N798 N 0.80803 0.43536 0.28334 0.0
C799 C 0.84513 0.43617 0.27388 0.0
C800 C 0.84079 0.4044 0.24947 0.0
C801 C 0.45508 0.89161 0.23552 0.0
C802 C 0.44985 0.85079 0.22715 0.0
C803 C 0.42545 0.89582 0.25627 0.0
C804 C 0.3898 0.8595 0.27032 0.0
H805 H 0.48366 0.92094 0.22761 0.0
H806 H 0.43328 0.92788 0.26462 0.0
S807 S 0.35408 0.74569 0.24689 0.0
N808 N 0.4007 0.77372 0.22673 0.0
N809 N 0.34568 0.78112 0.26797 0.0
C810 C 0.38091 0.8185 0.25826 0.0
C811 C 0.41093 0.81429 0.23622 0.0
C812 C 0.59475 0.42243 0.26745 0.0
C813 C 0.55495 0.41416 0.28146 0.0
C814 C 0.61646 0.45521 0.24283 0.0
C815 C 0.59947 0.48145 0.23187 0.0
H816 H 0.60998 0.40446 0.27653 0.0
H817 H 0.64694 0.46033 0.23269 0.0
S818 S 0.49852 0.47558 0.26408 0.0
N819 N 0.50079 0.43612 0.28437 0.0
N820 N 0.54149 0.49824 0.23891 0.0
C821 C 0.55983 0.47361 0.24614 0.0
C822 C 0.53763 0.4399 0.27074 0.0
C823 C 0.16258 0.51996 0.23895 0.0
C824 C 0.12041 0.50097 0.25259 0.0
C825 C 0.17337 0.54381 0.20802 0.0
C826 C 0.14265 0.5504 0.19024 0.0
H827 H 0.18817 0.51919 0.25347 0.0
H828 H 0.20659 0.55963 0.19931 0.0
S829 S 0.02646 0.50153 0.21145 0.0
N830 N 0.04652 0.48515 0.24266 0.0
N831 N 0.0674 0.53139 0.18576 0.0
C832 C 0.09987 0.5289 0.20207 0.0
C833 C 0.0886 0.50376 0.23287 0.0
C834 C 0.43121 0.86059 0.7732 0.0
C835 C 0.44653 0.83141 0.76884 0.0
C836 C 0.39787 0.85837 0.7532 0.0
C837 C 0.37879 0.82762 0.72685 0.0
H838 H 0.44631 0.88679 0.79155 0.0
H839 H 0.3894 0.88341 0.75674 0.0
S840 S 0.39528 0.73364 0.7143 0.0
N841 N 0.43256 0.76386 0.74286 0.0
N842 N 0.36928 0.75984 0.70408 0.0
C843 C 0.38991 0.79483 0.72483 0.0
C844 C 0.42426 0.79692 0.74586 0.0
C845 C 0.58111 0.48673 0.74993 0.0
C846 C 0.60063 0.47054 0.77262 0.0
C847 C 0.55129 0.46012 0.72497 0.0
C848 C 0.54046 0.4168 0.72212 0.0
H849 H 0.58814 0.51985 0.752 0.0
H850 H 0.53606 0.47315 0.70837 0.0
S851 S 0.5852 0.35994 0.77162 0.0
N852 N 0.60984 0.40943 0.78758 0.0
N853 N 0.5517 0.35904 0.74193 0.0
C854 C 0.56005 0.40046 0.74385 0.0
C855 C 0.5908 0.42749 0.76883 0.0
C856 C 0.16855 0.57125 0.77543 0.0
C857 C 0.19166 0.61587 0.76934 0.0
C858 C 0.17175 0.54221 0.75356 0.0
C859 C 0.19495 0.55617 0.72265 0.0
H860 H 0.14456 0.55805 0.79571 0.0
H861 H 0.15056 0.50811 0.7583 0.0
S862 S 0.27078 0.66956 0.69895 0.0
N863 N 0.24728 0.67323 0.73462 0.0
N864 N 0.24969 0.6175 0.69075 0.0
C865 C 0.22282 0.60065 0.71819 0.0
C866 C 0.22145 0.63086 0.74196 0.0
C867 C 0.57589 0.1879 0.75908 0.0
C868 C 0.53308 0.15393 0.75705 0.0
C869 C 0.60923 0.18618 0.74078 0.0
C870 C 0.59985 0.15109 0.71916 0.0
H871 H 0.58358 0.21454 0.7762 0.0
H872 H 0.64233 0.21139 0.74422 0.0
S873 S 0.49027 0.06307 0.69496 0.0
N874 N 0.48169 0.09083 0.72488 0.0
N875 N 0.54311 0.08768 0.69002 0.0
C876 C 0.55613 0.12054 0.71308 0.0
C877 C 0.52286 0.12223 0.73181 0.0
C878 C 0.46425 0.54992 0.72471 0.0
C879 C 0.46689 0.59008 0.72047 0.0
C880 C 0.43681 0.52109 0.74952 0.0
C881 C 0.41205 0.53219 0.77099 0.0
H882 H 0.48398 0.54112 0.70917 0.0
H883 H 0.43558 0.49032 0.75242 0.0
S884 S 0.40552 0.63245 0.76711 0.0
N885 N 0.44154 0.63901 0.73751 0.0
N886 N 0.38971 0.58472 0.78469 0.0
C887 C 0.41399 0.57207 0.76641 0.0
C888 C 0.44157 0.60115 0.74087 0.0
C889 C 0.91205 0.48299 0.75776 0.0
C890 C 0.8773 0.49051 0.75255 0.0
C891 C 0.90563 0.44504 0.77305 0.0
C892 C 0.86447 0.41371 0.78401 0.0
H893 H 0.94408 0.50536 0.74829 0.0
H894 H 0.93307 0.44003 0.77617 0.0
S895 S 0.76431 0.4206 0.78171 0.0
N896 N 0.80114 0.46564 0.76325 0.0
N897 N 0.78932 0.39367 0.79222 0.0
C898 C 0.82991 0.42164 0.78109 0.0
C899 C 0.83632 0.46038 0.76537 0.0
C900 C 0.55367 0.31017 0.12715 0.0
C901 C 0.51855 0.2895 0.10429 0.0
C902 C 0.56965 0.35322 0.13658 0.0
C903 C 0.55191 0.37731 0.12284 0.0
H904 H 0.56649 0.29207 0.14015 0.0
H905 H 0.59379 0.36667 0.15655 0.0
S906 S 0.46297 0.33968 0.05908 0.0
N907 N 0.46841 0.29701 0.06636 0.0
N908 N 0.49973 0.37874 0.08328 0.0
C909 C 0.51846 0.35782 0.09851 0.0
C910 C 0.50162 0.31373 0.0893 0.0
C911 C 0.29318 0.63928 0.11772 0.0
C912 C 0.27873 0.64593 0.08559 0.0
C913 C 0.30957 0.61098 0.12085 0.0
C914 C 0.31109 0.58782 0.09215 0.0
H915 H 0.28731 0.65188 0.14127 0.0
H916 H 0.31647 0.60365 0.14643 0.0
S917 S 0.28908 0.60235 0.00132 0.0
N918 N 0.2773 0.63473 0.02345 0.0
N919 N 0.30535 0.57924 0.03003 0.0
C920 C 0.30217 0.59815 0.05948 0.0
C921 C 0.28694 0.62809 0.05602 0.0
C922 C 0.68772 0.23703 0.0611 0.0
C923 C 0.70694 0.25723 0.0923 0.0
C924 C 0.64353 0.2212 0.05553 0.0
C925 C 0.61754 0.2251 0.08106 0.0
H926 H 0.70674 0.23295 0.04121 0.0
H927 H 0.62929 0.20454 0.03157 0.0
S928 S 0.65342 0.27383 0.16792 0.0
N929 N 0.6972 0.27841 0.14959 0.0
N930 N 0.61492 0.25103 0.13869 0.0
C931 C 0.63705 0.24638 0.11205 0.0
C932 C 0.68161 0.26163 0.11786 0.0
C933 C 0.43269 0.66847 0.16489 0.0
C934 C 0.42356 0.64037 0.13684 0.0
C935 C 0.44344 0.71147 0.15958 0.0
C936 C 0.44656 0.7277 0.12598 0.0
H937 H 0.43374 0.65774 0.19086 0.0
H938 H 0.45401 0.7331 0.18156 0.0
S939 S 0.41985 0.66527 0.04461 0.0
N940 N 0.41309 0.62996 0.07494 0.0
N941 N 0.43436 0.71118 0.06486 0.0
C942 C 0.43359 0.6988 0.09812 0.0
C943 C 0.42207 0.65496 0.10356 0.0
C944 C 0.72143 0.37853 0.09533 0.0
C945 C 0.73099 0.37508 0.12997 0.0
C946 C 0.6967 0.39796 0.08693 0.0
C947 C 0.68054 0.41347 0.11304 0.0
H948 H 0.73751 0.37141 0.07474 0.0
H949 H 0.69486 0.4057 0.06017 0.0
S950 S 0.68864 0.40199 0.20751 0.0
N951 N 0.71555 0.38017 0.19012 0.0
N952 N 0.67019 0.41758 0.17472 0.0
C953 C 0.68456 0.40394 0.14759 0.0
C954 C 0.70972 0.3845 0.15599 0.0
C955 C 0.37381 0.78479 0.13277 0.0
C956 C 0.39406 0.83004 0.13475 0.0
C957 C 0.32906 0.75936 0.12996 0.0
C958 C 0.30233 0.77779 0.12854 0.0
H959 H 0.3924 0.76839 0.13405 0.0
H960 H 0.31549 0.72492 0.12901 0.0
S961 S 0.3389 0.89498 0.13324 0.0
N962 N 0.38388 0.89252 0.13544 0.0
N963 N 0.29941 0.8446 0.12985 0.0
C964 C 0.32203 0.82315 0.1303 0.0
C965 C 0.36789 0.84923 0.13344 0.0
C966 C 0.69329 0.41282 0.39474 0.0
C967 C 0.71122 0.44856 0.41713 0.0
C968 C 0.6489 0.38594 0.39207 0.0
C969 C 0.62093 0.395 0.41077 0.0
H970 H 0.71299 0.40832 0.37602 0.0
H971 H 0.63653 0.3614 0.37213 0.0
S972 S 0.65046 0.48236 0.47462 0.0
N973 N 0.69724 0.48915 0.46068 0.0
N974 N 0.61285 0.43976 0.45394 0.0
C975 C 0.63791 0.42888 0.43475 0.0
C976 C 0.68339 0.45567 0.4382 0.0
C977 C 0.24307 0.64758 0.40663 0.0
C978 C 0.20528 0.62714 0.38679 0.0
C979 C 0.25603 0.68805 0.4214 0.0
C980 C 0.23145 0.70877 0.41669 0.0
H981 H 0.26399 0.63378 0.40886 0.0
H982 H 0.28729 0.70497 0.4338 0.0
S983 S 0.1231 0.66132 0.37614 0.0
N984 N 0.13867 0.62537 0.36985 0.0
N985 N 0.16257 0.70075 0.39809 0.0
C986 C 0.19037 0.68523 0.40162 0.0
C987 C 0.17764 0.6447 0.3861 0.0
C988 C 0.56514 0.25913 0.40919 0.0
C989 C 0.52159 0.23996 0.41953 0.0
C990 C 0.58486 0.2341 0.40402 0.0
C991 C 0.56173 0.18944 0.40948 0.0
H992 H 0.58269 0.2925 0.40128 0.0
H993 H 0.61648 0.24907 0.39232 0.0
S994 S 0.45289 0.12701 0.44843 0.0
N995 N 0.46024 0.17616 0.44368 0.0
N996 N 0.49763 0.1292 0.43436 0.0
C997 C 0.521 0.17145 0.42531 0.0
C998 C 0.50085 0.19681 0.4304 0.0
C999 C 0.29561 0.58088 0.38274 0.0
C1000 C 0.27764 0.55482 0.41203 0.0
C1001 C 0.33902 0.59732 0.3747 0.0
C1002 C 0.36652 0.59103 0.39678 0.0
H1003 H 0.27509 0.58291 0.36305 0.0
H1004 H 0.34941 0.60965 0.34895 0.0
S1005 S 0.33753 0.53433 0.48068 0.0
N1006 N 0.29168 0.52918 0.46591 0.0
N1007 N 0.37471 0.56335 0.45173 0.0
C1008 C 0.35045 0.57079 0.42862 0.0
C1009 C 0.30563 0.55227 0.43624 0.0
C1010 C 0.72229 0.33246 0.36179 0.0
C1011 C 0.75129 0.36051 0.38652 0.0
C1012 C 0.70033 0.28803 0.36734 0.0
C1013 C 0.70786 0.27057 0.39732 0.0
H1014 H 0.71926 0.34467 0.33695 0.0
H1015 H 0.68083 0.26711 0.34653 0.0
S1016 S 0.77724 0.33108 0.47123 0.0
N1017 N 0.78272 0.36866 0.44356 0.0
N1018 N 0.74296 0.28447 0.45325 0.0
C1019 C 0.73415 0.29845 0.42334 0.0
C1020 C 0.75547 0.3438 0.41813 0.0
C1021 C 0.40711 0.71961 0.42063 0.0
C1022 C 0.42252 0.70405 0.39415 0.0
C1023 C 0.37532 0.73092 0.41372 0.0
C1024 C 0.35865 0.72718 0.38011 0.0
H1025 H 0.42198 0.72613 0.44593 0.0
H1026 H 0.36783 0.74745 0.43367 0.0
S1027 S 0.38682 0.68569 0.30286 0.0
N1028 N 0.41821 0.68451 0.33365 0.0
N1029 N 0.35575 0.70173 0.32168 0.0
C1030 C 0.37033 0.70691 0.35472 0.0
C1031 C 0.40364 0.6971 0.36131 0.0
C1032 C 0.49083 0.68044 0.86378 0.0
C1033 C 0.47115 0.70461 0.85367 0.0
C1034 C 0.46632 0.63556 0.86878 0.0
C1035 C 0.42133 0.61397 0.86471 0.0
H1036 H 0.52481 0.69678 0.87042 0.0
H1037 H 0.48204 0.61854 0.8788 0.0
S1038 S 0.35385 0.66232 0.84174 0.0
N1039 N 0.40381 0.70315 0.84077 0.0
N1040 N 0.35792 0.61951 0.85122 0.0
C1041 C 0.40151 0.63753 0.85411 0.0
C1042 C 0.42637 0.68267 0.84817 0.0
C1043 C 0.8019 0.42763 0.87367 0.0
C1044 C 0.79532 0.39592 0.89837 0.0
C1045 C 0.78103 0.45236 0.87604 0.0
C1046 C 0.75371 0.44746 0.90396 0.0
H1047 H 0.82277 0.43293 0.85187 0.0
H1048 H 0.78615 0.47525 0.85574 0.0
S1049 S 0.72932 0.37252 0.97796 0.0
N1050 N 0.76162 0.36363 0.95308 0.0
N1051 N 0.72358 0.4103 0.95822 0.0
C1052 C 0.74873 0.41754 0.92986 0.0
C1053 C 0.76926 0.39186 0.92699 0.0
C1054 C 0.35427 0.82424 0.87154 0.0
C1055 C 0.37682 0.80917 0.85157 0.0
C1056 C 0.30922 0.80474 0.8691 0.0
C1057 C 0.28569 0.76957 0.84672 0.0
H1058 H 0.3708 0.84783 0.89168 0.0
H1059 H 0.29241 0.81418 0.88737 0.0
S1060 S 0.33033 0.72146 0.78678 0.0
N1061 N 0.37264 0.75893 0.8077 0.0
N1062 N 0.28871 0.7249 0.80105 0.0
C1063 C 0.30847 0.75809 0.82371 0.0
C1064 C 0.35396 0.77692 0.82697 0.0
C1065 C 0.50539 0.31344 0.86372 0.0
C1066 C 0.52655 0.29051 0.85454 0.0
C1067 C 0.52858 0.35831 0.8677 0.0
C1068 C 0.57348 0.38076 0.86344 0.0
H1069 H 0.47155 0.29628 0.87074 0.0
H1070 H 0.51202 0.37483 0.8771 0.0
S1071 S 0.64397 0.33542 0.84147 0.0
N1072 N 0.59457 0.29359 0.84105 0.0
N1073 N 0.63844 0.37749 0.85083 0.0
C1074 C 0.59472 0.35833 0.85366 0.0
C1075 C 0.57109 0.31319 0.84838 0.0
C1076 C 0.22276 0.5639 0.83527 0.0
C1077 C 0.18805 0.55867 0.85593 0.0
C1078 C 0.23932 0.53578 0.83783 0.0
C1079 C 0.22351 0.50301 0.8628 0.0
H1080 H 0.23968 0.59212 0.81902 0.0
H1081 H 0.26818 0.54335 0.8233 0.0
S1082 S 0.13067 0.47353 0.92122 0.0
N1083 N 0.1357 0.51569 0.89964 0.0
N1084 N 0.16844 0.46392 0.90608 0.0
C1085 C 0.18672 0.49533 0.8818 0.0
C1086 C 0.16878 0.52314 0.87817 0.0
C1087 C 0.69438 0.20078 0.90139 0.0
C1088 C 0.71905 0.23009 0.87537 0.0
C1089 C 0.64902 0.18063 0.901 0.0
C1090 C 0.62732 0.18974 0.87485 0.0
H1091 H 0.71026 0.19486 0.92283 0.0
H1092 H 0.63107 0.16034 0.92255 0.0
S1093 S 0.67826 0.26724 0.8031 0.0
N1094 N 0.7191 0.26769 0.82341 0.0
N1095 N 0.6345 0.23211 0.82399 0.0
C1096 C 0.65195 0.21847 0.84862 0.0
C1097 C 0.69774 0.23811 0.84854 0.0
C1098 C 0.32766 0.53579 0.64896 0.0
C1099 C 0.29925 0.53725 0.62441 0.0
C1100 C 0.37278 0.56422 0.64666 0.0
C1101 C 0.39056 0.59462 0.61963 0.0
H1102 H 0.31518 0.51215 0.66946 0.0
H1103 H 0.39369 0.56255 0.66615 0.0
S1104 S 0.32905 0.60902 0.54799 0.0
N1105 N 0.29201 0.57063 0.57219 0.0
N1106 N 0.37534 0.62236 0.56706 0.0
C1107 C 0.36199 0.59544 0.5948 0.0
C1108 C 0.31677 0.56723 0.59741 0.0
C1109 C 0.83462 0.35805 0.65599 0.0
C1110 C 0.8154 0.37925 0.67257 0.0
C1111 C 0.81269 0.31292 0.65333 0.0
C1112 C 0.77101 0.28779 0.66728 0.0
H1113 H 0.86354 0.37632 0.64072 0.0
H1114 H 0.8259 0.29814 0.63645 0.0
S1115 S 0.71158 0.3277 0.71988 0.0
N1116 N 0.75615 0.37168 0.70814 0.0
N1117 N 0.71553 0.28684 0.70405 0.0
C1118 C 0.75493 0.3082 0.68874 0.0
C1119 C 0.77703 0.35415 0.69108 0.0
C1120 C 0.43398 0.77896 0.63906 0.0
C1121 C 0.44753 0.8195 0.62452 0.0
C1122 C 0.46293 0.7641 0.64513 0.0
C1123 C 0.50613 0.78823 0.63461 0.0
H1124 H 0.39989 0.75699 0.64298 0.0
H1125 H 0.44999 0.73116 0.65392 0.0
S1126 S 0.55785 0.89678 0.59477 0.0
N1127 N 0.50711 0.88456 0.60066 0.0
N1128 N 0.56176 0.85555 0.60996 0.0
C1129 C 0.52072 0.8298 0.62118 0.0
C1130 C 0.49123 0.84558 0.61623 0.0
C1131 C 0.68594 0.4719 0.59881 0.0
C1132 C 0.70799 0.46808 0.62755 0.0
C1133 C 0.64076 0.44914 0.59719 0.0
C1134 C 0.61609 0.42238 0.62443 0.0
H1135 H 0.70366 0.49038 0.57645 0.0
H1136 H 0.62509 0.45029 0.57355 0.0
S1137 S 0.65792 0.40299 0.70591 0.0
N1138 N 0.70152 0.43753 0.68474 0.0
N1139 N 0.61654 0.3944 0.68129 0.0
C1140 C 0.63745 0.42066 0.65426 0.0
C1141 C 0.68351 0.44378 0.65597 0.0
C1142 C 0.20971 0.64214 0.57467 0.0
C1143 C 0.1887 0.61819 0.60418 0.0
C1144 C 0.23267 0.6869 0.57538 0.0
C1145 C 0.2358 0.70996 0.60573 0.0
H1146 H 0.21173 0.62608 0.55156 0.0
H1147 H 0.25093 0.70315 0.5525 0.0
S1148 S 0.1699 0.66264 0.68443 0.0
N1149 N 0.16064 0.62031 0.66081 0.0
N1150 N 0.20479 0.70566 0.6625 0.0
C1151 C 0.20943 0.68666 0.63379 0.0
C1152 C 0.18536 0.6404 0.63285 0.0
C1153 C 0.49575 0.18205 0.61826 0.0
C1154 C 0.50333 0.2179 0.63867 0.0
C1155 C 0.52452 0.16577 0.61866 0.0
C1156 C 0.56202 0.18554 0.63895 0.0
H1157 H 0.47015 0.16959 0.59919 0.0
H1158 H 0.52006 0.14117 0.60012 0.0
S1159 S 0.59241 0.27481 0.70135 0.0
N1160 N 0.54665 0.26703 0.68429 0.0
N1161 N 0.60233 0.23889 0.68298 0.0
C1162 C 0.56716 0.21794 0.66225 0.0
C1163 C 0.53712 0.23334 0.66281 0.0
C1164 C 0.42835 0.07405 0.98041 0.0
C1165 C 0.41748 0.09904 0.95881 0.0
C1166 C 0.4208 0.07166 0.01611 0.0
C1167 C 0.40143 0.09359 0.03134 0.0
H1168 H 0.44805 0.06114 0.97043 0.0
H1169 H 0.43396 0.05611 0.03213 0.0
S1170 S 0.35853 0.15545 0.98462 0.0
N1171 N 0.38025 0.13998 0.95412 0.0
N1172 N 0.36454 0.13465 0.02086 0.0
C1173 C 0.3845 0.11308 0.00916 0.0
C1174 C 0.39274 0.11585 0.97285 0.0
C1175 C 0.36975 0.43015 0.98897 0.0
C1176 C 0.33401 0.41145 0.96651 0.0
C1177 C 0.36398 0.42787 0.02487 0.0
C1178 C 0.32224 0.40633 0.03927 0.0
H1179 H 0.40141 0.45272 0.9789 0.0
H1180 H 0.39183 0.44781 0.04071 0.0
S1181 S 0.22104 0.33598 0.99129 0.0
N1182 N 0.25796 0.3594 0.96093 0.0
N1183 N 0.24677 0.35348 0.02839 0.0
C1184 C 0.28782 0.37938 0.01715 0.0
C1185 C 0.29386 0.38211 0.98059 0.0
C1186 C 0.90751 0.30541 0.01968 0.0
C1187 C 0.89765 0.33209 0.04024 0.0
C1188 C 0.89856 0.30058 0.98405 0.0
C1189 C 0.87898 0.32186 0.96813 0.0
H1190 H 0.91886 0.28545 0.0317 0.0
H1191 H 0.90399 0.27776 0.96955 0.0
S1192 S 0.85328 0.40066 0.00811 0.0
N1193 N 0.87197 0.38401 0.04002 0.0
N1194 N 0.85606 0.37514 0.97363 0.0
C1195 C 0.87291 0.3516 0.9874 0.0
C1196 C 0.88223 0.35686 0.02333 0.0
C1197 C 0.59851 0.8922 0.97412 0.0
C1198 C 0.56504 0.89766 0.96062 0.0
C1199 C 0.60786 0.89749 0.00966 0.0
C1200 C 0.58336 0.90744 0.03292 0.0
H1201 H 0.6141 0.87906 0.95808 0.0
H1202 H 0.63131 0.88913 0.01928 0.0
S1203 S 0.49994 0.93582 0.00806 0.0
N1204 N 0.51439 0.92322 0.97132 0.0
N1205 N 0.52979 0.93043 0.03809 0.0
C1206 C 0.55398 0.91866 0.01871 0.0
C1207 C 0.54542 0.91447 0.98251 0.0
C1208 C 0.64867 0.58121 0.99186 0.0
C1209 C 0.68169 0.58859 0.96821 0.0
C1210 C 0.6571 0.58777 0.0274 0.0
C1211 C 0.699 0.60239 0.04041 0.0
H1212 H 0.61523 0.56404 0.98355 0.0
H1213 H 0.62978 0.57612 0.04468 0.0
S1214 S 0.79868 0.64385 0.98753 0.0
N1215 N 0.75899 0.62359 0.95903 0.0
N1216 N 0.77547 0.63761 0.02558 0.0
C1217 C 0.73321 0.61875 0.01625 0.0
C1218 C 0.72441 0.61158 0.98006 0.0
C1219 C 0.13077 0.7204 0.00504 0.0
C1220 C 0.11248 0.68501 0.02785 0.0
C1221 C 0.12978 0.71414 0.96917 0.0
C1222 C 0.11012 0.67234 0.95526 0.0
H1223 H 0.14971 0.75288 0.015 0.0
H1224 H 0.14872 0.74179 0.95279 0.0
S1225 S 0.04772 0.57 0.0033 0.0
N1226 N 0.06688 0.60764 0.03346 0.0
N1227 N 0.06476 0.59579 0.96624 0.0
C1228 C 0.08675 0.63728 0.97751 0.0
C1229 C 0.08818 0.6436 0.01385 0.0
C1230 C 0.91753 0.5928 0.5338 0.0
C1231 C 0.88366 0.55372 0.54665 0.0
C1232 C 0.92225 0.60101 0.49781 0.0
C1233 C 0.89419 0.56955 0.47413 0.0
H1234 H 0.94091 0.61638 0.5514 0.0
H1235 H 0.94818 0.63146 0.4885 0.0
S1236 S 0.79877 0.46377 0.49509 0.0
N1237 N 0.81979 0.48534 0.53278 0.0
N1238 N 0.83033 0.49947 0.46636 0.0
C1239 C 0.85998 0.53108 0.48705 0.0
C1240 C 0.85429 0.52351 0.52298 0.0
C1241 C 0.28495 0.87807 0.51745 0.0
C1242 C 0.32398 0.90693 0.53352 0.0
C1243 C 0.28042 0.87885 0.48164 0.0
C1244 C 0.31445 0.90897 0.46074 0.0
H1245 H 0.26019 0.85101 0.53172 0.0
H1246 H 0.25165 0.8528 0.46998 0.0
S1247 S 0.41565 0.00188 0.49258 0.0
N1248 N 0.39253 0.97316 0.52754 0.0
N1249 N 0.38262 0.97609 0.46011 0.0
C1250 C 0.35054 0.94228 0.47719 0.0
C1251 C 0.35546 0.9411 0.51374 0.0
C1252 C 0.3755 0.29301 0.47918 0.0
C1253 C 0.40197 0.3285 0.45769 0.0
C1254 C 0.38221 0.29465 0.51507 0.0
C1255 C 0.41468 0.33213 0.53081 0.0
H1256 H 0.35348 0.26191 0.468 0.0
H1257 H 0.36611 0.26486 0.52961 0.0
S1258 S 0.48111 0.43807 0.48873 0.0
N1259 N 0.45325 0.40539 0.45681 0.0
N1260 N 0.46527 0.40835 0.52404 0.0
C1261 C 0.43515 0.36979 0.51075 0.0
C1262 C 0.42891 0.36806 0.47419 0.0
C1263 C 0.07306 0.42961 0.51108 0.0
C1264 C 0.09336 0.41221 0.53162 0.0
C1265 C 0.06796 0.42214 0.47537 0.0
C1266 C 0.0823 0.39636 0.45894 0.0
H1267 H 0.06732 0.45446 0.52163 0.0
H1268 H 0.05825 0.44134 0.46036 0.0
S1269 S 0.12161 0.33021 0.50394 0.0
N1270 N 0.11697 0.35941 0.53493 0.0
N1271 N 0.10486 0.34273 0.46827 0.0
C1272 C 0.09394 0.3717 0.48059 0.0
C1273 C 0.10013 0.38028 0.5169 0.0
C1274 C 0.70712 0.09618 0.48551 0.0
C1275 C 0.67036 0.08557 0.4648 0.0
C1276 C 0.70883 0.10785 0.52041 0.0
C1277 C 0.67337 0.10796 0.53586 0.0
H1278 H 0.73669 0.10083 0.47375 0.0
H1279 H 0.73934 0.12124 0.53403 0.0
S1280 S 0.56529 0.06945 0.49722 0.0
N1281 N 0.59454 0.06626 0.46556 0.0
N1282 N 0.59767 0.08698 0.53101 0.0
C1283 C 0.6344 0.09039 0.51737 0.0
C1284 C 0.63274 0.0791 0.48187 0.0
C1285 C 0.62537 0.71629 0.51804 0.0
C1286 C 0.59636 0.67708 0.53379 0.0
C1287 C 0.62716 0.7202 0.48192 0.0
C1288 C 0.59975 0.68504 0.46059 0.0
H1289 H 0.64117 0.74548 0.53338 0.0
H1290 H 0.64563 0.75224 0.47107 0.0
S1291 S 0.53097 0.57214 0.49027 0.0
N1292 N 0.55047 0.60023 0.52609 0.0
N1293 N 0.55232 0.60724 0.4585 0.0
C1294 C 0.57764 0.64408 0.4762 0.0
C1295 C 0.57669 0.64017 0.51292 0.0
loop_
_geom_bond_atom_site_label_1
_geom_bond_atom_site_label_2
_geom_bond_distance
_geom_bond_site_symmetry_2
_ccdc_geom_bond_type
Zn0 O6 1.920 . S
Zn0 O12 1.898 . S
Zn0 O15 1.905 . S
Zn1 O9 1.905 . S
Zn1 O10 1.898 . S
Zn1 O18 1.920 . S
Zn2 O5 2.080 . S
Zn2 O8 2.114 . S
Zn2 O11 2.120 . S
Zn2 O13 2.120 . S
Zn2 O14 2.114 . S
Zn2 O17 2.080 . S
C3 O8 1.166 . S
C3 O9 1.182 . S
C4 O10 1.167 . S
C4 O11 1.299 . S
O5 Zn2 2.080 . S
O5 C19 1.305 . S
O6 Zn0 1.920 . S
O6 C19 1.234 . S
C7 O12 1.167 . S
C7 O13 1.299 . S
O8 Zn2 2.114 . S
O8 C3 1.166 . S
O9 Zn1 1.905 . S
O9 C3 1.182 . S
O10 Zn1 1.898 . S
O10 C4 1.167 . S
O11 Zn2 2.120 . S
O11 C4 1.299 . S
O12 Zn0 1.898 . S
O12 C7 1.167 . S
O13 Zn2 2.120 . S
O13 C7 1.299 . S
O14 Zn2 2.114 . S
O14 C16 1.166 . S
O15 Zn0 1.905 . S
O15 C16 1.182 . S
C16 O14 1.166 . S
C16 O15 1.182 . S
O17 Zn2 2.080 . S
O17 C20 1.305 . S
O18 Zn1 1.920 . S
O18 C20 1.234 . S
C19 O5 1.305 . S
C19 O6 1.234 . S
C20 O17 1.305 . S
C20 O18 1.234 . S
Zn21 O27 1.920 . S
Zn21 O33 1.898 . S
Zn21 O36 1.905 . S
Zn22 O30 1.905 . S
Zn22 O31 1.898 . S
Zn22 O39 1.920 . S
Zn23 O26 2.080 . S
Zn23 O29 2.114 . S
Zn23 O32 2.120 . S
Zn23 O34 2.120 . S
Zn23 O35 2.114 . S
Zn23 O38 2.080 . S
C24 O29 1.166 . S
C24 O30 1.182 . S
C25 O31 1.167 . S
C25 O32 1.299 . S
O26 Zn23 2.080 . S
O26 C40 1.305 . S
O27 Zn21 1.920 . S
O27 C40 1.234 . S
C28 O33 1.167 . S
C28 O34 1.299 . S
O29 Zn23 2.114 . S
O29 C24 1.166 . S
O30 Zn22 1.905 . S
O30 C24 1.182 . S
O31 Zn22 1.898 . S
O31 C25 1.167 . S
O32 Zn23 2.120 . S
O32 C25 1.299 . S
O33 Zn21 1.898 . S
O33 C28 1.167 . S
O34 Zn23 2.120 . S
O34 C28 1.299 . S
O35 Zn23 2.114 . S
O35 C37 1.166 . S
O36 Zn21 1.905 . S
O36 C37 1.182 . S
C37 O35 1.166 . S
C37 O36 1.182 . S
O38 Zn23 2.080 . S
O38 C41 1.305 . S
O39 Zn22 1.920 . S
O39 C41 1.234 . S
C40 O26 1.305 . S
C40 O27 1.234 . S
C41 O38 1.305 . S
C41 O39 1.234 . S
Zn42 O48 1.920 . S
Zn42 O54 1.898 . S
Zn42 O57 1.905 . S
Zn43 O51 1.905 . S
Zn43 O52 1.898 . S
Zn43 O60 1.920 . S
Zn44 O47 2.080 . S
Zn44 O50 2.114 . S
Zn44 O53 2.120 . S
Zn44 O55 2.120 . S
Zn44 O56 2.114 . S
Zn44 O59 2.080 . S
C45 O50 1.166 . S
C45 O51 1.182 . S
C46 O52 1.167 . S
C46 O53 1.299 . S
O47 Zn44 2.080 . S
O47 C61 1.305 . S
O48 Zn42 1.920 . S
O48 C61 1.234 . S
C49 O54 1.167 . S
C49 O55 1.299 . S
O50 Zn44 2.114 . S
O50 C45 1.166 . S
O51 Zn43 1.905 . S
O51 C45 1.182 . S
O52 Zn43 1.898 . S
O52 C46 1.167 . S
O53 Zn44 2.120 . S
O53 C46 1.299 . S
O54 Zn42 1.898 . S
O54 C49 1.167 . S
O55 Zn44 2.120 . S
O55 C49 1.299 . S
O56 Zn44 2.114 . S
O56 C58 1.166 . S
O57 Zn42 1.905 . S
O57 C58 1.182 . S
C58 O56 1.166 . S
C58 O57 1.182 . S
O59 Zn44 2.080 . S
O59 C62 1.305 . S
O60 Zn43 1.920 . S
O60 C62 1.234 . S
C61 O47 1.305 . S
C61 O48 1.234 . S
C62 O59 1.305 . S
C62 O60 1.234 . S
Zn63 O69 1.920 . S
Zn63 O75 1.898 . S
Zn63 O78 1.905 . S
Zn64 O72 1.905 . S
Zn64 O73 1.898 . S
Zn64 O81 1.920 . S
Zn65 O68 2.080 . S
Zn65 O71 2.114 . S
Zn65 O74 2.120 . S
Zn65 O76 2.120 . S
Zn65 O77 2.114 . S
Zn65 O80 2.080 . S
C66 O71 1.166 . S
C66 O72 1.182 . S
C67 O73 1.167 . S
C67 O74 1.299 . S
O68 Zn65 2.080 . S
O68 C82 1.305 . S
O69 Zn63 1.920 . S
O69 C82 1.234 . S
C70 O75 1.167 . S
C70 O76 1.299 . S
O71 Zn65 2.114 . S
O71 C66 1.166 . S
O72 Zn64 1.905 . S
O72 C66 1.182 . S
O73 Zn64 1.898 . S
O73 C67 1.167 . S
O74 Zn65 2.120 . S
O74 C67 1.299 . S
O75 Zn63 1.898 . S
O75 C70 1.167 . S
O76 Zn65 2.120 . S
O76 C70 1.299 . S
O77 Zn65 2.114 . S
O77 C79 1.166 . S
O78 Zn63 1.905 . S
O78 C79 1.182 . S
C79 O77 1.166 . S
C79 O78 1.182 . S
O80 Zn65 2.080 . S
O80 C83 1.305 . S
O81 Zn64 1.920 . S
O81 C83 1.234 . S
C82 O68 1.305 . S
C82 O69 1.234 . S
C83 O80 1.305 . S
C83 O81 1.234 . S
Zn84 O90 1.920 . S
Zn84 O96 1.898 . S
Zn84 O99 1.905 . S
Zn85 O93 1.905 . S
Zn85 O94 1.898 . S
Zn85 O102 1.920 . S
Zn86 O89 2.080 . S
Zn86 O92 2.114 . S
Zn86 O95 2.120 . S
Zn86 O97 2.120 . S
Zn86 O98 2.114 . S
Zn86 O101 2.080 . S
C87 O92 1.166 . S
C87 O93 1.182 . S
C88 O94 1.167 . S
C88 O95 1.299 . S
O89 Zn86 2.080 . S
O89 C103 1.305 . S
O90 Zn84 1.920 . S
O90 C103 1.234 . S
C91 O96 1.167 . S
C91 O97 1.299 . S
O92 Zn86 2.114 . S
O92 C87 1.166 . S
O93 Zn85 1.905 . S
O93 C87 1.182 . S
O94 Zn85 1.898 . S
O94 C88 1.167 . S
O95 Zn86 2.120 . S
O95 C88 1.299 . S
O96 Zn84 1.898 . S
O96 C91 1.167 . S
O97 Zn86 2.120 . S
O97 C91 1.299 . S
O98 Zn86 2.114 . S
O98 C100 1.166 . S
O99 Zn84 1.905 . S
O99 C100 1.182 . S
C100 O98 1.166 . S
C100 O99 1.182 . S
O101 Zn86 2.080 . S
O101 C104 1.305 . S
O102 Zn85 1.920 . S
O102 C104 1.234 . S
C103 O89 1.305 . S
C103 O90 1.234 . S
C104 O101 1.305 . S
C104 O102 1.234 . S
Zn105 O111 1.920 . S
Zn105 O117 1.898 . S
Zn105 O120 1.905 . S
Zn106 O114 1.905 . S
Zn106 O115 1.898 . S
Zn106 O123 1.920 . S
Zn107 O110 2.080 . S
Zn107 O113 2.114 . S
Zn107 O116 2.120 . S
Zn107 O118 2.120 . S
Zn107 O119 2.114 . S
Zn107 O122 2.080 . S
C108 O113 1.166 . S
C108 O114 1.182 . S
C109 O115 1.167 . S
C109 O116 1.299 . S
O110 Zn107 2.080 . S
O110 C124 1.305 . S
O111 Zn105 1.920 . S
O111 C124 1.234 . S
C112 O117 1.167 . S
C112 O118 1.299 . S
O113 Zn107 2.114 . S
O113 C108 1.166 . S
O114 Zn106 1.905 . S
O114 C108 1.182 . S
O115 Zn106 1.898 . S
O115 C109 1.167 . S
O116 Zn107 2.120 . S
O116 C109 1.299 . S
O117 Zn105 1.898 . S
O117 C112 1.167 . S
O118 Zn107 2.120 . S
O118 C112 1.299 . S
O119 Zn107 2.114 . S
O119 C121 1.166 . S
O120 Zn105 1.905 . S
O120 C121 1.182 . S
C121 O119 1.166 . S
C121 O120 1.182 . S
O122 Zn107 2.080 . S
O122 C125 1.305 . S
O123 Zn106 1.920 . S
O123 C125 1.234 . S
C124 O110 1.305 . S
C124 O111 1.234 . S
C125 O122 1.305 . S
C125 O123 1.234 . S
Zn126 O132 1.920 . S
Zn126 O138 1.898 . S
Zn126 O141 1.905 . S
Zn127 O135 1.905 . S
Zn127 O136 1.898 . S
Zn127 O144 1.920 . S
Zn128 O131 2.080 . S
Zn128 O134 2.114 . S
Zn128 O137 2.120 . S
Zn128 O139 2.120 . S
Zn128 O140 2.114 . S
Zn128 O143 2.080 . S
C129 O134 1.166 . S
C129 O135 1.182 . S
C130 O136 1.167 . S
C130 O137 1.299 . S
O131 Zn128 2.080 . S
O131 C145 1.305 . S
O132 Zn126 1.920 . S
O132 C145 1.234 . S
C133 O138 1.167 . S
C133 O139 1.299 . S
O134 Zn128 2.114 . S
O134 C129 1.166 . S
O135 Zn127 1.905 . S
O135 C129 1.182 . S
O136 Zn127 1.898 . S
O136 C130 1.167 . S
O137 Zn128 2.120 . S
O137 C130 1.299 . S
O138 Zn126 1.898 . S
O138 C133 1.167 . S
O139 Zn128 2.120 . S
O139 C133 1.299 . S
O140 Zn128 2.114 . S
O140 C142 1.166 . S
O141 Zn126 1.905 . S
O141 C142 1.182 . S
C142 O140 1.166 . S
C142 O141 1.182 . S
O143 Zn128 2.080 . S
O143 C146 1.305 . S
O144 Zn127 1.920 . S
O144 C146 1.234 . S
C145 O131 1.305 . S
C145 O132 1.234 . S
C146 O143 1.305 . S
C146 O144 1.234 . S
Zn147 O153 1.920 . S
Zn147 O159 1.898 . S
Zn147 O162 1.905 . S
Zn148 O156 1.905 . S
Zn148 O157 1.898 . S
Zn148 O165 1.920 . S
Zn149 O152 2.080 . S
Zn149 O155 2.114 . S
Zn149 O158 2.120 . S
Zn149 O160 2.120 . S
Zn149 O161 2.114 . S
Zn149 O164 2.080 . S
C150 O155 1.166 . S
C150 O156 1.182 . S
C151 O157 1.167 . S
C151 O158 1.299 . S
O152 Zn149 2.080 . S
O152 C166 1.305 . S
O153 Zn147 1.920 . S
O153 C166 1.234 . S
C154 O159 1.167 . S
C154 O160 1.299 . S
O155 Zn149 2.114 . S
O155 C150 1.166 . S
O156 Zn148 1.905 . S
O156 C150 1.182 . S
O157 Zn148 1.898 . S
O157 C151 1.167 . S
O158 Zn149 2.120 . S
O158 C151 1.299 . S
O159 Zn147 1.898 . S
O159 C154 1.167 . S
O160 Zn149 2.120 . S
O160 C154 1.299 . S
O161 Zn149 2.114 . S
O161 C163 1.166 . S
O162 Zn147 1.905 . S
O162 C163 1.182 . S
C163 O161 1.166 . S
C163 O162 1.182 . S
O164 Zn149 2.080 . S
O164 C167 1.305 . S
O165 Zn148 1.920 . S
O165 C167 1.234 . S
C166 O152 1.305 . S
C166 O153 1.234 . S
C167 O164 1.305 . S
C167 O165 1.234 . S
Zn168 O174 1.920 . S
Zn168 O180 1.898 . S
Zn168 O183 1.905 . S
Zn169 O177 1.905 . S
Zn169 O178 1.898 . S
Zn169 O186 1.920 . S
Zn170 O173 2.080 . S
Zn170 O176 2.114 . S
Zn170 O179 2.120 . S
Zn170 O181 2.120 . S
Zn170 O182 2.114 . S
Zn170 O185 2.080 . S
C171 O176 1.166 . S
C171 O177 1.182 . S
C172 O178 1.167 . S
C172 O179 1.299 . S
O173 Zn170 2.080 . S
O173 C187 1.305 . S
O174 Zn168 1.920 . S
O174 C187 1.234 . S
C175 O180 1.167 . S
C175 O181 1.299 . S
O176 Zn170 2.114 . S
O176 C171 1.166 . S
O177 Zn169 1.905 . S
O177 C171 1.182 . S
O178 Zn169 1.898 . S
O178 C172 1.167 . S
O179 Zn170 2.120 . S
O179 C172 1.299 . S
O180 Zn168 1.898 . S
O180 C175 1.167 . S
O181 Zn170 2.120 . S
O181 C175 1.299 . S
O182 Zn170 2.114 . S
O182 C184 1.166 . S
O183 Zn168 1.905 . S
O183 C184 1.182 . S
C184 O182 1.166 . S
C184 O183 1.182 . S
O185 Zn170 2.080 . S
O185 C188 1.305 . S
O186 Zn169 1.920 . S
O186 C188 1.234 . S
C187 O173 1.305 . S
C187 O174 1.234 . S
C188 O185 1.305 . S
C188 O186 1.234 . S
Zn189 O195 1.920 . S
Zn189 O201 1.898 . S
Zn189 O204 1.905 . S
Zn190 O198 1.905 . S
Zn190 O199 1.898 . S
Zn190 O207 1.920 . S
Zn191 O194 2.080 . S
Zn191 O197 2.114 . S
Zn191 O200 2.120 . S
Zn191 O202 2.120 . S
Zn191 O203 2.114 . S
Zn191 O206 2.080 . S
C192 O197 1.166 . S
C192 O198 1.182 . S
C193 O199 1.167 . S
C193 O200 1.299 . S
O194 Zn191 2.080 . S
O194 C208 1.305 . S
O195 Zn189 1.920 . S
O195 C208 1.234 . S
C196 O201 1.167 . S
C196 O202 1.299 . S
O197 Zn191 2.114 . S
O197 C192 1.166 . S
O198 Zn190 1.905 . S
O198 C192 1.182 . S
O199 Zn190 1.898 . S
O199 C193 1.167 . S
O200 Zn191 2.120 . S
O200 C193 1.299 . S
O201 Zn189 1.898 . S
O201 C196 1.167 . S
O202 Zn191 2.120 . S
O202 C196 1.299 . S
O203 Zn191 2.114 . S
O203 C205 1.166 . S
O204 Zn189 1.905 . S
O204 C205 1.182 . S
C205 O203 1.166 . S
C205 O204 1.182 . S
O206 Zn191 2.080 . S
O206 C209 1.305 . S
O207 Zn190 1.920 . S
O207 C209 1.234 . S
C208 O194 1.305 . S
C208 O195 1.234 . S
C209 O206 1.305 . S
C209 O207 1.234 . S
Zn210 O216 1.920 . S
Zn210 O222 1.898 . S
Zn210 O225 1.905 . S
Zn211 O219 1.905 . S
Zn211 O220 1.898 . S
Zn211 O228 1.920 . S
Zn212 O215 2.080 . S
Zn212 O218 2.114 . S
Zn212 O221 2.120 . S
Zn212 O223 2.120 . S
Zn212 O224 2.114 . S
Zn212 O227 2.080 . S
C213 O218 1.166 . S
C213 O219 1.182 . S
C214 O220 1.167 . S
C214 O221 1.299 . S
O215 Zn212 2.080 . S
O215 C229 1.305 . S
O216 Zn210 1.920 . S
O216 C229 1.234 . S
C217 O222 1.167 . S
C217 O223 1.299 . S
O218 Zn212 2.114 . S
O218 C213 1.166 . S
O219 Zn211 1.905 . S
O219 C213 1.182 . S
O220 Zn211 1.898 . S
O220 C214 1.167 . S
O221 Zn212 2.120 . S
O221 C214 1.299 . S
O222 Zn210 1.898 . S
O222 C217 1.167 . S
O223 Zn212 2.120 . S
O223 C217 1.299 . S
O224 Zn212 2.114 . S
O224 C226 1.166 . S
O225 Zn210 1.905 . S
O225 C226 1.182 . S
C226 O224 1.166 . S
C226 O225 1.182 . S
O227 Zn212 2.080 . S
O227 C230 1.305 . S
O228 Zn211 1.920 . S
O228 C230 1.234 . S
C229 O215 1.305 . S
C229 O216 1.234 . S
C230 O227 1.305 . S
C230 O228 1.234 . S
Zn231 O237 1.920 . S
Zn231 O243 1.898 . S
Zn231 O246 1.905 . S
Zn232 O240 1.905 . S
Zn232 O241 1.898 . S
Zn232 O249 1.920 . S
Zn233 O236 2.080 . S
Zn233 O239 2.114 . S
Zn233 O242 2.120 . S
Zn233 O244 2.120 . S
Zn233 O245 2.114 . S
Zn233 O248 2.080 . S
C234 O239 1.166 . S
C234 O240 1.182 . S
C235 O241 1.167 . S
C235 O242 1.299 . S
O236 Zn233 2.080 . S
O236 C250 1.305 . S
O237 Zn231 1.920 . S
O237 C250 1.234 . S
C238 O243 1.167 . S
C238 O244 1.299 . S
O239 Zn233 2.114 . S
O239 C234 1.166 . S
O240 Zn232 1.905 . S
O240 C234 1.182 . S
O241 Zn232 1.898 . S
O241 C235 1.167 . S
O242 Zn233 2.120 . S
O242 C235 1.299 . S
O243 Zn231 1.898 . S
O243 C238 1.167 . S
O244 Zn233 2.120 . S
O244 C238 1.299 . S
O245 Zn233 2.114 . S
O245 C247 1.166 . S
O246 Zn231 1.905 . S
O246 C247 1.182 . S
C247 O245 1.166 . S
C247 O246 1.182 . S
O248 Zn233 2.080 . S
O248 C251 1.305 . S
O249 Zn232 1.920 . S
O249 C251 1.234 . S
C250 O236 1.305 . S
C250 O237 1.234 . S
C251 O248 1.305 . S
C251 O249 1.234 . S
Zn252 O258 1.920 . S
Zn252 O264 1.898 . S
Zn252 O267 1.905 . S
Zn253 O261 1.905 . S
Zn253 O262 1.898 . S
Zn253 O270 1.920 . S
Zn254 O257 2.080 . S
Zn254 O260 2.114 . S
Zn254 O263 2.120 . S
Zn254 O265 2.120 . S
Zn254 O266 2.114 . S
Zn254 O269 2.080 . S
C255 O260 1.166 . S
C255 O261 1.182 . S
C256 O262 1.167 . S
C256 O263 1.299 . S
O257 Zn254 2.080 . S
O257 C271 1.305 . S
O258 Zn252 1.920 . S
O258 C271 1.234 . S
C259 O264 1.167 . S
C259 O265 1.299 . S
O260 Zn254 2.114 . S
O260 C255 1.166 . S
O261 Zn253 1.905 . S
O261 C255 1.182 . S
O262 Zn253 1.898 . S
O262 C256 1.167 . S
O263 Zn254 2.120 . S
O263 C256 1.299 . S
O264 Zn252 1.898 . S
O264 C259 1.167 . S
O265 Zn254 2.120 . S
O265 C259 1.299 . S
O266 Zn254 2.114 . S
O266 C268 1.166 . S
O267 Zn252 1.905 . S
O267 C268 1.182 . S
C268 O266 1.166 . S
C268 O267 1.182 . S
O269 Zn254 2.080 . S
O269 C272 1.305 . S
O270 Zn253 1.920 . S
O270 C272 1.234 . S
C271 O257 1.305 . S
C271 O258 1.234 . S
C272 O269 1.305 . S
C272 O270 1.234 . S
Zn273 O279 1.920 . S
Zn273 O285 1.898 . S
Zn273 O288 1.905 . S
Zn274 O282 1.905 . S
Zn274 O283 1.898 . S
Zn274 O291 1.920 . S
Zn275 O278 2.080 . S
Zn275 O281 2.114 . S
Zn275 O284 2.120 . S
Zn275 O286 2.120 . S
Zn275 O287 2.114 . S
Zn275 O290 2.080 . S
C276 O281 1.166 . S
C276 O282 1.182 . S
C277 O283 1.167 . S
C277 O284 1.299 . S
O278 Zn275 2.080 . S
O278 C292 1.305 . S
O279 Zn273 1.920 . S
O279 C292 1.234 . S
C280 O285 1.167 . S
C280 O286 1.299 . S
O281 Zn275 2.114 . S
O281 C276 1.166 . S
O282 Zn274 1.905 . S
O282 C276 1.182 . S
O283 Zn274 1.898 . S
O283 C277 1.167 . S
O284 Zn275 2.120 . S
O284 C277 1.299 . S
O285 Zn273 1.898 . S
O285 C280 1.167 . S
O286 Zn275 2.120 . S
O286 C280 1.299 . S
O287 Zn275 2.114 . S
O287 C289 1.166 . S
O288 Zn273 1.905 . S
O288 C289 1.182 . S
C289 O287 1.166 . S
C289 O288 1.182 . S
O290 Zn275 2.080 . S
O290 C293 1.305 . S
O291 Zn274 1.920 . S
O291 C293 1.234 . S
C292 O278 1.305 . S
C292 O279 1.234 . S
C293 O290 1.305 . S
C293 O291 1.234 . S
Zn294 O300 1.920 . S
Zn294 O306 1.898 . S
Zn294 O309 1.905 . S
Zn295 O303 1.905 . S
Zn295 O304 1.898 . S
Zn295 O312 1.920 . S
Zn296 O299 2.080 . S
Zn296 O302 2.114 . S
Zn296 O305 2.120 . S
Zn296 O307 2.120 . S
Zn296 O308 2.114 . S
Zn296 O311 2.080 . S
C297 O302 1.166 . S
C297 O303 1.182 . S
C298 O304 1.167 . S
C298 O305 1.299 . S
O299 Zn296 2.080 . S
O299 C313 1.305 . S
O300 Zn294 1.920 . S
O300 C313 1.234 . S
C301 O306 1.167 . S
C301 O307 1.299 . S
O302 Zn296 2.114 . S
O302 C297 1.166 . S
O303 Zn295 1.905 . S
O303 C297 1.182 . S
O304 Zn295 1.898 . S
O304 C298 1.167 . S
O305 Zn296 2.120 . S
O305 C298 1.299 . S
O306 Zn294 1.898 . S
O306 C301 1.167 . S
O307 Zn296 2.120 . S
O307 C301 1.299 . S
O308 Zn296 2.114 . S
O308 C310 1.166 . S
O309 Zn294 1.905 . S
O309 C310 1.182 . S
C310 O308 1.166 . S
C310 O309 1.182 . S
O311 Zn296 2.080 . S
O311 C314 1.305 . S
O312 Zn295 1.920 . S
O312 C314 1.234 . S
C313 O299 1.305 . S
C313 O300 1.234 . S
C314 O311 1.305 . S
C314 O312 1.234 . S
Zn315 O321 1.920 . S
Zn315 O327 1.898 . S
Zn315 O330 1.905 . S
Zn316 O324 1.905 . S
Zn316 O325 1.898 . S
Zn316 O333 1.920 . S
Zn317 O320 2.080 . S
Zn317 O323 2.114 . S
Zn317 O326 2.120 . S
Zn317 O328 2.120 . S
Zn317 O329 2.114 . S
Zn317 O332 2.080 . S
C318 O323 1.166 . S
C318 O324 1.182 . S
C319 O325 1.167 . S
C319 O326 1.299 . S
O320 Zn317 2.080 . S
O320 C334 1.305 . S
O321 Zn315 1.920 . S
O321 C334 1.234 . S
C322 O327 1.167 . S
C322 O328 1.299 . S
O323 Zn317 2.114 . S
O323 C318 1.166 . S
O324 Zn316 1.905 . S
O324 C318 1.182 . S
O325 Zn316 1.898 . S
O325 C319 1.167 . S
O326 Zn317 2.120 . S
O326 C319 1.299 . S
O327 Zn315 1.898 . S
O327 C322 1.167 . S
O328 Zn317 2.120 . S
O328 C322 1.299 . S
O329 Zn317 2.114 . S
O329 C331 1.166 . S
O330 Zn315 1.905 . S
O330 C331 1.182 . S
C331 O329 1.166 . S
C331 O330 1.182 . S
O332 Zn317 2.080 . S
O332 C335 1.305 . S
O333 Zn316 1.920 . S
O333 C335 1.234 . S
C334 O320 1.305 . S
C334 O321 1.234 . S
C335 O332 1.305 . S
C335 O333 1.234 . S
Zn336 O342 1.920 . S
Zn336 O348 1.898 . S
Zn336 O351 1.905 . S
Zn337 O345 1.905 . S
Zn337 O346 1.898 . S
Zn337 O354 1.920 . S
Zn338 O341 2.080 . S
Zn338 O344 2.114 . S
Zn338 O347 2.120 . S
Zn338 O349 2.120 . S
Zn338 O350 2.114 . S
Zn338 O353 2.080 . S
C339 O344 1.166 . S
C339 O345 1.182 . S
C340 O346 1.167 . S
C340 O347 1.299 . S
O341 Zn338 2.080 . S
O341 C355 1.305 . S
O342 Zn336 1.920 . S
O342 C355 1.234 . S
C343 O348 1.167 . S
C343 O349 1.299 . S
O344 Zn338 2.114 . S
O344 C339 1.166 . S
O345 Zn337 1.905 . S
O345 C339 1.182 . S
O346 Zn337 1.898 . S
O346 C340 1.167 . S
O347 Zn338 2.120 . S
O347 C340 1.299 . S
O348 Zn336 1.898 . S
O348 C343 1.167 . S
O349 Zn338 2.120 . S
O349 C343 1.299 . S
O350 Zn338 2.114 . S
O350 C352 1.166 . S
O351 Zn336 1.905 . S
O351 C352 1.182 . S
C352 O350 1.166 . S
C352 O351 1.182 . S
O353 Zn338 2.080 . S
O353 C356 1.305 . S
O354 Zn337 1.920 . S
O354 C356 1.234 . S
C355 O341 1.305 . S
C355 O342 1.234 . S
C356 O353 1.305 . S
C356 O354 1.234 . S
Zn357 O363 1.920 . S
Zn357 O369 1.898 . S
Zn357 O372 1.905 . S
Zn358 O366 1.905 . S
Zn358 O367 1.898 . S
Zn358 O375 1.920 . S
Zn359 O362 2.080 . S
Zn359 O365 2.114 . S
Zn359 O368 2.120 . S
Zn359 O370 2.120 . S
Zn359 O371 2.114 . S
Zn359 O374 2.080 . S
C360 O365 1.166 . S
C360 O366 1.182 . S
C361 O367 1.167 . S
C361 O368 1.299 . S
O362 Zn359 2.080 . S
O362 C376 1.305 . S
O363 Zn357 1.920 . S
O363 C376 1.234 . S
C364 O369 1.167 . S
C364 O370 1.299 . S
O365 Zn359 2.114 . S
O365 C360 1.166 . S
O366 Zn358 1.905 . S
O366 C360 1.182 . S
O367 Zn358 1.898 . S
O367 C361 1.167 . S
O368 Zn359 2.120 . S
O368 C361 1.299 . S
O369 Zn357 1.898 . S
O369 C364 1.167 . S
O370 Zn359 2.120 . S
O370 C364 1.299 . S
O371 Zn359 2.114 . S
O371 C373 1.166 . S
O372 Zn357 1.905 . S
O372 C373 1.182 . S
C373 O371 1.166 . S
C373 O372 1.182 . S
O374 Zn359 2.080 . S
O374 C377 1.305 . S
O375 Zn358 1.920 . S
O375 C377 1.234 . S
C376 O362 1.305 . S
C376 O363 1.234 . S
C377 O374 1.305 . S
C377 O375 1.234 . S
Zn378 O384 1.920 . S
Zn378 O390 1.898 . S
Zn378 O393 1.905 . S
Zn379 O387 1.905 . S
Zn379 O388 1.898 . S
Zn379 O396 1.920 . S
Zn380 O383 2.080 . S
Zn380 O386 2.114 . S
Zn380 O389 2.120 . S
Zn380 O391 2.120 . S
Zn380 O392 2.114 . S
Zn380 O395 2.080 . S
C381 O386 1.166 . S
C381 O387 1.182 . S
C382 O388 1.167 . S
C382 O389 1.299 . S
O383 Zn380 2.080 . S
O383 C397 1.305 . S
O384 Zn378 1.920 . S
O384 C397 1.234 . S
C385 O390 1.167 . S
C385 O391 1.299 . S
O386 Zn380 2.114 . S
O386 C381 1.166 . S
O387 Zn379 1.905 . S
O387 C381 1.182 . S
O388 Zn379 1.898 . S
O388 C382 1.167 . S
O389 Zn380 2.120 . S
O389 C382 1.299 . S
O390 Zn378 1.898 . S
O390 C385 1.167 . S
O391 Zn380 2.120 . S
O391 C385 1.299 . S
O392 Zn380 2.114 . S
O392 C394 1.166 . S
O393 Zn378 1.905 . S
O393 C394 1.182 . S
C394 O392 1.166 . S
C394 O393 1.182 . S
O395 Zn380 2.080 . S
O395 C398 1.305 . S
O396 Zn379 1.920 . S
O396 C398 1.234 . S
C397 O383 1.305 . S
C397 O384 1.234 . S
C398 O395 1.305 . S
C398 O396 1.234 . S
Zn399 O405 1.920 . S
Zn399 O411 1.898 . S
Zn399 O414 1.905 . S
Zn400 O408 1.905 . S
Zn400 O409 1.898 . S
Zn400 O417 1.920 . S
Zn401 O404 2.080 . S
Zn401 O407 2.114 . S
Zn401 O410 2.120 . S
Zn401 O412 2.120 . S
Zn401 O413 2.114 . S
Zn401 O416 2.080 . S
C402 O407 1.166 . S
C402 O408 1.182 . S
C403 O409 1.167 . S
C403 O410 1.299 . S
O404 Zn401 2.080 . S
O404 C418 1.305 . S
O405 Zn399 1.920 . S
O405 C418 1.234 . S
C406 O411 1.167 . S
C406 O412 1.299 . S
O407 Zn401 2.114 . S
O407 C402 1.166 . S
O408 Zn400 1.905 . S
O408 C402 1.182 . S
O409 Zn400 1.898 . S
O409 C403 1.167 . S
O410 Zn401 2.120 . S
O410 C403 1.299 . S
O411 Zn399 1.898 . S
O411 C406 1.167 . S
O412 Zn401 2.120 . S
O412 C406 1.299 . S
O413 Zn401 2.114 . S
O413 C415 1.166 . S
O414 Zn399 1.905 . S
O414 C415 1.182 . S
C415 O413 1.166 . S
C415 O414 1.182 . S
O416 Zn401 2.080 . S
O416 C419 1.305 . S
O417 Zn400 1.920 . S
O417 C419 1.234 . S
C418 O404 1.305 . S
C418 O405 1.234 . S
C419 O416 1.305 . S
C419 O417 1.234 . S
Zn420 O426 1.920 . S
Zn420 O432 1.898 . S
Zn420 O435 1.905 . S
Zn421 O429 1.905 . S
Zn421 O430 1.898 . S
Zn421 O438 1.920 . S
Zn422 O425 2.080 . S
Zn422 O428 2.114 . S
Zn422 O431 2.120 . S
Zn422 O433 2.120 . S
Zn422 O434 2.114 . S
Zn422 O437 2.080 . S
C423 O428 1.166 . S
C423 O429 1.182 . S
C424 O430 1.167 . S
C424 O431 1.299 . S
O425 Zn422 2.080 . S
O425 C439 1.305 . S
O426 Zn420 1.920 . S
O426 C439 1.234 . S
C427 O432 1.167 . S
C427 O433 1.299 . S
O428 Zn422 2.114 . S
O428 C423 1.166 . S
O429 Zn421 1.905 . S
O429 C423 1.182 . S
O430 Zn421 1.898 . S
O430 C424 1.167 . S
O431 Zn422 2.120 . S
O431 C424 1.299 . S
O432 Zn420 1.898 . S
O432 C427 1.167 . S
O433 Zn422 2.120 . S
O433 C427 1.299 . S
O434 Zn422 2.114 . S
O434 C436 1.166 . S
O435 Zn420 1.905 . S
O435 C436 1.182 . S
C436 O434 1.166 . S
C436 O435 1.182 . S
O437 Zn422 2.080 . S
O437 C440 1.305 . S
O438 Zn421 1.920 . S
O438 C440 1.234 . S
C439 O425 1.305 . S
C439 O426 1.234 . S
C440 O437 1.305 . S
C440 O438 1.234 . S
Zn441 O447 1.920 . S
Zn441 O453 1.898 . S
Zn441 O456 1.905 . S
Zn442 O450 1.905 . S
Zn442 O451 1.898 . S
Zn442 O459 1.920 . S
Zn443 O446 2.080 . S
Zn443 O449 2.114 . S
Zn443 O452 2.120 . S
Zn443 O454 2.120 . S
Zn443 O455 2.114 . S
Zn443 O458 2.080 . S
C444 O449 1.166 . S
C444 O450 1.182 . S
C445 O451 1.167 . S
C445 O452 1.299 . S
O446 Zn443 2.080 . S
O446 C460 1.305 . S
O447 Zn441 1.920 . S
O447 C460 1.234 . S
C448 O453 1.167 . S
C448 O454 1.299 . S
O449 Zn443 2.114 . S
O449 C444 1.166 . S
O450 Zn442 1.905 . S
O450 C444 1.182 . S
O451 Zn442 1.898 . S
O451 C445 1.167 . S
O452 Zn443 2.120 . S
O452 C445 1.299 . S
O453 Zn441 1.898 . S
O453 C448 1.167 . S
O454 Zn443 2.120 . S
O454 C448 1.299 . S
O455 Zn443 2.114 . S
O455 C457 1.166 . S
O456 Zn441 1.905 . S
O456 C457 1.182 . S
C457 O455 1.166 . S
C457 O456 1.182 . S
O458 Zn443 2.080 . S
O458 C461 1.305 . S
O459 Zn442 1.920 . S
O459 C461 1.234 . S
C460 O446 1.305 . S
C460 O447 1.234 . S
C461 O458 1.305 . S
C461 O459 1.234 . S
Zn462 O468 1.920 . S
Zn462 O474 1.898 . S
Zn462 O477 1.905 . S
Zn463 O471 1.905 . S
Zn463 O472 1.898 . S
Zn463 O480 1.920 . S
Zn464 O467 2.080 . S
Zn464 O470 2.114 . S
Zn464 O473 2.120 . S
Zn464 O475 2.120 . S
Zn464 O476 2.114 . S
Zn464 O479 2.080 . S
C465 O470 1.166 . S
C465 O471 1.182 . S
C466 O472 1.167 . S
C466 O473 1.299 . S
O467 Zn464 2.080 . S
O467 C481 1.305 . S
O468 Zn462 1.920 . S
O468 C481 1.234 . S
C469 O474 1.167 . S
C469 O475 1.299 . S
O470 Zn464 2.114 . S
O470 C465 1.166 . S
O471 Zn463 1.905 . S
O471 C465 1.182 . S
O472 Zn463 1.898 . S
O472 C466 1.167 . S
O473 Zn464 2.120 . S
O473 C466 1.299 . S
O474 Zn462 1.898 . S
O474 C469 1.167 . S
O475 Zn464 2.120 . S
O475 C469 1.299 . S
O476 Zn464 2.114 . S
O476 C478 1.166 . S
O477 Zn462 1.905 . S
O477 C478 1.182 . S
C478 O476 1.166 . S
C478 O477 1.182 . S
O479 Zn464 2.080 . S
O479 C482 1.305 . S
O480 Zn463 1.920 . S
O480 C482 1.234 . S
C481 O467 1.305 . S
C481 O468 1.234 . S
C482 O479 1.305 . S
C482 O480 1.234 . S
Zn483 O489 1.920 . S
Zn483 O495 1.898 . S
Zn483 O498 1.905 . S
Zn484 O492 1.905 . S
Zn484 O493 1.898 . S
Zn484 O501 1.920 . S
Zn485 O488 2.080 . S
Zn485 O491 2.114 . S
Zn485 O494 2.120 . S
Zn485 O496 2.120 . S
Zn485 O497 2.114 . S
Zn485 O500 2.080 . S
C486 O491 1.166 . S
C486 O492 1.182 . S
C487 O493 1.167 . S
C487 O494 1.299 . S
O488 Zn485 2.080 . S
O488 C502 1.305 . S
O489 Zn483 1.920 . S
O489 C502 1.234 . S
C490 O495 1.167 . S
C490 O496 1.299 . S
O491 Zn485 2.114 . S
O491 C486 1.166 . S
O492 Zn484 1.905 . S
O492 C486 1.182 . S
O493 Zn484 1.898 . S
O493 C487 1.167 . S
O494 Zn485 2.120 . S
O494 C487 1.299 . S
O495 Zn483 1.898 . S
O495 C490 1.167 . S
O496 Zn485 2.120 . S
O496 C490 1.299 . S
O497 Zn485 2.114 . S
O497 C499 1.166 . S
O498 Zn483 1.905 . S
O498 C499 1.182 . S
C499 O497 1.166 . S
C499 O498 1.182 . S
O500 Zn485 2.080 . S
O500 C503 1.305 . S
O501 Zn484 1.920 . S
O501 C503 1.234 . S
C502 O488 1.305 . S
C502 O489 1.234 . S
C503 O500 1.305 . S
C503 O501 1.234 . S
C504 C505 1.369 . S
C504 C506 1.419 . S
C504 H508 0.930 . S
C505 C504 1.369 . S
C505 C514 1.429 . S
C506 C504 1.419 . S
C506 C507 1.363 . S
C506 H509 0.929 . S
C507 C506 1.363 . S
C507 C513 1.428 . S
H508 C504 0.930 . S
H509 C506 0.929 . S
S510 N511 1.613 . S
S510 N512 1.610 . S
N511 S510 1.613 . S
N511 C514 1.350 . S
N512 S510 1.610 . S
N512 C513 1.351 . S
C513 C507 1.428 . S
C513 N512 1.351 . S
C513 C514 1.434 . S
C514 C505 1.429 . S
C514 N511 1.350 . S
C514 C513 1.434 . S
C515 C516 1.369 . S
C515 C517 1.419 . S
C515 H519 0.930 . S
C516 C515 1.369 . S
C516 C525 1.429 . S
C517 C515 1.419 . S
C517 C518 1.363 . S
C517 H520 0.929 . S
C518 C517 1.363 . S
C518 C524 1.428 . S
H519 C515 0.930 . S
H520 C517 0.929 . S
S521 N522 1.613 . S
S521 N523 1.610 . S
N522 S521 1.613 . S
N522 C525 1.350 . S
N523 S521 1.610 . S
N523 C524 1.351 . S
C524 C518 1.428 . S
C524 N523 1.351 . S
C524 C525 1.434 . S
C525 C516 1.429 . S
C525 N522 1.350 . S
C525 C524 1.434 . S
C526 C527 1.369 . S
C526 C528 1.419 . S
C526 H530 0.930 . S
C527 C526 1.369 . S
C527 C536 1.429 . S
C528 C526 1.419 . S
C528 C529 1.363 . S
C528 H531 0.929 . S
C529 C528 1.363 . S
C529 C535 1.428 . S
H530 C526 0.930 . S
H531 C528 0.929 . S
S532 N533 1.613 . S
S532 N534 1.610 . S
N533 S532 1.613 . S
N533 C536 1.350 . S
N534 S532 1.610 . S
N534 C535 1.351 . S
C535 C529 1.428 . S
C535 N534 1.351 . S
C535 C536 1.434 . S
C536 C527 1.429 . S
C536 N533 1.350 . S
C536 C535 1.434 . S
C537 C538 1.369 . S
C537 C539 1.419 . S
C537 H541 0.930 . S
C538 C537 1.369 . S
C538 C547 1.429 . S
C539 C537 1.419 . S
C539 C540 1.363 . S
C539 H542 0.929 . S
C540 C539 1.363 . S
C540 C546 1.428 . S
H541 C537 0.930 . S
H542 C539 0.929 . S
S543 N544 1.613 . S
S543 N545 1.610 . S
N544 S543 1.613 . S
N544 C547 1.350 . S
N545 S543 1.610 . S
N545 C546 1.351 . S
C546 C540 1.428 . S
C546 N545 1.351 . S
C546 C547 1.434 . S
C547 C538 1.429 . S
C547 N544 1.350 . S
C547 C546 1.434 . S
C548 C549 1.369 . S
C548 C550 1.419 . S
C548 H552 0.930 . S
C549 C548 1.369 . S
C549 C558 1.429 . S
C550 C548 1.419 . S
C550 C551 1.363 . S
C550 H553 0.929 . S
C551 C550 1.363 . S
C551 C557 1.428 . S
H552 C548 0.930 . S
H553 C550 0.929 . S
S554 N555 1.613 . S
S554 N556 1.610 . S
N555 S554 1.613 . S
N555 C558 1.350 . S
N556 S554 1.610 . S
N556 C557 1.351 . S
C557 C551 1.428 . S
C557 N556 1.351 . S
C557 C558 1.434 . S
C558 C549 1.429 . S
C558 N555 1.350 . S
C558 C557 1.434 . S
C559 C560 1.369 . S
C559 C561 1.419 . S
C559 H563 0.930 . S
C560 C559 1.369 . S
C560 C569 1.429 . S
C561 C559 1.419 . S
C561 C562 1.363 . S
C561 H564 0.929 . S
C562 C561 1.363 . S
C562 C568 1.428 . S
H563 C559 0.930 . S
H564 C561 0.929 . S
S565 N566 1.613 . S
S565 N567 1.610 . S
N566 S565 1.613 . S
N566 C569 1.350 . S
N567 S565 1.610 . S
N567 C568 1.351 . S
C568 C562 1.428 . S
C568 N567 1.351 . S
C568 C569 1.434 . S
C569 C560 1.429 . S
C569 N566 1.350 . S
C569 C568 1.434 . S
C570 C571 1.369 . S
C570 C572 1.419 . S
C570 H574 0.930 . S
C571 C570 1.369 . S
C571 C580 1.429 . S
C572 C570 1.419 . S
C572 C573 1.363 . S
C572 H575 0.929 . S
C573 C572 1.363 . S
C573 C579 1.428 . S
H574 C570 0.930 . S
H575 C572 0.929 . S
S576 N577 1.613 . S
S576 N578 1.610 . S
N577 S576 1.613 . S
N577 C580 1.350 . S
N578 S576 1.610 . S
N578 C579 1.351 . S
C579 C573 1.428 . S
C579 N578 1.351 . S
C579 C580 1.434 . S
C580 C571 1.429 . S
C580 N577 1.350 . S
C580 C579 1.434 . S
C581 C582 1.369 . S
C581 C583 1.419 . S
C581 H585 0.930 . S
C582 C581 1.369 . S
C582 C591 1.429 . S
C583 C581 1.419 . S
C583 C584 1.363 . S
C583 H586 0.929 . S
C584 C583 1.363 . S
C584 C590 1.428 . S
H585 C581 0.930 . S
H586 C583 0.929 . S
S587 N588 1.613 . S
S587 N589 1.610 . S
N588 S587 1.613 . S
N588 C591 1.350 . S
N589 S587 1.610 . S
N589 C590 1.351 . S
C590 C584 1.428 . S
C590 N589 1.351 . S
C590 C591 1.434 . S
C591 C582 1.429 . S
C591 N588 1.350 . S
C591 C590 1.434 . S
C592 C593 1.369 . S
C592 C594 1.419 . S
C592 H596 0.930 . S
C593 C592 1.369 . S
C593 C602 1.429 . S
C594 C592 1.419 . S
C594 C595 1.363 . S
C594 H597 0.929 . S
C595 C594 1.363 . S
C595 C601 1.428 . S
H596 C592 0.930 . S
H597 C594 0.929 . S
S598 N599 1.613 . S
S598 N600 1.610 . S
N599 S598 1.613 . S
N599 C602 1.350 . S
N600 S598 1.610 . S
N600 C601 1.351 . S
C601 C595 1.428 . S
C601 N600 1.351 . S
C601 C602 1.434 . S
C602 C593 1.429 . S
C602 N599 1.350 . S
C602 C601 1.434 . S
C603 C604 1.369 . S
C603 C605 1.419 . S
C603 H607 0.930 . S
C604 C603 1.369 . S
C604 C613 1.429 . S
C605 C603 1.419 . S
C605 C606 1.363 . S
C605 H608 0.929 . S
C606 C605 1.363 . S
C606 C612 1.428 . S
H607 C603 0.930 . S
H608 C605 0.929 . S
S609 N610 1.613 . S
S609 N611 1.610 . S
N610 S609 1.613 . S
N610 C613 1.350 . S
N611 S609 1.610 . S
N611 C612 1.351 . S
C612 C606 1.428 . S
C612 N611 1.351 . S
C612 C613 1.434 . S
C613 C604 1.429 . S
C613 N610 1.350 . S
C613 C612 1.434 . S
C614 C615 1.369 . S
C614 C616 1.419 . S
C614 H618 0.930 . S
C615 C614 1.369 . S
C615 C624 1.429 . S
C616 C614 1.419 . S
C616 C617 1.363 . S
C616 H619 0.929 . S
C617 C616 1.363 . S
C617 C623 1.428 . S
H618 C614 0.930 . S
H619 C616 0.929 . S
S620 N621 1.613 . S
S620 N622 1.610 . S
N621 S620 1.613 . S
N621 C624 1.350 . S
N622 S620 1.610 . S
N622 C623 1.351 . S
C623 C617 1.428 . S
C623 N622 1.351 . S
C623 C624 1.434 . S
C624 C615 1.429 . S
C624 N621 1.350 . S
C624 C623 1.434 . S
C625 C626 1.369 . S
C625 C627 1.419 . S
C625 H629 0.930 . S
C626 C625 1.369 . S
C626 C635 1.429 . S
C627 C625 1.419 . S
C627 C628 1.363 . S
C627 H630 0.929 . S
C628 C627 1.363 . S
C628 C634 1.428 . S
H629 C625 0.930 . S
H630 C627 0.929 . S
S631 N632 1.613 . S
S631 N633 1.610 . S
N632 S631 1.613 . S
N632 C635 1.350 . S
N633 S631 1.610 . S
N633 C634 1.351 . S
C634 C628 1.428 . S
C634 N633 1.351 . S
C634 C635 1.434 . S
C635 C626 1.429 . S
C635 N632 1.350 . S
C635 C634 1.434 . S
C636 C637 1.369 . S
C636 C638 1.419 1_545 S
C636 H640 0.930 . S
C637 C636 1.369 . S
C637 C646 1.429 . S
C638 C636 1.419 1_565 S
C638 C639 1.363 . S
C638 H641 0.929 . S
C639 C638 1.363 . S
C639 C645 1.428 . S
H640 C636 0.930 . S
H641 C638 0.929 . S
S642 N643 1.613 1_565 S
S642 N644 1.610 . S
N643 S642 1.613 1_545 S
N643 C646 1.350 . S
N644 S642 1.610 . S
N644 C645 1.351 . S
C645 C639 1.428 . S
C645 N644 1.351 . S
C645 C646 1.434 1_565 S
C646 C637 1.429 . S
C646 N643 1.350 . S
C646 C645 1.434 1_545 S
C647 C648 1.369 . S
C647 C649 1.419 . S
C647 H651 0.930 . S
C648 C647 1.369 . S
C648 C657 1.429 . S
C649 C647 1.419 . S
C649 C650 1.363 . S
C649 H652 0.929 . S
C650 C649 1.363 . S
C650 C656 1.428 . S
H651 C647 0.930 . S
H652 C649 0.929 . S
S653 N654 1.613 . S
S653 N655 1.610 . S
N654 S653 1.613 . S
N654 C657 1.350 . S
N655 S653 1.610 . S
N655 C656 1.351 . S
C656 C650 1.428 . S
C656 N655 1.351 . S
C656 C657 1.434 . S
C657 C648 1.429 . S
C657 N654 1.350 . S
C657 C656 1.434 . S
C658 C659 1.383 . S
C658 C660 1.413 1_655 S
C658 H662 0.923 . S
C659 C658 1.383 . S
C659 C668 1.429 . S
C660 C658 1.413 1_455 S
C660 C661 1.363 . S
C660 H663 0.929 . S
C661 C660 1.363 . S
C661 C667 1.430 . S
H662 C658 0.923 . S
H663 C660 0.929 . S
S664 N665 1.613 . S
S664 N666 1.610 . S
N665 S664 1.613 . S
N665 C668 1.350 . S
N666 S664 1.610 . S
N666 C667 1.350 1_655 S
C667 C661 1.430 . S
C667 N666 1.350 1_455 S
C667 C668 1.433 1_455 S
C668 C659 1.429 . S
C668 N665 1.350 . S
C668 C667 1.433 1_655 S
C669 C670 1.369 . S
C669 C671 1.419 1_655 S
C669 H673 0.930 . S
C670 C669 1.369 . S
C670 C679 1.429 . S
C671 C669 1.419 1_455 S
C671 C672 1.363 . S
C671 H674 0.929 . S
C672 C671 1.363 . S
C672 C678 1.428 . S
H673 C669 0.930 . S
H674 C671 0.929 . S
S675 N676 1.613 1_455 S
S675 N677 1.610 . S
N676 S675 1.613 1_655 S
N676 C679 1.350 . S
N677 S675 1.610 . S
N677 C678 1.351 . S
C678 C672 1.428 . S
C678 N677 1.351 . S
C678 C679 1.434 1_455 S
C679 C670 1.429 . S
C679 N676 1.350 . S
C679 C678 1.434 1_655 S
C680 C681 1.369 1_545 S
C680 C682 1.419 . S
C680 H684 0.930 . S
C681 C680 1.369 1_565 S
C681 C690 1.429 . S
C682 C680 1.419 . S
C682 C683 1.363 . S
C682 H685 0.929 . S
C683 C682 1.363 . S
C683 C689 1.428 1_545 S
H684 C680 0.930 . S
H685 C682 0.929 . S
S686 N687 1.613 . S
S686 N688 1.610 . S
N687 S686 1.613 . S
N687 C690 1.350 . S
N688 S686 1.610 . S
N688 C689 1.351 . S
C689 C683 1.428 1_565 S
C689 N688 1.351 . S
C689 C690 1.434 . S
C690 C681 1.429 . S
C690 N687 1.350 . S
C690 C689 1.434 . S
C691 C692 1.369 . S
C691 C693 1.419 . S
C691 H695 0.930 . S
C692 C691 1.369 . S
C692 C701 1.429 . S
C693 C691 1.419 . S
C693 C694 1.363 . S
C693 H696 0.929 . S
C694 C693 1.363 . S
C694 C700 1.428 . S
H695 C691 0.930 . S
H696 C693 0.929 . S
S697 N698 1.613 . S
S697 N699 1.610 . S
N698 S697 1.613 . S
N698 C701 1.350 . S
N699 S697 1.610 . S
N699 C700 1.351 . S
C700 C694 1.428 . S
C700 N699 1.351 . S
C700 C701 1.434 . S
C701 C692 1.429 . S
C701 N698 1.350 . S
C701 C700 1.434 . S
C702 C703 1.369 . S
C702 C704 1.419 . S
C702 H706 0.930 . S
C703 C702 1.369 . S
C703 C712 1.429 1_545 S
C704 C702 1.419 . S
C704 C705 1.363 1_545 S
C704 H707 0.929 . S
C705 C704 1.363 1_565 S
C705 C711 1.428 . S
H706 C702 0.930 . S
H707 C704 0.929 . S
S708 N709 1.613 . S
S708 N710 1.610 . S
N709 S708 1.613 . S
N709 C712 1.350 . S
N710 S708 1.610 . S
N710 C711 1.351 . S
C711 C705 1.428 . S
C711 N710 1.351 . S
C711 C712 1.434 . S
C712 C703 1.429 1_565 S
C712 N709 1.350 . S
C712 C711 1.434 . S
C713 C714 1.369 . S
C713 C715 1.419 . S
C713 H717 0.930 . S
C714 C713 1.369 . S
C714 C723 1.429 . S
C715 C713 1.419 . S
C715 C716 1.363 . S
C715 H718 0.929 . S
C716 C715 1.363 . S
C716 C722 1.428 . S
H717 C713 0.930 . S
H718 C715 0.929 . S
S719 N720 1.613 . S
S719 N721 1.610 . S
N720 S719 1.613 . S
N720 C723 1.350 . S
N721 S719 1.610 . S
N721 C722 1.351 . S
C722 C716 1.428 . S
C722 N721 1.351 . S
C722 C723 1.434 . S
C723 C714 1.429 . S
C723 N720 1.350 . S
C723 C722 1.434 . S
C724 C725 1.369 1_455 S
C724 C726 1.419 . S
C724 H728 0.930 . S
C725 C724 1.369 1_655 S
C725 C734 1.429 . S
C726 C724 1.419 . S
C726 C727 1.363 . S
C726 H729 0.929 . S
C727 C726 1.363 . S
C727 C733 1.428 1_455 S
H728 C724 0.930 . S
H729 C726 0.929 . S
S730 N731 1.613 . S
S730 N732 1.610 . S
N731 S730 1.613 . S
N731 C734 1.350 . S
N732 S730 1.610 . S
N732 C733 1.351 . S
C733 C727 1.428 1_655 S
C733 N732 1.351 . S
C733 C734 1.434 . S
C734 C725 1.429 . S
C734 N731 1.350 . S
C734 C733 1.434 . S
C735 C736 1.369 1_655 S
C735 C737 1.419 . S
C735 H739 0.930 . S
C736 C735 1.369 1_455 S
C736 C745 1.429 . S
C737 C735 1.419 . S
C737 C738 1.363 . S
C737 H740 0.929 . S
C738 C737 1.363 . S
C738 C744 1.428 1_655 S
H739 C735 0.930 . S
H740 C737 0.929 . S
S741 N742 1.613 . S
S741 N743 1.610 . S
N742 S741 1.613 . S
N742 C745 1.350 . S
N743 S741 1.610 . S
N743 C744 1.351 . S
C744 C738 1.428 1_455 S
C744 N743 1.351 . S
C744 C745 1.434 . S
C745 C736 1.429 . S
C745 N742 1.350 . S
C745 C744 1.434 . S
C746 C747 1.369 . S
C746 C748 1.419 1_545 S
C746 H750 0.930 . S
C747 C746 1.369 . S
C747 C756 1.429 . S
C748 C746 1.419 1_565 S
C748 C749 1.363 . S
C748 H751 0.929 . S
C749 C748 1.363 . S
C749 C755 1.428 . S
H750 C746 0.930 . S
H751 C748 0.929 . S
S752 N753 1.613 1_565 S
S752 N754 1.610 . S
N753 S752 1.613 1_545 S
N753 C756 1.350 . S
N754 S752 1.610 . S
N754 C755 1.351 . S
C755 C749 1.428 . S
C755 N754 1.351 . S
C755 C756 1.434 1_565 S
C756 C747 1.429 . S
C756 N753 1.350 . S
C756 C755 1.434 1_545 S
C757 C758 1.369 . S
C757 C759 1.419 . S
C757 H761 0.930 . S
C758 C757 1.369 . S
C758 C767 1.429 . S
C759 C757 1.419 . S
C759 C760 1.363 . S
C759 H762 0.929 . S
C760 C759 1.363 . S
C760 C766 1.428 . S
H761 C757 0.930 . S
H762 C759 0.929 . S
S763 N764 1.613 . S
S763 N765 1.610 . S
N764 S763 1.613 . S
N764 C767 1.350 . S
N765 S763 1.610 . S
N765 C766 1.351 . S
C766 C760 1.428 . S
C766 N765 1.351 . S
C766 C767 1.434 . S
C767 C758 1.429 . S
C767 N764 1.350 . S
C767 C766 1.434 . S
C768 C769 1.369 . S
C768 C770 1.419 . S
C768 H772 0.930 . S
C769 C768 1.369 . S
C769 C778 1.429 . S
C770 C768 1.419 . S
C770 C771 1.363 . S
C770 H773 0.929 . S
C771 C770 1.363 . S
C771 C777 1.428 . S
H772 C768 0.930 . S
H773 C770 0.929 . S
S774 N775 1.613 . S
S774 N776 1.610 . S
N775 S774 1.613 . S
N775 C778 1.350 . S
N776 S774 1.610 . S
N776 C777 1.351 . S
C777 C771 1.428 . S
C777 N776 1.351 . S
C777 C778 1.434 . S
C778 C769 1.429 . S
C778 N775 1.350 . S
C778 C777 1.434 . S
C779 C780 1.369 . S
C779 C781 1.419 . S
C779 H783 0.930 . S
C780 C779 1.369 . S
C780 C789 1.429 . S
C781 C779 1.419 . S
C781 C782 1.363 . S
C781 H784 0.929 . S
C782 C781 1.363 . S
C782 C788 1.428 . S
H783 C779 0.930 . S
H784 C781 0.929 . S
S785 N786 1.613 . S
S785 N787 1.610 . S
N786 S785 1.613 . S
N786 C789 1.350 . S
N787 S785 1.610 . S
N787 C788 1.351 . S
C788 C782 1.428 . S
C788 N787 1.351 . S
C788 C789 1.434 . S
C789 C780 1.429 . S
C789 N786 1.350 . S
C789 C788 1.434 . S
C790 C791 1.369 . S
C790 C792 1.419 . S
C790 H794 0.930 . S
C791 C790 1.369 . S
C791 C800 1.429 . S
C792 C790 1.419 . S
C792 C793 1.363 . S
C792 H795 0.929 . S
C793 C792 1.363 . S
C793 C799 1.428 . S
H794 C790 0.930 . S
H795 C792 0.929 . S
S796 N797 1.613 . S
S796 N798 1.610 . S
N797 S796 1.613 . S
N797 C800 1.350 . S
N798 S796 1.610 . S
N798 C799 1.351 . S
C799 C793 1.428 . S
C799 N798 1.351 . S
C799 C800 1.434 . S
C800 C791 1.429 . S
C800 N797 1.350 . S
C800 C799 1.434 . S
C801 C802 1.369 . S
C801 C803 1.419 . S
C801 H805 0.930 . S
C802 C801 1.369 . S
C802 C811 1.429 . S
C803 C801 1.419 . S
C803 C804 1.363 . S
C803 H806 0.929 . S
C804 C803 1.363 . S
C804 C810 1.428 . S
H805 C801 0.930 . S
H806 C803 0.929 . S
S807 N808 1.613 . S
S807 N809 1.610 . S
N808 S807 1.613 . S
N808 C811 1.350 . S
N809 S807 1.610 . S
N809 C810 1.351 . S
C810 C804 1.428 . S
C810 N809 1.351 . S
C810 C811 1.434 . S
C811 C802 1.429 . S
C811 N808 1.350 . S
C811 C810 1.434 . S
C812 C813 1.369 . S
C812 C814 1.419 . S
C812 H816 0.930 . S
C813 C812 1.369 . S
C813 C822 1.429 . S
C814 C812 1.419 . S
C814 C815 1.363 . S
C814 H817 0.929 . S
C815 C814 1.363 . S
C815 C821 1.428 . S
H816 C812 0.930 . S
H817 C814 0.929 . S
S818 N819 1.613 . S
S818 N820 1.610 . S
N819 S818 1.613 . S
N819 C822 1.350 . S
N820 S818 1.610 . S
N820 C821 1.351 . S
C821 C815 1.428 . S
C821 N820 1.351 . S
C821 C822 1.434 . S
C822 C813 1.429 . S
C822 N819 1.350 . S
C822 C821 1.434 . S
C823 C824 1.369 . S
C823 C825 1.419 . S
C823 H827 0.930 . S
C824 C823 1.369 . S
C824 C833 1.429 . S
C825 C823 1.419 . S
C825 C826 1.363 . S
C825 H828 0.929 . S
C826 C825 1.363 . S
C826 C832 1.428 . S
H827 C823 0.930 . S
H828 C825 0.929 . S
S829 N830 1.613 . S
S829 N831 1.610 . S
N830 S829 1.613 . S
N830 C833 1.350 . S
N831 S829 1.610 . S
N831 C832 1.351 . S
C832 C826 1.428 . S
C832 N831 1.351 . S
C832 C833 1.434 . S
C833 C824 1.429 . S
C833 N830 1.350 . S
C833 C832 1.434 . S
C834 C835 1.369 . S
C834 C836 1.419 . S
C834 H838 0.930 . S
C835 C834 1.369 . S
C835 C844 1.429 . S
C836 C834 1.419 . S
C836 C837 1.363 . S
C836 H839 0.929 . S
C837 C836 1.363 . S
C837 C843 1.428 . S
H838 C834 0.930 . S
H839 C836 0.929 . S
S840 N841 1.613 . S
S840 N842 1.610 . S
N841 S840 1.613 . S
N841 C844 1.350 . S
N842 S840 1.610 . S
N842 C843 1.351 . S
C843 C837 1.428 . S
C843 N842 1.351 . S
C843 C844 1.434 . S
C844 C835 1.429 . S
C844 N841 1.350 . S
C844 C843 1.434 . S
C845 C846 1.369 . S
C845 C847 1.419 . S
C845 H849 0.930 . S
C846 C845 1.369 . S
C846 C855 1.429 . S
C847 C845 1.419 . S
C847 C848 1.363 . S
C847 H850 0.929 . S
C848 C847 1.363 . S
C848 C854 1.428 . S
H849 C845 0.930 . S
H850 C847 0.929 . S
S851 N852 1.613 . S
S851 N853 1.610 . S
N852 S851 1.613 . S
N852 C855 1.350 . S
N853 S851 1.610 . S
N853 C854 1.351 . S
C854 C848 1.428 . S
C854 N853 1.351 . S
C854 C855 1.434 . S
C855 C846 1.429 . S
C855 N852 1.350 . S
C855 C854 1.434 . S
C856 C857 1.369 . S
C856 C858 1.419 . S
C856 H860 0.930 . S
C857 C856 1.369 . S
C857 C866 1.429 . S
C858 C856 1.419 . S
C858 C859 1.363 . S
C858 H861 0.929 . S
C859 C858 1.363 . S
C859 C865 1.428 . S
H860 C856 0.930 . S
H861 C858 0.929 . S
S862 N863 1.613 . S
S862 N864 1.610 . S
N863 S862 1.613 . S
N863 C866 1.350 . S
N864 S862 1.610 . S
N864 C865 1.351 . S
C865 C859 1.428 . S
C865 N864 1.351 . S
C865 C866 1.434 . S
C866 C857 1.429 . S
C866 N863 1.350 . S
C866 C865 1.434 . S
C867 C868 1.369 . S
C867 C869 1.419 . S
C867 H871 0.930 . S
C868 C867 1.369 . S
C868 C877 1.429 . S
C869 C867 1.419 . S
C869 C870 1.363 . S
C869 H872 0.929 . S
C870 C869 1.363 . S
C870 C876 1.428 . S
H871 C867 0.930 . S
H872 C869 0.929 . S
S873 N874 1.613 . S
S873 N875 1.610 . S
N874 S873 1.613 . S
N874 C877 1.350 . S
N875 S873 1.610 . S
N875 C876 1.351 . S
C876 C870 1.428 . S
C876 N875 1.351 . S
C876 C877 1.434 . S
C877 C868 1.429 . S
C877 N874 1.350 . S
C877 C876 1.434 . S
C878 C879 1.369 . S
C878 C880 1.419 . S
C878 H882 0.930 . S
C879 C878 1.369 . S
C879 C888 1.429 . S
C880 C878 1.419 . S
C880 C881 1.363 . S
C880 H883 0.929 . S
C881 C880 1.363 . S
C881 C887 1.428 . S
H882 C878 0.930 . S
H883 C880 0.929 . S
S884 N885 1.613 . S
S884 N886 1.610 . S
N885 S884 1.613 . S
N885 C888 1.350 . S
N886 S884 1.610 . S
N886 C887 1.351 . S
C887 C881 1.428 . S
C887 N886 1.351 . S
C887 C888 1.434 . S
C888 C879 1.429 . S
C888 N885 1.350 . S
C888 C887 1.434 . S
C889 C890 1.369 . S
C889 C891 1.419 . S
C889 H893 0.930 . S
C890 C889 1.369 . S
C890 C899 1.429 . S
C891 C889 1.419 . S
C891 C892 1.363 . S
C891 H894 0.929 . S
C892 C891 1.363 . S
C892 C898 1.428 . S
H893 C889 0.930 . S
H894 C891 0.929 . S
S895 N896 1.613 . S
S895 N897 1.610 . S
N896 S895 1.613 . S
N896 C899 1.350 . S
N897 S895 1.610 . S
N897 C898 1.351 . S
C898 C892 1.428 . S
C898 N897 1.351 . S
C898 C899 1.434 . S
C899 C890 1.429 . S
C899 N896 1.350 . S
C899 C898 1.434 . S
C900 C901 1.369 . S
C900 C902 1.419 . S
C900 H904 0.930 . S
C901 C900 1.369 . S
C901 C910 1.429 . S
C902 C900 1.419 . S
C902 C903 1.363 . S
C902 H905 0.929 . S
C903 C902 1.363 . S
C903 C909 1.428 . S
H904 C900 0.930 . S
H905 C902 0.929 . S
S906 N907 1.613 . S
S906 N908 1.610 . S
N907 S906 1.613 . S
N907 C910 1.350 . S
N908 S906 1.610 . S
N908 C909 1.351 . S
C909 C903 1.428 . S
C909 N908 1.351 . S
C909 C910 1.434 . S
C910 C901 1.429 . S
C910 N907 1.350 . S
C910 C909 1.434 . S
C911 C912 1.369 . S
C911 C913 1.419 . S
C911 H915 0.930 . S
C912 C911 1.369 . S
C912 C921 1.429 . S
C913 C911 1.419 . S
C913 C914 1.363 . S
C913 H916 0.929 . S
C914 C913 1.363 . S
C914 C920 1.428 . S
H915 C911 0.930 . S
H916 C913 0.929 . S
S917 N918 1.613 . S
S917 N919 1.610 . S
N918 S917 1.613 . S
N918 C921 1.350 . S
N919 S917 1.610 . S
N919 C920 1.351 . S
C920 C914 1.428 . S
C920 N919 1.351 . S
C920 C921 1.434 . S
C921 C912 1.429 . S
C921 N918 1.350 . S
C921 C920 1.434 . S
C922 C923 1.369 . S
C922 C924 1.419 . S
C922 H926 0.930 . S
C923 C922 1.369 . S
C923 C932 1.429 . S
C924 C922 1.419 . S
C924 C925 1.363 . S
C924 H927 0.929 . S
C925 C924 1.363 . S
C925 C931 1.428 . S
H926 C922 0.930 . S
H927 C924 0.929 . S
S928 N929 1.613 . S
S928 N930 1.610 . S
N929 S928 1.613 . S
N929 C932 1.350 . S
N930 S928 1.610 . S
N930 C931 1.351 . S
C931 C925 1.428 . S
C931 N930 1.351 . S
C931 C932 1.434 . S
C932 C923 1.429 . S
C932 N929 1.350 . S
C932 C931 1.434 . S
C933 C934 1.369 . S
C933 C935 1.419 . S
C933 H937 0.930 . S
C934 C933 1.369 . S
C934 C943 1.429 . S
C935 C933 1.419 . S
C935 C936 1.363 . S
C935 H938 0.929 . S
C936 C935 1.363 . S
C936 C942 1.428 . S
H937 C933 0.930 . S
H938 C935 0.929 . S
S939 N940 1.613 . S
S939 N941 1.610 . S
N940 S939 1.613 . S
N940 C943 1.350 . S
N941 S939 1.610 . S
N941 C942 1.351 . S
C942 C936 1.428 . S
C942 N941 1.351 . S
C942 C943 1.434 . S
C943 C934 1.429 . S
C943 N940 1.350 . S
C943 C942 1.434 . S
C944 C945 1.369 . S
C944 C946 1.419 . S
C944 H948 0.930 . S
C945 C944 1.369 . S
C945 C954 1.429 . S
C946 C944 1.419 . S
C946 C947 1.363 . S
C946 H949 0.929 . S
C947 C946 1.363 . S
C947 C953 1.428 . S
H948 C944 0.930 . S
H949 C946 0.929 . S
S950 N951 1.613 . S
S950 N952 1.610 . S
N951 S950 1.613 . S
N951 C954 1.350 . S
N952 S950 1.610 . S
N952 C953 1.351 . S
C953 C947 1.428 . S
C953 N952 1.351 . S
C953 C954 1.434 . S
C954 C945 1.429 . S
C954 N951 1.350 . S
C954 C953 1.434 . S
C955 C956 1.369 . S
C955 C957 1.419 . S
C955 H959 0.930 . S
C956 C955 1.369 . S
C956 C965 1.429 . S
C957 C955 1.419 . S
C957 C958 1.363 . S
C957 H960 0.929 . S
C958 C957 1.363 . S
C958 C964 1.428 . S
H959 C955 0.930 . S
H960 C957 0.929 . S
S961 N962 1.613 . S
S961 N963 1.610 . S
N962 S961 1.613 . S
N962 C965 1.350 . S
N963 S961 1.610 . S
N963 C964 1.351 . S
C964 C958 1.428 . S
C964 N963 1.351 . S
C964 C965 1.434 . S
C965 C956 1.429 . S
C965 N962 1.350 . S
C965 C964 1.434 . S
C966 C967 1.369 . S
C966 C968 1.419 . S
C966 H970 0.930 . S
C967 C966 1.369 . S
C967 C976 1.429 . S
C968 C966 1.419 . S
C968 C969 1.363 . S
C968 H971 0.929 . S
C969 C968 1.363 . S
C969 C975 1.428 . S
H970 C966 0.930 . S
H971 C968 0.929 . S
S972 N973 1.613 . S
S972 N974 1.610 . S
N973 S972 1.613 . S
N973 C976 1.350 . S
N974 S972 1.610 . S
N974 C975 1.351 . S
C975 C969 1.428 . S
C975 N974 1.351 . S
C975 C976 1.434 . S
C976 C967 1.429 . S
C976 N973 1.350 . S
C976 C975 1.434 . S
C977 C978 1.369 . S
C977 C979 1.419 . S
C977 H981 0.930 . S
C978 C977 1.369 . S
C978 C987 1.429 . S
C979 C977 1.419 . S
C979 C980 1.363 . S
C979 H982 0.929 . S
C980 C979 1.363 . S
C980 C986 1.428 . S
H981 C977 0.930 . S
H982 C979 0.929 . S
S983 N984 1.613 . S
S983 N985 1.610 . S
N984 S983 1.613 . S
N984 C987 1.350 . S
N985 S983 1.610 . S
N985 C986 1.351 . S
C986 C980 1.428 . S
C986 N985 1.351 . S
C986 C987 1.434 . S
C987 C978 1.429 . S
C987 N984 1.350 . S
C987 C986 1.434 . S
C988 C989 1.369 . S
C988 C990 1.419 . S
C988 H992 0.930 . S
C989 C988 1.369 . S
C989 C998 1.429 . S
C990 C988 1.419 . S
C990 C991 1.363 . S
C990 H993 0.929 . S
C991 C990 1.363 . S
C991 C997 1.428 . S
H992 C988 0.930 . S
H993 C990 0.929 . S
S994 N995 1.613 . S
S994 N996 1.610 . S
N995 S994 1.613 . S
N995 C998 1.350 . S
N996 S994 1.610 . S
N996 C997 1.351 . S
C997 C991 1.428 . S
C997 N996 1.351 . S
C997 C998 1.434 . S
C998 C989 1.429 . S
C998 N995 1.350 . S
C998 C997 1.434 . S
C999 C1000 1.369 . S
C999 C1001 1.419 . S
C999 H1003 0.930 . S
C1000 C999 1.369 . S
C1000 C1009 1.429 . S
C1001 C999 1.419 . S
C1001 C1002 1.363 . S
C1001 H1004 0.929 . S
C1002 C1001 1.363 . S
C1002 C1008 1.428 . S
H1003 C999 0.930 . S
H1004 C1001 0.929 . S
S1005 N1006 1.613 . S
S1005 N1007 1.610 . S
N1006 S1005 1.613 . S
N1006 C1009 1.350 . S
N1007 S1005 1.610 . S
N1007 C1008 1.351 . S
C1008 C1002 1.428 . S
C1008 N1007 1.351 . S
C1008 C1009 1.434 . S
C1009 C1000 1.429 . S
C1009 N1006 1.350 . S
C1009 C1008 1.434 . S
C1010 C1011 1.369 . S
C1010 C1012 1.419 . S
C1010 H1014 0.930 . S
C1011 C1010 1.369 . S
C1011 C1020 1.429 . S
C1012 C1010 1.419 . S
C1012 C1013 1.363 . S
C1012 H1015 0.929 . S
C1013 C1012 1.363 . S
C1013 C1019 1.428 . S
H1014 C1010 0.930 . S
H1015 C1012 0.929 . S
S1016 N1017 1.613 . S
S1016 N1018 1.610 . S
N1017 S1016 1.613 . S
N1017 C1020 1.350 . S
N1018 S1016 1.610 . S
N1018 C1019 1.351 . S
C1019 C1013 1.428 . S
C1019 N1018 1.351 . S
C1019 C1020 1.434 . S
C1020 C1011 1.429 . S
C1020 N1017 1.350 . S
C1020 C1019 1.434 . S
C1021 C1022 1.369 . S
C1021 C1023 1.419 . S
C1021 H1025 0.930 . S
C1022 C1021 1.369 . S
C1022 C1031 1.429 . S
C1023 C1021 1.419 . S
C1023 C1024 1.363 . S
C1023 H1026 0.929 . S
C1024 C1023 1.363 . S
C1024 C1030 1.428 . S
H1025 C1021 0.930 . S
H1026 C1023 0.929 . S
S1027 N1028 1.613 . S
S1027 N1029 1.610 . S
N1028 S1027 1.613 . S
N1028 C1031 1.350 . S
N1029 S1027 1.610 . S
N1029 C1030 1.351 . S
C1030 C1024 1.428 . S
C1030 N1029 1.351 . S
C1030 C1031 1.434 . S
C1031 C1022 1.429 . S
C1031 N1028 1.350 . S
C1031 C1030 1.434 . S
C1032 C1033 1.369 . S
C1032 C1034 1.419 . S
C1032 H1036 0.930 . S
C1033 C1032 1.369 . S
C1033 C1042 1.429 . S
C1034 C1032 1.419 . S
C1034 C1035 1.363 . S
C1034 H1037 0.929 . S
C1035 C1034 1.363 . S
C1035 C1041 1.428 . S
H1036 C1032 0.930 . S
H1037 C1034 0.929 . S
S1038 N1039 1.613 . S
S1038 N1040 1.610 . S
N1039 S1038 1.613 . S
N1039 C1042 1.350 . S
N1040 S1038 1.610 . S
N1040 C1041 1.351 . S
C1041 C1035 1.428 . S
C1041 N1040 1.351 . S
C1041 C1042 1.434 . S
C1042 C1033 1.429 . S
C1042 N1039 1.350 . S
C1042 C1041 1.434 . S
C1043 C1044 1.369 . S
C1043 C1045 1.419 . S
C1043 H1047 0.930 . S
C1044 C1043 1.369 . S
C1044 C1053 1.429 . S
C1045 C1043 1.419 . S
C1045 C1046 1.363 . S
C1045 H1048 0.929 . S
C1046 C1045 1.363 . S
C1046 C1052 1.428 . S
H1047 C1043 0.930 . S
H1048 C1045 0.929 . S
S1049 N1050 1.613 . S
S1049 N1051 1.610 . S
N1050 S1049 1.613 . S
N1050 C1053 1.350 . S
N1051 S1049 1.610 . S
N1051 C1052 1.351 . S
C1052 C1046 1.428 . S
C1052 N1051 1.351 . S
C1052 C1053 1.434 . S
C1053 C1044 1.429 . S
C1053 N1050 1.350 . S
C1053 C1052 1.434 . S
C1054 C1055 1.369 . S
C1054 C1056 1.419 . S
C1054 H1058 0.930 . S
C1055 C1054 1.369 . S
C1055 C1064 1.429 . S
C1056 C1054 1.419 . S
C1056 C1057 1.363 . S
C1056 H1059 0.929 . S
C1057 C1056 1.363 . S
C1057 C1063 1.428 . S
H1058 C1054 0.930 . S
H1059 C1056 0.929 . S
S1060 N1061 1.613 . S
S1060 N1062 1.610 . S
N1061 S1060 1.613 . S
N1061 C1064 1.350 . S
N1062 S1060 1.610 . S
N1062 C1063 1.351 . S
C1063 C1057 1.428 . S
C1063 N1062 1.351 . S
C1063 C1064 1.434 . S
C1064 C1055 1.429 . S
C1064 N1061 1.350 . S
C1064 C1063 1.434 . S
C1065 C1066 1.369 . S
C1065 C1067 1.419 . S
C1065 H1069 0.930 . S
C1066 C1065 1.369 . S
C1066 C1075 1.429 . S
C1067 C1065 1.419 . S
C1067 C1068 1.363 . S
C1067 H1070 0.929 . S
C1068 C1067 1.363 . S
C1068 C1074 1.428 . S
H1069 C1065 0.930 . S
H1070 C1067 0.929 . S
S1071 N1072 1.613 . S
S1071 N1073 1.610 . S
N1072 S1071 1.613 . S
N1072 C1075 1.350 . S
N1073 S1071 1.610 . S
N1073 C1074 1.351 . S
C1074 C1068 1.428 . S
C1074 N1073 1.351 . S
C1074 C1075 1.434 . S
C1075 C1066 1.429 . S
C1075 N1072 1.350 . S
C1075 C1074 1.434 . S
C1076 C1077 1.369 . S
C1076 C1078 1.419 . S
C1076 H1080 0.930 . S
C1077 C1076 1.369 . S
C1077 C1086 1.429 . S
C1078 C1076 1.419 . S
C1078 C1079 1.363 . S
C1078 H1081 0.929 . S
C1079 C1078 1.363 . S
C1079 C1085 1.428 . S
H1080 C1076 0.930 . S
H1081 C1078 0.929 . S
S1082 N1083 1.613 . S
S1082 N1084 1.610 . S
N1083 S1082 1.613 . S
N1083 C1086 1.350 . S
N1084 S1082 1.610 . S
N1084 C1085 1.351 . S
C1085 C1079 1.428 . S
C1085 N1084 1.351 . S
C1085 C1086 1.434 . S
C1086 C1077 1.429 . S
C1086 N1083 1.350 . S
C1086 C1085 1.434 . S
C1087 C1088 1.369 . S
C1087 C1089 1.419 . S
C1087 H1091 0.930 . S
C1088 C1087 1.369 . S
C1088 C1097 1.429 . S
C1089 C1087 1.419 . S
C1089 C1090 1.363 . S
C1089 H1092 0.929 . S
C1090 C1089 1.363 . S
C1090 C1096 1.428 . S
H1091 C1087 0.930 . S
H1092 C1089 0.929 . S
S1093 N1094 1.613 . S
S1093 N1095 1.610 . S
N1094 S1093 1.613 . S
N1094 C1097 1.350 . S
N1095 S1093 1.610 . S
N1095 C1096 1.351 . S
C1096 C1090 1.428 . S
C1096 N1095 1.351 . S
C1096 C1097 1.434 . S
C1097 C1088 1.429 . S
C1097 N1094 1.350 . S
C1097 C1096 1.434 . S
C1098 C1099 1.369 . S
C1098 C1100 1.419 . S
C1098 H1102 0.930 . S
C1099 C1098 1.369 . S
C1099 C1108 1.429 . S
C1100 C1098 1.419 . S
C1100 C1101 1.363 . S
C1100 H1103 0.929 . S
C1101 C1100 1.363 . S
C1101 C1107 1.428 . S
H1102 C1098 0.930 . S
H1103 C1100 0.929 . S
S1104 N1105 1.613 . S
S1104 N1106 1.610 . S
N1105 S1104 1.613 . S
N1105 C1108 1.350 . S
N1106 S1104 1.610 . S
N1106 C1107 1.351 . S
C1107 C1101 1.428 . S
C1107 N1106 1.351 . S
C1107 C1108 1.434 . S
C1108 C1099 1.429 . S
C1108 N1105 1.350 . S
C1108 C1107 1.434 . S
C1109 C1110 1.369 . S
C1109 C1111 1.419 . S
C1109 H1113 0.930 . S
C1110 C1109 1.369 . S
C1110 C1119 1.429 . S
C1111 C1109 1.419 . S
C1111 C1112 1.363 . S
C1111 H1114 0.929 . S
C1112 C1111 1.363 . S
C1112 C1118 1.428 . S
H1113 C1109 0.930 . S
H1114 C1111 0.929 . S
S1115 N1116 1.613 . S
S1115 N1117 1.610 . S
N1116 S1115 1.613 . S
N1116 C1119 1.350 . S
N1117 S1115 1.610 . S
N1117 C1118 1.351 . S
C1118 C1112 1.428 . S
C1118 N1117 1.351 . S
C1118 C1119 1.434 . S
C1119 C1110 1.429 . S
C1119 N1116 1.350 . S
C1119 C1118 1.434 . S
C1120 C1121 1.369 . S
C1120 C1122 1.419 . S
C1120 H1124 0.930 . S
C1121 C1120 1.369 . S
C1121 C1130 1.429 . S
C1122 C1120 1.419 . S
C1122 C1123 1.363 . S
C1122 H1125 0.929 . S
C1123 C1122 1.363 . S
C1123 C1129 1.428 . S
H1124 C1120 0.930 . S
H1125 C1122 0.929 . S
S1126 N1127 1.613 . S
S1126 N1128 1.610 . S
N1127 S1126 1.613 . S
N1127 C1130 1.350 . S
N1128 S1126 1.610 . S
N1128 C1129 1.351 . S
C1129 C1123 1.428 . S
C1129 N1128 1.351 . S
C1129 C1130 1.434 . S
C1130 C1121 1.429 . S
C1130 N1127 1.350 . S
C1130 C1129 1.434 . S
C1131 C1132 1.369 . S
C1131 C1133 1.419 . S
C1131 H1135 0.930 . S
C1132 C1131 1.369 . S
C1132 C1141 1.429 . S
C1133 C1131 1.419 . S
C1133 C1134 1.363 . S
C1133 H1136 0.929 . S
C1134 C1133 1.363 . S
C1134 C1140 1.428 . S
H1135 C1131 0.930 . S
H1136 C1133 0.929 . S
S1137 N1138 1.613 . S
S1137 N1139 1.610 . S
N1138 S1137 1.613 . S
N1138 C1141 1.350 . S
N1139 S1137 1.610 . S
N1139 C1140 1.351 . S
C1140 C1134 1.428 . S
C1140 N1139 1.351 . S
C1140 C1141 1.434 . S
C1141 C1132 1.429 . S
C1141 N1138 1.350 . S
C1141 C1140 1.434 . S
C1142 C1143 1.369 . S
C1142 C1144 1.419 . S
C1142 H1146 0.930 . S
C1143 C1142 1.369 . S
C1143 C1152 1.429 . S
C1144 C1142 1.419 . S
C1144 C1145 1.363 . S
C1144 H1147 0.929 . S
C1145 C1144 1.363 . S
C1145 C1151 1.428 . S
H1146 C1142 0.930 . S
H1147 C1144 0.929 . S
S1148 N1149 1.613 . S
S1148 N1150 1.610 . S
N1149 S1148 1.613 . S
N1149 C1152 1.350 . S
N1150 S1148 1.610 . S
N1150 C1151 1.351 . S
C1151 C1145 1.428 . S
C1151 N1150 1.351 . S
C1151 C1152 1.434 . S
C1152 C1143 1.429 . S
C1152 N1149 1.350 . S
C1152 C1151 1.434 . S
C1153 C1154 1.369 . S
C1153 C1155 1.419 . S
C1153 H1157 0.930 . S
C1154 C1153 1.369 . S
C1154 C1163 1.429 . S
C1155 C1153 1.419 . S
C1155 C1156 1.363 . S
C1155 H1158 0.929 . S
C1156 C1155 1.363 . S
C1156 C1162 1.428 . S
H1157 C1153 0.930 . S
H1158 C1155 0.929 . S
S1159 N1160 1.613 . S
S1159 N1161 1.610 . S
N1160 S1159 1.613 . S
N1160 C1163 1.350 . S
N1161 S1159 1.610 . S
N1161 C1162 1.351 . S
C1162 C1156 1.428 . S
C1162 N1161 1.351 . S
C1162 C1163 1.434 . S
C1163 C1154 1.429 . S
C1163 N1160 1.350 . S
C1163 C1162 1.434 . S
C1164 C1165 1.369 . S
C1164 C1166 1.419 1_556 S
C1164 H1168 0.930 . S
C1165 C1164 1.369 . S
C1165 C1174 1.429 . S
C1166 C1164 1.419 1_554 S
C1166 C1167 1.363 . S
C1166 H1169 0.929 . S
C1167 C1166 1.363 . S
C1167 C1173 1.428 . S
H1168 C1164 0.930 . S
H1169 C1166 0.929 . S
S1170 N1171 1.613 1_554 S
S1170 N1172 1.610 . S
N1171 S1170 1.613 1_556 S
N1171 C1174 1.350 . S
N1172 S1170 1.610 . S
N1172 C1173 1.351 . S
C1173 C1167 1.428 . S
C1173 N1172 1.351 . S
C1173 C1174 1.434 1_554 S
C1174 C1165 1.429 . S
C1174 N1171 1.350 . S
C1174 C1173 1.434 1_556 S
C1175 C1176 1.369 . S
C1175 C1177 1.419 1_556 S
C1175 H1179 0.930 . S
C1176 C1175 1.369 . S
C1176 C1185 1.429 . S
C1177 C1175 1.419 1_554 S
C1177 C1178 1.363 . S
C1177 H1180 0.929 . S
C1178 C1177 1.363 . S
C1178 C1184 1.428 . S
H1179 C1175 0.930 . S
H1180 C1177 0.929 . S
S1181 N1182 1.613 . S
S1181 N1183 1.610 1_556 S
N1182 S1181 1.613 . S
N1182 C1185 1.350 . S
N1183 S1181 1.610 1_554 S
N1183 C1184 1.351 . S
C1184 C1178 1.428 . S
C1184 N1183 1.351 . S
C1184 C1185 1.434 1_554 S
C1185 C1176 1.429 . S
C1185 N1182 1.350 . S
C1185 C1184 1.434 1_556 S
C1186 C1187 1.369 . S
C1186 C1188 1.419 1_554 S
C1186 H1190 0.930 . S
C1187 C1186 1.369 . S
C1187 C1196 1.429 . S
C1188 C1186 1.419 1_556 S
C1188 C1189 1.363 . S
C1188 H1191 0.929 . S
C1189 C1188 1.363 . S
C1189 C1195 1.428 . S
H1190 C1186 0.930 . S
H1191 C1188 0.929 . S
S1192 N1193 1.613 . S
S1192 N1194 1.610 1_554 S
N1193 S1192 1.613 . S
N1193 C1196 1.350 . S
N1194 S1192 1.610 1_556 S
N1194 C1195 1.351 . S
C1195 C1189 1.428 . S
C1195 N1194 1.351 . S
C1195 C1196 1.434 1_556 S
C1196 C1187 1.429 . S
C1196 N1193 1.350 . S
C1196 C1195 1.434 1_554 S
C1197 C1198 1.369 . S
C1197 C1199 1.419 1_556 S
C1197 H1201 0.930 . S
C1198 C1197 1.369 . S
C1198 C1207 1.429 . S
C1199 C1197 1.419 1_554 S
C1199 C1200 1.363 . S
C1199 H1202 0.929 . S
C1200 C1199 1.363 . S
C1200 C1206 1.428 . S
H1201 C1197 0.930 . S
H1202 C1199 0.929 . S
S1203 N1204 1.613 1_554 S
S1203 N1205 1.610 . S
N1204 S1203 1.613 1_556 S
N1204 C1207 1.350 . S
N1205 S1203 1.610 . S
N1205 C1206 1.351 . S
C1206 C1200 1.428 . S
C1206 N1205 1.351 . S
C1206 C1207 1.434 1_554 S
C1207 C1198 1.429 . S
C1207 N1204 1.350 . S
C1207 C1206 1.434 1_556 S
C1208 C1209 1.369 . S
C1208 C1210 1.419 1_556 S
C1208 H1212 0.930 . S
C1209 C1208 1.369 . S
C1209 C1218 1.429 . S
C1210 C1208 1.419 1_554 S
C1210 C1211 1.363 . S
C1210 H1213 0.929 . S
C1211 C1210 1.363 . S
C1211 C1217 1.428 . S
H1212 C1208 0.930 . S
H1213 C1210 0.929 . S
S1214 N1215 1.613 . S
S1214 N1216 1.610 1_556 S
N1215 S1214 1.613 . S
N1215 C1218 1.350 . S
N1216 S1214 1.610 1_554 S
N1216 C1217 1.351 . S
C1217 C1211 1.428 . S
C1217 N1216 1.351 . S
C1217 C1218 1.434 1_554 S
C1218 C1209 1.429 . S
C1218 N1215 1.350 . S
C1218 C1217 1.434 1_556 S
C1219 C1220 1.369 . S
C1219 C1221 1.419 1_554 S
C1219 H1223 0.930 . S
C1220 C1219 1.369 . S
C1220 C1229 1.429 . S
C1221 C1219 1.419 1_556 S
C1221 C1222 1.363 . S
C1221 H1224 0.929 . S
C1222 C1221 1.363 . S
C1222 C1228 1.428 . S
H1223 C1219 0.930 . S
H1224 C1221 0.929 . S
S1225 N1226 1.613 . S
S1225 N1227 1.610 1_554 S
N1226 S1225 1.613 . S
N1226 C1229 1.350 . S
N1227 S1225 1.610 1_556 S
N1227 C1228 1.351 . S
C1228 C1222 1.428 . S
C1228 N1227 1.351 . S
C1228 C1229 1.434 1_556 S
C1229 C1220 1.429 . S
C1229 N1226 1.350 . S
C1229 C1228 1.434 1_554 S
C1230 C1231 1.369 . S
C1230 C1232 1.419 . S
C1230 H1234 0.930 . S
C1231 C1230 1.369 . S
C1231 C1240 1.429 . S
C1232 C1230 1.419 . S
C1232 C1233 1.363 . S
C1232 H1235 0.929 . S
C1233 C1232 1.363 . S
C1233 C1239 1.428 . S
H1234 C1230 0.930 . S
H1235 C1232 0.929 . S
S1236 N1237 1.613 . S
S1236 N1238 1.610 . S
N1237 S1236 1.613 . S
N1237 C1240 1.350 . S
N1238 S1236 1.610 . S
N1238 C1239 1.351 . S
C1239 C1233 1.428 . S
C1239 N1238 1.351 . S
C1239 C1240 1.434 . S
C1240 C1231 1.429 . S
C1240 N1237 1.350 . S
C1240 C1239 1.434 . S
C1241 C1242 1.369 . S
C1241 C1243 1.419 . S
C1241 H1245 0.930 . S
C1242 C1241 1.369 . S
C1242 C1251 1.429 . S
C1243 C1241 1.419 . S
C1243 C1244 1.363 . S
C1243 H1246 0.929 . S
C1244 C1243 1.363 . S
C1244 C1250 1.428 . S
H1245 C1241 0.930 . S
H1246 C1243 0.929 . S
S1247 N1248 1.613 . S
S1247 N1249 1.610 . S
N1248 S1247 1.613 . S
N1248 C1251 1.350 . S
N1249 S1247 1.610 . S
N1249 C1250 1.351 . S
C1250 C1244 1.428 . S
C1250 N1249 1.351 . S
C1250 C1251 1.434 . S
C1251 C1242 1.429 . S
C1251 N1248 1.350 . S
C1251 C1250 1.434 . S
C1252 C1253 1.369 . S
C1252 C1254 1.419 . S
C1252 H1256 0.930 . S
C1253 C1252 1.369 . S
C1253 C1262 1.429 . S
C1254 C1252 1.419 . S
C1254 C1255 1.363 . S
C1254 H1257 0.929 . S
C1255 C1254 1.363 . S
C1255 C1261 1.428 . S
H1256 C1252 0.930 . S
H1257 C1254 0.929 . S
S1258 N1259 1.613 . S
S1258 N1260 1.610 . S
N1259 S1258 1.613 . S
N1259 C1262 1.350 . S
N1260 S1258 1.610 . S
N1260 C1261 1.351 . S
C1261 C1255 1.428 . S
C1261 N1260 1.351 . S
C1261 C1262 1.434 . S
C1262 C1253 1.429 . S
C1262 N1259 1.350 . S
C1262 C1261 1.434 . S
C1263 C1264 1.369 . S
C1263 C1265 1.419 . S
C1263 H1267 0.930 . S
C1264 C1263 1.369 . S
C1264 C1273 1.429 . S
C1265 C1263 1.419 . S
C1265 C1266 1.363 . S
C1265 H1268 0.929 . S
C1266 C1265 1.363 . S
C1266 C1272 1.428 . S
H1267 C1263 0.930 . S
H1268 C1265 0.929 . S
S1269 N1270 1.613 . S
S1269 N1271 1.610 . S
N1270 S1269 1.613 . S
N1270 C1273 1.350 . S
N1271 S1269 1.610 . S
N1271 C1272 1.351 . S
C1272 C1266 1.428 . S
C1272 N1271 1.351 . S
C1272 C1273 1.434 . S
C1273 C1264 1.429 . S
C1273 N1270 1.350 . S
C1273 C1272 1.434 . S
C1274 C1275 1.369 . S
C1274 C1276 1.419 . S
C1274 H1278 0.930 . S
C1275 C1274 1.369 . S
C1275 C1284 1.429 . S
C1276 C1274 1.419 . S
C1276 C1277 1.363 . S
C1276 H1279 0.929 . S
C1277 C1276 1.363 . S
C1277 C1283 1.428 . S
H1278 C1274 0.930 . S
H1279 C1276 0.929 . S
S1280 N1281 1.613 . S
S1280 N1282 1.610 . S
N1281 S1280 1.613 . S
N1281 C1284 1.350 . S
N1282 S1280 1.610 . S
N1282 C1283 1.351 . S
C1283 C1277 1.428 . S
C1283 N1282 1.351 . S
C1283 C1284 1.434 . S
C1284 C1275 1.429 . S
C1284 N1281 1.350 . S
C1284 C1283 1.434 . S
C1285 C1286 1.369 . S
C1285 C1287 1.419 . S
C1285 H1289 0.930 . S
C1286 C1285 1.369 . S
C1286 C1295 1.429 . S
C1287 C1285 1.419 . S
C1287 C1288 1.363 . S
C1287 H1290 0.929 . S
C1288 C1287 1.363 . S
C1288 C1294 1.428 . S
H1289 C1285 0.930 . S
H1290 C1287 0.929 . S
S1291 N1292 1.613 . S
S1291 N1293 1.610 . S
N1292 S1291 1.613 . S
N1292 C1295 1.350 . S
N1293 S1291 1.610 . S
N1293 C1294 1.351 . S
C1294 C1288 1.428 . S
C1294 N1293 1.351 . S
C1294 C1295 1.434 . S
C1295 C1286 1.429 . S
C1295 N1292 1.350 . S
C1295 C1294 1.434 . S
C505 C172 1.875 . S
C507 C7 1.874 . S
C516 C28 1.867 . S
C518 C196 1.874 . S
C527 C46 1.875 . S
C529 C214 1.869 . S
C538 C70 1.867 . S
C540 C238 1.876 . S
C549 C88 1.868 . S
C551 C130 1.874 . S
C560 C154 1.867 . S
C562 C112 1.877 . S
C571 C424 1.710 . S
C573 C256 1.716 . S
C582 C448 1.709 . S
C584 C277 1.718 . S
C593 C466 1.709 . S
C595 C298 1.720 . S
C604 C322 1.720 . S
C606 C487 1.710 . S
C615 C382 1.715 . S
C617 C340 1.712 . S
C626 C406 1.709 . S
C628 C364 1.720 . S
C637 C20 1.469 . S
C639 C83 1.468 . S
C648 C103 1.479 . S
C650 C41 1.467 . S
C659 C61 1.476 . S
C661 C125 1.478 . S
C670 C145 1.466 . S
C672 C209 1.471 . S
C681 C167 1.464 . S
C683 C229 1.476 . S
C692 C187 1.470 . S
C694 C251 1.480 . S
C703 C334 2.211 . S
C705 C272 2.207 . S
C714 C293 2.207 . S
C716 C356 2.206 . S
C725 C376 2.205 . S
C727 C314 2.209 . S
C736 C398 2.210 . S
C738 C460 2.214 . S
C747 C418 2.208 . S
C749 C482 2.206 . S
C758 C503 2.206 . S
C760 C440 2.211 . S
C769 C3 0.930 . S
C771 C226 0.934 . S
C780 C234 0.933 . S
C782 C24 0.931 . S
C791 C58 0.922 . S
C793 C142 0.939 . S
C802 C66 0.918 . S
C804 C150 0.941 . S
C813 C184 0.932 . S
C815 C100 0.925 . S
C824 C192 0.923 . S
C826 C108 0.932 . S
C835 C255 0.776 . S
C837 C465 0.788 . S
C846 C276 0.790 . S
C848 C486 0.787 . S
C857 C297 0.782 . S
C859 C381 0.790 . S
C868 C331 0.772 . S
C870 C415 0.782 . S
C879 C423 0.783 . S
C881 C339 0.790 . S
C890 C457 0.783 . S
C892 C373 0.790 . S
C901 C16 0.890 . S
C903 C91 0.873 . S
C912 C109 0.868 . S
C914 C37 0.883 . S
C923 C45 0.888 . S
C925 C4 0.857 . S
C934 C25 0.875 . S
C936 C79 0.889 . S
C945 C49 0.853 . S
C947 C87 0.886 . S
C956 C67 0.852 . S
C958 C121 0.882 . S
C967 C129 0.888 . S
C969 C175 0.873 . S
C978 C193 0.852 . S
C980 C163 0.882 . S
C989 C171 0.878 . S
C991 C217 0.861 . S
C1000 C205 0.890 . S
C1002 C235 0.873 . S
C1011 C133 0.869 . S
C1013 C213 0.883 . S
C1022 C247 0.893 . S
C1024 C151 0.862 . S
C1033 C268 0.940 . S
C1035 C343 1.088 . S
C1044 C361 1.085 . S
C1046 C289 0.941 . S
C1055 C259 1.097 . S
C1057 C310 0.959 . S
C1066 C318 0.938 . S
C1068 C280 1.087 . S
C1077 C301 1.087 . S
C1079 C352 0.943 . S
C1088 C360 0.952 . S
C1090 C319 1.091 . S
C1099 C394 0.940 . S
C1101 C427 1.088 . S
C1110 C445 1.089 . S
C1112 C402 0.948 . S
C1121 C469 1.097 . S
C1123 C436 0.957 . S
C1132 C444 0.939 . S
C1134 C490 1.087 . S
C1143 C385 1.097 . S
C1145 C478 0.959 . S
C1154 C499 0.941 . S
C1156 C403 1.087 . S
C1165 C335 1.388 . S
C1167 C19 1.475 . S
C1176 C355 1.403 . S
C1178 C40 1.481 . S
C1187 C62 1.473 . S
C1189 C377 1.389 . S
C1198 C271 1.402 . S
C1200 C82 1.482 . S
C1209 C292 1.399 . S
C1211 C104 1.478 . S
C1220 C124 1.481 . S
C1222 C313 1.397 . S
C1231 C461 1.388 . S
C1233 C146 1.475 . S
C1242 C481 1.403 . S
C1244 C166 1.482 . S
C1253 C188 1.483 . S
C1255 C502 1.399 . S
C1264 C397 1.401 . S
C1266 C208 1.480 . S
C1275 C230 1.472 . S
C1277 C419 1.389 . S
C1286 C439 1.396 . S
C1288 C250 1.480 . S
