# Generated by pormake.
# Topology ukc, (4)-cn, num edge types: 1
# Building blocks:
#     Node 0, Type 0, BuildingBlock: QUQFOY_clean_sbu_3, # of connection points: 4
#     Node 1, Type 0, BuildingBlock: QUQFOY_clean_sbu_3, # of connection points: 4
#     Node 2, Type 0, BuildingBlock: QUQFOY_clean_sbu_3, # of connection points: 4
#     Node 3, Type 0, BuildingBlock: QUQFOY_clean_sbu_3, # of connection points: 4
#     Node 4, Type 0, BuildingBlock: QUQFOY_clean_sbu_3, # of connection points: 4
#     Node 5, Type 0, BuildingBlock: QUQFOY_clean_sbu_3, # of connection points: 4
#     Node 6, Type 0, BuildingBlock: QUQFOY_clean_sbu_3, # of connection points: 4
#     Node 7, Type 0, BuildingBlock: QUQFOY_clean_sbu_3, # of connection points: 4
#     Node 8, Type 0, BuildingBlock: QUQFOY_clean_sbu_3, # of connection points: 4
#     Node 9, Type 0, BuildingBlock: QUQFOY_clean_sbu_3, # of connection points: 4
#     Node 10, Type 0, BuildingBlock: QUQFOY_clean_sbu_3, # of connection points: 4
#     Node 11, Type 0, BuildingBlock: QUQFOY_clean_sbu_3, # of connection points: 4
#     Node 12, Type 0, BuildingBlock: QUQFOY_clean_sbu_3, # of connection points: 4
#     Node 13, Type 0, BuildingBlock: QUQFOY_clean_sbu_3, # of connection points: 4
#     Node 14, Type 0, BuildingBlock: QUQFOY_clean_sbu_3, # of connection points: 4
#     Node 15, Type 0, BuildingBlock: QUQFOY_clean_sbu_3, # of connection points: 4
#     Node 16, Type 0, BuildingBlock: QUQFOY_clean_sbu_3, # of connection points: 4
#     Node 17, Type 0, BuildingBlock: QUQFOY_clean_sbu_3, # of connection points: 4
#     Node 18, Type 0, BuildingBlock: QUQFOY_clean_sbu_3, # of connection points: 4
#     Node 19, Type 0, BuildingBlock: QUQFOY_clean_sbu_3, # of connection points: 4
#     Node 20, Type 0, BuildingBlock: QUQFOY_clean_sbu_3, # of connection points: 4
#     Node 21, Type 0, BuildingBlock: QUQFOY_clean_sbu_3, # of connection points: 4
#     Node 22, Type 0, BuildingBlock: QUQFOY_clean_sbu_3, # of connection points: 4
#     Node 23, Type 0, BuildingBlock: QUQFOY_clean_sbu_3, # of connection points: 4
#     Node 24, Type 0, BuildingBlock: QUQFOY_clean_sbu_3, # of connection points: 4
#     Node 25, Type 0, BuildingBlock: QUQFOY_clean_sbu_3, # of connection points: 4
#     Node 26, Type 0, BuildingBlock: QUQFOY_clean_sbu_3, # of connection points: 4
#     Node 27, Type 0, BuildingBlock: QUQFOY_clean_sbu_3, # of connection points: 4
#     Node 28, Type 0, BuildingBlock: QUQFOY_clean_sbu_3, # of connection points: 4
#     Node 29, Type 0, BuildingBlock: QUQFOY_clean_sbu_3, # of connection points: 4
#     Node 30, Type 0, BuildingBlock: QUQFOY_clean_sbu_3, # of connection points: 4
#     Node 31, Type 0, BuildingBlock: QUQFOY_clean_sbu_3, # of connection points: 4
#     Edge 32, Type (0, 0), BuildingBlock: XUDNAN_clean_linker_2, # of connection points: 2
#     Edge 33, Type (0, 0), BuildingBlock: XUDNAN_clean_linker_2, # of connection points: 2
#     Edge 34, Type (0, 0), BuildingBlock: XUDNAN_clean_linker_2, # of connection points: 2
#     Edge 35, Type (0, 0), BuildingBlock: XUDNAN_clean_linker_2, # of connection points: 2
#     Edge 36, Type (0, 0), BuildingBlock: XUDNAN_clean_linker_2, # of connection points: 2
#     Edge 37, Type (0, 0), BuildingBlock: XUDNAN_clean_linker_2, # of connection points: 2
#     Edge 38, Type (0, 0), BuildingBlock: XUDNAN_clean_linker_2, # of connection points: 2
#     Edge 39, Type (0, 0), BuildingBlock: XUDNAN_clean_linker_2, # of connection points: 2
#     Edge 40, Type (0, 0), BuildingBlock: XUDNAN_clean_linker_2, # of connection points: 2
#     Edge 41, Type (0, 0), BuildingBlock: XUDNAN_clean_linker_2, # of connection points: 2
#     Edge 42, Type (0, 0), BuildingBlock: XUDNAN_clean_linker_2, # of connection points: 2
#     Edge 43, Type (0, 0), BuildingBlock: XUDNAN_clean_linker_2, # of connection points: 2
#     Edge 44, Type (0, 0), BuildingBlock: XUDNAN_clean_linker_2, # of connection points: 2
#     Edge 45, Type (0, 0), BuildingBlock: XUDNAN_clean_linker_2, # of connection points: 2
#     Edge 46, Type (0, 0), BuildingBlock: XUDNAN_clean_linker_2, # of connection points: 2
#     Edge 47, Type (0, 0), BuildingBlock: XUDNAN_clean_linker_2, # of connection points: 2
#     Edge 48, Type (0, 0), BuildingBlock: XUDNAN_clean_linker_2, # of connection points: 2
#     Edge 49, Type (0, 0), BuildingBlock: XUDNAN_clean_linker_2, # of connection points: 2
#     Edge 50, Type (0, 0), BuildingBlock: XUDNAN_clean_linker_2, # of connection points: 2
#     Edge 51, Type (0, 0), BuildingBlock: XUDNAN_clean_linker_2, # of connection points: 2
#     Edge 52, Type (0, 0), BuildingBlock: XUDNAN_clean_linker_2, # of connection points: 2
#     Edge 53, Type (0, 0), BuildingBlock: XUDNAN_clean_linker_2, # of connection points: 2
#     Edge 54, Type (0, 0), BuildingBlock: XUDNAN_clean_linker_2, # of connection points: 2
#     Edge 55, Type (0, 0), BuildingBlock: XUDNAN_clean_linker_2, # of connection points: 2
#     Edge 56, Type (0, 0), BuildingBlock: XUDNAN_clean_linker_2, # of connection points: 2
#     Edge 57, Type (0, 0), BuildingBlock: XUDNAN_clean_linker_2, # of connection points: 2
#     Edge 58, Type (0, 0), BuildingBlock: XUDNAN_clean_linker_2, # of connection points: 2
#     Edge 59, Type (0, 0), BuildingBlock: XUDNAN_clean_linker_2, # of connection points: 2
#     Edge 60, Type (0, 0), BuildingBlock: XUDNAN_clean_linker_2, # of connection points: 2
#     Edge 61, Type (0, 0), BuildingBlock: XUDNAN_clean_linker_2, # of connection points: 2
#     Edge 62, Type (0, 0), BuildingBlock: XUDNAN_clean_linker_2, # of connection points: 2
#     Edge 63, Type (0, 0), BuildingBlock: XUDNAN_clean_linker_2, # of connection points: 2
#     Edge 64, Type (0, 0), BuildingBlock: XUDNAN_clean_linker_2, # of connection points: 2
#     Edge 65, Type (0, 0), BuildingBlock: XUDNAN_clean_linker_2, # of connection points: 2
#     Edge 66, Type (0, 0), BuildingBlock: XUDNAN_clean_linker_2, # of connection points: 2
#     Edge 67, Type (0, 0), BuildingBlock: XUDNAN_clean_linker_2, # of connection points: 2
#     Edge 68, Type (0, 0), BuildingBlock: XUDNAN_clean_linker_2, # of connection points: 2
#     Edge 69, Type (0, 0), BuildingBlock: XUDNAN_clean_linker_2, # of connection points: 2
#     Edge 70, Type (0, 0), BuildingBlock: XUDNAN_clean_linker_2, # of connection points: 2
#     Edge 71, Type (0, 0), BuildingBlock: XUDNAN_clean_linker_2, # of connection points: 2
#     Edge 72, Type (0, 0), BuildingBlock: XUDNAN_clean_linker_2, # of connection points: 2
#     Edge 73, Type (0, 0), BuildingBlock: XUDNAN_clean_linker_2, # of connection points: 2
#     Edge 74, Type (0, 0), BuildingBlock: XUDNAN_clean_linker_2, # of connection points: 2
#     Edge 75, Type (0, 0), BuildingBlock: XUDNAN_clean_linker_2, # of connection points: 2
#     Edge 76, Type (0, 0), BuildingBlock: XUDNAN_clean_linker_2, # of connection points: 2
#     Edge 77, Type (0, 0), BuildingBlock: XUDNAN_clean_linker_2, # of connection points: 2
#     Edge 78, Type (0, 0), BuildingBlock: XUDNAN_clean_linker_2, # of connection points: 2
#     Edge 79, Type (0, 0), BuildingBlock: XUDNAN_clean_linker_2, # of connection points: 2
#     Edge 80, Type (0, 0), BuildingBlock: XUDNAN_clean_linker_2, # of connection points: 2
#     Edge 81, Type (0, 0), BuildingBlock: XUDNAN_clean_linker_2, # of connection points: 2
#     Edge 82, Type (0, 0), BuildingBlock: XUDNAN_clean_linker_2, # of connection points: 2
#     Edge 83, Type (0, 0), BuildingBlock: XUDNAN_clean_linker_2, # of connection points: 2
#     Edge 84, Type (0, 0), BuildingBlock: XUDNAN_clean_linker_2, # of connection points: 2
#     Edge 85, Type (0, 0), BuildingBlock: XUDNAN_clean_linker_2, # of connection points: 2
#     Edge 86, Type (0, 0), BuildingBlock: XUDNAN_clean_linker_2, # of connection points: 2
#     Edge 87, Type (0, 0), BuildingBlock: XUDNAN_clean_linker_2, # of connection points: 2
#     Edge 88, Type (0, 0), BuildingBlock: XUDNAN_clean_linker_2, # of connection points: 2
#     Edge 89, Type (0, 0), BuildingBlock: XUDNAN_clean_linker_2, # of connection points: 2
#     Edge 90, Type (0, 0), BuildingBlock: XUDNAN_clean_linker_2, # of connection points: 2
#     Edge 91, Type (0, 0), BuildingBlock: XUDNAN_clean_linker_2, # of connection points: 2
#     Edge 92, Type (0, 0), BuildingBlock: XUDNAN_clean_linker_2, # of connection points: 2
#     Edge 93, Type (0, 0), BuildingBlock: XUDNAN_clean_linker_2, # of connection points: 2
#     Edge 94, Type (0, 0), BuildingBlock: XUDNAN_clean_linker_2, # of connection points: 2
#     Edge 95, Type (0, 0), BuildingBlock: XUDNAN_clean_linker_2, # of connection points: 2
# Relax obj value: 0.042
# Max RMSD: 0.063
# Mean RMSD: 0.063
data_MOF--net-ukc--node1-QUQFOY_clean_sbu_3--edge1-XUDNAN_clean_linker_2
_symmetry_space_group_name_H-M    P1
_symmetry_Int_Tables_number       1
_symmetry_cell_setting            triclinic
loop_
_symmetry_equiv_pos_as_xyz
'x, y, z'
_cell_length_a     46.4336
_cell_length_b     46.243053
_cell_length_c     90.020917
_cell_angle_alpha  90.049848
_cell_angle_beta   90.039569
_cell_angle_gamma 89.974511
loop_
_atom_site_label
_atom_site_type_symbol
_atom_site_fract_x
_atom_site_fract_y
_atom_site_fract_z
_atom_type_partial_charge
C0 C 0.10698 0.37464 0.06663 0.0
O1 O 0.08029 0.38058 0.06695 0.0
Cd2 Cd 0.04938 0.37797 0.04557 0.0
O3 O 0.11925 0.36835 0.0544 0.0
Cd4 Cd 0.10662 0.36469 0.02779 0.0
C5 C 0.06241 0.30814 0.03393 0.0
O6 O 0.07079 0.40335 0.0254 0.0
O7 O 0.0718 0.3711 0.00801 0.0
O8 O 0.14574 0.39495 0.01928 0.0
C9 C 0.06181 0.39487 0.01281 0.0
O10 O 0.04483 0.3269 0.03897 0.0
C11 C 0.15878 0.37559 0.01191 0.0
O12 O 0.0878 0.31532 0.03001 0.0
O13 O 0.1482 0.35025 0.01224 0.0
C14 C 0.82038 0.83615 0.30963 0.0
O15 O 0.80678 0.81321 0.30628 0.0
Cd16 Cd 0.80929 0.78836 0.28295 0.0
O17 O 0.83582 0.84922 0.30003 0.0
Cd18 Cd 0.84878 0.84489 0.27337 0.0
C19 C 0.88331 0.7816 0.28035 0.0
O20 O 0.80412 0.82465 0.26466 0.0
O21 O 0.8391 0.82287 0.24903 0.0
O22 O 0.84105 0.89544 0.26729 0.0
C23 C 0.81294 0.8174 0.25189 0.0
O24 O 0.85864 0.76974 0.28158 0.0
C25 C 0.86676 0.90028 0.26317 0.0
O26 O 0.88576 0.80874 0.27824 0.0
O27 O 0.8846 0.87957 0.26438 0.0
C28 C 0.38446 0.60118 0.56615 0.0
O29 O 0.41123 0.59548 0.56595 0.0
Cd30 Cd 0.44082 0.60031 0.54403 0.0
O31 O 0.37178 0.61005 0.55448 0.0
Cd32 Cd 0.38269 0.62139 0.52847 0.0
C33 C 0.43341 0.67234 0.53698 0.0
O34 O 0.41383 0.58003 0.52377 0.0
O35 O 0.41145 0.61222 0.50642 0.0
O36 O 0.33633 0.60286 0.51985 0.0
C37 C 0.42083 0.5879 0.51078 0.0
O38 O 0.45066 0.65201 0.54044 0.0
C39 C 0.32708 0.6271 0.51525 0.0
O40 O 0.40749 0.66688 0.53331 0.0
O41 O 0.34375 0.64867 0.51673 0.0
C42 C 0.63398 0.14898 0.81564 0.0
O43 O 0.63955 0.17573 0.81424 0.0
Cd44 Cd 0.64178 0.20053 0.79117 0.0
O45 O 0.62894 0.133 0.80436 0.0
Cd46 Cd 0.62797 0.13815 0.7767 0.0
C47 C 0.57405 0.18794 0.77732 0.0
O48 O 0.67129 0.16596 0.77855 0.0
O49 O 0.65591 0.16179 0.75622 0.0
O50 O 0.6343 0.08577 0.77884 0.0
C51 C 0.67522 0.17103 0.76496 0.0
O52 O 0.59183 0.20657 0.78228 0.0
C53 C 0.6244 0.0802 0.76601 0.0
O54 O 0.58187 0.16198 0.77509 0.0
O55 O 0.61688 0.10149 0.75804 0.0
C56 C 0.0879 0.58003 0.41508 0.0
O57 O 0.06393 0.56684 0.41447 0.0
Cd58 Cd 0.03545 0.55576 0.43598 0.0
O59 O 0.09796 0.58874 0.42748 0.0
Cd60 Cd 0.08524 0.58893 0.45412 0.0
C61 C 0.02151 0.62414 0.44859 0.0
O62 O 0.06956 0.53943 0.45404 0.0
O63 O 0.06075 0.56234 0.47435 0.0
O64 O 0.13563 0.58307 0.46128 0.0
C65 C 0.06008 0.5387 0.46719 0.0
O66 O 0.01129 0.60059 0.44348 0.0
C67 C 0.1371 0.60643 0.46865 0.0
O68 O 0.04795 0.62613 0.45222 0.0
O69 O 0.1144 0.6217 0.46931 0.0
C70 C 0.66352 0.83846 0.66636 0.0
O71 O 0.67721 0.81501 0.66838 0.0
Cd72 Cd 0.6745 0.78683 0.69057 0.0
O73 O 0.64818 0.84934 0.6767 0.0
Cd74 Cd 0.63586 0.83945 0.70301 0.0
C75 C 0.60063 0.77884 0.69265 0.0
O76 O 0.68256 0.82025 0.71027 0.0
O77 O 0.64812 0.81436 0.726 0.0
O78 O 0.64006 0.89141 0.70742 0.0
C79 C 0.6746 0.81165 0.72297 0.0
O80 O 0.62539 0.76742 0.69092 0.0
C81 C 0.61842 0.89277 0.71601 0.0
O82 O 0.5981 0.80541 0.69617 0.0
O83 O 0.6041 0.86969 0.71791 0.0
C84 C 0.4009 0.40715 0.90236 0.0
O85 O 0.42455 0.42067 0.90373 0.0
Cd86 Cd 0.44967 0.42936 0.92621 0.0
O87 O 0.38745 0.39752 0.91369 0.0
Cd88 Cd 0.39296 0.39953 0.94131 0.0
C89 C 0.45365 0.35915 0.93965 0.0
O90 O 0.41269 0.44736 0.94154 0.0
O91 O 0.4172 0.42509 0.9623 0.0
O92 O 0.3432 0.41408 0.94367 0.0
C93 C 0.42054 0.44823 0.95494 0.0
O94 O 0.46583 0.38201 0.93486 0.0
C95 C 0.33595 0.39499 0.95305 0.0
O96 O 0.42661 0.35851 0.94211 0.0
O97 O 0.35506 0.37659 0.95667 0.0
C98 C 0.83752 0.15144 0.16418 0.0
O99 O 0.82383 0.1744 0.16736 0.0
Cd100 Cd 0.82424 0.19752 0.19114 0.0
O101 O 0.85199 0.1381 0.17409 0.0
Cd102 Cd 0.86223 0.1424 0.2011 0.0
C103 C 0.89739 0.20583 0.19633 0.0
O104 O 0.8157 0.16053 0.20887 0.0
O105 O 0.84939 0.16326 0.22527 0.0
O106 O 0.85261 0.09169 0.20548 0.0
C107 C 0.82308 0.16692 0.22201 0.0
O108 O 0.87264 0.21715 0.19442 0.0
C109 C 0.87696 0.08587 0.21115 0.0
O110 O 0.90017 0.17862 0.19809 0.0
O111 O 0.89537 0.10618 0.21153 0.0
C112 C 0.90558 0.56409 0.91279 0.0
O113 O 0.93144 0.55586 0.91466 0.0
Cd114 Cd 0.95639 0.55461 0.93771 0.0
O115 O 0.89009 0.57222 0.92376 0.0
Cd116 Cd 0.89694 0.57545 0.95129 0.0
C117 C 0.95099 0.62526 0.94686 0.0
O118 O 0.92093 0.52989 0.95248 0.0
O119 O 0.92197 0.55289 0.97319 0.0
O120 O 0.84567 0.56659 0.95721 0.0
C121 C 0.92698 0.52969 0.96612 0.0
O122 O 0.96882 0.60554 0.94329 0.0
C123 C 0.84307 0.58991 0.96461 0.0
O124 O 0.92492 0.61897 0.94954 0.0
O125 O 0.86524 0.60575 0.96572 0.0
C126 C 0.12998 0.13046 0.66064 0.0
O127 O 0.14376 0.15417 0.66057 0.0
Cd128 Cd 0.14728 0.18586 0.68176 0.0
O129 O 0.11766 0.12166 0.67244 0.0
Cd130 Cd 0.11094 0.13632 0.6986 0.0
C131 C 0.07486 0.19656 0.68838 0.0
O132 O 0.15832 0.15823 0.7034 0.0
O133 O 0.12488 0.16515 0.71967 0.0
O134 O 0.11834 0.08557 0.7049 0.0
C135 C 0.15079 0.16896 0.7158 0.0
O136 O 0.09945 0.20664 0.68483 0.0
C137 C 0.09773 0.08422 0.71413 0.0
O138 O 0.07207 0.17041 0.69264 0.0
O139 O 0.08242 0.10679 0.71571 0.0
C140 C 0.56396 0.40227 0.41048 0.0
O141 O 0.53761 0.40861 0.4124 0.0
Cd142 Cd 0.51507 0.41163 0.43602 0.0
O143 O 0.58065 0.39748 0.42148 0.0
Cd144 Cd 0.57788 0.3991 0.44914 0.0
C145 C 0.52908 0.34415 0.45001 0.0
O146 O 0.54922 0.44182 0.44841 0.0
O147 O 0.55363 0.42441 0.47041 0.0
O148 O 0.6262 0.41971 0.44987 0.0
C149 C 0.54494 0.44484 0.46214 0.0
O150 O 0.51025 0.36177 0.44513 0.0
C151 C 0.63645 0.40124 0.45885 0.0
O152 O 0.55501 0.3522 0.45188 0.0
O153 O 0.61955 0.38144 0.46322 0.0
C154 C 0.3425 0.84076 0.16526 0.0
O155 O 0.33111 0.81581 0.16564 0.0
Cd156 Cd 0.32744 0.78839 0.1885 0.0
O157 O 0.35313 0.85192 0.17696 0.0
Cd158 Cd 0.36097 0.84166 0.2033 0.0
C159 C 0.39843 0.77942 0.19799 0.0
O160 O 0.31391 0.8202 0.20835 0.0
O161 O 0.34595 0.8179 0.2258 0.0
O162 O 0.34866 0.89065 0.21047 0.0
C163 C 0.32037 0.81304 0.22156 0.0
O164 O 0.37452 0.76806 0.19425 0.0
C165 C 0.37332 0.89728 0.21548 0.0
O166 O 0.40034 0.80644 0.20066 0.0
O167 O 0.39284 0.87808 0.21463 0.0
C168 C 0.87373 0.38352 0.56243 0.0
O169 O 0.90037 0.38944 0.56333 0.0
Cd170 Cd 0.93275 0.38554 0.54262 0.0
O171 O 0.86249 0.37695 0.54998 0.0
Cd172 Cd 0.87642 0.37264 0.52366 0.0
C173 C 0.91871 0.31543 0.53162 0.0
O174 O 0.91283 0.41035 0.52184 0.0
O175 O 0.91228 0.3784 0.50426 0.0
O176 O 0.83803 0.40354 0.51481 0.0
C177 C 0.92248 0.40183 0.50939 0.0
O178 O 0.93621 0.33396 0.53696 0.0
C179 C 0.8246 0.38413 0.50767 0.0
O180 O 0.89405 0.32312 0.52678 0.0
O181 O 0.83491 0.35867 0.50809 0.0
C182 C 0.34561 0.1359 0.32081 0.0
O183 O 0.33291 0.16023 0.32121 0.0
Cd184 Cd 0.32039 0.18942 0.30018 0.0
O185 O 0.353 0.12463 0.30845 0.0
Cd186 Cd 0.35033 0.13666 0.28162 0.0
C187 C 0.38793 0.19938 0.28577 0.0
O188 O 0.30222 0.15598 0.28246 0.0
O189 O 0.32423 0.16294 0.26178 0.0
O190 O 0.34178 0.08688 0.2737 0.0
C191 C 0.30145 0.16599 0.2694 0.0
O192 O 0.36537 0.21088 0.29126 0.0
C193 C 0.36496 0.08465 0.2663 0.0
O194 O 0.38865 0.17263 0.28244 0.0
O195 O 0.38138 0.10659 0.26606 0.0
C196 C 0.5824 0.59415 0.05884 0.0
O197 O 0.55543 0.59216 0.05674 0.0
Cd198 Cd 0.53173 0.59611 0.0332 0.0
O199 O 0.59947 0.59989 0.04817 0.0
Cd200 Cd 0.59501 0.61175 0.02149 0.0
C201 C 0.54708 0.66695 0.02698 0.0
O202 O 0.56235 0.57271 0.01553 0.0
O203 O 0.56906 0.60381 -0.00195 0.0
O204 O 0.64172 0.59046 0.01477 0.0
C205 C 0.55775 0.58026 0.00222 0.0
O206 O 0.52757 0.64802 0.02898 0.0
C207 C 0.65254 0.61416 0.01034 0.0
O208 O 0.57322 0.65948 0.02508 0.0
O209 O 0.63672 0.63648 0.01124 0.0
C210 C 0.15871 0.83856 0.81677 0.0
O211 O 0.17321 0.81575 0.81434 0.0
Cd212 Cd 0.18075 0.79425 0.79075 0.0
O213 O 0.14679 0.85238 0.80613 0.0
Cd214 Cd 0.14442 0.84851 0.77833 0.0
C215 C 0.11019 0.78406 0.78014 0.0
O216 O 0.19457 0.83565 0.77685 0.0
O217 O 0.17198 0.83043 0.75633 0.0
O218 O 0.13886 0.90122 0.77975 0.0
C219 C 0.19571 0.82926 0.76325 0.0
O220 O 0.13446 0.77279 0.78332 0.0
C221 C 0.12456 0.90329 0.76778 0.0
O222 O 0.10752 0.81131 0.77874 0.0
O223 O 0.11943 0.88006 0.76077 0.0
C224 C 0.59971 0.90738 0.57046 0.0
O225 O 0.57564 0.91985 0.57251 0.0
Cd226 Cd 0.54053 0.9297 0.55374 0.0
O227 O 0.60757 0.89963 0.55749 0.0
Cd228 Cd 0.59088 0.90153 0.53137 0.0
C229 C 0.53252 0.86015 0.53935 0.0
O230 O 0.56699 0.94722 0.53342 0.0
O231 O 0.55775 0.92399 0.51323 0.0
O232 O 0.63553 0.92218 0.52288 0.0
C233 C 0.5537 0.94636 0.52115 0.0
O234 O 0.52281 0.88248 0.546 0.0
C235 C 0.64338 0.90114 0.5148 0.0
O236 O 0.5578 0.85981 0.53374 0.0
O237 O 0.62689 0.87917 0.51444 0.0
C238 C 0.33678 0.33293 0.80635 0.0
O239 O 0.32391 0.30885 0.80773 0.0
Cd240 Cd 0.31254 0.28074 0.78604 0.0
O241 O 0.34344 0.34249 0.79354 0.0
Cd242 Cd 0.34169 0.33442 0.76656 0.0
C243 C 0.38156 0.27397 0.77137 0.0
O244 O 0.29403 0.31583 0.76913 0.0
O245 O 0.31113 0.31231 0.74702 0.0
O246 O 0.34091 0.38638 0.76929 0.0
C247 C 0.29037 0.30771 0.75585 0.0
O248 O 0.35934 0.26272 0.77735 0.0
C249 C 0.35235 0.39203 0.75686 0.0
O250 O 0.3817 0.30027 0.76715 0.0
O251 O 0.35858 0.37079 0.74848 0.0
C252 C 0.89081 0.08492 0.065 0.0
O253 O 0.91345 0.06963 0.06611 0.0
Cd254 Cd 0.94307 0.05525 0.04556 0.0
O255 O 0.88196 0.09346 0.05234 0.0
Cd256 Cd 0.89517 0.08986 0.02575 0.0
C257 C 0.9598 0.1228 0.0321 0.0
O258 O 0.91048 0.04028 0.02669 0.0
O259 O 0.92104 0.06223 0.00634 0.0
O260 O 0.84506 0.0826 0.01857 0.0
C261 C 0.92148 0.03901 0.01385 0.0
O262 O 0.96834 0.09915 0.03788 0.0
C263 C 0.84308 0.10532 0.01074 0.0
O264 O 0.93386 0.1259 0.0277 0.0
O265 O 0.86547 0.12101 0.00977 0.0
C266 C 0.14059 0.64986 0.31782 0.0
O267 O 0.14547 0.67688 0.31793 0.0
Cd268 Cd 0.14507 0.7078 0.29703 0.0
O269 O 0.13494 0.63639 0.30577 0.0
Cd270 Cd 0.13238 0.64964 0.27873 0.0
C271 C 0.07642 0.6954 0.28459 0.0
O272 O 0.17465 0.67906 0.28128 0.0
O273 O 0.15506 0.68212 0.2598 0.0
O274 O 0.14549 0.5987 0.27427 0.0
C275 C 0.17591 0.68868 0.26822 0.0
O276 O 0.09428 0.7135 0.28996 0.0
C277 C 0.1333 0.5976 0.26164 0.0
O278 O 0.08468 0.67045 0.28047 0.0
O279 O 0.12037 0.62019 0.25727 0.0
C280 C 0.58836 0.09776 0.91662 0.0
O281 O 0.56161 0.09208 0.91714 0.0
Cd282 Cd 0.53325 0.09569 0.93943 0.0
O283 O 0.60187 0.10546 0.92829 0.0
Cd284 Cd 0.59304 0.11442 0.9549 0.0
C285 C 0.54354 0.16722 0.94722 0.0
O286 O 0.56118 0.07361 0.95882 0.0
O287 O 0.56371 0.10404 0.97691 0.0
O288 O 0.64028 0.09585 0.96276 0.0
C289 C 0.55372 0.08045 0.97188 0.0
O290 O 0.52557 0.1477 0.94349 0.0
C291 C 0.64932 0.12007 0.96755 0.0
O292 O 0.56918 0.1606 0.95091 0.0
O293 O 0.63207 0.1413 0.96666 0.0
C294 C 0.15874 0.3311 0.16832 0.0
O295 O 0.16643 0.30542 0.17133 0.0
Cd296 Cd 0.15947 0.28392 0.19516 0.0
O297 O 0.14877 0.34774 0.17838 0.0
Cd298 Cd 0.14095 0.34738 0.20576 0.0
C299 C 0.08739 0.29914 0.20046 0.0
O300 O 0.18185 0.31691 0.21195 0.0
O301 O 0.15147 0.3236 0.22961 0.0
O302 O 0.15822 0.39725 0.20448 0.0
C303 C 0.17508 0.31264 0.22537 0.0
O304 O 0.10694 0.28023 0.19834 0.0
C305 C 0.14097 0.40684 0.21425 0.0
O306 O 0.09389 0.32553 0.20267 0.0
O307 O 0.12365 0.38889 0.22004 0.0
C308 C 0.88386 0.87213 0.4106 0.0
O309 O 0.91079 0.8766 0.40965 0.0
Cd310 Cd 0.94273 0.88024 0.43036 0.0
O311 O 0.87165 0.86971 0.42323 0.0
Cd312 Cd 0.88413 0.87261 0.45006 0.0
C313 C 0.92915 0.81468 0.44725 0.0
O314 O 0.91716 0.91169 0.44644 0.0
O315 O 0.91764 0.89465 0.46866 0.0
O316 O 0.84066 0.90062 0.45379 0.0
C317 C 0.92685 0.91338 0.45952 0.0
O318 O 0.94662 0.83135 0.4405 0.0
C319 C 0.82936 0.8841 0.4634 0.0
O320 O 0.90437 0.82362 0.45126 0.0
O321 O 0.84348 0.86158 0.46694 0.0
C322 C 0.33404 0.64687 0.66615 0.0
O323 O 0.32662 0.67323 0.66718 0.0
Cd324 Cd 0.33609 0.70307 0.68831 0.0
O325 O 0.34563 0.6337 0.67705 0.0
Cd326 Cd 0.35728 0.64388 0.70344 0.0
C327 C 0.40879 0.69037 0.69197 0.0
O328 O 0.31692 0.676 0.70852 0.0
O329 O 0.35036 0.67564 0.72505 0.0
O330 O 0.34187 0.59424 0.70883 0.0
C331 C 0.32588 0.68481 0.721 0.0
O332 O 0.38892 0.70876 0.68943 0.0
C333 C 0.36271 0.58904 0.71759 0.0
O334 O 0.40277 0.66487 0.69622 0.0
O335 O 0.38079 0.60922 0.71967 0.0
C336 C 0.39844 0.08798 0.4229 0.0
O337 O 0.42132 0.0752 0.42701 0.0
Cd338 Cd 0.44069 0.0759 0.45162 0.0
O339 O 0.38294 0.10185 0.43221 0.0
Cd340 Cd 0.38155 0.11258 0.45935 0.0
C341 C 0.44406 0.15015 0.45668 0.0
O342 O 0.40016 0.06593 0.46673 0.0
O343 O 0.39673 0.09699 0.48432 0.0
O344 O 0.32924 0.10829 0.45692 0.0
C345 C 0.4037 0.07168 0.48033 0.0
O346 O 0.45679 0.12581 0.45554 0.0
C347 C 0.3237 0.1283 0.46614 0.0
O348 O 0.41667 0.15172 0.45724 0.0
O349 O 0.34488 0.14147 0.47193 0.0
C350 C 0.63682 0.64035 0.15992 0.0
O351 O 0.64196 0.6673 0.15991 0.0
Cd352 Cd 0.65189 0.69447 0.18187 0.0
O353 O 0.63583 0.62589 0.17194 0.0
Cd354 Cd 0.64068 0.63366 0.19907 0.0
C355 C 0.58669 0.68368 0.19889 0.0
O356 O 0.68286 0.66278 0.19544 0.0
O357 O 0.66844 0.6607 0.21809 0.0
O358 O 0.65526 0.58339 0.1971 0.0
C359 C 0.68693 0.66974 0.20884 0.0
O360 O 0.6044 0.70126 0.19299 0.0
C361 C 0.64428 0.57538 0.20932 0.0
O362 O 0.59389 0.65757 0.20148 0.0
O363 O 0.63186 0.59465 0.21708 0.0
C364 C 0.09493 0.88238 0.91713 0.0
O365 O 0.06992 0.8935 0.91722 0.0
Cd366 Cd 0.03963 0.89344 0.93896 0.0
O367 O 0.10534 0.87107 0.92886 0.0
Cd368 Cd 0.09366 0.86178 0.95509 0.0
C369 C 0.03667 0.81992 0.94598 0.0
O370 O 0.0676 0.90645 0.96017 0.0
O371 O 0.0643 0.87273 0.97669 0.0
O372 O 0.14065 0.87773 0.96363 0.0
C373 C 0.05791 0.89821 0.97265 0.0
O374 O 0.02432 0.84349 0.94233 0.0
C375 C 0.1487 0.85336 0.96859 0.0
O376 O 0.06296 0.8196 0.95008 0.0
O377 O 0.13111 0.83247 0.96726 0.0
C378 C 0.81741 0.33417 0.66234 0.0
O379 O 0.80884 0.30861 0.66499 0.0
Cd380 Cd 0.81557 0.28552 0.68853 0.0
O381 O 0.82834 0.34973 0.67259 0.0
Cd382 Cd 0.83776 0.34793 0.69966 0.0
C383 C 0.88845 0.29693 0.69302 0.0
O384 O 0.79595 0.31896 0.70599 0.0
O385 O 0.8269 0.32473 0.72353 0.0
O386 O 0.82285 0.39858 0.69889 0.0
C387 C 0.80296 0.31439 0.71937 0.0
O388 O 0.86796 0.27899 0.69107 0.0
C389 C 0.84121 0.40709 0.70839 0.0
O390 O 0.88331 0.32353 0.69554 0.0
O391 O 0.85802 0.38818 0.7138 0.0
C392 C 0.3943 0.9061 0.06645 0.0
O393 O 0.41718 0.92097 0.06525 0.0
Cd394 Cd 0.44406 0.92899 0.04319 0.0
O395 O 0.38276 0.89406 0.05515 0.0
Cd396 Cd 0.39194 0.89245 0.02776 0.0
C397 C 0.45655 0.85865 0.03246 0.0
O398 O 0.40665 0.94183 0.02651 0.0
O399 O 0.41472 0.91858 0.00634 0.0
O400 O 0.34088 0.89719 0.02182 0.0
C401 C 0.41538 0.94248 0.01326 0.0
O402 O 0.4669 0.88269 0.03687 0.0
C403 C 0.339 0.87345 0.0148 0.0
O404 O 0.42995 0.85623 0.02926 0.0
O405 O 0.36177 0.85836 0.01382 0.0
C406 C 0.86337 0.63828 0.81483 0.0
O407 O 0.85857 0.66507 0.81676 0.0
Cd408 Cd 0.854 0.69917 0.79709 0.0
O409 O 0.86621 0.62787 0.80178 0.0
Cd410 Cd 0.86416 0.64574 0.77569 0.0
C411 C 0.92028 0.69133 0.78082 0.0
O412 O 0.8216 0.6746 0.78074 0.0
O413 O 0.84028 0.68081 0.75913 0.0
O414 O 0.84948 0.59576 0.77035 0.0
C415 C 0.81974 0.68588 0.768 0.0
O416 O 0.90288 0.7079 0.78769 0.0
C417 C 0.85991 0.59551 0.75732 0.0
O418 O 0.91211 0.66671 0.77615 0.0
O419 O 0.87261 0.61825 0.75299 0.0
C420 C 0.07811 0.07195 0.56049 0.0
O421 O 0.05574 0.05703 0.55777 0.0
Cd422 Cd 0.03033 0.05486 0.53466 0.0
O423 O 0.08989 0.08714 0.55035 0.0
Cd424 Cd 0.08181 0.09633 0.52338 0.0
C425 C 0.01641 0.1271 0.5298 0.0
O426 O 0.06694 0.04728 0.51665 0.0
O427 O 0.06235 0.07943 0.4996 0.0
O428 O 0.13423 0.09771 0.52017 0.0
C429 C 0.06004 0.0532 0.5034 0.0
O430 O 0.00647 0.10167 0.53156 0.0
C431 C 0.13399 0.11949 0.51157 0.0
O432 O 0.04324 0.13129 0.52776 0.0
O433 O 0.10973 0.13115 0.50904 0.0
C434 C 0.63168 0.33981 0.31381 0.0
O435 O 0.6388 0.31357 0.31575 0.0
Cd436 Cd 0.64583 0.27993 0.29602 0.0
O437 O 0.6289 0.35017 0.30076 0.0
Cd438 Cd 0.63474 0.33384 0.27468 0.0
C439 C 0.57945 0.2872 0.27967 0.0
O440 O 0.67755 0.30547 0.27977 0.0
O441 O 0.65898 0.29926 0.25809 0.0
O442 O 0.64956 0.3839 0.26969 0.0
C443 C 0.67947 0.29418 0.26702 0.0
O444 O 0.59694 0.27075 0.28656 0.0
C445 C 0.63784 0.38482 0.25695 0.0
O446 O 0.58747 0.3118 0.27492 0.0
O447 O 0.6246 0.36234 0.25263 0.0
H448 H 0.95906 0.52761 -0.00805 0.0
H449 H 0.93021 0.47578 0.95455 0.0
H450 H 0.95944 0.43492 0.96339 0.0
H451 H 0.03075 0.50356 -0.00848 0.0
H452 H 0.03539 0.50278 0.0114 0.0
H453 H 0.00985 0.52733 0.00319 0.0
H454 H 0.96918 0.50595 0.01952 0.0
H455 H -0.00533 0.48146 0.02789 0.0
H456 H 0.96254 0.46754 0.0192 0.0
H457 H -0.00556 0.40141 0.97463 0.0
H458 H 0.03254 0.37594 0.98845 0.0
H459 H 0.03929 0.44863 0.01886 0.0
C460 C 0.95848 0.50744 0.98583 0.0
C461 C 0.94237 0.50481 0.97258 0.0
C462 C 0.94246 0.47827 0.96471 0.0
C463 C 0.95893 0.45489 0.96965 0.0
C464 C 0.97514 0.45834 0.98251 0.0
C465 C 0.97498 0.48379 -0.00941 0.0
C466 C -0.00427 0.48209 0.00358 0.0
C467 C 0.01932 0.50532 0.00234 0.0
C468 C 0.97956 0.48439 0.01843 0.0
C469 C 0.00793 0.45199 0.00129 0.0
C470 C -0.00443 0.4387 0.98911 0.0
C471 C 0.00408 0.41139 0.98431 0.0
C472 C 0.02583 0.39717 -0.00781 0.0
C473 C 0.03879 0.41026 0.00475 0.0
C474 C 0.02959 0.43799 0.00937 0.0
H475 H 0.69233 0.69965 0.23502 0.0
H476 H 0.73142 0.68834 0.1916 0.0
H477 H 0.76715 0.72608 0.19759 0.0
H478 H 0.70005 0.77668 0.23648 0.0
H479 H 0.70795 0.77765 0.25608 0.0
H480 H 0.68583 0.74916 0.2486 0.0
H481 H 0.72031 0.7107 0.2597 0.0
H482 H 0.74237 0.73907 0.26734 0.0
H483 H 0.75817 0.7122 0.25533 0.0
H484 H 0.79872 0.76474 0.20829 0.0
H485 H 0.8246 0.80123 0.2233 0.0
H486 H 0.76379 0.78836 0.25931 0.0
C487 C 0.70855 0.70495 0.22683 0.0
C488 C 0.7092 0.69105 0.21287 0.0
C489 C 0.73058 0.69875 0.20238 0.0
C490 C 0.75092 0.72017 0.20565 0.0
C491 C 0.74945 0.73377 0.21943 0.0
C492 C 0.72887 0.72646 0.22986 0.0
C493 C 0.73186 0.74458 0.24377 0.0
C494 C 0.70481 0.76312 0.24638 0.0
C495 C 0.73858 0.7255 0.25733 0.0
C496 C 0.75742 0.76309 0.23955 0.0
C497 C 0.76726 0.75651 0.22547 0.0
C498 C 0.79116 0.7702 0.21931 0.0
C499 C 0.80567 0.79089 0.22789 0.0
C500 C 0.79609 0.79769 0.24241 0.0
C501 C 0.77142 0.78386 0.24818 0.0
H502 H 0.52017 0.45263 0.48974 0.0
H503 H 0.53266 0.49375 0.44687 0.0
H504 H 0.50351 0.53521 0.45501 0.0
H505 H 0.44699 0.4738 0.49415 0.0
H506 H 0.44946 0.48012 0.51387 0.0
H507 H 0.47288 0.45413 0.50514 0.0
H508 H 0.51747 0.48096 0.51564 0.0
H509 H 0.49416 0.50697 0.52446 0.0
H510 H 0.52194 0.519 0.51193 0.0
H511 H 0.47187 0.57117 0.46707 0.0
H512 H 0.4393 0.60019 0.48273 0.0
H513 H 0.44639 0.53614 0.51783 0.0
C514 C 0.51701 0.47053 0.48217 0.0
C515 C 0.52867 0.47 0.46769 0.0
C516 C 0.52386 0.49367 0.45801 0.0
C517 C 0.50739 0.51737 0.46252 0.0
C518 C 0.49584 0.5171 0.47675 0.0
C519 C 0.5004 0.49442 0.48647 0.0
C520 C 0.48456 0.49932 0.50097 0.0
C521 C 0.46214 0.47542 0.50368 0.0
C522 C 0.5058 0.50171 0.51402 0.0
C523 C 0.47024 0.52811 0.49775 0.0
C524 C 0.4772 0.53798 0.48374 0.0
C525 C 0.46633 0.5638 0.47811 0.0
C526 C 0.44782 0.58009 0.48707 0.0
C527 C 0.44034 0.57043 0.50148 0.0
C528 C 0.45175 0.54409 0.50686 0.0
H529 H 0.75545 0.28265 0.71163 0.0
H530 H 0.814 0.29984 0.74823 0.0
H531 H 0.78845 0.26376 0.76351 0.0
H532 H 0.69159 0.273 0.73379 0.0
H533 H 0.67751 0.24439 0.72228 0.0
H534 H 0.70032 0.27174 0.71428 0.0
H535 H 0.73475 0.23189 0.70454 0.0
H536 H 0.71218 0.20442 0.71261 0.0
H537 H 0.74984 0.20614 0.7174 0.0
H538 H 0.75697 0.22603 0.77471 0.0
H539 H 0.72019 0.19012 0.78163 0.0
H540 H 0.68225 0.19689 0.73766 0.0
C541 C 0.7628 0.27896 0.72289 0.0
C542 C 0.78669 0.29404 0.72877 0.0
C543 C 0.79573 0.28852 0.74352 0.0
C544 C 0.78142 0.26804 0.75226 0.0
C545 C 0.75818 0.25328 0.74607 0.0
C546 C 0.74883 0.25853 0.73175 0.0
C547 C 0.72323 0.23973 0.7278 0.0
C548 C 0.69659 0.25833 0.72434 0.0
C549 C 0.73045 0.21934 0.71482 0.0
C550 C 0.71958 0.22317 0.74217 0.0
C551 C 0.74004 0.2313 0.75252 0.0
C552 C 0.74085 0.21945 0.76671 0.0
C553 C 0.71988 0.19906 0.77052 0.0
C554 C 0.6984 0.19072 0.76017 0.0
C555 C 0.69852 0.2027 0.74575 0.0
H556 H 0.94565 0.45445 0.51663 0.0
H557 H 0.95241 0.3839 0.48495 0.0
H558 H -0.00858 0.40981 0.47198 0.0
H559 H 0.95528 0.51074 0.49067 0.0
H560 H 0.97589 0.5335 0.50298 0.0
H561 H 0.95011 0.5084 0.51048 0.0
H562 H 0.99004 0.48548 0.52682 0.0
H563 H 0.016 0.51048 0.51932 0.0
H564 H 0.02244 0.4721 0.51818 0.0
H565 H 0.02757 0.44411 0.46173 0.0
H566 H 0.05739 0.48562 0.45415 0.0
H567 H 0.02709 0.53416 0.49239 0.0
C568 C 0.95555 0.44432 0.50706 0.0
C569 C 0.94611 0.41714 0.50181 0.0
C570 C 0.95935 0.40472 0.48916 0.0
C571 C 0.9816 0.41919 0.48176 0.0
C572 C 0.99032 0.446 0.48718 0.0
C573 C 0.9777 0.45851 0.49951 0.0
C574 C 0.99 0.48827 0.50253 0.0
C575 C 0.96642 0.51159 0.5016 0.0
C576 C 0.00555 0.48912 0.51761 0.0
C577 C 0.01111 0.49074 0.48979 0.0
C578 C 0.01115 0.46598 0.48118 0.0
C579 C 0.02792 0.46353 0.46844 0.0
C580 C 0.04475 0.48723 0.46423 0.0
C581 C 0.04456 0.51307 0.4727 0.0
C582 C 0.02788 0.5146 0.48578 0.0
H583 H 0.72837 0.79132 0.71636 0.0
H584 H 0.66455 0.79463 0.75155 0.0
H585 H 0.69593 0.76443 0.76737 0.0
H586 H 0.74731 0.71826 0.72134 0.0
H587 H 0.78502 0.7233 0.71738 0.0
H588 H 0.75872 0.74717 0.70928 0.0
H589 H 0.78518 0.79144 0.72052 0.0
H590 H 0.81169 0.76772 0.72858 0.0
H591 H 0.79213 0.79266 0.74021 0.0
H592 H 0.73296 0.73207 0.77881 0.0
H593 H 0.77326 0.69956 0.78517 0.0
H594 H 0.8124 0.71666 0.74227 0.0
C595 C 0.72118 0.78607 0.72748 0.0
C596 C 0.69412 0.79537 0.73278 0.0
C597 C 0.68526 0.78772 0.7473 0.0
C598 C 0.70293 0.77064 0.75636 0.0
C599 C 0.72929 0.76143 0.75071 0.0
C600 C 0.73843 0.7689 0.73662 0.0
C601 C 0.76706 0.75502 0.73293 0.0
C602 C 0.76434 0.73473 0.71944 0.0
C603 C 0.79039 0.77809 0.73042 0.0
C604 C 0.77242 0.73826 0.74707 0.0
C605 C 0.75049 0.74242 0.75723 0.0
C606 C 0.75036 0.72876 0.77099 0.0
C607 C 0.7733 0.71031 0.77448 0.0
C608 C 0.79593 0.70563 0.76421 0.0
C609 C 0.79543 0.71987 0.75035 0.0
H610 H 0.44961 0.45252 0.98149 0.0
H611 H 0.43174 0.49865 0.9405 0.0
H612 H 0.46455 0.53766 0.94826 0.0
H613 H 0.45482 0.51654 0.00524 0.0
H614 H 0.48371 0.50164 0.01622 0.0
H615 H 0.4576 0.47797 0.00777 0.0
H616 H 0.49882 0.44984 -0.00522 0.0
H617 H 0.52501 0.47358 0.00307 0.0
H618 H 0.52395 0.46913 0.98318 0.0
H619 H 0.50118 0.57026 0.95966 0.0
H620 H 0.53739 0.59591 0.97486 0.0
H621 H 0.53115 0.52895 0.0085 0.0
C622 C 0.45231 0.47101 0.97425 0.0
C623 C 0.43816 0.47255 0.9604 0.0
C624 C 0.44239 0.49701 0.95117 0.0
C625 C 0.461 0.51928 0.95546 0.0
C626 C 0.4751 0.51684 0.96903 0.0
C627 C 0.47082 0.4935 0.97837 0.0
C628 C 0.48913 0.49597 -0.00777 0.0
C629 C 0.47018 0.49817 0.00619 0.0
C630 C 0.51049 0.47063 -0.00663 0.0
C631 C 0.50451 0.52417 0.98912 0.0
C632 C 0.49613 0.53583 0.97568 0.0
C633 C 0.5078 0.56149 0.97027 0.0
C634 C 0.52839 0.57584 0.97894 0.0
C635 C 0.53698 0.56446 -0.00715 0.0
C636 C 0.52492 0.53823 -0.00207 0.0
H637 H 0.76961 0.18786 0.21543 0.0
H638 H 0.83259 0.18219 0.25098 0.0
H639 H 0.8013 0.21229 0.26693 0.0
H640 H 0.75207 0.26068 0.22084 0.0
H641 H 0.71433 0.25662 0.21661 0.0
H642 H 0.74022 0.2323 0.20853 0.0
H643 H 0.71255 0.18842 0.21932 0.0
H644 H 0.6864 0.21261 0.22735 0.0
H645 H 0.7051 0.187 0.23896 0.0
H646 H 0.76473 0.24551 0.27832 0.0
H647 H 0.72519 0.27912 0.2845 0.0
H648 H 0.68672 0.26355 0.24125 0.0
C649 C 0.77661 0.19251 0.22666 0.0
C650 C 0.80345 0.18265 0.23201 0.0
C651 C 0.81205 0.18952 0.24669 0.0
C652 C 0.79443 0.20654 0.25583 0.0
C653 C 0.76835 0.21642 0.25009 0.0
C654 C 0.75941 0.20956 0.23587 0.0
C655 C 0.7312 0.22418 0.23207 0.0
C656 C 0.73468 0.24466 0.21872 0.0
C657 C 0.70741 0.20171 0.22927 0.0
C658 C 0.72591 0.24077 0.24628 0.0
C659 C 0.74745 0.23583 0.25658 0.0
C660 C 0.74762 0.24938 0.27039 0.0
C661 C 0.72512 0.26847 0.27378 0.0
C662 C 0.70291 0.2739 0.26335 0.0
C663 C 0.70336 0.25978 0.24945 0.0
H664 H 0.28255 0.2766 0.73011 0.0
H665 H 0.24306 0.29628 0.77266 0.0
H666 H 0.20376 0.26217 0.76709 0.0
H667 H 0.21587 0.26904 0.70925 0.0
H668 H 0.2292 0.23952 0.69811 0.0
H669 H 0.2538 0.26629 0.70521 0.0
H670 H 0.28395 0.22576 0.7176 0.0
H671 H 0.25927 0.19889 0.71068 0.0
H672 H 0.26674 0.2011 0.7303 0.0
H673 H 0.16965 0.22552 0.75743 0.0
H674 H 0.14098 0.18971 0.74359 0.0
H675 H 0.2025 0.19292 0.7073 0.0
C676 C 0.26545 0.27397 0.73817 0.0
C677 C 0.2658 0.2891 0.75181 0.0
C678 C 0.2432 0.28491 0.76214 0.0
C679 C 0.22082 0.26555 0.7591 0.0
C680 C 0.22139 0.25055 0.7457 0.0
C681 C 0.24296 0.2546 0.73534 0.0
C682 C 0.23849 0.23541 0.72187 0.0
C683 C 0.23407 0.25366 0.70778 0.0
C684 C 0.26361 0.21402 0.72001 0.0
C685 C 0.21105 0.21998 0.72632 0.0
C686 C 0.20165 0.22907 0.74011 0.0
C687 C 0.17672 0.21823 0.7466 0.0
C688 C 0.16063 0.19787 0.73866 0.0
C689 C 0.16954 0.18854 0.72439 0.0
C690 C 0.19529 0.19951 0.71823 0.0
H691 H 0.18479 0.71393 0.24089 0.0
H692 H 0.21887 0.70928 0.28578 0.0
H693 H 0.25773 0.7428 0.27893 0.0
H694 H 0.25264 0.71499 0.22255 0.0
H695 H 0.24172 0.74009 0.20831 0.0
H696 H 0.21545 0.71683 0.21686 0.0
H697 H 0.18489 0.76158 0.22411 0.0
H698 H 0.21113 0.785 0.2156 0.0
H699 H 0.20116 0.79029 0.23476 0.0
H700 H 0.2939 0.77459 0.26728 0.0
H701 H 0.32612 0.80296 0.25117 0.0
H702 H 0.26896 0.78788 0.21375 0.0
C703 C 0.20033 0.72015 0.24928 0.0
C704 C 0.1988 0.70905 0.26387 0.0
C705 C 0.21961 0.71752 0.27453 0.0
C706 C 0.24173 0.73662 0.27078 0.0
C707 C 0.24272 0.74712 0.25632 0.0
C708 C 0.22265 0.73927 0.24572 0.0
C709 C 0.22941 0.75303 0.23085 0.0
C710 C 0.23515 0.72985 0.21894 0.0
C711 C 0.2052 0.77371 0.22605 0.0
C712 C 0.25663 0.76943 0.23477 0.0
C713 C 0.26376 0.76579 0.24955 0.0
C714 C 0.28849 0.77783 0.25571 0.0
C715 C 0.30666 0.79384 0.24647 0.0
C716 C 0.29996 0.79765 0.23125 0.0
C717 C 0.27444 0.78556 0.22539 0.0
H718 H 0.29708 0.19641 0.24331 0.0
H719 H 0.25327 0.18038 0.2851 0.0
H720 H 0.21635 0.21648 0.27847 0.0
H721 H 0.28582 0.27225 0.24251 0.0
H722 H 0.27995 0.27411 0.22274 0.0
H723 H 0.30235 0.24602 0.23038 0.0
H724 H 0.27061 0.20697 0.21776 0.0
H725 H 0.24829 0.23495 0.20994 0.0
H726 H 0.23231 0.20683 0.22106 0.0
H727 H 0.1855 0.25586 0.26789 0.0
H728 H 0.16089 0.29363 0.25321 0.0
H729 H 0.22464 0.28372 0.21829 0.0
C730 C 0.27954 0.20025 0.25099 0.0
C731 C 0.27805 0.1856 0.26472 0.0
C732 C 0.25483 0.19132 0.2745 0.0
C733 C 0.23378 0.21184 0.27086 0.0
C734 C 0.23622 0.22634 0.25738 0.0
C735 C 0.25832 0.22063 0.24753 0.0
C736 C 0.25608 0.23946 0.23383 0.0
C737 C 0.28263 0.25912 0.23228 0.0
C738 C 0.25154 0.22094 0.21982 0.0
C739 C 0.22939 0.25677 0.23759 0.0
C740 C 0.2183 0.24892 0.25123 0.0
C741 C 0.19387 0.2621 0.25714 0.0
C742 C 0.18013 0.28359 0.24875 0.0
C743 C 0.19084 0.29156 0.23461 0.0
C744 C 0.21594 0.27809 0.22906 0.0
H745 H 0.19856 0.79574 0.73805 0.0
H746 H 0.24914 0.82596 0.77555 0.0
H747 H 0.28888 0.79362 0.76818 0.0
H748 H 0.21785 0.72329 0.74088 0.0
H749 H 0.2196 0.71635 0.72119 0.0
H750 H 0.19633 0.74434 0.72819 0.0
H751 H 0.22119 0.78201 0.71119 0.0
H752 H 0.24427 0.75402 0.70395 0.0
H753 H 0.25976 0.78618 0.71197 0.0
H754 H 0.32093 0.75466 0.75839 0.0
H755 H 0.34482 0.71395 0.74561 0.0
H756 H 0.27352 0.70898 0.71447 0.0
C757 C 0.21829 0.79612 0.74447 0.0
C758 C 0.22082 0.81341 0.75734 0.0
C759 C 0.24678 0.81291 0.76562 0.0
C760 C 0.26946 0.7946 0.76154 0.0
C761 C 0.2659 0.77704 0.74911 0.0
C762 C 0.24114 0.77788 0.74058 0.0
C763 C 0.24221 0.75562 0.72824 0.0
C764 C 0.21753 0.7336 0.72972 0.0
C765 C 0.24184 0.77034 0.71293 0.0
C766 C 0.27113 0.74178 0.73138 0.0
C767 C 0.28448 0.75452 0.74344 0.0
C768 C 0.31088 0.74473 0.74881 0.0
C769 C 0.3242 0.72149 0.74154 0.0
C770 C 0.31108 0.70837 0.72903 0.0
C771 C 0.28415 0.71867 0.72396 0.0
H772 H 0.52097 0.95001 0.49582 0.0
H773 H 0.53416 0.98985 0.53899 0.0
H774 H 0.49431 0.02372 0.534 0.0
H775 H 0.50605 0.01543 0.47633 0.0
H776 H 0.47919 -0.0005 0.4644 0.0
H777 H 0.50789 0.97753 0.4717 0.0
H778 H 0.4703 0.94226 0.48285 0.0
H779 H 0.44146 0.96432 0.4757 0.0
H780 H 0.44302 0.95596 0.49524 0.0
H781 H 0.45401 0.05394 0.52419 0.0
H782 H 0.41816 0.08089 0.5094 0.0
H783 H 0.43129 0.02158 0.47259 0.0
C784 C 0.51542 0.96582 0.50423 0.0
C785 C 0.5306 0.96727 0.5178 0.0
C786 C 0.52283 0.98837 0.5285 0.0
C787 C 0.50013 0.0076 0.52581 0.0
C788 C 0.48544 0.00545 0.51238 0.0
C789 C 0.49286 0.98527 0.50171 0.0
C790 C 0.47442 0.98841 0.48794 0.0
C791 C 0.493 -0.00434 0.47429 0.0
C792 C 0.45622 0.96111 0.48528 0.0
C793 C 0.45576 0.01377 0.49247 0.0
C794 C 0.46225 0.02306 0.50667 0.0
C795 C 0.4486 0.04681 0.51309 0.0
C796 C 0.42826 0.06193 0.50461 0.0
C797 C 0.42194 0.05331 0.48987 0.0
C798 C 0.43547 0.02854 0.48388 0.0
H799 H 0.0368 0.95195 0.96561 0.0
H800 H 0.03147 0.88389 -0.0013 0.0
H801 H -0.00528 0.9119 0.01228 0.0
H802 H 0.02901 0.01162 -0.00892 0.0
H803 H 0.00769 0.03297 0.97844 0.0
H804 H 0.03356 0.00749 0.97131 0.0
H805 H -0.00664 0.98278 0.95586 0.0
H806 H 0.96731 0.00805 0.96305 0.0
H807 H 0.96148 0.96973 0.96511 0.0
H808 H 0.95859 0.94682 0.02218 0.0
H809 H 0.92686 0.98775 0.02852 0.0
H810 H 0.95551 0.03331 0.98903 0.0
C811 C 0.02798 0.94299 0.97574 0.0
C812 C 0.03697 0.91573 0.9811 0.0
C813 C 0.02491 0.90473 -0.00561 0.0
C814 C 0.00397 0.92043 0.00217 0.0
C815 C -0.00464 0.94707 -0.0035 0.0
C816 C 0.00707 0.95838 0.98365 0.0
C817 C -0.00578 0.98769 0.98007 0.0
C818 C 0.01751 0.01133 0.98024 0.0
C819 C 0.97814 0.987 0.96514 0.0
C820 C 0.97354 0.99108 -0.00705 0.0
C821 C 0.97448 0.96733 0.00225 0.0
C822 C 0.95763 0.96555 0.01499 0.0
C823 C 0.93965 0.98889 0.01848 0.0
C824 C 0.9387 0.0137 0.00926 0.0
C825 C 0.95565 0.01458 -0.00375 0.0
H826 H 0.53207 0.02703 0.96484 0.0
H827 H 0.52483 0.0968 -0.00308 0.0
H828 H 0.48614 0.07028 0.00982 0.0
H829 H 0.45621 0.00922 0.96289 0.0
H830 H 0.46235 0.9708 0.96166 0.0
H831 H 0.48881 -0.00432 0.95453 0.0
H832 H 0.52796 0.9723 0.97118 0.0
H833 H 0.50171 0.94721 0.97825 0.0
H834 H 0.52196 0.96956 -0.00909 0.0
H835 H 0.44895 0.03644 0.01929 0.0
H836 H 0.41793 -0.00452 0.0262 0.0
H837 H 0.44962 0.94676 0.98831 0.0
C838 C 0.52226 0.03676 0.97457 0.0
C839 C 0.53134 0.06405 0.97988 0.0
C840 C 0.51823 0.07596 -0.00731 0.0
C841 C 0.49613 0.06111 2e-05 0.0
C842 C 0.48754 0.03438 -0.00556 0.0
C843 C 0.50033 0.02214 0.98209 0.0
C844 C 0.48789 -0.00749 0.9788 0.0
C845 C 0.47292 0.99204 0.96356 0.0
C846 C 0.51127 0.96901 0.97985 0.0
C847 C 0.46626 0.98992 -0.00868 0.0
C848 C 0.46625 0.01449 8e-05 0.0
C849 C 0.4487 0.0171 0.01252 0.0
C850 C 0.43115 -0.0063 0.01633 0.0
C851 C 0.43139 0.96792 0.00779 0.0
C852 C 0.44881 0.96626 -0.00504 0.0
H853 H 0.03342 0.00298 0.51188 0.0
H854 H 0.05151 0.05686 0.47355 0.0
H855 H 0.02185 0.02468 0.45789 0.0
H856 H 0.03135 0.93286 0.49204 0.0
H857 H 0.00193 0.91956 0.50316 0.0
H858 H 0.0273 0.94482 0.51099 0.0
H859 H 0.98529 0.97921 0.51786 0.0
H860 H 0.95983 0.95423 0.50995 0.0
H861 H 0.96086 0.99114 0.50354 0.0
H862 H 0.98769 0.98947 0.4469 0.0
H863 H 0.95091 0.95297 0.44098 0.0
H864 H 0.95362 0.92213 0.48653 0.0
C865 C 0.03168 0.00758 0.50011 0.0
C866 C 0.0449 0.03224 0.49386 0.0
C867 C 0.04161 0.03799 0.47851 0.0
C868 C 0.02488 0.01983 0.46954 0.0
C869 C 0.01157 -0.00392 0.47611 0.0
C870 C 0.0148 0.98982 0.49102 0.0
C871 C -0.00354 0.96414 0.49549 0.0
C872 C 0.0154 0.93885 0.50073 0.0
C873 C 0.9743 0.97271 0.50741 0.0
C874 C 0.98198 0.95734 0.48081 0.0
C875 C -0.00871 0.97589 0.46978 0.0
C876 C 0.98042 0.97463 0.4554 0.0
C877 C 0.95945 0.95386 0.45217 0.0
C878 C 0.94941 0.93467 0.4633 0.0
C879 C 0.96097 0.93641 0.47779 0.0
H880 H 0.94714 0.18061 0.03092 0.0
H881 H 0.01859 0.12011 0.03114 0.0
H882 H 0.05289 0.16095 0.03045 0.0
H883 H 0.97955 0.23498 0.0069 0.0
H884 H 0.96469 0.26477 0.0173 0.0
H885 H 0.94588 0.23073 0.01662 0.0
H886 H 0.94574 0.22865 0.04539 0.0
H887 H 0.96461 0.2626 0.04617 0.0
H888 H 0.97935 0.23127 0.05534 0.0
H889 H 0.07941 0.20864 0.03013 0.0
H890 H 0.09598 0.25943 0.03165 0.0
H891 H 0.00704 0.28825 0.03303 0.0
C892 C 0.96999 0.17595 0.0306 0.0
C893 C 0.98022 0.14721 0.03095 0.0
C894 C 0.0103 0.14199 0.03085 0.0
C895 C 0.02993 0.16503 0.03041 0.0
C896 C 0.01914 0.19314 0.03023 0.0
C897 C 0.98987 0.19867 0.03041 0.0
C898 C 0.98386 0.23081 0.03107 0.0
C899 C 0.96753 0.24091 0.01714 0.0
C900 C 0.96743 0.23879 0.04534 0.0
C901 C 0.0143 0.24247 0.03134 0.0
C902 C 0.03437 0.22047 0.03065 0.0
C903 C 0.06388 0.22606 0.03068 0.0
C904 C 0.07309 0.25494 0.03153 0.0
C905 C 0.05283 0.27775 0.03256 0.0
C906 C 0.02308 0.27128 0.0324 0.0
H907 H 0.05175 0.74928 0.28677 0.0
H908 H 0.03129 0.65857 0.27998 0.0
H909 H 0.97965 0.67072 0.27868 0.0
H910 H -0.00957 0.76684 0.30949 0.0
H911 H 0.98535 0.80208 0.30136 0.0
H912 H 0.02079 0.78629 0.30203 0.0
H913 H 0.02565 0.7923 0.27351 0.0
H914 H 0.99026 0.80818 0.27276 0.0
H915 H -0.00145 0.77705 0.26149 0.0
H916 H 0.93032 0.6924 0.27858 0.0
H917 H 0.88657 0.72268 0.27817 0.0
H918 H 0.9392 0.79946 0.28413 0.0
C919 C 0.03642 0.73196 0.28504 0.0
C920 C 0.04556 0.70297 0.28352 0.0
C921 C 0.02481 0.68097 0.28114 0.0
C922 C -0.00459 0.68762 0.28044 0.0
C923 C 0.98713 0.71638 0.28202 0.0
C924 C 0.00699 0.73824 0.28415 0.0
C925 C -0.0076 0.76747 0.28514 0.0
C926 C -0.00245 0.78148 0.30041 0.0
C927 C 0.00231 0.78742 0.27247 0.0
C928 C 0.96125 0.75858 0.28322 0.0
C929 C 0.95868 0.72899 0.28157 0.0
C930 C 0.93203 0.71562 0.27982 0.0
C931 C 0.90731 0.733 0.27964 0.0
C932 C 0.90947 0.76344 0.28106 0.0
C933 C 0.93685 0.77628 0.28292 0.0
H934 H 0.48928 0.69248 0.53705 0.0
H935 H 0.4001 0.72092 0.53711 0.0
H936 H 0.41616 0.77168 0.53715 0.0
H937 H 0.51701 0.74826 0.56094 0.0
H938 H 0.55031 0.75232 0.55088 0.0
H939 H 0.53197 0.71802 0.55092 0.0
H940 H 0.53112 0.71823 0.52214 0.0
H941 H 0.54938 0.7526 0.52201 0.0
H942 H 0.51547 0.74855 0.51248 0.0
H943 H 0.44123 0.81887 0.53804 0.0
H944 H 0.47414 0.86053 0.53896 0.0
H945 H 0.54758 0.80247 0.53714 0.0
C946 C 0.47315 0.7094 0.53712 0.0
C947 C 0.4434 0.70272 0.53712 0.0
C948 C 0.42298 0.72548 0.53707 0.0
C949 C 0.43187 0.75439 0.53711 0.0
C950 C 0.46128 0.76023 0.53704 0.0
C951 C 0.48166 0.73847 0.53696 0.0
C952 C 0.51192 0.75088 0.53675 0.0
C953 C 0.52879 0.74183 0.5507 0.0
C954 C 0.52791 0.74203 0.5225 0.0
C955 C 0.50529 0.78299 0.53686 0.0
C956 C 0.4759 0.78777 0.53709 0.0
C957 C 0.46428 0.81546 0.53777 0.0
C958 C 0.48318 0.83896 0.53832 0.0
C959 C 0.5134 0.83473 0.53806 0.0
C960 C 0.52458 0.80634 0.53716 0.0
H961 H 0.55006 0.24249 0.77662 0.0
H962 H 0.52913 0.15136 0.77196 0.0
H963 H 0.47805 0.16385 0.76851 0.0
H964 H 0.48813 0.26252 0.79707 0.0
H965 H 0.48355 0.29704 0.78809 0.0
H966 H 0.51885 0.28119 0.78949 0.0
H967 H 0.52479 0.28466 0.76092 0.0
H968 H 0.48945 0.30053 0.75943 0.0
H969 H 0.49812 0.26843 0.74898 0.0
H970 H 0.42901 0.18546 0.76764 0.0
H971 H 0.38501 0.21548 0.76819 0.0
H972 H 0.43748 0.29276 0.77205 0.0
C973 C 0.53477 0.22519 0.77476 0.0
C974 C 0.54365 0.19595 0.77458 0.0
C975 C 0.52293 0.17394 0.7721 0.0
C976 C 0.49382 0.18078 0.77012 0.0
C977 C 0.48576 0.20975 0.77047 0.0
C978 C 0.50559 0.23165 0.77259 0.0
C979 C 0.49103 0.26098 0.77275 0.0
C980 C 0.49566 0.27632 0.78774 0.0
C981 C 0.50147 0.27976 0.75974 0.0
C982 C 0.45989 0.25203 0.77071 0.0
C983 C 0.45737 0.22236 0.76944 0.0
C984 C 0.43069 0.20876 0.7684 0.0
C985 C 0.40585 0.22594 0.76876 0.0
C986 C 0.40792 0.25639 0.76998 0.0
C987 C 0.43532 0.26957 0.77079 0.0
H988 H 0.98355 0.79196 0.44733 0.0
H989 H 0.89365 0.76846 0.45259 0.0
H990 H 0.90758 0.71697 0.45455 0.0
H991 H 0.00419 0.73319 0.42504 0.0
H992 H 0.03912 0.7287 0.43348 0.0
H993 H 0.02221 0.76372 0.43335 0.0
H994 H 0.02674 0.76667 0.46201 0.0
H995 H 0.04384 0.73169 0.46222 0.0
H996 H 0.01212 0.73803 0.47329 0.0
H997 H 0.93115 0.66773 0.45347 0.0
H998 H 0.96285 0.62486 0.45163 0.0
H999 H 0.03738 0.68109 0.44847 0.0
C1000 C 0.96679 0.77603 0.44904 0.0
C1001 C 0.93749 0.78419 0.44976 0.0
C1002 C 0.91624 0.7627 0.45208 0.0
C1003 C 0.92394 0.73341 0.45316 0.0
C1004 C 0.953 0.72608 0.45214 0.0
C1005 C 0.97412 0.74683 0.45037 0.0
C1006 C 0.00376 0.73332 0.44942 0.0
C1007 C 0.01815 0.74014 0.43443 0.0
C1008 C 0.02273 0.743 0.46252 0.0
C1009 C -0.004 0.70164 0.45061 0.0
C1010 C 0.96661 0.69787 0.45212 0.0
C1011 C 0.95422 0.67043 0.45253 0.0
C1012 C 0.97237 0.64624 0.45141 0.0
C1013 C 0.00256 0.64968 0.45005 0.0
C1014 C 0.01443 0.67778 0.44976 0.0
H1015 H 0.54407 0.79652 0.69278 0.0
H1016 H 0.59813 0.72026 0.68848 0.0
H1017 H 0.55477 0.68979 0.68649 0.0
H1018 H 0.49031 0.76476 0.71517 0.0
H1019 H 0.4607 0.78354 0.70652 0.0
H1020 H 0.49596 0.79968 0.70676 0.0
H1021 H 0.49468 0.80438 0.67808 0.0
H1022 H 0.45936 0.78827 0.67775 0.0
H1023 H 0.48806 0.77274 0.66688 0.0
H1024 H 0.506 0.66725 0.68676 0.0
H1025 H 0.45465 0.65415 0.68846 0.0
H1026 H 0.432 0.74503 0.6918 0.0
C1027 C 0.54683 0.77344 0.6913 0.0
C1028 C 0.57455 0.7608 0.69081 0.0
C1029 C 0.57716 0.73049 0.68886 0.0
C1030 C 0.55266 0.71297 0.68772 0.0
C1031 C 0.5257 0.7261 0.68839 0.0
C1032 C 0.5226 0.75564 0.69003 0.0
C1033 C 0.49113 0.76417 0.6908 0.0
C1034 C 0.48412 0.7789 0.7057 0.0
C1035 C 0.48283 0.78353 0.67759 0.0
C1036 C 0.47705 0.73472 0.68964 0.0
C1037 C 0.49742 0.71309 0.68823 0.0
C1038 C 0.48982 0.684 0.6877 0.0
C1039 C 0.46061 0.67678 0.68873 0.0
C1040 C 0.43933 0.69858 0.69019 0.0
C1041 C 0.44773 0.72793 0.69049 0.0
H1042 H 0.48893 0.19 0.94423 0.0
H1043 H 0.57867 0.21428 0.94988 0.0
H1044 H 0.56498 0.2657 0.94927 0.0
H1045 H 0.46995 0.24671 0.91907 0.0
H1046 H 0.43462 0.25239 0.92683 0.0
H1047 H 0.45125 0.21728 0.92796 0.0
H1048 H 0.44496 0.21768 0.95656 0.0
H1049 H 0.42833 0.25283 0.95552 0.0
H1050 H 0.45937 0.24736 0.96722 0.0
H1051 H 0.54233 0.31416 0.94699 0.0
H1052 H 0.51167 0.35723 0.94395 0.0
H1053 H 0.43613 0.30223 0.94065 0.0
C1054 C 0.5057 0.20612 0.94537 0.0
C1055 C 0.5349 0.19805 0.94709 0.0
C1056 C 0.55615 0.21986 0.9486 0.0
C1057 C 0.54861 0.24916 0.94825 0.0
C1058 C 0.5197 0.25636 0.94652 0.0
C1059 C 0.49852 0.23556 0.94518 0.0
C1060 C 0.46905 0.2493 0.9434 0.0
C1061 C 0.45543 0.24092 0.92842 0.0
C1062 C 0.44926 0.24132 0.95646 0.0
C1063 C 0.47709 0.28107 0.94379 0.0
C1064 C 0.50645 0.28456 0.94556 0.0
C1065 C 0.51928 0.31174 0.94571 0.0
C1066 C 0.50167 0.33606 0.94393 0.0
C1067 C 0.4715 0.3331 0.94213 0.0
C1068 C 0.45908 0.30519 0.94219 0.0
H1069 H 0.06508 0.24411 0.19928 0.0
H1070 H 0.04021 0.33466 0.20076 0.0
H1071 H 0.98908 0.32051 0.19968 0.0
H1072 H 0.01017 0.22073 0.17389 0.0
H1073 H 0.00442 0.18657 0.18305 0.0
H1074 H 0.0392 0.20373 0.18393 0.0
H1075 H 0.03755 0.20206 0.21269 0.0
H1076 H 0.00279 0.18485 0.21191 0.0
H1077 H 0.00734 0.21785 0.22232 0.0
H1078 H 0.94085 0.29681 0.19801 0.0
H1079 H 0.89839 0.26497 0.1968 0.0
H1080 H 0.95445 0.1897 0.19691 0.0
C1081 C 0.04891 0.26099 0.19937 0.0
C1082 C 0.0567 0.29052 0.20008 0.0
C1083 C 0.03482 0.3119 0.20025 0.0
C1084 C 0.0057 0.3041 0.19961 0.0
C1085 C -0.00121 0.27484 0.19887 0.0
C1086 C 0.01972 0.2536 0.19883 0.0
C1087 C 0.00644 0.2237 0.19814 0.0
C1088 C 0.0156 0.20775 0.1839 0.0
C1089 C 0.01398 0.20609 0.2121 0.0
C1090 C 0.97478 0.2315 0.19776 0.0
C1091 C 0.97088 0.26111 0.19814 0.0
C1092 C 0.9436 0.27357 0.19775 0.0
C1093 C 0.91962 0.25527 0.19703 0.0
C1094 C 0.92304 0.2248 0.19678 0.0
C1095 C 0.95107 0.21287 0.19714 0.0
H1096 H 0.00593 0.64895 0.94651 0.0
H1097 H 0.91507 0.67157 0.94782 0.0
H1098 H 0.9276 0.72304 0.94757 0.0
H1099 H 0.02958 0.70727 0.97074 0.0
H1100 H 0.06254 0.71368 0.9607 0.0
H1101 H 0.0468 0.67807 0.96087 0.0
H1102 H 0.04612 0.67775 0.93209 0.0
H1103 H 0.06178 0.71339 0.93184 0.0
H1104 H 0.02831 0.70667 0.92229 0.0
H1105 H 0.94882 0.77156 0.94631 0.0
H1106 H 0.9783 0.81564 0.94575 0.0
H1107 H 0.05607 0.76333 0.94631 0.0
C1108 C 0.98873 0.66476 0.94677 0.0
C1109 C 0.95951 0.65611 0.94718 0.0
C1110 C 0.93763 0.67751 0.94757 0.0
C1111 C 0.94448 0.7069 0.94739 0.0
C1112 C 0.97334 0.7147 0.94693 0.0
C1113 C -0.00479 0.69443 0.94677 0.0
C1114 C 0.02446 0.7091 0.94654 0.0
C1115 C 0.04187 0.70158 0.96055 0.0
C1116 C 0.04115 0.70126 0.93234 0.0
C1117 C 0.01544 0.74067 0.94651 0.0
C1118 C 0.98581 0.74323 0.94663 0.0
C1119 C 0.97207 0.76993 0.9463 0.0
C1120 C 0.98904 0.79485 0.94592 0.0
C1121 C 0.01951 0.79298 0.94601 0.0
C1122 C 0.03285 0.76545 0.94633 0.0
H1123 H 0.90869 0.24104 0.69383 0.0
H1124 H 0.93655 0.33037 0.68987 0.0
H1125 H 0.98691 0.31408 0.68764 0.0
H1126 H 0.96849 0.21741 0.71617 0.0
H1127 H 0.97074 0.18231 0.70753 0.0
H1128 H 0.93668 0.20086 0.70844 0.0
H1129 H 0.93145 0.19664 0.67985 0.0
H1130 H 0.96554 0.17815 0.67885 0.0
H1131 H 0.95962 0.21041 0.66805 0.0
H1132 H 0.03386 0.28846 0.68546 0.0
H1133 H 0.07523 0.25521 0.68498 0.0
H1134 H 0.01745 0.18233 0.6912 0.0
C1135 C 0.92537 0.25717 0.69245 0.0
C1136 C 0.91866 0.28699 0.69197 0.0
C1137 C 0.94115 0.30742 0.6903 0.0
C1138 C 0.96982 0.29839 0.68898 0.0
C1139 C 0.97568 0.26888 0.68945 0.0
C1140 C 0.95418 0.24856 0.69127 0.0
C1141 C 0.96649 0.21821 0.69182 0.0
C1142 C 0.96023 0.20386 0.70689 0.0
C1143 C 0.95509 0.19977 0.67887 0.0
C1144 C -0.00173 0.2247 0.69003 0.0
C1145 C 0.003 0.25406 0.68856 0.0
C1146 C 0.03047 0.26543 0.68664 0.0
C1147 C 0.05383 0.2463 0.68634 0.0
C1148 C 0.04963 0.21611 0.68807 0.0
C1149 C 0.02139 0.20526 0.68989 0.0
H1150 H 0.47533 0.31918 0.44847 0.0
H1151 H 0.56506 0.29991 0.458 0.0
H1152 H 0.55268 0.24856 0.4615 0.0
H1153 H 0.44482 0.26837 0.47519 0.0
H1154 H 0.41522 0.25868 0.46322 0.0
H1155 H 0.43089 0.29424 0.46205 0.0
H1156 H 0.4401 0.2866 0.43392 0.0
H1157 H 0.42457 0.251 0.43502 0.0
H1158 H 0.46051 0.25559 0.42785 0.0
H1159 H 0.53132 0.19901 0.4625 0.0
H1160 H 0.50187 0.15466 0.462 0.0
H1161 H 0.42579 0.2061 0.45246 0.0
C1162 C 0.49236 0.30423 0.45143 0.0
C1163 C 0.52119 0.31365 0.45295 0.0
C1164 C 0.5428 0.29331 0.45679 0.0
C1165 C 0.53601 0.26406 0.4588 0.0
C1166 C 0.50748 0.25548 0.45704 0.0
C1167 C 0.48594 0.27496 0.45356 0.0
C1168 C 0.45708 0.25995 0.45206 0.0
C1169 C 0.43575 0.27096 0.46383 0.0
C1170 C 0.44486 0.2635 0.43627 0.0
C1171 C 0.46587 0.22895 0.45504 0.0
C1172 C 0.49504 0.22687 0.45788 0.0
C1173 C 0.5084 0.20037 0.46043 0.0
C1174 C 0.49149 0.1753 0.46006 0.0
C1175 C 0.4615 0.1769 0.45725 0.0
C1176 C 0.44859 0.20417 0.45479 0.0
H1177 H 0.45554 0.79503 0.19716 0.0
H1178 H 0.39887 0.72116 0.20261 0.0
H1179 H 0.44108 0.68927 0.20552 0.0
H1180 H 0.50734 0.75843 0.17507 0.0
H1181 H 0.53789 0.77705 0.1829 0.0
H1182 H 0.50322 0.79444 0.18247 0.0
H1183 H 0.50583 0.80239 0.21095 0.0
H1184 H 0.54049 0.78485 0.21147 0.0
H1185 H 0.51157 0.77182 0.22301 0.0
H1186 H 0.4892 0.66518 0.20728 0.0
H1187 H 0.54001 0.64987 0.20556 0.0
H1188 H 0.56541 0.73904 0.19799 0.0
C1189 C 0.45204 0.77219 0.19912 0.0
C1190 C 0.42394 0.76059 0.19973 0.0
C1191 C 0.42022 0.73051 0.20206 0.0
C1192 C 0.44405 0.71224 0.20383 0.0
C1193 C 0.47146 0.72433 0.20313 0.0
C1194 C 0.47561 0.75355 0.2007 0.0
C1195 C 0.50734 0.76067 0.19942 0.0
C1196 C 0.51435 0.77339 0.18405 0.0
C1197 C 0.51686 0.78114 0.21196 0.0
C1198 C 0.52031 0.73084 0.20133 0.0
C1199 C 0.49926 0.71026 0.20369 0.0
C1200 C 0.50592 0.68109 0.20548 0.0
C1201 C 0.53486 0.67262 0.20452 0.0
C1202 C 0.55672 0.69322 0.20162 0.0
C1203 C 0.54924 0.72275 0.20023 0.0
H1204 H 0.97318 0.29361 0.53422 0.0
H1205 H 0.88423 0.26784 0.52747 0.0
H1206 H 0.89939 0.21656 0.52665 0.0
H1207 H 0.00402 0.24152 0.50943 0.0
H1208 H 0.03546 0.2356 0.52078 0.0
H1209 H 0.01738 0.27004 0.52123 0.0
H1210 H 0.01157 0.26573 0.54978 0.0
H1211 H 0.0296 0.23126 0.54943 0.0
H1212 H -0.00579 0.23428 0.55749 0.0
H1213 H 0.92445 0.16801 0.52706 0.0
H1214 H 0.95759 0.12621 0.52726 0.0
H1215 H 0.03014 0.18446 0.53277 0.0
C1216 C 0.95681 0.27722 0.53264 0.0
C1217 C 0.92748 0.2847 0.531 0.0
C1218 C 0.90682 0.26259 0.52875 0.0
C1219 C 0.91522 0.23343 0.52831 0.0
C1220 C 0.94434 0.22683 0.52999 0.0
C1221 C 0.96483 0.24814 0.532 0.0
C1222 C -0.00519 0.23549 0.53313 0.0
C1223 C 0.01404 0.2463 0.52038 0.0
C1224 C 0.00833 0.24208 0.54836 0.0
C1225 C 0.98803 0.20368 0.53148 0.0
C1226 C 0.9588 0.19908 0.52979 0.0
C1227 C 0.94738 0.17137 0.52831 0.0
C1228 C 0.96638 0.14777 0.52847 0.0
C1229 C -0.00353 0.15207 0.52997 0.0
C1230 C 0.00729 0.18045 0.5315 0.0
H1231 H 0.44412 0.18175 0.2858 0.0
H1232 H 0.38991 0.25748 0.28044 0.0
H1233 H 0.43321 0.2876 0.27648 0.0
H1234 H 0.49839 0.21725 0.3068 0.0
H1235 H 0.52775 0.19699 0.29884 0.0
H1236 H 0.49246 0.18107 0.29997 0.0
H1237 H 0.49315 0.17156 0.27159 0.0
H1238 H 0.52845 0.18755 0.27036 0.0
H1239 H 0.49948 0.20122 0.25902 0.0
H1240 H 0.48223 0.30936 0.27331 0.0
H1241 H 0.53371 0.32242 0.2736 0.0
H1242 H 0.55607 0.23292 0.28258 0.0
C1243 C 0.44138 0.20462 0.28361 0.0
C1244 C 0.41373 0.21732 0.28328 0.0
C1245 C 0.41095 0.24739 0.28072 0.0
C1246 C 0.43538 0.2646 0.27838 0.0
C1247 C 0.46236 0.25142 0.27882 0.0
C1248 C 0.46553 0.22218 0.28154 0.0
C1249 C 0.49699 0.21376 0.2825 0.0
C1250 C 0.50432 0.20156 0.29794 0.0
C1251 C 0.50498 0.19225 0.27013 0.0
C1252 C 0.51104 0.24288 0.28 0.0
C1253 C 0.49067 0.2642 0.27765 0.0
C1254 C 0.49839 0.29287 0.27514 0.0
C1255 C 0.5277 0.30003 0.27528 0.0
C1256 C 0.54891 0.2787 0.27815 0.0
C1257 C 0.54037 0.24971 0.28039 0.0
H1258 H 0.44044 0.80199 0.0293 0.0
H1259 H 0.51562 0.85733 0.03303 0.0
H1260 H 0.54715 0.8144 0.03129 0.0
H1261 H 0.46784 0.74461 0.05165 0.0
H1262 H 0.45154 0.71643 0.04065 0.0
H1263 H 0.43504 0.75163 0.04155 0.0
H1264 H 0.43659 0.75525 0.01282 0.0
H1265 H 0.4531 0.72005 0.01184 0.0
H1266 H 0.47043 0.75068 0.0033 0.0
H1267 H 0.57042 0.76524 0.02921 0.0
H1268 H 0.58359 0.71353 0.02804 0.0
H1269 H 0.49294 0.69063 0.02642 0.0
C1270 C 0.46353 0.80516 0.02964 0.0
C1271 C 0.47556 0.83306 0.03123 0.0
C1272 C 0.50591 0.83618 0.03182 0.0
C1273 C 0.52399 0.81194 0.0308 0.0
C1274 C 0.51139 0.78475 0.02929 0.0
C1275 C 0.48186 0.78124 0.02878 0.0
C1276 C 0.47368 0.74964 0.02761 0.0
C1277 C 0.45599 0.74002 0.04117 0.0
C1278 C 0.4575 0.74356 0.01302 0.0
C1279 C 0.50325 0.73589 0.02757 0.0
C1280 C 0.52473 0.75648 0.02843 0.0
C1281 C 0.55378 0.74892 0.02854 0.0
C1282 C 0.56104 0.71949 0.02784 0.0
C1283 C 0.53931 0.698 0.02717 0.0
C1284 C 0.51007 0.70648 0.02698 0.0
H1285 H 0.94309 0.74577 0.78379 0.0
H1286 H 0.96604 0.65707 0.77322 0.0
H1287 H 0.01706 0.6714 0.77105 0.0
H1288 H -0.00555 0.7794 0.75844 0.0
H1289 H 0.002 0.80893 0.77093 0.0
H1290 H 0.96715 0.79181 0.77117 0.0
H1291 H 0.97287 0.7816 0.79933 0.0
H1292 H 0.00773 0.7986 0.79917 0.0
H1293 H 0.00401 0.76205 0.80583 0.0
H1294 H 0.06598 0.6947 0.77186 0.0
H1295 H 0.10892 0.72606 0.77399 0.0
H1296 H 0.05364 0.79981 0.78283 0.0
C1297 C 0.95881 0.72938 0.78093 0.0
C1298 C 0.95058 0.70029 0.77872 0.0
C1299 C 0.97181 0.67952 0.77492 0.0
C1300 C 0.00086 0.68743 0.77368 0.0
C1301 C 0.00826 0.71624 0.77608 0.0
C1302 C 0.98782 0.73696 0.77946 0.0
C1303 C 0.00147 0.76639 0.7816 0.0
C1304 C -0.00938 0.7879 0.76983 0.0
C1305 C -0.00379 0.77782 0.79742 0.0
C1306 C 0.03284 0.75887 0.77917 0.0
C1307 C 0.03634 0.72983 0.77605 0.0
C1308 C 0.0635 0.71756 0.77411 0.0
C1309 C 0.08774 0.73549 0.7754 0.0
C1310 C 0.08459 0.76538 0.77846 0.0
C1311 C 0.05672 0.77713 0.78026 0.0
H1312 H 0.30801 0.35184 0.96866 0.0
H1313 H 0.29952 0.44081 0.95387 0.0
H1314 H 0.25359 0.44501 0.96731 0.0
H1315 H 0.2311 0.33468 0.96533 0.0
H1316 H 0.23092 0.31166 0.98148 0.0
H1317 H 0.26323 0.31529 0.97057 0.0
H1318 H 0.29133 0.33092 -0.00589 0.0
H1319 H 0.25907 0.32753 0.00507 0.0
H1320 H 0.27859 0.36121 0.00489 0.0
H1321 H 0.21111 0.44128 0.98371 0.0
H1322 H 0.17059 0.42796 -3e-05 0.0
H1323 H 0.20343 0.34024 0.00288 0.0
C1324 C 0.29632 0.37209 0.96818 0.0
C1325 C 0.30737 0.39603 0.96025 0.0
C1326 C 0.29143 0.42215 0.95981 0.0
C1327 C 0.26536 0.42481 0.96746 0.0
C1328 C 0.25522 0.40101 0.97531 0.0
C1329 C 0.26983 0.37497 0.97554 0.0
C1330 C 0.25361 0.3527 0.98467 0.0
C1331 C 0.24415 0.32707 0.97493 0.0
C1332 C 0.27174 0.3425 -0.00203 0.0
C1333 C 0.22793 0.37051 -0.01031 0.0
C1334 C 0.22959 0.3984 0.98426 0.0
C1335 C 0.20932 0.41942 0.98788 0.0
C1336 C 0.18649 0.41168 -0.00281 0.0
C1337 C 0.18383 0.38307 0.00259 0.0
C1338 C 0.20481 0.36219 -0.00124 0.0
H1339 H 0.83706 0.04568 0.21896 0.0
H1340 H 0.92895 0.0626 0.21962 0.0
H1341 H 0.93689 0.01645 0.23302 0.0
H1342 H 0.83307 0.01751 0.25542 0.0
H1343 H 0.80601 0.99094 0.25096 0.0
H1344 H 0.80797 0.02405 0.2405 0.0
H1345 H 0.81266 -0.00513 0.21601 0.0
H1346 H 0.81039 0.96166 0.22637 0.0
H1347 H 0.84065 0.96805 0.21428 0.0
H1348 H 0.93421 0.96802 0.24649 0.0
H1349 H 0.92107 0.92251 0.25934 0.0
H1350 H 0.83074 0.94017 0.251 0.0
C1351 C 0.85893 0.03951 0.2217 0.0
C1352 C 0.88245 0.05751 0.21812 0.0
C1353 C 0.91066 0.04897 0.22219 0.0
C1354 C 0.91535 0.02285 0.2298 0.0
C1355 C 0.89155 0.00582 0.23337 0.0
C1356 C 0.8639 0.01391 0.22947 0.0
C1357 C 0.8418 -0.00736 0.23514 0.0
C1358 C 0.821 0.00716 0.24616 0.0
C1359 C 0.82542 0.97846 0.22218 0.0
C1360 C 0.86126 0.97122 0.24286 0.0
C1361 C 0.88992 0.97896 0.24163 0.0
C1362 C 0.91182 0.96187 0.24758 0.0
C1363 C 0.90418 0.93613 0.25487 0.0
C1364 C 0.8749 0.92805 0.25629 0.0
C1365 C 0.85328 0.94601 0.25029 0.0
H1366 H 0.18327 0.57247 0.47579 0.0
H1367 H 0.15159 0.66064 0.47825 0.0
H1368 H 0.19714 0.67582 0.4902 0.0
H1369 H 0.2184 0.57295 0.51147 0.0
H1370 H 0.24804 0.55071 0.50539 0.0
H1371 H 0.21328 0.54709 0.4967 0.0
H1372 H 0.23635 0.55662 0.47096 0.0
H1373 H 0.27117 0.56033 0.47957 0.0
H1374 H 0.25718 0.58904 0.46811 0.0
H1375 H 0.2469 0.68151 0.50107 0.0
H1376 H 0.2957 0.67668 0.51182 0.0
H1377 H 0.29339 0.58425 0.50354 0.0
C1378 C 0.18596 0.59499 0.47881 0.0
C1379 C 0.16404 0.61545 0.47603 0.0
C1380 C 0.16816 0.64464 0.4803 0.0
C1381 C 0.19396 0.65346 0.48704 0.0
C1382 C 0.21519 0.63273 0.48959 0.0
C1383 C 0.21133 0.60405 0.48576 0.0
C1384 C 0.23712 0.5859 0.49011 0.0
C1385 C 0.2287 0.5628 0.5016 0.0
C1386 C 0.25129 0.57218 0.47637 0.0
C1387 C 0.25619 0.60888 0.49692 0.0
C1388 C 0.24329 0.6358 0.49639 0.0
C1389 C 0.25714 0.66051 0.50164 0.0
C1390 C 0.28484 0.65758 0.50769 0.0
C1391 C 0.29818 0.63009 0.50858 0.0
C1392 C 0.28359 0.6055 0.50313 0.0
H1393 H 0.63435 0.05888 0.73821 0.0
H1394 H 0.6056 0.03452 0.78226 0.0
H1395 H 0.59638 0.98468 0.77338 0.0
H1396 H 0.58606 0.0136 0.71671 0.0
H1397 H 0.61303 0.00392 0.7032 0.0
H1398 H 0.61503 0.03827 0.71261 0.0
H1399 H 0.66674 0.02631 0.72159 0.0
H1400 H 0.665 0.99211 0.71207 0.0
H1401 H 0.67316 -0.00678 0.73165 0.0
H1402 H 0.58929 0.93814 0.75958 0.0
H1403 H 0.59288 0.89552 0.74313 0.0
H1404 H 0.63109 0.9489 0.70879 0.0
C1405 C 0.62596 0.04301 0.74592 0.0
C1406 C 0.62037 0.05034 0.76085 0.0
C1407 C 0.60998 0.0291 0.77077 0.0
C1408 C 0.60447 0.0009 0.7658 0.0
C1409 C 0.61003 -0.00568 0.75097 0.0
C1410 C 0.62116 0.01456 0.74125 0.0
C1411 C 0.62775 0.0012 0.72627 0.0
C1412 C 0.60936 0.01508 0.71397 0.0
C1413 C 0.66008 0.00333 0.72269 0.0
C1414 C 0.61871 0.97025 0.7291 0.0
C1415 C 0.60785 0.96694 0.7433 0.0
C1416 C 0.59786 0.9404 0.74846 0.0
C1417 C 0.59983 0.91639 0.73902 0.0
C1418 C 0.61231 0.91901 0.72474 0.0
C1419 C 0.62148 0.94636 0.71967 0.0
H1420 H 0.68568 0.56985 -0.00067 0.0
H1421 H 0.68569 0.6624 0.00745 0.0
H1422 H 0.73455 0.66589 -0.00317 0.0
H1423 H 0.76104 0.55702 0.00728 0.0
H1424 H 0.76541 0.53088 -0.00741 0.0
H1425 H 0.73084 0.53537 0.00137 0.0
H1426 H 0.7075 0.54507 0.9757 0.0
H1427 H 0.742 0.5407 0.96684 0.0
H1428 H 0.72163 0.57346 0.96409 0.0
H1429 H 0.7832 0.65946 0.98574 0.0
H1430 H 0.82831 0.64394 0.97373 0.0
H1431 H 0.79619 0.55589 0.97142 0.0
C1432 C 0.69609 0.59079 -0.00103 0.0
C1433 C 0.68202 0.61585 0.00428 0.0
C1434 C 0.69612 0.64294 0.00344 0.0
C1435 C 0.72386 0.64513 -0.00254 0.0
C1436 C 0.73707 0.62008 -0.00778 0.0
C1437 C 0.72366 0.59344 -0.00719 0.0
C1438 C 0.74233 0.5701 0.98593 0.0
C1439 C 0.75038 0.54698 -0.00252 0.0
C1440 C 0.72747 0.55654 0.97233 0.0
C1441 C 0.76835 0.58781 0.98141 0.0
C1442 C 0.76488 0.61653 0.98528 0.0
C1443 C 0.78614 0.63706 0.98259 0.0
C1444 C 0.81169 0.62801 0.97579 0.0
C1445 C 0.81567 0.59875 0.97159 0.0
C1446 C 0.79361 0.57844 0.97438 0.0
H1447 H 0.12635 0.92184 0.73914 0.0
H1448 H 0.10227 0.94828 0.78362 0.0
H1449 H 0.08711 -0.00389 0.77396 0.0
H1450 H 0.1587 0.98828 0.72984 0.0
H1451 H 0.14807 0.98734 0.71059 0.0
H1452 H 0.153 0.95411 0.72064 0.0
H1453 H 0.10105 0.93848 0.71379 0.0
H1454 H 0.09591 0.97181 0.70376 0.0
H1455 H 0.07126 0.96188 0.71834 0.0
H1456 H 0.07553 0.04121 0.75943 0.0
H1457 H 0.0754 0.08267 0.7421 0.0
H1458 H 0.11194 0.02821 0.70769 0.0
C1459 C 0.11737 0.93758 0.74676 0.0
C1460 C 0.11493 0.93145 0.76205 0.0
C1461 C 0.10404 0.9527 0.77184 0.0
C1462 C 0.09523 0.97976 0.76644 0.0
C1463 C 0.09803 0.98527 0.75128 0.0
C1464 C 0.10932 0.96494 0.74162 0.0
C1465 C 0.11325 0.97736 0.7262 0.0
C1466 C 0.14514 0.97674 0.72155 0.0
C1467 C 0.09423 0.96143 0.71485 0.0
C1468 C 0.10277 0.00796 0.72871 0.0
C1469 C 0.09334 0.01187 0.74314 0.0
C1470 C 0.08285 0.03841 0.74811 0.0
C1471 C 0.08273 0.06177 0.73818 0.0
C1472 C 0.0937 0.05855 0.72361 0.0
C1473 C 0.10342 0.0312 0.71878 0.0
H1474 H 0.77939 0.34848 0.5004 0.0
H1475 H 0.81103 0.43627 0.49573 0.0
H1476 H 0.76742 0.44934 0.48155 0.0
H1477 H 0.74412 0.34277 0.46436 0.0
H1478 H 0.71374 0.32294 0.47152 0.0
H1479 H 0.74842 0.31977 0.48037 0.0
H1480 H 0.72586 0.33511 0.50549 0.0
H1481 H 0.69114 0.3383 0.49673 0.0
H1482 H 0.70614 0.36863 0.50666 0.0
H1483 H 0.72073 0.45303 0.46799 0.0
H1484 H 0.67171 0.44829 0.45765 0.0
H1485 H 0.66856 0.35906 0.47252 0.0
C1486 C 0.7772 0.37034 0.49624 0.0
C1487 C 0.79859 0.39135 0.49903 0.0
C1488 C 0.79483 0.41989 0.49369 0.0
C1489 C 0.77023 0.42748 0.48558 0.0
C1490 C 0.74943 0.40636 0.48308 0.0
C1491 C 0.75245 0.37846 0.48837 0.0
C1492 C 0.72597 0.36049 0.48494 0.0
C1493 C 0.73352 0.33498 0.47468 0.0
C1494 C 0.71142 0.35003 0.49931 0.0
C1495 C 0.70762 0.3827 0.47696 0.0
C1496 C 0.72178 0.40888 0.47582 0.0
C1497 C 0.70936 0.43267 0.46883 0.0
C1498 C 0.68156 0.42975 0.46297 0.0
C1499 C 0.66634 0.40337 0.46435 0.0
C1500 C 0.67965 0.37954 0.47138 0.0
H1501 H 0.32829 0.04201 0.25726 0.0
H1502 H 0.41833 0.067 0.25714 0.0
H1503 H 0.43071 0.02162 0.244 0.0
H1504 H 0.33836 0.96625 0.26289 0.0
H1505 H 0.30955 0.95586 0.25057 0.0
H1506 H 0.30807 0.99005 0.26012 0.0
H1507 H 0.30222 0.01658 0.23493 0.0
H1508 H 0.30368 0.98246 0.2253 0.0
H1509 H 0.32851 0.0109 0.22049 0.0
H1510 H 0.43322 0.97215 0.23185 0.0
H1511 H 0.42514 0.92441 0.22002 0.0
H1512 H 0.33314 0.93405 0.22679 0.0
C1513 C 0.35063 0.03789 0.25451 0.0
C1514 C 0.37241 0.05782 0.2583 0.0
C1515 C 0.40133 0.05192 0.25433 0.0
C1516 C 0.40856 0.02622 0.2469 0.0
C1517 C 0.38654 0.00694 0.24335 0.0
C1518 C 0.35812 0.01267 0.24687 0.0
C1519 C 0.33838 0.98888 0.24147 0.0
C1520 C 0.32267 0.97441 0.25454 0.0
C1521 C 0.31694 0.0004 0.22986 0.0
C1522 C 0.36014 0.96868 0.23451 0.0
C1523 C 0.38784 0.9793 0.23579 0.0
C1524 C 0.41159 0.96376 0.23065 0.0
C1525 C 0.40683 0.93669 0.22399 0.0
C1526 C 0.37853 0.92575 0.22238 0.0
C1527 C 0.35499 0.94207 0.22768 0.0
H1528 H 0.79116 0.84779 0.47767 0.0
H1529 H 0.80429 0.93708 0.46443 0.0
H1530 H 0.75789 0.95045 0.47576 0.0
H1531 H 0.71417 0.84702 0.47028 0.0
H1532 H 0.70575 0.82414 0.48589 0.0
H1533 H 0.74033 0.82128 0.47693 0.0
H1534 H 0.76578 0.83031 0.50213 0.0
H1535 H 0.7313 0.83314 0.51116 0.0
H1536 H 0.75697 0.8622 0.51273 0.0
H1537 H 0.71193 0.95493 0.48939 0.0
H1538 H 0.66669 0.94985 0.50343 0.0
H1539 H 0.68048 0.85723 0.50659 0.0
C1540 C 0.78423 0.87013 0.4772 0.0
C1541 C 0.80137 0.89145 0.47023 0.0
C1542 C 0.79149 0.9204 0.46969 0.0
C1543 C 0.76519 0.92823 0.47611 0.0
C1544 C 0.74878 0.90678 0.48286 0.0
C1545 C 0.75766 0.87828 0.48335 0.0
C1546 C 0.73541 0.85953 0.49108 0.0
C1547 C 0.72319 0.83664 0.48041 0.0
C1548 C 0.74813 0.84547 0.50511 0.0
C1549 C 0.71288 0.88207 0.495 0.0
C1550 C 0.72126 0.90918 0.49021 0.0
C1551 C 0.70494 0.93379 0.49307 0.0
C1552 C 0.67934 0.93069 0.50108 0.0
C1553 C 0.67005 0.90315 0.50597 0.0
C1554 C 0.68691 0.87846 0.50277 0.0
H1555 H 0.34361 0.53592 0.70829 0.0
H1556 H 0.38846 0.57935 0.74424 0.0
H1557 H 0.39217 0.53307 0.75779 0.0
H1558 H 0.30304 0.4867 0.73013 0.0
H1559 H 0.3069 0.45667 0.71751 0.0
H1560 H 0.30797 0.49314 0.71054 0.0
H1561 H 0.35772 0.4831 0.69857 0.0
H1562 H 0.35681 0.44656 0.70551 0.0
H1563 H 0.38679 0.46977 0.70996 0.0
H1564 H 0.38702 0.48352 0.76835 0.0
H1565 H 0.37765 0.43219 0.77431 0.0
H1566 H 0.34074 0.41942 0.73055 0.0
C1567 C 0.35425 0.53558 0.719 0.0
C1568 C 0.36558 0.56113 0.72532 0.0
C1569 C 0.37967 0.55994 0.73924 0.0
C1570 C 0.38184 0.53381 0.74701 0.0
C1571 C 0.37037 0.509 0.74053 0.0
C1572 C 0.35726 0.50951 0.72675 0.0
C1573 C 0.34717 0.4796 0.72222 0.0
C1574 C 0.31432 0.47901 0.71997 0.0
C1575 C 0.36308 0.46914 0.70824 0.0
C1576 C 0.35605 0.46236 0.73577 0.0
C1577 C 0.36917 0.47985 0.74625 0.0
C1578 C 0.3773 0.46946 0.76014 0.0
C1579 C 0.37185 0.4404 0.76344 0.0
C1580 C 0.35897 0.42203 0.75278 0.0
C1581 C 0.35125 0.43301 0.73872 0.0
H1582 H 0.79775 0.0698 0.00418 0.0
H1583 H 0.82679 0.1587 0.00067 0.0
H1584 H 0.78016 0.17226 -0.01069 0.0
H1585 H 0.75995 0.06846 0.96895 0.0
H1586 H 0.73147 0.04557 0.97577 0.0
H1587 H 0.76701 0.04307 0.9837 0.0
H1588 H 0.74574 0.05248 0.00988 0.0
H1589 H 0.71017 0.05513 0.00202 0.0
H1590 H 0.72432 0.08441 0.01305 0.0
H1591 H 0.72939 0.17644 0.9796 0.0
H1592 H 0.6798 0.17026 0.97013 0.0
H1593 H 0.68517 0.07804 0.97854 0.0
C1594 C 0.7943 0.09212 0.001 0.0
C1595 C 0.81577 0.11327 0.00337 0.0
C1596 C 0.81061 0.14217 -0.00107 0.0
C1597 C 0.78419 0.15008 -0.00748 0.0
C1598 C 0.76338 0.12872 -0.00955 0.0
C1599 C 0.76829 0.10026 -0.00563 0.0
C1600 C 0.74264 0.08135 -0.00936 0.0
C1601 C 0.75076 0.05825 0.97908 0.0
C1602 C 0.72997 0.06754 0.00474 0.0
C1603 C 0.72238 0.10367 0.98415 0.0
C1604 C 0.73465 0.13091 0.98427 0.0
C1605 C 0.71967 0.15518 0.97933 0.0
C1606 C 0.6915 0.15147 0.97403 0.0
C1607 C 0.67875 0.12366 0.97353 0.0
C1608 C 0.69448 0.0995 0.97865 0.0
H1609 H 0.13118 0.54073 0.2701 0.0
H1610 H 0.13892 0.59667 0.23168 0.0
H1611 H 0.14284 0.55382 0.21535 0.0
H1612 H 0.17887 0.48408 0.25807 0.0
H1613 H 0.15668 0.45523 0.26513 0.0
H1614 H 0.15587 0.49026 0.27389 0.0
H1615 H 0.10058 0.4927 0.27014 0.0
H1616 H 0.10121 0.45766 0.26139 0.0
H1617 H 0.08577 0.48812 0.25177 0.0
H1618 H 0.14865 0.50506 0.20346 0.0
H1619 H 0.1497 0.45334 0.19632 0.0
H1620 H 0.13265 0.42915 0.242 0.0
C1621 C 0.13384 0.54383 0.25825 0.0
C1622 C 0.13506 0.57183 0.25209 0.0
C1623 C 0.13798 0.57528 0.23655 0.0
C1624 C 0.14033 0.55112 0.22722 0.0
C1625 C 0.13905 0.52374 0.23361 0.0
C1626 C 0.13534 0.51993 0.24872 0.0
C1627 C 0.13299 0.48815 0.25261 0.0
C1628 C 0.15757 0.47889 0.26304 0.0
C1629 C 0.10337 0.48126 0.25938 0.0
C1630 C 0.13628 0.47473 0.23735 0.0
C1631 C 0.14024 0.49563 0.22658 0.0
C1632 C 0.14519 0.48849 0.21175 0.0
C1633 C 0.14585 0.45916 0.20781 0.0
C1634 C 0.14092 0.43751 0.21859 0.0
C1635 C 0.13602 0.44541 0.23352 0.0
H1636 H 0.19014 0.11182 0.52009 0.0
H1637 H 0.13683 0.14768 0.48506 0.0
H1638 H 0.18031 0.15742 0.47008 0.0
H1639 H 0.25083 0.16389 0.515 0.0
H1640 H 0.27743 0.13673 0.51925 0.0
H1641 H 0.24228 0.135 0.52768 0.0
H1642 H 0.23586 0.0829 0.51758 0.0
H1643 H 0.2708 0.08454 0.50902 0.0
H1644 H 0.23953 0.07627 0.49793 0.0
H1645 H 0.22863 0.15579 0.45742 0.0
H1646 H 0.27934 0.14894 0.44939 0.0
H1647 H 0.30162 0.11895 0.49348 0.0
C1648 C 0.18772 0.12228 0.5094 0.0
C1649 C 0.1602 0.12898 0.5037 0.0
C1650 C 0.15778 0.14258 0.48966 0.0
C1651 C 0.18233 0.14812 0.48106 0.0
C1652 C 0.20915 0.14059 0.48683 0.0
C1653 C 0.21206 0.12862 0.50083 0.0
C1654 C 0.24326 0.12194 0.5043 0.0
C1655 C 0.25409 0.1405 0.51733 0.0
C1656 C 0.2476 0.08949 0.50738 0.0
C1657 C 0.25728 0.13089 0.48984 0.0
C1658 C 0.23724 0.14149 0.47987 0.0
C1659 C 0.24466 0.14834 0.46526 0.0
C1660 C 0.27335 0.14431 0.46078 0.0
C1661 C 0.29412 0.1341 0.47096 0.0
C1662 C 0.28609 0.12759 0.48567 0.0
H1663 H 0.64044 0.44163 0.26555 0.0
H1664 H 0.63931 0.38581 0.2268 0.0
H1665 H 0.64276 0.42861 0.21048 0.0
H1666 H 0.59513 0.49639 0.2496 0.0
H1667 H 0.61354 0.52605 0.25848 0.0
H1668 H 0.61297 0.491 0.26718 0.0
H1669 H 0.66874 0.49092 0.26823 0.0
H1670 H 0.66949 0.52597 0.25952 0.0
H1671 H 0.68903 0.49624 0.25139 0.0
H1672 H 0.64762 0.47698 0.19847 0.0
H1673 H 0.64833 0.52847 0.19125 0.0
H1674 H 0.64184 0.55338 0.23762 0.0
C1675 C 0.64117 0.43851 0.25363 0.0
C1676 C 0.63991 0.41053 0.24738 0.0
C1677 C 0.64029 0.40715 0.23176 0.0
C1678 C 0.64237 0.43127 0.22242 0.0
C1679 C 0.6435 0.4586 0.22891 0.0
C1680 C 0.6425 0.46243 0.24413 0.0
C1681 C 0.64224 0.49426 0.24816 0.0
C1682 C 0.6143 0.5024 0.25633 0.0
C1683 C 0.66897 0.50231 0.25737 0.0
C1684 C 0.64335 0.50768 0.23282 0.0
C1685 C 0.64454 0.48668 0.22191 0.0
C1686 C 0.6465 0.49365 0.2069 0.0
C1687 C 0.64697 0.52291 0.20292 0.0
C1688 C 0.64496 0.54478 0.21388 0.0
C1689 C 0.64313 0.53703 0.22902 0.0
H1690 H 0.18292 0.89571 0.98008 0.0
H1691 H 0.17875 0.803 0.973 0.0
H1692 H 0.2273 0.79771 0.98412 0.0
H1693 H 0.2575 0.90512 0.97214 0.0
H1694 H 0.26302 0.93182 0.98646 0.0
H1695 H 0.22817 0.92809 0.97789 0.0
H1696 H 0.20492 0.92033 0.00376 0.0
H1697 H 0.2397 0.9241 0.01241 0.0
H1698 H 0.21843 0.89214 0.0157 0.0
H1699 H 0.27751 0.80327 -0.00505 0.0
H1700 H 0.32357 0.81867 0.00637 0.0
H1701 H 0.2929 0.90726 0.00759 0.0
C1702 C 0.19222 0.87428 0.98085 0.0
C1703 C 0.17724 0.84977 0.9756 0.0
C1704 C 0.18993 0.82205 0.97697 0.0
C1705 C 0.21748 0.81886 0.98323 0.0
C1706 C 0.23175 0.84356 0.98823 0.0
C1707 C 0.21937 0.87068 0.98727 0.0
C1708 C 0.23881 0.89372 -0.00627 0.0
C1709 C 0.24738 0.91599 0.98184 0.0
C1710 C 0.22462 0.90843 0.0072 0.0
C1711 C 0.26425 0.87541 -0.00163 0.0
C1712 C 0.25993 0.84657 -0.005 0.0
C1713 C 0.28099 0.82576 -0.00223 0.0
C1714 C 0.30708 0.83469 0.00421 0.0
C1715 C 0.31164 0.86408 0.00796 0.0
C1716 C 0.28986 0.88459 0.00502 0.0
H1717 H 0.85292 0.42813 0.73605 0.0
H1718 H 0.83288 0.45452 0.69101 0.0
H1719 H 0.83665 0.50592 0.69853 0.0
H1720 H 0.81039 0.48392 0.75353 0.0
H1721 H 0.83489 0.48854 0.76889 0.0
H1722 H 0.83214 0.45399 0.75976 0.0
H1723 H 0.88712 0.45444 0.75479 0.0
H1724 H 0.89003 0.48902 0.76388 0.0
H1725 H 0.90293 0.48465 0.74513 0.0
H1726 H 0.84527 0.55413 0.71074 0.0
H1727 H 0.85198 0.59617 0.72742 0.0
H1728 H 0.86101 0.53834 0.76502 0.0
C1729 C 0.8495 0.4448 0.72779 0.0
C1730 C 0.84296 0.4376 0.71293 0.0
C1731 C 0.83798 0.45979 0.70244 0.0
C1732 C 0.84018 0.48895 0.7066 0.0
C1733 C 0.8467 0.49539 0.72135 0.0
C1734 C 0.85076 0.47397 0.73185 0.0
C1735 C 0.85588 0.48669 0.74713 0.0
C1736 C 0.83189 0.47776 0.75796 0.0
C1737 C 0.88577 0.47819 0.75308 0.0
C1738 C 0.85439 0.51864 0.74356 0.0
C1739 C 0.84956 0.52318 0.72859 0.0
C1740 C 0.8487 0.55087 0.72251 0.0
C1741 C 0.85264 0.57455 0.73203 0.0
C1742 C 0.8567 0.57034 0.74745 0.0
C1743 C 0.85752 0.54205 0.75328 0.0
H1744 H 0.08967 0.39161 0.09444 0.0
H1745 H 0.16085 0.35193 0.0707 0.0
H1746 H 0.18507 0.34188 0.09451 0.0
H1747 H 0.13434 0.42325 0.12527 0.0
H1748 H 0.10665 0.41611 0.1388 0.0
H1749 H 0.09696 0.42408 0.11984 0.0
H1750 H 0.06805 0.37623 0.11848 0.0
H1751 H 0.07777 0.36803 0.13733 0.0
H1752 H 0.08584 0.34258 0.12274 0.0
H1753 H 0.19721 0.32849 0.12058 0.0
H1754 H 0.19825 0.31618 0.14729 0.0
H1755 H 0.12093 0.36698 0.15428 0.0
C1756 C 0.1107 0.38147 0.09422 0.0
C1757 C 0.12333 0.37253 0.0807 0.0
C1758 C 0.15077 0.35911 0.0809 0.0
C1759 C 0.16474 0.35333 0.09438 0.0
C1760 C 0.15125 0.36158 0.10753 0.0
C1761 C 0.12508 0.37584 0.10757 0.0
C1762 C 0.11422 0.38052 0.12325 0.0
C1763 C 0.11298 0.41292 0.12701 0.0
C1764 C 0.08474 0.36596 0.12558 0.0
C1765 C 0.13768 0.36544 0.13198 0.0
C1766 C 0.15895 0.35482 0.12271 0.0
C1767 C 0.18116 0.33737 0.12801 0.0
C1768 C 0.1815 0.33037 0.14315 0.0
C1769 C 0.15994 0.34105 0.1528 0.0
C1770 C 0.13813 0.35925 0.14718 0.0
H1771 H 0.90018 0.88679 0.38244 0.0
H1772 H 0.82889 0.85113 0.40764 0.0
H1773 H 0.8018 0.84358 0.38432 0.0
H1774 H 0.8557 0.92315 0.35373 0.0
H1775 H 0.88123 0.91489 0.33926 0.0
H1776 H 0.89353 0.92047 0.35805 0.0
H1777 H 0.91842 0.87026 0.3577 0.0
H1778 H 0.9063 0.8646 0.33896 0.0
H1779 H 0.89752 0.83861 0.35316 0.0
H1780 H 0.78546 0.83406 0.35817 0.0
H1781 H 0.78075 0.82428 0.33128 0.0
H1782 H 0.86179 0.86829 0.32337 0.0
C1783 C 0.87869 0.87778 0.3831 0.0
C1784 C 0.86667 0.86946 0.39685 0.0
C1785 C 0.8385 0.85773 0.39723 0.0
C1786 C 0.82292 0.85345 0.38405 0.0
C1787 C 0.83564 0.86147 0.37065 0.0
C1788 C 0.86278 0.87368 0.37011 0.0
C1789 C 0.87239 0.87878 0.35428 0.0
C1790 C 0.87591 0.91126 0.35115 0.0
C1791 C 0.90029 0.86205 0.35083 0.0
C1792 C 0.84692 0.86641 0.34595 0.0
C1793 C 0.82581 0.85678 0.35558 0.0
C1794 C 0.80153 0.84207 0.35051 0.0
C1795 C 0.79908 0.83656 0.33524 0.0
C1796 C 0.82074 0.84583 0.32525 0.0
C1797 C 0.84454 0.86158 0.33069 0.0
H1798 H 0.37359 0.61172 0.65325 0.0
H1799 H 0.29033 0.65168 0.64615 0.0
H1800 H 0.29044 0.63453 0.62015 0.0
H1801 H 0.40266 0.63565 0.62149 0.0
H1802 H 0.42462 0.6045 0.61739 0.0
H1803 H 0.41472 0.61224 0.63625 0.0
H1804 H 0.39231 0.56119 0.63884 0.0
H1805 H 0.40238 0.55315 0.61994 0.0
H1806 H 0.36541 0.54941 0.62572 0.0
H1807 H 0.30289 0.62085 0.59444 0.0
H1808 H 0.32777 0.61472 0.57054 0.0
H1809 H 0.40468 0.58624 0.59379 0.0
C1810 C 0.35486 0.61564 0.64636 0.0
C1811 C 0.33168 0.63242 0.65166 0.0
C1812 C 0.30807 0.63847 0.64225 0.0
C1813 C 0.3079 0.62868 0.62753 0.0
C1814 C 0.33163 0.61312 0.6224 0.0
C1815 C 0.35473 0.60663 0.63153 0.0
C1816 C 0.37965 0.59425 0.62272 0.0
C1817 C 0.407 0.61278 0.62457 0.0
C1818 C 0.38526 0.56261 0.62706 0.0
C1819 C 0.36758 0.59636 0.60713 0.0
C1820 C 0.33952 0.60638 0.60726 0.0
C1821 C 0.32466 0.61249 0.5942 0.0
C1822 C 0.33906 0.60905 0.58066 0.0
C1823 C 0.36825 0.60007 0.58028 0.0
C1824 C 0.38232 0.59286 0.5937 0.0
H1825 H 0.59317 0.11557 0.82917 0.0
H1826 H 0.67675 0.15521 0.83569 0.0
H1827 H 0.6775 0.13801 0.86166 0.0
H1828 H 0.56533 0.13829 0.86252 0.0
H1829 H 0.54387 0.10663 0.8662 0.0
H1830 H 0.5525 0.11621 0.84738 0.0
H1831 H 0.57487 0.06549 0.8432 0.0
H1832 H 0.56629 0.05575 0.86207 0.0
H1833 H 0.60282 0.05282 0.85548 0.0
H1834 H 0.66708 0.12203 0.88722 0.0
H1835 H 0.64443 0.11259 0.91142 0.0
H1836 H 0.56598 0.08569 0.88902 0.0
C1837 C 0.61194 0.11972 0.836 0.0
C1838 C 0.63512 0.13622 0.83053 0.0
C1839 C 0.65894 0.14235 0.83979 0.0
C1840 C 0.65964 0.13249 0.85447 0.0
C1841 C 0.63617 0.1168 0.85972 0.0
C1842 C 0.61264 0.11059 0.85083 0.0
C1843 C 0.5885 0.09723 0.85983 0.0
C1844 C 0.56094 0.1157 0.85893 0.0
C1845 C 0.5828 0.06596 0.85485 0.0
C1846 C 0.60169 0.09812 0.87522 0.0
C1847 C 0.62951 0.10867 0.87481 0.0
C1848 C 0.64545 0.11337 0.88769 0.0
C1849 C 0.63234 0.10799 0.9014 0.0
C1850 C 0.60338 0.09846 0.90214 0.0
C1851 C 0.58821 0.09271 0.88884 0.0
H1852 H 0.10229 0.61014 0.32858 0.0
H1853 H 0.18065 0.65657 0.3393 0.0
H1854 H 0.17929 0.63711 0.36479 0.0
H1855 H 0.06765 0.62652 0.36091 0.0
H1856 H 0.0491 0.59259 0.36319 0.0
H1857 H 0.05935 0.60446 0.34495 0.0
H1858 H 0.08752 0.55678 0.34073 0.0
H1859 H 0.07711 0.54458 0.35898 0.0
H1860 H 0.11465 0.54591 0.35393 0.0
H1861 H 0.16603 0.61919 0.38961 0.0
H1862 H 0.14131 0.60438 0.41255 0.0
H1863 H 0.07025 0.5707 0.38632 0.0
C1864 C 0.11968 0.61518 0.33618 0.0
C1865 C 0.14182 0.63439 0.33204 0.0
C1866 C 0.16368 0.64162 0.34233 0.0
C1867 C 0.16315 0.63059 0.35678 0.0
C1868 C 0.1405 0.6125 0.36076 0.0
C1869 C 0.11915 0.60473 0.35078 0.0
C1870 C 0.09523 0.58825 0.35847 0.0
C1871 C 0.06613 0.6039 0.35678 0.0
C1872 C 0.09354 0.55702 0.35268 0.0
C1873 C 0.10589 0.58914 0.37438 0.0
C1874 C 0.13233 0.60268 0.37537 0.0
C1875 C 0.14557 0.60807 0.38898 0.0
C1876 C 0.13126 0.59972 0.40196 0.0
C1877 C 0.10384 0.58635 0.40125 0.0
C1878 C 0.09132 0.58057 0.38724 0.0
H1879 H 0.62681 0.87992 0.6559 0.0
H1880 H 0.69952 0.82646 0.64305 0.0
H1881 H 0.69516 0.84408 0.61729 0.0
H1882 H 0.58555 0.86507 0.62557 0.0
H1883 H 0.56989 0.90055 0.62369 0.0
H1884 H 0.58206 0.88833 0.64156 0.0
H1885 H 0.61512 0.93326 0.64392 0.0
H1886 H 0.60286 0.94579 0.62604 0.0
H1887 H 0.64082 0.94103 0.62946 0.0
H1888 H 0.67878 0.86202 0.5925 0.0
H1889 H 0.65136 0.87848 0.5706 0.0
H1890 H 0.58894 0.91959 0.59968 0.0
C1891 C 0.6424 0.8726 0.64778 0.0
C1892 C 0.66359 0.85194 0.6515 0.0
C1893 C 0.68314 0.84236 0.64046 0.0
C1894 C 0.68093 0.85235 0.62581 0.0
C1895 C 0.65916 0.872 0.62241 0.0
C1896 C 0.64034 0.88217 0.63311 0.0
C1897 C 0.61686 0.9006 0.62632 0.0
C1898 C 0.58683 0.88786 0.62947 0.0
C1899 C 0.61906 0.93204 0.63176 0.0
C1900 C 0.62468 0.89816 0.61007 0.0
C1901 C 0.64945 0.88206 0.60805 0.0
C1902 C 0.65964 0.87509 0.59394 0.0
C1903 C 0.64386 0.88446 0.58157 0.0
C1904 C 0.61799 0.90035 0.58341 0.0
C1905 C 0.60874 0.90771 0.59787 0.0
H1906 H 0.33039 0.31832 0.83585 0.0
H1907 H 0.36107 0.38661 0.80674 0.0
H1908 H 0.37669 0.41468 0.82848 0.0
H1909 H 0.30532 0.36639 0.86611 0.0
H1910 H 0.31699 0.34184 0.88044 0.0
H1911 H 0.30561 0.32798 0.86266 0.0
H1912 H 0.35438 0.30128 0.85981 0.0
H1913 H 0.36591 0.31506 0.87754 0.0
H1914 H 0.38746 0.32151 0.86123 0.0
H1915 H 0.39332 0.43317 0.85267 0.0
H1916 H 0.40928 0.44167 0.87841 0.0
H1917 H 0.36693 0.36256 0.89235 0.0
C1918 C 0.33999 0.33936 0.83407 0.0
C1919 C 0.3445 0.35022 0.81958 0.0
C1920 C 0.3574 0.37776 0.81771 0.0
C1921 C 0.36626 0.39397 0.82999 0.0
C1922 C 0.36189 0.38249 0.84408 0.0
C1923 C 0.34893 0.35594 0.84624 0.0
C1924 C 0.34833 0.34801 0.86258 0.0
C1925 C 0.31721 0.34594 0.86828 0.0
C1926 C 0.36502 0.3198 0.86545 0.0
C1927 C 0.36374 0.3739 0.86917 0.0
C1928 C 0.37116 0.39357 0.85827 0.0
C1929 C 0.38727 0.4182 0.86136 0.0
C1930 C 0.39634 0.42276 0.87598 0.0
C1931 C 0.38916 0.40285 0.88733 0.0
C1932 C 0.37224 0.37836 0.88391 0.0
H1933 H 0.8735 0.11108 0.15181 0.0
H1934 H 0.80252 0.16877 0.14137 0.0
H1935 H 0.80556 0.15438 0.11502 0.0
H1936 H 0.91442 0.127 0.12052 0.0
H1937 H 0.92792 0.09082 0.11782 0.0
H1938 H 0.91787 0.10278 0.13611 0.0
H1939 H 0.88271 0.05952 0.13855 0.0
H1940 H 0.89275 0.04733 0.12024 0.0
H1941 H 0.85543 0.05398 0.12457 0.0
H1942 H 0.81895 0.13701 0.08959 0.0
H1943 H 0.84223 0.11848 0.06687 0.0
H1944 H 0.90487 0.07266 0.09392 0.0
C1945 C 0.85818 0.12024 0.14405 0.0
C1946 C 0.83768 0.14095 0.14866 0.0
C1947 C 0.81839 0.15283 0.1381 0.0
C1948 C 0.81987 0.14471 0.12311 0.0
C1949 C 0.84071 0.12467 0.11889 0.0
C1950 C 0.85948 0.11253 0.12904 0.0
C1951 C 0.8813 0.0932 0.12147 0.0
C1952 C 0.91219 0.10412 0.12413 0.0
C1953 C 0.87783 0.06163 0.12651 0.0
C1954 C 0.87234 0.09697 0.10542 0.0
C1955 C 0.84866 0.1149 0.10418 0.0
C1956 C 0.83731 0.12267 0.09042 0.0
C1957 C 0.85073 0.11207 0.07758 0.0
C1958 C 0.87537 0.09407 0.07859 0.0
C1959 C 0.88596 0.08619 0.09274 0.0
H1960 H 0.84866 0.6508 0.84352 0.0
H1961 H 0.88497 0.58311 0.81581 0.0
H1962 H 0.89359 0.55334 0.83814 0.0
H1963 H 0.89744 0.64594 0.87211 0.0
H1964 H 0.87205 0.65238 0.88689 0.0
H1965 H 0.86514 0.66652 0.86864 0.0
H1966 H 0.81586 0.64021 0.8681 0.0
H1967 H 0.82265 0.62593 0.8864 0.0
H1968 H 0.81442 0.60175 0.87127 0.0
H1969 H 0.90508 0.53462 0.86344 0.0
H1970 H 0.91706 0.52747 0.88992 0.0
H1971 H 0.87088 0.60594 0.90119 0.0
C1972 C 0.85795 0.62949 0.8421 0.0
C1973 C 0.86623 0.61929 0.82793 0.0
C1974 C 0.87838 0.59133 0.82655 0.0
C1975 C 0.88328 0.57423 0.83916 0.0
C1976 C 0.87539 0.58522 0.853 0.0
C1977 C 0.86266 0.61206 0.85453 0.0
C1978 C 0.8581 0.61976 0.87071 0.0
C1979 C 0.87415 0.64779 0.87482 0.0
C1980 C 0.82583 0.62204 0.87433 0.0
C1981 C 0.87149 0.59364 0.87809 0.0
C1982 C 0.88109 0.57383 0.86767 0.0
C1983 C 0.89701 0.54954 0.87171 0.0
C1984 C 0.90378 0.54571 0.88674 0.0
C1985 C 0.89444 0.56592 0.89753 0.0
C1986 C 0.87747 0.58974 0.89318 0.0
H1987 H 0.11226 0.11345 0.57335 0.0
H1988 H 0.06886 0.03223 0.58236 0.0
H1989 H 0.0833 0.03554 0.60866 0.0
H1990 H 0.17226 0.10414 0.60076 0.0
H1991 H 0.17158 0.14188 0.60578 0.0
H1992 H 0.16197 0.13091 0.58721 0.0
H1993 H 0.11298 0.15726 0.58983 0.0
H1994 H 0.12235 0.1682 0.60838 0.0
H1995 H 0.0896 0.14826 0.60513 0.0
H1996 H 0.09697 0.05024 0.63424 0.0
H1997 H 0.10835 0.07578 0.65755 0.0
H1998 H 0.14256 0.14787 0.63221 0.0
C1999 C 0.10652 0.09598 0.58078 0.0
C2000 C 0.0896 0.0725 0.5758 0.0
C2001 C 0.08185 0.05041 0.58594 0.0
C2002 C 0.09008 0.05201 0.60088 0.0
C2003 C 0.1061 0.0758 0.60553 0.0
C2004 C 0.11435 0.09737 0.59579 0.0
C2005 C 0.12894 0.12204 0.60394 0.0
C2006 C 0.16057 0.1249 0.59913 0.0
C2007 C 0.11247 0.15061 0.60169 0.0
C2008 C 0.12662 0.11143 0.61981 0.0
C2009 C 0.11381 0.08449 0.62044 0.0
C2010 C 0.10745 0.07112 0.6339 0.0
C2011 C 0.1139 0.08587 0.64708 0.0
C2012 C 0.12644 0.11379 0.64672 0.0
C2013 C 0.13338 0.12638 0.63287 0.0
H2014 H 0.60554 0.36607 0.39974 0.0
H2015 H 0.54694 0.43468 0.38688 0.0
H2016 H 0.56348 0.43057 0.36089 0.0
H2017 H 0.66395 0.38227 0.3727 0.0
H2018 H 0.67073 0.34448 0.36923 0.0
H2019 H 0.65797 0.35606 0.38718 0.0
H2020 H 0.61493 0.32058 0.38511 0.0
H2021 H 0.62755 0.30891 0.3672 0.0
H2022 H 0.59142 0.32265 0.36919 0.0
H2023 H 0.58325 0.41655 0.33621 0.0
H2024 H 0.60127 0.3905 0.31417 0.0
H2025 H 0.6449 0.3291 0.3429 0.0
C2026 C 0.59678 0.38067 0.39149 0.0
C2027 C 0.57525 0.40088 0.39524 0.0
C2028 C 0.56354 0.4191 0.38415 0.0
C2029 C 0.57295 0.41708 0.36942 0.0
C2030 C 0.59389 0.39658 0.36598 0.0
C2031 C 0.60552 0.37853 0.37667 0.0
C2032 C 0.62502 0.35601 0.36977 0.0
C2033 C 0.65627 0.35996 0.37503 0.0
C2034 C 0.61406 0.32523 0.37301 0.0
C2035 C 0.62181 0.36368 0.35352 0.0
C2036 C 0.60437 0.3876 0.3516 0.0
C2037 C 0.59718 0.39796 0.33755 0.0
C2038 C 0.60753 0.38304 0.3251 0.0
C2039 C 0.62441 0.35775 0.32683 0.0
C2040 C 0.63208 0.3484 0.34123 0.0
H2041 H 0.36695 0.85875 0.07823 0.0
H2042 H 0.39336 0.94665 0.08814 0.0
H2043 H 0.37637 0.941 0.11389 0.0
H2044 H 0.3031 0.85631 0.10382 0.0
H2045 H 0.31051 0.81951 0.10921 0.0
H2046 H 0.31991 0.83185 0.09084 0.0
H2047 H 0.37267 0.81567 0.09518 0.0
H2048 H 0.36349 0.80342 0.11353 0.0
H2049 H 0.39206 0.82935 0.11106 0.0
H2050 H 0.36247 0.9247 0.13881 0.0
H2051 H 0.3536 0.89816 0.162 0.0
H2052 H 0.33704 0.81988 0.1367 0.0
C2053 C 0.36829 0.877 0.08575 0.0
C2054 C 0.38115 0.90323 0.08124 0.0
C2055 C 0.38347 0.92642 0.09142 0.0
C2056 C 0.37373 0.92348 0.10603 0.0
C2057 C 0.36184 0.89715 0.11029 0.0
C2058 C 0.35905 0.87426 0.1005 0.0
C2059 C 0.3486 0.84731 0.10844 0.0
C2060 C 0.31875 0.83822 0.10274 0.0
C2061 C 0.37052 0.82249 0.10696 0.0
C2062 C 0.347 0.85844 0.12427 0.0
C2063 C 0.35423 0.8874 0.12498 0.0
C2064 C 0.35634 0.90214 0.13841 0.0
C2065 C 0.35141 0.8868 0.15153 0.0
C2066 C 0.34458 0.85696 0.15116 0.0
C2067 C 0.34179 0.84277 0.13732 0.0
H2068 H 0.85502 0.37157 0.64943 0.0
H2069 H 0.77879 0.32024 0.64059 0.0
H2070 H 0.78068 0.3346 0.61416 0.0
H2071 H 0.84202 0.4298 0.6212 0.0
H2072 H 0.8797 0.43137 0.61646 0.0
H2073 H 0.86892 0.42211 0.6351 0.0
H2074 H 0.8985 0.37467 0.63343 0.0
H2075 H 0.90927 0.38371 0.61484 0.0
H2076 H 0.89156 0.34975 0.61843 0.0
H2077 H 0.79391 0.34979 0.5885 0.0
H2078 H 0.81956 0.3609 0.56525 0.0
H2079 H 0.88892 0.40003 0.59064 0.0
C2080 C 0.83819 0.36417 0.64201 0.0
C2081 C 0.81649 0.3452 0.64701 0.0
C2082 C 0.79544 0.335 0.63693 0.0
C2083 C 0.79624 0.3432 0.62195 0.0
C2084 C 0.81836 0.3614 0.61726 0.0
C2085 C 0.83905 0.37166 0.62698 0.0
C2086 C 0.86281 0.38745 0.61882 0.0
C2087 C 0.86338 0.4196 0.62316 0.0
C2088 C 0.89225 0.37302 0.62154 0.0
C2089 C 0.85285 0.38347 0.60295 0.0
C2090 C 0.82678 0.36911 0.60231 0.0
C2091 C 0.81414 0.36138 0.58885 0.0
C2092 C 0.82892 0.36779 0.57569 0.0
C2093 C 0.8563 0.3813 0.57612 0.0
C2094 C 0.86797 0.38985 0.58994 0.0
H2095 H 0.33025 0.15204 0.349 0.0
H2096 H 0.37823 0.08693 0.32454 0.0
H2097 H 0.39384 0.06503 0.34822 0.0
H2098 H 0.38093 0.16311 0.37695 0.0
H2099 H 0.3551 0.16782 0.39169 0.0
H2100 H 0.34535 0.17659 0.37289 0.0
H2101 H 0.30172 0.14177 0.37446 0.0
H2102 H 0.31129 0.13294 0.39332 0.0
H2103 H 0.30742 0.10459 0.37971 0.0
H2104 H 0.40812 0.05334 0.37442 0.0
H2105 H 0.41881 0.05174 0.40127 0.0
H2106 H 0.36055 0.12383 0.40855 0.0
C2107 C 0.34369 0.13291 0.34858 0.0
C2108 C 0.35302 0.12122 0.3349 0.0
C2109 C 0.37072 0.09624 0.33488 0.0
C2110 C 0.37968 0.08362 0.34827 0.0
C2111 C 0.3705 0.09605 0.36156 0.0
C2112 C 0.35268 0.11998 0.36181 0.0
C2113 C 0.34704 0.13006 0.37755 0.0
C2114 C 0.35776 0.16124 0.3799 0.0
C2115 C 0.31496 0.12716 0.38149 0.0
C2116 C 0.36515 0.10857 0.3861 0.0
C2117 C 0.37837 0.08902 0.37668 0.0
C2118 C 0.39756 0.06825 0.38193 0.0
C2119 C 0.40357 0.06759 0.39718 0.0
C2120 C 0.39038 0.08756 0.40701 0.0
C2121 C 0.37063 0.10801 0.40136 0.0
H2122 H 0.58887 0.64278 0.14291 0.0
H2123 H 0.6745 0.60599 0.14517 0.0
H2124 H 0.66835 0.58546 0.11988 0.0
H2125 H 0.55577 0.58196 0.12177 0.0
H2126 H 0.53301 0.60606 0.11128 0.0
H2127 H 0.54338 0.61528 0.13 0.0
H2128 H 0.56396 0.66409 0.12065 0.0
H2129 H 0.55375 0.65501 0.10195 0.0
H2130 H 0.59064 0.66408 0.1061 0.0
H2131 H 0.65531 0.57561 0.09321 0.0
H2132 H 0.63478 0.57347 0.06782 0.0
H2133 H 0.55614 0.61316 0.0839 0.0
C2134 C 0.60598 0.62985 0.13813 0.0
C2135 C 0.63207 0.62569 0.14577 0.0
C2136 C 0.65431 0.60904 0.13934 0.0
C2137 C 0.65097 0.59736 0.12506 0.0
C2138 C 0.62505 0.60218 0.11762 0.0
C2139 C 0.60275 0.61761 0.12404 0.0
C2140 C 0.57759 0.62081 0.11351 0.0
C2141 C 0.55086 0.60508 0.1195 0.0
C2142 C 0.57113 0.6529 0.11037 0.0
C2143 C 0.58961 0.60574 0.09996 0.0
C2144 C 0.61702 0.59513 0.10252 0.0
C2145 C 0.63358 0.5831 0.09117 0.0
C2146 C 0.62186 0.58207 0.07681 0.0
C2147 C 0.59376 0.59264 0.07406 0.0
C2148 C 0.57735 0.60413 0.08584 0.0
H2149 H 0.11361 0.86796 0.82955 0.0
H2150 H 0.19793 0.8317 0.83882 0.0
H2151 H 0.19291 0.84511 0.86518 0.0
H2152 H 0.11647 0.92789 0.85739 0.0
H2153 H 0.07912 0.92347 0.86233 0.0
H2154 H 0.09098 0.91525 0.84374 0.0
H2155 H 0.06971 0.86366 0.84608 0.0
H2156 H 0.05783 0.8717 0.86464 0.0
H2157 H 0.08082 0.84095 0.86131 0.0
H2158 H 0.17733 0.85752 0.89057 0.0
H2159 H 0.15114 0.86631 0.91389 0.0
H2160 H 0.07604 0.89355 0.88872 0.0
C2161 C 0.13126 0.86357 0.83709 0.0
C2162 C 0.15624 0.84902 0.83218 0.0
C2163 C 0.17862 0.84286 0.84239 0.0
C2164 C 0.17606 0.85056 0.85735 0.0
C2165 C 0.15094 0.86432 0.86195 0.0
C2166 C 0.12887 0.87075 0.85217 0.0
C2167 C 0.10296 0.88282 0.86034 0.0
C2168 C 0.09704 0.91423 0.85567 0.0
C2169 C 0.07627 0.86363 0.85795 0.0
C2170 C 0.11365 0.88125 0.87623 0.0
C2171 C 0.14158 0.87101 0.87684 0.0
C2172 C 0.15558 0.86592 0.89026 0.0
C2173 C 0.14047 0.8709 0.90346 0.0
C2174 C 0.11155 0.88067 0.90315 0.0
C2175 C 0.09823 0.88645 0.88933 0.0
loop_
_geom_bond_atom_site_label_1
_geom_bond_atom_site_label_2
_geom_bond_distance
_geom_bond_site_symmetry_2
_ccdc_geom_bond_type
C0 O1 1.306 . S
C0 O3 1.160 . S
O1 C0 1.306 . S
O1 Cd2 2.228 . S
Cd2 O1 2.228 . S
Cd2 O6 2.273 . S
Cd2 O10 2.277 . S
O3 C0 1.160 . S
O3 Cd4 2.203 . S
Cd4 O3 2.203 . S
Cd4 O6 2.411 . S
Cd4 O7 2.333 . S
Cd4 O8 2.352 . S
Cd4 O12 2.277 . S
Cd4 O13 2.356 . S
C5 O10 1.209 . S
C5 O12 1.226 . S
O6 Cd2 2.273 . S
O6 Cd4 2.411 . S
O6 C9 1.320 . S
O7 Cd4 2.333 . S
O7 C9 1.214 . S
O8 Cd4 2.352 . S
O8 C11 1.258 . S
C9 O6 1.320 . S
C9 O7 1.214 . S
O10 Cd2 2.277 . S
O10 C5 1.209 . S
C11 O8 1.258 . S
C11 O13 1.282 . S
O12 Cd4 2.277 . S
O12 C5 1.226 . S
O13 Cd4 2.356 . S
O13 C11 1.282 . S
C14 O15 1.306 . S
C14 O17 1.160 . S
O15 C14 1.306 . S
O15 Cd16 2.228 . S
Cd16 O15 2.228 . S
Cd16 O20 2.273 . S
Cd16 O24 2.277 . S
O17 C14 1.160 . S
O17 Cd18 2.203 . S
Cd18 O17 2.203 . S
Cd18 O20 2.411 . S
Cd18 O21 2.333 . S
Cd18 O22 2.352 . S
Cd18 O26 2.277 . S
Cd18 O27 2.356 . S
C19 O24 1.209 . S
C19 O26 1.226 . S
O20 Cd16 2.273 . S
O20 Cd18 2.411 . S
O20 C23 1.320 . S
O21 Cd18 2.333 . S
O21 C23 1.214 . S
O22 Cd18 2.352 . S
O22 C25 1.258 . S
C23 O20 1.320 . S
C23 O21 1.214 . S
O24 Cd16 2.277 . S
O24 C19 1.209 . S
C25 O22 1.258 . S
C25 O27 1.282 . S
O26 Cd18 2.277 . S
O26 C19 1.226 . S
O27 Cd18 2.356 . S
O27 C25 1.282 . S
C28 O29 1.306 . S
C28 O31 1.160 . S
O29 C28 1.306 . S
O29 Cd30 2.228 . S
Cd30 O29 2.228 . S
Cd30 O34 2.273 . S
Cd30 O38 2.277 . S
O31 C28 1.160 . S
O31 Cd32 2.203 . S
Cd32 O31 2.203 . S
Cd32 O34 2.411 . S
Cd32 O35 2.333 . S
Cd32 O36 2.352 . S
Cd32 O40 2.277 . S
Cd32 O41 2.356 . S
C33 O38 1.209 . S
C33 O40 1.226 . S
O34 Cd30 2.273 . S
O34 Cd32 2.411 . S
O34 C37 1.320 . S
O35 Cd32 2.333 . S
O35 C37 1.214 . S
O36 Cd32 2.352 . S
O36 C39 1.258 . S
C37 O34 1.320 . S
C37 O35 1.214 . S
O38 Cd30 2.277 . S
O38 C33 1.209 . S
C39 O36 1.258 . S
C39 O41 1.282 . S
O40 Cd32 2.277 . S
O40 C33 1.226 . S
O41 Cd32 2.356 . S
O41 C39 1.282 . S
C42 O43 1.306 . S
C42 O45 1.160 . S
O43 C42 1.306 . S
O43 Cd44 2.228 . S
Cd44 O43 2.228 . S
Cd44 O48 2.273 . S
Cd44 O52 2.277 . S
O45 C42 1.160 . S
O45 Cd46 2.203 . S
Cd46 O45 2.203 . S
Cd46 O48 2.411 . S
Cd46 O49 2.333 . S
Cd46 O50 2.352 . S
Cd46 O54 2.277 . S
Cd46 O55 2.356 . S
C47 O52 1.209 . S
C47 O54 1.226 . S
O48 Cd44 2.273 . S
O48 Cd46 2.411 . S
O48 C51 1.320 . S
O49 Cd46 2.333 . S
O49 C51 1.214 . S
O50 Cd46 2.352 . S
O50 C53 1.258 . S
C51 O48 1.320 . S
C51 O49 1.214 . S
O52 Cd44 2.277 . S
O52 C47 1.209 . S
C53 O50 1.258 . S
C53 O55 1.282 . S
O54 Cd46 2.277 . S
O54 C47 1.226 . S
O55 Cd46 2.356 . S
O55 C53 1.282 . S
C56 O57 1.306 . S
C56 O59 1.160 . S
O57 C56 1.306 . S
O57 Cd58 2.228 . S
Cd58 O57 2.228 . S
Cd58 O62 2.273 . S
Cd58 O66 2.277 . S
O59 C56 1.160 . S
O59 Cd60 2.203 . S
Cd60 O59 2.203 . S
Cd60 O62 2.411 . S
Cd60 O63 2.333 . S
Cd60 O64 2.352 . S
Cd60 O68 2.277 . S
Cd60 O69 2.356 . S
C61 O66 1.209 . S
C61 O68 1.226 . S
O62 Cd58 2.273 . S
O62 Cd60 2.411 . S
O62 C65 1.320 . S
O63 Cd60 2.333 . S
O63 C65 1.214 . S
O64 Cd60 2.352 . S
O64 C67 1.258 . S
C65 O62 1.320 . S
C65 O63 1.214 . S
O66 Cd58 2.277 . S
O66 C61 1.209 . S
C67 O64 1.258 . S
C67 O69 1.282 . S
O68 Cd60 2.277 . S
O68 C61 1.226 . S
O69 Cd60 2.356 . S
O69 C67 1.282 . S
C70 O71 1.306 . S
C70 O73 1.160 . S
O71 C70 1.306 . S
O71 Cd72 2.228 . S
Cd72 O71 2.228 . S
Cd72 O76 2.273 . S
Cd72 O80 2.277 . S
O73 C70 1.160 . S
O73 Cd74 2.203 . S
Cd74 O73 2.203 . S
Cd74 O76 2.411 . S
Cd74 O77 2.333 . S
Cd74 O78 2.352 . S
Cd74 O82 2.277 . S
Cd74 O83 2.356 . S
C75 O80 1.209 . S
C75 O82 1.226 . S
O76 Cd72 2.273 . S
O76 Cd74 2.411 . S
O76 C79 1.320 . S
O77 Cd74 2.333 . S
O77 C79 1.214 . S
O78 Cd74 2.352 . S
O78 C81 1.258 . S
C79 O76 1.320 . S
C79 O77 1.214 . S
O80 Cd72 2.277 . S
O80 C75 1.209 . S
C81 O78 1.258 . S
C81 O83 1.282 . S
O82 Cd74 2.277 . S
O82 C75 1.226 . S
O83 Cd74 2.356 . S
O83 C81 1.282 . S
C84 O85 1.306 . S
C84 O87 1.160 . S
O85 C84 1.306 . S
O85 Cd86 2.228 . S
Cd86 O85 2.228 . S
Cd86 O90 2.273 . S
Cd86 O94 2.277 . S
O87 C84 1.160 . S
O87 Cd88 2.203 . S
Cd88 O87 2.203 . S
Cd88 O90 2.411 . S
Cd88 O91 2.333 . S
Cd88 O92 2.352 . S
Cd88 O96 2.277 . S
Cd88 O97 2.356 . S
C89 O94 1.209 . S
C89 O96 1.226 . S
O90 Cd86 2.273 . S
O90 Cd88 2.411 . S
O90 C93 1.320 . S
O91 Cd88 2.333 . S
O91 C93 1.214 . S
O92 Cd88 2.352 . S
O92 C95 1.258 . S
C93 O90 1.320 . S
C93 O91 1.214 . S
O94 Cd86 2.277 . S
O94 C89 1.209 . S
C95 O92 1.258 . S
C95 O97 1.282 . S
O96 Cd88 2.277 . S
O96 C89 1.226 . S
O97 Cd88 2.356 . S
O97 C95 1.282 . S
C98 O99 1.306 . S
C98 O101 1.160 . S
O99 C98 1.306 . S
O99 Cd100 2.228 . S
Cd100 O99 2.228 . S
Cd100 O104 2.273 . S
Cd100 O108 2.277 . S
O101 C98 1.160 . S
O101 Cd102 2.203 . S
Cd102 O101 2.203 . S
Cd102 O104 2.411 . S
Cd102 O105 2.333 . S
Cd102 O106 2.352 . S
Cd102 O110 2.277 . S
Cd102 O111 2.356 . S
C103 O108 1.209 . S
C103 O110 1.226 . S
O104 Cd100 2.273 . S
O104 Cd102 2.411 . S
O104 C107 1.320 . S
O105 Cd102 2.333 . S
O105 C107 1.214 . S
O106 Cd102 2.352 . S
O106 C109 1.258 . S
C107 O104 1.320 . S
C107 O105 1.214 . S
O108 Cd100 2.277 . S
O108 C103 1.209 . S
C109 O106 1.258 . S
C109 O111 1.282 . S
O110 Cd102 2.277 . S
O110 C103 1.226 . S
O111 Cd102 2.356 . S
O111 C109 1.282 . S
C112 O113 1.306 . S
C112 O115 1.160 . S
O113 C112 1.306 . S
O113 Cd114 2.228 . S
Cd114 O113 2.228 . S
Cd114 O118 2.273 . S
Cd114 O122 2.277 . S
O115 C112 1.160 . S
O115 Cd116 2.203 . S
Cd116 O115 2.203 . S
Cd116 O118 2.411 . S
Cd116 O119 2.333 . S
Cd116 O120 2.352 . S
Cd116 O124 2.277 . S
Cd116 O125 2.356 . S
C117 O122 1.209 . S
C117 O124 1.226 . S
O118 Cd114 2.273 . S
O118 Cd116 2.411 . S
O118 C121 1.320 . S
O119 Cd116 2.333 . S
O119 C121 1.214 . S
O120 Cd116 2.352 . S
O120 C123 1.258 . S
C121 O118 1.320 . S
C121 O119 1.214 . S
O122 Cd114 2.277 . S
O122 C117 1.209 . S
C123 O120 1.258 . S
C123 O125 1.282 . S
O124 Cd116 2.277 . S
O124 C117 1.226 . S
O125 Cd116 2.356 . S
O125 C123 1.282 . S
C126 O127 1.306 . S
C126 O129 1.160 . S
O127 C126 1.306 . S
O127 Cd128 2.228 . S
Cd128 O127 2.228 . S
Cd128 O132 2.273 . S
Cd128 O136 2.277 . S
O129 C126 1.160 . S
O129 Cd130 2.203 . S
Cd130 O129 2.203 . S
Cd130 O132 2.411 . S
Cd130 O133 2.333 . S
Cd130 O134 2.352 . S
Cd130 O138 2.277 . S
Cd130 O139 2.356 . S
C131 O136 1.209 . S
C131 O138 1.226 . S
O132 Cd128 2.273 . S
O132 Cd130 2.411 . S
O132 C135 1.320 . S
O133 Cd130 2.333 . S
O133 C135 1.214 . S
O134 Cd130 2.352 . S
O134 C137 1.258 . S
C135 O132 1.320 . S
C135 O133 1.214 . S
O136 Cd128 2.277 . S
O136 C131 1.209 . S
C137 O134 1.258 . S
C137 O139 1.282 . S
O138 Cd130 2.277 . S
O138 C131 1.226 . S
O139 Cd130 2.356 . S
O139 C137 1.282 . S
C140 O141 1.306 . S
C140 O143 1.160 . S
O141 C140 1.306 . S
O141 Cd142 2.228 . S
Cd142 O141 2.228 . S
Cd142 O146 2.273 . S
Cd142 O150 2.277 . S
O143 C140 1.160 . S
O143 Cd144 2.203 . S
Cd144 O143 2.203 . S
Cd144 O146 2.411 . S
Cd144 O147 2.333 . S
Cd144 O148 2.352 . S
Cd144 O152 2.277 . S
Cd144 O153 2.356 . S
C145 O150 1.209 . S
C145 O152 1.226 . S
O146 Cd142 2.273 . S
O146 Cd144 2.411 . S
O146 C149 1.320 . S
O147 Cd144 2.333 . S
O147 C149 1.214 . S
O148 Cd144 2.352 . S
O148 C151 1.258 . S
C149 O146 1.320 . S
C149 O147 1.214 . S
O150 Cd142 2.277 . S
O150 C145 1.209 . S
C151 O148 1.258 . S
C151 O153 1.282 . S
O152 Cd144 2.277 . S
O152 C145 1.226 . S
O153 Cd144 2.356 . S
O153 C151 1.282 . S
C154 O155 1.306 . S
C154 O157 1.160 . S
O155 C154 1.306 . S
O155 Cd156 2.228 . S
Cd156 O155 2.228 . S
Cd156 O160 2.273 . S
Cd156 O164 2.277 . S
O157 C154 1.160 . S
O157 Cd158 2.203 . S
Cd158 O157 2.203 . S
Cd158 O160 2.411 . S
Cd158 O161 2.333 . S
Cd158 O162 2.352 . S
Cd158 O166 2.277 . S
Cd158 O167 2.356 . S
C159 O164 1.209 . S
C159 O166 1.226 . S
O160 Cd156 2.273 . S
O160 Cd158 2.411 . S
O160 C163 1.320 . S
O161 Cd158 2.333 . S
O161 C163 1.214 . S
O162 Cd158 2.352 . S
O162 C165 1.258 . S
C163 O160 1.320 . S
C163 O161 1.214 . S
O164 Cd156 2.277 . S
O164 C159 1.209 . S
C165 O162 1.258 . S
C165 O167 1.282 . S
O166 Cd158 2.277 . S
O166 C159 1.226 . S
O167 Cd158 2.356 . S
O167 C165 1.282 . S
C168 O169 1.306 . S
C168 O171 1.160 . S
O169 C168 1.306 . S
O169 Cd170 2.228 . S
Cd170 O169 2.228 . S
Cd170 O174 2.273 . S
Cd170 O178 2.277 . S
O171 C168 1.160 . S
O171 Cd172 2.203 . S
Cd172 O171 2.203 . S
Cd172 O174 2.411 . S
Cd172 O175 2.333 . S
Cd172 O176 2.352 . S
Cd172 O180 2.277 . S
Cd172 O181 2.356 . S
C173 O178 1.209 . S
C173 O180 1.226 . S
O174 Cd170 2.273 . S
O174 Cd172 2.411 . S
O174 C177 1.320 . S
O175 Cd172 2.333 . S
O175 C177 1.214 . S
O176 Cd172 2.352 . S
O176 C179 1.258 . S
C177 O174 1.320 . S
C177 O175 1.214 . S
O178 Cd170 2.277 . S
O178 C173 1.209 . S
C179 O176 1.258 . S
C179 O181 1.282 . S
O180 Cd172 2.277 . S
O180 C173 1.226 . S
O181 Cd172 2.356 . S
O181 C179 1.282 . S
C182 O183 1.306 . S
C182 O185 1.160 . S
O183 C182 1.306 . S
O183 Cd184 2.228 . S
Cd184 O183 2.228 . S
Cd184 O188 2.273 . S
Cd184 O192 2.277 . S
O185 C182 1.160 . S
O185 Cd186 2.203 . S
Cd186 O185 2.203 . S
Cd186 O188 2.411 . S
Cd186 O189 2.333 . S
Cd186 O190 2.352 . S
Cd186 O194 2.277 . S
Cd186 O195 2.356 . S
C187 O192 1.209 . S
C187 O194 1.226 . S
O188 Cd184 2.273 . S
O188 Cd186 2.411 . S
O188 C191 1.320 . S
O189 Cd186 2.333 . S
O189 C191 1.214 . S
O190 Cd186 2.352 . S
O190 C193 1.258 . S
C191 O188 1.320 . S
C191 O189 1.214 . S
O192 Cd184 2.277 . S
O192 C187 1.209 . S
C193 O190 1.258 . S
C193 O195 1.282 . S
O194 Cd186 2.277 . S
O194 C187 1.226 . S
O195 Cd186 2.356 . S
O195 C193 1.282 . S
C196 O197 1.306 . S
C196 O199 1.160 . S
O197 C196 1.306 . S
O197 Cd198 2.228 . S
Cd198 O197 2.228 . S
Cd198 O202 2.273 . S
Cd198 O206 2.277 . S
O199 C196 1.160 . S
O199 Cd200 2.203 . S
Cd200 O199 2.203 . S
Cd200 O202 2.411 . S
Cd200 O203 2.333 . S
Cd200 O204 2.352 . S
Cd200 O208 2.277 . S
Cd200 O209 2.356 . S
C201 O206 1.209 . S
C201 O208 1.226 . S
O202 Cd198 2.273 . S
O202 Cd200 2.411 . S
O202 C205 1.320 . S
O203 Cd200 2.333 . S
O203 C205 1.214 . S
O204 Cd200 2.352 . S
O204 C207 1.258 . S
C205 O202 1.320 . S
C205 O203 1.214 . S
O206 Cd198 2.277 . S
O206 C201 1.209 . S
C207 O204 1.258 . S
C207 O209 1.282 . S
O208 Cd200 2.277 . S
O208 C201 1.226 . S
O209 Cd200 2.356 . S
O209 C207 1.282 . S
C210 O211 1.306 . S
C210 O213 1.160 . S
O211 C210 1.306 . S
O211 Cd212 2.228 . S
Cd212 O211 2.228 . S
Cd212 O216 2.273 . S
Cd212 O220 2.277 . S
O213 C210 1.160 . S
O213 Cd214 2.203 . S
Cd214 O213 2.203 . S
Cd214 O216 2.411 . S
Cd214 O217 2.333 . S
Cd214 O218 2.352 . S
Cd214 O222 2.277 . S
Cd214 O223 2.356 . S
C215 O220 1.209 . S
C215 O222 1.226 . S
O216 Cd212 2.273 . S
O216 Cd214 2.411 . S
O216 C219 1.320 . S
O217 Cd214 2.333 . S
O217 C219 1.214 . S
O218 Cd214 2.352 . S
O218 C221 1.258 . S
C219 O216 1.320 . S
C219 O217 1.214 . S
O220 Cd212 2.277 . S
O220 C215 1.209 . S
C221 O218 1.258 . S
C221 O223 1.282 . S
O222 Cd214 2.277 . S
O222 C215 1.226 . S
O223 Cd214 2.356 . S
O223 C221 1.282 . S
C224 O225 1.306 . S
C224 O227 1.160 . S
O225 C224 1.306 . S
O225 Cd226 2.228 . S
Cd226 O225 2.228 . S
Cd226 O230 2.273 . S
Cd226 O234 2.277 . S
O227 C224 1.160 . S
O227 Cd228 2.203 . S
Cd228 O227 2.203 . S
Cd228 O230 2.411 . S
Cd228 O231 2.333 . S
Cd228 O232 2.352 . S
Cd228 O236 2.277 . S
Cd228 O237 2.356 . S
C229 O234 1.209 . S
C229 O236 1.226 . S
O230 Cd226 2.273 . S
O230 Cd228 2.411 . S
O230 C233 1.320 . S
O231 Cd228 2.333 . S
O231 C233 1.214 . S
O232 Cd228 2.352 . S
O232 C235 1.258 . S
C233 O230 1.320 . S
C233 O231 1.214 . S
O234 Cd226 2.277 . S
O234 C229 1.209 . S
C235 O232 1.258 . S
C235 O237 1.282 . S
O236 Cd228 2.277 . S
O236 C229 1.226 . S
O237 Cd228 2.356 . S
O237 C235 1.282 . S
C238 O239 1.306 . S
C238 O241 1.160 . S
O239 C238 1.306 . S
O239 Cd240 2.228 . S
Cd240 O239 2.228 . S
Cd240 O244 2.273 . S
Cd240 O248 2.277 . S
O241 C238 1.160 . S
O241 Cd242 2.203 . S
Cd242 O241 2.203 . S
Cd242 O244 2.411 . S
Cd242 O245 2.333 . S
Cd242 O246 2.352 . S
Cd242 O250 2.277 . S
Cd242 O251 2.356 . S
C243 O248 1.209 . S
C243 O250 1.226 . S
O244 Cd240 2.273 . S
O244 Cd242 2.411 . S
O244 C247 1.320 . S
O245 Cd242 2.333 . S
O245 C247 1.214 . S
O246 Cd242 2.352 . S
O246 C249 1.258 . S
C247 O244 1.320 . S
C247 O245 1.214 . S
O248 Cd240 2.277 . S
O248 C243 1.209 . S
C249 O246 1.258 . S
C249 O251 1.282 . S
O250 Cd242 2.277 . S
O250 C243 1.226 . S
O251 Cd242 2.356 . S
O251 C249 1.282 . S
C252 O253 1.306 . S
C252 O255 1.160 . S
O253 C252 1.306 . S
O253 Cd254 2.228 . S
Cd254 O253 2.228 . S
Cd254 O258 2.273 . S
Cd254 O262 2.277 . S
O255 C252 1.160 . S
O255 Cd256 2.203 . S
Cd256 O255 2.203 . S
Cd256 O258 2.411 . S
Cd256 O259 2.333 . S
Cd256 O260 2.352 . S
Cd256 O264 2.277 . S
Cd256 O265 2.356 . S
C257 O262 1.209 . S
C257 O264 1.226 . S
O258 Cd254 2.273 . S
O258 Cd256 2.411 . S
O258 C261 1.320 . S
O259 Cd256 2.333 . S
O259 C261 1.214 . S
O260 Cd256 2.352 . S
O260 C263 1.258 . S
C261 O258 1.320 . S
C261 O259 1.214 . S
O262 Cd254 2.277 . S
O262 C257 1.209 . S
C263 O260 1.258 . S
C263 O265 1.282 . S
O264 Cd256 2.277 . S
O264 C257 1.226 . S
O265 Cd256 2.356 . S
O265 C263 1.282 . S
C266 O267 1.306 . S
C266 O269 1.160 . S
O267 C266 1.306 . S
O267 Cd268 2.228 . S
Cd268 O267 2.228 . S
Cd268 O272 2.273 . S
Cd268 O276 2.277 . S
O269 C266 1.160 . S
O269 Cd270 2.203 . S
Cd270 O269 2.203 . S
Cd270 O272 2.411 . S
Cd270 O273 2.333 . S
Cd270 O274 2.352 . S
Cd270 O278 2.277 . S
Cd270 O279 2.356 . S
C271 O276 1.209 . S
C271 O278 1.226 . S
O272 Cd268 2.273 . S
O272 Cd270 2.411 . S
O272 C275 1.320 . S
O273 Cd270 2.333 . S
O273 C275 1.214 . S
O274 Cd270 2.352 . S
O274 C277 1.258 . S
C275 O272 1.320 . S
C275 O273 1.214 . S
O276 Cd268 2.277 . S
O276 C271 1.209 . S
C277 O274 1.258 . S
C277 O279 1.282 . S
O278 Cd270 2.277 . S
O278 C271 1.226 . S
O279 Cd270 2.356 . S
O279 C277 1.282 . S
C280 O281 1.306 . S
C280 O283 1.160 . S
O281 C280 1.306 . S
O281 Cd282 2.228 . S
Cd282 O281 2.228 . S
Cd282 O286 2.273 . S
Cd282 O290 2.277 . S
O283 C280 1.160 . S
O283 Cd284 2.203 . S
Cd284 O283 2.203 . S
Cd284 O286 2.411 . S
Cd284 O287 2.333 . S
Cd284 O288 2.352 . S
Cd284 O292 2.277 . S
Cd284 O293 2.356 . S
C285 O290 1.209 . S
C285 O292 1.226 . S
O286 Cd282 2.273 . S
O286 Cd284 2.411 . S
O286 C289 1.320 . S
O287 Cd284 2.333 . S
O287 C289 1.214 . S
O288 Cd284 2.352 . S
O288 C291 1.258 . S
C289 O286 1.320 . S
C289 O287 1.214 . S
O290 Cd282 2.277 . S
O290 C285 1.209 . S
C291 O288 1.258 . S
C291 O293 1.282 . S
O292 Cd284 2.277 . S
O292 C285 1.226 . S
O293 Cd284 2.356 . S
O293 C291 1.282 . S
C294 O295 1.306 . S
C294 O297 1.160 . S
O295 C294 1.306 . S
O295 Cd296 2.228 . S
Cd296 O295 2.228 . S
Cd296 O300 2.273 . S
Cd296 O304 2.277 . S
O297 C294 1.160 . S
O297 Cd298 2.203 . S
Cd298 O297 2.203 . S
Cd298 O300 2.411 . S
Cd298 O301 2.333 . S
Cd298 O302 2.352 . S
Cd298 O306 2.277 . S
Cd298 O307 2.356 . S
C299 O304 1.209 . S
C299 O306 1.226 . S
O300 Cd296 2.273 . S
O300 Cd298 2.411 . S
O300 C303 1.320 . S
O301 Cd298 2.333 . S
O301 C303 1.214 . S
O302 Cd298 2.352 . S
O302 C305 1.258 . S
C303 O300 1.320 . S
C303 O301 1.214 . S
O304 Cd296 2.277 . S
O304 C299 1.209 . S
C305 O302 1.258 . S
C305 O307 1.282 . S
O306 Cd298 2.277 . S
O306 C299 1.226 . S
O307 Cd298 2.356 . S
O307 C305 1.282 . S
C308 O309 1.306 . S
C308 O311 1.160 . S
O309 C308 1.306 . S
O309 Cd310 2.228 . S
Cd310 O309 2.228 . S
Cd310 O314 2.273 . S
Cd310 O318 2.277 . S
O311 C308 1.160 . S
O311 Cd312 2.203 . S
Cd312 O311 2.203 . S
Cd312 O314 2.411 . S
Cd312 O315 2.333 . S
Cd312 O316 2.352 . S
Cd312 O320 2.277 . S
Cd312 O321 2.356 . S
C313 O318 1.209 . S
C313 O320 1.226 . S
O314 Cd310 2.273 . S
O314 Cd312 2.411 . S
O314 C317 1.320 . S
O315 Cd312 2.333 . S
O315 C317 1.214 . S
O316 Cd312 2.352 . S
O316 C319 1.258 . S
C317 O314 1.320 . S
C317 O315 1.214 . S
O318 Cd310 2.277 . S
O318 C313 1.209 . S
C319 O316 1.258 . S
C319 O321 1.282 . S
O320 Cd312 2.277 . S
O320 C313 1.226 . S
O321 Cd312 2.356 . S
O321 C319 1.282 . S
C322 O323 1.306 . S
C322 O325 1.160 . S
O323 C322 1.306 . S
O323 Cd324 2.228 . S
Cd324 O323 2.228 . S
Cd324 O328 2.273 . S
Cd324 O332 2.277 . S
O325 C322 1.160 . S
O325 Cd326 2.203 . S
Cd326 O325 2.203 . S
Cd326 O328 2.411 . S
Cd326 O329 2.333 . S
Cd326 O330 2.352 . S
Cd326 O334 2.277 . S
Cd326 O335 2.356 . S
C327 O332 1.209 . S
C327 O334 1.226 . S
O328 Cd324 2.273 . S
O328 Cd326 2.411 . S
O328 C331 1.320 . S
O329 Cd326 2.333 . S
O329 C331 1.214 . S
O330 Cd326 2.352 . S
O330 C333 1.258 . S
C331 O328 1.320 . S
C331 O329 1.214 . S
O332 Cd324 2.277 . S
O332 C327 1.209 . S
C333 O330 1.258 . S
C333 O335 1.282 . S
O334 Cd326 2.277 . S
O334 C327 1.226 . S
O335 Cd326 2.356 . S
O335 C333 1.282 . S
C336 O337 1.306 . S
C336 O339 1.160 . S
O337 C336 1.306 . S
O337 Cd338 2.228 . S
Cd338 O337 2.228 . S
Cd338 O342 2.273 . S
Cd338 O346 2.277 . S
O339 C336 1.160 . S
O339 Cd340 2.203 . S
Cd340 O339 2.203 . S
Cd340 O342 2.411 . S
Cd340 O343 2.333 . S
Cd340 O344 2.352 . S
Cd340 O348 2.277 . S
Cd340 O349 2.356 . S
C341 O346 1.209 . S
C341 O348 1.226 . S
O342 Cd338 2.273 . S
O342 Cd340 2.411 . S
O342 C345 1.320 . S
O343 Cd340 2.333 . S
O343 C345 1.214 . S
O344 Cd340 2.352 . S
O344 C347 1.258 . S
C345 O342 1.320 . S
C345 O343 1.214 . S
O346 Cd338 2.277 . S
O346 C341 1.209 . S
C347 O344 1.258 . S
C347 O349 1.282 . S
O348 Cd340 2.277 . S
O348 C341 1.226 . S
O349 Cd340 2.356 . S
O349 C347 1.282 . S
C350 O351 1.306 . S
C350 O353 1.160 . S
O351 C350 1.306 . S
O351 Cd352 2.228 . S
Cd352 O351 2.228 . S
Cd352 O356 2.273 . S
Cd352 O360 2.277 . S
O353 C350 1.160 . S
O353 Cd354 2.203 . S
Cd354 O353 2.203 . S
Cd354 O356 2.411 . S
Cd354 O357 2.333 . S
Cd354 O358 2.352 . S
Cd354 O362 2.277 . S
Cd354 O363 2.356 . S
C355 O360 1.209 . S
C355 O362 1.226 . S
O356 Cd352 2.273 . S
O356 Cd354 2.411 . S
O356 C359 1.320 . S
O357 Cd354 2.333 . S
O357 C359 1.214 . S
O358 Cd354 2.352 . S
O358 C361 1.258 . S
C359 O356 1.320 . S
C359 O357 1.214 . S
O360 Cd352 2.277 . S
O360 C355 1.209 . S
C361 O358 1.258 . S
C361 O363 1.282 . S
O362 Cd354 2.277 . S
O362 C355 1.226 . S
O363 Cd354 2.356 . S
O363 C361 1.282 . S
C364 O365 1.306 . S
C364 O367 1.160 . S
O365 C364 1.306 . S
O365 Cd366 2.228 . S
Cd366 O365 2.228 . S
Cd366 O370 2.273 . S
Cd366 O374 2.277 . S
O367 C364 1.160 . S
O367 Cd368 2.203 . S
Cd368 O367 2.203 . S
Cd368 O370 2.411 . S
Cd368 O371 2.333 . S
Cd368 O372 2.352 . S
Cd368 O376 2.277 . S
Cd368 O377 2.356 . S
C369 O374 1.209 . S
C369 O376 1.226 . S
O370 Cd366 2.273 . S
O370 Cd368 2.411 . S
O370 C373 1.320 . S
O371 Cd368 2.333 . S
O371 C373 1.214 . S
O372 Cd368 2.352 . S
O372 C375 1.258 . S
C373 O370 1.320 . S
C373 O371 1.214 . S
O374 Cd366 2.277 . S
O374 C369 1.209 . S
C375 O372 1.258 . S
C375 O377 1.282 . S
O376 Cd368 2.277 . S
O376 C369 1.226 . S
O377 Cd368 2.356 . S
O377 C375 1.282 . S
C378 O379 1.306 . S
C378 O381 1.160 . S
O379 C378 1.306 . S
O379 Cd380 2.228 . S
Cd380 O379 2.228 . S
Cd380 O384 2.273 . S
Cd380 O388 2.277 . S
O381 C378 1.160 . S
O381 Cd382 2.203 . S
Cd382 O381 2.203 . S
Cd382 O384 2.411 . S
Cd382 O385 2.333 . S
Cd382 O386 2.352 . S
Cd382 O390 2.277 . S
Cd382 O391 2.356 . S
C383 O388 1.209 . S
C383 O390 1.226 . S
O384 Cd380 2.273 . S
O384 Cd382 2.411 . S
O384 C387 1.320 . S
O385 Cd382 2.333 . S
O385 C387 1.214 . S
O386 Cd382 2.352 . S
O386 C389 1.258 . S
C387 O384 1.320 . S
C387 O385 1.214 . S
O388 Cd380 2.277 . S
O388 C383 1.209 . S
C389 O386 1.258 . S
C389 O391 1.282 . S
O390 Cd382 2.277 . S
O390 C383 1.226 . S
O391 Cd382 2.356 . S
O391 C389 1.282 . S
C392 O393 1.306 . S
C392 O395 1.160 . S
O393 C392 1.306 . S
O393 Cd394 2.228 . S
Cd394 O393 2.228 . S
Cd394 O398 2.273 . S
Cd394 O402 2.277 . S
O395 C392 1.160 . S
O395 Cd396 2.203 . S
Cd396 O395 2.203 . S
Cd396 O398 2.411 . S
Cd396 O399 2.333 . S
Cd396 O400 2.352 . S
Cd396 O404 2.277 . S
Cd396 O405 2.356 . S
C397 O402 1.209 . S
C397 O404 1.226 . S
O398 Cd394 2.273 . S
O398 Cd396 2.411 . S
O398 C401 1.320 . S
O399 Cd396 2.333 . S
O399 C401 1.214 . S
O400 Cd396 2.352 . S
O400 C403 1.258 . S
C401 O398 1.320 . S
C401 O399 1.214 . S
O402 Cd394 2.277 . S
O402 C397 1.209 . S
C403 O400 1.258 . S
C403 O405 1.282 . S
O404 Cd396 2.277 . S
O404 C397 1.226 . S
O405 Cd396 2.356 . S
O405 C403 1.282 . S
C406 O407 1.306 . S
C406 O409 1.160 . S
O407 C406 1.306 . S
O407 Cd408 2.228 . S
Cd408 O407 2.228 . S
Cd408 O412 2.273 . S
Cd408 O416 2.277 . S
O409 C406 1.160 . S
O409 Cd410 2.203 . S
Cd410 O409 2.203 . S
Cd410 O412 2.411 . S
Cd410 O413 2.333 . S
Cd410 O414 2.352 . S
Cd410 O418 2.277 . S
Cd410 O419 2.356 . S
C411 O416 1.209 . S
C411 O418 1.226 . S
O412 Cd408 2.273 . S
O412 Cd410 2.411 . S
O412 C415 1.320 . S
O413 Cd410 2.333 . S
O413 C415 1.214 . S
O414 Cd410 2.352 . S
O414 C417 1.258 . S
C415 O412 1.320 . S
C415 O413 1.214 . S
O416 Cd408 2.277 . S
O416 C411 1.209 . S
C417 O414 1.258 . S
C417 O419 1.282 . S
O418 Cd410 2.277 . S
O418 C411 1.226 . S
O419 Cd410 2.356 . S
O419 C417 1.282 . S
C420 O421 1.306 . S
C420 O423 1.160 . S
O421 C420 1.306 . S
O421 Cd422 2.228 . S
Cd422 O421 2.228 . S
Cd422 O426 2.273 . S
Cd422 O430 2.277 . S
O423 C420 1.160 . S
O423 Cd424 2.203 . S
Cd424 O423 2.203 . S
Cd424 O426 2.411 . S
Cd424 O427 2.333 . S
Cd424 O428 2.352 . S
Cd424 O432 2.277 . S
Cd424 O433 2.356 . S
C425 O430 1.209 . S
C425 O432 1.226 . S
O426 Cd422 2.273 . S
O426 Cd424 2.411 . S
O426 C429 1.320 . S
O427 Cd424 2.333 . S
O427 C429 1.214 . S
O428 Cd424 2.352 . S
O428 C431 1.258 . S
C429 O426 1.320 . S
C429 O427 1.214 . S
O430 Cd422 2.277 . S
O430 C425 1.209 . S
C431 O428 1.258 . S
C431 O433 1.282 . S
O432 Cd424 2.277 . S
O432 C425 1.226 . S
O433 Cd424 2.356 . S
O433 C431 1.282 . S
C434 O435 1.306 . S
C434 O437 1.160 . S
O435 C434 1.306 . S
O435 Cd436 2.228 . S
Cd436 O435 2.228 . S
Cd436 O440 2.273 . S
Cd436 O444 2.277 . S
O437 C434 1.160 . S
O437 Cd438 2.203 . S
Cd438 O437 2.203 . S
Cd438 O440 2.411 . S
Cd438 O441 2.333 . S
Cd438 O442 2.352 . S
Cd438 O446 2.277 . S
Cd438 O447 2.356 . S
C439 O444 1.209 . S
C439 O446 1.226 . S
O440 Cd436 2.273 . S
O440 Cd438 2.411 . S
O440 C443 1.320 . S
O441 Cd438 2.333 . S
O441 C443 1.214 . S
O442 Cd438 2.352 . S
O442 C445 1.258 . S
C443 O440 1.320 . S
C443 O441 1.214 . S
O444 Cd436 2.277 . S
O444 C439 1.209 . S
C445 O442 1.258 . S
C445 O447 1.282 . S
O446 Cd438 2.277 . S
O446 C439 1.226 . S
O447 Cd438 2.356 . S
O447 C445 1.282 . S
H448 C460 0.933 1_554 S
H449 C462 0.930 . S
H450 C463 0.930 . S
H451 C467 0.959 . S
H452 C467 0.959 . S
H453 C467 0.961 . S
H454 C468 0.960 . S
H455 C468 0.961 . S
H456 C468 0.959 . S
H457 C471 0.929 . S
H458 C472 0.931 . S
H459 C474 0.930 . S
C460 H448 0.933 1_556 S
C460 C461 1.399 . S
C460 C465 1.402 . S
C461 C460 1.399 . S
C461 C462 1.376 . S
C462 H449 0.930 . S
C462 C461 1.376 . S
C462 C463 1.388 . S
C463 H450 0.930 . S
C463 C462 1.388 . S
C463 C464 1.390 . S
C464 C463 1.390 . S
C464 C465 1.398 . S
C464 C470 1.465 1_655 S
C465 C460 1.402 . S
C465 C464 1.398 . S
C465 C466 1.509 1_656 S
C466 C465 1.509 1_454 S
C466 C467 1.502 . S
C466 C468 1.561 1_455 S
C466 C469 1.526 . S
C467 H451 0.959 . S
C467 H452 0.959 . S
C467 H453 0.961 . S
C467 C466 1.502 . S
C468 H454 0.960 . S
C468 H455 0.961 . S
C468 H456 0.959 . S
C468 C466 1.561 1_655 S
C469 C466 1.526 . S
C469 C470 1.396 1_554 S
C469 C474 1.390 . S
C470 C464 1.465 1_455 S
C470 C469 1.396 1_556 S
C470 C471 1.399 . S
C471 H457 0.929 . S
C471 C470 1.399 . S
C471 C472 1.385 1_556 S
C472 H458 0.931 . S
C472 C471 1.385 1_554 S
C472 C473 1.389 . S
C473 C472 1.389 . S
C473 C474 1.387 . S
C474 H459 0.930 . S
C474 C469 1.390 . S
C474 C473 1.387 . S
H475 C487 0.930 . S
H476 C489 0.930 . S
H477 C490 0.930 . S
H478 C494 0.959 . S
H479 C494 0.959 . S
H480 C494 0.961 . S
H481 C495 0.960 . S
H482 C495 0.961 . S
H483 C495 0.959 . S
H484 C498 0.929 . S
H485 C499 0.931 . S
H486 C501 0.930 . S
C487 H475 0.930 . S
C487 C488 1.399 . S
C487 C492 1.399 . S
C488 C487 1.399 . S
C488 C489 1.376 . S
C489 H476 0.930 . S
C489 C488 1.376 . S
C489 C490 1.388 . S
C490 H477 0.930 . S
C490 C489 1.388 . S
C490 C491 1.390 . S
C491 C490 1.390 . S
C491 C492 1.394 . S
C491 C497 1.465 . S
C492 C487 1.399 . S
C492 C491 1.394 . S
C492 C493 1.516 . S
C493 C492 1.516 . S
C493 C494 1.502 . S
C493 C495 1.561 . S
C493 C496 1.526 . S
C494 H478 0.959 . S
C494 H479 0.959 . S
C494 H480 0.961 . S
C494 C493 1.502 . S
C495 H481 0.960 . S
C495 H482 0.961 . S
C495 H483 0.959 . S
C495 C493 1.561 . S
C496 C493 1.526 . S
C496 C497 1.396 . S
C496 C501 1.390 . S
C497 C491 1.465 . S
C497 C496 1.396 . S
C497 C498 1.399 . S
C498 H484 0.929 . S
C498 C497 1.399 . S
C498 C499 1.385 . S
C499 H485 0.931 . S
C499 C498 1.385 . S
C499 C500 1.389 . S
C500 C499 1.389 . S
C500 C501 1.387 . S
C501 H486 0.930 . S
C501 C496 1.390 . S
C501 C500 1.387 . S
H502 C514 0.930 . S
H503 C516 0.930 . S
H504 C517 0.930 . S
H505 C521 0.959 . S
H506 C521 0.959 . S
H507 C521 0.961 . S
H508 C522 0.960 . S
H509 C522 0.961 . S
H510 C522 0.959 . S
H511 C525 0.929 . S
H512 C526 0.931 . S
H513 C528 0.930 . S
C514 H502 0.930 . S
C514 C515 1.399 . S
C514 C519 1.399 . S
C515 C514 1.399 . S
C515 C516 1.376 . S
C516 H503 0.930 . S
C516 C515 1.376 . S
C516 C517 1.388 . S
C517 H504 0.930 . S
C517 C516 1.388 . S
C517 C518 1.390 . S
C518 C517 1.390 . S
C518 C519 1.394 . S
C518 C524 1.465 . S
C519 C514 1.399 . S
C519 C518 1.394 . S
C519 C520 1.516 . S
C520 C519 1.516 . S
C520 C521 1.502 . S
C520 C522 1.561 . S
C520 C523 1.526 . S
C521 H505 0.959 . S
C521 H506 0.959 . S
C521 H507 0.961 . S
C521 C520 1.502 . S
C522 H508 0.960 . S
C522 H509 0.961 . S
C522 H510 0.959 . S
C522 C520 1.561 . S
C523 C520 1.526 . S
C523 C524 1.396 . S
C523 C528 1.390 . S
C524 C518 1.465 . S
C524 C523 1.396 . S
C524 C525 1.399 . S
C525 H511 0.929 . S
C525 C524 1.399 . S
C525 C526 1.385 . S
C526 H512 0.931 . S
C526 C525 1.385 . S
C526 C527 1.389 . S
C527 C526 1.389 . S
C527 C528 1.387 . S
C528 H513 0.930 . S
C528 C523 1.390 . S
C528 C527 1.387 . S
H529 C541 0.930 . S
H530 C543 0.930 . S
H531 C544 0.930 . S
H532 C548 0.959 . S
H533 C548 0.959 . S
H534 C548 0.961 . S
H535 C549 0.960 . S
H536 C549 0.961 . S
H537 C549 0.959 . S
H538 C552 0.929 . S
H539 C553 0.931 . S
H540 C555 0.930 . S
C541 H529 0.930 . S
C541 C542 1.399 . S
C541 C546 1.399 . S
C542 C541 1.399 . S
C542 C543 1.376 . S
C543 H530 0.930 . S
C543 C542 1.376 . S
C543 C544 1.388 . S
C544 H531 0.930 . S
C544 C543 1.388 . S
C544 C545 1.390 . S
C545 C544 1.390 . S
C545 C546 1.394 . S
C545 C551 1.465 . S
C546 C541 1.399 . S
C546 C545 1.394 . S
C546 C547 1.516 . S
C547 C546 1.516 . S
C547 C548 1.502 . S
C547 C549 1.561 . S
C547 C550 1.526 . S
C548 H532 0.959 . S
C548 H533 0.959 . S
C548 H534 0.961 . S
C548 C547 1.502 . S
C549 H535 0.960 . S
C549 H536 0.961 . S
C549 H537 0.959 . S
C549 C547 1.561 . S
C550 C547 1.526 . S
C550 C551 1.396 . S
C550 C555 1.390 . S
C551 C545 1.465 . S
C551 C550 1.396 . S
C551 C552 1.399 . S
C552 H538 0.929 . S
C552 C551 1.399 . S
C552 C553 1.385 . S
C553 H539 0.931 . S
C553 C552 1.385 . S
C553 C554 1.389 . S
C554 C553 1.389 . S
C554 C555 1.387 . S
C555 H540 0.930 . S
C555 C550 1.390 . S
C555 C554 1.387 . S
H556 C568 0.930 . S
H557 C570 0.930 . S
H558 C571 0.930 . S
H559 C575 0.948 1_655 S
H560 C575 0.971 . S
H561 C575 0.955 1_655 S
H562 C576 0.960 . S
H563 C576 0.961 . S
H564 C576 0.959 . S
H565 C579 0.929 . S
H566 C580 0.931 . S
H567 C582 0.930 . S
C568 H556 0.930 . S
C568 C569 1.399 . S
C568 C573 1.399 . S
C569 C568 1.399 . S
C569 C570 1.376 . S
C570 H557 0.930 . S
C570 C569 1.376 . S
C570 C571 1.388 . S
C571 H558 0.930 . S
C571 C570 1.388 . S
C571 C572 1.390 . S
C572 C571 1.390 . S
C572 C573 1.394 . S
C572 C578 1.465 1_655 S
C573 C568 1.399 . S
C573 C572 1.394 . S
C573 C574 1.516 1_655 S
C574 C573 1.516 1_455 S
C574 C575 1.507 . S
C574 C576 1.561 . S
C574 C577 1.526 . S
C575 H559 0.948 1_455 S
C575 H560 0.971 . S
C575 H561 0.955 1_455 S
C575 C574 1.507 . S
C576 H562 0.960 . S
C576 H563 0.961 . S
C576 H564 0.959 . S
C576 C574 1.561 . S
C577 C574 1.526 . S
C577 C578 1.396 . S
C577 C582 1.390 . S
C578 C572 1.465 1_455 S
C578 C577 1.396 . S
C578 C579 1.399 . S
C579 H565 0.929 . S
C579 C578 1.399 . S
C579 C580 1.385 . S
C580 H566 0.931 . S
C580 C579 1.385 . S
C580 C581 1.389 . S
C581 C580 1.389 . S
C581 C582 1.387 . S
C582 H567 0.930 . S
C582 C577 1.390 . S
C582 C581 1.387 . S
H583 C595 0.930 . S
H584 C597 0.930 . S
H585 C598 0.930 . S
H586 C602 0.959 . S
H587 C602 0.959 . S
H588 C602 0.961 . S
H589 C603 0.960 . S
H590 C603 0.961 . S
H591 C603 0.959 . S
H592 C606 0.929 . S
H593 C607 0.931 . S
H594 C609 0.930 . S
C595 H583 0.930 . S
C595 C596 1.399 . S
C595 C600 1.399 . S
C596 C595 1.399 . S
C596 C597 1.376 . S
C597 H584 0.930 . S
C597 C596 1.376 . S
C597 C598 1.388 . S
C598 H585 0.930 . S
C598 C597 1.388 . S
C598 C599 1.390 . S
C599 C598 1.390 . S
C599 C600 1.394 . S
C599 C605 1.465 . S
C600 C595 1.399 . S
C600 C599 1.394 . S
C600 C601 1.516 . S
C601 C600 1.516 . S
C601 C602 1.502 . S
C601 C603 1.561 . S
C601 C604 1.526 . S
C602 H586 0.959 . S
C602 H587 0.959 . S
C602 H588 0.961 . S
C602 C601 1.502 . S
C603 H589 0.960 . S
C603 H590 0.961 . S
C603 H591 0.959 . S
C603 C601 1.561 . S
C604 C601 1.526 . S
C604 C605 1.396 . S
C604 C609 1.390 . S
C605 C599 1.465 . S
C605 C604 1.396 . S
C605 C606 1.399 . S
C606 H592 0.929 . S
C606 C605 1.399 . S
C606 C607 1.385 . S
C607 H593 0.931 . S
C607 C606 1.385 . S
C607 C608 1.389 . S
C608 C607 1.389 . S
C608 C609 1.387 . S
C609 H594 0.930 . S
C609 C604 1.390 . S
C609 C608 1.387 . S
H610 C622 0.930 1_554 S
H611 C624 0.930 . S
H612 C625 0.930 . S
H613 C629 0.959 . S
H614 C629 0.959 . S
H615 C629 0.961 . S
H616 C630 0.960 . S
H617 C630 0.961 . S
H618 C630 0.959 . S
H619 C633 0.929 . S
H620 C634 0.931 1_556 S
H621 C636 0.930 . S
C622 H610 0.930 1_556 S
C622 C623 1.399 . S
C622 C627 1.394 1_556 S
C623 C622 1.399 . S
C623 C624 1.376 . S
C624 H611 0.930 . S
C624 C623 1.376 . S
C624 C625 1.388 . S
C625 H612 0.930 . S
C625 C624 1.388 . S
C625 C626 1.390 . S
C626 C625 1.390 . S
C626 C627 1.381 1_556 S
C626 C632 1.465 . S
C627 C622 1.394 1_554 S
C627 C626 1.381 1_554 S
C627 C628 1.533 . S
C628 C627 1.533 . S
C628 C629 1.502 . S
C628 C630 1.561 . S
C628 C631 1.526 . S
C629 H613 0.959 . S
C629 H614 0.959 . S
C629 H615 0.961 . S
C629 C628 1.502 . S
C630 H616 0.960 . S
C630 H617 0.961 . S
C630 H618 0.959 . S
C630 C628 1.561 . S
C631 C628 1.526 . S
C631 C632 1.396 1_554 S
C631 C636 1.390 . S
C632 C626 1.465 . S
C632 C631 1.396 1_556 S
C632 C633 1.399 . S
C633 H619 0.929 . S
C633 C632 1.399 . S
C633 C634 1.385 1_556 S
C634 H620 0.931 1_554 S
C634 C633 1.385 1_554 S
C634 C635 1.389 . S
C635 C634 1.389 . S
C635 C636 1.387 . S
C636 H621 0.930 . S
C636 C631 1.390 . S
C636 C635 1.387 . S
H637 C649 0.930 . S
H638 C651 0.930 . S
H639 C652 0.930 . S
H640 C656 0.959 . S
H641 C656 0.959 . S
H642 C656 0.961 . S
H643 C657 0.960 . S
H644 C657 0.961 . S
H645 C657 0.959 . S
H646 C660 0.929 . S
H647 C661 0.931 . S
H648 C663 0.930 . S
C649 H637 0.930 . S
C649 C650 1.399 . S
C649 C654 1.399 . S
C650 C649 1.399 . S
C650 C651 1.376 . S
C651 H638 0.930 . S
C651 C650 1.376 . S
C651 C652 1.388 . S
C652 H639 0.930 . S
C652 C651 1.388 . S
C652 C653 1.390 . S
C653 C652 1.390 . S
C653 C654 1.394 . S
C653 C659 1.465 . S
C654 C649 1.399 . S
C654 C653 1.394 . S
C654 C655 1.516 . S
C655 C654 1.516 . S
C655 C656 1.502 . S
C655 C657 1.561 . S
C655 C658 1.526 . S
C656 H640 0.959 . S
C656 H641 0.959 . S
C656 H642 0.961 . S
C656 C655 1.502 . S
C657 H643 0.960 . S
C657 H644 0.961 . S
C657 H645 0.959 . S
C657 C655 1.561 . S
C658 C655 1.526 . S
C658 C659 1.396 . S
C658 C663 1.390 . S
C659 C653 1.465 . S
C659 C658 1.396 . S
C659 C660 1.399 . S
C660 H646 0.929 . S
C660 C659 1.399 . S
C660 C661 1.385 . S
C661 H647 0.931 . S
C661 C660 1.385 . S
C661 C662 1.389 . S
C662 C661 1.389 . S
C662 C663 1.387 . S
C663 H648 0.930 . S
C663 C658 1.390 . S
C663 C662 1.387 . S
H664 C676 0.930 . S
H665 C678 0.930 . S
H666 C679 0.930 . S
H667 C683 0.959 . S
H668 C683 0.959 . S
H669 C683 0.961 . S
H670 C684 0.960 . S
H671 C684 0.961 . S
H672 C684 0.959 . S
H673 C687 0.929 . S
H674 C688 0.931 . S
H675 C690 0.930 . S
C676 H664 0.930 . S
C676 C677 1.399 . S
C676 C681 1.399 . S
C677 C676 1.399 . S
C677 C678 1.376 . S
C678 H665 0.930 . S
C678 C677 1.376 . S
C678 C679 1.388 . S
C679 H666 0.930 . S
C679 C678 1.388 . S
C679 C680 1.390 . S
C680 C679 1.390 . S
C680 C681 1.394 . S
C680 C686 1.465 . S
C681 C676 1.399 . S
C681 C680 1.394 . S
C681 C682 1.516 . S
C682 C681 1.516 . S
C682 C683 1.502 . S
C682 C684 1.561 . S
C682 C685 1.526 . S
C683 H667 0.959 . S
C683 H668 0.959 . S
C683 H669 0.961 . S
C683 C682 1.502 . S
C684 H670 0.960 . S
C684 H671 0.961 . S
C684 H672 0.959 . S
C684 C682 1.561 . S
C685 C682 1.526 . S
C685 C686 1.396 . S
C685 C690 1.390 . S
C686 C680 1.465 . S
C686 C685 1.396 . S
C686 C687 1.399 . S
C687 H673 0.929 . S
C687 C686 1.399 . S
C687 C688 1.385 . S
C688 H674 0.931 . S
C688 C687 1.385 . S
C688 C689 1.389 . S
C689 C688 1.389 . S
C689 C690 1.387 . S
C690 H675 0.930 . S
C690 C685 1.390 . S
C690 C689 1.387 . S
H691 C703 0.930 . S
H692 C705 0.930 . S
H693 C706 0.930 . S
H694 C710 0.959 . S
H695 C710 0.959 . S
H696 C710 0.961 . S
H697 C711 0.960 . S
H698 C711 0.961 . S
H699 C711 0.959 . S
H700 C714 0.929 . S
H701 C715 0.931 . S
H702 C717 0.930 . S
C703 H691 0.930 . S
C703 C704 1.399 . S
C703 C708 1.399 . S
C704 C703 1.399 . S
C704 C705 1.376 . S
C705 H692 0.930 . S
C705 C704 1.376 . S
C705 C706 1.388 . S
C706 H693 0.930 . S
C706 C705 1.388 . S
C706 C707 1.390 . S
C707 C706 1.390 . S
C707 C708 1.394 . S
C707 C713 1.465 . S
C708 C703 1.399 . S
C708 C707 1.394 . S
C708 C709 1.516 . S
C709 C708 1.516 . S
C709 C710 1.502 . S
C709 C711 1.561 . S
C709 C712 1.526 . S
C710 H694 0.959 . S
C710 H695 0.959 . S
C710 H696 0.961 . S
C710 C709 1.502 . S
C711 H697 0.960 . S
C711 H698 0.961 . S
C711 H699 0.959 . S
C711 C709 1.561 . S
C712 C709 1.526 . S
C712 C713 1.396 . S
C712 C717 1.390 . S
C713 C707 1.465 . S
C713 C712 1.396 . S
C713 C714 1.399 . S
C714 H700 0.929 . S
C714 C713 1.399 . S
C714 C715 1.385 . S
C715 H701 0.931 . S
C715 C714 1.385 . S
C715 C716 1.389 . S
C716 C715 1.389 . S
C716 C717 1.387 . S
C717 H702 0.930 . S
C717 C712 1.390 . S
C717 C716 1.387 . S
H718 C730 0.930 . S
H719 C732 0.930 . S
H720 C733 0.930 . S
H721 C737 0.959 . S
H722 C737 0.959 . S
H723 C737 0.961 . S
H724 C738 0.960 . S
H725 C738 0.961 . S
H726 C738 0.959 . S
H727 C741 0.929 . S
H728 C742 0.931 . S
H729 C744 0.930 . S
C730 H718 0.930 . S
C730 C731 1.399 . S
C730 C735 1.399 . S
C731 C730 1.399 . S
C731 C732 1.376 . S
C732 H719 0.930 . S
C732 C731 1.376 . S
C732 C733 1.388 . S
C733 H720 0.930 . S
C733 C732 1.388 . S
C733 C734 1.390 . S
C734 C733 1.390 . S
C734 C735 1.394 . S
C734 C740 1.465 . S
C735 C730 1.399 . S
C735 C734 1.394 . S
C735 C736 1.516 . S
C736 C735 1.516 . S
C736 C737 1.502 . S
C736 C738 1.561 . S
C736 C739 1.526 . S
C737 H721 0.959 . S
C737 H722 0.959 . S
C737 H723 0.961 . S
C737 C736 1.502 . S
C738 H724 0.960 . S
C738 H725 0.961 . S
C738 H726 0.959 . S
C738 C736 1.561 . S
C739 C736 1.526 . S
C739 C740 1.396 . S
C739 C744 1.390 . S
C740 C734 1.465 . S
C740 C739 1.396 . S
C740 C741 1.399 . S
C741 H727 0.929 . S
C741 C740 1.399 . S
C741 C742 1.385 . S
C742 H728 0.931 . S
C742 C741 1.385 . S
C742 C743 1.389 . S
C743 C742 1.389 . S
C743 C744 1.387 . S
C744 H729 0.930 . S
C744 C739 1.390 . S
C744 C743 1.387 . S
H745 C757 0.930 . S
H746 C759 0.930 . S
H747 C760 0.930 . S
H748 C764 0.959 . S
H749 C764 0.959 . S
H750 C764 0.961 . S
H751 C765 0.960 . S
H752 C765 0.961 . S
H753 C765 0.959 . S
H754 C768 0.929 . S
H755 C769 0.931 . S
H756 C771 0.930 . S
C757 H745 0.930 . S
C757 C758 1.399 . S
C757 C762 1.399 . S
C758 C757 1.399 . S
C758 C759 1.376 . S
C759 H746 0.930 . S
C759 C758 1.376 . S
C759 C760 1.388 . S
C760 H747 0.930 . S
C760 C759 1.388 . S
C760 C761 1.390 . S
C761 C760 1.390 . S
C761 C762 1.394 . S
C761 C767 1.465 . S
C762 C757 1.399 . S
C762 C761 1.394 . S
C762 C763 1.516 . S
C763 C762 1.516 . S
C763 C764 1.502 . S
C763 C765 1.561 . S
C763 C766 1.526 . S
C764 H748 0.959 . S
C764 H749 0.959 . S
C764 H750 0.961 . S
C764 C763 1.502 . S
C765 H751 0.960 . S
C765 H752 0.961 . S
C765 H753 0.959 . S
C765 C763 1.561 . S
C766 C763 1.526 . S
C766 C767 1.396 . S
C766 C771 1.390 . S
C767 C761 1.465 . S
C767 C766 1.396 . S
C767 C768 1.399 . S
C768 H754 0.929 . S
C768 C767 1.399 . S
C768 C769 1.385 . S
C769 H755 0.931 . S
C769 C768 1.385 . S
C769 C770 1.389 . S
C770 C769 1.389 . S
C770 C771 1.387 . S
C771 H756 0.930 . S
C771 C766 1.390 . S
C771 C770 1.387 . S
H772 C784 0.930 . S
H773 C786 0.930 . S
H774 C787 0.930 1_545 S
H775 C791 0.959 . S
H776 C791 0.959 . S
H777 C791 0.961 . S
H778 C792 0.960 . S
H779 C792 0.961 . S
H780 C792 0.959 . S
H781 C795 0.929 . S
H782 C796 0.931 . S
H783 C798 0.930 . S
C784 H772 0.930 . S
C784 C785 1.399 . S
C784 C789 1.399 . S
C785 C784 1.399 . S
C785 C786 1.376 . S
C786 H773 0.930 . S
C786 C785 1.376 . S
C786 C787 1.388 . S
C787 H774 0.930 1_565 S
C787 C786 1.388 . S
C787 C788 1.390 . S
C788 C787 1.390 . S
C788 C789 1.394 . S
C788 C794 1.465 1_565 S
C789 C784 1.399 . S
C789 C788 1.394 . S
C789 C790 1.516 . S
C790 C789 1.516 . S
C790 C791 1.502 . S
C790 C792 1.561 . S
C790 C793 1.526 1_565 S
C791 H775 0.959 . S
C791 H776 0.959 . S
C791 H777 0.961 . S
C791 C790 1.502 . S
C792 H778 0.960 . S
C792 H779 0.961 . S
C792 H780 0.959 . S
C792 C790 1.561 . S
C793 C790 1.526 1_545 S
C793 C794 1.396 . S
C793 C798 1.390 . S
C794 C788 1.465 1_545 S
C794 C793 1.396 . S
C794 C795 1.399 . S
C795 H781 0.929 . S
C795 C794 1.399 . S
C795 C796 1.385 . S
C796 H782 0.931 . S
C796 C795 1.385 . S
C796 C797 1.389 . S
C797 C796 1.389 . S
C797 C798 1.387 . S
C798 H783 0.930 . S
C798 C793 1.390 . S
C798 C797 1.387 . S
H799 C811 0.930 . S
H800 C813 0.930 . S
H801 C814 0.930 . S
H802 C818 0.959 . S
H803 C818 0.959 . S
H804 C818 0.961 . S
H805 C819 0.960 . S
H806 C819 0.961 . S
H807 C819 0.959 . S
H808 C822 0.929 1_566 S
H809 C823 0.931 . S
H810 C825 0.930 . S
C811 H799 0.930 . S
C811 C812 1.399 . S
C811 C816 1.399 . S
C812 C811 1.399 . S
C812 C813 1.376 . S
C813 H800 0.930 . S
C813 C812 1.376 . S
C813 C814 1.388 1_455 S
C814 H801 0.930 . S
C814 C813 1.388 1_655 S
C814 C815 1.390 . S
C815 C814 1.390 . S
C815 C816 1.394 1_655 S
C815 C821 1.448 1_566 S
C816 C811 1.399 . S
C816 C815 1.394 1_455 S
C816 C817 1.516 1_566 S
C817 C816 1.516 1_544 S
C817 C818 1.502 . S
C817 C819 1.561 1_554 S
C817 C820 1.526 1_455 S
C818 H802 0.959 . S
C818 H803 0.959 . S
C818 H804 0.961 . S
C818 C817 1.502 . S
C819 H805 0.960 . S
C819 H806 0.961 . S
C819 H807 0.959 . S
C819 C817 1.561 1_556 S
C820 C817 1.526 1_655 S
C820 C821 1.412 . S
C820 C825 1.390 . S
C821 C815 1.448 1_544 S
C821 C820 1.412 . S
C821 C822 1.403 . S
C822 H808 0.929 1_544 S
C822 C821 1.403 . S
C822 C823 1.385 . S
C823 H809 0.931 . S
C823 C822 1.385 . S
C823 C824 1.389 . S
C824 C823 1.389 . S
C824 C825 1.387 . S
C825 H810 0.930 . S
C825 C820 1.390 . S
C825 C824 1.387 . S
H826 C838 0.930 . S
H827 C840 0.930 . S
H828 C841 0.930 . S
H829 C845 0.959 . S
H830 C845 0.959 1_554 S
H831 C845 0.961 . S
H832 C846 0.960 . S
H833 C846 0.961 . S
H834 C846 0.931 1_545 S
H835 C849 0.929 . S
H836 C850 0.931 . S
H837 C852 0.930 . S
C838 H826 0.930 . S
C838 C839 1.399 . S
C838 C843 1.399 . S
C839 C838 1.399 . S
C839 C840 1.376 . S
C840 H827 0.930 . S
C840 C839 1.376 . S
C840 C841 1.388 . S
C841 H828 0.930 . S
C841 C840 1.388 . S
C841 C842 1.390 . S
C842 C841 1.390 . S
C842 C843 1.394 . S
C842 C848 1.466 1_556 S
C843 C838 1.399 . S
C843 C842 1.394 . S
C843 C844 1.516 1_546 S
C844 C843 1.516 1_564 S
C844 C845 1.502 1_554 S
C844 C846 1.561 . S
C844 C847 1.526 . S
C845 H829 0.959 . S
C845 H830 0.959 1_556 S
C845 H831 0.961 . S
C845 C844 1.502 1_556 S
C846 H832 0.960 . S
C846 H833 0.961 . S
C846 H834 0.931 1_565 S
C846 C844 1.561 . S
C847 C844 1.526 . S
C847 C848 1.395 1_565 S
C847 C852 1.390 . S
C848 C842 1.466 1_554 S
C848 C847 1.395 1_545 S
C848 C849 1.399 . S
C849 H835 0.929 . S
C849 C848 1.399 . S
C849 C850 1.385 1_545 S
C850 H836 0.931 . S
C850 C849 1.385 1_565 S
C850 C851 1.389 . S
C851 C850 1.389 . S
C851 C852 1.387 . S
C852 H837 0.930 . S
C852 C847 1.390 . S
C852 C851 1.387 . S
H853 C865 0.930 . S
H854 C867 0.930 . S
H855 C868 0.930 . S
H856 C872 0.959 . S
H857 C872 0.959 . S
H858 C872 0.961 . S
H859 C873 0.960 . S
H860 C873 0.961 . S
H861 C873 0.959 1_545 S
H862 C876 0.929 . S
H863 C877 0.931 . S
H864 C879 0.930 . S
C865 H853 0.930 . S
C865 C866 1.399 . S
C865 C870 1.399 . S
C866 C865 1.399 . S
C866 C867 1.376 . S
C867 H854 0.930 . S
C867 C866 1.376 . S
C867 C868 1.388 . S
C868 H855 0.930 . S
C868 C867 1.388 . S
C868 C869 1.390 . S
C869 C868 1.390 . S
C869 C870 1.394 . S
C869 C875 1.465 1_455 S
C870 C865 1.399 . S
C870 C869 1.394 . S
C870 C871 1.516 1_445 S
C871 C870 1.516 1_665 S
C871 C872 1.502 1_655 S
C871 C873 1.561 . S
C871 C874 1.526 . S
C872 H856 0.959 . S
C872 H857 0.959 . S
C872 H858 0.961 . S
C872 C871 1.502 1_455 S
C873 H859 0.960 . S
C873 H860 0.961 . S
C873 H861 0.959 1_565 S
C873 C871 1.561 . S
C874 C871 1.526 . S
C874 C875 1.396 1_565 S
C874 C879 1.390 . S
C875 C869 1.465 1_655 S
C875 C874 1.396 1_545 S
C875 C876 1.399 . S
C876 H862 0.929 . S
C876 C875 1.399 . S
C876 C877 1.385 1_545 S
C877 H863 0.931 . S
C877 C876 1.385 1_565 S
C877 C878 1.389 . S
C878 C877 1.389 . S
C878 C879 1.387 . S
C879 H864 0.930 . S
C879 C874 1.390 . S
C879 C878 1.387 . S
H880 C892 0.930 . S
H881 C894 0.930 . S
H882 C895 0.930 1_455 S
H883 C899 0.959 . S
H884 C899 0.959 . S
H885 C899 0.961 . S
H886 C900 0.960 . S
H887 C900 0.961 . S
H888 C900 0.959 . S
H889 C903 0.929 . S
H890 C904 0.931 . S
H891 C906 0.930 . S
C892 H880 0.930 . S
C892 C893 1.399 . S
C892 C897 1.399 . S
C893 C892 1.399 . S
C893 C894 1.376 . S
C894 H881 0.930 . S
C894 C893 1.376 . S
C894 C895 1.388 . S
C895 H882 0.930 1_655 S
C895 C894 1.388 . S
C895 C896 1.392 . S
C896 C895 1.392 . S
C896 C897 1.407 . S
C896 C902 1.452 1_655 S
C897 C892 1.399 . S
C897 C896 1.407 . S
C897 C898 1.516 . S
C898 C897 1.516 . S
C898 C899 1.502 . S
C898 C900 1.561 1_655 S
C898 C901 1.526 1_655 S
C899 H883 0.959 . S
C899 H884 0.959 . S
C899 H885 0.961 . S
C899 C898 1.502 . S
C900 H886 0.960 . S
C900 H887 0.961 . S
C900 H888 0.959 . S
C900 C898 1.561 1_455 S
C901 C898 1.526 1_455 S
C901 C902 1.396 . S
C901 C906 1.390 . S
C902 C896 1.452 1_455 S
C902 C901 1.396 . S
C902 C903 1.399 . S
C903 H889 0.929 . S
C903 C902 1.399 . S
C903 C904 1.385 . S
C904 H890 0.931 . S
C904 C903 1.385 . S
C904 C905 1.389 . S
C905 C904 1.389 . S
C905 C906 1.387 . S
C906 H891 0.930 . S
C906 C901 1.390 . S
C906 C905 1.387 . S
H907 C919 0.930 . S
H908 C921 0.930 . S
H909 C922 0.930 . S
H910 C926 0.959 . S
H911 C926 0.959 . S
H912 C926 0.961 . S
H913 C927 0.960 1_455 S
H914 C927 0.961 . S
H915 C927 0.959 . S
H916 C930 0.929 . S
H917 C931 0.931 . S
H918 C933 0.930 . S
C919 H907 0.930 . S
C919 C920 1.399 . S
C919 C924 1.399 . S
C920 C919 1.399 . S
C920 C921 1.376 . S
C921 H908 0.930 . S
C921 C920 1.376 . S
C921 C922 1.388 . S
C922 H909 0.930 . S
C922 C921 1.388 . S
C922 C923 1.390 . S
C923 C922 1.390 . S
C923 C924 1.394 . S
C923 C929 1.465 1_455 S
C924 C919 1.399 . S
C924 C923 1.394 . S
C924 C925 1.516 . S
C925 C924 1.516 . S
C925 C926 1.502 . S
C925 C927 1.561 1_455 S
C925 C928 1.526 1_455 S
C926 H910 0.959 . S
C926 H911 0.959 . S
C926 H912 0.961 . S
C926 C925 1.502 . S
C927 H913 0.960 1_655 S
C927 H914 0.961 . S
C927 H915 0.959 . S
C927 C925 1.561 1_655 S
C928 C925 1.526 1_655 S
C928 C929 1.396 . S
C928 C933 1.390 . S
C929 C923 1.465 1_655 S
C929 C928 1.396 . S
C929 C930 1.399 . S
C930 H916 0.929 . S
C930 C929 1.399 . S
C930 C931 1.385 . S
C931 H917 0.931 . S
C931 C930 1.385 . S
C931 C932 1.389 . S
C932 C931 1.389 . S
C932 C933 1.387 . S
C933 H918 0.930 . S
C933 C928 1.390 . S
C933 C932 1.387 . S
H934 C946 0.930 . S
H935 C948 0.930 . S
H936 C949 0.930 . S
H937 C953 0.959 . S
H938 C953 0.959 . S
H939 C953 0.961 . S
H940 C954 0.960 . S
H941 C954 0.961 . S
H942 C954 0.959 . S
H943 C957 0.929 . S
H944 C958 0.931 . S
H945 C960 0.930 . S
C946 H934 0.930 . S
C946 C947 1.399 . S
C946 C951 1.399 . S
C947 C946 1.399 . S
C947 C948 1.376 . S
C948 H935 0.930 . S
C948 C947 1.376 . S
C948 C949 1.388 . S
C949 H936 0.930 . S
C949 C948 1.388 . S
C949 C950 1.390 . S
C950 C949 1.390 . S
C950 C951 1.394 . S
C950 C956 1.465 . S
C951 C946 1.399 . S
C951 C950 1.394 . S
C951 C952 1.516 . S
C952 C951 1.516 . S
C952 C953 1.502 . S
C952 C954 1.561 . S
C952 C955 1.526 . S
C953 H937 0.959 . S
C953 H938 0.959 . S
C953 H939 0.961 . S
C953 C952 1.502 . S
C954 H940 0.960 . S
C954 H941 0.961 . S
C954 H942 0.959 . S
C954 C952 1.561 . S
C955 C952 1.526 . S
C955 C956 1.396 . S
C955 C960 1.390 . S
C956 C950 1.465 . S
C956 C955 1.396 . S
C956 C957 1.399 . S
C957 H943 0.929 . S
C957 C956 1.399 . S
C957 C958 1.385 . S
C958 H944 0.931 . S
C958 C957 1.385 . S
C958 C959 1.389 . S
C959 C958 1.389 . S
C959 C960 1.387 . S
C960 H945 0.930 . S
C960 C955 1.390 . S
C960 C959 1.387 . S
H961 C973 0.930 . S
H962 C975 0.930 . S
H963 C976 0.930 . S
H964 C980 0.959 . S
H965 C980 0.959 . S
H966 C980 0.961 . S
H967 C981 0.960 . S
H968 C981 0.961 . S
H969 C981 0.959 . S
H970 C984 0.929 . S
H971 C985 0.931 . S
H972 C987 0.930 . S
C973 H961 0.930 . S
C973 C974 1.399 . S
C973 C978 1.399 . S
C974 C973 1.399 . S
C974 C975 1.376 . S
C975 H962 0.930 . S
C975 C974 1.376 . S
C975 C976 1.388 . S
C976 H963 0.930 . S
C976 C975 1.388 . S
C976 C977 1.390 . S
C977 C976 1.390 . S
C977 C978 1.394 . S
C977 C983 1.465 . S
C978 C973 1.399 . S
C978 C977 1.394 . S
C978 C979 1.516 . S
C979 C978 1.516 . S
C979 C980 1.502 . S
C979 C981 1.561 . S
C979 C982 1.526 . S
C980 H964 0.959 . S
C980 H965 0.959 . S
C980 H966 0.961 . S
C980 C979 1.502 . S
C981 H967 0.960 . S
C981 H968 0.961 . S
C981 H969 0.959 . S
C981 C979 1.561 . S
C982 C979 1.526 . S
C982 C983 1.396 . S
C982 C987 1.390 . S
C983 C977 1.465 . S
C983 C982 1.396 . S
C983 C984 1.399 . S
C984 H970 0.929 . S
C984 C983 1.399 . S
C984 C985 1.385 . S
C985 H971 0.931 . S
C985 C984 1.385 . S
C985 C986 1.389 . S
C986 C985 1.389 . S
C986 C987 1.387 . S
C987 H972 0.930 . S
C987 C982 1.390 . S
C987 C986 1.387 . S
H988 C1000 0.930 . S
H989 C1002 0.930 . S
H990 C1003 0.930 . S
H991 C1007 0.959 . S
H992 C1007 0.959 . S
H993 C1007 0.961 . S
H994 C1008 0.960 . S
H995 C1008 0.961 1_455 S
H996 C1008 0.959 . S
H997 C1011 0.923 1_655 S
H998 C1012 0.931 . S
H999 C1014 0.930 . S
C1000 H988 0.930 . S
C1000 C1001 1.399 . S
C1000 C1005 1.399 . S
C1001 C1000 1.399 . S
C1001 C1002 1.376 . S
C1002 H989 0.930 . S
C1002 C1001 1.376 . S
C1002 C1003 1.388 . S
C1003 H990 0.930 . S
C1003 C1002 1.388 . S
C1003 C1004 1.390 . S
C1004 C1003 1.390 . S
C1004 C1005 1.394 . S
C1004 C1010 1.470 . S
C1005 C1000 1.399 . S
C1005 C1004 1.394 . S
C1005 C1006 1.516 1_655 S
C1006 C1005 1.516 1_455 S
C1006 C1007 1.502 . S
C1006 C1008 1.561 1_455 S
C1006 C1009 1.526 . S
C1007 H991 0.959 . S
C1007 H992 0.959 . S
C1007 H993 0.961 . S
C1007 C1006 1.502 . S
C1008 H994 0.960 . S
C1008 H995 0.961 1_655 S
C1008 H996 0.959 . S
C1008 C1006 1.561 1_655 S
C1009 C1006 1.526 . S
C1009 C1010 1.391 1_455 S
C1009 C1014 1.390 . S
C1010 C1004 1.470 . S
C1010 C1009 1.391 1_655 S
C1010 C1011 1.398 1_655 S
C1011 H997 0.923 1_455 S
C1011 C1010 1.398 1_455 S
C1011 C1012 1.392 . S
C1012 H998 0.931 . S
C1012 C1011 1.392 . S
C1012 C1013 1.389 . S
C1013 C1012 1.389 . S
C1013 C1014 1.387 . S
C1014 H999 0.930 . S
C1014 C1009 1.390 . S
C1014 C1013 1.387 . S
H1015 C1027 0.930 . S
H1016 C1029 0.930 . S
H1017 C1030 0.930 . S
H1018 C1034 0.959 . S
H1019 C1034 0.959 . S
H1020 C1034 0.961 . S
H1021 C1035 0.960 . S
H1022 C1035 0.961 . S
H1023 C1035 0.959 . S
H1024 C1038 0.929 . S
H1025 C1039 0.931 . S
H1026 C1041 0.930 . S
C1027 H1015 0.930 . S
C1027 C1028 1.399 . S
C1027 C1032 1.399 . S
C1028 C1027 1.399 . S
C1028 C1029 1.376 . S
C1029 H1016 0.930 . S
C1029 C1028 1.376 . S
C1029 C1030 1.388 . S
C1030 H1017 0.930 . S
C1030 C1029 1.388 . S
C1030 C1031 1.390 . S
C1031 C1030 1.390 . S
C1031 C1032 1.394 . S
C1031 C1037 1.465 . S
C1032 C1027 1.399 . S
C1032 C1031 1.394 . S
C1032 C1033 1.516 . S
C1033 C1032 1.516 . S
C1033 C1034 1.502 . S
C1033 C1035 1.561 . S
C1033 C1036 1.526 . S
C1034 H1018 0.959 . S
C1034 H1019 0.959 . S
C1034 H1020 0.961 . S
C1034 C1033 1.502 . S
C1035 H1021 0.960 . S
C1035 H1022 0.961 . S
C1035 H1023 0.959 . S
C1035 C1033 1.561 . S
C1036 C1033 1.526 . S
C1036 C1037 1.396 . S
C1036 C1041 1.390 . S
C1037 C1031 1.465 . S
C1037 C1036 1.396 . S
C1037 C1038 1.399 . S
C1038 H1024 0.929 . S
C1038 C1037 1.399 . S
C1038 C1039 1.385 . S
C1039 H1025 0.931 . S
C1039 C1038 1.385 . S
C1039 C1040 1.389 . S
C1040 C1039 1.389 . S
C1040 C1041 1.387 . S
C1041 H1026 0.930 . S
C1041 C1036 1.390 . S
C1041 C1040 1.387 . S
H1042 C1054 0.930 . S
H1043 C1056 0.930 . S
H1044 C1057 0.930 . S
H1045 C1061 0.959 . S
H1046 C1061 0.959 . S
H1047 C1061 0.961 . S
H1048 C1062 0.960 . S
H1049 C1062 0.961 . S
H1050 C1062 0.959 . S
H1051 C1065 0.929 . S
H1052 C1066 0.931 . S
H1053 C1068 0.930 . S
C1054 H1042 0.930 . S
C1054 C1055 1.399 . S
C1054 C1059 1.399 . S
C1055 C1054 1.399 . S
C1055 C1056 1.376 . S
C1056 H1043 0.930 . S
C1056 C1055 1.376 . S
C1056 C1057 1.388 . S
C1057 H1044 0.930 . S
C1057 C1056 1.388 . S
C1057 C1058 1.390 . S
C1058 C1057 1.390 . S
C1058 C1059 1.394 . S
C1058 C1064 1.465 . S
C1059 C1054 1.399 . S
C1059 C1058 1.394 . S
C1059 C1060 1.516 . S
C1060 C1059 1.516 . S
C1060 C1061 1.502 . S
C1060 C1062 1.561 . S
C1060 C1063 1.526 . S
C1061 H1045 0.959 . S
C1061 H1046 0.959 . S
C1061 H1047 0.961 . S
C1061 C1060 1.502 . S
C1062 H1048 0.960 . S
C1062 H1049 0.961 . S
C1062 H1050 0.959 . S
C1062 C1060 1.561 . S
C1063 C1060 1.526 . S
C1063 C1064 1.396 . S
C1063 C1068 1.390 . S
C1064 C1058 1.465 . S
C1064 C1063 1.396 . S
C1064 C1065 1.399 . S
C1065 H1051 0.929 . S
C1065 C1064 1.399 . S
C1065 C1066 1.385 . S
C1066 H1052 0.931 . S
C1066 C1065 1.385 . S
C1066 C1067 1.389 . S
C1067 C1066 1.389 . S
C1067 C1068 1.387 . S
C1068 H1053 0.930 . S
C1068 C1063 1.390 . S
C1068 C1067 1.387 . S
H1069 C1081 0.930 . S
H1070 C1083 0.930 . S
H1071 C1084 0.930 1_655 S
H1072 C1088 0.959 . S
H1073 C1088 0.959 . S
H1074 C1088 0.961 . S
H1075 C1089 0.960 . S
H1076 C1089 0.961 . S
H1077 C1089 0.959 . S
H1078 C1092 0.929 . S
H1079 C1093 0.931 . S
H1080 C1095 0.930 . S
C1081 H1069 0.930 . S
C1081 C1082 1.399 . S
C1081 C1086 1.399 . S
C1082 C1081 1.399 . S
C1082 C1083 1.376 . S
C1083 H1070 0.930 . S
C1083 C1082 1.376 . S
C1083 C1084 1.388 . S
C1084 H1071 0.930 1_455 S
C1084 C1083 1.388 . S
C1084 C1085 1.390 . S
C1085 C1084 1.390 . S
C1085 C1086 1.394 . S
C1085 C1091 1.465 1_455 S
C1086 C1081 1.399 . S
C1086 C1085 1.394 . S
C1086 C1087 1.516 . S
C1087 C1086 1.516 . S
C1087 C1088 1.502 . S
C1087 C1089 1.561 . S
C1087 C1090 1.526 1_455 S
C1088 H1072 0.959 . S
C1088 H1073 0.959 . S
C1088 H1074 0.961 . S
C1088 C1087 1.502 . S
C1089 H1075 0.960 . S
C1089 H1076 0.961 . S
C1089 H1077 0.959 . S
C1089 C1087 1.561 . S
C1090 C1087 1.526 1_655 S
C1090 C1091 1.396 . S
C1090 C1095 1.390 . S
C1091 C1085 1.465 1_655 S
C1091 C1090 1.396 . S
C1091 C1092 1.399 . S
C1092 H1078 0.929 . S
C1092 C1091 1.399 . S
C1092 C1093 1.385 . S
C1093 H1079 0.931 . S
C1093 C1092 1.385 . S
C1093 C1094 1.389 . S
C1094 C1093 1.389 . S
C1094 C1095 1.387 . S
C1095 H1080 0.930 . S
C1095 C1090 1.390 . S
C1095 C1094 1.387 . S
H1096 C1108 0.930 . S
H1097 C1110 0.930 . S
H1098 C1111 0.930 . S
H1099 C1115 0.959 . S
H1100 C1115 0.959 . S
H1101 C1115 0.961 . S
H1102 C1116 0.960 1_655 S
H1103 C1116 0.960 . S
H1104 C1116 0.959 1_655 S
H1105 C1119 0.929 . S
H1106 C1120 0.931 . S
H1107 C1122 0.930 . S
C1108 H1096 0.930 . S
C1108 C1109 1.399 . S
C1108 C1113 1.399 . S
C1109 C1108 1.399 . S
C1109 C1110 1.376 . S
C1110 H1097 0.930 . S
C1110 C1109 1.376 . S
C1110 C1111 1.388 . S
C1111 H1098 0.930 . S
C1111 C1110 1.388 . S
C1111 C1112 1.390 . S
C1112 C1111 1.390 . S
C1112 C1113 1.394 . S
C1112 C1118 1.465 . S
C1113 C1108 1.399 . S
C1113 C1112 1.394 . S
C1113 C1114 1.516 1_655 S
C1114 C1113 1.516 1_455 S
C1114 C1115 1.502 . S
C1114 C1116 1.561 . S
C1114 C1117 1.526 . S
C1115 H1099 0.959 . S
C1115 H1100 0.959 . S
C1115 H1101 0.961 . S
C1115 C1114 1.502 . S
C1116 H1102 0.960 1_455 S
C1116 H1103 0.960 . S
C1116 H1104 0.959 1_455 S
C1116 C1114 1.561 . S
C1117 C1114 1.526 . S
C1117 C1118 1.396 1_455 S
C1117 C1122 1.390 . S
C1118 C1112 1.465 . S
C1118 C1117 1.396 1_655 S
C1118 C1119 1.399 . S
C1119 H1105 0.929 . S
C1119 C1118 1.399 . S
C1119 C1120 1.385 1_655 S
C1120 H1106 0.931 . S
C1120 C1119 1.385 1_455 S
C1120 C1121 1.389 . S
C1121 C1120 1.389 . S
C1121 C1122 1.387 . S
C1122 H1107 0.930 . S
C1122 C1117 1.390 . S
C1122 C1121 1.387 . S
H1123 C1135 0.930 . S
H1124 C1137 0.930 . S
H1125 C1138 0.930 . S
H1126 C1142 0.959 . S
H1127 C1142 0.959 1_455 S
H1128 C1142 0.961 . S
H1129 C1143 0.943 1_655 S
H1130 C1143 0.961 . S
H1131 C1143 0.959 . S
H1132 C1146 0.929 . S
H1133 C1147 0.931 . S
H1134 C1149 0.930 . S
C1135 H1123 0.930 . S
C1135 C1136 1.399 . S
C1135 C1140 1.399 . S
C1136 C1135 1.399 . S
C1136 C1137 1.376 . S
C1137 H1124 0.930 . S
C1137 C1136 1.376 . S
C1137 C1138 1.388 . S
C1138 H1125 0.930 . S
C1138 C1137 1.388 . S
C1138 C1139 1.390 . S
C1139 C1138 1.390 . S
C1139 C1140 1.394 . S
C1139 C1145 1.465 1_655 S
C1140 C1135 1.399 . S
C1140 C1139 1.394 . S
C1140 C1141 1.516 1_655 S
C1141 C1140 1.516 1_455 S
C1141 C1142 1.502 1_455 S
C1141 C1143 1.561 . S
C1141 C1144 1.526 . S
C1142 H1126 0.959 . S
C1142 H1127 0.959 1_655 S
C1142 H1128 0.961 . S
C1142 C1141 1.502 1_655 S
C1143 H1129 0.943 1_455 S
C1143 H1130 0.961 . S
C1143 H1131 0.959 . S
C1143 C1141 1.561 . S
C1144 C1141 1.526 . S
C1144 C1145 1.396 . S
C1144 C1149 1.390 . S
C1145 C1139 1.465 1_455 S
C1145 C1144 1.396 . S
C1145 C1146 1.399 . S
C1146 H1132 0.929 . S
C1146 C1145 1.399 . S
C1146 C1147 1.385 . S
C1147 H1133 0.931 . S
C1147 C1146 1.385 . S
C1147 C1148 1.389 . S
C1148 C1147 1.389 . S
C1148 C1149 1.387 . S
C1149 H1134 0.930 . S
C1149 C1144 1.390 . S
C1149 C1148 1.387 . S
H1150 C1162 0.930 . S
H1151 C1164 0.930 . S
H1152 C1165 0.930 . S
H1153 C1169 0.959 . S
H1154 C1169 0.959 . S
H1155 C1169 0.961 . S
H1156 C1170 0.960 . S
H1157 C1170 0.961 . S
H1158 C1170 0.959 . S
H1159 C1173 0.929 . S
H1160 C1174 0.931 . S
H1161 C1176 0.930 . S
C1162 H1150 0.930 . S
C1162 C1163 1.399 . S
C1162 C1167 1.399 . S
C1163 C1162 1.399 . S
C1163 C1164 1.376 . S
C1164 H1151 0.930 . S
C1164 C1163 1.376 . S
C1164 C1165 1.388 . S
C1165 H1152 0.930 . S
C1165 C1164 1.388 . S
C1165 C1166 1.390 . S
C1166 C1165 1.390 . S
C1166 C1167 1.394 . S
C1166 C1172 1.465 . S
C1167 C1162 1.399 . S
C1167 C1166 1.394 . S
C1167 C1168 1.516 . S
C1168 C1167 1.516 . S
C1168 C1169 1.502 . S
C1168 C1170 1.561 . S
C1168 C1171 1.526 . S
C1169 H1153 0.959 . S
C1169 H1154 0.959 . S
C1169 H1155 0.961 . S
C1169 C1168 1.502 . S
C1170 H1156 0.960 . S
C1170 H1157 0.961 . S
C1170 H1158 0.959 . S
C1170 C1168 1.561 . S
C1171 C1168 1.526 . S
C1171 C1172 1.396 . S
C1171 C1176 1.390 . S
C1172 C1166 1.465 . S
C1172 C1171 1.396 . S
C1172 C1173 1.399 . S
C1173 H1159 0.929 . S
C1173 C1172 1.399 . S
C1173 C1174 1.385 . S
C1174 H1160 0.931 . S
C1174 C1173 1.385 . S
C1174 C1175 1.389 . S
C1175 C1174 1.389 . S
C1175 C1176 1.387 . S
C1176 H1161 0.930 . S
C1176 C1171 1.390 . S
C1176 C1175 1.387 . S
H1177 C1189 0.930 . S
H1178 C1191 0.930 . S
H1179 C1192 0.930 . S
H1180 C1196 0.959 . S
H1181 C1196 0.959 . S
H1182 C1196 0.961 . S
H1183 C1197 0.960 . S
H1184 C1197 0.961 . S
H1185 C1197 0.959 . S
H1186 C1200 0.929 . S
H1187 C1201 0.931 . S
H1188 C1203 0.930 . S
C1189 H1177 0.930 . S
C1189 C1190 1.399 . S
C1189 C1194 1.399 . S
C1190 C1189 1.399 . S
C1190 C1191 1.376 . S
C1191 H1178 0.930 . S
C1191 C1190 1.376 . S
C1191 C1192 1.388 . S
C1192 H1179 0.930 . S
C1192 C1191 1.388 . S
C1192 C1193 1.390 . S
C1193 C1192 1.390 . S
C1193 C1194 1.394 . S
C1193 C1199 1.465 . S
C1194 C1189 1.399 . S
C1194 C1193 1.394 . S
C1194 C1195 1.516 . S
C1195 C1194 1.516 . S
C1195 C1196 1.502 . S
C1195 C1197 1.561 . S
C1195 C1198 1.526 . S
C1196 H1180 0.959 . S
C1196 H1181 0.959 . S
C1196 H1182 0.961 . S
C1196 C1195 1.502 . S
C1197 H1183 0.960 . S
C1197 H1184 0.961 . S
C1197 H1185 0.959 . S
C1197 C1195 1.561 . S
C1198 C1195 1.526 . S
C1198 C1199 1.396 . S
C1198 C1203 1.390 . S
C1199 C1193 1.465 . S
C1199 C1198 1.396 . S
C1199 C1200 1.399 . S
C1200 H1186 0.929 . S
C1200 C1199 1.399 . S
C1200 C1201 1.385 . S
C1201 H1187 0.931 . S
C1201 C1200 1.385 . S
C1201 C1202 1.389 . S
C1202 C1201 1.389 . S
C1202 C1203 1.387 . S
C1203 H1188 0.930 . S
C1203 C1198 1.390 . S
C1203 C1202 1.387 . S
H1204 C1216 0.930 . S
H1205 C1218 0.930 . S
H1206 C1219 0.930 . S
H1207 C1223 0.959 . S
H1208 C1223 0.959 . S
H1209 C1223 0.961 . S
H1210 C1224 0.960 . S
H1211 C1224 0.961 . S
H1212 C1224 0.959 . S
H1213 C1227 0.929 . S
H1214 C1228 0.931 . S
H1215 C1230 0.930 . S
C1216 H1204 0.930 . S
C1216 C1217 1.399 . S
C1216 C1221 1.399 . S
C1217 C1216 1.399 . S
C1217 C1218 1.376 . S
C1218 H1205 0.930 . S
C1218 C1217 1.376 . S
C1218 C1219 1.388 . S
C1219 H1206 0.930 . S
C1219 C1218 1.388 . S
C1219 C1220 1.390 . S
C1220 C1219 1.390 . S
C1220 C1221 1.394 . S
C1220 C1226 1.465 1_655 S
C1221 C1216 1.399 . S
C1221 C1220 1.394 . S
C1221 C1222 1.516 1_655 S
C1222 C1221 1.516 1_455 S
C1222 C1223 1.502 1_455 S
C1222 C1224 1.561 . S
C1222 C1225 1.526 . S
C1223 H1207 0.959 . S
C1223 H1208 0.959 . S
C1223 H1209 0.961 . S
C1223 C1222 1.502 1_655 S
C1224 H1210 0.960 . S
C1224 H1211 0.961 . S
C1224 H1212 0.959 . S
C1224 C1222 1.561 . S
C1225 C1222 1.526 . S
C1225 C1226 1.396 . S
C1225 C1230 1.390 . S
C1226 C1220 1.465 1_455 S
C1226 C1225 1.396 . S
C1226 C1227 1.399 . S
C1227 H1213 0.929 . S
C1227 C1226 1.399 . S
C1227 C1228 1.385 . S
C1228 H1214 0.931 . S
C1228 C1227 1.385 . S
C1228 C1229 1.389 . S
C1229 C1228 1.389 . S
C1229 C1230 1.387 . S
C1230 H1215 0.930 . S
C1230 C1225 1.390 . S
C1230 C1229 1.387 . S
H1231 C1243 0.930 . S
H1232 C1245 0.930 . S
H1233 C1246 0.930 . S
H1234 C1250 0.959 . S
H1235 C1250 0.959 . S
H1236 C1250 0.961 . S
H1237 C1251 0.960 . S
H1238 C1251 0.961 . S
H1239 C1251 0.959 . S
H1240 C1254 0.929 . S
H1241 C1255 0.931 . S
H1242 C1257 0.930 . S
C1243 H1231 0.930 . S
C1243 C1244 1.399 . S
C1243 C1248 1.399 . S
C1244 C1243 1.399 . S
C1244 C1245 1.376 . S
C1245 H1232 0.930 . S
C1245 C1244 1.376 . S
C1245 C1246 1.388 . S
C1246 H1233 0.930 . S
C1246 C1245 1.388 . S
C1246 C1247 1.390 . S
C1247 C1246 1.390 . S
C1247 C1248 1.394 . S
C1247 C1253 1.465 . S
C1248 C1243 1.399 . S
C1248 C1247 1.394 . S
C1248 C1249 1.516 . S
C1249 C1248 1.516 . S
C1249 C1250 1.502 . S
C1249 C1251 1.561 . S
C1249 C1252 1.526 . S
C1250 H1234 0.959 . S
C1250 H1235 0.959 . S
C1250 H1236 0.961 . S
C1250 C1249 1.502 . S
C1251 H1237 0.960 . S
C1251 H1238 0.961 . S
C1251 H1239 0.959 . S
C1251 C1249 1.561 . S
C1252 C1249 1.526 . S
C1252 C1253 1.396 . S
C1252 C1257 1.390 . S
C1253 C1247 1.465 . S
C1253 C1252 1.396 . S
C1253 C1254 1.399 . S
C1254 H1240 0.929 . S
C1254 C1253 1.399 . S
C1254 C1255 1.385 . S
C1255 H1241 0.931 . S
C1255 C1254 1.385 . S
C1255 C1256 1.389 . S
C1256 C1255 1.389 . S
C1256 C1257 1.387 . S
C1257 H1242 0.930 . S
C1257 C1252 1.390 . S
C1257 C1256 1.387 . S
H1258 C1270 0.930 . S
H1259 C1272 0.930 . S
H1260 C1273 0.930 . S
H1261 C1277 0.959 . S
H1262 C1277 0.959 . S
H1263 C1277 0.961 . S
H1264 C1278 0.960 . S
H1265 C1278 0.961 . S
H1266 C1278 0.959 . S
H1267 C1281 0.929 . S
H1268 C1282 0.931 . S
H1269 C1284 0.930 . S
C1270 H1258 0.930 . S
C1270 C1271 1.399 . S
C1270 C1275 1.399 . S
C1271 C1270 1.399 . S
C1271 C1272 1.376 . S
C1272 H1259 0.930 . S
C1272 C1271 1.376 . S
C1272 C1273 1.388 . S
C1273 H1260 0.930 . S
C1273 C1272 1.388 . S
C1273 C1274 1.390 . S
C1274 C1273 1.390 . S
C1274 C1275 1.394 . S
C1274 C1280 1.465 . S
C1275 C1270 1.399 . S
C1275 C1274 1.394 . S
C1275 C1276 1.516 . S
C1276 C1275 1.516 . S
C1276 C1277 1.502 . S
C1276 C1278 1.561 . S
C1276 C1279 1.526 . S
C1277 H1261 0.959 . S
C1277 H1262 0.959 . S
C1277 H1263 0.961 . S
C1277 C1276 1.502 . S
C1278 H1264 0.960 . S
C1278 H1265 0.961 . S
C1278 H1266 0.959 . S
C1278 C1276 1.561 . S
C1279 C1276 1.526 . S
C1279 C1280 1.396 . S
C1279 C1284 1.390 . S
C1280 C1274 1.465 . S
C1280 C1279 1.396 . S
C1280 C1281 1.399 . S
C1281 H1267 0.929 . S
C1281 C1280 1.399 . S
C1281 C1282 1.385 . S
C1282 H1268 0.931 . S
C1282 C1281 1.385 . S
C1282 C1283 1.389 . S
C1283 C1282 1.389 . S
C1283 C1284 1.387 . S
C1284 H1269 0.930 . S
C1284 C1279 1.390 . S
C1284 C1283 1.387 . S
H1285 C1297 0.930 . S
H1286 C1299 0.930 . S
H1287 C1300 0.930 1_455 S
H1288 C1304 0.959 . S
H1289 C1304 0.959 . S
H1290 C1304 0.961 . S
H1291 C1305 0.960 . S
H1292 C1305 0.961 . S
H1293 C1305 0.959 . S
H1294 C1308 0.929 . S
H1295 C1309 0.931 . S
H1296 C1311 0.930 . S
C1297 H1285 0.930 . S
C1297 C1298 1.399 . S
C1297 C1302 1.399 . S
C1298 C1297 1.399 . S
C1298 C1299 1.376 . S
C1299 H1286 0.930 . S
C1299 C1298 1.376 . S
C1299 C1300 1.388 . S
C1300 H1287 0.930 1_655 S
C1300 C1299 1.388 . S
C1300 C1301 1.390 . S
C1301 C1300 1.390 . S
C1301 C1302 1.394 . S
C1301 C1307 1.465 1_655 S
C1302 C1297 1.399 . S
C1302 C1301 1.394 . S
C1302 C1303 1.516 . S
C1303 C1302 1.516 . S
C1303 C1304 1.502 . S
C1303 C1305 1.561 . S
C1303 C1306 1.526 1_655 S
C1304 H1288 0.959 . S
C1304 H1289 0.959 . S
C1304 H1290 0.961 . S
C1304 C1303 1.502 . S
C1305 H1291 0.960 . S
C1305 H1292 0.961 . S
C1305 H1293 0.959 . S
C1305 C1303 1.561 . S
C1306 C1303 1.526 1_455 S
C1306 C1307 1.396 . S
C1306 C1311 1.390 . S
C1307 C1301 1.465 1_455 S
C1307 C1306 1.396 . S
C1307 C1308 1.399 . S
C1308 H1294 0.929 . S
C1308 C1307 1.399 . S
C1308 C1309 1.385 . S
C1309 H1295 0.931 . S
C1309 C1308 1.385 . S
C1309 C1310 1.389 . S
C1310 C1309 1.389 . S
C1310 C1311 1.387 . S
C1311 H1296 0.930 . S
C1311 C1306 1.390 . S
C1311 C1310 1.387 . S
H1312 C1324 0.930 . S
H1313 C1326 0.930 . S
H1314 C1327 0.956 . S
H1315 C1331 0.959 . S
H1316 C1331 0.959 . S
H1317 C1331 0.961 . S
H1318 C1332 0.960 . S
H1319 C1332 0.961 . S
H1320 C1332 0.959 . S
H1321 C1335 0.929 . S
H1322 C1336 0.931 . S
H1323 C1338 0.930 . S
C1324 H1312 0.930 . S
C1324 C1325 1.399 . S
C1324 C1329 1.399 . S
C1325 C1324 1.399 . S
C1325 C1326 1.376 . S
C1326 H1313 0.930 . S
C1326 C1325 1.376 . S
C1326 C1327 1.388 . S
C1327 H1314 0.956 . S
C1327 C1326 1.388 . S
C1327 C1328 1.390 . S
C1328 C1327 1.390 . S
C1328 C1329 1.394 . S
C1328 C1334 1.465 1_556 S
C1329 C1324 1.399 . S
C1329 C1328 1.394 . S
C1329 C1330 1.516 . S
C1330 C1329 1.516 . S
C1330 C1331 1.502 . S
C1330 C1332 1.561 1_556 S
C1330 C1333 1.526 1_556 S
C1331 H1315 0.959 . S
C1331 H1316 0.959 . S
C1331 H1317 0.961 . S
C1331 C1330 1.502 . S
C1332 H1318 0.960 . S
C1332 H1319 0.961 . S
C1332 H1320 0.959 . S
C1332 C1330 1.561 1_554 S
C1333 C1330 1.526 1_554 S
C1333 C1334 1.396 . S
C1333 C1338 1.390 . S
C1334 C1328 1.465 1_554 S
C1334 C1333 1.396 . S
C1334 C1335 1.399 . S
C1335 H1321 0.929 . S
C1335 C1334 1.399 . S
C1335 C1336 1.385 . S
C1336 H1322 0.931 . S
C1336 C1335 1.385 . S
C1336 C1337 1.389 . S
C1337 C1336 1.389 . S
C1337 C1338 1.387 . S
C1338 H1323 0.930 . S
C1338 C1333 1.390 . S
C1338 C1337 1.387 . S
H1339 C1351 0.930 . S
H1340 C1353 0.930 . S
H1341 C1354 0.930 . S
H1342 C1358 0.959 . S
H1343 C1358 0.959 . S
H1344 C1358 0.961 . S
H1345 C1359 0.960 . S
H1346 C1359 0.961 . S
H1347 C1359 0.959 . S
H1348 C1362 0.929 1_545 S
H1349 C1363 0.931 . S
H1350 C1365 0.930 . S
C1351 H1339 0.930 . S
C1351 C1352 1.399 . S
C1351 C1356 1.399 . S
C1352 C1351 1.399 . S
C1352 C1353 1.376 . S
C1353 H1340 0.930 . S
C1353 C1352 1.376 . S
C1353 C1354 1.388 . S
C1354 H1341 0.930 . S
C1354 C1353 1.388 . S
C1354 C1355 1.390 . S
C1355 C1354 1.390 . S
C1355 C1356 1.394 . S
C1355 C1361 1.465 1_545 S
C1356 C1351 1.399 . S
C1356 C1355 1.394 . S
C1356 C1357 1.516 1_545 S
C1357 C1356 1.516 1_565 S
C1357 C1358 1.502 . S
C1357 C1359 1.561 . S
C1357 C1360 1.526 . S
C1358 H1342 0.959 . S
C1358 H1343 0.959 . S
C1358 H1344 0.961 . S
C1358 C1357 1.502 . S
C1359 H1345 0.960 . S
C1359 H1346 0.961 . S
C1359 H1347 0.959 . S
C1359 C1357 1.561 . S
C1360 C1357 1.526 . S
C1360 C1361 1.396 . S
C1360 C1365 1.390 . S
C1361 C1355 1.465 1_565 S
C1361 C1360 1.396 . S
C1361 C1362 1.399 . S
C1362 H1348 0.929 1_565 S
C1362 C1361 1.399 . S
C1362 C1363 1.385 . S
C1363 H1349 0.931 . S
C1363 C1362 1.385 . S
C1363 C1364 1.389 . S
C1364 C1363 1.389 . S
C1364 C1365 1.387 . S
C1365 H1350 0.930 . S
C1365 C1360 1.390 . S
C1365 C1364 1.387 . S
H1366 C1378 0.930 . S
H1367 C1380 0.930 . S
H1368 C1381 0.930 . S
H1369 C1385 0.959 . S
H1370 C1385 0.959 . S
H1371 C1385 0.961 . S
H1372 C1386 0.960 . S
H1373 C1386 0.961 . S
H1374 C1386 0.959 . S
H1375 C1389 0.929 . S
H1376 C1390 0.931 . S
H1377 C1392 0.930 . S
C1378 H1366 0.930 . S
C1378 C1379 1.399 . S
C1378 C1383 1.399 . S
C1379 C1378 1.399 . S
C1379 C1380 1.376 . S
C1380 H1367 0.930 . S
C1380 C1379 1.376 . S
C1380 C1381 1.388 . S
C1381 H1368 0.930 . S
C1381 C1380 1.388 . S
C1381 C1382 1.390 . S
C1382 C1381 1.390 . S
C1382 C1383 1.394 . S
C1382 C1388 1.465 . S
C1383 C1378 1.399 . S
C1383 C1382 1.394 . S
C1383 C1384 1.516 . S
C1384 C1383 1.516 . S
C1384 C1385 1.502 . S
C1384 C1386 1.561 . S
C1384 C1387 1.526 . S
C1385 H1369 0.959 . S
C1385 H1370 0.959 . S
C1385 H1371 0.961 . S
C1385 C1384 1.502 . S
C1386 H1372 0.960 . S
C1386 H1373 0.961 . S
C1386 H1374 0.959 . S
C1386 C1384 1.561 . S
C1387 C1384 1.526 . S
C1387 C1388 1.396 . S
C1387 C1392 1.390 . S
C1388 C1382 1.465 . S
C1388 C1387 1.396 . S
C1388 C1389 1.399 . S
C1389 H1375 0.929 . S
C1389 C1388 1.399 . S
C1389 C1390 1.385 . S
C1390 H1376 0.931 . S
C1390 C1389 1.385 . S
C1390 C1391 1.389 . S
C1391 C1390 1.389 . S
C1391 C1392 1.387 . S
C1392 H1377 0.930 . S
C1392 C1387 1.390 . S
C1392 C1391 1.387 . S
H1393 C1405 0.930 . S
H1394 C1407 0.930 . S
H1395 C1408 0.947 . S
H1396 C1412 0.959 . S
H1397 C1412 0.959 . S
H1398 C1412 0.961 . S
H1399 C1413 0.960 . S
H1400 C1413 0.961 . S
H1401 C1413 0.959 . S
H1402 C1416 0.929 . S
H1403 C1417 0.931 . S
H1404 C1419 0.930 . S
C1405 H1393 0.930 . S
C1405 C1406 1.399 . S
C1405 C1410 1.399 . S
C1406 C1405 1.399 . S
C1406 C1407 1.376 . S
C1407 H1394 0.930 . S
C1407 C1406 1.376 . S
C1407 C1408 1.388 . S
C1408 H1395 0.947 . S
C1408 C1407 1.388 . S
C1408 C1409 1.390 . S
C1409 C1408 1.390 . S
C1409 C1410 1.394 . S
C1409 C1415 1.465 1_545 S
C1410 C1405 1.399 . S
C1410 C1409 1.394 . S
C1410 C1411 1.516 . S
C1411 C1410 1.516 . S
C1411 C1412 1.502 . S
C1411 C1413 1.561 . S
C1411 C1414 1.526 1_545 S
C1412 H1396 0.959 . S
C1412 H1397 0.959 . S
C1412 H1398 0.961 . S
C1412 C1411 1.502 . S
C1413 H1399 0.960 . S
C1413 H1400 0.961 . S
C1413 H1401 0.959 . S
C1413 C1411 1.561 . S
C1414 C1411 1.526 1_565 S
C1414 C1415 1.396 . S
C1414 C1419 1.390 . S
C1415 C1409 1.465 1_565 S
C1415 C1414 1.396 . S
C1415 C1416 1.399 . S
C1416 H1402 0.929 . S
C1416 C1415 1.399 . S
C1416 C1417 1.385 . S
C1417 H1403 0.931 . S
C1417 C1416 1.385 . S
C1417 C1418 1.389 . S
C1418 C1417 1.389 . S
C1418 C1419 1.387 . S
C1419 H1404 0.930 . S
C1419 C1414 1.390 . S
C1419 C1418 1.387 . S
H1420 C1432 0.930 . S
H1421 C1434 0.930 . S
H1422 C1435 0.954 . S
H1423 C1439 0.959 . S
H1424 C1439 0.959 . S
H1425 C1439 0.961 . S
H1426 C1440 0.960 1_554 S
H1427 C1440 0.961 . S
H1428 C1440 0.959 . S
H1429 C1443 0.929 . S
H1430 C1444 0.931 . S
H1431 C1446 0.930 . S
C1432 H1420 0.930 . S
C1432 C1433 1.399 . S
C1432 C1437 1.399 . S
C1433 C1432 1.399 . S
C1433 C1434 1.376 . S
C1434 H1421 0.930 . S
C1434 C1433 1.376 . S
C1434 C1435 1.365 1_554 S
C1435 H1422 0.954 . S
C1435 C1434 1.365 1_556 S
C1435 C1436 1.390 . S
C1436 C1435 1.390 . S
C1436 C1437 1.374 1_556 S
C1436 C1442 1.482 . S
C1437 C1432 1.399 . S
C1437 C1436 1.374 1_554 S
C1437 C1438 1.516 . S
C1438 C1437 1.516 . S
C1438 C1439 1.502 . S
C1438 C1440 1.561 1_554 S
C1438 C1441 1.526 1_554 S
C1439 H1423 0.959 . S
C1439 H1424 0.959 . S
C1439 H1425 0.961 . S
C1439 C1438 1.502 . S
C1440 H1426 0.960 1_556 S
C1440 H1427 0.961 . S
C1440 H1428 0.959 . S
C1440 C1438 1.561 1_556 S
C1441 C1438 1.526 1_556 S
C1441 C1442 1.396 . S
C1441 C1446 1.390 . S
C1442 C1436 1.482 . S
C1442 C1441 1.396 . S
C1442 C1443 1.399 . S
C1443 H1429 0.929 . S
C1443 C1442 1.399 . S
C1443 C1444 1.385 . S
C1444 H1430 0.931 . S
C1444 C1443 1.385 . S
C1444 C1445 1.389 . S
C1445 C1444 1.389 . S
C1445 C1446 1.387 . S
C1446 H1431 0.930 . S
C1446 C1441 1.390 . S
C1446 C1445 1.387 . S
H1447 C1459 0.930 . S
H1448 C1461 0.930 . S
H1449 C1462 0.930 . S
H1450 C1466 0.959 . S
H1451 C1466 0.959 . S
H1452 C1466 0.961 . S
H1453 C1467 0.960 . S
H1454 C1467 0.961 . S
H1455 C1467 0.959 . S
H1456 C1470 0.929 . S
H1457 C1471 0.931 . S
H1458 C1473 0.930 . S
C1459 H1447 0.930 . S
C1459 C1460 1.399 . S
C1459 C1464 1.399 . S
C1460 C1459 1.399 . S
C1460 C1461 1.376 . S
C1461 H1448 0.930 . S
C1461 C1460 1.376 . S
C1461 C1462 1.388 . S
C1462 H1449 0.930 . S
C1462 C1461 1.388 . S
C1462 C1463 1.390 . S
C1463 C1462 1.390 . S
C1463 C1464 1.394 . S
C1463 C1469 1.465 1_565 S
C1464 C1459 1.399 . S
C1464 C1463 1.394 . S
C1464 C1465 1.516 . S
C1465 C1464 1.516 . S
C1465 C1466 1.502 . S
C1465 C1467 1.561 . S
C1465 C1468 1.526 1_565 S
C1466 H1450 0.959 . S
C1466 H1451 0.959 . S
C1466 H1452 0.961 . S
C1466 C1465 1.502 . S
C1467 H1453 0.960 . S
C1467 H1454 0.961 . S
C1467 H1455 0.959 . S
C1467 C1465 1.561 . S
C1468 C1465 1.526 1_545 S
C1468 C1469 1.396 . S
C1468 C1473 1.390 . S
C1469 C1463 1.465 1_545 S
C1469 C1468 1.396 . S
C1469 C1470 1.399 . S
C1470 H1456 0.929 . S
C1470 C1469 1.399 . S
C1470 C1471 1.385 . S
C1471 H1457 0.931 . S
C1471 C1470 1.385 . S
C1471 C1472 1.389 . S
C1472 C1471 1.389 . S
C1472 C1473 1.387 . S
C1473 H1458 0.930 . S
C1473 C1468 1.390 . S
C1473 C1472 1.387 . S
H1474 C1486 0.930 . S
H1475 C1488 0.930 . S
H1476 C1489 0.930 . S
H1477 C1493 0.959 . S
H1478 C1493 0.959 . S
H1479 C1493 0.961 . S
H1480 C1494 0.960 . S
H1481 C1494 0.961 . S
H1482 C1494 0.959 . S
H1483 C1497 0.929 . S
H1484 C1498 0.931 . S
H1485 C1500 0.930 . S
C1486 H1474 0.930 . S
C1486 C1487 1.399 . S
C1486 C1491 1.399 . S
C1487 C1486 1.399 . S
C1487 C1488 1.376 . S
C1488 H1475 0.930 . S
C1488 C1487 1.376 . S
C1488 C1489 1.388 . S
C1489 H1476 0.930 . S
C1489 C1488 1.388 . S
C1489 C1490 1.390 . S
C1490 C1489 1.390 . S
C1490 C1491 1.394 . S
C1490 C1496 1.465 . S
C1491 C1486 1.399 . S
C1491 C1490 1.394 . S
C1491 C1492 1.516 . S
C1492 C1491 1.516 . S
C1492 C1493 1.502 . S
C1492 C1494 1.561 . S
C1492 C1495 1.526 . S
C1493 H1477 0.959 . S
C1493 H1478 0.959 . S
C1493 H1479 0.961 . S
C1493 C1492 1.502 . S
C1494 H1480 0.960 . S
C1494 H1481 0.961 . S
C1494 H1482 0.959 . S
C1494 C1492 1.561 . S
C1495 C1492 1.526 . S
C1495 C1496 1.396 . S
C1495 C1500 1.390 . S
C1496 C1490 1.465 . S
C1496 C1495 1.396 . S
C1496 C1497 1.399 . S
C1497 H1483 0.929 . S
C1497 C1496 1.399 . S
C1497 C1498 1.385 . S
C1498 H1484 0.931 . S
C1498 C1497 1.385 . S
C1498 C1499 1.389 . S
C1499 C1498 1.389 . S
C1499 C1500 1.387 . S
C1500 H1485 0.930 . S
C1500 C1495 1.390 . S
C1500 C1499 1.387 . S
H1501 C1513 0.930 . S
H1502 C1515 0.930 . S
H1503 C1516 0.930 . S
H1504 C1520 0.959 1_565 S
H1505 C1520 0.959 1_565 S
H1506 C1520 0.961 . S
H1507 C1521 0.960 . S
H1508 C1521 0.961 . S
H1509 C1521 0.959 . S
H1510 C1524 0.929 . S
H1511 C1525 0.931 . S
H1512 C1527 0.930 . S
C1513 H1501 0.930 . S
C1513 C1514 1.399 . S
C1513 C1518 1.399 . S
C1514 C1513 1.399 . S
C1514 C1515 1.376 . S
C1515 H1502 0.930 . S
C1515 C1514 1.376 . S
C1515 C1516 1.388 . S
C1516 H1503 0.930 . S
C1516 C1515 1.388 . S
C1516 C1517 1.390 . S
C1517 C1516 1.390 . S
C1517 C1518 1.394 . S
C1517 C1523 1.465 1_545 S
C1518 C1513 1.399 . S
C1518 C1517 1.394 . S
C1518 C1519 1.516 . S
C1519 C1518 1.516 . S
C1519 C1520 1.502 . S
C1519 C1521 1.561 . S
C1519 C1522 1.526 1_545 S
C1520 H1504 0.959 1_545 S
C1520 H1505 0.959 1_545 S
C1520 H1506 0.961 . S
C1520 C1519 1.502 . S
C1521 H1507 0.960 . S
C1521 H1508 0.961 . S
C1521 H1509 0.959 . S
C1521 C1519 1.561 . S
C1522 C1519 1.526 1_565 S
C1522 C1523 1.396 . S
C1522 C1527 1.390 . S
C1523 C1517 1.465 1_565 S
C1523 C1522 1.396 . S
C1523 C1524 1.399 . S
C1524 H1510 0.929 . S
C1524 C1523 1.399 . S
C1524 C1525 1.385 . S
C1525 H1511 0.931 . S
C1525 C1524 1.385 . S
C1525 C1526 1.389 . S
C1526 C1525 1.389 . S
C1526 C1527 1.387 . S
C1527 H1512 0.930 . S
C1527 C1522 1.390 . S
C1527 C1526 1.387 . S
H1528 C1540 0.930 . S
H1529 C1542 0.930 . S
H1530 C1543 0.930 . S
H1531 C1547 0.959 . S
H1532 C1547 0.959 . S
H1533 C1547 0.961 . S
H1534 C1548 0.960 . S
H1535 C1548 0.961 . S
H1536 C1548 0.959 . S
H1537 C1551 0.929 . S
H1538 C1552 0.931 . S
H1539 C1554 0.930 . S
C1540 H1528 0.930 . S
C1540 C1541 1.399 . S
C1540 C1545 1.399 . S
C1541 C1540 1.399 . S
C1541 C1542 1.376 . S
C1542 H1529 0.930 . S
C1542 C1541 1.376 . S
C1542 C1543 1.388 . S
C1543 H1530 0.930 . S
C1543 C1542 1.388 . S
C1543 C1544 1.390 . S
C1544 C1543 1.390 . S
C1544 C1545 1.394 . S
C1544 C1550 1.465 . S
C1545 C1540 1.399 . S
C1545 C1544 1.394 . S
C1545 C1546 1.516 . S
C1546 C1545 1.516 . S
C1546 C1547 1.502 . S
C1546 C1548 1.561 . S
C1546 C1549 1.526 . S
C1547 H1531 0.959 . S
C1547 H1532 0.959 . S
C1547 H1533 0.961 . S
C1547 C1546 1.502 . S
C1548 H1534 0.960 . S
C1548 H1535 0.961 . S
C1548 H1536 0.959 . S
C1548 C1546 1.561 . S
C1549 C1546 1.526 . S
C1549 C1550 1.396 . S
C1549 C1554 1.390 . S
C1550 C1544 1.465 . S
C1550 C1549 1.396 . S
C1550 C1551 1.399 . S
C1551 H1537 0.929 . S
C1551 C1550 1.399 . S
C1551 C1552 1.385 . S
C1552 H1538 0.931 . S
C1552 C1551 1.385 . S
C1552 C1553 1.389 . S
C1553 C1552 1.389 . S
C1553 C1554 1.387 . S
C1554 H1539 0.930 . S
C1554 C1549 1.390 . S
C1554 C1553 1.387 . S
H1555 C1567 0.930 . S
H1556 C1569 0.930 . S
H1557 C1570 0.930 . S
H1558 C1574 0.959 . S
H1559 C1574 0.959 . S
H1560 C1574 0.961 . S
H1561 C1575 0.960 . S
H1562 C1575 0.961 . S
H1563 C1575 0.959 . S
H1564 C1578 0.929 . S
H1565 C1579 0.931 . S
H1566 C1581 0.930 . S
C1567 H1555 0.930 . S
C1567 C1568 1.399 . S
C1567 C1572 1.399 . S
C1568 C1567 1.399 . S
C1568 C1569 1.376 . S
C1569 H1556 0.930 . S
C1569 C1568 1.376 . S
C1569 C1570 1.388 . S
C1570 H1557 0.930 . S
C1570 C1569 1.388 . S
C1570 C1571 1.390 . S
C1571 C1570 1.390 . S
C1571 C1572 1.394 . S
C1571 C1577 1.465 . S
C1572 C1567 1.399 . S
C1572 C1571 1.394 . S
C1572 C1573 1.516 . S
C1573 C1572 1.516 . S
C1573 C1574 1.502 . S
C1573 C1575 1.561 . S
C1573 C1576 1.526 . S
C1574 H1558 0.959 . S
C1574 H1559 0.959 . S
C1574 H1560 0.961 . S
C1574 C1573 1.502 . S
C1575 H1561 0.960 . S
C1575 H1562 0.961 . S
C1575 H1563 0.959 . S
C1575 C1573 1.561 . S
C1576 C1573 1.526 . S
C1576 C1577 1.396 . S
C1576 C1581 1.390 . S
C1577 C1571 1.465 . S
C1577 C1576 1.396 . S
C1577 C1578 1.399 . S
C1578 H1564 0.929 . S
C1578 C1577 1.399 . S
C1578 C1579 1.385 . S
C1579 H1565 0.931 . S
C1579 C1578 1.385 . S
C1579 C1580 1.389 . S
C1580 C1579 1.389 . S
C1580 C1581 1.387 . S
C1581 H1566 0.930 . S
C1581 C1576 1.390 . S
C1581 C1580 1.387 . S
H1582 C1594 0.930 . S
H1583 C1596 0.930 . S
H1584 C1597 0.930 . S
H1585 C1601 0.959 . S
H1586 C1601 0.959 . S
H1587 C1601 0.961 1_554 S
H1588 C1602 0.960 . S
H1589 C1602 0.961 . S
H1590 C1602 0.959 . S
H1591 C1605 0.929 . S
H1592 C1606 0.931 . S
H1593 C1608 0.930 . S
C1594 H1582 0.930 . S
C1594 C1595 1.399 . S
C1594 C1599 1.399 . S
C1595 C1594 1.399 . S
C1595 C1596 1.376 . S
C1596 H1583 0.930 . S
C1596 C1595 1.376 . S
C1596 C1597 1.388 . S
C1597 H1584 0.930 . S
C1597 C1596 1.388 . S
C1597 C1598 1.390 . S
C1598 C1597 1.390 . S
C1598 C1599 1.394 . S
C1598 C1604 1.465 1_554 S
C1599 C1594 1.399 . S
C1599 C1598 1.394 . S
C1599 C1600 1.516 . S
C1600 C1599 1.516 . S
C1600 C1601 1.502 1_554 S
C1600 C1602 1.561 . S
C1600 C1603 1.526 1_554 S
C1601 H1585 0.959 . S
C1601 H1586 0.959 . S
C1601 H1587 0.961 1_556 S
C1601 C1600 1.502 1_556 S
C1602 H1588 0.960 . S
C1602 H1589 0.961 . S
C1602 H1590 0.959 . S
C1602 C1600 1.561 . S
C1603 C1600 1.526 1_556 S
C1603 C1604 1.396 . S
C1603 C1608 1.390 . S
C1604 C1598 1.465 1_556 S
C1604 C1603 1.396 . S
C1604 C1605 1.399 . S
C1605 H1591 0.929 . S
C1605 C1604 1.399 . S
C1605 C1606 1.385 . S
C1606 H1592 0.931 . S
C1606 C1605 1.385 . S
C1606 C1607 1.389 . S
C1607 C1606 1.389 . S
C1607 C1608 1.387 . S
C1608 H1593 0.930 . S
C1608 C1603 1.390 . S
C1608 C1607 1.387 . S
H1609 C1621 0.930 . S
H1610 C1623 0.930 . S
H1611 C1624 0.930 . S
H1612 C1628 0.959 . S
H1613 C1628 0.959 . S
H1614 C1628 0.961 . S
H1615 C1629 0.960 . S
H1616 C1629 0.961 . S
H1617 C1629 0.959 . S
H1618 C1632 0.929 . S
H1619 C1633 0.931 . S
H1620 C1635 0.930 . S
C1621 H1609 0.930 . S
C1621 C1622 1.399 . S
C1621 C1626 1.399 . S
C1622 C1621 1.399 . S
C1622 C1623 1.376 . S
C1623 H1610 0.930 . S
C1623 C1622 1.376 . S
C1623 C1624 1.388 . S
C1624 H1611 0.930 . S
C1624 C1623 1.388 . S
C1624 C1625 1.390 . S
C1625 C1624 1.390 . S
C1625 C1626 1.394 . S
C1625 C1631 1.465 . S
C1626 C1621 1.399 . S
C1626 C1625 1.394 . S
C1626 C1627 1.516 . S
C1627 C1626 1.516 . S
C1627 C1628 1.502 . S
C1627 C1629 1.561 . S
C1627 C1630 1.526 . S
C1628 H1612 0.959 . S
C1628 H1613 0.959 . S
C1628 H1614 0.961 . S
C1628 C1627 1.502 . S
C1629 H1615 0.960 . S
C1629 H1616 0.961 . S
C1629 H1617 0.959 . S
C1629 C1627 1.561 . S
C1630 C1627 1.526 . S
C1630 C1631 1.396 . S
C1630 C1635 1.390 . S
C1631 C1625 1.465 . S
C1631 C1630 1.396 . S
C1631 C1632 1.399 . S
C1632 H1618 0.929 . S
C1632 C1631 1.399 . S
C1632 C1633 1.385 . S
C1633 H1619 0.931 . S
C1633 C1632 1.385 . S
C1633 C1634 1.389 . S
C1634 C1633 1.389 . S
C1634 C1635 1.387 . S
C1635 H1620 0.930 . S
C1635 C1630 1.390 . S
C1635 C1634 1.387 . S
H1636 C1648 0.930 . S
H1637 C1650 0.930 . S
H1638 C1651 0.930 . S
H1639 C1655 0.959 . S
H1640 C1655 0.959 . S
H1641 C1655 0.961 . S
H1642 C1656 0.960 . S
H1643 C1656 0.961 . S
H1644 C1656 0.959 . S
H1645 C1659 0.929 . S
H1646 C1660 0.931 . S
H1647 C1662 0.930 . S
C1648 H1636 0.930 . S
C1648 C1649 1.399 . S
C1648 C1653 1.399 . S
C1649 C1648 1.399 . S
C1649 C1650 1.376 . S
C1650 H1637 0.930 . S
C1650 C1649 1.376 . S
C1650 C1651 1.388 . S
C1651 H1638 0.930 . S
C1651 C1650 1.388 . S
C1651 C1652 1.390 . S
C1652 C1651 1.390 . S
C1652 C1653 1.394 . S
C1652 C1658 1.465 . S
C1653 C1648 1.399 . S
C1653 C1652 1.394 . S
C1653 C1654 1.516 . S
C1654 C1653 1.516 . S
C1654 C1655 1.502 . S
C1654 C1656 1.561 . S
C1654 C1657 1.526 . S
C1655 H1639 0.959 . S
C1655 H1640 0.959 . S
C1655 H1641 0.961 . S
C1655 C1654 1.502 . S
C1656 H1642 0.960 . S
C1656 H1643 0.961 . S
C1656 H1644 0.959 . S
C1656 C1654 1.561 . S
C1657 C1654 1.526 . S
C1657 C1658 1.396 . S
C1657 C1662 1.390 . S
C1658 C1652 1.465 . S
C1658 C1657 1.396 . S
C1658 C1659 1.399 . S
C1659 H1645 0.929 . S
C1659 C1658 1.399 . S
C1659 C1660 1.385 . S
C1660 H1646 0.931 . S
C1660 C1659 1.385 . S
C1660 C1661 1.389 . S
C1661 C1660 1.389 . S
C1661 C1662 1.387 . S
C1662 H1647 0.930 . S
C1662 C1657 1.390 . S
C1662 C1661 1.387 . S
H1663 C1675 0.930 . S
H1664 C1677 0.930 . S
H1665 C1678 0.930 . S
H1666 C1682 0.959 . S
H1667 C1682 0.959 . S
H1668 C1682 0.961 . S
H1669 C1683 0.960 . S
H1670 C1683 0.961 . S
H1671 C1683 0.959 . S
H1672 C1686 0.929 . S
H1673 C1687 0.931 . S
H1674 C1689 0.930 . S
C1675 H1663 0.930 . S
C1675 C1676 1.399 . S
C1675 C1680 1.399 . S
C1676 C1675 1.399 . S
C1676 C1677 1.376 . S
C1677 H1664 0.930 . S
C1677 C1676 1.376 . S
C1677 C1678 1.388 . S
C1678 H1665 0.930 . S
C1678 C1677 1.388 . S
C1678 C1679 1.390 . S
C1679 C1678 1.390 . S
C1679 C1680 1.394 . S
C1679 C1685 1.465 . S
C1680 C1675 1.399 . S
C1680 C1679 1.394 . S
C1680 C1681 1.516 . S
C1681 C1680 1.516 . S
C1681 C1682 1.502 . S
C1681 C1683 1.561 . S
C1681 C1684 1.526 . S
C1682 H1666 0.959 . S
C1682 H1667 0.959 . S
C1682 H1668 0.961 . S
C1682 C1681 1.502 . S
C1683 H1669 0.960 . S
C1683 H1670 0.961 . S
C1683 H1671 0.959 . S
C1683 C1681 1.561 . S
C1684 C1681 1.526 . S
C1684 C1685 1.396 . S
C1684 C1689 1.390 . S
C1685 C1679 1.465 . S
C1685 C1684 1.396 . S
C1685 C1686 1.399 . S
C1686 H1672 0.929 . S
C1686 C1685 1.399 . S
C1686 C1687 1.385 . S
C1687 H1673 0.931 . S
C1687 C1686 1.385 . S
C1687 C1688 1.389 . S
C1688 C1687 1.389 . S
C1688 C1689 1.387 . S
C1689 H1674 0.930 . S
C1689 C1684 1.390 . S
C1689 C1688 1.387 . S
H1690 C1702 0.930 . S
H1691 C1704 0.930 . S
H1692 C1705 0.902 1_554 S
H1693 C1709 0.959 . S
H1694 C1709 0.959 . S
H1695 C1709 0.961 . S
H1696 C1710 0.960 . S
H1697 C1710 0.961 . S
H1698 C1710 0.959 . S
H1699 C1713 0.929 . S
H1700 C1714 0.931 . S
H1701 C1716 0.930 . S
C1702 H1690 0.930 . S
C1702 C1703 1.399 . S
C1702 C1707 1.399 . S
C1703 C1702 1.399 . S
C1703 C1704 1.376 . S
C1704 H1691 0.930 . S
C1704 C1703 1.376 . S
C1704 C1705 1.388 . S
C1705 H1692 0.902 1_556 S
C1705 C1704 1.388 . S
C1705 C1706 1.402 . S
C1706 C1705 1.402 . S
C1706 C1707 1.422 . S
C1706 C1712 1.433 1_556 S
C1707 C1702 1.399 . S
C1707 C1706 1.422 . S
C1707 C1708 1.516 . S
C1708 C1707 1.516 . S
C1708 C1709 1.502 . S
C1708 C1710 1.561 1_556 S
C1708 C1711 1.526 1_556 S
C1709 H1693 0.959 . S
C1709 H1694 0.959 . S
C1709 H1695 0.961 . S
C1709 C1708 1.502 . S
C1710 H1696 0.960 . S
C1710 H1697 0.961 . S
C1710 H1698 0.959 . S
C1710 C1708 1.561 1_554 S
C1711 C1708 1.526 1_554 S
C1711 C1712 1.396 . S
C1711 C1716 1.390 . S
C1712 C1706 1.433 1_554 S
C1712 C1711 1.396 . S
C1712 C1713 1.399 . S
C1713 H1699 0.929 . S
C1713 C1712 1.399 . S
C1713 C1714 1.385 . S
C1714 H1700 0.931 . S
C1714 C1713 1.385 . S
C1714 C1715 1.389 . S
C1715 C1714 1.389 . S
C1715 C1716 1.387 . S
C1716 H1701 0.930 . S
C1716 C1711 1.390 . S
C1716 C1715 1.387 . S
H1717 C1729 0.930 . S
H1718 C1731 0.930 . S
H1719 C1732 0.930 . S
H1720 C1736 0.959 . S
H1721 C1736 0.959 . S
H1722 C1736 0.961 . S
H1723 C1737 0.960 . S
H1724 C1737 0.961 . S
H1725 C1737 0.959 . S
H1726 C1740 0.929 . S
H1727 C1741 0.931 . S
H1728 C1743 0.930 . S
C1729 H1717 0.930 . S
C1729 C1730 1.399 . S
C1729 C1734 1.399 . S
C1730 C1729 1.399 . S
C1730 C1731 1.376 . S
C1731 H1718 0.930 . S
C1731 C1730 1.376 . S
C1731 C1732 1.388 . S
C1732 H1719 0.930 . S
C1732 C1731 1.388 . S
C1732 C1733 1.390 . S
C1733 C1732 1.390 . S
C1733 C1734 1.394 . S
C1733 C1739 1.465 . S
C1734 C1729 1.399 . S
C1734 C1733 1.394 . S
C1734 C1735 1.516 . S
C1735 C1734 1.516 . S
C1735 C1736 1.502 . S
C1735 C1737 1.561 . S
C1735 C1738 1.526 . S
C1736 H1720 0.959 . S
C1736 H1721 0.959 . S
C1736 H1722 0.961 . S
C1736 C1735 1.502 . S
C1737 H1723 0.960 . S
C1737 H1724 0.961 . S
C1737 H1725 0.959 . S
C1737 C1735 1.561 . S
C1738 C1735 1.526 . S
C1738 C1739 1.396 . S
C1738 C1743 1.390 . S
C1739 C1733 1.465 . S
C1739 C1738 1.396 . S
C1739 C1740 1.399 . S
C1740 H1726 0.929 . S
C1740 C1739 1.399 . S
C1740 C1741 1.385 . S
C1741 H1727 0.931 . S
C1741 C1740 1.385 . S
C1741 C1742 1.389 . S
C1742 C1741 1.389 . S
C1742 C1743 1.387 . S
C1743 H1728 0.930 . S
C1743 C1738 1.390 . S
C1743 C1742 1.387 . S
H1744 C1756 0.930 . S
H1745 C1758 0.930 . S
H1746 C1759 0.930 . S
H1747 C1763 0.959 . S
H1748 C1763 0.959 . S
H1749 C1763 0.961 . S
H1750 C1764 0.960 . S
H1751 C1764 0.961 . S
H1752 C1764 0.959 . S
H1753 C1767 0.929 . S
H1754 C1768 0.931 . S
H1755 C1770 0.930 . S
C1756 H1744 0.930 . S
C1756 C1757 1.399 . S
C1756 C1761 1.399 . S
C1757 C1756 1.399 . S
C1757 C1758 1.376 . S
C1758 H1745 0.930 . S
C1758 C1757 1.376 . S
C1758 C1759 1.388 . S
C1759 H1746 0.930 . S
C1759 C1758 1.388 . S
C1759 C1760 1.390 . S
C1760 C1759 1.390 . S
C1760 C1761 1.394 . S
C1760 C1766 1.465 . S
C1761 C1756 1.399 . S
C1761 C1760 1.394 . S
C1761 C1762 1.516 . S
C1762 C1761 1.516 . S
C1762 C1763 1.502 . S
C1762 C1764 1.561 . S
C1762 C1765 1.526 . S
C1763 H1747 0.959 . S
C1763 H1748 0.959 . S
C1763 H1749 0.961 . S
C1763 C1762 1.502 . S
C1764 H1750 0.960 . S
C1764 H1751 0.961 . S
C1764 H1752 0.959 . S
C1764 C1762 1.561 . S
C1765 C1762 1.526 . S
C1765 C1766 1.396 . S
C1765 C1770 1.390 . S
C1766 C1760 1.465 . S
C1766 C1765 1.396 . S
C1766 C1767 1.399 . S
C1767 H1753 0.929 . S
C1767 C1766 1.399 . S
C1767 C1768 1.385 . S
C1768 H1754 0.931 . S
C1768 C1767 1.385 . S
C1768 C1769 1.389 . S
C1769 C1768 1.389 . S
C1769 C1770 1.387 . S
C1770 H1755 0.930 . S
C1770 C1765 1.390 . S
C1770 C1769 1.387 . S
H1771 C1783 0.930 . S
H1772 C1785 0.930 . S
H1773 C1786 0.930 . S
H1774 C1790 0.959 . S
H1775 C1790 0.959 . S
H1776 C1790 0.961 . S
H1777 C1791 0.960 . S
H1778 C1791 0.961 . S
H1779 C1791 0.959 . S
H1780 C1794 0.929 . S
H1781 C1795 0.931 . S
H1782 C1797 0.930 . S
C1783 H1771 0.930 . S
C1783 C1784 1.399 . S
C1783 C1788 1.399 . S
C1784 C1783 1.399 . S
C1784 C1785 1.376 . S
C1785 H1772 0.930 . S
C1785 C1784 1.376 . S
C1785 C1786 1.388 . S
C1786 H1773 0.930 . S
C1786 C1785 1.388 . S
C1786 C1787 1.390 . S
C1787 C1786 1.390 . S
C1787 C1788 1.394 . S
C1787 C1793 1.465 . S
C1788 C1783 1.399 . S
C1788 C1787 1.394 . S
C1788 C1789 1.516 . S
C1789 C1788 1.516 . S
C1789 C1790 1.502 . S
C1789 C1791 1.561 . S
C1789 C1792 1.526 . S
C1790 H1774 0.959 . S
C1790 H1775 0.959 . S
C1790 H1776 0.961 . S
C1790 C1789 1.502 . S
C1791 H1777 0.960 . S
C1791 H1778 0.961 . S
C1791 H1779 0.959 . S
C1791 C1789 1.561 . S
C1792 C1789 1.526 . S
C1792 C1793 1.396 . S
C1792 C1797 1.390 . S
C1793 C1787 1.465 . S
C1793 C1792 1.396 . S
C1793 C1794 1.399 . S
C1794 H1780 0.929 . S
C1794 C1793 1.399 . S
C1794 C1795 1.385 . S
C1795 H1781 0.931 . S
C1795 C1794 1.385 . S
C1795 C1796 1.389 . S
C1796 C1795 1.389 . S
C1796 C1797 1.387 . S
C1797 H1782 0.930 . S
C1797 C1792 1.390 . S
C1797 C1796 1.387 . S
H1798 C1810 0.930 . S
H1799 C1812 0.930 . S
H1800 C1813 0.930 . S
H1801 C1817 0.959 . S
H1802 C1817 0.959 . S
H1803 C1817 0.961 . S
H1804 C1818 0.960 . S
H1805 C1818 0.961 . S
H1806 C1818 0.959 . S
H1807 C1821 0.929 . S
H1808 C1822 0.931 . S
H1809 C1824 0.930 . S
C1810 H1798 0.930 . S
C1810 C1811 1.399 . S
C1810 C1815 1.399 . S
C1811 C1810 1.399 . S
C1811 C1812 1.376 . S
C1812 H1799 0.930 . S
C1812 C1811 1.376 . S
C1812 C1813 1.388 . S
C1813 H1800 0.930 . S
C1813 C1812 1.388 . S
C1813 C1814 1.390 . S
C1814 C1813 1.390 . S
C1814 C1815 1.394 . S
C1814 C1820 1.465 . S
C1815 C1810 1.399 . S
C1815 C1814 1.394 . S
C1815 C1816 1.516 . S
C1816 C1815 1.516 . S
C1816 C1817 1.502 . S
C1816 C1818 1.561 . S
C1816 C1819 1.526 . S
C1817 H1801 0.959 . S
C1817 H1802 0.959 . S
C1817 H1803 0.961 . S
C1817 C1816 1.502 . S
C1818 H1804 0.960 . S
C1818 H1805 0.961 . S
C1818 H1806 0.959 . S
C1818 C1816 1.561 . S
C1819 C1816 1.526 . S
C1819 C1820 1.396 . S
C1819 C1824 1.390 . S
C1820 C1814 1.465 . S
C1820 C1819 1.396 . S
C1820 C1821 1.399 . S
C1821 H1807 0.929 . S
C1821 C1820 1.399 . S
C1821 C1822 1.385 . S
C1822 H1808 0.931 . S
C1822 C1821 1.385 . S
C1822 C1823 1.389 . S
C1823 C1822 1.389 . S
C1823 C1824 1.387 . S
C1824 H1809 0.930 . S
C1824 C1819 1.390 . S
C1824 C1823 1.387 . S
H1825 C1837 0.930 . S
H1826 C1839 0.930 . S
H1827 C1840 0.930 . S
H1828 C1844 0.959 . S
H1829 C1844 0.959 . S
H1830 C1844 0.961 . S
H1831 C1845 0.960 . S
H1832 C1845 0.961 . S
H1833 C1845 0.959 . S
H1834 C1848 0.929 . S
H1835 C1849 0.931 . S
H1836 C1851 0.930 . S
C1837 H1825 0.930 . S
C1837 C1838 1.399 . S
C1837 C1842 1.399 . S
C1838 C1837 1.399 . S
C1838 C1839 1.376 . S
C1839 H1826 0.930 . S
C1839 C1838 1.376 . S
C1839 C1840 1.388 . S
C1840 H1827 0.930 . S
C1840 C1839 1.388 . S
C1840 C1841 1.390 . S
C1841 C1840 1.390 . S
C1841 C1842 1.394 . S
C1841 C1847 1.465 . S
C1842 C1837 1.399 . S
C1842 C1841 1.394 . S
C1842 C1843 1.516 . S
C1843 C1842 1.516 . S
C1843 C1844 1.502 . S
C1843 C1845 1.561 . S
C1843 C1846 1.526 . S
C1844 H1828 0.959 . S
C1844 H1829 0.959 . S
C1844 H1830 0.961 . S
C1844 C1843 1.502 . S
C1845 H1831 0.960 . S
C1845 H1832 0.961 . S
C1845 H1833 0.959 . S
C1845 C1843 1.561 . S
C1846 C1843 1.526 . S
C1846 C1847 1.396 . S
C1846 C1851 1.390 . S
C1847 C1841 1.465 . S
C1847 C1846 1.396 . S
C1847 C1848 1.399 . S
C1848 H1834 0.929 . S
C1848 C1847 1.399 . S
C1848 C1849 1.385 . S
C1849 H1835 0.931 . S
C1849 C1848 1.385 . S
C1849 C1850 1.389 . S
C1850 C1849 1.389 . S
C1850 C1851 1.387 . S
C1851 H1836 0.930 . S
C1851 C1846 1.390 . S
C1851 C1850 1.387 . S
H1852 C1864 0.930 . S
H1853 C1866 0.930 . S
H1854 C1867 0.930 . S
H1855 C1871 0.959 . S
H1856 C1871 0.959 . S
H1857 C1871 0.961 . S
H1858 C1872 0.960 . S
H1859 C1872 0.961 . S
H1860 C1872 0.959 . S
H1861 C1875 0.929 . S
H1862 C1876 0.931 . S
H1863 C1878 0.930 . S
C1864 H1852 0.930 . S
C1864 C1865 1.399 . S
C1864 C1869 1.399 . S
C1865 C1864 1.399 . S
C1865 C1866 1.376 . S
C1866 H1853 0.930 . S
C1866 C1865 1.376 . S
C1866 C1867 1.388 . S
C1867 H1854 0.930 . S
C1867 C1866 1.388 . S
C1867 C1868 1.390 . S
C1868 C1867 1.390 . S
C1868 C1869 1.394 . S
C1868 C1874 1.465 . S
C1869 C1864 1.399 . S
C1869 C1868 1.394 . S
C1869 C1870 1.516 . S
C1870 C1869 1.516 . S
C1870 C1871 1.502 . S
C1870 C1872 1.561 . S
C1870 C1873 1.526 . S
C1871 H1855 0.959 . S
C1871 H1856 0.959 . S
C1871 H1857 0.961 . S
C1871 C1870 1.502 . S
C1872 H1858 0.960 . S
C1872 H1859 0.961 . S
C1872 H1860 0.959 . S
C1872 C1870 1.561 . S
C1873 C1870 1.526 . S
C1873 C1874 1.396 . S
C1873 C1878 1.390 . S
C1874 C1868 1.465 . S
C1874 C1873 1.396 . S
C1874 C1875 1.399 . S
C1875 H1861 0.929 . S
C1875 C1874 1.399 . S
C1875 C1876 1.385 . S
C1876 H1862 0.931 . S
C1876 C1875 1.385 . S
C1876 C1877 1.389 . S
C1877 C1876 1.389 . S
C1877 C1878 1.387 . S
C1878 H1863 0.930 . S
C1878 C1873 1.390 . S
C1878 C1877 1.387 . S
H1879 C1891 0.930 . S
H1880 C1893 0.930 . S
H1881 C1894 0.930 . S
H1882 C1898 0.959 . S
H1883 C1898 0.959 . S
H1884 C1898 0.961 . S
H1885 C1899 0.960 . S
H1886 C1899 0.961 . S
H1887 C1899 0.959 . S
H1888 C1902 0.929 . S
H1889 C1903 0.931 . S
H1890 C1905 0.930 . S
C1891 H1879 0.930 . S
C1891 C1892 1.399 . S
C1891 C1896 1.399 . S
C1892 C1891 1.399 . S
C1892 C1893 1.376 . S
C1893 H1880 0.930 . S
C1893 C1892 1.376 . S
C1893 C1894 1.388 . S
C1894 H1881 0.930 . S
C1894 C1893 1.388 . S
C1894 C1895 1.390 . S
C1895 C1894 1.390 . S
C1895 C1896 1.394 . S
C1895 C1901 1.465 . S
C1896 C1891 1.399 . S
C1896 C1895 1.394 . S
C1896 C1897 1.516 . S
C1897 C1896 1.516 . S
C1897 C1898 1.502 . S
C1897 C1899 1.561 . S
C1897 C1900 1.526 . S
C1898 H1882 0.959 . S
C1898 H1883 0.959 . S
C1898 H1884 0.961 . S
C1898 C1897 1.502 . S
C1899 H1885 0.960 . S
C1899 H1886 0.961 . S
C1899 H1887 0.959 . S
C1899 C1897 1.561 . S
C1900 C1897 1.526 . S
C1900 C1901 1.396 . S
C1900 C1905 1.390 . S
C1901 C1895 1.465 . S
C1901 C1900 1.396 . S
C1901 C1902 1.399 . S
C1902 H1888 0.929 . S
C1902 C1901 1.399 . S
C1902 C1903 1.385 . S
C1903 H1889 0.931 . S
C1903 C1902 1.385 . S
C1903 C1904 1.389 . S
C1904 C1903 1.389 . S
C1904 C1905 1.387 . S
C1905 H1890 0.930 . S
C1905 C1900 1.390 . S
C1905 C1904 1.387 . S
H1906 C1918 0.930 . S
H1907 C1920 0.930 . S
H1908 C1921 0.930 . S
H1909 C1925 0.959 . S
H1910 C1925 0.959 . S
H1911 C1925 0.961 . S
H1912 C1926 0.960 . S
H1913 C1926 0.961 . S
H1914 C1926 0.959 . S
H1915 C1929 0.929 . S
H1916 C1930 0.931 . S
H1917 C1932 0.930 . S
C1918 H1906 0.930 . S
C1918 C1919 1.399 . S
C1918 C1923 1.399 . S
C1919 C1918 1.399 . S
C1919 C1920 1.376 . S
C1920 H1907 0.930 . S
C1920 C1919 1.376 . S
C1920 C1921 1.388 . S
C1921 H1908 0.930 . S
C1921 C1920 1.388 . S
C1921 C1922 1.390 . S
C1922 C1921 1.390 . S
C1922 C1923 1.394 . S
C1922 C1928 1.465 . S
C1923 C1918 1.399 . S
C1923 C1922 1.394 . S
C1923 C1924 1.516 . S
C1924 C1923 1.516 . S
C1924 C1925 1.502 . S
C1924 C1926 1.561 . S
C1924 C1927 1.526 . S
C1925 H1909 0.959 . S
C1925 H1910 0.959 . S
C1925 H1911 0.961 . S
C1925 C1924 1.502 . S
C1926 H1912 0.960 . S
C1926 H1913 0.961 . S
C1926 H1914 0.959 . S
C1926 C1924 1.561 . S
C1927 C1924 1.526 . S
C1927 C1928 1.396 . S
C1927 C1932 1.390 . S
C1928 C1922 1.465 . S
C1928 C1927 1.396 . S
C1928 C1929 1.399 . S
C1929 H1915 0.929 . S
C1929 C1928 1.399 . S
C1929 C1930 1.385 . S
C1930 H1916 0.931 . S
C1930 C1929 1.385 . S
C1930 C1931 1.389 . S
C1931 C1930 1.389 . S
C1931 C1932 1.387 . S
C1932 H1917 0.930 . S
C1932 C1927 1.390 . S
C1932 C1931 1.387 . S
H1933 C1945 0.930 . S
H1934 C1947 0.930 . S
H1935 C1948 0.930 . S
H1936 C1952 0.959 . S
H1937 C1952 0.959 . S
H1938 C1952 0.961 . S
H1939 C1953 0.960 . S
H1940 C1953 0.961 . S
H1941 C1953 0.959 . S
H1942 C1956 0.929 . S
H1943 C1957 0.931 . S
H1944 C1959 0.930 . S
C1945 H1933 0.930 . S
C1945 C1946 1.399 . S
C1945 C1950 1.399 . S
C1946 C1945 1.399 . S
C1946 C1947 1.376 . S
C1947 H1934 0.930 . S
C1947 C1946 1.376 . S
C1947 C1948 1.388 . S
C1948 H1935 0.930 . S
C1948 C1947 1.388 . S
C1948 C1949 1.390 . S
C1949 C1948 1.390 . S
C1949 C1950 1.394 . S
C1949 C1955 1.465 . S
C1950 C1945 1.399 . S
C1950 C1949 1.394 . S
C1950 C1951 1.516 . S
C1951 C1950 1.516 . S
C1951 C1952 1.502 . S
C1951 C1953 1.561 . S
C1951 C1954 1.526 . S
C1952 H1936 0.959 . S
C1952 H1937 0.959 . S
C1952 H1938 0.961 . S
C1952 C1951 1.502 . S
C1953 H1939 0.960 . S
C1953 H1940 0.961 . S
C1953 H1941 0.959 . S
C1953 C1951 1.561 . S
C1954 C1951 1.526 . S
C1954 C1955 1.396 . S
C1954 C1959 1.390 . S
C1955 C1949 1.465 . S
C1955 C1954 1.396 . S
C1955 C1956 1.399 . S
C1956 H1942 0.929 . S
C1956 C1955 1.399 . S
C1956 C1957 1.385 . S
C1957 H1943 0.931 . S
C1957 C1956 1.385 . S
C1957 C1958 1.389 . S
C1958 C1957 1.389 . S
C1958 C1959 1.387 . S
C1959 H1944 0.930 . S
C1959 C1954 1.390 . S
C1959 C1958 1.387 . S
H1960 C1972 0.930 . S
H1961 C1974 0.930 . S
H1962 C1975 0.930 . S
H1963 C1979 0.959 . S
H1964 C1979 0.959 . S
H1965 C1979 0.961 . S
H1966 C1980 0.960 . S
H1967 C1980 0.961 . S
H1968 C1980 0.959 . S
H1969 C1983 0.929 . S
H1970 C1984 0.931 . S
H1971 C1986 0.930 . S
C1972 H1960 0.930 . S
C1972 C1973 1.399 . S
C1972 C1977 1.399 . S
C1973 C1972 1.399 . S
C1973 C1974 1.376 . S
C1974 H1961 0.930 . S
C1974 C1973 1.376 . S
C1974 C1975 1.388 . S
C1975 H1962 0.930 . S
C1975 C1974 1.388 . S
C1975 C1976 1.390 . S
C1976 C1975 1.390 . S
C1976 C1977 1.394 . S
C1976 C1982 1.465 . S
C1977 C1972 1.399 . S
C1977 C1976 1.394 . S
C1977 C1978 1.516 . S
C1978 C1977 1.516 . S
C1978 C1979 1.502 . S
C1978 C1980 1.561 . S
C1978 C1981 1.526 . S
C1979 H1963 0.959 . S
C1979 H1964 0.959 . S
C1979 H1965 0.961 . S
C1979 C1978 1.502 . S
C1980 H1966 0.960 . S
C1980 H1967 0.961 . S
C1980 H1968 0.959 . S
C1980 C1978 1.561 . S
C1981 C1978 1.526 . S
C1981 C1982 1.396 . S
C1981 C1986 1.390 . S
C1982 C1976 1.465 . S
C1982 C1981 1.396 . S
C1982 C1983 1.399 . S
C1983 H1969 0.929 . S
C1983 C1982 1.399 . S
C1983 C1984 1.385 . S
C1984 H1970 0.931 . S
C1984 C1983 1.385 . S
C1984 C1985 1.389 . S
C1985 C1984 1.389 . S
C1985 C1986 1.387 . S
C1986 H1971 0.930 . S
C1986 C1981 1.390 . S
C1986 C1985 1.387 . S
H1987 C1999 0.930 . S
H1988 C2001 0.930 . S
H1989 C2002 0.930 . S
H1990 C2006 0.959 . S
H1991 C2006 0.959 . S
H1992 C2006 0.961 . S
H1993 C2007 0.960 . S
H1994 C2007 0.961 . S
H1995 C2007 0.959 . S
H1996 C2010 0.929 . S
H1997 C2011 0.931 . S
H1998 C2013 0.930 . S
C1999 H1987 0.930 . S
C1999 C2000 1.399 . S
C1999 C2004 1.399 . S
C2000 C1999 1.399 . S
C2000 C2001 1.376 . S
C2001 H1988 0.930 . S
C2001 C2000 1.376 . S
C2001 C2002 1.388 . S
C2002 H1989 0.930 . S
C2002 C2001 1.388 . S
C2002 C2003 1.390 . S
C2003 C2002 1.390 . S
C2003 C2004 1.394 . S
C2003 C2009 1.465 . S
C2004 C1999 1.399 . S
C2004 C2003 1.394 . S
C2004 C2005 1.516 . S
C2005 C2004 1.516 . S
C2005 C2006 1.502 . S
C2005 C2007 1.561 . S
C2005 C2008 1.526 . S
C2006 H1990 0.959 . S
C2006 H1991 0.959 . S
C2006 H1992 0.961 . S
C2006 C2005 1.502 . S
C2007 H1993 0.960 . S
C2007 H1994 0.961 . S
C2007 H1995 0.959 . S
C2007 C2005 1.561 . S
C2008 C2005 1.526 . S
C2008 C2009 1.396 . S
C2008 C2013 1.390 . S
C2009 C2003 1.465 . S
C2009 C2008 1.396 . S
C2009 C2010 1.399 . S
C2010 H1996 0.929 . S
C2010 C2009 1.399 . S
C2010 C2011 1.385 . S
C2011 H1997 0.931 . S
C2011 C2010 1.385 . S
C2011 C2012 1.389 . S
C2012 C2011 1.389 . S
C2012 C2013 1.387 . S
C2013 H1998 0.930 . S
C2013 C2008 1.390 . S
C2013 C2012 1.387 . S
H2014 C2026 0.930 . S
H2015 C2028 0.930 . S
H2016 C2029 0.930 . S
H2017 C2033 0.959 . S
H2018 C2033 0.959 . S
H2019 C2033 0.961 . S
H2020 C2034 0.960 . S
H2021 C2034 0.961 . S
H2022 C2034 0.959 . S
H2023 C2037 0.929 . S
H2024 C2038 0.931 . S
H2025 C2040 0.930 . S
C2026 H2014 0.930 . S
C2026 C2027 1.399 . S
C2026 C2031 1.399 . S
C2027 C2026 1.399 . S
C2027 C2028 1.376 . S
C2028 H2015 0.930 . S
C2028 C2027 1.376 . S
C2028 C2029 1.388 . S
C2029 H2016 0.930 . S
C2029 C2028 1.388 . S
C2029 C2030 1.390 . S
C2030 C2029 1.390 . S
C2030 C2031 1.394 . S
C2030 C2036 1.465 . S
C2031 C2026 1.399 . S
C2031 C2030 1.394 . S
C2031 C2032 1.516 . S
C2032 C2031 1.516 . S
C2032 C2033 1.502 . S
C2032 C2034 1.561 . S
C2032 C2035 1.526 . S
C2033 H2017 0.959 . S
C2033 H2018 0.959 . S
C2033 H2019 0.961 . S
C2033 C2032 1.502 . S
C2034 H2020 0.960 . S
C2034 H2021 0.961 . S
C2034 H2022 0.959 . S
C2034 C2032 1.561 . S
C2035 C2032 1.526 . S
C2035 C2036 1.396 . S
C2035 C2040 1.390 . S
C2036 C2030 1.465 . S
C2036 C2035 1.396 . S
C2036 C2037 1.399 . S
C2037 H2023 0.929 . S
C2037 C2036 1.399 . S
C2037 C2038 1.385 . S
C2038 H2024 0.931 . S
C2038 C2037 1.385 . S
C2038 C2039 1.389 . S
C2039 C2038 1.389 . S
C2039 C2040 1.387 . S
C2040 H2025 0.930 . S
C2040 C2035 1.390 . S
C2040 C2039 1.387 . S
H2041 C2053 0.930 . S
H2042 C2055 0.930 . S
H2043 C2056 0.930 . S
H2044 C2060 0.959 . S
H2045 C2060 0.959 . S
H2046 C2060 0.961 . S
H2047 C2061 0.960 . S
H2048 C2061 0.961 . S
H2049 C2061 0.959 . S
H2050 C2064 0.929 . S
H2051 C2065 0.931 . S
H2052 C2067 0.930 . S
C2053 H2041 0.930 . S
C2053 C2054 1.399 . S
C2053 C2058 1.399 . S
C2054 C2053 1.399 . S
C2054 C2055 1.376 . S
C2055 H2042 0.930 . S
C2055 C2054 1.376 . S
C2055 C2056 1.388 . S
C2056 H2043 0.930 . S
C2056 C2055 1.388 . S
C2056 C2057 1.390 . S
C2057 C2056 1.390 . S
C2057 C2058 1.394 . S
C2057 C2063 1.465 . S
C2058 C2053 1.399 . S
C2058 C2057 1.394 . S
C2058 C2059 1.516 . S
C2059 C2058 1.516 . S
C2059 C2060 1.502 . S
C2059 C2061 1.561 . S
C2059 C2062 1.526 . S
C2060 H2044 0.959 . S
C2060 H2045 0.959 . S
C2060 H2046 0.961 . S
C2060 C2059 1.502 . S
C2061 H2047 0.960 . S
C2061 H2048 0.961 . S
C2061 H2049 0.959 . S
C2061 C2059 1.561 . S
C2062 C2059 1.526 . S
C2062 C2063 1.396 . S
C2062 C2067 1.390 . S
C2063 C2057 1.465 . S
C2063 C2062 1.396 . S
C2063 C2064 1.399 . S
C2064 H2050 0.929 . S
C2064 C2063 1.399 . S
C2064 C2065 1.385 . S
C2065 H2051 0.931 . S
C2065 C2064 1.385 . S
C2065 C2066 1.389 . S
C2066 C2065 1.389 . S
C2066 C2067 1.387 . S
C2067 H2052 0.930 . S
C2067 C2062 1.390 . S
C2067 C2066 1.387 . S
H2068 C2080 0.930 . S
H2069 C2082 0.930 . S
H2070 C2083 0.930 . S
H2071 C2087 0.959 . S
H2072 C2087 0.959 . S
H2073 C2087 0.961 . S
H2074 C2088 0.960 . S
H2075 C2088 0.961 . S
H2076 C2088 0.959 . S
H2077 C2091 0.929 . S
H2078 C2092 0.931 . S
H2079 C2094 0.930 . S
C2080 H2068 0.930 . S
C2080 C2081 1.399 . S
C2080 C2085 1.399 . S
C2081 C2080 1.399 . S
C2081 C2082 1.376 . S
C2082 H2069 0.930 . S
C2082 C2081 1.376 . S
C2082 C2083 1.388 . S
C2083 H2070 0.930 . S
C2083 C2082 1.388 . S
C2083 C2084 1.390 . S
C2084 C2083 1.390 . S
C2084 C2085 1.394 . S
C2084 C2090 1.465 . S
C2085 C2080 1.399 . S
C2085 C2084 1.394 . S
C2085 C2086 1.516 . S
C2086 C2085 1.516 . S
C2086 C2087 1.502 . S
C2086 C2088 1.561 . S
C2086 C2089 1.526 . S
C2087 H2071 0.959 . S
C2087 H2072 0.959 . S
C2087 H2073 0.961 . S
C2087 C2086 1.502 . S
C2088 H2074 0.960 . S
C2088 H2075 0.961 . S
C2088 H2076 0.959 . S
C2088 C2086 1.561 . S
C2089 C2086 1.526 . S
C2089 C2090 1.396 . S
C2089 C2094 1.390 . S
C2090 C2084 1.465 . S
C2090 C2089 1.396 . S
C2090 C2091 1.399 . S
C2091 H2077 0.929 . S
C2091 C2090 1.399 . S
C2091 C2092 1.385 . S
C2092 H2078 0.931 . S
C2092 C2091 1.385 . S
C2092 C2093 1.389 . S
C2093 C2092 1.389 . S
C2093 C2094 1.387 . S
C2094 H2079 0.930 . S
C2094 C2089 1.390 . S
C2094 C2093 1.387 . S
H2095 C2107 0.930 . S
H2096 C2109 0.930 . S
H2097 C2110 0.930 . S
H2098 C2114 0.959 . S
H2099 C2114 0.959 . S
H2100 C2114 0.961 . S
H2101 C2115 0.960 . S
H2102 C2115 0.961 . S
H2103 C2115 0.959 . S
H2104 C2118 0.929 . S
H2105 C2119 0.931 . S
H2106 C2121 0.930 . S
C2107 H2095 0.930 . S
C2107 C2108 1.399 . S
C2107 C2112 1.399 . S
C2108 C2107 1.399 . S
C2108 C2109 1.376 . S
C2109 H2096 0.930 . S
C2109 C2108 1.376 . S
C2109 C2110 1.388 . S
C2110 H2097 0.930 . S
C2110 C2109 1.388 . S
C2110 C2111 1.390 . S
C2111 C2110 1.390 . S
C2111 C2112 1.394 . S
C2111 C2117 1.465 . S
C2112 C2107 1.399 . S
C2112 C2111 1.394 . S
C2112 C2113 1.516 . S
C2113 C2112 1.516 . S
C2113 C2114 1.502 . S
C2113 C2115 1.561 . S
C2113 C2116 1.526 . S
C2114 H2098 0.959 . S
C2114 H2099 0.959 . S
C2114 H2100 0.961 . S
C2114 C2113 1.502 . S
C2115 H2101 0.960 . S
C2115 H2102 0.961 . S
C2115 H2103 0.959 . S
C2115 C2113 1.561 . S
C2116 C2113 1.526 . S
C2116 C2117 1.396 . S
C2116 C2121 1.390 . S
C2117 C2111 1.465 . S
C2117 C2116 1.396 . S
C2117 C2118 1.399 . S
C2118 H2104 0.929 . S
C2118 C2117 1.399 . S
C2118 C2119 1.385 . S
C2119 H2105 0.931 . S
C2119 C2118 1.385 . S
C2119 C2120 1.389 . S
C2120 C2119 1.389 . S
C2120 C2121 1.387 . S
C2121 H2106 0.930 . S
C2121 C2116 1.390 . S
C2121 C2120 1.387 . S
H2122 C2134 0.930 . S
H2123 C2136 0.930 . S
H2124 C2137 0.930 . S
H2125 C2141 0.959 . S
H2126 C2141 0.959 . S
H2127 C2141 0.961 . S
H2128 C2142 0.960 . S
H2129 C2142 0.961 . S
H2130 C2142 0.959 . S
H2131 C2145 0.929 . S
H2132 C2146 0.931 . S
H2133 C2148 0.930 . S
C2134 H2122 0.930 . S
C2134 C2135 1.399 . S
C2134 C2139 1.399 . S
C2135 C2134 1.399 . S
C2135 C2136 1.376 . S
C2136 H2123 0.930 . S
C2136 C2135 1.376 . S
C2136 C2137 1.388 . S
C2137 H2124 0.930 . S
C2137 C2136 1.388 . S
C2137 C2138 1.390 . S
C2138 C2137 1.390 . S
C2138 C2139 1.394 . S
C2138 C2144 1.465 . S
C2139 C2134 1.399 . S
C2139 C2138 1.394 . S
C2139 C2140 1.516 . S
C2140 C2139 1.516 . S
C2140 C2141 1.502 . S
C2140 C2142 1.561 . S
C2140 C2143 1.526 . S
C2141 H2125 0.959 . S
C2141 H2126 0.959 . S
C2141 H2127 0.961 . S
C2141 C2140 1.502 . S
C2142 H2128 0.960 . S
C2142 H2129 0.961 . S
C2142 H2130 0.959 . S
C2142 C2140 1.561 . S
C2143 C2140 1.526 . S
C2143 C2144 1.396 . S
C2143 C2148 1.390 . S
C2144 C2138 1.465 . S
C2144 C2143 1.396 . S
C2144 C2145 1.399 . S
C2145 H2131 0.929 . S
C2145 C2144 1.399 . S
C2145 C2146 1.385 . S
C2146 H2132 0.931 . S
C2146 C2145 1.385 . S
C2146 C2147 1.389 . S
C2147 C2146 1.389 . S
C2147 C2148 1.387 . S
C2148 H2133 0.930 . S
C2148 C2143 1.390 . S
C2148 C2147 1.387 . S
H2149 C2161 0.930 . S
H2150 C2163 0.930 . S
H2151 C2164 0.930 . S
H2152 C2168 0.959 . S
H2153 C2168 0.959 . S
H2154 C2168 0.961 . S
H2155 C2169 0.960 . S
H2156 C2169 0.961 . S
H2157 C2169 0.959 . S
H2158 C2172 0.929 . S
H2159 C2173 0.931 . S
H2160 C2175 0.930 . S
C2161 H2149 0.930 . S
C2161 C2162 1.399 . S
C2161 C2166 1.399 . S
C2162 C2161 1.399 . S
C2162 C2163 1.376 . S
C2163 H2150 0.930 . S
C2163 C2162 1.376 . S
C2163 C2164 1.388 . S
C2164 H2151 0.930 . S
C2164 C2163 1.388 . S
C2164 C2165 1.390 . S
C2165 C2164 1.390 . S
C2165 C2166 1.394 . S
C2165 C2171 1.465 . S
C2166 C2161 1.399 . S
C2166 C2165 1.394 . S
C2166 C2167 1.516 . S
C2167 C2166 1.516 . S
C2167 C2168 1.502 . S
C2167 C2169 1.561 . S
C2167 C2170 1.526 . S
C2168 H2152 0.959 . S
C2168 H2153 0.959 . S
C2168 H2154 0.961 . S
C2168 C2167 1.502 . S
C2169 H2155 0.960 . S
C2169 H2156 0.961 . S
C2169 H2157 0.959 . S
C2169 C2167 1.561 . S
C2170 C2167 1.526 . S
C2170 C2171 1.396 . S
C2170 C2175 1.390 . S
C2171 C2165 1.465 . S
C2171 C2170 1.396 . S
C2171 C2172 1.399 . S
C2172 H2158 0.929 . S
C2172 C2171 1.399 . S
C2172 C2173 1.385 . S
C2173 H2159 0.931 . S
C2173 C2172 1.385 . S
C2173 C2174 1.389 . S
C2174 C2173 1.389 . S
C2174 C2175 1.387 . S
C2175 H2160 0.930 . S
C2175 C2170 1.390 . S
C2175 C2174 1.387 . S
C461 C121 1.568 . S
C473 C9 1.555 . S
C488 C359 1.570 . S
C500 C23 1.554 . S
C515 C149 1.570 . S
C527 C37 1.555 . S
C542 C387 1.553 . S
C554 C51 1.570 . S
C569 C177 1.553 . S
C581 C65 1.570 . S
C596 C79 1.560 . S
C608 C415 1.567 . S
C623 C93 1.568 . S
C635 C205 1.555 . S
C650 C107 1.556 . S
C662 C443 1.569 . S
C677 C247 1.569 . S
C689 C135 1.557 . S
C704 C275 1.562 . S
C716 C163 1.560 . S
C731 C191 1.569 . S
C743 C303 1.554 . S
C758 C219 1.560 . S
C770 C331 1.562 . S
C785 C233 1.570 . S
C797 C345 1.554 . S
C812 C373 1.566 . S
C824 C261 1.561 . S
C839 C289 1.558 . S
C851 C401 1.564 . S
C866 C429 1.555 . S
C878 C317 1.570 . S
C893 C257 1.615 . S
C905 C5 1.604 . S
C920 C271 1.596 . S
C932 C19 1.608 . S
C947 C33 1.596 . S
C959 C229 1.607 . S
C974 C47 1.597 . S
C986 C243 1.607 . S
C1001 C313 1.596 . S
C1013 C61 1.609 . S
C1028 C75 1.616 . S
C1040 C327 1.602 . S
C1055 C285 1.596 . S
C1067 C89 1.608 . S
C1082 C299 1.596 . S
C1094 C103 1.614 . S
C1109 C117 1.599 . S
C1121 C369 1.615 . S
C1136 C383 1.603 . S
C1148 C131 1.611 . S
C1163 C145 1.603 . S
C1175 C341 1.611 . S
C1190 C159 1.603 . S
C1202 C355 1.611 . S
C1217 C173 1.606 . S
C1229 C425 1.602 . S
C1244 C187 1.605 . S
C1256 C439 1.610 . S
C1271 C397 1.609 . S
C1283 C201 1.599 . S
C1298 C411 1.595 . S
C1310 C215 1.615 . S
C1325 C95 1.466 . S
C1337 C11 1.479 . S
C1352 C109 1.443 . S
C1364 C25 1.467 . S
C1379 C67 1.446 . S
C1391 C39 1.453 . S
C1406 C53 1.480 . S
C1418 C81 1.458 . S
C1433 C207 1.443 . S
C1445 C123 1.457 . S
C1460 C221 1.454 . S
C1472 C137 1.443 . S
C1487 C179 1.480 . S
C1499 C151 1.472 . S
C1514 C193 1.447 . S
C1526 C165 1.444 . S
C1541 C319 1.463 . S
C1553 C235 1.479 . S
C1568 C333 1.442 . S
C1580 C249 1.462 . S
C1595 C263 1.450 . S
C1607 C291 1.449 . S
C1622 C277 1.442 . S
C1634 C305 1.465 . S
C1649 C431 1.460 . S
C1661 C347 1.477 . S
C1676 C445 1.468 . S
C1688 C361 1.479 . S
C1703 C375 1.443 . S
C1715 C403 1.453 . S
C1730 C389 1.459 . S
C1742 C417 1.445 . S
C1757 C0 1.380 . S
C1769 C294 1.381 . S
C1784 C308 1.382 . S
C1796 C14 1.380 . S
C1811 C322 1.396 . S
C1823 C28 1.408 . S
C1838 C42 1.390 . S
C1850 C280 1.402 . S
C1865 C266 1.394 . S
C1877 C56 1.406 . S
C1892 C70 1.409 . S
C1904 C224 1.418 . S
C1919 C238 1.409 . S
C1931 C84 1.398 . S
C1946 C98 1.393 . S
C1958 C252 1.405 . S
C1973 C406 1.420 . S
C1985 C112 1.416 . S
C2000 C420 1.392 . S
C2012 C126 1.415 . S
C2027 C140 1.390 . S
C2039 C434 1.413 . S
C2054 C392 1.391 . S
C2066 C154 1.415 . S
C2081 C378 1.380 . S
C2093 C168 1.387 . S
C2108 C182 1.403 . S
C2120 C336 1.382 . S
C2135 C350 1.411 . S
C2147 C196 1.422 . S
C2162 C210 1.385 . S
C2174 C364 1.382 . S
