# Generated by pormake.
# Topology mok, (4)-cn, num edge types: 1
# Building blocks:
#     Node 0, Type 0, BuildingBlock: QUQFOY_clean_sbu_3, # of connection points: 4
#     Node 1, Type 0, BuildingBlock: QUQFOY_clean_sbu_3, # of connection points: 4
#     Node 2, Type 0, BuildingBlock: QUQFOY_clean_sbu_3, # of connection points: 4
#     Node 3, Type 0, BuildingBlock: QUQFOY_clean_sbu_3, # of connection points: 4
#     Node 4, Type 0, BuildingBlock: QUQFOY_clean_sbu_3, # of connection points: 4
#     Node 5, Type 0, BuildingBlock: QUQFOY_clean_sbu_3, # of connection points: 4
#     Node 6, Type 0, BuildingBlock: QUQFOY_clean_sbu_3, # of connection points: 4
#     Node 7, Type 0, BuildingBlock: QUQFOY_clean_sbu_3, # of connection points: 4
#     Edge 8, Type (0, 0), BuildingBlock: XUDNAN_clean_linker_2, # of connection points: 2
#     Edge 9, Type (0, 0), BuildingBlock: XUDNAN_clean_linker_2, # of connection points: 2
#     Edge 10, Type (0, 0), BuildingBlock: XUDNAN_clean_linker_2, # of connection points: 2
#     Edge 11, Type (0, 0), BuildingBlock: XUDNAN_clean_linker_2, # of connection points: 2
#     Edge 12, Type (0, 0), BuildingBlock: XUDNAN_clean_linker_2, # of connection points: 2
#     Edge 13, Type (0, 0), BuildingBlock: XUDNAN_clean_linker_2, # of connection points: 2
#     Edge 14, Type (0, 0), BuildingBlock: XUDNAN_clean_linker_2, # of connection points: 2
#     Edge 15, Type (0, 0), BuildingBlock: XUDNAN_clean_linker_2, # of connection points: 2
#     Edge 16, Type (0, 0), BuildingBlock: XUDNAN_clean_linker_2, # of connection points: 2
#     Edge 17, Type (0, 0), BuildingBlock: XUDNAN_clean_linker_2, # of connection points: 2
#     Edge 18, Type (0, 0), BuildingBlock: XUDNAN_clean_linker_2, # of connection points: 2
#     Edge 19, Type (0, 0), BuildingBlock: XUDNAN_clean_linker_2, # of connection points: 2
#     Edge 20, Type (0, 0), BuildingBlock: XUDNAN_clean_linker_2, # of connection points: 2
#     Edge 21, Type (0, 0), BuildingBlock: XUDNAN_clean_linker_2, # of connection points: 2
#     Edge 22, Type (0, 0), BuildingBlock: XUDNAN_clean_linker_2, # of connection points: 2
#     Edge 23, Type (0, 0), BuildingBlock: XUDNAN_clean_linker_2, # of connection points: 2
# Relax obj value: 0.012
# Max RMSD: 0.032
# Mean RMSD: 0.032
data_MOF--net-mok--node1-QUQFOY_clean_sbu_3--edge1-XUDNAN_clean_linker_2
_symmetry_space_group_name_H-M    P1
_symmetry_Int_Tables_number       1
_symmetry_cell_setting            triclinic
loop_
_symmetry_equiv_pos_as_xyz
'x, y, z'
_cell_length_a     55.599022
_cell_length_b     16.330976
_cell_length_c     28.20512
_cell_angle_alpha  89.957071
_cell_angle_beta   89.889522
_cell_angle_gamma 89.991816
loop_
_atom_site_label
_atom_site_type_symbol
_atom_site_fract_x
_atom_site_fract_y
_atom_site_fract_z
_atom_type_partial_charge
C0 C 0.59809 0.47298 0.04878 0.0
O1 O 0.6013 0.52229 0.0145 0.0
Cd2 Cd 0.61459 0.47303 0.93875 0.0
O3 O 0.5994 0.39588 0.04244 0.0
Cd4 Cd 0.60432 0.28727 0.98285 0.0
C5 C 0.66244 0.3505 0.97665 0.0
O6 O 0.588 0.36458 0.91872 0.0
O7 O 0.60479 0.25066 0.89836 0.0
O8 O 0.5663 0.23634 0.01149 0.0
C9 C 0.59361 0.31497 0.88602 0.0
O10 O 0.65397 0.4153 0.95774 0.0
C11 C 0.57322 0.16378 0.01983 0.0
O12 O 0.6486 0.29245 -0.00989 0.0
O13 O 0.59534 0.14788 0.01231 0.0
C14 C 0.39812 0.5015 0.05112 0.0
O15 O 0.39463 0.45272 0.01674 0.0
Cd16 Cd 0.38469 0.50676 0.94004 0.0
O17 O 0.39968 0.57839 0.04411 0.0
Cd18 Cd 0.4012 0.68994 0.98551 0.0
C19 C 0.34163 0.64928 0.97999 0.0
O20 O 0.41458 0.60525 0.92178 0.0
O21 O 0.40392 0.7273 0.90137 0.0
O22 O 0.4393 0.71192 0.02353 0.0
C23 C 0.41151 0.65724 0.88898 0.0
O24 O 0.3483 0.58186 0.96133 0.0
C25 C 0.43791 0.78928 0.02622 0.0
O26 O 0.35691 0.70336 -0.00712 0.0
O27 O 0.41853 0.8222 0.01141 0.0
C28 C 0.59434 0.5762 0.38992 0.0
O29 O 0.6042 0.51531 0.41008 0.0
Cd30 Cd 0.61373 0.51147 0.49282 0.0
O31 O 0.58724 0.63751 0.41398 0.0
Cd32 Cd 0.58381 0.68227 0.49704 0.0
C33 C 0.64499 0.69388 0.50283 0.0
O34 O 0.57816 0.54946 0.53406 0.0
O35 O 0.58482 0.6511 0.58128 0.0
O36 O 0.54148 0.70346 0.48299 0.0
C37 C 0.58017 0.57556 0.57617 0.0
O38 O 0.64449 0.6159 0.5029 0.0
C39 C 0.54096 0.77884 0.49361 0.0
O40 O 0.62558 0.73542 0.49921 0.0
O41 O 0.56088 0.81189 0.50496 0.0
C42 C 0.3801 0.41862 0.39256 0.0
O43 O 0.3762 0.4879 0.41153 0.0
Cd44 Cd 0.36587 0.50424 0.49364 0.0
O45 O 0.37996 0.35365 0.41749 0.0
Cd46 Cd 0.37597 0.3088 0.50047 0.0
C47 C 0.31742 0.37139 0.50178 0.0
O48 O 0.39478 0.42728 0.53685 0.0
O49 O 0.37804 0.34042 0.58458 0.0
O50 O 0.41329 0.23691 0.48764 0.0
C51 C 0.39019 0.4055 0.57907 0.0
O52 O 0.3261 0.44358 0.50188 0.0
C53 C 0.40564 0.16608 0.49811 0.0
O54 O 0.33126 0.30899 0.49942 0.0
O55 O 0.38348 0.16001 0.50917 0.0
C56 C 0.11241 0.96327 0.05391 0.0
O57 O 0.12121 0.00796 0.02137 0.0
Cd58 Cd 0.13288 0.95181 0.94619 0.0
O59 O 0.10805 0.88779 0.04655 0.0
Cd60 Cd 0.10913 0.78358 0.98354 0.0
C61 C 0.17044 0.79533 0.98099 0.0
O62 O 0.09879 0.87486 0.9195 0.0
O63 O 0.10938 0.75297 0.89834 0.0
O64 O 0.06855 0.74103 0.00498 0.0
C65 C 0.10169 0.8232 0.8865 0.0
O66 O 0.16807 0.86585 0.96223 0.0
C67 C 0.07401 0.66759 0.01492 0.0
O68 O 0.15204 0.75368 -0.00676 0.0
O69 O 0.09603 0.64771 0.01087 0.0
C70 C 0.88233 0.04611 0.0928 0.0
O71 O 0.87433 -0.00265 0.06152 0.0
Cd72 Cd 0.86807 0.03173 0.98101 0.0
O73 O 0.88903 0.11858 0.08204 0.0
Cd74 Cd 0.89476 0.20626 0.0103 0.0
C75 C 0.83394 0.2085 -0.0033 0.0
O76 O 0.90569 0.09181 0.96315 0.0
O77 O 0.90124 0.20188 0.92257 0.0
O78 O 0.93302 0.23384 0.04753 0.0
C79 C 0.90692 0.12668 0.92332 0.0
O80 O 0.83589 0.13355 0.98476 0.0
C81 C 0.93373 0.30976 0.03822 0.0
O82 O 0.85236 0.25019 0.00877 0.0
O83 O 0.91553 0.33986 0.01715 0.0
C84 C 0.09853 0.08051 0.39253 0.0
O85 O 0.10749 0.0196 0.41425 0.0
Cd86 Cd 0.11624 0.01991 0.49728 0.0
O87 O 0.09135 0.1434 0.41516 0.0
Cd88 Cd 0.08598 0.19224 0.49735 0.0
C89 C 0.1471 0.20466 0.5028 0.0
O90 O 0.08045 0.06145 0.53614 0.0
O91 O 0.08685 0.16428 0.58242 0.0
O92 O 0.04396 0.21166 0.47883 0.0
C93 C 0.08247 0.08841 0.57804 0.0
O94 O 0.14664 0.1267 0.5047 0.0
C95 C 0.04275 0.28665 0.49023 0.0
O96 O 0.12767 0.2459 0.49842 0.0
O97 O 0.06218 0.32034 0.50402 0.0
C98 C 0.87919 0.93745 0.43374 0.0
O99 O 0.87538 0.00213 0.45754 0.0
Cd100 Cd 0.86348 0.98988 0.53976 0.0
O101 O 0.87844 0.86782 0.45378 0.0
Cd102 Cd 0.8735 0.79701 0.52903 0.0
C103 C 0.81498 0.85818 0.52874 0.0
O104 O 0.89104 0.90129 0.58047 0.0
O105 O 0.87303 0.79835 0.61411 0.0
O106 O 0.91156 0.73326 0.51049 0.0
C107 C 0.88535 0.86332 0.6182 0.0
O108 O 0.82354 0.92919 0.53672 0.0
C109 C 0.90436 0.65972 0.51269 0.0
O110 O 0.82895 0.79692 0.52261 0.0
O111 O 0.88214 0.64857 0.52169 0.0
H112 H 0.79038 0.13025 -0.00628 0.0
H113 H 0.82262 0.37216 0.00023 0.0
H114 H 0.78206 0.43431 -0.00168 0.0
H115 H 0.74298 0.17927 0.91431 0.0
H116 H 0.72112 0.11459 0.94315 0.0
H117 H 0.7526 0.08929 0.94613 0.0
H118 H 0.75029 0.08762 0.0379 0.0
H119 H 0.71878 0.11293 0.03521 0.0
H120 H 0.73906 0.17635 0.06883 0.0
H121 H 0.73827 0.46979 -0.00883 0.0
H122 H 0.69419 0.47691 0.983 0.0
H123 H 0.69028 0.21145 0.98469 0.0
C124 C 0.78897 0.19636 -0.00517 0.0
C125 C 0.80972 0.24644 -0.0031 0.0
C126 C 0.80701 0.3326 -0.00131 0.0
C127 C 0.78405 0.36841 -0.00241 0.0
C128 C 0.76402 0.31716 -0.00474 0.0
C129 C 0.76624 0.23299 -0.00569 0.0
C130 C 0.74186 0.19165 -0.00826 0.0
C131 C 0.73951 0.14071 0.94612 0.0
C132 C 0.73723 0.13904 0.03606 0.0
C133 C 0.72553 0.26583 -0.00933 0.0
C134 C 0.73871 0.33758 -0.00739 0.0
C135 C 0.72776 0.41406 -0.00992 0.0
C136 C 0.70271 0.41739 0.98528 0.0
C137 C 0.68878 0.34471 0.98343 0.0
C138 C 0.7004 0.26799 -0.01338 0.0
H139 H 0.21398 0.87359 0.9699 0.0
H140 H 0.18226 0.63926 0.00766 0.0
H141 H 0.22281 0.58025 0.0164 0.0
H142 H 0.26204 0.7956 0.90121 0.0
H143 H 0.28376 0.87016 0.92077 0.0
H144 H 0.25227 0.89576 0.91998 0.0
H145 H 0.25417 0.93388 0.00904 0.0
H146 H 0.2857 0.90833 0.01013 0.0
H147 H 0.26526 0.85993 0.05116 0.0
H148 H 0.2661 0.5436 0.01492 0.0
H149 H 0.31003 0.53185 0.00588 0.0
H150 H 0.31458 0.7908 0.97253 0.0
C151 C 0.21554 0.81 0.98036 0.0
C152 C 0.19486 0.76102 -0.01197 0.0
C153 C 0.19775 0.67812 0.00169 0.0
C154 C 0.22073 0.64402 0.00679 0.0
C155 C 0.24067 0.69378 -0.00138 0.0
C156 C 0.23837 0.7751 0.98604 0.0
C157 C 0.26281 0.81437 0.9782 0.0
C158 C 0.26536 0.8458 0.927 0.0
C159 C 0.26724 0.8832 0.01429 0.0
C160 C 0.27919 0.74181 -0.01267 0.0
C161 C 0.26594 0.67301 -0.0009 0.0
C162 C 0.2767 0.5972 0.00636 0.0
C163 C 0.30165 0.59114 0.00098 0.0
C164 C 0.31566 0.66054 -0.01115 0.0
C165 C 0.30431 0.7372 0.98267 0.0
H166 H 0.78849 0.71604 0.51781 0.0
H167 H 0.78121 0.97964 0.53286 0.0
H168 H 0.73724 0.96679 0.52737 0.0
H169 H 0.74046 0.68951 0.43366 0.0
H170 H 0.7304 0.59385 0.45869 0.0
H171 H 0.7615 0.62343 0.46366 0.0
H172 H 0.75904 0.60795 0.555 0.0
H173 H 0.72794 0.57823 0.55029 0.0
H174 H 0.73629 0.66334 0.58743 0.0
H175 H 0.69379 0.9261 0.51959 0.0
H176 H 0.65411 0.8589 0.51188 0.0
H177 H 0.68962 0.62242 0.50292 0.0
C178 C 0.77767 0.77105 0.51994 0.0
C179 C 0.78844 0.8488 0.52575 0.0
C180 C 0.77352 0.91922 0.52848 0.0
C181 C 0.74844 0.91272 0.52533 0.0
C182 C 0.73842 0.83536 0.51957 0.0
C183 C 0.75253 0.76572 0.51704 0.0
C184 C 0.73714 0.68988 0.51118 0.0
C185 C 0.74271 0.64665 0.46399 0.0
C186 C 0.74029 0.63142 0.5535 0.0
C187 C 0.71226 0.7279 0.51081 0.0
C188 C 0.71337 0.8119 0.51555 0.0
C189 C 0.69267 0.86026 0.51592 0.0
C190 C 0.67022 0.82159 0.51147 0.0
C191 C 0.66865 0.7354 0.50689 0.0
C192 C 0.69007 0.68842 0.50651 0.0
H193 H 0.19173 0.1332 0.5037 0.0
H194 H 0.15633 0.37033 0.50531 0.0
H195 H 0.1961 0.43817 0.50672 0.0
H196 H 0.24073 0.18562 0.58162 0.0
H197 H 0.26245 0.1254 0.54939 0.0
H198 H 0.23124 0.09575 0.54963 0.0
H199 H 0.23087 0.09816 0.45777 0.0
H200 H 0.26206 0.12788 0.45723 0.0
H201 H 0.24005 0.18976 0.42695 0.0
H202 H 0.23966 0.47969 0.50702 0.0
H203 H 0.2837 0.49315 0.5052 0.0
H204 H 0.29078 0.22821 0.50254 0.0
C205 C 0.19223 0.19946 0.5046 0.0
C206 C 0.1708 0.24645 0.50453 0.0
C207 C 0.17242 0.33299 0.5054 0.0
C208 C 0.19494 0.37203 0.50624 0.0
C209 C 0.21564 0.32368 0.50612 0.0
C210 C 0.21448 0.2393 0.50528 0.0
C211 C 0.23938 0.2014 0.50443 0.0
C212 C 0.2437 0.14896 0.54892 0.0
C213 C 0.24331 0.15136 0.45888 0.0
C214 C 0.25482 0.27777 0.50478 0.0
C215 C 0.24074 0.34757 0.50591 0.0
C216 C 0.25084 0.42546 0.50618 0.0
C217 C 0.27596 0.43232 0.50513 0.0
C218 C 0.29085 0.3617 0.5037 0.0
C219 C 0.28 0.2834 0.50365 0.0
H220 H 0.60054 0.38692 0.13132 0.0
H221 H 0.58651 0.63013 0.0755 0.0
H222 H 0.5815 0.68212 0.15734 0.0
H223 H 0.55919 0.39584 0.23154 0.0
H224 H 0.57935 0.34026 0.26981 0.0
H225 H 0.57968 0.32161 0.20686 0.0
H226 H 0.62534 0.35377 0.20438 0.0
H227 H 0.62515 0.37282 0.26719 0.0
H228 H 0.63602 0.45036 0.22699 0.0
H229 H 0.5797 0.70775 0.24565 0.0
H230 H 0.58276 0.70649 0.33302 0.0
H231 H 0.5994 0.44675 0.32933 0.0
C232 C 0.59604 0.45092 0.13611 0.0
C233 C 0.59376 0.50444 0.09706 0.0
C234 C 0.58829 0.58804 0.10498 0.0
C235 C 0.58534 0.61801 0.15126 0.0
C236 C 0.58803 0.56355 0.18898 0.0
C237 C 0.5933 0.48182 0.18181 0.0
C238 C 0.59674 0.43679 0.22812 0.0
C239 C 0.57759 0.36967 0.23444 0.0
C240 C 0.62233 0.4014 0.23187 0.0
C241 C 0.59293 0.5062 0.26262 0.0
C242 C 0.58762 0.57863 0.2395 0.0
C243 C 0.58375 0.65133 0.26414 0.0
C244 C 0.58552 0.64995 0.31372 0.0
C245 C 0.59139 0.57653 0.33794 0.0
C246 C 0.59496 0.50386 0.31188 0.0
H247 H 0.39888 0.59204 0.13223 0.0
H248 H 0.3984 0.34112 0.08131 0.0
H249 H 0.39613 0.29166 0.16414 0.0
H250 H 0.43387 0.55645 0.23998 0.0
H251 H 0.41638 0.62893 0.27372 0.0
H252 H 0.4204 0.64337 0.21086 0.0
H253 H 0.37413 0.64858 0.20003 0.0
H254 H 0.36995 0.63353 0.26269 0.0
H255 H 0.356 0.56456 0.22114 0.0
H256 H 0.39136 0.27076 0.25241 0.0
H257 H 0.38425 0.27958 0.33869 0.0
H258 H 0.38685 0.545 0.33008 0.0
C259 C 0.39874 0.52656 0.13832 0.0
C260 C 0.39894 0.47038 0.10028 0.0
C261 C 0.39836 0.38526 0.10994 0.0
C262 C 0.39709 0.35664 0.15683 0.0
C263 C 0.39644 0.41399 0.19341 0.0
C264 C 0.39731 0.49714 0.18461 0.0
C265 C 0.39487 0.54644 0.2297 0.0
C266 C 0.41775 0.59675 0.23911 0.0
C267 C 0.3724 0.60148 0.22828 0.0
C268 C 0.39206 0.47807 0.26533 0.0
C269 C 0.39325 0.4021 0.24387 0.0
C270 C 0.39056 0.3299 0.26963 0.0
C271 C 0.38649 0.33561 0.31859 0.0
C272 C 0.38495 0.41304 0.34114 0.0
C273 C 0.3879 0.48492 0.31397 0.0
H274 H 0.40805 0.50372 0.85217 0.0
H275 H 0.41737 0.75854 0.81275 0.0
H276 H 0.41661 0.71971 0.72795 0.0
H277 H 0.4424 0.41182 0.75383 0.0
H278 H 0.42146 0.32824 0.74771 0.0
H279 H 0.4261 0.37487 0.80486 0.0
H280 H 0.38033 0.40298 0.81177 0.0
H281 H 0.37556 0.35689 0.75466 0.0
H282 H 0.3654 0.45997 0.76564 0.0
H283 H 0.41258 0.65367 0.64781 0.0
H284 H 0.40292 0.56713 0.57849 0.0
H285 H 0.39359 0.35761 0.67142 0.0
C286 C 0.41049 0.55108 0.82569 0.0
C287 C 0.41305 0.63392 0.83873 0.0
C288 C 0.41552 0.69461 0.80323 0.0
C289 C 0.41521 0.67311 0.75511 0.0
C290 C 0.4122 0.59086 0.74336 0.0
C291 C 0.40977 0.53088 0.77766 0.0
C292 C 0.40443 0.44828 0.75593 0.0
C293 C 0.42482 0.38721 0.76619 0.0
C294 C 0.37998 0.41514 0.77301 0.0
C295 C 0.40375 0.4714 0.70407 0.0
C296 C 0.40875 0.55353 0.69743 0.0
C297 C 0.40875 0.58921 0.65254 0.0
C298 C 0.40325 0.53967 0.61345 0.0
C299 C 0.39742 0.45599 0.61981 0.0
C300 C 0.39788 0.42154 0.66564 0.0
H301 H 0.58284 0.4647 0.84962 0.0
H302 H 0.59585 0.21207 0.80948 0.0
H303 H 0.59063 0.24939 0.72501 0.0
H304 H 0.53851 0.51308 0.75836 0.0
H305 H 0.55009 0.61511 0.74979 0.0
H306 H 0.55248 0.56653 0.80697 0.0
H307 H 0.59861 0.59 0.80613 0.0
H308 H 0.59638 0.63851 0.74903 0.0
H309 H 0.61617 0.55219 0.75701 0.0
H310 H 0.58554 0.3162 0.64492 0.0
H311 H 0.58354 0.40833 0.57537 0.0
H312 H 0.57574 0.61716 0.66921 0.0
C313 C 0.58421 0.41691 0.82314 0.0
C314 C 0.58954 0.33544 0.83589 0.0
C315 C 0.59169 0.27489 0.80026 0.0
C316 C 0.58866 0.29542 0.75233 0.0
C317 C 0.58364 0.3767 0.74092 0.0
C318 C 0.58155 0.43649 0.77535 0.0
C319 C 0.57786 0.52029 0.75384 0.0
C320 C 0.55327 0.55581 0.76809 0.0
C321 C 0.59849 0.57864 0.7673 0.0
C322 C 0.57857 0.49864 0.70183 0.0
C323 C 0.58153 0.41543 0.69501 0.0
C324 C 0.58312 0.3814 0.64982 0.0
C325 C 0.58194 0.43409 0.61061 0.0
C326 C 0.57956 0.5197 0.61709 0.0
C327 C 0.57762 0.55195 0.66327 0.0
H328 H 0.10835 0.87956 0.13703 0.0
H329 H 0.1066 0.12491 0.07787 0.0
H330 H 0.09997 0.18162 0.15822 0.0
H331 H 0.06358 0.90973 0.22962 0.0
H332 H 0.07969 0.84759 0.27179 0.0
H333 H 0.08221 0.82645 0.20929 0.0
H334 H 0.12861 0.83906 0.21478 0.0
H335 H 0.12625 0.86022 0.2772 0.0
H336 H 0.14168 0.93115 0.23875 0.0
H337 H 0.09445 0.21094 0.24541 0.0
H338 H 0.09353 0.21188 0.33301 0.0
H339 H 0.10098 0.94725 0.33417 0.0
C340 C 0.10623 0.94516 0.14082 0.0
C341 C 0.10776 -0.0021 0.10129 0.0
C342 C 0.10542 0.0835 0.1078 0.0
C343 C 0.10155 0.11615 0.15318 0.0
C344 C 0.10028 0.06229 0.19148 0.0
C345 C 0.10272 0.97868 0.18574 0.0
C346 C 0.10234 0.93433 0.23279 0.0
C347 C 0.08066 0.8761 0.23605 0.0
C348 C 0.12614 0.88854 0.24137 0.0
C349 C 0.09956 0.00614 0.26607 0.0
C350 C 0.09802 0.07932 0.2416 0.0
C351 C 0.09559 0.15401 0.26494 0.0
C352 C 0.09504 0.15388 0.31465 0.0
C353 C 0.09727 0.07963 0.34031 0.0
C354 C 0.09933 0.00497 0.31552 0.0
H355 H 0.87984 0.0733 0.3753 0.0
H356 H 0.88818 0.80857 0.37519 0.0
H357 H 0.89217 0.80999 0.28857 0.0
H358 H 0.84434 0.08618 0.27286 0.0
H359 H 0.85788 0.17858 0.2502 0.0
H360 H 0.85766 0.15901 0.31301 0.0
H361 H 0.90403 0.17422 0.31554 0.0
H362 H 0.90438 0.1944 0.25271 0.0
H363 H 0.9224 0.11259 0.27675 0.0
H364 H 0.89112 0.83631 0.20284 0.0
H365 H 0.88786 0.88838 0.12117 0.0
H366 H 0.88189 0.13672 0.17488 0.0
C367 C 0.88289 0.01586 0.3571 0.0
C368 C 0.88363 0.94087 0.38213 0.0
C369 C 0.88749 0.86689 0.35694 0.0
C370 C 0.88983 0.86691 0.30766 0.0
C371 C 0.88852 0.94141 0.28401 0.0
C372 C 0.88542 0.01471 0.30769 0.0
C373 C 0.8838 0.08565 0.27314 0.0
C374 C 0.85947 0.12993 0.27758 0.0
C375 C 0.90492 0.14523 0.27995 0.0
C376 C 0.88584 0.04017 0.22648 0.0
C377 C 0.88857 0.95704 0.23378 0.0
C378 C 0.88935 0.9014 0.19651 0.0
C379 C 0.88733 0.93151 0.15032 0.0
C380 C 0.88474 0.0165 0.14184 0.0
C381 C 0.8842 0.07157 0.18043 0.0
H382 H 0.89015 0.02049 0.6501 0.0
H383 H 0.89872 0.76632 0.69138 0.0
H384 H 0.91085 0.80957 0.77165 0.0
H385 H 0.9388 0.10821 0.72539 0.0
H386 H 0.92121 0.19728 0.74033 0.0
H387 H 0.91712 0.14777 0.6838 0.0
H388 H 0.8716 0.13154 0.70138 0.0
H389 H 0.87554 0.18093 0.7578 0.0
H390 H 0.86217 0.0805 0.75499 0.0
H391 H 0.91863 0.87745 0.84778 0.0
H392 H 0.91821 0.96524 0.91847 0.0
H393 H 0.90237 0.17677 0.83041 0.0
C394 C 0.89517 0.97438 0.67588 0.0
C395 C 0.89384 0.89029 0.66483 0.0
C396 C 0.89975 0.83108 0.69946 0.0
C397 C 0.90683 0.85505 0.7449 0.0
C398 C 0.90762 0.93839 0.7551 0.0
C399 C 0.90177 -0.00269 0.72184 0.0
C400 C 0.90124 0.08196 0.74384 0.0
C401 C 0.92076 0.13705 0.72204 0.0
C402 C 0.87615 0.12098 0.73923 0.0
C403 C 0.90701 0.06091 0.7949 0.0
C404 C 0.91117 0.97795 0.80018 0.0
C405 C 0.91563 0.94263 0.84414 0.0
C406 C 0.91528 0.99307 0.88409 0.0
C407 C 0.91018 0.07777 0.8799 0.0
C408 C 0.90651 0.11237 0.83458 0.0
H409 H 0.09432 0.97625 0.85093 0.0
H410 H 0.09975 0.72096 0.80958 0.0
H411 H 0.0931 0.76024 0.72585 0.0
H412 H 0.04833 0.03565 0.76673 0.0
H413 H 0.06156 0.13472 0.75603 0.0
H414 H 0.06534 0.08562 0.81274 0.0
H415 H 0.11165 0.0979 0.80443 0.0
H416 H 0.10803 0.1471 0.74778 0.0
H417 H 0.12629 0.05629 0.75269 0.0
H418 H 0.08668 0.82849 0.64656 0.0
H419 H 0.08316 0.92077 0.5774 0.0
H420 H 0.08312 0.13088 0.67159 0.0
C421 C 0.09389 0.92843 0.82435 0.0
C422 C 0.09741 0.84555 0.83662 0.0
C423 C 0.09706 0.78488 0.8008 0.0
C424 C 0.09321 0.80654 0.75327 0.0
C425 C 0.08986 0.88903 0.74237 0.0
C426 C 0.09029 0.94899 0.77691 0.0
C427 C 0.08741 0.03354 0.75583 0.0
C428 C 0.06428 0.07478 0.77391 0.0
C429 C 0.10967 0.08681 0.76576 0.0
C430 C 0.08552 0.01196 0.70391 0.0
C431 C 0.08671 0.92831 0.69684 0.0
C432 C 0.08567 0.89407 0.65167 0.0
C433 C 0.08363 0.94691 0.61266 0.0
C434 C 0.08291 0.03288 0.61923 0.0
C435 C 0.08365 0.06543 0.6655 0.0
H436 H 0.4445 0.95589 0.02007 0.0
H437 H 0.47952 0.73122 0.06465 0.0
H438 H 0.51733 0.80665 0.07702 0.0
H439 H 0.4911 0.03017 0.9536 0.0
H440 H 0.48744 0.13651 0.96908 0.0
H441 H 0.46204 0.06854 0.97138 0.0
H442 H 0.4547 0.10685 0.05936 0.0
H443 H 0.48 0.17577 0.05723 0.0
H444 H 0.47881 0.09632 0.10157 0.0
H445 H 0.55278 0.90076 0.07188 0.0
H446 H 0.5825 0.00966 0.05448 0.0
H447 H 0.52434 0.17384 0.01599 0.0
C448 C 0.4599 0.92316 0.03392 0.0
C449 C 0.45901 0.83774 0.04147 0.0
C450 C 0.47972 0.79674 0.05868 0.0
C451 C 0.50132 0.83907 0.06593 0.0
C452 C 0.50188 0.92266 0.05639 0.0
C453 C 0.48163 0.96463 0.04149 0.0
C454 C 0.48756 0.05295 0.02999 0.0
C455 C 0.48169 0.07315 0.97794 0.0
C456 C 0.47449 0.11142 0.06408 0.0
C457 C 0.51443 0.05297 0.03878 0.0
C458 C 0.52234 0.97749 0.0544 0.0
C459 C 0.54675 0.96076 0.06074 0.0
C460 C 0.56351 0.02274 0.05059 0.0
C461 C 0.55573 0.10035 0.03441 0.0
C462 C 0.53084 0.11564 0.02923 0.0
H463 H 0.53385 0.94581 0.49548 0.0
H464 H 0.49589 0.71362 0.49264 0.0
H465 H 0.4571 0.78672 0.49456 0.0
H466 H 0.49307 0.05173 0.57346 0.0
H467 H 0.49533 0.14782 0.54228 0.0
H468 H 0.52021 0.0772 0.54162 0.0
H469 H 0.51991 0.07763 0.44973 0.0
H470 H 0.49505 0.14833 0.45012 0.0
H471 H 0.49255 0.0526 0.41875 0.0
H472 H 0.42225 0.88507 0.49881 0.0
H473 H 0.39406 0.00255 0.50011 0.0
H474 H 0.45468 0.16985 0.49639 0.0
C475 C 0.51737 0.91047 0.49535 0.0
C476 C 0.5179 0.82407 0.49404 0.0
C477 C 0.49593 0.77993 0.49351 0.0
C478 C 0.47378 0.82083 0.49474 0.0
C479 C 0.47385 0.906 0.49603 0.0
C480 C 0.49505 0.95039 0.49592 0.0
C481 C 0.49007 0.04153 0.49614 0.0
C482 C 0.50028 0.08192 0.54106 0.0
C483 C 0.49998 0.08241 0.45099 0.0
C484 C 0.46282 0.04128 0.4966 0.0
C485 C 0.45379 0.96256 0.49691 0.0
C486 C 0.42911 0.94708 0.49829 0.0
C487 C 0.41324 0.01403 0.49911 0.0
C488 C 0.42216 0.09514 0.49801 0.0
C489 C 0.44729 0.1085 0.49679 0.0
H490 H 0.02546 0.67881 0.00096 0.0
H491 H 0.08062 0.5204 0.05942 0.0
H492 H 0.04957 0.41772 0.07969 0.0
H493 H 0.97697 0.6255 0.08468 0.0
H494 H 0.95419 0.62787 0.03931 0.0
H495 H 0.98027 0.69289 0.03443 0.0
H496 H 0.98968 0.63175 0.95168 0.0
H497 H 0.96364 0.56682 0.95627 0.0
H498 H -0.00718 0.5224 0.94539 0.0
H499 H 0.01314 0.32956 0.08923 0.0
H500 H 0.9745 0.25696 0.08226 0.0
H501 H 0.94302 0.47049 0.01471 0.0
C502 C 0.03094 0.62315 0.01883 0.0
C503 C 0.05541 0.60773 0.02909 0.0
C504 C 0.06196 0.53344 0.05144 0.0
C505 C 0.04444 0.47504 0.06329 0.0
C506 C 0.0205 0.4918 0.05228 0.0
C507 C 0.01373 0.56381 0.0303 0.0
C508 C 0.98713 0.5637 0.01858 0.0
C509 C 0.97386 0.63152 0.04589 0.0
C510 C 0.98309 0.5716 0.9648 0.0
C511 C 0.98007 0.47961 0.03652 0.0
C512 C -0.00048 0.43983 0.05656 0.0
C513 C -0.00225 0.36029 0.07394 0.0
C514 C 0.97569 0.31958 0.0698 0.0
C515 C 0.9557 0.35805 0.04798 0.0
C516 C 0.95787 0.43974 0.03197 0.0
H517 H 0.03431 0.45211 0.50089 0.0
H518 H -0.00171 0.21968 0.47798 0.0
H519 H 0.95899 0.28941 0.48006 0.0
H520 H 0.99139 0.53654 0.58112 0.0
H521 H -0.00658 0.6391 0.5578 0.0
H522 H 0.01886 0.57124 0.55359 0.0
H523 H 0.02018 0.59267 0.46257 0.0
H524 H -0.00523 0.66081 0.46653 0.0
H525 H -0.00641 0.57304 0.4279 0.0
H526 H 0.92331 0.38338 0.48878 0.0
H527 H 0.89416 0.49681 0.49887 0.0
H528 H 0.95342 0.6681 0.51264 0.0
C529 C 0.01816 0.41603 0.49607 0.0
C530 C 0.01941 0.33042 0.48934 0.0
C531 C -0.00217 0.28539 0.48305 0.0
C532 C 0.97538 0.32438 0.48427 0.0
C533 C 0.97475 0.40868 0.49131 0.0
C534 C -0.00444 0.45415 0.49664 0.0
C535 C 0.98984 0.54403 0.50351 0.0
C536 C -0.00109 0.57448 0.55189 0.0
C537 C 0.00021 0.59567 0.46269 0.0
C538 C 0.96261 0.54168 0.50185 0.0
C539 C 0.95422 0.46304 0.49496 0.0
C540 C 0.92966 0.44541 0.49376 0.0
C541 C 0.91324 0.51007 0.49962 0.0
C542 C 0.92149 0.59123 0.50618 0.0
C543 C 0.94652 0.60682 0.50716 0.0
loop_
_geom_bond_atom_site_label_1
_geom_bond_atom_site_label_2
_geom_bond_distance
_geom_bond_site_symmetry_2
_ccdc_geom_bond_type
C0 O1 1.306 . S
C0 O3 1.160 . S
O1 C0 1.306 . S
O1 Cd2 2.224 1_554 S
Cd2 O1 2.224 1_556 S
Cd2 O6 2.275 . S
Cd2 O10 2.276 1_556 S
O3 C0 1.160 . S
O3 Cd4 2.203 . S
Cd4 O3 2.203 . S
Cd4 O6 2.411 1_554 S
Cd4 O7 2.333 1_554 S
Cd4 O8 2.352 . S
Cd4 O12 2.277 . S
Cd4 O13 2.356 1_554 S
C5 O10 1.209 . S
C5 O12 1.226 . S
O6 Cd2 2.275 . S
O6 Cd4 2.411 1_556 S
O6 C9 1.320 . S
O7 Cd4 2.333 1_556 S
O7 C9 1.214 . S
O8 Cd4 2.352 . S
O8 C11 1.258 . S
C9 O6 1.320 . S
C9 O7 1.214 . S
O10 Cd2 2.276 1_554 S
O10 C5 1.209 . S
C11 O8 1.258 . S
C11 O13 1.282 1_554 S
O12 Cd4 2.277 . S
O12 C5 1.226 . S
O13 Cd4 2.356 1_556 S
O13 C11 1.282 1_556 S
C14 O15 1.306 . S
C14 O17 1.160 . S
O15 C14 1.306 . S
O15 Cd16 2.224 1_554 S
Cd16 O15 2.224 1_556 S
Cd16 O20 2.275 . S
Cd16 O24 2.276 1_556 S
O17 C14 1.160 . S
O17 Cd18 2.203 . S
Cd18 O17 2.203 . S
Cd18 O20 2.411 1_554 S
Cd18 O21 2.333 1_554 S
Cd18 O22 2.352 . S
Cd18 O26 2.277 . S
Cd18 O27 2.356 1_554 S
C19 O24 1.209 . S
C19 O26 1.226 . S
O20 Cd16 2.275 . S
O20 Cd18 2.411 1_556 S
O20 C23 1.320 . S
O21 Cd18 2.333 1_556 S
O21 C23 1.214 . S
O22 Cd18 2.352 . S
O22 C25 1.258 . S
C23 O20 1.320 . S
C23 O21 1.214 . S
O24 Cd16 2.276 1_554 S
O24 C19 1.209 . S
C25 O22 1.258 . S
C25 O27 1.282 1_554 S
O26 Cd18 2.277 . S
O26 C19 1.226 . S
O27 Cd18 2.356 1_556 S
O27 C25 1.282 1_556 S
C28 O29 1.306 . S
C28 O31 1.160 . S
O29 C28 1.306 . S
O29 Cd30 2.228 . S
Cd30 O29 2.228 . S
Cd30 O34 2.273 . S
Cd30 O38 2.277 . S
O31 C28 1.160 . S
O31 Cd32 2.203 . S
Cd32 O31 2.203 . S
Cd32 O34 2.411 . S
Cd32 O35 2.333 . S
Cd32 O36 2.352 . S
Cd32 O40 2.277 . S
Cd32 O41 2.356 . S
C33 O38 1.209 . S
C33 O40 1.226 . S
O34 Cd30 2.273 . S
O34 Cd32 2.411 . S
O34 C37 1.320 . S
O35 Cd32 2.333 . S
O35 C37 1.214 . S
O36 Cd32 2.352 . S
O36 C39 1.258 . S
C37 O34 1.320 . S
C37 O35 1.214 . S
O38 Cd30 2.277 . S
O38 C33 1.209 . S
C39 O36 1.258 . S
C39 O41 1.282 . S
O40 Cd32 2.277 . S
O40 C33 1.226 . S
O41 Cd32 2.356 . S
O41 C39 1.282 . S
C42 O43 1.306 . S
C42 O45 1.160 . S
O43 C42 1.306 . S
O43 Cd44 2.228 . S
Cd44 O43 2.228 . S
Cd44 O48 2.273 . S
Cd44 O52 2.277 . S
O45 C42 1.160 . S
O45 Cd46 2.203 . S
Cd46 O45 2.203 . S
Cd46 O48 2.411 . S
Cd46 O49 2.333 . S
Cd46 O50 2.352 . S
Cd46 O54 2.277 . S
Cd46 O55 2.356 . S
C47 O52 1.209 . S
C47 O54 1.226 . S
O48 Cd44 2.273 . S
O48 Cd46 2.411 . S
O48 C51 1.320 . S
O49 Cd46 2.333 . S
O49 C51 1.214 . S
O50 Cd46 2.352 . S
O50 C53 1.258 . S
C51 O48 1.320 . S
C51 O49 1.214 . S
O52 Cd44 2.277 . S
O52 C47 1.209 . S
C53 O50 1.258 . S
C53 O55 1.282 . S
O54 Cd46 2.277 . S
O54 C47 1.226 . S
O55 Cd46 2.356 . S
O55 C53 1.282 . S
C56 O57 1.306 . S
C56 O59 1.160 . S
O57 C56 1.306 . S
O57 Cd58 2.224 1_554 S
Cd58 O57 2.224 1_556 S
Cd58 O62 2.275 . S
Cd58 O66 2.276 1_556 S
O59 C56 1.160 . S
O59 Cd60 2.203 . S
Cd60 O59 2.203 . S
Cd60 O62 2.411 1_554 S
Cd60 O63 2.333 1_554 S
Cd60 O64 2.352 . S
Cd60 O68 2.277 . S
Cd60 O69 2.356 1_554 S
C61 O66 1.209 . S
C61 O68 1.226 . S
O62 Cd58 2.275 . S
O62 Cd60 2.411 1_556 S
O62 C65 1.320 . S
O63 Cd60 2.333 1_556 S
O63 C65 1.214 . S
O64 Cd60 2.352 . S
O64 C67 1.258 . S
C65 O62 1.320 . S
C65 O63 1.214 . S
O66 Cd58 2.276 1_554 S
O66 C61 1.209 . S
C67 O64 1.258 . S
C67 O69 1.282 1_554 S
O68 Cd60 2.277 . S
O68 C61 1.226 . S
O69 Cd60 2.356 1_556 S
O69 C67 1.282 1_556 S
C70 O71 1.306 . S
C70 O73 1.160 . S
O71 C70 1.306 . S
O71 Cd72 2.224 1_554 S
Cd72 O71 2.224 1_556 S
Cd72 O76 2.275 . S
Cd72 O80 2.276 1_556 S
O73 C70 1.160 . S
O73 Cd74 2.203 . S
Cd74 O73 2.203 . S
Cd74 O76 2.411 1_554 S
Cd74 O77 2.333 1_554 S
Cd74 O78 2.352 . S
Cd74 O82 2.277 . S
Cd74 O83 2.356 1_554 S
C75 O80 1.209 . S
C75 O82 1.226 . S
O76 Cd72 2.275 . S
O76 Cd74 2.411 1_556 S
O76 C79 1.320 . S
O77 Cd74 2.333 1_556 S
O77 C79 1.214 . S
O78 Cd74 2.352 . S
O78 C81 1.258 . S
C79 O76 1.320 . S
C79 O77 1.214 . S
O80 Cd72 2.276 1_554 S
O80 C75 1.209 . S
C81 O78 1.258 . S
C81 O83 1.282 1_554 S
O82 Cd74 2.277 . S
O82 C75 1.226 . S
O83 Cd74 2.356 1_556 S
O83 C81 1.282 1_556 S
C84 O85 1.306 . S
C84 O87 1.160 . S
O85 C84 1.306 . S
O85 Cd86 2.228 . S
Cd86 O85 2.228 . S
Cd86 O90 2.273 . S
Cd86 O94 2.277 . S
O87 C84 1.160 . S
O87 Cd88 2.203 . S
Cd88 O87 2.203 . S
Cd88 O90 2.411 . S
Cd88 O91 2.333 . S
Cd88 O92 2.352 . S
Cd88 O96 2.277 . S
Cd88 O97 2.356 . S
C89 O94 1.209 . S
C89 O96 1.226 . S
O90 Cd86 2.273 . S
O90 Cd88 2.411 . S
O90 C93 1.320 . S
O91 Cd88 2.333 . S
O91 C93 1.214 . S
O92 Cd88 2.352 . S
O92 C95 1.258 . S
C93 O90 1.320 . S
C93 O91 1.214 . S
O94 Cd86 2.277 . S
O94 C89 1.209 . S
C95 O92 1.258 . S
C95 O97 1.282 . S
O96 Cd88 2.277 . S
O96 C89 1.226 . S
O97 Cd88 2.356 . S
O97 C95 1.282 . S
C98 O99 1.306 . S
C98 O101 1.160 . S
O99 C98 1.306 . S
O99 Cd100 2.228 . S
Cd100 O99 2.228 . S
Cd100 O104 2.273 . S
Cd100 O108 2.277 . S
O101 C98 1.160 . S
O101 Cd102 2.203 . S
Cd102 O101 2.203 . S
Cd102 O104 2.411 . S
Cd102 O105 2.333 . S
Cd102 O106 2.352 . S
Cd102 O110 2.277 . S
Cd102 O111 2.356 . S
C103 O108 1.209 . S
C103 O110 1.226 . S
O104 Cd100 2.273 . S
O104 Cd102 2.411 . S
O104 C107 1.320 . S
O105 Cd102 2.333 . S
O105 C107 1.214 . S
O106 Cd102 2.352 . S
O106 C109 1.258 . S
C107 O104 1.320 . S
C107 O105 1.214 . S
O108 Cd100 2.277 . S
O108 C103 1.209 . S
C109 O106 1.258 . S
C109 O111 1.282 . S
O110 Cd102 2.277 . S
O110 C103 1.226 . S
O111 Cd102 2.356 . S
O111 C109 1.282 . S
H112 C124 0.930 . S
H113 C126 0.930 . S
H114 C127 0.930 . S
H115 C131 0.959 . S
H116 C131 0.959 . S
H117 C131 0.961 . S
H118 C132 0.960 . S
H119 C132 0.961 . S
H120 C132 0.959 . S
H121 C135 0.929 . S
H122 C136 0.931 . S
H123 C138 0.930 . S
C124 H112 0.930 . S
C124 C125 1.399 . S
C124 C129 1.399 . S
C125 C124 1.399 . S
C125 C126 1.376 1_554 S
C126 H113 0.930 . S
C126 C125 1.376 1_556 S
C126 C127 1.388 . S
C127 H114 0.930 . S
C127 C126 1.388 . S
C127 C128 1.390 . S
C128 C127 1.390 . S
C128 C129 1.394 1_556 S
C128 C134 1.465 . S
C129 C124 1.399 . S
C129 C128 1.394 1_554 S
C129 C130 1.516 . S
C130 C129 1.516 . S
C130 C131 1.502 . S
C130 C132 1.561 . S
C130 C133 1.526 . S
C131 H115 0.959 . S
C131 H116 0.959 . S
C131 H117 0.961 . S
C131 C130 1.502 . S
C132 H118 0.960 . S
C132 H119 0.961 . S
C132 H120 0.959 . S
C132 C130 1.561 . S
C133 C130 1.526 . S
C133 C134 1.396 1_554 S
C133 C138 1.390 . S
C134 C128 1.465 . S
C134 C133 1.396 1_556 S
C134 C135 1.399 . S
C135 H121 0.929 . S
C135 C134 1.399 . S
C135 C136 1.385 . S
C136 H122 0.931 . S
C136 C135 1.385 . S
C136 C137 1.389 1_556 S
C137 C136 1.389 1_554 S
C137 C138 1.387 . S
C138 H123 0.930 . S
C138 C133 1.390 . S
C138 C137 1.387 . S
H139 C151 0.930 . S
H140 C153 0.930 . S
H141 C154 0.930 . S
H142 C158 0.959 . S
H143 C158 0.959 . S
H144 C158 0.961 . S
H145 C159 0.960 . S
H146 C159 0.961 . S
H147 C159 0.959 . S
H148 C162 0.929 . S
H149 C163 0.931 . S
H150 C165 0.930 . S
C151 H139 0.930 . S
C151 C152 1.399 . S
C151 C156 1.399 . S
C152 C151 1.399 . S
C152 C153 1.376 1_554 S
C153 H140 0.930 . S
C153 C152 1.376 1_556 S
C153 C154 1.388 . S
C154 H141 0.930 . S
C154 C153 1.388 . S
C154 C155 1.390 . S
C155 C154 1.390 . S
C155 C156 1.394 1_556 S
C155 C161 1.465 . S
C156 C151 1.399 . S
C156 C155 1.394 1_554 S
C156 C157 1.516 . S
C157 C156 1.516 . S
C157 C158 1.502 . S
C157 C159 1.561 . S
C157 C160 1.526 . S
C158 H142 0.959 . S
C158 H143 0.959 . S
C158 H144 0.961 . S
C158 C157 1.502 . S
C159 H145 0.960 . S
C159 H146 0.961 . S
C159 H147 0.959 . S
C159 C157 1.561 . S
C160 C157 1.526 . S
C160 C161 1.396 1_554 S
C160 C165 1.390 . S
C161 C155 1.465 . S
C161 C160 1.396 1_556 S
C161 C162 1.399 . S
C162 H148 0.929 . S
C162 C161 1.399 . S
C162 C163 1.385 . S
C163 H149 0.931 . S
C163 C162 1.385 . S
C163 C164 1.389 1_556 S
C164 C163 1.389 1_554 S
C164 C165 1.387 . S
C165 H150 0.930 . S
C165 C160 1.390 . S
C165 C164 1.387 . S
H166 C178 0.930 . S
H167 C180 0.930 . S
H168 C181 0.930 . S
H169 C185 0.959 . S
H170 C185 0.959 . S
H171 C185 0.961 . S
H172 C186 0.960 . S
H173 C186 0.961 . S
H174 C186 0.959 . S
H175 C189 0.929 . S
H176 C190 0.931 . S
H177 C192 0.930 . S
C178 H166 0.930 . S
C178 C179 1.399 . S
C178 C183 1.399 . S
C179 C178 1.399 . S
C179 C180 1.376 . S
C180 H167 0.930 . S
C180 C179 1.376 . S
C180 C181 1.388 . S
C181 H168 0.930 . S
C181 C180 1.388 . S
C181 C182 1.390 . S
C182 C181 1.390 . S
C182 C183 1.394 . S
C182 C188 1.465 . S
C183 C178 1.399 . S
C183 C182 1.394 . S
C183 C184 1.516 . S
C184 C183 1.516 . S
C184 C185 1.502 . S
C184 C186 1.561 . S
C184 C187 1.526 . S
C185 H169 0.959 . S
C185 H170 0.959 . S
C185 H171 0.961 . S
C185 C184 1.502 . S
C186 H172 0.960 . S
C186 H173 0.961 . S
C186 H174 0.959 . S
C186 C184 1.561 . S
C187 C184 1.526 . S
C187 C188 1.396 . S
C187 C192 1.390 . S
C188 C182 1.465 . S
C188 C187 1.396 . S
C188 C189 1.399 . S
C189 H175 0.929 . S
C189 C188 1.399 . S
C189 C190 1.385 . S
C190 H176 0.931 . S
C190 C189 1.385 . S
C190 C191 1.389 . S
C191 C190 1.389 . S
C191 C192 1.387 . S
C192 H177 0.930 . S
C192 C187 1.390 . S
C192 C191 1.387 . S
H193 C205 0.930 . S
H194 C207 0.930 . S
H195 C208 0.930 . S
H196 C212 0.959 . S
H197 C212 0.959 . S
H198 C212 0.961 . S
H199 C213 0.960 . S
H200 C213 0.961 . S
H201 C213 0.959 . S
H202 C216 0.929 . S
H203 C217 0.931 . S
H204 C219 0.930 . S
C205 H193 0.930 . S
C205 C206 1.399 . S
C205 C210 1.399 . S
C206 C205 1.399 . S
C206 C207 1.376 . S
C207 H194 0.930 . S
C207 C206 1.376 . S
C207 C208 1.388 . S
C208 H195 0.930 . S
C208 C207 1.388 . S
C208 C209 1.390 . S
C209 C208 1.390 . S
C209 C210 1.394 . S
C209 C215 1.465 . S
C210 C205 1.399 . S
C210 C209 1.394 . S
C210 C211 1.516 . S
C211 C210 1.516 . S
C211 C212 1.502 . S
C211 C213 1.561 . S
C211 C214 1.526 . S
C212 H196 0.959 . S
C212 H197 0.959 . S
C212 H198 0.961 . S
C212 C211 1.502 . S
C213 H199 0.960 . S
C213 H200 0.961 . S
C213 H201 0.959 . S
C213 C211 1.561 . S
C214 C211 1.526 . S
C214 C215 1.396 . S
C214 C219 1.390 . S
C215 C209 1.465 . S
C215 C214 1.396 . S
C215 C216 1.399 . S
C216 H202 0.929 . S
C216 C215 1.399 . S
C216 C217 1.385 . S
C217 H203 0.931 . S
C217 C216 1.385 . S
C217 C218 1.389 . S
C218 C217 1.389 . S
C218 C219 1.387 . S
C219 H204 0.930 . S
C219 C214 1.390 . S
C219 C218 1.387 . S
H220 C232 0.930 . S
H221 C234 0.930 . S
H222 C235 0.930 . S
H223 C239 0.959 . S
H224 C239 0.959 . S
H225 C239 0.961 . S
H226 C240 0.960 . S
H227 C240 0.961 . S
H228 C240 0.959 . S
H229 C243 0.929 . S
H230 C244 0.931 . S
H231 C246 0.930 . S
C232 H220 0.930 . S
C232 C233 1.399 . S
C232 C237 1.399 . S
C233 C232 1.399 . S
C233 C234 1.376 . S
C234 H221 0.930 . S
C234 C233 1.376 . S
C234 C235 1.388 . S
C235 H222 0.930 . S
C235 C234 1.388 . S
C235 C236 1.390 . S
C236 C235 1.390 . S
C236 C237 1.394 . S
C236 C242 1.465 . S
C237 C232 1.399 . S
C237 C236 1.394 . S
C237 C238 1.516 . S
C238 C237 1.516 . S
C238 C239 1.502 . S
C238 C240 1.561 . S
C238 C241 1.526 . S
C239 H223 0.959 . S
C239 H224 0.959 . S
C239 H225 0.961 . S
C239 C238 1.502 . S
C240 H226 0.960 . S
C240 H227 0.961 . S
C240 H228 0.959 . S
C240 C238 1.561 . S
C241 C238 1.526 . S
C241 C242 1.396 . S
C241 C246 1.390 . S
C242 C236 1.465 . S
C242 C241 1.396 . S
C242 C243 1.399 . S
C243 H229 0.929 . S
C243 C242 1.399 . S
C243 C244 1.385 . S
C244 H230 0.931 . S
C244 C243 1.385 . S
C244 C245 1.389 . S
C245 C244 1.389 . S
C245 C246 1.387 . S
C246 H231 0.930 . S
C246 C241 1.390 . S
C246 C245 1.387 . S
H247 C259 0.930 . S
H248 C261 0.930 . S
H249 C262 0.930 . S
H250 C266 0.959 . S
H251 C266 0.959 . S
H252 C266 0.961 . S
H253 C267 0.960 . S
H254 C267 0.961 . S
H255 C267 0.959 . S
H256 C270 0.929 . S
H257 C271 0.931 . S
H258 C273 0.930 . S
C259 H247 0.930 . S
C259 C260 1.399 . S
C259 C264 1.399 . S
C260 C259 1.399 . S
C260 C261 1.376 . S
C261 H248 0.930 . S
C261 C260 1.376 . S
C261 C262 1.388 . S
C262 H249 0.930 . S
C262 C261 1.388 . S
C262 C263 1.390 . S
C263 C262 1.390 . S
C263 C264 1.394 . S
C263 C269 1.465 . S
C264 C259 1.399 . S
C264 C263 1.394 . S
C264 C265 1.516 . S
C265 C264 1.516 . S
C265 C266 1.502 . S
C265 C267 1.561 . S
C265 C268 1.526 . S
C266 H250 0.959 . S
C266 H251 0.959 . S
C266 H252 0.961 . S
C266 C265 1.502 . S
C267 H253 0.960 . S
C267 H254 0.961 . S
C267 H255 0.959 . S
C267 C265 1.561 . S
C268 C265 1.526 . S
C268 C269 1.396 . S
C268 C273 1.390 . S
C269 C263 1.465 . S
C269 C268 1.396 . S
C269 C270 1.399 . S
C270 H256 0.929 . S
C270 C269 1.399 . S
C270 C271 1.385 . S
C271 H257 0.931 . S
C271 C270 1.385 . S
C271 C272 1.389 . S
C272 C271 1.389 . S
C272 C273 1.387 . S
C273 H258 0.930 . S
C273 C268 1.390 . S
C273 C272 1.387 . S
H274 C286 0.930 . S
H275 C288 0.930 . S
H276 C289 0.930 . S
H277 C293 0.959 . S
H278 C293 0.959 . S
H279 C293 0.961 . S
H280 C294 0.960 . S
H281 C294 0.961 . S
H282 C294 0.959 . S
H283 C297 0.929 . S
H284 C298 0.931 . S
H285 C300 0.930 . S
C286 H274 0.930 . S
C286 C287 1.399 . S
C286 C291 1.399 . S
C287 C286 1.399 . S
C287 C288 1.376 . S
C288 H275 0.930 . S
C288 C287 1.376 . S
C288 C289 1.388 . S
C289 H276 0.930 . S
C289 C288 1.388 . S
C289 C290 1.390 . S
C290 C289 1.390 . S
C290 C291 1.394 . S
C290 C296 1.465 . S
C291 C286 1.399 . S
C291 C290 1.394 . S
C291 C292 1.516 . S
C292 C291 1.516 . S
C292 C293 1.502 . S
C292 C294 1.561 . S
C292 C295 1.526 . S
C293 H277 0.959 . S
C293 H278 0.959 . S
C293 H279 0.961 . S
C293 C292 1.502 . S
C294 H280 0.960 . S
C294 H281 0.961 . S
C294 H282 0.959 . S
C294 C292 1.561 . S
C295 C292 1.526 . S
C295 C296 1.396 . S
C295 C300 1.390 . S
C296 C290 1.465 . S
C296 C295 1.396 . S
C296 C297 1.399 . S
C297 H283 0.929 . S
C297 C296 1.399 . S
C297 C298 1.385 . S
C298 H284 0.931 . S
C298 C297 1.385 . S
C298 C299 1.389 . S
C299 C298 1.389 . S
C299 C300 1.387 . S
C300 H285 0.930 . S
C300 C295 1.390 . S
C300 C299 1.387 . S
H301 C313 0.930 . S
H302 C315 0.930 . S
H303 C316 0.930 . S
H304 C320 0.959 . S
H305 C320 0.959 . S
H306 C320 0.961 . S
H307 C321 0.960 . S
H308 C321 0.961 . S
H309 C321 0.959 . S
H310 C324 0.929 . S
H311 C325 0.931 . S
H312 C327 0.930 . S
C313 H301 0.930 . S
C313 C314 1.399 . S
C313 C318 1.399 . S
C314 C313 1.399 . S
C314 C315 1.376 . S
C315 H302 0.930 . S
C315 C314 1.376 . S
C315 C316 1.388 . S
C316 H303 0.930 . S
C316 C315 1.388 . S
C316 C317 1.390 . S
C317 C316 1.390 . S
C317 C318 1.394 . S
C317 C323 1.465 . S
C318 C313 1.399 . S
C318 C317 1.394 . S
C318 C319 1.516 . S
C319 C318 1.516 . S
C319 C320 1.502 . S
C319 C321 1.561 . S
C319 C322 1.526 . S
C320 H304 0.959 . S
C320 H305 0.959 . S
C320 H306 0.961 . S
C320 C319 1.502 . S
C321 H307 0.960 . S
C321 H308 0.961 . S
C321 H309 0.959 . S
C321 C319 1.561 . S
C322 C319 1.526 . S
C322 C323 1.396 . S
C322 C327 1.390 . S
C323 C317 1.465 . S
C323 C322 1.396 . S
C323 C324 1.399 . S
C324 H310 0.929 . S
C324 C323 1.399 . S
C324 C325 1.385 . S
C325 H311 0.931 . S
C325 C324 1.385 . S
C325 C326 1.389 . S
C326 C325 1.389 . S
C326 C327 1.387 . S
C327 H312 0.930 . S
C327 C322 1.390 . S
C327 C326 1.387 . S
H328 C340 0.930 . S
H329 C342 0.930 . S
H330 C343 0.930 . S
H331 C347 0.959 . S
H332 C347 0.959 . S
H333 C347 0.961 . S
H334 C348 0.960 . S
H335 C348 0.961 . S
H336 C348 0.959 . S
H337 C351 0.929 . S
H338 C352 0.931 . S
H339 C354 0.930 1_565 S
C340 H328 0.930 . S
C340 C341 1.399 . S
C340 C345 1.399 . S
C341 C340 1.399 . S
C341 C342 1.376 1_565 S
C342 H329 0.930 . S
C342 C341 1.376 1_545 S
C342 C343 1.388 . S
C343 H330 0.930 . S
C343 C342 1.388 . S
C343 C344 1.390 . S
C344 C343 1.390 . S
C344 C345 1.394 1_545 S
C344 C350 1.465 . S
C345 C340 1.399 . S
C345 C344 1.394 1_565 S
C345 C346 1.516 . S
C346 C345 1.516 . S
C346 C347 1.502 . S
C346 C348 1.561 . S
C346 C349 1.526 . S
C347 H331 0.959 . S
C347 H332 0.959 . S
C347 H333 0.961 . S
C347 C346 1.502 . S
C348 H334 0.960 . S
C348 H335 0.961 . S
C348 H336 0.959 . S
C348 C346 1.561 . S
C349 C346 1.526 . S
C349 C350 1.396 1_565 S
C349 C354 1.390 1_565 S
C350 C344 1.465 . S
C350 C349 1.396 1_545 S
C350 C351 1.399 . S
C351 H337 0.929 . S
C351 C350 1.399 . S
C351 C352 1.385 . S
C352 H338 0.931 . S
C352 C351 1.385 . S
C352 C353 1.389 . S
C353 C352 1.389 . S
C353 C354 1.387 . S
C354 H339 0.930 1_545 S
C354 C349 1.390 1_545 S
C354 C353 1.387 . S
H355 C367 0.930 1_545 S
H356 C369 0.930 . S
H357 C370 0.930 . S
H358 C374 0.959 . S
H359 C374 0.959 . S
H360 C374 0.961 . S
H361 C375 0.960 . S
H362 C375 0.961 . S
H363 C375 0.959 . S
H364 C378 0.929 . S
H365 C379 0.931 . S
H366 C381 0.930 . S
C367 H355 0.930 1_565 S
C367 C368 1.399 . S
C367 C372 1.399 1_565 S
C368 C367 1.399 . S
C368 C369 1.376 . S
C369 H356 0.930 . S
C369 C368 1.376 . S
C369 C370 1.388 . S
C370 H357 0.930 . S
C370 C369 1.388 . S
C370 C371 1.390 . S
C371 C370 1.390 . S
C371 C372 1.394 1_565 S
C371 C377 1.465 . S
C372 C367 1.399 1_545 S
C372 C371 1.394 1_545 S
C372 C373 1.516 . S
C373 C372 1.516 . S
C373 C374 1.502 . S
C373 C375 1.561 . S
C373 C376 1.526 . S
C374 H358 0.959 . S
C374 H359 0.959 . S
C374 H360 0.961 . S
C374 C373 1.502 . S
C375 H361 0.960 . S
C375 H362 0.961 . S
C375 H363 0.959 . S
C375 C373 1.561 . S
C376 C373 1.526 . S
C376 C377 1.396 1_545 S
C376 C381 1.390 . S
C377 C371 1.465 . S
C377 C376 1.396 1_565 S
C377 C378 1.399 . S
C378 H364 0.929 . S
C378 C377 1.399 . S
C378 C379 1.385 . S
C379 H365 0.931 . S
C379 C378 1.385 . S
C379 C380 1.389 1_565 S
C380 C379 1.389 1_545 S
C380 C381 1.387 . S
C381 H366 0.930 . S
C381 C376 1.390 . S
C381 C380 1.387 . S
H382 C394 0.930 1_545 S
H383 C396 0.930 . S
H384 C397 0.930 . S
H385 C401 0.959 . S
H386 C401 0.959 . S
H387 C401 0.961 . S
H388 C402 0.960 . S
H389 C402 0.961 . S
H390 C402 0.959 . S
H391 C405 0.929 . S
H392 C406 0.931 . S
H393 C408 0.930 . S
C394 H382 0.930 1_565 S
C394 C395 1.399 . S
C394 C399 1.399 1_565 S
C395 C394 1.399 . S
C395 C396 1.376 . S
C396 H383 0.930 . S
C396 C395 1.376 . S
C396 C397 1.388 . S
C397 H384 0.930 . S
C397 C396 1.388 . S
C397 C398 1.390 . S
C398 C397 1.390 . S
C398 C399 1.394 1_565 S
C398 C404 1.465 . S
C399 C394 1.399 1_545 S
C399 C398 1.394 1_545 S
C399 C400 1.516 . S
C400 C399 1.516 . S
C400 C401 1.502 . S
C400 C402 1.561 . S
C400 C403 1.526 . S
C401 H385 0.959 . S
C401 H386 0.959 . S
C401 H387 0.961 . S
C401 C400 1.502 . S
C402 H388 0.960 . S
C402 H389 0.961 . S
C402 H390 0.959 . S
C402 C400 1.561 . S
C403 C400 1.526 . S
C403 C404 1.396 1_545 S
C403 C408 1.390 . S
C404 C398 1.465 . S
C404 C403 1.396 1_565 S
C404 C405 1.399 . S
C405 H391 0.929 . S
C405 C404 1.399 . S
C405 C406 1.385 . S
C406 H392 0.931 . S
C406 C405 1.385 . S
C406 C407 1.389 1_565 S
C407 C406 1.389 1_545 S
C407 C408 1.387 . S
C408 H393 0.930 . S
C408 C403 1.390 . S
C408 C407 1.387 . S
H409 C421 0.930 . S
H410 C423 0.930 . S
H411 C424 0.930 . S
H412 C428 0.959 . S
H413 C428 0.959 . S
H414 C428 0.961 . S
H415 C429 0.960 . S
H416 C429 0.961 . S
H417 C429 0.959 . S
H418 C432 0.929 1_565 S
H419 C433 0.931 . S
H420 C435 0.930 . S
C421 H409 0.930 . S
C421 C422 1.399 . S
C421 C426 1.399 . S
C422 C421 1.399 . S
C422 C423 1.376 . S
C423 H410 0.930 . S
C423 C422 1.376 . S
C423 C424 1.388 . S
C424 H411 0.930 . S
C424 C423 1.388 . S
C424 C425 1.390 . S
C425 C424 1.390 . S
C425 C426 1.394 . S
C425 C431 1.466 . S
C426 C421 1.399 . S
C426 C425 1.394 . S
C426 C427 1.516 1_565 S
C427 C426 1.516 1_545 S
C427 C428 1.502 . S
C427 C429 1.561 1_545 S
C427 C430 1.526 . S
C428 H412 0.959 . S
C428 H413 0.959 . S
C428 H414 0.961 . S
C428 C427 1.502 . S
C429 H415 0.960 . S
C429 H416 0.961 . S
C429 H417 0.959 . S
C429 C427 1.561 1_565 S
C430 C427 1.526 . S
C430 C431 1.395 1_545 S
C430 C435 1.390 . S
C431 C425 1.466 . S
C431 C430 1.395 1_565 S
C431 C432 1.398 1_565 S
C432 H418 0.929 1_545 S
C432 C431 1.398 1_545 S
C432 C433 1.385 . S
C433 H419 0.931 . S
C433 C432 1.385 . S
C433 C434 1.389 . S
C434 C433 1.389 . S
C434 C435 1.387 . S
C435 H420 0.930 . S
C435 C430 1.390 . S
C435 C434 1.387 . S
H436 C448 0.930 . S
H437 C450 0.930 . S
H438 C451 0.930 . S
H439 C455 0.959 . S
H440 C455 0.959 . S
H441 C455 0.961 . S
H442 C456 0.960 . S
H443 C456 0.961 . S
H444 C456 0.959 . S
H445 C459 0.929 . S
H446 C460 0.931 . S
H447 C462 0.930 . S
C448 H436 0.930 . S
C448 C449 1.412 . S
C448 C453 1.399 . S
C449 C448 1.412 . S
C449 C450 1.360 1_554 S
C450 H437 0.930 . S
C450 C449 1.360 1_556 S
C450 C451 1.388 . S
C451 H438 0.930 . S
C451 C450 1.388 . S
C451 C452 1.390 . S
C452 C451 1.390 . S
C452 C453 1.394 1_556 S
C452 C458 1.465 1_565 S
C453 C448 1.399 . S
C453 C452 1.394 1_554 S
C453 C454 1.510 1_565 S
C454 C453 1.510 1_545 S
C454 C455 1.509 . S
C454 C456 1.554 1_545 S
C454 C457 1.531 . S
C455 H439 0.959 . S
C455 H440 0.959 . S
C455 H441 0.961 . S
C455 C454 1.509 . S
C456 H442 0.960 . S
C456 H443 0.961 . S
C456 H444 0.959 . S
C456 C454 1.554 1_565 S
C457 C454 1.531 . S
C457 C458 1.396 1_554 S
C457 C462 1.390 . S
C458 C452 1.465 1_545 S
C458 C457 1.396 1_556 S
C458 C459 1.399 . S
C459 H445 0.929 . S
C459 C458 1.399 . S
C459 C460 1.385 . S
C460 H446 0.931 . S
C460 C459 1.385 . S
C460 C461 1.387 1_556 S
C461 C460 1.387 1_554 S
C461 C462 1.389 . S
C462 H447 0.930 . S
C462 C457 1.390 . S
C462 C461 1.389 . S
H463 C475 0.930 . S
H464 C477 0.930 . S
H465 C478 0.930 . S
H466 C482 0.959 . S
H467 C482 0.959 . S
H468 C482 0.961 . S
H469 C483 0.960 . S
H470 C483 0.961 . S
H471 C483 0.959 . S
H472 C486 0.929 . S
H473 C487 0.931 . S
H474 C489 0.930 . S
C475 H463 0.930 . S
C475 C476 1.399 . S
C475 C480 1.399 . S
C476 C475 1.399 . S
C476 C477 1.376 . S
C477 H464 0.930 . S
C477 C476 1.376 . S
C477 C478 1.388 . S
C478 H465 0.930 . S
C478 C477 1.388 . S
C478 C479 1.390 . S
C479 C478 1.390 . S
C479 C480 1.394 . S
C479 C485 1.465 1_565 S
C480 C475 1.399 . S
C480 C479 1.394 . S
C480 C481 1.516 1_565 S
C481 C480 1.516 1_545 S
C481 C482 1.502 . S
C481 C483 1.561 1_545 S
C481 C484 1.526 . S
C482 H466 0.959 . S
C482 H467 0.959 . S
C482 H468 0.961 . S
C482 C481 1.502 . S
C483 H469 0.960 . S
C483 H470 0.961 . S
C483 H471 0.959 . S
C483 C481 1.561 1_565 S
C484 C481 1.526 . S
C484 C485 1.396 . S
C484 C489 1.390 . S
C485 C479 1.465 1_545 S
C485 C484 1.396 . S
C485 C486 1.399 . S
C486 H472 0.929 . S
C486 C485 1.399 . S
C486 C487 1.385 . S
C487 H473 0.931 . S
C487 C486 1.385 . S
C487 C488 1.389 . S
C488 C487 1.389 . S
C488 C489 1.387 . S
C489 H474 0.930 . S
C489 C484 1.390 . S
C489 C488 1.387 . S
H490 C502 0.930 . S
H491 C504 0.930 . S
H492 C505 0.930 . S
H493 C509 0.959 . S
H494 C509 0.959 . S
H495 C509 0.961 . S
H496 C510 0.960 . S
H497 C510 0.961 . S
H498 C510 0.959 . S
H499 C513 0.929 1_455 S
H500 C514 0.931 . S
H501 C516 0.930 . S
C502 H490 0.930 . S
C502 C503 1.399 . S
C502 C507 1.399 . S
C503 C502 1.399 . S
C503 C504 1.376 1_554 S
C504 H491 0.930 . S
C504 C503 1.376 1_556 S
C504 C505 1.388 . S
C505 H492 0.930 . S
C505 C504 1.388 . S
C505 C506 1.390 . S
C506 C505 1.390 . S
C506 C507 1.394 1_556 S
C506 C512 1.465 1_455 S
C507 C502 1.399 . S
C507 C506 1.394 1_554 S
C507 C508 1.516 1_455 S
C508 C507 1.516 1_655 S
C508 C509 1.502 . S
C508 C510 1.561 1_554 S
C508 C511 1.526 . S
C509 H493 0.959 . S
C509 H494 0.959 . S
C509 H495 0.961 . S
C509 C508 1.502 . S
C510 H496 0.960 . S
C510 H497 0.961 . S
C510 H498 0.959 . S
C510 C508 1.561 1_556 S
C511 C508 1.526 . S
C511 C512 1.396 1_554 S
C511 C516 1.390 . S
C512 C506 1.465 1_655 S
C512 C511 1.396 1_556 S
C512 C513 1.399 . S
C513 H499 0.929 1_655 S
C513 C512 1.399 . S
C513 C514 1.385 . S
C514 H500 0.931 . S
C514 C513 1.385 . S
C514 C515 1.389 1_556 S
C515 C514 1.389 1_554 S
C515 C516 1.387 . S
C516 H501 0.930 . S
C516 C511 1.390 . S
C516 C515 1.387 . S
H517 C529 0.930 . S
H518 C531 0.930 . S
H519 C532 0.930 . S
H520 C536 0.959 . S
H521 C536 0.975 . S
H522 C536 0.961 . S
H523 C537 0.960 . S
H524 C537 0.961 . S
H525 C537 0.959 . S
H526 C540 0.929 . S
H527 C541 0.931 . S
H528 C543 0.930 . S
C529 H517 0.930 . S
C529 C530 1.399 . S
C529 C534 1.399 . S
C530 C529 1.399 . S
C530 C531 1.376 . S
C531 H518 0.930 . S
C531 C530 1.376 . S
C531 C532 1.388 . S
C532 H519 0.930 . S
C532 C531 1.388 . S
C532 C533 1.390 . S
C533 C532 1.390 . S
C533 C534 1.394 . S
C533 C539 1.465 1_455 S
C534 C529 1.399 . S
C534 C533 1.394 . S
C534 C535 1.516 1_455 S
C535 C534 1.516 1_655 S
C535 C536 1.502 1_655 S
C535 C537 1.561 . S
C535 C538 1.526 . S
C536 H520 0.959 . S
C536 H521 0.975 . S
C536 H522 0.961 . S
C536 C535 1.502 1_455 S
C537 H523 0.960 . S
C537 H524 0.961 . S
C537 H525 0.959 . S
C537 C535 1.561 . S
C538 C535 1.526 . S
C538 C539 1.396 . S
C538 C543 1.390 . S
C539 C533 1.465 1_655 S
C539 C538 1.396 . S
C539 C540 1.399 . S
C540 H526 0.929 . S
C540 C539 1.399 . S
C540 C541 1.385 . S
C541 H527 0.931 . S
C541 C540 1.385 . S
C541 C542 1.389 . S
C542 C541 1.389 . S
C542 C543 1.387 . S
C543 H528 0.930 . S
C543 C538 1.390 . S
C543 C542 1.387 . S
C125 C75 1.497 . S
C137 C5 1.489 . S
C152 C61 1.497 . S
C164 C19 1.490 . S
C179 C103 1.489 . S
C191 C33 1.496 . S
C206 C89 1.498 . S
C218 C47 1.489 . S
C233 C0 1.424 . S
C245 C28 1.426 . S
C260 C14 1.398 . S
C272 C42 1.409 . S
C287 C23 1.399 . S
C299 C51 1.421 . S
C314 C9 1.396 . S
C326 C37 1.424 . S
C341 C56 1.398 . S
C353 C84 1.409 . S
C368 C98 1.426 . S
C380 C70 1.418 . S
C395 C107 1.396 . S
C407 C79 1.424 . S
C422 C65 1.402 . S
C434 C93 1.418 . S
C449 C25 1.495 . S
C461 C11 1.486 . S
C476 C39 1.495 . S
C488 C53 1.484 . S
C503 C67 1.480 . S
C515 C81 1.500 . S
C530 C95 1.493 . S
C542 C109 1.486 . S
