# Generated by pormake.
# Topology qtz-e, (6)-cn, num edge types: 1
# Building blocks:
#     Node 0, Type 0, BuildingBlock: BETFAJ_clean_sbu_0, # of connection points: 6
#     Node 1, Type 0, BuildingBlock: BETFAJ_clean_sbu_0, # of connection points: 6
#     Node 2, Type 0, BuildingBlock: BETFAJ_clean_sbu_0, # of connection points: 6
#     Node 3, Type 0, BuildingBlock: BETFAJ_clean_sbu_0, # of connection points: 6
#     Node 4, Type 0, BuildingBlock: BETFAJ_clean_sbu_0, # of connection points: 6
#     Node 5, Type 0, BuildingBlock: BETFAJ_clean_sbu_0, # of connection points: 6
#     Edge 6, Type (0, 0), BuildingBlock: AJUNOK_clean_linker_0, # of connection points: 2
#     Edge 7, Type (0, 0), BuildingBlock: AJUNOK_clean_linker_0, # of connection points: 2
#     Edge 8, Type (0, 0), BuildingBlock: AJUNOK_clean_linker_0, # of connection points: 2
#     Edge 9, Type (0, 0), BuildingBlock: AJUNOK_clean_linker_0, # of connection points: 2
#     Edge 10, Type (0, 0), BuildingBlock: AJUNOK_clean_linker_0, # of connection points: 2
#     Edge 11, Type (0, 0), BuildingBlock: AJUNOK_clean_linker_0, # of connection points: 2
#     Edge 12, Type (0, 0), BuildingBlock: AJUNOK_clean_linker_0, # of connection points: 2
#     Edge 13, Type (0, 0), BuildingBlock: AJUNOK_clean_linker_0, # of connection points: 2
#     Edge 14, Type (0, 0), BuildingBlock: AJUNOK_clean_linker_0, # of connection points: 2
#     Edge 15, Type (0, 0), BuildingBlock: AJUNOK_clean_linker_0, # of connection points: 2
#     Edge 16, Type (0, 0), BuildingBlock: AJUNOK_clean_linker_0, # of connection points: 2
#     Edge 17, Type (0, 0), BuildingBlock: AJUNOK_clean_linker_0, # of connection points: 2
#     Edge 18, Type (0, 0), BuildingBlock: AJUNOK_clean_linker_0, # of connection points: 2
#     Edge 19, Type (0, 0), BuildingBlock: AJUNOK_clean_linker_0, # of connection points: 2
#     Edge 20, Type (0, 0), BuildingBlock: AJUNOK_clean_linker_0, # of connection points: 2
#     Edge 21, Type (0, 0), BuildingBlock: AJUNOK_clean_linker_0, # of connection points: 2
#     Edge 22, Type (0, 0), BuildingBlock: AJUNOK_clean_linker_0, # of connection points: 2
#     Edge 23, Type (0, 0), BuildingBlock: AJUNOK_clean_linker_0, # of connection points: 2
# Relax obj value: 0.095
# Max RMSD: 0.188
# Mean RMSD: 0.188
data_MOF--net-qtz-e--node1-BETFAJ_clean_sbu_0--edge1-AJUNOK_clean_linker_0
_symmetry_space_group_name_H-M    P1
_symmetry_Int_Tables_number       1
_symmetry_cell_setting            triclinic
loop_
_symmetry_equiv_pos_as_xyz
'x, y, z'
_cell_length_a     19.575269
_cell_length_b     19.233363
_cell_length_c     42.373104
_cell_angle_alpha  90.079315
_cell_angle_beta   89.815955
_cell_angle_gamma 120.54207
loop_
_atom_site_label
_atom_site_type_symbol
_atom_site_fract_x
_atom_site_fract_y
_atom_site_fract_z
_atom_type_partial_charge
Sm0 Sm 0.22039 0.50554 0.09045 0.0
Sm1 Sm 0.16704 0.35603 0.05168 0.0
C2 C 0.25171 0.63582 0.1222 0.0
C3 C 0.24209 0.64175 0.15629 0.0
C4 C 0.17798 0.57782 0.17229 0.0
C5 C 0.17351 0.57802 0.20506 0.0
C6 C 0.23306 0.64205 0.22255 0.0
C7 C 0.29711 0.70623 0.20655 0.0
C8 C 0.30178 0.7058 0.17363 0.0
C9 C 0.31968 0.44514 0.09534 0.0
C10 C 0.11755 0.33789 0.12723 0.0
C11 C 0.1368 0.22674 1.01822 0.0
C12 C 0.15749 0.21564 0.98561 0.0
C13 C 0.23172 0.27083 0.97249 0.0
C14 C 0.25085 0.26066 0.94165 0.0
C15 C 0.19625 0.19523 0.92309 0.0
C16 C 0.12118 0.14118 0.93587 0.0
C17 C 0.10212 0.15115 0.96692 0.0
C18 C 0.08063 0.43177 0.04512 0.0
C19 C 0.27937 0.52485 1.01709 0.0
O20 O 0.18625 0.59402 0.106 0.0
O21 O 0.30647 0.61903 0.11463 0.0
O22 O 0.28826 0.4496 0.07006 0.0
O23 O 0.29208 0.46534 0.11927 0.0
O24 O 0.1368 0.41393 0.12611 0.0
O25 O 0.12857 0.30184 0.10263 0.0
O26 O 0.19535 0.26157 0.03839 0.0
O27 O 0.08678 0.2525 1.02076 0.0
O28 O 0.10295 0.41714 0.07065 0.0
O29 O 0.10047 0.4034 1.02136 0.0
O30 O 0.26021 0.44865 1.01835 0.0
O31 O 0.26217 0.55842 0.04059 0.0
H32 H 0.13172 0.52691 0.15954 0.0
H33 H 0.1235 0.52782 0.21678 0.0
H34 H 0.34278 0.75741 0.21942 0.0
H35 H 0.35232 0.75492 0.16172 0.0
H36 H 0.27515 0.32197 0.98609 0.0
H37 H 0.30858 0.30422 0.93223 0.0
H38 H 0.0779 0.09041 0.92209 0.0
H39 H 0.04418 0.10836 0.97638 0.0
Sm40 Sm 0.71142 0.2117 0.42328 0.0
Sm41 Sm 0.81941 0.17638 0.38514 0.0
C42 C 0.60282 0.22825 0.45362 0.0
C43 C 0.58988 0.22835 0.48779 0.0
C44 C 0.51274 0.19333 0.49986 0.0
C45 C 0.50003 0.18675 0.53246 0.0
C46 C 0.56437 0.21456 0.55342 0.0
C47 C 0.64169 0.25095 0.54128 0.0
C48 C 0.65433 0.25731 0.50872 0.0
C49 C 0.86876 0.32577 0.43181 0.0
C50 C 0.78102 0.11229 0.45838 0.0
C51 C 0.92181 0.15782 0.35019 0.0
C52 C 0.94972 0.17902 0.31705 0.0
C53 C 0.96606 0.2531 0.30396 0.0
C54 C -0.00832 0.2723 0.27263 0.0
C55 C 0.00107 0.21778 0.25353 0.0
C56 C 0.98238 0.14267 0.26625 0.0
C57 C 0.95725 0.12364 0.29778 0.0
C58 C 0.65888 0.07662 0.37494 0.0
C59 C 0.75825 0.282 0.35194 0.0
O60 O 0.58865 0.1592 0.44196 0.0
O61 O 0.66826 0.28961 0.4427 0.0
O62 O 0.8371 0.2932 0.40588 0.0
O63 O 0.81805 0.29189 0.45459 0.0
O64 O 0.72171 0.126 0.45732 0.0
O65 O 0.834 0.13552 0.43527 0.0
O66 O 0.94331 0.21759 0.37009 0.0
O67 O 0.84782 0.10108 0.35389 0.0
O68 O 0.69242 0.09844 0.40118 0.0
O69 O 0.70985 0.10806 0.35219 0.0
O70 O 0.82173 0.27634 0.356 0.0
O71 O 0.69908 0.24934 0.37243 0.0
H72 H 0.46236 0.16995 0.4841 0.0
H73 H 0.43985 0.15974 0.54131 0.0
H74 H 0.6921 0.27273 0.55696 0.0
H75 H 0.71444 0.28355 0.49992 0.0
H76 H 0.95928 0.29642 0.31795 0.0
H77 H 0.00465 0.33022 0.2633 0.0
H78 H -0.0109 0.09962 0.25206 0.0
H79 H 0.944 0.06572 0.30718 0.0
Sm80 Sm 0.51375 0.77028 0.75491 0.0
Sm81 Sm 0.65873 0.83785 0.72036 0.0
C82 C 0.39763 0.71765 0.79651 0.0
C83 C 0.39727 0.71401 0.83109 0.0
C84 C 0.45231 0.69978 0.84669 0.0
C85 C 0.44459 0.68282 0.87881 0.0
C86 C 0.38255 0.68119 0.89593 0.0
C87 C 0.3309 0.7012 0.88094 0.0
C88 C 0.33812 0.71732 0.84854 0.0
C89 C 0.60756 0.96045 0.74859 0.0
C90 C 0.66344 0.78221 0.79052 0.0
C91 C 0.77832 0.92287 0.68065 0.0
C92 C 0.78466 0.94454 0.64664 0.0
C93 C 0.8235 0.02611 0.63759 0.0
C94 C 0.82679 0.04779 0.6058 0.0
C95 C 0.7914 0.98838 0.58222 0.0
C96 C 0.75429 0.90669 0.59122 0.0
C97 C 0.75051 0.885 0.62303 0.0
C98 C 0.5709 0.67035 0.71913 0.0
C99 C 0.49712 0.81202 0.68472 0.0
O100 O 0.41897 0.67096 0.78252 0.0
O101 O 0.42857 0.78903 0.78356 0.0
O102 O 0.61411 0.89871 0.75533 0.0
O103 O 0.6152 0.89919 0.75538 0.0
O104 O 0.58727 0.73265 0.78516 0.0
O105 O 0.70697 0.84039 0.77027 0.0
O106 O 0.74932 0.95561 0.69935 0.0
O107 O 0.75237 0.84736 0.68767 0.0
O108 O 0.54345 0.716 0.71491 0.0
O109 O 0.64699 0.7119 0.72384 0.0
O110 O 0.57514 0.84816 0.68511 0.0
O111 O 0.45406 0.76857 0.70876 0.0
H112 H 0.49888 0.69745 0.83384 0.0
H113 H 0.4849 0.66745 0.89001 0.0
H114 H 0.28221 0.69949 0.89385 0.0
H115 H 0.29548 0.7286 0.8369 0.0
H116 H 0.85027 0.07327 0.65524 0.0
H117 H 0.85533 0.11122 0.59977 0.0
H118 H 0.72784 0.85932 0.57367 0.0
H119 H 0.72012 0.82151 0.6291 0.0
Sm120 Sm 0.75566 0.47891 0.09038 0.0
Sm121 Sm 0.79716 0.64945 0.0562 0.0
C122 C 0.77613 0.37253 0.12069 0.0
C123 C 0.76313 0.35248 0.15442 0.0
C124 C 0.81737 0.34001 0.17129 0.0
C125 C 0.8126 0.33412 0.20417 0.0
C126 C 0.7539 0.34137 0.22059 0.0
C127 C 0.6982 0.35134 0.20361 0.0
C128 C 0.70308 0.35738 0.1708 0.0
C129 C 0.63953 0.51439 0.10292 0.0
C130 C 0.84392 0.65501 0.12977 0.0
C131 C 0.78554 0.75509 1.02007 0.0
C132 C 0.77504 0.76089 0.98577 0.0
C133 C 0.73289 0.79721 0.97498 0.0
C134 C 0.72066 0.80103 0.94262 0.0
C135 C 0.74985 0.76802 0.92037 0.0
C136 C 0.79219 0.73172 0.93124 0.0
C137 C 0.8046 0.72814 0.96362 0.0
C138 C 0.90418 0.59711 0.05087 0.0
C139 C 0.70521 0.47366 1.01653 0.0
O140 O 0.83502 0.44577 0.11474 0.0
O141 O 0.7122 0.35198 0.10389 0.0
O142 O 0.70322 0.55724 0.08803 0.0
O143 O 0.63705 0.44949 0.11293 0.0
O144 O 0.83085 0.5807 0.126 0.0
O145 O 0.8287 0.69379 0.10754 0.0
O146 O 0.72481 0.69672 0.03505 0.0
O147 O 0.85364 0.76409 0.02905 0.0
O148 O 0.83065 0.55635 0.05132 0.0
O149 O 0.92744 0.67379 0.05123 0.0
O150 O 0.72778 0.55129 1.01861 0.0
O151 O 0.71405 0.43262 0.03974 0.0
H152 H 0.86477 0.33732 0.15914 0.0
H153 H 0.85537 0.32486 0.21681 0.0
H154 H 0.65252 0.35703 0.21579 0.0
H155 H 0.66137 0.3685 0.15836 0.0
H156 H 0.70895 0.8222 0.99163 0.0
H157 H 0.68721 0.82872 0.93497 0.0
H158 H 0.81619 0.70663 0.91468 0.0
H159 H 0.83713 0.69961 0.97138 0.0
Sm160 Sm 0.2447 0.77307 0.42496 0.0
Sm161 Sm 0.15379 0.82703 0.38487 0.0
C162 C 0.34163 0.74505 0.4583 0.0
C163 C 0.35824 0.75631 0.49227 0.0
C164 C 0.35959 0.82144 0.50801 0.0
C165 C 0.37341 0.83178 0.54033 0.0
C166 C 0.386 0.77714 0.55749 0.0
C167 C 0.38285 0.71091 0.54199 0.0
C168 C 0.36912 0.70061 0.50949 0.0
C169 C 0.08351 0.67221 0.43016 0.0
C170 C 0.18457 0.88205 0.45933 0.0
C171 C 0.05837 0.85611 0.34999 0.0
C172 C 0.02541 0.83034 0.31782 0.0
C173 C 0.01584 0.75868 0.30494 0.0
C174 C -0.01227 0.7354 0.27417 0.0
C175 C 0.96772 0.78286 0.25543 0.0
C176 C 0.97712 0.85472 0.26843 0.0
C177 C 0.00608 0.87837 0.29928 0.0
C178 C 0.31668 0.91212 0.37669 0.0
C179 C 0.20017 0.70729 0.35229 0.0
O180 O 0.36522 0.81148 0.44231 0.0
O181 O 0.27032 0.68781 0.45057 0.0
O182 O 0.12069 0.70413 0.40489 0.0
O183 O 0.13127 0.70147 0.45399 0.0
O184 O 0.23692 0.85865 0.4599 0.0
O185 O 0.13966 0.87079 0.43438 0.0
O186 O 0.03266 0.79957 0.37157 0.0
O187 O 0.13496 0.90538 0.35156 0.0
O188 O 0.28068 0.8915 0.40271 0.0
O189 O 0.26705 0.89161 0.35358 0.0
O190 O 0.14367 0.72482 0.35477 0.0
O191 O 0.2532 0.72729 0.37494 0.0
H192 H 0.35039 0.86483 0.49536 0.0
H193 H 0.37483 0.88277 0.55189 0.0
H194 H 0.39286 0.6683 0.55488 0.0
H195 H 0.3673 0.64955 0.49781 0.0
H196 H 0.03023 0.72057 0.3187 0.0
H197 H 0.982 0.68007 0.26499 0.0
H198 H 0.96084 0.89199 0.25503 0.0
H199 H 0.01313 0.93406 0.30868 0.0
Sm200 Sm 0.46532 0.23446 0.7568 0.0
Sm201 Sm 0.30998 0.15388 0.72244 0.0
C202 C 0.5981 0.32578 0.7876 0.0
C203 C 0.6128 0.34004 0.82174 0.0
C204 C 0.5615 0.35322 0.84086 0.0
C205 C 0.57538 0.36685 0.87316 0.0
C206 C 0.6403 0.36689 0.88699 0.0
C207 C 0.69035 0.3515 0.8681 0.0
C208 C 0.67672 0.33826 0.83567 0.0
C209 C 0.38982 0.06842 0.76145 0.0
C210 C 0.30481 0.18329 0.79627 0.0
C211 C 0.19225 0.0758 0.68168 0.0
C212 C 0.18419 0.04487 0.64892 0.0
C213 C 0.20217 0.98488 0.64104 0.0
C214 C 0.19718 0.9595 0.60967 0.0
C215 C 0.17528 0.99423 0.58541 0.0
C216 C 0.15654 0.05354 0.59337 0.0
C217 C 0.16072 0.07834 0.62476 0.0
C218 C 0.38468 0.32026 0.72776 0.0
C219 C 0.47205 0.19536 0.68314 0.0
O220 O 0.55591 0.35384 0.77502 0.0
O221 O 0.57808 0.25346 0.7775 0.0
O222 O 0.39219 0.10779 0.73719 0.0
O223 O 0.41521 0.1173 0.78532 0.0
O224 O 0.37879 0.24131 0.7916 0.0
O225 O 0.26459 0.13029 0.77388 0.0
O226 O 0.20731 0.03924 0.70438 0.0
O227 O 0.23222 0.15423 0.68457 0.0
O228 O 0.41573 0.27948 0.72072 0.0
O229 O 0.30925 0.27316 0.73278 0.0
O230 O 0.39391 0.1553 0.68434 0.0
O231 O 0.51601 0.23723 0.70739 0.0
H232 H 0.51093 0.35379 0.83087 0.0
H233 H 0.53642 0.37925 0.88721 0.0
H234 H 0.74048 0.35061 0.87839 0.0
H235 H 0.71623 0.32706 0.82146 0.0
H236 H 0.2209 0.9581 0.65898 0.0
H237 H 0.21189 0.91357 0.60426 0.0
H238 H 0.13796 0.08032 0.57536 0.0
H239 H 0.14621 0.12445 0.63014 0.0
C240 C 0.14257 0.64496 0.30072 0.0
C241 C 0.20668 0.67363 0.32181 0.0
C242 C 0.15098 0.63154 0.26902 0.0
C243 C 0.22379 0.64546 0.25707 0.0
H244 H 0.0862 0.63693 0.30831 0.0
H245 H 0.1011 0.61442 0.25345 0.0
S246 S 0.406 0.70559 0.30334 0.0
N247 N 0.34261 0.70505 0.3293 0.0
N248 N 0.35825 0.67843 0.26937 0.0
C249 C 0.28671 0.66756 0.27826 0.0
C250 C 0.27807 0.68148 0.31077 0.0
C251 C 0.56944 0.26825 0.63994 0.0
C252 C 0.50832 0.19565 0.65268 0.0
C253 C 0.59021 0.27325 0.60792 0.0
C254 C 0.55038 0.20578 0.5879 0.0
H255 H 0.59743 0.32262 0.65415 0.0
H256 H 0.63446 0.33124 0.59842 0.0
S257 S 0.3971 -0.00137 0.61166 0.0
N258 N 0.41613 0.0527 0.64416 0.0
N259 N 0.45554 0.06195 0.58419 0.0
C260 C 0.4939 0.13153 0.60111 0.0
C261 C 0.47284 0.1265 0.63351 0.0
C262 C 0.3236 0.52987 0.96165 0.0
C263 C 0.3155 0.57053 0.98776 0.0
C264 C 0.34796 0.56749 0.93231 0.0
C265 C 0.36492 0.647 0.92794 0.0
H266 H 0.30861 0.4675 0.96344 0.0
H267 H 0.35079 0.53307 0.91259 0.0
S268 S 0.3642 0.78408 0.98908 0.0
N269 N 0.33511 0.69826 1.00788 0.0
N270 N 0.37934 0.76806 0.95209 0.0
C271 C 0.36082 0.68986 0.9539 0.0
C272 C 0.33674 0.65189 0.98401 0.0
C273 C 0.68088 0.27093 0.30388 0.0
C274 C 0.75107 0.31365 0.32142 0.0
C275 C 0.68094 0.28329 0.27125 0.0
C276 C 0.75119 0.33859 0.25543 0.0
H277 H 0.6275 0.22316 0.31478 0.0
H278 H 0.62712 0.2457 0.25806 0.0
S279 S 0.94575 0.47632 0.29209 0.0
N280 N 0.88903 0.42134 0.32167 0.0
N281 N 0.88898 0.44502 0.26044 0.0
C282 C 0.81956 0.3868 0.27329 0.0
C283 C 0.81945 0.37431 0.30633 0.0
C284 C 0.39026 0.7409 0.64502 0.0
C285 C 0.45966 0.81125 0.65464 0.0
C286 C 0.36487 0.73113 0.61361 0.0
C287 C 0.4074 0.79194 0.59114 0.0
H288 H 0.35844 0.69098 0.66126 0.0
H289 H 0.31321 0.67472 0.60659 0.0
S290 S 0.58807 0.99075 0.60535 0.0
N291 N 0.56668 0.94515 0.63997 0.0
N292 N 0.51853 0.92689 0.58107 0.0
C293 C 0.47381 0.86452 0.60098 0.0
C294 C 0.49998 0.87421 0.63277 0.0
C295 C 0.61666 0.37397 0.97591 0.0
C296 C 0.69007 0.44043 0.9845 0.0
C297 C 0.60102 0.34903 0.94423 0.0
C298 C 0.65889 0.3892 0.92058 0.0
H299 H 0.57054 0.3431 0.99347 0.0
H300 H 0.54317 0.29877 0.93812 0.0
S301 S 0.86092 0.56538 0.93184 0.0
N302 N 0.82148 0.54444 0.96754 0.0
N303 N 0.79208 0.49815 0.90821 0.0
C304 C 0.73296 0.45452 0.92927 0.0
C305 C 0.74853 0.47998 0.96124 0.0
C306 C 0.43984 0.47534 0.1256 0.0
C307 C 0.40264 0.46433 0.09619 0.0
C308 C 0.52023 0.50029 0.12756 0.0
C309 C 0.56647 0.51637 0.10025 0.0
H310 H 0.40642 0.46362 0.14735 0.0
H311 H 0.54569 0.50364 0.15059 0.0
S312 S 0.4987 0.49687 1.01751 0.0
N313 N 0.4188 0.4715 0.03897 0.0
N314 N 0.57068 0.5196 0.04302 0.0
C315 C 0.53108 0.50776 0.07071 0.0
C316 C 0.44875 0.481 0.06859 0.0
C317 C 0.00858 0.53849 0.40346 0.0
C318 C 0.02244 0.58551 0.43079 0.0
C319 C 0.96246 0.45427 0.40456 0.0
C320 C 0.92703 0.41345 0.43286 0.0
H321 H 0.03543 0.56653 0.38112 0.0
H322 H 0.95374 0.42097 0.38285 0.0
S323 S 0.94281 0.50894 0.51085 0.0
N324 N -0.00386 0.58551 0.48686 0.0
N325 N 0.90821 0.42688 0.48892 0.0
C326 C 0.93978 0.45974 0.46035 0.0
C327 C -0.01272 0.54575 0.45925 0.0
C328 C 0.44156 0.99687 0.72869 0.0
C329 C 0.41924 0.0108 0.75868 0.0
C330 C 0.49828 0.97325 0.7255 0.0
C331 C 0.53201 0.9591 0.75209 0.0
H332 H 0.42164 0.01246 0.70747 0.0
H333 H 0.51988 0.97162 0.70211 0.0
S334 S 0.48275 0.97088 0.83567 0.0
N335 N 0.42671 0.99626 0.81542 0.0
N336 N 0.53321 0.95176 0.80921 0.0
C337 C 0.50427 0.96437 0.78206 0.0
C338 C 0.44691 0.98897 0.78539 0.0
C339 C 0.55779 0.5347 0.72187 0.0
C340 C 0.52138 0.58139 0.7213 0.0
C341 C 0.51255 0.45047 0.72394 0.0
C342 C 0.42923 0.40956 0.72656 0.0
H343 H 0.62173 0.56327 0.72023 0.0
H344 H 0.54347 0.41716 0.72321 0.0
S345 S 0.30475 0.50389 0.72577 0.0
N346 N 0.39653 0.58054 0.72253 0.0
N347 N 0.31197 0.42214 0.72806 0.0
C348 C 0.39191 0.45543 0.72628 0.0
C349 C 0.43791 0.54136 0.72328 0.0
C350 C 0.95581 0.43307 0.04775 0.0
C351 C 0.03781 0.47573 0.04314 0.0
C352 C 0.91373 0.47361 0.04956 0.0
C353 C 0.95245 0.55858 0.0479 0.0
H354 H 0.92408 0.36799 0.05039 0.0
H355 H 0.85019 0.43759 0.05283 0.0
S356 S 0.16639 0.69745 0.03351 0.0
N357 N 0.1561 0.60675 0.03448 0.0
N358 N 0.07687 0.68349 0.03949 0.0
C359 C 0.03432 0.6019 0.04255 0.0
C360 C 0.07712 0.56023 0.03988 0.0
C361 C 0.44849 0.03459 0.36664 0.0
C362 C 0.40363 0.95154 0.37299 0.0
C363 C 0.53172 0.07485 0.36571 0.0
C364 C 0.57236 0.0332 0.37129 0.0
H365 H 0.4192 0.069 0.36325 0.0
H366 H 0.56384 0.13909 0.36165 0.0
S367 S 0.48312 0.81448 0.38512 0.0
N368 N 0.40681 0.82812 0.38127 0.0
N369 N 0.5627 0.90481 0.38129 0.0
C370 C 0.52841 0.95015 0.37648 0.0
C371 C 0.444 0.90894 0.37685 0.0
C372 C 0.19815 0.17133 0.8334 0.0
C373 C 0.27134 0.17579 0.82834 0.0
C374 C 0.17251 0.17511 0.86421 0.0
C375 C 0.21924 0.18322 0.89081 0.0
H376 H 0.16224 0.16831 0.81346 0.0
H377 H 0.11728 0.17461 0.86716 0.0
S378 S 0.40809 0.18203 0.89009 0.0
N379 N 0.38503 0.17869 0.85247 0.0
N380 N 0.33683 0.1848 0.90996 0.0
C381 C 0.29005 0.18278 0.88592 0.0
C382 C 0.31608 0.17933 0.85479 0.0
C383 C -0.00686 0.19699 0.19422 0.0
C384 C 0.03464 0.2421 0.22108 0.0
C385 C 0.02183 0.225 0.16339 0.0
C386 C 0.09297 0.2987 0.15866 0.0
H387 H 0.93673 0.14158 0.19704 0.0
H388 H -0.01352 0.19097 0.14332 0.0
S389 S 0.22941 0.43227 0.2211 0.0
N390 N 0.15435 0.35899 0.24068 0.0
N391 N 0.20796 0.41118 0.18339 0.0
C392 C 0.13679 0.34137 0.1854 0.0
C393 C 0.10776 0.31325 0.21643 0.0
C394 C 0.85967 0.07538 0.53452 0.0
C395 C 0.79049 0.01215 0.54867 0.0
C396 C 0.85807 0.10415 0.50412 0.0
C397 C 0.78696 0.07148 0.487 0.0
H398 H 0.91515 0.10407 0.54735 0.0
H399 H 0.91176 0.15502 0.49473 0.0
S400 S 0.59094 0.9014 0.51181 0.0
N401 N 0.64996 0.91476 0.54184 0.0
N402 N 0.64719 0.96929 0.4852 0.0
C403 C 0.71837 0.0062 0.50021 0.0
C404 C 0.72005 0.97634 0.53087 0.0
C405 C 0.73345 0.84878 0.8404 0.0
C406 C 0.69572 0.77891 0.82163 0.0
C407 C 0.75214 0.84495 0.8721 0.0
C408 C 0.73527 0.77138 0.88602 0.0
H409 H 0.74503 0.90615 0.831 0.0
H410 H 0.77891 0.89984 0.886 0.0
S411 S 0.64272 0.57241 0.84587 0.0
N412 N 0.64547 0.63493 0.81852 0.0
N413 N 0.68256 0.62776 0.87779 0.0
C414 C 0.70085 0.70174 0.86696 0.0
C415 C 0.68041 0.70548 0.83488 0.0
C416 C 0.87784 0.67262 0.21822 0.0
C417 C 0.9344 0.75467 0.22304 0.0
C418 C 0.8485 0.64222 0.18811 0.0
C419 C 0.87337 0.69243 0.1613 0.0
H420 H 0.85607 0.63101 0.23794 0.0
H421 H 0.80577 0.57832 0.18585 0.0
S422 S 0.02065 0.91178 0.16049 0.0
N423 N 0.0149 0.88584 0.198 0.0
N424 N 0.95764 0.82863 0.1414 0.0
C425 C 0.92833 0.77502 0.16564 0.0
C426 C 0.95925 0.80611 0.19646 0.0
C427 C 0.13251 0.88485 0.54479 0.0
C428 C 0.17156 0.96776 0.55202 0.0
C429 C 0.13275 0.85792 0.51402 0.0
C430 C 0.17141 0.91273 0.48924 0.0
H431 H 0.10273 0.84032 0.5632 0.0
H432 H 0.10473 0.79357 0.50978 0.0
S433 S 0.28366 0.13558 0.49533 0.0
N434 N 0.25069 0.1045 0.53153 0.0
N435 N 0.25027 0.05314 0.47366 0.0
C436 C 0.20927 0.99556 0.49579 0.0
C437 C 0.20935 0.02326 0.52718 0.0
loop_
_geom_bond_atom_site_label_1
_geom_bond_atom_site_label_2
_geom_bond_distance
_geom_bond_site_symmetry_2
_ccdc_geom_bond_type
Sm0 C2 2.846 . S
Sm0 O20 2.543 . S
Sm0 O21 2.450 . S
Sm0 O22 2.681 . S
Sm0 O23 2.464 . S
Sm0 O24 2.396 . S
Sm0 O28 2.386 . S
Sm0 O31 2.408 . S
Sm1 C11 2.846 1_554 S
Sm1 O22 2.386 . S
Sm1 O25 2.408 . S
Sm1 O26 2.543 1_554 S
Sm1 O27 2.450 1_554 S
Sm1 O28 2.681 . S
Sm1 O29 2.464 . S
Sm1 O30 2.396 1_554 S
C2 Sm0 2.846 . S
C2 C3 1.506 . S
C2 O20 1.261 . S
C2 O21 1.242 . S
C3 C2 1.506 . S
C3 C4 1.358 . S
C3 C8 1.382 . S
C4 C3 1.358 . S
C4 C5 1.385 . S
C4 H32 0.930 . S
C5 C4 1.385 . S
C5 C6 1.395 . S
C5 H33 0.929 . S
C6 C5 1.395 . S
C6 C7 1.335 . S
C7 C6 1.335 . S
C7 C8 1.398 . S
C7 H34 0.930 . S
C8 C3 1.382 . S
C8 C7 1.398 . S
C8 H35 0.929 . S
C9 O22 1.271 . S
C9 O23 1.251 . S
C10 O24 1.252 . S
C10 O25 1.272 . S
C11 Sm1 2.846 1_556 S
C11 C12 1.506 . S
C11 O26 1.261 . S
C11 O27 1.242 . S
C12 C11 1.506 . S
C12 C13 1.358 . S
C12 C17 1.382 . S
C13 C12 1.358 . S
C13 C14 1.385 . S
C13 H36 0.930 . S
C14 C13 1.385 . S
C14 C15 1.395 . S
C14 H37 0.929 . S
C15 C14 1.395 . S
C15 C16 1.335 . S
C16 C15 1.335 . S
C16 C17 1.398 . S
C16 H38 0.930 . S
C17 C12 1.382 . S
C17 C16 1.398 . S
C17 H39 0.929 . S
C18 O28 1.271 . S
C18 O29 1.251 . S
C19 O30 1.252 . S
C19 O31 1.272 1_556 S
O20 Sm0 2.543 . S
O20 C2 1.261 . S
O21 Sm0 2.450 . S
O21 C2 1.242 . S
O22 Sm0 2.681 . S
O22 Sm1 2.386 . S
O22 C9 1.271 . S
O23 Sm0 2.464 . S
O23 C9 1.251 . S
O24 Sm0 2.396 . S
O24 C10 1.252 . S
O25 Sm1 2.408 . S
O25 C10 1.272 . S
O26 Sm1 2.543 1_556 S
O26 C11 1.261 . S
O27 Sm1 2.450 1_556 S
O27 C11 1.242 . S
O28 Sm0 2.386 . S
O28 Sm1 2.681 . S
O28 C18 1.271 . S
O29 Sm1 2.464 . S
O29 C18 1.251 . S
O30 Sm1 2.396 1_556 S
O30 C19 1.252 . S
O31 Sm0 2.408 . S
O31 C19 1.272 1_554 S
H32 C4 0.930 . S
H33 C5 0.929 . S
H34 C7 0.930 . S
H35 C8 0.929 . S
H36 C13 0.930 . S
H37 C14 0.929 . S
H38 C16 0.930 . S
H39 C17 0.929 . S
Sm40 C42 2.846 . S
Sm40 O60 2.543 . S
Sm40 O61 2.450 . S
Sm40 O62 2.681 . S
Sm40 O63 2.464 . S
Sm40 O64 2.396 . S
Sm40 O68 2.386 . S
Sm40 O71 2.408 . S
Sm41 C51 2.846 . S
Sm41 O62 2.386 . S
Sm41 O65 2.408 . S
Sm41 O66 2.543 . S
Sm41 O67 2.450 . S
Sm41 O68 2.681 . S
Sm41 O69 2.464 . S
Sm41 O70 2.396 . S
C42 Sm40 2.846 . S
C42 C43 1.506 . S
C42 O60 1.261 . S
C42 O61 1.242 . S
C43 C42 1.506 . S
C43 C44 1.358 . S
C43 C48 1.382 . S
C44 C43 1.358 . S
C44 C45 1.385 . S
C44 H72 0.930 . S
C45 C44 1.385 . S
C45 C46 1.395 . S
C45 H73 0.929 . S
C46 C45 1.395 . S
C46 C47 1.335 . S
C47 C46 1.335 . S
C47 C48 1.398 . S
C47 H74 0.930 . S
C48 C43 1.382 . S
C48 C47 1.398 . S
C48 H75 0.929 . S
C49 O62 1.271 . S
C49 O63 1.251 . S
C50 O64 1.252 . S
C50 O65 1.272 . S
C51 Sm41 2.846 . S
C51 C52 1.506 . S
C51 O66 1.261 . S
C51 O67 1.242 . S
C52 C51 1.506 . S
C52 C53 1.358 1_655 S
C52 C57 1.382 . S
C53 C52 1.358 1_455 S
C53 C54 1.385 . S
C53 H76 0.930 . S
C54 C53 1.385 . S
C54 C55 1.395 . S
C54 H77 0.929 . S
C55 C54 1.395 . S
C55 C56 1.335 1_455 S
C56 C55 1.335 1_655 S
C56 C57 1.398 . S
C56 H78 0.930 . S
C57 C52 1.382 . S
C57 C56 1.398 . S
C57 H79 0.929 . S
C58 O68 1.271 . S
C58 O69 1.251 . S
C59 O70 1.252 . S
C59 O71 1.272 . S
O60 Sm40 2.543 . S
O60 C42 1.261 . S
O61 Sm40 2.450 . S
O61 C42 1.242 . S
O62 Sm40 2.681 . S
O62 Sm41 2.386 . S
O62 C49 1.271 . S
O63 Sm40 2.464 . S
O63 C49 1.251 . S
O64 Sm40 2.396 . S
O64 C50 1.252 . S
O65 Sm41 2.408 . S
O65 C50 1.272 . S
O66 Sm41 2.543 . S
O66 C51 1.261 . S
O67 Sm41 2.450 . S
O67 C51 1.242 . S
O68 Sm40 2.386 . S
O68 Sm41 2.681 . S
O68 C58 1.271 . S
O69 Sm41 2.464 . S
O69 C58 1.251 . S
O70 Sm41 2.396 . S
O70 C59 1.252 . S
O71 Sm40 2.408 . S
O71 C59 1.272 . S
H72 C44 0.930 . S
H73 C45 0.929 . S
H74 C47 0.930 . S
H75 C48 0.929 . S
H76 C53 0.930 . S
H77 C54 0.929 . S
H78 C56 0.930 . S
H79 C57 0.929 . S
Sm80 C82 2.846 . S
Sm80 O100 2.543 . S
Sm80 O101 2.450 . S
Sm80 O102 2.681 . S
Sm80 O103 2.464 . S
Sm80 O104 2.396 . S
Sm80 O108 2.386 . S
Sm80 O111 2.408 . S
Sm81 C91 2.846 . S
Sm81 O102 2.386 . S
Sm81 O105 2.408 . S
Sm81 O106 2.543 . S
Sm81 O107 2.450 . S
Sm81 O108 2.681 . S
Sm81 O109 2.464 . S
Sm81 O110 2.396 . S
C82 Sm80 2.846 . S
C82 C83 1.506 . S
C82 O100 1.261 . S
C82 O101 1.242 . S
C83 C82 1.506 . S
C83 C84 1.358 . S
C83 C88 1.382 . S
C84 C83 1.358 . S
C84 C85 1.385 . S
C84 H112 0.930 . S
C85 C84 1.385 . S
C85 C86 1.395 . S
C85 H113 0.929 . S
C86 C85 1.395 . S
C86 C87 1.335 . S
C87 C86 1.335 . S
C87 C88 1.398 . S
C87 H114 0.930 . S
C88 C83 1.382 . S
C88 C87 1.398 . S
C88 H115 0.929 . S
C89 O102 1.271 . S
C89 O103 1.251 . S
C90 O104 1.252 . S
C90 O105 1.272 . S
C91 Sm81 2.846 . S
C91 C92 1.506 . S
C91 O106 1.261 . S
C91 O107 1.242 . S
C92 C91 1.506 . S
C92 C93 1.358 1_565 S
C92 C97 1.382 . S
C93 C92 1.358 1_545 S
C93 C94 1.385 . S
C93 H116 0.930 . S
C94 C93 1.385 . S
C94 C95 1.395 . S
C94 H117 0.929 . S
C95 C94 1.395 . S
C95 C96 1.335 1_545 S
C96 C95 1.335 1_565 S
C96 C97 1.398 . S
C96 H118 0.930 . S
C97 C92 1.382 . S
C97 C96 1.398 . S
C97 H119 0.929 . S
C98 O108 1.271 . S
C98 O109 1.251 . S
C99 O110 1.252 . S
C99 O111 1.272 . S
O100 Sm80 2.543 . S
O100 C82 1.261 . S
O101 Sm80 2.450 . S
O101 C82 1.242 . S
O102 Sm80 2.681 . S
O102 Sm81 2.386 . S
O102 C89 1.271 . S
O103 Sm80 2.464 . S
O103 C89 1.251 . S
O104 Sm80 2.396 . S
O104 C90 1.252 . S
O105 Sm81 2.408 . S
O105 C90 1.272 . S
O106 Sm81 2.543 . S
O106 C91 1.261 . S
O107 Sm81 2.450 . S
O107 C91 1.242 . S
O108 Sm80 2.386 . S
O108 Sm81 2.681 . S
O108 C98 1.271 . S
O109 Sm81 2.464 . S
O109 C98 1.251 . S
O110 Sm81 2.396 . S
O110 C99 1.252 . S
O111 Sm80 2.408 . S
O111 C99 1.272 . S
H112 C84 0.930 . S
H113 C85 0.929 . S
H114 C87 0.930 . S
H115 C88 0.929 . S
H116 C93 0.930 . S
H117 C94 0.929 . S
H118 C96 0.930 . S
H119 C97 0.929 . S
Sm120 C122 2.846 . S
Sm120 O140 2.543 . S
Sm120 O141 2.450 . S
Sm120 O142 2.681 . S
Sm120 O143 2.464 . S
Sm120 O144 2.396 . S
Sm120 O148 2.386 . S
Sm120 O151 2.408 . S
Sm121 C131 2.846 1_554 S
Sm121 O142 2.386 . S
Sm121 O145 2.408 . S
Sm121 O146 2.543 1_554 S
Sm121 O147 2.450 1_554 S
Sm121 O148 2.681 . S
Sm121 O149 2.464 . S
Sm121 O150 2.396 1_554 S
C122 Sm120 2.846 . S
C122 C123 1.506 . S
C122 O140 1.261 . S
C122 O141 1.242 . S
C123 C122 1.506 . S
C123 C124 1.358 . S
C123 C128 1.382 . S
C124 C123 1.358 . S
C124 C125 1.385 . S
C124 H152 0.930 . S
C125 C124 1.385 . S
C125 C126 1.395 . S
C125 H153 0.929 . S
C126 C125 1.395 . S
C126 C127 1.335 . S
C127 C126 1.335 . S
C127 C128 1.398 . S
C127 H154 0.930 . S
C128 C123 1.382 . S
C128 C127 1.398 . S
C128 H155 0.929 . S
C129 O142 1.271 . S
C129 O143 1.251 . S
C130 O144 1.252 . S
C130 O145 1.272 . S
C131 Sm121 2.846 1_556 S
C131 C132 1.506 . S
C131 O146 1.261 . S
C131 O147 1.242 . S
C132 C131 1.506 . S
C132 C133 1.358 . S
C132 C137 1.382 . S
C133 C132 1.358 . S
C133 C134 1.385 . S
C133 H156 0.930 . S
C134 C133 1.385 . S
C134 C135 1.395 . S
C134 H157 0.929 . S
C135 C134 1.395 . S
C135 C136 1.335 . S
C136 C135 1.335 . S
C136 C137 1.398 . S
C136 H158 0.930 . S
C137 C132 1.382 . S
C137 C136 1.398 . S
C137 H159 0.929 . S
C138 O148 1.271 . S
C138 O149 1.251 . S
C139 O150 1.252 . S
C139 O151 1.272 1_556 S
O140 Sm120 2.543 . S
O140 C122 1.261 . S
O141 Sm120 2.450 . S
O141 C122 1.242 . S
O142 Sm120 2.681 . S
O142 Sm121 2.386 . S
O142 C129 1.271 . S
O143 Sm120 2.464 . S
O143 C129 1.251 . S
O144 Sm120 2.396 . S
O144 C130 1.252 . S
O145 Sm121 2.408 . S
O145 C130 1.272 . S
O146 Sm121 2.543 1_556 S
O146 C131 1.261 . S
O147 Sm121 2.450 1_556 S
O147 C131 1.242 . S
O148 Sm120 2.386 . S
O148 Sm121 2.681 . S
O148 C138 1.271 . S
O149 Sm121 2.464 . S
O149 C138 1.251 . S
O150 Sm121 2.396 1_556 S
O150 C139 1.252 . S
O151 Sm120 2.408 . S
O151 C139 1.272 1_554 S
H152 C124 0.930 . S
H153 C125 0.929 . S
H154 C127 0.930 . S
H155 C128 0.929 . S
H156 C133 0.930 . S
H157 C134 0.929 . S
H158 C136 0.930 . S
H159 C137 0.929 . S
Sm160 C162 2.846 . S
Sm160 O180 2.543 . S
Sm160 O181 2.450 . S
Sm160 O182 2.681 . S
Sm160 O183 2.464 . S
Sm160 O184 2.396 . S
Sm160 O188 2.386 . S
Sm160 O191 2.408 . S
Sm161 C171 2.846 . S
Sm161 O182 2.386 . S
Sm161 O185 2.408 . S
Sm161 O186 2.543 . S
Sm161 O187 2.450 . S
Sm161 O188 2.681 . S
Sm161 O189 2.464 . S
Sm161 O190 2.396 . S
C162 Sm160 2.846 . S
C162 C163 1.506 . S
C162 O180 1.261 . S
C162 O181 1.242 . S
C163 C162 1.506 . S
C163 C164 1.358 . S
C163 C168 1.382 . S
C164 C163 1.358 . S
C164 C165 1.385 . S
C164 H192 0.930 . S
C165 C164 1.385 . S
C165 C166 1.395 . S
C165 H193 0.929 . S
C166 C165 1.395 . S
C166 C167 1.335 . S
C167 C166 1.335 . S
C167 C168 1.398 . S
C167 H194 0.930 . S
C168 C163 1.382 . S
C168 C167 1.398 . S
C168 H195 0.929 . S
C169 O182 1.271 . S
C169 O183 1.251 . S
C170 O184 1.252 . S
C170 O185 1.272 . S
C171 Sm161 2.846 . S
C171 C172 1.506 . S
C171 O186 1.261 . S
C171 O187 1.242 . S
C172 C171 1.506 . S
C172 C173 1.358 1_455 S
C172 C177 1.382 . S
C173 C172 1.358 1_655 S
C173 C174 1.385 . S
C173 H196 0.930 . S
C174 C173 1.385 . S
C174 C175 1.395 . S
C174 H197 0.929 . S
C175 C174 1.395 . S
C175 C176 1.335 1_655 S
C176 C175 1.335 1_455 S
C176 C177 1.398 . S
C176 H198 0.930 . S
C177 C172 1.382 . S
C177 C176 1.398 . S
C177 H199 0.929 . S
C178 O188 1.271 . S
C178 O189 1.251 . S
C179 O190 1.252 . S
C179 O191 1.272 . S
O180 Sm160 2.543 . S
O180 C162 1.261 . S
O181 Sm160 2.450 . S
O181 C162 1.242 . S
O182 Sm160 2.681 . S
O182 Sm161 2.386 . S
O182 C169 1.271 . S
O183 Sm160 2.464 . S
O183 C169 1.251 . S
O184 Sm160 2.396 . S
O184 C170 1.252 . S
O185 Sm161 2.408 . S
O185 C170 1.272 . S
O186 Sm161 2.543 . S
O186 C171 1.261 . S
O187 Sm161 2.450 . S
O187 C171 1.242 . S
O188 Sm160 2.386 . S
O188 Sm161 2.681 . S
O188 C178 1.271 . S
O189 Sm161 2.464 . S
O189 C178 1.251 . S
O190 Sm161 2.396 . S
O190 C179 1.252 . S
O191 Sm160 2.408 . S
O191 C179 1.272 . S
H192 C164 0.930 . S
H193 C165 0.929 . S
H194 C167 0.930 . S
H195 C168 0.929 . S
H196 C173 0.930 . S
H197 C174 0.929 . S
H198 C176 0.930 . S
H199 C177 0.929 . S
Sm200 C202 2.846 . S
Sm200 O220 2.543 . S
Sm200 O221 2.450 . S
Sm200 O222 2.681 . S
Sm200 O223 2.464 . S
Sm200 O224 2.396 . S
Sm200 O228 2.386 . S
Sm200 O231 2.408 . S
Sm201 C211 2.846 . S
Sm201 O222 2.386 . S
Sm201 O225 2.408 . S
Sm201 O226 2.543 . S
Sm201 O227 2.450 . S
Sm201 O228 2.681 . S
Sm201 O229 2.464 . S
Sm201 O230 2.396 . S
C202 Sm200 2.846 . S
C202 C203 1.506 . S
C202 O220 1.261 . S
C202 O221 1.242 . S
C203 C202 1.506 . S
C203 C204 1.358 . S
C203 C208 1.382 . S
C204 C203 1.358 . S
C204 C205 1.385 . S
C204 H232 0.930 . S
C205 C204 1.385 . S
C205 C206 1.395 . S
C205 H233 0.929 . S
C206 C205 1.395 . S
C206 C207 1.335 . S
C207 C206 1.335 . S
C207 C208 1.398 . S
C207 H234 0.930 . S
C208 C203 1.382 . S
C208 C207 1.398 . S
C208 H235 0.929 . S
C209 O222 1.271 . S
C209 O223 1.251 . S
C210 O224 1.252 . S
C210 O225 1.272 . S
C211 Sm201 2.846 . S
C211 C212 1.506 . S
C211 O226 1.261 . S
C211 O227 1.242 . S
C212 C211 1.506 . S
C212 C213 1.358 1_545 S
C212 C217 1.382 . S
C213 C212 1.358 1_565 S
C213 C214 1.385 . S
C213 H236 0.930 . S
C214 C213 1.385 . S
C214 C215 1.395 . S
C214 H237 0.929 . S
C215 C214 1.395 . S
C215 C216 1.335 1_565 S
C216 C215 1.335 1_545 S
C216 C217 1.398 . S
C216 H238 0.930 . S
C217 C212 1.382 . S
C217 C216 1.398 . S
C217 H239 0.929 . S
C218 O228 1.271 . S
C218 O229 1.251 . S
C219 O230 1.252 . S
C219 O231 1.272 . S
O220 Sm200 2.543 . S
O220 C202 1.261 . S
O221 Sm200 2.450 . S
O221 C202 1.242 . S
O222 Sm200 2.681 . S
O222 Sm201 2.386 . S
O222 C209 1.271 . S
O223 Sm200 2.464 . S
O223 C209 1.251 . S
O224 Sm200 2.396 . S
O224 C210 1.252 . S
O225 Sm201 2.408 . S
O225 C210 1.272 . S
O226 Sm201 2.543 . S
O226 C211 1.261 . S
O227 Sm201 2.450 . S
O227 C211 1.242 . S
O228 Sm200 2.386 . S
O228 Sm201 2.681 . S
O228 C218 1.271 . S
O229 Sm201 2.464 . S
O229 C218 1.251 . S
O230 Sm201 2.396 . S
O230 C219 1.252 . S
O231 Sm200 2.408 . S
O231 C219 1.272 . S
H232 C204 0.930 . S
H233 C205 0.929 . S
H234 C207 0.930 . S
H235 C208 0.929 . S
H236 C213 0.930 . S
H237 C214 0.929 . S
H238 C216 0.930 . S
H239 C217 0.929 . S
C240 C241 1.369 . S
C240 C242 1.419 . S
C240 H244 0.930 . S
C241 C240 1.369 . S
C241 C250 1.429 . S
C242 C240 1.419 . S
C242 C243 1.363 . S
C242 H245 0.929 . S
C243 C242 1.363 . S
C243 C249 1.428 . S
H244 C240 0.930 . S
H245 C242 0.929 . S
S246 N247 1.613 . S
S246 N248 1.610 . S
N247 S246 1.613 . S
N247 C250 1.350 . S
N248 S246 1.610 . S
N248 C249 1.351 . S
C249 C243 1.428 . S
C249 N248 1.351 . S
C249 C250 1.434 . S
C250 C241 1.429 . S
C250 N247 1.350 . S
C250 C249 1.434 . S
C251 C252 1.369 . S
C251 C253 1.419 . S
C251 H255 0.930 . S
C252 C251 1.369 . S
C252 C261 1.429 . S
C253 C251 1.419 . S
C253 C254 1.363 . S
C253 H256 0.929 . S
C254 C253 1.363 . S
C254 C260 1.428 . S
H255 C251 0.930 . S
H256 C253 0.929 . S
S257 N258 1.613 . S
S257 N259 1.610 . S
N258 S257 1.613 . S
N258 C261 1.350 . S
N259 S257 1.610 . S
N259 C260 1.351 . S
C260 C254 1.428 . S
C260 N259 1.351 . S
C260 C261 1.434 . S
C261 C252 1.429 . S
C261 N258 1.350 . S
C261 C260 1.434 . S
C262 C263 1.369 . S
C262 C264 1.419 . S
C262 H266 0.930 . S
C263 C262 1.369 . S
C263 C272 1.429 . S
C264 C262 1.419 . S
C264 C265 1.363 . S
C264 H267 0.929 . S
C265 C264 1.363 . S
C265 C271 1.428 . S
H266 C262 0.930 . S
H267 C264 0.929 . S
S268 N269 1.613 . S
S268 N270 1.610 . S
N269 S268 1.613 . S
N269 C272 1.350 . S
N270 S268 1.610 . S
N270 C271 1.351 . S
C271 C265 1.428 . S
C271 N270 1.351 . S
C271 C272 1.434 . S
C272 C263 1.429 . S
C272 N269 1.350 . S
C272 C271 1.434 . S
C273 C274 1.369 . S
C273 C275 1.419 . S
C273 H277 0.930 . S
C274 C273 1.369 . S
C274 C283 1.429 . S
C275 C273 1.419 . S
C275 C276 1.363 . S
C275 H278 0.929 . S
C276 C275 1.363 . S
C276 C282 1.428 . S
H277 C273 0.930 . S
H278 C275 0.929 . S
S279 N280 1.613 . S
S279 N281 1.610 . S
N280 S279 1.613 . S
N280 C283 1.350 . S
N281 S279 1.610 . S
N281 C282 1.351 . S
C282 C276 1.428 . S
C282 N281 1.351 . S
C282 C283 1.434 . S
C283 C274 1.429 . S
C283 N280 1.350 . S
C283 C282 1.434 . S
C284 C285 1.369 . S
C284 C286 1.419 . S
C284 H288 0.930 . S
C285 C284 1.369 . S
C285 C294 1.429 . S
C286 C284 1.419 . S
C286 C287 1.363 . S
C286 H289 0.929 . S
C287 C286 1.363 . S
C287 C293 1.428 . S
H288 C284 0.930 . S
H289 C286 0.929 . S
S290 N291 1.613 . S
S290 N292 1.610 . S
N291 S290 1.613 . S
N291 C294 1.350 . S
N292 S290 1.610 . S
N292 C293 1.351 . S
C293 C287 1.428 . S
C293 N292 1.351 . S
C293 C294 1.434 . S
C294 C285 1.429 . S
C294 N291 1.350 . S
C294 C293 1.434 . S
C295 C296 1.369 . S
C295 C297 1.419 . S
C295 H299 0.930 . S
C296 C295 1.369 . S
C296 C305 1.429 . S
C297 C295 1.419 . S
C297 C298 1.363 . S
C297 H300 0.929 . S
C298 C297 1.363 . S
C298 C304 1.428 . S
H299 C295 0.930 . S
H300 C297 0.929 . S
S301 N302 1.613 . S
S301 N303 1.610 . S
N302 S301 1.613 . S
N302 C305 1.350 . S
N303 S301 1.610 . S
N303 C304 1.351 . S
C304 C298 1.428 . S
C304 N303 1.351 . S
C304 C305 1.434 . S
C305 C296 1.429 . S
C305 N302 1.350 . S
C305 C304 1.434 . S
C306 C307 1.369 . S
C306 C308 1.419 . S
C306 H310 0.930 . S
C307 C306 1.369 . S
C307 C316 1.429 . S
C308 C306 1.419 . S
C308 C309 1.363 . S
C308 H311 0.929 . S
C309 C308 1.363 . S
C309 C315 1.428 . S
H310 C306 0.930 . S
H311 C308 0.929 . S
S312 N313 1.613 1_556 S
S312 N314 1.610 1_556 S
N313 S312 1.613 1_554 S
N313 C316 1.350 . S
N314 S312 1.610 1_554 S
N314 C315 1.351 . S
C315 C309 1.428 . S
C315 N314 1.351 . S
C315 C316 1.434 . S
C316 C307 1.429 . S
C316 N313 1.350 . S
C316 C315 1.434 . S
C317 C318 1.369 . S
C317 C319 1.419 . S
C317 H321 0.930 . S
C318 C317 1.369 . S
C318 C327 1.429 1_455 S
C319 C317 1.419 . S
C319 C320 1.363 1_455 S
C319 H322 0.929 . S
C320 C319 1.363 1_655 S
C320 C326 1.428 . S
H321 C317 0.930 . S
H322 C319 0.929 . S
S323 N324 1.613 . S
S323 N325 1.610 . S
N324 S323 1.613 . S
N324 C327 1.350 . S
N325 S323 1.610 . S
N325 C326 1.351 . S
C326 C320 1.428 . S
C326 N325 1.351 . S
C326 C327 1.434 . S
C327 C318 1.429 1_655 S
C327 N324 1.350 . S
C327 C326 1.434 . S
C328 C329 1.369 . S
C328 C330 1.419 . S
C328 H332 0.930 . S
C329 C328 1.369 . S
C329 C338 1.429 1_545 S
C330 C328 1.419 . S
C330 C331 1.363 1_545 S
C330 H333 0.929 . S
C331 C330 1.363 1_565 S
C331 C337 1.428 . S
H332 C328 0.930 . S
H333 C330 0.929 . S
S334 N335 1.613 . S
S334 N336 1.610 . S
N335 S334 1.613 . S
N335 C338 1.350 . S
N336 S334 1.610 . S
N336 C337 1.351 . S
C337 C331 1.428 . S
C337 N336 1.351 . S
C337 C338 1.434 . S
C338 C329 1.429 1_565 S
C338 N335 1.350 . S
C338 C337 1.434 . S
C339 C340 1.369 . S
C339 C341 1.419 . S
C339 H343 0.930 . S
C340 C339 1.369 . S
C340 C349 1.429 . S
C341 C339 1.419 . S
C341 C342 1.363 . S
C341 H344 0.929 . S
C342 C341 1.363 . S
C342 C348 1.428 . S
H343 C339 0.930 . S
H344 C341 0.929 . S
S345 N346 1.613 . S
S345 N347 1.610 . S
N346 S345 1.613 . S
N346 C349 1.350 . S
N347 S345 1.610 . S
N347 C348 1.351 . S
C348 C342 1.428 . S
C348 N347 1.351 . S
C348 C349 1.434 . S
C349 C340 1.429 . S
C349 N346 1.350 . S
C349 C348 1.434 . S
C350 C351 1.369 1_655 S
C350 C352 1.419 . S
C350 H354 0.930 . S
C351 C350 1.369 1_455 S
C351 C360 1.429 . S
C352 C350 1.419 . S
C352 C353 1.363 . S
C352 H355 0.929 . S
C353 C352 1.363 . S
C353 C359 1.428 1_655 S
H354 C350 0.930 . S
H355 C352 0.929 . S
S356 N357 1.613 . S
S356 N358 1.610 . S
N357 S356 1.613 . S
N357 C360 1.350 . S
N358 S356 1.610 . S
N358 C359 1.351 . S
C359 C353 1.428 1_455 S
C359 N358 1.351 . S
C359 C360 1.434 . S
C360 C351 1.429 . S
C360 N357 1.350 . S
C360 C359 1.434 . S
C361 C362 1.369 1_545 S
C361 C363 1.419 . S
C361 H365 0.930 . S
C362 C361 1.369 1_565 S
C362 C371 1.429 . S
C363 C361 1.419 . S
C363 C364 1.363 . S
C363 H366 0.929 . S
C364 C363 1.363 . S
C364 C370 1.428 1_545 S
H365 C361 0.930 . S
H366 C363 0.929 . S
S367 N368 1.613 . S
S367 N369 1.610 . S
N368 S367 1.613 . S
N368 C371 1.350 . S
N369 S367 1.610 . S
N369 C370 1.351 . S
C370 C364 1.428 1_565 S
C370 N369 1.351 . S
C370 C371 1.434 . S
C371 C362 1.429 . S
C371 N368 1.350 . S
C371 C370 1.434 . S
C372 C373 1.369 . S
C372 C374 1.419 . S
C372 H376 0.930 . S
C373 C372 1.369 . S
C373 C382 1.429 . S
C374 C372 1.419 . S
C374 C375 1.363 . S
C374 H377 0.929 . S
C375 C374 1.363 . S
C375 C381 1.428 . S
H376 C372 0.930 . S
H377 C374 0.929 . S
S378 N379 1.613 . S
S378 N380 1.610 . S
N379 S378 1.613 . S
N379 C382 1.350 . S
N380 S378 1.610 . S
N380 C381 1.351 . S
C381 C375 1.428 . S
C381 N380 1.351 . S
C381 C382 1.434 . S
C382 C373 1.429 . S
C382 N379 1.350 . S
C382 C381 1.434 . S
C383 C384 1.369 . S
C383 C385 1.419 . S
C383 H387 0.930 1_455 S
C384 C383 1.369 . S
C384 C393 1.429 . S
C385 C383 1.419 . S
C385 C386 1.363 . S
C385 H388 0.929 . S
C386 C385 1.363 . S
C386 C392 1.428 . S
H387 C383 0.930 1_655 S
H388 C385 0.929 . S
S389 N390 1.613 . S
S389 N391 1.610 . S
N390 S389 1.613 . S
N390 C393 1.350 . S
N391 S389 1.610 . S
N391 C392 1.351 . S
C392 C386 1.428 . S
C392 N391 1.351 . S
C392 C393 1.434 . S
C393 C384 1.429 . S
C393 N390 1.350 . S
C393 C392 1.434 . S
C394 C395 1.369 . S
C394 C396 1.419 . S
C394 H398 0.930 . S
C395 C394 1.369 . S
C395 C404 1.429 . S
C396 C394 1.419 . S
C396 C397 1.363 . S
C396 H399 0.929 . S
C397 C396 1.363 . S
C397 C403 1.428 . S
H398 C394 0.930 . S
H399 C396 0.929 . S
S400 N401 1.613 . S
S400 N402 1.610 . S
N401 S400 1.613 . S
N401 C404 1.350 1_565 S
N402 S400 1.610 . S
N402 C403 1.351 1_565 S
C403 C397 1.428 . S
C403 N402 1.351 1_545 S
C403 C404 1.434 . S
C404 C395 1.429 . S
C404 N401 1.350 1_545 S
C404 C403 1.434 . S
C405 C406 1.369 . S
C405 C407 1.419 . S
C405 H409 0.930 . S
C406 C405 1.369 . S
C406 C415 1.429 . S
C407 C405 1.419 . S
C407 C408 1.363 . S
C407 H410 0.929 . S
C408 C407 1.363 . S
C408 C414 1.428 . S
H409 C405 0.930 . S
H410 C407 0.929 . S
S411 N412 1.613 . S
S411 N413 1.610 . S
N412 S411 1.613 . S
N412 C415 1.350 . S
N413 S411 1.610 . S
N413 C414 1.351 . S
C414 C408 1.428 . S
C414 N413 1.351 . S
C414 C415 1.434 . S
C415 C406 1.429 . S
C415 N412 1.350 . S
C415 C414 1.434 . S
C416 C417 1.369 . S
C416 C418 1.419 . S
C416 H420 0.930 . S
C417 C416 1.369 . S
C417 C426 1.429 . S
C418 C416 1.419 . S
C418 C419 1.363 . S
C418 H421 0.929 . S
C419 C418 1.363 . S
C419 C425 1.428 . S
H420 C416 0.930 . S
H421 C418 0.929 . S
S422 N423 1.613 . S
S422 N424 1.610 . S
N423 S422 1.613 . S
N423 C426 1.350 1_455 S
N424 S422 1.610 . S
N424 C425 1.351 1_455 S
C425 C419 1.428 . S
C425 N424 1.351 1_655 S
C425 C426 1.434 . S
C426 C417 1.429 . S
C426 N423 1.350 1_655 S
C426 C425 1.434 . S
C427 C428 1.369 . S
C427 C429 1.419 . S
C427 H431 0.930 . S
C428 C427 1.369 . S
C428 C437 1.429 1_565 S
C429 C427 1.419 . S
C429 C430 1.363 . S
C429 H432 0.929 . S
C430 C429 1.363 . S
C430 C436 1.428 . S
H431 C427 0.930 . S
H432 C429 0.929 . S
S433 N434 1.613 . S
S433 N435 1.610 . S
N434 S433 1.613 . S
N434 C437 1.350 . S
N435 S433 1.610 . S
N435 C436 1.351 1_545 S
C436 C430 1.428 . S
C436 N435 1.351 1_565 S
C436 C437 1.434 1_565 S
C437 C428 1.429 1_545 S
C437 N434 1.350 . S
C437 C436 1.434 1_545 S
C241 C179 1.223 . S
C243 C6 1.236 . S
C252 C219 1.229 . S
C254 C46 1.235 . S
C263 C19 1.226 . S
C265 C86 1.235 . S
C274 C59 1.229 . S
C276 C126 1.235 . S
C285 C99 1.227 . S
C287 C166 1.236 . S
C296 C139 1.223 . S
C298 C206 1.238 . S
C307 C9 1.228 . S
C309 C129 1.228 . S
C318 C169 1.229 . S
C320 C49 1.224 . S
C329 C209 1.232 . S
C331 C89 1.223 . S
C340 C98 1.486 . S
C342 C218 1.492 . S
C351 C18 1.485 . S
C353 C138 1.490 . S
C362 C178 1.486 . S
C364 C58 1.491 . S
C373 C210 1.425 . S
C375 C15 1.376 . S
C384 C55 1.374 . S
C386 C10 1.426 . S
C395 C95 1.375 . S
C397 C50 1.428 . S
C406 C90 1.428 . S
C408 C135 1.374 . S
C417 C175 1.382 . S
C419 C130 1.424 . S
C428 C215 1.379 . S
C430 C170 1.427 . S
