# Generated by pormake.
# Topology qtz-h, (3)-cn, num edge types: 1
# Building blocks:
#     Node 0, Type 0, BuildingBlock: WUSLED_clean_sbu_0, # of connection points: 3
#     Node 1, Type 0, BuildingBlock: WUSLED_clean_sbu_0, # of connection points: 3
#     Node 2, Type 0, BuildingBlock: WUSLED_clean_sbu_0, # of connection points: 3
#     Node 3, Type 0, BuildingBlock: WUSLED_clean_sbu_0, # of connection points: 3
#     Node 4, Type 0, BuildingBlock: WUSLED_clean_sbu_0, # of connection points: 3
#     Node 5, Type 0, BuildingBlock: WUSLED_clean_sbu_0, # of connection points: 3
#     Node 6, Type 0, BuildingBlock: WUSLED_clean_sbu_0, # of connection points: 3
#     Node 7, Type 0, BuildingBlock: WUSLED_clean_sbu_0, # of connection points: 3
#     Node 8, Type 0, BuildingBlock: WUSLED_clean_sbu_0, # of connection points: 3
#     Node 9, Type 0, BuildingBlock: WUSLED_clean_sbu_0, # of connection points: 3
#     Node 10, Type 0, BuildingBlock: WUSLED_clean_sbu_0, # of connection points: 3
#     Node 11, Type 0, BuildingBlock: WUSLED_clean_sbu_0, # of connection points: 3
#     Edge 12, Type (0, 0), BuildingBlock: ZUJKAS_clean_linker_0, # of connection points: 2
#     Edge 13, Type (0, 0), BuildingBlock: ZUJKAS_clean_linker_0, # of connection points: 2
#     Edge 14, Type (0, 0), BuildingBlock: ZUJKAS_clean_linker_0, # of connection points: 2
#     Edge 15, Type (0, 0), BuildingBlock: ZUJKAS_clean_linker_0, # of connection points: 2
#     Edge 16, Type (0, 0), BuildingBlock: ZUJKAS_clean_linker_0, # of connection points: 2
#     Edge 17, Type (0, 0), BuildingBlock: ZUJKAS_clean_linker_0, # of connection points: 2
#     Edge 18, Type (0, 0), BuildingBlock: ZUJKAS_clean_linker_0, # of connection points: 2
#     Edge 19, Type (0, 0), BuildingBlock: ZUJKAS_clean_linker_0, # of connection points: 2
#     Edge 20, Type (0, 0), BuildingBlock: ZUJKAS_clean_linker_0, # of connection points: 2
#     Edge 21, Type (0, 0), BuildingBlock: ZUJKAS_clean_linker_0, # of connection points: 2
#     Edge 22, Type (0, 0), BuildingBlock: ZUJKAS_clean_linker_0, # of connection points: 2
#     Edge 23, Type (0, 0), BuildingBlock: ZUJKAS_clean_linker_0, # of connection points: 2
#     Edge 24, Type (0, 0), BuildingBlock: ZUJKAS_clean_linker_0, # of connection points: 2
#     Edge 25, Type (0, 0), BuildingBlock: ZUJKAS_clean_linker_0, # of connection points: 2
#     Edge 26, Type (0, 0), BuildingBlock: ZUJKAS_clean_linker_0, # of connection points: 2
#     Edge 27, Type (0, 0), BuildingBlock: ZUJKAS_clean_linker_0, # of connection points: 2
#     Edge 28, Type (0, 0), BuildingBlock: ZUJKAS_clean_linker_0, # of connection points: 2
#     Edge 29, Type (0, 0), BuildingBlock: ZUJKAS_clean_linker_0, # of connection points: 2
# Relax obj value: 0.120
# Max RMSD: 0.102
# Mean RMSD: 0.102
data_MOF--net-qtz-h--node1-WUSLED_clean_sbu_0--edge1-ZUJKAS_clean_linker_0
_symmetry_space_group_name_H-M    P1
_symmetry_Int_Tables_number       1
_symmetry_cell_setting            triclinic
loop_
_symmetry_equiv_pos_as_xyz
'x, y, z'
_cell_length_a     87.825487
_cell_length_b     87.749313
_cell_length_c     130.25934
_cell_angle_alpha  90.260703
_cell_angle_beta   89.872021
_cell_angle_gamma 120.19464
loop_
_atom_site_label
_atom_site_type_symbol
_atom_site_fract_x
_atom_site_fract_y
_atom_site_fract_z
_atom_type_partial_charge
C0 C 0.58392 0.14605 0.13723 0.0
C1 C 0.58129 0.13523 0.12868 0.0
C2 C 0.56764 0.10919 0.13955 0.0
C3 C 0.57321 0.11698 0.12983 0.0
C4 C 0.5704 0.12014 0.14812 0.0
C5 C 0.57849 0.13845 0.14695 0.0
U6 U 0.60423 0.18508 0.11955 0.0
O7 O 0.60053 0.20793 0.11811 0.0
O8 O 0.62681 0.21197 0.12146 0.0
C9 C 0.61694 0.21923 0.12063 0.0
C10 C 0.59204 0.16518 0.1359 0.0
C11 C 0.61917 0.23182 0.12878 0.0
C12 C 0.61103 0.23832 0.14536 0.0
C13 C 0.60931 0.22609 0.13787 0.0
C14 C 0.63289 0.26204 0.13488 0.0
C15 C 0.62275 0.25644 0.14391 0.0
C16 C 0.63107 0.24981 0.12737 0.0
C17 C 0.60748 0.17583 0.09116 0.0
C18 C 0.61123 0.1958 0.07725 0.0
C19 C 0.61342 0.16978 0.07388 0.0
C20 C 0.61034 0.16526 0.08425 0.0
C21 C 0.61359 0.18493 0.07022 0.0
C22 C 0.60823 0.1913 0.08765 0.0
C23 C 0.60299 0.17011 0.10186 0.0
O24 O 0.60876 0.17336 0.13328 0.0
O25 O 0.58267 0.17007 0.13045 0.0
O26 O 0.58967 0.17114 0.10568 0.0
O27 O 0.61635 0.17567 0.10823 0.0
H28 H 0.58535 0.1409 0.1211 0.0
H29 H 0.57105 0.10895 0.12305 0.0
H30 H 0.56642 0.11459 0.15572 0.0
H31 H 0.58045 0.14665 0.15363 0.0
H32 H 0.60321 0.2336 0.1523 0.0
H33 H 0.60015 0.2122 0.13912 0.0
H34 H 0.6419 0.27592 0.13351 0.0
H35 H 0.63879 0.25443 0.12039 0.0
H36 H 0.61115 0.20747 0.07468 0.0
H37 H 0.61554 0.16131 0.06872 0.0
H38 H 0.60992 0.15334 0.08686 0.0
H39 H 0.60611 0.19966 0.0929 0.0
C40 C 0.45186 0.57632 0.47003 0.0
C41 C 0.45843 0.57196 0.46137 0.0
C42 C 0.47069 0.55834 0.47228 0.0
C43 C 0.46773 0.56302 0.46248 0.0
C44 C 0.46428 0.56297 0.48095 0.0
C45 C 0.45489 0.57187 0.47983 0.0
U46 U 0.43487 0.59867 0.45268 0.0
O47 O 0.40884 0.59628 0.45138 0.0
O48 O 0.43198 0.62197 0.45499 0.0
C49 C 0.41473 0.61273 0.45415 0.0
C50 C 0.44172 0.58534 0.4688 0.0
C51 C 0.40483 0.61515 0.46246 0.0
C52 C 0.39143 0.60762 0.47937 0.0
C53 C 0.40168 0.60594 0.47172 0.0
C54 C 0.38783 0.62815 0.4687 0.0
C55 C 0.38426 0.61863 0.4779 0.0
C56 C 0.398 0.62638 0.46103 0.0
C57 C 0.44683 0.60213 0.42429 0.0
C58 C 0.43384 0.6122 0.41148 0.0
C59 C 0.45529 0.60392 0.40642 0.0
C60 C 0.45683 0.60007 0.41662 0.0
C61 C 0.44369 0.60991 0.40371 0.0
C62 C 0.43542 0.60836 0.4217 0.0
C63 C 0.44796 0.5971 0.43485 0.0
O64 O 0.45106 0.60209 0.46632 0.0
O65 O 0.42727 0.57663 0.46332 0.0
O66 O 0.43322 0.58413 0.43858 0.0
O67 O 0.45639 0.61021 0.44137 0.0
H68 H 0.45628 0.57541 0.45375 0.0
H69 H 0.47272 0.55989 0.45566 0.0
H70 H 0.46624 0.55943 0.48859 0.0
H71 H 0.4499 0.57515 0.48658 0.0
H72 H 0.3891 0.6003 0.48644 0.0
H73 H 0.40696 0.59728 0.47297 0.0
H74 H 0.38236 0.6366 0.4673 0.0
H75 H 0.40032 0.63357 0.45391 0.0
H76 H 0.42492 0.61693 0.40965 0.0
H77 H 0.46284 0.60173 0.40061 0.0
H78 H 0.46562 0.59519 0.41849 0.0
H79 H 0.42761 0.61004 0.42757 0.0
C80 C 0.89137 0.45058 0.805 0.0
C81 C 0.90223 0.45789 0.79639 0.0
C82 C 0.92826 0.47077 0.80731 0.0
C83 C 0.92049 0.46787 0.79753 0.0
C84 C 0.91726 0.46349 0.81594 0.0
C85 C 0.89895 0.45346 0.81478 0.0
U86 U 0.85239 0.43083 0.78723 0.0
O87 O 0.82946 0.40415 0.78608 0.0
O88 O 0.82559 0.42668 0.78883 0.0
C89 C 0.81824 0.40943 0.78834 0.0
C90 C 0.87222 0.43962 0.80368 0.0
C91 C 0.80574 0.39959 0.79659 0.0
C92 C 0.79946 0.38607 0.81345 0.0
C93 C 0.81159 0.39627 0.80588 0.0
C94 C 0.77557 0.38292 0.80267 0.0
C95 C 0.7813 0.37915 0.81189 0.0
C96 C 0.78771 0.39302 0.79507 0.0
C97 C 0.86217 0.44122 0.75866 0.0
C98 C 0.84156 0.42463 0.74499 0.0
C99 C 0.86982 0.45021 0.74094 0.0
C100 C 0.87401 0.45282 0.75137 0.0
C101 C 0.8537 0.43588 0.73761 0.0
C102 C 0.84578 0.42729 0.75545 0.0
C103 C 0.8676 0.44327 0.76945 0.0
O104 O 0.86427 0.44813 0.80066 0.0
O105 O 0.86711 0.42487 0.79858 0.0
O106 O 0.86637 0.42913 0.77369 0.0
O107 O 0.86195 0.45152 0.77541 0.0
H108 H 0.89657 0.45571 0.78877 0.0
H109 H 0.92855 0.47302 0.79071 0.0
H110 H 0.9228 0.46563 0.82358 0.0
H111 H 0.89072 0.4479 0.8215 0.0
H112 H 0.80428 0.38357 0.82053 0.0
H113 H 0.82551 0.40137 0.8072 0.0
H114 H 0.76167 0.37764 0.80121 0.0
H115 H 0.78299 0.39548 0.78794 0.0
H116 H 0.8291 0.41342 0.74268 0.0
H117 H 0.87931 0.45929 0.73547 0.0
H118 H 0.88669 0.46368 0.75373 0.0
H119 H 0.83647 0.41821 0.76101 0.0
C120 C 0.4593 0.88272 0.13766 0.0
C121 C 0.46417 0.89346 0.12892 0.0
C122 C 0.47677 0.9197 0.13972 0.0
C123 C 0.47285 0.91177 0.12994 0.0
C124 C 0.47158 0.90887 0.14847 0.0
C125 C 0.46294 0.89049 0.14743 0.0
U126 U 0.43898 0.84305 0.12026 0.0
O127 O 0.44214 0.8198 0.11942 0.0
O128 O 0.41595 0.81647 0.1221 0.0
C129 C 0.42553 0.80883 0.12166 0.0
C130 C 0.45071 0.8635 0.1365 0.0
C131 C 0.42258 0.79636 0.12993 0.0
C132 C 0.42719 0.79034 0.14748 0.0
C133 C 0.42942 0.80238 0.13979 0.0
C134 C 0.41097 0.76619 0.13555 0.0
C135 C 0.41807 0.7721 0.14542 0.0
C136 C 0.41324 0.77823 0.12788 0.0
C137 C 0.43722 0.85108 0.09159 0.0
C138 C 0.43627 0.83207 0.07767 0.0
C139 C 0.42856 0.85454 0.07447 0.0
C140 C 0.43167 0.85962 0.08478 0.0
C141 C 0.43106 0.84088 0.07078 0.0
C142 C 0.43922 0.83705 0.08801 0.0
C143 C 0.44139 0.85735 0.10226 0.0
O144 O 0.43415 0.85564 0.13356 0.0
O145 O 0.46004 0.858 0.13146 0.0
O146 O 0.45439 0.85629 0.10652 0.0
O147 O 0.42781 0.85243 0.10839 0.0
H148 H 0.46135 0.88765 0.12131 0.0
H149 H 0.47642 0.91974 0.12306 0.0
H150 H 0.47451 0.9146 0.15609 0.0
H151 H 0.45926 0.88237 0.15425 0.0
H152 H 0.43298 0.79535 0.15495 0.0
H153 H 0.4367 0.81637 0.14149 0.0
H154 H 0.40366 0.75224 0.13376 0.0
H155 H 0.40783 0.77339 0.12031 0.0
H156 H 0.43813 0.82138 0.07505 0.0
H157 H 0.42473 0.86169 0.06932 0.0
H158 H 0.43005 0.87046 0.08741 0.0
H159 H 0.44334 0.83015 0.09317 0.0
C160 C 0.59005 0.45223 0.47022 0.0
C161 C 0.58312 0.4561 0.46158 0.0
C162 C 0.56916 0.46807 0.47257 0.0
C163 C 0.5728 0.46397 0.46274 0.0
C164 C 0.57604 0.46401 0.48122 0.0
C165 C 0.58642 0.45615 0.48004 0.0
U166 U 0.61047 0.43334 0.4526 0.0
O167 O 0.63736 0.43773 0.45169 0.0
O168 O 0.6151 0.41106 0.45434 0.0
C169 C 0.63231 0.42125 0.45388 0.0
C170 C 0.60131 0.44442 0.46892 0.0
C171 C 0.64226 0.41884 0.46212 0.0
C172 C 0.65307 0.42377 0.47965 0.0
C173 C 0.64291 0.42553 0.472 0.0
C174 C 0.66172 0.40834 0.46763 0.0
C175 C 0.66273 0.41529 0.47752 0.0
C176 C 0.65158 0.41012 0.45999 0.0
C177 C 0.60018 0.43098 0.42395 0.0
C178 C 0.61864 0.43131 0.40993 0.0
C179 C 0.58784 0.42149 0.40689 0.0
C180 C 0.58581 0.42445 0.41722 0.0
C181 C 0.60434 0.42515 0.40311 0.0
C182 C 0.61655 0.4341 0.42029 0.0
C183 C 0.59796 0.43499 0.43465 0.0
O184 O 0.59309 0.42783 0.46596 0.0
O185 O 0.61597 0.45426 0.46382 0.0
O186 O 0.61182 0.4484 0.43889 0.0
O187 O 0.58976 0.42135 0.44077 0.0
H188 H 0.58586 0.4532 0.45393 0.0
H189 H 0.56797 0.46716 0.45592 0.0
H190 H 0.57332 0.46679 0.4889 0.0
H191 H 0.59165 0.45319 0.48678 0.0
H192 H 0.65371 0.42944 0.48715 0.0
H193 H 0.63577 0.43232 0.47375 0.0
H194 H 0.66877 0.4015 0.46578 0.0
H195 H 0.65114 0.40482 0.4524 0.0
H196 H 0.63145 0.43406 0.40724 0.0
H197 H 0.57664 0.4169 0.40179 0.0
H198 H 0.57307 0.42195 0.41992 0.0
H199 H 0.6278 0.43897 0.42538 0.0
C200 C 0.15437 0.58572 0.80339 0.0
C201 C 0.14335 0.57955 0.79476 0.0
C202 C 0.11749 0.56654 0.8058 0.0
C203 C 0.12508 0.57008 0.79595 0.0
C204 C 0.12862 0.57249 0.81444 0.0
C205 C 0.14694 0.58205 0.81323 0.0
U206 U 0.19378 0.6047 0.78581 0.0
O207 O 0.2171 0.63116 0.78493 0.0
O208 O 0.2203 0.60825 0.78768 0.0
C209 C 0.228 0.62553 0.78722 0.0
C210 C 0.17356 0.59627 0.80209 0.0
C211 C 0.24056 0.63524 0.79549 0.0
C212 C 0.24708 0.64852 0.81248 0.0
C213 C 0.23484 0.63847 0.80489 0.0
C214 C 0.2708 0.65178 0.80146 0.0
C215 C 0.26523 0.65545 0.81082 0.0
C216 C 0.25856 0.64178 0.79386 0.0
C217 C 0.18565 0.59467 0.75713 0.0
C218 C 0.20391 0.61298 0.74311 0.0
C219 C 0.18272 0.58212 0.7401 0.0
C220 C 0.17772 0.58021 0.75042 0.0
C221 C 0.19567 0.59859 0.73631 0.0
C222 C 0.19902 0.61102 0.75345 0.0
C223 C 0.17939 0.59259 0.7678 0.0
O224 O 0.18121 0.58742 0.79911 0.0
O225 O 0.17905 0.61105 0.79702 0.0
O226 O 0.18046 0.60669 0.7721 0.0
O227 O 0.18427 0.58395 0.77392 0.0
H228 H 0.14891 0.5822 0.78709 0.0
H229 H 0.11688 0.56545 0.78915 0.0
H230 H 0.12316 0.57008 0.82212 0.0
H231 H 0.15528 0.58675 0.81998 0.0
H232 H 0.24233 0.65125 0.81954 0.0
H233 H 0.22095 0.63347 0.80627 0.0
H234 H 0.28463 0.65664 0.79999 0.0
H235 H 0.26317 0.63932 0.78667 0.0
H236 H 0.21405 0.62577 0.74041 0.0
H237 H 0.17604 0.57084 0.73502 0.0
H238 H 0.1674 0.5675 0.75312 0.0
H239 H 0.20548 0.62234 0.75852 0.0
C240 C 0.88983 0.45407 0.56145 0.0
C241 C 0.90074 0.45786 0.57005 0.0
C242 C 0.92672 0.47163 0.55912 0.0
C243 C 0.91902 0.46658 0.56891 0.0
C244 C 0.9157 0.4675 0.55049 0.0
C245 C 0.89737 0.45882 0.55166 0.0
U246 U 0.85056 0.43328 0.57905 0.0
O247 O 0.82755 0.43677 0.58036 0.0
O248 O 0.82383 0.41056 0.57707 0.0
C249 C 0.81641 0.42032 0.57782 0.0
C250 C 0.87067 0.44559 0.56276 0.0
C251 C 0.80415 0.41805 0.56954 0.0
C252 C 0.79861 0.42233 0.55184 0.0
C253 C 0.81033 0.42389 0.55957 0.0
C254 C 0.77441 0.40885 0.56395 0.0
C255 C 0.78053 0.41491 0.55395 0.0
C256 C 0.78615 0.41044 0.57167 0.0
C257 C 0.85953 0.43028 0.60754 0.0
C258 C 0.84211 0.42991 0.62217 0.0
C259 C 0.8639 0.42095 0.62424 0.0
C260 C 0.8681 0.42404 0.61383 0.0
C261 C 0.85111 0.4242 0.62859 0.0
C262 C 0.84624 0.43287 0.61172 0.0
C263 C 0.86524 0.43475 0.59681 0.0
O264 O 0.86273 0.42889 0.56541 0.0
O265 O 0.86547 0.45483 0.56816 0.0
O266 O 0.86417 0.448 0.59295 0.0
O267 O 0.85995 0.42137 0.59044 0.0
H268 H 0.8951 0.45421 0.57768 0.0
H269 H 0.92713 0.46932 0.57569 0.0
H270 H 0.92125 0.47134 0.54286 0.0
H271 H 0.88911 0.456 0.54494 0.0
H272 H 0.8037 0.42692 0.5442 0.0
H273 H 0.82422 0.42978 0.55781 0.0
H274 H 0.76062 0.40327 0.56586 0.0
H275 H 0.7812 0.40593 0.57935 0.0
H276 H 0.83229 0.43267 0.62526 0.0
H277 H 0.87083 0.41621 0.62891 0.0
H278 H 0.8783 0.42184 0.61072 0.0
H279 H 0.83936 0.43758 0.60698 0.0
C280 C 0.45486 0.88505 0.89502 0.0
C281 C 0.46193 0.89575 0.90375 0.0
C282 C 0.47427 0.92204 0.89311 0.0
C283 C 0.47154 0.91407 0.9028 0.0
C284 C 0.46742 0.91122 0.88436 0.0
C285 C 0.45773 0.89285 0.88532 0.0
U286 U 0.43552 0.84553 0.91234 0.0
O287 O 0.40893 0.82241 0.91327 0.0
O288 O 0.43159 0.81884 0.91038 0.0
C289 C 0.41434 0.81133 0.9109 0.0
C290 C 0.44409 0.86584 0.89614 0.0
C291 C 0.40452 0.79887 0.90261 0.0
C292 C 0.39271 0.79284 0.88529 0.0
C293 C 0.40283 0.80489 0.89296 0.0
C294 C 0.38624 0.76867 0.89678 0.0
C295 C 0.38416 0.77457 0.88714 0.0
C296 C 0.39631 0.78073 0.90445 0.0
C297 C 0.44569 0.85375 0.94094 0.0
C298 C 0.42855 0.83245 0.95414 0.0
C299 C 0.45561 0.85916 0.95864 0.0
C300 C 0.45805 0.86436 0.94837 0.0
C301 C 0.4407 0.84327 0.96166 0.0
C302 C 0.43106 0.83762 0.94384 0.0
C303 C 0.44787 0.86002 0.93032 0.0
O304 O 0.45275 0.85794 0.89899 0.0
O305 O 0.42936 0.86046 0.90126 0.0
O306 O 0.43376 0.85897 0.92615 0.0
O307 O 0.45628 0.85487 0.92414 0.0
H308 H 0.45988 0.88992 0.9113 0.0
H309 H 0.47688 0.92201 0.90967 0.0
H310 H 0.4692 0.91697 0.8768 0.0
H311 H 0.45231 0.88475 0.87851 0.0
H312 H 0.39124 0.79785 0.878 0.0
H313 H 0.40909 0.81889 0.89143 0.0
H314 H 0.38007 0.75471 0.89841 0.0
H315 H 0.39756 0.77588 0.91185 0.0
H316 H 0.41704 0.82006 0.95622 0.0
H317 H 0.46509 0.86788 0.96427 0.0
H318 H 0.4694 0.87685 0.94625 0.0
H319 H 0.42144 0.8292 0.93818 0.0
C320 C 0.58714 0.44992 0.22724 0.0
C321 C 0.5832 0.45677 0.23594 0.0
C322 C 0.5698 0.46941 0.22515 0.0
C323 C 0.5746 0.46642 0.23491 0.0
C324 C 0.57406 0.46276 0.21644 0.0
C325 C 0.58263 0.45304 0.21748 0.0
U326 U 0.60714 0.43029 0.2445 0.0
O327 O 0.60336 0.40363 0.24523 0.0
O328 O 0.62973 0.42622 0.24234 0.0
C329 C 0.6198 0.40897 0.24273 0.0
C330 C 0.59547 0.43912 0.2284 0.0
C331 C 0.6221 0.39922 0.23426 0.0
C332 C 0.61443 0.38621 0.21722 0.0
C333 C 0.61288 0.39636 0.22501 0.0
C334 C 0.63487 0.38218 0.22773 0.0
C335 C 0.62532 0.37888 0.21853 0.0
C336 C 0.63323 0.39224 0.23554 0.0
C337 C 0.60927 0.44001 0.27321 0.0
C338 C 0.61192 0.42205 0.28644 0.0
C339 C 0.61484 0.45026 0.29088 0.0
C340 C 0.61223 0.45285 0.2806 0.0
C341 C 0.61443 0.4347 0.29393 0.0
C342 C 0.60944 0.42472 0.27615 0.0
C343 C 0.60524 0.4424 0.26261 0.0
O344 O 0.61206 0.44775 0.23129 0.0
O345 O 0.58598 0.42436 0.23346 0.0
O346 O 0.59202 0.42842 0.25833 0.0
O347 O 0.61885 0.45085 0.25647 0.0
H348 H 0.58666 0.45452 0.24354 0.0
H349 H 0.57174 0.47158 0.24176 0.0
H350 H 0.5704 0.46472 0.20883 0.0
H351 H 0.58555 0.4478 0.21069 0.0
H352 H 0.60708 0.38408 0.21017 0.0
H353 H 0.60431 0.40177 0.22388 0.0
H354 H 0.64324 0.37658 0.229 0.0
H355 H 0.64043 0.39434 0.24264 0.0
H356 H 0.61172 0.41003 0.28856 0.0
H357 H 0.61654 0.46015 0.29648 0.0
H358 H 0.61213 0.46472 0.27846 0.0
H359 H 0.6073 0.41471 0.27052 0.0
C360 C 0.15285 0.57965 0.56044 0.0
C361 C 0.14206 0.57537 0.56915 0.0
C362 C 0.11596 0.56321 0.5583 0.0
C363 C 0.12379 0.56719 0.56809 0.0
C364 C 0.12689 0.56768 0.54958 0.0
C365 C 0.1452 0.57584 0.55066 0.0
U366 U 0.19258 0.59953 0.57776 0.0
O367 O 0.21539 0.59571 0.57856 0.0
O368 O 0.21939 0.62212 0.57569 0.0
C369 C 0.22662 0.61217 0.57613 0.0
C370 C 0.17201 0.58784 0.56161 0.0
C371 C 0.23885 0.61454 0.56776 0.0
C372 C 0.2447 0.60639 0.55099 0.0
C373 C 0.23277 0.6047 0.55865 0.0
C374 C 0.26881 0.62822 0.56133 0.0
C375 C 0.26286 0.61805 0.5523 0.0
C376 C 0.25688 0.62642 0.56901 0.0
C377 C 0.18507 0.60195 0.60643 0.0
C378 C 0.20587 0.60495 0.61965 0.0
C379 C 0.18049 0.60761 0.62409 0.0
C380 C 0.17518 0.60485 0.61382 0.0
C381 C 0.19574 0.60741 0.62714 0.0
C382 C 0.20062 0.60232 0.60936 0.0
C383 C 0.17858 0.59781 0.59582 0.0
O384 O 0.1802 0.60448 0.56449 0.0
O385 O 0.17715 0.57831 0.5667 0.0
O386 O 0.17921 0.58452 0.59158 0.0
O387 O 0.18384 0.61138 0.58967 0.0
H388 H 0.14778 0.5782 0.57677 0.0
H389 H 0.11579 0.56371 0.57497 0.0
H390 H 0.12132 0.56501 0.54193 0.0
H391 H 0.15337 0.57911 0.54386 0.0
H392 H 0.23971 0.59856 0.54406 0.0
H393 H 0.21884 0.59554 0.55753 0.0
H394 H 0.28273 0.63719 0.56259 0.0
H395 H 0.26178 0.63412 0.576 0.0
H396 H 0.21777 0.60491 0.62177 0.0
H397 H 0.1723 0.60927 0.62969 0.0
H398 H 0.16314 0.6046 0.61168 0.0
H399 H 0.2085 0.60023 0.60374 0.0
C400 C 0.59106 0.14864 0.89506 0.0
C401 C 0.58442 0.13803 0.90381 0.0
C402 C 0.57088 0.11165 0.8931 0.0
C403 C 0.57446 0.11971 0.90284 0.0
C404 C 0.5775 0.12239 0.88434 0.0
C405 C 0.58752 0.14076 0.88532 0.0
U406 U 0.61043 0.18855 0.91229 0.0
O407 O 0.63692 0.21185 0.91309 0.0
O408 O 0.61409 0.21509 0.91022 0.0
C409 C 0.63135 0.22272 0.91062 0.0
C410 C 0.60183 0.16787 0.89616 0.0
C411 C 0.64089 0.23476 0.90214 0.0
C412 C 0.65325 0.23996 0.88496 0.0
C413 C 0.64342 0.2283 0.8928 0.0
C414 C 0.65767 0.2646 0.89559 0.0
C415 C 0.66061 0.25825 0.8863 0.0
C416 C 0.64792 0.25294 0.90345 0.0
C417 C 0.60024 0.18054 0.94095 0.0
C418 C 0.61581 0.20291 0.95402 0.0
C419 C 0.59179 0.17411 0.95883 0.0
C420 C 0.58937 0.16889 0.94855 0.0
C421 C 0.60516 0.19112 0.96171 0.0
C422 C 0.61334 0.19767 0.9437 0.0
C423 C 0.59824 0.17431 0.9303 0.0
O424 O 0.59315 0.17579 0.89899 0.0
O425 O 0.61659 0.17338 0.90127 0.0
O426 O 0.61249 0.17558 0.92616 0.0
O427 O 0.58975 0.1793 0.92414 0.0
H428 H 0.58709 0.14393 0.91139 0.0
H429 H 0.56983 0.11186 0.90975 0.0
H430 H 0.57483 0.11662 0.87672 0.0
H431 H 0.59253 0.14879 0.87849 0.0
H432 H 0.6551 0.23466 0.87784 0.0
H433 H 0.63796 0.21426 0.89164 0.0
H434 H 0.6633 0.27863 0.89688 0.0
H435 H 0.64607 0.25812 0.91062 0.0
H436 H 0.62611 0.21614 0.95598 0.0
H437 H 0.58354 0.16462 0.96457 0.0
H438 H 0.57925 0.15559 0.94654 0.0
H439 H 0.62182 0.20684 0.9379 0.0
C440 C 0.45997 0.58496 0.22772 0.0
C441 C 0.46397 0.5779 0.23624 0.0
C442 C 0.47618 0.56447 0.22501 0.0
C443 C 0.47201 0.56777 0.2349 0.0
C444 C 0.47205 0.57152 0.21648 0.0
C445 C 0.46399 0.58169 0.21784 0.0
U446 U 0.44214 0.60554 0.24592 0.0
O447 O 0.44587 0.6322 0.24676 0.0
O448 O 0.41926 0.60937 0.24496 0.0
C449 C 0.42913 0.62665 0.24509 0.0
C450 C 0.45192 0.59596 0.22923 0.0
C451 C 0.42567 0.63593 0.2369 0.0
C452 C 0.42831 0.64512 0.21912 0.0
C453 C 0.43076 0.63539 0.22675 0.0
C454 C 0.41531 0.65566 0.23169 0.0
C455 C 0.42071 0.65549 0.22153 0.0
C456 C 0.41781 0.64596 0.23931 0.0
C457 C 0.4435 0.59689 0.2745 0.0
C458 C 0.43185 0.60805 0.2876 0.0
C459 C 0.44915 0.59471 0.29248 0.0
C460 C 0.45105 0.59167 0.28215 0.0
C461 C 0.43963 0.60304 0.29532 0.0
C462 C 0.43384 0.60506 0.27725 0.0
C463 C 0.44638 0.59426 0.2637 0.0
O464 O 0.43567 0.58758 0.23271 0.0
O465 O 0.46199 0.61096 0.23401 0.0
O466 O 0.45892 0.60827 0.2591 0.0
O467 O 0.43213 0.58547 0.25806 0.0
H468 H 0.46102 0.58037 0.24394 0.0
H469 H 0.47526 0.56279 0.24165 0.0
H470 H 0.47491 0.56908 0.20876 0.0
H471 H 0.46097 0.58705 0.21118 0.0
H472 H 0.4324 0.64454 0.21135 0.0
H473 H 0.43684 0.62765 0.22477 0.0
H474 H 0.40962 0.66367 0.23381 0.0
H475 H 0.41387 0.64654 0.24712 0.0
H476 H 0.42457 0.6146 0.28955 0.0
H477 H 0.45506 0.59047 0.29825 0.0
H478 H 0.45855 0.58535 0.28014 0.0
H479 H 0.42802 0.60928 0.27139 0.0
H480 H 0.59804 0.35261 0.20777 0.0
H481 H 0.59932 0.33284 0.19496 0.0
H482 H 0.65581 0.35923 0.19826 0.0
H483 H 0.65461 0.37897 0.21118 0.0
H484 H 0.61625 0.34005 0.17645 0.0
H485 H 0.64178 0.30801 0.20244 0.0
H486 H 0.63331 0.32167 0.20715 0.0
H487 H 0.65519 0.33158 0.2019 0.0
C488 C 0.61075 0.35428 0.20572 0.0
C489 C 0.62623 0.3673 0.21051 0.0
C490 C 0.61145 0.34293 0.19843 0.0
C491 C 0.62762 0.34436 0.19578 0.0
C492 C 0.64315 0.3576 0.20038 0.0
H493 H 0.65255 0.28509 0.15144 0.0
H494 H 0.6544 0.30709 0.16384 0.0
C495 C 0.64245 0.36889 0.20773 0.0
C496 C 0.62812 0.33208 0.18812 0.0
H497 H 0.6393 0.30028 0.18482 0.0
C498 C 0.62128 0.33135 0.17828 0.0
C499 C 0.63472 0.32075 0.19053 0.0
C500 C 0.64153 0.32037 0.2011 0.0
C501 C 0.62085 0.3196 0.17079 0.0
C502 C 0.62729 0.3082 0.17324 0.0
C503 C 0.6344 0.30909 0.183 0.0
C504 C 0.62621 0.29485 0.16585 0.0
C505 C 0.61357 0.3195 0.16029 0.0
C506 C 0.60976 0.28061 0.16303 0.0
C507 C 0.60866 0.26804 0.15599 0.0
C508 C 0.62401 0.26951 0.15164 0.0
C509 C 0.6405 0.28372 0.15458 0.0
C510 C 0.64159 0.29623 0.16168 0.0
H511 H 0.61276 0.33156 0.15893 0.0
H512 H 0.62186 0.31842 0.1542 0.0
H513 H 0.60011 0.3079 0.15961 0.0
H514 H 0.59776 0.27925 0.16626 0.0
H515 H 0.59578 0.25734 0.15381 0.0
H516 H 0.35776 0.59156 0.48859 0.0
H517 H 0.33803 0.59317 0.50125 0.0
H518 H 0.36471 0.64967 0.49779 0.0
H519 H 0.38444 0.64814 0.48503 0.0
H520 H 0.34548 0.61049 0.51972 0.0
H521 H 0.31353 0.6358 0.49348 0.0
H522 H 0.32704 0.6271 0.48886 0.0
H523 H 0.33711 0.6491 0.494 0.0
C524 C 0.3595 0.60435 0.49057 0.0
C525 C 0.37262 0.61973 0.48579 0.0
C526 C 0.34817 0.60524 0.49777 0.0
C527 C 0.34971 0.6215 0.50034 0.0
C528 C 0.363 0.63693 0.49573 0.0
H529 H 0.29142 0.64769 0.54462 0.0
H530 H 0.31309 0.64921 0.53213 0.0
C531 C 0.37429 0.63605 0.48847 0.0
C532 C 0.33751 0.62221 0.50795 0.0
H533 H 0.30591 0.63368 0.51109 0.0
C534 C 0.33682 0.61555 0.51783 0.0
C535 C 0.32625 0.62885 0.50546 0.0
C536 C 0.32585 0.63548 0.49485 0.0
C537 C 0.32517 0.61534 0.52528 0.0
C538 C 0.31383 0.62182 0.52276 0.0
C539 C 0.31468 0.62875 0.51296 0.0
C540 C 0.30059 0.62096 0.53013 0.0
C541 C 0.3251 0.60826 0.53583 0.0
C542 C 0.28631 0.60459 0.53298 0.0
C543 C 0.27392 0.60368 0.54007 0.0
C544 C 0.27564 0.61914 0.54444 0.0
C545 C 0.28987 0.63556 0.54146 0.0
C546 C 0.30219 0.63645 0.53431 0.0
H547 H 0.33709 0.60734 0.53722 0.0
H548 H 0.32419 0.61674 0.54187 0.0
H549 H 0.31344 0.59485 0.53657 0.0
H550 H 0.28478 0.5925 0.52975 0.0
H551 H 0.2632 0.59084 0.54228 0.0
H552 H 0.66021 0.28742 0.87925 0.0
H553 H 0.67923 0.30824 0.8661 0.0
H554 H 0.70548 0.27823 0.8621 0.0
H555 H 0.68646 0.25735 0.87513 0.0
H556 H 0.71493 0.32916 0.8659 0.0
H557 H 0.69367 0.28319 0.83279 0.0
H558 H 0.68153 0.27774 0.8447 0.0
H559 H 0.70069 0.27542 0.84346 0.0
C560 C 0.67002 0.28526 0.87554 0.0
C561 C 0.67176 0.27068 0.87816 0.0
C562 C 0.68082 0.29712 0.86801 0.0
C563 C 0.69355 0.29461 0.86298 0.0
C564 C 0.69542 0.28016 0.86566 0.0
H565 H 0.78101 0.35208 0.82229 0.0
H566 H 0.75925 0.3323 0.83479 0.0
C567 C 0.68456 0.26825 0.87313 0.0
C568 C 0.70538 0.30745 0.85522 0.0
H569 H 0.72047 0.31071 0.83068 0.0
C570 C 0.716 0.32518 0.85816 0.0
C571 C 0.7067 0.30223 0.84511 0.0
C572 C 0.69491 0.28364 0.84129 0.0
C573 C 0.72834 0.3377 0.85137 0.0
C574 C 0.73002 0.33233 0.8414 0.0
C575 C 0.71919 0.31471 0.83838 0.0
C576 C 0.74332 0.34469 0.83406 0.0
C577 C 0.7399 0.35646 0.85497 0.0
C578 C 0.74149 0.35814 0.82952 0.0
C579 C 0.75389 0.36946 0.82237 0.0
C580 C 0.76836 0.36752 0.81968 0.0
C581 C 0.77016 0.35406 0.82431 0.0
C582 C 0.7577 0.34269 0.83139 0.0
H583 H 0.73875 0.35791 0.86337 0.0
H584 H 0.7539 0.36115 0.85307 0.0
H585 H 0.73602 0.36511 0.85093 0.0
H586 H 0.73037 0.35976 0.83144 0.0
H587 H 0.75221 0.37976 0.81897 0.0
H588 H 0.4448 0.67559 0.2069 0.0
H589 H 0.44249 0.69478 0.19422 0.0
H590 H 0.39083 0.68028 0.20562 0.0
H591 H 0.39282 0.66066 0.21819 0.0
H592 H 0.39335 0.68023 0.18385 0.0
H593 H 0.44601 0.7424 0.20119 0.0
H594 H 0.45249 0.72635 0.19856 0.0
H595 H 0.43569 0.72167 0.20796 0.0
C596 C 0.43285 0.67631 0.20664 0.0
C597 C 0.41901 0.66664 0.21358 0.0
C598 C 0.43164 0.68743 0.19947 0.0
C599 C 0.41662 0.68915 0.19911 0.0
C600 C 0.40259 0.67923 0.20584 0.0
H601 H 0.41115 0.77245 0.16594 0.0
H602 H 0.40945 0.75187 0.17914 0.0
C603 C 0.4038 0.66811 0.21304 0.0
C604 C 0.41557 0.70132 0.19169 0.0
H605 H 0.43583 0.74459 0.18465 0.0
C606 C 0.40256 0.69431 0.18405 0.0
C607 C 0.42744 0.71971 0.19208 0.0
C608 C 0.4411 0.72805 0.20044 0.0
C609 C 0.40144 0.70519 0.17657 0.0
C610 C 0.4138 0.72347 0.17669 0.0
C611 C 0.42647 0.73054 0.18453 0.0
C612 C 0.41412 0.73548 0.16864 0.0
C613 C 0.387 0.69703 0.16863 0.0
C614 C 0.41745 0.73315 0.15839 0.0
C615 C 0.41853 0.74492 0.15085 0.0
C616 C 0.41639 0.75932 0.15342 0.0
C617 C 0.41303 0.7616 0.16371 0.0
C618 C 0.41196 0.74982 0.17126 0.0
H619 H 0.37596 0.68411 0.17121 0.0
H620 H 0.38174 0.70588 0.16686 0.0
H621 H 0.39241 0.69478 0.16144 0.0
H622 H 0.41958 0.72243 0.15625 0.0
H623 H 0.42148 0.74298 0.14304 0.0
H624 H 0.74722 0.38766 0.54987 0.0
H625 H 0.72654 0.38667 0.53694 0.0
H626 H 0.76522 0.43873 0.52675 0.0
H627 H 0.78578 0.44005 0.53983 0.0
H628 H 0.73157 0.43426 0.53009 0.0
H629 H 0.72864 0.38077 0.50565 0.0
H630 H 0.72425 0.37553 0.51905 0.0
H631 H 0.74576 0.39249 0.51506 0.0
C632 C 0.7513 0.39892 0.54489 0.0
C633 C 0.76817 0.41392 0.54586 0.0
C634 C 0.73954 0.39826 0.53745 0.0
C635 C 0.74445 0.41254 0.53082 0.0
C636 C 0.76124 0.42752 0.53176 0.0
H637 H 0.69577 0.42002 0.47506 0.0
H638 H 0.71492 0.41875 0.48821 0.0
C639 C 0.77301 0.42819 0.53918 0.0
C640 C 0.73192 0.41217 0.52309 0.0
H641 H 0.70888 0.39079 0.50153 0.0
C642 C 0.72658 0.42476 0.52384 0.0
C643 C 0.72559 0.39983 0.51492 0.0
C644 C 0.73143 0.38646 0.51353 0.0
C645 C 0.71501 0.42532 0.51665 0.0
C646 C 0.70844 0.4128 0.50858 0.0
C647 C 0.71384 0.40026 0.50779 0.0
C648 C 0.69647 0.41295 0.50065 0.0
C649 C 0.71022 0.43955 0.51761 0.0
C650 C 0.67964 0.40984 0.50328 0.0
C651 C 0.66861 0.41047 0.49577 0.0
C652 C 0.67419 0.41413 0.48549 0.0
C653 C 0.69097 0.41695 0.48288 0.0
C654 C 0.70197 0.41631 0.49038 0.0
H655 H 0.71937 0.45038 0.5228 0.0
H656 H 0.71034 0.4452 0.50998 0.0
H657 H 0.69673 0.43376 0.52082 0.0
H658 H 0.67503 0.4069 0.51113 0.0
H659 H 0.65566 0.40795 0.49801 0.0
H660 H 0.29698 0.68543 0.80767 0.0
H661 H 0.31821 0.70464 0.82056 0.0
H662 H 0.28404 0.67131 0.84462 0.0
H663 H 0.26304 0.65159 0.83176 0.0
H664 H 0.31294 0.72327 0.83565 0.0
H665 H 0.33122 0.67698 0.85288 0.0
H666 H 0.31961 0.67254 0.84082 0.0
H667 H 0.30793 0.66878 0.85276 0.0
C668 C 0.29412 0.68196 0.81569 0.0
C669 C 0.27833 0.66689 0.81867 0.0
C670 C 0.30622 0.69304 0.82305 0.0
C671 C 0.30283 0.68928 0.83354 0.0
C672 C 0.2871 0.67427 0.83656 0.0
H673 H 0.35231 0.74446 0.8898 0.0
H674 H 0.33317 0.72381 0.87662 0.0
C675 C 0.275 0.66314 0.8292 0.0
C676 C 0.31536 0.70156 0.8413 0.0
H677 H 0.34088 0.70413 0.86173 0.0
C678 C 0.31915 0.71913 0.84131 0.0
C679 C 0.32343 0.6961 0.84868 0.0
C680 C 0.32049 0.67761 0.84875 0.0
C681 C 0.33052 0.73131 0.84862 0.0
C682 C 0.33846 0.72581 0.85604 0.0
C683 C 0.33474 0.70827 0.85602 0.0
C684 C 0.35045 0.73804 0.86398 0.0
C685 C 0.33362 0.74985 0.84851 0.0
C686 C 0.36664 0.7527 0.86123 0.0
C687 C 0.37768 0.76449 0.86874 0.0
C688 C 0.37275 0.76176 0.87916 0.0
C689 C 0.35663 0.74685 0.88188 0.0
C690 C 0.34562 0.73507 0.87436 0.0
H691 H 0.32365 0.75089 0.8438 0.0
H692 H 0.33333 0.75446 0.85643 0.0
H693 H 0.34681 0.75884 0.84521 0.0
H694 H 0.37073 0.75503 0.85327 0.0
H695 H 0.39013 0.77566 0.86641 0.0
H696 H 0.50543 0.94352 0.12879 0.0
H697 H 0.52072 0.97568 0.12993 0.0
H698 H 0.4852 0.97223 0.15392 0.0
H699 H 0.46985 0.93998 0.15285 0.0
H700 H 0.50679 0.99707 0.12655 0.0
H701 H 0.53319 1.00646 0.16623 0.0
H702 H 0.52458 0.98581 0.15939 0.0
H703 H 0.50981 0.9919 0.1652 0.0
C704 C 0.50086 0.94961 0.13431 0.0
C705 C 0.48641 0.93922 0.14072 0.0
C706 C 0.50966 0.96797 0.13499 0.0
C707 C 0.50424 0.97635 0.14209 0.0
C708 C 0.48986 0.96604 0.14854 0.0
H709 H 0.53906 0.08773 0.15152 0.0
H710 H 0.52354 0.05548 0.15252 0.0
C711 C 0.48108 0.94763 0.14791 0.0
C712 C 0.5132 0.99588 0.14236 0.0
H713 H 0.53697 0.03196 0.15768 0.0
C714 C 0.51342 1.0047 0.13335 0.0
C715 C 0.52176 1.00578 0.15127 0.0
C716 C 0.5225 0.99705 0.16105 0.0
C717 C 0.52196 0.02315 0.13299 0.0
C718 C 0.53069 0.03306 0.14185 0.0
C719 C 0.53026 0.02428 0.15091 0.0
C720 C 0.54065 0.05257 0.14172 0.0
C721 C 0.52144 0.03192 0.12316 0.0
C722 C 0.55564 0.06157 0.13551 0.0
C723 C 0.56459 0.07995 0.13497 0.0
C724 C 0.55874 0.08971 0.14065 0.0
C725 C 0.544 0.08064 0.14711 0.0
C726 C 0.53507 0.06222 0.14766 0.0
H727 H 0.51083 0.02256 0.11793 0.0
H728 H 0.51941 0.04321 0.12479 0.0
H729 H 0.53421 0.03706 0.1191 0.0
H730 H 0.56034 0.05434 0.13101 0.0
H731 H 0.5761 0.08652 0.13009 0.0
H732 H 0.53961 0.46136 0.46186 0.0
H733 H 0.52311 0.4769 0.46306 0.0
H734 H 0.55741 0.50954 0.48737 0.0
H735 H 0.57446 0.49455 0.48595 0.0
H736 H 0.50501 0.48063 0.47939 0.0
H737 H 0.55989 0.54581 0.46697 0.0
H738 H 0.56065 0.52573 0.46553 0.0
H739 H 0.56485 0.53652 0.47782 0.0
C740 C 0.54377 0.47196 0.46739 0.0
C741 C 0.55848 0.47682 0.47373 0.0
C742 C 0.53424 0.48074 0.46812 0.0
C743 C 0.53921 0.49457 0.47518 0.0
C744 C 0.55356 0.49914 0.48173 0.0
H745 H 0.49635 0.56408 0.48625 0.0
H746 H 0.51256 0.54818 0.48776 0.0
C747 C 0.56316 0.4904 0.48099 0.0
C748 C 0.52934 0.50417 0.47563 0.0
H749 H 0.53351 0.54466 0.47213 0.0
C750 C 0.51124 0.49463 0.47781 0.0
C751 C 0.53751 0.52245 0.47358 0.0
C752 C 0.55675 0.53324 0.47075 0.0
C753 C 0.50108 0.50288 0.478 0.0
C754 C 0.50921 0.52109 0.47583 0.0
C755 C 0.52735 0.5307 0.47382 0.0
C756 C 0.49898 0.53027 0.47517 0.0
C757 C 0.48174 0.49207 0.48058 0.0
C758 C 0.48609 0.52553 0.46755 0.0
C759 C 0.47684 0.53456 0.46667 0.0
C760 C 0.48033 0.54855 0.47339 0.0
C761 C 0.49322 0.55324 0.48104 0.0
C762 C 0.50254 0.54424 0.48188 0.0
H763 H 0.47857 0.4797 0.48462 0.0
H764 H 0.47754 0.49971 0.48546 0.0
H765 H 0.47395 0.48844 0.47337 0.0
H766 H 0.48335 0.51498 0.46219 0.0
H767 H 0.46688 0.53053 0.46076 0.0
H768 H 0.9516 0.50087 0.79717 0.0
H769 H 0.98374 0.51674 0.7982 0.0
H770 H 0.98125 0.48043 0.82125 0.0
H771 H 0.94909 0.46404 0.81999 0.0
H772 H 1.006 0.53341 0.81465 0.0
H773 H 1.01427 0.47848 0.79989 0.0
H774 H 0.9937 0.47834 0.79895 0.0
H775 H 1.00017 0.47309 0.8109 0.0
C776 C 0.95788 0.49614 0.8024 0.0
C777 C 0.94776 0.48107 0.80842 0.0
C778 C 0.97625 0.50531 0.80302 0.0
C779 C 0.98489 0.49959 0.80967 0.0
C780 C 0.97485 0.48486 0.81592 0.0
H781 H 0.0974 0.54008 0.81933 0.0
H782 H 0.06522 0.52411 0.82109 0.0
C783 C 0.95646 0.47565 0.81528 0.0
C784 C 1.00441 0.50907 0.80999 0.0
H785 H 0.04006 0.50427 0.8053 0.0
C786 C 1.01345 0.52704 0.81262 0.0
C787 C 1.01409 0.50071 0.80734 0.0
C788 C 1.00511 0.48164 0.80402 0.0
C789 C 0.03193 0.53688 0.81268 0.0
C790 C 0.04159 0.52858 0.80991 0.0
C791 C 0.03258 0.51056 0.80745 0.0
C792 C 0.06104 0.53855 0.80907 0.0
C793 C 0.04099 0.55608 0.81574 0.0
C794 C 0.06928 0.55182 0.80168 0.0
C795 C 0.08759 0.56094 0.80066 0.0
C796 C 0.09803 0.55692 0.807 0.0
C797 C 0.08973 0.54361 0.81441 0.0
C798 C 0.07137 0.53442 0.81539 0.0
H799 H 0.03206 0.55924 0.82014 0.0
H800 H 0.05287 0.55972 0.82046 0.0
H801 H 0.04524 0.56433 0.80873 0.0
H802 H 0.06151 0.55502 0.79662 0.0
H803 H 0.09359 0.57123 0.79494 0.0
H804 H 0.0929 0.56915 0.56939 0.0
H805 H 0.06077 0.55329 0.56828 0.0
H806 H 0.06272 0.52164 0.54345 0.0
H807 H 0.09485 0.53695 0.54478 0.0
H808 H 0.03892 0.54989 0.55212 0.0
H809 H 0.02887 0.48451 0.56354 0.0
H810 H 0.0497 0.50464 0.5651 0.0
H811 H 0.04316 0.49428 0.5527 0.0
C812 C 0.08651 0.55869 0.56376 0.0
C813 C 0.09647 0.55421 0.55724 0.0
C814 C 0.06814 0.54973 0.56309 0.0
C815 C 0.05934 0.53609 0.5559 0.0
C816 C 0.06923 0.53189 0.54919 0.0
H817 H 0.94663 0.46645 0.54481 0.0
H818 H 0.97884 0.48248 0.54322 0.0
C819 C 0.08761 0.54081 0.54988 0.0
C820 C 0.03982 0.52635 0.55548 0.0
H821 H 1.00351 0.48558 0.55867 0.0
C822 C 0.03117 0.53583 0.55354 0.0
C823 C 0.02975 0.50799 0.55732 0.0
C824 C 0.0383 0.49724 0.55988 0.0
C825 C 1.01272 0.52745 0.5534 0.0
C826 C 1.00267 0.50916 0.55538 0.0
C827 C 1.01129 0.49961 0.55713 0.0
C828 C 0.98321 0.49983 0.55611 0.0
C829 C 1.0041 0.53821 0.5511 0.0
C830 C 0.97508 0.50422 0.56394 0.0
C831 C 0.95675 0.49512 0.56486 0.0
C832 C 0.9462 0.48141 0.55799 0.0
C833 C 0.9544 0.47707 0.55015 0.0
C834 C 0.97277 0.48614 0.54926 0.0
H835 H 1.0133 0.55075 0.54718 0.0
H836 H 0.99224 0.53066 0.54622 0.0
H837 H 0.99989 0.54152 0.55842 0.0
H838 H 0.98293 0.51457 0.5694 0.0
H839 H 0.95084 0.49889 0.57093 0.0
H840 H 0.47104 0.94571 0.90523 0.0
H841 H 0.48757 0.97786 0.90414 0.0
H842 H 0.51608 0.97474 0.87798 0.0
H843 H 0.49953 0.94249 0.87901 0.0
H844 H 0.52344 0.9998 0.90583 0.0
H845 H 0.49975 1.00815 0.86791 0.0
H846 H 0.48898 0.98759 0.87484 0.0
H847 H 0.5089 0.99387 0.86781 0.0
C848 C 0.48085 0.95186 0.89925 0.0
C849 C 0.484 0.94156 0.89221 0.0
C850 C 0.49022 0.97023 0.89861 0.0
C851 C 0.5029 0.97869 0.89091 0.0
C852 C 0.50608 0.96847 0.88385 0.0
H853 H 0.57661 0.09037 0.88006 0.0
H854 H 0.56024 0.0581 0.87917 0.0
C855 C 0.49664 0.95006 0.88446 0.0
C856 C 0.51323 0.99822 0.8906 0.0
H857 H 0.52257 0.03395 0.8758 0.0
C858 C 0.52322 1.00726 0.89927 0.0
C859 C 0.51298 1.00792 0.88201 0.0
C860 C 0.50197 0.99893 0.87264 0.0
C861 C 0.53299 0.02574 0.89959 0.0
C862 C 0.53257 0.03543 0.89106 0.0
C863 C 0.52282 0.02643 0.88232 0.0
C864 C 0.54189 0.05493 0.89121 0.0
C865 C 0.5438 0.03477 0.90902 0.0
C866 C 0.5367 0.06378 0.89811 0.0
C867 C 0.54591 0.08218 0.89858 0.0
C868 C 0.5605 0.0921 0.89216 0.0
C869 C 0.56536 0.08316 0.88505 0.0
C870 C 0.55609 0.06473 0.88457 0.0
H871 H 0.54604 0.02562 0.9138 0.0
H872 H 0.55677 0.04619 0.90686 0.0
H873 H 0.53673 0.03976 0.91377 0.0
H874 H 0.52556 0.05644 0.90317 0.0
H875 H 0.54158 0.08863 0.90399 0.0
H876 H 0.50305 0.57064 0.21181 0.0
H877 H 0.51836 0.5539 0.21017 0.0
H878 H 0.48535 0.51838 0.23385 0.0
H879 H 0.46956 0.53459 0.23528 0.0
H880 H 0.53726 0.5486 0.22512 0.0
H881 H 0.48235 0.48443 0.21162 0.0
H882 H 0.48123 0.50441 0.21144 0.0
H883 H 0.47716 0.49213 0.22315 0.0
C884 C 0.49881 0.55905 0.21653 0.0
C885 C 0.48505 0.55394 0.22367 0.0
C886 C 0.50765 0.54958 0.21562 0.0
C887 C 0.50283 0.53475 0.22178 0.0
C888 C 0.48906 0.52956 0.22887 0.0
H889 H 0.54237 0.4659 0.23685 0.0
H890 H 0.5267 0.48227 0.23541 0.0
C891 C 0.48019 0.53899 0.22977 0.0
C892 C 0.5128 0.52526 0.22122 0.0
H893 H 0.50797 0.48444 0.21783 0.0
C894 C 0.53091 0.53462 0.2234 0.0
C895 C 0.50448 0.50701 0.21898 0.0
C896 C 0.48527 0.49643 0.21606 0.0
C897 C 0.54081 0.5261 0.22375 0.0
C898 C 0.53239 0.50778 0.22176 0.0
C899 C 0.51436 0.49848 0.21939 0.0
C900 C 0.54192 0.49791 0.22247 0.0
C901 C 0.56006 0.5366 0.22661 0.0
C902 C 0.55555 0.50118 0.21559 0.0
C903 C 0.56458 0.49188 0.21641 0.0
C904 C 0.56012 0.47917 0.22413 0.0
C905 C 0.54631 0.47581 0.23092 0.0
C906 C 0.53726 0.48505 0.23007 0.0
H907 H 0.56368 0.54973 0.22986 0.0
H908 H 0.5634 0.52935 0.23229 0.0
H909 H 0.56818 0.53869 0.21965 0.0
H910 H 0.55918 0.51091 0.20959 0.0
H911 H 0.5752 0.49483 0.2111 0.0
H912 H 0.58089 0.18409 0.97686 0.0
H913 H 0.58623 0.18879 0.9953 0.0
H914 H 0.64222 0.2141 0.99002 0.0
H915 H 0.63695 0.20894 0.97155 0.0
H916 H 0.63086 0.18784 1.00406 0.0
H917 H 0.60465 0.23166 1.01394 0.0
H918 H 0.58911 0.2127 1.00674 0.0
H919 H 0.60963 0.22854 1.0009 0.0
C920 C 0.59435 0.19081 0.97961 0.0
C921 C 0.60849 0.19605 0.97274 0.0
C922 C 0.5974 0.19369 0.99015 0.0
C923 C 0.61464 0.20201 0.99403 0.0
C924 C 0.62882 0.2078 0.98717 0.0
H925 H 0.63238 0.2172 0.06079 0.0
H926 H 0.63479 0.22337 0.04232 0.0
C927 C 0.62579 0.20492 0.97662 0.0
C928 C 0.61764 0.20286 1.00526 0.0
H929 H 0.60701 0.21495 0.02791 0.0
C930 C 0.62591 0.19404 1.00926 0.0
C931 C 0.61139 0.21112 1.01205 0.0
C932 C 0.60337 0.2217 1.00818 0.0
C933 C 0.62723 0.19242 0.01988 0.0
C934 C 0.61984 0.19959 0.02666 0.0
C935 C 0.61246 0.20928 0.02268 0.0
C936 C 0.61855 0.19606 0.03781 0.0
C937 C 0.63622 0.18277 0.02376 0.0
C938 C 0.60839 0.17871 0.04136 0.0
C939 C 0.60688 0.17515 0.05185 0.0
C940 C 0.61547 0.1889 0.05905 0.0
C941 C 0.62551 0.20633 0.05547 0.0
C942 C 0.62697 0.20988 0.04493 0.0
H943 H 0.64546 0.18265 0.01796 0.0
H944 H 0.64362 0.18885 0.03095 0.0
H945 H 0.62613 0.16888 0.02541 0.0
H946 H 0.60146 0.1679 0.03599 0.0
H947 H 0.59869 0.16164 0.05433 0.0
H948 H 0.46555 0.61609 0.30981 0.0
H949 H 0.4627 0.62003 0.32816 0.0
H950 H 0.40758 0.60241 0.32404 0.0
H951 H 0.41023 0.59809 0.30564 0.0
H952 H 0.44998 0.64083 0.33872 0.0
H953 H 0.40916 0.56859 0.34586 0.0
H954 H 0.4218 0.5773 0.33424 0.0
H955 H 0.40178 0.57776 0.33606 0.0
C956 C 0.4528 0.613 0.31281 0.0
C957 C 0.43806 0.60657 0.30631 0.0
C958 C 0.45124 0.6154 0.32327 0.0
C959 C 0.43491 0.61134 0.32745 0.0
C960 C 0.42026 0.60545 0.32096 0.0
H961 H 0.41298 0.6007 0.3935 0.0
H962 H 0.40917 0.60333 0.3751 0.0
C963 C 0.42182 0.60309 0.31045 0.0
C964 C 0.43327 0.61259 0.33868 0.0
H965 H 0.4177 0.58731 0.3602 0.0
C966 C 0.44275 0.62917 0.34343 0.0
C967 C 0.42373 0.59735 0.34477 0.0
C968 C 0.4136 0.5792 0.34003 0.0
C969 C 0.44335 0.63086 0.35417 0.0
C970 C 0.43457 0.61553 0.36028 0.0
C971 C 0.42444 0.59904 0.3555 0.0
C972 C 0.43698 0.616 0.37156 0.0
C973 C 0.45353 0.64904 0.35885 0.0
C974 C 0.45388 0.62238 0.37568 0.0
C975 C 0.45611 0.621 0.38617 0.0
C976 C 0.44145 0.61304 0.39276 0.0
C977 C 0.42456 0.60709 0.38866 0.0
C978 C 0.42235 0.60849 0.37814 0.0
H979 H 0.45411 0.65921 0.35356 0.0
H980 H 0.44758 0.64983 0.36623 0.0
H981 H 0.46725 0.65222 0.36036 0.0
H982 H 0.46533 0.62786 0.37072 0.0
H983 H 0.4693 0.62587 0.3891 0.0
H984 H 0.82272 0.42555 0.72727 0.0
H985 H 0.81708 0.41931 0.70884 0.0
H986 H 0.87092 0.43214 0.70441 0.0
H987 H 0.8765 0.43785 0.72274 0.0
H988 H 0.83391 0.44213 0.69234 0.0
H989 H 0.84306 0.38428 0.69022 0.0
H990 H 0.83962 0.39252 0.70221 0.0
H991 H 0.86119 0.40272 0.69647 0.0
C992 C 0.83328 0.42683 0.72237 0.0
C993 C 0.85006 0.43222 0.72647 0.0
C994 C 0.83006 0.42334 0.71186 0.0
C995 C 0.8435 0.42497 0.7053 0.0
C996 C 0.86026 0.43044 0.70937 0.0
H997 H 0.87546 0.43365 0.64391 0.0
H998 H 0.87052 0.43164 0.6624 0.0
C999 C 0.86349 0.43395 0.71983 0.0
C1000 C 0.84048 0.42173 0.69413 0.0
H1001 H 0.84616 0.39951 0.6743 0.0
C1002 C 0.8362 0.43257 0.68839 0.0
C1003 C 0.84336 0.40915 0.68902 0.0
C1004 C 0.84688 0.39638 0.69481 0.0
C1005 C 0.83592 0.43195 0.67761 0.0
C1006 C 0.83989 0.42012 0.67251 0.0
C1007 C 0.84324 0.40865 0.67826 0.0
C1008 C 0.84235 0.42064 0.66126 0.0
C1009 C 0.83235 0.44459 0.67172 0.0
C1010 C 0.82806 0.41491 0.65451 0.0
C1011 C 0.8308 0.41584 0.64389 0.0
C1012 C 0.84789 0.42253 0.63986 0.0
C1013 C 0.8621 0.42812 0.64671 0.0
C1014 C 0.85933 0.4271 0.65729 0.0
H1015 H 0.83134 0.45421 0.67683 0.0
H1016 H 0.84299 0.45194 0.66602 0.0
H1017 H 0.81979 0.43707 0.66743 0.0
H1018 H 0.81483 0.4097 0.65746 0.0
H1019 H 0.81955 0.41123 0.63883 0.0
H1020 H 0.40456 0.83646 0.05791 0.0
H1021 H 0.40288 0.83193 0.03929 0.0
H1022 H 0.45189 0.83171 0.03994 0.0
H1023 H 0.45346 0.83592 0.05854 0.0
H1024 H 0.42575 0.85429 0.02565 0.0
H1025 H 0.42308 0.7902 0.02144 0.0
H1026 H 0.41931 0.79779 0.03357 0.0
H1027 H 0.44142 0.8055 0.02911 0.0
C1028 C 0.41485 0.83521 0.05408 0.0
C1029 C 0.42912 0.83651 0.05967 0.0
C1030 C 0.41385 0.83257 0.04346 0.0
C1031 C 0.42712 0.83121 0.03823 0.0
C1032 C 0.44123 0.8322 0.04383 0.0
H1033 H 0.46432 0.84546 0.9761 0.0
H1034 H 0.45952 0.84069 0.99464 0.0
C1035 C 0.44215 0.83468 0.05446 0.0
C1036 C 0.42711 0.83052 0.02685 0.0
H1037 H 0.43112 0.80833 1.00634 0.0
C1038 C 0.42666 0.84408 0.02143 0.0
C1039 C 0.42834 0.81722 0.02134 0.0
C1040 C 0.42789 0.80176 0.02667 0.0
C1041 C 0.42796 0.84504 1.0107 0.0
C1042 C 0.42969 0.83204 1.00524 0.0
C1043 C 0.42985 0.81829 1.01059 0.0
C1044 C 0.43197 0.83302 0.99398 0.0
C1045 C 0.42804 0.86023 1.00527 0.0
C1046 C 0.41795 0.82989 0.98752 0.0
C1047 C 0.42064 0.83262 0.97695 0.0
C1048 C 0.43744 0.83858 0.9727 0.0
C1049 C 0.45129 0.84107 0.97918 0.0
C1050 C 0.44856 0.83824 0.98974 0.0
H1051 H 0.42913 0.87052 1.01071 0.0
H1052 H 0.43915 0.86637 0.99973 0.0
H1053 H 0.41562 0.85526 1.00086 0.0
H1054 H 0.40504 0.82581 0.99069 0.0
H1055 H 0.40975 0.83073 0.97217 0.0
H1056 H 0.63086 0.44872 0.39081 0.0
H1057 H 0.63343 0.44725 0.37217 0.0
H1058 H 0.5861 0.39623 0.37165 0.0
H1059 H 0.58328 0.39778 0.39029 0.0
H1060 H 0.63625 0.4242 0.35909 0.0
H1061 H 0.57385 0.42418 0.3521 0.0
H1062 H 0.58418 0.42872 0.36456 0.0
H1063 H 0.57137 0.40637 0.36001 0.0
C1064 C 0.62112 0.43709 0.38673 0.0
C1065 C 0.60677 0.42343 0.39198 0.0
C1066 C 0.62259 0.43629 0.37609 0.0
C1067 C 0.60976 0.4218 0.3705 0.0
C1068 C 0.59589 0.40774 0.37578 0.0
H1069 H 0.59387 0.40431 0.30452 0.0
H1070 H 0.59375 0.39964 0.32305 0.0
C1071 C 0.59432 0.40862 0.38642 0.0
C1072 C 0.6106 0.42181 0.35914 0.0
H1073 H 0.58829 0.42126 0.33757 0.0
C1074 C 0.62575 0.42351 0.35438 0.0
C1075 C 0.59691 0.42099 0.35301 0.0
C1076 C 0.58073 0.42013 0.35766 0.0
C1077 C 0.62755 0.4244 0.34364 0.0
C1078 C 0.61391 0.42368 0.33756 0.0
C1079 C 0.59866 0.42169 0.34229 0.0
C1080 C 0.61543 0.42583 0.32628 0.0
C1081 C 0.64399 0.42608 0.33888 0.0
C1082 C 0.62775 0.44207 0.32199 0.0
C1083 C 0.62783 0.4448 0.31142 0.0
C1084 C 0.61558 0.43131 0.30497 0.0
C1085 C 0.60361 0.41488 0.30927 0.0
C1086 C 0.60347 0.41221 0.31985 0.0
H1087 H 0.65122 0.42229 0.34432 0.0
H1088 H 0.64073 0.41773 0.33188 0.0
H1089 H 0.65288 0.43998 0.33659 0.0
H1090 H 0.63691 0.45283 0.32685 0.0
H1091 H 0.63727 0.45755 0.30832 0.0
H1092 H 0.19864 0.62492 0.72392 0.0
H1093 H 0.20268 0.62729 0.7053 0.0
H1094 H 0.20633 0.58007 0.70496 0.0
H1095 H 0.20195 0.57744 0.7236 0.0
H1096 H 0.22853 0.63014 0.6923 0.0
H1097 H 0.16606 0.56732 0.6853 0.0
H1098 H 0.17187 0.57779 0.69775 0.0
H1099 H 0.18146 0.56506 0.69325 0.0
C1100 C 0.20052 0.61516 0.71989 0.0
C1101 C 0.19982 0.6009 0.72519 0.0
C1102 C 0.20279 0.61651 0.70925 0.0
C1103 C 0.20444 0.60366 0.70372 0.0
C1104 C 0.20461 0.58987 0.70905 0.0
H1105 H 0.20581 0.58719 0.63776 0.0
H1106 H 0.21053 0.58731 0.65629 0.0
C1107 C 0.20216 0.58841 0.71968 0.0
C1108 C 0.20526 0.60437 0.69235 0.0
H1109 H 0.1834 0.58172 0.67079 0.0
C1110 C 0.2187 0.61954 0.68759 0.0
C1111 C 0.19235 0.59054 0.68622 0.0
C1112 C 0.17703 0.57433 0.69087 0.0
C1113 C 0.21957 0.62124 0.67685 0.0
C1114 C 0.20662 0.60746 0.67077 0.0
C1115 C 0.19337 0.59219 0.67551 0.0
C1116 C 0.20592 0.60887 0.65949 0.0
C1117 C 0.23432 0.63771 0.67208 0.0
C1118 C 0.20191 0.62105 0.65518 0.0
C1119 C 0.19916 0.62098 0.64461 0.0
C1120 C 0.20039 0.60873 0.63818 0.0
C1121 C 0.20497 0.59692 0.6425 0.0
C1122 C 0.2076 0.59692 0.65307 0.0
H1123 H 0.24539 0.64508 0.67754 0.0
H1124 H 0.23941 0.63445 0.6651 0.0
H1125 H 0.22924 0.64649 0.66977 0.0
H1126 H 0.20029 0.63019 0.66003 0.0
H1127 H 0.19575 0.6303 0.64149 0.0
loop_
_geom_bond_atom_site_label_1
_geom_bond_atom_site_label_2
_geom_bond_distance
_geom_bond_site_symmetry_2
_ccdc_geom_bond_type
C0 C1 1.264 . S
C0 C5 1.479 . S
C0 C10 1.465 . S
C1 C0 1.264 . S
C1 C3 1.339 . S
C1 H28 0.931 . S
C2 C3 1.395 . S
C2 C4 1.320 . S
C3 C1 1.339 . S
C3 C2 1.395 . S
C3 H29 0.929 . S
C4 C2 1.320 . S
C4 C5 1.405 . S
C4 H30 0.930 . S
C5 C0 1.479 . S
C5 C4 1.405 . S
C5 H31 0.931 . S
U6 O7 2.454 . S
U6 O8 2.458 . S
U6 C9 2.984 . S
U6 C10 2.847 . S
U6 C23 2.882 . S
U6 O24 2.441 . S
U6 O25 2.420 . S
U6 O26 2.455 . S
U6 O27 2.449 . S
O7 U6 2.454 . S
O7 C9 1.353 . S
O8 U6 2.458 . S
O8 C9 1.286 . S
C9 U6 2.984 . S
C9 O7 1.353 . S
C9 O8 1.286 . S
C9 C11 1.363 . S
C10 C0 1.465 . S
C10 U6 2.847 . S
C10 O24 1.249 . S
C10 O25 1.202 . S
C11 C9 1.363 . S
C11 C13 1.408 . S
C11 C16 1.342 . S
C12 C13 1.310 . S
C12 C15 1.461 . S
C12 H32 0.932 . S
C13 C11 1.408 . S
C13 C12 1.310 . S
C13 H33 0.930 . S
C14 C15 1.474 . S
C14 C16 1.285 . S
C14 H34 0.929 . S
C15 C12 1.461 . S
C15 C14 1.474 . S
C16 C11 1.342 . S
C16 C14 1.285 . S
C16 H35 0.930 . S
C17 C20 1.424 . S
C17 C22 1.245 . S
C17 C23 1.428 . S
C18 C21 1.260 . S
C18 C22 1.477 . S
C18 H36 0.932 . S
C19 C20 1.384 . S
C19 C21 1.479 . S
C19 H37 0.929 . S
C20 C17 1.424 . S
C20 C19 1.384 . S
C20 H38 0.928 . S
C21 C18 1.260 . S
C21 C19 1.479 . S
C22 C17 1.245 . S
C22 C18 1.477 . S
C22 H39 0.932 . S
C23 U6 2.882 . S
C23 C17 1.428 . S
C23 O26 1.301 . S
C23 O27 1.282 . S
O24 U6 2.441 . S
O24 C10 1.249 . S
O25 U6 2.420 . S
O25 C10 1.202 . S
O26 U6 2.455 . S
O26 C23 1.301 . S
O27 U6 2.449 . S
O27 C23 1.282 . S
H28 C1 0.931 . S
H29 C3 0.929 . S
H30 C4 0.930 . S
H31 C5 0.931 . S
H32 C12 0.932 . S
H33 C13 0.930 . S
H34 C14 0.929 . S
H35 C16 0.930 . S
H36 C18 0.932 . S
H37 C19 0.929 . S
H38 C20 0.928 . S
H39 C22 0.932 . S
C40 C41 1.264 . S
C40 C45 1.479 . S
C40 C50 1.465 . S
C41 C40 1.264 . S
C41 C43 1.339 . S
C41 H68 0.931 . S
C42 C43 1.395 . S
C42 C44 1.320 . S
C43 C41 1.339 . S
C43 C42 1.395 . S
C43 H69 0.929 . S
C44 C42 1.320 . S
C44 C45 1.405 . S
C44 H70 0.930 . S
C45 C40 1.479 . S
C45 C44 1.405 . S
C45 H71 0.931 . S
U46 O47 2.454 . S
U46 O48 2.458 . S
U46 C49 2.984 . S
U46 C50 2.847 . S
U46 C63 2.882 . S
U46 O64 2.441 . S
U46 O65 2.420 . S
U46 O66 2.455 . S
U46 O67 2.449 . S
O47 U46 2.454 . S
O47 C49 1.353 . S
O48 U46 2.458 . S
O48 C49 1.286 . S
C49 U46 2.984 . S
C49 O47 1.353 . S
C49 O48 1.286 . S
C49 C51 1.363 . S
C50 C40 1.465 . S
C50 U46 2.847 . S
C50 O64 1.249 . S
C50 O65 1.202 . S
C51 C49 1.363 . S
C51 C53 1.408 . S
C51 C56 1.342 . S
C52 C53 1.310 . S
C52 C55 1.461 . S
C52 H72 0.932 . S
C53 C51 1.408 . S
C53 C52 1.310 . S
C53 H73 0.930 . S
C54 C55 1.474 . S
C54 C56 1.285 . S
C54 H74 0.929 . S
C55 C52 1.461 . S
C55 C54 1.474 . S
C56 C51 1.342 . S
C56 C54 1.285 . S
C56 H75 0.930 . S
C57 C60 1.424 . S
C57 C62 1.245 . S
C57 C63 1.428 . S
C58 C61 1.260 . S
C58 C62 1.477 . S
C58 H76 0.932 . S
C59 C60 1.384 . S
C59 C61 1.479 . S
C59 H77 0.929 . S
C60 C57 1.424 . S
C60 C59 1.384 . S
C60 H78 0.928 . S
C61 C58 1.260 . S
C61 C59 1.479 . S
C62 C57 1.245 . S
C62 C58 1.477 . S
C62 H79 0.932 . S
C63 U46 2.882 . S
C63 C57 1.428 . S
C63 O66 1.301 . S
C63 O67 1.282 . S
O64 U46 2.441 . S
O64 C50 1.249 . S
O65 U46 2.420 . S
O65 C50 1.202 . S
O66 U46 2.455 . S
O66 C63 1.301 . S
O67 U46 2.449 . S
O67 C63 1.282 . S
H68 C41 0.931 . S
H69 C43 0.929 . S
H70 C44 0.930 . S
H71 C45 0.931 . S
H72 C52 0.932 . S
H73 C53 0.930 . S
H74 C54 0.929 . S
H75 C56 0.930 . S
H76 C58 0.932 . S
H77 C59 0.929 . S
H78 C60 0.928 . S
H79 C62 0.932 . S
C80 C81 1.264 . S
C80 C85 1.479 . S
C80 C90 1.465 . S
C81 C80 1.264 . S
C81 C83 1.339 . S
C81 H108 0.931 . S
C82 C83 1.395 . S
C82 C84 1.320 . S
C83 C81 1.339 . S
C83 C82 1.395 . S
C83 H109 0.929 . S
C84 C82 1.320 . S
C84 C85 1.405 . S
C84 H110 0.930 . S
C85 C80 1.479 . S
C85 C84 1.405 . S
C85 H111 0.931 . S
U86 O87 2.454 . S
U86 O88 2.458 . S
U86 C89 2.984 . S
U86 C90 2.847 . S
U86 C103 2.882 . S
U86 O104 2.441 . S
U86 O105 2.420 . S
U86 O106 2.455 . S
U86 O107 2.449 . S
O87 U86 2.454 . S
O87 C89 1.353 . S
O88 U86 2.458 . S
O88 C89 1.286 . S
C89 U86 2.984 . S
C89 O87 1.353 . S
C89 O88 1.286 . S
C89 C91 1.363 . S
C90 C80 1.465 . S
C90 U86 2.847 . S
C90 O104 1.249 . S
C90 O105 1.202 . S
C91 C89 1.363 . S
C91 C93 1.408 . S
C91 C96 1.342 . S
C92 C93 1.310 . S
C92 C95 1.461 . S
C92 H112 0.932 . S
C93 C91 1.408 . S
C93 C92 1.310 . S
C93 H113 0.930 . S
C94 C95 1.474 . S
C94 C96 1.285 . S
C94 H114 0.929 . S
C95 C92 1.461 . S
C95 C94 1.474 . S
C96 C91 1.342 . S
C96 C94 1.285 . S
C96 H115 0.930 . S
C97 C100 1.424 . S
C97 C102 1.245 . S
C97 C103 1.428 . S
C98 C101 1.260 . S
C98 C102 1.477 . S
C98 H116 0.932 . S
C99 C100 1.384 . S
C99 C101 1.479 . S
C99 H117 0.929 . S
C100 C97 1.424 . S
C100 C99 1.384 . S
C100 H118 0.928 . S
C101 C98 1.260 . S
C101 C99 1.479 . S
C102 C97 1.245 . S
C102 C98 1.477 . S
C102 H119 0.932 . S
C103 U86 2.882 . S
C103 C97 1.428 . S
C103 O106 1.301 . S
C103 O107 1.282 . S
O104 U86 2.441 . S
O104 C90 1.249 . S
O105 U86 2.420 . S
O105 C90 1.202 . S
O106 U86 2.455 . S
O106 C103 1.301 . S
O107 U86 2.449 . S
O107 C103 1.282 . S
H108 C81 0.931 . S
H109 C83 0.929 . S
H110 C84 0.930 . S
H111 C85 0.931 . S
H112 C92 0.932 . S
H113 C93 0.930 . S
H114 C94 0.929 . S
H115 C96 0.930 . S
H116 C98 0.932 . S
H117 C99 0.929 . S
H118 C100 0.928 . S
H119 C102 0.932 . S
C120 C121 1.264 . S
C120 C125 1.479 . S
C120 C130 1.465 . S
C121 C120 1.264 . S
C121 C123 1.339 . S
C121 H148 0.931 . S
C122 C123 1.395 . S
C122 C124 1.320 . S
C123 C121 1.339 . S
C123 C122 1.395 . S
C123 H149 0.929 . S
C124 C122 1.320 . S
C124 C125 1.405 . S
C124 H150 0.930 . S
C125 C120 1.479 . S
C125 C124 1.405 . S
C125 H151 0.931 . S
U126 O127 2.454 . S
U126 O128 2.458 . S
U126 C129 2.984 . S
U126 C130 2.847 . S
U126 C143 2.882 . S
U126 O144 2.441 . S
U126 O145 2.420 . S
U126 O146 2.455 . S
U126 O147 2.449 . S
O127 U126 2.454 . S
O127 C129 1.353 . S
O128 U126 2.458 . S
O128 C129 1.286 . S
C129 U126 2.984 . S
C129 O127 1.353 . S
C129 O128 1.286 . S
C129 C131 1.363 . S
C130 C120 1.465 . S
C130 U126 2.847 . S
C130 O144 1.249 . S
C130 O145 1.202 . S
C131 C129 1.363 . S
C131 C133 1.408 . S
C131 C136 1.342 . S
C132 C133 1.310 . S
C132 C135 1.461 . S
C132 H152 0.932 . S
C133 C131 1.408 . S
C133 C132 1.310 . S
C133 H153 0.930 . S
C134 C135 1.474 . S
C134 C136 1.285 . S
C134 H154 0.929 . S
C135 C132 1.461 . S
C135 C134 1.474 . S
C136 C131 1.342 . S
C136 C134 1.285 . S
C136 H155 0.930 . S
C137 C140 1.424 . S
C137 C142 1.245 . S
C137 C143 1.428 . S
C138 C141 1.260 . S
C138 C142 1.477 . S
C138 H156 0.932 . S
C139 C140 1.384 . S
C139 C141 1.479 . S
C139 H157 0.929 . S
C140 C137 1.424 . S
C140 C139 1.384 . S
C140 H158 0.928 . S
C141 C138 1.260 . S
C141 C139 1.479 . S
C142 C137 1.245 . S
C142 C138 1.477 . S
C142 H159 0.932 . S
C143 U126 2.882 . S
C143 C137 1.428 . S
C143 O146 1.301 . S
C143 O147 1.282 . S
O144 U126 2.441 . S
O144 C130 1.249 . S
O145 U126 2.420 . S
O145 C130 1.202 . S
O146 U126 2.455 . S
O146 C143 1.301 . S
O147 U126 2.449 . S
O147 C143 1.282 . S
H148 C121 0.931 . S
H149 C123 0.929 . S
H150 C124 0.930 . S
H151 C125 0.931 . S
H152 C132 0.932 . S
H153 C133 0.930 . S
H154 C134 0.929 . S
H155 C136 0.930 . S
H156 C138 0.932 . S
H157 C139 0.929 . S
H158 C140 0.928 . S
H159 C142 0.932 . S
C160 C161 1.264 . S
C160 C165 1.479 . S
C160 C170 1.465 . S
C161 C160 1.264 . S
C161 C163 1.339 . S
C161 H188 0.931 . S
C162 C163 1.395 . S
C162 C164 1.320 . S
C163 C161 1.339 . S
C163 C162 1.395 . S
C163 H189 0.929 . S
C164 C162 1.320 . S
C164 C165 1.405 . S
C164 H190 0.930 . S
C165 C160 1.479 . S
C165 C164 1.405 . S
C165 H191 0.931 . S
U166 O167 2.454 . S
U166 O168 2.458 . S
U166 C169 2.984 . S
U166 C170 2.847 . S
U166 C183 2.882 . S
U166 O184 2.441 . S
U166 O185 2.420 . S
U166 O186 2.455 . S
U166 O187 2.449 . S
O167 U166 2.454 . S
O167 C169 1.353 . S
O168 U166 2.458 . S
O168 C169 1.286 . S
C169 U166 2.984 . S
C169 O167 1.353 . S
C169 O168 1.286 . S
C169 C171 1.363 . S
C170 C160 1.465 . S
C170 U166 2.847 . S
C170 O184 1.249 . S
C170 O185 1.202 . S
C171 C169 1.363 . S
C171 C173 1.408 . S
C171 C176 1.342 . S
C172 C173 1.310 . S
C172 C175 1.461 . S
C172 H192 0.932 . S
C173 C171 1.408 . S
C173 C172 1.310 . S
C173 H193 0.930 . S
C174 C175 1.474 . S
C174 C176 1.285 . S
C174 H194 0.929 . S
C175 C172 1.461 . S
C175 C174 1.474 . S
C176 C171 1.342 . S
C176 C174 1.285 . S
C176 H195 0.930 . S
C177 C180 1.424 . S
C177 C182 1.245 . S
C177 C183 1.428 . S
C178 C181 1.260 . S
C178 C182 1.477 . S
C178 H196 0.932 . S
C179 C180 1.384 . S
C179 C181 1.479 . S
C179 H197 0.929 . S
C180 C177 1.424 . S
C180 C179 1.384 . S
C180 H198 0.928 . S
C181 C178 1.260 . S
C181 C179 1.479 . S
C182 C177 1.245 . S
C182 C178 1.477 . S
C182 H199 0.932 . S
C183 U166 2.882 . S
C183 C177 1.428 . S
C183 O186 1.301 . S
C183 O187 1.282 . S
O184 U166 2.441 . S
O184 C170 1.249 . S
O185 U166 2.420 . S
O185 C170 1.202 . S
O186 U166 2.455 . S
O186 C183 1.301 . S
O187 U166 2.449 . S
O187 C183 1.282 . S
H188 C161 0.931 . S
H189 C163 0.929 . S
H190 C164 0.930 . S
H191 C165 0.931 . S
H192 C172 0.932 . S
H193 C173 0.930 . S
H194 C174 0.929 . S
H195 C176 0.930 . S
H196 C178 0.932 . S
H197 C179 0.929 . S
H198 C180 0.928 . S
H199 C182 0.932 . S
C200 C201 1.264 . S
C200 C205 1.479 . S
C200 C210 1.465 . S
C201 C200 1.264 . S
C201 C203 1.339 . S
C201 H228 0.931 . S
C202 C203 1.395 . S
C202 C204 1.320 . S
C203 C201 1.339 . S
C203 C202 1.395 . S
C203 H229 0.929 . S
C204 C202 1.320 . S
C204 C205 1.405 . S
C204 H230 0.930 . S
C205 C200 1.479 . S
C205 C204 1.405 . S
C205 H231 0.931 . S
U206 O207 2.454 . S
U206 O208 2.458 . S
U206 C209 2.984 . S
U206 C210 2.847 . S
U206 C223 2.882 . S
U206 O224 2.441 . S
U206 O225 2.420 . S
U206 O226 2.455 . S
U206 O227 2.449 . S
O207 U206 2.454 . S
O207 C209 1.353 . S
O208 U206 2.458 . S
O208 C209 1.286 . S
C209 U206 2.984 . S
C209 O207 1.353 . S
C209 O208 1.286 . S
C209 C211 1.363 . S
C210 C200 1.465 . S
C210 U206 2.847 . S
C210 O224 1.249 . S
C210 O225 1.202 . S
C211 C209 1.363 . S
C211 C213 1.408 . S
C211 C216 1.342 . S
C212 C213 1.310 . S
C212 C215 1.461 . S
C212 H232 0.932 . S
C213 C211 1.408 . S
C213 C212 1.310 . S
C213 H233 0.930 . S
C214 C215 1.474 . S
C214 C216 1.285 . S
C214 H234 0.929 . S
C215 C212 1.461 . S
C215 C214 1.474 . S
C216 C211 1.342 . S
C216 C214 1.285 . S
C216 H235 0.930 . S
C217 C220 1.424 . S
C217 C222 1.245 . S
C217 C223 1.428 . S
C218 C221 1.260 . S
C218 C222 1.477 . S
C218 H236 0.932 . S
C219 C220 1.384 . S
C219 C221 1.479 . S
C219 H237 0.929 . S
C220 C217 1.424 . S
C220 C219 1.384 . S
C220 H238 0.928 . S
C221 C218 1.260 . S
C221 C219 1.479 . S
C222 C217 1.245 . S
C222 C218 1.477 . S
C222 H239 0.932 . S
C223 U206 2.882 . S
C223 C217 1.428 . S
C223 O226 1.301 . S
C223 O227 1.282 . S
O224 U206 2.441 . S
O224 C210 1.249 . S
O225 U206 2.420 . S
O225 C210 1.202 . S
O226 U206 2.455 . S
O226 C223 1.301 . S
O227 U206 2.449 . S
O227 C223 1.282 . S
H228 C201 0.931 . S
H229 C203 0.929 . S
H230 C204 0.930 . S
H231 C205 0.931 . S
H232 C212 0.932 . S
H233 C213 0.930 . S
H234 C214 0.929 . S
H235 C216 0.930 . S
H236 C218 0.932 . S
H237 C219 0.929 . S
H238 C220 0.928 . S
H239 C222 0.932 . S
C240 C241 1.264 . S
C240 C245 1.479 . S
C240 C250 1.465 . S
C241 C240 1.264 . S
C241 C243 1.339 . S
C241 H268 0.931 . S
C242 C243 1.395 . S
C242 C244 1.320 . S
C243 C241 1.339 . S
C243 C242 1.395 . S
C243 H269 0.929 . S
C244 C242 1.320 . S
C244 C245 1.405 . S
C244 H270 0.930 . S
C245 C240 1.479 . S
C245 C244 1.405 . S
C245 H271 0.931 . S
U246 O247 2.454 . S
U246 O248 2.458 . S
U246 C249 2.984 . S
U246 C250 2.847 . S
U246 C263 2.882 . S
U246 O264 2.441 . S
U246 O265 2.420 . S
U246 O266 2.455 . S
U246 O267 2.449 . S
O247 U246 2.454 . S
O247 C249 1.353 . S
O248 U246 2.458 . S
O248 C249 1.286 . S
C249 U246 2.984 . S
C249 O247 1.353 . S
C249 O248 1.286 . S
C249 C251 1.363 . S
C250 C240 1.465 . S
C250 U246 2.847 . S
C250 O264 1.249 . S
C250 O265 1.202 . S
C251 C249 1.363 . S
C251 C253 1.408 . S
C251 C256 1.342 . S
C252 C253 1.310 . S
C252 C255 1.461 . S
C252 H272 0.932 . S
C253 C251 1.408 . S
C253 C252 1.310 . S
C253 H273 0.930 . S
C254 C255 1.474 . S
C254 C256 1.285 . S
C254 H274 0.929 . S
C255 C252 1.461 . S
C255 C254 1.474 . S
C256 C251 1.342 . S
C256 C254 1.285 . S
C256 H275 0.930 . S
C257 C260 1.424 . S
C257 C262 1.245 . S
C257 C263 1.428 . S
C258 C261 1.260 . S
C258 C262 1.477 . S
C258 H276 0.932 . S
C259 C260 1.384 . S
C259 C261 1.479 . S
C259 H277 0.929 . S
C260 C257 1.424 . S
C260 C259 1.384 . S
C260 H278 0.928 . S
C261 C258 1.260 . S
C261 C259 1.479 . S
C262 C257 1.245 . S
C262 C258 1.477 . S
C262 H279 0.932 . S
C263 U246 2.882 . S
C263 C257 1.428 . S
C263 O266 1.301 . S
C263 O267 1.282 . S
O264 U246 2.441 . S
O264 C250 1.249 . S
O265 U246 2.420 . S
O265 C250 1.202 . S
O266 U246 2.455 . S
O266 C263 1.301 . S
O267 U246 2.449 . S
O267 C263 1.282 . S
H268 C241 0.931 . S
H269 C243 0.929 . S
H270 C244 0.930 . S
H271 C245 0.931 . S
H272 C252 0.932 . S
H273 C253 0.930 . S
H274 C254 0.929 . S
H275 C256 0.930 . S
H276 C258 0.932 . S
H277 C259 0.929 . S
H278 C260 0.928 . S
H279 C262 0.932 . S
C280 C281 1.264 . S
C280 C285 1.479 . S
C280 C290 1.465 . S
C281 C280 1.264 . S
C281 C283 1.339 . S
C281 H308 0.931 . S
C282 C283 1.395 . S
C282 C284 1.320 . S
C283 C281 1.339 . S
C283 C282 1.395 . S
C283 H309 0.929 . S
C284 C282 1.320 . S
C284 C285 1.405 . S
C284 H310 0.930 . S
C285 C280 1.479 . S
C285 C284 1.405 . S
C285 H311 0.931 . S
U286 O287 2.454 . S
U286 O288 2.458 . S
U286 C289 2.984 . S
U286 C290 2.847 . S
U286 C303 2.882 . S
U286 O304 2.441 . S
U286 O305 2.420 . S
U286 O306 2.455 . S
U286 O307 2.449 . S
O287 U286 2.454 . S
O287 C289 1.353 . S
O288 U286 2.458 . S
O288 C289 1.286 . S
C289 U286 2.984 . S
C289 O287 1.353 . S
C289 O288 1.286 . S
C289 C291 1.363 . S
C290 C280 1.465 . S
C290 U286 2.847 . S
C290 O304 1.249 . S
C290 O305 1.202 . S
C291 C289 1.363 . S
C291 C293 1.408 . S
C291 C296 1.342 . S
C292 C293 1.310 . S
C292 C295 1.461 . S
C292 H312 0.932 . S
C293 C291 1.408 . S
C293 C292 1.310 . S
C293 H313 0.930 . S
C294 C295 1.474 . S
C294 C296 1.285 . S
C294 H314 0.929 . S
C295 C292 1.461 . S
C295 C294 1.474 . S
C296 C291 1.342 . S
C296 C294 1.285 . S
C296 H315 0.930 . S
C297 C300 1.424 . S
C297 C302 1.245 . S
C297 C303 1.428 . S
C298 C301 1.260 . S
C298 C302 1.477 . S
C298 H316 0.932 . S
C299 C300 1.384 . S
C299 C301 1.479 . S
C299 H317 0.929 . S
C300 C297 1.424 . S
C300 C299 1.384 . S
C300 H318 0.928 . S
C301 C298 1.260 . S
C301 C299 1.479 . S
C302 C297 1.245 . S
C302 C298 1.477 . S
C302 H319 0.932 . S
C303 U286 2.882 . S
C303 C297 1.428 . S
C303 O306 1.301 . S
C303 O307 1.282 . S
O304 U286 2.441 . S
O304 C290 1.249 . S
O305 U286 2.420 . S
O305 C290 1.202 . S
O306 U286 2.455 . S
O306 C303 1.301 . S
O307 U286 2.449 . S
O307 C303 1.282 . S
H308 C281 0.931 . S
H309 C283 0.929 . S
H310 C284 0.930 . S
H311 C285 0.931 . S
H312 C292 0.932 . S
H313 C293 0.930 . S
H314 C294 0.929 . S
H315 C296 0.930 . S
H316 C298 0.932 . S
H317 C299 0.929 . S
H318 C300 0.928 . S
H319 C302 0.932 . S
C320 C321 1.264 . S
C320 C325 1.479 . S
C320 C330 1.465 . S
C321 C320 1.264 . S
C321 C323 1.339 . S
C321 H348 0.931 . S
C322 C323 1.395 . S
C322 C324 1.320 . S
C323 C321 1.339 . S
C323 C322 1.395 . S
C323 H349 0.929 . S
C324 C322 1.320 . S
C324 C325 1.405 . S
C324 H350 0.930 . S
C325 C320 1.479 . S
C325 C324 1.405 . S
C325 H351 0.931 . S
U326 O327 2.454 . S
U326 O328 2.458 . S
U326 C329 2.984 . S
U326 C330 2.847 . S
U326 C343 2.882 . S
U326 O344 2.441 . S
U326 O345 2.420 . S
U326 O346 2.455 . S
U326 O347 2.449 . S
O327 U326 2.454 . S
O327 C329 1.353 . S
O328 U326 2.458 . S
O328 C329 1.286 . S
C329 U326 2.984 . S
C329 O327 1.353 . S
C329 O328 1.286 . S
C329 C331 1.363 . S
C330 C320 1.465 . S
C330 U326 2.847 . S
C330 O344 1.249 . S
C330 O345 1.202 . S
C331 C329 1.363 . S
C331 C333 1.408 . S
C331 C336 1.342 . S
C332 C333 1.310 . S
C332 C335 1.461 . S
C332 H352 0.932 . S
C333 C331 1.408 . S
C333 C332 1.310 . S
C333 H353 0.930 . S
C334 C335 1.474 . S
C334 C336 1.285 . S
C334 H354 0.929 . S
C335 C332 1.461 . S
C335 C334 1.474 . S
C336 C331 1.342 . S
C336 C334 1.285 . S
C336 H355 0.930 . S
C337 C340 1.424 . S
C337 C342 1.245 . S
C337 C343 1.428 . S
C338 C341 1.260 . S
C338 C342 1.477 . S
C338 H356 0.932 . S
C339 C340 1.384 . S
C339 C341 1.479 . S
C339 H357 0.929 . S
C340 C337 1.424 . S
C340 C339 1.384 . S
C340 H358 0.928 . S
C341 C338 1.260 . S
C341 C339 1.479 . S
C342 C337 1.245 . S
C342 C338 1.477 . S
C342 H359 0.932 . S
C343 U326 2.882 . S
C343 C337 1.428 . S
C343 O346 1.301 . S
C343 O347 1.282 . S
O344 U326 2.441 . S
O344 C330 1.249 . S
O345 U326 2.420 . S
O345 C330 1.202 . S
O346 U326 2.455 . S
O346 C343 1.301 . S
O347 U326 2.449 . S
O347 C343 1.282 . S
H348 C321 0.931 . S
H349 C323 0.929 . S
H350 C324 0.930 . S
H351 C325 0.931 . S
H352 C332 0.932 . S
H353 C333 0.930 . S
H354 C334 0.929 . S
H355 C336 0.930 . S
H356 C338 0.932 . S
H357 C339 0.929 . S
H358 C340 0.928 . S
H359 C342 0.932 . S
C360 C361 1.264 . S
C360 C365 1.479 . S
C360 C370 1.465 . S
C361 C360 1.264 . S
C361 C363 1.339 . S
C361 H388 0.931 . S
C362 C363 1.395 . S
C362 C364 1.320 . S
C363 C361 1.339 . S
C363 C362 1.395 . S
C363 H389 0.929 . S
C364 C362 1.320 . S
C364 C365 1.405 . S
C364 H390 0.930 . S
C365 C360 1.479 . S
C365 C364 1.405 . S
C365 H391 0.931 . S
U366 O367 2.454 . S
U366 O368 2.458 . S
U366 C369 2.984 . S
U366 C370 2.847 . S
U366 C383 2.882 . S
U366 O384 2.441 . S
U366 O385 2.420 . S
U366 O386 2.455 . S
U366 O387 2.449 . S
O367 U366 2.454 . S
O367 C369 1.353 . S
O368 U366 2.458 . S
O368 C369 1.286 . S
C369 U366 2.984 . S
C369 O367 1.353 . S
C369 O368 1.286 . S
C369 C371 1.363 . S
C370 C360 1.465 . S
C370 U366 2.847 . S
C370 O384 1.249 . S
C370 O385 1.202 . S
C371 C369 1.363 . S
C371 C373 1.408 . S
C371 C376 1.342 . S
C372 C373 1.310 . S
C372 C375 1.461 . S
C372 H392 0.932 . S
C373 C371 1.408 . S
C373 C372 1.310 . S
C373 H393 0.930 . S
C374 C375 1.474 . S
C374 C376 1.285 . S
C374 H394 0.929 . S
C375 C372 1.461 . S
C375 C374 1.474 . S
C376 C371 1.342 . S
C376 C374 1.285 . S
C376 H395 0.930 . S
C377 C380 1.424 . S
C377 C382 1.245 . S
C377 C383 1.428 . S
C378 C381 1.260 . S
C378 C382 1.477 . S
C378 H396 0.932 . S
C379 C380 1.384 . S
C379 C381 1.479 . S
C379 H397 0.929 . S
C380 C377 1.424 . S
C380 C379 1.384 . S
C380 H398 0.928 . S
C381 C378 1.260 . S
C381 C379 1.479 . S
C382 C377 1.245 . S
C382 C378 1.477 . S
C382 H399 0.932 . S
C383 U366 2.882 . S
C383 C377 1.428 . S
C383 O386 1.301 . S
C383 O387 1.282 . S
O384 U366 2.441 . S
O384 C370 1.249 . S
O385 U366 2.420 . S
O385 C370 1.202 . S
O386 U366 2.455 . S
O386 C383 1.301 . S
O387 U366 2.449 . S
O387 C383 1.282 . S
H388 C361 0.931 . S
H389 C363 0.929 . S
H390 C364 0.930 . S
H391 C365 0.931 . S
H392 C372 0.932 . S
H393 C373 0.930 . S
H394 C374 0.929 . S
H395 C376 0.930 . S
H396 C378 0.932 . S
H397 C379 0.929 . S
H398 C380 0.928 . S
H399 C382 0.932 . S
C400 C401 1.264 . S
C400 C405 1.479 . S
C400 C410 1.465 . S
C401 C400 1.264 . S
C401 C403 1.339 . S
C401 H428 0.931 . S
C402 C403 1.395 . S
C402 C404 1.320 . S
C403 C401 1.339 . S
C403 C402 1.395 . S
C403 H429 0.929 . S
C404 C402 1.320 . S
C404 C405 1.405 . S
C404 H430 0.930 . S
C405 C400 1.479 . S
C405 C404 1.405 . S
C405 H431 0.931 . S
U406 O407 2.454 . S
U406 O408 2.458 . S
U406 C409 2.984 . S
U406 C410 2.847 . S
U406 C423 2.882 . S
U406 O424 2.441 . S
U406 O425 2.420 . S
U406 O426 2.455 . S
U406 O427 2.449 . S
O407 U406 2.454 . S
O407 C409 1.353 . S
O408 U406 2.458 . S
O408 C409 1.286 . S
C409 U406 2.984 . S
C409 O407 1.353 . S
C409 O408 1.286 . S
C409 C411 1.363 . S
C410 C400 1.465 . S
C410 U406 2.847 . S
C410 O424 1.249 . S
C410 O425 1.202 . S
C411 C409 1.363 . S
C411 C413 1.408 . S
C411 C416 1.342 . S
C412 C413 1.310 . S
C412 C415 1.461 . S
C412 H432 0.932 . S
C413 C411 1.408 . S
C413 C412 1.310 . S
C413 H433 0.930 . S
C414 C415 1.474 . S
C414 C416 1.285 . S
C414 H434 0.929 . S
C415 C412 1.461 . S
C415 C414 1.474 . S
C416 C411 1.342 . S
C416 C414 1.285 . S
C416 H435 0.930 . S
C417 C420 1.424 . S
C417 C422 1.245 . S
C417 C423 1.428 . S
C418 C421 1.260 . S
C418 C422 1.477 . S
C418 H436 0.932 . S
C419 C420 1.384 . S
C419 C421 1.479 . S
C419 H437 0.929 . S
C420 C417 1.424 . S
C420 C419 1.384 . S
C420 H438 0.928 . S
C421 C418 1.260 . S
C421 C419 1.479 . S
C422 C417 1.245 . S
C422 C418 1.477 . S
C422 H439 0.932 . S
C423 U406 2.882 . S
C423 C417 1.428 . S
C423 O426 1.301 . S
C423 O427 1.282 . S
O424 U406 2.441 . S
O424 C410 1.249 . S
O425 U406 2.420 . S
O425 C410 1.202 . S
O426 U406 2.455 . S
O426 C423 1.301 . S
O427 U406 2.449 . S
O427 C423 1.282 . S
H428 C401 0.931 . S
H429 C403 0.929 . S
H430 C404 0.930 . S
H431 C405 0.931 . S
H432 C412 0.932 . S
H433 C413 0.930 . S
H434 C414 0.929 . S
H435 C416 0.930 . S
H436 C418 0.932 . S
H437 C419 0.929 . S
H438 C420 0.928 . S
H439 C422 0.932 . S
C440 C441 1.264 . S
C440 C445 1.479 . S
C440 C450 1.465 . S
C441 C440 1.264 . S
C441 C443 1.339 . S
C441 H468 0.931 . S
C442 C443 1.395 . S
C442 C444 1.320 . S
C443 C441 1.339 . S
C443 C442 1.395 . S
C443 H469 0.929 . S
C444 C442 1.320 . S
C444 C445 1.405 . S
C444 H470 0.930 . S
C445 C440 1.479 . S
C445 C444 1.405 . S
C445 H471 0.931 . S
U446 O447 2.454 . S
U446 O448 2.458 . S
U446 C449 2.984 . S
U446 C450 2.847 . S
U446 C463 2.882 . S
U446 O464 2.441 . S
U446 O465 2.420 . S
U446 O466 2.455 . S
U446 O467 2.449 . S
O447 U446 2.454 . S
O447 C449 1.353 . S
O448 U446 2.458 . S
O448 C449 1.286 . S
C449 U446 2.984 . S
C449 O447 1.353 . S
C449 O448 1.286 . S
C449 C451 1.363 . S
C450 C440 1.465 . S
C450 U446 2.847 . S
C450 O464 1.249 . S
C450 O465 1.202 . S
C451 C449 1.363 . S
C451 C453 1.408 . S
C451 C456 1.342 . S
C452 C453 1.310 . S
C452 C455 1.461 . S
C452 H472 0.932 . S
C453 C451 1.408 . S
C453 C452 1.310 . S
C453 H473 0.930 . S
C454 C455 1.474 . S
C454 C456 1.285 . S
C454 H474 0.929 . S
C455 C452 1.461 . S
C455 C454 1.474 . S
C456 C451 1.342 . S
C456 C454 1.285 . S
C456 H475 0.930 . S
C457 C460 1.424 . S
C457 C462 1.245 . S
C457 C463 1.428 . S
C458 C461 1.260 . S
C458 C462 1.477 . S
C458 H476 0.932 . S
C459 C460 1.384 . S
C459 C461 1.479 . S
C459 H477 0.929 . S
C460 C457 1.424 . S
C460 C459 1.384 . S
C460 H478 0.928 . S
C461 C458 1.260 . S
C461 C459 1.479 . S
C462 C457 1.245 . S
C462 C458 1.477 . S
C462 H479 0.932 . S
C463 U446 2.882 . S
C463 C457 1.428 . S
C463 O466 1.301 . S
C463 O467 1.282 . S
O464 U446 2.441 . S
O464 C450 1.249 . S
O465 U446 2.420 . S
O465 C450 1.202 . S
O466 U446 2.455 . S
O466 C463 1.301 . S
O467 U446 2.449 . S
O467 C463 1.282 . S
H468 C441 0.931 . S
H469 C443 0.929 . S
H470 C444 0.930 . S
H471 C445 0.931 . S
H472 C452 0.932 . S
H473 C453 0.930 . S
H474 C454 0.929 . S
H475 C456 0.930 . S
H476 C458 0.932 . S
H477 C459 0.929 . S
H478 C460 0.928 . S
H479 C462 0.932 . S
H480 C488 0.929 . S
H481 C490 0.930 . S
H482 C492 0.930 . S
H483 C495 0.929 . S
H484 C498 0.930 . S
H485 C500 0.960 . S
H486 C500 0.960 . S
H487 C500 0.960 . S
C488 H480 0.929 . S
C488 C489 1.377 . S
C488 C490 1.384 . S
C489 C488 1.377 . S
C489 C495 1.390 . S
C490 H481 0.930 . S
C490 C488 1.384 . S
C490 C491 1.372 . S
C491 C490 1.372 . S
C491 C492 1.400 . S
C491 C496 1.490 . S
C492 H482 0.930 . S
C492 C491 1.400 . S
C492 C495 1.386 . S
H493 C509 0.930 . S
H494 C510 0.931 . S
C495 H483 0.929 . S
C495 C489 1.390 . S
C495 C492 1.386 . S
C496 C491 1.490 . S
C496 C498 1.395 . S
C496 C499 1.403 . S
H497 C503 0.930 . S
C498 H484 0.930 . S
C498 C496 1.395 . S
C498 C501 1.403 . S
C499 C496 1.403 . S
C499 C500 1.524 . S
C499 C503 1.400 . S
C500 H485 0.960 . S
C500 H486 0.960 . S
C500 H487 0.960 . S
C500 C499 1.524 . S
C501 C498 1.403 . S
C501 C502 1.392 . S
C501 C505 1.495 . S
C502 C501 1.392 . S
C502 C503 1.385 . S
C502 C504 1.478 . S
C503 H497 0.930 . S
C503 C499 1.400 . S
C503 C502 1.385 . S
C504 C502 1.478 . S
C504 C506 1.381 . S
C504 C510 1.383 . S
C505 C501 1.495 . S
C505 H511 0.959 . S
C505 H512 0.961 . S
C505 H513 0.960 . S
C506 C504 1.381 . S
C506 C507 1.394 . S
C506 H514 0.930 . S
C507 C506 1.394 . S
C507 C508 1.383 . S
C507 H515 0.929 . S
C508 C507 1.383 . S
C508 C509 1.377 . S
C509 H493 0.930 . S
C509 C508 1.377 . S
C509 C510 1.379 . S
C510 H494 0.931 . S
C510 C504 1.383 . S
C510 C509 1.379 . S
H511 C505 0.959 . S
H512 C505 0.961 . S
H513 C505 0.960 . S
H514 C506 0.930 . S
H515 C507 0.929 . S
H516 C524 0.929 . S
H517 C526 0.930 . S
H518 C528 0.930 . S
H519 C531 0.929 . S
H520 C534 0.930 . S
H521 C536 0.960 . S
H522 C536 0.960 . S
H523 C536 0.960 . S
C524 H516 0.929 . S
C524 C525 1.377 . S
C524 C526 1.384 . S
C525 C524 1.377 . S
C525 C531 1.390 . S
C526 H517 0.930 . S
C526 C524 1.384 . S
C526 C527 1.372 . S
C527 C526 1.372 . S
C527 C528 1.400 . S
C527 C532 1.490 . S
C528 H518 0.930 . S
C528 C527 1.400 . S
C528 C531 1.386 . S
H529 C545 0.930 . S
H530 C546 0.931 . S
C531 H519 0.929 . S
C531 C525 1.390 . S
C531 C528 1.386 . S
C532 C527 1.490 . S
C532 C534 1.395 . S
C532 C535 1.403 . S
H533 C539 0.930 . S
C534 H520 0.930 . S
C534 C532 1.395 . S
C534 C537 1.403 . S
C535 C532 1.403 . S
C535 C536 1.524 . S
C535 C539 1.400 . S
C536 H521 0.960 . S
C536 H522 0.960 . S
C536 H523 0.960 . S
C536 C535 1.524 . S
C537 C534 1.403 . S
C537 C538 1.392 . S
C537 C541 1.495 . S
C538 C537 1.392 . S
C538 C539 1.385 . S
C538 C540 1.478 . S
C539 H533 0.930 . S
C539 C535 1.400 . S
C539 C538 1.385 . S
C540 C538 1.478 . S
C540 C542 1.381 . S
C540 C546 1.383 . S
C541 C537 1.495 . S
C541 H547 0.959 . S
C541 H548 0.961 . S
C541 H549 0.960 . S
C542 C540 1.381 . S
C542 C543 1.394 . S
C542 H550 0.930 . S
C543 C542 1.394 . S
C543 C544 1.383 . S
C543 H551 0.929 . S
C544 C543 1.383 . S
C544 C545 1.377 . S
C545 H529 0.930 . S
C545 C544 1.377 . S
C545 C546 1.379 . S
C546 H530 0.931 . S
C546 C540 1.383 . S
C546 C545 1.379 . S
H547 C541 0.959 . S
H548 C541 0.961 . S
H549 C541 0.960 . S
H550 C542 0.930 . S
H551 C543 0.929 . S
H552 C560 0.929 . S
H553 C562 0.930 . S
H554 C564 0.930 . S
H555 C567 0.929 . S
H556 C570 0.930 . S
H557 C572 0.960 . S
H558 C572 0.960 . S
H559 C572 0.960 . S
C560 H552 0.929 . S
C560 C561 1.377 . S
C560 C562 1.384 . S
C561 C560 1.377 . S
C561 C567 1.390 . S
C562 H553 0.930 . S
C562 C560 1.384 . S
C562 C563 1.372 . S
C563 C562 1.372 . S
C563 C564 1.400 . S
C563 C568 1.490 . S
C564 H554 0.930 . S
C564 C563 1.400 . S
C564 C567 1.386 . S
H565 C581 0.930 . S
H566 C582 0.931 . S
C567 H555 0.929 . S
C567 C561 1.390 . S
C567 C564 1.386 . S
C568 C563 1.490 . S
C568 C570 1.395 . S
C568 C571 1.403 . S
H569 C575 0.930 . S
C570 H556 0.930 . S
C570 C568 1.395 . S
C570 C573 1.403 . S
C571 C568 1.403 . S
C571 C572 1.524 . S
C571 C575 1.400 . S
C572 H557 0.960 . S
C572 H558 0.960 . S
C572 H559 0.960 . S
C572 C571 1.524 . S
C573 C570 1.403 . S
C573 C574 1.392 . S
C573 C577 1.495 . S
C574 C573 1.392 . S
C574 C575 1.385 . S
C574 C576 1.478 . S
C575 H569 0.930 . S
C575 C571 1.400 . S
C575 C574 1.385 . S
C576 C574 1.478 . S
C576 C578 1.381 . S
C576 C582 1.383 . S
C577 C573 1.495 . S
C577 H583 0.959 . S
C577 H584 0.961 . S
C577 H585 0.960 . S
C578 C576 1.381 . S
C578 C579 1.394 . S
C578 H586 0.930 . S
C579 C578 1.394 . S
C579 C580 1.383 . S
C579 H587 0.929 . S
C580 C579 1.383 . S
C580 C581 1.377 . S
C581 H565 0.930 . S
C581 C580 1.377 . S
C581 C582 1.379 . S
C582 H566 0.931 . S
C582 C576 1.383 . S
C582 C581 1.379 . S
H583 C577 0.959 . S
H584 C577 0.961 . S
H585 C577 0.960 . S
H586 C578 0.930 . S
H587 C579 0.929 . S
H588 C596 0.929 . S
H589 C598 0.930 . S
H590 C600 0.930 . S
H591 C603 0.929 . S
H592 C606 0.930 . S
H593 C608 0.960 . S
H594 C608 0.960 . S
H595 C608 0.960 . S
C596 H588 0.929 . S
C596 C597 1.377 . S
C596 C598 1.384 . S
C597 C596 1.377 . S
C597 C603 1.390 . S
C598 H589 0.930 . S
C598 C596 1.384 . S
C598 C599 1.372 . S
C599 C598 1.372 . S
C599 C600 1.400 . S
C599 C604 1.490 . S
C600 H590 0.930 . S
C600 C599 1.400 . S
C600 C603 1.386 . S
H601 C617 0.930 . S
H602 C618 0.931 . S
C603 H591 0.929 . S
C603 C597 1.390 . S
C603 C600 1.386 . S
C604 C599 1.490 . S
C604 C606 1.395 . S
C604 C607 1.403 . S
H605 C611 0.930 . S
C606 H592 0.930 . S
C606 C604 1.395 . S
C606 C609 1.403 . S
C607 C604 1.403 . S
C607 C608 1.524 . S
C607 C611 1.400 . S
C608 H593 0.960 . S
C608 H594 0.960 . S
C608 H595 0.960 . S
C608 C607 1.524 . S
C609 C606 1.403 . S
C609 C610 1.392 . S
C609 C613 1.495 . S
C610 C609 1.392 . S
C610 C611 1.385 . S
C610 C612 1.478 . S
C611 H605 0.930 . S
C611 C607 1.400 . S
C611 C610 1.385 . S
C612 C610 1.478 . S
C612 C614 1.381 . S
C612 C618 1.383 . S
C613 C609 1.495 . S
C613 H619 0.959 . S
C613 H620 0.961 . S
C613 H621 0.960 . S
C614 C612 1.381 . S
C614 C615 1.394 . S
C614 H622 0.930 . S
C615 C614 1.394 . S
C615 C616 1.383 . S
C615 H623 0.929 . S
C616 C615 1.383 . S
C616 C617 1.377 . S
C617 H601 0.930 . S
C617 C616 1.377 . S
C617 C618 1.379 . S
C618 H602 0.931 . S
C618 C612 1.383 . S
C618 C617 1.379 . S
H619 C613 0.959 . S
H620 C613 0.961 . S
H621 C613 0.960 . S
H622 C614 0.930 . S
H623 C615 0.929 . S
H624 C632 0.929 . S
H625 C634 0.930 . S
H626 C636 0.930 . S
H627 C639 0.929 . S
H628 C642 0.930 . S
H629 C644 0.960 . S
H630 C644 0.960 . S
H631 C644 0.960 . S
C632 H624 0.929 . S
C632 C633 1.377 . S
C632 C634 1.384 . S
C633 C632 1.377 . S
C633 C639 1.390 . S
C634 H625 0.930 . S
C634 C632 1.384 . S
C634 C635 1.372 . S
C635 C634 1.372 . S
C635 C636 1.400 . S
C635 C640 1.490 . S
C636 H626 0.930 . S
C636 C635 1.400 . S
C636 C639 1.386 . S
H637 C653 0.930 . S
H638 C654 0.931 . S
C639 H627 0.929 . S
C639 C633 1.390 . S
C639 C636 1.386 . S
C640 C635 1.490 . S
C640 C642 1.395 . S
C640 C643 1.403 . S
H641 C647 0.930 . S
C642 H628 0.930 . S
C642 C640 1.395 . S
C642 C645 1.403 . S
C643 C640 1.403 . S
C643 C644 1.524 . S
C643 C647 1.400 . S
C644 H629 0.960 . S
C644 H630 0.960 . S
C644 H631 0.960 . S
C644 C643 1.524 . S
C645 C642 1.403 . S
C645 C646 1.392 . S
C645 C649 1.495 . S
C646 C645 1.392 . S
C646 C647 1.385 . S
C646 C648 1.478 . S
C647 H641 0.930 . S
C647 C643 1.400 . S
C647 C646 1.385 . S
C648 C646 1.478 . S
C648 C650 1.381 . S
C648 C654 1.383 . S
C649 C645 1.495 . S
C649 H655 0.959 . S
C649 H656 0.961 . S
C649 H657 0.960 . S
C650 C648 1.381 . S
C650 C651 1.394 . S
C650 H658 0.930 . S
C651 C650 1.394 . S
C651 C652 1.383 . S
C651 H659 0.929 . S
C652 C651 1.383 . S
C652 C653 1.377 . S
C653 H637 0.930 . S
C653 C652 1.377 . S
C653 C654 1.379 . S
C654 H638 0.931 . S
C654 C648 1.383 . S
C654 C653 1.379 . S
H655 C649 0.959 . S
H656 C649 0.961 . S
H657 C649 0.960 . S
H658 C650 0.930 . S
H659 C651 0.929 . S
H660 C668 0.929 . S
H661 C670 0.930 . S
H662 C672 0.930 . S
H663 C675 0.929 . S
H664 C678 0.930 . S
H665 C680 0.960 . S
H666 C680 0.960 . S
H667 C680 0.960 . S
C668 H660 0.929 . S
C668 C669 1.377 . S
C668 C670 1.384 . S
C669 C668 1.377 . S
C669 C675 1.390 . S
C670 H661 0.930 . S
C670 C668 1.384 . S
C670 C671 1.372 . S
C671 C670 1.372 . S
C671 C672 1.400 . S
C671 C676 1.490 . S
C672 H662 0.930 . S
C672 C671 1.400 . S
C672 C675 1.386 . S
H673 C689 0.930 . S
H674 C690 0.931 . S
C675 H663 0.929 . S
C675 C669 1.390 . S
C675 C672 1.386 . S
C676 C671 1.490 . S
C676 C678 1.395 . S
C676 C679 1.403 . S
H677 C683 0.930 . S
C678 H664 0.930 . S
C678 C676 1.395 . S
C678 C681 1.403 . S
C679 C676 1.403 . S
C679 C680 1.524 . S
C679 C683 1.400 . S
C680 H665 0.960 . S
C680 H666 0.960 . S
C680 H667 0.960 . S
C680 C679 1.524 . S
C681 C678 1.403 . S
C681 C682 1.392 . S
C681 C685 1.495 . S
C682 C681 1.392 . S
C682 C683 1.385 . S
C682 C684 1.478 . S
C683 H677 0.930 . S
C683 C679 1.400 . S
C683 C682 1.385 . S
C684 C682 1.478 . S
C684 C686 1.381 . S
C684 C690 1.383 . S
C685 C681 1.495 . S
C685 H691 0.959 . S
C685 H692 0.961 . S
C685 H693 0.960 . S
C686 C684 1.381 . S
C686 C687 1.394 . S
C686 H694 0.930 . S
C687 C686 1.394 . S
C687 C688 1.383 . S
C687 H695 0.929 . S
C688 C687 1.383 . S
C688 C689 1.377 . S
C689 H673 0.930 . S
C689 C688 1.377 . S
C689 C690 1.379 . S
C690 H674 0.931 . S
C690 C684 1.383 . S
C690 C689 1.379 . S
H691 C685 0.959 . S
H692 C685 0.961 . S
H693 C685 0.960 . S
H694 C686 0.930 . S
H695 C687 0.929 . S
H696 C704 0.929 . S
H697 C706 0.930 . S
H698 C708 0.930 . S
H699 C711 0.929 . S
H700 C714 0.930 . S
H701 C716 0.960 . S
H702 C716 0.960 . S
H703 C716 0.960 . S
C704 H696 0.929 . S
C704 C705 1.377 . S
C704 C706 1.384 . S
C705 C704 1.377 . S
C705 C711 1.390 . S
C706 H697 0.930 . S
C706 C704 1.384 . S
C706 C707 1.372 . S
C707 C706 1.372 . S
C707 C708 1.400 . S
C707 C712 1.490 . S
C708 H698 0.930 . S
C708 C707 1.400 . S
C708 C711 1.386 . S
H709 C725 0.930 . S
H710 C726 0.931 . S
C711 H699 0.929 . S
C711 C705 1.390 . S
C711 C708 1.386 . S
C712 C707 1.490 . S
C712 C714 1.395 . S
C712 C715 1.403 . S
H713 C719 0.930 . S
C714 H700 0.930 . S
C714 C712 1.395 . S
C714 C717 1.403 1_565 S
C715 C712 1.403 . S
C715 C716 1.524 . S
C715 C719 1.400 1_565 S
C716 H701 0.960 . S
C716 H702 0.960 . S
C716 H703 0.960 . S
C716 C715 1.524 . S
C717 C714 1.403 1_545 S
C717 C718 1.392 . S
C717 C721 1.495 . S
C718 C717 1.392 . S
C718 C719 1.385 . S
C718 C720 1.478 . S
C719 H713 0.930 . S
C719 C715 1.400 1_545 S
C719 C718 1.385 . S
C720 C718 1.478 . S
C720 C722 1.381 . S
C720 C726 1.383 . S
C721 C717 1.495 . S
C721 H727 0.959 . S
C721 H728 0.961 . S
C721 H729 0.960 . S
C722 C720 1.381 . S
C722 C723 1.394 . S
C722 H730 0.930 . S
C723 C722 1.394 . S
C723 C724 1.383 . S
C723 H731 0.929 . S
C724 C723 1.383 . S
C724 C725 1.377 . S
C725 H709 0.930 . S
C725 C724 1.377 . S
C725 C726 1.379 . S
C726 H710 0.931 . S
C726 C720 1.383 . S
C726 C725 1.379 . S
H727 C721 0.959 . S
H728 C721 0.961 . S
H729 C721 0.960 . S
H730 C722 0.930 . S
H731 C723 0.929 . S
H732 C740 0.929 . S
H733 C742 0.930 . S
H734 C744 0.930 . S
H735 C747 0.929 . S
H736 C750 0.930 . S
H737 C752 0.960 . S
H738 C752 0.960 . S
H739 C752 0.960 . S
C740 H732 0.929 . S
C740 C741 1.377 . S
C740 C742 1.384 . S
C741 C740 1.377 . S
C741 C747 1.390 . S
C742 H733 0.930 . S
C742 C740 1.384 . S
C742 C743 1.372 . S
C743 C742 1.372 . S
C743 C744 1.400 . S
C743 C748 1.490 . S
C744 H734 0.930 . S
C744 C743 1.400 . S
C744 C747 1.386 . S
H745 C761 0.930 . S
H746 C762 0.931 . S
C747 H735 0.929 . S
C747 C741 1.390 . S
C747 C744 1.386 . S
C748 C743 1.490 . S
C748 C750 1.395 . S
C748 C751 1.403 . S
H749 C755 0.930 . S
C750 H736 0.930 . S
C750 C748 1.395 . S
C750 C753 1.403 . S
C751 C748 1.403 . S
C751 C752 1.524 . S
C751 C755 1.400 . S
C752 H737 0.960 . S
C752 H738 0.960 . S
C752 H739 0.960 . S
C752 C751 1.524 . S
C753 C750 1.403 . S
C753 C754 1.392 . S
C753 C757 1.495 . S
C754 C753 1.392 . S
C754 C755 1.385 . S
C754 C756 1.478 . S
C755 H749 0.930 . S
C755 C751 1.400 . S
C755 C754 1.385 . S
C756 C754 1.478 . S
C756 C758 1.381 . S
C756 C762 1.383 . S
C757 C753 1.495 . S
C757 H763 0.959 . S
C757 H764 0.961 . S
C757 H765 0.960 . S
C758 C756 1.381 . S
C758 C759 1.394 . S
C758 H766 0.930 . S
C759 C758 1.394 . S
C759 C760 1.383 . S
C759 H767 0.929 . S
C760 C759 1.383 . S
C760 C761 1.377 . S
C761 H745 0.930 . S
C761 C760 1.377 . S
C761 C762 1.379 . S
C762 H746 0.931 . S
C762 C756 1.383 . S
C762 C761 1.379 . S
H763 C757 0.959 . S
H764 C757 0.961 . S
H765 C757 0.960 . S
H766 C758 0.930 . S
H767 C759 0.929 . S
H768 C776 0.929 . S
H769 C778 0.930 . S
H770 C780 0.930 . S
H771 C783 0.929 . S
H772 C786 0.930 . S
H773 C788 0.960 . S
H774 C788 0.960 . S
H775 C788 0.960 . S
C776 H768 0.929 . S
C776 C777 1.377 . S
C776 C778 1.384 . S
C777 C776 1.377 . S
C777 C783 1.390 . S
C778 H769 0.930 . S
C778 C776 1.384 . S
C778 C779 1.372 . S
C779 C778 1.372 . S
C779 C780 1.400 . S
C779 C784 1.490 . S
C780 H770 0.930 . S
C780 C779 1.400 . S
C780 C783 1.386 . S
H781 C797 0.930 . S
H782 C798 0.931 . S
C783 H771 0.929 . S
C783 C777 1.390 . S
C783 C780 1.386 . S
C784 C779 1.490 . S
C784 C786 1.395 . S
C784 C787 1.403 . S
H785 C791 0.930 . S
C786 H772 0.930 . S
C786 C784 1.395 . S
C786 C789 1.403 1_655 S
C787 C784 1.403 . S
C787 C788 1.524 . S
C787 C791 1.400 1_655 S
C788 H773 0.960 . S
C788 H774 0.960 . S
C788 H775 0.960 . S
C788 C787 1.524 . S
C789 C786 1.403 1_455 S
C789 C790 1.392 . S
C789 C793 1.495 . S
C790 C789 1.392 . S
C790 C791 1.385 . S
C790 C792 1.478 . S
C791 H785 0.930 . S
C791 C787 1.400 1_455 S
C791 C790 1.385 . S
C792 C790 1.478 . S
C792 C794 1.381 . S
C792 C798 1.383 . S
C793 C789 1.495 . S
C793 H799 0.959 . S
C793 H800 0.961 . S
C793 H801 0.960 . S
C794 C792 1.381 . S
C794 C795 1.394 . S
C794 H802 0.930 . S
C795 C794 1.394 . S
C795 C796 1.383 . S
C795 H803 0.929 . S
C796 C795 1.383 . S
C796 C797 1.377 . S
C797 H781 0.930 . S
C797 C796 1.377 . S
C797 C798 1.379 . S
C798 H782 0.931 . S
C798 C792 1.383 . S
C798 C797 1.379 . S
H799 C793 0.959 . S
H800 C793 0.961 . S
H801 C793 0.960 . S
H802 C794 0.930 . S
H803 C795 0.929 . S
H804 C812 0.929 . S
H805 C814 0.930 . S
H806 C816 0.930 . S
H807 C819 0.929 . S
H808 C822 0.930 . S
H809 C824 0.960 . S
H810 C824 0.960 . S
H811 C824 0.960 . S
C812 H804 0.929 . S
C812 C813 1.377 . S
C812 C814 1.384 . S
C813 C812 1.377 . S
C813 C819 1.390 . S
C814 H805 0.930 . S
C814 C812 1.384 . S
C814 C815 1.372 . S
C815 C814 1.372 . S
C815 C816 1.400 . S
C815 C820 1.490 . S
C816 H806 0.930 . S
C816 C815 1.400 . S
C816 C819 1.386 . S
H817 C833 0.930 . S
H818 C834 0.931 . S
C819 H807 0.929 . S
C819 C813 1.390 . S
C819 C816 1.386 . S
C820 C815 1.490 . S
C820 C822 1.395 . S
C820 C823 1.403 . S
H821 C827 0.930 . S
C822 H808 0.930 . S
C822 C820 1.395 . S
C822 C825 1.403 1_455 S
C823 C820 1.403 . S
C823 C824 1.524 . S
C823 C827 1.400 1_455 S
C824 H809 0.960 . S
C824 H810 0.960 . S
C824 H811 0.960 . S
C824 C823 1.524 . S
C825 C822 1.403 1_655 S
C825 C826 1.392 . S
C825 C829 1.495 . S
C826 C825 1.392 . S
C826 C827 1.385 . S
C826 C828 1.478 . S
C827 H821 0.930 . S
C827 C823 1.400 1_655 S
C827 C826 1.385 . S
C828 C826 1.478 . S
C828 C830 1.381 . S
C828 C834 1.383 . S
C829 C825 1.495 . S
C829 H835 0.959 . S
C829 H836 0.961 . S
C829 H837 0.960 . S
C830 C828 1.381 . S
C830 C831 1.394 . S
C830 H838 0.930 . S
C831 C830 1.394 . S
C831 C832 1.383 . S
C831 H839 0.929 . S
C832 C831 1.383 . S
C832 C833 1.377 . S
C833 H817 0.930 . S
C833 C832 1.377 . S
C833 C834 1.379 . S
C834 H818 0.931 . S
C834 C828 1.383 . S
C834 C833 1.379 . S
H835 C829 0.959 . S
H836 C829 0.961 . S
H837 C829 0.960 . S
H838 C830 0.930 . S
H839 C831 0.929 . S
H840 C848 0.929 . S
H841 C850 0.930 . S
H842 C852 0.930 . S
H843 C855 0.929 . S
H844 C858 0.930 . S
H845 C860 0.960 . S
H846 C860 0.960 . S
H847 C860 0.960 . S
C848 H840 0.929 . S
C848 C849 1.377 . S
C848 C850 1.384 . S
C849 C848 1.377 . S
C849 C855 1.390 . S
C850 H841 0.930 . S
C850 C848 1.384 . S
C850 C851 1.372 . S
C851 C850 1.372 . S
C851 C852 1.400 . S
C851 C856 1.490 . S
C852 H842 0.930 . S
C852 C851 1.400 . S
C852 C855 1.386 . S
H853 C869 0.930 . S
H854 C870 0.931 . S
C855 H843 0.929 . S
C855 C849 1.390 . S
C855 C852 1.386 . S
C856 C851 1.490 . S
C856 C858 1.395 . S
C856 C859 1.403 . S
H857 C863 0.930 . S
C858 H844 0.930 . S
C858 C856 1.395 . S
C858 C861 1.403 1_565 S
C859 C856 1.403 . S
C859 C860 1.524 . S
C859 C863 1.400 1_565 S
C860 H845 0.960 . S
C860 H846 0.960 . S
C860 H847 0.960 . S
C860 C859 1.524 . S
C861 C858 1.403 1_545 S
C861 C862 1.392 . S
C861 C865 1.495 . S
C862 C861 1.392 . S
C862 C863 1.385 . S
C862 C864 1.478 . S
C863 H857 0.930 . S
C863 C859 1.400 1_545 S
C863 C862 1.385 . S
C864 C862 1.478 . S
C864 C866 1.381 . S
C864 C870 1.383 . S
C865 C861 1.495 . S
C865 H871 0.959 . S
C865 H872 0.961 . S
C865 H873 0.960 . S
C866 C864 1.381 . S
C866 C867 1.394 . S
C866 H874 0.930 . S
C867 C866 1.394 . S
C867 C868 1.383 . S
C867 H875 0.929 . S
C868 C867 1.383 . S
C868 C869 1.377 . S
C869 H853 0.930 . S
C869 C868 1.377 . S
C869 C870 1.379 . S
C870 H854 0.931 . S
C870 C864 1.383 . S
C870 C869 1.379 . S
H871 C865 0.959 . S
H872 C865 0.961 . S
H873 C865 0.960 . S
H874 C866 0.930 . S
H875 C867 0.929 . S
H876 C884 0.929 . S
H877 C886 0.930 . S
H878 C888 0.930 . S
H879 C891 0.929 . S
H880 C894 0.930 . S
H881 C896 0.960 . S
H882 C896 0.960 . S
H883 C896 0.960 . S
C884 H876 0.929 . S
C884 C885 1.377 . S
C884 C886 1.384 . S
C885 C884 1.377 . S
C885 C891 1.390 . S
C886 H877 0.930 . S
C886 C884 1.384 . S
C886 C887 1.372 . S
C887 C886 1.372 . S
C887 C888 1.400 . S
C887 C892 1.490 . S
C888 H878 0.930 . S
C888 C887 1.400 . S
C888 C891 1.386 . S
H889 C905 0.930 . S
H890 C906 0.931 . S
C891 H879 0.929 . S
C891 C885 1.390 . S
C891 C888 1.386 . S
C892 C887 1.490 . S
C892 C894 1.395 . S
C892 C895 1.403 . S
H893 C899 0.930 . S
C894 H880 0.930 . S
C894 C892 1.395 . S
C894 C897 1.403 . S
C895 C892 1.403 . S
C895 C896 1.524 . S
C895 C899 1.400 . S
C896 H881 0.960 . S
C896 H882 0.960 . S
C896 H883 0.960 . S
C896 C895 1.524 . S
C897 C894 1.403 . S
C897 C898 1.392 . S
C897 C901 1.495 . S
C898 C897 1.392 . S
C898 C899 1.385 . S
C898 C900 1.478 . S
C899 H893 0.930 . S
C899 C895 1.400 . S
C899 C898 1.385 . S
C900 C898 1.478 . S
C900 C902 1.381 . S
C900 C906 1.383 . S
C901 C897 1.495 . S
C901 H907 0.959 . S
C901 H908 0.961 . S
C901 H909 0.960 . S
C902 C900 1.381 . S
C902 C903 1.394 . S
C902 H910 0.930 . S
C903 C902 1.394 . S
C903 C904 1.383 . S
C903 H911 0.929 . S
C904 C903 1.383 . S
C904 C905 1.377 . S
C905 H889 0.930 . S
C905 C904 1.377 . S
C905 C906 1.379 . S
C906 H890 0.931 . S
C906 C900 1.383 . S
C906 C905 1.379 . S
H907 C901 0.959 . S
H908 C901 0.961 . S
H909 C901 0.960 . S
H910 C902 0.930 . S
H911 C903 0.929 . S
H912 C920 0.929 . S
H913 C922 0.930 . S
H914 C924 0.930 . S
H915 C927 0.929 . S
H916 C930 0.930 . S
H917 C932 0.960 . S
H918 C932 0.960 . S
H919 C932 0.960 . S
C920 H912 0.929 . S
C920 C921 1.377 . S
C920 C922 1.384 . S
C921 C920 1.377 . S
C921 C927 1.390 . S
C922 H913 0.930 . S
C922 C920 1.384 . S
C922 C923 1.372 . S
C923 C922 1.372 . S
C923 C924 1.400 . S
C923 C928 1.490 . S
C924 H914 0.930 . S
C924 C923 1.400 . S
C924 C927 1.386 . S
H925 C941 0.930 . S
H926 C942 0.931 . S
C927 H915 0.929 . S
C927 C921 1.390 . S
C927 C924 1.386 . S
C928 C923 1.490 . S
C928 C930 1.395 . S
C928 C931 1.403 . S
H929 C935 0.930 . S
C930 H916 0.930 . S
C930 C928 1.395 . S
C930 C933 1.403 1_556 S
C931 C928 1.403 . S
C931 C932 1.524 . S
C931 C935 1.400 1_556 S
C932 H917 0.960 . S
C932 H918 0.960 . S
C932 H919 0.960 . S
C932 C931 1.524 . S
C933 C930 1.403 1_554 S
C933 C934 1.392 . S
C933 C937 1.495 . S
C934 C933 1.392 . S
C934 C935 1.385 . S
C934 C936 1.478 . S
C935 H929 0.930 . S
C935 C931 1.400 1_554 S
C935 C934 1.385 . S
C936 C934 1.478 . S
C936 C938 1.381 . S
C936 C942 1.383 . S
C937 C933 1.495 . S
C937 H943 0.959 . S
C937 H944 0.961 . S
C937 H945 0.960 . S
C938 C936 1.381 . S
C938 C939 1.394 . S
C938 H946 0.930 . S
C939 C938 1.394 . S
C939 C940 1.383 . S
C939 H947 0.929 . S
C940 C939 1.383 . S
C940 C941 1.377 . S
C941 H925 0.930 . S
C941 C940 1.377 . S
C941 C942 1.379 . S
C942 H926 0.931 . S
C942 C936 1.383 . S
C942 C941 1.379 . S
H943 C937 0.959 . S
H944 C937 0.961 . S
H945 C937 0.960 . S
H946 C938 0.930 . S
H947 C939 0.929 . S
H948 C956 0.929 . S
H949 C958 0.930 . S
H950 C960 0.930 . S
H951 C963 0.929 . S
H952 C966 0.930 . S
H953 C968 0.960 . S
H954 C968 0.960 . S
H955 C968 0.960 . S
C956 H948 0.929 . S
C956 C957 1.377 . S
C956 C958 1.384 . S
C957 C956 1.377 . S
C957 C963 1.390 . S
C958 H949 0.930 . S
C958 C956 1.384 . S
C958 C959 1.372 . S
C959 C958 1.372 . S
C959 C960 1.400 . S
C959 C964 1.490 . S
C960 H950 0.930 . S
C960 C959 1.400 . S
C960 C963 1.386 . S
H961 C977 0.930 . S
H962 C978 0.931 . S
C963 H951 0.929 . S
C963 C957 1.390 . S
C963 C960 1.386 . S
C964 C959 1.490 . S
C964 C966 1.395 . S
C964 C967 1.403 . S
H965 C971 0.930 . S
C966 H952 0.930 . S
C966 C964 1.395 . S
C966 C969 1.403 . S
C967 C964 1.403 . S
C967 C968 1.524 . S
C967 C971 1.400 . S
C968 H953 0.960 . S
C968 H954 0.960 . S
C968 H955 0.960 . S
C968 C967 1.524 . S
C969 C966 1.403 . S
C969 C970 1.392 . S
C969 C973 1.495 . S
C970 C969 1.392 . S
C970 C971 1.385 . S
C970 C972 1.478 . S
C971 H965 0.930 . S
C971 C967 1.400 . S
C971 C970 1.385 . S
C972 C970 1.478 . S
C972 C974 1.381 . S
C972 C978 1.383 . S
C973 C969 1.495 . S
C973 H979 0.959 . S
C973 H980 0.961 . S
C973 H981 0.960 . S
C974 C972 1.381 . S
C974 C975 1.394 . S
C974 H982 0.930 . S
C975 C974 1.394 . S
C975 C976 1.383 . S
C975 H983 0.929 . S
C976 C975 1.383 . S
C976 C977 1.377 . S
C977 H961 0.930 . S
C977 C976 1.377 . S
C977 C978 1.379 . S
C978 H962 0.931 . S
C978 C972 1.383 . S
C978 C977 1.379 . S
H979 C973 0.959 . S
H980 C973 0.961 . S
H981 C973 0.960 . S
H982 C974 0.930 . S
H983 C975 0.929 . S
H984 C992 0.929 . S
H985 C994 0.930 . S
H986 C996 0.930 . S
H987 C999 0.929 . S
H988 C1002 0.930 . S
H989 C1004 0.960 . S
H990 C1004 0.960 . S
H991 C1004 0.960 . S
C992 H984 0.929 . S
C992 C993 1.377 . S
C992 C994 1.384 . S
C993 C992 1.377 . S
C993 C999 1.390 . S
C994 H985 0.930 . S
C994 C992 1.384 . S
C994 C995 1.372 . S
C995 C994 1.372 . S
C995 C996 1.400 . S
C995 C1000 1.490 . S
C996 H986 0.930 . S
C996 C995 1.400 . S
C996 C999 1.386 . S
H997 C1013 0.930 . S
H998 C1014 0.931 . S
C999 H987 0.929 . S
C999 C993 1.390 . S
C999 C996 1.386 . S
C1000 C995 1.490 . S
C1000 C1002 1.395 . S
C1000 C1003 1.403 . S
H1001 C1007 0.930 . S
C1002 H988 0.930 . S
C1002 C1000 1.395 . S
C1002 C1005 1.403 . S
C1003 C1000 1.403 . S
C1003 C1004 1.524 . S
C1003 C1007 1.400 . S
C1004 H989 0.960 . S
C1004 H990 0.960 . S
C1004 H991 0.960 . S
C1004 C1003 1.524 . S
C1005 C1002 1.403 . S
C1005 C1006 1.392 . S
C1005 C1009 1.495 . S
C1006 C1005 1.392 . S
C1006 C1007 1.385 . S
C1006 C1008 1.478 . S
C1007 H1001 0.930 . S
C1007 C1003 1.400 . S
C1007 C1006 1.385 . S
C1008 C1006 1.478 . S
C1008 C1010 1.381 . S
C1008 C1014 1.383 . S
C1009 C1005 1.495 . S
C1009 H1015 0.959 . S
C1009 H1016 0.961 . S
C1009 H1017 0.960 . S
C1010 C1008 1.381 . S
C1010 C1011 1.394 . S
C1010 H1018 0.930 . S
C1011 C1010 1.394 . S
C1011 C1012 1.383 . S
C1011 H1019 0.929 . S
C1012 C1011 1.383 . S
C1012 C1013 1.377 . S
C1013 H997 0.930 . S
C1013 C1012 1.377 . S
C1013 C1014 1.379 . S
C1014 H998 0.931 . S
C1014 C1008 1.383 . S
C1014 C1013 1.379 . S
H1015 C1009 0.959 . S
H1016 C1009 0.961 . S
H1017 C1009 0.960 . S
H1018 C1010 0.930 . S
H1019 C1011 0.929 . S
H1020 C1028 0.929 . S
H1021 C1030 0.930 . S
H1022 C1032 0.930 . S
H1023 C1035 0.929 . S
H1024 C1038 0.930 . S
H1025 C1040 0.960 . S
H1026 C1040 0.960 . S
H1027 C1040 0.960 . S
C1028 H1020 0.929 . S
C1028 C1029 1.377 . S
C1028 C1030 1.384 . S
C1029 C1028 1.377 . S
C1029 C1035 1.390 . S
C1030 H1021 0.930 . S
C1030 C1028 1.384 . S
C1030 C1031 1.372 . S
C1031 C1030 1.372 . S
C1031 C1032 1.400 . S
C1031 C1036 1.490 . S
C1032 H1022 0.930 . S
C1032 C1031 1.400 . S
C1032 C1035 1.386 . S
H1033 C1049 0.930 . S
H1034 C1050 0.931 . S
C1035 H1023 0.929 . S
C1035 C1029 1.390 . S
C1035 C1032 1.386 . S
C1036 C1031 1.490 . S
C1036 C1038 1.395 . S
C1036 C1039 1.403 . S
H1037 C1043 0.930 . S
C1038 H1024 0.930 . S
C1038 C1036 1.395 . S
C1038 C1041 1.403 1_554 S
C1039 C1036 1.403 . S
C1039 C1040 1.524 . S
C1039 C1043 1.400 1_554 S
C1040 H1025 0.960 . S
C1040 H1026 0.960 . S
C1040 H1027 0.960 . S
C1040 C1039 1.524 . S
C1041 C1038 1.403 1_556 S
C1041 C1042 1.392 . S
C1041 C1045 1.495 . S
C1042 C1041 1.392 . S
C1042 C1043 1.385 . S
C1042 C1044 1.478 . S
C1043 H1037 0.930 . S
C1043 C1039 1.400 1_556 S
C1043 C1042 1.385 . S
C1044 C1042 1.478 . S
C1044 C1046 1.381 . S
C1044 C1050 1.383 . S
C1045 C1041 1.495 . S
C1045 H1051 0.959 . S
C1045 H1052 0.961 . S
C1045 H1053 0.960 . S
C1046 C1044 1.381 . S
C1046 C1047 1.394 . S
C1046 H1054 0.930 . S
C1047 C1046 1.394 . S
C1047 C1048 1.383 . S
C1047 H1055 0.929 . S
C1048 C1047 1.383 . S
C1048 C1049 1.377 . S
C1049 H1033 0.930 . S
C1049 C1048 1.377 . S
C1049 C1050 1.379 . S
C1050 H1034 0.931 . S
C1050 C1044 1.383 . S
C1050 C1049 1.379 . S
H1051 C1045 0.959 . S
H1052 C1045 0.961 . S
H1053 C1045 0.960 . S
H1054 C1046 0.930 . S
H1055 C1047 0.929 . S
H1056 C1064 0.929 . S
H1057 C1066 0.930 . S
H1058 C1068 0.930 . S
H1059 C1071 0.929 . S
H1060 C1074 0.930 . S
H1061 C1076 0.960 . S
H1062 C1076 0.960 . S
H1063 C1076 0.960 . S
C1064 H1056 0.929 . S
C1064 C1065 1.377 . S
C1064 C1066 1.384 . S
C1065 C1064 1.377 . S
C1065 C1071 1.390 . S
C1066 H1057 0.930 . S
C1066 C1064 1.384 . S
C1066 C1067 1.372 . S
C1067 C1066 1.372 . S
C1067 C1068 1.400 . S
C1067 C1072 1.490 . S
C1068 H1058 0.930 . S
C1068 C1067 1.400 . S
C1068 C1071 1.386 . S
H1069 C1085 0.930 . S
H1070 C1086 0.931 . S
C1071 H1059 0.929 . S
C1071 C1065 1.390 . S
C1071 C1068 1.386 . S
C1072 C1067 1.490 . S
C1072 C1074 1.395 . S
C1072 C1075 1.403 . S
H1073 C1079 0.930 . S
C1074 H1060 0.930 . S
C1074 C1072 1.395 . S
C1074 C1077 1.403 . S
C1075 C1072 1.403 . S
C1075 C1076 1.524 . S
C1075 C1079 1.400 . S
C1076 H1061 0.960 . S
C1076 H1062 0.960 . S
C1076 H1063 0.960 . S
C1076 C1075 1.524 . S
C1077 C1074 1.403 . S
C1077 C1078 1.392 . S
C1077 C1081 1.495 . S
C1078 C1077 1.392 . S
C1078 C1079 1.385 . S
C1078 C1080 1.478 . S
C1079 H1073 0.930 . S
C1079 C1075 1.400 . S
C1079 C1078 1.385 . S
C1080 C1078 1.478 . S
C1080 C1082 1.381 . S
C1080 C1086 1.383 . S
C1081 C1077 1.495 . S
C1081 H1087 0.959 . S
C1081 H1088 0.961 . S
C1081 H1089 0.960 . S
C1082 C1080 1.381 . S
C1082 C1083 1.394 . S
C1082 H1090 0.930 . S
C1083 C1082 1.394 . S
C1083 C1084 1.383 . S
C1083 H1091 0.929 . S
C1084 C1083 1.383 . S
C1084 C1085 1.377 . S
C1085 H1069 0.930 . S
C1085 C1084 1.377 . S
C1085 C1086 1.379 . S
C1086 H1070 0.931 . S
C1086 C1080 1.383 . S
C1086 C1085 1.379 . S
H1087 C1081 0.959 . S
H1088 C1081 0.961 . S
H1089 C1081 0.960 . S
H1090 C1082 0.930 . S
H1091 C1083 0.929 . S
H1092 C1100 0.929 . S
H1093 C1102 0.930 . S
H1094 C1104 0.930 . S
H1095 C1107 0.929 . S
H1096 C1110 0.930 . S
H1097 C1112 0.960 . S
H1098 C1112 0.960 . S
H1099 C1112 0.960 . S
C1100 H1092 0.929 . S
C1100 C1101 1.377 . S
C1100 C1102 1.384 . S
C1101 C1100 1.377 . S
C1101 C1107 1.390 . S
C1102 H1093 0.930 . S
C1102 C1100 1.384 . S
C1102 C1103 1.372 . S
C1103 C1102 1.372 . S
C1103 C1104 1.400 . S
C1103 C1108 1.490 . S
C1104 H1094 0.930 . S
C1104 C1103 1.400 . S
C1104 C1107 1.386 . S
H1105 C1121 0.930 . S
H1106 C1122 0.931 . S
C1107 H1095 0.929 . S
C1107 C1101 1.390 . S
C1107 C1104 1.386 . S
C1108 C1103 1.490 . S
C1108 C1110 1.395 . S
C1108 C1111 1.403 . S
H1109 C1115 0.930 . S
C1110 H1096 0.930 . S
C1110 C1108 1.395 . S
C1110 C1113 1.403 . S
C1111 C1108 1.403 . S
C1111 C1112 1.524 . S
C1111 C1115 1.400 . S
C1112 H1097 0.960 . S
C1112 H1098 0.960 . S
C1112 H1099 0.960 . S
C1112 C1111 1.524 . S
C1113 C1110 1.403 . S
C1113 C1114 1.392 . S
C1113 C1117 1.495 . S
C1114 C1113 1.392 . S
C1114 C1115 1.385 . S
C1114 C1116 1.478 . S
C1115 H1109 0.930 . S
C1115 C1111 1.400 . S
C1115 C1114 1.385 . S
C1116 C1114 1.478 . S
C1116 C1118 1.381 . S
C1116 C1122 1.383 . S
C1117 C1113 1.495 . S
C1117 H1123 0.959 . S
C1117 H1124 0.961 . S
C1117 H1125 0.960 . S
C1118 C1116 1.381 . S
C1118 C1119 1.394 . S
C1118 H1126 0.930 . S
C1119 C1118 1.394 . S
C1119 C1120 1.383 . S
C1119 H1127 0.929 . S
C1120 C1119 1.383 . S
C1120 C1121 1.377 . S
C1121 H1105 0.930 . S
C1121 C1120 1.377 . S
C1121 C1122 1.379 . S
C1122 H1106 0.931 . S
C1122 C1116 1.383 . S
C1122 C1121 1.379 . S
H1123 C1117 0.959 . S
H1124 C1117 0.961 . S
H1125 C1117 0.960 . S
H1126 C1118 0.930 . S
H1127 C1119 0.929 . S
C489 C335 1.350 . S
C508 C15 1.338 . S
C525 C55 1.351 . S
C544 C375 1.341 . S
C561 C415 1.356 . S
C580 C95 1.366 . S
C597 C455 1.352 . S
C616 C135 1.351 . S
C633 C255 1.356 . S
C652 C175 1.352 . S
C669 C215 1.354 . S
C688 C295 1.346 . S
C705 C122 1.687 . S
C724 C2 1.687 . S
C741 C162 1.685 . S
C760 C42 1.659 . S
C777 C82 1.688 . S
C796 C202 1.669 . S
C813 C362 1.685 . S
C832 C242 1.660 . S
C849 C282 1.683 . S
C868 C402 1.659 . S
C885 C442 1.691 . S
C904 C322 1.706 . S
C921 C421 1.738 . S
C940 C21 1.726 . S
C957 C461 1.731 . S
C976 C61 1.756 . S
C993 C101 1.729 . S
C1012 C261 1.716 . S
C1029 C141 1.737 . S
C1048 C301 1.702 . S
C1065 C181 1.728 . S
C1084 C341 1.749 . S
C1101 C221 1.728 . S
C1120 C381 1.754 . S
