# Generated by pormake.
# Topology irl, (4)-cn, num edge types: 1
# Building blocks:
#     Node 0, Type 0, BuildingBlock: ICAMEG_clean_sbu_1, # of connection points: 4
#     Node 1, Type 0, BuildingBlock: ICAMEG_clean_sbu_1, # of connection points: 4
#     Node 2, Type 0, BuildingBlock: ICAMEG_clean_sbu_1, # of connection points: 4
#     Node 3, Type 0, BuildingBlock: ICAMEG_clean_sbu_1, # of connection points: 4
#     Node 4, Type 0, BuildingBlock: ICAMEG_clean_sbu_1, # of connection points: 4
#     Node 5, Type 0, BuildingBlock: ICAMEG_clean_sbu_1, # of connection points: 4
#     Node 6, Type 0, BuildingBlock: ICAMEG_clean_sbu_1, # of connection points: 4
#     Node 7, Type 0, BuildingBlock: ICAMEG_clean_sbu_1, # of connection points: 4
#     Edge 8, Type (0, 0), BuildingBlock: TEMPAE_clean_linker_10, # of connection points: 2
#     Edge 9, Type (0, 0), BuildingBlock: TEMPAE_clean_linker_10, # of connection points: 2
#     Edge 10, Type (0, 0), BuildingBlock: TEMPAE_clean_linker_10, # of connection points: 2
#     Edge 11, Type (0, 0), BuildingBlock: TEMPAE_clean_linker_10, # of connection points: 2
#     Edge 12, Type (0, 0), BuildingBlock: TEMPAE_clean_linker_10, # of connection points: 2
#     Edge 13, Type (0, 0), BuildingBlock: TEMPAE_clean_linker_10, # of connection points: 2
#     Edge 14, Type (0, 0), BuildingBlock: TEMPAE_clean_linker_10, # of connection points: 2
#     Edge 15, Type (0, 0), BuildingBlock: TEMPAE_clean_linker_10, # of connection points: 2
#     Edge 16, Type (0, 0), BuildingBlock: TEMPAE_clean_linker_10, # of connection points: 2
#     Edge 17, Type (0, 0), BuildingBlock: TEMPAE_clean_linker_10, # of connection points: 2
#     Edge 18, Type (0, 0), BuildingBlock: TEMPAE_clean_linker_10, # of connection points: 2
#     Edge 19, Type (0, 0), BuildingBlock: TEMPAE_clean_linker_10, # of connection points: 2
#     Edge 20, Type (0, 0), BuildingBlock: TEMPAE_clean_linker_10, # of connection points: 2
#     Edge 21, Type (0, 0), BuildingBlock: TEMPAE_clean_linker_10, # of connection points: 2
#     Edge 22, Type (0, 0), BuildingBlock: TEMPAE_clean_linker_10, # of connection points: 2
#     Edge 23, Type (0, 0), BuildingBlock: TEMPAE_clean_linker_10, # of connection points: 2
# Relax obj value: 0.025
# Max RMSD: 0.076
# Mean RMSD: 0.076
data_MOF--net-irl--node1-ICAMEG_clean_sbu_1--edge1-TEMPAE_clean_linker_10
_symmetry_space_group_name_H-M    P1
_symmetry_Int_Tables_number       1
_symmetry_cell_setting            triclinic
loop_
_symmetry_equiv_pos_as_xyz
'x, y, z'
_cell_length_a     34.912083
_cell_length_b     50.124813
_cell_length_c     30.769667
_cell_angle_alpha  89.995945
_cell_angle_beta   89.998361
_cell_angle_gamma 90.030306
loop_
_atom_site_label
_atom_site_type_symbol
_atom_site_fract_x
_atom_site_fract_y
_atom_site_fract_z
_atom_type_partial_charge
Co0 Co 0.01859 0.15478 0.99978 0.0
Co1 Co 0.10588 0.13024 0.03541 0.0
O2 O 0.07452 0.15252 0.99713 0.0
C3 C 0.03368 0.13762 0.90958 0.0
O4 O 0.05768 0.12008 0.92576 0.0
C5 C 0.13702 0.18465 0.0452 0.0
O6 O 0.10179 0.1937 0.0439 0.0
O7 O 0.07815 0.14307 0.08785 0.0
O8 O 0.01991 0.15598 0.06475 0.0
H9 H 0.12882 0.06497 0.15658 0.0
H10 H 0.06176 0.19274 0.94452 0.0
O11 O 0.01592 0.15355 0.93476 0.0
H12 H 0.99216 0.24857 0.0502 0.0
H13 H 0.88924 0.1873 0.9506 0.0
H14 H 0.95844 0.12989 0.05438 0.0
H15 H 0.98517 0.1996 0.05112 0.0
H16 H 0.95976 0.18447 0.94881 0.0
O17 O 0.14381 0.1598 0.04228 0.0
H18 H 0.08963 0.0929 0.10787 0.0
H19 H 0.18989 0.12079 0.0442 0.0
H20 H 0.88791 0.13232 0.05761 0.0
H21 H 0.06929 0.24166 0.94211 0.0
H22 H 0.85286 0.16119 0.00543 0.0
H23 H 0.03445 0.26991 0.99535 0.0
O24 O 0.01367 0.11514 0.00145 0.0
H25 H 0.17427 0.14094 0.8928 0.0
H26 H 0.12765 0.07651 0.00181 0.0
H27 H 0.16003 0.06005 0.93582 0.0
H28 H 0.18361 0.09238 0.88077 0.0
H29 H 0.14145 0.15652 0.95909 0.0
H30 H 0.23022 0.09332 0.09246 0.0
H31 H 0.19967 0.06507 0.14904 0.0
O32 O 0.06904 0.10026 0.02973 0.0
C33 C 0.04424 0.15151 0.09484 0.0
C34 C 0.14247 0.07712 0.13197 0.0
C35 C 0.19938 0.09307 0.09602 0.0
N36 N 0.13742 0.1083 0.07303 0.0
C37 C 0.12042 0.09292 0.10421 0.0
C38 C 0.1764 0.10862 0.06884 0.0
C39 C 0.18222 0.07721 0.12775 0.0
C40 C 0.04623 0.20493 0.96752 0.0
N41 N 0.02307 0.19334 0.99795 0.0
C42 C 0.05072 0.2326 0.96611 0.0
C43 C 0.03122 0.24844 0.99604 0.0
C44 C 0.00753 0.23647 0.02686 0.0
C45 C 0.0038 0.20873 0.02736 0.0
C46 C 0.90419 0.17469 0.97356 0.0
C47 C 0.94338 0.14263 0.03177 0.0
C48 C 0.94411 0.17296 0.97264 0.0
N49 N 0.96319 0.15718 0.00169 0.0
C50 C 0.90345 0.14386 0.03366 0.0
C51 C 0.8838 0.16004 0.00434 0.0
C52 C 0.03524 0.09648 0.01545 0.0
C53 C 0.16423 0.12666 0.91662 0.0
C54 C 0.13782 0.0907 0.978 0.0
C55 C 0.15618 0.08126 0.94072 0.0
C56 C 0.16942 0.09941 0.90986 0.0
N57 N 0.13289 0.11747 0.98442 0.0
C58 C 0.14579 0.13538 0.95431 0.0
Co59 Co 0.98155 0.84713 0.99969 0.0
Co60 Co 0.89113 0.8647 0.03305 0.0
O61 O 0.92586 0.84425 0.99625 0.0
C62 C 0.96555 0.85756 0.90748 0.0
O63 O 0.93946 0.8745 0.92097 0.0
C64 C 0.86309 0.80959 0.0477 0.0
O65 O 0.8975 0.8029 0.06107 0.0
O66 O 0.91821 0.85222 0.08627 0.0
O67 O 0.97967 0.8505 0.06438 0.0
H68 H 0.85677 0.92659 0.15541 0.0
H69 H 0.94634 0.80195 0.95217 0.0
O70 O 0.98483 0.84412 0.93495 0.0
H71 H 0.02369 0.76079 0.06828 0.0
H72 H 0.11642 0.82301 0.95733 0.0
H73 H 0.03596 0.88118 0.04878 0.0
H74 H 0.02177 0.8097 0.05972 0.0
H75 H 0.04597 0.81937 0.95506 0.0
O76 O 0.85597 0.83333 0.03557 0.0
H77 H 0.90063 0.90124 0.10806 0.0
H78 H 0.80614 0.87013 0.03736 0.0
H79 H 0.1063 0.88532 0.05237 0.0
H80 H 0.94767 0.75293 0.95935 0.0
H81 H 0.14702 0.85609 0.0064 0.0
H82 H 0.9865 0.73206 0.01781 0.0
O83 O 0.97886 0.88657 0.99434 0.0
H84 H 0.82953 0.85338 0.88659 0.0
H85 H 0.86552 0.9179 0.00051 0.0
H86 H 0.83417 0.93395 0.93364 0.0
H87 H 0.81591 0.90159 0.87613 0.0
H88 H 0.86132 0.83821 0.95376 0.0
H89 H 0.76123 0.89496 0.0842 0.0
H90 H 0.78652 0.92354 0.1436 0.0
O91 O 0.92509 0.89673 0.03072 0.0
C92 C 0.954 0.8502 0.09386 0.0
C93 C 0.84541 0.91428 0.12954 0.0
C94 C 0.79179 0.8965 0.08961 0.0
N95 N 0.85597 0.88443 0.06974 0.0
C96 C 0.8701 0.89994 0.10255 0.0
C97 C 0.81735 0.88245 0.06325 0.0
C98 C 0.80599 0.91254 0.12292 0.0
C99 C 0.96355 0.79299 0.97745 0.0
N100 N 0.98412 0.80864 0.00531 0.0
C101 C 0.96409 0.76524 0.98146 0.0
C102 C 0.98584 0.75354 0.01431 0.0
C103 C 0.00671 0.76965 0.04265 0.0
C104 C 0.00545 0.79733 0.03769 0.0
C105 C 0.09899 0.8358 0.9776 0.0
C106 C 0.05351 0.86825 0.02894 0.0
C107 C 0.05909 0.83387 0.9764 0.0
N108 N 0.03691 0.84986 0.0021 0.0
C109 C 0.09331 0.87075 0.03099 0.0
C110 C 0.11614 0.85437 0.00515 0.0
C111 C 0.95617 0.90334 0.01181 0.0
C112 C 0.83725 0.86767 0.91147 0.0
C113 C 0.85776 0.90369 0.97559 0.0
C114 C 0.83994 0.9129 0.93783 0.0
C115 C 0.82967 0.89472 0.90559 0.0
N116 N 0.86511 0.87712 0.98113 0.0
C117 C 0.8551 0.85918 0.94967 0.0
Co118 Co 0.01954 0.8467 0.49795 0.0
Co119 Co 0.1093 0.8648 0.46318 0.0
O120 O 0.07529 0.8442 0.50068 0.0
C121 C 0.03629 0.85728 0.58996 0.0
O122 O 0.06203 0.8744 0.57617 0.0
C123 C 0.13808 0.80988 0.44913 0.0
O124 O 0.10364 0.80279 0.43644 0.0
O125 O 0.08191 0.85182 0.4105 0.0
O126 O 0.02069 0.85007 0.43322 0.0
H127 H 0.14133 0.9264 0.33958 0.0
H128 H 0.05581 0.80178 0.54504 0.0
O129 O 0.01696 0.84368 0.56273 0.0
H130 H 0.9778 0.76005 0.42999 0.0
H131 H 0.88544 0.82165 0.54212 0.0
H132 H 0.9642 0.88036 0.44957 0.0
H133 H 0.97917 0.80897 0.4385 0.0
H134 H 0.95595 0.81851 0.54346 0.0
O135 O 0.14495 0.83378 0.46061 0.0
H136 H 0.09841 0.90087 0.38781 0.0
H137 H 0.19414 0.87102 0.45772 0.0
H138 H 0.89378 0.88401 0.4469 0.0
H139 H 0.05505 0.75275 0.5379 0.0
H140 H 0.85391 0.85451 0.49343 0.0
H141 H 0.01589 0.73159 0.47998 0.0
O142 O 0.02184 0.88615 0.50325 0.0
H143 H 0.17259 0.85476 0.60895 0.0
H144 H 0.1343 0.91839 0.49471 0.0
H145 H 0.16605 0.93505 0.56095 0.0
H146 H 0.18547 0.90313 0.61862 0.0
H147 H 0.14037 0.83897 0.54241 0.0
H148 H 0.23813 0.89604 0.40999 0.0
H149 H 0.21174 0.92408 0.35054 0.0
O150 O 0.07484 0.89651 0.46554 0.0
C151 C 0.04605 0.84971 0.40339 0.0
C152 C 0.15317 0.91433 0.36546 0.0
C153 C 0.2075 0.89726 0.40495 0.0
N154 N 0.14374 0.88468 0.42578 0.0
C155 C 0.12901 0.89989 0.39295 0.0
C156 C 0.18246 0.8831 0.43181 0.0
C157 C 0.19268 0.913 0.3716 0.0
C158 C 0.03846 0.79269 0.52 0.0
N159 N 0.01739 0.80819 0.4924 0.0
C160 C 0.03824 0.76493 0.51601 0.0
C161 C 0.0163 0.75308 0.48346 0.0
C162 C 0.99494 0.76903 0.45539 0.0
C163 C 0.99588 0.79672 0.46032 0.0
C164 C 0.90249 0.83456 0.52161 0.0
C165 C 0.94703 0.86732 0.46966 0.0
C166 C 0.94242 0.8329 0.52228 0.0
N167 N 0.96413 0.84905 0.49629 0.0
C168 C 0.90717 0.86954 0.46812 0.0
C169 C 0.88482 0.853 0.49427 0.0
C170 C 0.04405 0.903 0.48512 0.0
C171 C 0.16436 0.86885 0.584 0.0
C172 C 0.14256 0.90437 0.5197 0.0
C173 C 0.16061 0.91392 0.5571 0.0
C174 C 0.17153 0.896 0.58943 0.0
N175 N 0.13562 0.87771 0.51461 0.0
C176 C 0.14627 0.86002 0.54616 0.0
Co177 Co 0.98284 0.15449 0.49813 0.0
Co178 Co 0.89401 0.12972 0.46894 0.0
O179 O 0.92725 0.15238 0.50417 0.0
C180 C 0.97165 0.13743 0.58888 0.0
O181 O 0.94707 0.11995 0.57368 0.0
C182 C 0.86155 0.18333 0.45353 0.0
O183 O 0.89574 0.19133 0.44142 0.0
O184 O 0.91899 0.14198 0.41416 0.0
O185 O 0.97819 0.1555 0.43339 0.0
H186 H 0.86348 0.06356 0.35119 0.0
H187 H 0.94135 0.19266 0.55459 0.0
O188 O 0.98849 0.15344 0.56298 0.0
H189 H 0.00772 0.24804 0.44557 0.0
H190 H 0.11447 0.18685 0.53931 0.0
H191 H 0.04019 0.12955 0.4399 0.0
H192 H 0.01477 0.19908 0.44511 0.0
H193 H 0.04411 0.18412 0.54539 0.0
O194 O 0.85597 0.15933 0.46534 0.0
H195 H 0.90566 0.09182 0.39608 0.0
H196 H 0.80966 0.12041 0.46687 0.0
H197 H 0.11048 0.13189 0.43237 0.0
H198 H 0.93375 0.24159 0.55656 0.0
H199 H 0.14808 0.16069 0.48234 0.0
H200 H 0.967 0.26961 0.50167 0.0
O201 O 0.98768 0.11483 0.49651 0.0
H202 H 0.8342 0.14133 0.61629 0.0
H203 H 0.87426 0.07621 0.5051 0.0
H204 H 0.84592 0.06018 0.57372 0.0
H205 H 0.82566 0.09285 0.62989 0.0
H206 H 0.86297 0.1565 0.54738 0.0
H207 H 0.76637 0.0926 0.42253 0.0
H208 H 0.79326 0.06384 0.36431 0.0
O209 O 0.93097 0.09977 0.4722 0.0
C210 C 0.95245 0.15065 0.40497 0.0
C211 C 0.85141 0.07595 0.37654 0.0
C212 C 0.79691 0.09228 0.41654 0.0
N213 N 0.86019 0.10759 0.43425 0.0
C214 C 0.87517 0.09194 0.40213 0.0
C215 C 0.82156 0.10802 0.44148 0.0
C216 C 0.81202 0.07613 0.3839 0.0
C217 C 0.95608 0.20475 0.53077 0.0
N218 N 0.97845 0.19305 0.49974 0.0
C219 C 0.9516 0.23243 0.53197 0.0
C220 C 0.97023 0.24814 0.50114 0.0
C221 C 0.99305 0.23605 0.46963 0.0
C222 C 0.99682 0.20831 0.46941 0.0
C223 C 0.09839 0.17426 0.5173 0.0
C224 C 0.05636 0.14227 0.46156 0.0
C225 C 0.05856 0.17259 0.52065 0.0
N226 N 0.03808 0.15684 0.49281 0.0
C227 C 0.09614 0.14345 0.45723 0.0
C228 C 0.11723 0.15959 0.48531 0.0
C229 C 0.96546 0.0961 0.48415 0.0
C230 C 0.8428 0.12691 0.59201 0.0
C231 C 0.86554 0.09056 0.52938 0.0
C232 C 0.84945 0.08136 0.56815 0.0
C233 C 0.83807 0.0997 0.59965 0.0
N234 N 0.87007 0.11728 0.52213 0.0
C235 C 0.85895 0.13538 0.55284 0.0
Co236 Co 0.51869 0.65391 0.00141 0.0
Co237 Co 0.60663 0.62894 0.03319 0.0
O238 O 0.57438 0.65164 0.9969 0.0
C239 C 0.53158 0.63735 0.91068 0.0
O240 O 0.55555 0.61955 0.92617 0.0
C241 C 0.6396 0.68247 0.0485 0.0
O242 O 0.60527 0.69074 0.05954 0.0
O243 O 0.5808 0.64162 0.08718 0.0
O244 O 0.52182 0.65451 0.06626 0.0
H245 H 0.63391 0.56317 0.15251 0.0
H246 H 0.56172 0.69224 0.9467 0.0
O247 O 0.51447 0.65328 0.93645 0.0
H248 H 0.49351 0.74727 0.05464 0.0
H249 H 0.38831 0.68701 0.95703 0.0
H250 H 0.45983 0.6288 0.05755 0.0
H251 H 0.48601 0.69834 0.05419 0.0
H252 H 0.45876 0.68406 0.95291 0.0
O253 O 0.64506 0.65834 0.03734 0.0
H254 H 0.59302 0.59145 0.1062 0.0
H255 H 0.69078 0.6191 0.03747 0.0
H256 H 0.38942 0.63136 0.0631 0.0
H257 H 0.56982 0.74114 0.94567 0.0
H258 H 0.3532 0.66063 0.01257 0.0
H259 H 0.53565 0.76898 1.00002 0.0
O260 O 0.51354 0.61425 0.0024 0.0
H261 H 0.66948 0.63947 0.88725 0.0
H262 H 0.62626 0.57514 0.9982 0.0
H263 H 0.65572 0.5586 0.93053 0.0
H264 H 0.67758 0.59087 0.87449 0.0
H265 H 0.63956 0.65515 0.95521 0.0
H266 H 0.7328 0.59125 0.08325 0.0
H267 H 0.70436 0.56295 0.14115 0.0
O268 O 0.56927 0.59919 0.0294 0.0
C269 C 0.54699 0.64994 0.09543 0.0
C270 C 0.64664 0.57535 0.1273 0.0
C271 C 0.70214 0.59114 0.08847 0.0
N272 N 0.63945 0.60676 0.06898 0.0
C273 C 0.62361 0.59136 0.10091 0.0
C274 C 0.67821 0.60691 0.06271 0.0
C275 C 0.68616 0.57526 0.12094 0.0
C276 C 0.54658 0.70425 0.97027 0.0
N277 N 0.52343 0.69246 0.00049 0.0
C278 C 0.55135 0.73191 0.96961 0.0
C279 C 0.53221 0.74752 1.00014 0.0
C280 C 0.50859 0.73535 0.03082 0.0
C281 C 0.50456 0.70763 0.03053 0.0
C282 C 0.40378 0.67423 0.97928 0.0
C283 C 0.44427 0.64171 0.03565 0.0
C284 C 0.44365 0.67242 0.97703 0.0
N285 N 0.46337 0.65642 0.00518 0.0
C286 C 0.40441 0.64302 0.03886 0.0
C287 C 0.3841 0.65942 0.01046 0.0
C288 C 0.53517 0.59552 0.01601 0.0
C289 C 0.66018 0.62522 0.91148 0.0
C290 C 0.63567 0.58932 0.97396 0.0
C291 C 0.65238 0.57983 0.93574 0.0
C292 C 0.66466 0.59795 0.90432 0.0
N293 N 0.63139 0.6161 0.98076 0.0
C294 C 0.64338 0.63398 0.95011 0.0
Co295 Co 0.4799 0.3463 0.99991 0.0
Co296 Co 0.39112 0.36386 0.03913 0.0
O297 O 0.42389 0.34388 0.999 0.0
C298 C 0.46134 0.35803 0.90845 0.0
O299 O 0.43568 0.37497 0.92296 0.0
C300 C 0.3634 0.30825 0.04537 0.0
O301 O 0.39908 0.30013 0.04369 0.0
O302 O 0.42012 0.34984 0.08976 0.0
O303 O 0.48061 0.34876 0.0648 0.0
H304 H 0.36474 0.42372 0.16658 0.0
H305 H 0.44374 0.30202 0.95103 0.0
O306 O 0.48096 0.3442 0.93505 0.0
H307 H 0.52322 0.25867 0.06309 0.0
H308 H 0.61288 0.32202 0.95055 0.0
H309 H 0.53644 0.3794 0.04759 0.0
H310 H 0.52106 0.30771 0.0572 0.0
H311 H 0.54238 0.31877 0.9514 0.0
O312 O 0.3553 0.33294 0.04355 0.0
H313 H 0.40539 0.3988 0.11511 0.0
H314 H 0.3066 0.3703 0.04923 0.0
H315 H 0.60689 0.38314 0.04806 0.0
H316 H 0.44545 0.2529 0.9554 0.0
H317 H 0.6456 0.35431 0.99927 0.0
H318 H 0.4853 0.23091 0.01187 0.0
O319 O 0.47745 0.38577 0.99605 0.0
H320 H 0.32247 0.3557 0.89629 0.0
H321 H 0.36496 0.41787 0.01079 0.0
H322 H 0.33082 0.43536 0.9467 0.0
H323 H 0.30928 0.40418 0.8889 0.0
H324 H 0.35705 0.33908 0.96075 0.0
H325 H 0.26486 0.3947 0.10024 0.0
H326 H 0.29393 0.42175 0.15931 0.0
O327 O 0.42558 0.39564 0.03597 0.0
C328 C 0.45611 0.3477 0.09546 0.0
C329 C 0.35174 0.41208 0.14089 0.0
C330 C 0.29568 0.39577 0.10368 0.0
N331 N 0.3584 0.38332 0.07898 0.0
C332 C 0.37461 0.39799 0.11157 0.0
C333 C 0.31946 0.38195 0.07495 0.0
C334 C 0.31201 0.41095 0.13682 0.0
C335 C 0.46148 0.29259 0.97536 0.0
N336 N 0.48233 0.30771 0.00375 0.0
C337 C 0.46219 0.26477 0.97782 0.0
C338 C 0.4845 0.25245 0.00957 0.0
C339 C 0.50575 0.26802 0.03835 0.0
C340 C 0.50429 0.29578 0.03496 0.0
C341 C 0.59634 0.33464 0.97204 0.0
C342 C 0.5531 0.36665 0.0265 0.0
C343 C 0.55641 0.33292 0.97261 0.0
N344 N 0.53535 0.3487 0.99983 0.0
C345 C 0.59298 0.36892 0.0268 0.0
C346 C 0.61467 0.35276 0.99939 0.0
C347 C 0.45574 0.4024 0.01537 0.0
C348 C 0.33161 0.36948 0.92131 0.0
C349 C 0.35576 0.40417 0.98574 0.0
C350 C 0.33637 0.41419 0.94956 0.0
C351 C 0.32427 0.39668 0.91716 0.0
N352 N 0.36284 0.37745 0.98959 0.0
C353 C 0.35105 0.36017 0.95797 0.0
Co354 Co 0.51888 0.34666 0.49904 0.0
Co355 Co 0.60928 0.36493 0.46632 0.0
O356 O 0.5746 0.34443 0.5032 0.0
C357 C 0.53358 0.35829 0.59118 0.0
O358 O 0.55958 0.3753 0.57765 0.0
C359 C 0.63788 0.30993 0.45341 0.0
O360 O 0.60337 0.30288 0.44087 0.0
O361 O 0.58285 0.3519 0.41306 0.0
O362 O 0.52128 0.34939 0.43429 0.0
H363 H 0.64341 0.42633 0.34318 0.0
H364 H 0.55456 0.30239 0.54827 0.0
O365 O 0.51501 0.34429 0.5638 0.0
H366 H 0.47933 0.25915 0.43232 0.0
H367 H 0.38418 0.32135 0.54037 0.0
H368 H 0.46419 0.37967 0.44858 0.0
H369 H 0.48008 0.30816 0.43955 0.0
H370 H 0.45467 0.31856 0.54357 0.0
O371 O 0.64489 0.33388 0.46453 0.0
H372 H 0.59968 0.40092 0.39064 0.0
H373 H 0.69421 0.37108 0.46262 0.0
H374 H 0.39381 0.38295 0.44402 0.0
H375 H 0.5544 0.25329 0.54243 0.0
H376 H 0.3533 0.35364 0.49016 0.0
H377 H 0.51664 0.23138 0.48405 0.0
O378 O 0.52071 0.38617 0.5034 0.0
H379 H 0.67011 0.35503 0.61345 0.0
H380 H 0.63382 0.41855 0.49819 0.0
H381 H 0.66448 0.43527 0.56504 0.0
H382 H 0.6829 0.40341 0.62323 0.0
H383 H 0.63899 0.33918 0.54628 0.0
H384 H 0.73901 0.39597 0.41569 0.0
H385 H 0.71364 0.42394 0.35558 0.0
O386 O 0.57482 0.39665 0.46786 0.0
C387 C 0.5472 0.34928 0.40509 0.0
C388 C 0.65481 0.41429 0.36935 0.0
C389 C 0.70847 0.39722 0.41002 0.0
N390 N 0.64435 0.38474 0.4296 0.0
C391 C 0.63018 0.39992 0.39641 0.0
C392 C 0.68297 0.38313 0.43643 0.0
C393 C 0.69421 0.41292 0.37631 0.0
C394 C 0.53781 0.29297 0.52302 0.0
N395 N 0.51719 0.30809 0.49446 0.0
C396 C 0.53793 0.26518 0.51977 0.0
C397 C 0.51678 0.25289 0.48697 0.0
C398 C 0.49586 0.26847 0.45792 0.0
C399 C 0.49645 0.29621 0.46213 0.0
C400 C 0.40151 0.33417 0.52001 0.0
C401 C 0.44675 0.36671 0.46848 0.0
C402 C 0.44143 0.33271 0.52173 0.0
N403 N 0.46349 0.34874 0.49593 0.0
C404 C 0.40691 0.36872 0.46589 0.0
C405 C 0.38421 0.35229 0.49183 0.0
C406 C 0.5434 0.40305 0.48618 0.0
C407 C 0.66231 0.3691 0.58828 0.0
C408 C 0.64163 0.40455 0.52341 0.0
C409 C 0.65907 0.41414 0.56115 0.0
C410 C 0.66943 0.39625 0.59377 0.0
N411 N 0.63475 0.37789 0.51825 0.0
C412 C 0.64484 0.36023 0.55009 0.0
Co413 Co 0.48271 0.65459 0.49933 0.0
Co414 Co 0.39444 0.62998 0.46776 0.0
O415 O 0.42699 0.65264 0.50382 0.0
C416 C 0.46959 0.6381 0.59003 0.0
O417 O 0.44535 0.62049 0.57449 0.0
C418 C 0.36214 0.68357 0.45147 0.0
O419 O 0.39649 0.69161 0.44004 0.0
O420 O 0.42053 0.64223 0.41365 0.0
O421 O 0.47956 0.65515 0.43447 0.0
H422 H 0.36624 0.56386 0.34922 0.0
H423 H 0.44021 0.69321 0.55395 0.0
O424 O 0.48693 0.65396 0.56431 0.0
H425 H 0.50918 0.74774 0.44587 0.0
H426 H 0.61354 0.68694 0.54368 0.0
H427 H 0.54123 0.62911 0.44322 0.0
H428 H 0.51599 0.69876 0.44643 0.0
H429 H 0.54305 0.6844 0.54778 0.0
O430 O 0.35647 0.65957 0.46322 0.0
H431 H 0.40753 0.5921 0.39519 0.0
H432 H 0.31016 0.62065 0.46357 0.0
H433 H 0.61167 0.63124 0.43768 0.0
H434 H 0.43281 0.74216 0.55488 0.0
H435 H 0.64829 0.66031 0.48818 0.0
H436 H 0.46737 0.76975 0.50046 0.0
O437 O 0.48737 0.61491 0.49846 0.0
H438 H 0.33166 0.64158 0.61352 0.0
H439 H 0.374 0.57647 0.5034 0.0
H440 H 0.34425 0.56043 0.57125 0.0
H441 H 0.32284 0.59309 0.62687 0.0
H442 H 0.36185 0.65675 0.5454 0.0
H443 H 0.26775 0.59286 0.41812 0.0
H444 H 0.29579 0.56412 0.36056 0.0
O445 O 0.43133 0.60003 0.47194 0.0
C446 C 0.45438 0.65048 0.40535 0.0
C447 C 0.35368 0.57623 0.37427 0.0
C448 C 0.29841 0.59254 0.41291 0.0
N449 N 0.36131 0.60785 0.43222 0.0
C450 C 0.37693 0.59221 0.40047 0.0
C451 C 0.32256 0.60827 0.43848 0.0
C452 C 0.31416 0.57641 0.38063 0.0
C453 C 0.45551 0.70511 0.53034 0.0
N454 N 0.47849 0.69316 0.50015 0.0
C455 C 0.45114 0.7328 0.53095 0.0
C456 C 0.4705 0.74827 0.50038 0.0
C457 C 0.49394 0.73593 0.46972 0.0
C458 C 0.49758 0.70819 0.47007 0.0
C459 C 0.5979 0.67424 0.52144 0.0
C460 C 0.55697 0.64194 0.46511 0.0
C461 C 0.558 0.67267 0.52369 0.0
N462 N 0.53807 0.65677 0.49555 0.0
C463 C 0.59685 0.64301 0.46191 0.0
C464 C 0.61738 0.6593 0.49029 0.0
C465 C 0.46543 0.59625 0.48518 0.0
C466 C 0.34076 0.62716 0.58948 0.0
C467 C 0.36478 0.59081 0.52746 0.0
C468 C 0.3479 0.58161 0.56579 0.0
C469 C 0.33587 0.59995 0.59697 0.0
N470 N 0.36946 0.61754 0.52033 0.0
C471 C 0.35772 0.63564 0.55075 0.0
C472 C 0.99463 0.94141 0.98215 0.0
C473 C 0.96606 0.93202 0.01033 0.0
C474 C 0.00422 0.96858 0.98081 0.0
C475 C 0.98515 0.98667 0.00875 0.0
C476 C 0.95605 0.97738 0.03691 0.0
C477 C 0.9467 0.95021 0.03717 0.0
C478 C 0.03515 0.97787 0.95002 0.0
C479 C 0.93549 0.99601 0.06764 0.0
C480 C 0.0389 0.04927 0.04036 0.0
C481 C 0.02116 0.06868 0.0144 0.0
C482 C 0.02718 0.0226 0.03903 0.0
C483 C 0.99731 0.01501 0.01056 0.0
C484 C 0.97914 0.03445 0.98428 0.0
C485 C 0.99109 0.06116 0.98677 0.0
C486 C 0.04685 0.00252 0.06809 0.0
C487 C 0.94747 0.02694 0.9532 0.0
H488 H 0.00947 0.92753 0.96102 0.0
H489 H 0.9246 0.94316 0.0591 0.0
H490 H 0.02435 0.99448 0.92956 0.0
H491 H 0.05989 0.98564 0.96879 0.0
H492 H 0.0454 0.96161 0.92844 0.0
H493 H 0.91251 0.98578 0.08625 0.0
H494 H 0.95626 0.00466 0.09102 0.0
H495 H 0.92262 0.01284 0.04936 0.0
H496 H 0.06201 0.05492 0.062 0.0
H497 H 0.97747 0.07604 0.96639 0.0
H498 H 0.0606 0.98681 0.04808 0.0
H499 H 0.02547 0.99255 0.08926 0.0
H500 H 0.06908 0.01183 0.08902 0.0
H501 H 0.95809 0.01193 0.92959 0.0
H502 H 0.93637 0.04442 0.93493 0.0
H503 H 0.9234 0.01764 0.97122 0.0
C504 C 0.05234 0.94973 0.45877 0.0
C505 C 0.03404 0.93163 0.48673 0.0
C506 C 0.0431 0.9769 0.45936 0.0
C507 C 0.01524 0.98627 0.48899 0.0
C508 C 0.99723 0.96826 0.51797 0.0
C509 C 0.00665 0.94107 0.51628 0.0
C510 C 0.06245 0.99545 0.42748 0.0
C511 C 0.96764 0.97765 0.55032 0.0
C512 C 0.01065 0.06083 0.51066 0.0
C513 C 0.97955 0.06832 0.48456 0.0
C514 C 0.02252 0.03409 0.51277 0.0
C515 C 0.00315 0.01462 0.48765 0.0
C516 C 0.97222 0.02218 0.4607 0.0
C517 C 0.96064 0.04887 0.45973 0.0
C518 C 0.05536 0.02659 0.54224 0.0
C519 C 0.95126 0.00206 0.43288 0.0
H520 H 0.07351 0.94262 0.43576 0.0
H521 H 0.99268 0.92725 0.53827 0.0
H522 H 0.04077 0.00412 0.40521 0.0
H523 H 0.07618 0.01227 0.44497 0.0
H524 H 0.08458 0.98515 0.40769 0.0
H525 H 0.95818 0.96143 0.57248 0.0
H526 H 0.97936 0.99425 0.57013 0.0
H527 H 0.94221 0.98545 0.53285 0.0
H528 H 0.02516 0.07574 0.53018 0.0
H529 H 0.93672 0.0545 0.43928 0.0
H530 H 0.07863 0.0172 0.52305 0.0
H531 H 0.04562 0.01166 0.56647 0.0
H532 H 0.06728 0.0441 0.55979 0.0
H533 H 0.97168 0.99199 0.41066 0.0
H534 H 0.92823 0.01136 0.41309 0.0
H535 H 0.93827 0.98643 0.45372 0.0
C536 C 0.4896 0.56034 0.98966 0.0
C537 C 0.52082 0.56776 0.01567 0.0
C538 C 0.47738 0.53365 0.98782 0.0
C539 C 0.49653 0.51414 0.01306 0.0
C540 C 0.52756 0.52164 0.03994 0.0
C541 C 0.53945 0.54828 0.0407 0.0
C542 C 0.44441 0.52624 0.95846 0.0
C543 C 0.54835 0.50149 0.06785 0.0
C544 C 0.44733 0.44914 0.04188 0.0
C545 C 0.4656 0.43109 0.01384 0.0
C546 C 0.45653 0.47635 0.04131 0.0
C547 C 0.48435 0.48579 0.01165 0.0
C548 C 0.5023 0.46782 0.98258 0.0
C549 C 0.4929 0.44063 0.98421 0.0
C550 C 0.43719 0.49485 0.07324 0.0
C551 C 0.53189 0.47727 0.95024 0.0
H552 H 0.47524 0.57525 0.97004 0.0
H553 H 0.56345 0.55383 0.06111 0.0
H554 H 0.45404 0.51137 0.93409 0.0
H555 H 0.42119 0.5168 0.97769 0.0
H556 H 0.43248 0.54379 0.94107 0.0
H557 H 0.57138 0.51075 0.0877 0.0
H558 H 0.52783 0.49145 0.09 0.0
H559 H 0.56131 0.48584 0.04704 0.0
H560 H 0.42621 0.44198 0.06492 0.0
H561 H 0.50687 0.42687 0.96215 0.0
H562 H 0.42356 0.51172 0.05579 0.0
H563 H 0.45886 0.50344 0.0956 0.0
H564 H 0.41499 0.48452 0.09292 0.0
H565 H 0.52018 0.4939 0.9305 0.0
H566 H 0.54131 0.46109 0.92801 0.0
H567 H 0.55734 0.48505 0.96773 0.0
C568 C 0.55227 0.44984 0.46037 0.0
C569 C 0.53335 0.43167 0.48766 0.0
C570 C 0.54314 0.47703 0.46105 0.0
C571 C 0.51475 0.48633 0.4901 0.0
C572 C 0.49609 0.46823 0.5184 0.0
C573 C 0.50542 0.44104 0.51662 0.0
C574 C 0.56318 0.49568 0.42988 0.0
C575 C 0.46592 0.47755 0.55011 0.0
C576 C 0.50994 0.56079 0.51256 0.0
C577 C 0.47938 0.56844 0.48577 0.0
C578 C 0.5217 0.53403 0.51463 0.0
C579 C 0.5028 0.5147 0.48879 0.0
C580 C 0.47242 0.52242 0.46116 0.0
C581 C 0.46093 0.54912 0.46022 0.0
C582 C 0.55395 0.52636 0.54482 0.0
C583 C 0.45195 0.50246 0.43257 0.0
H584 H 0.57386 0.44278 0.43784 0.0
H585 H 0.49098 0.42715 0.53811 0.0
H586 H 0.54198 0.5045 0.40718 0.0
H587 H 0.57664 0.51239 0.44792 0.0
H588 H 0.58563 0.48541 0.41053 0.0
H589 H 0.45595 0.46125 0.57181 0.0
H590 H 0.47734 0.49402 0.57042 0.0
H591 H 0.44088 0.4855 0.5321 0.0
H592 H 0.52411 0.5756 0.5326 0.0
H593 H 0.43744 0.55487 0.43921 0.0
H594 H 0.57756 0.51702 0.5261 0.0
H595 H 0.54371 0.51133 0.56862 0.0
H596 H 0.56557 0.54377 0.56287 0.0
H597 H 0.47278 0.49246 0.41075 0.0
H598 H 0.42934 0.51187 0.41231 0.0
H599 H 0.43852 0.48675 0.45289 0.0
C600 C 0.04976 0.14041 0.17382 0.0
C601 C 0.03155 0.15471 0.14052 0.0
C602 C 0.03594 0.14116 0.21662 0.0
C603 C 0.00373 0.15718 0.22666 0.0
C604 C 0.98607 0.17244 0.19355 0.0
C605 C 0.99987 0.17074 0.15075 0.0
C606 C 0.05513 0.12417 0.25081 0.0
C607 C 0.95233 0.19031 0.20322 0.0
C608 C 0.94632 0.13787 0.32676 0.0
C609 C 0.96282 0.15418 0.35869 0.0
C610 C 0.95896 0.13892 0.28347 0.0
C611 C 0.98802 0.15727 0.27163 0.0
C612 C 0.00345 0.17468 0.30334 0.0
C613 C 0.99106 0.17266 0.34661 0.0
C614 C 0.94234 0.11962 0.25084 0.0
C615 C 0.03369 0.19503 0.29178 0.0
H616 H 0.07409 0.12785 0.16623 0.0
H617 H 0.98573 0.18195 0.12529 0.0
H618 H 0.06545 0.13687 0.2779 0.0
H619 H 0.03413 0.10987 0.26464 0.0
H620 H 0.0798 0.11274 0.23763 0.0
H621 H 0.94357 0.20229 0.17451 0.0
H622 H 0.92754 0.17809 0.21383 0.0
H623 H 0.95941 0.2041 0.23027 0.0
H624 H 0.92465 0.12345 0.33592 0.0
H625 H 0.00366 0.1855 0.37104 0.0
H626 H 0.96529 0.10631 0.23849 0.0
H627 H 0.93059 0.13059 0.22254 0.0
H628 H 0.91923 0.10709 0.265 0.0
H629 H 0.06054 0.18472 0.28235 0.0
H630 H 0.04009 0.20872 0.31924 0.0
H631 H 0.0243 0.20706 0.26344 0.0
C632 C 0.00111 0.86369 0.34535 0.0
C633 C 0.03254 0.84825 0.35819 0.0
C634 C 0.98803 0.86327 0.30232 0.0
C635 C 0.00601 0.84625 0.27182 0.0
C636 C 0.03718 0.83003 0.28498 0.0
C637 C 0.0506 0.83162 0.32796 0.0
C638 C 0.95564 0.88158 0.28927 0.0
C639 C 0.05626 0.81102 0.25371 0.0
C640 C 0.94878 0.83205 0.16922 0.0
C641 C 0.96707 0.84874 0.13924 0.0
C642 C 0.96199 0.8303 0.21227 0.0
C643 C 0.99319 0.84641 0.22575 0.0
C644 C 0.01134 0.86355 0.19553 0.0
C645 C 0.99847 0.86414 0.15242 0.0
C646 C 0.94272 0.81117 0.24324 0.0
C647 C 0.04378 0.88174 0.20892 0.0
H648 H 0.98741 0.87672 0.3688 0.0
H649 H 0.07471 0.81952 0.33817 0.0
H650 H 0.96538 0.89523 0.26311 0.0
H651 H 0.9314 0.86979 0.27608 0.0
H652 H 0.94502 0.89375 0.31692 0.0
H653 H 0.07818 0.79839 0.26989 0.0
H654 H 0.03449 0.79785 0.23849 0.0
H655 H 0.07029 0.82237 0.22717 0.0
H656 H 0.92471 0.81998 0.15872 0.0
H657 H 0.01235 0.87721 0.12917 0.0
H658 H 0.9289 0.8224 0.27003 0.0
H659 H 0.96436 0.79778 0.25813 0.0
H660 H 0.92061 0.79878 0.22689 0.0
H661 H 0.03412 0.89517 0.23542 0.0
H662 H 0.05438 0.89415 0.18152 0.0
H663 H 0.06801 0.86983 0.22177 0.0
C664 C 0.99926 0.8374 0.65159 0.0
C665 C 0.02757 0.85514 0.63691 0.0
C666 C 0.98888 0.83637 0.6956 0.0
C667 C 0.00721 0.85352 0.72564 0.0
C668 C 0.03637 0.87106 0.71122 0.0
C669 C 0.04625 0.87163 0.66702 0.0
C670 C 0.95781 0.8173 0.70982 0.0
C671 C 0.05659 0.88962 0.74235 0.0
C672 C 0.95579 0.87163 0.83026 0.0
C673 C 0.9746 0.8554 0.86062 0.0
C674 C 0.96582 0.87098 0.78611 0.0
C675 C 0.99528 0.8536 0.772 0.0
C676 C 0.01379 0.83674 0.8023 0.0
C677 C 0.00325 0.83785 0.84625 0.0
C678 C 0.9454 0.88923 0.7547 0.0
C679 C 0.04518 0.81786 0.7884 0.0
H680 H 0.98472 0.82452 0.62858 0.0
H681 H 0.06819 0.88536 0.656 0.0
H682 H 0.96858 0.80416 0.73613 0.0
H683 H 0.93322 0.82865 0.72319 0.0
H684 H 0.94736 0.80462 0.68268 0.0
H685 H 0.0794 0.90148 0.72618 0.0
H686 H 0.0356 0.90357 0.75705 0.0
H687 H 0.06965 0.87805 0.76928 0.0
H688 H 0.93358 0.88521 0.84105 0.0
H689 H 0.01789 0.82518 0.86946 0.0
H690 H 0.93245 0.87742 0.72798 0.0
H691 H 0.96623 0.90322 0.73976 0.0
H692 H 0.92247 0.90106 0.77069 0.0
H693 H 0.03463 0.80445 0.76233 0.0
H694 H 0.05585 0.80545 0.81576 0.0
H695 H 0.06958 0.82934 0.7748 0.0
C696 C 0.04513 0.12101 0.83383 0.0
C697 C 0.02592 0.13833 0.86223 0.0
C698 C 0.03697 0.12094 0.78912 0.0
C699 C 0.00891 0.13859 0.77244 0.0
C700 C 0.98972 0.1563 0.80086 0.0
C701 C 0.99848 0.15599 0.84536 0.0
C702 C 0.05813 0.10183 0.75977 0.0
C703 C 0.95963 0.17542 0.78433 0.0
C704 C 0.00962 0.15492 0.65181 0.0
C705 C 0.98074 0.13804 0.63592 0.0
C706 C 0.01917 0.15524 0.69613 0.0
C707 C 0.99928 0.13835 0.72531 0.0
C708 C 0.96996 0.12139 0.70954 0.0
C709 C 0.96107 0.12141 0.66504 0.0
C710 C 0.05061 0.17359 0.7117 0.0
C711 C 0.94799 0.10319 0.73969 0.0
H712 H 0.06642 0.10735 0.84653 0.0
H713 H 0.98347 0.16946 0.867 0.0
H714 H 0.03749 0.08809 0.74391 0.0
H715 H 0.07296 0.113 0.73358 0.0
H716 H 0.07964 0.08975 0.77768 0.0
H717 H 0.94767 0.18813 0.8106 0.0
H718 H 0.97203 0.18854 0.75892 0.0
H719 H 0.93583 0.16412 0.76908 0.0
H720 H 0.02504 0.1678 0.62956 0.0
H721 H 0.93866 0.10836 0.65309 0.0
H722 H 0.07359 0.16181 0.72757 0.0
H723 H 0.03916 0.18759 0.73641 0.0
H724 H 0.06344 0.18538 0.68481 0.0
H725 H 0.968 0.08932 0.75624 0.0
H726 H 0.92597 0.09126 0.72231 0.0
H727 H 0.93362 0.11511 0.76531 0.0
C728 C 0.55303 0.63809 0.17411 0.0
C729 C 0.53543 0.65324 0.14142 0.0
C730 C 0.53964 0.6389 0.21711 0.0
C731 C 0.50859 0.65583 0.22791 0.0
C732 C 0.49177 0.67202 0.19543 0.0
C733 C 0.50505 0.67026 0.15248 0.0
C734 C 0.55787 0.62094 0.25065 0.0
C735 C 0.45933 0.69087 0.20589 0.0
C736 C 0.44894 0.63787 0.32698 0.0
C737 C 0.46596 0.65359 0.35935 0.0
C738 C 0.4624 0.63852 0.284 0.0
C739 C 0.49291 0.65587 0.27289 0.0
C740 C 0.50913 0.6726 0.30503 0.0
C741 C 0.49583 0.67099 0.348 0.0
C742 C 0.44484 0.61997 0.25084 0.0
C743 C 0.54095 0.69191 0.29421 0.0
H744 H 0.57635 0.62478 0.16581 0.0
H745 H 0.49145 0.68216 0.12749 0.0
H746 H 0.56874 0.63295 0.27829 0.0
H747 H 0.53611 0.60696 0.26381 0.0
H748 H 0.58197 0.60912 0.23706 0.0
H749 H 0.45141 0.70356 0.17768 0.0
H750 H 0.43372 0.67934 0.21602 0.0
H751 H 0.46736 0.70398 0.23348 0.0
H752 H 0.42603 0.62426 0.33553 0.0
H753 H 0.50894 0.68333 0.37275 0.0
H754 H 0.4671 0.60629 0.23796 0.0
H755 H 0.43354 0.63156 0.22295 0.0
H756 H 0.42117 0.60782 0.26468 0.0
H757 H 0.56692 0.68075 0.28426 0.0
H758 H 0.54845 0.70493 0.32218 0.0
H759 H 0.53247 0.7047 0.2664 0.0
C760 C 0.55503 0.33185 0.32953 0.0
C761 C 0.53464 0.34729 0.35954 0.0
C762 C 0.54259 0.32976 0.28622 0.0
C763 C 0.50992 0.34429 0.27254 0.0
C764 C 0.48957 0.36014 0.3028 0.0
C765 C 0.50182 0.36107 0.34612 0.0
C766 C 0.56425 0.31199 0.25518 0.0
C767 C 0.45538 0.37663 0.28925 0.0
C768 C 0.50063 0.36244 0.15338 0.0
C769 C 0.47068 0.34575 0.14014 0.0
C770 C 0.51385 0.36206 0.19638 0.0
C771 C 0.49763 0.3438 0.2263 0.0
C772 C 0.46826 0.32619 0.21254 0.0
C773 C 0.45453 0.32777 0.1697 0.0
C774 C 0.54418 0.38184 0.21013 0.0
C775 C 0.45119 0.30585 0.24311 0.0
H776 H 0.58022 0.32102 0.34015 0.0
H777 H 0.48629 0.37322 0.36934 0.0
H778 H 0.54432 0.2976 0.23967 0.0
H779 H 0.57712 0.32415 0.22884 0.0
H780 H 0.58746 0.30068 0.27164 0.0
H781 H 0.44318 0.38826 0.31669 0.0
H782 H 0.4638 0.39071 0.26308 0.0
H783 H 0.43264 0.36354 0.2759 0.0
H784 H 0.5128 0.3765 0.1304 0.0
H785 H 0.43154 0.31475 0.15912 0.0
H786 H 0.56936 0.37123 0.22365 0.0
H787 H 0.53274 0.39487 0.23623 0.0
H788 H 0.5539 0.39462 0.18277 0.0
H789 H 0.47427 0.29396 0.25859 0.0
H790 H 0.4312 0.29204 0.22626 0.0
H791 H 0.43535 0.31611 0.26949 0.0
C792 C 0.4511 0.37296 0.83162 0.0
C793 C 0.46986 0.3563 0.8614 0.0
C794 C 0.46094 0.37268 0.78737 0.0
C795 C 0.49015 0.35531 0.77262 0.0
C796 C 0.5086 0.33804 0.80235 0.0
C797 C 0.49823 0.33873 0.84634 0.0
C798 C 0.44057 0.39133 0.75654 0.0
C799 C 0.5398 0.31917 0.78782 0.0
C800 C 0.49487 0.33925 0.65218 0.0
C801 C 0.52377 0.35665 0.63791 0.0
C802 C 0.48377 0.3385 0.69597 0.0
C803 C 0.50199 0.35555 0.72622 0.0
C804 C 0.53154 0.37289 0.71218 0.0
C805 C 0.54212 0.37321 0.66818 0.0
C806 C 0.45227 0.31965 0.70979 0.0
C807 C 0.55171 0.39132 0.74357 0.0
H808 H 0.42914 0.38656 0.84295 0.0
H809 H 0.51284 0.32572 0.86907 0.0
H810 H 0.46147 0.40541 0.74196 0.0
H811 H 0.42753 0.37985 0.7295 0.0
H812 H 0.41774 0.40304 0.77292 0.0
H813 H 0.55053 0.3065 0.81481 0.0
H814 H 0.52901 0.30601 0.76153 0.0
H815 H 0.5642 0.33069 0.77431 0.0
H816 H 0.48054 0.32636 0.62903 0.0
H817 H 0.56448 0.3867 0.65746 0.0
H818 H 0.42806 0.33112 0.72378 0.0
H819 H 0.46289 0.30605 0.73556 0.0
H820 H 0.44134 0.30744 0.68233 0.0
H821 H 0.53068 0.40509 0.75864 0.0
H822 H 0.57439 0.40337 0.72754 0.0
H823 H 0.56493 0.37959 0.77021 0.0
C824 C 0.54269 0.62148 0.83452 0.0
C825 C 0.52327 0.63834 0.86348 0.0
C826 C 0.53422 0.62168 0.7899 0.0
C827 C 0.50561 0.63912 0.77387 0.0
C828 C 0.48615 0.65634 0.80286 0.0
C829 C 0.49525 0.65578 0.84728 0.0
C830 C 0.55569 0.6031 0.75995 0.0
C831 C 0.45547 0.67521 0.78701 0.0
C832 C 0.50621 0.65615 0.65353 0.0
C833 C 0.47799 0.63889 0.63722 0.0
C834 C 0.5154 0.65649 0.69794 0.0
C835 C 0.49584 0.63921 0.72678 0.0
C836 C 0.46706 0.62194 0.71063 0.0
C837 C 0.4585 0.62197 0.66604 0.0
C838 C 0.54625 0.6752 0.71393 0.0
C839 C 0.44548 0.6033 0.74042 0.0
H840 H 0.56445 0.608 0.8467 0.0
H841 H 0.48006 0.66887 0.86939 0.0
H842 H 0.53531 0.58931 0.74377 0.0
H843 H 0.5702 0.61471 0.73403 0.0
H844 H 0.57753 0.59107 0.77744 0.0
H845 H 0.44327 0.68749 0.8137 0.0
H846 H 0.4674 0.68876 0.76191 0.0
H847 H 0.43192 0.66376 0.77157 0.0
H848 H 0.52146 0.66929 0.63153 0.0
H849 H 0.43659 0.60861 0.65377 0.0
H850 H 0.5697 0.66361 0.72928 0.0
H851 H 0.53445 0.68871 0.73915 0.0
H852 H 0.55855 0.68752 0.68735 0.0
H853 H 0.46578 0.58941 0.75647 0.0
H854 H 0.42357 0.59138 0.72284 0.0
H855 H 0.43105 0.61485 0.76645 0.0
C856 C 0.33201 0.26577 0.02313 0.0
C857 C 0.33186 0.28894 0.04843 0.0
C858 C 0.30015 0.24864 0.02279 0.0
C859 C 0.26826 0.25444 0.0497 0.0
C860 C 0.26879 0.27734 0.0766 0.0
C861 C 0.3003 0.29463 0.07494 0.0
C862 C 0.3001 0.22487 0.99266 0.0
C863 C 0.23601 0.28367 0.10692 0.0
C864 C 0.17018 0.22626 0.02232 0.0
C865 C 0.16946 0.20322 0.04795 0.0
C866 C 0.20252 0.2429 0.02198 0.0
C867 C 0.23404 0.23681 0.04927 0.0
C868 C 0.23278 0.21396 0.07626 0.0
C869 C 0.20078 0.19709 0.07455 0.0
C870 C 0.20334 0.2666 0.9917 0.0
C871 C 0.26512 0.20739 0.10705 0.0
H872 H 0.35634 0.26165 0.00227 0.0
H873 H 0.30042 0.31258 0.09463 0.0
H874 H 0.29639 0.2062 0.0115 0.0
H875 H 0.27554 0.22633 0.96986 0.0
H876 H 0.32696 0.22337 0.97345 0.0
H877 H 0.24216 0.3012 0.1279 0.0
H878 H 0.20972 0.28786 0.08789 0.0
H879 H 0.22983 0.26623 0.12801 0.0
H880 H 0.14603 0.23069 0.00135 0.0
H881 H 0.19998 0.17922 0.09442 0.0
H882 H 0.22859 0.26523 0.96989 0.0
H883 H 0.20628 0.28532 0.01061 0.0
H884 H 0.17707 0.26798 0.97144 0.0
H885 H 0.29174 0.20348 0.08848 0.0
H886 H 0.25873 0.18966 0.12747 0.0
H887 H 0.27084 0.22466 0.12869 0.0
C888 C 0.67189 0.72417 0.07409 0.0
C889 C 0.67245 0.70102 0.04861 0.0
C890 C 0.70361 0.7414 0.07517 0.0
C891 C 0.73616 0.73559 0.04935 0.0
C892 C 0.73664 0.71239 0.02319 0.0
C893 C 0.70494 0.69524 0.0235 0.0
C894 C 0.70237 0.76575 0.10401 0.0
C895 C 0.77042 0.70587 0.99441 0.0
C896 C 0.8005 0.79362 0.01915 0.0
C897 C 0.8317 0.78988 0.0472 0.0
C898 C 0.76949 0.77588 0.01915 0.0
C899 C 0.76929 0.75421 0.04861 0.0
C900 C 0.80073 0.75029 0.07701 0.0
C901 C 0.83187 0.76804 0.07559 0.0
C902 C 0.73696 0.78034 0.9876 0.0
C903 C 0.80116 0.72765 0.10936 0.0
H904 H 0.64693 0.72858 0.09376 0.0
H905 H 0.70539 0.67743 0.00348 0.0
H906 H 0.72718 0.76566 0.12654 0.0
H907 H 0.7046 0.78408 0.08396 0.0
H908 H 0.67559 0.76681 0.12344 0.0
H909 H 0.76615 0.68709 0.97585 0.0
H910 H 0.77533 0.72237 0.97101 0.0
H911 H 0.79676 0.7039 0.01429 0.0
H912 H 0.80042 0.8104 0.99691 0.0
H913 H 0.85584 0.76526 0.09753 0.0
H914 H 0.70993 0.78382 0.00566 0.0
H915 H 0.73271 0.76229 0.96729 0.0
H916 H 0.74216 0.79766 0.96584 0.0
H917 H 0.77593 0.72918 0.13116 0.0
H918 H 0.82754 0.72757 0.12955 0.0
H919 H 0.79901 0.70827 0.09215 0.0
C920 C 0.16943 0.76807 0.42261 0.0
C921 C 0.16976 0.79044 0.44987 0.0
C922 C 0.20073 0.75048 0.42156 0.0
C923 C 0.23252 0.75514 0.44917 0.0
C924 C 0.23254 0.77739 0.47743 0.0
C925 C 0.20134 0.79492 0.47709 0.0
C926 C 0.20007 0.72717 0.39051 0.0
C927 C 0.26547 0.78266 0.50811 0.0
C928 C 0.29725 0.69691 0.47687 0.0
C929 C 0.32943 0.70217 0.45094 0.0
C930 C 0.26554 0.71401 0.47662 0.0
C931 C 0.26568 0.7366 0.44906 0.0
C932 C 0.29794 0.74189 0.42247 0.0
C933 C 0.3297 0.72474 0.42413 0.0
C934 C 0.2321 0.70809 0.50626 0.0
C935 C 0.29879 0.76557 0.39216 0.0
H936 H 0.14517 0.7647 0.40132 0.0
H937 H 0.20156 0.81212 0.49847 0.0
H938 H 0.2251 0.72825 0.36835 0.0
H939 H 0.20238 0.70817 0.4088 0.0
H940 H 0.1735 0.72663 0.37065 0.0
H941 H 0.26051 0.80049 0.52883 0.0
H942 H 0.27001 0.76512 0.52951 0.0
H943 H 0.29226 0.78573 0.48941 0.0
H944 H 0.29706 0.67955 0.4979 0.0
H945 H 0.35443 0.72872 0.40382 0.0
H946 H 0.20556 0.70558 0.48688 0.0
H947 H 0.22736 0.72512 0.52866 0.0
H948 H 0.23665 0.68977 0.52592 0.0
H949 H 0.27376 0.76488 0.36995 0.0
H950 H 0.32538 0.76626 0.37235 0.0
H951 H 0.29664 0.78433 0.4111 0.0
C952 C 0.70159 0.2952 0.4804 0.0
C953 C 0.66948 0.29043 0.45413 0.0
C954 C 0.73273 0.27761 0.48055 0.0
C955 C 0.73208 0.25499 0.4531 0.0
C956 C 0.69972 0.25001 0.42651 0.0
C957 C 0.66853 0.26769 0.42771 0.0
C958 C 0.76632 0.28326 0.51012 0.0
C959 C 0.69834 0.22628 0.39635 0.0
C960 C 0.82859 0.22425 0.4261 0.0
C961 C 0.82891 0.20198 0.45357 0.0
C962 C 0.79683 0.2414 0.4249 0.0
C963 C 0.76523 0.23645 0.45264 0.0
C964 C 0.76572 0.2142 0.48089 0.0
C965 C 0.79738 0.19705 0.48065 0.0
C966 C 0.79698 0.26471 0.39381 0.0
C967 C 0.73301 0.20866 0.51175 0.0
H968 H 0.7023 0.31268 0.50115 0.0
H969 H 0.64385 0.26407 0.40714 0.0
H970 H 0.77136 0.26598 0.53194 0.0
H971 H 0.79269 0.28611 0.49056 0.0
H972 H 0.76181 0.30133 0.53039 0.0
H973 H 0.67132 0.22546 0.37733 0.0
H974 H 0.72284 0.22707 0.3734 0.0
H975 H 0.70112 0.20754 0.41524 0.0
H976 H 0.85282 0.22795 0.4049 0.0
H977 H 0.79768 0.17992 0.50218 0.0
H978 H 0.79522 0.2837 0.41219 0.0
H979 H 0.77147 0.26374 0.37235 0.0
H980 H 0.82311 0.26517 0.37323 0.0
H981 H 0.72878 0.22599 0.53368 0.0
H982 H 0.73804 0.19061 0.53191 0.0
H983 H 0.70602 0.20589 0.49328 0.0
loop_
_geom_bond_atom_site_label_1
_geom_bond_atom_site_label_2
_geom_bond_distance
_geom_bond_site_symmetry_2
_ccdc_geom_bond_type
Co0 O2 2.140 1_654 S
Co0 O8 2.092 1_655 S
Co0 O11 2.075 1_554 S
Co0 O24 2.096 1_654 S
Co0 N41 2.152 . S
Co0 N49 2.217 . S
Co1 O2 2.160 1_554 S
Co1 O7 2.058 . S
Co1 O17 2.057 . S
Co1 O32 2.037 . S
Co1 N36 2.145 . S
Co1 N57 2.257 1_554 S
O2 Co0 2.140 1_456 S
O2 Co1 2.160 1_556 S
C3 O4 1.278 . S
C3 O11 1.224 1_455 S
O4 C3 1.278 . S
C5 O6 1.245 . S
C5 O17 1.232 . S
O6 C5 1.245 . S
O7 Co1 2.058 . S
O7 C33 1.269 . S
O8 Co0 2.092 1_455 S
O8 C33 1.257 . S
H9 C34 0.930 . S
H10 C40 0.930 1_455 S
O11 Co0 2.075 1_556 S
O11 C3 1.224 1_655 S
H12 C44 0.929 . S
H13 C46 0.930 . S
H14 C47 0.930 . S
H15 C45 0.929 . S
H16 C48 0.928 . S
O17 Co1 2.057 . S
O17 C5 1.232 . S
H18 C37 0.929 . S
H19 C38 0.929 . S
H20 C50 0.931 . S
H21 C42 0.929 . S
H22 C51 0.930 . S
H23 C43 0.931 . S
O24 Co0 2.096 1_456 S
O24 C52 1.214 1_556 S
H25 C53 0.929 . S
H26 C54 0.929 1_554 S
H27 C55 0.930 . S
H28 C56 0.929 . S
H29 C58 0.930 . S
H30 C35 0.930 . S
H31 C39 0.930 . S
O32 Co1 2.037 . S
O32 C52 1.234 . S
C33 O7 1.269 . S
C33 O8 1.257 . S
C34 H9 0.930 . S
C34 C37 1.388 . S
C34 C39 1.418 . S
C35 H30 0.930 . S
C35 C38 1.404 . S
C35 C39 1.353 . S
N36 Co1 2.145 . S
N36 C37 1.397 . S
N36 C38 1.334 . S
C37 H18 0.929 . S
C37 C34 1.388 . S
C37 N36 1.397 . S
C38 H19 0.929 . S
C38 C35 1.404 . S
C38 N36 1.334 . S
C39 H31 0.930 . S
C39 C34 1.418 . S
C39 C35 1.353 . S
C40 H10 0.930 1_655 S
C40 N41 1.330 1_556 S
C40 C42 1.446 . S
N41 Co0 2.152 . S
N41 C40 1.330 1_554 S
N41 C45 1.418 . S
C42 H21 0.929 . S
C42 C40 1.446 . S
C42 C43 1.332 1_556 S
C43 H23 0.931 . S
C43 C42 1.332 1_554 S
C43 C44 1.267 . S
C44 H12 0.929 . S
C44 C43 1.267 . S
C44 C45 1.251 . S
C45 H15 0.929 . S
C45 N41 1.418 . S
C45 C44 1.251 . S
C46 H13 0.930 . S
C46 C48 1.406 . S
C46 C51 1.261 1_556 S
C47 H14 0.930 . S
C47 N49 1.325 . S
C47 C50 1.357 . S
C48 H16 0.928 . S
C48 C46 1.406 . S
C48 N49 1.261 1_556 S
N49 Co0 2.217 . S
N49 C47 1.325 . S
N49 C48 1.261 1_554 S
C50 H20 0.931 . S
C50 C47 1.357 . S
C50 C51 1.312 . S
C51 H22 0.930 . S
C51 C46 1.261 1_554 S
C51 C50 1.312 . S
C52 O24 1.214 1_554 S
C52 O32 1.234 . S
C53 H25 0.929 . S
C53 C56 1.391 . S
C53 C58 1.391 . S
C54 H26 0.929 1_556 S
C54 C55 1.390 . S
C54 N57 1.391 . S
C55 H27 0.930 . S
C55 C54 1.390 . S
C55 C56 1.392 . S
C56 H28 0.929 . S
C56 C53 1.391 . S
C56 C55 1.392 . S
N57 Co1 2.257 1_556 S
N57 C54 1.391 . S
N57 C58 1.388 . S
C58 H29 0.930 . S
C58 C53 1.391 . S
C58 N57 1.388 . S
Co59 O61 2.140 1_454 S
Co59 O67 2.092 1_455 S
Co59 O70 2.075 1_554 S
Co59 O83 2.096 1_454 S
Co59 N100 2.152 . S
Co59 N108 2.217 . S
Co60 O61 2.160 1_554 S
Co60 O66 2.058 . S
Co60 O76 2.057 . S
Co60 O91 2.037 . S
Co60 N95 2.145 . S
Co60 N116 2.257 1_554 S
O61 Co59 2.140 1_656 S
O61 Co60 2.160 1_556 S
C62 O63 1.278 . S
C62 O70 1.224 1_655 S
O63 C62 1.278 . S
C64 O65 1.245 . S
C64 O76 1.232 . S
O65 C64 1.245 . S
O66 Co60 2.058 . S
O66 C92 1.269 . S
O67 Co59 2.092 1_655 S
O67 C92 1.257 . S
H68 C93 0.930 . S
H69 C99 0.930 1_655 S
O70 Co59 2.075 1_556 S
O70 C62 1.224 1_455 S
H71 C103 0.929 . S
H72 C105 0.930 . S
H73 C106 0.930 . S
H74 C104 0.929 . S
H75 C107 0.928 . S
O76 Co60 2.057 . S
O76 C64 1.232 . S
H77 C96 0.929 . S
H78 C97 0.929 . S
H79 C109 0.931 . S
H80 C101 0.929 . S
H81 C110 0.930 . S
H82 C102 0.931 . S
O83 Co59 2.096 1_656 S
O83 C111 1.214 1_556 S
H84 C112 0.929 . S
H85 C113 0.929 1_554 S
H86 C114 0.930 . S
H87 C115 0.929 . S
H88 C117 0.930 . S
H89 C94 0.930 . S
H90 C98 0.930 . S
O91 Co60 2.037 . S
O91 C111 1.234 . S
C92 O66 1.269 . S
C92 O67 1.257 . S
C93 H68 0.930 . S
C93 C96 1.388 . S
C93 C98 1.418 . S
C94 H89 0.930 . S
C94 C97 1.404 . S
C94 C98 1.353 . S
N95 Co60 2.145 . S
N95 C96 1.397 . S
N95 C97 1.334 . S
C96 H77 0.929 . S
C96 C93 1.388 . S
C96 N95 1.397 . S
C97 H78 0.929 . S
C97 C94 1.404 . S
C97 N95 1.334 . S
C98 H90 0.930 . S
C98 C93 1.418 . S
C98 C94 1.353 . S
C99 H69 0.930 1_455 S
C99 N100 1.330 1_556 S
C99 C101 1.446 . S
N100 Co59 2.152 . S
N100 C99 1.330 1_554 S
N100 C104 1.418 . S
C101 H80 0.929 . S
C101 C99 1.446 . S
C101 C102 1.332 1_556 S
C102 H82 0.931 . S
C102 C101 1.332 1_554 S
C102 C103 1.267 . S
C103 H71 0.929 . S
C103 C102 1.267 . S
C103 C104 1.251 . S
C104 H74 0.929 . S
C104 N100 1.418 . S
C104 C103 1.251 . S
C105 H72 0.930 . S
C105 C107 1.406 . S
C105 C110 1.261 1_556 S
C106 H73 0.930 . S
C106 N108 1.325 . S
C106 C109 1.357 . S
C107 H75 0.928 . S
C107 C105 1.406 . S
C107 N108 1.261 1_556 S
N108 Co59 2.217 . S
N108 C106 1.325 . S
N108 C107 1.261 1_554 S
C109 H79 0.931 . S
C109 C106 1.357 . S
C109 C110 1.312 . S
C110 H81 0.930 . S
C110 C105 1.261 1_554 S
C110 C109 1.312 . S
C111 O83 1.214 1_554 S
C111 O91 1.234 . S
C112 H84 0.929 . S
C112 C115 1.391 . S
C112 C117 1.391 . S
C113 H85 0.929 1_556 S
C113 C114 1.390 . S
C113 N116 1.391 . S
C114 H86 0.930 . S
C114 C113 1.390 . S
C114 C115 1.392 . S
C115 H87 0.929 . S
C115 C112 1.391 . S
C115 C114 1.392 . S
N116 Co60 2.257 1_556 S
N116 C113 1.391 . S
N116 C117 1.388 . S
C117 H88 0.930 . S
C117 C112 1.391 . S
C117 N116 1.388 . S
Co118 O120 2.141 1_655 S
Co118 O126 2.073 1_655 S
Co118 O129 2.093 . S
Co118 O142 2.097 1_655 S
Co118 N159 2.151 . S
Co118 N167 2.216 . S
Co119 O120 2.160 . S
Co119 O125 2.058 . S
Co119 O135 2.057 . S
Co119 O150 2.037 . S
Co119 N154 2.145 . S
Co119 N175 2.257 . S
O120 Co118 2.141 1_455 S
O120 Co119 2.160 . S
C121 O122 1.278 . S
C121 O129 1.224 1_455 S
O122 C121 1.278 . S
C123 O124 1.245 . S
C123 O135 1.232 . S
O124 C123 1.245 . S
O125 Co119 2.058 . S
O125 C151 1.269 . S
O126 Co118 2.073 1_455 S
O126 C151 1.257 . S
H127 C152 0.930 . S
H128 C158 0.930 1_455 S
O129 Co118 2.093 . S
O129 C121 1.224 1_655 S
H130 C162 0.929 . S
H131 C164 0.930 . S
H132 C165 0.930 . S
H133 C163 0.929 . S
H134 C166 0.928 . S
O135 Co119 2.057 . S
O135 C123 1.232 . S
H136 C155 0.929 . S
H137 C156 0.929 . S
H138 C168 0.931 . S
H139 C160 0.929 . S
H140 C169 0.930 . S
H141 C161 0.931 . S
O142 Co118 2.097 1_455 S
O142 C170 1.214 . S
H143 C171 0.929 . S
H144 C172 0.929 . S
H145 C173 0.930 . S
H146 C174 0.929 . S
H147 C176 0.930 . S
H148 C153 0.930 . S
H149 C157 0.930 . S
O150 Co119 2.037 . S
O150 C170 1.234 . S
C151 O125 1.269 . S
C151 O126 1.257 . S
C152 H127 0.930 . S
C152 C155 1.388 . S
C152 C157 1.418 . S
C153 H148 0.930 . S
C153 C156 1.404 . S
C153 C157 1.353 . S
N154 Co119 2.145 . S
N154 C155 1.397 . S
N154 C156 1.334 . S
C155 H136 0.929 . S
C155 C152 1.388 . S
C155 N154 1.397 . S
C156 H137 0.929 . S
C156 C153 1.404 . S
C156 N154 1.334 . S
C157 H149 0.930 . S
C157 C152 1.418 . S
C157 C153 1.353 . S
C158 H128 0.930 1_655 S
C158 N159 1.330 . S
C158 C160 1.446 . S
N159 Co118 2.151 . S
N159 C158 1.330 . S
N159 C163 1.418 . S
C160 H139 0.929 . S
C160 C158 1.446 . S
C160 C161 1.332 . S
C161 H141 0.931 . S
C161 C160 1.332 . S
C161 C162 1.267 . S
C162 H130 0.929 . S
C162 C161 1.267 . S
C162 C163 1.251 . S
C163 H133 0.929 . S
C163 N159 1.418 . S
C163 C162 1.251 . S
C164 H131 0.930 . S
C164 C166 1.406 . S
C164 C169 1.261 . S
C165 H132 0.930 . S
C165 N167 1.325 . S
C165 C168 1.357 . S
C166 H134 0.928 . S
C166 C164 1.406 . S
C166 N167 1.261 . S
N167 Co118 2.216 . S
N167 C165 1.325 . S
N167 C166 1.261 . S
C168 H138 0.931 . S
C168 C165 1.357 . S
C168 C169 1.312 . S
C169 H140 0.930 . S
C169 C164 1.261 . S
C169 C168 1.312 . S
C170 O142 1.214 . S
C170 O150 1.234 . S
C171 H143 0.929 . S
C171 C174 1.391 . S
C171 C176 1.391 . S
C172 H144 0.929 . S
C172 C173 1.390 . S
C172 N175 1.391 . S
C173 H145 0.930 . S
C173 C172 1.390 . S
C173 C174 1.392 . S
C174 H146 0.929 . S
C174 C171 1.391 . S
C174 C173 1.392 . S
N175 Co119 2.257 . S
N175 C172 1.391 . S
N175 C176 1.388 . S
C176 H147 0.930 . S
C176 C171 1.391 . S
C176 N175 1.388 . S
Co177 O179 2.141 1_455 S
Co177 O185 2.073 1_455 S
Co177 O188 2.093 . S
Co177 O201 2.097 1_455 S
Co177 N218 2.151 . S
Co177 N226 2.216 . S
Co178 O179 2.160 . S
Co178 O184 2.058 . S
Co178 O194 2.057 . S
Co178 O209 2.037 . S
Co178 N213 2.145 . S
Co178 N234 2.257 . S
O179 Co177 2.141 1_655 S
O179 Co178 2.160 . S
C180 O181 1.278 . S
C180 O188 1.224 1_655 S
O181 C180 1.278 . S
C182 O183 1.245 . S
C182 O194 1.232 . S
O183 C182 1.245 . S
O184 Co178 2.058 . S
O184 C210 1.269 . S
O185 Co177 2.073 1_655 S
O185 C210 1.257 . S
H186 C211 0.930 . S
H187 C217 0.930 1_655 S
O188 Co177 2.093 . S
O188 C180 1.224 1_455 S
H189 C221 0.929 . S
H190 C223 0.930 . S
H191 C224 0.930 . S
H192 C222 0.929 . S
H193 C225 0.928 . S
O194 Co178 2.057 . S
O194 C182 1.232 . S
H195 C214 0.929 . S
H196 C215 0.929 . S
H197 C227 0.931 . S
H198 C219 0.929 . S
H199 C228 0.930 . S
H200 C220 0.931 . S
O201 Co177 2.097 1_655 S
O201 C229 1.214 . S
H202 C230 0.929 . S
H203 C231 0.929 . S
H204 C232 0.930 . S
H205 C233 0.929 . S
H206 C235 0.930 . S
H207 C212 0.930 . S
H208 C216 0.930 . S
O209 Co178 2.037 . S
O209 C229 1.234 . S
C210 O184 1.269 . S
C210 O185 1.257 . S
C211 H186 0.930 . S
C211 C214 1.388 . S
C211 C216 1.418 . S
C212 H207 0.930 . S
C212 C215 1.404 . S
C212 C216 1.353 . S
N213 Co178 2.145 . S
N213 C214 1.397 . S
N213 C215 1.334 . S
C214 H195 0.929 . S
C214 C211 1.388 . S
C214 N213 1.397 . S
C215 H196 0.929 . S
C215 C212 1.404 . S
C215 N213 1.334 . S
C216 H208 0.930 . S
C216 C211 1.418 . S
C216 C212 1.353 . S
C217 H187 0.930 1_455 S
C217 N218 1.330 . S
C217 C219 1.446 . S
N218 Co177 2.151 . S
N218 C217 1.330 . S
N218 C222 1.418 . S
C219 H198 0.929 . S
C219 C217 1.446 . S
C219 C220 1.332 . S
C220 H200 0.931 . S
C220 C219 1.332 . S
C220 C221 1.267 . S
C221 H189 0.929 . S
C221 C220 1.267 . S
C221 C222 1.251 . S
C222 H192 0.929 . S
C222 N218 1.418 . S
C222 C221 1.251 . S
C223 H190 0.930 . S
C223 C225 1.406 . S
C223 C228 1.261 . S
C224 H191 0.930 . S
C224 N226 1.325 . S
C224 C227 1.357 . S
C225 H193 0.928 . S
C225 C223 1.406 . S
C225 N226 1.261 . S
N226 Co177 2.216 . S
N226 C224 1.325 . S
N226 C225 1.261 . S
C227 H197 0.931 . S
C227 C224 1.357 . S
C227 C228 1.312 . S
C228 H199 0.930 . S
C228 C223 1.261 . S
C228 C227 1.312 . S
C229 O201 1.214 . S
C229 O209 1.234 . S
C230 H202 0.929 . S
C230 C233 1.391 . S
C230 C235 1.391 . S
C231 H203 0.929 . S
C231 C232 1.390 . S
C231 N234 1.391 . S
C232 H204 0.930 . S
C232 C231 1.390 . S
C232 C233 1.392 . S
C233 H205 0.929 . S
C233 C230 1.391 . S
C233 C232 1.392 . S
N234 Co178 2.257 . S
N234 C231 1.391 . S
N234 C235 1.388 . S
C235 H206 0.930 . S
C235 C230 1.391 . S
C235 N234 1.388 . S
Co236 O238 2.142 1_554 S
Co236 O244 2.092 . S
Co236 O247 2.074 1_554 S
Co236 O260 2.096 1_554 S
Co236 N277 2.151 . S
Co236 N285 2.216 . S
Co237 O238 2.160 1_554 S
Co237 O243 2.058 . S
Co237 O253 2.057 . S
Co237 O268 2.037 . S
Co237 N272 2.145 . S
Co237 N293 2.257 1_554 S
O238 Co236 2.142 1_556 S
O238 Co237 2.160 1_556 S
C239 O240 1.278 . S
C239 O247 1.224 . S
O240 C239 1.278 . S
C241 O242 1.245 . S
C241 O253 1.232 . S
O242 C241 1.245 . S
O243 Co237 2.058 . S
O243 C269 1.269 . S
O244 Co236 2.092 . S
O244 C269 1.257 . S
H245 C270 0.930 . S
H246 C276 0.930 . S
O247 Co236 2.074 1_556 S
O247 C239 1.224 . S
H248 C280 0.929 . S
H249 C282 0.930 . S
H250 C283 0.930 . S
H251 C281 0.929 . S
H252 C284 0.928 . S
O253 Co237 2.057 . S
O253 C241 1.232 . S
H254 C273 0.929 . S
H255 C274 0.929 . S
H256 C286 0.931 . S
H257 C278 0.929 . S
H258 C287 0.930 . S
H259 C279 0.931 . S
O260 Co236 2.096 1_556 S
O260 C288 1.214 1_556 S
H261 C289 0.929 . S
H262 C290 0.929 1_554 S
H263 C291 0.930 . S
H264 C292 0.929 . S
H265 C294 0.930 . S
H266 C271 0.930 . S
H267 C275 0.930 . S
O268 Co237 2.037 . S
O268 C288 1.234 . S
C269 O243 1.269 . S
C269 O244 1.257 . S
C270 H245 0.930 . S
C270 C273 1.388 . S
C270 C275 1.418 . S
C271 H266 0.930 . S
C271 C274 1.404 . S
C271 C275 1.353 . S
N272 Co237 2.145 . S
N272 C273 1.397 . S
N272 C274 1.334 . S
C273 H254 0.929 . S
C273 C270 1.388 . S
C273 N272 1.397 . S
C274 H255 0.929 . S
C274 C271 1.404 . S
C274 N272 1.334 . S
C275 H267 0.930 . S
C275 C270 1.418 . S
C275 C271 1.353 . S
C276 H246 0.930 . S
C276 N277 1.330 1_556 S
C276 C278 1.446 . S
N277 Co236 2.151 . S
N277 C276 1.330 1_554 S
N277 C281 1.418 . S
C278 H257 0.929 . S
C278 C276 1.446 . S
C278 C279 1.332 1_556 S
C279 H259 0.931 . S
C279 C278 1.332 1_554 S
C279 C280 1.267 . S
C280 H248 0.929 . S
C280 C279 1.267 . S
C280 C281 1.251 . S
C281 H251 0.929 . S
C281 N277 1.418 . S
C281 C280 1.251 . S
C282 H249 0.930 . S
C282 C284 1.406 . S
C282 C287 1.261 1_556 S
C283 H250 0.930 . S
C283 N285 1.325 . S
C283 C286 1.357 . S
C284 H252 0.928 . S
C284 C282 1.406 . S
C284 N285 1.261 1_556 S
N285 Co236 2.216 . S
N285 C283 1.325 . S
N285 C284 1.261 1_554 S
C286 H256 0.931 . S
C286 C283 1.357 . S
C286 C287 1.312 . S
C287 H258 0.930 . S
C287 C282 1.261 1_554 S
C287 C286 1.312 . S
C288 O260 1.214 1_554 S
C288 O268 1.234 . S
C289 H261 0.929 . S
C289 C292 1.391 . S
C289 C294 1.391 . S
C290 H262 0.929 1_556 S
C290 C291 1.390 . S
C290 N293 1.391 . S
C291 H263 0.930 . S
C291 C290 1.390 . S
C291 C292 1.392 . S
C292 H264 0.929 . S
C292 C289 1.391 . S
C292 C291 1.392 . S
N293 Co237 2.257 1_556 S
N293 C290 1.391 . S
N293 C294 1.388 . S
C294 H265 0.930 . S
C294 C289 1.391 . S
C294 N293 1.388 . S
Co295 O297 2.142 1_554 S
Co295 O303 2.092 . S
Co295 O306 2.074 1_554 S
Co295 O319 2.096 1_554 S
Co295 N336 2.151 . S
Co295 N344 2.216 . S
Co296 O297 2.160 1_554 S
Co296 O302 2.058 . S
Co296 O312 2.057 . S
Co296 O327 2.037 . S
Co296 N331 2.145 . S
Co296 N352 2.257 1_554 S
O297 Co295 2.142 1_556 S
O297 Co296 2.160 1_556 S
C298 O299 1.278 . S
C298 O306 1.224 . S
O299 C298 1.278 . S
C300 O301 1.245 . S
C300 O312 1.232 . S
O301 C300 1.245 . S
O302 Co296 2.058 . S
O302 C328 1.269 . S
O303 Co295 2.092 . S
O303 C328 1.257 . S
H304 C329 0.930 . S
H305 C335 0.930 . S
O306 Co295 2.074 1_556 S
O306 C298 1.224 . S
H307 C339 0.929 . S
H308 C341 0.930 . S
H309 C342 0.930 . S
H310 C340 0.929 . S
H311 C343 0.928 . S
O312 Co296 2.057 . S
O312 C300 1.232 . S
H313 C332 0.929 . S
H314 C333 0.929 . S
H315 C345 0.931 . S
H316 C337 0.929 . S
H317 C346 0.930 . S
H318 C338 0.931 . S
O319 Co295 2.096 1_556 S
O319 C347 1.214 1_556 S
H320 C348 0.929 . S
H321 C349 0.929 1_554 S
H322 C350 0.930 . S
H323 C351 0.929 . S
H324 C353 0.930 . S
H325 C330 0.930 . S
H326 C334 0.930 . S
O327 Co296 2.037 . S
O327 C347 1.234 . S
C328 O302 1.269 . S
C328 O303 1.257 . S
C329 H304 0.930 . S
C329 C332 1.388 . S
C329 C334 1.418 . S
C330 H325 0.930 . S
C330 C333 1.404 . S
C330 C334 1.353 . S
N331 Co296 2.145 . S
N331 C332 1.397 . S
N331 C333 1.334 . S
C332 H313 0.929 . S
C332 C329 1.388 . S
C332 N331 1.397 . S
C333 H314 0.929 . S
C333 C330 1.404 . S
C333 N331 1.334 . S
C334 H326 0.930 . S
C334 C329 1.418 . S
C334 C330 1.353 . S
C335 H305 0.930 . S
C335 N336 1.330 1_556 S
C335 C337 1.446 . S
N336 Co295 2.151 . S
N336 C335 1.330 1_554 S
N336 C340 1.418 . S
C337 H316 0.929 . S
C337 C335 1.446 . S
C337 C338 1.332 1_556 S
C338 H318 0.931 . S
C338 C337 1.332 1_554 S
C338 C339 1.267 . S
C339 H307 0.929 . S
C339 C338 1.267 . S
C339 C340 1.251 . S
C340 H310 0.929 . S
C340 N336 1.418 . S
C340 C339 1.251 . S
C341 H308 0.930 . S
C341 C343 1.406 . S
C341 C346 1.261 1_556 S
C342 H309 0.930 . S
C342 N344 1.325 . S
C342 C345 1.357 . S
C343 H311 0.928 . S
C343 C341 1.406 . S
C343 N344 1.261 1_556 S
N344 Co295 2.216 . S
N344 C342 1.325 . S
N344 C343 1.261 1_554 S
C345 H315 0.931 . S
C345 C342 1.357 . S
C345 C346 1.312 . S
C346 H317 0.930 . S
C346 C341 1.261 1_554 S
C346 C345 1.312 . S
C347 O319 1.214 1_554 S
C347 O327 1.234 . S
C348 H320 0.929 . S
C348 C351 1.391 . S
C348 C353 1.391 . S
C349 H321 0.929 1_556 S
C349 C350 1.390 . S
C349 N352 1.391 . S
C350 H322 0.930 . S
C350 C349 1.390 . S
C350 C351 1.392 . S
C351 H323 0.929 . S
C351 C348 1.391 . S
C351 C350 1.392 . S
N352 Co296 2.257 1_556 S
N352 C349 1.391 . S
N352 C353 1.388 . S
C353 H324 0.930 . S
C353 C348 1.391 . S
C353 N352 1.388 . S
Co354 O356 2.143 . S
Co354 O362 2.074 . S
Co354 O365 2.093 . S
Co354 O378 2.097 . S
Co354 N395 2.151 . S
Co354 N403 2.214 . S
Co355 O356 2.160 . S
Co355 O361 2.058 . S
Co355 O371 2.057 . S
Co355 O386 2.037 . S
Co355 N390 2.145 . S
Co355 N411 2.257 . S
O356 Co354 2.143 . S
O356 Co355 2.160 . S
C357 O358 1.278 . S
C357 O365 1.224 . S
O358 C357 1.278 . S
C359 O360 1.245 . S
C359 O371 1.232 . S
O360 C359 1.245 . S
O361 Co355 2.058 . S
O361 C387 1.269 . S
O362 Co354 2.074 . S
O362 C387 1.257 . S
H363 C388 0.930 . S
H364 C394 0.930 . S
O365 Co354 2.093 . S
O365 C357 1.224 . S
H366 C398 0.929 . S
H367 C400 0.930 . S
H368 C401 0.930 . S
H369 C399 0.929 . S
H370 C402 0.928 . S
O371 Co355 2.057 . S
O371 C359 1.232 . S
H372 C391 0.929 . S
H373 C392 0.929 . S
H374 C404 0.931 . S
H375 C396 0.929 . S
H376 C405 0.930 . S
H377 C397 0.931 . S
O378 Co354 2.097 . S
O378 C406 1.214 . S
H379 C407 0.929 . S
H380 C408 0.929 . S
H381 C409 0.930 . S
H382 C410 0.929 . S
H383 C412 0.930 . S
H384 C389 0.930 . S
H385 C393 0.930 . S
O386 Co355 2.037 . S
O386 C406 1.234 . S
C387 O361 1.269 . S
C387 O362 1.257 . S
C388 H363 0.930 . S
C388 C391 1.388 . S
C388 C393 1.418 . S
C389 H384 0.930 . S
C389 C392 1.404 . S
C389 C393 1.353 . S
N390 Co355 2.145 . S
N390 C391 1.397 . S
N390 C392 1.334 . S
C391 H372 0.929 . S
C391 C388 1.388 . S
C391 N390 1.397 . S
C392 H373 0.929 . S
C392 C389 1.404 . S
C392 N390 1.334 . S
C393 H385 0.930 . S
C393 C388 1.418 . S
C393 C389 1.353 . S
C394 H364 0.930 . S
C394 N395 1.330 . S
C394 C396 1.446 . S
N395 Co354 2.151 . S
N395 C394 1.330 . S
N395 C399 1.418 . S
C396 H375 0.929 . S
C396 C394 1.446 . S
C396 C397 1.332 . S
C397 H377 0.931 . S
C397 C396 1.332 . S
C397 C398 1.267 . S
C398 H366 0.929 . S
C398 C397 1.267 . S
C398 C399 1.251 . S
C399 H369 0.929 . S
C399 N395 1.418 . S
C399 C398 1.251 . S
C400 H367 0.930 . S
C400 C402 1.406 . S
C400 C405 1.261 . S
C401 H368 0.930 . S
C401 N403 1.325 . S
C401 C404 1.357 . S
C402 H370 0.928 . S
C402 C400 1.406 . S
C402 N403 1.261 . S
N403 Co354 2.214 . S
N403 C401 1.325 . S
N403 C402 1.261 . S
C404 H374 0.931 . S
C404 C401 1.357 . S
C404 C405 1.312 . S
C405 H376 0.930 . S
C405 C400 1.261 . S
C405 C404 1.312 . S
C406 O378 1.214 . S
C406 O386 1.234 . S
C407 H379 0.929 . S
C407 C410 1.391 . S
C407 C412 1.391 . S
C408 H380 0.929 . S
C408 C409 1.390 . S
C408 N411 1.391 . S
C409 H381 0.930 . S
C409 C408 1.390 . S
C409 C410 1.392 . S
C410 H382 0.929 . S
C410 C407 1.391 . S
C410 C409 1.392 . S
N411 Co355 2.257 . S
N411 C408 1.391 . S
N411 C412 1.388 . S
C412 H383 0.930 . S
C412 C407 1.391 . S
C412 N411 1.388 . S
Co413 O415 2.143 . S
Co413 O421 2.074 . S
Co413 O424 2.093 . S
Co413 O437 2.097 . S
Co413 N454 2.151 . S
Co413 N462 2.214 . S
Co414 O415 2.160 . S
Co414 O420 2.058 . S
Co414 O430 2.057 . S
Co414 O445 2.037 . S
Co414 N449 2.145 . S
Co414 N470 2.257 . S
O415 Co413 2.143 . S
O415 Co414 2.160 . S
C416 O417 1.278 . S
C416 O424 1.224 . S
O417 C416 1.278 . S
C418 O419 1.245 . S
C418 O430 1.232 . S
O419 C418 1.245 . S
O420 Co414 2.058 . S
O420 C446 1.269 . S
O421 Co413 2.074 . S
O421 C446 1.257 . S
H422 C447 0.930 . S
H423 C453 0.930 . S
O424 Co413 2.093 . S
O424 C416 1.224 . S
H425 C457 0.929 . S
H426 C459 0.930 . S
H427 C460 0.930 . S
H428 C458 0.929 . S
H429 C461 0.928 . S
O430 Co414 2.057 . S
O430 C418 1.232 . S
H431 C450 0.929 . S
H432 C451 0.929 . S
H433 C463 0.931 . S
H434 C455 0.929 . S
H435 C464 0.930 . S
H436 C456 0.931 . S
O437 Co413 2.097 . S
O437 C465 1.214 . S
H438 C466 0.929 . S
H439 C467 0.929 . S
H440 C468 0.930 . S
H441 C469 0.929 . S
H442 C471 0.930 . S
H443 C448 0.930 . S
H444 C452 0.930 . S
O445 Co414 2.037 . S
O445 C465 1.234 . S
C446 O420 1.269 . S
C446 O421 1.257 . S
C447 H422 0.930 . S
C447 C450 1.388 . S
C447 C452 1.418 . S
C448 H443 0.930 . S
C448 C451 1.404 . S
C448 C452 1.353 . S
N449 Co414 2.145 . S
N449 C450 1.397 . S
N449 C451 1.334 . S
C450 H431 0.929 . S
C450 C447 1.388 . S
C450 N449 1.397 . S
C451 H432 0.929 . S
C451 C448 1.404 . S
C451 N449 1.334 . S
C452 H444 0.930 . S
C452 C447 1.418 . S
C452 C448 1.353 . S
C453 H423 0.930 . S
C453 N454 1.330 . S
C453 C455 1.446 . S
N454 Co413 2.151 . S
N454 C453 1.330 . S
N454 C458 1.418 . S
C455 H434 0.929 . S
C455 C453 1.446 . S
C455 C456 1.332 . S
C456 H436 0.931 . S
C456 C455 1.332 . S
C456 C457 1.267 . S
C457 H425 0.929 . S
C457 C456 1.267 . S
C457 C458 1.251 . S
C458 H428 0.929 . S
C458 N454 1.418 . S
C458 C457 1.251 . S
C459 H426 0.930 . S
C459 C461 1.406 . S
C459 C464 1.261 . S
C460 H427 0.930 . S
C460 N462 1.325 . S
C460 C463 1.357 . S
C461 H429 0.928 . S
C461 C459 1.406 . S
C461 N462 1.261 . S
N462 Co413 2.214 . S
N462 C460 1.325 . S
N462 C461 1.261 . S
C463 H433 0.931 . S
C463 C460 1.357 . S
C463 C464 1.312 . S
C464 H435 0.930 . S
C464 C459 1.261 . S
C464 C463 1.312 . S
C465 O437 1.214 . S
C465 O445 1.234 . S
C466 H438 0.929 . S
C466 C469 1.391 . S
C466 C471 1.391 . S
C467 H439 0.929 . S
C467 C468 1.390 . S
C467 N470 1.391 . S
C468 H440 0.930 . S
C468 C467 1.390 . S
C468 C469 1.392 . S
C469 H441 0.929 . S
C469 C466 1.391 . S
C469 C468 1.392 . S
N470 Co414 2.257 . S
N470 C467 1.391 . S
N470 C471 1.388 . S
C471 H442 0.930 . S
C471 C466 1.391 . S
C471 N470 1.388 . S
C472 C473 1.387 1_456 S
C472 C474 1.394 . S
C472 H488 0.935 . S
C473 C472 1.387 1_654 S
C473 C477 1.376 . S
C474 C472 1.394 . S
C474 C475 1.369 1_456 S
C474 C478 1.531 . S
C475 C474 1.369 1_654 S
C475 C476 1.410 . S
C475 C483 1.503 1_665 S
C476 C475 1.410 . S
C476 C477 1.392 . S
C476 C479 1.511 . S
C477 C473 1.376 . S
C477 C476 1.392 . S
C477 H489 0.929 . S
C478 C474 1.531 . S
C478 H490 0.960 . S
C478 H491 0.962 . S
C478 H492 0.960 . S
C479 C476 1.511 . S
C479 H493 0.961 . S
C479 H494 0.961 1_565 S
C479 H495 0.961 1_565 S
C480 C481 1.370 . S
C480 C482 1.363 . S
C480 H496 0.931 . S
C481 C480 1.370 . S
C481 C485 1.408 1_554 S
C482 C480 1.363 . S
C482 C483 1.370 . S
C482 C486 1.524 . S
C483 C475 1.503 1_445 S
C483 C482 1.370 . S
C483 C484 1.403 1_454 S
C484 C483 1.403 1_656 S
C484 C485 1.404 1_655 S
C484 C487 1.539 . S
C485 C481 1.408 1_556 S
C485 C484 1.404 1_455 S
C485 H497 0.930 1_455 S
C486 C482 1.524 . S
C486 H498 0.956 1_545 S
C486 H499 0.961 1_545 S
C486 H500 0.961 . S
C487 C484 1.539 . S
C487 H501 0.958 . S
C487 H502 0.961 . S
C487 H503 0.960 . S
H488 C472 0.935 . S
H489 C477 0.929 . S
H490 C478 0.960 . S
H491 C478 0.962 . S
H492 C478 0.960 . S
H493 C479 0.961 . S
H494 C479 0.961 1_545 S
H495 C479 0.961 1_545 S
H496 C480 0.931 . S
H497 C485 0.930 1_655 S
H498 C486 0.956 1_565 S
H499 C486 0.961 1_565 S
H500 C486 0.961 . S
H501 C487 0.958 . S
H502 C487 0.961 . S
H503 C487 0.960 . S
C504 C505 1.391 . S
C504 C506 1.394 . S
C504 H520 0.931 . S
C505 C504 1.391 . S
C505 C509 1.376 1_455 S
C506 C504 1.394 . S
C506 C507 1.369 . S
C506 C510 1.531 . S
C507 C506 1.369 . S
C507 C508 1.410 1_455 S
C507 C515 1.503 1_465 S
C508 C507 1.410 1_655 S
C508 C509 1.392 . S
C508 C511 1.511 . S
C509 C505 1.376 1_655 S
C509 C508 1.392 . S
C509 H521 0.929 . S
C510 C506 1.531 . S
C510 H522 0.960 1_565 S
C510 H523 0.962 1_565 S
C510 H524 0.960 . S
C511 C508 1.511 . S
C511 H525 0.961 . S
C511 H526 0.961 . S
C511 H527 0.961 . S
C512 C513 1.370 . S
C512 C514 1.363 1_655 S
C512 H528 0.931 1_655 S
C513 C512 1.370 . S
C513 C517 1.408 . S
C514 C512 1.363 1_455 S
C514 C515 1.370 1_455 S
C514 C518 1.524 . S
C515 C507 1.503 1_645 S
C515 C514 1.370 1_655 S
C515 C516 1.403 . S
C516 C515 1.403 . S
C516 C517 1.404 . S
C516 C519 1.539 . S
C517 C513 1.408 . S
C517 C516 1.404 . S
C517 H529 0.930 . S
C518 C514 1.524 . S
C518 H530 0.956 . S
C518 H531 0.974 . S
C518 H532 0.961 . S
C519 C516 1.539 . S
C519 H533 0.958 . S
C519 H534 0.961 . S
C519 H535 0.960 1_545 S
H520 C504 0.931 . S
H521 C509 0.929 . S
H522 C510 0.960 1_545 S
H523 C510 0.962 1_545 S
H524 C510 0.960 . S
H525 C511 0.961 . S
H526 C511 0.961 . S
H527 C511 0.961 . S
H528 C512 0.931 1_455 S
H529 C517 0.930 . S
H530 C518 0.956 . S
H531 C518 0.974 . S
H532 C518 0.961 . S
H533 C519 0.958 . S
H534 C519 0.961 . S
H535 C519 0.960 1_565 S
C536 C537 1.391 1_556 S
C536 C538 1.394 . S
C536 H552 0.931 . S
C537 C536 1.391 1_554 S
C537 C541 1.376 . S
C538 C536 1.394 . S
C538 C539 1.369 1_556 S
C538 C542 1.531 . S
C539 C538 1.369 1_554 S
C539 C540 1.410 . S
C539 C547 1.503 . S
C540 C539 1.410 . S
C540 C541 1.392 . S
C540 C543 1.511 . S
C541 C537 1.376 . S
C541 C540 1.392 . S
C541 H553 0.929 . S
C542 C538 1.531 . S
C542 H554 0.960 . S
C542 H555 0.962 . S
C542 H556 0.960 . S
C543 C540 1.511 . S
C543 H557 0.961 . S
C543 H558 0.961 . S
C543 H559 0.961 . S
C544 C545 1.370 . S
C544 C546 1.363 . S
C544 H560 0.931 . S
C545 C544 1.370 . S
C545 C549 1.408 1_554 S
C546 C544 1.363 . S
C546 C547 1.370 . S
C546 C550 1.524 . S
C547 C539 1.503 . S
C547 C546 1.370 . S
C547 C548 1.403 1_554 S
C548 C547 1.403 1_556 S
C548 C549 1.404 . S
C548 C551 1.539 . S
C549 C545 1.408 1_556 S
C549 C548 1.404 . S
C549 H561 0.930 . S
C550 C546 1.524 . S
C550 H562 0.956 . S
C550 H563 0.961 . S
C550 H564 0.961 . S
C551 C548 1.539 . S
C551 H565 0.958 . S
C551 H566 0.961 . S
C551 H567 0.960 . S
H552 C536 0.931 . S
H553 C541 0.929 . S
H554 C542 0.960 . S
H555 C542 0.962 . S
H556 C542 0.960 . S
H557 C543 0.961 . S
H558 C543 0.961 . S
H559 C543 0.961 . S
H560 C544 0.931 . S
H561 C549 0.930 . S
H562 C550 0.956 . S
H563 C550 0.961 . S
H564 C550 0.961 . S
H565 C551 0.958 . S
H566 C551 0.961 . S
H567 C551 0.960 . S
C568 C569 1.391 . S
C568 C570 1.394 . S
C568 H584 0.931 . S
C569 C568 1.391 . S
C569 C573 1.376 . S
C570 C568 1.394 . S
C570 C571 1.369 . S
C570 C574 1.531 . S
C571 C570 1.369 . S
C571 C572 1.410 . S
C571 C579 1.503 . S
C572 C571 1.410 . S
C572 C573 1.392 . S
C572 C575 1.511 . S
C573 C569 1.376 . S
C573 C572 1.392 . S
C573 H585 0.929 . S
C574 C570 1.531 . S
C574 H586 0.960 . S
C574 H587 0.962 . S
C574 H588 0.960 . S
C575 C572 1.511 . S
C575 H589 0.961 . S
C575 H590 0.961 . S
C575 H591 0.961 . S
C576 C577 1.370 . S
C576 C578 1.363 . S
C576 H592 0.931 . S
C577 C576 1.370 . S
C577 C581 1.408 . S
C578 C576 1.363 . S
C578 C579 1.370 . S
C578 C582 1.524 . S
C579 C571 1.503 . S
C579 C578 1.370 . S
C579 C580 1.403 . S
C580 C579 1.403 . S
C580 C581 1.404 . S
C580 C583 1.539 . S
C581 C577 1.408 . S
C581 C580 1.404 . S
C581 H593 0.930 . S
C582 C578 1.524 . S
C582 H594 0.956 . S
C582 H595 0.961 . S
C582 H596 0.961 . S
C583 C580 1.539 . S
C583 H597 0.958 . S
C583 H598 0.961 . S
C583 H599 0.960 . S
H584 C568 0.931 . S
H585 C573 0.929 . S
H586 C574 0.960 . S
H587 C574 0.962 . S
H588 C574 0.960 . S
H589 C575 0.961 . S
H590 C575 0.961 . S
H591 C575 0.961 . S
H592 C576 0.931 . S
H593 C581 0.930 . S
H594 C582 0.956 . S
H595 C582 0.961 . S
H596 C582 0.961 . S
H597 C583 0.958 . S
H598 C583 0.961 . S
H599 C583 0.960 . S
C600 C601 1.391 . S
C600 C602 1.394 . S
C600 H616 0.931 . S
C601 C600 1.391 . S
C601 C605 1.376 1_455 S
C602 C600 1.394 . S
C602 C603 1.369 . S
C602 C606 1.531 . S
C603 C602 1.369 . S
C603 C604 1.410 1_455 S
C603 C611 1.499 1_455 S
C604 C603 1.410 1_655 S
C604 C605 1.392 . S
C604 C607 1.511 . S
C605 C601 1.376 1_655 S
C605 C604 1.392 . S
C605 H617 0.929 . S
C606 C602 1.531 . S
C606 H618 0.960 . S
C606 H619 0.962 . S
C606 H620 0.960 . S
C607 C604 1.511 . S
C607 H621 0.961 . S
C607 H622 0.961 . S
C607 H623 0.961 . S
C608 C609 1.370 . S
C608 C610 1.363 . S
C608 H624 0.931 . S
C609 C608 1.370 . S
C609 C613 1.408 1_655 S
C610 C608 1.363 . S
C610 C611 1.381 . S
C610 C614 1.524 . S
C611 C603 1.499 1_655 S
C611 C610 1.381 . S
C611 C612 1.397 1_655 S
C612 C611 1.397 1_455 S
C612 C613 1.404 . S
C612 C615 1.539 . S
C613 C609 1.408 1_455 S
C613 C612 1.404 . S
C613 H625 0.930 . S
C614 C610 1.524 . S
C614 H626 0.956 . S
C614 H627 0.961 . S
C614 H628 0.961 . S
C615 C612 1.539 . S
C615 H629 0.958 . S
C615 H630 0.961 . S
C615 H631 0.960 . S
H616 C600 0.931 . S
H617 C605 0.929 . S
H618 C606 0.960 . S
H619 C606 0.962 . S
H620 C606 0.960 . S
H621 C607 0.961 . S
H622 C607 0.961 . S
H623 C607 0.961 . S
H624 C608 0.931 . S
H625 C613 0.930 . S
H626 C614 0.956 . S
H627 C614 0.961 . S
H628 C614 0.961 . S
H629 C615 0.958 . S
H630 C615 0.961 . S
H631 C615 0.960 . S
C632 C633 1.391 1_655 S
C632 C634 1.394 . S
C632 H648 0.931 . S
C633 C632 1.391 1_455 S
C633 C637 1.376 . S
C634 C632 1.394 . S
C634 C635 1.369 1_655 S
C634 C638 1.531 . S
C635 C634 1.369 1_455 S
C635 C636 1.410 . S
C635 C643 1.509 . S
C636 C635 1.410 . S
C636 C637 1.392 . S
C636 C639 1.511 . S
C637 C633 1.376 . S
C637 C636 1.392 . S
C637 H649 0.929 . S
C638 C634 1.531 . S
C638 H650 0.960 . S
C638 H651 0.962 . S
C638 H652 0.960 . S
C639 C636 1.511 . S
C639 H653 0.961 . S
C639 H654 0.961 . S
C639 H655 0.961 . S
C640 C641 1.370 . S
C640 C642 1.363 . S
C640 H656 0.931 . S
C641 C640 1.370 . S
C641 C645 1.408 1_655 S
C642 C640 1.363 . S
C642 C643 1.351 1_655 S
C642 C646 1.524 . S
C643 C635 1.509 . S
C643 C642 1.351 1_455 S
C643 C644 1.417 . S
C644 C643 1.417 . S
C644 C645 1.404 . S
C644 C647 1.539 . S
C645 C641 1.408 1_455 S
C645 C644 1.404 . S
C645 H657 0.930 . S
C646 C642 1.524 . S
C646 H658 0.956 . S
C646 H659 0.961 . S
C646 H660 0.961 . S
C647 C644 1.539 . S
C647 H661 0.958 . S
C647 H662 0.961 . S
C647 H663 0.960 . S
H648 C632 0.931 . S
H649 C637 0.929 . S
H650 C638 0.960 . S
H651 C638 0.962 . S
H652 C638 0.960 . S
H653 C639 0.961 . S
H654 C639 0.961 . S
H655 C639 0.961 . S
H656 C640 0.931 . S
H657 C645 0.930 . S
H658 C646 0.956 . S
H659 C646 0.961 . S
H660 C646 0.961 . S
H661 C647 0.958 . S
H662 C647 0.961 . S
H663 C647 0.960 . S
C664 C665 1.391 1_655 S
C664 C666 1.394 . S
C664 H680 0.931 . S
C665 C664 1.391 1_455 S
C665 C669 1.376 . S
C666 C664 1.394 . S
C666 C667 1.369 1_655 S
C666 C670 1.531 . S
C667 C666 1.369 1_455 S
C667 C668 1.410 . S
C667 C675 1.507 . S
C668 C667 1.410 . S
C668 C669 1.392 . S
C668 C671 1.511 . S
C669 C665 1.376 . S
C669 C668 1.392 . S
C669 H681 0.929 . S
C670 C666 1.531 . S
C670 H682 0.960 . S
C670 H683 0.962 . S
C670 H684 0.960 . S
C671 C668 1.511 . S
C671 H685 0.961 . S
C671 H686 0.961 . S
C671 H687 0.961 . S
C672 C673 1.370 . S
C672 C674 1.363 . S
C672 H688 0.931 . S
C673 C672 1.370 . S
C673 C677 1.408 1_655 S
C674 C672 1.363 . S
C674 C675 1.359 1_655 S
C674 C678 1.524 . S
C675 C667 1.507 . S
C675 C674 1.359 1_455 S
C675 C676 1.411 . S
C676 C675 1.411 . S
C676 C677 1.404 . S
C676 C679 1.539 . S
C677 C673 1.408 1_455 S
C677 C676 1.404 . S
C677 H689 0.930 . S
C678 C674 1.524 . S
C678 H690 0.956 . S
C678 H691 0.961 . S
C678 H692 0.961 . S
C679 C676 1.539 . S
C679 H693 0.958 . S
C679 H694 0.961 . S
C679 H695 0.960 . S
H680 C664 0.931 . S
H681 C669 0.929 . S
H682 C670 0.960 . S
H683 C670 0.962 . S
H684 C670 0.960 . S
H685 C671 0.961 . S
H686 C671 0.961 . S
H687 C671 0.961 . S
H688 C672 0.931 . S
H689 C677 0.930 . S
H690 C678 0.956 . S
H691 C678 0.961 . S
H692 C678 0.961 . S
H693 C679 0.958 . S
H694 C679 0.961 . S
H695 C679 0.960 . S
C696 C697 1.391 . S
C696 C698 1.394 . S
C696 H712 0.931 . S
C697 C696 1.391 . S
C697 C701 1.376 1_455 S
C698 C696 1.394 . S
C698 C699 1.369 1_455 S
C698 C702 1.531 . S
C699 C698 1.369 1_655 S
C699 C700 1.410 . S
C699 C707 1.503 . S
C700 C699 1.410 . S
C700 C701 1.392 . S
C700 C703 1.511 . S
C701 C697 1.376 1_655 S
C701 C700 1.392 . S
C701 H713 0.929 . S
C702 C698 1.531 . S
C702 H714 0.960 . S
C702 H715 0.962 . S
C702 H716 0.960 . S
C703 C700 1.511 . S
C703 H717 0.961 . S
C703 H718 0.961 . S
C703 H719 0.961 . S
C704 C705 1.370 1_455 S
C704 C706 1.363 . S
C704 H720 0.931 . S
C705 C704 1.370 1_655 S
C705 C709 1.408 . S
C706 C704 1.363 . S
C706 C707 1.370 1_455 S
C706 C710 1.524 . S
C707 C699 1.503 . S
C707 C706 1.370 1_655 S
C707 C708 1.403 . S
C708 C707 1.403 . S
C708 C709 1.404 . S
C708 C711 1.539 . S
C709 C705 1.408 . S
C709 C708 1.404 . S
C709 H721 0.930 . S
C710 C706 1.524 . S
C710 H722 0.956 . S
C710 H723 0.961 . S
C710 H724 0.961 . S
C711 C708 1.539 . S
C711 H725 0.958 . S
C711 H726 0.961 . S
C711 H727 0.960 . S
H712 C696 0.931 . S
H713 C701 0.929 . S
H714 C702 0.960 . S
H715 C702 0.962 . S
H716 C702 0.960 . S
H717 C703 0.961 . S
H718 C703 0.961 . S
H719 C703 0.961 . S
H720 C704 0.931 . S
H721 C709 0.930 . S
H722 C710 0.956 . S
H723 C710 0.961 . S
H724 C710 0.961 . S
H725 C711 0.958 . S
H726 C711 0.961 . S
H727 C711 0.960 . S
C728 C729 1.391 . S
C728 C730 1.394 . S
C728 H744 0.931 . S
C729 C728 1.391 . S
C729 C733 1.376 . S
C730 C728 1.394 . S
C730 C731 1.369 . S
C730 C734 1.531 . S
C731 C730 1.369 . S
C731 C732 1.410 . S
C731 C739 1.503 . S
C732 C731 1.410 . S
C732 C733 1.392 . S
C732 C735 1.511 . S
C733 C729 1.376 . S
C733 C732 1.392 . S
C733 H745 0.929 . S
C734 C730 1.531 . S
C734 H746 0.960 . S
C734 H747 0.962 . S
C734 H748 0.960 . S
C735 C732 1.511 . S
C735 H749 0.961 . S
C735 H750 0.961 . S
C735 H751 0.961 . S
C736 C737 1.370 . S
C736 C738 1.363 . S
C736 H752 0.931 . S
C737 C736 1.370 . S
C737 C741 1.408 . S
C738 C736 1.363 . S
C738 C739 1.370 . S
C738 C742 1.524 . S
C739 C731 1.503 . S
C739 C738 1.370 . S
C739 C740 1.403 . S
C740 C739 1.403 . S
C740 C741 1.404 . S
C740 C743 1.539 . S
C741 C737 1.408 . S
C741 C740 1.404 . S
C741 H753 0.930 . S
C742 C738 1.524 . S
C742 H754 0.956 . S
C742 H755 0.961 . S
C742 H756 0.961 . S
C743 C740 1.539 . S
C743 H757 0.958 . S
C743 H758 0.961 . S
C743 H759 0.960 . S
H744 C728 0.931 . S
H745 C733 0.929 . S
H746 C734 0.960 . S
H747 C734 0.962 . S
H748 C734 0.960 . S
H749 C735 0.961 . S
H750 C735 0.961 . S
H751 C735 0.961 . S
H752 C736 0.931 . S
H753 C741 0.930 . S
H754 C742 0.956 . S
H755 C742 0.961 . S
H756 C742 0.961 . S
H757 C743 0.958 . S
H758 C743 0.961 . S
H759 C743 0.960 . S
C760 C761 1.391 . S
C760 C762 1.394 . S
C760 H776 0.931 . S
C761 C760 1.391 . S
C761 C765 1.376 . S
C762 C760 1.394 . S
C762 C763 1.369 . S
C762 C766 1.531 . S
C763 C762 1.369 . S
C763 C764 1.410 . S
C763 C771 1.503 . S
C764 C763 1.410 . S
C764 C765 1.392 . S
C764 C767 1.511 . S
C765 C761 1.376 . S
C765 C764 1.392 . S
C765 H777 0.929 . S
C766 C762 1.531 . S
C766 H778 0.960 . S
C766 H779 0.962 . S
C766 H780 0.960 . S
C767 C764 1.511 . S
C767 H781 0.961 . S
C767 H782 0.961 . S
C767 H783 0.961 . S
C768 C769 1.370 . S
C768 C770 1.363 . S
C768 H784 0.931 . S
C769 C768 1.370 . S
C769 C773 1.408 . S
C770 C768 1.363 . S
C770 C771 1.370 . S
C770 C774 1.524 . S
C771 C763 1.503 . S
C771 C770 1.370 . S
C771 C772 1.403 . S
C772 C771 1.403 . S
C772 C773 1.404 . S
C772 C775 1.539 . S
C773 C769 1.408 . S
C773 C772 1.404 . S
C773 H785 0.930 . S
C774 C770 1.524 . S
C774 H786 0.956 . S
C774 H787 0.961 . S
C774 H788 0.961 . S
C775 C772 1.539 . S
C775 H789 0.958 . S
C775 H790 0.961 . S
C775 H791 0.960 . S
H776 C760 0.931 . S
H777 C765 0.929 . S
H778 C766 0.960 . S
H779 C766 0.962 . S
H780 C766 0.960 . S
H781 C767 0.961 . S
H782 C767 0.961 . S
H783 C767 0.961 . S
H784 C768 0.931 . S
H785 C773 0.930 . S
H786 C774 0.956 . S
H787 C774 0.961 . S
H788 C774 0.961 . S
H789 C775 0.958 . S
H790 C775 0.961 . S
H791 C775 0.960 . S
C792 C793 1.391 . S
C792 C794 1.394 . S
C792 H808 0.931 . S
C793 C792 1.391 . S
C793 C797 1.376 . S
C794 C792 1.394 . S
C794 C795 1.369 . S
C794 C798 1.531 . S
C795 C794 1.369 . S
C795 C796 1.410 . S
C795 C803 1.503 . S
C796 C795 1.410 . S
C796 C797 1.392 . S
C796 C799 1.511 . S
C797 C793 1.376 . S
C797 C796 1.392 . S
C797 H809 0.929 . S
C798 C794 1.531 . S
C798 H810 0.960 . S
C798 H811 0.962 . S
C798 H812 0.960 . S
C799 C796 1.511 . S
C799 H813 0.961 . S
C799 H814 0.961 . S
C799 H815 0.961 . S
C800 C801 1.370 . S
C800 C802 1.363 . S
C800 H816 0.931 . S
C801 C800 1.370 . S
C801 C805 1.408 . S
C802 C800 1.363 . S
C802 C803 1.370 . S
C802 C806 1.524 . S
C803 C795 1.503 . S
C803 C802 1.370 . S
C803 C804 1.403 . S
C804 C803 1.403 . S
C804 C805 1.404 . S
C804 C807 1.539 . S
C805 C801 1.408 . S
C805 C804 1.404 . S
C805 H817 0.930 . S
C806 C802 1.524 . S
C806 H818 0.956 . S
C806 H819 0.961 . S
C806 H820 0.961 . S
C807 C804 1.539 . S
C807 H821 0.958 . S
C807 H822 0.961 . S
C807 H823 0.960 . S
H808 C792 0.931 . S
H809 C797 0.929 . S
H810 C798 0.960 . S
H811 C798 0.962 . S
H812 C798 0.960 . S
H813 C799 0.961 . S
H814 C799 0.961 . S
H815 C799 0.961 . S
H816 C800 0.931 . S
H817 C805 0.930 . S
H818 C806 0.956 . S
H819 C806 0.961 . S
H820 C806 0.961 . S
H821 C807 0.958 . S
H822 C807 0.961 . S
H823 C807 0.960 . S
C824 C825 1.391 . S
C824 C826 1.394 . S
C824 H840 0.931 . S
C825 C824 1.391 . S
C825 C829 1.376 . S
C826 C824 1.394 . S
C826 C827 1.369 . S
C826 C830 1.531 . S
C827 C826 1.369 . S
C827 C828 1.410 . S
C827 C835 1.503 . S
C828 C827 1.410 . S
C828 C829 1.392 . S
C828 C831 1.511 . S
C829 C825 1.376 . S
C829 C828 1.392 . S
C829 H841 0.929 . S
C830 C826 1.531 . S
C830 H842 0.960 . S
C830 H843 0.962 . S
C830 H844 0.960 . S
C831 C828 1.511 . S
C831 H845 0.961 . S
C831 H846 0.961 . S
C831 H847 0.961 . S
C832 C833 1.370 . S
C832 C834 1.363 . S
C832 H848 0.931 . S
C833 C832 1.370 . S
C833 C837 1.408 . S
C834 C832 1.363 . S
C834 C835 1.370 . S
C834 C838 1.524 . S
C835 C827 1.503 . S
C835 C834 1.370 . S
C835 C836 1.403 . S
C836 C835 1.403 . S
C836 C837 1.404 . S
C836 C839 1.539 . S
C837 C833 1.408 . S
C837 C836 1.404 . S
C837 H849 0.930 . S
C838 C834 1.524 . S
C838 H850 0.956 . S
C838 H851 0.961 . S
C838 H852 0.961 . S
C839 C836 1.539 . S
C839 H853 0.958 . S
C839 H854 0.961 . S
C839 H855 0.960 . S
H840 C824 0.931 . S
H841 C829 0.929 . S
H842 C830 0.960 . S
H843 C830 0.962 . S
H844 C830 0.960 . S
H845 C831 0.961 . S
H846 C831 0.961 . S
H847 C831 0.961 . S
H848 C832 0.931 . S
H849 C837 0.930 . S
H850 C838 0.956 . S
H851 C838 0.961 . S
H852 C838 0.961 . S
H853 C839 0.958 . S
H854 C839 0.961 . S
H855 C839 0.960 . S
C856 C857 1.391 . S
C856 C858 1.394 . S
C856 H872 0.931 . S
C857 C856 1.391 . S
C857 C861 1.376 . S
C858 C856 1.394 . S
C858 C859 1.369 . S
C858 C862 1.531 . S
C859 C858 1.369 . S
C859 C860 1.410 . S
C859 C867 1.503 . S
C860 C859 1.410 . S
C860 C861 1.392 . S
C860 C863 1.511 . S
C861 C857 1.376 . S
C861 C860 1.392 . S
C861 H873 0.929 . S
C862 C858 1.531 . S
C862 H874 0.960 . S
C862 H875 0.962 1_554 S
C862 H876 0.960 . S
C863 C860 1.511 . S
C863 H877 0.961 . S
C863 H878 0.961 . S
C863 H879 0.961 . S
C864 C865 1.370 1_556 S
C864 C866 1.363 . S
C864 H880 0.931 . S
C865 C864 1.370 1_554 S
C865 C869 1.408 . S
C866 C864 1.363 . S
C866 C867 1.370 1_556 S
C866 C870 1.524 . S
C867 C859 1.503 . S
C867 C866 1.370 1_554 S
C867 C868 1.403 . S
C868 C867 1.403 . S
C868 C869 1.404 . S
C868 C871 1.539 . S
C869 C865 1.408 . S
C869 C868 1.404 . S
C869 H881 0.930 . S
C870 C866 1.524 . S
C870 H882 0.956 . S
C870 H883 0.961 . S
C870 H884 0.961 . S
C871 C868 1.539 . S
C871 H885 0.958 . S
C871 H886 0.961 . S
C871 H887 0.960 . S
H872 C856 0.931 . S
H873 C861 0.929 . S
H874 C862 0.960 . S
H875 C862 0.962 1_556 S
H876 C862 0.960 . S
H877 C863 0.961 . S
H878 C863 0.961 . S
H879 C863 0.961 . S
H880 C864 0.931 . S
H881 C869 0.930 . S
H882 C870 0.956 . S
H883 C870 0.961 . S
H884 C870 0.961 . S
H885 C871 0.958 . S
H886 C871 0.961 . S
H887 C871 0.960 . S
C888 C889 1.391 . S
C888 C890 1.394 . S
C888 H904 0.931 . S
C889 C888 1.391 . S
C889 C893 1.376 . S
C890 C888 1.394 . S
C890 C891 1.369 . S
C890 C894 1.531 . S
C891 C890 1.369 . S
C891 C892 1.410 . S
C891 C899 1.503 . S
C892 C891 1.410 . S
C892 C893 1.392 . S
C892 C895 1.511 . S
C893 C889 1.376 . S
C893 C892 1.392 . S
C893 H905 0.929 . S
C894 C890 1.531 . S
C894 H906 0.960 . S
C894 H907 0.962 . S
C894 H908 0.960 . S
C895 C892 1.511 . S
C895 H909 0.961 1_554 S
C895 H910 0.961 1_554 S
C895 H911 0.961 . S
C896 C897 1.370 1_556 S
C896 C898 1.363 . S
C896 H912 0.931 . S
C897 C896 1.370 1_554 S
C897 C901 1.408 . S
C898 C896 1.363 . S
C898 C899 1.370 1_556 S
C898 C902 1.524 . S
C899 C891 1.503 . S
C899 C898 1.370 1_554 S
C899 C900 1.403 . S
C900 C899 1.403 . S
C900 C901 1.404 . S
C900 C903 1.539 . S
C901 C897 1.408 . S
C901 C900 1.404 . S
C901 H913 0.930 . S
C902 C898 1.524 . S
C902 H914 0.956 . S
C902 H915 0.961 . S
C902 H916 0.961 . S
C903 C900 1.539 . S
C903 H917 0.958 . S
C903 H918 0.961 . S
C903 H919 0.960 . S
H904 C888 0.931 . S
H905 C893 0.929 . S
H906 C894 0.960 . S
H907 C894 0.962 . S
H908 C894 0.960 . S
H909 C895 0.961 1_556 S
H910 C895 0.961 1_556 S
H911 C895 0.961 . S
H912 C896 0.931 . S
H913 C901 0.930 . S
H914 C902 0.956 . S
H915 C902 0.961 . S
H916 C902 0.961 . S
H917 C903 0.958 . S
H918 C903 0.961 . S
H919 C903 0.960 . S
C920 C921 1.391 . S
C920 C922 1.394 . S
C920 H936 0.931 . S
C921 C920 1.391 . S
C921 C925 1.376 . S
C922 C920 1.394 . S
C922 C923 1.369 . S
C922 C926 1.531 . S
C923 C922 1.369 . S
C923 C924 1.410 . S
C923 C931 1.503 . S
C924 C923 1.410 . S
C924 C925 1.392 . S
C924 C927 1.511 . S
C925 C921 1.376 . S
C925 C924 1.392 . S
C925 H937 0.929 . S
C926 C922 1.531 . S
C926 H938 0.960 . S
C926 H939 0.962 . S
C926 H940 0.960 . S
C927 C924 1.511 . S
C927 H941 0.961 . S
C927 H942 0.961 . S
C927 H943 0.961 . S
C928 C929 1.370 . S
C928 C930 1.363 . S
C928 H944 0.931 . S
C929 C928 1.370 . S
C929 C933 1.408 . S
C930 C928 1.363 . S
C930 C931 1.370 . S
C930 C934 1.524 . S
C931 C923 1.503 . S
C931 C930 1.370 . S
C931 C932 1.403 . S
C932 C931 1.403 . S
C932 C933 1.404 . S
C932 C935 1.539 . S
C933 C929 1.408 . S
C933 C932 1.404 . S
C933 H945 0.930 . S
C934 C930 1.524 . S
C934 H946 0.956 . S
C934 H947 0.961 . S
C934 H948 0.961 . S
C935 C932 1.539 . S
C935 H949 0.958 . S
C935 H950 0.961 . S
C935 H951 0.960 . S
H936 C920 0.931 . S
H937 C925 0.929 . S
H938 C926 0.960 . S
H939 C926 0.962 . S
H940 C926 0.960 . S
H941 C927 0.961 . S
H942 C927 0.961 . S
H943 C927 0.961 . S
H944 C928 0.931 . S
H945 C933 0.930 . S
H946 C934 0.956 . S
H947 C934 0.961 . S
H948 C934 0.961 . S
H949 C935 0.958 . S
H950 C935 0.961 . S
H951 C935 0.960 . S
C952 C953 1.391 . S
C952 C954 1.394 . S
C952 H968 0.931 . S
C953 C952 1.391 . S
C953 C957 1.376 . S
C954 C952 1.394 . S
C954 C955 1.369 . S
C954 C958 1.531 . S
C955 C954 1.369 . S
C955 C956 1.410 . S
C955 C963 1.503 . S
C956 C955 1.410 . S
C956 C957 1.392 . S
C956 C959 1.511 . S
C957 C953 1.376 . S
C957 C956 1.392 . S
C957 H969 0.929 . S
C958 C954 1.531 . S
C958 H970 0.960 . S
C958 H971 0.962 . S
C958 H972 0.960 . S
C959 C956 1.511 . S
C959 H973 0.961 . S
C959 H974 0.961 . S
C959 H975 0.961 . S
C960 C961 1.370 . S
C960 C962 1.363 . S
C960 H976 0.931 . S
C961 C960 1.370 . S
C961 C965 1.408 . S
C962 C960 1.363 . S
C962 C963 1.370 . S
C962 C966 1.524 . S
C963 C955 1.503 . S
C963 C962 1.370 . S
C963 C964 1.403 . S
C964 C963 1.403 . S
C964 C965 1.404 . S
C964 C967 1.539 . S
C965 C961 1.408 . S
C965 C964 1.404 . S
C965 H977 0.930 . S
C966 C962 1.524 . S
C966 H978 0.956 . S
C966 H979 0.961 . S
C966 H980 0.961 . S
C967 C964 1.539 . S
C967 H981 0.958 . S
C967 H982 0.961 . S
C967 H983 0.960 . S
H968 C952 0.931 . S
H969 C957 0.929 . S
H970 C958 0.960 . S
H971 C958 0.962 . S
H972 C958 0.960 . S
H973 C959 0.961 . S
H974 C959 0.961 . S
H975 C959 0.961 . S
H976 C960 0.931 . S
H977 C965 0.930 . S
H978 C966 0.956 . S
H979 C966 0.961 . S
H980 C966 0.961 . S
H981 C967 0.958 . S
H982 C967 0.961 . S
H983 C967 0.960 . S
C473 C111 1.503 . S
C481 C52 1.511 . S
C505 C170 1.517 . S
C513 C229 1.517 . S
C537 C288 1.503 . S
C545 C347 1.511 . S
C569 C406 1.518 . S
C577 C465 1.517 . S
C601 C33 1.335 . S
C609 C210 1.340 . S
C633 C151 1.316 . S
C641 C92 1.337 . S
C665 C121 1.417 . S
C673 C62 1.414 . S
C697 C3 1.399 . S
C705 C180 1.402 . S
C729 C269 1.334 . S
C737 C446 1.341 . S
C761 C387 1.345 . S
C769 C328 1.336 . S
C793 C298 1.385 . S
C801 C357 1.398 . S
C825 C239 1.385 . S
C833 C416 1.398 . S
C857 C300 1.508 . S
C865 C5 1.512 . S
C889 C241 1.508 . S
C897 C64 1.513 . S
C921 C123 1.508 . S
C929 C418 1.513 . S
C953 C359 1.510 . S
C961 C182 1.513 . S
