# Generated by pormake.
# Topology uow, (4)-cn, num edge types: 1
# Building blocks:
#     Node 0, Type 0, BuildingBlock: GALJAG_clean_sbu_0, # of connection points: 4
#     Node 1, Type 0, BuildingBlock: GALJAG_clean_sbu_0, # of connection points: 4
#     Node 2, Type 0, BuildingBlock: GALJAG_clean_sbu_0, # of connection points: 4
#     Node 3, Type 0, BuildingBlock: GALJAG_clean_sbu_0, # of connection points: 4
#     Node 4, Type 0, BuildingBlock: GALJAG_clean_sbu_0, # of connection points: 4
#     Node 5, Type 0, BuildingBlock: GALJAG_clean_sbu_0, # of connection points: 4
#     Node 6, Type 0, BuildingBlock: GALJAG_clean_sbu_0, # of connection points: 4
#     Node 7, Type 0, BuildingBlock: GALJAG_clean_sbu_0, # of connection points: 4
#     Node 8, Type 0, BuildingBlock: GALJAG_clean_sbu_0, # of connection points: 4
#     Node 9, Type 0, BuildingBlock: GALJAG_clean_sbu_0, # of connection points: 4
#     Node 10, Type 0, BuildingBlock: GALJAG_clean_sbu_0, # of connection points: 4
#     Node 11, Type 0, BuildingBlock: GALJAG_clean_sbu_0, # of connection points: 4
#     Node 12, Type 0, BuildingBlock: GALJAG_clean_sbu_0, # of connection points: 4
#     Node 13, Type 0, BuildingBlock: GALJAG_clean_sbu_0, # of connection points: 4
#     Node 14, Type 0, BuildingBlock: GALJAG_clean_sbu_0, # of connection points: 4
#     Node 15, Type 0, BuildingBlock: GALJAG_clean_sbu_0, # of connection points: 4
#     Node 16, Type 0, BuildingBlock: GALJAG_clean_sbu_0, # of connection points: 4
#     Node 17, Type 0, BuildingBlock: GALJAG_clean_sbu_0, # of connection points: 4
#     Node 18, Type 0, BuildingBlock: GALJAG_clean_sbu_0, # of connection points: 4
#     Node 19, Type 0, BuildingBlock: GALJAG_clean_sbu_0, # of connection points: 4
#     Node 20, Type 0, BuildingBlock: GALJAG_clean_sbu_0, # of connection points: 4
#     Node 21, Type 0, BuildingBlock: GALJAG_clean_sbu_0, # of connection points: 4
#     Node 22, Type 0, BuildingBlock: GALJAG_clean_sbu_0, # of connection points: 4
#     Node 23, Type 0, BuildingBlock: GALJAG_clean_sbu_0, # of connection points: 4
#     Node 24, Type 0, BuildingBlock: GALJAG_clean_sbu_0, # of connection points: 4
#     Node 25, Type 0, BuildingBlock: GALJAG_clean_sbu_0, # of connection points: 4
#     Node 26, Type 0, BuildingBlock: GALJAG_clean_sbu_0, # of connection points: 4
#     Node 27, Type 0, BuildingBlock: GALJAG_clean_sbu_0, # of connection points: 4
#     Node 28, Type 0, BuildingBlock: GALJAG_clean_sbu_0, # of connection points: 4
#     Node 29, Type 0, BuildingBlock: GALJAG_clean_sbu_0, # of connection points: 4
#     Node 30, Type 0, BuildingBlock: GALJAG_clean_sbu_0, # of connection points: 4
#     Node 31, Type 0, BuildingBlock: GALJAG_clean_sbu_0, # of connection points: 4
#     Edge 32, Type (0, 0), BuildingBlock: TEMPAE_clean_linker_10, # of connection points: 2
#     Edge 33, Type (0, 0), BuildingBlock: TEMPAE_clean_linker_10, # of connection points: 2
#     Edge 34, Type (0, 0), BuildingBlock: TEMPAE_clean_linker_10, # of connection points: 2
#     Edge 35, Type (0, 0), BuildingBlock: TEMPAE_clean_linker_10, # of connection points: 2
#     Edge 36, Type (0, 0), BuildingBlock: TEMPAE_clean_linker_10, # of connection points: 2
#     Edge 37, Type (0, 0), BuildingBlock: TEMPAE_clean_linker_10, # of connection points: 2
#     Edge 38, Type (0, 0), BuildingBlock: TEMPAE_clean_linker_10, # of connection points: 2
#     Edge 39, Type (0, 0), BuildingBlock: TEMPAE_clean_linker_10, # of connection points: 2
#     Edge 40, Type (0, 0), BuildingBlock: TEMPAE_clean_linker_10, # of connection points: 2
#     Edge 41, Type (0, 0), BuildingBlock: TEMPAE_clean_linker_10, # of connection points: 2
#     Edge 42, Type (0, 0), BuildingBlock: TEMPAE_clean_linker_10, # of connection points: 2
#     Edge 43, Type (0, 0), BuildingBlock: TEMPAE_clean_linker_10, # of connection points: 2
#     Edge 44, Type (0, 0), BuildingBlock: TEMPAE_clean_linker_10, # of connection points: 2
#     Edge 45, Type (0, 0), BuildingBlock: TEMPAE_clean_linker_10, # of connection points: 2
#     Edge 46, Type (0, 0), BuildingBlock: TEMPAE_clean_linker_10, # of connection points: 2
#     Edge 47, Type (0, 0), BuildingBlock: TEMPAE_clean_linker_10, # of connection points: 2
#     Edge 48, Type (0, 0), BuildingBlock: TEMPAE_clean_linker_10, # of connection points: 2
#     Edge 49, Type (0, 0), BuildingBlock: TEMPAE_clean_linker_10, # of connection points: 2
#     Edge 50, Type (0, 0), BuildingBlock: TEMPAE_clean_linker_10, # of connection points: 2
#     Edge 51, Type (0, 0), BuildingBlock: TEMPAE_clean_linker_10, # of connection points: 2
#     Edge 52, Type (0, 0), BuildingBlock: TEMPAE_clean_linker_10, # of connection points: 2
#     Edge 53, Type (0, 0), BuildingBlock: TEMPAE_clean_linker_10, # of connection points: 2
#     Edge 54, Type (0, 0), BuildingBlock: TEMPAE_clean_linker_10, # of connection points: 2
#     Edge 55, Type (0, 0), BuildingBlock: TEMPAE_clean_linker_10, # of connection points: 2
#     Edge 56, Type (0, 0), BuildingBlock: TEMPAE_clean_linker_10, # of connection points: 2
#     Edge 57, Type (0, 0), BuildingBlock: TEMPAE_clean_linker_10, # of connection points: 2
#     Edge 58, Type (0, 0), BuildingBlock: TEMPAE_clean_linker_10, # of connection points: 2
#     Edge 59, Type (0, 0), BuildingBlock: TEMPAE_clean_linker_10, # of connection points: 2
#     Edge 60, Type (0, 0), BuildingBlock: TEMPAE_clean_linker_10, # of connection points: 2
#     Edge 61, Type (0, 0), BuildingBlock: TEMPAE_clean_linker_10, # of connection points: 2
#     Edge 62, Type (0, 0), BuildingBlock: TEMPAE_clean_linker_10, # of connection points: 2
#     Edge 63, Type (0, 0), BuildingBlock: TEMPAE_clean_linker_10, # of connection points: 2
#     Edge 64, Type (0, 0), BuildingBlock: TEMPAE_clean_linker_10, # of connection points: 2
#     Edge 65, Type (0, 0), BuildingBlock: TEMPAE_clean_linker_10, # of connection points: 2
#     Edge 66, Type (0, 0), BuildingBlock: TEMPAE_clean_linker_10, # of connection points: 2
#     Edge 67, Type (0, 0), BuildingBlock: TEMPAE_clean_linker_10, # of connection points: 2
#     Edge 68, Type (0, 0), BuildingBlock: TEMPAE_clean_linker_10, # of connection points: 2
#     Edge 69, Type (0, 0), BuildingBlock: TEMPAE_clean_linker_10, # of connection points: 2
#     Edge 70, Type (0, 0), BuildingBlock: TEMPAE_clean_linker_10, # of connection points: 2
#     Edge 71, Type (0, 0), BuildingBlock: TEMPAE_clean_linker_10, # of connection points: 2
#     Edge 72, Type (0, 0), BuildingBlock: TEMPAE_clean_linker_10, # of connection points: 2
#     Edge 73, Type (0, 0), BuildingBlock: TEMPAE_clean_linker_10, # of connection points: 2
#     Edge 74, Type (0, 0), BuildingBlock: TEMPAE_clean_linker_10, # of connection points: 2
#     Edge 75, Type (0, 0), BuildingBlock: TEMPAE_clean_linker_10, # of connection points: 2
#     Edge 76, Type (0, 0), BuildingBlock: TEMPAE_clean_linker_10, # of connection points: 2
#     Edge 77, Type (0, 0), BuildingBlock: TEMPAE_clean_linker_10, # of connection points: 2
#     Edge 78, Type (0, 0), BuildingBlock: TEMPAE_clean_linker_10, # of connection points: 2
#     Edge 79, Type (0, 0), BuildingBlock: TEMPAE_clean_linker_10, # of connection points: 2
#     Edge 80, Type (0, 0), BuildingBlock: TEMPAE_clean_linker_10, # of connection points: 2
#     Edge 81, Type (0, 0), BuildingBlock: TEMPAE_clean_linker_10, # of connection points: 2
#     Edge 82, Type (0, 0), BuildingBlock: TEMPAE_clean_linker_10, # of connection points: 2
#     Edge 83, Type (0, 0), BuildingBlock: TEMPAE_clean_linker_10, # of connection points: 2
#     Edge 84, Type (0, 0), BuildingBlock: TEMPAE_clean_linker_10, # of connection points: 2
#     Edge 85, Type (0, 0), BuildingBlock: TEMPAE_clean_linker_10, # of connection points: 2
#     Edge 86, Type (0, 0), BuildingBlock: TEMPAE_clean_linker_10, # of connection points: 2
#     Edge 87, Type (0, 0), BuildingBlock: TEMPAE_clean_linker_10, # of connection points: 2
#     Edge 88, Type (0, 0), BuildingBlock: TEMPAE_clean_linker_10, # of connection points: 2
#     Edge 89, Type (0, 0), BuildingBlock: TEMPAE_clean_linker_10, # of connection points: 2
#     Edge 90, Type (0, 0), BuildingBlock: TEMPAE_clean_linker_10, # of connection points: 2
#     Edge 91, Type (0, 0), BuildingBlock: TEMPAE_clean_linker_10, # of connection points: 2
#     Edge 92, Type (0, 0), BuildingBlock: TEMPAE_clean_linker_10, # of connection points: 2
#     Edge 93, Type (0, 0), BuildingBlock: TEMPAE_clean_linker_10, # of connection points: 2
#     Edge 94, Type (0, 0), BuildingBlock: TEMPAE_clean_linker_10, # of connection points: 2
#     Edge 95, Type (0, 0), BuildingBlock: TEMPAE_clean_linker_10, # of connection points: 2
# Relax obj value: 0.043
# Max RMSD: 0.080
# Mean RMSD: 0.080
data_MOF--net-uow--node1-GALJAG_clean_sbu_0--edge1-TEMPAE_clean_linker_10
_symmetry_space_group_name_H-M    P1
_symmetry_Int_Tables_number       1
_symmetry_cell_setting            triclinic
loop_
_symmetry_equiv_pos_as_xyz
'x, y, z'
_cell_length_a     60.21927
_cell_length_b     60.237415
_cell_length_c     45.41418
_cell_angle_alpha  90.014408
_cell_angle_beta   89.962476
_cell_angle_gamma 89.998837
loop_
_atom_site_label
_atom_site_type_symbol
_atom_site_fract_x
_atom_site_fract_y
_atom_site_fract_z
_atom_type_partial_charge
In0 In 0.07671 0.37534 0.29789 0.0
O1 O 0.09408 0.40085 0.26916 0.0
O2 O 0.08665 0.41043 0.31286 0.0
C3 C 0.09638 0.34464 0.33244 0.0
C4 C 0.07615 0.35747 0.24383 0.0
C5 C 0.03578 0.38084 0.32085 0.0
O6 O 0.10664 0.36175 0.32392 0.0
O7 O 0.07658 0.34343 0.32383 0.0
O8 O 0.03922 0.37073 0.29696 0.0
O9 O 0.05296 0.38882 0.33272 0.0
C10 C 0.09454 0.41596 0.28821 0.0
O11 O 0.06081 0.37001 0.25307 0.0
O12 O 0.09152 0.35373 0.2621 0.0
In13 In 0.87776 0.81576 0.51487 0.0
O14 O 0.89228 0.80745 0.46985 0.0
O15 O 0.88512 0.84126 0.47954 0.0
C16 C 0.87679 0.77533 0.54008 0.0
C17 C 0.83423 0.82357 0.50796 0.0
C18 C 0.90723 0.83611 0.55024 0.0
O19 O 0.88708 0.77906 0.51635 0.0
O20 O 0.86683 0.79191 0.55075 0.0
O21 O 0.88732 0.84253 0.54834 0.0
O22 O 0.91207 0.81971 0.53426 0.0
C23 C 0.89227 0.82734 0.46108 0.0
O24 O 0.84587 0.83423 0.52628 0.0
O25 O 0.84461 0.80908 0.49334 0.0
In26 In 0.41765 0.61339 0.78552 0.0
O27 O 0.39307 0.58946 0.76448 0.0
O28 O 0.41204 0.57748 0.80027 0.0
C29 C 0.39807 0.64434 0.81935 0.0
C30 C 0.41881 0.63084 0.73101 0.0
C31 C 0.4588 0.60903 0.80818 0.0
O32 O 0.39206 0.62423 0.82011 0.0
O33 O 0.41361 0.64851 0.80159 0.0
O34 O 0.45406 0.60253 0.78251 0.0
O35 O 0.44277 0.6173 0.82231 0.0
C36 C 0.39789 0.57323 0.78064 0.0
O37 O 0.43551 0.62157 0.74242 0.0
O38 O 0.40182 0.63145 0.74723 0.0
In39 In 0.63369 0.18133 0.03646 0.0
O40 O 0.66084 0.15477 0.03892 0.0
O41 O 0.67023 0.1878 0.02816 0.0
C42 C 0.60187 0.16497 0.072 0.0
C43 C 0.62007 0.17228 0.98129 0.0
C44 C 0.63451 0.22242 0.05954 0.0
O45 O 0.62213 0.1603 0.07569 0.0
O46 O 0.59791 0.17743 0.05036 0.0
O47 O 0.62757 0.21853 0.03379 0.0
O48 O 0.64153 0.20561 0.07334 0.0
C49 C 0.67625 0.16798 0.03207 0.0
O50 O 0.62337 0.19188 0.99013 0.0
O51 O 0.62365 0.15744 0.00025 0.0
In52 In 0.06307 0.61378 0.21831 0.0
O53 O 0.08989 0.58685 0.21809 0.0
O54 O 0.05646 0.57721 0.22589 0.0
C55 C 0.08139 0.64495 0.18352 0.0
C56 C 0.06984 0.62687 0.2742 0.0
C57 C 0.02266 0.61412 0.19332 0.0
O58 O 0.08589 0.62458 0.18048 0.0
O59 O 0.06797 0.6493 0.20402 0.0
O60 O 0.02641 0.62253 0.21831 0.0
O61 O 0.03928 0.60514 0.18116 0.0
C62 C 0.07649 0.57136 0.22388 0.0
O63 O 0.05095 0.62105 0.26499 0.0
O64 O 0.08509 0.62615 0.25521 0.0
In65 In 0.62554 0.81943 0.47785 0.0
O66 O 0.61035 0.80981 0.52206 0.0
O67 O 0.61567 0.84409 0.51317 0.0
C68 C 0.62682 0.78015 0.44954 0.0
C69 C 0.6688 0.8267 0.48798 0.0
C70 C 0.59741 0.84099 0.44199 0.0
O71 O 0.61579 0.78297 0.47292 0.0
O72 O 0.63741 0.797 0.4409 0.0
O73 O 0.61726 0.84728 0.44538 0.0
O74 O 0.59199 0.82413 0.45677 0.0
C75 C 0.60884 0.8296 0.53106 0.0
O76 O 0.65789 0.83803 0.46958 0.0
O77 O 0.65782 0.81188 0.50114 0.0
In78 In 0.42682 0.37973 0.70188 0.0
O79 O 0.39805 0.40426 0.70711 0.0
O80 O 0.43052 0.41722 0.70152 0.0
C81 C 0.40933 0.3473 0.66848 0.0
C82 C 0.42314 0.36712 0.7585 0.0
C83 C 0.46714 0.38057 0.6768 0.0
O84 O 0.40258 0.36712 0.66664 0.0
O85 O 0.42465 0.34416 0.68688 0.0
O86 O 0.46402 0.37403 0.70292 0.0
O87 O 0.44988 0.38712 0.66352 0.0
C88 C 0.41026 0.42121 0.70591 0.0
O89 O 0.44037 0.37649 0.74872 0.0
O90 O 0.40808 0.36406 0.73972 0.0
In91 In 0.86999 0.17655 0.96431 0.0
O92 O 0.86749 0.18605 0.01279 0.0
O93 O 0.89688 0.16976 -0.00179 0.0
C94 C 0.86316 0.21745 0.94172 0.0
C95 C 0.83126 0.15428 0.96921 0.0
C96 C 0.90127 0.15851 0.9293 0.0
O97 O 0.86714 0.21439 0.96868 0.0
O98 O 0.86221 0.19995 0.9266 0.0
O99 O 0.88292 0.14892 0.93384 0.0
O100 O 0.90368 0.17666 0.94269 0.0
C101 C 0.88622 0.17807 0.01944 0.0
O102 O 0.84806 0.14957 0.98449 0.0
O103 O 0.8344 0.16937 0.95047 0.0
In104 In 0.93213 0.62251 0.71509 0.0
O105 O 0.94064 0.63841 0.75916 0.0
O106 O 0.90668 0.63174 0.74982 0.0
C107 C 0.97315 0.6201 0.692 0.0
C108 C 0.92198 0.5798 0.72533 0.0
C109 C 0.91478 0.65168 0.67659 0.0
O110 O 0.96928 0.62915 0.71656 0.0
O111 O 0.95634 0.61195 0.67937 0.0
O112 O 0.90971 0.63132 0.67599 0.0
O113 O 0.92812 0.65707 0.69672 0.0
C114 C 0.92075 0.63914 0.76788 0.0
O115 O 0.90918 0.5924 0.71096 0.0
O116 O 0.93979 0.58871 0.73386 0.0
In117 In 0.13888 0.16275 0.4475 0.0
O118 O 0.13284 0.17913 0.49196 0.0
O119 O 0.11995 0.14665 0.48521 0.0
C120 C 0.144 0.20409 0.42621 0.0
C121 C 0.1791 0.14344 0.45485 0.0
C122 C 0.10733 0.1464 0.4113 0.0
O123 O 0.14041 0.20018 0.45311 0.0
O124 O 0.14541 0.18705 0.41008 0.0
O125 O 0.12689 0.13884 0.41127 0.0
O126 O 0.10394 0.16178 0.42952 0.0
C127 C 0.12221 0.16292 0.50247 0.0
O128 O 0.16147 0.13505 0.4647 0.0
O129 O 0.1763 0.16092 0.44016 0.0
In130 In 0.56467 0.38472 0.20951 0.0
O131 O 0.58467 0.41633 0.20009 0.0
O132 O 0.56015 0.41704 0.23379 0.0
C133 C 0.58384 0.35395 0.17474 0.0
C134 C 0.5728 0.36724 0.26277 0.0
C135 C 0.52477 0.38824 0.18335 0.0
O136 O 0.59211 0.3731 0.17788 0.0
O137 O 0.56621 0.35062 0.18904 0.0
O138 O 0.5274 0.37923 0.20817 0.0
O139 O 0.54228 0.39584 0.17187 0.0
C140 C 0.57489 0.42747 0.2198 0.0
O141 O 0.55339 0.36979 0.25289 0.0
O142 O 0.58813 0.37339 0.24565 0.0
In143 In 0.36972 0.81277 0.97135 0.0
O144 O 0.38564 0.80209 0.0144 0.0
O145 O 0.3841 0.83666 0.00486 0.0
C146 C 0.36303 0.7724 0.9478 0.0
C147 C 0.32797 0.82482 0.98475 0.0
C148 C 0.39955 0.82974 0.93335 0.0
O149 O 0.37452 0.77543 0.97069 0.0
O150 O 0.35462 0.78978 0.93698 0.0
O151 O 0.38174 0.83987 0.93948 0.0
O152 O 0.40194 0.81135 0.94615 0.0
C153 C 0.38981 0.82165 0.0227 0.0
O154 O 0.33791 0.83262 0.9625 0.0
O155 O 0.3391 0.81117 -0.00032 0.0
In156 In 0.92391 0.37915 0.79187 0.0
O157 O 0.9199 0.40706 0.75914 0.0
O158 O 0.907 0.41245 0.80206 0.0
C159 C 0.90509 0.35274 0.83287 0.0
C160 C 0.91968 0.3558 0.74178 0.0
C161 C 0.96515 0.38576 0.81288 0.0
O162 O 0.92533 0.35206 0.82609 0.0
O163 O 0.89391 0.36704 0.81896 0.0
O164 O 0.94875 0.39708 0.82158 0.0
O165 O 0.9607 0.37162 0.79328 0.0
C166 C 0.9101 0.42008 0.77648 0.0
O167 O 0.93792 0.36381 0.7503 0.0
O168 O 0.90349 0.35924 0.75888 0.0
In169 In 0.36718 0.16672 0.54641 0.0
O170 O 0.36686 0.18091 0.50006 0.0
O171 O 0.3849 0.15104 0.5074 0.0
C172 C 0.36414 0.2086 0.56638 0.0
C173 C 0.32708 0.14681 0.54289 0.0
C174 C 0.40007 0.15115 0.58114 0.0
O175 O 0.37133 0.20386 0.54105 0.0
O176 O 0.35809 0.19212 0.58166 0.0
O177 O 0.38052 0.14368 0.58281 0.0
O178 O 0.4028 0.166 0.56201 0.0
C179 C 0.37881 0.16573 0.48931 0.0
O180 O 0.34468 0.13751 0.53435 0.0
O181 O 0.32991 0.16558 0.55452 0.0
In182 In 0.5695 0.63406 0.26567 0.0
O183 O 0.56067 0.65062 0.22219 0.0
O184 O 0.59443 0.64176 0.22967 0.0
C185 C 0.52928 0.63148 0.29125 0.0
C186 C 0.57753 0.59114 0.25397 0.0
C187 C 0.58889 0.66256 0.30345 0.0
O188 O 0.53265 0.64255 0.26807 0.0
O189 O 0.54611 0.6215 0.30114 0.0
O190 O 0.59431 0.6423 0.30244 0.0
O191 O 0.57432 0.66825 0.28505 0.0
C192 C 0.58026 0.6499 0.21229 0.0
O193 O 0.58947 0.60209 0.27169 0.0
O194 O 0.56167 0.60185 0.24269 0.0
In195 In 0.12179 0.81396 0.03089 0.0
O196 O 0.10912 0.80363 0.98578 0.0
O197 O 0.11156 0.83815 0.99506 0.0
C198 C 0.12251 0.77388 0.05693 0.0
C199 C 0.16504 0.82254 0.02193 0.0
C200 C 0.0917 0.83431 0.06542 0.0
O201 O 0.11236 0.77755 0.03313 0.0
O202 O 0.1326 0.79045 0.06751 0.0
O203 O 0.11138 0.84142 0.06315 0.0
O204 O 0.08752 0.81722 0.05042 0.0
C205 C 0.10665 0.82325 0.97666 0.0
O206 O 0.15354 0.83382 0.03981 0.0
O207 O 0.15475 0.80702 0.0093 0.0
In208 In 0.57555 0.87803 0.79966 0.0
O209 O 0.60409 0.90295 0.79463 0.0
O210 O 0.57223 0.91541 0.80547 0.0
C211 C 0.59297 0.84321 0.82889 0.0
C212 C 0.57899 0.86857 0.74199 0.0
C213 C 0.53475 0.87764 0.82356 0.0
O214 O 0.59674 0.86297 0.8368 0.0
O215 O 0.58069 0.84134 0.80661 0.0
O216 O 0.53808 0.87403 0.7965 0.0
O217 O 0.55202 0.88174 0.83841 0.0
C218 C 0.59215 0.91973 0.7994 0.0
O219 O 0.59508 0.86722 0.75964 0.0
O220 O 0.56092 0.87489 0.75339 0.0
In221 In 0.36975 0.32095 0.02086 0.0
O222 O 0.38621 0.31112 0.97773 0.0
O223 O 0.37999 0.34543 0.98545 0.0
C224 C 0.36662 0.28085 0.0466 0.0
C225 C 0.32682 0.3301 0.01074 0.0
C226 C 0.39917 0.34074 0.05683 0.0
O227 O 0.37676 0.28383 0.02259 0.0
O228 O 0.35773 0.29803 0.05727 0.0
O229 O 0.37997 0.34863 0.0528 0.0
O230 O 0.40323 0.32316 0.0428 0.0
C231 C 0.3876 0.33079 0.96831 0.0
O232 O 0.33763 0.33953 0.03105 0.0
O233 O 0.33772 0.31621 0.9958 0.0
In234 In 0.93014 0.11747 0.27904 0.0
O235 O 0.9003 0.09588 0.26686 0.0
O236 O 0.92767 0.08055 0.28819 0.0
C237 C 0.91334 0.14593 0.31929 0.0
C238 C 0.92804 0.13411 0.22402 0.0
C239 C 0.97265 0.11069 0.29516 0.0
O240 O 0.93298 0.14672 0.30996 0.0
O241 O 0.90178 0.13052 0.30841 0.0
O242 O 0.96753 0.12033 0.27142 0.0
O243 O 0.95634 0.10399 0.3102 0.0
C244 C 0.90889 0.07816 0.27632 0.0
O245 O 0.92524 0.14599 0.24657 0.0
O246 O 0.93244 0.11404 0.22923 0.0
In247 In 0.1304 0.68362 0.53039 0.0
O248 O 0.11334 0.69167 0.48708 0.0
O249 O 0.11883 0.65767 0.4976 0.0
C250 C 0.13376 0.72457 0.55361 0.0
C251 C 0.17303 0.67433 0.51812 0.0
C252 C 0.10146 0.66565 0.56867 0.0
O253 O 0.12369 0.72077 0.52977 0.0
O254 O 0.14252 0.70774 0.56541 0.0
O255 O 0.12072 0.6577 0.56518 0.0
O256 O 0.09715 0.68234 0.55297 0.0
C257 C 0.11129 0.67162 0.47945 0.0
O258 O 0.16289 0.66505 0.53918 0.0
O259 O 0.16164 0.68812 0.50371 0.0
In260 In 0.57801 0.1148 0.71764 0.0
O261 O 0.56563 0.12196 0.7643 0.0
O262 O 0.5989 0.13051 0.75344 0.0
C263 C 0.53654 0.11391 0.696 0.0
C264 C 0.5926 0.0727 0.72449 0.0
C265 C 0.59536 0.14437 0.67949 0.0
O266 O 0.54102 0.12215 0.72091 0.0
O267 O 0.55296 0.10585 0.68232 0.0
O268 O 0.60071 0.1241 0.67877 0.0
O269 O 0.5817 0.1494 0.6994 0.0
C270 C 0.58389 0.13006 0.77277 0.0
O271 O 0.60529 0.0892 0.72716 0.0
O272 O 0.57295 0.07741 0.71749 0.0
In273 In 0.11869 0.32176 0.97512 0.0
O274 O 0.10332 0.30931 0.01781 0.0
O275 O 0.11214 0.34348 0.01496 0.0
C276 C 0.11922 0.28361 0.94412 0.0
C277 C 0.16207 0.3291 0.98444 0.0
C278 C 0.08923 0.3453 0.94334 0.0
O279 O 0.10973 0.28529 0.9688 0.0
O280 O 0.12857 0.3011 0.93526 0.0
O281 O 0.10978 0.34943 0.94251 0.0
O282 O 0.08382 0.32963 0.96024 0.0
C283 C 0.10412 0.32799 0.03037 0.0
O284 O 0.1503 0.3422 0.96931 0.0
O285 O 0.15191 0.31245 0.99456 0.0
In286 In 0.91756 0.88612 0.19477 0.0
O287 O 0.89061 0.91027 0.21029 0.0
O288 O 0.91693 0.92316 0.18462 0.0
C289 C 0.90051 0.85396 0.16015 0.0
C290 C 0.91601 0.87176 0.25073 0.0
C291 C 0.95912 0.88867 0.17347 0.0
O292 O 0.89206 0.87315 0.16103 0.0
O293 O 0.91716 0.85135 0.17648 0.0
O294 O 0.95498 0.88308 0.19971 0.0
O295 O 0.94226 0.89349 0.15819 0.0
C296 C 0.89954 0.92716 0.19908 0.0
O297 O 0.9317 0.88368 0.24122 0.0
O298 O 0.90124 0.86717 0.23201 0.0
In299 In 0.37911 0.68718 0.46929 0.0
O300 O 0.39566 0.69554 0.51292 0.0
O301 O 0.38913 0.66156 0.50337 0.0
C302 C 0.37648 0.72778 0.44487 0.0
C303 C 0.33634 0.67806 0.48092 0.0
C304 C 0.40781 0.66892 0.43092 0.0
O305 O 0.38623 0.7243 0.46904 0.0
O306 O 0.36772 0.71083 0.43338 0.0
O307 O 0.3877 0.66296 0.43202 0.0
O308 O 0.4132 0.68362 0.44933 0.0
C309 C 0.39673 0.6756 0.52137 0.0
O310 O 0.34757 0.66654 0.46303 0.0
O311 O 0.34668 0.69405 0.49245 0.0
In312 In 0.42983 0.13306 0.22289 0.0
O313 O 0.43761 0.1489 0.26715 0.0
O314 O 0.40397 0.14075 0.25776 0.0
C315 C 0.47073 0.13199 0.19905 0.0
C316 C 0.42258 0.08989 0.23347 0.0
C317 C 0.40998 0.16108 0.18504 0.0
O318 O 0.46627 0.14312 0.22186 0.0
O319 O 0.4546 0.12126 0.1885 0.0
O320 O 0.40469 0.14081 0.18641 0.0
O321 O 0.42484 0.16698 0.20292 0.0
C322 C 0.41774 0.14848 0.276 0.0
O323 O 0.411 0.10066 0.21517 0.0
O324 O 0.43773 0.1009 0.2459 0.0
In325 In 0.62993 0.65566 0.94214 0.0
O326 O 0.6311 0.67169 0.98745 0.0
O327 O 0.60657 0.64692 0.97978 0.0
C328 C 0.62682 0.6986 0.92647 0.0
C329 C 0.67053 0.63686 0.94783 0.0
C330 C 0.60494 0.63308 0.90255 0.0
O331 O 0.61055 0.68769 0.93641 0.0
O332 O 0.64474 0.6878 0.92441 0.0
O333 O 0.61582 0.65022 0.89605 0.0
O334 O 0.60746 0.62667 0.92871 0.0
C335 C 0.61518 0.66046 -0.00233 0.0
O336 O 0.65433 0.63189 0.96401 0.0
O337 O 0.66598 0.6505 0.9277 0.0
In338 In 0.06754 0.88178 0.71326 0.0
O339 O 0.05533 0.86811 0.75688 0.0
O340 O 0.09025 0.87054 0.75028 0.0
C341 C 0.02841 0.88386 0.68481 0.0
C342 C 0.07724 0.92454 0.72402 0.0
C343 C 0.08804 0.85158 0.6791 0.0
O344 O 0.03074 0.87421 0.70925 0.0
O345 O 0.0458 0.8929 0.67494 0.0
O346 O 0.09479 0.87141 0.68069 0.0
O347 O 0.07135 0.84724 0.69483 0.0
C348 C 0.07453 0.86522 0.76729 0.0
O349 O 0.08845 0.91308 0.70606 0.0
O350 O 0.06127 0.91445 0.73595 0.0
In351 In 0.87637 0.31335 0.4757 0.0
O352 O 0.8913 0.30062 0.51849 0.0
O353 O 0.8842 0.33513 0.51505 0.0
C354 C 0.87362 0.27496 0.44565 0.0
C355 C 0.8332 0.32256 0.48433 0.0
C356 C 0.90772 0.33454 0.44419 0.0
O357 O 0.88007 0.27588 0.47206 0.0
O358 O 0.86845 0.29343 0.43446 0.0
O359 O 0.88785 0.34126 0.445 0.0
O360 O 0.91158 0.31746 0.4594 0.0
C361 C 0.8913 0.31941 0.5308 0.0
O362 O 0.84533 0.3347 0.46832 0.0
O363 O 0.84285 0.306 0.49538 0.0
In364 In 0.4385 0.88454 0.28055 0.0
O365 O 0.44995 0.86945 0.23733 0.0
O366 O 0.41517 0.87153 0.24535 0.0
C367 C 0.47816 0.88937 0.30696 0.0
C368 C 0.42706 0.92661 0.2683 0.0
C369 C 0.42006 0.85458 0.31705 0.0
O370 O 0.47576 0.87909 0.28296 0.0
O371 O 0.46056 0.89763 0.31734 0.0
O372 O 0.41193 0.87377 0.31384 0.0
O373 O 0.43713 0.85075 0.3018 0.0
C374 C 0.43054 0.86585 0.22801 0.0
O375 O 0.41731 0.91556 0.28812 0.0
O376 O 0.44243 0.91643 0.25516 0.0
In377 In 0.86194 0.67424 0.03235 0.0
O378 O 0.86622 0.68721 0.98551 0.0
O379 O 0.88018 0.65582 0.99609 0.0
C380 C 0.85902 0.7158 0.05341 0.0
C381 C 0.82123 0.65602 0.02597 0.0
C382 C 0.89267 0.65817 0.06985 0.0
O383 O 0.86678 0.71144 0.02822 0.0
O384 O 0.85243 0.69913 0.06789 0.0
O385 O 0.87274 0.65165 0.07049 0.0
O386 O 0.89683 0.67254 0.05049 0.0
C387 C 0.87696 0.67048 0.97677 0.0
O388 O 0.83879 0.6448 0.02365 0.0
O389 O 0.82423 0.67609 0.03261 0.0
In390 In 0.06633 0.13051 0.76693 0.0
O391 O 0.05715 0.14515 0.7223 0.0
O392 O 0.09139 0.14029 0.73216 0.0
C393 C 0.02665 0.12565 0.79341 0.0
C394 C 0.07672 0.08802 0.7561 0.0
C395 C 0.08374 0.16113 0.80325 0.0
O396 O 0.02892 0.13626 0.76958 0.0
O397 O 0.04431 0.1173 0.80343 0.0
O398 O 0.09121 0.14153 0.80218 0.0
O399 O 0.06799 0.16511 0.78575 0.0
C400 C 0.07706 0.14649 0.71363 0.0
O401 O 0.0874 0.09946 0.77468 0.0
O402 O 0.06095 0.09804 0.74356 0.0
In403 In 0.62683 0.3111 0.52206 0.0
O404 O 0.65829 0.33076 0.53297 0.0
O405 O 0.6589 0.3084 0.49668 0.0
C406 C 0.59682 0.32969 0.5584 0.0
C407 C 0.6097 0.32094 0.4691 0.0
C408 C 0.6306 0.27049 0.54629 0.0
O409 O 0.61582 0.3381 0.55453 0.0
O410 O 0.59324 0.31213 0.54408 0.0
O411 O 0.61926 0.27412 0.52344 0.0
O412 O 0.64031 0.28732 0.55668 0.0
C413 C 0.6693 0.3224 0.51201 0.0
O414 O 0.61356 0.30124 0.47705 0.0
O415 O 0.61422 0.33558 0.48805 0.0
C416 C 0.09626 0.33859 0.20302 0.0
C417 C 0.07726 0.34967 0.2131 0.0
C418 C 0.09893 0.33357 0.17311 0.0
C419 C 0.0821 0.33963 0.15293 0.0
C420 C 0.06236 0.34976 0.1632 0.0
C421 C 0.0602 0.35475 0.19323 0.0
C422 C 0.12027 0.32282 0.16295 0.0
C423 C 0.04396 0.35621 0.14231 0.0
C424 C 0.10176 0.35145 0.07536 0.0
C425 C 0.09708 0.33135 0.06114 0.0
C426 C 0.0965 0.3545 0.10512 0.0
C427 C 0.0861 0.33709 0.12089 0.0
C428 C 0.08068 0.31702 0.10641 0.0
C429 C 0.08637 0.31433 0.07666 0.0
C430 C 0.10268 0.37611 0.1199 0.0
C431 C 0.06934 0.29824 0.12249 0.0
H432 H 0.10947 0.33458 0.21833 0.0
H433 H 0.04543 0.36323 0.20099 0.0
H434 H 0.11664 0.30799 0.14931 0.0
H435 H 0.1297 0.33464 0.14896 0.0
H436 H 0.131 0.31774 0.18166 0.0
H437 H 0.02876 0.36166 0.15414 0.0
H438 H 0.04966 0.37 0.12799 0.0
H439 H 0.03965 0.34207 0.12774 0.0
H440 H 0.11004 0.36465 0.06341 0.0
H441 H 0.08262 0.29881 0.06564 0.0
H442 H 0.11486 0.3729 0.13773 0.0
H443 H 0.08782 0.38373 0.1302 0.0
H444 H 0.11004 0.38823 0.10425 0.0
H445 H 0.08048 0.2917 0.13989 0.0
H446 H 0.06479 0.28438 0.10752 0.0
H447 H 0.05408 0.30434 0.13355 0.0
C448 C 0.93239 0.86755 0.30094 0.0
C449 C 0.91463 0.86418 0.28152 0.0
C450 C 0.93085 0.86096 0.3305 0.0
C451 C 0.911 0.85106 0.34079 0.0
C452 C 0.89316 0.84734 0.32114 0.0
C453 C 0.89524 0.85385 0.29168 0.0
C454 C 0.95029 0.86492 0.35082 0.0
C455 C 0.87164 0.83699 0.33138 0.0
C456 C 0.90833 0.81819 0.41185 0.0
C457 C 0.8989 0.83378 0.43104 0.0
C458 C 0.91324 0.82384 0.3826 0.0
C459 C 0.90833 0.84548 0.37238 0.0
C460 C 0.89939 0.86145 0.39192 0.0
C461 C 0.89489 0.85543 0.42109 0.0
C462 C 0.92305 0.80648 0.36243 0.0
C463 C 0.89375 0.88465 0.38172 0.0
H464 H 0.94745 0.87543 0.29307 0.0
H465 H 0.88147 0.85122 0.27671 0.0
H466 H 0.94551 0.87692 0.36825 0.0
H467 H 0.95504 0.84923 0.36195 0.0
H468 H 0.96501 0.87155 0.33896 0.0
H469 H 0.85959 0.83474 0.31312 0.0
H470 H 0.87491 0.82057 0.34156 0.0
H471 H 0.86388 0.84762 0.34849 0.0
H472 H 0.91157 0.80147 0.41956 0.0
H473 H 0.88761 0.86754 0.43589 0.0
H474 H 0.93801 0.81312 0.3512 0.0
H475 H 0.91084 0.80211 0.34508 0.0
H476 H 0.92769 0.7911 0.37443 0.0
H477 H 0.90845 0.89252 0.37134 0.0
H478 H 0.88795 0.8954 0.40006 0.0
H479 H 0.88049 0.88388 0.36479 0.0
C480 C 0.43752 0.63786 0.68272 0.0
C481 C 0.41857 0.63929 0.70056 0.0
C482 C 0.43683 0.64452 0.65311 0.0
C483 C 0.41667 0.65261 0.64122 0.0
C484 C 0.39768 0.65461 0.65939 0.0
C485 C 0.39888 0.64798 0.68886 0.0
C486 C 0.45743 0.64235 0.63438 0.0
C487 C 0.37585 0.66312 0.64747 0.0
C488 C 0.41273 0.68544 0.57035 0.0
C489 C 0.40466 0.66928 0.5509 0.0
C490 C 0.41797 0.68 0.59956 0.0
C491 C 0.41485 0.65794 0.60945 0.0
C492 C 0.40774 0.64136 0.58949 0.0
C493 C 0.40279 0.64723 0.56039 0.0
C494 C 0.42574 0.69806 0.62018 0.0
C495 C 0.40417 0.61765 0.59926 0.0
H496 H 0.45279 0.6312 0.69175 0.0
H497 H 0.3842 0.64916 0.70259 0.0
H498 H 0.45466 0.62971 0.617 0.0
H499 H 0.46106 0.6583 0.62314 0.0
H500 H 0.47219 0.63741 0.64751 0.0
H501 H 0.36289 0.6644 0.6648 0.0
H502 H 0.37817 0.67973 0.63737 0.0
H503 H 0.36974 0.65183 0.62995 0.0
H504 H 0.41435 0.70249 0.56301 0.0
H505 H 0.39664 0.63466 0.54537 0.0
H506 H 0.44057 0.69251 0.63266 0.0
H507 H 0.41249 0.70174 0.63645 0.0
H508 H 0.42989 0.71363 0.60828 0.0
H509 H 0.41906 0.61134 0.61092 0.0
H510 H 0.40047 0.60642 0.58049 0.0
H511 H 0.39007 0.61695 0.61499 0.0
C512 C 0.60933 0.14358 0.81201 0.0
C513 C 0.5878 0.13783 0.80312 0.0
C514 C 0.61369 0.15007 0.84104 0.0
C515 C 0.59605 0.15103 0.86158 0.0
C516 C 0.57416 0.14578 0.85258 0.0
C517 C 0.5703 0.1391 0.82341 0.0
C518 C 0.63729 0.15535 0.8499 0.0
C519 C 0.55493 0.14685 0.87388 0.0
C520 C 0.61215 0.1448 0.94173 0.0
C521 C 0.61294 0.16697 0.95104 0.0
C522 C 0.60623 0.13938 0.91279 0.0
C523 C 0.6008 0.15654 0.89279 0.0
C524 C 0.60105 0.17894 0.90224 0.0
C525 C 0.60724 0.18391 0.9313 0.0
C526 C 0.60634 0.11531 0.90342 0.0
C527 C 0.59518 0.19764 0.88154 0.0
H528 H 0.62291 0.14261 0.79638 0.0
H529 H 0.55362 0.13476 0.81655 0.0
H530 H 0.63819 0.17226 0.85951 0.0
H531 H 0.64288 0.14353 0.8671 0.0
H532 H 0.649 0.15441 0.83103 0.0
H533 H 0.53876 0.14349 0.86298 0.0
H534 H 0.55735 0.1345 0.89171 0.0
H535 H 0.5542 0.16347 0.88438 0.0
H536 H 0.61654 0.13165 0.95694 0.0
H537 H 0.60773 0.20106 0.93849 0.0
H538 H 0.61885 0.11278 0.88579 0.0
H539 H 0.58994 0.11067 0.89418 0.0
H540 H 0.61024 0.10392 0.92195 0.0
H541 H 0.60745 0.19838 0.86334 0.0
H542 H 0.59488 0.21401 0.89281 0.0
H543 H 0.57867 0.19461 0.87148 0.0
C544 C 0.09557 0.63959 0.31351 0.0
C545 C 0.07402 0.63378 0.30481 0.0
C546 C 0.10008 0.64586 0.34256 0.0
C547 C 0.08259 0.64637 0.36338 0.0
C548 C 0.06075 0.64068 0.35472 0.0
C549 C 0.05671 0.63441 0.32544 0.0
C550 C 0.12361 0.6518 0.35102 0.0
C551 C 0.04174 0.64108 0.3764 0.0
C552 C 0.10132 0.64258 0.44271 0.0
C553 C 0.10188 0.66502 0.45082 0.0
C554 C 0.09418 0.63617 0.41461 0.0
C555 C 0.08744 0.65262 0.39426 0.0
C556 C 0.08711 0.67523 0.40275 0.0
C557 C 0.09437 0.68117 0.43098 0.0
C558 C 0.09475 0.61189 0.4063 0.0
C559 C 0.07994 0.6932 0.38162 0.0
H560 H 0.109 0.63912 0.29762 0.0
H561 H 0.04003 0.62994 0.31875 0.0
H562 H 0.12417 0.66892 0.35999 0.0
H563 H 0.12955 0.64048 0.36859 0.0
H564 H 0.13525 0.65074 0.33208 0.0
H565 H 0.02567 0.63655 0.36601 0.0
H566 H 0.04508 0.62934 0.39468 0.0
H567 H 0.04016 0.65787 0.38623 0.0
H568 H 0.10702 0.63003 0.45805 0.0
H569 H 0.09468 0.69853 0.43725 0.0
H570 H 0.10749 0.60917 0.38902 0.0
H571 H 0.07853 0.60671 0.39699 0.0
H572 H 0.09869 0.60106 0.42539 0.0
H573 H 0.09204 0.69435 0.36324 0.0
H574 H 0.07879 0.70971 0.39244 0.0
H575 H 0.06356 0.68908 0.37187 0.0
C576 C 0.5939 0.81883 0.58034 0.0
C577 C 0.60085 0.83542 0.56078 0.0
C578 C 0.58807 0.82406 0.60944 0.0
C579 C 0.58935 0.84637 0.61909 0.0
C580 C 0.59549 0.86329 0.59907 0.0
C581 C 0.60114 0.8576 0.57011 0.0
C582 C 0.58146 0.80561 0.63017 0.0
C583 C 0.59709 0.88726 0.60859 0.0
C584 C 0.56294 0.86343 0.69163 0.0
C585 C 0.58132 0.86291 0.71055 0.0
C586 C 0.5652 0.85788 0.66175 0.0
C587 C 0.58632 0.85179 0.65069 0.0
C588 C 0.60489 0.85122 0.66975 0.0
C589 C 0.60215 0.85676 0.69945 0.0
C590 C 0.54506 0.8586 0.642 0.0
C591 C 0.62772 0.84489 0.65874 0.0
H592 H 0.59353 0.80167 0.57314 0.0
H593 H 0.60641 0.8705 0.555 0.0
H594 H 0.59446 0.80348 0.64723 0.0
H595 H 0.56578 0.80987 0.6417 0.0
H596 H 0.5792 0.78953 0.61855 0.0
H597 H 0.60031 0.8986 0.58977 0.0
H598 H 0.58154 0.89252 0.61967 0.0
H599 H 0.61077 0.88915 0.62476 0.0
H600 H 0.5468 0.86813 0.70019 0.0
H601 H 0.61641 0.85634 0.714 0.0
H602 H 0.54246 0.84214 0.63158 0.0
H603 H 0.54775 0.87074 0.62399 0.0
H604 H 0.52974 0.86328 0.65415 0.0
H605 H 0.62728 0.82802 0.64895 0.0
H606 H 0.64038 0.8451 0.67652 0.0
H607 H 0.63303 0.85653 0.64116 0.0
C608 C 0.40582 0.3196 0.92126 0.0
C609 C 0.3964 0.3362 0.93891 0.0
C610 C 0.41264 0.32422 0.89238 0.0
C611 C 0.40972 0.34588 0.88096 0.0
C612 C 0.40098 0.36289 0.89907 0.0
C613 C 0.3945 0.35785 0.92792 0.0
C614 C 0.42211 0.30574 0.87375 0.0
C615 C 0.3975 0.38615 0.88755 0.0
C616 C 0.43766 0.36362 0.80984 0.0
C617 C 0.42033 0.3608 0.7896 0.0
C618 C 0.43466 0.35837 0.83969 0.0
C619 C 0.41381 0.3503 0.84933 0.0
C620 C 0.3964 0.34714 0.82887 0.0
C621 C 0.3999 0.35235 0.79922 0.0
C622 C 0.45363 0.36175 0.86095 0.0
C623 C 0.37388 0.33867 0.83838 0.0
H624 H 0.40746 0.30288 0.9298 0.0
H625 H 0.38728 0.37074 0.94156 0.0
H626 H 0.41027 0.30153 0.85589 0.0
H627 H 0.43781 0.31115 0.86315 0.0
H628 H 0.42542 0.2905 0.8868 0.0
H629 H 0.39208 0.39782 0.90509 0.0
H630 H 0.41304 0.39257 0.87756 0.0
H631 H 0.38468 0.38594 0.87002 0.0
H632 H 0.4535 0.37009 0.80241 0.0
H633 H 0.38646 0.35014 0.78363 0.0
H634 H 0.45698 0.34616 0.87317 0.0
H635 H 0.44907 0.37455 0.87743 0.0
H636 H 0.46912 0.36705 0.84966 0.0
H637 H 0.37563 0.32239 0.84954 0.0
H638 H 0.36226 0.33673 0.81956 0.0
H639 H 0.36639 0.35034 0.85448 0.0
C640 C 0.87898 0.17753 0.07341 0.0
C641 C 0.89414 0.17644 0.05005 0.0
C642 C 0.88566 0.17266 0.10226 0.0
C643 C 0.90811 0.16708 0.10785 0.0
C644 C 0.92376 0.16742 0.08459 0.0
C645 C 0.91652 0.17184 0.05584 0.0
C646 C 0.86841 0.17213 0.12641 0.0
C647 C 0.94794 0.16212 0.08984 0.0
C648 C 0.92576 0.16539 0.18808 0.0
C649 C 0.92465 0.14259 0.19395 0.0
C650 C 0.92115 0.17364 0.15983 0.0
C651 C 0.91468 0.15872 0.13732 0.0
C652 C 0.91375 0.13565 0.14315 0.0
C653 C 0.91905 0.12784 0.17132 0.0
C654 C 0.92292 0.19826 0.15415 0.0
C655 C 0.90648 0.11925 0.11989 0.0
H656 H 0.86165 0.18101 0.06892 0.0
H657 H 0.92829 0.17118 0.03779 0.0
H658 H 0.86625 0.15481 0.13424 0.0
H659 H 0.87392 0.18218 0.1455 0.0
H660 H 0.85204 0.17845 0.11886 0.0
H661 H 0.9584 0.16597 0.07033 0.0
H662 H 0.95432 0.17159 0.10902 0.0
H663 H 0.94977 0.14421 0.09501 0.0
H664 H 0.9302 0.17679 0.2056 0.0
H665 H 0.91801 0.1102 0.17593 0.0
H666 H 0.90629 0.20512 0.14892 0.0
H667 H 0.93373 0.20139 0.13479 0.0
H668 H 0.92974 0.2074 0.17338 0.0
H669 H 0.88945 0.12336 0.11233 0.0
H670 H 0.90656 0.10187 0.12807 0.0
H671 H 0.91759 0.12031 0.10045 0.0
C672 C 0.89259 0.64425 0.80744 0.0
C673 C 0.91448 0.64684 0.79754 0.0
C674 C 0.88669 0.64973 0.83637 0.0
C675 C 0.90306 0.65816 0.85572 0.0
C676 C 0.925 0.66161 0.84552 0.0
C677 C 0.93049 0.6558 0.81651 0.0
C678 C 0.86315 0.6457 0.84655 0.0
C679 C 0.94281 0.67078 0.8655 0.0
C680 C 0.88239 0.68529 0.92593 0.0
C681 C 0.8846 0.66786 0.94615 0.0
C682 C 0.88886 0.68259 0.89647 0.0
C683 C 0.8975 0.66191 0.88712 0.0
C684 C 0.90005 0.64437 0.90756 0.0
C685 C 0.89366 0.64761 0.93689 0.0
C686 C 0.88613 0.7017 0.87527 0.0
C687 C 0.90905 0.62202 0.89832 0.0
H688 H 0.88016 0.63734 0.79281 0.0
H689 H 0.94741 0.65792 0.80885 0.0
H690 H 0.86304 0.63278 0.86398 0.0
H691 H 0.85611 0.66104 0.85631 0.0
H692 H 0.85215 0.64017 0.82834 0.0
H693 H 0.95854 0.67417 0.85351 0.0
H694 H 0.93705 0.68638 0.87601 0.0
H695 H 0.9463 0.65875 0.8834 0.0
H696 H 0.87547 0.70101 0.93309 0.0
H697 H 0.89537 0.63408 0.95248 0.0
H698 H 0.87397 0.69719 0.85794 0.0
H699 H 0.90213 0.70526 0.8641 0.0
H700 H 0.88031 0.71706 0.88641 0.0
H701 H 0.89799 0.61453 0.88149 0.0
H702 H 0.91049 0.61031 0.91711 0.0
H703 H 0.92567 0.62399 0.8881 0.0
C704 C 0.11478 0.18185 0.55038 0.0
C705 C 0.11375 0.16267 0.53294 0.0
C706 C 0.10778 0.18149 0.57985 0.0
C707 C 0.09982 0.16141 0.59211 0.0
C708 C 0.09832 0.14213 0.57439 0.0
C709 C 0.1052 0.14303 0.54494 0.0
C710 C 0.10937 0.20242 0.59803 0.0
C711 C 0.09008 0.12036 0.58678 0.0
C712 C 0.10517 0.15064 0.67386 0.0
C713 C 0.08313 0.15283 0.68332 0.0
C714 C 0.11094 0.15409 0.64434 0.0
C715 C 0.09427 0.16009 0.62388 0.0
C716 C 0.07216 0.16333 0.63355 0.0
C717 C 0.06681 0.15955 0.66321 0.0
C718 C 0.1347 0.15036 0.63482 0.0
C719 C 0.05403 0.17001 0.61239 0.0
H720 H 0.12127 0.19711 0.54109 0.0
H721 H 0.10438 0.12817 0.53151 0.0
H722 H 0.09318 0.20601 0.60869 0.0
H723 H 0.12175 0.20011 0.61585 0.0
H724 H 0.11435 0.21702 0.58462 0.0
H725 H 0.08916 0.10713 0.56978 0.0
H726 H 0.10134 0.11472 0.60461 0.0
H727 H 0.07335 0.12255 0.59661 0.0
H728 H 0.11785 0.14546 0.68933 0.0
H729 H 0.04976 0.16134 0.6705 0.0
H730 H 0.14104 0.1651 0.62285 0.0
H731 H 0.13549 0.13607 0.61942 0.0
H732 H 0.14587 0.14693 0.65374 0.0
H733 H 0.05921 0.18474 0.59945 0.0
H734 H 0.0382 0.17387 0.62387 0.0
H735 H 0.05097 0.15633 0.59654 0.0
C736 C 0.59809 0.34882 0.43172 0.0
C737 C 0.60182 0.3266 0.43934 0.0
C738 C 0.59223 0.35468 0.40292 0.0
C739 C 0.5901 0.33789 0.38131 0.0
C740 C 0.59323 0.31536 0.38906 0.0
C741 C 0.59905 0.30996 0.41808 0.0
C742 C 0.58893 0.37889 0.39544 0.0
C743 C 0.59106 0.29705 0.36654 0.0
C744 C 0.55952 0.35322 0.31134 0.0
C745 C 0.57719 0.35852 0.2925 0.0
C746 C 0.56347 0.34603 0.34021 0.0
C747 C 0.58559 0.34409 0.35033 0.0
C748 C 0.6035 0.34894 0.33118 0.0
C749 C 0.59907 0.35612 0.30245 0.0
C750 C 0.54399 0.341 0.36008 0.0
C751 C 0.62733 0.347 0.34124 0.0
H752 H 0.60016 0.36172 0.44814 0.0
H753 H 0.60191 0.29275 0.42393 0.0
H754 H 0.60165 0.38422 0.37922 0.0
H755 H 0.57243 0.3814 0.38509 0.0
H756 H 0.59014 0.38978 0.41512 0.0
H757 H 0.59281 0.2803 0.3765 0.0
H758 H 0.5747 0.29807 0.35541 0.0
H759 H 0.60399 0.29904 0.34934 0.0
H760 H 0.54257 0.35504 0.30368 0.0
H761 H 0.61277 0.36015 0.2879 0.0
H762 H 0.54389 0.35271 0.37894 0.0
H763 H 0.54554 0.32401 0.36928 0.0
H764 H 0.52785 0.34233 0.34839 0.0
H765 H 0.63045 0.35881 0.35953 0.0
H766 H 0.63933 0.35051 0.32325 0.0
H767 H 0.63056 0.33006 0.34982 0.0
C768 C 0.40422 0.85351 0.18909 0.0
C769 C 0.42613 0.85675 0.19849 0.0
C770 C 0.39966 0.84638 0.16038 0.0
C771 C 0.41746 0.84245 0.14069 0.0
C772 C 0.43964 0.84504 0.15033 0.0
C773 C 0.44372 0.85218 0.1792 0.0
C774 C 0.37578 0.84372 0.15086 0.0
C775 C 0.459 0.84092 0.12989 0.0
C776 C 0.40312 0.80963 0.07217 0.0
C777 C 0.39912 0.82671 0.05191 0.0
C778 C 0.40989 0.81444 0.101 0.0
C779 C 0.41269 0.83685 0.10959 0.0
C780 C 0.40952 0.8541 0.08887 0.0
C781 C 0.40276 0.84881 0.06023 0.0
C782 C 0.4132 0.79565 0.12255 0.0
C783 C 0.41245 0.87819 0.09725 0.0
H784 H 0.39058 0.85695 0.204 0.0
H785 H 0.4607 0.85462 0.18646 0.0
H786 H 0.37192 0.85584 0.13319 0.0
H787 H 0.37307 0.82688 0.14163 0.0
H788 H 0.36393 0.84633 0.1693 0.0
H789 H 0.47523 0.8422 0.14139 0.0
H790 H 0.45767 0.82421 0.1198 0.0
H791 H 0.45872 0.85321 0.1117 0.0
H792 H 0.40037 0.79251 0.06576 0.0
H793 H 0.39977 0.86205 0.04456 0.0
H794 H 0.40033 0.79652 0.14 0.0
H795 H 0.42959 0.79714 0.13351 0.0
H796 H 0.41216 0.77913 0.11176 0.0
H797 H 0.39983 0.88287 0.11395 0.0
H798 H 0.41073 0.88948 0.07804 0.0
H799 H 0.42902 0.88083 0.10732 0.0
C800 C 0.89615 0.33855 0.70284 0.0
C801 C 0.91711 0.34545 0.71258 0.0
C802 C 0.89293 0.33175 0.67364 0.0
C803 C 0.9111 0.33193 0.65385 0.0
C804 C 0.93255 0.33758 0.66405 0.0
C805 C 0.93531 0.34427 0.69337 0.0
C806 C 0.86983 0.32563 0.66355 0.0
C807 C 0.95234 0.3379 0.64361 0.0
C808 C 0.90373 0.3044 0.57933 0.0
C809 C 0.89782 0.32261 0.56178 0.0
C810 C 0.90845 0.30716 0.60936 0.0
C811 C 0.90721 0.32861 0.62194 0.0
C812 C 0.90173 0.3471 0.60413 0.0
C813 C 0.8971 0.34386 0.57424 0.0
C814 C 0.9143 0.28712 0.62774 0.0
C815 C 0.90035 0.37027 0.61676 0.0
H816 H 0.88207 0.33931 0.7177 0.0
H817 H 0.95158 0.34946 0.70088 0.0
H818 H 0.86348 0.33864 0.64844 0.0
H819 H 0.87012 0.30978 0.65113 0.0
H820 H 0.85806 0.32397 0.68227 0.0
H821 H 0.96822 0.34009 0.65569 0.0
H822 H 0.95321 0.32229 0.6307 0.0
H823 H 0.95055 0.35176 0.6277 0.0
H824 H 0.90429 0.28793 0.56974 0.0
H825 H 0.89256 0.35798 0.56072 0.0
H826 H 0.90147 0.28457 0.64495 0.0
H827 H 0.93033 0.28984 0.63921 0.0
H828 H 0.91558 0.27175 0.61432 0.0
H829 H 0.88731 0.37091 0.63402 0.0
H830 H 0.89643 0.38292 0.59973 0.0
H831 H 0.91632 0.37478 0.62735 0.0
C832 C 0.42703 0.16404 0.32537 0.0
C833 C 0.41138 0.15466 0.30623 0.0
C834 C 0.42182 0.16783 0.35504 0.0
C835 C 0.40058 0.16185 0.36574 0.0
C836 C 0.38446 0.15311 0.34626 0.0
C837 C 0.39003 0.14973 0.31665 0.0
C838 C 0.43931 0.17746 0.37515 0.0
C839 C 0.36166 0.14642 0.35695 0.0
C840 C 0.39518 0.14617 0.44615 0.0
C841 C 0.38492 0.16506 0.45791 0.0
C842 C 0.4005 0.14501 0.41617 0.0
C843 C 0.39565 0.16328 0.39766 0.0
C844 C 0.38563 0.18256 0.40951 0.0
C845 C 0.38025 0.18317 0.43954 0.0
C846 C 0.41101 0.12409 0.40421 0.0
C847 C 0.38045 0.20242 0.39043 0.0
H848 H 0.44351 0.16797 0.31732 0.0
H849 H 0.37789 0.14246 0.3019 0.0
H850 H 0.43246 0.19176 0.38759 0.0
H851 H 0.44446 0.16479 0.3915 0.0
H852 H 0.45426 0.18304 0.36288 0.0
H853 H 0.35064 0.14112 0.33865 0.0
H854 H 0.36318 0.13249 0.37281 0.0
H855 H 0.35365 0.16042 0.36875 0.0
H856 H 0.39876 0.13214 0.46031 0.0
H857 H 0.3724 0.19784 0.44864 0.0
H858 H 0.42714 0.12804 0.39363 0.0
H859 H 0.40016 0.11673 0.38704 0.0
H860 H 0.41388 0.11146 0.42162 0.0
H861 H 0.39573 0.20819 0.37913 0.0
H862 H 0.37342 0.21645 0.40331 0.0
H863 H 0.36838 0.19769 0.3731 0.0
C864 C 0.57033 0.66708 0.16403 0.0
C865 C 0.58578 0.65589 0.1817 0.0
C866 C 0.57448 0.67059 0.13399 0.0
C867 C 0.59432 0.66231 0.12137 0.0
C868 C 0.6103 0.65172 0.13937 0.0
C869 C 0.60591 0.64882 0.16941 0.0
C870 C 0.5573 0.6824 0.11555 0.0
C871 C 0.63155 0.64244 0.12665 0.0
C872 C 0.59514 0.64528 0.04115 0.0
C873 C 0.60811 0.6621 0.02865 0.0
C874 C 0.59003 0.64548 0.07125 0.0
C875 C 0.59775 0.66316 0.08906 0.0
C876 C 0.61 0.68073 0.07626 0.0
C877 C 0.61524 0.67988 0.04618 0.0
C878 C 0.57717 0.62628 0.08421 0.0
C879 C 0.6181 0.70007 0.09448 0.0
H880 H 0.5548 0.67268 0.17356 0.0
H881 H 0.61787 0.64011 0.183 0.0
H882 H 0.56522 0.69561 0.10214 0.0
H883 H 0.54952 0.67047 0.10007 0.0
H884 H 0.54401 0.68998 0.12925 0.0
H885 H 0.64271 0.63561 0.14389 0.0
H886 H 0.62759 0.629 0.11079 0.0
H887 H 0.64064 0.6555 0.11437 0.0
H888 H 0.58965 0.6315 0.02763 0.0
H889 H 0.62514 0.693 0.03646 0.0
H890 H 0.56235 0.63247 0.09618 0.0
H891 H 0.58769 0.61736 0.10039 0.0
H892 H 0.57164 0.61428 0.06714 0.0
H893 H 0.60425 0.70715 0.10757 0.0
H894 H 0.62542 0.71342 0.08067 0.0
H895 H 0.6309 0.69428 0.11026 0.0
C896 C 0.06025 0.85306 0.81621 0.0
C897 C 0.0783 0.85711 0.79746 0.0
C898 C 0.06362 0.84655 0.84549 0.0
C899 C 0.08555 0.844 0.85609 0.0
C900 C 0.10382 0.84754 0.83705 0.0
C901 C 0.09996 0.85409 0.80791 0.0
C902 C 0.04377 0.84293 0.86524 0.0
C903 C 0.12745 0.84487 0.84763 0.0
C904 C 0.09723 0.85055 0.93748 0.0
C905 C 0.09973 0.82842 0.94634 0.0
C906 C 0.0921 0.85583 0.90824 0.0
C907 C 0.08949 0.83853 0.88744 0.0
C908 C 0.09148 0.81612 0.8964 0.0
C909 C 0.09656 0.81132 0.92583 0.0
C910 C 0.08999 0.87992 0.89946 0.0
C911 C 0.0888 0.79728 0.87476 0.0
H912 H 0.04346 0.85537 0.80816 0.0
H913 H 0.11395 0.85714 0.79342 0.0
H914 H 0.04451 0.82617 0.87532 0.0
H915 H 0.04399 0.85518 0.88349 0.0
H916 H 0.0278 0.84459 0.8532 0.0
H917 H 0.13975 0.84731 0.82967 0.0
H918 H 0.13092 0.85709 0.86532 0.0
H919 H 0.12985 0.82809 0.85716 0.0
H920 H 0.09961 0.86381 0.95332 0.0
H921 H 0.09848 0.79418 0.93264 0.0
H922 H 0.07371 0.88287 0.88872 0.0
H923 H 0.10307 0.88417 0.88319 0.0
H924 H 0.09154 0.89132 0.91858 0.0
H925 H 0.07258 0.79861 0.86331 0.0
H926 H 0.08982 0.78076 0.88556 0.0
H927 H 0.10194 0.79829 0.85768 0.0
C928 C 0.12959 0.32616 0.35509 0.0
C929 C 0.10669 0.32656 0.34956 0.0
C930 C 0.13943 0.30783 0.36915 0.0
C931 C 0.126 0.28964 0.37767 0.0
C932 C 0.10278 0.29038 0.37296 0.0
C933 C 0.09344 0.30882 0.35901 0.0
C934 C 0.16421 0.30763 0.37405 0.0
C935 C 0.08781 0.27136 0.38184 0.0
C936 C 0.14519 0.2302 0.38365 0.0
C937 C 0.14399 0.22683 0.41413 0.0
C938 C 0.14119 0.25121 0.37149 0.0
C939 C 0.1359 0.26919 0.39031 0.0
C940 C 0.13654 0.26627 0.42121 0.0
C941 C 0.14055 0.24506 0.43278 0.0
C942 C 0.14077 0.25367 0.3384 0.0
C943 C 0.13121 0.28509 0.44201 0.0
H944 H 0.13986 0.33988 0.34781 0.0
H945 H 0.0757 0.30911 0.35495 0.0
H946 H 0.16805 0.30326 0.39723 0.0
H947 H 0.17194 0.29476 0.35989 0.0
H948 H 0.17196 0.32391 0.36888 0.0
H949 H 0.07002 0.27491 0.37746 0.0
H950 H 0.09254 0.25616 0.36954 0.0
H951 H 0.0898 0.26773 0.40563 0.0
H952 H 0.14806 0.21619 0.36916 0.0
H953 H 0.13985 0.24258 0.45641 0.0
H954 H 0.14974 0.2689 0.33153 0.0
H955 H 0.12331 0.25532 0.33089 0.0
H956 H 0.14831 0.23916 0.32709 0.0
H957 H 0.13964 0.30059 0.435 0.0
H958 H 0.13619 0.28122 0.465 0.0
H959 H 0.11307 0.28828 0.4417 0.0
C960 C 0.91834 0.86543 0.58648 0.0
C961 C 0.92362 0.84641 0.5701 0.0
C962 C 0.93384 0.87478 0.60598 0.0
C963 C 0.95493 0.86469 0.60922 0.0
C964 C 0.96037 0.84563 0.59247 0.0
C965 C 0.94468 0.83679 0.57305 0.0
C966 C 0.92762 0.89523 0.62332 0.0
C967 C 0.98265 0.8343 0.59543 0.0
C968 C 0.00623 0.89245 0.63984 0.0
C969 C 0.0077 0.88241 0.6676 0.0
C970 C 0.98813 0.88817 0.62127 0.0
C971 C 0.97131 0.87338 0.6307 0.0
C972 C 0.97197 0.86445 0.65951 0.0
C973 C 0.99016 0.86915 0.67768 0.0
C974 C 0.98784 0.89822 0.59083 0.0
C975 C 0.95436 0.84857 0.67035 0.0
H976 H 0.90207 0.87293 0.58415 0.0
H977 H 0.94883 0.82208 0.56045 0.0
H978 H 0.9276 0.89136 0.6472 0.0
H979 H 0.9401 0.9085 0.61973 0.0
H980 H 0.91097 0.90169 0.61717 0.0
H981 H 0.98432 0.81976 0.58053 0.0
H982 H 0.9962 0.84619 0.5904 0.0
H983 H 0.98504 0.82858 0.61843 0.0
H984 H 0.01968 0.90289 0.63208 0.0
H985 H 0.99116 0.86147 0.69923 0.0
H986 H 0.97108 0.90471 0.58549 0.0
H987 H 0.99188 0.88523 0.57434 0.0
H988 H 9e-05 0.9119 0.58856 0.0
H989 H 0.93753 0.85515 0.66568 0.0
H990 H 0.95577 0.84535 0.69436 0.0
H991 H 0.95599 0.83253 0.65853 0.0
C992 C 0.37512 0.73308 0.94269 0.0
C993 C 0.36184 0.75068 0.93289 0.0
C994 C 0.37751 0.71379 0.92575 0.0
C995 C 0.36617 0.71207 0.89856 0.0
C996 C 0.35117 0.72893 0.88991 0.0
C997 C 0.34927 0.74816 0.90715 0.0
C998 C 0.39373 0.69621 0.93571 0.0
C999 C 0.33849 0.7275 0.86132 0.0
C1000 C 0.39828 0.68288 0.83852 0.0
C1001 C 0.38869 0.66169 0.83859 0.0
C1002 C 0.39077 0.69945 0.85761 0.0
C1003 C 0.37302 0.69481 0.87711 0.0
C1004 C 0.36278 0.67365 0.87675 0.0
C1005 C 0.37086 0.65722 0.85754 0.0
C1006 C 0.40225 0.72177 0.8574 0.0
C1007 C 0.34363 0.6683 0.89698 0.0
H1008 H 0.38473 0.73488 0.96273 0.0
H1009 H 0.33875 0.76164 0.89969 0.0
H1010 H 0.3865 0.67939 0.9331 0.0
H1011 H 0.40887 0.69698 0.92178 0.0
H1012 H 0.39874 0.69848 0.95905 0.0
H1013 H 0.32468 0.73971 0.86044 0.0
H1014 H 0.34992 0.73091 0.84269 0.0
H1015 H 0.33161 0.71059 0.85809 0.0
H1016 H 0.41206 0.68643 0.82389 0.0
H1017 H 0.36336 0.64086 0.85754 0.0
H1018 H 0.40969 0.72509 0.87931 0.0
H1019 H 0.39004 0.73514 0.85299 0.0
H1020 H 0.41559 0.72274 0.84054 0.0
H1021 H 0.34937 0.66855 0.92019 0.0
H1022 H 0.33632 0.65174 0.89228 0.0
H1023 H 0.33045 0.68107 0.89488 0.0
C1024 C 0.56261 0.16607 0.08863 0.0
C1025 C 0.58406 0.15742 0.09193 0.0
C1026 C 0.54549 0.16001 0.10782 0.0
C1027 C 0.54985 0.1447 0.13073 0.0
C1028 C 0.57139 0.13559 0.13395 0.0
C1029 C 0.58834 0.14217 0.11454 0.0
C1030 C 0.52277 0.17024 0.10378 0.0
C1031 C 0.5765 0.11903 0.15794 0.0
C1032 C 0.50829 0.14879 0.19295 0.0
C1033 C 0.49257 0.1329 0.18439 0.0
C1034 C 0.5278 0.15194 0.17662 0.0
C1035 C 0.53171 0.13871 0.15137 0.0
C1036 C 0.51661 0.12162 0.14385 0.0
C1037 C 0.49711 0.11901 0.16038 0.0
C1038 C 0.54344 0.17042 0.18522 0.0
C1039 C 0.52036 0.10699 0.11731 0.0
H1040 H 0.55923 0.17792 0.07124 0.0
H1041 H 0.60492 0.13543 0.11709 0.0
H1042 H 0.51023 0.15704 0.10014 0.0
H1043 H 0.5179 0.17937 0.124 0.0
H1044 H 0.52219 0.18192 0.08487 0.0
H1045 H 0.5939 0.11294 0.15685 0.0
H1046 H 0.57372 0.12673 0.17982 0.0
H1047 H 0.56511 0.10461 0.15628 0.0
H1048 H 0.50486 0.15951 0.21158 0.0
H1049 H 0.48509 0.10654 0.15389 0.0
H1050 H 0.54246 0.18394 0.16868 0.0
H1051 H 0.56085 0.1644 0.1855 0.0
H1052 H 0.53939 0.17746 0.20719 0.0
H1053 H 0.51781 0.11683 0.09693 0.0
H1054 H 0.50882 0.0926 0.11689 0.0
H1055 H 0.53768 0.10072 0.11692 0.0
C1056 C 0.08164 0.68399 0.16609 0.0
C1057 C 0.09039 0.66249 0.16426 0.0
C1058 C 0.08918 0.7009 0.14751 0.0
C1059 C 0.10613 0.69627 0.12681 0.0
C1060 C 0.11541 0.6747 0.12521 0.0
C1061 C 0.10729 0.65795 0.14389 0.0
C1062 C 0.07869 0.72364 0.1497 0.0
C1063 C 0.13371 0.66931 0.10364 0.0
C1064 C 0.10589 0.7363 0.06276 0.0
C1065 C 0.12096 0.75244 0.07247 0.0
C1066 C 0.10185 0.71716 0.07945 0.0
C1067 C 0.11336 0.71403 0.10629 0.0
C1068 C 0.1297 0.72954 0.11517 0.0
C1069 C 0.13321 0.74869 0.09822 0.0
C1070 C 0.08416 0.7011 0.06936 0.0
C1071 C 0.14254 0.72658 0.14344 0.0
H1072 H 0.06853 0.68757 0.18177 0.0
H1073 H 0.11415 0.64135 0.14254 0.0
H1074 H 0.09157 0.7363 0.15448 0.0
H1075 H 0.07093 0.72812 0.12836 0.0
H1076 H 0.06579 0.72451 0.16717 0.0
H1077 H 0.13994 0.65206 0.10624 0.0
H1078 H 0.12757 0.67142 0.08079 0.0
H1079 H 0.14778 0.68099 0.1066 0.0
H1080 H 0.09645 0.73909 0.04279 0.0
H1081 H 0.14503 0.76105 0.10564 0.0
H1082 H 0.06963 0.70219 0.08433 0.0
H1083 H 0.09039 0.6838 0.07029 0.0
H1084 H 0.07847 0.70464 0.04657 0.0
H1085 H 0.13137 0.72955 0.16248 0.0
H1086 H 0.15678 0.73824 0.145 0.0
H1087 H 0.14886 0.70933 0.1453 0.0
C1088 C 0.51711 0.87639 0.3132 0.0
C1089 C 0.4992 0.88904 0.32353 0.0
C1090 C 0.53542 0.87204 0.33131 0.0
C1091 C 0.53578 0.88067 0.36029 0.0
C1092 C 0.51874 0.89519 0.36978 0.0
C1093 C 0.50055 0.89915 0.35126 0.0
C1094 C 0.55331 0.85652 0.32035 0.0
C1095 C 0.51871 0.90496 0.40039 0.0
C1096 C 0.56061 0.84264 0.41759 0.0
C1097 C 0.58169 0.85193 0.42181 0.0
C1098 C 0.54552 0.85206 0.39785 0.0
C1099 C 0.5516 0.87138 0.38204 0.0
C1100 C 0.5727 0.88114 0.38655 0.0
C1101 C 0.58761 0.87121 0.40638 0.0
C1102 C 0.52317 0.84108 0.39359 0.0
C1103 C 0.57959 0.90184 0.37022 0.0
H1104 H 0.51623 0.86872 0.29163 0.0
H1105 H 0.48683 0.90917 0.35919 0.0
H1106 H 0.57002 0.86291 0.32608 0.0
H1107 H 0.55136 0.84011 0.33116 0.0
H1108 H 0.55244 0.85407 0.29613 0.0
H1109 H 0.50669 0.91887 0.40246 0.0
H1110 H 0.51405 0.89192 0.41649 0.0
H1111 H 0.53548 0.91105 0.40642 0.0
H1112 H 0.55596 0.82774 0.42947 0.0
H1113 H 0.60389 0.87845 0.40968 0.0
H1114 H 0.52122 0.83589 0.37029 0.0
H1115 H 0.50966 0.85302 0.39859 0.0
H1116 H 0.52101 0.82624 0.40783 0.0
H1117 H 0.58024 0.89841 0.34624 0.0
H1118 H 0.5961 0.90803 0.3774 0.0
H1119 H 0.56713 0.91517 0.37363 0.0
C1120 C 0.35738 0.23595 0.6067 0.0
C1121 C 0.36499 0.23139 0.57818 0.0
C1122 C 0.36134 0.25667 0.6198 0.0
C1123 C 0.37337 0.273 0.60404 0.0
C1124 C 0.37964 0.26902 0.57448 0.0
C1125 C 0.37529 0.24825 0.56185 0.0
C1126 C 0.3541 0.26044 0.65124 0.0
C1127 C 0.39256 0.28598 0.55698 0.0
C1128 C 0.37985 0.331 0.63611 0.0
C1129 C 0.40014 0.32889 0.65095 0.0
C1130 C 0.37076 0.31293 0.62065 0.0
C1131 C 0.38246 0.29254 0.61983 0.0
C1132 C 0.40316 0.29056 0.63434 0.0
C1133 C 0.41165 0.30871 0.64985 0.0
C1134 C 0.34856 0.31551 0.60563 0.0
C1135 C 0.41632 0.26919 0.63365 0.0
H1136 H 0.34919 0.22303 0.61928 0.0
H1137 H 0.38105 0.24486 0.53968 0.0
H1138 H 0.36882 0.25981 0.6659 0.0
H1139 H 0.34646 0.27709 0.65375 0.0
H1140 H 0.34203 0.24769 0.65874 0.0
H1141 H 0.39332 0.28169 0.5332 0.0
H1142 H 0.38509 0.30271 0.55934 0.0
H1143 H 0.40979 0.28691 0.56556 0.0
H1144 H 0.37089 0.34659 0.63706 0.0
H1145 H 0.42742 0.30707 0.66115 0.0
H1146 H 0.33644 0.30372 0.61534 0.0
H1147 H 0.35006 0.31136 0.58192 0.0
H1148 H 0.34185 0.33261 0.60773 0.0
H1149 H 0.40655 0.25562 0.6439 0.0
H1150 H 0.4324 0.27062 0.64549 0.0
H1151 H 0.41974 0.2643 0.61054 0.0
C1152 C 0.00435 0.11331 0.83666 0.0
C1153 C 0.00557 0.12495 0.80997 0.0
C1154 C 0.98577 0.11535 0.85508 0.0
C1155 C 0.96808 0.12942 0.84659 0.0
C1156 C 0.96853 0.13989 0.81868 0.0
C1157 C 0.9873 0.13751 0.80065 0.0
C1158 C 0.98586 0.10378 0.88457 0.0
C1159 C 0.94994 0.15497 0.8088 0.0
C1160 C 0.91467 0.1313 0.89139 0.0
C1161 C 0.9185 0.14996 0.90914 0.0
C1162 C 0.93075 0.12413 0.87102 0.0
C1163 C 0.95101 0.13593 0.86854 0.0
C1164 C 0.95506 0.15449 0.88687 0.0
C1165 C 0.93877 0.16126 0.9069 0.0
C1166 C 0.92595 0.10424 0.85186 0.0
C1167 C 0.97651 0.16746 0.88506 0.0
H1168 H 0.01835 0.10338 0.84383 0.0
H1169 H 0.98811 0.14641 0.77993 0.0
H1170 H 0.98885 0.11615 0.90223 0.0
H1171 H 0.96954 0.09591 0.88899 0.0
H1172 H -0.001 0.09086 0.8859 0.0
H1173 H 0.95131 0.15932 0.7851 0.0
H1174 H 0.93358 0.14705 0.81272 0.0
H1175 H 0.95039 0.17054 0.82184 0.0
H1176 H 0.89899 0.12255 0.89306 0.0
H1177 H 0.94186 0.17565 0.92065 0.0
H1178 H 0.9394 0.09177 0.8541 0.0
H1179 H 0.9255 0.10937 0.8284 0.0
H1180 H 0.90987 0.09625 0.85748 0.0
H1181 H 0.99085 0.15631 0.88905 0.0
H1182 H 0.97717 0.18127 0.90126 0.0
H1183 H 0.9785 0.17452 0.86264 0.0
C1184 C 0.89069 0.66218 0.63378 0.0
C1185 C 0.90661 0.668 0.65494 0.0
C1186 C 0.88338 0.67775 0.61287 0.0
C1187 C 0.89239 0.69946 0.61312 0.0
C1188 C 0.90844 0.70536 0.63448 0.0
C1189 C 0.91526 0.68959 0.65518 0.0
C1190 C 0.86609 0.67102 0.59054 0.0
C1191 C 0.91855 0.72832 0.63541 0.0
C1192 C 0.89366 0.73791 0.54733 0.0
C1193 C 0.87805 0.75394 0.55577 0.0
C1194 C 0.8975 0.71913 0.56487 0.0
C1195 C 0.88527 0.71632 0.59124 0.0
C1196 C 0.86831 0.7316 0.59864 0.0
C1197 C 0.86498 0.75033 0.58087 0.0
C1198 C 0.91578 0.70323 0.5563 0.0
C1199 C 0.85472 0.72903 0.62638 0.0
H1200 H 0.88397 0.64549 0.63357 0.0
H1201 H 0.92762 0.69416 0.67144 0.0
H1202 H 0.85145 0.68213 0.59221 0.0
H1203 H 0.87287 0.67285 0.56796 0.0
H1204 H 0.86051 0.65359 0.59359 0.0
H1205 H 0.93102 0.73011 0.65327 0.0
H1206 H 0.92674 0.73207 0.61409 0.0
H1207 H 0.90536 0.74092 0.63878 0.0
H1208 H 0.90373 0.7406 0.52786 0.0
H1209 H 0.85271 0.76258 0.58728 0.0
H1210 H 0.91007 0.68579 0.55835 0.0
H1211 H 0.93007 0.70538 0.57146 0.0
H1212 H 0.92166 0.70605 0.53341 0.0
H1213 H 0.8488 0.71168 0.62878 0.0
H1214 H 0.84014 0.74033 0.62669 0.0
H1215 H 0.86524 0.73283 0.6458 0.0
C1216 C 0.01212 0.12326 0.29382 0.0
C1217 C 0.99557 0.11004 0.30661 0.0
C1218 C 0.03256 0.12646 0.30801 0.0
C1219 C 0.0365 0.11604 0.33546 0.0
C1220 C 0.02063 0.10107 0.34705 0.0
C1221 C 0.00027 0.09833 0.33253 0.0
C1222 C 0.04906 0.14255 0.29493 0.0
C1223 C 0.0243 0.0894 0.37606 0.0
C1224 C 0.09319 0.1206 0.37213 0.0
C1225 C 0.0896 0.13835 0.39153 0.0
C1226 C 0.07611 0.11308 0.35349 0.0
C1227 C 0.05512 0.12368 0.35435 0.0
C1228 C 0.05155 0.1417 0.3738 0.0
C1229 C 0.0688 0.14876 0.39215 0.0
C1230 C 0.08042 0.09379 0.33308 0.0
C1231 C 0.02943 0.15352 0.37536 0.0
H1232 H 0.00859 0.13226 0.27369 0.0
H1233 H 0.9876 0.08787 0.34232 0.0
H1234 H 0.04865 0.15829 0.30761 0.0
H1235 H 0.06618 0.13586 0.29635 0.0
H1236 H 0.04526 0.14637 0.27153 0.0
H1237 H 0.01224 0.07569 0.37953 0.0
H1238 H 0.04138 0.08255 0.37731 0.0
H1239 H 0.0224 0.1015 0.39432 0.0
H1240 H 0.10927 0.11253 0.37159 0.0
H1241 H 0.06594 0.16254 0.40704 0.0
H1242 H 0.07715 0.09876 0.30997 0.0
H1243 H 0.06891 0.07996 0.33833 0.0
H1244 H 0.09776 0.0876 0.33471 0.0
H1245 H 0.02494 0.16014 0.35336 0.0
H1246 H 0.02955 0.1675 0.39132 0.0
H1247 H 0.01623 0.14167 0.38196 0.0
C1248 C 0.62116 0.26165 0.05908 0.0
C1249 C 0.63237 0.24444 0.07358 0.0
C1250 C 0.61583 0.2814 0.07386 0.0
C1251 C 0.62196 0.28396 0.10376 0.0
C1252 C 0.63469 0.26729 0.11781 0.0
C1253 C 0.6397 0.24767 0.10255 0.0
C1254 C 0.60226 0.2988 0.0581 0.0
C1255 C 0.64168 0.26948 0.1496 0.0
C1256 C 0.61417 0.33976 0.1418 0.0
C1257 C 0.59377 0.3365 0.15607 0.0
C1258 C 0.62364 0.32285 0.1245 0.0
C1259 C 0.61235 0.30236 0.12145 0.0
C1260 C 0.59167 0.29912 0.13564 0.0
C1261 C 0.58268 0.3162 0.15278 0.0
C1262 C 0.64573 0.32682 0.10971 0.0
C1263 C 0.57904 0.27753 0.13287 0.0
H1264 H 0.61556 0.25928 0.03662 0.0
H1265 H 0.64854 0.23448 0.11377 0.0
H1266 H 0.58507 0.29873 0.0669 0.0
H1267 H 0.60923 0.31559 0.06198 0.0
H1268 H 0.60151 0.29577 0.03399 0.0
H1269 H 0.65403 0.25664 0.15597 0.0
H1270 H 0.6489 0.28612 0.15379 0.0
H1271 H 0.62691 0.2677 0.16403 0.0
H1272 H 0.62279 0.35544 0.14432 0.0
H1273 H 0.56688 0.31359 0.16369 0.0
H1274 H 0.64415 0.32437 0.08559 0.0
H1275 H 0.65808 0.31457 0.11775 0.0
H1276 H 0.65221 0.3438 0.11389 0.0
H1277 H 0.57559 0.27394 0.10935 0.0
H1278 H 0.56302 0.27783 0.14501 0.0
H1279 H 0.58924 0.26365 0.14153 0.0
C1280 C 0.43519 0.82548 0.90644 0.0
C1281 C 0.41694 0.8388 0.91384 0.0
C1282 C 0.45285 0.83393 0.88986 0.0
C1283 C 0.4523 0.85632 0.88046 0.0
C1284 C 0.43363 0.86972 0.88707 0.0
C1285 C 0.41608 0.86077 0.90372 0.0
C1286 C 0.4724 0.81903 0.88314 0.0
C1287 C 0.4325 0.89364 0.87732 0.0
C1288 C 0.51004 0.87895 0.8676 0.0
C1289 C 0.51262 0.87548 0.83728 0.0
C1290 C 0.48989 0.87416 0.88169 0.0
C1291 C 0.47193 0.86567 0.86503 0.0
C1292 C 0.474 0.86346 0.83412 0.0
C1293 C 0.49437 0.8684 0.82058 0.0
C1294 C 0.4883 0.87685 0.91469 0.0
C1295 C 0.4552 0.85454 0.8156 0.0
H1296 H 0.43588 0.80843 0.91404 0.0
H1297 H 0.40198 0.87111 0.90941 0.0
H1298 H 0.47554 0.81859 0.85907 0.0
H1299 H 0.48757 0.82571 0.8938 0.0
H1300 H 0.46978 0.80176 0.89098 0.0
H1301 H 0.41612 0.9013 0.88218 0.0
H1302 H 0.44557 0.90337 0.88871 0.0
H1303 H 0.43575 0.89493 0.85333 0.0
H1304 H 0.52405 0.88461 0.88057 0.0
H1305 H 0.49624 0.86584 0.79708 0.0
H1306 H 0.48765 0.86024 0.92521 0.0
H1307 H 0.47284 0.88575 0.92075 0.0
H1308 H 0.5027 0.88606 0.92388 0.0
H1309 H 0.45308 0.83655 0.82006 0.0
H1310 H 0.45833 0.85675 0.79167 0.0
H1311 H 0.43936 0.86286 0.82139 0.0
C1312 C 0.86304 0.25891 0.94545 0.0
C1313 C 0.86241 0.23967 0.9281 0.0
C1314 C 0.86597 0.27987 0.93247 0.0
C1315 C 0.86879 0.28142 0.90159 0.0
C1316 C 0.8666 0.2622 0.88389 0.0
C1317 C 0.86325 0.24158 0.89737 0.0
C1318 C 0.86755 0.3001 0.95196 0.0
C1319 C 0.8697 0.26307 0.85089 0.0
C1320 C 0.87232 0.3348 0.85738 0.0
C1321 C 0.89537 0.33676 0.85386 0.0
C1322 C 0.86324 0.31761 0.87452 0.0
C1323 C 0.87761 0.30207 0.8881 0.0
C1324 C 0.90089 0.30483 0.88596 0.0
C1325 C 0.90946 0.32218 0.86896 0.0
C1326 C 0.83834 0.31541 0.8768 0.0
C1327 C 0.91684 0.28867 0.90013 0.0
H1328 H 0.86211 0.25752 0.96922 0.0
H1329 H 0.86263 0.22676 0.88384 0.0
H1330 H 0.88523 0.30493 0.95443 0.0
H1331 H 0.85865 0.31436 0.94199 0.0
H1332 H 0.86061 0.29692 0.97424 0.0
H1333 H 0.86529 0.24711 0.84009 0.0
H1334 H 0.85941 0.27645 0.84118 0.0
H1335 H 0.88731 0.26688 0.84577 0.0
H1336 H 0.86138 0.34616 0.84588 0.0
H1337 H 0.92731 0.32379 0.86661 0.0
H1338 H 0.83332 0.31149 0.89973 0.0
H1339 H 0.83267 0.30152 0.86263 0.0
H1340 H 0.8297 0.33078 0.86965 0.0
H1341 H 0.91297 0.28674 0.92386 0.0
H1342 H 0.93442 0.29402 0.89793 0.0
H1343 H 0.91503 0.2721 0.8897 0.0
C1344 C 0.50996 0.10489 0.65563 0.0
C1345 C 0.51419 0.11518 0.68274 0.0
C1346 C 0.4898 0.10827 0.64087 0.0
C1347 C 0.47361 0.12243 0.65344 0.0
C1348 C 0.47729 0.13184 0.68159 0.0
C1349 C 0.49755 0.12803 0.69597 0.0
C1350 C 0.48642 0.09777 0.61101 0.0
C1351 C 0.46046 0.1471 0.69566 0.0
C1352 C 0.43875 0.15504 0.59933 0.0
C1353 C 0.41849 0.14361 0.6001 0.0
C1354 C 0.45665 0.1484 0.61686 0.0
C1355 C 0.45433 0.12972 0.63549 0.0
C1356 C 0.4339 0.11809 0.63648 0.0
C1357 C 0.41612 0.12525 0.61881 0.0
C1358 C 0.47811 0.16138 0.61531 0.0
C1359 C 0.43094 0.09801 0.65595 0.0
H1360 H 0.52272 0.09476 0.64543 0.0
H1361 H 0.50072 0.13595 0.71699 0.0
H1362 H 0.46977 0.08996 0.60963 0.0
H1363 H 0.48724 0.11077 0.59374 0.0
H1364 H 0.49921 0.085 0.60609 0.0
H1365 H 0.46457 0.15083 0.71898 0.0
H1366 H 0.45986 0.16297 0.68328 0.0
H1367 H 0.44362 0.13968 0.69473 0.0
H1368 H 0.44065 0.16932 0.58502 0.0
H1369 H 0.40047 0.11638 0.61942 0.0
H1370 H 0.49176 0.15043 0.60767 0.0
H1371 H 0.48268 0.16752 0.63753 0.0
H1372 H 0.47699 0.17581 0.60016 0.0
H1373 H 0.44301 0.08494 0.64959 0.0
H1374 H 0.41391 0.091 0.65452 0.0
H1375 H 0.4344 0.10244 0.67921 0.0
C1376 C 0.60982 0.7433 0.43838 0.0
C1377 C 0.62567 0.75961 0.43188 0.0
C1378 C 0.60615 0.7255 0.41906 0.0
C1379 C 0.61876 0.72397 0.39279 0.0
C1380 C 0.63587 0.73951 0.38724 0.0
C1381 C 0.63906 0.75723 0.40681 0.0
C1382 C 0.58772 0.70927 0.42572 0.0
C1383 C 0.64983 0.7383 0.35965 0.0
C1384 C 0.61361 0.67168 0.34622 0.0
C1385 C 0.59769 0.6783 0.32548 0.0
C1386 C 0.62095 0.68643 0.36815 0.0
C1387 C 0.61199 0.70815 0.36936 0.0
C1388 C 0.59613 0.71494 0.34821 0.0
C1389 C 0.58925 0.69997 0.3265 0.0
C1390 C 0.63803 0.67874 0.39021 0.0
C1391 C 0.58612 0.73795 0.34877 0.0
H1392 H 0.59949 0.74504 0.4578 0.0
H1393 H 0.65149 0.76969 0.40185 0.0
H1394 H 0.57373 0.71209 0.41026 0.0
H1395 H 0.5935 0.69195 0.42251 0.0
H1396 H 0.58138 0.71106 0.44858 0.0
H1397 H 0.6644 0.74958 0.36067 0.0
H1398 H 0.65578 0.72111 0.35588 0.0
H1399 H 0.63957 0.74306 0.34037 0.0
H1400 H 0.62016 0.65493 0.34549 0.0
H1401 H 0.57692 0.70517 0.31056 0.0
H1402 H 0.63081 0.67908 0.41269 0.0
H1403 H 0.65246 0.6902 0.39021 0.0
H1404 H 0.64402 0.66166 0.38553 0.0
H1405 H 0.57748 0.74074 0.37003 0.0
H1406 H 0.57405 0.74062 0.33062 0.0
H1407 H 0.59941 0.75063 0.34694 0.0
C1408 C 0.07791 0.86608 0.09614 0.0
C1409 C 0.07453 0.84503 0.08375 0.0
C1410 C 0.06102 0.87651 0.11248 0.0
C1411 C 0.04048 0.86547 0.11658 0.0
C1412 C 0.03724 0.84404 0.10456 0.0
C1413 C 0.05425 0.83415 0.08822 0.0
C1414 C 0.06496 0.89942 0.12488 0.0
C1415 C 0.01565 0.83159 0.10864 0.0
C1416 C 0.99888 0.87735 0.17682 0.0
C1417 C 0.98158 0.88702 0.16063 0.0
C1418 C 0.01906 0.8718 0.16325 0.0
C1419 C 0.02196 0.87616 0.13286 0.0
C1420 C 0.00527 0.88766 0.11709 0.0
C1421 C 0.9852 0.89289 0.13116 0.0
C1422 C 0.03646 0.85959 0.18084 0.0
C1423 C 0.00784 0.89285 0.08474 0.0
H1424 H 0.09358 0.87454 0.09265 0.0
H1425 H 0.05161 0.81781 0.07882 0.0
H1426 H 0.05318 0.91135 0.11477 0.0
H1427 H 0.0618 0.89951 0.14894 0.0
H1428 H 0.08216 0.90534 0.12081 0.0
H1429 H 0.01607 0.8148 0.09853 0.0
H1430 H 0.0119 0.82978 0.13244 0.0
H1431 H 0.00181 0.84109 0.09859 0.0
H1432 H 0.99622 0.87293 0.19969 0.0
H1433 H 0.97196 0.9006 0.11864 0.0
H1434 H 0.05326 0.86628 0.17618 0.0
H1435 H 0.03646 0.84182 0.17439 0.0
H1436 H 0.0333 0.86065 0.20491 0.0
H1437 H 0.02455 0.89979 0.08016 0.0
H1438 H 0.9951 0.90482 0.07694 0.0
H1439 H 0.00617 0.87732 0.07179 0.0
C1440 C 0.64214 0.73234 0.90173 0.0
C1441 C 0.62467 0.72186 0.91666 0.0
C1442 C 0.6394 0.75361 0.88965 0.0
C1443 C 0.61874 0.76458 0.89273 0.0
C1444 C 0.60149 0.75456 0.90923 0.0
C1445 C 0.60465 0.73327 0.92092 0.0
C1446 C 0.65817 0.76378 0.8722 0.0
C1447 C 0.57926 0.76578 0.91315 0.0
C1448 C 0.61128 0.8254 0.87248 0.0
C1449 C 0.6014 0.82353 0.84466 0.0
C1450 C 0.61764 0.80635 0.88825 0.0
C1451 C 0.61409 0.7851 0.87572 0.0
C1452 C 0.60483 0.78325 0.84721 0.0
C1453 C 0.59856 0.80247 0.83209 0.0
C1454 C 0.62747 0.80889 0.91863 0.0
C1455 C 0.6009 0.76091 0.83297 0.0
H1456 H 0.6577 0.72362 0.89853 0.0
H1457 H 0.59117 0.7253 0.93272 0.0
H1458 H 0.65379 0.76381 0.84847 0.0
H1459 H 0.66085 0.78129 0.87887 0.0
H1460 H 0.67396 0.75449 0.87501 0.0
H1461 H 0.56852 0.75692 0.9292 0.0
H1462 H 0.58152 0.78314 0.92075 0.0
H1463 H 0.57049 0.76642 0.89168 0.0
H1464 H 0.61349 0.84167 0.88224 0.0
H1465 H 0.59107 0.80095 0.81047 0.0
H1466 H 0.64318 0.79938 0.92036 0.0
H1467 H 0.61583 0.80198 0.93522 0.0
H1468 H 0.63083 0.82653 0.92422 0.0
H1469 H 0.61652 0.75115 0.8326 0.0
H1470 H 0.59463 0.76243 0.81005 0.0
H1471 H 0.5886 0.75136 0.84603 0.0
C1472 C 0.50173 0.39597 0.13888 0.0
C1473 C 0.50339 0.38752 0.16754 0.0
C1474 C 0.48283 0.39187 0.12171 0.0
C1475 C 0.46533 0.37895 0.13353 0.0
C1476 C 0.46619 0.37193 0.16324 0.0
C1477 C 0.48525 0.37634 0.17994 0.0
C1478 C 0.4824 0.39983 0.0902 0.0
C1479 C 0.44785 0.35815 0.17667 0.0
C1480 C 0.41165 0.37119 0.09064 0.0
C1481 C 0.41581 0.35095 0.07641 0.0
C1482 C 0.42767 0.38074 0.10924 0.0
C1483 C 0.44814 0.36967 0.11367 0.0
C1484 C 0.45234 0.34925 0.0993 0.0
C1485 C 0.43615 0.34018 0.08083 0.0
C1486 C 0.42274 0.40258 0.12416 0.0
C1487 C 0.47394 0.33685 0.10353 0.0
H1488 H 0.51565 0.40482 0.12931 0.0
H1489 H 0.48638 0.36996 0.2022 0.0
H1490 H 0.48538 0.38557 0.07524 0.0
H1491 H 0.46592 0.40688 0.08461 0.0
H1492 H 0.49534 0.41258 0.0859 0.0
H1493 H 0.44944 0.35691 0.20098 0.0
H1494 H 0.43135 0.36525 0.17131 0.0
H1495 H 0.44842 0.34113 0.16732 0.0
H1496 H 0.39593 0.37956 0.08721 0.0
H1497 H 0.43944 0.32452 0.0699 0.0
H1498 H 0.43557 0.415 0.11819 0.0
H1499 H 0.42336 0.4005 0.14842 0.0
H1500 H 0.40617 0.40924 0.11804 0.0
H1501 H 0.48811 0.34744 0.09671 0.0
H1502 H 0.47456 0.32117 0.09068 0.0
H1503 H 0.47627 0.3328 0.12716 0.0
C1504 C 0.87203 0.25487 0.39777 0.0
C1505 C 0.87389 0.25418 0.4285 0.0
C1506 C 0.87541 0.23573 0.38081 0.0
C1507 C 0.8805 0.21543 0.39501 0.0
C1508 C 0.88076 0.21434 0.42613 0.0
C1509 C 0.87762 0.23381 0.44255 0.0
C1510 C 0.87513 0.2376 0.34765 0.0
C1511 C 0.88577 0.19292 0.44206 0.0
C1512 C 0.88208 0.16357 0.3473 0.0
C1513 C 0.90473 0.16248 0.34033 0.0
C1514 C 0.87386 0.18042 0.36576 0.0
C1515 C 0.88872 0.19641 0.37735 0.0
C1516 C 0.91168 0.19492 0.37103 0.0
C1517 C 0.91938 0.17799 0.35262 0.0
C1518 C 0.8493 0.18146 0.37224 0.0
C1519 C 0.9281 0.2116 0.38305 0.0
H1520 H 0.86905 0.27059 0.38685 0.0
H1521 H 0.87879 0.23319 0.46636 0.0
H1522 H 0.89229 0.23578 0.33905 0.0
H1523 H 0.865 0.22411 0.33786 0.0
H1524 H 0.86844 0.25382 0.34011 0.0
H1525 H 0.88192 0.19405 0.46595 0.0
H1526 H 0.87616 0.179 0.43242 0.0
H1527 H 0.90365 0.18888 0.43956 0.0
H1528 H 0.87072 0.15157 0.33784 0.0
H1529 H 0.93694 0.17713 0.34746 0.0
H1530 H 0.84212 0.1966 0.36211 0.0
H1531 H 0.84643 0.18263 0.39632 0.0
H1532 H 0.84028 0.16676 0.3636 0.0
H1533 H 0.92398 0.22844 0.37477 0.0
H1534 H 0.94548 0.20768 0.3767 0.0
H1535 H 0.92708 0.21215 0.40743 0.0
C1536 C 0.06449 0.66723 0.59268 0.0
C1537 C 0.08489 0.65635 0.58917 0.0
C1538 C 0.0481 0.65874 0.61135 0.0
C1539 C 0.05216 0.6388 0.62691 0.0
C1540 C 0.07279 0.62777 0.62373 0.0
C1541 C 0.089 0.63672 0.60485 0.0
C1542 C 0.02633 0.67107 0.61418 0.0
C1543 C 0.07761 0.60647 0.64001 0.0
C1544 C 0.01254 0.63288 0.69088 0.0
C1545 C 0.99513 0.62109 0.67768 0.0
C1546 C 0.03219 0.63727 0.67535 0.0
C1547 C 0.03438 0.62964 0.646 0.0
C1548 C 0.01759 0.61619 0.63349 0.0
C1549 C 0.99811 0.61209 0.64949 0.0
C1550 C 0.04978 0.65158 0.68951 0.0
C1551 C 0.01937 0.60763 0.60232 0.0
H1552 H 0.06124 0.68244 0.58069 0.0
H1553 H 0.10477 0.62828 0.60215 0.0
H1554 H 0.01245 0.66027 0.60692 0.0
H1555 H 0.02327 0.67547 0.63755 0.0
H1556 H 0.026 0.68654 0.60087 0.0
H1557 H 0.09472 0.60032 0.63585 0.0
H1558 H 0.07543 0.60899 0.66404 0.0
H1559 H 0.06563 0.59346 0.63317 0.0
H1560 H 0.01039 0.6397 0.71279 0.0
H1561 H 0.98477 0.60275 0.63932 0.0
H1562 H 0.04922 0.66845 0.67973 0.0
H1563 H 0.06658 0.64472 0.68533 0.0
H1564 H 0.04729 0.65312 0.71367 0.0
H1565 H 0.01695 0.62159 0.5867 0.0
H1566 H 0.0067 0.59471 0.59752 0.0
H1567 H 0.03609 0.60058 0.59817 0.0
C1568 C 0.64359 0.24557 0.58664 0.0
C1569 C 0.63051 0.24885 0.5615 0.0
C1570 C 0.64103 0.22649 0.60401 0.0
C1571 C 0.62483 0.21053 0.59615 0.0
C1572 C 0.61273 0.21302 0.56964 0.0
C1573 C 0.61579 0.23215 0.55254 0.0
C1574 C 0.65447 0.22427 0.6319 0.0
C1575 C 0.59524 0.19641 0.56056 0.0
C1576 C 0.62015 0.15588 0.63776 0.0
C1577 C 0.60363 0.16107 0.6584 0.0
C1578 C 0.62757 0.17188 0.61746 0.0
C1579 C 0.61801 0.19337 0.61778 0.0
C1580 C 0.60138 0.19863 0.63868 0.0
C1581 C 0.59449 0.18246 0.65878 0.0
C1582 C 0.64548 0.16583 0.59565 0.0
C1583 C 0.59064 0.2213 0.63964 0.0
H1584 H 0.65518 0.25835 0.59346 0.0
H1585 H 0.60574 0.23455 0.533 0.0
H1586 H 0.6437 0.22779 0.65118 0.0
H1587 H 0.66085 0.2071 0.63436 0.0
H1588 H 0.66872 0.23599 0.63236 0.0
H1589 H 0.58957 0.19909 0.53756 0.0
H1590 H 0.60163 0.17922 0.56261 0.0
H1591 H 0.58067 0.19793 0.5754 0.0
H1592 H 0.62727 0.13935 0.63747 0.0
H1593 H 0.58167 0.18656 0.67465 0.0
H1594 H 0.65964 0.17752 0.59767 0.0
H1595 H 0.639 0.16736 0.57288 0.0
H1596 H 0.6517 0.14864 0.59889 0.0
H1597 H 0.60343 0.23425 0.64341 0.0
H1598 H 0.5779 0.22265 0.65727 0.0
H1599 H 0.58261 0.22496 0.6182 0.0
C1600 C 0.99105 0.40134 0.85059 0.0
C1601 C 0.98704 0.38651 0.8274 0.0
C1602 C 0.01001 0.3991 0.86831 0.0
C1603 C 0.02497 0.38144 0.86285 0.0
C1604 C 0.02194 0.36768 0.83791 0.0
C1605 C 0.00305 0.37049 0.82035 0.0
C1606 C 0.01303 0.41446 0.89424 0.0
C1607 C 0.03746 0.34861 0.83133 0.0
C1608 C 0.07923 0.37256 0.9038 0.0
C1609 C 0.07273 0.35675 0.92477 0.0
C1610 C 0.06365 0.38174 0.88424 0.0
C1611 C 0.04124 0.37473 0.88569 0.0
C1612 C 0.0345 0.3595 0.90769 0.0
C1613 C 0.05032 0.35077 0.927 0.0
C1614 C 0.07133 0.39818 0.86133 0.0
C1615 C 0.01074 0.35156 0.91 0.0
H1616 H 0.97884 0.41395 0.85586 0.0
H1617 H 0.00014 0.35913 0.80224 0.0
H1618 H 0.00793 0.40578 0.9147 0.0
H1619 H 0.03072 0.41926 0.89674 0.0
H1620 H 0.00283 0.42974 0.89202 0.0
H1621 H 0.03443 0.34133 0.80922 0.0
H1622 H 0.05501 0.35408 0.83258 0.0
H1623 H 0.03509 0.33539 0.84807 0.0
H1624 H 0.09655 0.3773 0.90212 0.0
H1625 H 0.04518 0.33869 0.94332 0.0
H1626 H 0.05968 0.41241 0.85996 0.0
H1627 H 0.07158 0.39005 0.83941 0.0
H1628 H 0.08826 0.40456 0.86608 0.0
H1629 H -0.00069 0.36592 0.91194 0.0
H1630 H 0.00808 0.34048 0.92923 0.0
H1631 H 0.00615 0.34236 0.88973 0.0
C1632 C 0.86939 0.75581 0.05012 0.0
C1633 C 0.85956 0.73841 0.06595 0.0
C1634 C 0.87315 0.77649 0.06336 0.0
C1635 C 0.86686 0.7798 0.09307 0.0
C1636 C 0.85543 0.76283 0.10841 0.0
C1637 C 0.85195 0.74227 0.09466 0.0
C1638 C 0.88537 0.79418 0.04625 0.0
C1639 C 0.84832 0.76578 0.14005 0.0
C1640 C 0.90415 0.81597 0.1397 0.0
C1641 C 0.89182 0.83563 0.14196 0.0
C1642 C 0.89624 0.79787 0.12356 0.0
C1643 C 0.87537 0.79937 0.10941 0.0
C1644 C 0.86287 0.81924 0.1113 0.0
C1645 C 0.87131 0.83725 0.12754 0.0
C1646 C 0.9102 0.77704 0.12189 0.0
C1647 C 0.84052 0.82133 0.09656 0.0
H1648 H 0.87513 0.75296 0.02781 0.0
H1649 H 0.84414 0.72893 0.10688 0.0
H1650 H 0.87733 0.8106 0.04922 0.0
H1651 H 0.90261 0.79556 0.05468 0.0
H1652 H 0.88612 0.79033 0.02234 0.0
H1653 H 0.83683 0.75244 0.14736 0.0
H1654 H 0.86318 0.76551 0.15448 0.0
H1655 H 0.84005 0.78207 0.14317 0.0
H1656 H 0.92008 0.81467 0.15068 0.0
H1657 H 0.86173 0.85243 0.12932 0.0
H1658 H 0.9137 0.77283 0.09857 0.0
H1659 H 0.90098 0.76288 0.13162 0.0
H1660 H 0.92626 0.77879 0.13368 0.0
H1661 H 0.84205 0.81774 0.07268 0.0
H1662 H 0.8332 0.83813 0.09935 0.0
H1663 H 0.82887 0.80891 0.1059 0.0
C1664 C 0.44534 0.6691 0.40831 0.0
C1665 C 0.42383 0.66026 0.40917 0.0
C1666 C 0.46074 0.66201 0.38726 0.0
C1667 C 0.45453 0.64555 0.36661 0.0
C1668 C 0.43293 0.63629 0.36755 0.0
C1669 C 0.41775 0.64383 0.38884 0.0
C1670 C 0.48361 0.67236 0.38697 0.0
C1671 C 0.42587 0.61859 0.34597 0.0
C1672 C 0.49143 0.64715 0.29935 0.0
C1673 C 0.50802 0.63202 0.30738 0.0
C1674 C 0.47287 0.65058 0.31746 0.0
C1675 C 0.47088 0.63846 0.34404 0.0
C1676 C 0.48668 0.62187 0.35098 0.0
C1677 C 0.50514 0.61891 0.33259 0.0
C1678 C 0.45637 0.66842 0.3093 0.0
C1679 C 0.485 0.60842 0.37894 0.0
H1680 H 0.45013 0.68183 0.42395 0.0
H1681 H 0.40111 0.63697 0.38947 0.0
H1682 H 0.49645 0.65934 0.38985 0.0
H1683 H 0.48669 0.68045 0.36539 0.0
H1684 H 0.48575 0.68497 0.4046 0.0
H1685 H 0.40873 0.61258 0.35025 0.0
H1686 H 0.42667 0.62521 0.3232 0.0
H1687 H 0.43742 0.60427 0.34709 0.0
H1688 H 0.49353 0.65722 0.27976 0.0
H1689 H 0.51782 0.607 0.3387 0.0
H1690 H 0.45865 0.68294 0.32405 0.0
H1691 H 0.43912 0.6624 0.31231 0.0
H1692 H 0.45846 0.67406 0.28618 0.0
H1693 H 0.48927 0.61908 0.39805 0.0
H1694 H 0.49644 0.59395 0.37878 0.0
H1695 H 0.46778 0.60237 0.38228 0.0
C1696 C 0.4091 0.19822 0.16145 0.0
C1697 C 0.40034 0.17674 0.16361 0.0
C1698 C 0.40097 0.2133 0.1407 0.0
C1699 C 0.38348 0.20682 0.12175 0.0
C1700 C 0.37431 0.18525 0.12403 0.0
C1701 C 0.38294 0.17036 0.14492 0.0
C1702 C 0.41132 0.23613 0.13887 0.0
C1703 C 0.35551 0.17791 0.10433 0.0
C1704 C 0.35553 0.25719 0.08916 0.0
C1705 C 0.36742 0.25965 0.06282 0.0
C1706 C 0.35919 0.23887 0.10756 0.0
C1707 C 0.37527 0.22284 0.09947 0.0
C1708 C 0.38602 0.22438 0.07182 0.0
C1709 C 0.38188 0.24277 0.05372 0.0
C1710 C 0.34715 0.23763 0.13668 0.0
C1711 C 0.4033 0.20765 0.06243 0.0
H1712 H 0.42259 0.20322 0.1758 0.0
H1713 H 0.37613 0.15375 0.14658 0.0
H1714 H 0.41822 0.23889 0.11651 0.0
H1715 H 0.3985 0.24904 0.14271 0.0
H1716 H 0.42485 0.23848 0.15519 0.0
H1717 H 0.34977 0.16083 0.10952 0.0
H1718 H 0.34127 0.18948 0.10656 0.0
H1719 H 0.36089 0.17843 0.08097 0.0
H1720 H 0.34412 0.27009 0.0961 0.0
H1721 H 0.391 0.24455 0.03326 0.0
H1722 H 0.35873 0.2422 0.15468 0.0
H1723 H 0.34128 0.22048 0.141 0.0
H1724 H 0.33269 0.24908 0.13747 0.0
H1725 H 0.4186 0.21011 0.07565 0.0
H1726 H 0.40767 0.20933 0.03876 0.0
H1727 H 0.3974 0.19048 0.0665 0.0
C1728 C 0.48634 0.62025 0.84607 0.0
C1729 C 0.48151 0.60837 0.82035 0.0
C1730 C 0.50801 0.62129 0.85709 0.0
C1731 C 0.52526 0.60984 0.8423 0.0
C1732 C 0.52039 0.59715 0.81686 0.0
C1733 C 0.49854 0.59674 0.80598 0.0
C1734 C 0.51252 0.63522 0.88412 0.0
C1735 C 0.53829 0.58439 0.8009 0.0
C1736 C 0.58105 0.63582 0.85802 0.0
C1737 C 0.58769 0.62385 0.88297 0.0
C1738 C 0.56145 0.63037 0.84304 0.0
C1739 C 0.54844 0.61229 0.853 0.0
C1740 C 0.55624 0.59884 0.87637 0.0
C1741 C 0.57572 0.60491 0.89129 0.0
C1742 C 0.55367 0.64525 0.81836 0.0
C1743 C 0.54312 0.57909 0.88714 0.0
H1744 H 0.47324 0.6293 0.85723 0.0
H1745 H 0.49482 0.58744 0.78615 0.0
H1746 H 0.52019 0.62489 0.90157 0.0
H1747 H 0.52446 0.64864 0.87864 0.0
H1748 H 0.49719 0.64292 0.89315 0.0
H1749 H 0.53144 0.57373 0.78313 0.0
H1750 H 0.55035 0.59614 0.79099 0.0
H1751 H 0.54761 0.5738 0.8166 0.0
H1752 H 0.59029 0.65044 0.85142 0.0
H1753 H 0.58093 0.59547 0.91041 0.0
H1754 H 0.53937 0.65532 0.82609 0.0
H1755 H 0.54791 0.63528 0.79932 0.0
H1756 H 0.56693 0.65674 0.81078 0.0
H1757 H 0.5286 0.58497 0.90001 0.0
H1758 H 0.55325 0.56811 0.90148 0.0
H1759 H 0.53671 0.56923 0.86834 0.0
C1760 C 0.11698 0.83946 0.64271 0.0
C1761 C 0.09821 0.83465 0.65986 0.0
C1762 C 0.12613 0.82335 0.62386 0.0
C1763 C 0.11613 0.80211 0.62212 0.0
C1764 C 0.0973 0.79719 0.6396 0.0
C1765 C 0.08863 0.81349 0.65828 0.0
C1766 C 0.1463 0.82906 0.60565 0.0
C1767 C 0.08608 0.77475 0.63834 0.0
C1768 C 0.11973 0.76342 0.55691 0.0
C1769 C 0.13298 0.74637 0.56839 0.0
C1770 C 0.11547 0.78266 0.57333 0.0
C1771 C 0.1248 0.78488 0.60179 0.0
C1772 C 0.13969 0.76856 0.6124 0.0
C1773 C 0.14356 0.74943 0.59558 0.0
C1774 C 0.09951 0.7997 0.56123 0.0
C1775 C 0.15016 0.77045 0.64249 0.0
H1776 H 0.12443 0.85581 0.64393 0.0
H1777 H 0.07411 0.80967 0.67147 0.0
H1778 H 0.1598 0.81695 0.60996 0.0
H1779 H 0.14219 0.82792 0.58189 0.0
H1780 H 0.15259 0.84603 0.61035 0.0
H1781 H 0.07165 0.7736 0.65352 0.0
H1782 H 0.08022 0.77139 0.61562 0.0
H1783 H 0.0981 0.76151 0.64418 0.0
H1784 H 0.11165 0.76121 0.53579 0.0
H1785 H 0.15402 0.73638 0.6044 0.0
H1786 H 0.10598 0.81674 0.56467 0.0
H1787 H 0.08346 0.79845 0.57313 0.0
H1788 H 0.09632 0.79724 0.53736 0.0
H1789 H 0.15653 0.78749 0.64628 0.0
H1790 H 0.16401 0.75846 0.64543 0.0
H1791 H 0.13743 0.76706 0.6596 0.0
C1792 C 0.94622 0.33538 0.42447 0.0
C1793 C 0.92513 0.34513 0.42608 0.0
C1794 C 0.9628 0.34433 0.40645 0.0
C1795 C 0.95826 0.36363 0.38973 0.0
C1796 C 0.93716 0.37389 0.39171 0.0
C1797 C 0.92075 0.36443 0.40983 0.0
C1798 C 0.98508 0.33281 0.40488 0.0
C1799 C 0.93186 0.3946 0.3744 0.0
C1800 C 0.01137 0.39057 0.36342 0.0
C1801 C 0.014 0.38049 0.33581 0.0
C1802 C 0.99229 0.38671 0.3804 0.0
C1803 C 0.97561 0.37233 0.36953 0.0
C1804 C 0.97741 0.36357 0.3407 0.0
C1805 C 0.99658 0.36783 0.32412 0.0
C1806 C 0.99081 0.39664 0.41086 0.0
C1807 C 0.95999 0.34815 0.32828 0.0
H1808 H 0.9497 0.32046 0.43699 0.0
H1809 H 0.90447 0.37204 0.41108 0.0
H1810 H 0.98835 0.32727 0.38198 0.0
H1811 H 0.9985 0.34452 0.41106 0.0
H1812 H 0.98599 0.31813 0.41963 0.0
H1813 H 0.91516 0.40131 0.37977 0.0
H1814 H 0.94446 0.40761 0.37884 0.0
H1815 H 0.9325 0.39092 0.35048 0.0
H1816 H 0.02472 0.40055 0.37243 0.0
H1817 H 0.99846 0.36013 0.30268 0.0
H1818 H 0.99416 0.38356 0.42748 0.0
H1819 H 0.97389 0.40318 0.41513 0.0
H1820 H 0.00302 0.41025 0.41406 0.0
H1821 H 0.96092 0.33192 0.33978 0.0
H1822 H 0.96231 0.34524 0.30432 0.0
H1823 H 0.9431 0.35494 0.33199 0.0
C1824 C 0.39149 0.84194 0.3536 0.0
C1825 C 0.41079 0.83775 0.33721 0.0
C1826 C 0.38291 0.82581 0.37288 0.0
C1827 C 0.39397 0.80518 0.37574 0.0
C1828 C 0.41344 0.80095 0.35921 0.0
C1829 C 0.42157 0.81727 0.34015 0.0
C1830 C 0.36207 0.8308 0.39014 0.0
C1831 C 0.42576 0.77916 0.36165 0.0
C1832 C 0.38981 0.7669 0.44138 0.0
C1833 C 0.37738 0.74937 0.42957 0.0
C1834 C 0.39397 0.78611 0.42483 0.0
C1835 C 0.38546 0.78773 0.39586 0.0
C1836 C 0.37149 0.77081 0.38473 0.0
C1837 C 0.36762 0.75178 0.40174 0.0
C1838 C 0.40887 0.80385 0.43752 0.0
C1839 C 0.362 0.77199 0.354 0.0
H1840 H 0.38312 0.85777 0.35135 0.0
H1841 H 0.43652 0.81395 0.32757 0.0
H1842 H 0.34907 0.81836 0.3849 0.0
H1843 H 0.36549 0.82953 0.41408 0.0
H1844 H 0.35544 0.84763 0.38537 0.0
H1845 H 0.4407 0.77858 0.34731 0.0
H1846 H 0.43105 0.77639 0.38476 0.0
H1847 H 0.41464 0.76524 0.35548 0.0
H1848 H 0.39725 0.76517 0.463 0.0
H1849 H 0.35782 0.73835 0.39262 0.0
H1850 H 0.40187 0.82059 0.43342 0.0
H1851 H 0.42532 0.80312 0.42653 0.0
H1852 H 0.41139 0.80172 0.46158 0.0
H1853 H 0.35488 0.78865 0.34966 0.0
H1854 H 0.34891 0.75929 0.35033 0.0
H1855 H 0.37547 0.76922 0.33773 0.0
C1856 C 0.98447 0.62995 0.19046 0.0
C1857 C 0.00104 0.6164 0.17834 0.0
C1858 C 0.96508 0.63481 0.17463 0.0
C1859 C 0.9622 0.62573 0.14614 0.0
C1860 C 0.97822 0.61089 0.13461 0.0
C1861 C 0.99754 0.60647 0.15082 0.0
C1862 C 0.94842 0.65079 0.18761 0.0
C1863 C 0.97561 0.6007 0.10444 0.0
C1864 C 0.90619 0.63146 0.10817 0.0
C1865 C 0.91003 0.64982 0.08991 0.0
C1866 C 0.92302 0.6233 0.12667 0.0
C1867 C 0.94399 0.63394 0.127 0.0
C1868 C 0.9478 0.65263 0.10882 0.0
C1869 C 0.93082 0.66026 0.09042 0.0
C1870 C 0.91848 0.60323 0.14563 0.0
C1871 C 0.96987 0.66459 0.10872 0.0
H1872 H 0.98707 0.63761 0.21179 0.0
H1873 H 0.01024 0.59583 0.14148 0.0
H1874 H 0.949 0.66668 0.17528 0.0
H1875 H 0.93133 0.64411 0.18553 0.0
H1876 H 0.95178 0.65432 0.21121 0.0
H1877 H 0.98799 0.58738 0.1003 0.0
H1878 H 0.9587 0.59367 0.10176 0.0
H1879 H 0.97774 0.61373 0.0874 0.0
H1880 H 0.89014 0.62332 0.10775 0.0
H1881 H 0.93384 0.67453 0.07642 0.0
H1882 H 0.92124 0.60735 0.16915 0.0
H1883 H 0.93022 0.5897 0.13988 0.0
H1884 H 0.90125 0.59697 0.14298 0.0
H1885 H 0.97392 0.67042 0.13126 0.0
H1886 H 0.96997 0.67911 0.09366 0.0
H1887 H 0.98325 0.65304 0.10184 0.0
C1888 C 0.12998 0.26197 0.89951 0.0
C1889 C 0.11808 0.26332 0.92599 0.0
C1890 C 0.1271 0.24393 0.88037 0.0
C1891 C 0.11179 0.22701 0.88783 0.0
C1892 C 0.1006 0.22772 0.91524 0.0
C1893 C 0.10396 0.24586 0.93408 0.0
C1894 C 0.1395 0.24361 0.85147 0.0
C1895 C 0.08407 0.21004 0.9239 0.0
C1896 C 0.0814 0.19881 0.82528 0.0
C1897 C 0.09187 0.17805 0.82414 0.0
C1898 C 0.0879 0.21488 0.84578 0.0
C1899 C 0.10542 0.21014 0.86555 0.0
C1900 C 0.11637 0.18936 0.86422 0.0
C1901 C 0.10939 0.17347 0.84352 0.0
C1902 C 0.07575 0.23683 0.84656 0.0
C1903 C 0.13522 0.18385 0.88484 0.0
H1904 H 0.14107 0.27535 0.8933 0.0
H1905 H 0.09479 0.24681 0.95459 0.0
H1906 H 0.14704 0.22706 0.84761 0.0
H1907 H 0.12774 0.24681 0.83316 0.0
H1908 H 0.15281 0.25638 0.85067 0.0
H1909 H 0.07856 0.21177 0.94714 0.0
H1910 H 0.06925 0.21117 0.90945 0.0
H1911 H 0.09132 0.19327 0.92084 0.0
H1912 H 0.06783 0.20245 0.81037 0.0
H1913 H 0.11752 0.15742 0.84268 0.0
H1914 H 0.08762 0.25068 0.84314 0.0
H1915 H 0.06798 0.23926 0.86848 0.0
H1916 H 0.06259 0.23792 0.82949 0.0
H1917 H 0.14847 0.19658 0.88301 0.0
H1918 H 0.14255 0.16729 0.88021 0.0
H1919 H 0.12922 0.1841 0.90793 0.0
C1920 C 0.55982 0.32809 0.58248 0.0
C1921 C 0.57974 0.33955 0.57769 0.0
C1922 C 0.54299 0.33717 0.59997 0.0
C1923 C 0.54609 0.35831 0.61292 0.0
C1924 C 0.56625 0.36994 0.60842 0.0
C1925 C 0.58292 0.36037 0.59085 0.0
C1926 C 0.52178 0.32416 0.60437 0.0
C1927 C 0.57005 0.39254 0.62187 0.0
C1928 C 0.49125 0.385 0.6325 0.0
C1929 C 0.48884 0.3785 0.66195 0.0
C1930 C 0.51064 0.37997 0.61674 0.0
C1931 C 0.52791 0.36806 0.6308 0.0
C1932 C 0.52618 0.36283 0.66109 0.0
C1933 C 0.50664 0.36815 0.67634 0.0
C1934 C 0.51196 0.38601 0.58452 0.0
C1935 C 0.54425 0.35017 0.67686 0.0
H1936 H 0.55731 0.31196 0.57244 0.0
H1937 H 0.59831 0.36928 0.58715 0.0
H1938 H 0.5188 0.32141 0.6282 0.0
H1939 H 0.50746 0.33373 0.5957 0.0
H1940 H 0.52219 0.30777 0.59316 0.0
H1941 H 0.58685 0.39915 0.61687 0.0
H1942 H 0.55748 0.40441 0.61345 0.0
H1943 H 0.56797 0.3917 0.64612 0.0
H1944 H 0.4776 0.39319 0.62135 0.0
H1945 H 0.50492 0.36323 0.69919 0.0
H1946 H 0.51023 0.37077 0.57099 0.0
H1947 H 0.52833 0.39347 0.57928 0.0
H1948 H 0.49869 0.39785 0.578 0.0
H1949 H 0.54436 0.33271 0.66906 0.0
H1950 H 0.54179 0.35014 0.70111 0.0
H1951 H 0.56078 0.35735 0.67188 0.0
C1952 C 0.09639 0.45631 0.30045 0.0
C1953 C 0.10028 0.43904 0.28046 0.0
C1954 C 0.09682 0.47851 0.29113 0.0
C1955 C 0.10114 0.48338 0.26115 0.0
C1956 C 0.10715 0.46612 0.2416 0.0
C1957 C 0.1067 0.44411 0.25154 0.0
C1958 C 0.09071 0.49654 0.31276 0.0
C1959 C 0.112 0.47062 0.20953 0.0
C1960 C 0.06781 0.53148 0.23114 0.0
C1961 C 0.08362 0.5485 0.23039 0.0
C1962 C 0.07356 0.51008 0.24032 0.0
C1963 C 0.09563 0.50567 0.24934 0.0
C1964 C 0.11187 0.52262 0.24782 0.0
C1965 C 0.10567 0.54389 0.23817 0.0
C1966 C 0.05582 0.49234 0.2411 0.0
C1967 C 0.13551 0.51852 0.25742 0.0
H1968 H 0.09162 0.45246 0.3229 0.0
H1969 H 0.10998 0.4308 0.23606 0.0
H1970 H 0.10201 0.51097 0.31045 0.0
H1971 H 0.0736 0.50241 0.30809 0.0
H1972 H 0.09132 0.49056 0.33589 0.0
H1973 H 0.12004 0.4562 0.19863 0.0
H1974 H 0.09622 0.47424 0.19789 0.0
H1975 H 0.1229 0.48535 0.20703 0.0
H1976 H 0.05078 0.535 0.22497 0.0
H1977 H 0.11789 0.5571 0.23778 0.0
H1978 H 0.05311 0.48681 0.26412 0.0
H1979 H 0.06124 0.47764 0.22823 0.0
H1980 H 0.03974 0.49826 0.23206 0.0
H1981 H 0.13594 0.51568 0.28155 0.0
H1982 H 0.14657 0.53273 0.25215 0.0
H1983 H 0.1422 0.50336 0.24674 0.0
C1984 C 0.79887 0.84253 0.52205 0.0
C1985 C 0.81017 0.82713 0.5044 0.0
C1986 C 0.77576 0.84501 0.51987 0.0
C1987 C 0.76382 0.83174 0.49961 0.0
C1988 C 0.77526 0.81665 0.48116 0.0
C1989 C 0.79832 0.81454 0.48378 0.0
C1990 C 0.76405 0.86131 0.53979 0.0
C1991 C 0.76308 0.80221 0.45927 0.0
C1992 C 0.70387 0.81637 0.51341 0.0
C1993 C 0.69282 0.82968 0.49279 0.0
C1994 C 0.72695 0.81755 0.51667 0.0
C1995 C 0.73922 0.83242 0.49886 0.0
C1996 C 0.72808 0.84655 0.47884 0.0
C1997 C 0.70493 0.84499 0.47601 0.0
C1998 C 0.73826 0.80223 0.5383 0.0
C1999 C 0.74068 0.86265 0.4596 0.0
H2000 H 0.80802 0.85235 0.53795 0.0
H2001 H 0.80701 0.80269 0.46999 0.0
H2002 H 0.75326 0.87249 0.52668 0.0
H2003 H 0.75316 0.85221 0.55537 0.0
H2004 H 0.77589 0.87158 0.5527 0.0
H2005 H 0.77458 0.79218 0.44551 0.0
H2006 H 0.75176 0.79075 0.47114 0.0
H2007 H 0.7527 0.8126 0.44455 0.0
H2008 H 0.69453 0.80459 0.52656 0.0
H2009 H 0.69641 0.85537 0.46014 0.0
H2010 H 0.74927 0.81184 0.55317 0.0
H2011 H 0.74885 0.79022 0.52621 0.0
H2012 H 0.72619 0.79279 0.55192 0.0
H2013 H 0.75213 0.87285 0.47312 0.0
H2014 H 0.72942 0.87389 0.44723 0.0
H2015 H 0.75097 0.85331 0.44355 0.0
C2016 C 0.38211 0.44673 0.72796 0.0
C2017 C 0.40227 0.44369 0.71302 0.0
C2018 C 0.37634 0.46759 0.73947 0.0
C2019 C 0.39106 0.48567 0.73571 0.0
C2020 C 0.41071 0.48294 0.71894 0.0
C2021 C 0.41611 0.46194 0.7079 0.0
C2022 C 0.35522 0.4699 0.75711 0.0
C2023 C 0.4267 0.50192 0.714 0.0
C2024 C 0.37867 0.54635 0.7477 0.0
C2025 C 0.39088 0.55041 0.77344 0.0
C2026 C 0.37676 0.5248 0.73632 0.0
C2027 C 0.38727 0.50704 0.75115 0.0
C2028 C 0.39756 0.51076 0.77875 0.0
C2029 C 0.39927 0.53248 0.78958 0.0
C2030 C 0.36538 0.52145 0.70706 0.0
C2031 C 0.40863 0.49216 0.79549 0.0
H2032 H 0.37139 0.43259 0.73201 0.0
H2033 H 0.43163 0.45964 0.69615 0.0
H2034 H 0.35938 0.47086 0.78088 0.0
H2035 H 0.34633 0.48541 0.75124 0.0
H2036 H 0.34387 0.45559 0.75372 0.0
H2037 H 0.44036 0.49741 0.69867 0.0
H2038 H 0.41781 0.51651 0.70492 0.0
H2039 H 0.43412 0.507 0.73532 0.0
H2040 H 0.37193 0.56016 0.73529 0.0
H2041 H 0.4085 0.53553 0.80967 0.0
H2042 H 0.3553 0.50603 0.70713 0.0
H2043 H 0.37811 0.51971 0.68954 0.0
H2044 H 0.35447 0.53568 0.70135 0.0
H2045 H 0.39771 0.47735 0.79636 0.0
H2046 H 0.41294 0.49711 0.81835 0.0
H2047 H 0.42413 0.48726 0.78397 0.0
C2048 C 0.79116 0.15046 0.95734 0.0
C2049 C 0.80878 0.14648 0.97674 0.0
C2050 C 0.76911 0.14891 0.96696 0.0
C2051 C 0.7647 0.14367 0.99679 0.0
C2052 C 0.78236 0.13747 0.01563 0.0
C2053 C 0.80427 0.13878 0.00526 0.0
C2054 C 0.75069 0.15505 0.94595 0.0
C2055 C 0.77837 0.13178 0.04756 0.0
C2056 C 0.71632 0.17657 0.02684 0.0
C2057 C 0.69927 0.1608 0.02672 0.0
C2058 C 0.73794 0.17082 0.0185 0.0
C2059 C 0.7425 0.14881 0.00929 0.0
C2060 C 0.72553 0.13257 0.01018 0.0
C2061 C 0.70405 0.13875 0.01914 0.0
C2062 C 0.75568 0.18856 0.01845 0.0
C2063 C 0.72973 0.10903 0.00025 0.0
H2064 H 0.79463 0.15616 0.93516 0.0
H2065 H 0.81788 0.13564 0.02032 0.0
H2066 H 0.73648 0.14345 0.94822 0.0
H2067 H 0.74459 0.17197 0.95125 0.0
H2068 H 0.75639 0.15492 0.92268 0.0
H2069 H 0.79292 0.1233 0.05753 0.0
H2070 H 0.7752 0.14729 0.06008 0.0
H2071 H 0.76356 0.12101 0.05006 0.0
H2072 H 0.71266 0.19359 0.03292 0.0
H2073 H 0.69081 0.12656 0.0189 0.0
H2074 H 0.76098 0.192 0.99549 0.0
H2075 H 0.7705 0.18279 0.03075 0.0
H2076 H 0.74981 0.20434 0.02845 0.0
H2077 H 0.73178 0.10873 0.97598 0.0
H2078 H 0.71583 0.09777 0.00623 0.0
H2079 H 0.7453 0.10252 0.01001 0.0
C2080 C 0.89843 0.45877 0.78906 0.0
C2081 C 0.90489 0.4431 0.76794 0.0
C2082 C 0.89725 0.4814 0.78185 0.0
C2083 C 0.90276 0.48833 0.75295 0.0
C2084 C 0.90755 0.47234 0.73104 0.0
C2085 C 0.90854 0.44989 0.73882 0.0
C2086 C 0.89179 0.49799 0.80569 0.0
C2087 C 0.91348 0.47903 0.69996 0.0
C2088 C 0.89527 0.548 0.72764 0.0
C2089 C 0.91664 0.55652 0.73229 0.0
C2090 C 0.89021 0.5259 0.73493 0.0
C2091 C 0.90703 0.51211 0.74672 0.0
C2092 C 0.9286 0.52072 0.75146 0.0
C2093 C 0.9331 0.54284 0.74433 0.0
C2094 C 0.86699 0.51727 0.7299 0.0
C2095 C 0.94709 0.50647 0.76369 0.0
H2096 H 0.89542 0.45353 0.81154 0.0
H2097 H 0.91325 0.43777 0.72231 0.0
H2098 H 0.9072 0.50661 0.81264 0.0
H2099 H 0.88015 0.51081 0.79736 0.0
H2100 H 0.88432 0.4899 0.82532 0.0
H2101 H 0.91382 0.46459 0.68474 0.0
H2102 H 0.9015 0.49142 0.69139 0.0
H2103 H 0.93015 0.48689 0.69985 0.0
H2104 H 0.88247 0.55863 0.71854 0.0
H2105 H 0.94965 0.54937 0.74794 0.0
H2106 H 0.8602 0.51033 0.75066 0.0
H2107 H 0.86734 0.50359 0.71356 0.0
H2108 H 0.85556 0.5304 0.72181 0.0
H2109 H 0.94219 0.4996 0.7854 0.0
H2110 H 0.96285 0.51584 0.76641 0.0
H2111 H 0.95021 0.49221 0.74877 0.0
C2112 C 0.28598 0.15025 0.54417 0.0
C2113 C 0.30482 0.13848 0.53505 0.0
C2114 C 0.26519 0.14606 0.53156 0.0
C2115 C 0.26325 0.12968 0.50932 0.0
C2116 C 0.28179 0.11635 0.50201 0.0
C2117 C 0.30245 0.12093 0.515 0.0
C2118 C 0.24574 0.16048 0.54027 0.0
C2119 C 0.28029 0.09848 0.47881 0.0
C2120 C 0.2036 0.11999 0.48648 0.0
C2121 C 0.20133 0.13587 0.46409 0.0
C2122 C 0.22421 0.11639 0.50011 0.0
C2123 C 0.24281 0.12904 0.4911 0.0
C2124 C 0.24096 0.14363 0.46677 0.0
C2125 C 0.22022 0.14685 0.45354 0.0
C2126 C 0.22562 0.10039 0.5256 0.0
C2127 C 0.26047 0.15725 0.45622 0.0
H2128 H 0.2877 0.16368 0.55991 0.0
H2129 H 0.31697 0.11168 0.50799 0.0
H2130 H 0.24149 0.17176 0.52179 0.0
H2131 H 0.23091 0.15014 0.5449 0.0
H2132 H 0.24939 0.17075 0.56001 0.0
H2133 H 0.29453 0.08679 0.48003 0.0
H2134 H 0.26461 0.08894 0.48102 0.0
H2135 H 0.28031 0.10628 0.45668 0.0
H2136 H 0.18904 0.11134 0.4946 0.0
H2137 H 0.21857 0.15898 0.43603 0.0
H2138 H 0.22562 0.10985 0.54657 0.0
H2139 H 0.24125 0.09067 0.52471 0.0
H2140 H 0.21133 0.08873 0.52594 0.0
H2141 H 0.26478 0.16983 0.47316 0.0
H2142 H 0.25687 0.16602 0.43524 0.0
H2143 H 0.27525 0.14655 0.45297 0.0
C2144 C 0.59752 0.55521 0.2621 0.0
C2145 C 0.58121 0.56747 0.24728 0.0
C2146 C 0.59982 0.5323 0.2572 0.0
C2147 C 0.58543 0.52156 0.23707 0.0
C2148 C 0.56961 0.53408 0.22115 0.0
C2149 C 0.56769 0.55688 0.22646 0.0
C2150 C 0.61696 0.51945 0.27443 0.0
C2151 C 0.55395 0.52324 0.19949 0.0
C2152 C 0.59454 0.4631 0.2083 0.0
C2153 C 0.5795 0.45111 0.22568 0.0
C2154 C 0.59754 0.486 0.21263 0.0
C2155 C 0.58513 0.497 0.23475 0.0
C2156 C 0.57063 0.48475 0.25311 0.0
C2157 C 0.56802 0.46196 0.24835 0.0
C2158 C 0.61325 0.49856 0.1928 0.0
C2159 C 0.55708 0.49587 0.27693 0.0
H2160 H 0.60809 0.56339 0.27808 0.0
H2161 H 0.55519 0.56633 0.21472 0.0
H2162 H 0.6085 0.50855 0.29063 0.0
H2163 H 0.62673 0.50859 0.25956 0.0
H2164 H 0.62853 0.53056 0.28651 0.0
H2165 H 0.54381 0.53558 0.18726 0.0
H2166 H 0.56339 0.51312 0.18336 0.0
H2167 H 0.54256 0.51188 0.21139 0.0
H2168 H 0.60354 0.45472 0.19086 0.0
H2169 H 0.5565 0.45273 0.26202 0.0
H2170 H 0.62443 0.50927 0.20602 0.0
H2171 H 0.60361 0.50959 0.17799 0.0
H2172 H 0.62351 0.48726 0.17905 0.0
H2173 H 0.56798 0.50582 0.29152 0.0
H2174 H 0.54781 0.48372 0.29063 0.0
H2175 H 0.54496 0.50744 0.26677 0.0
C2176 C 0.19983 0.84471 0.02919 0.0
C2177 C 0.18875 0.82678 0.0161 0.0
C2178 C 0.2226 0.84816 0.02421 0.0
C2179 C 0.23443 0.8332 0.00597 0.0
C2180 C 0.22314 0.81544 0.99212 0.0
C2181 C 0.20044 0.81251 0.99729 0.0
C2182 C 0.23412 0.86739 0.03905 0.0
C2183 C 0.23519 0.79902 0.97266 0.0
C2184 C 0.29157 0.84309 0.97356 0.0
C2185 C 0.30466 0.8299 0.99211 0.0
C2186 C 0.26873 0.84564 0.9789 0.0
C2187 C 0.25893 0.83462 0.0032 0.0
C2188 C 0.27237 0.8224 0.02291 0.0
C2189 C 0.29508 0.82024 0.01715 0.0
C2190 C 0.25492 0.85906 0.95765 0.0
C2191 C 0.26255 0.81033 0.04902 0.0
H2192 H 0.19078 0.85588 0.04356 0.0
H2193 H 0.19193 0.79869 0.98697 0.0
H2194 H 0.24582 0.86104 0.05591 0.0
H2195 H 0.24402 0.87694 0.02279 0.0
H2196 H 0.22218 0.87881 0.04995 0.0
H2197 H 0.22374 0.78679 0.96242 0.0
H2198 H 0.24422 0.80785 0.9549 0.0
H2199 H 0.24769 0.78983 0.98583 0.0
H2200 H 0.29898 0.85073 0.95431 0.0
H2201 H 0.30518 0.81022 0.03176 0.0
H2202 H 0.24336 0.87014 0.96974 0.0
H2203 H 0.24471 0.84769 0.94401 0.0
H2204 H 0.26538 0.86928 0.94274 0.0
H2205 H 0.25181 0.82162 0.06203 0.0
H2206 H 0.27553 0.80341 0.06377 0.0
H2207 H 0.25198 0.79645 0.04114 0.0
C2208 C 0.6162 0.94652 0.77245 0.0
C2209 C 0.59959 0.94257 0.79345 0.0
C2210 C 0.6197 0.96796 0.76125 0.0
C2211 C 0.60655 0.98574 0.7718 0.0
C2212 C 0.59128 0.98208 0.79505 0.0
C2213 C 0.5878 0.96045 0.80535 0.0
C2214 C 0.63603 0.97116 0.73638 0.0
C2215 C 0.57733 0.00071 0.80745 0.0
C2216 C 0.61631 0.04629 0.75279 0.0
C2217 C 0.59918 0.04995 0.73249 0.0
C2218 C 0.61982 0.0251 0.76485 0.0
C2219 C 0.60608 0.00727 0.75591 0.0
C2220 C 0.58991 0.01063 0.73371 0.0
C2221 C 0.58651 0.032 0.72249 0.0
C2222 C 0.6371 0.0222 0.78858 0.0
C2223 C 0.57524 0.99194 0.72306 0.0
H2224 H 0.62528 0.93265 0.76313 0.0
H2225 H 0.57508 0.95739 0.82177 0.0
H2226 H 0.62679 0.97283 0.71536 0.0
H2227 H 0.64582 0.98657 0.73949 0.0
H2228 H 0.64762 0.95689 0.73435 0.0
H2229 H 0.56868 0.99578 0.82805 0.0
H2230 H 0.58777 0.01548 0.81205 0.0
H2231 H 0.56462 0.00567 0.79102 0.0
H2232 H 0.62606 0.06022 0.76064 0.0
H2233 H 0.57337 0.03482 0.7066 0.0
H2234 H 0.6468 0.00678 0.78503 0.0
H2235 H 0.62871 0.02068 0.81025 0.0
H2236 H 0.64872 0.03651 0.78956 0.0
H2237 H 0.58539 0.97717 0.7174 0.0
H2238 H 0.56531 0.99673 0.70346 0.0
H2239 H 0.56363 0.98701 0.74089 0.0
C2240 C 0.29238 0.32357 0.98188 0.0
C2241 C 0.30298 0.33401 0.00559 0.0
C2242 C 0.2694 0.32534 0.97799 0.0
C2243 C 0.25674 0.33782 -0.00164 0.0
C2244 C 0.26746 0.34922 0.02161 0.0
C2245 C 0.29054 0.34719 0.02495 0.0
C2246 C 0.25857 0.31299 0.95285 0.0
C2247 C 0.25445 0.36272 0.04369 0.0
C2248 C 0.19732 0.3501 0.97594 0.0
C2249 C 0.186 0.33251 0.98947 0.0
C2250 C 0.22035 0.35256 0.97941 0.0
C2251 C 0.23217 0.33706 0.99681 0.0
C2252 C 0.22067 0.31971 0.01125 0.0
C2253 C 0.19772 0.31764 0.00738 0.0
C2254 C 0.23212 0.37128 0.96375 0.0
C2255 C 0.23271 0.30287 0.03003 0.0
H2256 H 0.30198 0.31351 0.9667 0.0
H2257 H 0.29872 0.35536 0.04325 0.0
H2258 H 0.24795 0.29949 0.96171 0.0
H2259 H 0.24766 0.3243 0.94011 0.0
H2260 H 0.27094 0.30555 0.9376 0.0
H2261 H 0.26544 0.37243 0.05852 0.0
H2262 H 0.24303 0.3743 0.03225 0.0
H2263 H 0.2441 0.35148 0.05735 0.0
H2264 H 0.18827 0.36167 0.96217 0.0
H2265 H 0.189 0.3041 0.01804 0.0
H2266 H 0.24327 0.36438 0.94658 0.0
H2267 H 0.24266 0.38068 0.97944 0.0
H2268 H 0.22033 0.38296 0.95311 0.0
H2269 H 0.24432 0.29312 0.01614 0.0
H2270 H 0.22114 0.29118 0.0411 0.0
H2271 H 0.24275 0.31139 0.0471 0.0
C2272 C 0.88189 0.05363 0.25008 0.0
C2273 C 0.89971 0.05601 0.2697 0.0
C2274 C 0.87632 0.03271 0.23858 0.0
C2275 C 0.88897 0.01393 0.24688 0.0
C2276 C 0.90567 0.01603 0.26865 0.0
C2277 C 0.9108 0.03707 0.27984 0.0
C2278 C 0.85808 0.03104 0.21593 0.0
C2279 C 0.91942 0.99638 0.27837 0.0
C2280 C 0.87702 0.95378 0.22888 0.0
C2281 C 0.89264 0.94998 0.2065 0.0
C2282 C 0.87416 0.97509 0.24084 0.0
C2283 C 0.88728 0.99283 0.23013 0.0
C2284 C 0.90153 0.98941 0.20573 0.0
C2285 C 0.90403 0.968 0.19419 0.0
C2286 C 0.85848 0.97817 0.26645 0.0
C2287 C 0.91564 0.00795 0.1934 0.0
H2288 H 0.87316 0.06823 0.24232 0.0
H2289 H 0.92442 0.0388 0.29527 0.0
H2290 H 0.86556 0.02999 0.19364 0.0
H2291 H 0.848 0.01583 0.21935 0.0
H2292 H 0.84693 0.04573 0.21655 0.0
H2293 H 0.93018 0.00039 0.29751 0.0
H2294 H 0.90854 0.98223 0.28438 0.0
H2295 H 0.93018 0.99087 0.2599 0.0
H2296 H 0.86805 0.93991 0.23835 0.0
H2297 H 0.91593 0.96516 0.17666 0.0
H2298 H 0.84936 0.99412 0.26461 0.0
H2299 H 0.86814 0.97864 0.28723 0.0
H2300 H 0.84628 0.96439 0.26798 0.0
H2301 H 0.90539 0.02293 0.18932 0.0
H2302 H 0.92397 0.00315 0.17251 0.0
H2303 H 0.92861 0.01253 0.20967 0.0
C2304 C 0.30146 0.68764 0.50726 0.0
C2305 C 0.31275 0.67374 0.48756 0.0
C2306 C 0.27877 0.68486 0.5127 0.0
C2307 C 0.26708 0.6677 0.49812 0.0
C2308 C 0.27854 0.65304 0.47905 0.0
C2309 C 0.30132 0.65628 0.47391 0.0
C2310 C 0.26712 0.70088 0.53315 0.0
C2311 C 0.2666 0.63448 0.46332 0.0
C2312 C 0.20972 0.65674 0.52939 0.0
C2313 C 0.19665 0.67036 0.51136 0.0
C2314 C 0.23265 0.65468 0.52442 0.0
C2315 C 0.24258 0.6666 0.50098 0.0
C2316 C 0.22923 0.6795 0.48191 0.0
C2317 C 0.20643 0.6812 0.48733 0.0
C2318 C 0.24638 0.64063 0.54504 0.0
C2319 C 0.23919 0.69246 0.45667 0.0
H2320 H 0.31027 0.70107 0.51803 0.0
H2321 H 0.31005 0.64541 0.4588 0.0
H2322 H 0.25488 0.71084 0.52054 0.0
H2323 H 0.25783 0.69167 0.55034 0.0
H2324 H 0.27888 0.71243 0.54413 0.0
H2325 H 0.27827 0.62315 0.45176 0.0
H2326 H 0.25657 0.62466 0.47914 0.0
H2327 H 0.25497 0.64155 0.44688 0.0
H2328 H 0.20216 0.64822 0.54788 0.0
H2329 H 0.19635 0.69159 0.47315 0.0
H2330 H 0.25692 0.65154 0.5589 0.0
H2331 H 0.25765 0.6296 0.53239 0.0
H2332 H 0.23588 0.63028 0.55975 0.0
H2333 H 0.25004 0.7058 0.46547 0.0
H2334 H 0.22631 0.7002 0.44249 0.0
H2335 H 0.2497 0.68151 0.44283 0.0
C2336 C 0.43306 0.05541 0.25998 0.0
C2337 C 0.41926 0.0661 0.23961 0.0
C2338 C 0.43131 0.03257 0.26497 0.0
C2339 C 0.41531 0.02013 0.24923 0.0
C2340 C 0.4007 0.03094 0.22948 0.0
C2341 C 0.40288 0.05388 0.22483 0.0
C2342 C 0.44724 0.02163 0.28617 0.0
C2343 C 0.38335 0.01816 0.21251 0.0
C2344 C 0.43281 0.96058 0.23833 0.0
C2345 C 0.4218 0.94995 0.26157 0.0
C2346 C 0.42986 0.98326 0.23309 0.0
C2347 C 0.41552 0.9956 0.25158 0.0
C2348 C 0.40344 0.98475 0.27413 0.0
C2349 C 0.40674 0.96196 0.2789 0.0
C2350 C 0.44302 0.99422 0.20878 0.0
C2351 C 0.3879 0.9974 0.29411 0.0
H2352 H 0.44564 0.06482 0.27163 0.0
H2353 H 0.39209 0.06215 0.2092 0.0
H2354 H 0.43799 0.01163 0.30261 0.0
H2355 H 0.45832 0.01012 0.27397 0.0
H2356 H 0.45771 0.03389 0.29806 0.0
H2357 H 0.37174 0.02931 0.20059 0.0
H2358 H 0.3916 0.00718 0.19622 0.0
H2359 H 0.37364 0.00738 0.22756 0.0
H2360 H 0.4443 0.95129 0.22467 0.0
H2361 H 0.3981 0.95373 0.29677 0.0
H2362 H 0.45543 0.0057 0.21851 0.0
H2363 H 0.43194 0.00424 0.19452 0.0
H2364 H 0.45193 0.98196 0.19482 0.0
H2365 H 0.39769 0.00834 0.30887 0.0
H2366 H 0.37764 0.98616 0.30792 0.0
H2367 H 0.37672 0.00821 0.28102 0.0
C2368 C 0.79708 0.62699 0.00313 0.0
C2369 C 0.79917 0.64731 0.01795 0.0
C2370 C 0.77659 0.62034 0.99127 0.0
C2371 C 0.75791 0.63438 0.99443 0.0
C2372 C 0.7597 0.65428 0.01088 0.0
C2373 C 0.78033 0.66051 0.0224 0.0
C2374 C 0.77527 0.59895 0.97405 0.0
C2375 C 0.74008 0.6696 0.01509 0.0
C2376 C 0.7113 0.63974 0.93954 0.0
C2377 C 0.69355 0.63087 0.95561 0.0
C2378 C 0.73296 0.63919 0.95082 0.0
C2379 C 0.73682 0.62954 0.97879 0.0
C2380 C 0.71934 0.61853 0.99363 0.0
C2381 C 0.69784 0.61932 0.98182 0.0
C2382 C 0.75125 0.65081 0.93409 0.0
C2383 C 0.72285 0.60777 0.02327 0.0
H2384 H 0.81165 0.61674 -0.00037 0.0
H2385 H 0.78186 0.67616 0.03402 0.0
H2386 H 0.76018 0.58943 0.98019 0.0
H2387 H 0.77407 0.60277 0.95021 0.0
H2388 H 0.79009 0.58831 0.97763 0.0
H2389 H 0.74393 0.68368 0.03004 0.0
H2390 H 0.73488 0.67644 0.99347 0.0
H2391 H 0.72576 0.66031 0.02426 0.0
H2392 H 0.70809 0.64849 0.91912 0.0
H2393 H 0.68418 0.61222 0.9942 0.0
H2394 H 0.76652 0.64052 0.93373 0.0
H2395 H 0.75538 0.66665 0.94531 0.0
H2396 H 0.74635 0.6546 0.91105 0.0
H2397 H 0.73865 0.59831 0.02371 0.0
H2398 H 0.709 0.59641 0.0291 0.0
H2399 H 0.72393 0.62085 0.04043 0.0
C2400 C 0.06948 0.05347 0.72792 0.0
C2401 C 0.0815 0.06447 0.74993 0.0
C2402 C 0.07211 0.03068 0.72321 0.0
C2403 C 0.08715 0.0186 0.74096 0.0
C2404 C 0.10019 0.02979 0.76223 0.0
C2405 C 0.09719 0.05269 0.76651 0.0
C2406 C 0.0579 0.01936 0.70026 0.0
C2407 C 0.1165 0.01742 0.78138 0.0
C2408 C 0.06912 0.95918 0.7516 0.0
C2409 C 0.08174 0.94814 0.73021 0.0
C2410 C 0.07163 0.98197 0.75637 0.0
C2411 C 0.08715 0.99402 0.7393 0.0
C2412 C 0.10073 0.9828 0.71864 0.0
C2413 C 0.09785 0.95989 0.7143 0.0
C2414 C 0.05683 0.99333 0.77866 0.0
C2415 C 0.11754 0.99514 0.7002 0.0
H2416 H 0.0575 0.06256 0.71482 0.0
H2417 H 0.10662 0.06121 0.78341 0.0
H2418 H 0.06835 0.0091 0.68544 0.0
H2419 H 0.04593 0.00806 0.71125 0.0
H2420 H 0.04841 0.03141 0.68669 0.0
H2421 H 0.1274 0.02886 0.79399 0.0
H2422 H 0.10731 0.00684 0.79724 0.0
H2423 H 0.12704 0.00629 0.76782 0.0
H2424 H 0.0568 0.9501 0.76419 0.0
H2425 H 0.10773 0.95135 0.69787 0.0
H2426 H 0.0452 0.00467 0.76714 0.0
H2427 H 0.0669 0.00354 0.79396 0.0
H2428 H 0.04694 0.9813 0.79177 0.0
H2429 H 0.10878 0.00576 0.68398 0.0
H2430 H 0.12873 0.98368 0.68805 0.0
H2431 H 0.12776 0.00624 0.71422 0.0
C2432 C 0.70487 0.34131 0.52552 0.0
C2433 C 0.69284 0.32759 0.50638 0.0
C2434 C 0.72782 0.34432 0.52175 0.0
C2435 C 0.73882 0.33326 0.4984 0.0
C2436 C 0.72647 0.32044 0.47808 0.0
C2437 C 0.70362 0.31778 0.48232 0.0
C2438 C 0.74046 0.35829 0.54365 0.0
C2439 C 0.73759 0.30837 0.4529 0.0
C2440 C 0.79846 0.34454 0.47584 0.0
C2441 C 0.80942 0.32682 0.48956 0.0
C2442 C 0.7755 0.34759 0.47957 0.0
C2443 C 0.7634 0.33249 0.49728 0.0
C2444 C 0.7746 0.3151 0.51203 0.0
C2445 C 0.79746 0.31251 0.50801 0.0
C2446 C 0.76407 0.36642 0.46375 0.0
C2447 C 0.76229 0.2986 0.53108 0.0
H2448 H 0.69653 0.34907 0.544 0.0
H2449 H 0.69433 0.30736 0.46725 0.0
H2450 H 0.75046 0.34734 0.55812 0.0
H2451 H 0.75216 0.36958 0.53215 0.0
H2452 H 0.72919 0.36836 0.5577 0.0
H2453 H 0.72537 0.30091 0.43747 0.0
H2454 H 0.74847 0.31983 0.44037 0.0
H2455 H 0.74825 0.2949 0.46174 0.0
H2456 H 0.80771 0.35573 0.46173 0.0
H2457 H 0.8059 0.29888 0.51887 0.0
H2458 H 0.75313 0.37568 0.47911 0.0
H2459 H 0.75339 0.35965 0.446 0.0
H2460 H 0.77612 0.3782 0.45378 0.0
H2461 H 0.75228 0.30741 0.54794 0.0
H2462 H 0.77368 0.2869 0.54244 0.0
H2463 H 0.75063 0.28883 0.5173 0.0
loop_
_geom_bond_atom_site_label_1
_geom_bond_atom_site_label_2
_geom_bond_distance
_geom_bond_site_symmetry_2
_ccdc_geom_bond_type
In0 O1 2.294 . S
In0 O2 2.326 . S
In0 O6 2.266 . S
In0 O7 2.326 . S
In0 O8 2.266 . S
In0 O9 2.326 . S
In0 O11 2.294 . S
In0 O12 2.326 . S
O1 In0 2.294 . S
O1 C10 1.240 . S
O2 In0 2.326 . S
O2 C10 1.252 . S
C3 O6 1.252 . S
C3 O7 1.260 . S
C4 O11 1.240 . S
C4 O12 1.252 . S
C5 O8 1.252 . S
C5 O9 1.260 . S
O6 In0 2.266 . S
O6 C3 1.252 . S
O7 In0 2.326 . S
O7 C3 1.260 . S
O8 In0 2.266 . S
O8 C5 1.252 . S
O9 In0 2.326 . S
O9 C5 1.260 . S
C10 O1 1.240 . S
C10 O2 1.252 . S
O11 In0 2.294 . S
O11 C4 1.240 . S
O12 In0 2.326 . S
O12 C4 1.252 . S
In13 O14 2.294 . S
In13 O15 2.326 . S
In13 O19 2.266 . S
In13 O20 2.326 . S
In13 O21 2.266 . S
In13 O22 2.326 . S
In13 O24 2.294 . S
In13 O25 2.326 . S
O14 In13 2.294 . S
O14 C23 1.240 . S
O15 In13 2.326 . S
O15 C23 1.252 . S
C16 O19 1.252 . S
C16 O20 1.260 . S
C17 O24 1.240 . S
C17 O25 1.252 . S
C18 O21 1.252 . S
C18 O22 1.260 . S
O19 In13 2.266 . S
O19 C16 1.252 . S
O20 In13 2.326 . S
O20 C16 1.260 . S
O21 In13 2.266 . S
O21 C18 1.252 . S
O22 In13 2.326 . S
O22 C18 1.260 . S
C23 O14 1.240 . S
C23 O15 1.252 . S
O24 In13 2.294 . S
O24 C17 1.240 . S
O25 In13 2.326 . S
O25 C17 1.252 . S
In26 O27 2.294 . S
In26 O28 2.326 . S
In26 O32 2.266 . S
In26 O33 2.326 . S
In26 O34 2.266 . S
In26 O35 2.326 . S
In26 O37 2.294 . S
In26 O38 2.326 . S
O27 In26 2.294 . S
O27 C36 1.240 . S
O28 In26 2.326 . S
O28 C36 1.252 . S
C29 O32 1.252 . S
C29 O33 1.260 . S
C30 O37 1.240 . S
C30 O38 1.252 . S
C31 O34 1.252 . S
C31 O35 1.260 . S
O32 In26 2.266 . S
O32 C29 1.252 . S
O33 In26 2.326 . S
O33 C29 1.260 . S
O34 In26 2.266 . S
O34 C31 1.252 . S
O35 In26 2.326 . S
O35 C31 1.260 . S
C36 O27 1.240 . S
C36 O28 1.252 . S
O37 In26 2.294 . S
O37 C30 1.240 . S
O38 In26 2.326 . S
O38 C30 1.252 . S
In39 O40 2.294 . S
In39 O41 2.326 . S
In39 O45 2.266 . S
In39 O46 2.326 . S
In39 O47 2.266 . S
In39 O48 2.326 . S
In39 O50 2.294 1_554 S
In39 O51 2.326 . S
O40 In39 2.294 . S
O40 C49 1.240 . S
O41 In39 2.326 . S
O41 C49 1.252 . S
C42 O45 1.252 . S
C42 O46 1.260 . S
C43 O50 1.240 . S
C43 O51 1.252 1_556 S
C44 O47 1.252 . S
C44 O48 1.260 . S
O45 In39 2.266 . S
O45 C42 1.252 . S
O46 In39 2.326 . S
O46 C42 1.260 . S
O47 In39 2.266 . S
O47 C44 1.252 . S
O48 In39 2.326 . S
O48 C44 1.260 . S
C49 O40 1.240 . S
C49 O41 1.252 . S
O50 In39 2.294 1_556 S
O50 C43 1.240 . S
O51 In39 2.326 . S
O51 C43 1.252 1_554 S
In52 O53 2.294 . S
In52 O54 2.326 . S
In52 O58 2.266 . S
In52 O59 2.326 . S
In52 O60 2.266 . S
In52 O61 2.326 . S
In52 O63 2.294 . S
In52 O64 2.326 . S
O53 In52 2.294 . S
O53 C62 1.240 . S
O54 In52 2.326 . S
O54 C62 1.252 . S
C55 O58 1.252 . S
C55 O59 1.260 . S
C56 O63 1.240 . S
C56 O64 1.252 . S
C57 O60 1.252 . S
C57 O61 1.260 . S
O58 In52 2.266 . S
O58 C55 1.252 . S
O59 In52 2.326 . S
O59 C55 1.260 . S
O60 In52 2.266 . S
O60 C57 1.252 . S
O61 In52 2.326 . S
O61 C57 1.260 . S
C62 O53 1.240 . S
C62 O54 1.252 . S
O63 In52 2.294 . S
O63 C56 1.240 . S
O64 In52 2.326 . S
O64 C56 1.252 . S
In65 O66 2.294 . S
In65 O67 2.326 . S
In65 O71 2.266 . S
In65 O72 2.326 . S
In65 O73 2.266 . S
In65 O74 2.326 . S
In65 O76 2.294 . S
In65 O77 2.326 . S
O66 In65 2.294 . S
O66 C75 1.240 . S
O67 In65 2.326 . S
O67 C75 1.252 . S
C68 O71 1.252 . S
C68 O72 1.260 . S
C69 O76 1.240 . S
C69 O77 1.252 . S
C70 O73 1.252 . S
C70 O74 1.260 . S
O71 In65 2.266 . S
O71 C68 1.252 . S
O72 In65 2.326 . S
O72 C68 1.260 . S
O73 In65 2.266 . S
O73 C70 1.252 . S
O74 In65 2.326 . S
O74 C70 1.260 . S
C75 O66 1.240 . S
C75 O67 1.252 . S
O76 In65 2.294 . S
O76 C69 1.240 . S
O77 In65 2.326 . S
O77 C69 1.252 . S
In78 O79 2.294 . S
In78 O80 2.326 . S
In78 O84 2.266 . S
In78 O85 2.326 . S
In78 O86 2.266 . S
In78 O87 2.326 . S
In78 O89 2.294 . S
In78 O90 2.326 . S
O79 In78 2.294 . S
O79 C88 1.240 . S
O80 In78 2.326 . S
O80 C88 1.252 . S
C81 O84 1.252 . S
C81 O85 1.260 . S
C82 O89 1.240 . S
C82 O90 1.252 . S
C83 O86 1.252 . S
C83 O87 1.260 . S
O84 In78 2.266 . S
O84 C81 1.252 . S
O85 In78 2.326 . S
O85 C81 1.260 . S
O86 In78 2.266 . S
O86 C83 1.252 . S
O87 In78 2.326 . S
O87 C83 1.260 . S
C88 O79 1.240 . S
C88 O80 1.252 . S
O89 In78 2.294 . S
O89 C82 1.240 . S
O90 In78 2.326 . S
O90 C82 1.252 . S
In91 O92 2.294 1_556 S
In91 O93 2.326 . S
In91 O97 2.266 . S
In91 O98 2.326 . S
In91 O99 2.266 . S
In91 O100 2.326 . S
In91 O102 2.294 . S
In91 O103 2.326 . S
O92 In91 2.294 1_554 S
O92 C101 1.240 . S
O93 In91 2.326 . S
O93 C101 1.252 1_556 S
C94 O97 1.252 . S
C94 O98 1.260 . S
C95 O102 1.240 . S
C95 O103 1.252 . S
C96 O99 1.252 . S
C96 O100 1.260 . S
O97 In91 2.266 . S
O97 C94 1.252 . S
O98 In91 2.326 . S
O98 C94 1.260 . S
O99 In91 2.266 . S
O99 C96 1.252 . S
O100 In91 2.326 . S
O100 C96 1.260 . S
C101 O92 1.240 . S
C101 O93 1.252 1_554 S
O102 In91 2.294 . S
O102 C95 1.240 . S
O103 In91 2.326 . S
O103 C95 1.252 . S
In104 O105 2.294 . S
In104 O106 2.326 . S
In104 O110 2.266 . S
In104 O111 2.326 . S
In104 O112 2.266 . S
In104 O113 2.326 . S
In104 O115 2.294 . S
In104 O116 2.326 . S
O105 In104 2.294 . S
O105 C114 1.240 . S
O106 In104 2.326 . S
O106 C114 1.252 . S
C107 O110 1.252 . S
C107 O111 1.260 . S
C108 O115 1.240 . S
C108 O116 1.252 . S
C109 O112 1.252 . S
C109 O113 1.260 . S
O110 In104 2.266 . S
O110 C107 1.252 . S
O111 In104 2.326 . S
O111 C107 1.260 . S
O112 In104 2.266 . S
O112 C109 1.252 . S
O113 In104 2.326 . S
O113 C109 1.260 . S
C114 O105 1.240 . S
C114 O106 1.252 . S
O115 In104 2.294 . S
O115 C108 1.240 . S
O116 In104 2.326 . S
O116 C108 1.252 . S
In117 O118 2.294 . S
In117 O119 2.326 . S
In117 O123 2.266 . S
In117 O124 2.326 . S
In117 O125 2.266 . S
In117 O126 2.326 . S
In117 O128 2.294 . S
In117 O129 2.326 . S
O118 In117 2.294 . S
O118 C127 1.240 . S
O119 In117 2.326 . S
O119 C127 1.252 . S
C120 O123 1.252 . S
C120 O124 1.260 . S
C121 O128 1.240 . S
C121 O129 1.252 . S
C122 O125 1.252 . S
C122 O126 1.260 . S
O123 In117 2.266 . S
O123 C120 1.252 . S
O124 In117 2.326 . S
O124 C120 1.260 . S
O125 In117 2.266 . S
O125 C122 1.252 . S
O126 In117 2.326 . S
O126 C122 1.260 . S
C127 O118 1.240 . S
C127 O119 1.252 . S
O128 In117 2.294 . S
O128 C121 1.240 . S
O129 In117 2.326 . S
O129 C121 1.252 . S
In130 O131 2.294 . S
In130 O132 2.326 . S
In130 O136 2.266 . S
In130 O137 2.326 . S
In130 O138 2.266 . S
In130 O139 2.326 . S
In130 O141 2.294 . S
In130 O142 2.326 . S
O131 In130 2.294 . S
O131 C140 1.240 . S
O132 In130 2.326 . S
O132 C140 1.252 . S
C133 O136 1.252 . S
C133 O137 1.260 . S
C134 O141 1.240 . S
C134 O142 1.252 . S
C135 O138 1.252 . S
C135 O139 1.260 . S
O136 In130 2.266 . S
O136 C133 1.252 . S
O137 In130 2.326 . S
O137 C133 1.260 . S
O138 In130 2.266 . S
O138 C135 1.252 . S
O139 In130 2.326 . S
O139 C135 1.260 . S
C140 O131 1.240 . S
C140 O132 1.252 . S
O141 In130 2.294 . S
O141 C134 1.240 . S
O142 In130 2.326 . S
O142 C134 1.252 . S
In143 O144 2.294 1_556 S
In143 O145 2.326 . S
In143 O149 2.266 . S
In143 O150 2.326 . S
In143 O151 2.266 . S
In143 O152 2.326 . S
In143 O154 2.294 . S
In143 O155 2.326 . S
O144 In143 2.294 1_554 S
O144 C153 1.240 . S
O145 In143 2.326 . S
O145 C153 1.252 1_556 S
C146 O149 1.252 . S
C146 O150 1.260 . S
C147 O154 1.240 . S
C147 O155 1.252 . S
C148 O151 1.252 . S
C148 O152 1.260 . S
O149 In143 2.266 . S
O149 C146 1.252 . S
O150 In143 2.326 . S
O150 C146 1.260 . S
O151 In143 2.266 . S
O151 C148 1.252 . S
O152 In143 2.326 . S
O152 C148 1.260 . S
C153 O144 1.240 . S
C153 O145 1.252 1_554 S
O154 In143 2.294 . S
O154 C147 1.240 . S
O155 In143 2.326 . S
O155 C147 1.252 . S
In156 O157 2.294 . S
In156 O158 2.326 . S
In156 O162 2.266 . S
In156 O163 2.326 . S
In156 O164 2.266 . S
In156 O165 2.326 . S
In156 O167 2.294 . S
In156 O168 2.326 . S
O157 In156 2.294 . S
O157 C166 1.240 . S
O158 In156 2.326 . S
O158 C166 1.252 . S
C159 O162 1.252 . S
C159 O163 1.260 . S
C160 O167 1.240 . S
C160 O168 1.252 . S
C161 O164 1.252 . S
C161 O165 1.260 . S
O162 In156 2.266 . S
O162 C159 1.252 . S
O163 In156 2.326 . S
O163 C159 1.260 . S
O164 In156 2.266 . S
O164 C161 1.252 . S
O165 In156 2.326 . S
O165 C161 1.260 . S
C166 O157 1.240 . S
C166 O158 1.252 . S
O167 In156 2.294 . S
O167 C160 1.240 . S
O168 In156 2.326 . S
O168 C160 1.252 . S
In169 O170 2.294 . S
In169 O171 2.326 . S
In169 O175 2.266 . S
In169 O176 2.326 . S
In169 O177 2.266 . S
In169 O178 2.326 . S
In169 O180 2.294 . S
In169 O181 2.326 . S
O170 In169 2.294 . S
O170 C179 1.240 . S
O171 In169 2.326 . S
O171 C179 1.252 . S
C172 O175 1.252 . S
C172 O176 1.260 . S
C173 O180 1.240 . S
C173 O181 1.252 . S
C174 O177 1.252 . S
C174 O178 1.260 . S
O175 In169 2.266 . S
O175 C172 1.252 . S
O176 In169 2.326 . S
O176 C172 1.260 . S
O177 In169 2.266 . S
O177 C174 1.252 . S
O178 In169 2.326 . S
O178 C174 1.260 . S
C179 O170 1.240 . S
C179 O171 1.252 . S
O180 In169 2.294 . S
O180 C173 1.240 . S
O181 In169 2.326 . S
O181 C173 1.252 . S
In182 O183 2.294 . S
In182 O184 2.326 . S
In182 O188 2.266 . S
In182 O189 2.326 . S
In182 O190 2.266 . S
In182 O191 2.326 . S
In182 O193 2.294 . S
In182 O194 2.326 . S
O183 In182 2.294 . S
O183 C192 1.240 . S
O184 In182 2.326 . S
O184 C192 1.252 . S
C185 O188 1.252 . S
C185 O189 1.260 . S
C186 O193 1.240 . S
C186 O194 1.252 . S
C187 O190 1.252 . S
C187 O191 1.260 . S
O188 In182 2.266 . S
O188 C185 1.252 . S
O189 In182 2.326 . S
O189 C185 1.260 . S
O190 In182 2.266 . S
O190 C187 1.252 . S
O191 In182 2.326 . S
O191 C187 1.260 . S
C192 O183 1.240 . S
C192 O184 1.252 . S
O193 In182 2.294 . S
O193 C186 1.240 . S
O194 In182 2.326 . S
O194 C186 1.252 . S
In195 O196 2.294 1_554 S
In195 O197 2.326 . S
In195 O201 2.266 . S
In195 O202 2.326 . S
In195 O203 2.266 . S
In195 O204 2.326 . S
In195 O206 2.294 . S
In195 O207 2.326 . S
O196 In195 2.294 1_556 S
O196 C205 1.240 . S
O197 In195 2.326 . S
O197 C205 1.252 1_554 S
C198 O201 1.252 . S
C198 O202 1.260 . S
C199 O206 1.240 . S
C199 O207 1.252 . S
C200 O203 1.252 . S
C200 O204 1.260 . S
O201 In195 2.266 . S
O201 C198 1.252 . S
O202 In195 2.326 . S
O202 C198 1.260 . S
O203 In195 2.266 . S
O203 C200 1.252 . S
O204 In195 2.326 . S
O204 C200 1.260 . S
C205 O196 1.240 . S
C205 O197 1.252 1_556 S
O206 In195 2.294 . S
O206 C199 1.240 . S
O207 In195 2.326 . S
O207 C199 1.252 . S
In208 O209 2.294 . S
In208 O210 2.326 . S
In208 O214 2.266 . S
In208 O215 2.326 . S
In208 O216 2.266 . S
In208 O217 2.326 . S
In208 O219 2.294 . S
In208 O220 2.326 . S
O209 In208 2.294 . S
O209 C218 1.240 . S
O210 In208 2.326 . S
O210 C218 1.252 . S
C211 O214 1.252 . S
C211 O215 1.260 . S
C212 O219 1.240 . S
C212 O220 1.252 . S
C213 O216 1.252 . S
C213 O217 1.260 . S
O214 In208 2.266 . S
O214 C211 1.252 . S
O215 In208 2.326 . S
O215 C211 1.260 . S
O216 In208 2.266 . S
O216 C213 1.252 . S
O217 In208 2.326 . S
O217 C213 1.260 . S
C218 O209 1.240 . S
C218 O210 1.252 . S
O219 In208 2.294 . S
O219 C212 1.240 . S
O220 In208 2.326 . S
O220 C212 1.252 . S
In221 O222 2.294 1_554 S
In221 O223 2.326 . S
In221 O227 2.266 . S
In221 O228 2.326 . S
In221 O229 2.266 . S
In221 O230 2.326 . S
In221 O232 2.294 . S
In221 O233 2.326 . S
O222 In221 2.294 1_556 S
O222 C231 1.240 . S
O223 In221 2.326 . S
O223 C231 1.252 1_554 S
C224 O227 1.252 . S
C224 O228 1.260 . S
C225 O232 1.240 . S
C225 O233 1.252 . S
C226 O229 1.252 . S
C226 O230 1.260 . S
O227 In221 2.266 . S
O227 C224 1.252 . S
O228 In221 2.326 . S
O228 C224 1.260 . S
O229 In221 2.266 . S
O229 C226 1.252 . S
O230 In221 2.326 . S
O230 C226 1.260 . S
C231 O222 1.240 . S
C231 O223 1.252 1_556 S
O232 In221 2.294 . S
O232 C225 1.240 . S
O233 In221 2.326 . S
O233 C225 1.252 . S
In234 O235 2.294 . S
In234 O236 2.326 . S
In234 O240 2.266 . S
In234 O241 2.326 . S
In234 O242 2.266 . S
In234 O243 2.326 . S
In234 O245 2.294 . S
In234 O246 2.326 . S
O235 In234 2.294 . S
O235 C244 1.240 . S
O236 In234 2.326 . S
O236 C244 1.252 . S
C237 O240 1.252 . S
C237 O241 1.260 . S
C238 O245 1.240 . S
C238 O246 1.252 . S
C239 O242 1.252 . S
C239 O243 1.260 . S
O240 In234 2.266 . S
O240 C237 1.252 . S
O241 In234 2.326 . S
O241 C237 1.260 . S
O242 In234 2.266 . S
O242 C239 1.252 . S
O243 In234 2.326 . S
O243 C239 1.260 . S
C244 O235 1.240 . S
C244 O236 1.252 . S
O245 In234 2.294 . S
O245 C238 1.240 . S
O246 In234 2.326 . S
O246 C238 1.252 . S
In247 O248 2.294 . S
In247 O249 2.326 . S
In247 O253 2.266 . S
In247 O254 2.326 . S
In247 O255 2.266 . S
In247 O256 2.326 . S
In247 O258 2.294 . S
In247 O259 2.326 . S
O248 In247 2.294 . S
O248 C257 1.240 . S
O249 In247 2.326 . S
O249 C257 1.252 . S
C250 O253 1.252 . S
C250 O254 1.260 . S
C251 O258 1.240 . S
C251 O259 1.252 . S
C252 O255 1.252 . S
C252 O256 1.260 . S
O253 In247 2.266 . S
O253 C250 1.252 . S
O254 In247 2.326 . S
O254 C250 1.260 . S
O255 In247 2.266 . S
O255 C252 1.252 . S
O256 In247 2.326 . S
O256 C252 1.260 . S
C257 O248 1.240 . S
C257 O249 1.252 . S
O258 In247 2.294 . S
O258 C251 1.240 . S
O259 In247 2.326 . S
O259 C251 1.252 . S
In260 O261 2.294 . S
In260 O262 2.326 . S
In260 O266 2.266 . S
In260 O267 2.326 . S
In260 O268 2.266 . S
In260 O269 2.326 . S
In260 O271 2.294 . S
In260 O272 2.326 . S
O261 In260 2.294 . S
O261 C270 1.240 . S
O262 In260 2.326 . S
O262 C270 1.252 . S
C263 O266 1.252 . S
C263 O267 1.260 . S
C264 O271 1.240 . S
C264 O272 1.252 . S
C265 O268 1.252 . S
C265 O269 1.260 . S
O266 In260 2.266 . S
O266 C263 1.252 . S
O267 In260 2.326 . S
O267 C263 1.260 . S
O268 In260 2.266 . S
O268 C265 1.252 . S
O269 In260 2.326 . S
O269 C265 1.260 . S
C270 O261 1.240 . S
C270 O262 1.252 . S
O271 In260 2.294 . S
O271 C264 1.240 . S
O272 In260 2.326 . S
O272 C264 1.252 . S
In273 O274 2.294 1_556 S
In273 O275 2.326 . S
In273 O279 2.266 . S
In273 O280 2.326 . S
In273 O281 2.266 . S
In273 O282 2.326 . S
In273 O284 2.294 . S
In273 O285 2.326 . S
O274 In273 2.294 1_554 S
O274 C283 1.240 . S
O275 In273 2.326 . S
O275 C283 1.252 1_556 S
C276 O279 1.252 . S
C276 O280 1.260 . S
C277 O284 1.240 . S
C277 O285 1.252 . S
C278 O281 1.252 . S
C278 O282 1.260 . S
O279 In273 2.266 . S
O279 C276 1.252 . S
O280 In273 2.326 . S
O280 C276 1.260 . S
O281 In273 2.266 . S
O281 C278 1.252 . S
O282 In273 2.326 . S
O282 C278 1.260 . S
C283 O274 1.240 . S
C283 O275 1.252 1_554 S
O284 In273 2.294 . S
O284 C277 1.240 . S
O285 In273 2.326 . S
O285 C277 1.252 . S
In286 O287 2.294 . S
In286 O288 2.326 . S
In286 O292 2.266 . S
In286 O293 2.326 . S
In286 O294 2.266 . S
In286 O295 2.326 . S
In286 O297 2.294 . S
In286 O298 2.326 . S
O287 In286 2.294 . S
O287 C296 1.240 . S
O288 In286 2.326 . S
O288 C296 1.252 . S
C289 O292 1.252 . S
C289 O293 1.260 . S
C290 O297 1.240 . S
C290 O298 1.252 . S
C291 O294 1.252 . S
C291 O295 1.260 . S
O292 In286 2.266 . S
O292 C289 1.252 . S
O293 In286 2.326 . S
O293 C289 1.260 . S
O294 In286 2.266 . S
O294 C291 1.252 . S
O295 In286 2.326 . S
O295 C291 1.260 . S
C296 O287 1.240 . S
C296 O288 1.252 . S
O297 In286 2.294 . S
O297 C290 1.240 . S
O298 In286 2.326 . S
O298 C290 1.252 . S
In299 O300 2.294 . S
In299 O301 2.326 . S
In299 O305 2.266 . S
In299 O306 2.326 . S
In299 O307 2.266 . S
In299 O308 2.326 . S
In299 O310 2.294 . S
In299 O311 2.326 . S
O300 In299 2.294 . S
O300 C309 1.240 . S
O301 In299 2.326 . S
O301 C309 1.252 . S
C302 O305 1.252 . S
C302 O306 1.260 . S
C303 O310 1.240 . S
C303 O311 1.252 . S
C304 O307 1.252 . S
C304 O308 1.260 . S
O305 In299 2.266 . S
O305 C302 1.252 . S
O306 In299 2.326 . S
O306 C302 1.260 . S
O307 In299 2.266 . S
O307 C304 1.252 . S
O308 In299 2.326 . S
O308 C304 1.260 . S
C309 O300 1.240 . S
C309 O301 1.252 . S
O310 In299 2.294 . S
O310 C303 1.240 . S
O311 In299 2.326 . S
O311 C303 1.252 . S
In312 O313 2.294 . S
In312 O314 2.326 . S
In312 O318 2.266 . S
In312 O319 2.326 . S
In312 O320 2.266 . S
In312 O321 2.326 . S
In312 O323 2.294 . S
In312 O324 2.326 . S
O313 In312 2.294 . S
O313 C322 1.240 . S
O314 In312 2.326 . S
O314 C322 1.252 . S
C315 O318 1.252 . S
C315 O319 1.260 . S
C316 O323 1.240 . S
C316 O324 1.252 . S
C317 O320 1.252 . S
C317 O321 1.260 . S
O318 In312 2.266 . S
O318 C315 1.252 . S
O319 In312 2.326 . S
O319 C315 1.260 . S
O320 In312 2.266 . S
O320 C317 1.252 . S
O321 In312 2.326 . S
O321 C317 1.260 . S
C322 O313 1.240 . S
C322 O314 1.252 . S
O323 In312 2.294 . S
O323 C316 1.240 . S
O324 In312 2.326 . S
O324 C316 1.252 . S
In325 O326 2.294 1_556 S
In325 O327 2.326 . S
In325 O331 2.266 . S
In325 O332 2.326 . S
In325 O333 2.266 . S
In325 O334 2.326 . S
In325 O336 2.294 . S
In325 O337 2.326 . S
O326 In325 2.294 1_554 S
O326 C335 1.240 . S
O327 In325 2.326 . S
O327 C335 1.252 1_556 S
C328 O331 1.252 . S
C328 O332 1.260 . S
C329 O336 1.240 . S
C329 O337 1.252 . S
C330 O333 1.252 . S
C330 O334 1.260 . S
O331 In325 2.266 . S
O331 C328 1.252 . S
O332 In325 2.326 . S
O332 C328 1.260 . S
O333 In325 2.266 . S
O333 C330 1.252 . S
O334 In325 2.326 . S
O334 C330 1.260 . S
C335 O326 1.240 . S
C335 O327 1.252 1_554 S
O336 In325 2.294 . S
O336 C329 1.240 . S
O337 In325 2.326 . S
O337 C329 1.252 . S
In338 O339 2.294 . S
In338 O340 2.326 . S
In338 O344 2.266 . S
In338 O345 2.326 . S
In338 O346 2.266 . S
In338 O347 2.326 . S
In338 O349 2.294 . S
In338 O350 2.326 . S
O339 In338 2.294 . S
O339 C348 1.240 . S
O340 In338 2.326 . S
O340 C348 1.252 . S
C341 O344 1.252 . S
C341 O345 1.260 . S
C342 O349 1.240 . S
C342 O350 1.252 . S
C343 O346 1.252 . S
C343 O347 1.260 . S
O344 In338 2.266 . S
O344 C341 1.252 . S
O345 In338 2.326 . S
O345 C341 1.260 . S
O346 In338 2.266 . S
O346 C343 1.252 . S
O347 In338 2.326 . S
O347 C343 1.260 . S
C348 O339 1.240 . S
C348 O340 1.252 . S
O349 In338 2.294 . S
O349 C342 1.240 . S
O350 In338 2.326 . S
O350 C342 1.252 . S
In351 O352 2.294 . S
In351 O353 2.326 . S
In351 O357 2.266 . S
In351 O358 2.326 . S
In351 O359 2.266 . S
In351 O360 2.326 . S
In351 O362 2.294 . S
In351 O363 2.326 . S
O352 In351 2.294 . S
O352 C361 1.240 . S
O353 In351 2.326 . S
O353 C361 1.252 . S
C354 O357 1.252 . S
C354 O358 1.260 . S
C355 O362 1.240 . S
C355 O363 1.252 . S
C356 O359 1.252 . S
C356 O360 1.260 . S
O357 In351 2.266 . S
O357 C354 1.252 . S
O358 In351 2.326 . S
O358 C354 1.260 . S
O359 In351 2.266 . S
O359 C356 1.252 . S
O360 In351 2.326 . S
O360 C356 1.260 . S
C361 O352 1.240 . S
C361 O353 1.252 . S
O362 In351 2.294 . S
O362 C355 1.240 . S
O363 In351 2.326 . S
O363 C355 1.252 . S
In364 O365 2.294 . S
In364 O366 2.326 . S
In364 O370 2.266 . S
In364 O371 2.326 . S
In364 O372 2.266 . S
In364 O373 2.326 . S
In364 O375 2.294 . S
In364 O376 2.326 . S
O365 In364 2.294 . S
O365 C374 1.240 . S
O366 In364 2.326 . S
O366 C374 1.252 . S
C367 O370 1.252 . S
C367 O371 1.260 . S
C368 O375 1.240 . S
C368 O376 1.252 . S
C369 O372 1.252 . S
C369 O373 1.260 . S
O370 In364 2.266 . S
O370 C367 1.252 . S
O371 In364 2.326 . S
O371 C367 1.260 . S
O372 In364 2.266 . S
O372 C369 1.252 . S
O373 In364 2.326 . S
O373 C369 1.260 . S
C374 O365 1.240 . S
C374 O366 1.252 . S
O375 In364 2.294 . S
O375 C368 1.240 . S
O376 In364 2.326 . S
O376 C368 1.252 . S
In377 O378 2.294 1_554 S
In377 O379 2.326 . S
In377 O383 2.266 . S
In377 O384 2.326 . S
In377 O385 2.266 . S
In377 O386 2.326 . S
In377 O388 2.294 . S
In377 O389 2.326 . S
O378 In377 2.294 1_556 S
O378 C387 1.240 . S
O379 In377 2.326 . S
O379 C387 1.252 1_554 S
C380 O383 1.252 . S
C380 O384 1.260 . S
C381 O388 1.240 . S
C381 O389 1.252 . S
C382 O385 1.252 . S
C382 O386 1.260 . S
O383 In377 2.266 . S
O383 C380 1.252 . S
O384 In377 2.326 . S
O384 C380 1.260 . S
O385 In377 2.266 . S
O385 C382 1.252 . S
O386 In377 2.326 . S
O386 C382 1.260 . S
C387 O378 1.240 . S
C387 O379 1.252 1_556 S
O388 In377 2.294 . S
O388 C381 1.240 . S
O389 In377 2.326 . S
O389 C381 1.252 . S
In390 O391 2.294 . S
In390 O392 2.326 . S
In390 O396 2.266 . S
In390 O397 2.326 . S
In390 O398 2.266 . S
In390 O399 2.326 . S
In390 O401 2.294 . S
In390 O402 2.326 . S
O391 In390 2.294 . S
O391 C400 1.240 . S
O392 In390 2.326 . S
O392 C400 1.252 . S
C393 O396 1.252 . S
C393 O397 1.260 . S
C394 O401 1.240 . S
C394 O402 1.252 . S
C395 O398 1.252 . S
C395 O399 1.260 . S
O396 In390 2.266 . S
O396 C393 1.252 . S
O397 In390 2.326 . S
O397 C393 1.260 . S
O398 In390 2.266 . S
O398 C395 1.252 . S
O399 In390 2.326 . S
O399 C395 1.260 . S
C400 O391 1.240 . S
C400 O392 1.252 . S
O401 In390 2.294 . S
O401 C394 1.240 . S
O402 In390 2.326 . S
O402 C394 1.252 . S
In403 O404 2.294 . S
In403 O405 2.326 . S
In403 O409 2.266 . S
In403 O410 2.326 . S
In403 O411 2.266 . S
In403 O412 2.326 . S
In403 O414 2.294 . S
In403 O415 2.326 . S
O404 In403 2.294 . S
O404 C413 1.240 . S
O405 In403 2.326 . S
O405 C413 1.252 . S
C406 O409 1.252 . S
C406 O410 1.260 . S
C407 O414 1.240 . S
C407 O415 1.252 . S
C408 O411 1.252 . S
C408 O412 1.260 . S
O409 In403 2.266 . S
O409 C406 1.252 . S
O410 In403 2.326 . S
O410 C406 1.260 . S
O411 In403 2.266 . S
O411 C408 1.252 . S
O412 In403 2.326 . S
O412 C408 1.260 . S
C413 O404 1.240 . S
C413 O405 1.252 . S
O414 In403 2.294 . S
O414 C407 1.240 . S
O415 In403 2.326 . S
O415 C407 1.252 . S
C416 C417 1.391 . S
C416 C418 1.394 . S
C416 H432 0.931 . S
C417 C416 1.391 . S
C417 C421 1.376 . S
C418 C416 1.394 . S
C418 C419 1.369 . S
C418 C422 1.531 . S
C419 C418 1.369 . S
C419 C420 1.410 . S
C419 C427 1.503 . S
C420 C419 1.410 . S
C420 C421 1.392 . S
C420 C423 1.511 . S
C421 C417 1.376 . S
C421 C420 1.392 . S
C421 H433 0.929 . S
C422 C418 1.531 . S
C422 H434 0.960 . S
C422 H435 0.962 . S
C422 H436 0.960 . S
C423 C420 1.511 . S
C423 H437 0.961 . S
C423 H438 0.961 . S
C423 H439 0.961 . S
C424 C425 1.370 . S
C424 C426 1.363 . S
C424 H440 0.931 . S
C425 C424 1.370 . S
C425 C429 1.408 . S
C426 C424 1.363 . S
C426 C427 1.370 . S
C426 C430 1.524 . S
C427 C419 1.503 . S
C427 C426 1.370 . S
C427 C428 1.403 . S
C428 C427 1.403 . S
C428 C429 1.404 . S
C428 C431 1.539 . S
C429 C425 1.408 . S
C429 C428 1.404 . S
C429 H441 0.930 . S
C430 C426 1.524 . S
C430 H442 0.956 . S
C430 H443 0.961 . S
C430 H444 0.961 . S
C431 C428 1.539 . S
C431 H445 0.958 . S
C431 H446 0.961 . S
C431 H447 0.960 . S
H432 C416 0.931 . S
H433 C421 0.929 . S
H434 C422 0.960 . S
H435 C422 0.962 . S
H436 C422 0.960 . S
H437 C423 0.961 . S
H438 C423 0.961 . S
H439 C423 0.961 . S
H440 C424 0.931 . S
H441 C429 0.930 . S
H442 C430 0.956 . S
H443 C430 0.961 . S
H444 C430 0.961 . S
H445 C431 0.958 . S
H446 C431 0.961 . S
H447 C431 0.960 . S
C448 C449 1.391 . S
C448 C450 1.394 . S
C448 H464 0.931 . S
C449 C448 1.391 . S
C449 C453 1.376 . S
C450 C448 1.394 . S
C450 C451 1.369 . S
C450 C454 1.531 . S
C451 C450 1.369 . S
C451 C452 1.410 . S
C451 C459 1.503 . S
C452 C451 1.410 . S
C452 C453 1.392 . S
C452 C455 1.511 . S
C453 C449 1.376 . S
C453 C452 1.392 . S
C453 H465 0.929 . S
C454 C450 1.531 . S
C454 H466 0.960 . S
C454 H467 0.962 . S
C454 H468 0.960 . S
C455 C452 1.511 . S
C455 H469 0.961 . S
C455 H470 0.961 . S
C455 H471 0.961 . S
C456 C457 1.370 . S
C456 C458 1.363 . S
C456 H472 0.931 . S
C457 C456 1.370 . S
C457 C461 1.408 . S
C458 C456 1.363 . S
C458 C459 1.370 . S
C458 C462 1.524 . S
C459 C451 1.503 . S
C459 C458 1.370 . S
C459 C460 1.403 . S
C460 C459 1.403 . S
C460 C461 1.404 . S
C460 C463 1.539 . S
C461 C457 1.408 . S
C461 C460 1.404 . S
C461 H473 0.930 . S
C462 C458 1.524 . S
C462 H474 0.956 . S
C462 H475 0.961 . S
C462 H476 0.961 . S
C463 C460 1.539 . S
C463 H477 0.958 . S
C463 H478 0.961 . S
C463 H479 0.960 . S
H464 C448 0.931 . S
H465 C453 0.929 . S
H466 C454 0.960 . S
H467 C454 0.962 . S
H468 C454 0.960 . S
H469 C455 0.961 . S
H470 C455 0.961 . S
H471 C455 0.961 . S
H472 C456 0.931 . S
H473 C461 0.930 . S
H474 C462 0.956 . S
H475 C462 0.961 . S
H476 C462 0.961 . S
H477 C463 0.958 . S
H478 C463 0.961 . S
H479 C463 0.960 . S
C480 C481 1.391 . S
C480 C482 1.394 . S
C480 H496 0.931 . S
C481 C480 1.391 . S
C481 C485 1.376 . S
C482 C480 1.394 . S
C482 C483 1.369 . S
C482 C486 1.531 . S
C483 C482 1.369 . S
C483 C484 1.410 . S
C483 C491 1.503 . S
C484 C483 1.410 . S
C484 C485 1.392 . S
C484 C487 1.511 . S
C485 C481 1.376 . S
C485 C484 1.392 . S
C485 H497 0.929 . S
C486 C482 1.531 . S
C486 H498 0.960 . S
C486 H499 0.962 . S
C486 H500 0.960 . S
C487 C484 1.511 . S
C487 H501 0.961 . S
C487 H502 0.961 . S
C487 H503 0.961 . S
C488 C489 1.370 . S
C488 C490 1.363 . S
C488 H504 0.931 . S
C489 C488 1.370 . S
C489 C493 1.408 . S
C490 C488 1.363 . S
C490 C491 1.370 . S
C490 C494 1.524 . S
C491 C483 1.503 . S
C491 C490 1.370 . S
C491 C492 1.403 . S
C492 C491 1.403 . S
C492 C493 1.404 . S
C492 C495 1.539 . S
C493 C489 1.408 . S
C493 C492 1.404 . S
C493 H505 0.930 . S
C494 C490 1.524 . S
C494 H506 0.956 . S
C494 H507 0.961 . S
C494 H508 0.961 . S
C495 C492 1.539 . S
C495 H509 0.958 . S
C495 H510 0.961 . S
C495 H511 0.960 . S
H496 C480 0.931 . S
H497 C485 0.929 . S
H498 C486 0.960 . S
H499 C486 0.962 . S
H500 C486 0.960 . S
H501 C487 0.961 . S
H502 C487 0.961 . S
H503 C487 0.961 . S
H504 C488 0.931 . S
H505 C493 0.930 . S
H506 C494 0.956 . S
H507 C494 0.961 . S
H508 C494 0.961 . S
H509 C495 0.958 . S
H510 C495 0.961 . S
H511 C495 0.960 . S
C512 C513 1.391 . S
C512 C514 1.394 . S
C512 H528 0.931 . S
C513 C512 1.391 . S
C513 C517 1.376 . S
C514 C512 1.394 . S
C514 C515 1.369 . S
C514 C518 1.531 . S
C515 C514 1.369 . S
C515 C516 1.410 . S
C515 C523 1.503 . S
C516 C515 1.410 . S
C516 C517 1.392 . S
C516 C519 1.511 . S
C517 C513 1.376 . S
C517 C516 1.392 . S
C517 H529 0.929 . S
C518 C514 1.531 . S
C518 H530 0.960 . S
C518 H531 0.962 . S
C518 H532 0.960 . S
C519 C516 1.511 . S
C519 H533 0.961 . S
C519 H534 0.961 . S
C519 H535 0.961 . S
C520 C521 1.370 . S
C520 C522 1.363 . S
C520 H536 0.931 . S
C521 C520 1.370 . S
C521 C525 1.408 . S
C522 C520 1.363 . S
C522 C523 1.370 . S
C522 C526 1.524 . S
C523 C515 1.503 . S
C523 C522 1.370 . S
C523 C524 1.403 . S
C524 C523 1.403 . S
C524 C525 1.404 . S
C524 C527 1.539 . S
C525 C521 1.408 . S
C525 C524 1.404 . S
C525 H537 0.930 . S
C526 C522 1.524 . S
C526 H538 0.956 . S
C526 H539 0.961 . S
C526 H540 0.961 . S
C527 C524 1.539 . S
C527 H541 0.958 . S
C527 H542 0.961 . S
C527 H543 0.960 . S
H528 C512 0.931 . S
H529 C517 0.929 . S
H530 C518 0.960 . S
H531 C518 0.962 . S
H532 C518 0.960 . S
H533 C519 0.961 . S
H534 C519 0.961 . S
H535 C519 0.961 . S
H536 C520 0.931 . S
H537 C525 0.930 . S
H538 C526 0.956 . S
H539 C526 0.961 . S
H540 C526 0.961 . S
H541 C527 0.958 . S
H542 C527 0.961 . S
H543 C527 0.960 . S
C544 C545 1.391 . S
C544 C546 1.394 . S
C544 H560 0.931 . S
C545 C544 1.391 . S
C545 C549 1.376 . S
C546 C544 1.394 . S
C546 C547 1.369 . S
C546 C550 1.531 . S
C547 C546 1.369 . S
C547 C548 1.410 . S
C547 C555 1.503 . S
C548 C547 1.410 . S
C548 C549 1.392 . S
C548 C551 1.511 . S
C549 C545 1.376 . S
C549 C548 1.392 . S
C549 H561 0.929 . S
C550 C546 1.531 . S
C550 H562 0.960 . S
C550 H563 0.962 . S
C550 H564 0.960 . S
C551 C548 1.511 . S
C551 H565 0.961 . S
C551 H566 0.961 . S
C551 H567 0.961 . S
C552 C553 1.370 . S
C552 C554 1.363 . S
C552 H568 0.931 . S
C553 C552 1.370 . S
C553 C557 1.408 . S
C554 C552 1.363 . S
C554 C555 1.370 . S
C554 C558 1.524 . S
C555 C547 1.503 . S
C555 C554 1.370 . S
C555 C556 1.403 . S
C556 C555 1.403 . S
C556 C557 1.404 . S
C556 C559 1.539 . S
C557 C553 1.408 . S
C557 C556 1.404 . S
C557 H569 0.930 . S
C558 C554 1.524 . S
C558 H570 0.956 . S
C558 H571 0.961 . S
C558 H572 0.961 . S
C559 C556 1.539 . S
C559 H573 0.958 . S
C559 H574 0.961 . S
C559 H575 0.960 . S
H560 C544 0.931 . S
H561 C549 0.929 . S
H562 C550 0.960 . S
H563 C550 0.962 . S
H564 C550 0.960 . S
H565 C551 0.961 . S
H566 C551 0.961 . S
H567 C551 0.961 . S
H568 C552 0.931 . S
H569 C557 0.930 . S
H570 C558 0.956 . S
H571 C558 0.961 . S
H572 C558 0.961 . S
H573 C559 0.958 . S
H574 C559 0.961 . S
H575 C559 0.960 . S
C576 C577 1.391 . S
C576 C578 1.394 . S
C576 H592 0.931 . S
C577 C576 1.391 . S
C577 C581 1.376 . S
C578 C576 1.394 . S
C578 C579 1.369 . S
C578 C582 1.531 . S
C579 C578 1.369 . S
C579 C580 1.410 . S
C579 C587 1.503 . S
C580 C579 1.410 . S
C580 C581 1.392 . S
C580 C583 1.511 . S
C581 C577 1.376 . S
C581 C580 1.392 . S
C581 H593 0.929 . S
C582 C578 1.531 . S
C582 H594 0.960 . S
C582 H595 0.962 . S
C582 H596 0.960 . S
C583 C580 1.511 . S
C583 H597 0.961 . S
C583 H598 0.961 . S
C583 H599 0.961 . S
C584 C585 1.370 . S
C584 C586 1.363 . S
C584 H600 0.931 . S
C585 C584 1.370 . S
C585 C589 1.408 . S
C586 C584 1.363 . S
C586 C587 1.370 . S
C586 C590 1.524 . S
C587 C579 1.503 . S
C587 C586 1.370 . S
C587 C588 1.403 . S
C588 C587 1.403 . S
C588 C589 1.404 . S
C588 C591 1.539 . S
C589 C585 1.408 . S
C589 C588 1.404 . S
C589 H601 0.930 . S
C590 C586 1.524 . S
C590 H602 0.956 . S
C590 H603 0.961 . S
C590 H604 0.961 . S
C591 C588 1.539 . S
C591 H605 0.958 . S
C591 H606 0.961 . S
C591 H607 0.960 . S
H592 C576 0.931 . S
H593 C581 0.929 . S
H594 C582 0.960 . S
H595 C582 0.962 . S
H596 C582 0.960 . S
H597 C583 0.961 . S
H598 C583 0.961 . S
H599 C583 0.961 . S
H600 C584 0.931 . S
H601 C589 0.930 . S
H602 C590 0.956 . S
H603 C590 0.961 . S
H604 C590 0.961 . S
H605 C591 0.958 . S
H606 C591 0.961 . S
H607 C591 0.960 . S
C608 C609 1.391 . S
C608 C610 1.394 . S
C608 H624 0.931 . S
C609 C608 1.391 . S
C609 C613 1.376 . S
C610 C608 1.394 . S
C610 C611 1.369 . S
C610 C614 1.531 . S
C611 C610 1.369 . S
C611 C612 1.410 . S
C611 C619 1.503 . S
C612 C611 1.410 . S
C612 C613 1.392 . S
C612 C615 1.511 . S
C613 C609 1.376 . S
C613 C612 1.392 . S
C613 H625 0.929 . S
C614 C610 1.531 . S
C614 H626 0.960 . S
C614 H627 0.962 . S
C614 H628 0.960 . S
C615 C612 1.511 . S
C615 H629 0.961 . S
C615 H630 0.961 . S
C615 H631 0.961 . S
C616 C617 1.370 . S
C616 C618 1.363 . S
C616 H632 0.931 . S
C617 C616 1.370 . S
C617 C621 1.408 . S
C618 C616 1.363 . S
C618 C619 1.370 . S
C618 C622 1.524 . S
C619 C611 1.503 . S
C619 C618 1.370 . S
C619 C620 1.403 . S
C620 C619 1.403 . S
C620 C621 1.404 . S
C620 C623 1.539 . S
C621 C617 1.408 . S
C621 C620 1.404 . S
C621 H633 0.930 . S
C622 C618 1.524 . S
C622 H634 0.956 . S
C622 H635 0.961 . S
C622 H636 0.961 . S
C623 C620 1.539 . S
C623 H637 0.958 . S
C623 H638 0.961 . S
C623 H639 0.960 . S
H624 C608 0.931 . S
H625 C613 0.929 . S
H626 C614 0.960 . S
H627 C614 0.962 . S
H628 C614 0.960 . S
H629 C615 0.961 . S
H630 C615 0.961 . S
H631 C615 0.961 . S
H632 C616 0.931 . S
H633 C621 0.930 . S
H634 C622 0.956 . S
H635 C622 0.961 . S
H636 C622 0.961 . S
H637 C623 0.958 . S
H638 C623 0.961 . S
H639 C623 0.960 . S
C640 C641 1.391 . S
C640 C642 1.394 . S
C640 H656 0.931 . S
C641 C640 1.391 . S
C641 C645 1.376 . S
C642 C640 1.394 . S
C642 C643 1.369 . S
C642 C646 1.531 . S
C643 C642 1.369 . S
C643 C644 1.410 . S
C643 C651 1.503 . S
C644 C643 1.410 . S
C644 C645 1.392 . S
C644 C647 1.511 . S
C645 C641 1.376 . S
C645 C644 1.392 . S
C645 H657 0.929 . S
C646 C642 1.531 . S
C646 H658 0.960 . S
C646 H659 0.962 . S
C646 H660 0.960 . S
C647 C644 1.511 . S
C647 H661 0.961 . S
C647 H662 0.961 . S
C647 H663 0.961 . S
C648 C649 1.370 . S
C648 C650 1.363 . S
C648 H664 0.931 . S
C649 C648 1.370 . S
C649 C653 1.408 . S
C650 C648 1.363 . S
C650 C651 1.370 . S
C650 C654 1.524 . S
C651 C643 1.503 . S
C651 C650 1.370 . S
C651 C652 1.403 . S
C652 C651 1.403 . S
C652 C653 1.404 . S
C652 C655 1.539 . S
C653 C649 1.408 . S
C653 C652 1.404 . S
C653 H665 0.930 . S
C654 C650 1.524 . S
C654 H666 0.956 . S
C654 H667 0.961 . S
C654 H668 0.961 . S
C655 C652 1.539 . S
C655 H669 0.958 . S
C655 H670 0.961 . S
C655 H671 0.960 . S
H656 C640 0.931 . S
H657 C645 0.929 . S
H658 C646 0.960 . S
H659 C646 0.962 . S
H660 C646 0.960 . S
H661 C647 0.961 . S
H662 C647 0.961 . S
H663 C647 0.961 . S
H664 C648 0.931 . S
H665 C653 0.930 . S
H666 C654 0.956 . S
H667 C654 0.961 . S
H668 C654 0.961 . S
H669 C655 0.958 . S
H670 C655 0.961 . S
H671 C655 0.960 . S
C672 C673 1.391 . S
C672 C674 1.394 . S
C672 H688 0.931 . S
C673 C672 1.391 . S
C673 C677 1.376 . S
C674 C672 1.394 . S
C674 C675 1.369 . S
C674 C678 1.531 . S
C675 C674 1.369 . S
C675 C676 1.410 . S
C675 C683 1.503 . S
C676 C675 1.410 . S
C676 C677 1.392 . S
C676 C679 1.511 . S
C677 C673 1.376 . S
C677 C676 1.392 . S
C677 H689 0.929 . S
C678 C674 1.531 . S
C678 H690 0.960 . S
C678 H691 0.962 . S
C678 H692 0.960 . S
C679 C676 1.511 . S
C679 H693 0.961 . S
C679 H694 0.961 . S
C679 H695 0.961 . S
C680 C681 1.370 . S
C680 C682 1.363 . S
C680 H696 0.931 . S
C681 C680 1.370 . S
C681 C685 1.408 . S
C682 C680 1.363 . S
C682 C683 1.370 . S
C682 C686 1.524 . S
C683 C675 1.503 . S
C683 C682 1.370 . S
C683 C684 1.403 . S
C684 C683 1.403 . S
C684 C685 1.404 . S
C684 C687 1.539 . S
C685 C681 1.408 . S
C685 C684 1.404 . S
C685 H697 0.930 . S
C686 C682 1.524 . S
C686 H698 0.956 . S
C686 H699 0.961 . S
C686 H700 0.961 . S
C687 C684 1.539 . S
C687 H701 0.958 . S
C687 H702 0.961 . S
C687 H703 0.960 . S
H688 C672 0.931 . S
H689 C677 0.929 . S
H690 C678 0.960 . S
H691 C678 0.962 . S
H692 C678 0.960 . S
H693 C679 0.961 . S
H694 C679 0.961 . S
H695 C679 0.961 . S
H696 C680 0.931 . S
H697 C685 0.930 . S
H698 C686 0.956 . S
H699 C686 0.961 . S
H700 C686 0.961 . S
H701 C687 0.958 . S
H702 C687 0.961 . S
H703 C687 0.960 . S
C704 C705 1.391 . S
C704 C706 1.394 . S
C704 H720 0.931 . S
C705 C704 1.391 . S
C705 C709 1.376 . S
C706 C704 1.394 . S
C706 C707 1.369 . S
C706 C710 1.531 . S
C707 C706 1.369 . S
C707 C708 1.410 . S
C707 C715 1.503 . S
C708 C707 1.410 . S
C708 C709 1.392 . S
C708 C711 1.511 . S
C709 C705 1.376 . S
C709 C708 1.392 . S
C709 H721 0.929 . S
C710 C706 1.531 . S
C710 H722 0.960 . S
C710 H723 0.962 . S
C710 H724 0.960 . S
C711 C708 1.511 . S
C711 H725 0.961 . S
C711 H726 0.961 . S
C711 H727 0.961 . S
C712 C713 1.370 . S
C712 C714 1.363 . S
C712 H728 0.931 . S
C713 C712 1.370 . S
C713 C717 1.408 . S
C714 C712 1.363 . S
C714 C715 1.370 . S
C714 C718 1.524 . S
C715 C707 1.503 . S
C715 C714 1.370 . S
C715 C716 1.403 . S
C716 C715 1.403 . S
C716 C717 1.404 . S
C716 C719 1.539 . S
C717 C713 1.408 . S
C717 C716 1.404 . S
C717 H729 0.930 . S
C718 C714 1.524 . S
C718 H730 0.956 . S
C718 H731 0.961 . S
C718 H732 0.961 . S
C719 C716 1.539 . S
C719 H733 0.958 . S
C719 H734 0.961 . S
C719 H735 0.960 . S
H720 C704 0.931 . S
H721 C709 0.929 . S
H722 C710 0.960 . S
H723 C710 0.962 . S
H724 C710 0.960 . S
H725 C711 0.961 . S
H726 C711 0.961 . S
H727 C711 0.961 . S
H728 C712 0.931 . S
H729 C717 0.930 . S
H730 C718 0.956 . S
H731 C718 0.961 . S
H732 C718 0.961 . S
H733 C719 0.958 . S
H734 C719 0.961 . S
H735 C719 0.960 . S
C736 C737 1.391 . S
C736 C738 1.394 . S
C736 H752 0.931 . S
C737 C736 1.391 . S
C737 C741 1.376 . S
C738 C736 1.394 . S
C738 C739 1.369 . S
C738 C742 1.531 . S
C739 C738 1.369 . S
C739 C740 1.410 . S
C739 C747 1.503 . S
C740 C739 1.410 . S
C740 C741 1.392 . S
C740 C743 1.511 . S
C741 C737 1.376 . S
C741 C740 1.392 . S
C741 H753 0.929 . S
C742 C738 1.531 . S
C742 H754 0.960 . S
C742 H755 0.962 . S
C742 H756 0.960 . S
C743 C740 1.511 . S
C743 H757 0.961 . S
C743 H758 0.961 . S
C743 H759 0.961 . S
C744 C745 1.370 . S
C744 C746 1.363 . S
C744 H760 0.931 . S
C745 C744 1.370 . S
C745 C749 1.408 . S
C746 C744 1.363 . S
C746 C747 1.370 . S
C746 C750 1.524 . S
C747 C739 1.503 . S
C747 C746 1.370 . S
C747 C748 1.403 . S
C748 C747 1.403 . S
C748 C749 1.404 . S
C748 C751 1.539 . S
C749 C745 1.408 . S
C749 C748 1.404 . S
C749 H761 0.930 . S
C750 C746 1.524 . S
C750 H762 0.956 . S
C750 H763 0.961 . S
C750 H764 0.961 . S
C751 C748 1.539 . S
C751 H765 0.958 . S
C751 H766 0.961 . S
C751 H767 0.960 . S
H752 C736 0.931 . S
H753 C741 0.929 . S
H754 C742 0.960 . S
H755 C742 0.962 . S
H756 C742 0.960 . S
H757 C743 0.961 . S
H758 C743 0.961 . S
H759 C743 0.961 . S
H760 C744 0.931 . S
H761 C749 0.930 . S
H762 C750 0.956 . S
H763 C750 0.961 . S
H764 C750 0.961 . S
H765 C751 0.958 . S
H766 C751 0.961 . S
H767 C751 0.960 . S
C768 C769 1.391 . S
C768 C770 1.394 . S
C768 H784 0.931 . S
C769 C768 1.391 . S
C769 C773 1.376 . S
C770 C768 1.394 . S
C770 C771 1.369 . S
C770 C774 1.531 . S
C771 C770 1.369 . S
C771 C772 1.410 . S
C771 C779 1.503 . S
C772 C771 1.410 . S
C772 C773 1.392 . S
C772 C775 1.511 . S
C773 C769 1.376 . S
C773 C772 1.392 . S
C773 H785 0.929 . S
C774 C770 1.531 . S
C774 H786 0.960 . S
C774 H787 0.962 . S
C774 H788 0.960 . S
C775 C772 1.511 . S
C775 H789 0.961 . S
C775 H790 0.961 . S
C775 H791 0.961 . S
C776 C777 1.370 . S
C776 C778 1.363 . S
C776 H792 0.931 . S
C777 C776 1.370 . S
C777 C781 1.408 . S
C778 C776 1.363 . S
C778 C779 1.370 . S
C778 C782 1.524 . S
C779 C771 1.503 . S
C779 C778 1.370 . S
C779 C780 1.403 . S
C780 C779 1.403 . S
C780 C781 1.404 . S
C780 C783 1.539 . S
C781 C777 1.408 . S
C781 C780 1.404 . S
C781 H793 0.930 . S
C782 C778 1.524 . S
C782 H794 0.956 . S
C782 H795 0.961 . S
C782 H796 0.961 . S
C783 C780 1.539 . S
C783 H797 0.958 . S
C783 H798 0.961 . S
C783 H799 0.960 . S
H784 C768 0.931 . S
H785 C773 0.929 . S
H786 C774 0.960 . S
H787 C774 0.962 . S
H788 C774 0.960 . S
H789 C775 0.961 . S
H790 C775 0.961 . S
H791 C775 0.961 . S
H792 C776 0.931 . S
H793 C781 0.930 . S
H794 C782 0.956 . S
H795 C782 0.961 . S
H796 C782 0.961 . S
H797 C783 0.958 . S
H798 C783 0.961 . S
H799 C783 0.960 . S
C800 C801 1.391 . S
C800 C802 1.394 . S
C800 H816 0.931 . S
C801 C800 1.391 . S
C801 C805 1.376 . S
C802 C800 1.394 . S
C802 C803 1.369 . S
C802 C806 1.531 . S
C803 C802 1.369 . S
C803 C804 1.410 . S
C803 C811 1.503 . S
C804 C803 1.410 . S
C804 C805 1.392 . S
C804 C807 1.511 . S
C805 C801 1.376 . S
C805 C804 1.392 . S
C805 H817 0.929 . S
C806 C802 1.531 . S
C806 H818 0.960 . S
C806 H819 0.962 . S
C806 H820 0.960 . S
C807 C804 1.511 . S
C807 H821 0.961 . S
C807 H822 0.961 . S
C807 H823 0.961 . S
C808 C809 1.370 . S
C808 C810 1.363 . S
C808 H824 0.931 . S
C809 C808 1.370 . S
C809 C813 1.408 . S
C810 C808 1.363 . S
C810 C811 1.370 . S
C810 C814 1.524 . S
C811 C803 1.503 . S
C811 C810 1.370 . S
C811 C812 1.403 . S
C812 C811 1.403 . S
C812 C813 1.404 . S
C812 C815 1.539 . S
C813 C809 1.408 . S
C813 C812 1.404 . S
C813 H825 0.930 . S
C814 C810 1.524 . S
C814 H826 0.956 . S
C814 H827 0.961 . S
C814 H828 0.961 . S
C815 C812 1.539 . S
C815 H829 0.958 . S
C815 H830 0.961 . S
C815 H831 0.960 . S
H816 C800 0.931 . S
H817 C805 0.929 . S
H818 C806 0.960 . S
H819 C806 0.962 . S
H820 C806 0.960 . S
H821 C807 0.961 . S
H822 C807 0.961 . S
H823 C807 0.961 . S
H824 C808 0.931 . S
H825 C813 0.930 . S
H826 C814 0.956 . S
H827 C814 0.961 . S
H828 C814 0.961 . S
H829 C815 0.958 . S
H830 C815 0.961 . S
H831 C815 0.960 . S
C832 C833 1.391 . S
C832 C834 1.394 . S
C832 H848 0.931 . S
C833 C832 1.391 . S
C833 C837 1.376 . S
C834 C832 1.394 . S
C834 C835 1.369 . S
C834 C838 1.531 . S
C835 C834 1.369 . S
C835 C836 1.410 . S
C835 C843 1.503 . S
C836 C835 1.410 . S
C836 C837 1.392 . S
C836 C839 1.511 . S
C837 C833 1.376 . S
C837 C836 1.392 . S
C837 H849 0.929 . S
C838 C834 1.531 . S
C838 H850 0.960 . S
C838 H851 0.962 . S
C838 H852 0.960 . S
C839 C836 1.511 . S
C839 H853 0.961 . S
C839 H854 0.961 . S
C839 H855 0.961 . S
C840 C841 1.370 . S
C840 C842 1.363 . S
C840 H856 0.931 . S
C841 C840 1.370 . S
C841 C845 1.408 . S
C842 C840 1.363 . S
C842 C843 1.370 . S
C842 C846 1.524 . S
C843 C835 1.503 . S
C843 C842 1.370 . S
C843 C844 1.403 . S
C844 C843 1.403 . S
C844 C845 1.404 . S
C844 C847 1.539 . S
C845 C841 1.408 . S
C845 C844 1.404 . S
C845 H857 0.930 . S
C846 C842 1.524 . S
C846 H858 0.956 . S
C846 H859 0.961 . S
C846 H860 0.961 . S
C847 C844 1.539 . S
C847 H861 0.958 . S
C847 H862 0.961 . S
C847 H863 0.960 . S
H848 C832 0.931 . S
H849 C837 0.929 . S
H850 C838 0.960 . S
H851 C838 0.962 . S
H852 C838 0.960 . S
H853 C839 0.961 . S
H854 C839 0.961 . S
H855 C839 0.961 . S
H856 C840 0.931 . S
H857 C845 0.930 . S
H858 C846 0.956 . S
H859 C846 0.961 . S
H860 C846 0.961 . S
H861 C847 0.958 . S
H862 C847 0.961 . S
H863 C847 0.960 . S
C864 C865 1.391 . S
C864 C866 1.394 . S
C864 H880 0.931 . S
C865 C864 1.391 . S
C865 C869 1.376 . S
C866 C864 1.394 . S
C866 C867 1.369 . S
C866 C870 1.531 . S
C867 C866 1.369 . S
C867 C868 1.410 . S
C867 C875 1.503 . S
C868 C867 1.410 . S
C868 C869 1.392 . S
C868 C871 1.511 . S
C869 C865 1.376 . S
C869 C868 1.392 . S
C869 H881 0.929 . S
C870 C866 1.531 . S
C870 H882 0.960 . S
C870 H883 0.962 . S
C870 H884 0.960 . S
C871 C868 1.511 . S
C871 H885 0.961 . S
C871 H886 0.961 . S
C871 H887 0.961 . S
C872 C873 1.370 . S
C872 C874 1.363 . S
C872 H888 0.931 . S
C873 C872 1.370 . S
C873 C877 1.408 . S
C874 C872 1.363 . S
C874 C875 1.370 . S
C874 C878 1.524 . S
C875 C867 1.503 . S
C875 C874 1.370 . S
C875 C876 1.403 . S
C876 C875 1.403 . S
C876 C877 1.404 . S
C876 C879 1.539 . S
C877 C873 1.408 . S
C877 C876 1.404 . S
C877 H889 0.930 . S
C878 C874 1.524 . S
C878 H890 0.956 . S
C878 H891 0.961 . S
C878 H892 0.961 . S
C879 C876 1.539 . S
C879 H893 0.958 . S
C879 H894 0.961 . S
C879 H895 0.960 . S
H880 C864 0.931 . S
H881 C869 0.929 . S
H882 C870 0.960 . S
H883 C870 0.962 . S
H884 C870 0.960 . S
H885 C871 0.961 . S
H886 C871 0.961 . S
H887 C871 0.961 . S
H888 C872 0.931 . S
H889 C877 0.930 . S
H890 C878 0.956 . S
H891 C878 0.961 . S
H892 C878 0.961 . S
H893 C879 0.958 . S
H894 C879 0.961 . S
H895 C879 0.960 . S
C896 C897 1.391 . S
C896 C898 1.394 . S
C896 H912 0.931 . S
C897 C896 1.391 . S
C897 C901 1.376 . S
C898 C896 1.394 . S
C898 C899 1.369 . S
C898 C902 1.531 . S
C899 C898 1.369 . S
C899 C900 1.410 . S
C899 C907 1.503 . S
C900 C899 1.410 . S
C900 C901 1.392 . S
C900 C903 1.511 . S
C901 C897 1.376 . S
C901 C900 1.392 . S
C901 H913 0.929 . S
C902 C898 1.531 . S
C902 H914 0.960 . S
C902 H915 0.962 . S
C902 H916 0.960 . S
C903 C900 1.511 . S
C903 H917 0.961 . S
C903 H918 0.961 . S
C903 H919 0.961 . S
C904 C905 1.370 . S
C904 C906 1.363 . S
C904 H920 0.931 . S
C905 C904 1.370 . S
C905 C909 1.408 . S
C906 C904 1.363 . S
C906 C907 1.370 . S
C906 C910 1.524 . S
C907 C899 1.503 . S
C907 C906 1.370 . S
C907 C908 1.403 . S
C908 C907 1.403 . S
C908 C909 1.404 . S
C908 C911 1.539 . S
C909 C905 1.408 . S
C909 C908 1.404 . S
C909 H921 0.930 . S
C910 C906 1.524 . S
C910 H922 0.956 . S
C910 H923 0.961 . S
C910 H924 0.961 . S
C911 C908 1.539 . S
C911 H925 0.958 . S
C911 H926 0.961 . S
C911 H927 0.960 . S
H912 C896 0.931 . S
H913 C901 0.929 . S
H914 C902 0.960 . S
H915 C902 0.962 . S
H916 C902 0.960 . S
H917 C903 0.961 . S
H918 C903 0.961 . S
H919 C903 0.961 . S
H920 C904 0.931 . S
H921 C909 0.930 . S
H922 C910 0.956 . S
H923 C910 0.961 . S
H924 C910 0.961 . S
H925 C911 0.958 . S
H926 C911 0.961 . S
H927 C911 0.960 . S
C928 C929 1.391 . S
C928 C930 1.394 . S
C928 H944 0.931 . S
C929 C928 1.391 . S
C929 C933 1.376 . S
C930 C928 1.394 . S
C930 C931 1.369 . S
C930 C934 1.531 . S
C931 C930 1.369 . S
C931 C932 1.410 . S
C931 C939 1.503 . S
C932 C931 1.410 . S
C932 C933 1.392 . S
C932 C935 1.511 . S
C933 C929 1.376 . S
C933 C932 1.392 . S
C933 H945 0.929 . S
C934 C930 1.531 . S
C934 H946 0.960 . S
C934 H947 0.962 . S
C934 H948 0.960 . S
C935 C932 1.511 . S
C935 H949 0.961 . S
C935 H950 0.961 . S
C935 H951 0.961 . S
C936 C937 1.370 . S
C936 C938 1.363 . S
C936 H952 0.931 . S
C937 C936 1.370 . S
C937 C941 1.408 . S
C938 C936 1.363 . S
C938 C939 1.370 . S
C938 C942 1.524 . S
C939 C931 1.503 . S
C939 C938 1.370 . S
C939 C940 1.403 . S
C940 C939 1.403 . S
C940 C941 1.404 . S
C940 C943 1.539 . S
C941 C937 1.408 . S
C941 C940 1.404 . S
C941 H953 0.930 . S
C942 C938 1.524 . S
C942 H954 0.956 . S
C942 H955 0.961 . S
C942 H956 0.961 . S
C943 C940 1.539 . S
C943 H957 0.958 . S
C943 H958 0.961 . S
C943 H959 0.960 . S
H944 C928 0.931 . S
H945 C933 0.929 . S
H946 C934 0.960 . S
H947 C934 0.962 . S
H948 C934 0.960 . S
H949 C935 0.961 . S
H950 C935 0.961 . S
H951 C935 0.961 . S
H952 C936 0.931 . S
H953 C941 0.930 . S
H954 C942 0.956 . S
H955 C942 0.961 . S
H956 C942 0.961 . S
H957 C943 0.958 . S
H958 C943 0.961 . S
H959 C943 0.960 . S
C960 C961 1.391 . S
C960 C962 1.394 . S
C960 H976 0.931 . S
C961 C960 1.391 . S
C961 C965 1.376 . S
C962 C960 1.394 . S
C962 C963 1.369 . S
C962 C966 1.531 . S
C963 C962 1.369 . S
C963 C964 1.410 . S
C963 C971 1.503 . S
C964 C963 1.410 . S
C964 C965 1.392 . S
C964 C967 1.511 . S
C965 C961 1.376 . S
C965 C964 1.392 . S
C965 H977 0.929 . S
C966 C962 1.531 . S
C966 H978 0.960 . S
C966 H979 0.962 . S
C966 H980 0.960 . S
C967 C964 1.511 . S
C967 H981 0.961 . S
C967 H982 0.961 . S
C967 H983 0.961 . S
C968 C969 1.370 . S
C968 C970 1.363 1_455 S
C968 H984 0.931 . S
C969 C968 1.370 . S
C969 C973 1.408 . S
C970 C968 1.363 1_655 S
C970 C971 1.370 . S
C970 C974 1.524 . S
C971 C963 1.503 . S
C971 C970 1.370 . S
C971 C972 1.403 . S
C972 C971 1.403 . S
C972 C973 1.404 1_655 S
C972 C975 1.539 . S
C973 C969 1.408 . S
C973 C972 1.404 1_455 S
C973 H985 0.930 . S
C974 C970 1.524 . S
C974 H986 0.956 . S
C974 H987 0.961 . S
C974 H988 0.961 . S
C975 C972 1.539 . S
C975 H989 0.958 . S
C975 H990 0.961 1_655 S
C975 H991 0.960 . S
H976 C960 0.931 . S
H977 C965 0.929 . S
H978 C966 0.960 . S
H979 C966 0.962 . S
H980 C966 0.960 . S
H981 C967 0.961 . S
H982 C967 0.961 . S
H983 C967 0.961 . S
H984 C968 0.931 . S
H985 C973 0.930 . S
H986 C974 0.956 . S
H987 C974 0.961 . S
H988 C974 0.961 . S
H989 C975 0.958 . S
H990 C975 0.961 1_455 S
H991 C975 0.960 . S
C992 C993 1.391 . S
C992 C994 1.394 . S
C992 H1008 0.931 . S
C993 C992 1.391 . S
C993 C997 1.376 . S
C994 C992 1.394 . S
C994 C995 1.369 . S
C994 C998 1.531 . S
C995 C994 1.369 . S
C995 C996 1.410 . S
C995 C1003 1.503 . S
C996 C995 1.410 . S
C996 C997 1.392 . S
C996 C999 1.511 . S
C997 C993 1.376 . S
C997 C996 1.392 . S
C997 H1009 0.929 . S
C998 C994 1.531 . S
C998 H1010 0.960 . S
C998 H1011 0.962 . S
C998 H1012 0.960 . S
C999 C996 1.511 . S
C999 H1013 0.961 . S
C999 H1014 0.961 . S
C999 H1015 0.961 . S
C1000 C1001 1.370 . S
C1000 C1002 1.363 . S
C1000 H1016 0.931 . S
C1001 C1000 1.370 . S
C1001 C1005 1.408 . S
C1002 C1000 1.363 . S
C1002 C1003 1.370 . S
C1002 C1006 1.524 . S
C1003 C995 1.503 . S
C1003 C1002 1.370 . S
C1003 C1004 1.403 . S
C1004 C1003 1.403 . S
C1004 C1005 1.404 . S
C1004 C1007 1.539 . S
C1005 C1001 1.408 . S
C1005 C1004 1.404 . S
C1005 H1017 0.930 . S
C1006 C1002 1.524 . S
C1006 H1018 0.956 . S
C1006 H1019 0.961 . S
C1006 H1020 0.961 . S
C1007 C1004 1.539 . S
C1007 H1021 0.958 . S
C1007 H1022 0.961 . S
C1007 H1023 0.960 . S
H1008 C992 0.931 . S
H1009 C997 0.929 . S
H1010 C998 0.960 . S
H1011 C998 0.962 . S
H1012 C998 0.960 . S
H1013 C999 0.961 . S
H1014 C999 0.961 . S
H1015 C999 0.961 . S
H1016 C1000 0.931 . S
H1017 C1005 0.930 . S
H1018 C1006 0.956 . S
H1019 C1006 0.961 . S
H1020 C1006 0.961 . S
H1021 C1007 0.958 . S
H1022 C1007 0.961 . S
H1023 C1007 0.960 . S
C1024 C1025 1.391 . S
C1024 C1026 1.394 . S
C1024 H1040 0.931 . S
C1025 C1024 1.391 . S
C1025 C1029 1.376 . S
C1026 C1024 1.394 . S
C1026 C1027 1.369 . S
C1026 C1030 1.531 . S
C1027 C1026 1.369 . S
C1027 C1028 1.410 . S
C1027 C1035 1.503 . S
C1028 C1027 1.410 . S
C1028 C1029 1.392 . S
C1028 C1031 1.511 . S
C1029 C1025 1.376 . S
C1029 C1028 1.392 . S
C1029 H1041 0.929 . S
C1030 C1026 1.531 . S
C1030 H1042 0.960 . S
C1030 H1043 0.962 . S
C1030 H1044 0.960 . S
C1031 C1028 1.511 . S
C1031 H1045 0.961 . S
C1031 H1046 0.961 . S
C1031 H1047 0.961 . S
C1032 C1033 1.370 . S
C1032 C1034 1.363 . S
C1032 H1048 0.931 . S
C1033 C1032 1.370 . S
C1033 C1037 1.408 . S
C1034 C1032 1.363 . S
C1034 C1035 1.370 . S
C1034 C1038 1.524 . S
C1035 C1027 1.503 . S
C1035 C1034 1.370 . S
C1035 C1036 1.403 . S
C1036 C1035 1.403 . S
C1036 C1037 1.404 . S
C1036 C1039 1.539 . S
C1037 C1033 1.408 . S
C1037 C1036 1.404 . S
C1037 H1049 0.930 . S
C1038 C1034 1.524 . S
C1038 H1050 0.956 . S
C1038 H1051 0.961 . S
C1038 H1052 0.961 . S
C1039 C1036 1.539 . S
C1039 H1053 0.958 . S
C1039 H1054 0.961 . S
C1039 H1055 0.960 . S
H1040 C1024 0.931 . S
H1041 C1029 0.929 . S
H1042 C1030 0.960 . S
H1043 C1030 0.962 . S
H1044 C1030 0.960 . S
H1045 C1031 0.961 . S
H1046 C1031 0.961 . S
H1047 C1031 0.961 . S
H1048 C1032 0.931 . S
H1049 C1037 0.930 . S
H1050 C1038 0.956 . S
H1051 C1038 0.961 . S
H1052 C1038 0.961 . S
H1053 C1039 0.958 . S
H1054 C1039 0.961 . S
H1055 C1039 0.960 . S
C1056 C1057 1.391 . S
C1056 C1058 1.394 . S
C1056 H1072 0.931 . S
C1057 C1056 1.391 . S
C1057 C1061 1.376 . S
C1058 C1056 1.394 . S
C1058 C1059 1.369 . S
C1058 C1062 1.531 . S
C1059 C1058 1.369 . S
C1059 C1060 1.410 . S
C1059 C1067 1.503 . S
C1060 C1059 1.410 . S
C1060 C1061 1.392 . S
C1060 C1063 1.511 . S
C1061 C1057 1.376 . S
C1061 C1060 1.392 . S
C1061 H1073 0.929 . S
C1062 C1058 1.531 . S
C1062 H1074 0.960 . S
C1062 H1075 0.962 . S
C1062 H1076 0.960 . S
C1063 C1060 1.511 . S
C1063 H1077 0.961 . S
C1063 H1078 0.961 . S
C1063 H1079 0.961 . S
C1064 C1065 1.370 . S
C1064 C1066 1.363 . S
C1064 H1080 0.931 . S
C1065 C1064 1.370 . S
C1065 C1069 1.408 . S
C1066 C1064 1.363 . S
C1066 C1067 1.370 . S
C1066 C1070 1.524 . S
C1067 C1059 1.503 . S
C1067 C1066 1.370 . S
C1067 C1068 1.403 . S
C1068 C1067 1.403 . S
C1068 C1069 1.404 . S
C1068 C1071 1.539 . S
C1069 C1065 1.408 . S
C1069 C1068 1.404 . S
C1069 H1081 0.930 . S
C1070 C1066 1.524 . S
C1070 H1082 0.956 . S
C1070 H1083 0.961 . S
C1070 H1084 0.961 . S
C1071 C1068 1.539 . S
C1071 H1085 0.958 . S
C1071 H1086 0.961 . S
C1071 H1087 0.960 . S
H1072 C1056 0.931 . S
H1073 C1061 0.929 . S
H1074 C1062 0.960 . S
H1075 C1062 0.962 . S
H1076 C1062 0.960 . S
H1077 C1063 0.961 . S
H1078 C1063 0.961 . S
H1079 C1063 0.961 . S
H1080 C1064 0.931 . S
H1081 C1069 0.930 . S
H1082 C1070 0.956 . S
H1083 C1070 0.961 . S
H1084 C1070 0.961 . S
H1085 C1071 0.958 . S
H1086 C1071 0.961 . S
H1087 C1071 0.960 . S
C1088 C1089 1.391 . S
C1088 C1090 1.394 . S
C1088 H1104 0.931 . S
C1089 C1088 1.391 . S
C1089 C1093 1.376 . S
C1090 C1088 1.394 . S
C1090 C1091 1.369 . S
C1090 C1094 1.531 . S
C1091 C1090 1.369 . S
C1091 C1092 1.410 . S
C1091 C1099 1.503 . S
C1092 C1091 1.410 . S
C1092 C1093 1.392 . S
C1092 C1095 1.511 . S
C1093 C1089 1.376 . S
C1093 C1092 1.392 . S
C1093 H1105 0.929 . S
C1094 C1090 1.531 . S
C1094 H1106 0.960 . S
C1094 H1107 0.962 . S
C1094 H1108 0.960 . S
C1095 C1092 1.511 . S
C1095 H1109 0.961 . S
C1095 H1110 0.961 . S
C1095 H1111 0.961 . S
C1096 C1097 1.370 . S
C1096 C1098 1.363 . S
C1096 H1112 0.931 . S
C1097 C1096 1.370 . S
C1097 C1101 1.408 . S
C1098 C1096 1.363 . S
C1098 C1099 1.370 . S
C1098 C1102 1.524 . S
C1099 C1091 1.503 . S
C1099 C1098 1.370 . S
C1099 C1100 1.403 . S
C1100 C1099 1.403 . S
C1100 C1101 1.404 . S
C1100 C1103 1.539 . S
C1101 C1097 1.408 . S
C1101 C1100 1.404 . S
C1101 H1113 0.930 . S
C1102 C1098 1.524 . S
C1102 H1114 0.956 . S
C1102 H1115 0.961 . S
C1102 H1116 0.961 . S
C1103 C1100 1.539 . S
C1103 H1117 0.958 . S
C1103 H1118 0.961 . S
C1103 H1119 0.960 . S
H1104 C1088 0.931 . S
H1105 C1093 0.929 . S
H1106 C1094 0.960 . S
H1107 C1094 0.962 . S
H1108 C1094 0.960 . S
H1109 C1095 0.961 . S
H1110 C1095 0.961 . S
H1111 C1095 0.961 . S
H1112 C1096 0.931 . S
H1113 C1101 0.930 . S
H1114 C1102 0.956 . S
H1115 C1102 0.961 . S
H1116 C1102 0.961 . S
H1117 C1103 0.958 . S
H1118 C1103 0.961 . S
H1119 C1103 0.960 . S
C1120 C1121 1.391 . S
C1120 C1122 1.394 . S
C1120 H1136 0.931 . S
C1121 C1120 1.391 . S
C1121 C1125 1.376 . S
C1122 C1120 1.394 . S
C1122 C1123 1.369 . S
C1122 C1126 1.531 . S
C1123 C1122 1.369 . S
C1123 C1124 1.410 . S
C1123 C1131 1.503 . S
C1124 C1123 1.410 . S
C1124 C1125 1.392 . S
C1124 C1127 1.511 . S
C1125 C1121 1.376 . S
C1125 C1124 1.392 . S
C1125 H1137 0.929 . S
C1126 C1122 1.531 . S
C1126 H1138 0.960 . S
C1126 H1139 0.962 . S
C1126 H1140 0.960 . S
C1127 C1124 1.511 . S
C1127 H1141 0.961 . S
C1127 H1142 0.961 . S
C1127 H1143 0.961 . S
C1128 C1129 1.370 . S
C1128 C1130 1.363 . S
C1128 H1144 0.931 . S
C1129 C1128 1.370 . S
C1129 C1133 1.408 . S
C1130 C1128 1.363 . S
C1130 C1131 1.370 . S
C1130 C1134 1.524 . S
C1131 C1123 1.503 . S
C1131 C1130 1.370 . S
C1131 C1132 1.403 . S
C1132 C1131 1.403 . S
C1132 C1133 1.404 . S
C1132 C1135 1.539 . S
C1133 C1129 1.408 . S
C1133 C1132 1.404 . S
C1133 H1145 0.930 . S
C1134 C1130 1.524 . S
C1134 H1146 0.956 . S
C1134 H1147 0.961 . S
C1134 H1148 0.961 . S
C1135 C1132 1.539 . S
C1135 H1149 0.958 . S
C1135 H1150 0.961 . S
C1135 H1151 0.960 . S
H1136 C1120 0.931 . S
H1137 C1125 0.929 . S
H1138 C1126 0.960 . S
H1139 C1126 0.962 . S
H1140 C1126 0.960 . S
H1141 C1127 0.961 . S
H1142 C1127 0.961 . S
H1143 C1127 0.961 . S
H1144 C1128 0.931 . S
H1145 C1133 0.930 . S
H1146 C1134 0.956 . S
H1147 C1134 0.961 . S
H1148 C1134 0.961 . S
H1149 C1135 0.958 . S
H1150 C1135 0.961 . S
H1151 C1135 0.960 . S
C1152 C1153 1.391 . S
C1152 C1154 1.419 . S
C1152 H1168 0.931 . S
C1153 C1152 1.391 . S
C1153 C1157 1.376 . S
C1154 C1152 1.419 . S
C1154 C1155 1.345 1_455 S
C1154 C1158 1.530 . S
C1155 C1154 1.345 1_655 S
C1155 C1156 1.410 . S
C1155 C1163 1.503 . S
C1156 C1155 1.410 . S
C1156 C1157 1.392 1_655 S
C1156 C1159 1.511 . S
C1157 C1153 1.376 . S
C1157 C1156 1.392 1_455 S
C1157 H1169 0.929 . S
C1158 C1154 1.530 . S
C1158 H1170 0.959 1_455 S
C1158 H1171 0.961 1_455 S
C1158 H1172 0.962 . S
C1159 C1156 1.511 . S
C1159 H1173 0.961 . S
C1159 H1174 0.961 . S
C1159 H1175 0.961 . S
C1160 C1161 1.370 . S
C1160 C1162 1.363 . S
C1160 H1176 0.931 . S
C1161 C1160 1.370 . S
C1161 C1165 1.408 . S
C1162 C1160 1.363 . S
C1162 C1163 1.370 . S
C1162 C1166 1.524 . S
C1163 C1155 1.503 . S
C1163 C1162 1.370 . S
C1163 C1164 1.403 . S
C1164 C1163 1.403 . S
C1164 C1165 1.404 . S
C1164 C1167 1.539 . S
C1165 C1161 1.408 . S
C1165 C1164 1.404 . S
C1165 H1177 0.930 . S
C1166 C1162 1.524 . S
C1166 H1178 0.956 . S
C1166 H1179 0.961 . S
C1166 H1180 0.961 . S
C1167 C1164 1.539 . S
C1167 H1181 0.958 . S
C1167 H1182 0.961 . S
C1167 H1183 0.960 . S
H1168 C1152 0.931 . S
H1169 C1157 0.929 . S
H1170 C1158 0.959 1_655 S
H1171 C1158 0.961 1_655 S
H1172 C1158 0.962 . S
H1173 C1159 0.961 . S
H1174 C1159 0.961 . S
H1175 C1159 0.961 . S
H1176 C1160 0.931 . S
H1177 C1165 0.930 . S
H1178 C1166 0.956 . S
H1179 C1166 0.961 . S
H1180 C1166 0.961 . S
H1181 C1167 0.958 . S
H1182 C1167 0.961 . S
H1183 C1167 0.960 . S
C1184 C1185 1.391 . S
C1184 C1186 1.394 . S
C1184 H1200 0.931 . S
C1185 C1184 1.391 . S
C1185 C1189 1.376 . S
C1186 C1184 1.394 . S
C1186 C1187 1.369 . S
C1186 C1190 1.531 . S
C1187 C1186 1.369 . S
C1187 C1188 1.410 . S
C1187 C1195 1.503 . S
C1188 C1187 1.410 . S
C1188 C1189 1.392 . S
C1188 C1191 1.511 . S
C1189 C1185 1.376 . S
C1189 C1188 1.392 . S
C1189 H1201 0.929 . S
C1190 C1186 1.531 . S
C1190 H1202 0.960 . S
C1190 H1203 0.962 . S
C1190 H1204 0.960 . S
C1191 C1188 1.511 . S
C1191 H1205 0.961 . S
C1191 H1206 0.961 . S
C1191 H1207 0.961 . S
C1192 C1193 1.370 . S
C1192 C1194 1.363 . S
C1192 H1208 0.931 . S
C1193 C1192 1.370 . S
C1193 C1197 1.408 . S
C1194 C1192 1.363 . S
C1194 C1195 1.370 . S
C1194 C1198 1.524 . S
C1195 C1187 1.503 . S
C1195 C1194 1.370 . S
C1195 C1196 1.403 . S
C1196 C1195 1.403 . S
C1196 C1197 1.404 . S
C1196 C1199 1.539 . S
C1197 C1193 1.408 . S
C1197 C1196 1.404 . S
C1197 H1209 0.930 . S
C1198 C1194 1.524 . S
C1198 H1210 0.956 . S
C1198 H1211 0.961 . S
C1198 H1212 0.961 . S
C1199 C1196 1.539 . S
C1199 H1213 0.958 . S
C1199 H1214 0.961 . S
C1199 H1215 0.960 . S
H1200 C1184 0.931 . S
H1201 C1189 0.929 . S
H1202 C1190 0.960 . S
H1203 C1190 0.962 . S
H1204 C1190 0.960 . S
H1205 C1191 0.961 . S
H1206 C1191 0.961 . S
H1207 C1191 0.961 . S
H1208 C1192 0.931 . S
H1209 C1197 0.930 . S
H1210 C1198 0.956 . S
H1211 C1198 0.961 . S
H1212 C1198 0.961 . S
H1213 C1199 0.958 . S
H1214 C1199 0.961 . S
H1215 C1199 0.960 . S
C1216 C1217 1.405 . S
C1216 C1218 1.379 1_655 S
C1216 H1232 0.931 . S
C1217 C1216 1.405 . S
C1217 C1221 1.376 . S
C1218 C1216 1.379 1_455 S
C1218 C1219 1.369 . S
C1218 C1222 1.531 . S
C1219 C1218 1.369 . S
C1219 C1220 1.375 1_455 S
C1219 C1227 1.503 . S
C1220 C1219 1.375 1_655 S
C1220 C1221 1.427 . S
C1220 C1223 1.513 . S
C1221 C1217 1.376 . S
C1221 C1220 1.427 . S
C1221 H1233 0.929 . S
C1222 C1218 1.531 . S
C1222 H1234 0.960 . S
C1222 H1235 0.962 . S
C1222 H1236 0.960 . S
C1223 C1220 1.513 . S
C1223 H1237 0.961 . S
C1223 H1238 0.961 1_655 S
C1223 H1239 0.961 . S
C1224 C1225 1.370 . S
C1224 C1226 1.363 . S
C1224 H1240 0.931 . S
C1225 C1224 1.370 . S
C1225 C1229 1.408 . S
C1226 C1224 1.363 . S
C1226 C1227 1.370 . S
C1226 C1230 1.524 . S
C1227 C1219 1.503 . S
C1227 C1226 1.370 . S
C1227 C1228 1.403 . S
C1228 C1227 1.403 . S
C1228 C1229 1.404 . S
C1228 C1231 1.539 . S
C1229 C1225 1.408 . S
C1229 C1228 1.404 . S
C1229 H1241 0.930 . S
C1230 C1226 1.524 . S
C1230 H1242 0.956 . S
C1230 H1243 0.961 . S
C1230 H1244 0.961 . S
C1231 C1228 1.539 . S
C1231 H1245 0.958 . S
C1231 H1246 0.961 . S
C1231 H1247 0.960 . S
H1232 C1216 0.931 . S
H1233 C1221 0.929 . S
H1234 C1222 0.960 . S
H1235 C1222 0.962 . S
H1236 C1222 0.960 . S
H1237 C1223 0.961 . S
H1238 C1223 0.961 1_455 S
H1239 C1223 0.961 . S
H1240 C1224 0.931 . S
H1241 C1229 0.930 . S
H1242 C1230 0.956 . S
H1243 C1230 0.961 . S
H1244 C1230 0.961 . S
H1245 C1231 0.958 . S
H1246 C1231 0.961 . S
H1247 C1231 0.960 . S
C1248 C1249 1.391 . S
C1248 C1250 1.394 . S
C1248 H1264 0.931 . S
C1249 C1248 1.391 . S
C1249 C1253 1.376 . S
C1250 C1248 1.394 . S
C1250 C1251 1.369 . S
C1250 C1254 1.531 . S
C1251 C1250 1.369 . S
C1251 C1252 1.410 . S
C1251 C1259 1.503 . S
C1252 C1251 1.410 . S
C1252 C1253 1.392 . S
C1252 C1255 1.511 . S
C1253 C1249 1.376 . S
C1253 C1252 1.392 . S
C1253 H1265 0.929 . S
C1254 C1250 1.531 . S
C1254 H1266 0.960 . S
C1254 H1267 0.962 . S
C1254 H1268 0.960 . S
C1255 C1252 1.511 . S
C1255 H1269 0.961 . S
C1255 H1270 0.961 . S
C1255 H1271 0.961 . S
C1256 C1257 1.370 . S
C1256 C1258 1.363 . S
C1256 H1272 0.931 . S
C1257 C1256 1.370 . S
C1257 C1261 1.408 . S
C1258 C1256 1.363 . S
C1258 C1259 1.370 . S
C1258 C1262 1.524 . S
C1259 C1251 1.503 . S
C1259 C1258 1.370 . S
C1259 C1260 1.403 . S
C1260 C1259 1.403 . S
C1260 C1261 1.404 . S
C1260 C1263 1.539 . S
C1261 C1257 1.408 . S
C1261 C1260 1.404 . S
C1261 H1273 0.930 . S
C1262 C1258 1.524 . S
C1262 H1274 0.956 . S
C1262 H1275 0.961 . S
C1262 H1276 0.961 . S
C1263 C1260 1.539 . S
C1263 H1277 0.958 . S
C1263 H1278 0.961 . S
C1263 H1279 0.960 . S
H1264 C1248 0.931 . S
H1265 C1253 0.929 . S
H1266 C1254 0.960 . S
H1267 C1254 0.962 . S
H1268 C1254 0.960 . S
H1269 C1255 0.961 . S
H1270 C1255 0.961 . S
H1271 C1255 0.961 . S
H1272 C1256 0.931 . S
H1273 C1261 0.930 . S
H1274 C1262 0.956 . S
H1275 C1262 0.961 . S
H1276 C1262 0.961 . S
H1277 C1263 0.958 . S
H1278 C1263 0.961 . S
H1279 C1263 0.960 . S
C1280 C1281 1.391 . S
C1280 C1282 1.394 . S
C1280 H1296 0.931 . S
C1281 C1280 1.391 . S
C1281 C1285 1.376 . S
C1282 C1280 1.394 . S
C1282 C1283 1.369 . S
C1282 C1286 1.531 . S
C1283 C1282 1.369 . S
C1283 C1284 1.410 . S
C1283 C1291 1.503 . S
C1284 C1283 1.410 . S
C1284 C1285 1.392 . S
C1284 C1287 1.511 . S
C1285 C1281 1.376 . S
C1285 C1284 1.392 . S
C1285 H1297 0.929 . S
C1286 C1282 1.531 . S
C1286 H1298 0.960 . S
C1286 H1299 0.962 . S
C1286 H1300 0.960 . S
C1287 C1284 1.511 . S
C1287 H1301 0.961 . S
C1287 H1302 0.961 . S
C1287 H1303 0.961 . S
C1288 C1289 1.370 . S
C1288 C1290 1.363 . S
C1288 H1304 0.931 . S
C1289 C1288 1.370 . S
C1289 C1293 1.408 . S
C1290 C1288 1.363 . S
C1290 C1291 1.370 . S
C1290 C1294 1.524 . S
C1291 C1283 1.503 . S
C1291 C1290 1.370 . S
C1291 C1292 1.403 . S
C1292 C1291 1.403 . S
C1292 C1293 1.404 . S
C1292 C1295 1.539 . S
C1293 C1289 1.408 . S
C1293 C1292 1.404 . S
C1293 H1305 0.930 . S
C1294 C1290 1.524 . S
C1294 H1306 0.956 . S
C1294 H1307 0.961 . S
C1294 H1308 0.961 . S
C1295 C1292 1.539 . S
C1295 H1309 0.958 . S
C1295 H1310 0.961 . S
C1295 H1311 0.960 . S
H1296 C1280 0.931 . S
H1297 C1285 0.929 . S
H1298 C1286 0.960 . S
H1299 C1286 0.962 . S
H1300 C1286 0.960 . S
H1301 C1287 0.961 . S
H1302 C1287 0.961 . S
H1303 C1287 0.961 . S
H1304 C1288 0.931 . S
H1305 C1293 0.930 . S
H1306 C1294 0.956 . S
H1307 C1294 0.961 . S
H1308 C1294 0.961 . S
H1309 C1295 0.958 . S
H1310 C1295 0.961 . S
H1311 C1295 0.960 . S
C1312 C1313 1.391 . S
C1312 C1314 1.394 . S
C1312 H1328 0.931 . S
C1313 C1312 1.391 . S
C1313 C1317 1.376 . S
C1314 C1312 1.394 . S
C1314 C1315 1.369 . S
C1314 C1318 1.531 . S
C1315 C1314 1.369 . S
C1315 C1316 1.410 . S
C1315 C1323 1.503 . S
C1316 C1315 1.410 . S
C1316 C1317 1.392 . S
C1316 C1319 1.511 . S
C1317 C1313 1.376 . S
C1317 C1316 1.392 . S
C1317 H1329 0.929 . S
C1318 C1314 1.531 . S
C1318 H1330 0.960 . S
C1318 H1331 0.962 . S
C1318 H1332 0.960 . S
C1319 C1316 1.511 . S
C1319 H1333 0.961 . S
C1319 H1334 0.961 . S
C1319 H1335 0.961 . S
C1320 C1321 1.370 . S
C1320 C1322 1.363 . S
C1320 H1336 0.931 . S
C1321 C1320 1.370 . S
C1321 C1325 1.408 . S
C1322 C1320 1.363 . S
C1322 C1323 1.370 . S
C1322 C1326 1.524 . S
C1323 C1315 1.503 . S
C1323 C1322 1.370 . S
C1323 C1324 1.403 . S
C1324 C1323 1.403 . S
C1324 C1325 1.404 . S
C1324 C1327 1.539 . S
C1325 C1321 1.408 . S
C1325 C1324 1.404 . S
C1325 H1337 0.930 . S
C1326 C1322 1.524 . S
C1326 H1338 0.956 . S
C1326 H1339 0.961 . S
C1326 H1340 0.961 . S
C1327 C1324 1.539 . S
C1327 H1341 0.958 . S
C1327 H1342 0.961 . S
C1327 H1343 0.960 . S
H1328 C1312 0.931 . S
H1329 C1317 0.929 . S
H1330 C1318 0.960 . S
H1331 C1318 0.962 . S
H1332 C1318 0.960 . S
H1333 C1319 0.961 . S
H1334 C1319 0.961 . S
H1335 C1319 0.961 . S
H1336 C1320 0.931 . S
H1337 C1325 0.930 . S
H1338 C1326 0.956 . S
H1339 C1326 0.961 . S
H1340 C1326 0.961 . S
H1341 C1327 0.958 . S
H1342 C1327 0.961 . S
H1343 C1327 0.960 . S
C1344 C1345 1.391 . S
C1344 C1346 1.394 . S
C1344 H1360 0.931 . S
C1345 C1344 1.391 . S
C1345 C1349 1.376 . S
C1346 C1344 1.394 . S
C1346 C1347 1.369 . S
C1346 C1350 1.531 . S
C1347 C1346 1.369 . S
C1347 C1348 1.410 . S
C1347 C1355 1.503 . S
C1348 C1347 1.410 . S
C1348 C1349 1.392 . S
C1348 C1351 1.511 . S
C1349 C1345 1.376 . S
C1349 C1348 1.392 . S
C1349 H1361 0.929 . S
C1350 C1346 1.531 . S
C1350 H1362 0.960 . S
C1350 H1363 0.962 . S
C1350 H1364 0.960 . S
C1351 C1348 1.511 . S
C1351 H1365 0.961 . S
C1351 H1366 0.961 . S
C1351 H1367 0.961 . S
C1352 C1353 1.370 . S
C1352 C1354 1.363 . S
C1352 H1368 0.931 . S
C1353 C1352 1.370 . S
C1353 C1357 1.408 . S
C1354 C1352 1.363 . S
C1354 C1355 1.370 . S
C1354 C1358 1.524 . S
C1355 C1347 1.503 . S
C1355 C1354 1.370 . S
C1355 C1356 1.403 . S
C1356 C1355 1.403 . S
C1356 C1357 1.404 . S
C1356 C1359 1.539 . S
C1357 C1353 1.408 . S
C1357 C1356 1.404 . S
C1357 H1369 0.930 . S
C1358 C1354 1.524 . S
C1358 H1370 0.956 . S
C1358 H1371 0.961 . S
C1358 H1372 0.961 . S
C1359 C1356 1.539 . S
C1359 H1373 0.958 . S
C1359 H1374 0.961 . S
C1359 H1375 0.960 . S
H1360 C1344 0.931 . S
H1361 C1349 0.929 . S
H1362 C1350 0.960 . S
H1363 C1350 0.962 . S
H1364 C1350 0.960 . S
H1365 C1351 0.961 . S
H1366 C1351 0.961 . S
H1367 C1351 0.961 . S
H1368 C1352 0.931 . S
H1369 C1357 0.930 . S
H1370 C1358 0.956 . S
H1371 C1358 0.961 . S
H1372 C1358 0.961 . S
H1373 C1359 0.958 . S
H1374 C1359 0.961 . S
H1375 C1359 0.960 . S
C1376 C1377 1.391 . S
C1376 C1378 1.394 . S
C1376 H1392 0.931 . S
C1377 C1376 1.391 . S
C1377 C1381 1.376 . S
C1378 C1376 1.394 . S
C1378 C1379 1.369 . S
C1378 C1382 1.531 . S
C1379 C1378 1.369 . S
C1379 C1380 1.410 . S
C1379 C1387 1.503 . S
C1380 C1379 1.410 . S
C1380 C1381 1.392 . S
C1380 C1383 1.511 . S
C1381 C1377 1.376 . S
C1381 C1380 1.392 . S
C1381 H1393 0.929 . S
C1382 C1378 1.531 . S
C1382 H1394 0.960 . S
C1382 H1395 0.962 . S
C1382 H1396 0.960 . S
C1383 C1380 1.511 . S
C1383 H1397 0.961 . S
C1383 H1398 0.961 . S
C1383 H1399 0.961 . S
C1384 C1385 1.370 . S
C1384 C1386 1.363 . S
C1384 H1400 0.931 . S
C1385 C1384 1.370 . S
C1385 C1389 1.408 . S
C1386 C1384 1.363 . S
C1386 C1387 1.370 . S
C1386 C1390 1.524 . S
C1387 C1379 1.503 . S
C1387 C1386 1.370 . S
C1387 C1388 1.403 . S
C1388 C1387 1.403 . S
C1388 C1389 1.404 . S
C1388 C1391 1.539 . S
C1389 C1385 1.408 . S
C1389 C1388 1.404 . S
C1389 H1401 0.930 . S
C1390 C1386 1.524 . S
C1390 H1402 0.956 . S
C1390 H1403 0.961 . S
C1390 H1404 0.961 . S
C1391 C1388 1.539 . S
C1391 H1405 0.958 . S
C1391 H1406 0.961 . S
C1391 H1407 0.960 . S
H1392 C1376 0.931 . S
H1393 C1381 0.929 . S
H1394 C1382 0.960 . S
H1395 C1382 0.962 . S
H1396 C1382 0.960 . S
H1397 C1383 0.961 . S
H1398 C1383 0.961 . S
H1399 C1383 0.961 . S
H1400 C1384 0.931 . S
H1401 C1389 0.930 . S
H1402 C1390 0.956 . S
H1403 C1390 0.961 . S
H1404 C1390 0.961 . S
H1405 C1391 0.958 . S
H1406 C1391 0.961 . S
H1407 C1391 0.960 . S
C1408 C1409 1.391 . S
C1408 C1410 1.394 . S
C1408 H1424 0.931 . S
C1409 C1408 1.391 . S
C1409 C1413 1.376 . S
C1410 C1408 1.394 . S
C1410 C1411 1.369 . S
C1410 C1414 1.531 . S
C1411 C1410 1.369 . S
C1411 C1412 1.410 . S
C1411 C1419 1.503 . S
C1412 C1411 1.410 . S
C1412 C1413 1.392 . S
C1412 C1415 1.511 . S
C1413 C1409 1.376 . S
C1413 C1412 1.392 . S
C1413 H1425 0.929 . S
C1414 C1410 1.531 . S
C1414 H1426 0.960 . S
C1414 H1427 0.962 . S
C1414 H1428 0.960 . S
C1415 C1412 1.511 . S
C1415 H1429 0.961 . S
C1415 H1430 0.961 . S
C1415 H1431 0.961 . S
C1416 C1417 1.370 . S
C1416 C1418 1.363 1_655 S
C1416 H1432 0.931 . S
C1417 C1416 1.370 . S
C1417 C1421 1.408 . S
C1418 C1416 1.363 1_455 S
C1418 C1419 1.370 . S
C1418 C1422 1.524 . S
C1419 C1411 1.503 . S
C1419 C1418 1.370 . S
C1419 C1420 1.403 . S
C1420 C1419 1.403 . S
C1420 C1421 1.404 1_455 S
C1420 C1423 1.539 . S
C1421 C1417 1.408 . S
C1421 C1420 1.404 1_655 S
C1421 H1433 0.930 . S
C1422 C1418 1.524 . S
C1422 H1434 0.956 . S
C1422 H1435 0.961 . S
C1422 H1436 0.961 . S
C1423 C1420 1.539 . S
C1423 H1437 0.958 . S
C1423 H1438 0.961 1_455 S
C1423 H1439 0.960 . S
H1424 C1408 0.931 . S
H1425 C1413 0.929 . S
H1426 C1414 0.960 . S
H1427 C1414 0.962 . S
H1428 C1414 0.960 . S
H1429 C1415 0.961 . S
H1430 C1415 0.961 . S
H1431 C1415 0.961 . S
H1432 C1416 0.931 . S
H1433 C1421 0.930 . S
H1434 C1422 0.956 . S
H1435 C1422 0.961 . S
H1436 C1422 0.961 . S
H1437 C1423 0.958 . S
H1438 C1423 0.961 1_655 S
H1439 C1423 0.960 . S
C1440 C1441 1.391 . S
C1440 C1442 1.394 . S
C1440 H1456 0.931 . S
C1441 C1440 1.391 . S
C1441 C1445 1.376 . S
C1442 C1440 1.394 . S
C1442 C1443 1.369 . S
C1442 C1446 1.531 . S
C1443 C1442 1.369 . S
C1443 C1444 1.410 . S
C1443 C1451 1.503 . S
C1444 C1443 1.410 . S
C1444 C1445 1.392 . S
C1444 C1447 1.511 . S
C1445 C1441 1.376 . S
C1445 C1444 1.392 . S
C1445 H1457 0.929 . S
C1446 C1442 1.531 . S
C1446 H1458 0.960 . S
C1446 H1459 0.962 . S
C1446 H1460 0.960 . S
C1447 C1444 1.511 . S
C1447 H1461 0.961 . S
C1447 H1462 0.961 . S
C1447 H1463 0.961 . S
C1448 C1449 1.370 . S
C1448 C1450 1.363 . S
C1448 H1464 0.931 . S
C1449 C1448 1.370 . S
C1449 C1453 1.408 . S
C1450 C1448 1.363 . S
C1450 C1451 1.370 . S
C1450 C1454 1.524 . S
C1451 C1443 1.503 . S
C1451 C1450 1.370 . S
C1451 C1452 1.403 . S
C1452 C1451 1.403 . S
C1452 C1453 1.404 . S
C1452 C1455 1.539 . S
C1453 C1449 1.408 . S
C1453 C1452 1.404 . S
C1453 H1465 0.930 . S
C1454 C1450 1.524 . S
C1454 H1466 0.956 . S
C1454 H1467 0.961 . S
C1454 H1468 0.961 . S
C1455 C1452 1.539 . S
C1455 H1469 0.958 . S
C1455 H1470 0.961 . S
C1455 H1471 0.960 . S
H1456 C1440 0.931 . S
H1457 C1445 0.929 . S
H1458 C1446 0.960 . S
H1459 C1446 0.962 . S
H1460 C1446 0.960 . S
H1461 C1447 0.961 . S
H1462 C1447 0.961 . S
H1463 C1447 0.961 . S
H1464 C1448 0.931 . S
H1465 C1453 0.930 . S
H1466 C1454 0.956 . S
H1467 C1454 0.961 . S
H1468 C1454 0.961 . S
H1469 C1455 0.958 . S
H1470 C1455 0.961 . S
H1471 C1455 0.960 . S
C1472 C1473 1.391 . S
C1472 C1474 1.394 . S
C1472 H1488 0.931 . S
C1473 C1472 1.391 . S
C1473 C1477 1.376 . S
C1474 C1472 1.394 . S
C1474 C1475 1.369 . S
C1474 C1478 1.531 . S
C1475 C1474 1.369 . S
C1475 C1476 1.410 . S
C1475 C1483 1.503 . S
C1476 C1475 1.410 . S
C1476 C1477 1.392 . S
C1476 C1479 1.511 . S
C1477 C1473 1.376 . S
C1477 C1476 1.392 . S
C1477 H1489 0.929 . S
C1478 C1474 1.531 . S
C1478 H1490 0.960 . S
C1478 H1491 0.962 . S
C1478 H1492 0.960 . S
C1479 C1476 1.511 . S
C1479 H1493 0.961 . S
C1479 H1494 0.961 . S
C1479 H1495 0.961 . S
C1480 C1481 1.370 . S
C1480 C1482 1.363 . S
C1480 H1496 0.931 . S
C1481 C1480 1.370 . S
C1481 C1485 1.408 . S
C1482 C1480 1.363 . S
C1482 C1483 1.370 . S
C1482 C1486 1.524 . S
C1483 C1475 1.503 . S
C1483 C1482 1.370 . S
C1483 C1484 1.403 . S
C1484 C1483 1.403 . S
C1484 C1485 1.404 . S
C1484 C1487 1.539 . S
C1485 C1481 1.408 . S
C1485 C1484 1.404 . S
C1485 H1497 0.930 . S
C1486 C1482 1.524 . S
C1486 H1498 0.956 . S
C1486 H1499 0.961 . S
C1486 H1500 0.961 . S
C1487 C1484 1.539 . S
C1487 H1501 0.958 . S
C1487 H1502 0.961 . S
C1487 H1503 0.960 . S
H1488 C1472 0.931 . S
H1489 C1477 0.929 . S
H1490 C1478 0.960 . S
H1491 C1478 0.962 . S
H1492 C1478 0.960 . S
H1493 C1479 0.961 . S
H1494 C1479 0.961 . S
H1495 C1479 0.961 . S
H1496 C1480 0.931 . S
H1497 C1485 0.930 . S
H1498 C1486 0.956 . S
H1499 C1486 0.961 . S
H1500 C1486 0.961 . S
H1501 C1487 0.958 . S
H1502 C1487 0.961 . S
H1503 C1487 0.960 . S
C1504 C1505 1.391 . S
C1504 C1506 1.394 . S
C1504 H1520 0.931 . S
C1505 C1504 1.391 . S
C1505 C1509 1.376 . S
C1506 C1504 1.394 . S
C1506 C1507 1.369 . S
C1506 C1510 1.531 . S
C1507 C1506 1.369 . S
C1507 C1508 1.410 . S
C1507 C1515 1.503 . S
C1508 C1507 1.410 . S
C1508 C1509 1.392 . S
C1508 C1511 1.511 . S
C1509 C1505 1.376 . S
C1509 C1508 1.392 . S
C1509 H1521 0.929 . S
C1510 C1506 1.531 . S
C1510 H1522 0.960 . S
C1510 H1523 0.962 . S
C1510 H1524 0.960 . S
C1511 C1508 1.511 . S
C1511 H1525 0.961 . S
C1511 H1526 0.961 . S
C1511 H1527 0.961 . S
C1512 C1513 1.370 . S
C1512 C1514 1.363 . S
C1512 H1528 0.931 . S
C1513 C1512 1.370 . S
C1513 C1517 1.408 . S
C1514 C1512 1.363 . S
C1514 C1515 1.370 . S
C1514 C1518 1.524 . S
C1515 C1507 1.503 . S
C1515 C1514 1.370 . S
C1515 C1516 1.403 . S
C1516 C1515 1.403 . S
C1516 C1517 1.404 . S
C1516 C1519 1.539 . S
C1517 C1513 1.408 . S
C1517 C1516 1.404 . S
C1517 H1529 0.930 . S
C1518 C1514 1.524 . S
C1518 H1530 0.956 . S
C1518 H1531 0.961 . S
C1518 H1532 0.961 . S
C1519 C1516 1.539 . S
C1519 H1533 0.958 . S
C1519 H1534 0.961 . S
C1519 H1535 0.960 . S
H1520 C1504 0.931 . S
H1521 C1509 0.929 . S
H1522 C1510 0.960 . S
H1523 C1510 0.962 . S
H1524 C1510 0.960 . S
H1525 C1511 0.961 . S
H1526 C1511 0.961 . S
H1527 C1511 0.961 . S
H1528 C1512 0.931 . S
H1529 C1517 0.930 . S
H1530 C1518 0.956 . S
H1531 C1518 0.961 . S
H1532 C1518 0.961 . S
H1533 C1519 0.958 . S
H1534 C1519 0.961 . S
H1535 C1519 0.960 . S
C1536 C1537 1.391 . S
C1536 C1538 1.394 . S
C1536 H1552 0.931 . S
C1537 C1536 1.391 . S
C1537 C1541 1.376 . S
C1538 C1536 1.394 . S
C1538 C1539 1.369 . S
C1538 C1542 1.531 . S
C1539 C1538 1.369 . S
C1539 C1540 1.410 . S
C1539 C1547 1.503 . S
C1540 C1539 1.410 . S
C1540 C1541 1.392 . S
C1540 C1543 1.511 . S
C1541 C1537 1.376 . S
C1541 C1540 1.392 . S
C1541 H1553 0.929 . S
C1542 C1538 1.531 . S
C1542 H1554 0.960 . S
C1542 H1555 0.962 . S
C1542 H1556 0.960 . S
C1543 C1540 1.511 . S
C1543 H1557 0.961 . S
C1543 H1558 0.961 . S
C1543 H1559 0.961 . S
C1544 C1545 1.370 . S
C1544 C1546 1.363 1_655 S
C1544 H1560 0.931 . S
C1545 C1544 1.370 . S
C1545 C1549 1.408 . S
C1546 C1544 1.363 1_455 S
C1546 C1547 1.370 . S
C1546 C1550 1.524 . S
C1547 C1539 1.503 . S
C1547 C1546 1.370 . S
C1547 C1548 1.403 . S
C1548 C1547 1.403 . S
C1548 C1549 1.404 1_455 S
C1548 C1551 1.539 . S
C1549 C1545 1.408 . S
C1549 C1548 1.404 1_655 S
C1549 H1561 0.930 . S
C1550 C1546 1.524 . S
C1550 H1562 0.956 . S
C1550 H1563 0.961 . S
C1550 H1564 0.961 . S
C1551 C1548 1.539 . S
C1551 H1565 0.958 . S
C1551 H1566 0.961 . S
C1551 H1567 0.960 . S
H1552 C1536 0.931 . S
H1553 C1541 0.929 . S
H1554 C1542 0.960 . S
H1555 C1542 0.962 . S
H1556 C1542 0.960 . S
H1557 C1543 0.961 . S
H1558 C1543 0.961 . S
H1559 C1543 0.961 . S
H1560 C1544 0.931 . S
H1561 C1549 0.930 . S
H1562 C1550 0.956 . S
H1563 C1550 0.961 . S
H1564 C1550 0.961 . S
H1565 C1551 0.958 . S
H1566 C1551 0.961 . S
H1567 C1551 0.960 . S
C1568 C1569 1.391 . S
C1568 C1570 1.394 . S
C1568 H1584 0.931 . S
C1569 C1568 1.391 . S
C1569 C1573 1.376 . S
C1570 C1568 1.394 . S
C1570 C1571 1.369 . S
C1570 C1574 1.531 . S
C1571 C1570 1.369 . S
C1571 C1572 1.410 . S
C1571 C1579 1.503 . S
C1572 C1571 1.410 . S
C1572 C1573 1.392 . S
C1572 C1575 1.511 . S
C1573 C1569 1.376 . S
C1573 C1572 1.392 . S
C1573 H1585 0.929 . S
C1574 C1570 1.531 . S
C1574 H1586 0.960 . S
C1574 H1587 0.962 . S
C1574 H1588 0.960 . S
C1575 C1572 1.511 . S
C1575 H1589 0.961 . S
C1575 H1590 0.961 . S
C1575 H1591 0.961 . S
C1576 C1577 1.370 . S
C1576 C1578 1.363 . S
C1576 H1592 0.931 . S
C1577 C1576 1.370 . S
C1577 C1581 1.408 . S
C1578 C1576 1.363 . S
C1578 C1579 1.370 . S
C1578 C1582 1.524 . S
C1579 C1571 1.503 . S
C1579 C1578 1.370 . S
C1579 C1580 1.403 . S
C1580 C1579 1.403 . S
C1580 C1581 1.404 . S
C1580 C1583 1.539 . S
C1581 C1577 1.408 . S
C1581 C1580 1.404 . S
C1581 H1593 0.930 . S
C1582 C1578 1.524 . S
C1582 H1594 0.956 . S
C1582 H1595 0.961 . S
C1582 H1596 0.961 . S
C1583 C1580 1.539 . S
C1583 H1597 0.958 . S
C1583 H1598 0.961 . S
C1583 H1599 0.960 . S
H1584 C1568 0.931 . S
H1585 C1573 0.929 . S
H1586 C1574 0.960 . S
H1587 C1574 0.962 . S
H1588 C1574 0.960 . S
H1589 C1575 0.961 . S
H1590 C1575 0.961 . S
H1591 C1575 0.961 . S
H1592 C1576 0.931 . S
H1593 C1581 0.930 . S
H1594 C1582 0.956 . S
H1595 C1582 0.961 . S
H1596 C1582 0.961 . S
H1597 C1583 0.958 . S
H1598 C1583 0.961 . S
H1599 C1583 0.960 . S
C1600 C1601 1.391 . S
C1600 C1602 1.394 1_655 S
C1600 H1616 0.931 . S
C1601 C1600 1.391 . S
C1601 C1605 1.376 . S
C1602 C1600 1.394 1_455 S
C1602 C1603 1.369 . S
C1602 C1606 1.531 . S
C1603 C1602 1.369 . S
C1603 C1604 1.410 . S
C1603 C1611 1.503 . S
C1604 C1603 1.410 . S
C1604 C1605 1.392 1_455 S
C1604 C1607 1.511 . S
C1605 C1601 1.376 . S
C1605 C1604 1.392 1_655 S
C1605 H1617 0.929 . S
C1606 C1602 1.531 . S
C1606 H1618 0.960 . S
C1606 H1619 0.962 . S
C1606 H1620 0.960 . S
C1607 C1604 1.511 . S
C1607 H1621 0.961 1_455 S
C1607 H1622 0.961 . S
C1607 H1623 0.961 1_455 S
C1608 C1609 1.370 . S
C1608 C1610 1.363 . S
C1608 H1624 0.931 . S
C1609 C1608 1.370 . S
C1609 C1613 1.408 . S
C1610 C1608 1.363 . S
C1610 C1611 1.370 . S
C1610 C1614 1.524 . S
C1611 C1603 1.503 . S
C1611 C1610 1.370 . S
C1611 C1612 1.403 . S
C1612 C1611 1.403 . S
C1612 C1613 1.404 . S
C1612 C1615 1.539 . S
C1613 C1609 1.408 . S
C1613 C1612 1.404 . S
C1613 H1625 0.930 . S
C1614 C1610 1.524 . S
C1614 H1626 0.956 . S
C1614 H1627 0.961 . S
C1614 H1628 0.961 . S
C1615 C1612 1.539 . S
C1615 H1629 0.958 . S
C1615 H1630 0.961 . S
C1615 H1631 0.960 . S
H1616 C1600 0.931 . S
H1617 C1605 0.929 . S
H1618 C1606 0.960 . S
H1619 C1606 0.962 . S
H1620 C1606 0.960 . S
H1621 C1607 0.961 1_655 S
H1622 C1607 0.961 . S
H1623 C1607 0.961 1_655 S
H1624 C1608 0.931 . S
H1625 C1613 0.930 . S
H1626 C1614 0.956 . S
H1627 C1614 0.961 . S
H1628 C1614 0.961 . S
H1629 C1615 0.958 . S
H1630 C1615 0.961 . S
H1631 C1615 0.960 . S
C1632 C1633 1.391 . S
C1632 C1634 1.394 . S
C1632 H1648 0.931 . S
C1633 C1632 1.391 . S
C1633 C1637 1.376 . S
C1634 C1632 1.394 . S
C1634 C1635 1.369 . S
C1634 C1638 1.531 . S
C1635 C1634 1.369 . S
C1635 C1636 1.410 . S
C1635 C1643 1.503 . S
C1636 C1635 1.410 . S
C1636 C1637 1.392 . S
C1636 C1639 1.511 . S
C1637 C1633 1.376 . S
C1637 C1636 1.392 . S
C1637 H1649 0.929 . S
C1638 C1634 1.531 . S
C1638 H1650 0.960 . S
C1638 H1651 0.962 . S
C1638 H1652 0.960 . S
C1639 C1636 1.511 . S
C1639 H1653 0.961 . S
C1639 H1654 0.961 . S
C1639 H1655 0.961 . S
C1640 C1641 1.370 . S
C1640 C1642 1.363 . S
C1640 H1656 0.931 . S
C1641 C1640 1.370 . S
C1641 C1645 1.408 . S
C1642 C1640 1.363 . S
C1642 C1643 1.370 . S
C1642 C1646 1.524 . S
C1643 C1635 1.503 . S
C1643 C1642 1.370 . S
C1643 C1644 1.403 . S
C1644 C1643 1.403 . S
C1644 C1645 1.404 . S
C1644 C1647 1.539 . S
C1645 C1641 1.408 . S
C1645 C1644 1.404 . S
C1645 H1657 0.930 . S
C1646 C1642 1.524 . S
C1646 H1658 0.956 . S
C1646 H1659 0.961 . S
C1646 H1660 0.961 . S
C1647 C1644 1.539 . S
C1647 H1661 0.958 . S
C1647 H1662 0.961 . S
C1647 H1663 0.960 . S
H1648 C1632 0.931 . S
H1649 C1637 0.929 . S
H1650 C1638 0.960 . S
H1651 C1638 0.962 . S
H1652 C1638 0.960 . S
H1653 C1639 0.961 . S
H1654 C1639 0.961 . S
H1655 C1639 0.961 . S
H1656 C1640 0.931 . S
H1657 C1645 0.930 . S
H1658 C1646 0.956 . S
H1659 C1646 0.961 . S
H1660 C1646 0.961 . S
H1661 C1647 0.958 . S
H1662 C1647 0.961 . S
H1663 C1647 0.960 . S
C1664 C1665 1.391 . S
C1664 C1666 1.394 . S
C1664 H1680 0.931 . S
C1665 C1664 1.391 . S
C1665 C1669 1.376 . S
C1666 C1664 1.394 . S
C1666 C1667 1.369 . S
C1666 C1670 1.531 . S
C1667 C1666 1.369 . S
C1667 C1668 1.410 . S
C1667 C1675 1.503 . S
C1668 C1667 1.410 . S
C1668 C1669 1.392 . S
C1668 C1671 1.511 . S
C1669 C1665 1.376 . S
C1669 C1668 1.392 . S
C1669 H1681 0.929 . S
C1670 C1666 1.531 . S
C1670 H1682 0.960 . S
C1670 H1683 0.962 . S
C1670 H1684 0.960 . S
C1671 C1668 1.511 . S
C1671 H1685 0.961 . S
C1671 H1686 0.961 . S
C1671 H1687 0.961 . S
C1672 C1673 1.370 . S
C1672 C1674 1.363 . S
C1672 H1688 0.931 . S
C1673 C1672 1.370 . S
C1673 C1677 1.408 . S
C1674 C1672 1.363 . S
C1674 C1675 1.370 . S
C1674 C1678 1.524 . S
C1675 C1667 1.503 . S
C1675 C1674 1.370 . S
C1675 C1676 1.403 . S
C1676 C1675 1.403 . S
C1676 C1677 1.404 . S
C1676 C1679 1.539 . S
C1677 C1673 1.408 . S
C1677 C1676 1.404 . S
C1677 H1689 0.930 . S
C1678 C1674 1.524 . S
C1678 H1690 0.956 . S
C1678 H1691 0.961 . S
C1678 H1692 0.961 . S
C1679 C1676 1.539 . S
C1679 H1693 0.958 . S
C1679 H1694 0.961 . S
C1679 H1695 0.960 . S
H1680 C1664 0.931 . S
H1681 C1669 0.929 . S
H1682 C1670 0.960 . S
H1683 C1670 0.962 . S
H1684 C1670 0.960 . S
H1685 C1671 0.961 . S
H1686 C1671 0.961 . S
H1687 C1671 0.961 . S
H1688 C1672 0.931 . S
H1689 C1677 0.930 . S
H1690 C1678 0.956 . S
H1691 C1678 0.961 . S
H1692 C1678 0.961 . S
H1693 C1679 0.958 . S
H1694 C1679 0.961 . S
H1695 C1679 0.960 . S
C1696 C1697 1.391 . S
C1696 C1698 1.394 . S
C1696 H1712 0.931 . S
C1697 C1696 1.391 . S
C1697 C1701 1.376 . S
C1698 C1696 1.394 . S
C1698 C1699 1.369 . S
C1698 C1702 1.531 . S
C1699 C1698 1.369 . S
C1699 C1700 1.410 . S
C1699 C1707 1.503 . S
C1700 C1699 1.410 . S
C1700 C1701 1.392 . S
C1700 C1703 1.511 . S
C1701 C1697 1.376 . S
C1701 C1700 1.392 . S
C1701 H1713 0.929 . S
C1702 C1698 1.531 . S
C1702 H1714 0.960 . S
C1702 H1715 0.962 . S
C1702 H1716 0.960 . S
C1703 C1700 1.511 . S
C1703 H1717 0.961 . S
C1703 H1718 0.961 . S
C1703 H1719 0.961 . S
C1704 C1705 1.370 . S
C1704 C1706 1.363 . S
C1704 H1720 0.931 . S
C1705 C1704 1.370 . S
C1705 C1709 1.408 . S
C1706 C1704 1.363 . S
C1706 C1707 1.370 . S
C1706 C1710 1.524 . S
C1707 C1699 1.503 . S
C1707 C1706 1.370 . S
C1707 C1708 1.403 . S
C1708 C1707 1.403 . S
C1708 C1709 1.404 . S
C1708 C1711 1.539 . S
C1709 C1705 1.408 . S
C1709 C1708 1.404 . S
C1709 H1721 0.930 . S
C1710 C1706 1.524 . S
C1710 H1722 0.956 . S
C1710 H1723 0.961 . S
C1710 H1724 0.961 . S
C1711 C1708 1.539 . S
C1711 H1725 0.958 . S
C1711 H1726 0.961 . S
C1711 H1727 0.960 . S
H1712 C1696 0.931 . S
H1713 C1701 0.929 . S
H1714 C1702 0.960 . S
H1715 C1702 0.962 . S
H1716 C1702 0.960 . S
H1717 C1703 0.961 . S
H1718 C1703 0.961 . S
H1719 C1703 0.961 . S
H1720 C1704 0.931 . S
H1721 C1709 0.930 . S
H1722 C1710 0.956 . S
H1723 C1710 0.961 . S
H1724 C1710 0.961 . S
H1725 C1711 0.958 . S
H1726 C1711 0.961 . S
H1727 C1711 0.960 . S
C1728 C1729 1.391 . S
C1728 C1730 1.394 . S
C1728 H1744 0.931 . S
C1729 C1728 1.391 . S
C1729 C1733 1.376 . S
C1730 C1728 1.394 . S
C1730 C1731 1.369 . S
C1730 C1734 1.531 . S
C1731 C1730 1.369 . S
C1731 C1732 1.410 . S
C1731 C1739 1.503 . S
C1732 C1731 1.410 . S
C1732 C1733 1.392 . S
C1732 C1735 1.511 . S
C1733 C1729 1.376 . S
C1733 C1732 1.392 . S
C1733 H1745 0.929 . S
C1734 C1730 1.531 . S
C1734 H1746 0.960 . S
C1734 H1747 0.962 . S
C1734 H1748 0.960 . S
C1735 C1732 1.511 . S
C1735 H1749 0.961 . S
C1735 H1750 0.961 . S
C1735 H1751 0.961 . S
C1736 C1737 1.370 . S
C1736 C1738 1.363 . S
C1736 H1752 0.931 . S
C1737 C1736 1.370 . S
C1737 C1741 1.408 . S
C1738 C1736 1.363 . S
C1738 C1739 1.370 . S
C1738 C1742 1.524 . S
C1739 C1731 1.503 . S
C1739 C1738 1.370 . S
C1739 C1740 1.403 . S
C1740 C1739 1.403 . S
C1740 C1741 1.404 . S
C1740 C1743 1.539 . S
C1741 C1737 1.408 . S
C1741 C1740 1.404 . S
C1741 H1753 0.930 . S
C1742 C1738 1.524 . S
C1742 H1754 0.956 . S
C1742 H1755 0.961 . S
C1742 H1756 0.961 . S
C1743 C1740 1.539 . S
C1743 H1757 0.958 . S
C1743 H1758 0.961 . S
C1743 H1759 0.960 . S
H1744 C1728 0.931 . S
H1745 C1733 0.929 . S
H1746 C1734 0.960 . S
H1747 C1734 0.962 . S
H1748 C1734 0.960 . S
H1749 C1735 0.961 . S
H1750 C1735 0.961 . S
H1751 C1735 0.961 . S
H1752 C1736 0.931 . S
H1753 C1741 0.930 . S
H1754 C1742 0.956 . S
H1755 C1742 0.961 . S
H1756 C1742 0.961 . S
H1757 C1743 0.958 . S
H1758 C1743 0.961 . S
H1759 C1743 0.960 . S
C1760 C1761 1.391 . S
C1760 C1762 1.394 . S
C1760 H1776 0.931 . S
C1761 C1760 1.391 . S
C1761 C1765 1.376 . S
C1762 C1760 1.394 . S
C1762 C1763 1.369 . S
C1762 C1766 1.531 . S
C1763 C1762 1.369 . S
C1763 C1764 1.410 . S
C1763 C1771 1.503 . S
C1764 C1763 1.410 . S
C1764 C1765 1.392 . S
C1764 C1767 1.511 . S
C1765 C1761 1.376 . S
C1765 C1764 1.392 . S
C1765 H1777 0.929 . S
C1766 C1762 1.531 . S
C1766 H1778 0.960 . S
C1766 H1779 0.962 . S
C1766 H1780 0.960 . S
C1767 C1764 1.511 . S
C1767 H1781 0.961 . S
C1767 H1782 0.961 . S
C1767 H1783 0.961 . S
C1768 C1769 1.370 . S
C1768 C1770 1.363 . S
C1768 H1784 0.931 . S
C1769 C1768 1.370 . S
C1769 C1773 1.408 . S
C1770 C1768 1.363 . S
C1770 C1771 1.370 . S
C1770 C1774 1.524 . S
C1771 C1763 1.503 . S
C1771 C1770 1.370 . S
C1771 C1772 1.403 . S
C1772 C1771 1.403 . S
C1772 C1773 1.404 . S
C1772 C1775 1.539 . S
C1773 C1769 1.408 . S
C1773 C1772 1.404 . S
C1773 H1785 0.930 . S
C1774 C1770 1.524 . S
C1774 H1786 0.956 . S
C1774 H1787 0.961 . S
C1774 H1788 0.961 . S
C1775 C1772 1.539 . S
C1775 H1789 0.958 . S
C1775 H1790 0.961 . S
C1775 H1791 0.960 . S
H1776 C1760 0.931 . S
H1777 C1765 0.929 . S
H1778 C1766 0.960 . S
H1779 C1766 0.962 . S
H1780 C1766 0.960 . S
H1781 C1767 0.961 . S
H1782 C1767 0.961 . S
H1783 C1767 0.961 . S
H1784 C1768 0.931 . S
H1785 C1773 0.930 . S
H1786 C1774 0.956 . S
H1787 C1774 0.961 . S
H1788 C1774 0.961 . S
H1789 C1775 0.958 . S
H1790 C1775 0.961 . S
H1791 C1775 0.960 . S
C1792 C1793 1.391 . S
C1792 C1794 1.394 . S
C1792 H1808 0.931 . S
C1793 C1792 1.391 . S
C1793 C1797 1.376 . S
C1794 C1792 1.394 . S
C1794 C1795 1.369 . S
C1794 C1798 1.531 . S
C1795 C1794 1.369 . S
C1795 C1796 1.410 . S
C1795 C1803 1.503 . S
C1796 C1795 1.410 . S
C1796 C1797 1.392 . S
C1796 C1799 1.511 . S
C1797 C1793 1.376 . S
C1797 C1796 1.392 . S
C1797 H1809 0.929 . S
C1798 C1794 1.531 . S
C1798 H1810 0.960 . S
C1798 H1811 0.962 . S
C1798 H1812 0.960 . S
C1799 C1796 1.511 . S
C1799 H1813 0.961 . S
C1799 H1814 0.961 . S
C1799 H1815 0.961 . S
C1800 C1801 1.370 . S
C1800 C1802 1.363 1_455 S
C1800 H1816 0.931 . S
C1801 C1800 1.370 . S
C1801 C1805 1.408 . S
C1802 C1800 1.363 1_655 S
C1802 C1803 1.370 . S
C1802 C1806 1.524 . S
C1803 C1795 1.503 . S
C1803 C1802 1.370 . S
C1803 C1804 1.403 . S
C1804 C1803 1.403 . S
C1804 C1805 1.404 1_655 S
C1804 C1807 1.539 . S
C1805 C1801 1.408 . S
C1805 C1804 1.404 1_455 S
C1805 H1817 0.930 . S
C1806 C1802 1.524 . S
C1806 H1818 0.956 . S
C1806 H1819 0.961 . S
C1806 H1820 0.961 . S
C1807 C1804 1.539 . S
C1807 H1821 0.958 . S
C1807 H1822 0.961 . S
C1807 H1823 0.960 . S
H1808 C1792 0.931 . S
H1809 C1797 0.929 . S
H1810 C1798 0.960 . S
H1811 C1798 0.962 . S
H1812 C1798 0.960 . S
H1813 C1799 0.961 . S
H1814 C1799 0.961 . S
H1815 C1799 0.961 . S
H1816 C1800 0.931 . S
H1817 C1805 0.930 . S
H1818 C1806 0.956 . S
H1819 C1806 0.961 . S
H1820 C1806 0.961 . S
H1821 C1807 0.958 . S
H1822 C1807 0.961 . S
H1823 C1807 0.960 . S
C1824 C1825 1.391 . S
C1824 C1826 1.394 . S
C1824 H1840 0.931 . S
C1825 C1824 1.391 . S
C1825 C1829 1.376 . S
C1826 C1824 1.394 . S
C1826 C1827 1.369 . S
C1826 C1830 1.531 . S
C1827 C1826 1.369 . S
C1827 C1828 1.410 . S
C1827 C1835 1.503 . S
C1828 C1827 1.410 . S
C1828 C1829 1.392 . S
C1828 C1831 1.511 . S
C1829 C1825 1.376 . S
C1829 C1828 1.392 . S
C1829 H1841 0.929 . S
C1830 C1826 1.531 . S
C1830 H1842 0.960 . S
C1830 H1843 0.962 . S
C1830 H1844 0.960 . S
C1831 C1828 1.511 . S
C1831 H1845 0.961 . S
C1831 H1846 0.961 . S
C1831 H1847 0.961 . S
C1832 C1833 1.370 . S
C1832 C1834 1.363 . S
C1832 H1848 0.931 . S
C1833 C1832 1.370 . S
C1833 C1837 1.408 . S
C1834 C1832 1.363 . S
C1834 C1835 1.370 . S
C1834 C1838 1.524 . S
C1835 C1827 1.503 . S
C1835 C1834 1.370 . S
C1835 C1836 1.403 . S
C1836 C1835 1.403 . S
C1836 C1837 1.404 . S
C1836 C1839 1.539 . S
C1837 C1833 1.408 . S
C1837 C1836 1.404 . S
C1837 H1849 0.930 . S
C1838 C1834 1.524 . S
C1838 H1850 0.956 . S
C1838 H1851 0.961 . S
C1838 H1852 0.961 . S
C1839 C1836 1.539 . S
C1839 H1853 0.958 . S
C1839 H1854 0.961 . S
C1839 H1855 0.960 . S
H1840 C1824 0.931 . S
H1841 C1829 0.929 . S
H1842 C1830 0.960 . S
H1843 C1830 0.962 . S
H1844 C1830 0.960 . S
H1845 C1831 0.961 . S
H1846 C1831 0.961 . S
H1847 C1831 0.961 . S
H1848 C1832 0.931 . S
H1849 C1837 0.930 . S
H1850 C1838 0.956 . S
H1851 C1838 0.961 . S
H1852 C1838 0.961 . S
H1853 C1839 0.958 . S
H1854 C1839 0.961 . S
H1855 C1839 0.960 . S
C1856 C1857 1.391 . S
C1856 C1858 1.394 1_455 S
C1856 H1872 0.931 . S
C1857 C1856 1.391 . S
C1857 C1861 1.376 . S
C1858 C1856 1.394 1_655 S
C1858 C1859 1.369 . S
C1858 C1862 1.531 . S
C1859 C1858 1.369 . S
C1859 C1860 1.410 . S
C1859 C1867 1.503 . S
C1860 C1859 1.410 . S
C1860 C1861 1.392 1_655 S
C1860 C1863 1.511 . S
C1861 C1857 1.376 . S
C1861 C1860 1.392 1_455 S
C1861 H1873 0.929 . S
C1862 C1858 1.531 . S
C1862 H1874 0.960 . S
C1862 H1875 0.962 . S
C1862 H1876 0.960 . S
C1863 C1860 1.511 . S
C1863 H1877 0.961 . S
C1863 H1878 0.961 . S
C1863 H1879 0.961 . S
C1864 C1865 1.370 . S
C1864 C1866 1.363 . S
C1864 H1880 0.931 . S
C1865 C1864 1.370 . S
C1865 C1869 1.408 . S
C1866 C1864 1.363 . S
C1866 C1867 1.370 . S
C1866 C1870 1.524 . S
C1867 C1859 1.503 . S
C1867 C1866 1.370 . S
C1867 C1868 1.403 . S
C1868 C1867 1.403 . S
C1868 C1869 1.404 . S
C1868 C1871 1.539 . S
C1869 C1865 1.408 . S
C1869 C1868 1.404 . S
C1869 H1881 0.930 . S
C1870 C1866 1.524 . S
C1870 H1882 0.956 . S
C1870 H1883 0.961 . S
C1870 H1884 0.961 . S
C1871 C1868 1.539 . S
C1871 H1885 0.958 . S
C1871 H1886 0.961 . S
C1871 H1887 0.960 . S
H1872 C1856 0.931 . S
H1873 C1861 0.929 . S
H1874 C1862 0.960 . S
H1875 C1862 0.962 . S
H1876 C1862 0.960 . S
H1877 C1863 0.961 . S
H1878 C1863 0.961 . S
H1879 C1863 0.961 . S
H1880 C1864 0.931 . S
H1881 C1869 0.930 . S
H1882 C1870 0.956 . S
H1883 C1870 0.961 . S
H1884 C1870 0.961 . S
H1885 C1871 0.958 . S
H1886 C1871 0.961 . S
H1887 C1871 0.960 . S
C1888 C1889 1.391 . S
C1888 C1890 1.394 . S
C1888 H1904 0.931 . S
C1889 C1888 1.391 . S
C1889 C1893 1.376 . S
C1890 C1888 1.394 . S
C1890 C1891 1.369 . S
C1890 C1894 1.531 . S
C1891 C1890 1.369 . S
C1891 C1892 1.410 . S
C1891 C1899 1.503 . S
C1892 C1891 1.410 . S
C1892 C1893 1.392 . S
C1892 C1895 1.511 . S
C1893 C1889 1.376 . S
C1893 C1892 1.392 . S
C1893 H1905 0.929 . S
C1894 C1890 1.531 . S
C1894 H1906 0.960 . S
C1894 H1907 0.962 . S
C1894 H1908 0.960 . S
C1895 C1892 1.511 . S
C1895 H1909 0.961 . S
C1895 H1910 0.961 . S
C1895 H1911 0.961 . S
C1896 C1897 1.370 . S
C1896 C1898 1.363 . S
C1896 H1912 0.931 . S
C1897 C1896 1.370 . S
C1897 C1901 1.408 . S
C1898 C1896 1.363 . S
C1898 C1899 1.370 . S
C1898 C1902 1.524 . S
C1899 C1891 1.503 . S
C1899 C1898 1.370 . S
C1899 C1900 1.403 . S
C1900 C1899 1.403 . S
C1900 C1901 1.404 . S
C1900 C1903 1.539 . S
C1901 C1897 1.408 . S
C1901 C1900 1.404 . S
C1901 H1913 0.930 . S
C1902 C1898 1.524 . S
C1902 H1914 0.956 . S
C1902 H1915 0.961 . S
C1902 H1916 0.961 . S
C1903 C1900 1.539 . S
C1903 H1917 0.958 . S
C1903 H1918 0.961 . S
C1903 H1919 0.960 . S
H1904 C1888 0.931 . S
H1905 C1893 0.929 . S
H1906 C1894 0.960 . S
H1907 C1894 0.962 . S
H1908 C1894 0.960 . S
H1909 C1895 0.961 . S
H1910 C1895 0.961 . S
H1911 C1895 0.961 . S
H1912 C1896 0.931 . S
H1913 C1901 0.930 . S
H1914 C1902 0.956 . S
H1915 C1902 0.961 . S
H1916 C1902 0.961 . S
H1917 C1903 0.958 . S
H1918 C1903 0.961 . S
H1919 C1903 0.960 . S
C1920 C1921 1.391 . S
C1920 C1922 1.394 . S
C1920 H1936 0.931 . S
C1921 C1920 1.391 . S
C1921 C1925 1.376 . S
C1922 C1920 1.394 . S
C1922 C1923 1.369 . S
C1922 C1926 1.531 . S
C1923 C1922 1.369 . S
C1923 C1924 1.410 . S
C1923 C1931 1.503 . S
C1924 C1923 1.410 . S
C1924 C1925 1.392 . S
C1924 C1927 1.511 . S
C1925 C1921 1.376 . S
C1925 C1924 1.392 . S
C1925 H1937 0.929 . S
C1926 C1922 1.531 . S
C1926 H1938 0.960 . S
C1926 H1939 0.962 . S
C1926 H1940 0.960 . S
C1927 C1924 1.511 . S
C1927 H1941 0.961 . S
C1927 H1942 0.961 . S
C1927 H1943 0.961 . S
C1928 C1929 1.370 . S
C1928 C1930 1.363 . S
C1928 H1944 0.931 . S
C1929 C1928 1.370 . S
C1929 C1933 1.408 . S
C1930 C1928 1.363 . S
C1930 C1931 1.370 . S
C1930 C1934 1.524 . S
C1931 C1923 1.503 . S
C1931 C1930 1.370 . S
C1931 C1932 1.403 . S
C1932 C1931 1.403 . S
C1932 C1933 1.404 . S
C1932 C1935 1.539 . S
C1933 C1929 1.408 . S
C1933 C1932 1.404 . S
C1933 H1945 0.930 . S
C1934 C1930 1.524 . S
C1934 H1946 0.956 . S
C1934 H1947 0.961 . S
C1934 H1948 0.961 . S
C1935 C1932 1.539 . S
C1935 H1949 0.958 . S
C1935 H1950 0.961 . S
C1935 H1951 0.960 . S
H1936 C1920 0.931 . S
H1937 C1925 0.929 . S
H1938 C1926 0.960 . S
H1939 C1926 0.962 . S
H1940 C1926 0.960 . S
H1941 C1927 0.961 . S
H1942 C1927 0.961 . S
H1943 C1927 0.961 . S
H1944 C1928 0.931 . S
H1945 C1933 0.930 . S
H1946 C1934 0.956 . S
H1947 C1934 0.961 . S
H1948 C1934 0.961 . S
H1949 C1935 0.958 . S
H1950 C1935 0.961 . S
H1951 C1935 0.960 . S
C1952 C1953 1.391 . S
C1952 C1954 1.394 . S
C1952 H1968 0.931 . S
C1953 C1952 1.391 . S
C1953 C1957 1.376 . S
C1954 C1952 1.394 . S
C1954 C1955 1.369 . S
C1954 C1958 1.531 . S
C1955 C1954 1.369 . S
C1955 C1956 1.410 . S
C1955 C1963 1.503 . S
C1956 C1955 1.410 . S
C1956 C1957 1.392 . S
C1956 C1959 1.511 . S
C1957 C1953 1.376 . S
C1957 C1956 1.392 . S
C1957 H1969 0.929 . S
C1958 C1954 1.531 . S
C1958 H1970 0.960 . S
C1958 H1971 0.962 . S
C1958 H1972 0.960 . S
C1959 C1956 1.511 . S
C1959 H1973 0.961 . S
C1959 H1974 0.961 . S
C1959 H1975 0.961 . S
C1960 C1961 1.370 . S
C1960 C1962 1.363 . S
C1960 H1976 0.931 . S
C1961 C1960 1.370 . S
C1961 C1965 1.408 . S
C1962 C1960 1.363 . S
C1962 C1963 1.370 . S
C1962 C1966 1.524 . S
C1963 C1955 1.503 . S
C1963 C1962 1.370 . S
C1963 C1964 1.403 . S
C1964 C1963 1.403 . S
C1964 C1965 1.404 . S
C1964 C1967 1.539 . S
C1965 C1961 1.408 . S
C1965 C1964 1.404 . S
C1965 H1977 0.930 . S
C1966 C1962 1.524 . S
C1966 H1978 0.956 . S
C1966 H1979 0.961 . S
C1966 H1980 0.961 . S
C1967 C1964 1.539 . S
C1967 H1981 0.958 . S
C1967 H1982 0.961 . S
C1967 H1983 0.960 . S
H1968 C1952 0.931 . S
H1969 C1957 0.929 . S
H1970 C1958 0.960 . S
H1971 C1958 0.962 . S
H1972 C1958 0.960 . S
H1973 C1959 0.961 . S
H1974 C1959 0.961 . S
H1975 C1959 0.961 . S
H1976 C1960 0.931 . S
H1977 C1965 0.930 . S
H1978 C1966 0.956 . S
H1979 C1966 0.961 . S
H1980 C1966 0.961 . S
H1981 C1967 0.958 . S
H1982 C1967 0.961 . S
H1983 C1967 0.960 . S
C1984 C1985 1.391 . S
C1984 C1986 1.394 . S
C1984 H2000 0.931 . S
C1985 C1984 1.391 . S
C1985 C1989 1.376 . S
C1986 C1984 1.394 . S
C1986 C1987 1.369 . S
C1986 C1990 1.531 . S
C1987 C1986 1.369 . S
C1987 C1988 1.410 . S
C1987 C1995 1.503 . S
C1988 C1987 1.410 . S
C1988 C1989 1.392 . S
C1988 C1991 1.511 . S
C1989 C1985 1.376 . S
C1989 C1988 1.392 . S
C1989 H2001 0.929 . S
C1990 C1986 1.531 . S
C1990 H2002 0.960 . S
C1990 H2003 0.962 . S
C1990 H2004 0.960 . S
C1991 C1988 1.511 . S
C1991 H2005 0.961 . S
C1991 H2006 0.961 . S
C1991 H2007 0.961 . S
C1992 C1993 1.370 . S
C1992 C1994 1.363 . S
C1992 H2008 0.931 . S
C1993 C1992 1.370 . S
C1993 C1997 1.408 . S
C1994 C1992 1.363 . S
C1994 C1995 1.370 . S
C1994 C1998 1.524 . S
C1995 C1987 1.503 . S
C1995 C1994 1.370 . S
C1995 C1996 1.403 . S
C1996 C1995 1.403 . S
C1996 C1997 1.404 . S
C1996 C1999 1.539 . S
C1997 C1993 1.408 . S
C1997 C1996 1.404 . S
C1997 H2009 0.930 . S
C1998 C1994 1.524 . S
C1998 H2010 0.956 . S
C1998 H2011 0.961 . S
C1998 H2012 0.961 . S
C1999 C1996 1.539 . S
C1999 H2013 0.958 . S
C1999 H2014 0.961 . S
C1999 H2015 0.960 . S
H2000 C1984 0.931 . S
H2001 C1989 0.929 . S
H2002 C1990 0.960 . S
H2003 C1990 0.962 . S
H2004 C1990 0.960 . S
H2005 C1991 0.961 . S
H2006 C1991 0.961 . S
H2007 C1991 0.961 . S
H2008 C1992 0.931 . S
H2009 C1997 0.930 . S
H2010 C1998 0.956 . S
H2011 C1998 0.961 . S
H2012 C1998 0.961 . S
H2013 C1999 0.958 . S
H2014 C1999 0.961 . S
H2015 C1999 0.960 . S
C2016 C2017 1.391 . S
C2016 C2018 1.394 . S
C2016 H2032 0.931 . S
C2017 C2016 1.391 . S
C2017 C2021 1.376 . S
C2018 C2016 1.394 . S
C2018 C2019 1.369 . S
C2018 C2022 1.531 . S
C2019 C2018 1.369 . S
C2019 C2020 1.410 . S
C2019 C2027 1.503 . S
C2020 C2019 1.410 . S
C2020 C2021 1.392 . S
C2020 C2023 1.511 . S
C2021 C2017 1.376 . S
C2021 C2020 1.392 . S
C2021 H2033 0.929 . S
C2022 C2018 1.531 . S
C2022 H2034 0.960 . S
C2022 H2035 0.962 . S
C2022 H2036 0.960 . S
C2023 C2020 1.511 . S
C2023 H2037 0.961 . S
C2023 H2038 0.961 . S
C2023 H2039 0.961 . S
C2024 C2025 1.370 . S
C2024 C2026 1.363 . S
C2024 H2040 0.931 . S
C2025 C2024 1.370 . S
C2025 C2029 1.408 . S
C2026 C2024 1.363 . S
C2026 C2027 1.370 . S
C2026 C2030 1.524 . S
C2027 C2019 1.503 . S
C2027 C2026 1.370 . S
C2027 C2028 1.403 . S
C2028 C2027 1.403 . S
C2028 C2029 1.404 . S
C2028 C2031 1.539 . S
C2029 C2025 1.408 . S
C2029 C2028 1.404 . S
C2029 H2041 0.930 . S
C2030 C2026 1.524 . S
C2030 H2042 0.956 . S
C2030 H2043 0.961 . S
C2030 H2044 0.961 . S
C2031 C2028 1.539 . S
C2031 H2045 0.958 . S
C2031 H2046 0.961 . S
C2031 H2047 0.960 . S
H2032 C2016 0.931 . S
H2033 C2021 0.929 . S
H2034 C2022 0.960 . S
H2035 C2022 0.962 . S
H2036 C2022 0.960 . S
H2037 C2023 0.961 . S
H2038 C2023 0.961 . S
H2039 C2023 0.961 . S
H2040 C2024 0.931 . S
H2041 C2029 0.930 . S
H2042 C2030 0.956 . S
H2043 C2030 0.961 . S
H2044 C2030 0.961 . S
H2045 C2031 0.958 . S
H2046 C2031 0.961 . S
H2047 C2031 0.960 . S
C2048 C2049 1.391 . S
C2048 C2050 1.394 . S
C2048 H2064 0.931 . S
C2049 C2048 1.391 . S
C2049 C2053 1.376 . S
C2050 C2048 1.394 . S
C2050 C2051 1.369 . S
C2050 C2054 1.531 . S
C2051 C2050 1.369 . S
C2051 C2052 1.410 1_556 S
C2051 C2059 1.503 1_556 S
C2052 C2051 1.410 1_554 S
C2052 C2053 1.392 1_554 S
C2052 C2055 1.511 . S
C2053 C2049 1.376 . S
C2053 C2052 1.392 1_556 S
C2053 H2065 0.929 1_556 S
C2054 C2050 1.531 . S
C2054 H2066 0.960 . S
C2054 H2067 0.962 . S
C2054 H2068 0.960 . S
C2055 C2052 1.511 . S
C2055 H2069 0.961 . S
C2055 H2070 0.961 . S
C2055 H2071 0.961 . S
C2056 C2057 1.370 . S
C2056 C2058 1.363 . S
C2056 H2072 0.931 . S
C2057 C2056 1.370 . S
C2057 C2061 1.408 . S
C2058 C2056 1.363 . S
C2058 C2059 1.370 . S
C2058 C2062 1.524 . S
C2059 C2051 1.503 1_554 S
C2059 C2058 1.370 . S
C2059 C2060 1.403 1_554 S
C2060 C2059 1.403 1_556 S
C2060 C2061 1.404 1_556 S
C2060 C2063 1.539 . S
C2061 C2057 1.408 . S
C2061 C2060 1.404 1_554 S
C2061 H2073 0.925 1_554 S
C2062 C2058 1.524 . S
C2062 H2074 0.956 . S
C2062 H2075 0.961 . S
C2062 H2076 0.961 . S
C2063 C2060 1.539 . S
C2063 H2077 0.958 . S
C2063 H2078 0.961 . S
C2063 H2079 0.960 . S
H2064 C2048 0.931 . S
H2065 C2053 0.929 1_554 S
H2066 C2054 0.960 . S
H2067 C2054 0.962 . S
H2068 C2054 0.960 . S
H2069 C2055 0.961 . S
H2070 C2055 0.961 . S
H2071 C2055 0.961 . S
H2072 C2056 0.931 . S
H2073 C2061 0.925 1_556 S
H2074 C2062 0.956 . S
H2075 C2062 0.961 . S
H2076 C2062 0.961 . S
H2077 C2063 0.958 . S
H2078 C2063 0.961 . S
H2079 C2063 0.960 . S
C2080 C2081 1.391 . S
C2080 C2082 1.394 . S
C2080 H2096 0.931 . S
C2081 C2080 1.391 . S
C2081 C2085 1.376 . S
C2082 C2080 1.394 . S
C2082 C2083 1.369 . S
C2082 C2086 1.531 . S
C2083 C2082 1.369 . S
C2083 C2084 1.410 . S
C2083 C2091 1.503 . S
C2084 C2083 1.410 . S
C2084 C2085 1.392 . S
C2084 C2087 1.511 . S
C2085 C2081 1.376 . S
C2085 C2084 1.392 . S
C2085 H2097 0.929 . S
C2086 C2082 1.531 . S
C2086 H2098 0.960 . S
C2086 H2099 0.962 . S
C2086 H2100 0.960 . S
C2087 C2084 1.511 . S
C2087 H2101 0.961 . S
C2087 H2102 0.961 . S
C2087 H2103 0.961 . S
C2088 C2089 1.370 . S
C2088 C2090 1.363 . S
C2088 H2104 0.931 . S
C2089 C2088 1.370 . S
C2089 C2093 1.408 . S
C2090 C2088 1.363 . S
C2090 C2091 1.370 . S
C2090 C2094 1.524 . S
C2091 C2083 1.503 . S
C2091 C2090 1.370 . S
C2091 C2092 1.403 . S
C2092 C2091 1.403 . S
C2092 C2093 1.404 . S
C2092 C2095 1.539 . S
C2093 C2089 1.408 . S
C2093 C2092 1.404 . S
C2093 H2105 0.930 . S
C2094 C2090 1.524 . S
C2094 H2106 0.956 . S
C2094 H2107 0.961 . S
C2094 H2108 0.961 . S
C2095 C2092 1.539 . S
C2095 H2109 0.958 . S
C2095 H2110 0.961 . S
C2095 H2111 0.960 . S
H2096 C2080 0.931 . S
H2097 C2085 0.929 . S
H2098 C2086 0.960 . S
H2099 C2086 0.962 . S
H2100 C2086 0.960 . S
H2101 C2087 0.961 . S
H2102 C2087 0.961 . S
H2103 C2087 0.961 . S
H2104 C2088 0.931 . S
H2105 C2093 0.930 . S
H2106 C2094 0.956 . S
H2107 C2094 0.961 . S
H2108 C2094 0.961 . S
H2109 C2095 0.958 . S
H2110 C2095 0.961 . S
H2111 C2095 0.960 . S
C2112 C2113 1.391 . S
C2112 C2114 1.394 . S
C2112 H2128 0.931 . S
C2113 C2112 1.391 . S
C2113 C2117 1.376 . S
C2114 C2112 1.394 . S
C2114 C2115 1.369 . S
C2114 C2118 1.531 . S
C2115 C2114 1.369 . S
C2115 C2116 1.410 . S
C2115 C2123 1.503 . S
C2116 C2115 1.410 . S
C2116 C2117 1.392 . S
C2116 C2119 1.511 . S
C2117 C2113 1.376 . S
C2117 C2116 1.392 . S
C2117 H2129 0.929 . S
C2118 C2114 1.531 . S
C2118 H2130 0.960 . S
C2118 H2131 0.962 . S
C2118 H2132 0.960 . S
C2119 C2116 1.511 . S
C2119 H2133 0.961 . S
C2119 H2134 0.961 . S
C2119 H2135 0.961 . S
C2120 C2121 1.370 . S
C2120 C2122 1.363 . S
C2120 H2136 0.931 . S
C2121 C2120 1.370 . S
C2121 C2125 1.408 . S
C2122 C2120 1.363 . S
C2122 C2123 1.370 . S
C2122 C2126 1.524 . S
C2123 C2115 1.503 . S
C2123 C2122 1.370 . S
C2123 C2124 1.403 . S
C2124 C2123 1.403 . S
C2124 C2125 1.404 . S
C2124 C2127 1.539 . S
C2125 C2121 1.408 . S
C2125 C2124 1.404 . S
C2125 H2137 0.930 . S
C2126 C2122 1.524 . S
C2126 H2138 0.956 . S
C2126 H2139 0.961 . S
C2126 H2140 0.961 . S
C2127 C2124 1.539 . S
C2127 H2141 0.958 . S
C2127 H2142 0.961 . S
C2127 H2143 0.960 . S
H2128 C2112 0.931 . S
H2129 C2117 0.929 . S
H2130 C2118 0.960 . S
H2131 C2118 0.962 . S
H2132 C2118 0.960 . S
H2133 C2119 0.961 . S
H2134 C2119 0.961 . S
H2135 C2119 0.961 . S
H2136 C2120 0.931 . S
H2137 C2125 0.930 . S
H2138 C2126 0.956 . S
H2139 C2126 0.961 . S
H2140 C2126 0.961 . S
H2141 C2127 0.958 . S
H2142 C2127 0.961 . S
H2143 C2127 0.960 . S
C2144 C2145 1.391 . S
C2144 C2146 1.394 . S
C2144 H2160 0.931 . S
C2145 C2144 1.391 . S
C2145 C2149 1.376 . S
C2146 C2144 1.394 . S
C2146 C2147 1.369 . S
C2146 C2150 1.531 . S
C2147 C2146 1.369 . S
C2147 C2148 1.410 . S
C2147 C2155 1.503 . S
C2148 C2147 1.410 . S
C2148 C2149 1.392 . S
C2148 C2151 1.511 . S
C2149 C2145 1.376 . S
C2149 C2148 1.392 . S
C2149 H2161 0.929 . S
C2150 C2146 1.531 . S
C2150 H2162 0.960 . S
C2150 H2163 0.962 . S
C2150 H2164 0.960 . S
C2151 C2148 1.511 . S
C2151 H2165 0.961 . S
C2151 H2166 0.961 . S
C2151 H2167 0.961 . S
C2152 C2153 1.370 . S
C2152 C2154 1.363 . S
C2152 H2168 0.931 . S
C2153 C2152 1.370 . S
C2153 C2157 1.408 . S
C2154 C2152 1.363 . S
C2154 C2155 1.370 . S
C2154 C2158 1.524 . S
C2155 C2147 1.503 . S
C2155 C2154 1.370 . S
C2155 C2156 1.403 . S
C2156 C2155 1.403 . S
C2156 C2157 1.404 . S
C2156 C2159 1.539 . S
C2157 C2153 1.408 . S
C2157 C2156 1.404 . S
C2157 H2169 0.930 . S
C2158 C2154 1.524 . S
C2158 H2170 0.956 . S
C2158 H2171 0.961 . S
C2158 H2172 0.961 . S
C2159 C2156 1.539 . S
C2159 H2173 0.958 . S
C2159 H2174 0.961 . S
C2159 H2175 0.960 . S
H2160 C2144 0.931 . S
H2161 C2149 0.929 . S
H2162 C2150 0.960 . S
H2163 C2150 0.962 . S
H2164 C2150 0.960 . S
H2165 C2151 0.961 . S
H2166 C2151 0.961 . S
H2167 C2151 0.961 . S
H2168 C2152 0.931 . S
H2169 C2157 0.930 . S
H2170 C2158 0.956 . S
H2171 C2158 0.961 . S
H2172 C2158 0.961 . S
H2173 C2159 0.958 . S
H2174 C2159 0.961 . S
H2175 C2159 0.960 . S
C2176 C2177 1.391 . S
C2176 C2178 1.394 . S
C2176 H2192 0.931 . S
C2177 C2176 1.391 . S
C2177 C2181 1.376 1_554 S
C2178 C2176 1.394 . S
C2178 C2179 1.369 . S
C2178 C2182 1.531 . S
C2179 C2178 1.369 . S
C2179 C2180 1.410 1_554 S
C2179 C2187 1.503 1_554 S
C2180 C2179 1.410 1_556 S
C2180 C2181 1.392 . S
C2180 C2183 1.511 . S
C2181 C2177 1.376 1_556 S
C2181 C2180 1.392 . S
C2181 H2193 0.929 . S
C2182 C2178 1.531 . S
C2182 H2194 0.960 . S
C2182 H2195 0.962 . S
C2182 H2196 0.960 . S
C2183 C2180 1.511 . S
C2183 H2197 0.961 . S
C2183 H2198 0.961 . S
C2183 H2199 0.961 . S
C2184 C2185 1.370 . S
C2184 C2186 1.363 . S
C2184 H2200 0.931 . S
C2185 C2184 1.370 . S
C2185 C2189 1.408 . S
C2186 C2184 1.363 . S
C2186 C2187 1.370 . S
C2186 C2190 1.524 . S
C2187 C2179 1.503 1_556 S
C2187 C2186 1.370 . S
C2187 C2188 1.403 1_556 S
C2188 C2187 1.403 1_554 S
C2188 C2189 1.404 1_554 S
C2188 C2191 1.539 . S
C2189 C2185 1.408 . S
C2189 C2188 1.404 1_556 S
C2189 H2201 0.930 . S
C2190 C2186 1.524 . S
C2190 H2202 0.956 . S
C2190 H2203 0.961 . S
C2190 H2204 0.961 . S
C2191 C2188 1.539 . S
C2191 H2205 0.958 . S
C2191 H2206 0.961 . S
C2191 H2207 0.960 . S
H2192 C2176 0.931 . S
H2193 C2181 0.929 . S
H2194 C2182 0.960 . S
H2195 C2182 0.962 . S
H2196 C2182 0.960 . S
H2197 C2183 0.961 . S
H2198 C2183 0.961 . S
H2199 C2183 0.961 . S
H2200 C2184 0.931 . S
H2201 C2189 0.930 . S
H2202 C2190 0.956 . S
H2203 C2190 0.961 . S
H2204 C2190 0.961 . S
H2205 C2191 0.958 . S
H2206 C2191 0.961 . S
H2207 C2191 0.960 . S
C2208 C2209 1.391 . S
C2208 C2210 1.394 . S
C2208 H2224 0.931 . S
C2209 C2208 1.391 . S
C2209 C2213 1.376 . S
C2210 C2208 1.394 . S
C2210 C2211 1.369 . S
C2210 C2214 1.531 . S
C2211 C2210 1.369 . S
C2211 C2212 1.410 . S
C2211 C2219 1.503 1_565 S
C2212 C2211 1.410 . S
C2212 C2213 1.392 . S
C2212 C2215 1.544 . S
C2213 C2209 1.376 . S
C2213 C2212 1.392 . S
C2213 H2225 0.929 . S
C2214 C2210 1.531 . S
C2214 H2226 0.960 . S
C2214 H2227 0.962 . S
C2214 H2228 0.960 . S
C2215 C2212 1.544 . S
C2215 H2229 0.973 . S
C2215 H2230 0.918 1_565 S
C2215 H2231 0.960 . S
C2216 C2217 1.370 . S
C2216 C2218 1.363 . S
C2216 H2232 0.931 . S
C2217 C2216 1.370 . S
C2217 C2221 1.408 . S
C2218 C2216 1.363 . S
C2218 C2219 1.370 . S
C2218 C2222 1.524 . S
C2219 C2211 1.503 1_545 S
C2219 C2218 1.370 . S
C2219 C2220 1.403 . S
C2220 C2219 1.403 . S
C2220 C2221 1.404 . S
C2220 C2223 1.539 . S
C2221 C2217 1.408 . S
C2221 C2220 1.404 . S
C2221 H2233 0.930 . S
C2222 C2218 1.524 . S
C2222 H2234 0.956 . S
C2222 H2235 0.961 . S
C2222 H2236 0.961 . S
C2223 C2220 1.539 . S
C2223 H2237 0.939 1_545 S
C2223 H2238 0.961 . S
C2223 H2239 0.960 1_545 S
H2224 C2208 0.931 . S
H2225 C2213 0.929 . S
H2226 C2214 0.960 . S
H2227 C2214 0.962 . S
H2228 C2214 0.960 . S
H2229 C2215 0.973 . S
H2230 C2215 0.918 1_545 S
H2231 C2215 0.960 . S
H2232 C2216 0.931 . S
H2233 C2221 0.930 . S
H2234 C2222 0.956 . S
H2235 C2222 0.961 . S
H2236 C2222 0.961 . S
H2237 C2223 0.939 1_565 S
H2238 C2223 0.961 . S
H2239 C2223 0.960 1_565 S
C2240 C2241 1.387 1_556 S
C2240 C2242 1.395 . S
C2240 H2256 0.933 . S
C2241 C2240 1.387 1_554 S
C2241 C2245 1.376 . S
C2242 C2240 1.395 . S
C2242 C2243 1.369 1_556 S
C2242 C2246 1.531 . S
C2243 C2242 1.369 1_554 S
C2243 C2244 1.410 . S
C2243 C2251 1.503 1_554 S
C2244 C2243 1.410 . S
C2244 C2245 1.392 . S
C2244 C2247 1.511 . S
C2245 C2241 1.376 . S
C2245 C2244 1.392 . S
C2245 H2257 0.929 . S
C2246 C2242 1.531 . S
C2246 H2258 0.960 . S
C2246 H2259 0.962 . S
C2246 H2260 0.960 . S
C2247 C2244 1.511 . S
C2247 H2261 0.961 . S
C2247 H2262 0.961 . S
C2247 H2263 0.961 . S
C2248 C2249 1.370 . S
C2248 C2250 1.363 . S
C2248 H2264 0.931 . S
C2249 C2248 1.370 . S
C2249 C2253 1.408 . S
C2250 C2248 1.363 . S
C2250 C2251 1.370 . S
C2250 C2254 1.524 . S
C2251 C2243 1.503 1_556 S
C2251 C2250 1.370 . S
C2251 C2252 1.403 1_556 S
C2252 C2251 1.403 1_554 S
C2252 C2253 1.404 1_554 S
C2252 C2255 1.539 . S
C2253 C2249 1.408 . S
C2253 C2252 1.404 1_556 S
C2253 H2265 0.930 . S
C2254 C2250 1.524 . S
C2254 H2266 0.956 . S
C2254 H2267 0.961 . S
C2254 H2268 0.961 . S
C2255 C2252 1.539 . S
C2255 H2269 0.958 . S
C2255 H2270 0.961 . S
C2255 H2271 0.960 . S
H2256 C2240 0.933 . S
H2257 C2245 0.929 . S
H2258 C2246 0.960 . S
H2259 C2246 0.962 . S
H2260 C2246 0.960 . S
H2261 C2247 0.961 . S
H2262 C2247 0.961 . S
H2263 C2247 0.961 . S
H2264 C2248 0.931 . S
H2265 C2253 0.930 . S
H2266 C2254 0.956 . S
H2267 C2254 0.961 . S
H2268 C2254 0.961 . S
H2269 C2255 0.958 . S
H2270 C2255 0.961 . S
H2271 C2255 0.960 . S
C2272 C2273 1.391 . S
C2272 C2274 1.394 . S
C2272 H2288 0.931 . S
C2273 C2272 1.391 . S
C2273 C2277 1.376 . S
C2274 C2272 1.394 . S
C2274 C2275 1.369 . S
C2274 C2278 1.531 . S
C2275 C2274 1.369 . S
C2275 C2276 1.410 . S
C2275 C2283 1.503 1_545 S
C2276 C2275 1.410 . S
C2276 C2277 1.392 . S
C2276 C2279 1.511 . S
C2277 C2273 1.376 . S
C2277 C2276 1.392 . S
C2277 H2289 0.929 . S
C2278 C2274 1.531 . S
C2278 H2290 0.960 . S
C2278 H2291 0.962 . S
C2278 H2292 0.960 . S
C2279 C2276 1.511 . S
C2279 H2293 0.961 . S
C2279 H2294 0.961 1_545 S
C2279 H2295 0.961 . S
C2280 C2281 1.370 . S
C2280 C2282 1.363 . S
C2280 H2296 0.931 . S
C2281 C2280 1.370 . S
C2281 C2285 1.408 . S
C2282 C2280 1.363 . S
C2282 C2283 1.370 . S
C2282 C2286 1.524 . S
C2283 C2275 1.503 1_565 S
C2283 C2282 1.370 . S
C2283 C2284 1.403 . S
C2284 C2283 1.403 . S
C2284 C2285 1.404 . S
C2284 C2287 1.539 . S
C2285 C2281 1.408 . S
C2285 C2284 1.404 . S
C2285 H2297 0.930 . S
C2286 C2282 1.524 . S
C2286 H2298 0.956 . S
C2286 H2299 0.961 . S
C2286 H2300 0.961 . S
C2287 C2284 1.539 . S
C2287 H2301 0.958 1_565 S
C2287 H2302 0.961 . S
C2287 H2303 0.960 1_565 S
H2288 C2272 0.931 . S
H2289 C2277 0.929 . S
H2290 C2278 0.960 . S
H2291 C2278 0.962 . S
H2292 C2278 0.960 . S
H2293 C2279 0.961 . S
H2294 C2279 0.961 1_565 S
H2295 C2279 0.961 . S
H2296 C2280 0.931 . S
H2297 C2285 0.930 . S
H2298 C2286 0.956 . S
H2299 C2286 0.961 . S
H2300 C2286 0.961 . S
H2301 C2287 0.958 1_545 S
H2302 C2287 0.961 . S
H2303 C2287 0.960 1_545 S
C2304 C2305 1.391 . S
C2304 C2306 1.394 . S
C2304 H2320 0.931 . S
C2305 C2304 1.391 . S
C2305 C2309 1.376 . S
C2306 C2304 1.394 . S
C2306 C2307 1.369 . S
C2306 C2310 1.531 . S
C2307 C2306 1.369 . S
C2307 C2308 1.410 . S
C2307 C2315 1.503 . S
C2308 C2307 1.410 . S
C2308 C2309 1.392 . S
C2308 C2311 1.511 . S
C2309 C2305 1.376 . S
C2309 C2308 1.392 . S
C2309 H2321 0.929 . S
C2310 C2306 1.531 . S
C2310 H2322 0.960 . S
C2310 H2323 0.962 . S
C2310 H2324 0.960 . S
C2311 C2308 1.511 . S
C2311 H2325 0.961 . S
C2311 H2326 0.961 . S
C2311 H2327 0.961 . S
C2312 C2313 1.370 . S
C2312 C2314 1.363 . S
C2312 H2328 0.931 . S
C2313 C2312 1.370 . S
C2313 C2317 1.408 . S
C2314 C2312 1.363 . S
C2314 C2315 1.370 . S
C2314 C2318 1.524 . S
C2315 C2307 1.503 . S
C2315 C2314 1.370 . S
C2315 C2316 1.403 . S
C2316 C2315 1.403 . S
C2316 C2317 1.404 . S
C2316 C2319 1.539 . S
C2317 C2313 1.408 . S
C2317 C2316 1.404 . S
C2317 H2329 0.930 . S
C2318 C2314 1.524 . S
C2318 H2330 0.956 . S
C2318 H2331 0.961 . S
C2318 H2332 0.961 . S
C2319 C2316 1.539 . S
C2319 H2333 0.958 . S
C2319 H2334 0.961 . S
C2319 H2335 0.960 . S
H2320 C2304 0.931 . S
H2321 C2309 0.929 . S
H2322 C2310 0.960 . S
H2323 C2310 0.962 . S
H2324 C2310 0.960 . S
H2325 C2311 0.961 . S
H2326 C2311 0.961 . S
H2327 C2311 0.961 . S
H2328 C2312 0.931 . S
H2329 C2317 0.930 . S
H2330 C2318 0.956 . S
H2331 C2318 0.961 . S
H2332 C2318 0.961 . S
H2333 C2319 0.958 . S
H2334 C2319 0.961 . S
H2335 C2319 0.960 . S
C2336 C2337 1.391 . S
C2336 C2338 1.394 . S
C2336 H2352 0.931 . S
C2337 C2336 1.391 . S
C2337 C2341 1.376 . S
C2338 C2336 1.394 . S
C2338 C2339 1.369 . S
C2338 C2342 1.531 . S
C2339 C2338 1.369 . S
C2339 C2340 1.410 . S
C2339 C2347 1.503 1_545 S
C2340 C2339 1.410 . S
C2340 C2341 1.392 . S
C2340 C2343 1.511 . S
C2341 C2337 1.376 . S
C2341 C2340 1.392 . S
C2341 H2353 0.929 . S
C2342 C2338 1.531 . S
C2342 H2354 0.956 1_545 S
C2342 H2355 0.962 . S
C2342 H2356 0.960 . S
C2343 C2340 1.511 . S
C2343 H2357 0.961 . S
C2343 H2358 0.970 . S
C2343 H2359 0.961 . S
C2344 C2345 1.370 . S
C2344 C2346 1.363 . S
C2344 H2360 0.931 . S
C2345 C2344 1.370 . S
C2345 C2349 1.408 . S
C2346 C2344 1.363 . S
C2346 C2347 1.370 . S
C2346 C2350 1.524 . S
C2347 C2339 1.503 1_565 S
C2347 C2346 1.370 . S
C2347 C2348 1.403 . S
C2348 C2347 1.403 . S
C2348 C2349 1.404 . S
C2348 C2351 1.506 1_565 S
C2349 C2345 1.408 . S
C2349 C2348 1.404 . S
C2349 H2361 0.930 . S
C2350 C2346 1.524 . S
C2350 H2362 0.956 . S
C2350 H2363 0.961 . S
C2350 H2364 0.961 . S
C2351 C2348 1.506 1_545 S
C2351 H2365 0.968 . S
C2351 H2366 0.946 1_545 S
C2351 H2367 1.002 . S
H2352 C2336 0.931 . S
H2353 C2341 0.929 . S
H2354 C2342 0.956 1_565 S
H2355 C2342 0.962 . S
H2356 C2342 0.960 . S
H2357 C2343 0.961 . S
H2358 C2343 0.970 . S
H2359 C2343 0.961 . S
H2360 C2344 0.931 . S
H2361 C2349 0.930 . S
H2362 C2350 0.956 . S
H2363 C2350 0.961 . S
H2364 C2350 0.961 . S
H2365 C2351 0.968 . S
H2366 C2351 0.946 1_565 S
H2367 C2351 1.002 . S
C2368 C2369 1.391 . S
C2368 C2370 1.394 1_554 S
C2368 H2384 0.931 1_554 S
C2369 C2368 1.391 . S
C2369 C2373 1.376 . S
C2370 C2368 1.394 1_556 S
C2370 C2371 1.369 1_556 S
C2370 C2374 1.531 . S
C2371 C2370 1.369 1_554 S
C2371 C2372 1.410 . S
C2371 C2379 1.503 1_554 S
C2372 C2371 1.410 . S
C2372 C2373 1.392 . S
C2372 C2375 1.511 . S
C2373 C2369 1.376 . S
C2373 C2372 1.392 . S
C2373 H2385 0.929 . S
C2374 C2370 1.531 . S
C2374 H2386 0.960 . S
C2374 H2387 0.962 . S
C2374 H2388 0.960 . S
C2375 C2372 1.511 . S
C2375 H2389 0.961 . S
C2375 H2390 0.961 . S
C2375 H2391 0.961 . S
C2376 C2377 1.370 . S
C2376 C2378 1.363 . S
C2376 H2392 0.931 . S
C2377 C2376 1.370 . S
C2377 C2381 1.406 . S
C2378 C2376 1.363 . S
C2378 C2379 1.370 . S
C2378 C2382 1.524 . S
C2379 C2371 1.503 1_556 S
C2379 C2378 1.370 . S
C2379 C2380 1.403 1_556 S
C2380 C2379 1.403 1_554 S
C2380 C2381 1.405 1_554 S
C2380 C2383 1.539 . S
C2381 C2377 1.406 . S
C2381 C2380 1.405 1_556 S
C2381 H2393 0.931 1_556 S
C2382 C2378 1.524 . S
C2382 H2394 0.956 . S
C2382 H2395 0.961 . S
C2382 H2396 0.961 . S
C2383 C2380 1.539 . S
C2383 H2397 0.958 . S
C2383 H2398 0.961 . S
C2383 H2399 0.960 . S
H2384 C2368 0.931 1_556 S
H2385 C2373 0.929 . S
H2386 C2374 0.960 . S
H2387 C2374 0.962 . S
H2388 C2374 0.960 . S
H2389 C2375 0.961 . S
H2390 C2375 0.961 . S
H2391 C2375 0.961 . S
H2392 C2376 0.931 . S
H2393 C2381 0.931 1_554 S
H2394 C2382 0.956 . S
H2395 C2382 0.961 . S
H2396 C2382 0.961 . S
H2397 C2383 0.958 . S
H2398 C2383 0.961 . S
H2399 C2383 0.960 . S
C2400 C2401 1.391 . S
C2400 C2402 1.394 . S
C2400 H2416 0.931 . S
C2401 C2400 1.391 . S
C2401 C2405 1.376 . S
C2402 C2400 1.394 . S
C2402 C2403 1.369 . S
C2402 C2406 1.531 . S
C2403 C2402 1.369 . S
C2403 C2404 1.410 . S
C2403 C2411 1.503 1_545 S
C2404 C2403 1.410 . S
C2404 C2405 1.392 . S
C2404 C2407 1.511 . S
C2405 C2401 1.376 . S
C2405 C2404 1.392 . S
C2405 H2417 0.929 . S
C2406 C2402 1.531 . S
C2406 H2418 0.960 . S
C2406 H2419 0.962 . S
C2406 H2420 0.960 . S
C2407 C2404 1.511 . S
C2407 H2421 0.961 . S
C2407 H2422 0.961 1_545 S
C2407 H2423 0.961 . S
C2408 C2409 1.370 . S
C2408 C2410 1.363 . S
C2408 H2424 0.931 . S
C2409 C2408 1.370 . S
C2409 C2413 1.408 . S
C2410 C2408 1.363 . S
C2410 C2411 1.370 . S
C2410 C2414 1.524 . S
C2411 C2403 1.503 1_565 S
C2411 C2410 1.370 . S
C2411 C2412 1.403 . S
C2412 C2411 1.403 . S
C2412 C2413 1.404 . S
C2412 C2415 1.551 . S
C2413 C2409 1.408 . S
C2413 C2412 1.404 . S
C2413 H2425 0.930 . S
C2414 C2410 1.524 . S
C2414 H2426 0.956 . S
C2414 H2427 0.961 . S
C2414 H2428 0.961 . S
C2415 C2412 1.551 . S
C2415 H2429 0.952 1_565 S
C2415 H2430 0.969 . S
C2415 H2431 0.947 1_565 S
H2416 C2400 0.931 . S
H2417 C2405 0.929 . S
H2418 C2406 0.960 . S
H2419 C2406 0.962 . S
H2420 C2406 0.960 . S
H2421 C2407 0.961 . S
H2422 C2407 0.961 1_565 S
H2423 C2407 0.961 . S
H2424 C2408 0.931 . S
H2425 C2413 0.930 . S
H2426 C2414 0.956 . S
H2427 C2414 0.961 . S
H2428 C2414 0.961 . S
H2429 C2415 0.952 1_545 S
H2430 C2415 0.969 . S
H2431 C2415 0.947 1_545 S
C2432 C2433 1.391 . S
C2432 C2434 1.394 . S
C2432 H2448 0.931 . S
C2433 C2432 1.391 . S
C2433 C2437 1.376 . S
C2434 C2432 1.394 . S
C2434 C2435 1.369 . S
C2434 C2438 1.531 . S
C2435 C2434 1.369 . S
C2435 C2436 1.410 . S
C2435 C2443 1.503 . S
C2436 C2435 1.410 . S
C2436 C2437 1.392 . S
C2436 C2439 1.511 . S
C2437 C2433 1.376 . S
C2437 C2436 1.392 . S
C2437 H2449 0.929 . S
C2438 C2434 1.531 . S
C2438 H2450 0.960 . S
C2438 H2451 0.962 . S
C2438 H2452 0.960 . S
C2439 C2436 1.511 . S
C2439 H2453 0.961 . S
C2439 H2454 0.961 . S
C2439 H2455 0.961 . S
C2440 C2441 1.370 . S
C2440 C2442 1.363 . S
C2440 H2456 0.931 . S
C2441 C2440 1.370 . S
C2441 C2445 1.408 . S
C2442 C2440 1.363 . S
C2442 C2443 1.370 . S
C2442 C2446 1.524 . S
C2443 C2435 1.503 . S
C2443 C2442 1.370 . S
C2443 C2444 1.403 . S
C2444 C2443 1.403 . S
C2444 C2445 1.404 . S
C2444 C2447 1.539 . S
C2445 C2441 1.408 . S
C2445 C2444 1.404 . S
C2445 H2457 0.930 . S
C2446 C2442 1.524 . S
C2446 H2458 0.956 . S
C2446 H2459 0.961 . S
C2446 H2460 0.961 . S
C2447 C2444 1.539 . S
C2447 H2461 0.958 . S
C2447 H2462 0.961 . S
C2447 H2463 0.960 . S
H2448 C2432 0.931 . S
H2449 C2437 0.929 . S
H2450 C2438 0.960 . S
H2451 C2438 0.962 . S
H2452 C2438 0.960 . S
H2453 C2439 0.961 . S
H2454 C2439 0.961 . S
H2455 C2439 0.961 . S
H2456 C2440 0.931 . S
H2457 C2445 0.930 . S
H2458 C2446 0.956 . S
H2459 C2446 0.961 . S
H2460 C2446 0.961 . S
H2461 C2447 0.958 . S
H2462 C2447 0.961 . S
H2463 C2447 0.960 . S
C417 C4 1.610 . S
C425 C283 1.613 . S
C449 C290 1.607 . S
C457 C23 1.615 . S
C481 C30 1.611 . S
C489 C309 1.616 . S
C513 C270 1.611 . S
C521 C43 1.613 . S
C545 C56 1.609 . S
C553 C257 1.613 . S
C577 C75 1.606 . S
C585 C212 1.615 . S
C609 C231 1.607 . S
C617 C82 1.615 . S
C641 C101 1.614 . S
C649 C238 1.614 . S
C673 C114 1.608 . S
C681 C387 1.615 . S
C705 C127 1.609 . S
C713 C400 1.613 . S
C737 C407 1.614 . S
C745 C134 1.615 . S
C769 C374 1.608 . S
C777 C153 1.616 . S
C801 C160 1.608 . S
C809 C361 1.616 . S
C833 C322 1.613 . S
C841 C179 1.614 . S
C865 C192 1.612 . S
C873 C335 1.613 . S
C897 C348 1.610 . S
C905 C205 1.613 . S
C929 C3 1.388 . S
C937 C120 1.401 . S
C961 C18 1.358 . S
C969 C341 1.401 . S
C993 C146 1.399 . S
C1001 C29 1.391 . S
C1025 C42 1.390 . S
C1033 C315 1.404 . S
C1057 C55 1.396 . S
C1065 C198 1.403 . S
C1089 C367 1.400 . S
C1097 C70 1.391 . S
C1121 C172 1.397 . S
C1129 C81 1.374 . S
C1153 C393 1.395 . S
C1161 C96 1.374 . S
C1185 C109 1.396 . S
C1193 C16 1.403 . S
C1217 C239 1.395 . S
C1225 C122 1.374 . S
C1249 C44 1.401 . S
C1257 C133 1.382 . S
C1281 C148 1.395 . S
C1289 C213 1.402 . S
C1313 C94 1.395 . S
C1321 C159 1.377 . S
C1345 C263 1.402 . S
C1353 C174 1.391 . S
C1377 C68 1.400 . S
C1385 C187 1.380 . S
C1409 C200 1.385 . S
C1417 C291 1.403 . S
C1441 C328 1.400 . S
C1449 C211 1.378 . S
C1473 C135 1.400 . S
C1481 C226 1.377 . S
C1505 C354 1.395 . S
C1513 C237 1.379 . S
C1537 C252 1.397 . S
C1545 C107 1.403 . S
C1569 C408 1.398 . S
C1577 C265 1.374 . S
C1601 C161 1.401 . S
C1609 C278 1.382 . S
C1633 C380 1.400 . S
C1641 C289 1.391 . S
C1665 C304 1.400 . S
C1673 C185 1.403 . S
C1697 C317 1.376 . S
C1705 C224 1.401 . S
C1729 C31 1.401 . S
C1737 C330 1.384 . S
C1761 C343 1.388 . S
C1769 C250 1.403 . S
C1793 C356 1.358 . S
C1801 C5 1.401 . S
C1825 C369 1.362 . S
C1833 C302 1.402 . S
C1857 C57 1.398 . S
C1865 C382 1.376 . S
C1889 C276 1.396 . S
C1897 C395 1.382 . S
C1921 C406 1.365 . S
C1929 C83 1.401 . S
C1953 C10 1.301 . S
C1961 C62 1.288 . S
C1985 C17 1.279 . S
C1993 C69 1.296 . S
C2017 C88 1.267 . S
C2025 C36 1.292 . S
C2049 C95 1.301 . S
C2057 C49 1.289 . S
C2081 C166 1.274 . S
C2089 C108 1.287 . S
C2113 C173 1.267 . S
C2121 C121 1.293 . S
C2145 C186 1.290 . S
C2153 C140 1.281 . S
C2177 C199 1.283 . S
C2185 C147 1.283 . S
C2209 C218 1.269 . S
C2217 C264 1.287 . S
C2241 C225 1.286 . S
C2249 C277 1.281 . S
C2273 C244 1.267 . S
C2281 C296 1.290 . S
C2305 C303 1.302 . S
C2313 C251 1.283 . S
C2337 C316 1.267 . S
C2345 C368 1.295 . S
C2369 C381 1.303 . S
C2377 C329 1.284 . S
C2401 C394 1.274 . S
C2409 C342 1.296 . S
C2433 C413 1.289 . S
C2441 C355 1.282 . S
