# Generated by pormake.
# Topology lcs, (4)-cn, num edge types: 1
# Building blocks:
#     Node 0, Type 0, BuildingBlock: QUQFOY_clean_sbu_1, # of connection points: 4
#     Node 1, Type 0, BuildingBlock: QUQFOY_clean_sbu_1, # of connection points: 4
#     Node 2, Type 0, BuildingBlock: QUQFOY_clean_sbu_1, # of connection points: 4
#     Node 3, Type 0, BuildingBlock: QUQFOY_clean_sbu_1, # of connection points: 4
#     Node 4, Type 0, BuildingBlock: QUQFOY_clean_sbu_1, # of connection points: 4
#     Node 5, Type 0, BuildingBlock: QUQFOY_clean_sbu_1, # of connection points: 4
#     Node 6, Type 0, BuildingBlock: QUQFOY_clean_sbu_1, # of connection points: 4
#     Node 7, Type 0, BuildingBlock: QUQFOY_clean_sbu_1, # of connection points: 4
#     Node 8, Type 0, BuildingBlock: QUQFOY_clean_sbu_1, # of connection points: 4
#     Node 9, Type 0, BuildingBlock: QUQFOY_clean_sbu_1, # of connection points: 4
#     Node 10, Type 0, BuildingBlock: QUQFOY_clean_sbu_1, # of connection points: 4
#     Node 11, Type 0, BuildingBlock: QUQFOY_clean_sbu_1, # of connection points: 4
#     Node 12, Type 0, BuildingBlock: QUQFOY_clean_sbu_1, # of connection points: 4
#     Node 13, Type 0, BuildingBlock: QUQFOY_clean_sbu_1, # of connection points: 4
#     Node 14, Type 0, BuildingBlock: QUQFOY_clean_sbu_1, # of connection points: 4
#     Node 15, Type 0, BuildingBlock: QUQFOY_clean_sbu_1, # of connection points: 4
#     Node 16, Type 0, BuildingBlock: QUQFOY_clean_sbu_1, # of connection points: 4
#     Node 17, Type 0, BuildingBlock: QUQFOY_clean_sbu_1, # of connection points: 4
#     Node 18, Type 0, BuildingBlock: QUQFOY_clean_sbu_1, # of connection points: 4
#     Node 19, Type 0, BuildingBlock: QUQFOY_clean_sbu_1, # of connection points: 4
#     Node 20, Type 0, BuildingBlock: QUQFOY_clean_sbu_1, # of connection points: 4
#     Node 21, Type 0, BuildingBlock: QUQFOY_clean_sbu_1, # of connection points: 4
#     Node 22, Type 0, BuildingBlock: QUQFOY_clean_sbu_1, # of connection points: 4
#     Node 23, Type 0, BuildingBlock: QUQFOY_clean_sbu_1, # of connection points: 4
#     Edge 24, Type (0, 0), BuildingBlock: AJUNOK_clean_linker_0, # of connection points: 2
#     Edge 25, Type (0, 0), BuildingBlock: AJUNOK_clean_linker_0, # of connection points: 2
#     Edge 26, Type (0, 0), BuildingBlock: AJUNOK_clean_linker_0, # of connection points: 2
#     Edge 27, Type (0, 0), BuildingBlock: AJUNOK_clean_linker_0, # of connection points: 2
#     Edge 28, Type (0, 0), BuildingBlock: AJUNOK_clean_linker_0, # of connection points: 2
#     Edge 29, Type (0, 0), BuildingBlock: AJUNOK_clean_linker_0, # of connection points: 2
#     Edge 30, Type (0, 0), BuildingBlock: AJUNOK_clean_linker_0, # of connection points: 2
#     Edge 31, Type (0, 0), BuildingBlock: AJUNOK_clean_linker_0, # of connection points: 2
#     Edge 32, Type (0, 0), BuildingBlock: AJUNOK_clean_linker_0, # of connection points: 2
#     Edge 33, Type (0, 0), BuildingBlock: AJUNOK_clean_linker_0, # of connection points: 2
#     Edge 34, Type (0, 0), BuildingBlock: AJUNOK_clean_linker_0, # of connection points: 2
#     Edge 35, Type (0, 0), BuildingBlock: AJUNOK_clean_linker_0, # of connection points: 2
#     Edge 36, Type (0, 0), BuildingBlock: AJUNOK_clean_linker_0, # of connection points: 2
#     Edge 37, Type (0, 0), BuildingBlock: AJUNOK_clean_linker_0, # of connection points: 2
#     Edge 38, Type (0, 0), BuildingBlock: AJUNOK_clean_linker_0, # of connection points: 2
#     Edge 39, Type (0, 0), BuildingBlock: AJUNOK_clean_linker_0, # of connection points: 2
#     Edge 40, Type (0, 0), BuildingBlock: AJUNOK_clean_linker_0, # of connection points: 2
#     Edge 41, Type (0, 0), BuildingBlock: AJUNOK_clean_linker_0, # of connection points: 2
#     Edge 42, Type (0, 0), BuildingBlock: AJUNOK_clean_linker_0, # of connection points: 2
#     Edge 43, Type (0, 0), BuildingBlock: AJUNOK_clean_linker_0, # of connection points: 2
#     Edge 44, Type (0, 0), BuildingBlock: AJUNOK_clean_linker_0, # of connection points: 2
#     Edge 45, Type (0, 0), BuildingBlock: AJUNOK_clean_linker_0, # of connection points: 2
#     Edge 46, Type (0, 0), BuildingBlock: AJUNOK_clean_linker_0, # of connection points: 2
#     Edge 47, Type (0, 0), BuildingBlock: AJUNOK_clean_linker_0, # of connection points: 2
#     Edge 48, Type (0, 0), BuildingBlock: AJUNOK_clean_linker_0, # of connection points: 2
#     Edge 49, Type (0, 0), BuildingBlock: AJUNOK_clean_linker_0, # of connection points: 2
#     Edge 50, Type (0, 0), BuildingBlock: AJUNOK_clean_linker_0, # of connection points: 2
#     Edge 51, Type (0, 0), BuildingBlock: AJUNOK_clean_linker_0, # of connection points: 2
#     Edge 52, Type (0, 0), BuildingBlock: AJUNOK_clean_linker_0, # of connection points: 2
#     Edge 53, Type (0, 0), BuildingBlock: AJUNOK_clean_linker_0, # of connection points: 2
#     Edge 54, Type (0, 0), BuildingBlock: AJUNOK_clean_linker_0, # of connection points: 2
#     Edge 55, Type (0, 0), BuildingBlock: AJUNOK_clean_linker_0, # of connection points: 2
#     Edge 56, Type (0, 0), BuildingBlock: AJUNOK_clean_linker_0, # of connection points: 2
#     Edge 57, Type (0, 0), BuildingBlock: AJUNOK_clean_linker_0, # of connection points: 2
#     Edge 58, Type (0, 0), BuildingBlock: AJUNOK_clean_linker_0, # of connection points: 2
#     Edge 59, Type (0, 0), BuildingBlock: AJUNOK_clean_linker_0, # of connection points: 2
#     Edge 60, Type (0, 0), BuildingBlock: AJUNOK_clean_linker_0, # of connection points: 2
#     Edge 61, Type (0, 0), BuildingBlock: AJUNOK_clean_linker_0, # of connection points: 2
#     Edge 62, Type (0, 0), BuildingBlock: AJUNOK_clean_linker_0, # of connection points: 2
#     Edge 63, Type (0, 0), BuildingBlock: AJUNOK_clean_linker_0, # of connection points: 2
#     Edge 64, Type (0, 0), BuildingBlock: AJUNOK_clean_linker_0, # of connection points: 2
#     Edge 65, Type (0, 0), BuildingBlock: AJUNOK_clean_linker_0, # of connection points: 2
#     Edge 66, Type (0, 0), BuildingBlock: AJUNOK_clean_linker_0, # of connection points: 2
#     Edge 67, Type (0, 0), BuildingBlock: AJUNOK_clean_linker_0, # of connection points: 2
#     Edge 68, Type (0, 0), BuildingBlock: AJUNOK_clean_linker_0, # of connection points: 2
#     Edge 69, Type (0, 0), BuildingBlock: AJUNOK_clean_linker_0, # of connection points: 2
#     Edge 70, Type (0, 0), BuildingBlock: AJUNOK_clean_linker_0, # of connection points: 2
#     Edge 71, Type (0, 0), BuildingBlock: AJUNOK_clean_linker_0, # of connection points: 2
# Relax obj value: 0.068
# Max RMSD: 0.118
# Mean RMSD: 0.112
data_MOF--net-lcs--node1-QUQFOY_clean_sbu_1--edge1-AJUNOK_clean_linker_0
_symmetry_space_group_name_H-M    P1
_symmetry_Int_Tables_number       1
_symmetry_cell_setting            triclinic
loop_
_symmetry_equiv_pos_as_xyz
'x, y, z'
_cell_length_a     37.824078
_cell_length_b     37.858334
_cell_length_c     37.796675
_cell_angle_alpha  92.475446
_cell_angle_beta   92.53869
_cell_angle_gamma 92.476813
loop_
_atom_site_label
_atom_site_type_symbol
_atom_site_fract_x
_atom_site_fract_y
_atom_site_fract_z
_atom_type_partial_charge
O0 O 0.08798 0.25934 0.38377 0.0
Cd1 Cd 0.04775 0.27074 0.34831 0.0
Cd2 Cd 1.00821 0.26487 0.40629 0.0
O3 O 0.05777 0.2645 0.43217 0.0
O4 O 0.07005 0.29635 0.3095 0.0
O5 O 0.03282 0.32075 0.34583 0.0
C6 C 0.05374 0.32392 0.31986 0.0
C7 C 0.96084 0.29231 0.43324 0.0
C8 C 0.0868 0.25946 0.41731 0.0
C9 C 0.99715 0.20945 0.3456 0.0
O10 O 0.99177 0.2193 0.37737 0.0
O11 O 0.01752 0.22792 0.32712 0.0
O12 O 0.97423 0.26428 0.4452 0.0
O13 O 0.9756 0.30616 0.40663 0.0
O14 O 0.07833 0.72441 0.6494 0.0
Cd15 Cd 0.03992 0.74419 0.68047 0.0
Cd16 Cd 0.0239 0.77821 0.61945 0.0
O17 O 0.06393 0.74895 0.59917 0.0
O18 O 0.03766 0.71135 0.72021 0.0
O19 O 0.99287 0.71787 0.68174 0.0
C20 C 1.00588 0.70208 0.7087 0.0
C21 C 0.96891 0.78185 0.58951 0.0
C22 C 0.08353 0.72901 0.61693 0.0
C23 C 0.04722 0.82297 0.68513 0.0
O24 O 0.03853 0.82161 0.65224 0.0
O25 O 0.04855 0.79483 0.70221 0.0
O26 O 0.99695 0.79796 0.57886 0.0
O27 O 0.97255 0.76203 0.61634 0.0
O28 O 0.58601 0.76104 0.88574 0.0
Cd29 Cd 0.54499 0.77343 0.85177 0.0
Cd30 Cd 0.50715 0.7627 0.90938 0.0
O31 O 0.55685 0.76132 0.93498 0.0
O32 O 0.56748 0.79865 0.81282 0.0
O33 O 0.53081 0.82374 0.84921 0.0
C34 C 0.55158 0.82648 0.82309 0.0
C35 C 0.46015 0.79281 0.93358 0.0
C36 C 0.58561 0.75808 0.91906 0.0
C37 C 0.49631 0.71029 0.8468 0.0
O38 O 0.49085 0.71789 0.87911 0.0
O39 O 0.5155 0.73087 0.82925 0.0
O40 O 0.47168 0.76451 0.94695 0.0
O41 O 0.4767 0.80529 0.90733 0.0
O42 O 0.58248 0.22353 0.14701 0.0
Cd43 Cd 0.54441 0.24163 0.17956 0.0
Cd44 Cd 0.5245 0.27487 0.11918 0.0
O45 O 0.56494 0.24746 0.09735 0.0
O46 O 0.54272 0.20783 0.21855 0.0
O47 O 0.49766 0.21482 0.18046 0.0
C48 C 0.51091 0.1986 0.20704 0.0
C49 C 0.46888 0.278 0.09052 0.0
C50 C 0.58626 0.22859 0.11435 0.0
C51 C 0.54793 0.32029 0.18454 0.0
O52 O 0.53827 0.31843 0.15189 0.0
O53 O 0.55173 0.29236 0.20155 0.0
O54 O 0.4964 0.29473 0.07949 0.0
O55 O 0.47349 0.25763 0.11676 0.0
O56 O 0.06305 0.70757 0.12824 0.0
Cd57 Cd 0.04332 0.74639 0.09767 0.0
Cd58 Cd 1.01116 0.76363 0.15941 0.0
O59 O 0.04004 0.72294 0.17902 0.0
O60 O 0.07655 0.75136 0.05847 0.0
O61 O 0.06851 0.79399 0.09894 0.0
C62 C 0.08473 0.78288 0.07148 0.0
C63 C 1.00767 0.81819 0.19016 0.0
C64 C 0.05907 0.70273 0.16089 0.0
C65 C 0.96461 0.74131 0.09435 0.0
O66 O 0.96705 0.75004 0.12721 0.0
O67 O 0.99222 0.73863 0.0766 0.0
O68 O 0.99178 0.78995 0.20058 0.0
O69 O 0.0274 0.81495 0.16324 0.0
O70 O 0.52718 0.69796 0.39637 0.0
Cd71 Cd 0.51457 0.73917 0.42992 0.0
Cd72 Cd 0.52213 0.7759 0.37134 0.0
O73 O 0.5231 0.72594 0.34651 0.0
O74 O 0.48854 0.71767 0.46889 0.0
O75 O 0.46418 0.75339 0.43094 0.0
C76 C 0.46083 0.73316 0.45743 0.0
C77 C 0.49214 0.82259 0.34635 0.0
C78 C 0.5282 0.69772 0.36282 0.0
C79 C 0.57643 0.78903 0.43235 0.0
O80 O 0.56767 0.79299 0.39999 0.0
O81 O 0.55698 0.77 0.45122 0.0
O82 O 0.52001 0.8103 0.3328 0.0
O83 O 0.47987 0.80689 0.3732 0.0
O84 O 0.56243 0.20705 0.6332 0.0
Cd85 Cd 0.5441 0.24537 0.60101 0.0
Cd86 Cd 0.51059 0.26447 0.66112 0.0
O87 O 0.53797 0.22389 0.68274 0.0
O88 O 0.5778 0.24779 0.562 0.0
O89 O 0.5706 0.29233 0.6005 0.0
C90 C 0.5868 0.27955 0.57373 0.0
C91 C 0.50798 0.31993 0.69001 0.0
C92 C 0.55711 0.20287 0.66575 0.0
C93 C 0.46534 0.24148 0.59559 0.0
O94 O 0.46698 0.25098 0.62827 0.0
O95 O 0.49342 0.23787 0.57879 0.0
O96 O 0.49097 0.29252 0.70091 0.0
O97 O 0.52825 0.31529 0.66371 0.0
O98 O 0.02751 0.19975 0.89248 0.0
Cd99 Cd 0.01648 0.23954 0.92847 0.0
Cd100 Cd 0.02494 0.28015 0.87218 0.0
O101 O 0.02544 0.23137 0.84483 0.0
O102 O 0.99141 0.2164 0.9671 0.0
O103 O 0.9666 0.25466 0.9322 0.0
C104 C 0.96382 0.23324 0.95778 0.0
C105 C 0.99496 0.32775 0.8489 0.0
C106 C 0.02891 0.20178 0.85911 0.0
C107 C 0.07923 0.28876 0.93363 0.0
O108 O 0.07042 0.2957 0.90194 0.0
O109 O 0.05959 0.26828 0.95083 0.0
O110 O 0.02315 0.31628 0.83527 0.0
O111 O 0.98257 0.31096 0.87503 0.0
O112 O 0.3957 0.08128 0.25975 0.0
Cd113 Cd 0.3595 0.04174 0.27086 0.0
Cd114 Cd 0.41538 1.00083 0.26122 0.0
O115 O 0.44314 0.0494 0.26101 0.0
O116 O 0.32131 0.0654 0.29614 0.0
O117 O 0.35571 0.02666 0.32082 0.0
C118 C 0.33049 0.04847 0.32372 0.0
C119 C 0.43822 0.95253 0.2904 0.0
C120 C 0.42899 0.07909 0.25793 0.0
C121 C 0.35349 0.99343 0.2074 0.0
O122 O 0.38518 0.98621 0.2158 0.0
O123 O 0.33655 0.01364 0.22756 0.0
O124 O 0.45177 0.96415 0.26222 0.0
O125 O 0.41248 0.96956 0.30325 0.0
O126 O 0.22965 0.1505 0.57255 0.0
Cd127 Cd 0.2491 0.18127 0.53368 0.0
Cd128 Cd 0.28337 0.12072 0.5189 0.0
O129 O 0.25417 0.10021 0.5588 0.0
O130 O 0.21596 0.22073 0.5311 0.0
O131 O 0.22249 0.18199 0.48662 0.0
C132 C 0.20662 0.20895 0.4994 0.0
C133 C 0.28584 0.09239 0.46318 0.0
C134 C 0.23418 0.11813 0.57815 0.0
C135 C 0.32794 0.18654 0.54113 0.0
O136 O 0.32676 0.15351 0.53342 0.0
O137 O 0.29967 0.20346 0.54177 0.0
O138 O 0.30244 0.08084 0.4906 0.0
O139 O 0.26617 0.11912 0.46795 0.0
O140 O 0.13705 0.05843 0.70347 0.0
Cd141 Cd 0.10625 0.03949 0.74252 0.0
Cd142 Cd 0.16766 1.00701 0.75937 0.0
O143 O 0.18787 0.03563 0.71888 0.0
O144 O 0.06673 0.07258 0.74518 0.0
O145 O 0.10607 0.06641 0.78934 0.0
C146 C 0.07893 0.08216 0.77668 0.0
C147 C 0.19648 1.00523 0.81502 0.0
C148 C 0.16969 0.05457 0.69859 0.0
C149 C 0.10245 0.96077 0.73792 0.0
O150 O 0.13545 0.96296 0.74592 0.0
O151 O 0.08487 0.98851 0.73561 0.0
O152 O 0.20799 0.98856 0.78766 0.0
O153 O 0.16959 0.0247 0.8102 0.0
O154 O 0.2048 0.89788 0.01951 0.0
Cd155 Cd 0.24597 0.9319 1.00778 0.0
Cd156 Cd 0.28371 0.87405 0.01813 0.0
O157 O 0.23391 0.84866 0.0187 0.0
O158 O 0.22385 0.971 0.98247 0.0
O159 O 0.26069 0.93467 0.95759 0.0
C160 C 0.24001 0.96083 0.95473 0.0
C161 C 0.33099 0.84948 0.98871 0.0
C162 C 0.20515 0.86455 0.02196 0.0
C163 C 0.29428 0.93611 0.07131 0.0
O164 O 0.29967 0.9039 0.06337 0.0
O165 O 0.27526 0.95394 0.05079 0.0
O166 O 0.31892 0.83622 0.01685 0.0
O167 O 0.31486 0.87586 0.97598 0.0
O168 O 0.26598 0.39048 0.08137 0.0
Cd169 Cd 0.27756 0.35511 0.04119 0.0
Cd170 Cd 0.267 0.41186 1.0011 0.0
O171 O 0.26627 0.43852 0.05032 0.0
O172 O 0.30251 0.31643 0.06447 0.0
O173 O 0.32764 0.35131 0.02647 0.0
C174 C 0.33022 0.32565 0.04782 0.0
C175 C 0.29595 0.43603 0.95325 0.0
C176 C 0.26351 0.42374 0.07978 0.0
C177 C 0.21425 0.34926 0.99238 0.0
O178 O 0.22213 0.38119 0.98573 0.0
O179 O 0.23462 0.33233 0.01243 0.0
O180 O 0.26758 0.44897 0.96507 0.0
O181 O 0.30913 0.41017 0.96987 0.0
O182 O 0.71104 0.13251 0.0556 0.0
Cd183 Cd 0.74979 0.10062 0.03765 0.0
Cd184 Cd 0.76911 0.16109 1.00491 0.0
O185 O 0.72817 0.18234 0.03192 0.0
O186 O 0.75194 0.06146 0.07125 0.0
O187 O 0.79646 0.10021 0.06485 0.0
C188 C 0.78356 0.07333 0.08078 0.0
C189 C 0.82463 0.19 1.0031 0.0
C190 C 0.70688 0.16507 0.05054 0.0
C191 C 0.74688 0.09608 0.95878 0.0
O192 O 0.75607 0.12878 0.96088 0.0
O193 O 0.74315 0.07892 0.98665 0.0
O194 O 0.79734 0.20107 0.98595 0.0
O195 O 0.81982 0.16353 0.02309 0.0
O196 O 0.15231 0.5758 0.22328 0.0
Cd197 Cd 0.18189 0.53573 0.24293 0.0
Cd198 Cd 0.11961 0.52155 0.27286 0.0
O199 O 0.09958 0.55929 0.24105 0.0
O200 O 0.22275 0.53378 0.21129 0.0
O201 O 0.183 0.48962 0.21483 0.0
C202 C 0.21073 0.50264 0.20039 0.0
C203 C 0.09421 0.46462 0.27581 0.0
C204 C 0.11921 0.58015 0.2242 0.0
C205 C 0.1821 0.54507 0.32122 0.0
O206 O 0.14869 0.54037 0.31727 0.0
O207 O 0.20166 0.54164 0.2949 0.0
O208 O 0.07997 0.49164 0.2904 0.0
O209 O 0.12209 0.47035 0.25793 0.0
O210 O 0.76176 0.88478 0.58141 0.0
Cd211 Cd 0.77421 0.8507 0.54054 0.0
Cd212 Cd 0.76695 0.9084 0.50267 0.0
O213 O 0.76545 0.93396 0.55235 0.0
O214 O 0.80162 0.8125 0.56178 0.0
O215 O 0.82412 0.85056 0.52505 0.0
C216 C 0.82859 0.82433 0.54536 0.0
C217 C 0.7975 0.93279 0.45594 0.0
C218 C 0.76049 0.91823 0.58095 0.0
C219 C 0.71254 0.84742 0.49032 0.0
O220 O 0.72156 0.8795 0.48551 0.0
O221 O 0.73171 0.82899 0.51014 0.0
O222 O 0.76938 0.94636 0.46763 0.0
O223 O 0.80963 0.90622 0.4722 0.0
O224 O 0.89915 0.02216 0.19907 0.0
Cd225 Cd 0.93481 1.01095 0.23922 0.0
Cd226 Cd 0.87785 0.01757 0.27901 0.0
O227 O 0.85107 0.01789 0.22983 0.0
O228 O 0.9731 0.98427 0.21724 0.0
O229 O 0.93667 0.96132 0.25527 0.0
C230 C 0.96245 0.95727 0.23432 0.0
C231 C 0.8539 0.98812 0.3267 0.0
C232 C 0.86568 0.0225 0.20056 0.0
C233 C 0.93842 0.07293 0.28904 0.0
O234 O 0.9067 0.06337 0.29491 0.0
O235 O 0.95654 0.05403 0.2687 0.0
O236 O 0.84034 0.01604 0.31456 0.0
O237 O 0.8803 0.97559 0.31048 0.0
O238 O 0.21005 0.63454 0.55506 0.0
Cd239 Cd 0.25006 0.6049 0.53532 0.0
Cd240 Cd 0.26267 0.66618 0.50295 0.0
O241 O 0.22524 0.68658 0.53486 0.0
O242 O 0.25444 0.56524 0.56828 0.0
O243 O 0.29723 0.60582 0.56169 0.0
C244 C 0.28582 0.57814 0.5773 0.0
C245 C 0.31957 0.69159 0.49948 0.0
C246 C 0.20512 0.66741 0.55296 0.0
C247 C 0.23919 0.60218 0.45706 0.0
O248 O 0.24338 0.63564 0.45964 0.0
O249 O 0.24322 0.58359 0.48402 0.0
O250 O 0.29249 0.70535 0.48437 0.0
O251 O 0.31392 0.6641 0.51792 0.0
O252 O 0.39912 0.52374 0.69794 0.0
Cd253 Cd 0.43291 0.51171 0.73928 0.0
Cd254 Cd 0.37501 0.52247 0.77669 0.0
O255 O 0.3497 0.52354 0.72678 0.0
O256 O 0.47219 0.48667 0.7172 0.0
O257 O 0.43578 0.46152 0.7538 0.0
C258 C 0.46208 0.45888 0.73326 0.0
C259 C 0.35083 0.49234 0.82372 0.0
C260 C 0.36581 0.52667 0.69811 0.0
C261 C 0.43731 0.57514 0.78763 0.0
O262 O 0.40501 0.56747 0.79295 0.0
O263 O 0.45503 0.55451 0.76866 0.0
O264 O 0.33731 0.52051 0.81203 0.0
O265 O 0.37722 0.47999 0.80731 0.0
O266 O 0.65304 0.07728 0.72337 0.0
Cd267 Cd 0.68482 0.03863 0.74177 0.0
Cd268 Cd 0.62553 0.02112 0.77676 0.0
O269 O 0.60406 0.06185 0.74954 0.0
O270 O 0.7228 0.03365 0.70711 0.0
O271 O 0.68314 0.99086 0.71684 0.0
C272 C 0.71001 1.0019 0.69974 0.0
C273 C 0.59645 0.96574 0.77916 0.0
C274 C 0.62083 0.08223 0.72959 0.0
C275 C 0.69191 0.04374 0.82062 0.0
O276 O 0.6592 0.0345 0.81984 0.0
O277 O 0.70806 0.04647 0.79202 0.0
O278 O 0.58588 0.99304 0.79661 0.0
O279 O 0.62259 0.97044 0.75873 0.0
O280 O 0.72838 0.64901 0.07446 0.0
Cd281 Cd 0.74771 0.67992 0.03569 0.0
Cd282 Cd 0.78229 0.61925 0.02034 0.0
O283 O 0.75327 0.59894 0.06058 0.0
O284 O 0.71391 0.71876 0.03165 0.0
O285 O 0.72222 0.67942 0.9881 0.0
C286 C 0.70578 0.70645 0.99985 0.0
C287 C 0.78574 0.58948 0.96529 0.0
C288 C 0.73319 0.61668 0.08001 0.0
C289 C 0.82652 0.68558 0.04255 0.0
O290 O 0.82545 0.65263 0.03441 0.0
O291 O 0.79817 0.70233 0.04384 0.0
O292 O 0.80218 0.57894 0.99325 0.0
O293 O 0.76567 0.61605 0.96908 0.0
O294 O 0.89092 0.58345 0.75963 0.0
Cd295 Cd 0.85582 0.54289 0.77074 0.0
Cd296 Cd 0.91316 0.50391 0.76436 0.0
O297 O 0.93934 0.55324 0.76428 0.0
O298 O 0.81753 0.56398 0.79808 0.0
O299 O 0.85494 0.52641 0.82028 0.0
C300 C 0.82888 0.54691 0.82485 0.0
C301 C 0.93773 0.45664 0.79392 0.0
C302 C 0.92443 0.5823 0.75958 0.0
C303 C 0.8528 0.4932 0.70872 0.0
O304 O 0.88462 0.48774 0.71839 0.0
O305 O 0.83439 0.51326 0.72759 0.0
O306 O 0.95117 0.46892 0.76598 0.0
O307 O 0.91108 0.47248 0.80638 0.0
O308 O 0.70396 0.39604 0.52261 0.0
Cd309 Cd 0.74376 0.43178 0.51095 0.0
Cd310 Cd 0.78409 0.37448 0.51711 0.0
O311 O 0.73485 0.3481 0.51782 0.0
O312 O 0.72107 0.47016 0.48505 0.0
O313 O 0.75867 0.4341 0.46087 0.0
C314 C 0.73752 0.45984 0.45752 0.0
C315 C 0.83165 0.34795 0.48962 0.0
C316 C 0.70561 0.3626 0.52277 0.0
C317 C 0.79457 0.43549 0.57223 0.0
O318 O 0.80041 0.40383 0.56252 0.0
O319 O 0.77379 0.45353 0.5537 0.0
O320 O 0.81859 0.33608 0.51787 0.0
O321 O 0.81646 0.37422 0.4756 0.0
O322 O 0.63702 0.55678 0.20606 0.0
Cd323 Cd 0.60642 0.53702 0.24489 0.0
Cd324 Cd 0.6672 0.50367 0.2604 0.0
O325 O 0.68756 0.53287 0.22033 0.0
O326 O 0.56715 0.57026 0.24947 0.0
O327 O 0.60712 0.56216 0.29259 0.0
C328 C 0.57972 0.5783 0.28122 0.0
C329 C 0.69491 0.50209 0.31662 0.0
C330 C 0.66951 0.55253 0.20068 0.0
C331 C 0.60189 0.4583 0.23789 0.0
O332 O 0.6349 0.45987 0.24599 0.0
O333 O 0.58467 0.48636 0.23678 0.0
O334 O 0.70708 0.48542 0.28959 0.0
O335 O 0.66796 0.52133 0.31117 0.0
C336 C 0.05481 0.42296 0.30751 0.0
C337 C 0.0808 0.42813 0.28244 0.0
C338 C 0.04512 0.38906 0.31827 0.0
C339 C 0.06092 0.35882 0.30436 0.0
H340 H 0.04273 0.44539 0.32008 0.0
H341 H 0.02596 0.38677 0.33861 0.0
S342 S 0.12719 0.35741 0.2346 0.0
N343 N 0.11983 0.39974 0.24157 0.0
N344 N 0.10158 0.33604 0.2616 0.0
C345 C 0.08546 0.36338 0.27772 0.0
C346 C 0.0954 0.39799 0.26682 0.0
C347 C 0.90277 0.77535 0.58961 0.0
C348 C 0.93325 0.78874 0.57381 0.0
C349 C 0.86894 0.78574 0.57901 0.0
C350 C 0.86411 0.81001 0.55218 0.0
H351 H 0.90505 0.75778 0.61139 0.0
H352 H 0.84655 0.77566 0.59305 0.0
S353 S 0.93473 0.8492 0.49889 0.0
N354 N 0.95601 0.82484 0.52732 0.0
N355 N 0.89245 0.84437 0.50754 0.0
C356 C 0.89412 0.82195 0.53464 0.0
C357 C 0.92864 0.81131 0.5454 0.0
C358 C 0.43844 0.62641 0.83143 0.0
C359 C 0.45354 0.60914 0.80246 0.0
C360 C 0.45229 0.65922 0.84531 0.0
C361 C 0.48144 0.67638 0.83042 0.0
H362 H 0.41582 0.6144 0.8437 0.0
H363 H 0.43989 0.6713 0.86783 0.0
S364 S 0.53045 0.64263 0.75395 0.0
N365 N 0.49923 0.6117 0.75915 0.0
N366 N 0.52507 0.67363 0.78506 0.0
C367 C 0.49668 0.65957 0.80125 0.0
C368 C 0.48284 0.62587 0.78738 0.0
C369 C 0.63173 0.18298 0.1109 0.0
C370 C 0.61637 0.21277 0.0967 0.0
C371 C 0.66096 0.16793 0.0958 0.0
C372 C 0.67647 0.18238 0.0662 0.0
H373 H 0.62096 0.17097 0.13386 0.0
H374 H 0.67167 0.1449 0.10768 0.0
S375 S 0.64653 0.26048 0.01895 0.0
N376 N 0.61879 0.25623 0.05119 0.0
N377 N 0.67418 0.22817 0.02301 0.0
C378 C 0.66154 0.21229 0.05174 0.0
C379 C 0.63134 0.22736 0.06687 0.0
C380 C 0.07337 0.62571 0.2202 0.0
C381 C 0.10398 0.6109 0.20715 0.0
C382 C 0.05954 0.65599 0.20572 0.0
C383 C 0.07542 0.67217 0.17722 0.0
H384 H 0.06028 0.61419 0.24216 0.0
H385 H 0.03586 0.66639 0.21655 0.0
S386 S 0.15591 0.64361 0.13319 0.0
N387 N 0.1498 0.61477 0.16412 0.0
N388 N 0.12352 0.67123 0.13657 0.0
C389 C 0.10594 0.65751 0.16381 0.0
C390 C 0.12029 0.62702 0.17886 0.0
C391 C 0.62767 0.79035 0.47663 0.0
C392 C 0.6106 0.80499 0.44724 0.0
C393 C 0.66106 0.80363 0.48983 0.0
C394 C 0.67839 0.83239 0.47446 0.0
H395 H 0.61544 0.76805 0.48924 0.0
H396 H 0.67309 0.79159 0.51263 0.0
S397 S 0.64485 0.88048 0.39715 0.0
N398 N 0.61349 0.84996 0.4032 0.0
N399 N 0.67601 0.87506 0.42815 0.0
C400 C 0.66153 0.8474 0.44514 0.0
C401 C 0.62771 0.83368 0.43151 0.0
C402 C 0.47458 0.35993 0.72951 0.0
C403 C 0.50117 0.35583 0.70489 0.0
C404 C 0.46333 0.39345 0.73985 0.0
C405 C 0.4782 0.42435 0.72604 0.0
H406 H 0.46117 0.33699 0.73985 0.0
H407 H 0.44178 0.39495 0.75773 0.0
S408 S 0.55219 0.42855 0.66461 0.0
N409 N 0.54464 0.38586 0.66979 0.0
N410 N 0.52364 0.44887 0.68925 0.0
C411 C 0.50642 0.42081 0.70317 0.0
C412 C 0.51786 0.38659 0.6926 0.0
C413 C 0.89847 0.24042 0.9595 0.0
C414 C 0.92929 0.226 0.97392 0.0
C415 C 0.86487 0.23009 0.97063 0.0
C416 C 0.86065 0.20488 0.99665 0.0
H417 H 0.90006 0.25878 0.93837 0.0
H418 H 0.84198 0.24092 0.95754 0.0
S419 S 0.93318 0.16288 0.04649 0.0
N420 N 0.95364 0.18801 0.01843 0.0
N421 N 0.8905 0.16857 0.03922 0.0
C422 C 0.89136 0.19199 0.01297 0.0
C423 C 0.92564 0.20254 1.00164 0.0
C424 C 0.31811 0.05214 0.42286 0.0
C425 C 0.29233 0.07758 0.42712 0.0
C426 C 0.32903 0.04161 0.38921 0.0
C427 C 0.31463 0.05603 0.35836 0.0
H428 H 0.33114 0.04125 0.44576 0.0
H429 H 0.34997 0.02305 0.38758 0.0
S430 S 0.24272 0.11984 0.35456 0.0
N431 N 0.25007 0.11421 0.39727 0.0
N432 N 0.27046 0.0944 0.33405 0.0
C433 C 0.2872 0.0798 0.36206 0.0
C434 C 0.27609 0.09056 0.39639 0.0
C435 C 0.21634 0.05754 0.65359 0.0
C436 C 0.18609 0.07149 0.66832 0.0
C437 C 0.23131 0.07226 0.62395 0.0
C438 C 0.21692 0.10184 0.60829 0.0
H439 H 0.2283 0.03476 0.66471 0.0
H440 H 0.25464 0.06069 0.61359 0.0
S441 S 0.13799 0.14858 0.63698 0.0
N442 N 0.14235 0.11668 0.66504 0.0
N443 N 0.17057 0.14445 0.60968 0.0
C444 C 0.18676 0.11613 0.62288 0.0
C445 C 0.17134 0.10094 0.65277 0.0
C446 C 0.23647 0.97277 0.8555 0.0
C447 C 0.2114 0.99889 0.8511 0.0
C448 C 0.24688 0.96188 0.88922 0.0
C449 C 0.23271 0.97667 0.92 0.0
H450 H 0.2471 0.95943 0.83266 0.0
H451 H 0.26511 0.94067 0.89096 0.0
S452 S 0.16999 0.04954 0.9234 0.0
N453 N 0.17545 0.04186 0.88072 0.0
N454 N 0.19505 0.02156 0.94407 0.0
C455 C 0.20937 1.00445 0.91615 0.0
C456 C 0.19872 0.01551 0.88175 0.0
C457 C 0.33772 0.93637 0.1229 0.0
C458 C 0.30917 0.95206 0.10548 0.0
C459 C 0.35158 0.9498 0.15592 0.0
C460 C 0.33716 0.97918 0.17314 0.0
H461 H 0.34964 0.91356 0.1109 0.0
H462 H 0.37372 0.93687 0.16811 0.0
S463 S 0.26194 0.02978 0.13899 0.0
N464 N 0.26678 0.99857 0.10793 0.0
N465 N 0.2927 0.0237 0.17023 0.0
C466 C 0.30845 0.99507 0.15614 0.0
C467 C 0.29457 0.9816 0.12224 0.0
C468 C 0.39559 0.32338 0.04085 0.0
C469 C 0.36461 0.30918 0.05508 0.0
C470 C 0.42903 0.31167 0.05102 0.0
C471 C 0.43294 0.28526 0.07588 0.0
H472 H 0.39426 0.34473 0.02273 0.0
H473 H 0.45207 0.32457 0.04032 0.0
S474 S 0.35982 0.23596 0.11738 0.0
N475 N 0.33973 0.26459 0.0926 0.0
N476 N 0.40256 0.24273 0.11174 0.0
C477 C 0.40204 0.26926 0.08864 0.0
C478 C 0.36792 0.28118 0.07825 0.0
C479 C 1.01302 0.88432 0.19013 0.0
C480 C 1.00037 0.85361 0.20603 0.0
C481 C 1.0019 0.91785 0.20068 0.0
C482 C 0.97762 0.92215 0.22757 0.0
H483 H 0.03053 0.88242 0.16826 0.0
H484 H 1.01142 0.9404 0.18655 0.0
S485 S 0.94026 0.85082 0.28116 0.0
N486 N 0.96499 0.83013 0.25271 0.0
N487 N 0.9441 0.89312 0.27241 0.0
C488 C 0.96646 0.89195 0.24525 0.0
C489 C 0.97784 0.85773 0.23453 0.0
C490 C 0.15991 0.71361 0.55707 0.0
C491 C 0.17455 0.68291 0.57014 0.0
C492 C 0.12992 0.72784 0.57173 0.0
C493 C 0.11379 0.71226 0.60042 0.0
H494 H 0.17138 0.72653 0.53498 0.0
H495 H 0.11971 0.75159 0.56089 0.0
S496 S 0.14181 0.63159 0.64452 0.0
N497 N 0.17049 0.6373 0.61338 0.0
N498 N 0.1145 0.66425 0.6412 0.0
C499 C 0.12821 0.6816 0.61382 0.0
C500 C 0.15846 0.66688 0.59862 0.0
C501 C 0.94859 0.66956 0.71897 0.0
C502 C 0.98554 0.67305 0.72484 0.0
C503 C 0.92899 0.64092 0.7317 0.0
C504 C 0.94561 0.61424 0.75029 0.0
H505 H 0.93466 0.68886 0.70401 0.0
H506 H 0.90067 0.63912 0.72575 0.0
S507 S 0.04168 0.61176 0.77407 0.0
N508 N 0.03795 0.64815 0.7519 0.0
N509 N 1.00113 0.59404 0.77527 0.0
C510 C 0.98247 0.61785 0.75712 0.0
C511 C 1.00241 0.64732 0.74457 0.0
C512 C 0.17388 0.21855 0.44196 0.0
C513 C 0.17749 0.22482 0.47888 0.0
C514 C 0.14524 0.23118 0.4222 0.0
C515 C 0.11868 0.2501 0.43863 0.0
H516 H 0.1931 0.20337 0.42817 0.0
H517 H 0.14336 0.22495 0.39391 0.0
S518 S 0.1165 0.27489 0.53455 0.0
N519 N 0.15279 0.25253 0.53105 0.0
N520 N 0.09869 0.27573 0.49393 0.0
C521 C 0.12239 0.25728 0.47545 0.0
C522 C 0.15186 0.24482 0.49555 0.0
C523 C 0.59885 0.39247 0.24005 0.0
C524 C 0.58428 0.42351 0.22771 0.0
C525 C 0.58548 0.35896 0.22753 0.0
C526 C 0.55754 0.35533 0.20171 0.0
H527 H 0.62135 0.39407 0.2589 0.0
H528 H 0.59834 0.33583 0.23681 0.0
S529 S 0.508 0.42804 0.1631 0.0
N530 N 0.5385 0.44834 0.19027 0.0
N531 N 0.51383 0.3853 0.16625 0.0
C532 C 0.54165 0.38604 0.19035 0.0
C533 C 0.55488 0.42016 0.20351 0.0
C534 C 0.37968 0.80683 0.98843 0.0
C535 C 0.36342 0.83561 0.97309 0.0
C536 C 0.41105 0.79379 0.97577 0.0
C537 C 0.4278 0.80887 0.94713 0.0
H538 H 0.36819 0.79415 0.01065 0.0
H539 H 0.42213 0.77147 0.98862 0.0
S540 S 0.39633 0.88487 0.89735 0.0
N541 N 0.36663 0.87898 0.92753 0.0
N542 N 0.42562 0.85438 0.90364 0.0
C543 C 0.41194 0.83774 0.93144 0.0
C544 C 0.3798 0.85107 0.94438 0.0
C545 C 0.98029 0.40795 0.79392 0.0
C546 C 0.95175 0.42432 0.80958 0.0
C547 C 0.99348 0.37667 0.80659 0.0
C548 C 0.97882 0.36013 0.83557 0.0
H549 H 0.99263 0.41924 0.77142 0.0
H550 H 0.01555 0.36546 0.79344 0.0
S551 S 0.90375 0.39213 0.88641 0.0
N552 N 0.90916 0.42158 0.8559 0.0
N553 N 0.93406 0.36272 0.87982 0.0
C554 C 0.95024 0.37614 0.85162 0.0
C555 C 0.93674 0.4082 0.83866 0.0
C556 C 0.39382 0.19037 0.53931 0.0
C557 C 0.36253 0.20452 0.55151 0.0
C558 C 0.42719 0.20396 0.55214 0.0
C559 C 0.43041 0.2317 0.57814 0.0
H560 H 0.39254 0.168 0.52036 0.0
H561 H 0.45052 0.1914 0.54295 0.0
S562 S 0.35689 0.28016 0.61648 0.0
N563 N 0.33701 0.2497 0.589 0.0
N564 N 0.39977 0.27479 0.61362 0.0
C565 C 0.39944 0.24719 0.58936 0.0
C566 C 0.36546 0.23374 0.57587 0.0
C567 C 0.53219 0.66146 0.30613 0.0
C568 C 0.53853 0.66526 0.34309 0.0
C569 C 0.54453 0.63256 0.28655 0.0
C570 C 0.56425 0.60664 0.30306 0.0
H571 H 0.51801 0.68123 0.29209 0.0
H572 H 0.53955 0.63119 0.25807 0.0
S573 S 0.58676 0.60315 0.39932 0.0
N574 N 0.56459 0.63952 0.39564 0.0
N575 N 0.58818 0.5857 0.35867 0.0
C576 C 0.57007 0.60959 0.34005 0.0
C577 C 0.55707 0.63872 0.36009 0.0
C578 C 0.13985 0.78821 0.03752 0.0
C579 C 0.11339 0.80469 0.05649 0.0
C580 C 0.16904 0.80779 0.02572 0.0
C581 C 0.17256 0.84472 0.03181 0.0
H582 H 0.13867 0.75975 0.03274 0.0
H583 H 0.18921 0.79379 0.01212 0.0
S584 S 0.1092 0.90083 0.07829 0.0
N585 N 0.09177 0.86021 0.07957 0.0
N586 N 0.1461 0.89719 0.05695 0.0
C587 C 0.14553 0.86168 0.04964 0.0
C588 C 0.11613 0.84164 0.06212 0.0
C589 C 0.75678 0.9754 0.61641 0.0
C590 C 0.75013 0.93853 0.6131 0.0
C591 C 0.74466 0.99547 0.64512 0.0
C592 C 0.72484 0.97958 0.67134 0.0
H593 H 0.77112 0.98898 0.59645 0.0
H594 H 0.75 0.02385 0.64616 0.0
S595 S 0.70119 0.8838 0.67588 0.0
N596 N 0.72341 0.88675 0.63944 0.0
N597 N 0.70026 0.92461 0.69291 0.0
C598 C 0.71858 0.94268 0.66879 0.0
C599 C 0.73134 0.92214 0.63984 0.0
C600 C 0.81156 0.98785 0.37564 0.0
C601 C 0.84026 0.9725 0.35925 0.0
C602 C 0.79859 0.97514 0.40702 0.0
C603 C 0.81365 0.94643 0.42366 0.0
H604 H 0.79887 1.01008 0.36423 0.0
H605 H 0.77632 0.98798 0.41817 0.0
S606 S 0.88953 0.89669 0.39192 0.0
N607 N 0.8836 0.92692 0.36225 0.0
N608 N 0.85912 0.90294 0.42132 0.0
C609 C 0.84247 0.93077 0.40772 0.0
C610 C 0.85574 0.94377 0.37554 0.0
C611 C 0.84093 0.06355 0.11351 0.0
C612 C 0.804 0.0575 0.11002 0.0
C613 C 0.86069 0.05081 0.1421 0.0
C614 C 0.84427 0.03202 0.16877 0.0
H615 H 0.85474 0.07858 0.09419 0.0
H616 H 0.88899 0.05685 0.14387 0.0
S617 S 0.74831 1.0079 0.17135 0.0
N618 N 0.75182 0.03018 0.13497 0.0
N619 N 0.78893 1.00682 0.18904 0.0
C620 C 0.80742 0.02512 0.16523 0.0
C621 C 0.78732 0.03767 0.13578 0.0
C622 C 0.69674 0.0401 0.88638 0.0
C623 C 0.71023 0.05349 0.85525 0.0
C624 C 0.71032 0.05243 0.91993 0.0
C625 C 0.73742 0.07907 0.92355 0.0
H626 H 0.67481 0.02064 0.88486 0.0
H627 H 0.69817 0.04237 0.94312 0.0
S628 S 0.78437 0.12033 0.85056 0.0
N629 N 0.75435 0.09265 0.83027 0.0
N630 N 0.77947 0.11627 0.8934 0.0
C631 C 0.75241 0.09138 0.89272 0.0
C632 C 0.73894 0.07844 0.85853 0.0
C633 C 0.62148 0.75272 0.97587 0.0
C634 C 0.6181 0.74763 0.93876 0.0
C635 C 0.65058 0.74037 0.99524 0.0
C636 C 0.67709 0.72183 0.97835 0.0
H637 H 0.60128 0.76597 0.99015 0.0
H638 H 0.65168 0.74441 0.02382 0.0
S639 S 0.68164 0.70262 0.88165 0.0
N640 N 0.64474 0.72388 0.88572 0.0
N641 N 0.69889 0.70023 0.9223 0.0
C642 C 0.67447 0.71718 0.94125 0.0
C643 C 0.64516 0.73022 0.92143 0.0
C644 C 0.06893 0.11443 0.83419 0.0
C645 C 0.06329 0.11138 0.79718 0.0
C646 C 0.05639 0.14302 0.85401 0.0
C647 C 0.03828 0.17012 0.83756 0.0
H648 H 0.08348 0.09475 0.84801 0.0
H649 H 0.06207 0.14443 0.8824 0.0
S650 S 0.01561 0.17404 0.74133 0.0
N651 N 0.03718 0.13726 0.74484 0.0
N652 N 0.01425 0.19136 0.78207 0.0
C653 C 0.03185 0.16706 0.8006 0.0
C654 C 0.04414 0.1376 0.78044 0.0
C655 C 0.91173 0.33523 0.43303 0.0
C656 C 0.92847 0.30676 0.44849 0.0
C657 C 0.88021 0.34807 0.44605 0.0
C658 C 0.86411 0.33296 0.47509 0.0
H659 H 0.92288 0.34764 0.41049 0.0
H660 H 0.86852 0.37014 0.43332 0.0
S661 S 0.89727 0.25782 0.52528 0.0
N662 N 0.92642 0.26394 0.49469 0.0
N663 N 0.86755 0.2878 0.51892 0.0
C664 C 0.88062 0.30446 0.49079 0.0
C665 C 0.91265 0.29146 0.4776 0.0
C666 C 0.55626 0.92562 0.81167 0.0
C667 C 0.58128 0.92983 0.78548 0.0
C668 C 0.5455 0.89201 0.82242 0.0
C669 C 0.55927 0.86117 0.80742 0.0
H670 H 0.54588 0.9485 0.82515 0.0
H671 H 0.52728 0.8904 0.84368 0.0
S672 S 0.62182 0.85733 0.73436 0.0
N673 N 0.61684 0.9 0.74226 0.0
N674 N 0.59658 0.83686 0.76231 0.0
C675 C 0.5826 0.86485 0.77959 0.0
C676 C 0.5936 0.89914 0.76866 0.0
C677 C 0.99594 0.15762 0.30207 0.0
C678 C 0.98109 0.17521 0.33102 0.0
C679 C 0.9825 0.12421 0.28918 0.0
C680 C 0.95341 0.1073 0.30444 0.0
H681 H 0.0185 0.16946 0.28956 0.0
H682 H 0.99476 0.11179 0.26674 0.0
S683 S 0.90462 0.14229 0.38062 0.0
N684 N 0.93548 0.17328 0.37447 0.0
N685 N 0.91019 0.11069 0.35018 0.0
C686 C 0.93819 0.12468 0.33331 0.0
C687 C 0.95202 0.15856 0.3466 0.0
C688 C 0.61742 0.12769 0.68384 0.0
C689 C 0.6034 0.11257 0.71386 0.0
C690 C 0.60234 0.15693 0.66874 0.0
C691 C 0.57292 0.17266 0.6833 0.0
H692 H 0.64017 0.11672 0.67166 0.0
H693 H 0.61406 0.1674 0.6455 0.0
S694 S 0.5263 0.14351 0.76212 0.0
N695 N 0.55835 0.11559 0.75777 0.0
N696 N 0.53021 0.17091 0.72955 0.0
C697 C 0.55871 0.15802 0.71349 0.0
C698 C 0.57383 0.12785 0.72866 0.0
C699 C 0.16275 0.34738 0.94866 0.0
C700 C 0.18034 0.33256 0.97765 0.0
C701 C 0.13002 0.33314 0.93486 0.0
C702 C 0.11328 0.30377 0.94975 0.0
H703 H 0.17438 0.37015 0.93634 0.0
H704 H 0.11769 0.34546 0.9124 0.0
S705 S 0.14807 0.25517 0.02617 0.0
N706 N 0.17856 0.2868 0.02093 0.0
N707 N 0.11685 0.26015 0.9951 0.0
C708 C 0.13047 0.28872 0.97887 0.0
C709 C 0.16406 0.30302 0.99272 0.0
C710 C 0.39538 0.74074 0.45737 0.0
C711 C 0.42566 0.72572 0.47228 0.0
C712 C 0.36133 0.73075 0.4676 0.0
C713 C 0.35608 0.7052 0.49309 0.0
H714 H 0.39778 0.75955 0.43671 0.0
H715 H 0.33891 0.74224 0.45433 0.0
S716 S 0.42674 0.6608 0.54332 0.0
N717 N 0.44828 0.68622 0.51629 0.0
N718 N 0.38434 0.66737 0.53531 0.0
C719 C 0.3862 0.69134 0.50961 0.0
C720 C 0.42094 0.70161 0.49928 0.0
C721 C 0.78992 0.57993 0.86526 0.0
C722 C 0.81425 0.55322 0.86031 0.0
C723 C 0.77934 0.59014 0.89914 0.0
C724 C 0.79262 0.57405 0.92954 0.0
H725 H 0.77994 0.5942 0.84296 0.0
H726 H 0.76176 0.61188 0.90153 0.0
S727 S 0.85308 0.49921 0.93064 0.0
N728 N 0.84846 0.5083 0.88841 0.0
N729 N 0.8286 0.52736 0.95205 0.0
C730 C 0.81521 0.54572 0.92478 0.0
C731 C 0.82602 0.53535 0.89021 0.0
C732 C 0.71594 0.55581 0.15543 0.0
C733 C 0.68578 0.56967 0.17043 0.0
C734 C 0.73069 0.57065 0.12572 0.0
C735 C 0.71616 0.60024 0.11023 0.0
H736 H 0.728 0.533 0.16637 0.0
H737 H 0.75396 0.55913 0.11516 0.0
S738 S 0.63734 0.64676 0.13959 0.0
N739 N 0.64196 0.61482 0.16755 0.0
N740 N 0.66973 0.64275 0.11206 0.0
C741 C 0.68608 0.61444 0.12508 0.0
C742 C 0.67089 0.59916 0.15506 0.0
C743 C 0.74504 0.4603 0.39206 0.0
C744 C 0.73016 0.47506 0.42248 0.0
C745 C 0.73485 0.47065 0.35808 0.0
C746 C 0.70929 0.49617 0.35302 0.0
H747 H 0.76375 0.43956 0.3943 0.0
H748 H 0.74612 0.45738 0.33555 0.0
S749 S 0.66566 0.54638 0.42415 0.0
N750 N 0.69109 0.51919 0.44548 0.0
N751 N 0.67189 0.53848 0.38164 0.0
C752 C 0.69577 0.51271 0.3833 0.0
C753 C 0.70621 0.5022 0.41798 0.0
C754 C 0.8085 0.49219 0.65744 0.0
C755 C 0.83803 0.47757 0.67431 0.0
C756 C 0.79516 0.47902 0.62403 0.0
C757 C 0.81054 0.45044 0.60641 0.0
H758 H 0.7958 0.5143 0.66988 0.0
H759 H 0.77223 0.49102 0.61222 0.0
S760 S 0.88836 0.40264 0.63914 0.0
N761 N 0.8823 0.43288 0.67079 0.0
N762 N 0.85716 0.4081 0.60821 0.0
C763 C 0.84008 0.43553 0.62299 0.0
C764 C 0.85381 0.4491 0.65686 0.0
C765 C 0.43389 0.13798 0.23071 0.0
C766 C 0.4505 0.1107 0.24839 0.0
C767 C 0.45358 0.16653 0.21794 0.0
C768 C 0.49064 0.16936 0.2229 0.0
H769 H 0.40545 0.13676 0.22554 0.0
H770 H 0.4396 0.18636 0.20375 0.0
S771 S 0.54691 0.10621 0.26936 0.0
N772 N 0.5062 0.08908 0.27136 0.0
N773 N 0.54322 0.1431 0.24799 0.0
C774 C 0.50756 0.14297 0.24164 0.0
C775 C 0.48751 0.11355 0.25418 0.0
C776 C 0.0448 0.88874 0.68915 0.0
C777 C 0.05807 0.85762 0.70266 0.0
C778 C 0.05789 0.92219 0.70217 0.0
C779 C 0.08525 0.92566 0.72864 0.0
H780 H 0.02472 0.88726 0.66771 0.0
H781 H 0.04773 0.9454 0.69017 0.0
S782 S 0.12711 0.85259 0.77491 0.0
N783 N 0.09828 0.83248 0.74583 0.0
N784 N 0.12341 0.89539 0.7698 0.0
C785 C 0.09771 0.89483 0.74345 0.0
C786 C 0.08394 0.86078 0.73062 0.0
C787 C 0.4915 0.87085 0.30324 0.0
C788 C 0.4765 0.85498 0.33241 0.0
C789 C 0.47914 0.9024 0.29037 0.0
C790 C 0.45116 0.91972 0.30602 0.0
H791 H 0.51327 0.85897 0.29017 0.0
H792 H 0.49177 0.91322 0.2678 0.0
S793 S 0.40231 0.88927 0.38303 0.0
N794 N 0.43183 0.85903 0.37663 0.0
N795 N 0.4085 0.91838 0.35234 0.0
C796 C 0.43571 0.90417 0.33518 0.0
C797 C 0.44835 0.87183 0.34835 0.0
C798 C 0.89226 0.69018 0.03915 0.0
C799 C 0.86115 0.7037 0.05247 0.0
C800 C 0.92577 0.704 0.05129 0.0
C801 C 0.92935 0.73133 0.07772 0.0
H802 H 0.89074 0.66815 0.01979 0.0
H803 H 0.94899 0.69194 0.0412 0.0
S804 S 0.85632 0.778 0.11914 0.0
N805 N 0.8361 0.7478 0.0916 0.0
N806 N 0.89915 0.77328 0.11496 0.0
C807 C 0.89851 0.74615 0.09015 0.0
C808 C 0.86438 0.73249 0.07734 0.0
C809 C 0.61905 0.33715 0.56416 0.0
C810 C 0.61578 0.30026 0.55787 0.0
C811 C 0.64741 0.35714 0.5514 0.0
C812 C 0.67404 0.34101 0.53233 0.0
H813 H 0.59974 0.35073 0.57941 0.0
H814 H 0.64902 0.38538 0.55763 0.0
S815 S 0.6771 0.24534 0.50742 0.0
N816 N 0.64088 0.24847 0.52998 0.0
N817 N 0.69449 0.28603 0.50655 0.0
C818 C 0.67069 0.30423 0.52516 0.0
C819 C 0.6415 0.28389 0.53775 0.0
C820 C 0.23545 0.42711 0.13839 0.0
C821 C 0.25353 0.44444 0.11179 0.0
C822 C 0.22224 0.44607 0.16722 0.0
C823 C 0.2272 0.48305 0.17106 0.0
H824 H 0.23029 0.39871 0.13635 0.0
H825 H 0.2077 0.43162 0.18646 0.0
S826 S 0.27446 0.54096 0.10997 0.0
N827 N 0.27674 0.50069 0.09187 0.0
N828 N 0.25262 0.53631 0.14648 0.0
C829 C 0.24632 0.50065 0.14538 0.0
C830 C 0.25927 0.48137 0.11564 0.0
C831 C 0.30836 0.49109 0.87259 0.0
C832 C 0.33729 0.4763 0.85611 0.0
C833 C 0.29573 0.47813 0.90403 0.0
C834 C 0.31141 0.44973 0.92065 0.0
H835 H 0.29526 0.51313 0.86124 0.0
H836 H 0.27331 0.4906 0.91531 0.0
S837 S 0.38794 0.40127 0.8885 0.0
N838 N 0.38137 0.43142 0.8589 0.0
N839 N 0.35756 0.40698 0.91803 0.0
C840 C 0.34038 0.43454 0.90453 0.0
C841 C 0.35328 0.44778 0.8723 0.0
C842 C 0.29023 0.54344 0.63207 0.0
C843 C 0.30717 0.56273 0.6061 0.0
C844 C 0.3094 0.53117 0.66137 0.0
C845 C 0.34636 0.53706 0.66544 0.0
H846 H 0.26173 0.53877 0.63042 0.0
H847 H 0.29507 0.51733 0.68117 0.0
S848 S 0.40358 0.58431 0.60356 0.0
N849 N 0.36315 0.58597 0.58559 0.0
N850 N 0.39934 0.56244 0.64008 0.0
C851 C 0.36377 0.55524 0.63892 0.0
C852 C 0.34415 0.56822 0.60944 0.0
C853 C 0.17841 0.58164 0.37678 0.0
C854 C 0.19743 0.55787 0.35619 0.0
C855 C 0.19233 0.59566 0.4095 0.0
C856 C 0.22527 0.58565 0.42323 0.0
H857 H 0.1529 0.59019 0.36715 0.0
H858 H 0.17717 0.61446 0.42425 0.0
S859 S 0.28508 0.5235 0.38064 0.0
N860 N 0.25086 0.52471 0.35201 0.0
N861 N 0.27644 0.55025 0.4146 0.0
C862 C 0.24432 0.56137 0.4035 0.0
C863 C 0.23055 0.54772 0.36961 0.0
loop_
_geom_bond_atom_site_label_1
_geom_bond_atom_site_label_2
_geom_bond_distance
_geom_bond_site_symmetry_2
_ccdc_geom_bond_type
O0 Cd1 2.223 . S
O0 C8 1.315 . S
Cd1 O0 2.223 . S
Cd1 O4 2.297 . S
Cd1 O5 2.439 . S
Cd1 O11 2.240 1_455 S
Cd2 O3 2.240 1_655 S
Cd2 O10 2.223 . S
Cd2 O12 2.297 . S
Cd2 O13 2.439 . S
O3 Cd2 2.240 1_455 S
O3 C8 1.279 . S
O4 Cd1 2.297 . S
O4 C6 1.247 . S
O5 Cd1 2.439 . S
O5 C6 1.208 . S
C6 O4 1.247 . S
C6 O5 1.208 . S
C7 O12 1.247 . S
C7 O13 1.208 . S
C8 O0 1.315 . S
C8 O3 1.279 . S
C9 O10 1.315 . S
C9 O11 1.279 . S
O10 Cd2 2.223 . S
O10 C9 1.315 . S
O11 Cd1 2.240 1_655 S
O11 C9 1.279 . S
O12 Cd2 2.297 . S
O12 C7 1.247 . S
O13 Cd2 2.439 . S
O13 C7 1.208 . S
O14 Cd15 2.223 . S
O14 C22 1.315 . S
Cd15 O14 2.223 . S
Cd15 O18 2.297 . S
Cd15 O19 2.439 1_455 S
Cd15 O25 2.240 . S
Cd16 O17 2.240 . S
Cd16 O24 2.223 . S
Cd16 O26 2.297 1_455 S
Cd16 O27 2.439 1_455 S
O17 Cd16 2.240 . S
O17 C22 1.279 . S
O18 Cd15 2.297 . S
O18 C20 1.247 1_455 S
O19 Cd15 2.439 1_655 S
O19 C20 1.208 . S
C20 O18 1.247 1_655 S
C20 O19 1.208 . S
C21 O26 1.247 . S
C21 O27 1.208 . S
C22 O14 1.315 . S
C22 O17 1.279 . S
C23 O24 1.315 . S
C23 O25 1.279 . S
O24 Cd16 2.223 . S
O24 C23 1.315 . S
O25 Cd15 2.240 . S
O25 C23 1.279 . S
O26 Cd16 2.297 1_655 S
O26 C21 1.247 . S
O27 Cd16 2.439 1_655 S
O27 C21 1.208 . S
O28 Cd29 2.223 . S
O28 C36 1.315 . S
Cd29 O28 2.223 . S
Cd29 O32 2.297 . S
Cd29 O33 2.439 . S
Cd29 O39 2.240 . S
Cd30 O31 2.240 . S
Cd30 O38 2.223 . S
Cd30 O40 2.297 . S
Cd30 O41 2.439 . S
O31 Cd30 2.240 . S
O31 C36 1.279 . S
O32 Cd29 2.297 . S
O32 C34 1.247 . S
O33 Cd29 2.439 . S
O33 C34 1.208 . S
C34 O32 1.247 . S
C34 O33 1.208 . S
C35 O40 1.247 . S
C35 O41 1.208 . S
C36 O28 1.315 . S
C36 O31 1.279 . S
C37 O38 1.315 . S
C37 O39 1.279 . S
O38 Cd30 2.223 . S
O38 C37 1.315 . S
O39 Cd29 2.240 . S
O39 C37 1.279 . S
O40 Cd30 2.297 . S
O40 C35 1.247 . S
O41 Cd30 2.439 . S
O41 C35 1.208 . S
O42 Cd43 2.223 . S
O42 C50 1.315 . S
Cd43 O42 2.223 . S
Cd43 O46 2.297 . S
Cd43 O47 2.439 . S
Cd43 O53 2.240 . S
Cd44 O45 2.240 . S
Cd44 O52 2.223 . S
Cd44 O54 2.297 . S
Cd44 O55 2.439 . S
O45 Cd44 2.240 . S
O45 C50 1.279 . S
O46 Cd43 2.297 . S
O46 C48 1.247 . S
O47 Cd43 2.439 . S
O47 C48 1.208 . S
C48 O46 1.247 . S
C48 O47 1.208 . S
C49 O54 1.247 . S
C49 O55 1.208 . S
C50 O42 1.315 . S
C50 O45 1.279 . S
C51 O52 1.315 . S
C51 O53 1.279 . S
O52 Cd44 2.223 . S
O52 C51 1.315 . S
O53 Cd43 2.240 . S
O53 C51 1.279 . S
O54 Cd44 2.297 . S
O54 C49 1.247 . S
O55 Cd44 2.439 . S
O55 C49 1.208 . S
O56 Cd57 2.223 . S
O56 C64 1.315 . S
Cd57 O56 2.223 . S
Cd57 O60 2.297 . S
Cd57 O61 2.439 . S
Cd57 O67 2.240 1_455 S
Cd58 O59 2.240 1_655 S
Cd58 O66 2.223 . S
Cd58 O68 2.297 . S
Cd58 O69 2.439 . S
O59 Cd58 2.240 1_455 S
O59 C64 1.279 . S
O60 Cd57 2.297 . S
O60 C62 1.247 . S
O61 Cd57 2.439 . S
O61 C62 1.208 . S
C62 O60 1.247 . S
C62 O61 1.208 . S
C63 O68 1.247 . S
C63 O69 1.208 . S
C64 O56 1.315 . S
C64 O59 1.279 . S
C65 O66 1.315 . S
C65 O67 1.279 . S
O66 Cd58 2.223 . S
O66 C65 1.315 . S
O67 Cd57 2.240 1_655 S
O67 C65 1.279 . S
O68 Cd58 2.297 . S
O68 C63 1.247 . S
O69 Cd58 2.439 . S
O69 C63 1.208 . S
O70 Cd71 2.223 . S
O70 C78 1.315 . S
Cd71 O70 2.223 . S
Cd71 O74 2.297 . S
Cd71 O75 2.439 . S
Cd71 O81 2.240 . S
Cd72 O73 2.240 . S
Cd72 O80 2.223 . S
Cd72 O82 2.297 . S
Cd72 O83 2.439 . S
O73 Cd72 2.240 . S
O73 C78 1.279 . S
O74 Cd71 2.297 . S
O74 C76 1.247 . S
O75 Cd71 2.439 . S
O75 C76 1.208 . S
C76 O74 1.247 . S
C76 O75 1.208 . S
C77 O82 1.247 . S
C77 O83 1.208 . S
C78 O70 1.315 . S
C78 O73 1.279 . S
C79 O80 1.315 . S
C79 O81 1.279 . S
O80 Cd72 2.223 . S
O80 C79 1.315 . S
O81 Cd71 2.240 . S
O81 C79 1.279 . S
O82 Cd72 2.297 . S
O82 C77 1.247 . S
O83 Cd72 2.439 . S
O83 C77 1.208 . S
O84 Cd85 2.223 . S
O84 C92 1.315 . S
Cd85 O84 2.223 . S
Cd85 O88 2.297 . S
Cd85 O89 2.439 . S
Cd85 O95 2.240 . S
Cd86 O87 2.240 . S
Cd86 O94 2.223 . S
Cd86 O96 2.297 . S
Cd86 O97 2.439 . S
O87 Cd86 2.240 . S
O87 C92 1.279 . S
O88 Cd85 2.297 . S
O88 C90 1.247 . S
O89 Cd85 2.439 . S
O89 C90 1.208 . S
C90 O88 1.247 . S
C90 O89 1.208 . S
C91 O96 1.247 . S
C91 O97 1.208 . S
C92 O84 1.315 . S
C92 O87 1.279 . S
C93 O94 1.315 . S
C93 O95 1.279 . S
O94 Cd86 2.223 . S
O94 C93 1.315 . S
O95 Cd85 2.240 . S
O95 C93 1.279 . S
O96 Cd86 2.297 . S
O96 C91 1.247 . S
O97 Cd86 2.439 . S
O97 C91 1.208 . S
O98 Cd99 2.223 . S
O98 C106 1.315 . S
Cd99 O98 2.223 . S
Cd99 O102 2.297 1_455 S
Cd99 O103 2.439 1_455 S
Cd99 O109 2.240 . S
Cd100 O101 2.240 . S
Cd100 O108 2.223 . S
Cd100 O110 2.297 . S
Cd100 O111 2.439 1_455 S
O101 Cd100 2.240 . S
O101 C106 1.279 . S
O102 Cd99 2.297 1_655 S
O102 C104 1.247 . S
O103 Cd99 2.439 1_655 S
O103 C104 1.208 . S
C104 O102 1.247 . S
C104 O103 1.208 . S
C105 O110 1.247 1_655 S
C105 O111 1.208 . S
C106 O98 1.315 . S
C106 O101 1.279 . S
C107 O108 1.315 . S
C107 O109 1.279 . S
O108 Cd100 2.223 . S
O108 C107 1.315 . S
O109 Cd99 2.240 . S
O109 C107 1.279 . S
O110 Cd100 2.297 . S
O110 C105 1.247 1_455 S
O111 Cd100 2.439 1_655 S
O111 C105 1.208 . S
O112 Cd113 2.223 . S
O112 C120 1.315 . S
Cd113 O112 2.223 . S
Cd113 O116 2.297 . S
Cd113 O117 2.439 . S
Cd113 O123 2.240 1_545 S
Cd114 O115 2.240 1_565 S
Cd114 O122 2.223 . S
Cd114 O124 2.297 . S
Cd114 O125 2.439 . S
O115 Cd114 2.240 1_545 S
O115 C120 1.279 . S
O116 Cd113 2.297 . S
O116 C118 1.247 . S
O117 Cd113 2.439 . S
O117 C118 1.208 . S
C118 O116 1.247 . S
C118 O117 1.208 . S
C119 O124 1.247 . S
C119 O125 1.208 . S
C120 O112 1.315 . S
C120 O115 1.279 . S
C121 O122 1.315 . S
C121 O123 1.279 . S
O122 Cd114 2.223 . S
O122 C121 1.315 . S
O123 Cd113 2.240 1_565 S
O123 C121 1.279 . S
O124 Cd114 2.297 . S
O124 C119 1.247 . S
O125 Cd114 2.439 . S
O125 C119 1.208 . S
O126 Cd127 2.223 . S
O126 C134 1.315 . S
Cd127 O126 2.223 . S
Cd127 O130 2.297 . S
Cd127 O131 2.439 . S
Cd127 O137 2.240 . S
Cd128 O129 2.240 . S
Cd128 O136 2.223 . S
Cd128 O138 2.297 . S
Cd128 O139 2.439 . S
O129 Cd128 2.240 . S
O129 C134 1.279 . S
O130 Cd127 2.297 . S
O130 C132 1.247 . S
O131 Cd127 2.439 . S
O131 C132 1.208 . S
C132 O130 1.247 . S
C132 O131 1.208 . S
C133 O138 1.247 . S
C133 O139 1.208 . S
C134 O126 1.315 . S
C134 O129 1.279 . S
C135 O136 1.315 . S
C135 O137 1.279 . S
O136 Cd128 2.223 . S
O136 C135 1.315 . S
O137 Cd127 2.240 . S
O137 C135 1.279 . S
O138 Cd128 2.297 . S
O138 C133 1.247 . S
O139 Cd128 2.439 . S
O139 C133 1.208 . S
O140 Cd141 2.223 . S
O140 C148 1.315 . S
Cd141 O140 2.223 . S
Cd141 O144 2.297 . S
Cd141 O145 2.439 . S
Cd141 O151 2.240 1_545 S
Cd142 O143 2.240 1_565 S
Cd142 O150 2.223 . S
Cd142 O152 2.297 . S
Cd142 O153 2.439 . S
O143 Cd142 2.240 1_545 S
O143 C148 1.279 . S
O144 Cd141 2.297 . S
O144 C146 1.247 . S
O145 Cd141 2.439 . S
O145 C146 1.208 . S
C146 O144 1.247 . S
C146 O145 1.208 . S
C147 O152 1.247 . S
C147 O153 1.208 . S
C148 O140 1.315 . S
C148 O143 1.279 . S
C149 O150 1.315 . S
C149 O151 1.279 . S
O150 Cd142 2.223 . S
O150 C149 1.315 . S
O151 Cd141 2.240 1_565 S
O151 C149 1.279 . S
O152 Cd142 2.297 . S
O152 C147 1.247 . S
O153 Cd142 2.439 . S
O153 C147 1.208 . S
O154 Cd155 2.223 . S
O154 C162 1.315 . S
Cd155 O154 2.223 . S
Cd155 O158 2.297 1_554 S
Cd155 O159 2.439 1_554 S
Cd155 O165 2.240 . S
Cd156 O157 2.240 . S
Cd156 O164 2.223 . S
Cd156 O166 2.297 . S
Cd156 O167 2.439 1_554 S
O157 Cd156 2.240 . S
O157 C162 1.279 . S
O158 Cd155 2.297 1_556 S
O158 C160 1.247 . S
O159 Cd155 2.439 1_556 S
O159 C160 1.208 . S
C160 O158 1.247 . S
C160 O159 1.208 . S
C161 O166 1.247 1_556 S
C161 O167 1.208 . S
C162 O154 1.315 . S
C162 O157 1.279 . S
C163 O164 1.315 . S
C163 O165 1.279 . S
O164 Cd156 2.223 . S
O164 C163 1.315 . S
O165 Cd155 2.240 . S
O165 C163 1.279 . S
O166 Cd156 2.297 . S
O166 C161 1.247 1_554 S
O167 Cd156 2.439 1_556 S
O167 C161 1.208 . S
O168 Cd169 2.223 . S
O168 C176 1.315 . S
Cd169 O168 2.223 . S
Cd169 O172 2.297 . S
Cd169 O173 2.439 . S
Cd169 O179 2.240 1_554 S
Cd170 O171 2.240 1_556 S
Cd170 O178 2.223 . S
Cd170 O180 2.297 . S
Cd170 O181 2.439 . S
O171 Cd170 2.240 1_554 S
O171 C176 1.279 . S
O172 Cd169 2.297 . S
O172 C174 1.247 . S
O173 Cd169 2.439 . S
O173 C174 1.208 . S
C174 O172 1.247 . S
C174 O173 1.208 . S
C175 O180 1.247 . S
C175 O181 1.208 . S
C176 O168 1.315 . S
C176 O171 1.279 . S
C177 O178 1.315 . S
C177 O179 1.279 . S
O178 Cd170 2.223 . S
O178 C177 1.315 . S
O179 Cd169 2.240 1_556 S
O179 C177 1.279 . S
O180 Cd170 2.297 . S
O180 C175 1.247 . S
O181 Cd170 2.439 . S
O181 C175 1.208 . S
O182 Cd183 2.223 . S
O182 C190 1.315 . S
Cd183 O182 2.223 . S
Cd183 O186 2.297 . S
Cd183 O187 2.439 . S
Cd183 O193 2.240 1_554 S
Cd184 O185 2.240 1_556 S
Cd184 O192 2.223 . S
Cd184 O194 2.297 . S
Cd184 O195 2.439 . S
O185 Cd184 2.240 1_554 S
O185 C190 1.279 . S
O186 Cd183 2.297 . S
O186 C188 1.247 . S
O187 Cd183 2.439 . S
O187 C188 1.208 . S
C188 O186 1.247 . S
C188 O187 1.208 . S
C189 O194 1.247 . S
C189 O195 1.208 . S
C190 O182 1.315 . S
C190 O185 1.279 . S
C191 O192 1.315 . S
C191 O193 1.279 . S
O192 Cd184 2.223 . S
O192 C191 1.315 . S
O193 Cd183 2.240 1_556 S
O193 C191 1.279 . S
O194 Cd184 2.297 . S
O194 C189 1.247 . S
O195 Cd184 2.439 . S
O195 C189 1.208 . S
O196 Cd197 2.223 . S
O196 C204 1.315 . S
Cd197 O196 2.223 . S
Cd197 O200 2.297 . S
Cd197 O201 2.439 . S
Cd197 O207 2.240 . S
Cd198 O199 2.240 . S
Cd198 O206 2.223 . S
Cd198 O208 2.297 . S
Cd198 O209 2.439 . S
O199 Cd198 2.240 . S
O199 C204 1.279 . S
O200 Cd197 2.297 . S
O200 C202 1.247 . S
O201 Cd197 2.439 . S
O201 C202 1.208 . S
C202 O200 1.247 . S
C202 O201 1.208 . S
C203 O208 1.247 . S
C203 O209 1.208 . S
C204 O196 1.315 . S
C204 O199 1.279 . S
C205 O206 1.315 . S
C205 O207 1.279 . S
O206 Cd198 2.223 . S
O206 C205 1.315 . S
O207 Cd197 2.240 . S
O207 C205 1.279 . S
O208 Cd198 2.297 . S
O208 C203 1.247 . S
O209 Cd198 2.439 . S
O209 C203 1.208 . S
O210 Cd211 2.223 . S
O210 C218 1.315 . S
Cd211 O210 2.223 . S
Cd211 O214 2.297 . S
Cd211 O215 2.439 . S
Cd211 O221 2.240 . S
Cd212 O213 2.240 . S
Cd212 O220 2.223 . S
Cd212 O222 2.297 . S
Cd212 O223 2.439 . S
O213 Cd212 2.240 . S
O213 C218 1.279 . S
O214 Cd211 2.297 . S
O214 C216 1.247 . S
O215 Cd211 2.439 . S
O215 C216 1.208 . S
C216 O214 1.247 . S
C216 O215 1.208 . S
C217 O222 1.247 . S
C217 O223 1.208 . S
C218 O210 1.315 . S
C218 O213 1.279 . S
C219 O220 1.315 . S
C219 O221 1.279 . S
O220 Cd212 2.223 . S
O220 C219 1.315 . S
O221 Cd211 2.240 . S
O221 C219 1.279 . S
O222 Cd212 2.297 . S
O222 C217 1.247 . S
O223 Cd212 2.439 . S
O223 C217 1.208 . S
O224 Cd225 2.223 . S
O224 C232 1.315 . S
Cd225 O224 2.223 . S
Cd225 O228 2.297 1_545 S
Cd225 O229 2.439 1_545 S
Cd225 O235 2.240 . S
Cd226 O227 2.240 . S
Cd226 O234 2.223 . S
Cd226 O236 2.297 . S
Cd226 O237 2.439 1_545 S
O227 Cd226 2.240 . S
O227 C232 1.279 . S
O228 Cd225 2.297 1_565 S
O228 C230 1.247 . S
O229 Cd225 2.439 1_565 S
O229 C230 1.208 . S
C230 O228 1.247 . S
C230 O229 1.208 . S
C231 O236 1.247 1_565 S
C231 O237 1.208 . S
C232 O224 1.315 . S
C232 O227 1.279 . S
C233 O234 1.315 . S
C233 O235 1.279 . S
O234 Cd226 2.223 . S
O234 C233 1.315 . S
O235 Cd225 2.240 . S
O235 C233 1.279 . S
O236 Cd226 2.297 . S
O236 C231 1.247 1_545 S
O237 Cd226 2.439 1_565 S
O237 C231 1.208 . S
O238 Cd239 2.223 . S
O238 C246 1.315 . S
Cd239 O238 2.223 . S
Cd239 O242 2.297 . S
Cd239 O243 2.439 . S
Cd239 O249 2.240 . S
Cd240 O241 2.240 . S
Cd240 O248 2.223 . S
Cd240 O250 2.297 . S
Cd240 O251 2.439 . S
O241 Cd240 2.240 . S
O241 C246 1.279 . S
O242 Cd239 2.297 . S
O242 C244 1.247 . S
O243 Cd239 2.439 . S
O243 C244 1.208 . S
C244 O242 1.247 . S
C244 O243 1.208 . S
C245 O250 1.247 . S
C245 O251 1.208 . S
C246 O238 1.315 . S
C246 O241 1.279 . S
C247 O248 1.315 . S
C247 O249 1.279 . S
O248 Cd240 2.223 . S
O248 C247 1.315 . S
O249 Cd239 2.240 . S
O249 C247 1.279 . S
O250 Cd240 2.297 . S
O250 C245 1.247 . S
O251 Cd240 2.439 . S
O251 C245 1.208 . S
O252 Cd253 2.223 . S
O252 C260 1.315 . S
Cd253 O252 2.223 . S
Cd253 O256 2.297 . S
Cd253 O257 2.439 . S
Cd253 O263 2.240 . S
Cd254 O255 2.240 . S
Cd254 O262 2.223 . S
Cd254 O264 2.297 . S
Cd254 O265 2.439 . S
O255 Cd254 2.240 . S
O255 C260 1.279 . S
O256 Cd253 2.297 . S
O256 C258 1.247 . S
O257 Cd253 2.439 . S
O257 C258 1.208 . S
C258 O256 1.247 . S
C258 O257 1.208 . S
C259 O264 1.247 . S
C259 O265 1.208 . S
C260 O252 1.315 . S
C260 O255 1.279 . S
C261 O262 1.315 . S
C261 O263 1.279 . S
O262 Cd254 2.223 . S
O262 C261 1.315 . S
O263 Cd253 2.240 . S
O263 C261 1.279 . S
O264 Cd254 2.297 . S
O264 C259 1.247 . S
O265 Cd254 2.439 . S
O265 C259 1.208 . S
O266 Cd267 2.223 . S
O266 C274 1.315 . S
Cd267 O266 2.223 . S
Cd267 O270 2.297 . S
Cd267 O271 2.439 1_545 S
Cd267 O277 2.240 . S
Cd268 O269 2.240 . S
Cd268 O276 2.223 . S
Cd268 O278 2.297 1_545 S
Cd268 O279 2.439 1_545 S
O269 Cd268 2.240 . S
O269 C274 1.279 . S
O270 Cd267 2.297 . S
O270 C272 1.247 1_545 S
O271 Cd267 2.439 1_565 S
O271 C272 1.208 . S
C272 O270 1.247 1_565 S
C272 O271 1.208 . S
C273 O278 1.247 . S
C273 O279 1.208 . S
C274 O266 1.315 . S
C274 O269 1.279 . S
C275 O276 1.315 . S
C275 O277 1.279 . S
O276 Cd268 2.223 . S
O276 C275 1.315 . S
O277 Cd267 2.240 . S
O277 C275 1.279 . S
O278 Cd268 2.297 1_565 S
O278 C273 1.247 . S
O279 Cd268 2.439 1_565 S
O279 C273 1.208 . S
O280 Cd281 2.223 . S
O280 C288 1.315 . S
Cd281 O280 2.223 . S
Cd281 O284 2.297 . S
Cd281 O285 2.439 1_554 S
Cd281 O291 2.240 . S
Cd282 O283 2.240 . S
Cd282 O290 2.223 . S
Cd282 O292 2.297 1_554 S
Cd282 O293 2.439 1_554 S
O283 Cd282 2.240 . S
O283 C288 1.279 . S
O284 Cd281 2.297 . S
O284 C286 1.247 1_554 S
O285 Cd281 2.439 1_556 S
O285 C286 1.208 . S
C286 O284 1.247 1_556 S
C286 O285 1.208 . S
C287 O292 1.247 . S
C287 O293 1.208 . S
C288 O280 1.315 . S
C288 O283 1.279 . S
C289 O290 1.315 . S
C289 O291 1.279 . S
O290 Cd282 2.223 . S
O290 C289 1.315 . S
O291 Cd281 2.240 . S
O291 C289 1.279 . S
O292 Cd282 2.297 1_556 S
O292 C287 1.247 . S
O293 Cd282 2.439 1_556 S
O293 C287 1.208 . S
O294 Cd295 2.223 . S
O294 C302 1.315 . S
Cd295 O294 2.223 . S
Cd295 O298 2.297 . S
Cd295 O299 2.439 . S
Cd295 O305 2.240 . S
Cd296 O297 2.240 . S
Cd296 O304 2.223 . S
Cd296 O306 2.297 . S
Cd296 O307 2.439 . S
O297 Cd296 2.240 . S
O297 C302 1.279 . S
O298 Cd295 2.297 . S
O298 C300 1.247 . S
O299 Cd295 2.439 . S
O299 C300 1.208 . S
C300 O298 1.247 . S
C300 O299 1.208 . S
C301 O306 1.247 . S
C301 O307 1.208 . S
C302 O294 1.315 . S
C302 O297 1.279 . S
C303 O304 1.315 . S
C303 O305 1.279 . S
O304 Cd296 2.223 . S
O304 C303 1.315 . S
O305 Cd295 2.240 . S
O305 C303 1.279 . S
O306 Cd296 2.297 . S
O306 C301 1.247 . S
O307 Cd296 2.439 . S
O307 C301 1.208 . S
O308 Cd309 2.223 . S
O308 C316 1.315 . S
Cd309 O308 2.223 . S
Cd309 O312 2.297 . S
Cd309 O313 2.439 . S
Cd309 O319 2.240 . S
Cd310 O311 2.240 . S
Cd310 O318 2.223 . S
Cd310 O320 2.297 . S
Cd310 O321 2.439 . S
O311 Cd310 2.240 . S
O311 C316 1.279 . S
O312 Cd309 2.297 . S
O312 C314 1.247 . S
O313 Cd309 2.439 . S
O313 C314 1.208 . S
C314 O312 1.247 . S
C314 O313 1.208 . S
C315 O320 1.247 . S
C315 O321 1.208 . S
C316 O308 1.315 . S
C316 O311 1.279 . S
C317 O318 1.315 . S
C317 O319 1.279 . S
O318 Cd310 2.223 . S
O318 C317 1.315 . S
O319 Cd309 2.240 . S
O319 C317 1.279 . S
O320 Cd310 2.297 . S
O320 C315 1.247 . S
O321 Cd310 2.439 . S
O321 C315 1.208 . S
O322 Cd323 2.223 . S
O322 C330 1.315 . S
Cd323 O322 2.223 . S
Cd323 O326 2.297 . S
Cd323 O327 2.439 . S
Cd323 O333 2.240 . S
Cd324 O325 2.240 . S
Cd324 O332 2.223 . S
Cd324 O334 2.297 . S
Cd324 O335 2.439 . S
O325 Cd324 2.240 . S
O325 C330 1.279 . S
O326 Cd323 2.297 . S
O326 C328 1.247 . S
O327 Cd323 2.439 . S
O327 C328 1.208 . S
C328 O326 1.247 . S
C328 O327 1.208 . S
C329 O334 1.247 . S
C329 O335 1.208 . S
C330 O322 1.315 . S
C330 O325 1.279 . S
C331 O332 1.315 . S
C331 O333 1.279 . S
O332 Cd324 2.223 . S
O332 C331 1.315 . S
O333 Cd323 2.240 . S
O333 C331 1.279 . S
O334 Cd324 2.297 . S
O334 C329 1.247 . S
O335 Cd324 2.439 . S
O335 C329 1.208 . S
C336 C337 1.369 . S
C336 C338 1.419 . S
C336 H340 0.930 . S
C337 C336 1.369 . S
C337 C346 1.429 . S
C338 C336 1.419 . S
C338 C339 1.363 . S
C338 H341 0.929 . S
C339 C338 1.363 . S
C339 C345 1.428 . S
H340 C336 0.930 . S
H341 C338 0.929 . S
S342 N343 1.613 . S
S342 N344 1.610 . S
N343 S342 1.613 . S
N343 C346 1.350 . S
N344 S342 1.610 . S
N344 C345 1.351 . S
C345 C339 1.428 . S
C345 N344 1.351 . S
C345 C346 1.434 . S
C346 C337 1.429 . S
C346 N343 1.350 . S
C346 C345 1.434 . S
C347 C348 1.369 . S
C347 C349 1.419 . S
C347 H351 0.930 . S
C348 C347 1.369 . S
C348 C357 1.429 . S
C349 C347 1.419 . S
C349 C350 1.363 . S
C349 H352 0.929 . S
C350 C349 1.363 . S
C350 C356 1.428 . S
H351 C347 0.930 . S
H352 C349 0.929 . S
S353 N354 1.613 . S
S353 N355 1.610 . S
N354 S353 1.613 . S
N354 C357 1.350 . S
N355 S353 1.610 . S
N355 C356 1.351 . S
C356 C350 1.428 . S
C356 N355 1.351 . S
C356 C357 1.434 . S
C357 C348 1.429 . S
C357 N354 1.350 . S
C357 C356 1.434 . S
C358 C359 1.369 . S
C358 C360 1.419 . S
C358 H362 0.930 . S
C359 C358 1.369 . S
C359 C368 1.429 . S
C360 C358 1.419 . S
C360 C361 1.363 . S
C360 H363 0.929 . S
C361 C360 1.363 . S
C361 C367 1.428 . S
H362 C358 0.930 . S
H363 C360 0.929 . S
S364 N365 1.613 . S
S364 N366 1.610 . S
N365 S364 1.613 . S
N365 C368 1.350 . S
N366 S364 1.610 . S
N366 C367 1.351 . S
C367 C361 1.428 . S
C367 N366 1.351 . S
C367 C368 1.434 . S
C368 C359 1.429 . S
C368 N365 1.350 . S
C368 C367 1.434 . S
C369 C370 1.369 . S
C369 C371 1.419 . S
C369 H373 0.930 . S
C370 C369 1.369 . S
C370 C379 1.429 . S
C371 C369 1.419 . S
C371 C372 1.363 . S
C371 H374 0.929 . S
C372 C371 1.363 . S
C372 C378 1.428 . S
H373 C369 0.930 . S
H374 C371 0.929 . S
S375 N376 1.613 . S
S375 N377 1.610 . S
N376 S375 1.613 . S
N376 C379 1.350 . S
N377 S375 1.610 . S
N377 C378 1.351 . S
C378 C372 1.428 . S
C378 N377 1.351 . S
C378 C379 1.434 . S
C379 C370 1.429 . S
C379 N376 1.350 . S
C379 C378 1.434 . S
C380 C381 1.369 . S
C380 C382 1.419 . S
C380 H384 0.930 . S
C381 C380 1.369 . S
C381 C390 1.429 . S
C382 C380 1.419 . S
C382 C383 1.363 . S
C382 H385 0.929 . S
C383 C382 1.363 . S
C383 C389 1.428 . S
H384 C380 0.930 . S
H385 C382 0.929 . S
S386 N387 1.613 . S
S386 N388 1.610 . S
N387 S386 1.613 . S
N387 C390 1.350 . S
N388 S386 1.610 . S
N388 C389 1.351 . S
C389 C383 1.428 . S
C389 N388 1.351 . S
C389 C390 1.434 . S
C390 C381 1.429 . S
C390 N387 1.350 . S
C390 C389 1.434 . S
C391 C392 1.369 . S
C391 C393 1.419 . S
C391 H395 0.930 . S
C392 C391 1.369 . S
C392 C401 1.429 . S
C393 C391 1.419 . S
C393 C394 1.363 . S
C393 H396 0.929 . S
C394 C393 1.363 . S
C394 C400 1.428 . S
H395 C391 0.930 . S
H396 C393 0.929 . S
S397 N398 1.613 . S
S397 N399 1.610 . S
N398 S397 1.613 . S
N398 C401 1.350 . S
N399 S397 1.610 . S
N399 C400 1.351 . S
C400 C394 1.428 . S
C400 N399 1.351 . S
C400 C401 1.434 . S
C401 C392 1.429 . S
C401 N398 1.350 . S
C401 C400 1.434 . S
C402 C403 1.369 . S
C402 C404 1.419 . S
C402 H406 0.930 . S
C403 C402 1.369 . S
C403 C412 1.429 . S
C404 C402 1.419 . S
C404 C405 1.363 . S
C404 H407 0.929 . S
C405 C404 1.363 . S
C405 C411 1.428 . S
H406 C402 0.930 . S
H407 C404 0.929 . S
S408 N409 1.613 . S
S408 N410 1.610 . S
N409 S408 1.613 . S
N409 C412 1.350 . S
N410 S408 1.610 . S
N410 C411 1.351 . S
C411 C405 1.428 . S
C411 N410 1.351 . S
C411 C412 1.434 . S
C412 C403 1.429 . S
C412 N409 1.350 . S
C412 C411 1.434 . S
C413 C414 1.369 . S
C413 C415 1.419 . S
C413 H417 0.930 . S
C414 C413 1.369 . S
C414 C423 1.429 . S
C415 C413 1.419 . S
C415 C416 1.363 . S
C415 H418 0.929 . S
C416 C415 1.363 . S
C416 C422 1.428 . S
H417 C413 0.930 . S
H418 C415 0.929 . S
S419 N420 1.613 1_554 S
S419 N421 1.610 . S
N420 S419 1.613 1_556 S
N420 C423 1.350 . S
N421 S419 1.610 . S
N421 C422 1.351 1_554 S
C422 C416 1.428 . S
C422 N421 1.351 1_556 S
C422 C423 1.434 . S
C423 C414 1.429 . S
C423 N420 1.350 . S
C423 C422 1.434 . S
C424 C425 1.369 . S
C424 C426 1.419 . S
C424 H428 0.930 . S
C425 C424 1.369 . S
C425 C434 1.429 . S
C426 C424 1.419 . S
C426 C427 1.363 . S
C426 H429 0.929 . S
C427 C426 1.363 . S
C427 C433 1.428 . S
H428 C424 0.930 . S
H429 C426 0.929 . S
S430 N431 1.613 . S
S430 N432 1.610 . S
N431 S430 1.613 . S
N431 C434 1.350 . S
N432 S430 1.610 . S
N432 C433 1.351 . S
C433 C427 1.428 . S
C433 N432 1.351 . S
C433 C434 1.434 . S
C434 C425 1.429 . S
C434 N431 1.350 . S
C434 C433 1.434 . S
C435 C436 1.369 . S
C435 C437 1.419 . S
C435 H439 0.930 . S
C436 C435 1.369 . S
C436 C445 1.429 . S
C437 C435 1.419 . S
C437 C438 1.363 . S
C437 H440 0.929 . S
C438 C437 1.363 . S
C438 C444 1.428 . S
H439 C435 0.930 . S
H440 C437 0.929 . S
S441 N442 1.613 . S
S441 N443 1.610 . S
N442 S441 1.613 . S
N442 C445 1.350 . S
N443 S441 1.610 . S
N443 C444 1.351 . S
C444 C438 1.428 . S
C444 N443 1.351 . S
C444 C445 1.434 . S
C445 C436 1.429 . S
C445 N442 1.350 . S
C445 C444 1.434 . S
C446 C447 1.369 . S
C446 C448 1.419 . S
C446 H450 0.930 . S
C447 C446 1.369 . S
C447 C456 1.429 . S
C448 C446 1.419 . S
C448 C449 1.363 . S
C448 H451 0.929 . S
C449 C448 1.363 . S
C449 C455 1.428 . S
H450 C446 0.930 . S
H451 C448 0.929 . S
S452 N453 1.613 . S
S452 N454 1.610 . S
N453 S452 1.613 . S
N453 C456 1.350 . S
N454 S452 1.610 . S
N454 C455 1.351 . S
C455 C449 1.428 . S
C455 N454 1.351 . S
C455 C456 1.434 . S
C456 C447 1.429 . S
C456 N453 1.350 . S
C456 C455 1.434 . S
C457 C458 1.369 . S
C457 C459 1.419 . S
C457 H461 0.930 . S
C458 C457 1.369 . S
C458 C467 1.429 . S
C459 C457 1.419 . S
C459 C460 1.363 . S
C459 H462 0.929 . S
C460 C459 1.363 . S
C460 C466 1.428 . S
H461 C457 0.930 . S
H462 C459 0.929 . S
S463 N464 1.613 . S
S463 N465 1.610 . S
N464 S463 1.613 . S
N464 C467 1.350 . S
N465 S463 1.610 . S
N465 C466 1.351 . S
C466 C460 1.428 . S
C466 N465 1.351 . S
C466 C467 1.434 . S
C467 C458 1.429 . S
C467 N464 1.350 . S
C467 C466 1.434 . S
C468 C469 1.369 . S
C468 C470 1.419 . S
C468 H472 0.930 . S
C469 C468 1.369 . S
C469 C478 1.429 . S
C470 C468 1.419 . S
C470 C471 1.363 . S
C470 H473 0.929 . S
C471 C470 1.363 . S
C471 C477 1.428 . S
H472 C468 0.930 . S
H473 C470 0.929 . S
S474 N475 1.613 . S
S474 N476 1.610 . S
N475 S474 1.613 . S
N475 C478 1.350 . S
N476 S474 1.610 . S
N476 C477 1.351 . S
C477 C471 1.428 . S
C477 N476 1.351 . S
C477 C478 1.434 . S
C478 C469 1.429 . S
C478 N475 1.350 . S
C478 C477 1.434 . S
C479 C480 1.369 . S
C479 C481 1.419 . S
C479 H483 0.930 . S
C480 C479 1.369 . S
C480 C489 1.429 . S
C481 C479 1.419 . S
C481 C482 1.363 . S
C481 H484 0.929 . S
C482 C481 1.363 . S
C482 C488 1.428 . S
H483 C479 0.930 . S
H484 C481 0.929 . S
S485 N486 1.613 . S
S485 N487 1.610 . S
N486 S485 1.613 . S
N486 C489 1.350 . S
N487 S485 1.610 . S
N487 C488 1.351 . S
C488 C482 1.428 . S
C488 N487 1.351 . S
C488 C489 1.434 . S
C489 C480 1.429 . S
C489 N486 1.350 . S
C489 C488 1.434 . S
C490 C491 1.369 . S
C490 C492 1.419 . S
C490 H494 0.930 . S
C491 C490 1.369 . S
C491 C500 1.429 . S
C492 C490 1.419 . S
C492 C493 1.363 . S
C492 H495 0.929 . S
C493 C492 1.363 . S
C493 C499 1.428 . S
H494 C490 0.930 . S
H495 C492 0.929 . S
S496 N497 1.613 . S
S496 N498 1.610 . S
N497 S496 1.613 . S
N497 C500 1.350 . S
N498 S496 1.610 . S
N498 C499 1.351 . S
C499 C493 1.428 . S
C499 N498 1.351 . S
C499 C500 1.434 . S
C500 C491 1.429 . S
C500 N497 1.350 . S
C500 C499 1.434 . S
C501 C502 1.369 . S
C501 C503 1.419 . S
C501 H505 0.930 . S
C502 C501 1.369 . S
C502 C511 1.429 . S
C503 C501 1.419 . S
C503 C504 1.363 . S
C503 H506 0.929 . S
C504 C503 1.363 . S
C504 C510 1.428 . S
H505 C501 0.930 . S
H506 C503 0.929 . S
S507 N508 1.613 . S
S507 N509 1.610 1_455 S
N508 S507 1.613 . S
N508 C511 1.350 1_455 S
N509 S507 1.610 1_655 S
N509 C510 1.351 . S
C510 C504 1.428 . S
C510 N509 1.351 . S
C510 C511 1.434 . S
C511 C502 1.429 . S
C511 N508 1.350 1_655 S
C511 C510 1.434 . S
C512 C513 1.369 . S
C512 C514 1.419 . S
C512 H516 0.930 . S
C513 C512 1.369 . S
C513 C522 1.429 . S
C514 C512 1.419 . S
C514 C515 1.363 . S
C514 H517 0.929 . S
C515 C514 1.363 . S
C515 C521 1.428 . S
H516 C512 0.930 . S
H517 C514 0.929 . S
S518 N519 1.613 . S
S518 N520 1.610 . S
N519 S518 1.613 . S
N519 C522 1.350 . S
N520 S518 1.610 . S
N520 C521 1.351 . S
C521 C515 1.428 . S
C521 N520 1.351 . S
C521 C522 1.434 . S
C522 C513 1.429 . S
C522 N519 1.350 . S
C522 C521 1.434 . S
C523 C524 1.369 . S
C523 C525 1.419 . S
C523 H527 0.930 . S
C524 C523 1.369 . S
C524 C533 1.429 . S
C525 C523 1.419 . S
C525 C526 1.363 . S
C525 H528 0.929 . S
C526 C525 1.363 . S
C526 C532 1.428 . S
H527 C523 0.930 . S
H528 C525 0.929 . S
S529 N530 1.613 . S
S529 N531 1.610 . S
N530 S529 1.613 . S
N530 C533 1.350 . S
N531 S529 1.610 . S
N531 C532 1.351 . S
C532 C526 1.428 . S
C532 N531 1.351 . S
C532 C533 1.434 . S
C533 C524 1.429 . S
C533 N530 1.350 . S
C533 C532 1.434 . S
C534 C535 1.369 . S
C534 C536 1.419 . S
C534 H538 0.930 . S
C535 C534 1.369 . S
C535 C544 1.429 . S
C536 C534 1.419 . S
C536 C537 1.363 . S
C536 H539 0.929 . S
C537 C536 1.363 . S
C537 C543 1.428 . S
H538 C534 0.930 . S
H539 C536 0.929 . S
S540 N541 1.613 . S
S540 N542 1.610 . S
N541 S540 1.613 . S
N541 C544 1.350 . S
N542 S540 1.610 . S
N542 C543 1.351 . S
C543 C537 1.428 . S
C543 N542 1.351 . S
C543 C544 1.434 . S
C544 C535 1.429 . S
C544 N541 1.350 . S
C544 C543 1.434 . S
C545 C546 1.369 . S
C545 C547 1.419 . S
C545 H549 0.930 . S
C546 C545 1.369 . S
C546 C555 1.429 . S
C547 C545 1.419 . S
C547 C548 1.363 . S
C547 H550 0.929 . S
C548 C547 1.363 . S
C548 C554 1.428 . S
H549 C545 0.930 . S
H550 C547 0.929 . S
S551 N552 1.613 . S
S551 N553 1.610 . S
N552 S551 1.613 . S
N552 C555 1.350 . S
N553 S551 1.610 . S
N553 C554 1.351 . S
C554 C548 1.428 . S
C554 N553 1.351 . S
C554 C555 1.434 . S
C555 C546 1.429 . S
C555 N552 1.350 . S
C555 C554 1.434 . S
C556 C557 1.369 . S
C556 C558 1.419 . S
C556 H560 0.930 . S
C557 C556 1.369 . S
C557 C566 1.429 . S
C558 C556 1.419 . S
C558 C559 1.363 . S
C558 H561 0.929 . S
C559 C558 1.363 . S
C559 C565 1.428 . S
H560 C556 0.930 . S
H561 C558 0.929 . S
S562 N563 1.613 . S
S562 N564 1.610 . S
N563 S562 1.613 . S
N563 C566 1.350 . S
N564 S562 1.610 . S
N564 C565 1.351 . S
C565 C559 1.428 . S
C565 N564 1.351 . S
C565 C566 1.434 . S
C566 C557 1.429 . S
C566 N563 1.350 . S
C566 C565 1.434 . S
C567 C568 1.369 . S
C567 C569 1.419 . S
C567 H571 0.930 . S
C568 C567 1.369 . S
C568 C577 1.429 . S
C569 C567 1.419 . S
C569 C570 1.363 . S
C569 H572 0.929 . S
C570 C569 1.363 . S
C570 C576 1.428 . S
H571 C567 0.930 . S
H572 C569 0.929 . S
S573 N574 1.613 . S
S573 N575 1.610 . S
N574 S573 1.613 . S
N574 C577 1.350 . S
N575 S573 1.610 . S
N575 C576 1.351 . S
C576 C570 1.428 . S
C576 N575 1.351 . S
C576 C577 1.434 . S
C577 C568 1.429 . S
C577 N574 1.350 . S
C577 C576 1.434 . S
C578 C579 1.369 . S
C578 C580 1.419 . S
C578 H582 0.930 . S
C579 C578 1.369 . S
C579 C588 1.429 . S
C580 C578 1.419 . S
C580 C581 1.363 . S
C580 H583 0.929 . S
C581 C580 1.363 . S
C581 C587 1.428 . S
H582 C578 0.930 . S
H583 C580 0.929 . S
S584 N585 1.613 . S
S584 N586 1.610 . S
N585 S584 1.613 . S
N585 C588 1.350 . S
N586 S584 1.610 . S
N586 C587 1.351 . S
C587 C581 1.428 . S
C587 N586 1.351 . S
C587 C588 1.434 . S
C588 C579 1.429 . S
C588 N585 1.350 . S
C588 C587 1.434 . S
C589 C590 1.369 . S
C589 C591 1.419 . S
C589 H593 0.930 . S
C590 C589 1.369 . S
C590 C599 1.429 . S
C591 C589 1.419 . S
C591 C592 1.363 . S
C591 H594 0.929 . S
C592 C591 1.363 . S
C592 C598 1.428 . S
H593 C589 0.930 . S
H594 C591 0.929 . S
S595 N596 1.613 . S
S595 N597 1.610 . S
N596 S595 1.613 . S
N596 C599 1.350 . S
N597 S595 1.610 . S
N597 C598 1.351 . S
C598 C592 1.428 . S
C598 N597 1.351 . S
C598 C599 1.434 . S
C599 C590 1.429 . S
C599 N596 1.350 . S
C599 C598 1.434 . S
C600 C601 1.369 . S
C600 C602 1.419 . S
C600 H604 0.930 . S
C601 C600 1.369 . S
C601 C610 1.429 . S
C602 C600 1.419 . S
C602 C603 1.363 . S
C602 H605 0.929 . S
C603 C602 1.363 . S
C603 C609 1.428 . S
H604 C600 0.930 . S
H605 C602 0.929 . S
S606 N607 1.613 . S
S606 N608 1.610 . S
N607 S606 1.613 . S
N607 C610 1.350 . S
N608 S606 1.610 . S
N608 C609 1.351 . S
C609 C603 1.428 . S
C609 N608 1.351 . S
C609 C610 1.434 . S
C610 C601 1.429 . S
C610 N607 1.350 . S
C610 C609 1.434 . S
C611 C612 1.369 . S
C611 C613 1.419 . S
C611 H615 0.930 . S
C612 C611 1.369 . S
C612 C621 1.429 . S
C613 C611 1.419 . S
C613 C614 1.363 . S
C613 H616 0.929 . S
C614 C613 1.363 . S
C614 C620 1.428 . S
H615 C611 0.930 . S
H616 C613 0.929 . S
S617 N618 1.613 . S
S617 N619 1.610 . S
N618 S617 1.613 . S
N618 C621 1.350 . S
N619 S617 1.610 . S
N619 C620 1.351 . S
C620 C614 1.428 . S
C620 N619 1.351 . S
C620 C621 1.434 . S
C621 C612 1.429 . S
C621 N618 1.350 . S
C621 C620 1.434 . S
C622 C623 1.369 . S
C622 C624 1.419 . S
C622 H626 0.930 . S
C623 C622 1.369 . S
C623 C632 1.429 . S
C624 C622 1.419 . S
C624 C625 1.363 . S
C624 H627 0.929 . S
C625 C624 1.363 . S
C625 C631 1.428 . S
H626 C622 0.930 . S
H627 C624 0.929 . S
S628 N629 1.613 . S
S628 N630 1.610 . S
N629 S628 1.613 . S
N629 C632 1.350 . S
N630 S628 1.610 . S
N630 C631 1.351 . S
C631 C625 1.428 . S
C631 N630 1.351 . S
C631 C632 1.434 . S
C632 C623 1.429 . S
C632 N629 1.350 . S
C632 C631 1.434 . S
C633 C634 1.369 . S
C633 C635 1.419 . S
C633 H637 0.930 . S
C634 C633 1.369 . S
C634 C643 1.429 . S
C635 C633 1.419 . S
C635 C636 1.363 . S
C635 H638 0.929 . S
C636 C635 1.363 . S
C636 C642 1.428 . S
H637 C633 0.930 . S
H638 C635 0.929 . S
S639 N640 1.613 . S
S639 N641 1.610 . S
N640 S639 1.613 . S
N640 C643 1.350 . S
N641 S639 1.610 . S
N641 C642 1.351 . S
C642 C636 1.428 . S
C642 N641 1.351 . S
C642 C643 1.434 . S
C643 C634 1.429 . S
C643 N640 1.350 . S
C643 C642 1.434 . S
C644 C645 1.369 . S
C644 C646 1.419 . S
C644 H648 0.930 . S
C645 C644 1.369 . S
C645 C654 1.429 . S
C646 C644 1.419 . S
C646 C647 1.363 . S
C646 H649 0.929 . S
C647 C646 1.363 . S
C647 C653 1.428 . S
H648 C644 0.930 . S
H649 C646 0.929 . S
S650 N651 1.613 1_655 S
S650 N652 1.610 1_655 S
N651 S650 1.613 1_455 S
N651 C654 1.350 . S
N652 S650 1.610 1_455 S
N652 C653 1.351 . S
C653 C647 1.428 . S
C653 N652 1.351 . S
C653 C654 1.434 . S
C654 C645 1.429 . S
C654 N651 1.350 . S
C654 C653 1.434 . S
C655 C656 1.369 . S
C655 C657 1.419 . S
C655 H659 0.930 . S
C656 C655 1.369 . S
C656 C665 1.429 . S
C657 C655 1.419 . S
C657 C658 1.363 . S
C657 H660 0.929 . S
C658 C657 1.363 . S
C658 C664 1.428 . S
H659 C655 0.930 . S
H660 C657 0.929 . S
S661 N662 1.613 . S
S661 N663 1.610 . S
N662 S661 1.613 . S
N662 C665 1.350 . S
N663 S661 1.610 . S
N663 C664 1.351 . S
C664 C658 1.428 . S
C664 N663 1.351 . S
C664 C665 1.434 . S
C665 C656 1.429 . S
C665 N662 1.350 . S
C665 C664 1.434 . S
C666 C667 1.369 . S
C666 C668 1.419 . S
C666 H670 0.930 . S
C667 C666 1.369 . S
C667 C676 1.429 . S
C668 C666 1.419 . S
C668 C669 1.363 . S
C668 H671 0.929 . S
C669 C668 1.363 . S
C669 C675 1.428 . S
H670 C666 0.930 . S
H671 C668 0.929 . S
S672 N673 1.613 . S
S672 N674 1.610 . S
N673 S672 1.613 . S
N673 C676 1.350 . S
N674 S672 1.610 . S
N674 C675 1.351 . S
C675 C669 1.428 . S
C675 N674 1.351 . S
C675 C676 1.434 . S
C676 C667 1.429 . S
C676 N673 1.350 . S
C676 C675 1.434 . S
C677 C678 1.369 . S
C677 C679 1.419 . S
C677 H681 0.930 . S
C678 C677 1.369 . S
C678 C687 1.429 . S
C679 C677 1.419 . S
C679 C680 1.363 . S
C679 H682 0.929 . S
C680 C679 1.363 . S
C680 C686 1.428 . S
H681 C677 0.930 . S
H682 C679 0.929 . S
S683 N684 1.613 . S
S683 N685 1.610 . S
N684 S683 1.613 . S
N684 C687 1.350 . S
N685 S683 1.610 . S
N685 C686 1.351 . S
C686 C680 1.428 . S
C686 N685 1.351 . S
C686 C687 1.434 . S
C687 C678 1.429 . S
C687 N684 1.350 . S
C687 C686 1.434 . S
C688 C689 1.369 . S
C688 C690 1.419 . S
C688 H692 0.930 . S
C689 C688 1.369 . S
C689 C698 1.429 . S
C690 C688 1.419 . S
C690 C691 1.363 . S
C690 H693 0.929 . S
C691 C690 1.363 . S
C691 C697 1.428 . S
H692 C688 0.930 . S
H693 C690 0.929 . S
S694 N695 1.613 . S
S694 N696 1.610 . S
N695 S694 1.613 . S
N695 C698 1.350 . S
N696 S694 1.610 . S
N696 C697 1.351 . S
C697 C691 1.428 . S
C697 N696 1.351 . S
C697 C698 1.434 . S
C698 C689 1.429 . S
C698 N695 1.350 . S
C698 C697 1.434 . S
C699 C700 1.369 . S
C699 C701 1.419 . S
C699 H703 0.930 . S
C700 C699 1.369 . S
C700 C709 1.429 . S
C701 C699 1.419 . S
C701 C702 1.363 . S
C701 H704 0.929 . S
C702 C701 1.363 . S
C702 C708 1.428 . S
H703 C699 0.930 . S
H704 C701 0.929 . S
S705 N706 1.613 . S
S705 N707 1.610 . S
N706 S705 1.613 . S
N706 C709 1.350 . S
N707 S705 1.610 . S
N707 C708 1.351 . S
C708 C702 1.428 . S
C708 N707 1.351 . S
C708 C709 1.434 . S
C709 C700 1.429 . S
C709 N706 1.350 . S
C709 C708 1.434 . S
C710 C711 1.369 . S
C710 C712 1.419 . S
C710 H714 0.930 . S
C711 C710 1.369 . S
C711 C720 1.429 . S
C712 C710 1.419 . S
C712 C713 1.363 . S
C712 H715 0.929 . S
C713 C712 1.363 . S
C713 C719 1.428 . S
H714 C710 0.930 . S
H715 C712 0.929 . S
S716 N717 1.613 . S
S716 N718 1.610 . S
N717 S716 1.613 . S
N717 C720 1.350 . S
N718 S716 1.610 . S
N718 C719 1.351 . S
C719 C713 1.428 . S
C719 N718 1.351 . S
C719 C720 1.434 . S
C720 C711 1.429 . S
C720 N717 1.350 . S
C720 C719 1.434 . S
C721 C722 1.369 . S
C721 C723 1.419 . S
C721 H725 0.930 . S
C722 C721 1.369 . S
C722 C731 1.429 . S
C723 C721 1.419 . S
C723 C724 1.363 . S
C723 H726 0.929 . S
C724 C723 1.363 . S
C724 C730 1.428 . S
H725 C721 0.930 . S
H726 C723 0.929 . S
S727 N728 1.613 . S
S727 N729 1.610 . S
N728 S727 1.613 . S
N728 C731 1.350 . S
N729 S727 1.610 . S
N729 C730 1.351 . S
C730 C724 1.428 . S
C730 N729 1.351 . S
C730 C731 1.434 . S
C731 C722 1.429 . S
C731 N728 1.350 . S
C731 C730 1.434 . S
C732 C733 1.369 . S
C732 C734 1.419 . S
C732 H736 0.930 . S
C733 C732 1.369 . S
C733 C742 1.429 . S
C734 C732 1.419 . S
C734 C735 1.363 . S
C734 H737 0.929 . S
C735 C734 1.363 . S
C735 C741 1.428 . S
H736 C732 0.930 . S
H737 C734 0.929 . S
S738 N739 1.613 . S
S738 N740 1.610 . S
N739 S738 1.613 . S
N739 C742 1.350 . S
N740 S738 1.610 . S
N740 C741 1.351 . S
C741 C735 1.428 . S
C741 N740 1.351 . S
C741 C742 1.434 . S
C742 C733 1.429 . S
C742 N739 1.350 . S
C742 C741 1.434 . S
C743 C744 1.369 . S
C743 C745 1.419 . S
C743 H747 0.930 . S
C744 C743 1.369 . S
C744 C753 1.429 . S
C745 C743 1.419 . S
C745 C746 1.363 . S
C745 H748 0.929 . S
C746 C745 1.363 . S
C746 C752 1.428 . S
H747 C743 0.930 . S
H748 C745 0.929 . S
S749 N750 1.613 . S
S749 N751 1.610 . S
N750 S749 1.613 . S
N750 C753 1.350 . S
N751 S749 1.610 . S
N751 C752 1.351 . S
C752 C746 1.428 . S
C752 N751 1.351 . S
C752 C753 1.434 . S
C753 C744 1.429 . S
C753 N750 1.350 . S
C753 C752 1.434 . S
C754 C755 1.369 . S
C754 C756 1.419 . S
C754 H758 0.930 . S
C755 C754 1.369 . S
C755 C764 1.429 . S
C756 C754 1.419 . S
C756 C757 1.363 . S
C756 H759 0.929 . S
C757 C756 1.363 . S
C757 C763 1.428 . S
H758 C754 0.930 . S
H759 C756 0.929 . S
S760 N761 1.613 . S
S760 N762 1.610 . S
N761 S760 1.613 . S
N761 C764 1.350 . S
N762 S760 1.610 . S
N762 C763 1.351 . S
C763 C757 1.428 . S
C763 N762 1.351 . S
C763 C764 1.434 . S
C764 C755 1.429 . S
C764 N761 1.350 . S
C764 C763 1.434 . S
C765 C766 1.369 . S
C765 C767 1.419 . S
C765 H769 0.930 . S
C766 C765 1.369 . S
C766 C775 1.429 . S
C767 C765 1.419 . S
C767 C768 1.363 . S
C767 H770 0.929 . S
C768 C767 1.363 . S
C768 C774 1.428 . S
H769 C765 0.930 . S
H770 C767 0.929 . S
S771 N772 1.613 . S
S771 N773 1.610 . S
N772 S771 1.613 . S
N772 C775 1.350 . S
N773 S771 1.610 . S
N773 C774 1.351 . S
C774 C768 1.428 . S
C774 N773 1.351 . S
C774 C775 1.434 . S
C775 C766 1.429 . S
C775 N772 1.350 . S
C775 C774 1.434 . S
C776 C777 1.369 . S
C776 C778 1.419 . S
C776 H780 0.930 . S
C777 C776 1.369 . S
C777 C786 1.429 . S
C778 C776 1.419 . S
C778 C779 1.363 . S
C778 H781 0.929 . S
C779 C778 1.363 . S
C779 C785 1.428 . S
H780 C776 0.930 . S
H781 C778 0.929 . S
S782 N783 1.613 . S
S782 N784 1.610 . S
N783 S782 1.613 . S
N783 C786 1.350 . S
N784 S782 1.610 . S
N784 C785 1.351 . S
C785 C779 1.428 . S
C785 N784 1.351 . S
C785 C786 1.434 . S
C786 C777 1.429 . S
C786 N783 1.350 . S
C786 C785 1.434 . S
C787 C788 1.369 . S
C787 C789 1.419 . S
C787 H791 0.930 . S
C788 C787 1.369 . S
C788 C797 1.429 . S
C789 C787 1.419 . S
C789 C790 1.363 . S
C789 H792 0.929 . S
C790 C789 1.363 . S
C790 C796 1.428 . S
H791 C787 0.930 . S
H792 C789 0.929 . S
S793 N794 1.613 . S
S793 N795 1.610 . S
N794 S793 1.613 . S
N794 C797 1.350 . S
N795 S793 1.610 . S
N795 C796 1.351 . S
C796 C790 1.428 . S
C796 N795 1.351 . S
C796 C797 1.434 . S
C797 C788 1.429 . S
C797 N794 1.350 . S
C797 C796 1.434 . S
C798 C799 1.369 . S
C798 C800 1.419 . S
C798 H802 0.930 . S
C799 C798 1.369 . S
C799 C808 1.429 . S
C800 C798 1.419 . S
C800 C801 1.363 . S
C800 H803 0.929 . S
C801 C800 1.363 . S
C801 C807 1.428 . S
H802 C798 0.930 . S
H803 C800 0.929 . S
S804 N805 1.613 . S
S804 N806 1.610 . S
N805 S804 1.613 . S
N805 C808 1.350 . S
N806 S804 1.610 . S
N806 C807 1.351 . S
C807 C801 1.428 . S
C807 N806 1.351 . S
C807 C808 1.434 . S
C808 C799 1.429 . S
C808 N805 1.350 . S
C808 C807 1.434 . S
C809 C810 1.369 . S
C809 C811 1.419 . S
C809 H813 0.930 . S
C810 C809 1.369 . S
C810 C819 1.429 . S
C811 C809 1.419 . S
C811 C812 1.363 . S
C811 H814 0.929 . S
C812 C811 1.363 . S
C812 C818 1.428 . S
H813 C809 0.930 . S
H814 C811 0.929 . S
S815 N816 1.613 . S
S815 N817 1.610 . S
N816 S815 1.613 . S
N816 C819 1.350 . S
N817 S815 1.610 . S
N817 C818 1.351 . S
C818 C812 1.428 . S
C818 N817 1.351 . S
C818 C819 1.434 . S
C819 C810 1.429 . S
C819 N816 1.350 . S
C819 C818 1.434 . S
C820 C821 1.369 . S
C820 C822 1.419 . S
C820 H824 0.930 . S
C821 C820 1.369 . S
C821 C830 1.429 . S
C822 C820 1.419 . S
C822 C823 1.363 . S
C822 H825 0.929 . S
C823 C822 1.363 . S
C823 C829 1.428 . S
H824 C820 0.930 . S
H825 C822 0.929 . S
S826 N827 1.613 . S
S826 N828 1.610 . S
N827 S826 1.613 . S
N827 C830 1.350 . S
N828 S826 1.610 . S
N828 C829 1.351 . S
C829 C823 1.428 . S
C829 N828 1.351 . S
C829 C830 1.434 . S
C830 C821 1.429 . S
C830 N827 1.350 . S
C830 C829 1.434 . S
C831 C832 1.369 . S
C831 C833 1.419 . S
C831 H835 0.930 . S
C832 C831 1.369 . S
C832 C841 1.429 . S
C833 C831 1.419 . S
C833 C834 1.363 . S
C833 H836 0.929 . S
C834 C833 1.363 . S
C834 C840 1.428 . S
H835 C831 0.930 . S
H836 C833 0.929 . S
S837 N838 1.613 . S
S837 N839 1.610 . S
N838 S837 1.613 . S
N838 C841 1.350 . S
N839 S837 1.610 . S
N839 C840 1.351 . S
C840 C834 1.428 . S
C840 N839 1.351 . S
C840 C841 1.434 . S
C841 C832 1.429 . S
C841 N838 1.350 . S
C841 C840 1.434 . S
C842 C843 1.369 . S
C842 C844 1.419 . S
C842 H846 0.930 . S
C843 C842 1.369 . S
C843 C852 1.429 . S
C844 C842 1.419 . S
C844 C845 1.363 . S
C844 H847 0.929 . S
C845 C844 1.363 . S
C845 C851 1.428 . S
H846 C842 0.930 . S
H847 C844 0.929 . S
S848 N849 1.613 . S
S848 N850 1.610 . S
N849 S848 1.613 . S
N849 C852 1.350 . S
N850 S848 1.610 . S
N850 C851 1.351 . S
C851 C845 1.428 . S
C851 N850 1.351 . S
C851 C852 1.434 . S
C852 C843 1.429 . S
C852 N849 1.350 . S
C852 C851 1.434 . S
C853 C854 1.369 . S
C853 C855 1.419 . S
C853 H857 0.930 . S
C854 C853 1.369 . S
C854 C863 1.429 . S
C855 C853 1.419 . S
C855 C856 1.363 . S
C855 H858 0.929 . S
C856 C855 1.363 . S
C856 C862 1.428 . S
H857 C853 0.930 . S
H858 C855 0.929 . S
S859 N860 1.613 . S
S859 N861 1.610 . S
N860 S859 1.613 . S
N860 C863 1.350 . S
N861 S859 1.610 . S
N861 C862 1.351 . S
C862 C856 1.428 . S
C862 N861 1.351 . S
C862 C863 1.434 . S
C863 C854 1.429 . S
C863 N860 1.350 . S
C863 C862 1.434 . S
C337 C203 1.491 . S
C339 C6 1.456 . S
C348 C21 1.488 . S
C350 C216 1.456 . S
C359 C261 1.683 . S
C361 C37 1.685 . S
C370 C50 2.020 . S
C372 C190 2.021 . S
C381 C204 2.019 . S
C383 C64 2.020 . S
C392 C79 1.685 . S
C394 C219 1.682 . S
C403 C91 1.491 . S
C405 C258 1.459 . S
C414 C104 1.454 . S
C416 C189 1.491 . S
C425 C133 1.489 . S
C427 C118 1.455 . S
C436 C148 2.019 . S
C438 C134 2.020 . S
C447 C147 1.491 . S
C449 C160 1.456 . S
C458 C163 1.685 . S
C460 C121 1.682 . S
C469 C174 1.455 . S
C471 C49 1.491 . S
C480 C63 1.489 . S
C482 C230 1.461 . S
C491 C246 2.020 . S
C493 C22 2.019 . S
C502 C20 1.569 . S
C504 C302 1.599 . S
C513 C132 1.568 . S
C515 C8 1.599 . S
C524 C331 1.693 . S
C526 C51 1.687 . S
C535 C161 1.044 . S
C537 C35 1.041 . S
C546 C301 1.040 . S
C548 C105 1.043 . S
C557 C135 1.691 . S
C559 C93 1.688 . S
C568 C78 1.597 . S
C570 C328 1.569 . S
C579 C62 1.574 . S
C581 C162 1.598 . S
C590 C218 1.597 . S
C592 C272 1.570 . S
C601 C231 1.043 . S
C603 C217 1.042 . S
C612 C188 1.570 . S
C614 C232 1.599 . S
C623 C275 1.692 . S
C625 C191 1.687 . S
C634 C36 1.597 . S
C636 C286 1.570 . S
C645 C146 1.569 . S
C647 C106 1.599 . S
C656 C7 1.036 . S
C658 C315 1.036 . S
C667 C273 1.490 . S
C669 C34 1.460 . S
C678 C9 1.681 . S
C680 C233 1.681 . S
C689 C274 2.021 . S
C691 C92 2.022 . S
C700 C177 1.682 . S
C702 C107 1.684 . S
C711 C76 1.454 . S
C713 C245 1.491 . S
C722 C300 1.460 . S
C724 C287 1.488 . S
C733 C330 2.022 . S
C735 C288 2.021 . S
C744 C314 1.461 . S
C746 C329 1.490 . S
C755 C303 1.684 . S
C757 C317 1.682 . S
C766 C120 1.599 . S
C768 C48 1.570 . S
C777 C23 1.691 . S
C779 C149 1.688 . S
C788 C77 1.036 . S
C790 C119 1.041 . S
C799 C289 1.692 . S
C801 C65 1.687 . S
C810 C90 1.570 . S
C812 C316 1.599 . S
C821 C176 1.598 . S
C823 C202 1.569 . S
C832 C259 1.043 . S
C834 C175 1.042 . S
C843 C244 1.572 . S
C845 C260 1.597 . S
C854 C205 1.688 . S
C856 C247 1.690 . S
