# Generated by pormake.
# Topology snp, (6)-cn, num edge types: 1
# Building blocks:
#     Node 0, Type 0, BuildingBlock: CUWYAW_clean_sbu_0, # of connection points: 6
#     Node 1, Type 0, BuildingBlock: CUWYAW_clean_sbu_0, # of connection points: 6
#     Node 2, Type 0, BuildingBlock: CUWYAW_clean_sbu_0, # of connection points: 6
#     Node 3, Type 0, BuildingBlock: CUWYAW_clean_sbu_0, # of connection points: 6
#     Edge 4, Type (0, 0), BuildingBlock: XUDNAN_clean_linker_2, # of connection points: 2
#     Edge 5, Type (0, 0), BuildingBlock: XUDNAN_clean_linker_2, # of connection points: 2
#     Edge 6, Type (0, 0), BuildingBlock: XUDNAN_clean_linker_2, # of connection points: 2
#     Edge 7, Type (0, 0), BuildingBlock: XUDNAN_clean_linker_2, # of connection points: 2
#     Edge 8, Type (0, 0), BuildingBlock: XUDNAN_clean_linker_2, # of connection points: 2
#     Edge 9, Type (0, 0), BuildingBlock: XUDNAN_clean_linker_2, # of connection points: 2
#     Edge 10, Type (0, 0), BuildingBlock: XUDNAN_clean_linker_2, # of connection points: 2
#     Edge 11, Type (0, 0), BuildingBlock: XUDNAN_clean_linker_2, # of connection points: 2
#     Edge 12, Type (0, 0), BuildingBlock: XUDNAN_clean_linker_2, # of connection points: 2
#     Edge 13, Type (0, 0), BuildingBlock: XUDNAN_clean_linker_2, # of connection points: 2
#     Edge 14, Type (0, 0), BuildingBlock: XUDNAN_clean_linker_2, # of connection points: 2
#     Edge 15, Type (0, 0), BuildingBlock: XUDNAN_clean_linker_2, # of connection points: 2
# Relax obj value: 0.348
# Max RMSD: 0.226
# Mean RMSD: 0.210
data_MOF--net-snp--node1-CUWYAW_clean_sbu_0--edge1-XUDNAN_clean_linker_2
_symmetry_space_group_name_H-M    P1
_symmetry_Int_Tables_number       1
_symmetry_cell_setting            triclinic
loop_
_symmetry_equiv_pos_as_xyz
'x, y, z'
_cell_length_a     24.315878
_cell_length_b     24.383988
_cell_length_c     33.557788
_cell_angle_alpha  93.463031
_cell_angle_beta   78.85543
_cell_angle_gamma 122.28459
loop_
_atom_site_label
_atom_site_type_symbol
_atom_site_fract_x
_atom_site_fract_y
_atom_site_fract_z
_atom_type_partial_charge
C0 C 0.26235 0.94595 0.2089 0.0
Eu1 Eu 0.30396 0.06601 0.22574 0.0
C2 C 0.25001 0.90705 0.17316 0.0
C3 C 0.24013 0.92801 0.1388 0.0
C4 C 0.22789 0.89049 0.1049 0.0
C5 C 0.22578 0.83171 0.1048 0.0
C6 C 0.23712 0.8115 0.13896 0.0
C7 C 0.24891 0.84898 0.17311 0.0
C8 C 0.22866 0.11473 0.2563 0.0
C9 C 0.338 0.17241 0.15915 0.0
C10 C 0.43073 0.31927 0.27327 0.0
Eu11 Eu 0.378 0.19855 0.25258 0.0
C12 C 0.4404 0.35588 0.31061 0.0
C13 C 0.4475 0.41689 0.31053 0.0
C14 C 0.45589 0.45199 0.34583 0.0
C15 C 0.45776 0.42679 0.38182 0.0
C16 C 0.45184 0.36611 0.38155 0.0
C17 C 0.44295 0.33085 0.34633 0.0
C18 C 0.45208 0.14761 0.2211 0.0
C19 C 0.32012 0.08167 0.32027 0.0
O20 O 0.32448 -0.00994 0.20927 0.0
O21 O 0.22287 0.96722 0.22101 0.0
O22 O 0.21987 0.07904 0.22496 0.0
O23 O 0.27439 0.12056 0.27164 0.0
O24 O 0.32453 0.11287 0.16451 0.0
O25 O 0.35487 0.21294 0.18972 0.0
O26 O 0.36996 0.28309 0.26702 0.0
O27 O 0.46365 0.29047 0.26434 0.0
O28 O 0.45863 0.17782 0.25465 0.0
O29 O 0.40714 0.14523 0.2065 0.0
O30 O 0.33591 0.14263 0.31575 0.0
O31 O 0.31906 0.04881 0.28747 0.0
H32 H 0.24183 0.9733 0.13821 0.0
H33 H 0.22078 0.90782 0.07853 0.0
H34 H 0.23599 0.76652 0.13939 0.0
H35 H 0.25705 0.83268 0.19948 0.0
H36 H 0.44601 0.43719 0.2832 0.0
H37 H 0.46056 0.49867 0.34509 0.0
H38 H 0.45196 0.34491 0.40896 0.0
H39 H 0.43738 0.28375 0.34713 0.0
C40 C 0.24113 0.38822 0.79726 0.0
Eu41 Eu 0.20533 0.38127 0.72605 0.0
C42 C 0.25179 0.35975 0.83208 0.0
C43 C 0.28761 0.40075 0.86127 0.0
C44 C 0.29584 0.37603 0.89544 0.0
C45 C 0.26863 0.30888 0.90208 0.0
C46 C 0.23218 0.26786 0.87273 0.0
C47 C 0.22412 0.29273 0.83852 0.0
C48 C 0.13213 0.42839 0.70914 0.0
C49 C 0.07545 0.2427 0.71983 0.0
C50 C 0.08159 0.28887 0.58241 0.0
Eu51 Eu 0.15106 0.34064 0.64056 0.0
C52 C 0.06647 0.25946 0.5419 0.0
C53 C 0.02693 0.1914 0.5409 0.0
C54 C 0.00553 0.16075 0.50533 0.0
C55 C 0.02305 0.19644 0.46852 0.0
C56 C 0.0623 0.26501 0.46937 0.0
C57 C 0.08347 0.29606 0.50555 0.0
C58 C 0.26078 0.33972 0.64532 0.0
C59 C 0.28135 0.47624 0.64411 0.0
O60 O 0.18055 0.36669 0.79276 0.0
O61 O 0.28256 0.40656 0.76219 0.0
O62 O 0.17754 0.45699 0.73119 0.0
O63 O 0.12314 0.3737 0.7 0.0
O64 O 0.13132 0.2733 0.73377 0.0
O65 O 0.06841 0.26636 0.68817 0.0
O66 O 0.08805 0.25631 0.60888 0.0
O67 O 0.11457 0.35187 0.58741 0.0
O68 O 0.24643 0.34581 0.6113 0.0
O69 O 0.21176 0.32381 0.67361 0.0
O70 O 0.22214 0.44907 0.63395 0.0
O71 O 0.28914 0.45648 0.6778 0.0
H72 H 0.30935 0.45263 0.85777 0.0
H73 H 0.32471 0.41011 0.91632 0.0
H74 H 0.20876 0.21579 0.87624 0.0
H75 H 0.19588 0.25936 0.81712 0.0
H76 H 0.01076 0.16116 0.56826 0.0
H77 H 0.97369 0.10833 0.50722 0.0
H78 H 0.07721 0.2948 0.44203 0.0
H79 H 0.11275 0.34861 0.50507 0.0
C80 C 0.85417 0.12794 0.10263 0.0
Eu81 Eu 0.83911 0.01972 0.12305 0.0
C82 C 0.84334 0.14259 1.06399 0.0
C83 C 0.89763 0.19159 1.0372 0.0
C84 C 0.89754 0.18979 0.9956 0.0
C85 C 0.84282 0.13951 0.9805 0.0
C86 C 0.78533 0.09568 1.00763 0.0
C87 C 0.78561 0.09713 1.04921 0.0
C88 C 0.92656 -0.01648 0.1245 0.0
C89 C 0.82257 0.91776 1.05415 0.0
C90 C 0.73074 0.76048 0.17505 0.0
Eu91 Eu 0.77533 0.87986 0.15285 0.0
C92 C 0.71101 0.72581 0.21496 0.0
C93 C 0.64428 0.67765 0.22959 0.0
C94 C 0.62423 0.64894 0.26888 0.0
C95 C 0.67079 0.66736 0.294 0.0
C96 C 0.73782 0.71401 0.27875 0.0
C97 C 0.75769 0.74294 0.23978 0.0
C98 C 0.69342 0.9241 0.15601 0.0
C99 C 0.83381 -0.00868 0.21971 0.0
O100 O 0.80137 0.08384 0.12756 0.0
O101 O 0.9038 0.11944 0.09846 0.0
O102 O 0.93594 0.02583 0.09781 0.0
O103 O 0.87341 0.96621 0.14883 0.0
O104 O 0.82542 0.97291 1.06236 0.0
O105 O 0.80944 0.87645 0.0839 0.0
O106 O 0.79378 0.80427 0.16315 0.0
O107 O 0.69259 0.77969 0.16759 0.0
O108 O 0.69119 0.89105 0.18574 0.0
O109 O 0.73886 0.93297 0.12675 0.0
O110 O 0.81307 0.93018 0.21025 0.0
O111 O 0.84152 0.03341 0.19218 0.0
H112 H 0.94267 0.22696 1.04781 0.0
H113 H 0.94221 0.22447 0.97493 0.0
H114 H 0.74267 0.05666 0.99647 0.0
H115 H 0.74302 0.05869 0.06905 0.0
H116 H 0.60733 0.66343 0.21101 0.0
H117 H 0.57232 0.61305 0.27982 0.0
H118 H 0.77478 0.7303 0.2976 0.0
H119 H 0.80945 0.78007 0.22968 0.0
C120 C 0.17854 0.84026 0.71954 0.0
Eu121 Eu 0.08311 0.84665 0.70087 0.0
C122 C 0.18059 0.81358 0.75662 0.0
C123 C 0.24055 0.82665 0.76495 0.0
C124 C 0.24141 0.80216 0.80131 0.0
C125 C 0.18205 0.76367 0.8294 0.0
C126 C 0.1219 0.74857 0.81971 0.0
C127 C 0.12138 0.77451 0.78418 0.0
C128 C 0.08256 0.95586 0.70641 0.0
C129 C 0.96375 0.83242 0.76855 0.0
C130 C 0.86299 0.80723 0.65413 0.0
Eu131 Eu 0.9725 0.82636 0.67047 0.0
C132 C 0.82347 0.77497 0.62229 0.0
C133 C 0.75411 0.73627 0.63286 0.0
C134 C 0.71602 0.70396 0.60307 0.0
C135 C 0.74672 0.70991 0.56211 0.0
C136 C 0.81639 0.749 0.55176 0.0
C137 C 0.85432 0.78075 0.58153 0.0
C138 C -0.01653 0.72004 0.66905 0.0
C139 C 0.10076 0.87973 0.60174 0.0
O140 O 0.13701 0.79785 0.69765 0.0
O141 O 0.17459 0.89155 0.72443 0.0
O142 O 0.09092 0.92967 0.73518 0.0
O143 O 0.0685 0.91946 0.67631 0.0
O144 O 0.01105 0.81932 0.76256 0.0
O145 O 0.94804 0.84617 0.73661 0.0
O146 O 0.92101 0.86041 0.64304 0.0
O147 O 0.86454 0.76898 0.67885 0.0
O148 O 0.972 0.74025 0.63872 0.0
O149 O -0.01078 0.75668 0.69799 0.0
O150 O 0.04008 0.86758 0.60972 0.0
O151 O 0.12632 0.87171 0.63107 0.0
H152 H 0.28665 0.85689 0.74389 0.0
H153 H 0.28875 0.81571 0.80807 0.0
H154 H 0.07512 0.71796 0.8401 0.0
H155 H 0.07454 0.76371 0.77811 0.0
H156 H 0.72942 0.73075 0.66424 0.0
H157 H 0.66264 0.67395 0.61217 0.0
H158 H 0.84186 0.75609 0.52047 0.0
H159 H 0.9078 0.80996 0.5726 0.0
H160 H 0.04207 0.09803 0.12641 0.0
H161 H 0.92685 0.89598 0.16982 0.0
H162 H 0.97288 0.92715 0.23263 0.0
H163 H 0.18801 0.14201 0.16396 0.0
H164 H 0.2037 0.22227 0.17391 0.0
H165 H 0.1588 0.17754 0.13484 0.0
H166 H 0.06727 0.19815 0.17149 0.0
H167 H 0.10797 0.2341 0.21402 0.0
H168 H 0.02451 0.16391 0.22227 0.0
H169 H 0.02717 0.97928 0.29061 0.0
H170 H 0.12918 0.0361 0.31833 0.0
H171 H 0.20393 0.20577 0.24188 0.0
C172 C 0.02868 0.05996 0.14829 0.0
C173 C 0.98014 -0.00523 0.14379 0.0
C174 C 0.96428 0.94633 0.17289 0.0
C175 C -0.01201 0.96386 0.20931 0.0
C176 C 0.02821 0.02973 0.21543 0.0
C177 C 0.05134 0.07658 0.18486 0.0
C178 C 0.10112 0.14301 0.19681 0.0
C179 C 0.16681 0.17293 0.16562 0.0
C180 C 0.07356 0.18743 0.20143 0.0
C181 C 0.10679 0.12546 0.23772 0.0
C182 C 0.06048 0.06038 0.24918 0.0
C183 C 0.06346 0.02997 0.28187 0.0
C184 C 0.12112 0.06326 0.29824 0.0
C185 C 0.17527 0.12186 0.27834 0.0
C186 C 0.16292 0.15904 0.25545 0.0
H187 H 0.15138 0.02672 0.63501 0.0
H188 H 0.11875 0.04191 0.76567 0.0
H189 H 0.21693 0.15339 0.75808 0.0
H190 H 0.34418 0.14664 0.61437 0.0
H191 H 0.3357 0.1722 0.56783 0.0
H192 H 0.2803 0.08938 0.5882 0.0
H193 H 0.17933 0.10603 0.58564 0.0
H194 H 0.2403 0.18753 0.56619 0.0
H195 H 0.18063 0.17294 0.612 0.0
H196 H 0.30559 0.26407 0.7374 0.0
H197 H 0.32843 0.36518 0.70766 0.0
H198 H 0.31108 0.28565 0.59016 0.0
C199 C 0.16505 0.05377 0.66193 0.0
C200 C 0.12815 0.02611 0.7008 0.0
C201 C 0.14679 0.06273 0.73547 0.0
C202 C 0.20364 0.12512 0.73155 0.0
C203 C 0.24145 0.15005 0.69279 0.0
C204 C 0.22148 0.11621 0.65852 0.0
C205 C 0.25997 0.1589 0.62028 0.0
C206 C 0.30785 0.14073 0.59616 0.0
C207 C 0.21236 0.15624 0.59452 0.0
C208 C 0.29844 0.22387 0.63844 0.0
C209 C 0.29196 0.21673 0.68024 0.0
C210 C 0.31076 0.26962 0.70488 0.0
C211 C 0.32398 0.32719 0.68785 0.0
C212 C 0.31257 0.3276 0.64839 0.0
C213 C 0.31568 0.28301 0.62133 0.0
H214 H 0.65376 0.97418 0.22244 0.0
H215 H 0.64729 0.94419 0.09442 0.0
H216 H 0.58454 -0.0019 0.09716 0.0
H217 H 0.49166 0.95068 0.25521 0.0
H218 H 0.51835 0.01423 0.29077 0.0
H219 H 0.56032 0.97109 0.27899 0.0
H220 H 0.67208 0.0801 0.25814 0.0
H221 H 0.63045 0.12359 0.26972 0.0
H222 H 0.67996 0.13407 0.21995 0.0
H223 H 0.51935 0.05177 0.11459 0.0
H224 H 0.46305 0.10862 0.14399 0.0
H225 H 0.5189 0.11145 0.25962 0.0
C226 C 0.63849 0.97856 0.19515 0.0
C227 C 0.65475 0.95488 0.15821 0.0
C228 C 0.63514 0.96221 0.12292 0.0
C229 C 0.59947 -0.00741 0.12425 0.0
C230 C 0.58457 0.01599 0.16106 0.0
C231 C 0.60397 0.00994 0.1958 0.0
C232 C 0.58395 0.04166 0.23103 0.0
C233 C 0.53569 -0.00859 0.26606 0.0
C234 C 0.64526 0.09822 0.24555 0.0
C235 C 0.54971 0.06598 0.2108 0.0
C236 C 0.55008 0.05005 0.17053 0.0
C237 C 0.51937 0.0651 0.14594 0.0
C238 C 0.48753 0.09735 0.16289 0.0
C239 C 0.48743 0.11506 0.20385 0.0
C240 C 0.51917 0.09935 0.22802 0.0
H241 H 0.122 0.52453 0.74639 0.0
H242 H 0.06039 0.39574 0.64761 0.0
H243 H 0.00982 0.4527 0.62686 0.0
H244 H 0.97935 0.54004 0.77401 0.0
H245 H 0.0295 0.6249 0.78343 0.0
H246 H 0.05621 0.57093 0.79118 0.0
H247 H 0.16622 0.64567 0.74424 0.0
H248 H 0.14249 0.69869 0.72989 0.0
H249 H 0.16851 0.65921 0.69146 0.0
H250 H 0.97681 0.53516 0.61373 0.0
H251 H 0.95696 0.62514 0.61335 0.0
H252 H 0.03138 0.68961 0.72531 0.0
C253 C 0.09669 0.50729 0.72086 0.0
C254 C 0.09542 0.45617 0.69839 0.0
C255 C 0.06211 0.43521 0.66507 0.0
C256 C 0.03319 0.46722 0.6532 0.0
C257 C 0.03672 0.51885 0.67568 0.0
C258 C 0.06644 0.53736 0.70939 0.0
C259 C 0.0683 0.59635 0.72718 0.0
C260 C 0.03113 0.58218 0.77159 0.0
C261 C 0.14068 0.65323 0.72303 0.0
C262 C 0.03276 0.60754 0.69942 0.0
C263 C 0.01625 0.56358 0.66911 0.0
C264 C -0.01153 0.56886 0.63787 0.0
C265 C 0.9774 0.62013 0.63784 0.0
C266 C -0.00719 0.66457 0.66928 0.0
C267 C 0.01952 0.6569 0.70073 0.0
H268 H 0.28452 0.51906 0.56992 0.0
H269 H 0.40684 0.50087 0.63993 0.0
H270 H 0.48274 0.51065 0.57659 0.0
H271 H 0.27976 0.41575 0.50342 0.0
H272 H 0.28216 0.45497 0.45871 0.0
H273 H 0.25142 0.47114 0.50801 0.0
H274 H 0.33751 0.59464 0.49458 0.0
H275 H 0.3677 0.57922 0.44442 0.0
H276 H 0.42424 0.62353 0.47862 0.0
H277 H 0.52481 0.48895 0.50714 0.0
H278 H 0.53451 0.4485 0.43836 0.0
H279 H 0.38384 0.4782 0.41325 0.0
C280 C 0.32922 0.52074 0.57215 0.0
C281 C 0.3393 0.50894 0.61006 0.0
C282 C 0.39798 0.51044 0.61147 0.0
C283 C 0.44141 0.5156 0.57544 0.0
C284 C 0.42622 0.52045 0.53828 0.0
C285 C 0.37233 0.52487 0.53645 0.0
C286 C 0.35988 0.51867 0.49336 0.0
C287 C 0.2892 0.46177 0.49077 0.0
C288 C 0.37314 0.58286 0.47677 0.0
C289 C 0.41174 0.50507 0.4718 0.0
C290 C 0.45063 0.50777 0.49792 0.0
C291 C 0.49589 0.48851 0.48619 0.0
C292 C 0.50075 0.46511 0.44719 0.0
C293 C 0.4603 0.46075 0.42039 0.0
C294 C 0.41674 0.48278 0.43263 0.0
H295 H 0.0718 0.16991 0.77959 0.0
H296 H 0.94619 0.20105 0.72093 0.0
H297 H 0.85536 0.14663 0.7797 0.0
H298 H 0.92317 0.0109 0.84474 0.0
H299 H 0.96761 0.03567 0.88616 0.0
H300 H 0.01205 0.05082 0.83428 0.0
H301 H 0.08424 0.17167 0.84743 0.0
H302 H 0.04038 0.15971 0.89855 0.0
H303 H 0.04614 0.21759 0.86431 0.0
H304 H 0.79607 0.12738 0.85077 0.0
H305 H 0.77057 0.13472 0.92539 0.0
H306 H 0.93315 0.11571 0.93878 0.0
C307 C 0.02387 0.16183 0.77828 0.0
C308 C 0.01612 0.19018 0.74613 0.0
C309 C 0.95317 0.17947 0.74525 0.0
C310 C 0.90107 0.14843 0.7786 0.0
C311 C 0.9123 0.12689 0.81193 0.0
C312 C 0.97156 0.13094 0.81141 0.0
C313 C 0.97608 0.11551 0.85323 0.0
C314 C 0.96936 0.04929 0.85471 0.0
C315 C 0.04042 0.16944 0.86664 0.0
C316 C 0.91537 0.11206 0.87807 0.0
C317 C 0.87732 0.11545 0.8537 0.0
C318 C 0.82402 0.1223 0.87015 0.0
C319 C 0.81019 0.12707 0.91236 0.0
C320 C 0.85061 0.12645 0.93711 0.0
C321 C 0.90196 0.11644 0.91999 0.0
H322 H 0.776 0.65374 0.49506 0.0
H323 H 0.62862 0.69553 0.55519 0.0
H324 H 0.57416 0.65985 0.49567 0.0
H325 H 0.80492 0.72469 0.40572 0.0
H326 H 0.81757 0.66853 0.37401 0.0
H327 H 0.8322 0.67753 0.42501 0.0
H328 H 0.74947 0.55381 0.44079 0.0
H329 H 0.73432 0.54439 0.38954 0.0
H330 H 0.66607 0.51629 0.43208 0.0
H331 H 0.55123 0.64396 0.4249 0.0
H332 H 0.56668 0.65609 0.3503 0.0
H333 H 0.7305 0.62741 0.33536 0.0
C334 C 0.73138 0.65403 0.49613 0.0
C335 C 0.70696 0.67785 0.52977 0.0
C336 C 0.64804 0.67684 0.53005 0.0
C337 C 0.61669 0.65662 0.49629 0.0
C338 C 0.6444 0.6369 0.46263 0.0
C339 C 0.70015 0.6348 0.46257 0.0
C340 C 0.72675 0.62211 0.42082 0.0
C341 C 0.79959 0.67646 0.40552 0.0
C342 C 0.71864 0.55515 0.42082 0.0
C343 C 0.68076 0.62287 0.39662 0.0
C344 C 0.63191 0.62887 0.42143 0.0
C345 C 0.58845 0.63801 0.40529 0.0
C346 C 0.59742 0.64462 0.36283 0.0
C347 C 0.65011 0.64308 0.33715 0.0
C348 C 0.68987 0.62877 0.35435 0.0
H349 H 0.10609 0.76335 0.90041 0.0
H350 H 0.26315 0.72862 0.85199 0.0
H351 H 0.27645 0.71957 0.92203 0.0
H352 H 0.1773 0.86419 0.9691 0.0
H353 H 0.10471 0.83728 1.00835 0.0
H354 H 0.09622 0.82484 0.95619 0.0
H355 H 0.01472 0.70138 0.97239 0.0
H356 H 0.022 0.71319 1.02513 0.0
H357 H 0.03862 0.6562 0.99756 0.0
H358 H 0.28777 0.73738 0.99511 0.0
H359 H 0.29644 0.78136 1.06361 0.0
H360 H 0.12804 0.79835 1.06349 0.0
C361 C 0.14101 0.75044 0.90431 0.0
C362 C 0.18322 0.74625 0.87064 0.0
C363 C 0.23046 0.73242 0.87735 0.0
C364 C 0.2378 0.72641 0.91703 0.0
C365 C 0.1967 0.73313 0.94951 0.0
C366 C 0.14847 0.74386 0.94344 0.0
C367 C 0.11685 0.75857 0.98239 0.0
C368 C 0.12432 0.82514 0.97875 0.0
C369 C 0.04371 0.70405 0.99512 0.0
C370 C 0.1581 0.75918 1.01088 0.0
C371 C 0.20278 0.74276 0.9918 0.0
C372 C 0.25173 0.74836 1.01075 0.0
C373 C 0.25633 0.77331 1.04958 0.0
C374 C 0.21277 0.79297 0.06848 0.0
C375 C 0.16158 0.78321 1.04957 0.0
H376 H 0.89746 0.86656 1.01517 0.0
H377 H 0.77662 0.93856 0.99275 0.0
H378 H 0.79629 0.91945 0.91978 0.0
H379 H 0.02037 0.94424 0.92202 0.0
H380 H 0.03635 0.87995 0.91278 0.0
H381 H 0.00971 0.89456 0.96403 0.0
H382 H 0.91157 0.7751 0.97428 0.0
H383 H 0.93795 0.76026 0.92301 0.0
H384 H 0.85478 0.74279 0.93936 0.0
H385 H 0.82391 0.88871 0.85011 0.0
H386 H 0.87118 0.86501 0.78535 0.0
H387 H -0.0145 0.82103 0.84735 0.0
C388 C 0.87426 0.87714 0.99491 0.0
C389 C 0.83374 0.90259 1.0102 0.0
C390 C 0.80666 0.91813 0.98224 0.0
C391 C 0.81757 0.90731 0.94059 0.0
C392 C 0.85713 0.88203 0.92654 0.0
C393 C 0.88632 0.86827 0.95254 0.0
C394 C 0.93102 0.84638 0.92823 0.0
C395 C 0.00368 0.89413 0.932 0.0
C396 C 0.9074 0.77699 0.94205 0.0
C397 C 0.92122 0.84888 0.88477 0.0
C398 C 0.87756 0.86884 0.88506 0.0
C399 C 0.85873 0.87379 0.84951 0.0
C400 C 0.88618 0.85993 0.81255 0.0
C401 C 0.93291 0.8412 0.81032 0.0
C402 C 0.95017 0.83516 0.84746 0.0
H403 H 0.32412 0.1233 0.40132 0.0
H404 H 0.24461 0.95011 0.33169 0.0
H405 H 0.18696 0.88198 0.39469 0.0
H406 H 0.34869 0.0445 0.48075 0.0
H407 H 0.32897 0.08449 0.52239 0.0
H408 H 0.36539 0.12485 0.4726 0.0
H409 H 0.2693 0.14022 0.47036 0.0
H410 H 0.23384 0.10497 0.52127 0.0
H411 H 0.18502 0.07152 0.48213 0.0
H412 H 0.13043 0.83037 0.46543 0.0
H413 H 0.08284 0.80063 0.53868 0.0
H414 H 0.1972 0.00283 0.56583 0.0
C415 C 0.29495 0.07109 0.39933 0.0
C416 C 0.28976 0.04301 0.36073 0.0
C417 C 0.25077 0.97398 0.36021 0.0
C418 C 0.21719 0.93422 0.39615 0.0
C419 C 0.22305 0.96309 0.43341 0.0
C420 C 0.2615 0.02982 0.43541 0.0
C421 C 0.2604 0.04748 0.47981 0.0
C422 C 0.32993 0.07718 0.48947 0.0
C423 C 0.23557 0.09382 0.48885 0.0
C424 C 0.21157 0.98096 0.5023 0.0
C425 C 0.19195 0.93287 0.47464 0.0
C426 C 0.14629 0.86765 0.48736 0.0
C427 C 0.11952 0.85102 0.52917 0.0
C428 C 0.13798 0.89895 0.55843 0.0
C429 C 0.18458 0.96495 0.54453 0.0
H430 H 0.28615 0.35385 0.98223 0.0
H431 H 0.27942 0.20196 0.9046 0.0
H432 H 0.29668 0.15548 0.9602 0.0
H433 H 0.41561 0.37327 1.0338 0.0
H434 H 0.37963 0.38606 0.0829 0.0
H435 H 0.3663 0.40885 1.03722 0.0
H436 H 0.2406 0.33847 1.06316 0.0
H437 H 0.25199 0.31286 0.10856 0.0
H438 H 0.20193 0.25327 0.07559 0.0
H439 H 0.31533 0.12346 1.02358 0.0
H440 H 0.33194 0.10654 0.09021 0.0
H441 H 0.32964 0.27762 0.13195 0.0
C442 C 0.28861 0.31098 0.97664 0.0
C443 C 0.28011 0.28179 0.93794 0.0
C444 C 0.28366 0.22531 0.93327 0.0
C445 C 0.29425 0.19849 0.96495 0.0
C446 C 0.30187 0.22796 1.00221 0.0
C447 C 0.2993 0.28305 1.00844 0.0
C448 C 0.30879 0.30412 1.05211 0.0
C449 C 0.3713 0.37214 1.05146 0.0
C450 C 0.24718 0.30207 0.07632 0.0
C451 C 0.3172 0.25238 0.06924 0.0
C452 C 0.31297 0.20925 1.03946 0.0
C453 C 0.31866 0.15708 1.04698 0.0
C454 C 0.32825 0.14793 0.08552 0.0
C455 C 0.33252 0.19031 0.11756 0.0
C456 C 0.32735 0.2441 0.10871 0.0
H457 H 0.87739 0.11166 0.2571 0.0
H458 H 0.85284 0.92345 0.27137 0.0
H459 H 0.90336 0.95855 0.3319 0.0
H460 H 0.03513 0.20873 0.29358 0.0
H461 H 0.01344 0.26267 0.32062 0.0
H462 H 0.97876 0.22458 0.27646 0.0
H463 H 0.86073 0.17802 0.3198 0.0
H464 H 0.89594 0.21551 0.36389 0.0
H465 H 0.83651 0.12928 0.36566 0.0
H466 H 0.96121 0.01374 0.38932 0.0
H467 H 0.00799 0.07956 0.44593 0.0
H468 H -0.01171 0.23142 0.40242 0.0
C469 C 0.8823 0.07772 0.27309 0.0
C470 C 0.86049 0.01425 0.25873 0.0
C471 C 0.86824 0.97194 0.2811 0.0
C472 C 0.89755 -0.00836 0.31571 0.0
C473 C 0.91884 0.05406 0.32874 0.0
C474 C 0.91078 0.09638 0.30868 0.0
C475 C 0.93541 0.15967 0.33108 0.0
C476 C -0.00585 0.21733 0.30378 0.0
C477 C 0.87877 0.1713 0.34599 0.0
C478 C 0.95775 0.14573 0.36685 0.0
C479 C 0.94875 0.08483 0.36407 0.0
C480 C 0.96709 0.06095 0.39226 0.0
C481 C -0.00666 0.09898 0.42482 0.0
C482 C 0.00048 0.16064 0.4303 0.0
C483 C -0.01656 0.18464 0.39994 0.0
loop_
_geom_bond_atom_site_label_1
_geom_bond_atom_site_label_2
_geom_bond_distance
_geom_bond_site_symmetry_2
_ccdc_geom_bond_type
C0 Eu1 2.835 . S
C0 C2 1.500 . S
C0 O20 1.257 . S
C0 O21 1.260 . S
Eu1 C0 2.835 . S
Eu1 O20 2.473 . S
Eu1 O21 2.480 . S
Eu1 O22 2.430 . S
Eu1 O23 2.670 . S
Eu1 O24 2.394 . S
Eu1 O29 2.355 . S
Eu1 O31 2.374 . S
C2 C0 1.500 . S
C2 C3 1.377 1_545 S
C2 C7 1.377 . S
C3 C2 1.377 1_565 S
C3 C4 1.395 1_554 S
C3 H32 0.931 . S
C4 C3 1.395 1_556 S
C4 C5 1.383 . S
C4 H33 0.931 . S
C5 C4 1.383 . S
C5 C6 1.394 . S
C6 C5 1.394 . S
C6 C7 1.378 1_566 S
C6 H34 0.931 . S
C7 C2 1.377 . S
C7 C6 1.378 1_544 S
C7 H35 0.931 . S
C8 O22 1.259 . S
C8 O23 1.270 . S
C9 O24 1.251 . S
C9 O25 1.251 . S
C10 Eu11 2.835 . S
C10 C12 1.500 . S
C10 O26 1.257 . S
C10 O27 1.260 . S
Eu11 C10 2.835 . S
Eu11 O23 2.355 . S
Eu11 O25 2.374 . S
Eu11 O26 2.473 . S
Eu11 O27 2.480 . S
Eu11 O28 2.430 . S
Eu11 O29 2.670 . S
Eu11 O30 2.394 . S
C12 C10 1.500 . S
C12 C13 1.377 . S
C12 C17 1.377 . S
C13 C12 1.377 . S
C13 C14 1.395 . S
C13 H36 0.931 . S
C14 C13 1.395 . S
C14 C15 1.383 . S
C14 H37 0.931 . S
C15 C14 1.383 . S
C15 C16 1.394 . S
C16 C15 1.394 . S
C16 C17 1.378 . S
C16 H38 0.931 . S
C17 C12 1.377 . S
C17 C16 1.378 . S
C17 H39 0.931 . S
C18 O28 1.259 . S
C18 O29 1.270 . S
C19 O30 1.251 . S
C19 O31 1.251 . S
O20 C0 1.257 . S
O20 Eu1 2.473 . S
O21 C0 1.260 . S
O21 Eu1 2.480 . S
O22 Eu1 2.430 . S
O22 C8 1.259 . S
O23 Eu1 2.670 . S
O23 C8 1.270 . S
O23 Eu11 2.355 . S
O24 Eu1 2.394 . S
O24 C9 1.251 . S
O25 C9 1.251 . S
O25 Eu11 2.374 . S
O26 C10 1.257 . S
O26 Eu11 2.473 . S
O27 C10 1.260 . S
O27 Eu11 2.480 . S
O28 Eu11 2.430 . S
O28 C18 1.259 . S
O29 Eu1 2.355 . S
O29 Eu11 2.670 . S
O29 C18 1.270 . S
O30 Eu11 2.394 . S
O30 C19 1.251 . S
O31 Eu1 2.374 . S
O31 C19 1.251 . S
H32 C3 0.931 . S
H33 C4 0.931 . S
H34 C6 0.931 . S
H35 C7 0.931 . S
H36 C13 0.931 . S
H37 C14 0.931 . S
H38 C16 0.931 . S
H39 C17 0.931 . S
C40 Eu41 2.835 . S
C40 C42 1.500 . S
C40 O60 1.257 . S
C40 O61 1.260 . S
Eu41 C40 2.835 . S
Eu41 O60 2.473 . S
Eu41 O61 2.480 . S
Eu41 O62 2.430 . S
Eu41 O63 2.670 . S
Eu41 O64 2.394 . S
Eu41 O69 2.355 . S
Eu41 O71 2.374 . S
C42 C40 1.500 . S
C42 C43 1.377 . S
C42 C47 1.377 . S
C43 C42 1.377 . S
C43 C44 1.395 . S
C43 H72 0.931 . S
C44 C43 1.395 . S
C44 C45 1.383 . S
C44 H73 0.931 . S
C45 C44 1.383 . S
C45 C46 1.394 . S
C46 C45 1.394 . S
C46 C47 1.378 . S
C46 H74 0.931 . S
C47 C42 1.377 . S
C47 C46 1.378 . S
C47 H75 0.931 . S
C48 O62 1.259 . S
C48 O63 1.270 . S
C49 O64 1.251 . S
C49 O65 1.251 . S
C50 Eu51 2.835 . S
C50 C52 1.500 . S
C50 O66 1.257 . S
C50 O67 1.260 . S
Eu51 C50 2.835 . S
Eu51 O63 2.355 . S
Eu51 O65 2.374 . S
Eu51 O66 2.473 . S
Eu51 O67 2.480 . S
Eu51 O68 2.430 . S
Eu51 O69 2.670 . S
Eu51 O70 2.394 . S
C52 C50 1.500 . S
C52 C53 1.377 . S
C52 C57 1.377 . S
C53 C52 1.377 . S
C53 C54 1.395 1_455 S
C53 H76 0.930 1_455 S
C54 C53 1.395 1_655 S
C54 C55 1.383 . S
C54 H77 0.931 . S
C55 C54 1.383 . S
C55 C56 1.394 1_655 S
C56 C55 1.394 1_455 S
C56 C57 1.378 . S
C56 H78 0.931 . S
C57 C52 1.377 . S
C57 C56 1.378 . S
C57 H79 0.931 . S
C58 O68 1.259 . S
C58 O69 1.270 . S
C59 O70 1.251 . S
C59 O71 1.251 . S
O60 C40 1.257 . S
O60 Eu41 2.473 . S
O61 C40 1.260 . S
O61 Eu41 2.480 . S
O62 Eu41 2.430 . S
O62 C48 1.259 . S
O63 Eu41 2.670 . S
O63 C48 1.270 . S
O63 Eu51 2.355 . S
O64 Eu41 2.394 . S
O64 C49 1.251 . S
O65 C49 1.251 . S
O65 Eu51 2.374 . S
O66 C50 1.257 . S
O66 Eu51 2.473 . S
O67 C50 1.260 . S
O67 Eu51 2.480 . S
O68 Eu51 2.430 . S
O68 C58 1.259 . S
O69 Eu41 2.355 . S
O69 Eu51 2.670 . S
O69 C58 1.270 . S
O70 Eu51 2.394 . S
O70 C59 1.251 . S
O71 Eu41 2.374 . S
O71 C59 1.251 . S
H72 C43 0.931 . S
H73 C44 0.931 . S
H74 C46 0.931 . S
H75 C47 0.931 . S
H76 C53 0.930 1_655 S
H77 C54 0.931 . S
H78 C56 0.931 . S
H79 C57 0.931 . S
C80 Eu81 2.835 1_556 S
C80 C82 1.500 . S
C80 O100 1.257 1_556 S
C80 O101 1.254 1_556 S
Eu81 C80 2.835 1_554 S
Eu81 O100 2.473 . S
Eu81 O101 2.489 . S
Eu81 O102 2.430 . S
Eu81 O103 2.670 . S
Eu81 O104 2.377 1_545 S
Eu81 O109 2.355 . S
Eu81 O111 2.374 . S
C82 C80 1.500 . S
C82 C83 1.377 . S
C82 C87 1.377 . S
C83 C82 1.377 . S
C83 C84 1.395 . S
C83 H112 0.931 1_655 S
C84 C83 1.395 . S
C84 C85 1.383 . S
C84 H113 0.931 1_655 S
C85 C84 1.383 . S
C85 C86 1.394 . S
C86 C85 1.394 . S
C86 C87 1.378 . S
C86 H114 0.931 . S
C87 C82 1.377 . S
C87 C86 1.378 . S
C87 H115 0.931 . S
C88 O102 1.259 . S
C88 O103 1.270 . S
C89 O104 1.265 . S
C89 O105 1.251 . S
C90 Eu91 2.835 . S
C90 C92 1.500 . S
C90 O106 1.257 . S
C90 O107 1.260 . S
Eu91 C90 2.835 . S
Eu91 O103 2.355 1_565 S
Eu91 O105 2.374 . S
Eu91 O106 2.473 . S
Eu91 O107 2.480 . S
Eu91 O108 2.430 . S
Eu91 O109 2.670 1_565 S
Eu91 O110 2.394 1_565 S
C92 C90 1.500 . S
C92 C93 1.377 . S
C92 C97 1.377 . S
C93 C92 1.377 . S
C93 C94 1.395 . S
C93 H116 0.931 . S
C94 C93 1.395 . S
C94 C95 1.383 . S
C94 H117 0.931 . S
C95 C94 1.383 . S
C95 C96 1.394 . S
C96 C95 1.394 . S
C96 C97 1.378 . S
C96 H118 0.931 . S
C97 C92 1.377 . S
C97 C96 1.378 . S
C97 H119 0.931 . S
C98 O108 1.259 . S
C98 O109 1.270 1_565 S
C99 O110 1.251 . S
C99 O111 1.251 . S
O100 C80 1.257 1_554 S
O100 Eu81 2.473 . S
O101 C80 1.254 1_554 S
O101 Eu81 2.489 . S
O102 Eu81 2.430 . S
O102 C88 1.259 . S
O103 Eu81 2.670 . S
O103 C88 1.270 . S
O103 Eu91 2.355 1_545 S
O104 Eu81 2.377 1_565 S
O104 C89 1.265 . S
O105 C89 1.251 . S
O105 Eu91 2.374 . S
O106 C90 1.257 . S
O106 Eu91 2.473 . S
O107 C90 1.260 . S
O107 Eu91 2.480 . S
O108 Eu91 2.430 . S
O108 C98 1.259 . S
O109 Eu81 2.355 . S
O109 Eu91 2.670 1_545 S
O109 C98 1.270 1_545 S
O110 Eu91 2.394 1_545 S
O110 C99 1.251 . S
O111 Eu81 2.374 . S
O111 C99 1.251 . S
H112 C83 0.931 1_455 S
H113 C84 0.931 1_455 S
H114 C86 0.931 . S
H115 C87 0.931 . S
H116 C93 0.931 . S
H117 C94 0.931 . S
H118 C96 0.931 . S
H119 C97 0.931 . S
C120 Eu121 2.835 . S
C120 C122 1.500 . S
C120 O140 1.257 . S
C120 O141 1.260 . S
Eu121 C120 2.835 . S
Eu121 O140 2.473 . S
Eu121 O141 2.480 . S
Eu121 O142 2.430 . S
Eu121 O143 2.670 . S
Eu121 O144 2.394 1_455 S
Eu121 O149 2.355 . S
Eu121 O151 2.374 . S
C122 C120 1.500 . S
C122 C123 1.377 . S
C122 C127 1.377 . S
C123 C122 1.377 . S
C123 C124 1.395 . S
C123 H152 0.931 . S
C124 C123 1.395 . S
C124 C125 1.383 . S
C124 H153 0.931 . S
C125 C124 1.383 . S
C125 C126 1.394 . S
C126 C125 1.394 . S
C126 C127 1.378 . S
C126 H154 0.931 . S
C127 C122 1.377 . S
C127 C126 1.378 . S
C127 H155 0.931 . S
C128 O142 1.259 . S
C128 O143 1.270 . S
C129 O144 1.251 . S
C129 O145 1.251 . S
C130 Eu131 2.835 . S
C130 C132 1.500 . S
C130 O146 1.257 . S
C130 O147 1.260 . S
Eu131 C130 2.835 . S
Eu131 O143 2.355 1_655 S
Eu131 O145 2.374 . S
Eu131 O146 2.473 . S
Eu131 O147 2.480 . S
Eu131 O148 2.430 . S
Eu131 O149 2.670 1_655 S
Eu131 O150 2.394 1_655 S
C132 C130 1.500 . S
C132 C133 1.377 . S
C132 C137 1.377 . S
C133 C132 1.377 . S
C133 C134 1.395 . S
C133 H156 0.931 . S
C134 C133 1.395 . S
C134 C135 1.383 . S
C134 H157 0.931 . S
C135 C134 1.383 . S
C135 C136 1.394 . S
C136 C135 1.394 . S
C136 C137 1.378 . S
C136 H158 0.931 . S
C137 C132 1.377 . S
C137 C136 1.378 . S
C137 H159 0.931 . S
C138 O148 1.259 . S
C138 O149 1.270 1_655 S
C139 O150 1.251 . S
C139 O151 1.251 . S
O140 C120 1.257 . S
O140 Eu121 2.473 . S
O141 C120 1.260 . S
O141 Eu121 2.480 . S
O142 Eu121 2.430 . S
O142 C128 1.259 . S
O143 Eu121 2.670 . S
O143 C128 1.270 . S
O143 Eu131 2.355 1_455 S
O144 Eu121 2.394 1_655 S
O144 C129 1.251 . S
O145 C129 1.251 . S
O145 Eu131 2.374 . S
O146 C130 1.257 . S
O146 Eu131 2.473 . S
O147 C130 1.260 . S
O147 Eu131 2.480 . S
O148 Eu131 2.430 . S
O148 C138 1.259 . S
O149 Eu121 2.355 . S
O149 Eu131 2.670 1_455 S
O149 C138 1.270 1_455 S
O150 Eu131 2.394 1_455 S
O150 C139 1.251 . S
O151 Eu121 2.374 . S
O151 C139 1.251 . S
H152 C123 0.931 . S
H153 C124 0.931 . S
H154 C126 0.931 . S
H155 C127 0.931 . S
H156 C133 0.931 . S
H157 C134 0.931 . S
H158 C136 0.931 . S
H159 C137 0.931 . S
H160 C172 0.930 . S
H161 C174 0.930 . S
H162 C175 0.930 1_655 S
H163 C179 0.959 . S
H164 C179 0.959 . S
H165 C179 0.961 . S
H166 C180 0.960 . S
H167 C180 0.961 . S
H168 C180 0.959 . S
H169 C183 0.929 1_565 S
H170 C184 0.931 . S
H171 C186 0.930 . S
C172 H160 0.930 . S
C172 C173 1.399 1_455 S
C172 C177 1.399 . S
C173 C172 1.399 1_655 S
C173 C174 1.376 1_545 S
C174 H161 0.930 . S
C174 C173 1.376 1_565 S
C174 C175 1.388 1_655 S
C175 H162 0.930 1_455 S
C175 C174 1.388 1_455 S
C175 C176 1.390 1_565 S
C176 C175 1.390 1_545 S
C176 C177 1.394 . S
C176 C182 1.465 . S
C177 C172 1.399 . S
C177 C176 1.394 . S
C177 C178 1.516 . S
C178 C177 1.516 . S
C178 C179 1.502 . S
C178 C180 1.561 . S
C178 C181 1.526 . S
C179 H163 0.959 . S
C179 H164 0.959 . S
C179 H165 0.961 . S
C179 C178 1.502 . S
C180 H166 0.960 . S
C180 H167 0.961 . S
C180 H168 0.959 . S
C180 C178 1.561 . S
C181 C178 1.526 . S
C181 C182 1.396 . S
C181 C186 1.390 . S
C182 C176 1.465 . S
C182 C181 1.396 . S
C182 C183 1.399 . S
C183 H169 0.929 1_545 S
C183 C182 1.399 . S
C183 C184 1.385 . S
C184 H170 0.931 . S
C184 C183 1.385 . S
C184 C185 1.389 . S
C185 C184 1.389 . S
C185 C186 1.387 . S
C186 H171 0.930 . S
C186 C181 1.390 . S
C186 C185 1.387 . S
H187 C199 0.930 . S
H188 C201 0.930 . S
H189 C202 0.930 . S
H190 C206 0.959 . S
H191 C206 0.959 . S
H192 C206 0.961 . S
H193 C207 0.960 . S
H194 C207 0.961 . S
H195 C207 0.959 . S
H196 C210 0.929 . S
H197 C211 0.931 . S
H198 C213 0.930 . S
C199 H187 0.930 . S
C199 C200 1.399 1_455 S
C199 C204 1.387 1_565 S
C200 C199 1.399 1_655 S
C200 C201 1.376 . S
C201 H188 0.930 . S
C201 C200 1.376 . S
C201 C202 1.388 1_655 S
C202 H189 0.930 . S
C202 C201 1.388 1_455 S
C202 C203 1.390 1_565 S
C203 C202 1.390 1_545 S
C203 C204 1.399 . S
C203 C209 1.465 . S
C204 C199 1.387 1_545 S
C204 C203 1.399 . S
C204 C205 1.525 . S
C205 C204 1.525 . S
C205 C206 1.502 . S
C205 C207 1.561 . S
C205 C208 1.526 . S
C206 H190 0.959 . S
C206 H191 0.959 . S
C206 H192 0.961 . S
C206 C205 1.502 . S
C207 H193 0.960 . S
C207 H194 0.961 . S
C207 H195 0.959 . S
C207 C205 1.561 . S
C208 C205 1.526 . S
C208 C209 1.396 . S
C208 C213 1.390 . S
C209 C203 1.465 . S
C209 C208 1.396 . S
C209 C210 1.399 . S
C210 H196 0.929 . S
C210 C209 1.399 . S
C210 C211 1.385 . S
C211 H197 0.931 . S
C211 C210 1.385 . S
C211 C212 1.389 . S
C212 C211 1.389 . S
C212 C213 1.387 . S
C213 H198 0.930 . S
C213 C208 1.390 . S
C213 C212 1.387 . S
H214 C226 0.930 . S
H215 C228 0.930 . S
H216 C229 0.930 . S
H217 C233 0.959 . S
H218 C233 0.959 . S
H219 C233 0.961 . S
H220 C234 0.960 . S
H221 C234 0.961 . S
H222 C234 0.959 . S
H223 C237 0.929 1_565 S
H224 C238 0.931 . S
H225 C240 0.930 . S
C226 H214 0.930 . S
C226 C227 1.399 1_545 S
C226 C231 1.399 . S
C227 C226 1.399 1_565 S
C227 C228 1.376 . S
C228 H215 0.930 . S
C228 C227 1.376 . S
C228 C229 1.388 . S
C229 H216 0.930 . S
C229 C228 1.388 . S
C229 C230 1.390 1_565 S
C230 C229 1.390 1_545 S
C230 C231 1.394 . S
C230 C236 1.465 . S
C231 C226 1.399 . S
C231 C230 1.394 . S
C231 C232 1.516 . S
C232 C231 1.516 . S
C232 C233 1.502 . S
C232 C234 1.561 . S
C232 C235 1.526 . S
C233 H217 0.959 . S
C233 H218 0.959 . S
C233 H219 0.961 . S
C233 C232 1.502 . S
C234 H220 0.960 . S
C234 H221 0.961 . S
C234 H222 0.959 . S
C234 C232 1.561 . S
C235 C232 1.526 . S
C235 C236 1.396 . S
C235 C240 1.390 . S
C236 C230 1.465 . S
C236 C235 1.396 . S
C236 C237 1.399 . S
C237 H223 0.929 1_545 S
C237 C236 1.399 . S
C237 C238 1.385 . S
C238 H224 0.931 . S
C238 C237 1.385 . S
C238 C239 1.389 . S
C239 C238 1.389 . S
C239 C240 1.387 . S
C240 H225 0.930 . S
C240 C235 1.390 . S
C240 C239 1.387 . S
H241 C253 0.930 . S
H242 C255 0.930 . S
H243 C256 0.930 . S
H244 C260 0.959 . S
H245 C260 0.959 . S
H246 C260 0.961 . S
H247 C261 0.960 . S
H248 C261 0.961 . S
H249 C261 0.959 . S
H250 C264 0.929 . S
H251 C265 0.931 1_655 S
H252 C267 0.930 . S
C253 H241 0.930 . S
C253 C254 1.399 . S
C253 C258 1.399 . S
C254 C253 1.399 . S
C254 C255 1.376 . S
C255 H242 0.930 . S
C255 C254 1.376 . S
C255 C256 1.388 . S
C256 H243 0.930 . S
C256 C255 1.388 . S
C256 C257 1.390 . S
C257 C256 1.390 . S
C257 C258 1.394 . S
C257 C263 1.465 . S
C258 C253 1.399 . S
C258 C257 1.394 . S
C258 C259 1.516 . S
C259 C258 1.516 . S
C259 C260 1.502 . S
C259 C261 1.561 . S
C259 C262 1.526 . S
C260 H244 0.959 . S
C260 H245 0.959 . S
C260 H246 0.961 . S
C260 C259 1.502 . S
C261 H247 0.960 . S
C261 H248 0.961 . S
C261 H249 0.959 . S
C261 C259 1.561 . S
C262 C259 1.526 . S
C262 C263 1.396 . S
C262 C267 1.390 . S
C263 C257 1.465 . S
C263 C262 1.396 . S
C263 C264 1.399 . S
C264 H250 0.929 . S
C264 C263 1.399 . S
C264 C265 1.385 . S
C265 H251 0.931 1_455 S
C265 C264 1.385 . S
C265 C266 1.389 . S
C266 C265 1.389 . S
C266 C267 1.387 . S
C267 H252 0.930 . S
C267 C262 1.390 . S
C267 C266 1.387 . S
H268 C280 0.930 . S
H269 C282 0.930 . S
H270 C283 0.930 . S
H271 C287 0.959 . S
H272 C287 0.959 . S
H273 C287 0.961 . S
H274 C288 0.960 . S
H275 C288 0.961 . S
H276 C288 0.959 . S
H277 C291 0.929 . S
H278 C292 0.931 . S
H279 C294 0.930 . S
C280 H268 0.930 . S
C280 C281 1.399 . S
C280 C285 1.399 . S
C281 C280 1.399 . S
C281 C282 1.376 . S
C282 H269 0.930 . S
C282 C281 1.376 . S
C282 C283 1.388 . S
C283 H270 0.930 . S
C283 C282 1.388 . S
C283 C284 1.390 . S
C284 C283 1.390 . S
C284 C285 1.394 . S
C284 C290 1.465 . S
C285 C280 1.399 . S
C285 C284 1.394 . S
C285 C286 1.516 . S
C286 C285 1.516 . S
C286 C287 1.502 . S
C286 C288 1.561 . S
C286 C289 1.526 . S
C287 H271 0.959 . S
C287 H272 0.959 . S
C287 H273 0.961 . S
C287 C286 1.502 . S
C288 H274 0.960 . S
C288 H275 0.961 . S
C288 H276 0.959 . S
C288 C286 1.561 . S
C289 C286 1.526 . S
C289 C290 1.396 . S
C289 C294 1.390 . S
C290 C284 1.465 . S
C290 C289 1.396 . S
C290 C291 1.399 . S
C291 H277 0.929 . S
C291 C290 1.399 . S
C291 C292 1.385 . S
C292 H278 0.931 . S
C292 C291 1.385 . S
C292 C293 1.389 . S
C293 C292 1.389 . S
C293 C294 1.387 . S
C294 H279 0.930 . S
C294 C289 1.390 . S
C294 C293 1.387 . S
H295 C307 0.930 . S
H296 C309 0.930 . S
H297 C310 0.930 . S
H298 C314 0.959 . S
H299 C314 0.959 . S
H300 C314 0.961 . S
H301 C315 0.960 1_455 S
H302 C315 0.961 . S
H303 C315 0.959 1_455 S
H304 C318 0.929 . S
H305 C319 0.931 . S
H306 C321 0.930 . S
C307 H295 0.930 . S
C307 C308 1.399 . S
C307 C312 1.399 . S
C308 C307 1.399 . S
C308 C309 1.376 . S
C309 H296 0.930 . S
C309 C308 1.376 . S
C309 C310 1.388 . S
C310 H297 0.930 . S
C310 C309 1.388 . S
C310 C311 1.390 . S
C311 C310 1.390 . S
C311 C312 1.394 . S
C311 C317 1.465 . S
C312 C307 1.399 . S
C312 C311 1.394 . S
C312 C313 1.516 1_455 S
C313 C312 1.516 1_655 S
C313 C314 1.502 . S
C313 C315 1.561 . S
C313 C316 1.526 . S
C314 H298 0.959 . S
C314 H299 0.959 . S
C314 H300 0.961 . S
C314 C313 1.502 . S
C315 H301 0.960 1_655 S
C315 H302 0.961 . S
C315 H303 0.959 1_655 S
C315 C313 1.561 . S
C316 C313 1.526 . S
C316 C317 1.396 1_655 S
C316 C321 1.390 . S
C317 C311 1.465 . S
C317 C316 1.396 1_455 S
C317 C318 1.399 . S
C318 H304 0.929 . S
C318 C317 1.399 . S
C318 C319 1.385 1_455 S
C319 H305 0.931 . S
C319 C318 1.385 1_655 S
C319 C320 1.389 . S
C320 C319 1.389 . S
C320 C321 1.387 . S
C321 H306 0.930 . S
C321 C316 1.390 . S
C321 C320 1.387 . S
H322 C334 0.930 . S
H323 C336 0.930 . S
H324 C337 0.930 . S
H325 C341 0.959 . S
H326 C341 0.959 . S
H327 C341 0.961 . S
H328 C342 0.960 . S
H329 C342 0.961 . S
H330 C342 0.959 . S
H331 C345 0.929 . S
H332 C346 0.931 . S
H333 C348 0.930 . S
C334 H322 0.930 . S
C334 C335 1.399 . S
C334 C339 1.399 . S
C335 C334 1.399 . S
C335 C336 1.376 . S
C336 H323 0.930 . S
C336 C335 1.376 . S
C336 C337 1.388 . S
C337 H324 0.930 . S
C337 C336 1.388 . S
C337 C338 1.390 . S
C338 C337 1.390 . S
C338 C339 1.394 . S
C338 C344 1.465 . S
C339 C334 1.399 . S
C339 C338 1.394 . S
C339 C340 1.516 . S
C340 C339 1.516 . S
C340 C341 1.502 . S
C340 C342 1.561 . S
C340 C343 1.526 . S
C341 H325 0.959 . S
C341 H326 0.959 . S
C341 H327 0.961 . S
C341 C340 1.502 . S
C342 H328 0.960 . S
C342 H329 0.961 . S
C342 H330 0.959 . S
C342 C340 1.561 . S
C343 C340 1.526 . S
C343 C344 1.396 . S
C343 C348 1.390 . S
C344 C338 1.465 . S
C344 C343 1.396 . S
C344 C345 1.399 . S
C345 H331 0.929 . S
C345 C344 1.399 . S
C345 C346 1.385 . S
C346 H332 0.931 . S
C346 C345 1.385 . S
C346 C347 1.389 . S
C347 C346 1.389 . S
C347 C348 1.387 . S
C348 H333 0.930 . S
C348 C343 1.390 . S
C348 C347 1.387 . S
H349 C361 0.930 . S
H350 C363 0.930 . S
H351 C364 0.930 . S
H352 C368 0.959 . S
H353 C368 0.959 . S
H354 C368 0.961 . S
H355 C369 0.960 . S
H356 C369 0.961 . S
H357 C369 0.959 . S
H358 C372 0.929 1_545 S
H359 C373 0.931 . S
H360 C375 0.930 . S
C361 H349 0.930 . S
C361 C362 1.399 . S
C361 C366 1.399 . S
C362 C361 1.399 . S
C362 C363 1.376 . S
C363 H350 0.930 . S
C363 C362 1.376 . S
C363 C364 1.388 . S
C364 H351 0.930 . S
C364 C363 1.388 . S
C364 C365 1.390 . S
C365 C364 1.390 . S
C365 C366 1.394 . S
C365 C371 1.465 . S
C366 C361 1.399 . S
C366 C365 1.394 . S
C366 C367 1.516 . S
C367 C366 1.516 . S
C367 C368 1.502 . S
C367 C369 1.561 . S
C367 C370 1.526 . S
C368 H352 0.959 . S
C368 H353 0.959 . S
C368 H354 0.961 . S
C368 C367 1.502 . S
C369 H355 0.960 . S
C369 H356 0.961 . S
C369 H357 0.959 . S
C369 C367 1.561 . S
C370 C367 1.526 . S
C370 C371 1.396 . S
C370 C375 1.390 . S
C371 C365 1.465 . S
C371 C370 1.396 . S
C371 C372 1.399 . S
C372 H358 0.929 1_565 S
C372 C371 1.399 . S
C372 C373 1.385 1_565 S
C373 H359 0.931 . S
C373 C372 1.385 1_545 S
C373 C374 1.389 1_545 S
C374 C373 1.389 1_565 S
C374 C375 1.387 . S
C375 H360 0.930 . S
C375 C370 1.390 . S
C375 C374 1.387 . S
H376 C388 0.930 . S
H377 C390 0.930 . S
H378 C391 0.930 . S
H379 C395 0.959 . S
H380 C395 0.959 . S
H381 C395 0.961 . S
H382 C396 0.960 . S
H383 C396 0.961 . S
H384 C396 0.959 . S
H385 C399 0.929 . S
H386 C400 0.931 . S
H387 C402 0.930 . S
C388 H376 0.930 . S
C388 C389 1.399 . S
C388 C393 1.399 . S
C389 C388 1.399 . S
C389 C390 1.376 . S
C390 H377 0.930 . S
C390 C389 1.376 . S
C390 C391 1.388 . S
C391 H378 0.930 . S
C391 C390 1.388 . S
C391 C392 1.390 . S
C392 C391 1.390 . S
C392 C393 1.394 . S
C392 C398 1.465 . S
C393 C388 1.399 . S
C393 C392 1.394 . S
C393 C394 1.516 . S
C394 C393 1.516 . S
C394 C395 1.502 . S
C394 C396 1.561 . S
C394 C397 1.526 . S
C395 H379 0.959 . S
C395 H380 0.959 . S
C395 H381 0.961 . S
C395 C394 1.502 . S
C396 H382 0.960 . S
C396 H383 0.961 . S
C396 H384 0.959 . S
C396 C394 1.561 . S
C397 C394 1.526 . S
C397 C398 1.396 . S
C397 C402 1.390 . S
C398 C392 1.465 . S
C398 C397 1.396 . S
C398 C399 1.399 . S
C399 H385 0.929 . S
C399 C398 1.399 . S
C399 C400 1.385 . S
C400 H386 0.931 . S
C400 C399 1.385 . S
C400 C401 1.389 . S
C401 C400 1.389 . S
C401 C402 1.387 . S
C402 H387 0.930 . S
C402 C397 1.390 . S
C402 C401 1.387 . S
H403 C415 0.930 . S
H404 C417 0.930 . S
H405 C418 0.930 . S
H406 C422 0.959 . S
H407 C422 0.959 . S
H408 C422 0.961 . S
H409 C423 0.960 . S
H410 C423 0.961 . S
H411 C423 0.959 . S
H412 C426 0.929 . S
H413 C427 0.931 . S
H414 C429 0.930 . S
C415 H403 0.930 . S
C415 C416 1.399 . S
C415 C420 1.399 1_545 S
C416 C415 1.399 . S
C416 C417 1.376 1_545 S
C417 H404 0.930 . S
C417 C416 1.376 1_565 S
C417 C418 1.388 . S
C418 H405 0.930 . S
C418 C417 1.388 . S
C418 C419 1.390 . S
C419 C418 1.390 . S
C419 C420 1.394 . S
C419 C425 1.465 . S
C420 C415 1.399 1_565 S
C420 C419 1.394 . S
C420 C421 1.516 1_565 S
C421 C420 1.516 1_545 S
C421 C422 1.502 . S
C421 C423 1.561 . S
C421 C424 1.526 1_545 S
C422 H406 0.959 . S
C422 H407 0.959 . S
C422 H408 0.961 . S
C422 C421 1.502 . S
C423 H409 0.960 . S
C423 H410 0.961 . S
C423 H411 0.959 . S
C423 C421 1.561 . S
C424 C421 1.526 1_565 S
C424 C425 1.396 . S
C424 C429 1.390 . S
C425 C419 1.465 . S
C425 C424 1.396 . S
C425 C426 1.399 . S
C426 H412 0.929 . S
C426 C425 1.399 . S
C426 C427 1.385 . S
C427 H413 0.931 . S
C427 C426 1.385 . S
C427 C428 1.389 . S
C428 C427 1.389 . S
C428 C429 1.387 . S
C429 H414 0.930 . S
C429 C424 1.390 . S
C429 C428 1.387 . S
H430 C442 0.930 . S
H431 C444 0.930 . S
H432 C445 0.930 . S
H433 C449 0.959 . S
H434 C449 0.959 . S
H435 C449 0.961 . S
H436 C450 0.960 . S
H437 C450 0.961 1_554 S
H438 C450 0.959 . S
H439 C453 0.929 . S
H440 C454 0.931 . S
H441 C456 0.930 . S
C442 H430 0.930 . S
C442 C443 1.399 . S
C442 C447 1.399 . S
C443 C442 1.399 . S
C443 C444 1.376 . S
C444 H431 0.930 . S
C444 C443 1.376 . S
C444 C445 1.388 . S
C445 H432 0.930 . S
C445 C444 1.388 . S
C445 C446 1.390 . S
C446 C445 1.390 . S
C446 C447 1.394 . S
C446 C452 1.465 . S
C447 C442 1.399 . S
C447 C446 1.394 . S
C447 C448 1.516 . S
C448 C447 1.516 . S
C448 C449 1.502 . S
C448 C450 1.561 . S
C448 C451 1.526 . S
C449 H433 0.959 . S
C449 H434 0.959 . S
C449 H435 0.961 . S
C449 C448 1.502 . S
C450 H436 0.960 . S
C450 H437 0.961 1_556 S
C450 H438 0.959 . S
C450 C448 1.561 . S
C451 C448 1.526 . S
C451 C452 1.396 . S
C451 C456 1.390 1_556 S
C452 C446 1.465 . S
C452 C451 1.396 . S
C452 C453 1.399 . S
C453 H439 0.929 . S
C453 C452 1.399 . S
C453 C454 1.383 1_556 S
C454 H440 0.931 . S
C454 C453 1.383 1_554 S
C454 C455 1.391 . S
C455 C454 1.391 . S
C455 C456 1.387 . S
C456 H441 0.930 . S
C456 C451 1.390 1_554 S
C456 C455 1.387 . S
H457 C469 0.930 . S
H458 C471 0.930 . S
H459 C472 0.930 . S
H460 C476 0.959 . S
H461 C476 0.959 . S
H462 C476 0.961 . S
H463 C477 0.960 . S
H464 C477 0.961 . S
H465 C477 0.959 1_655 S
H466 C480 0.929 . S
H467 C481 0.931 . S
H468 C483 0.930 1_455 S
C469 H457 0.930 . S
C469 C470 1.399 . S
C469 C474 1.399 . S
C470 C469 1.399 . S
C470 C471 1.376 . S
C471 H458 0.930 . S
C471 C470 1.376 . S
C471 C472 1.388 . S
C472 H459 0.930 . S
C472 C471 1.388 . S
C472 C473 1.390 . S
C473 C472 1.390 . S
C473 C474 1.394 . S
C473 C479 1.465 . S
C474 C469 1.399 . S
C474 C473 1.394 . S
C474 C475 1.516 . S
C475 C474 1.516 . S
C475 C476 1.502 1_655 S
C475 C477 1.561 1_655 S
C475 C478 1.526 . S
C476 H460 0.959 . S
C476 H461 0.959 . S
C476 H462 0.961 . S
C476 C475 1.502 1_455 S
C477 H463 0.960 . S
C477 H464 0.961 . S
C477 H465 0.959 1_455 S
C477 C475 1.561 1_455 S
C478 C475 1.526 . S
C478 C479 1.396 . S
C478 C483 1.390 . S
C479 C473 1.465 . S
C479 C478 1.396 . S
C479 C480 1.399 . S
C480 H466 0.929 . S
C480 C479 1.399 . S
C480 C481 1.385 . S
C481 H467 0.931 . S
C481 C480 1.385 . S
C481 C482 1.389 . S
C482 C481 1.389 . S
C482 C483 1.387 . S
C483 H468 0.930 1_655 S
C483 C478 1.390 . S
C483 C482 1.387 . S
C173 C88 0.772 . S
C185 C8 0.656 . S
C200 C128 0.713 1_655 S
C212 C58 0.620 . S
C227 C98 1.236 . S
C239 C18 1.253 . S
C254 C48 1.285 . S
C266 C138 1.261 1_455 S
C281 C59 0.535 . S
C293 C15 0.577 . S
C308 C49 0.539 . S
C320 C85 0.582 . S
C335 C135 0.406 . S
C347 C95 0.482 . S
C362 C125 0.275 . S
C374 C5 0.497 . S
C389 C89 3.381 1_556 S
C401 C129 3.305 . S
C416 C19 3.381 . S
C428 C139 3.380 . S
C443 C45 2.830 . S
C455 C9 2.830 . S
C470 C99 2.515 . S
C482 C55 2.468 . S
