# Generated by pormake.
# Topology whh, (6)-cn, num edge types: 1
# Building blocks:
#     Node 0, Type 0, BuildingBlock: MIFKUJ_clean_sbu_0, # of connection points: 6
#     Node 1, Type 0, BuildingBlock: MIFKUJ_clean_sbu_0, # of connection points: 6
#     Node 2, Type 0, BuildingBlock: MIFKUJ_clean_sbu_0, # of connection points: 6
#     Node 3, Type 0, BuildingBlock: MIFKUJ_clean_sbu_0, # of connection points: 6
#     Node 4, Type 0, BuildingBlock: MIFKUJ_clean_sbu_0, # of connection points: 6
#     Node 5, Type 0, BuildingBlock: MIFKUJ_clean_sbu_0, # of connection points: 6
#     Node 6, Type 0, BuildingBlock: MIFKUJ_clean_sbu_0, # of connection points: 6
#     Node 7, Type 0, BuildingBlock: MIFKUJ_clean_sbu_0, # of connection points: 6
#     Node 8, Type 0, BuildingBlock: MIFKUJ_clean_sbu_0, # of connection points: 6
#     Node 9, Type 0, BuildingBlock: MIFKUJ_clean_sbu_0, # of connection points: 6
#     Node 10, Type 0, BuildingBlock: MIFKUJ_clean_sbu_0, # of connection points: 6
#     Node 11, Type 0, BuildingBlock: MIFKUJ_clean_sbu_0, # of connection points: 6
#     Node 12, Type 0, BuildingBlock: MIFKUJ_clean_sbu_0, # of connection points: 6
#     Node 13, Type 0, BuildingBlock: MIFKUJ_clean_sbu_0, # of connection points: 6
#     Node 14, Type 0, BuildingBlock: MIFKUJ_clean_sbu_0, # of connection points: 6
#     Node 15, Type 0, BuildingBlock: MIFKUJ_clean_sbu_0, # of connection points: 6
#     Edge 16, Type (0, 0), BuildingBlock: TEMPAE_clean_linker_10, # of connection points: 2
#     Edge 17, Type (0, 0), BuildingBlock: TEMPAE_clean_linker_10, # of connection points: 2
#     Edge 18, Type (0, 0), BuildingBlock: TEMPAE_clean_linker_10, # of connection points: 2
#     Edge 19, Type (0, 0), BuildingBlock: TEMPAE_clean_linker_10, # of connection points: 2
#     Edge 20, Type (0, 0), BuildingBlock: TEMPAE_clean_linker_10, # of connection points: 2
#     Edge 21, Type (0, 0), BuildingBlock: TEMPAE_clean_linker_10, # of connection points: 2
#     Edge 22, Type (0, 0), BuildingBlock: TEMPAE_clean_linker_10, # of connection points: 2
#     Edge 23, Type (0, 0), BuildingBlock: TEMPAE_clean_linker_10, # of connection points: 2
#     Edge 24, Type (0, 0), BuildingBlock: TEMPAE_clean_linker_10, # of connection points: 2
#     Edge 25, Type (0, 0), BuildingBlock: TEMPAE_clean_linker_10, # of connection points: 2
#     Edge 26, Type (0, 0), BuildingBlock: TEMPAE_clean_linker_10, # of connection points: 2
#     Edge 27, Type (0, 0), BuildingBlock: TEMPAE_clean_linker_10, # of connection points: 2
#     Edge 28, Type (0, 0), BuildingBlock: TEMPAE_clean_linker_10, # of connection points: 2
#     Edge 29, Type (0, 0), BuildingBlock: TEMPAE_clean_linker_10, # of connection points: 2
#     Edge 30, Type (0, 0), BuildingBlock: TEMPAE_clean_linker_10, # of connection points: 2
#     Edge 31, Type (0, 0), BuildingBlock: TEMPAE_clean_linker_10, # of connection points: 2
#     Edge 32, Type (0, 0), BuildingBlock: TEMPAE_clean_linker_10, # of connection points: 2
#     Edge 33, Type (0, 0), BuildingBlock: TEMPAE_clean_linker_10, # of connection points: 2
#     Edge 34, Type (0, 0), BuildingBlock: TEMPAE_clean_linker_10, # of connection points: 2
#     Edge 35, Type (0, 0), BuildingBlock: TEMPAE_clean_linker_10, # of connection points: 2
#     Edge 36, Type (0, 0), BuildingBlock: TEMPAE_clean_linker_10, # of connection points: 2
#     Edge 37, Type (0, 0), BuildingBlock: TEMPAE_clean_linker_10, # of connection points: 2
#     Edge 38, Type (0, 0), BuildingBlock: TEMPAE_clean_linker_10, # of connection points: 2
#     Edge 39, Type (0, 0), BuildingBlock: TEMPAE_clean_linker_10, # of connection points: 2
#     Edge 40, Type (0, 0), BuildingBlock: TEMPAE_clean_linker_10, # of connection points: 2
#     Edge 41, Type (0, 0), BuildingBlock: TEMPAE_clean_linker_10, # of connection points: 2
#     Edge 42, Type (0, 0), BuildingBlock: TEMPAE_clean_linker_10, # of connection points: 2
#     Edge 43, Type (0, 0), BuildingBlock: TEMPAE_clean_linker_10, # of connection points: 2
#     Edge 44, Type (0, 0), BuildingBlock: TEMPAE_clean_linker_10, # of connection points: 2
#     Edge 45, Type (0, 0), BuildingBlock: TEMPAE_clean_linker_10, # of connection points: 2
#     Edge 46, Type (0, 0), BuildingBlock: TEMPAE_clean_linker_10, # of connection points: 2
#     Edge 47, Type (0, 0), BuildingBlock: TEMPAE_clean_linker_10, # of connection points: 2
#     Edge 48, Type (0, 0), BuildingBlock: TEMPAE_clean_linker_10, # of connection points: 2
#     Edge 49, Type (0, 0), BuildingBlock: TEMPAE_clean_linker_10, # of connection points: 2
#     Edge 50, Type (0, 0), BuildingBlock: TEMPAE_clean_linker_10, # of connection points: 2
#     Edge 51, Type (0, 0), BuildingBlock: TEMPAE_clean_linker_10, # of connection points: 2
#     Edge 52, Type (0, 0), BuildingBlock: TEMPAE_clean_linker_10, # of connection points: 2
#     Edge 53, Type (0, 0), BuildingBlock: TEMPAE_clean_linker_10, # of connection points: 2
#     Edge 54, Type (0, 0), BuildingBlock: TEMPAE_clean_linker_10, # of connection points: 2
#     Edge 55, Type (0, 0), BuildingBlock: TEMPAE_clean_linker_10, # of connection points: 2
#     Edge 56, Type (0, 0), BuildingBlock: TEMPAE_clean_linker_10, # of connection points: 2
#     Edge 57, Type (0, 0), BuildingBlock: TEMPAE_clean_linker_10, # of connection points: 2
#     Edge 58, Type (0, 0), BuildingBlock: TEMPAE_clean_linker_10, # of connection points: 2
#     Edge 59, Type (0, 0), BuildingBlock: TEMPAE_clean_linker_10, # of connection points: 2
#     Edge 60, Type (0, 0), BuildingBlock: TEMPAE_clean_linker_10, # of connection points: 2
#     Edge 61, Type (0, 0), BuildingBlock: TEMPAE_clean_linker_10, # of connection points: 2
#     Edge 62, Type (0, 0), BuildingBlock: TEMPAE_clean_linker_10, # of connection points: 2
#     Edge 63, Type (0, 0), BuildingBlock: TEMPAE_clean_linker_10, # of connection points: 2
# Relax obj value: 0.479
# Max RMSD: 0.311
# Mean RMSD: 0.291
data_MOF--net-whh--node1-MIFKUJ_clean_sbu_0--edge1-TEMPAE_clean_linker_10
_symmetry_space_group_name_H-M    P1
_symmetry_Int_Tables_number       1
_symmetry_cell_setting            triclinic
loop_
_symmetry_equiv_pos_as_xyz
'x, y, z'
_cell_length_a     37.615975
_cell_length_b     37.612983
_cell_length_c     43.130042
_cell_angle_alpha  92.619843
_cell_angle_beta   86.429737
_cell_angle_gamma 89.822152
loop_
_atom_site_label
_atom_site_type_symbol
_atom_site_fract_x
_atom_site_fract_y
_atom_site_fract_z
_atom_type_partial_charge
Zn0 Zn 0.08182 0.63554 0.09996 0.0
Zn1 Zn 0.00534 0.59586 0.12515 0.0
C2 C 0.05739 0.69928 0.07239 0.0
O3 O 0.08921 0.69865 0.058 0.0
C4 C 0.03493 0.55549 0.17064 0.0
O5 O 0.0204 0.58243 0.18723 0.0
O6 O 0.13143 0.65446 0.09249 0.0
O7 O 0.07357 0.63251 0.14666 0.0
O8 O 0.01485 0.63909 0.15206 0.0
C9 C 0.13805 0.68234 0.10882 0.0
O10 O 0.11299 0.69664 0.12799 0.0
O11 O 0.04777 0.67377 0.08919 0.0
C12 C 0.94113 0.55529 0.13914 0.0
O13 O 0.9617 0.5389 0.1574 0.0
O14 O 0.95301 0.58233 0.12517 0.0
O15 O 0.01974 0.60603 0.08164 0.0
O16 O 0.07537 0.59009 0.07436 0.0
O17 O 0.03236 0.554 0.14132 0.0
C18 C 0.0458 0.64611 0.16111 0.0
C19 C 0.04318 0.58563 0.06826 0.0
Zn20 Zn 0.86055 0.06524 0.12887 0.0
Zn21 Zn 0.89474 0.99196 0.14308 0.0
C22 C 0.79851 0.04487 0.09584 0.0
O23 O 0.8037 0.07552 0.08291 0.0
C24 C 0.93971 0.02837 0.18769 0.0
O25 O 0.91215 0.02419 0.20731 0.0
O26 O 0.84368 0.11471 0.12522 0.0
O27 O 0.86225 0.05918 0.17463 0.0
O28 O 0.84955 0.00244 0.16905 0.0
C29 C 0.81436 0.12276 0.14012 0.0
O30 O 0.79878 0.09925 0.15795 0.0
O31 O 0.82057 0.03408 0.11455 0.0
C32 C 0.93891 0.9313 0.13535 0.0
O33 O 0.96236 0.95662 0.13127 0.0
O34 O 0.90655 0.93943 0.14271 0.0
O35 O 0.89122 -0.00013 0.09803 0.0
O36 O 0.90416 0.05676 0.10014 0.0
O37 O 0.93772 0.01814 0.15937 0.0
C38 C 0.84411 0.03254 0.18311 0.0
C39 C 0.90642 0.0264 0.08608 0.0
Zn40 Zn 0.43226 0.84903 0.11119 0.0
Zn41 Zn 0.50368 0.87705 0.11933 0.0
C42 C 0.45581 0.78597 0.07104 0.0
O43 O 0.42576 0.78884 0.05736 0.0
C44 C 0.47674 0.94726 0.1451 0.0
O45 O 0.49647 0.96155 0.12283 0.0
O46 O 0.38189 0.83253 0.10729 0.0
O47 O 0.44231 0.84596 0.15645 0.0
O48 O 0.49855 0.83221 0.14401 0.0
C49 C 0.3753 0.80084 0.11481 0.0
O50 O 0.4006 0.78178 0.12578 0.0
O51 O 0.46406 0.80984 0.09105 0.0
C52 C 0.56693 0.91176 0.0943 0.0
O53 O 0.54902 0.91056 0.06918 0.0
O54 O 0.55393 0.89738 0.11869 0.0
O55 O 0.4905 0.87337 0.07456 0.0
O56 O 0.43882 0.89595 0.08963 0.0
O57 O 0.47425 0.91356 0.14544 0.0
C58 C 0.4703 0.82848 0.16157 0.0
C59 C 0.4655 0.8947 0.07012 0.0
Zn60 Zn 0.62371 0.49503 0.09982 0.0
Zn61 Zn 0.66692 0.4157 0.12249 0.0
C62 C 0.60926 0.47507 0.04093 0.0
O63 O 0.63512 0.4973 0.03398 0.0
C64 C 0.69425 0.41178 0.18318 0.0
O65 O 0.66203 0.4 0.19011 0.0
O66 O 0.59986 0.54109 0.09128 0.0
O67 O 0.6044 0.47967 0.14088 0.0
O68 O 0.61753 0.42216 0.14439 0.0
C69 C 0.56973 0.54987 0.10438 0.0
O70 O 0.55419 0.52897 0.12464 0.0
O71 O 0.60912 0.46066 0.06691 0.0
C72 C 0.70607 0.35795 0.10155 0.0
O73 O 0.72921 0.38402 0.10125 0.0
O74 O 0.67339 0.36521 0.10759 0.0
O75 O 0.68159 0.44725 0.08773 0.0
O76 O 0.67495 0.50359 0.10012 0.0
O77 O 0.70228 0.42168 0.15583 0.0
C78 C 0.60004 0.45008 0.15363 0.0
C79 C 0.69541 0.47718 0.09423 0.0
Zn80 Zn 0.0823 0.8471 0.38568 0.0
Zn81 Zn 0.00865 0.88017 0.37634 0.0
C82 C 0.06037 0.78405 0.41865 0.0
O83 O 0.08995 0.789 0.43289 0.0
C84 C 0.0625 0.94274 0.35049 0.0
O85 O 0.09316 0.94738 0.36304 0.0
O86 O 0.13293 0.82967 0.38862 0.0
O87 O 0.07318 0.85067 0.34018 0.0
O88 O 0.01589 0.83836 0.34668 0.0
C89 C 0.13985 0.80058 0.37319 0.0
O90 O 0.11544 0.7869 0.35591 0.0
O91 O 0.05128 0.80644 0.3994 0.0
C92 C 0.95324 0.93025 0.39016 0.0
O93 O 0.98091 0.94783 0.3998 0.0
O94 O 0.95798 0.89897 0.37806 0.0
O95 O 0.01841 0.86946 0.41986 0.0
O96 O 0.07228 0.89043 0.41438 0.0
O97 O 0.04169 0.91862 0.36043 0.0
C98 C 0.04529 0.83586 0.33051 0.0
C99 C 0.04269 0.88909 0.43012 0.0
Zn100 Zn 0.6452 0.075 0.38708 0.0
Zn101 Zn 0.58917 0.99216 0.37396 0.0
C102 C 0.71009 0.0471 0.41191 0.0
O103 O 0.69462 0.05665 0.43918 0.0
C104 C 0.53834 0.00679 0.33605 0.0
O105 O 0.55234 0.97575 0.32682 0.0
O106 O 0.65192 0.12641 0.38252 0.0
O107 O 0.61913 0.05028 0.35195 0.0
O108 O 0.62306 0.99375 0.33693 0.0
C109 C 0.67867 0.13156 0.36416 0.0
O110 O 0.69058 0.10518 0.34538 0.0
O111 O 0.69383 0.05199 0.3875 0.0
C112 C 0.54298 0.93454 0.38963 0.0
O113 O 0.51858 0.95942 0.3886 0.0
O114 O 0.57564 0.94232 0.3848 0.0
O115 O 0.61889 0.0173 0.40408 0.0
O116 O 0.61697 0.06874 0.428 0.0
O117 O 0.54783 0.02159 0.36121 0.0
C118 C 0.6334 0.0257 0.33389 0.0
C119 C 0.60621 0.03697 0.42646 0.0
Zn120 Zn 0.4302 0.62588 0.37918 0.0
Zn121 Zn 0.50256 0.59956 0.36765 0.0
C122 C 0.45222 0.68803 0.41847 0.0
O123 O 0.4229 0.68374 0.43607 0.0
C124 C 0.48238 0.55434 0.31818 0.0
O125 O 0.5026 0.57756 0.30373 0.0
O126 O 0.37983 0.64336 0.38565 0.0
O127 O 0.44208 0.62567 0.33263 0.0
O128 O 0.49623 0.64335 0.34201 0.0
C129 C 0.37448 0.67213 0.37227 0.0
O130 O 0.40113 0.68655 0.35629 0.0
O131 O 0.46002 0.66583 0.39601 0.0
C132 C 0.55601 0.55215 0.37791 0.0
O133 O 0.52634 0.53546 0.38503 0.0
O134 O 0.55418 0.58303 0.3671 0.0
O135 O 0.48777 0.60339 0.41354 0.0
O136 O 0.43632 0.58107 0.40279 0.0
O137 O 0.47692 0.55791 0.34745 0.0
C138 C 0.46926 0.64442 0.32556 0.0
C139 C 0.46172 0.58352 0.42078 0.0
Zn140 Zn 0.857 0.40362 0.39634 0.0
Zn141 Zn 0.93163 0.47382 0.37078 0.0
C142 C 0.79258 0.4434 0.41698 0.0
O143 O 0.80908 0.45007 0.44255 0.0
C144 C -4e-05 0.42791 0.35872 0.0
O145 O 0.02122 0.40518 0.37074 0.0
O146 O 0.8521 0.35153 0.39847 0.0
O147 O 0.89022 0.41698 0.35921 0.0
O148 O 0.9064 0.46145 0.33121 0.0
C149 C 0.82976 0.33851 0.38049 0.0
O150 O 0.81293 0.35955 0.36284 0.0
O151 O 0.80828 0.42536 0.39452 0.0
C152 C 0.97433 0.5373 0.37861 0.0
O153 O 0.00146 0.51529 0.3739 0.0
O154 O 0.94275 0.52574 0.3777 0.0
O155 O 0.89365 0.46236 0.40304 0.0
O156 O 0.88077 0.42131 0.4352 0.0
O157 O 0.97353 0.44036 0.37588 0.0
C158 C 0.8861 0.43479 0.33523 0.0
C159 C 0.8984 0.44892 0.42876 0.0
Zn160 Zn 0.98826 0.39013 0.86728 0.0
Zn161 Zn 0.91435 0.36148 0.88079 0.0
C162 C 0.94301 0.45765 0.85104 0.0
O163 O 0.92822 0.46818 0.87828 0.0
C164 C 0.93452 0.2967 0.90974 0.0
O165 O 0.90258 0.29905 0.92377 0.0
O166 O 0.03975 0.40603 0.86556 0.0
O167 O 0.97558 0.3836 0.9122 0.0
O168 O 0.92137 0.40384 0.91004 0.0
C169 C 0.04394 0.43687 0.8783 0.0
O170 O 0.01583 0.4539 0.89118 0.0
O171 O 0.96348 0.43059 0.84844 0.0
C172 C 0.8538 0.31797 0.87096 0.0
O173 O 0.87491 0.30546 0.84755 0.0
O174 O 0.86416 0.34388 0.88802 0.0
O175 O 0.92516 0.36626 0.8347 0.0
O176 O 0.98017 0.34761 0.83908 0.0
O177 O 0.94536 0.32074 0.89182 0.0
C178 C 0.94941 0.40126 0.92465 0.0
C179 C 0.95206 0.34788 0.82409 0.0
Zn180 Zn 0.09909 0.0019 0.85703 0.0
Zn181 Zn 0.13076 0.92673 0.86942 0.0
C182 C 0.03577 0.95692 0.83007 0.0
O183 O 0.04412 0.92459 0.83748 0.0
C184 C 0.19239 0.9514 0.90215 0.0
O185 O 0.18855 0.92128 0.91616 0.0
O186 O 0.08774 0.05454 0.86111 0.0
O187 O 0.10538 0.98897 0.90088 0.0
O188 O 0.08546 0.93486 0.89589 0.0
C189 C 0.05974 0.06033 0.87885 0.0
O190 O 0.04343 0.03315 0.89133 0.0
O191 O 0.05536 0.98303 0.83752 0.0
C192 C 0.17838 0.86763 0.86212 0.0
O193 O 0.19707 0.89036 0.84576 0.0
O194 O 0.14834 0.87694 0.8751 0.0
O195 O 0.1267 0.93219 0.82384 0.0
O196 O 0.13911 0.98966 0.82545 0.0
O197 O 0.17029 0.9599 0.88257 0.0
C198 C 0.0854 0.96456 0.91088 0.0
C199 C 0.14052 0.95919 0.8112 0.0
Zn200 Zn 0.48791 0.11769 0.8761 0.0
Zn201 Zn 0.56171 0.14938 0.89604 0.0
C202 C 0.53263 0.05413 0.84103 0.0
O203 O 0.55569 0.04547 0.86108 0.0
C204 C 0.52509 0.20929 0.93384 0.0
O205 O 0.55097 0.21059 0.95292 0.0
O206 O 0.43493 0.10734 0.87628 0.0
O207 O 0.49822 0.11276 0.92082 0.0
O208 O 0.55521 0.10073 0.91478 0.0
C209 C 0.42719 0.07483 0.88005 0.0
O210 O 0.45289 0.05146 0.88163 0.0
O211 O 0.51023 0.07908 0.84775 0.0
C212 C 0.61586 0.20143 0.89987 0.0
O213 O 0.59 0.22 0.88928 0.0
O214 O 0.61033 0.16893 0.90549 0.0
O215 O 0.55739 0.15519 0.8495 0.0
O216 O 0.49887 0.16306 0.85439 0.0
O217 O 0.52404 0.18395 0.91345 0.0
C218 C 0.52474 0.09455 0.92773 0.0
C219 C 0.52894 0.16882 0.84029 0.0
Zn220 Zn 0.33748 0.57409 0.86926 0.0
Zn221 Zn 0.36345 0.49471 0.87812 0.0
C222 C 0.30594 0.58989 0.81244 0.0
O223 O 0.32138 0.62067 0.81763 0.0
C224 C 0.37971 0.51386 0.94139 0.0
O225 O 0.35161 0.49438 0.94806 0.0
O226 O 0.32685 0.62587 0.88087 0.0
O227 O 0.3101 0.54725 0.90348 0.0
O228 O 0.31105 0.49388 0.88122 0.0
C229 C 0.29387 0.63174 0.8877 0.0
O230 O 0.27202 0.60459 0.8884 0.0
O231 O 0.31083 0.56468 0.83043 0.0
C232 C 0.41438 0.43973 0.87782 0.0
O233 O 0.43513 0.4671 0.87241 0.0
O234 O 0.38085 0.44454 0.88033 0.0
O235 O 0.38245 0.51174 0.83773 0.0
O236 O 0.39079 0.56673 0.85563 0.0
O237 O 0.38659 0.52151 0.91327 0.0
C238 C 0.29415 0.51847 0.89667 0.0
C239 C 0.39909 0.54093 0.83632 0.0
Zn240 Zn 0.98687 0.10504 0.61423 0.0
Zn241 Zn 0.91025 0.1481 0.59797 0.0
C242 C 0.93911 0.05046 0.64826 0.0
O243 O 0.91051 0.07062 0.64864 0.0
C244 C 0.94205 0.20801 0.5653 0.0
O245 O 0.91417 0.20585 0.54842 0.0
O246 O 0.03975 0.09594 0.60678 0.0
O247 O 0.96944 0.11462 0.57334 0.0
O248 O 0.9135 0.10156 0.57233 0.0
C249 C 0.05439 0.07503 0.62458 0.0
O250 O 0.03623 0.06485 0.64959 0.0
O251 O 0.96794 0.06052 0.63443 0.0
C252 C 0.85819 0.20138 0.60794 0.0
O253 O 0.88377 0.21503 0.62407 0.0
O254 O 0.86286 0.17095 0.59422 0.0
O255 O 0.91695 0.14497 0.64399 0.0
O256 O 0.97599 0.14664 0.64354 0.0
O257 O 0.94685 0.18429 0.58468 0.0
C258 C 0.94552 0.09441 0.56361 0.0
C259 C 0.94546 0.15642 0.65543 0.0
Zn260 Zn 0.39187 -0.00103 0.6175 0.0
Zn261 Zn 0.35427 0.92611 0.60191 0.0
C262 C 0.43721 0.9782 0.66021 0.0
O263 O 0.4141 -0.00049 0.67578 0.0
C264 C 0.29182 0.95477 0.5763 0.0
O265 O 0.29486 0.92602 0.55783 0.0
O266 O 0.40407 0.05146 0.62157 0.0
O267 O 0.38382 0.98764 0.57223 0.0
O268 O 0.396 0.93069 0.57227 0.0
C269 C 0.43373 0.05905 0.60778 0.0
O270 O 0.45298 0.03336 0.59363 0.0
O271 O 0.43458 0.97243 0.63125 0.0
C272 C 0.3327 0.8524 0.61085 0.0
O273 O 0.35601 0.8512 0.63223 0.0
O274 O 0.33049 0.87981 0.59505 0.0
O275 O 0.36443 0.9316 0.64641 0.0
O276 O 0.35039 0.98832 0.64705 0.0
O277 O 0.31588 0.96169 0.59505 0.0
C278 C 0.39817 0.95994 0.55894 0.0
C279 C 0.34829 0.95839 0.65956 0.0
Zn280 Zn 0.48875 0.39802 0.63621 0.0
Zn281 Zn 0.56039 0.36527 0.61534 0.0
C282 C 0.53252 0.46568 0.65617 0.0
O283 O 0.53726 0.47919 0.62868 0.0
C284 C 0.53768 0.30183 0.57926 0.0
O285 O 0.56823 0.30452 0.5631 0.0
O286 O 0.43832 0.41703 0.63613 0.0
O287 O 0.49994 0.39056 0.59026 0.0
O288 O 0.5538 0.41043 0.59212 0.0
C289 C 0.43826 0.44562 0.62135 0.0
O290 O 0.46891 0.45932 0.6121 0.0
O291 O 0.51578 0.43655 0.65921 0.0
C292 C 0.61848 0.31882 0.61434 0.0
O293 O 0.5927 0.29948 0.62635 0.0
O294 O 0.61139 0.34981 0.60599 0.0
O295 O 0.55139 0.36345 0.6624 0.0
O296 O 0.49321 0.35509 0.66207 0.0
O297 O 0.52852 0.32574 0.59993 0.0
C298 C 0.52488 0.40905 0.5786 0.0
C299 C 0.52277 0.34997 0.67418 0.0
Zn300 Zn 0.06637 0.51888 0.62561 0.0
Zn301 Zn 0.14106 0.58701 0.5872 0.0
C302 C 0.0242 0.56241 0.67075 0.0
O303 O 0.05607 0.57257 0.67804 0.0
C304 C 0.20609 0.54713 0.56255 0.0
O305 O 0.18985 0.53778 0.53736 0.0
O306 O 0.0577 0.46692 0.61347 0.0
O307 O 0.086 0.54366 0.58944 0.0
O308 O 0.11147 0.56918 0.55072 0.0
C309 C 0.02819 0.45288 0.62211 0.0
O310 O 0.00507 0.47185 0.64001 0.0
O311 O 0.02154 0.54145 0.64705 0.0
C312 C 0.14973 0.66034 0.60778 0.0
O313 O 0.13818 0.64916 0.63498 0.0
O314 O 0.15007 0.639 0.58409 0.0
O315 O 0.11854 0.57641 0.63105 0.0
O316 O 0.10722 0.52581 0.65342 0.0
O317 O 0.18977 0.56575 0.58422 0.0
C318 C 0.08721 0.54864 0.56077 0.0
C319 C 0.12747 0.55272 0.64953 0.0
C320 C 0.74056 0.50467 0.12682 0.0
C321 C 0.73265 0.48039 0.10267 0.0
C322 C 0.77573 0.51248 0.13305 0.0
C323 C 0.80384 0.49578 0.11448 0.0
C324 C 0.79613 0.46944 0.0913 0.0
C325 C 0.76038 0.46195 0.08566 0.0
C326 C 0.78266 0.54013 0.15845 0.0
C327 C 0.82557 0.45022 0.07184 0.0
C328 C 0.88635 0.55316 0.10891 0.0
C329 C 0.90633 0.53963 0.13213 0.0
C330 C 0.85375 0.53779 0.10173 0.0
C331 C 0.84085 0.50823 0.11816 0.0
C332 C 0.86152 0.4937 0.14078 0.0
C333 C 0.89391 0.50964 0.14761 0.0
C334 C 0.83255 0.55383 0.0772 0.0
C335 C 0.84883 0.46223 0.15873 0.0
H336 H 0.71907 0.5184 0.14046 0.0
H337 H 0.75419 0.44302 0.06708 0.0
H338 H 0.80212 0.52996 0.17423 0.0
H339 H 0.79432 0.56418 0.14792 0.0
H340 H 0.75796 0.54811 0.17256 0.0
H341 H 0.81516 0.42965 0.05551 0.0
H342 H 0.84153 0.46954 0.05823 0.0
H343 H 0.84388 0.43724 0.08712 0.0
H344 H 0.89609 0.57588 0.0964 0.0
H345 H 0.90936 0.49868 0.16534 0.0
H346 H 0.80715 0.56496 0.08806 0.0
H347 H 0.82571 0.53299 0.05956 0.0
H348 H 0.84724 0.57537 0.06522 0.0
H349 H 0.82795 0.47115 0.17674 0.0
H350 H 0.87085 0.44973 0.17044 0.0
H351 H 0.83682 0.44184 0.14327 0.0
C352 C -6e-05 0.73266 0.07923 0.0
C353 C 0.03721 0.73284 0.07638 0.0
C354 C 0.98068 0.76413 0.08723 0.0
C355 C -0.00069 0.79603 0.0936 0.0
C356 C 0.03702 0.79627 0.09047 0.0
C357 C 0.0555 0.76473 0.0814 0.0
C358 C 0.94051 0.76317 0.08928 0.0
C359 C 0.05793 0.82941 0.09813 0.0
C360 C 0.95611 0.88705 0.09313 0.0
C361 C 0.94911 0.89492 0.12494 0.0
C362 C 0.97116 0.85429 0.08244 0.0
C363 C 0.97962 0.82909 0.10425 0.0
C364 C 0.97145 0.83661 0.13644 0.0
C365 C 0.9561 0.86958 0.14644 0.0
C366 C 0.97939 0.84732 0.04798 0.0
C367 C 0.98031 0.81046 0.16035 0.0
H368 H 0.98594 0.70783 0.0755 0.0
H369 H 0.08439 0.76462 0.07992 0.0
H370 H 0.9301 0.77092 0.11327 0.0
H371 H 0.92996 0.78274 0.07363 0.0
H372 H 0.9301 0.73641 0.08283 0.0
H373 H 0.08707 0.82545 0.09328 0.0
H374 H 0.04916 0.85183 0.08456 0.0
H375 H 0.05287 0.83731 0.12313 0.0
H376 H 0.95057 0.90692 0.07663 0.0
H377 H 0.95094 0.87613 0.17106 0.0
H378 H 0.96936 0.8208 0.04044 0.0
H379 H 0.00866 0.84716 0.04285 0.0
H380 H 0.96751 0.86785 0.03398 0.0
H381 H 0.9652 0.78551 0.15669 0.0
H382 H 0.97397 0.82113 0.18452 0.0
H383 H 0.00904 0.80346 0.15761 0.0
C384 C 0.61854 0.93963 0.0659 0.0
C385 C 0.60059 0.93188 0.09426 0.0
C386 C 0.65006 0.95943 0.06505 0.0
C387 C 0.66368 0.97231 0.09325 0.0
C388 C 0.64489 0.96573 0.12194 0.0
C389 C 0.61386 0.94508 0.1221 0.0
C390 C 0.66917 0.96586 0.03397 0.0
C391 C 0.65727 0.97974 0.15277 0.0
C392 C 0.76285 0.98919 0.09609 0.0
C393 C 0.76457 0.02601 0.09286 0.0
C394 C 0.73021 0.97133 0.09559 0.0
C395 C 0.6985 0.99095 0.09265 0.0
C396 C 0.70009 0.02824 0.08964 0.0
C397 C 0.73324 0.04527 0.08928 0.0
C398 C 0.72952 0.93156 0.09881 0.0
C399 C 0.66669 0.05027 0.08807 0.0
H400 H 0.60819 0.92978 0.04424 0.0
H401 H 0.59969 0.93984 0.14408 0.0
H402 H 0.67393 0.99471 0.03153 0.0
H403 H 0.69558 0.95245 0.03252 0.0
H404 H 0.65397 0.95577 0.01415 0.0
H405 H 0.66974 0.9576 0.16444 0.0
H406 H 0.67673 0.00168 0.15053 0.0
H407 H 0.63417 0.98947 0.16819 0.0
H408 H 0.78708 0.97436 0.09905 0.0
H409 H 0.73447 0.07391 0.08748 0.0
H410 H 0.71554 0.91854 0.07945 0.0
H411 H 0.7145 0.92536 0.12085 0.0
H412 H 0.75669 0.91992 0.09885 0.0
H413 H 0.65171 0.04095 0.06792 0.0
H414 H 0.67249 0.07905 0.08602 0.0
H415 H 0.64908 0.04692 0.10936 0.0
C416 C 0.50809 0.74919 0.0832 0.0
C417 C 0.47497 0.75147 0.07012 0.0
C418 C 0.52393 0.71609 0.0874 0.0
C419 C 0.50617 0.68448 0.07844 0.0
C420 C 0.47307 0.68663 0.06462 0.0
C421 C 0.45813 0.72013 0.06023 0.0
C422 C 0.55916 0.71495 0.10236 0.0
C423 C 0.45289 0.65382 0.05469 0.0
C424 C 0.56081 0.59916 0.06881 0.0
C425 C 0.5527 0.58365 0.09731 0.0
C426 C 0.54531 0.63167 0.06208 0.0
C427 C 0.52173 0.64931 0.08462 0.0
C428 C 0.51314 0.63348 0.11329 0.0
C429 C 0.52852 0.60065 0.11918 0.0
C430 C 0.55409 0.64714 0.03088 0.0
C431 C 0.48778 0.65127 0.13775 0.0
H432 H 0.52121 0.77332 0.09099 0.0
H433 H 0.43239 0.7216 0.05036 0.0
H434 H 0.55624 0.70024 0.12409 0.0
H435 H 0.57921 0.70045 0.08653 0.0
H436 H 0.56945 0.74196 0.10807 0.0
H437 H 0.46121 0.64637 0.03012 0.0
H438 H 0.45807 0.63079 0.06895 0.0
H439 H 0.42372 0.65899 0.05605 0.0
H440 H 0.57905 0.58569 0.05164 0.0
H441 H 0.52218 0.58865 0.14122 0.0
H442 H 0.56597 0.67392 0.03414 0.0
H443 H 0.52929 0.65042 0.01863 0.0
H444 H 0.57294 0.63009 0.01589 0.0
H445 H 0.49836 0.6776 0.1452 0.0
H446 H 0.48346 0.63508 0.15854 0.0
H447 H 0.46168 0.65595 0.12793 0.0
C448 C 0.91425 0.98395 0.39927 0.0
C449 C 0.91741 0.94703 0.39356 0.0
C450 C 0.88079 0.00064 0.40336 0.0
C451 C 0.84958 0.97997 0.40149 0.0
C452 C 0.8525 0.94269 0.39547 0.0
C453 C 0.88642 0.92662 0.39158 0.0
C454 C 0.87885 0.04053 0.40922 0.0
C455 C 0.81977 0.91989 0.39282 0.0
C456 C 0.76143 0.01878 0.43597 0.0
C457 C 0.74603 0.03057 0.40945 0.0
C458 C 0.79512 0.00228 0.43377 0.0
C459 C 0.81397 -0.0023 0.40439 0.0
C460 C 0.79899 0.01045 0.37769 0.0
C461 C 0.76507 0.02638 0.38046 0.0
C462 C 0.81055 0.98972 0.46288 0.0
C463 C 0.81857 0.00693 0.34606 0.0
H464 H 0.93807 -2e-05 0.40028 0.0
H465 H 0.88865 0.89807 0.38719 0.0
H466 H 0.8642 0.05283 0.39086 0.0
H467 H 0.86389 0.04702 0.43176 0.0
H468 H 0.90564 0.05281 0.40971 0.0
H469 H 0.82647 0.89118 0.38898 0.0
H470 H 0.802 0.92345 0.41427 0.0
H471 H 0.80457 0.92843 0.37318 0.0
H472 H 0.74697 0.02206 0.45846 0.0
H473 H 0.75358 0.03575 0.35986 0.0
H474 H 0.83675 0.00243 0.46601 0.0
H475 H 0.81516 0.96054 0.46066 0.0
H476 H 0.79282 0.99588 0.48403 0.0
H477 H 0.8473 0.01287 0.34735 0.0
H478 H 0.80748 0.0251 0.32955 0.0
H479 H 0.81637 0.97913 0.33665 0.0
C480 C 0.55529 0.87513 0.41017 0.0
C481 C 0.53233 0.89785 0.39596 0.0
C482 C 0.54454 0.84078 0.41777 0.0
C483 C 0.51106 0.82814 0.40894 0.0
C484 C 0.48835 0.85063 0.39346 0.0
C485 C 0.49886 0.88559 0.388 0.0
C486 C 0.56903 0.81829 0.43533 0.0
C487 C 0.45312 0.83778 0.38228 0.0
C488 C 0.49807 0.72898 0.39631 0.0
C489 C 0.47182 0.72209 0.41982 0.0
C490 C 0.51158 0.76327 0.39275 0.0
C491 C 0.50021 0.79094 0.41445 0.0
C492 C 0.4764 0.78344 0.44003 0.0
C493 C 0.46192 0.74918 0.44212 0.0
C494 C 0.53671 0.77006 0.36494 0.0
C495 C 0.46554 0.81186 0.46467 0.0
H496 H 0.58125 0.88462 0.41627 0.0
H497 H 0.48124 0.90307 0.3767 0.0
H498 H 0.55375 0.80306 0.45309 0.0
H499 H 0.58345 0.79892 0.41893 0.0
H500 H 0.58916 0.83475 0.44705 0.0
H501 H 0.44209 0.85608 0.36574 0.0
H502 H 0.45598 0.81089 0.37068 0.0
H503 H 0.43353 0.83592 0.40243 0.0
H504 H 0.50682 0.70793 0.37958 0.0
H505 H 0.44217 0.74392 0.4607 0.0
H506 H 0.56394 0.77457 0.37265 0.0
H507 H 0.52859 0.79425 0.35332 0.0
H508 H 0.53793 0.7473 0.34756 0.0
H509 H 0.48954 0.82523 0.47328 0.0
H510 H 0.44988 0.80088 0.48469 0.0
H511 H 0.4492 0.8325 0.45462 0.0
C512 C 0.59003 0.50926 0.40687 0.0
C513 C 0.5901 0.53556 0.38477 0.0
C514 C 0.62164 0.49263 0.41408 0.0
C515 C 0.65414 0.50228 0.39854 0.0
C516 C 0.65436 0.52849 0.37591 0.0
C517 C 0.62231 0.54516 0.36951 0.0
C518 C 0.62021 0.46514 0.4386 0.0
C519 C 0.68848 0.53859 0.35823 0.0
C520 C 0.74314 0.4863 0.4325 0.0
C521 C 0.75609 0.45685 0.41409 0.0
C522 C 0.70939 0.50074 0.42842 0.0
C523 C 0.68804 0.48499 0.4057 0.0
C524 C 0.70006 0.45385 0.38852 0.0
C525 C 0.73421 0.44046 0.39253 0.0
C526 C 0.69701 0.53343 0.44775 0.0
C527 C 0.67708 0.43512 0.3655 0.0
H528 H 0.56518 0.50191 0.41895 0.0
H529 H 0.62236 0.56522 0.35224 0.0
H530 H 0.63529 0.44082 0.43027 0.0
H531 H 0.63292 0.47602 0.4595 0.0
H532 H 0.59246 0.45746 0.44557 0.0
H533 H 0.68419 0.55938 0.34134 0.0
H534 H 0.70807 0.54855 0.37471 0.0
H535 H 0.7004 0.51475 0.34541 0.0
H536 H 0.75984 0.49879 0.44941 0.0
H537 H 0.74381 0.41715 0.37875 0.0
H538 H 0.67018 0.52898 0.45904 0.0
H539 H 0.69477 0.55619 0.43249 0.0
H540 H 0.71554 0.54082 0.46603 0.0
H541 H 0.65023 0.42998 0.37643 0.0
H542 H 0.68882 0.40929 0.35642 0.0
H543 H 0.67342 0.45247 0.34581 0.0
C544 C 0.00748 0.74623 0.4089 0.0
C545 C 0.04174 0.74959 0.41974 0.0
C546 C 0.99184 0.71267 0.40471 0.0
C547 C 0.01114 0.68181 0.41123 0.0
C548 C 0.0449 0.68524 0.42385 0.0
C549 C 0.05974 0.71915 0.4281 0.0
C550 C 0.95554 0.71015 0.39173 0.0
C551 C 0.06632 0.65296 0.43108 0.0
C552 C 0.96691 0.59117 0.41391 0.0
C553 C 0.98059 0.57508 0.38578 0.0
C554 C 0.97615 0.62621 0.42261 0.0
C555 C -0.00194 0.64589 0.40181 0.0
C556 C 0.00964 0.63028 0.37237 0.0
C557 C 0.00158 0.59468 0.36505 0.0
C558 C 0.96417 0.64128 0.4546 0.0
C559 C 0.0313 0.65087 0.34886 0.0
H560 H 0.99337 0.76979 0.40266 0.0
H561 H 0.08632 0.72155 0.43632 0.0
H562 H 0.95777 0.69616 0.36847 0.0
H563 H 0.93744 0.69432 0.40693 0.0
H564 H 0.94328 0.73674 0.38946 0.0
H565 H 0.09002 0.6602 0.4441 0.0
H566 H 0.04957 0.63443 0.44489 0.0
H567 H 0.07558 0.63845 0.40906 0.0
H568 H 0.95022 0.57579 0.42956 0.0
H569 H 0.01158 0.58214 0.34305 0.0
H570 H 0.95541 0.66938 0.45383 0.0
H571 H 0.98694 0.64075 0.46975 0.0
H572 H 0.9421 0.62563 0.46542 0.0
H573 H 0.0185 0.67704 0.34604 0.0
H574 H 0.03428 0.63642 0.32579 0.0
H575 H 0.0582 0.65587 0.35724 0.0
C576 C 0.11054 0.43457 0.86917 0.0
C577 C 0.07957 0.45354 0.87944 0.0
C578 C 0.14436 0.44979 0.87182 0.0
C579 C 0.14729 0.48469 0.88523 0.0
C580 C 0.1161 0.50451 0.8944 0.0
C581 C 0.08265 0.4887 0.89142 0.0
C582 C 0.17705 0.42827 0.86076 0.0
C583 C 0.11811 0.54223 0.90769 0.0
C584 C 0.23564 0.50085 0.92141 0.0
C585 C 0.25506 0.51735 0.89747 0.0
C586 C 0.1996 0.4922 0.91855 0.0
C587 C 0.18311 0.49961 0.89082 0.0
C588 C 0.20222 0.51829 0.86744 0.0
C589 C 0.23802 0.52676 0.87107 0.0
C590 C 0.17979 0.47316 0.94434 0.0
C591 C 0.18624 0.52696 0.83741 0.0
H592 H 0.10841 0.4076 0.85951 0.0
H593 H 0.05886 0.5039 0.89879 0.0
H594 H 0.19397 0.44351 0.84413 0.0
H595 H 0.19313 0.42306 0.8808 0.0
H596 H 0.17024 0.40238 0.84923 0.0
H597 H 0.09137 0.55475 0.91206 0.0
H598 H 0.13149 0.54249 0.92991 0.0
H599 H 0.13434 0.5587 0.89152 0.0
H600 H 0.24907 0.4932 0.94164 0.0
H601 H 0.25321 0.53896 0.85231 0.0
H602 H 0.17459 0.44531 0.93632 0.0
H603 H 0.1536 0.48614 0.95046 0.0
H604 H 0.19501 0.4727 0.96558 0.0
H605 H 0.19069 0.50409 0.82042 0.0
H606 H 0.19917 0.55062 0.82714 0.0
H607 H 0.15715 0.53199 0.84064 0.0
C608 C 0.98656 0.25892 0.91967 0.0
C609 C 0.95328 0.26252 0.90743 0.0
C610 C 0.00525 0.22648 0.91591 0.0
C611 C 0.99079 0.1978 0.89841 0.0
C612 C 0.95711 0.20163 0.88595 0.0
C613 C 0.93858 0.23394 0.8909 0.0
C614 C 0.03998 0.22256 0.93116 0.0
C615 C 0.94046 0.17149 0.86775 0.0
C616 C 0.05269 0.12379 0.86469 0.0
C617 C 0.04424 0.09635 0.88471 0.0
C618 C 0.03557 0.15708 0.869 0.0
C619 C 0.01004 0.1632 0.89429 0.0
C620 C 0.00206 0.13577 0.91498 0.0
C621 C 0.0191 0.10269 0.9098 0.0
C622 C 0.0439 0.18533 0.84591 0.0
C623 C 0.9751 0.14029 0.94237 0.0
H624 H -0.00231 0.28132 0.93243 0.0
H625 H 0.91287 0.23719 0.88125 0.0
H626 H 0.03815 0.20006 0.94697 0.0
H627 H 0.06181 0.21622 0.91326 0.0
H628 H 0.04705 0.24705 0.94475 0.0
H629 H 0.91613 0.18007 0.85671 0.0
H630 H 0.95978 0.16027 0.84934 0.0
H631 H 0.93314 0.14987 0.88357 0.0
H632 H 0.07182 0.11889 0.84511 0.0
H633 H 0.01246 0.08163 0.92546 0.0
H634 H 0.05425 0.20945 0.85797 0.0
H635 H 0.01917 0.1932 0.83518 0.0
H636 H 0.06382 0.17614 0.82713 0.0
H637 H 0.98767 0.13332 0.96392 0.0
H638 H 0.95285 0.12144 0.93908 0.0
H639 H 0.96385 0.16753 0.94601 0.0
C640 C 0.22559 0.00819 0.90924 0.0
C641 C 0.22587 0.97123 0.90389 0.0
C642 C 0.2576 0.0274 0.90855 0.0
C643 C 0.29028 0.00933 0.90081 0.0
C644 C 0.29058 0.97182 0.89592 0.0
C645 C 0.25834 0.95315 0.89804 0.0
C646 C 0.2565 0.06702 0.91579 0.0
C647 C 0.32478 0.95153 0.88755 0.0
C648 C 0.36732 0.05947 0.86203 0.0
C649 C 0.39026 0.06335 0.8862 0.0
C650 C 0.33424 0.04261 0.86673 0.0
C651 C 0.32397 0.02972 0.89637 0.0
C652 C 0.3467 0.03495 0.92115 0.0
C653 C 0.37966 0.05158 0.91564 0.0
C654 C 0.31104 0.03701 0.83961 0.0
C655 C 0.33741 0.02154 0.95309 0.0
H656 H 0.20035 0.02199 0.91403 0.0
H657 H 0.25836 0.92451 0.89372 0.0
H658 H 0.27529 0.07413 0.93392 0.0
H659 H 0.26518 0.08126 0.89469 0.0
H660 H 0.22942 0.07655 0.92406 0.0
H661 H 0.3203 0.92251 0.88378 0.0
H662 H 0.33801 0.96175 0.86604 0.0
H663 H 0.34336 0.95559 0.90636 0.0
H664 H 0.37596 0.06815 0.83915 0.0
H665 H 0.39757 0.05476 0.93427 0.0
H666 H 0.28411 0.04839 0.8456 0.0
H667 H 0.30776 0.00807 0.83439 0.0
H668 H 0.3224 0.04936 0.8183 0.0
H669 H 0.3509 0.03738 0.97126 0.0
H670 H 0.34668 0.99357 0.95377 0.0
H671 H 0.30828 0.02225 0.959 0.0
C672 C 0.50504 0.25144 0.8963 0.0
C673 C 0.50627 0.24229 0.92735 0.0
C674 C 0.48942 0.28321 0.88847 0.0
C675 C 0.47431 0.30658 0.9123 0.0
C676 C 0.47501 0.29744 0.94383 0.0
C677 C 0.4915 0.26543 0.95107 0.0
C678 C 0.49052 0.29201 0.85463 0.0
C679 C 0.45834 0.32147 0.96974 0.0
C680 C 0.46606 0.40279 0.89098 0.0
C681 C 0.4299 0.40517 0.88512 0.0
C682 C 0.48061 0.37112 0.90074 0.0
C683 C 0.45865 0.34088 0.90397 0.0
C684 C 0.42244 0.34272 0.89697 0.0
C685 C 0.40838 0.37498 0.88794 0.0
C686 C 0.51936 0.37014 0.90797 0.0
C687 C 0.39886 0.31035 0.89825 0.0
H688 H 0.51739 0.23417 0.87792 0.0
H689 H 0.49262 0.25839 0.97509 0.0
H690 H 0.46628 0.30655 0.84892 0.0
H691 H 0.51389 0.30915 0.84938 0.0
H692 H 0.49323 0.26761 0.83916 0.0
H693 H 0.46205 0.31113 0.99305 0.0
H694 H 0.47001 0.34848 0.96873 0.0
H695 H 0.42938 0.32422 0.96681 0.0
H696 H 0.48285 0.42603 0.88889 0.0
H697 H 0.38053 0.37652 0.88298 0.0
H698 H 0.53368 0.34912 0.89318 0.0
H699 H 0.52159 0.36339 0.93256 0.0
H700 H 0.53284 0.39596 0.9042 0.0
H701 H 0.40921 0.28977 0.88068 0.0
H702 H 0.37085 0.31659 0.89361 0.0
H703 H 0.39928 0.29867 0.92138 0.0
C704 C 0.11223 0.073 0.59228 0.0
C705 C 0.08942 0.05856 0.61533 0.0
C706 C 0.14529 0.05693 0.58327 0.0
C707 C 0.15531 0.02536 0.59724 0.0
C708 C 0.13186 0.01011 0.61981 0.0
C709 C 0.0994 0.02708 0.6288 0.0
C710 C 0.16966 0.07392 0.55913 0.0
C711 C 0.14135 0.97627 0.63506 0.0
C712 C 0.23003 0.9662 0.56051 0.0
C713 C 0.25812 0.97539 0.5792 0.0
C714 C 0.19657 0.98285 0.56552 0.0
C715 C 0.19118 0.00933 0.58978 0.0
C716 C 0.21969 0.01933 0.60819 0.0
C717 C 0.25281 0.00233 0.60263 0.0
C718 C 0.16667 0.97115 0.54568 0.0
C719 C 0.21498 0.04752 0.63423 0.0
H720 H 0.10447 0.09712 0.58157 0.0
H721 H 0.08163 0.0154 0.64624 0.0
H722 H 0.19583 0.07977 0.56872 0.0
H723 H 0.17464 0.0552 0.53869 0.0
H724 H 0.1584 0.09902 0.55118 0.0
H725 H 0.11854 0.9657 0.64939 0.0
H726 H 0.15051 0.95545 0.61728 0.0
H727 H 0.1636 0.98157 0.65031 0.0
H728 H 0.23387 0.94529 0.54245 0.0
H729 H 0.27429 0.0095 0.6173 0.0
H730 H 0.155 0.99442 0.53503 0.0
H731 H 0.14512 0.95908 0.56042 0.0
H732 H 0.17567 0.95139 0.52686 0.0
H733 H 0.2074 0.07317 0.62469 0.0
H734 H 0.23956 0.05154 0.64694 0.0
H735 H 0.19308 0.0401 0.65109 0.0
C736 C 0.54149 0.23799 0.58982 0.0
C737 C 0.52087 0.26684 0.58189 0.0
C738 C 0.52567 0.20538 0.59672 0.0
C739 C 0.48856 0.2011 0.59425 0.0
C740 C 0.46772 0.23006 0.58553 0.0
C741 C 0.48404 0.26301 0.58032 0.0
C742 C 0.54876 0.17543 0.60638 0.0
C743 C 0.42844 0.22601 0.58107 0.0
C744 C 0.46212 0.10566 0.57645 0.0
C745 C 0.44544 0.09611 0.6047 0.0
C746 C 0.47508 0.14002 0.57242 0.0
C747 C 0.47244 0.16535 0.59779 0.0
C748 C 0.45585 0.15579 0.62668 0.0
C749 C 0.44181 0.12134 0.62961 0.0
C750 C 0.49211 0.14807 0.54088 0.0
C751 C 0.45428 0.1814 0.65474 0.0
H752 H 0.56992 0.24129 0.59165 0.0
H753 H 0.46817 0.28563 0.57459 0.0
H754 H 0.53657 0.16351 0.62757 0.0
H755 H 0.55082 0.15422 0.5876 0.0
H756 H 0.57607 0.18447 0.61113 0.0
H757 H 0.4168 0.25005 0.57151 0.0
H758 H 0.42393 0.20275 0.56504 0.0
H759 H 0.414 0.22102 0.60364 0.0
H760 H 0.46486 0.08613 0.55722 0.0
H761 H 0.42933 0.11369 0.65163 0.0
H762 H 0.51708 0.13229 0.53665 0.0
H763 H 0.49838 0.17655 0.5381 0.0
H764 H 0.47411 0.13948 0.52254 0.0
H765 H 0.4816 0.19008 0.65976 0.0
H766 H 0.44173 0.16942 0.67578 0.0
H767 H 0.43898 0.20557 0.64997 0.0
C768 C 0.25778 0.50574 0.54985 0.0
C769 C 0.24283 0.53529 0.5669 0.0
C770 C 0.29117 0.49227 0.55658 0.0
C771 C 0.30977 0.5088 0.58083 0.0
C772 C 0.29599 0.54019 0.59644 0.0
C773 C 0.26252 0.55288 0.58949 0.0
C774 C 0.30612 0.45982 0.53838 0.0
C775 C 0.3162 0.55984 0.62103 0.0
C776 C 0.37164 0.45147 0.62406 0.0
C777 C 0.4051 0.46188 0.61174 0.0
C778 C 0.34037 0.46673 0.6142 0.0
C779 C 0.34273 0.49241 0.59109 0.0
C780 C 0.37647 0.50308 0.57867 0.0
C781 C 0.40718 0.48774 0.58921 0.0
C782 C 0.30477 0.45572 0.62873 0.0
C783 C 0.3805 0.53009 0.55381 0.0
H784 H 0.24289 0.49241 0.53205 0.0
H785 H 0.25156 0.5764 0.6021 0.0
H786 H 0.33403 0.46467 0.52976 0.0
H787 H 0.30649 0.43702 0.5538 0.0
H788 H 0.29024 0.45232 0.51824 0.0
H789 H 0.3046 0.58654 0.62743 0.0
H790 H 0.31592 0.544 0.64212 0.0
H791 H 0.34444 0.5634 0.61285 0.0
H792 H 0.36989 0.43164 0.64154 0.0
H793 H 0.43293 0.49573 0.57926 0.0
H794 H 0.28786 0.44466 0.61048 0.0
H795 H 0.29068 0.47935 0.63999 0.0
H796 H 0.30746 0.43548 0.64642 0.0
H797 H 0.37872 0.51625 0.53071 0.0
H798 H 0.40673 0.54352 0.55409 0.0
H799 H 0.35931 0.55075 0.55636 0.0
C800 C 0.04182 0.39644 0.59003 0.0
C801 C 0.01905 0.41624 0.61136 0.0
C802 C 0.03283 0.36181 0.57968 0.0
C803 C 0.00026 0.3468 0.5908 0.0
C804 C 0.97715 0.36676 0.61221 0.0
C805 C 0.9868 0.40118 0.62217 0.0
C806 C 0.05807 0.34134 0.55678 0.0
C807 C 0.94223 0.35169 0.62479 0.0
C808 C 0.95503 0.27002 0.54902 0.0
C809 C 0.96218 0.24173 0.56784 0.0
C810 C 0.96895 0.30409 0.55514 0.0
C811 C 0.9903 0.30996 0.58078 0.0
C812 C -0.0008 0.28106 0.59878 0.0
C813 C 0.98528 0.24727 0.59194 0.0
C814 C 0.95909 0.33422 0.53528 0.0
C815 C 0.02179 0.2862 0.62637 0.0
H816 H 0.06664 0.40799 0.58136 0.0
H817 H 0.96897 0.41627 0.63857 0.0
H818 H 0.06403 0.31482 0.56553 0.0
H819 H 0.04537 0.33682 0.53442 0.0
H820 H 0.08354 0.35563 0.55227 0.0
H821 H 0.92728 0.3707 0.64127 0.0
H822 H 0.92523 0.34454 0.60535 0.0
H823 H 0.94713 0.32696 0.63698 0.0
H824 H 0.93734 0.26596 0.5303 0.0
H825 H 0.99107 0.22561 0.60663 0.0
H826 H 0.98329 0.34872 0.52713 0.0
H827 H 0.94172 0.35356 0.54935 0.0
H828 H 0.9448 0.32475 0.51472 0.0
H829 H 0.04749 0.29868 0.61913 0.0
H830 H 0.02735 0.26073 0.63727 0.0
H831 H 0.00803 0.30446 0.64422 0.0
C832 C 0.01897 0.68195 0.20672 0.0
C833 C 0.04937 0.67047 0.18854 0.0
C834 C 0.02132 0.70803 0.23067 0.0
C835 C 0.05467 0.72379 0.23587 0.0
C836 C 0.08568 0.71147 0.21837 0.0
C837 C 0.08276 0.68408 0.19554 0.0
C838 C 0.98791 0.71936 0.2499 0.0
C839 C 0.12189 0.72722 0.22333 0.0
C840 C 0.0472 0.81607 0.27474 0.0
C841 C 0.04943 0.80807 0.30585 0.0
C842 C 0.05008 0.78884 0.25136 0.0
C843 C 0.05643 0.75341 0.25951 0.0
C844 C 0.0607 0.74587 0.29081 0.0
C845 C 0.05562 0.7731 0.31381 0.0
C846 C 0.04553 0.79765 0.21809 0.0
C847 C 0.07006 0.70899 0.29999 0.0
H848 H 0.99318 0.67088 0.20201 0.0
H849 H 0.10659 0.67422 0.18254 0.0
H850 H 0.99187 0.71673 0.27499 0.0
H851 H 0.98206 0.7478 0.24644 0.0
H852 H 0.9644 0.70332 0.24378 0.0
H853 H 0.14074 0.7219 0.20276 0.0
H854 H 0.1202 0.75641 0.22826 0.0
H855 H 0.13315 0.7151 0.24355 0.0
H856 H 0.04232 0.84331 0.26887 0.0
H857 H 0.05638 0.76704 0.33809 0.0
H858 H 0.02247 0.7828 0.20937 0.0
H859 H 0.06944 0.78892 0.20328 0.0
H860 H 0.04111 0.82655 0.21547 0.0
H861 H 0.04866 0.69024 0.29379 0.0
H862 H 0.07416 0.70814 0.32522 0.0
H863 H 0.09488 0.69963 0.2869 0.0
C864 C 0.69436 0.00975 0.31313 0.0
C865 C 0.6651 0.03276 0.31378 0.0
C866 C 0.72391 0.01445 0.29248 0.0
C867 C 0.7239 0.04267 0.2718 0.0
C868 C 0.69456 0.06646 0.27282 0.0
C869 C 0.66533 0.06114 0.2939 0.0
C870 C 0.75383 0.98746 0.29144 0.0
C871 C 0.69294 0.09613 0.25053 0.0
C872 C 0.81367 0.06127 0.23108 0.0
C873 C 0.81291 0.03765 0.20507 0.0
C874 C 0.7841 0.06459 0.25261 0.0
C875 C 0.75307 0.04454 0.24725 0.0
C876 C 0.75158 0.0225 0.21991 0.0
C877 C 0.7817 0.01901 0.19934 0.0
C878 C 0.78644 0.08838 0.28157 0.0
C879 C 0.71842 0.00201 0.21265 0.0
H880 H 0.6939 0.9877 0.3285 0.0
H881 H 0.64225 0.07855 0.29428 0.0
H882 H 0.74925 0.96654 0.27317 0.0
H883 H 0.78004 -0.00035 0.28558 0.0
H884 H 0.75488 0.97431 0.31391 0.0
H885 H 0.67219 0.11621 0.25839 0.0
H886 H 0.71897 0.10972 0.24758 0.0
H887 H 0.68648 0.08478 0.22737 0.0
H888 H 0.83776 0.07608 0.23513 0.0
H889 H 0.7808 0.00171 0.17858 0.0
H890 H 0.78172 0.07263 0.30254 0.0
H891 H 0.76537 0.10916 0.28255 0.0
H892 H 0.81273 0.10162 0.28258 0.0
H893 H 0.7108 0.98409 0.23163 0.0
H894 H 0.72209 0.98569 0.19056 0.0
H895 H 0.69594 0.02083 0.21085 0.0
C896 C 0.49869 0.78055 0.19058 0.0
C897 C 0.46868 0.80134 0.18573 0.0
C898 C 0.4972 0.75401 0.21255 0.0
C899 C 0.46492 0.74794 0.23021 0.0
C900 C 0.43433 0.76838 0.22507 0.0
C901 C 0.43661 0.79489 0.20304 0.0
C902 C 0.53018 0.73227 0.21682 0.0
C903 C 0.39938 0.76284 0.24334 0.0
C904 C 0.45641 0.66034 0.27156 0.0
C905 C 0.46764 0.67044 0.30102 0.0
C906 C 0.45509 0.68525 0.24822 0.0
C907 C 0.46392 0.72134 0.25498 0.0
C908 C 0.47341 0.73182 0.28532 0.0
C909 C 0.4759 0.7061 0.30768 0.0
C910 C 0.44382 0.67292 0.21656 0.0
C911 C 0.48146 0.77009 0.29425 0.0
H912 H 0.52346 0.7849 0.17711 0.0
H913 H 0.41311 0.8105 0.19934 0.0
H914 H 0.53801 0.73595 0.24114 0.0
H915 H 0.52451 0.70357 0.21257 0.0
H916 H 0.55302 0.73971 0.20088 0.0
H917 H 0.37703 0.77722 0.23367 0.0
H918 H 0.3928 0.73413 0.24365 0.0
H919 H 0.40167 0.77258 0.26781 0.0
H920 H 0.44938 0.63281 0.26659 0.0
H921 H 0.48347 0.71412 0.33073 0.0
H922 H 0.46001 0.68567 0.19783 0.0
H923 H 0.41561 0.68064 0.21445 0.0
H924 H 0.44606 0.64355 0.21283 0.0
H925 H 0.509 0.77635 0.28551 0.0
H926 H 0.47932 0.77514 0.31986 0.0
H927 H 0.46306 0.78862 0.28384 0.0
C928 C 0.71081 0.41475 0.23837 0.0
C929 C 0.72127 0.41176 0.2066 0.0
C930 C 0.73618 0.41511 0.26093 0.0
C931 C 0.7728 0.41209 0.2515 0.0
C932 C 0.78326 0.40673 0.21952 0.0
C933 C 0.75747 0.40739 0.19736 0.0
C934 C 0.72378 0.41921 0.29479 0.0
C935 C 0.82173 0.39996 0.20886 0.0
C936 C 0.84008 0.45764 0.30181 0.0
C937 C 0.85579 0.42882 0.31535 0.0
C938 C 0.81265 0.45245 0.28147 0.0
C939 C 0.80043 0.41755 0.27458 0.0
C940 C 0.81603 0.3883 0.2884 0.0
C941 C 0.84389 0.39432 0.30829 0.0
C942 C 0.7973 0.4843 0.26677 0.0
C943 C 0.80319 0.35069 0.28275 0.0
H944 H 0.68278 0.41759 0.24559 0.0
H945 H 0.76557 0.40393 0.17283 0.0
H946 H 0.73782 0.40001 0.30861 0.0
H947 H 0.73004 0.4464 0.30388 0.0
H948 H 0.69463 0.415 0.29832 0.0
H949 H 0.82546 0.39528 0.18326 0.0
H950 H 0.83821 0.42285 0.2163 0.0
H951 H 0.83175 0.37621 0.21999 0.0
H952 H 0.84945 0.48437 0.30696 0.0
H953 H 0.85697 0.37193 0.31781 0.0
H954 H 0.76817 0.48605 0.2725 0.0
H955 H 0.80144 0.48123 0.24107 0.0
H956 H 0.80962 0.50968 0.27466 0.0
H957 H 0.78022 0.34584 0.29942 0.0
H958 H 0.82432 0.33093 0.28651 0.0
H959 H 0.79413 0.34597 0.25895 0.0
C960 C 0.97354 0.20493 0.68624 0.0
C961 C 0.94337 0.18439 0.68062 0.0
C962 C 0.97217 0.23265 0.70899 0.0
C963 C 0.93996 0.23978 0.7269 0.0
C964 C 0.90925 0.21939 0.72128 0.0
C965 C 0.91125 0.192 0.69797 0.0
C966 C 0.00533 0.25423 0.71395 0.0
C967 C 0.87445 0.22639 0.73996 0.0
C968 C 0.95477 0.28504 0.80493 0.0
C969 C 0.9474 0.32057 0.7994 0.0
C970 C 0.95033 0.25818 0.78202 0.0
C971 C 0.93939 0.26736 0.75259 0.0
C972 C 0.93122 0.30326 0.74711 0.0
C973 C 0.93482 0.32952 0.77091 0.0
C974 C 0.95826 0.2201 0.78907 0.0
C975 C 0.9203 0.31417 0.71579 0.0
H976 H -0.00172 0.19969 0.67251 0.0
H977 H 0.88776 0.17643 0.69349 0.0
H978 H -0.00018 0.28281 0.71091 0.0
H979 H 0.01341 0.25168 0.73806 0.0
H980 H 0.02803 0.24568 0.69758 0.0
H981 H 0.85336 0.20737 0.73338 0.0
H982 H 0.87831 0.22455 0.76514 0.0
H983 H 0.86503 0.25381 0.73643 0.0
H984 H 0.96371 0.27825 0.82737 0.0
H985 H 0.92896 0.35713 0.76694 0.0
H986 H 0.98221 0.21049 0.77477 0.0
H987 H 0.93575 0.20266 0.783 0.0
H988 H 0.96311 0.21723 0.81395 0.0
H989 H 0.9438 0.31261 0.69888 0.0
H990 H 0.90964 0.34181 0.71675 0.0
H991 H 0.89989 0.29588 0.70677 0.0
C992 C 0.31615 0.96681 0.71105 0.0
C993 C 0.31757 0.95219 0.68071 0.0
C994 C 0.28504 0.96417 0.73033 0.0
C995 C 0.2546 0.94774 0.71826 0.0
C996 C 0.25626 0.93261 0.68757 0.0
C997 C 0.28812 0.93455 0.66926 0.0
C998 C 0.28453 0.97949 0.76337 0.0
C999 C 0.22405 0.91611 0.67353 0.0
C1000 C 0.18328 0.92157 0.77803 0.0
C1001 C 0.16436 0.95367 0.78308 0.0
C1002 C 0.21243 0.91873 0.75631 0.0
C1003 C 0.22083 0.94779 0.7376 0.0
C1004 C 0.19886 0.97855 0.73984 0.0
C1005 C 0.17143 0.9816 0.7633 0.0
C1006 C 0.2359 0.88596 0.75534 0.0
C1007 C 0.2057 0.00913 0.7188 0.0
H1008 H 0.33922 0.9805 0.71951 0.0
H1009 H 0.28955 0.92369 0.64548 0.0
H1010 H 0.26503 0.00173 0.76665 0.0
H1011 H 0.27594 0.95888 0.77983 0.0
H1012 H 0.31102 0.98961 0.76953 0.0
H1013 H 0.23036 0.90438 0.64969 0.0
H1014 H 0.21276 0.89505 0.6883 0.0
H1015 H 0.20307 0.9367 0.67242 0.0
H1016 H 0.17697 0.89948 0.79256 0.0
H1017 H 0.15615 0.00611 0.7667 0.0
H1018 H 0.26245 0.8934 0.76339 0.0
H1019 H 0.24013 0.8746 0.73122 0.0
H1020 H 0.22455 0.86503 0.77033 0.0
H1021 H 0.2286 0.02485 0.72675 0.0
H1022 H 0.18222 0.02714 0.71894 0.0
H1023 H 0.21259 -0.00082 0.69455 0.0
C1024 C 0.5548 0.222 0.81435 0.0
C1025 C 0.53051 0.19382 0.81467 0.0
C1026 C 0.55308 0.24875 0.79268 0.0
C1027 C 0.5278 0.24615 0.76963 0.0
C1028 C 0.50442 0.21666 0.76895 0.0
C1029 C 0.50539 0.19145 0.792 0.0
C1030 C 0.57726 0.28054 0.79531 0.0
C1031 C 0.47839 0.21176 0.74385 0.0
C1032 C 0.49959 0.32621 0.72497 0.0
C1033 C 0.52469 0.32491 0.69959 0.0
C1034 C 0.50074 0.30143 0.74844 0.0
C1035 C 0.52654 0.27355 0.7456 0.0
C1036 C 0.55121 0.27172 0.7194 0.0
C1037 C 0.55088 0.29827 0.69763 0.0
C1038 C 0.47509 0.30635 0.77661 0.0
C1039 C 0.57781 0.24155 0.71379 0.0
H1040 H 0.57397 0.22412 0.83202 0.0
H1041 H 0.48665 0.1696 0.79216 0.0
H1042 H 0.59538 0.28176 0.77412 0.0
H1043 H 0.56109 0.30539 0.79717 0.0
H1044 H 0.59366 0.27979 0.81582 0.0
H1045 H 0.46347 0.1864 0.74554 0.0
H1046 H 0.45897 0.23412 0.74546 0.0
H1047 H 0.49281 0.21205 0.7206 0.0
H1048 H 0.47956 0.34712 0.72683 0.0
H1049 H 0.57059 0.29734 0.67849 0.0
H1050 H 0.48811 0.32311 0.7944 0.0
H1051 H 0.46755 0.28079 0.78691 0.0
H1052 H 0.45044 0.32037 0.77094 0.0
H1053 H 0.60132 0.24705 0.72749 0.0
H1054 H 0.58732 0.2385 0.68888 0.0
H1055 H 0.56618 0.21589 0.72097 0.0
C1056 C 0.18605 0.57619 0.66573 0.0
C1057 C 0.15253 0.56202 0.67365 0.0
C1058 C 0.21072 0.58279 0.68846 0.0
C1059 C 0.20108 0.57623 0.71997 0.0
C1060 C 0.16624 0.56443 0.72832 0.0
C1061 C 0.14271 0.55663 0.70498 0.0
C1062 C 0.24768 0.59478 0.67833 0.0
C1063 C 0.15391 0.55954 0.76184 0.0
C1064 C 0.27257 0.55294 0.77441 0.0
C1065 C 0.27969 0.58623 0.78846 0.0
C1066 C 0.24737 0.54945 0.75177 0.0
C1067 C 0.22794 0.57976 0.74389 0.0
C1068 C 0.23438 0.61328 0.75874 0.0
C1069 C 0.26066 0.6162 0.7804 0.0
C1070 C 0.24187 0.51341 0.73597 0.0
C1071 C 0.2135 0.64605 0.75184 0.0
H1072 H 0.1935 0.58091 0.64166 0.0
H1073 H 0.11638 0.54658 0.7113 0.0
H1074 H 0.25819 0.61458 0.69519 0.0
H1075 H 0.26579 0.57136 0.67699 0.0
H1076 H 0.24836 0.60659 0.65518 0.0
H1077 H 0.12455 0.55637 0.76486 0.0
H1078 H 0.16668 0.53547 0.77018 0.0
H1079 H 0.16183 0.58261 0.7768 0.0
H1080 H 0.28718 0.52973 0.78073 0.0
H1081 H 0.2657 0.64192 0.79164 0.0
H1082 H 0.24594 0.51522 0.71037 0.0
H1083 H 0.21414 0.50448 0.74104 0.0
H1084 H 0.26031 0.4929 0.74364 0.0
H1085 H 0.22059 0.65376 0.72773 0.0
H1086 H 0.21885 0.66903 0.76798 0.0
H1087 H 0.18451 0.64045 0.75354 0.0
C1088 C 0.18795 0.70976 0.07801 0.0
C1089 C 0.17322 0.69886 0.10658 0.0
C1090 C 0.22056 0.72787 0.07626 0.0
C1091 C 0.23913 0.73386 0.1036 0.0
C1092 C 0.22443 0.72214 0.13239 0.0
C1093 C 0.19126 0.70535 0.13359 0.0
C1094 C 0.23496 0.74073 0.04532 0.0
C1095 C 0.24372 0.72738 0.16194 0.0
C1096 C 0.3387 0.74802 0.10192 0.0
C1097 C 0.34058 0.78457 0.10938 0.0
C1098 C 0.30584 0.73151 0.09801 0.0
C1099 C 0.27415 0.75197 0.10247 0.0
C1100 C 0.27602 0.78916 0.10896 0.0
C1101 C 0.30937 0.80514 0.112 0.0
C1102 C 0.305 0.69194 0.09042 0.0
C1103 C 0.24274 0.81179 0.11384 0.0
H1104 H 0.17345 0.70503 0.05727 0.0
H1105 H 0.17956 0.69678 0.15561 0.0
H1106 H 0.24167 0.7694 0.04751 0.0
H1107 H 0.25988 0.72612 0.03772 0.0
H1108 H 0.2157 0.73684 0.02696 0.0
H1109 H 0.22934 0.71523 0.18207 0.0
H1110 H 0.27079 0.71546 0.15872 0.0
H1111 H 0.24694 0.75623 0.16755 0.0
H1112 H 0.36298 0.73225 0.09926 0.0
H1113 H 0.31094 0.83346 0.11761 0.0
H1114 H 0.28819 0.68606 0.07061 0.0
H1115 H 0.29297 0.67819 0.11071 0.0
H1116 H 0.33204 0.68067 0.08448 0.0
H1117 H 0.22585 0.80777 0.0938 0.0
H1118 H 0.24885 0.84058 0.11683 0.0
H1119 H 0.22687 0.8036 0.13484 0.0
C1120 C 0.8114 0.17973 0.11333 0.0
C1121 C 0.79599 0.15621 0.13448 0.0
C1122 C 0.79383 0.21105 0.10684 0.0
C1123 C 0.76023 0.21913 0.12211 0.0
C1124 C 0.74423 0.19531 0.14317 0.0
C1125 C 0.76235 0.164 0.14911 0.0
C1126 C 0.8115 0.23582 0.08404 0.0
C1127 C 0.70825 0.20311 0.15963 0.0
C1128 C 0.74142 0.31748 0.1304 0.0
C1129 C 0.71867 0.32208 0.10647 0.0
C1130 C 0.75361 0.28369 0.13673 0.0
C1131 C 0.74358 0.25404 0.11796 0.0
C1132 C 0.71994 0.25845 0.09406 0.0
C1133 C 0.70731 0.29268 0.08882 0.0
C1134 C 0.77777 0.27988 0.16311 0.0
C1135 C 0.7092 0.22749 0.07322 0.0
H1136 H 0.83726 0.17368 0.10175 0.0
H1137 H 0.75015 0.14568 0.16525 0.0
H1138 H 0.79311 0.24183 0.06581 0.0
H1139 H 0.81779 0.26141 0.09628 0.0
H1140 H 0.83655 0.22445 0.07261 0.0
H1141 H 0.69957 0.1818 0.17539 0.0
H1142 H 0.70906 0.22867 0.17346 0.0
H1143 H 0.68798 0.20604 0.14229 0.0
H1144 H 0.74934 0.34042 0.14446 0.0
H1145 H 0.68939 0.29659 0.0705 0.0
H1146 H 0.80473 0.27142 0.15365 0.0
H1147 H 0.76755 0.25904 0.17868 0.0
H1148 H 0.78024 0.30515 0.17718 0.0
H1149 H 0.73126 0.22119 0.05552 0.0
H1150 H 0.68501 0.2337 0.06091 0.0
H1151 H 0.70414 0.20332 0.08658 0.0
C1152 C 0.33207 0.7161 0.35399 0.0
C1153 C 0.33921 0.68957 0.37454 0.0
C1154 C 0.29903 0.73345 0.35562 0.0
C1155 C 0.27261 0.72442 0.37868 0.0
C1156 C 0.27966 0.69776 0.39967 0.0
C1157 C 0.3129 0.6804 0.39719 0.0
C1158 C 0.29238 0.76139 0.33254 0.0
C1159 C 0.2521 0.68755 0.42459 0.0
C1160 C 0.19984 0.7941 0.39477 0.0
C1161 C 0.17343 0.78077 0.37593 0.0
C1162 C 0.23179 0.77522 0.397 0.0
C1163 C 0.23735 0.74239 0.37993 0.0
C1164 C 0.21031 0.72829 0.36171 0.0
C1165 C 0.17874 0.74767 0.35988 0.0
C1166 C 0.25994 0.79075 0.41702 0.0
C1167 C 0.2152 0.69337 0.34314 0.0
H1168 H 0.35227 0.72316 0.33633 0.0
H1169 H 0.31842 0.65998 0.41321 0.0
H1170 H 0.26838 0.75456 0.31985 0.0
H1171 H 0.28723 0.78752 0.34502 0.0
H1172 H 0.31526 0.76422 0.31527 0.0
H1173 H 0.26225 0.66722 0.43978 0.0
H1174 H 0.2435 0.71139 0.43929 0.0
H1175 H 0.22815 0.67684 0.41374 0.0
H1176 H 0.19572 0.81943 0.40752 0.0
H1177 H 0.15833 0.73693 0.3455 0.0
H1178 H 0.28396 0.79731 0.40219 0.0
H1179 H 0.26811 0.77093 0.43352 0.0
H1180 H 0.25055 0.81525 0.43047 0.0
H1181 H 0.23557 0.69655 0.32374 0.0
H1182 H 0.19011 0.68409 0.33322 0.0
H1183 H 0.22497 0.67243 0.35783 0.0
C1184 C 0.80845 0.28329 0.35587 0.0
C1185 C 0.81821 0.3018 0.38273 0.0
C1186 C 0.7895 0.25166 0.35787 0.0
C1187 C 0.7796 0.23902 0.38757 0.0
C1188 C 0.79203 0.25603 0.4147 0.0
C1189 C 0.81169 0.2874 0.4119 0.0
C1190 C 0.77754 0.23352 0.32831 0.0
C1191 C 0.7824 0.24271 0.44662 0.0
C1192 C 0.69181 0.19381 0.3811 0.0
C1193 C 0.70351 0.15913 0.37319 0.0
C1194 C 0.71632 0.22005 0.3891 0.0
C1195 C 0.75284 0.21072 0.38961 0.0
C1196 C 0.76386 0.1749 0.38491 0.0
C1197 C 0.73905 0.14953 0.37621 0.0
C1198 C 0.70367 0.25811 0.39453 0.0
C1199 C 0.8022 0.16356 0.38644 0.0
H1200 H 0.81413 0.2945 0.3334 0.0
H1201 H 0.81946 0.30204 0.43262 0.0
H1202 H 0.78369 0.20463 0.32775 0.0
H1203 H 0.74825 0.23652 0.32747 0.0
H1204 H 0.79046 0.24489 0.30715 0.0
H1205 H 0.7979 0.25624 0.46478 0.0
H1206 H 0.75366 0.24756 0.45272 0.0
H1207 H 0.78703 0.21359 0.44692 0.0
H1208 H 0.66394 0.20064 0.37972 0.0
H1209 H 0.7476 0.12213 0.37153 0.0
H1210 H 0.71265 0.27369 0.37426 0.0
H1211 H 0.71533 0.2706 0.41533 0.0
H1212 H 0.67417 0.26008 0.39767 0.0
H1213 H 0.81616 0.16584 0.36319 0.0
H1214 H 0.80411 0.13536 0.39287 0.0
H1215 H 0.81626 0.18052 0.4034 0.0
C1216 C 0.65499 0.25473 0.90011 0.0
C1217 C 0.65128 0.2179 0.90288 0.0
C1218 C 0.68861 0.27071 0.89903 0.0
C1219 C 0.71941 0.24934 0.90061 0.0
C1220 C 0.71578 0.21246 0.90536 0.0
C1221 C 0.68167 0.19713 0.90647 0.0
C1222 C 0.69119 0.31017 0.89424 0.0
C1223 C 0.748 0.18904 0.90803 0.0
C1224 C 0.80189 0.28183 0.85553 0.0
C1225 C 0.81976 0.30011 0.87882 0.0
C1226 C 0.76949 0.26473 0.8625 0.0
C1227 C 0.75514 0.26504 0.89369 0.0
C1228 C 0.77381 0.28236 0.91752 0.0
C1229 C 0.80566 0.30021 0.90972 0.0
C1230 C 0.75019 0.24701 0.83633 0.0
C1231 C 0.75996 0.28245 0.95114 0.0
H1232 H 0.6316 0.27109 0.89781 0.0
H1233 H 0.67897 0.1687 0.90894 0.0
H1234 H 0.709 0.32307 0.91089 0.0
H1235 H 0.70289 0.31446 0.87045 0.0
H1236 H 0.66477 0.32361 0.89708 0.0
H1237 H 0.74061 0.16123 0.91308 0.0
H1238 H 0.76498 0.18869 0.88604 0.0
H1239 H 0.76434 0.19993 0.92675 0.0
H1240 H 0.81286 0.28158 0.83167 0.0
H1241 H 0.81983 0.31379 0.92787 0.0
H1242 H 0.72352 0.25944 0.8352 0.0
H1243 H 0.74598 0.21845 0.84069 0.0
H1244 H 0.765 0.24907 0.81338 0.0
H1245 H 0.73526 0.29871 0.95449 0.0
H1246 H 0.77964 0.29345 0.96714 0.0
H1247 H 0.75306 0.25504 0.95775 0.0
C1248 C 0.24274 0.67335 0.89906 0.0
C1249 C 0.27892 0.66819 0.88999 0.0
C1250 C 0.22631 0.70654 0.89708 0.0
C1251 C 0.2466 0.73532 0.88579 0.0
C1252 C 0.28357 0.73084 0.87814 0.0
C1253 C 0.29936 0.69723 0.88035 0.0
C1254 C 0.18681 0.71016 0.90537 0.0
C1255 C 0.3061 0.76118 0.86647 0.0
C1256 C 0.19908 0.80695 0.84479 0.0
C1257 C 0.19432 0.83342 0.86848 0.0
C1258 C 0.21555 0.77454 0.85032 0.0
C1259 C 0.22861 0.76931 0.87992 0.0
C1260 C 0.22409 0.79632 0.90382 0.0
C1261 C 0.20651 0.828 0.89788 0.0
C1262 C 0.21906 0.74596 0.82451 0.0
C1263 C 0.23806 0.79188 0.93549 0.0
H1264 H 0.22681 0.65106 0.90675 0.0
H1265 H 0.32733 0.69342 0.87334 0.0
H1266 H 0.18099 0.73431 0.92058 0.0
H1267 H 0.1726 0.71308 0.88384 0.0
H1268 H 0.17589 0.68666 0.91735 0.0
H1269 H 0.33475 0.75384 0.86302 0.0
H1270 H 0.29676 0.76954 0.844 0.0
H1271 H 0.30325 0.7845 0.88315 0.0
H1272 H 0.18965 0.81155 0.82204 0.0
H1273 H 0.20302 0.84889 0.91598 0.0
H1274 H 0.20744 0.72069 0.83263 0.0
H1275 H 0.24763 0.74076 0.81784 0.0
H1276 H 0.20562 0.75346 0.80352 0.0
H1277 H 0.22524 0.76871 0.94651 0.0
H1278 H 0.23316 0.81584 0.95122 0.0
H1279 H 0.26714 0.78643 0.93312 0.0
C1280 C 0.81969 0.2548 0.62099 0.0
C1281 C 0.82465 0.2213 0.60567 0.0
C1282 C 0.78742 0.27333 0.62019 0.0
C1283 C 0.75953 0.25791 0.60371 0.0
C1284 C 0.76481 0.22471 0.58727 0.0
C1285 C 0.79737 0.20678 0.58843 0.0
C1286 C 0.78265 0.30868 0.63807 0.0
C1287 C 0.73574 0.20768 0.56914 0.0
C1288 C 0.66477 0.27955 0.63258 0.0
C1289 C 0.65496 0.30454 0.61159 0.0
C1290 C 0.69898 0.26475 0.63053 0.0
C1291 C 0.72369 0.27459 0.60639 0.0
C1292 C 0.71393 0.2998 0.58498 0.0
C1293 C 0.67963 0.31492 0.5881 0.0
C1294 C 0.70853 0.23833 0.65408 0.0
C1295 C 0.73951 0.31036 0.55867 0.0
H1296 H 0.84078 0.26633 0.63415 0.0
H1297 H 0.80119 0.18107 0.57625 0.0
H1298 H 0.77204 0.32893 0.62313 0.0
H1299 H 0.76296 0.30586 0.65804 0.0
H1300 H 0.80799 0.31862 0.64708 0.0
H1301 H 0.74413 0.18168 0.5577 0.0
H1302 H 0.71175 0.20342 0.58481 0.0
H1303 H 0.72786 0.22566 0.55104 0.0
H1304 H 0.64571 0.27178 0.65092 0.0
H1305 H 0.67182 0.33412 0.57175 0.0
H1306 H 0.73259 0.24731 0.66577 0.0
H1307 H 0.71491 0.21212 0.64216 0.0
H1308 H 0.68661 0.2347 0.67212 0.0
H1309 H 0.76403 0.3217 0.56807 0.0
H1310 H 0.72771 0.33022 0.54394 0.0
H1311 H 0.74764 0.28652 0.54378 0.0
C1312 C 0.31034 0.79052 0.61752 0.0
C1313 C 0.3048 0.82526 0.60852 0.0
C1314 C 0.28303 0.76526 0.61616 0.0
C1315 C 0.24936 0.77543 0.60628 0.0
C1316 C 0.24369 0.81055 0.5973 0.0
C1317 C 0.27157 0.83495 0.59832 0.0
C1318 C 0.29013 0.72772 0.62526 0.0
C1319 C 0.20797 0.82261 0.58732 0.0
C1320 C 0.19056 0.70072 0.57847 0.0
C1321 C 0.17008 0.69379 0.60584 0.0
C1322 C 0.21577 0.72801 0.578 0.0
C1323 C 0.22009 0.74925 0.60539 0.0
C1324 C 0.1976 0.74425 0.63237 0.0
C1325 C 0.17293 0.71636 0.63234 0.0
C1326 C 0.23918 0.73271 0.54873 0.0
C1327 C 0.20088 0.76709 0.66176 0.0
H1328 H 0.33603 0.78307 0.62539 0.0
H1329 H 0.26697 0.86204 0.59186 0.0
H1330 H 0.27157 0.72088 0.64507 0.0
H1331 H 0.28526 0.70867 0.60558 0.0
H1332 H 0.31789 0.724 0.63199 0.0
H1333 H 0.20872 0.85021 0.57914 0.0
H1334 H 0.19889 0.80456 0.56839 0.0
H1335 H 0.18784 0.82154 0.60717 0.0
H1336 H 0.18835 0.68359 0.55779 0.0
H1337 H 0.15695 0.71139 0.65347 0.0
H1338 H 0.26707 0.72553 0.55291 0.0
H1339 H 0.2391 0.76091 0.54228 0.0
H1340 H 0.23057 0.71585 0.52876 0.0
H1341 H 0.22611 0.76049 0.67229 0.0
H1342 H 0.17842 0.76297 0.67917 0.0
H1343 H 0.20188 0.79569 0.65652 0.0
C1344 C 0.94142 0.45857 0.95543 0.0
C1345 C 0.95579 0.42416 0.95211 0.0
C1346 C 0.95499 0.48363 0.97658 0.0
C1347 C 0.98271 0.47342 0.99514 0.0
C1348 C 0.99488 0.43781 0.99382 0.0
C1349 C 0.9814 0.4136 0.97211 0.0
C1350 C 0.94133 0.52148 0.97764 0.0
C1351 C 0.02338 0.42577 0.01425 0.0
C1352 C 0.04641 0.54485 0.02124 0.0
C1353 C 0.03151 0.5539 0.05101 0.0
C1354 C 0.03089 0.51823 0.00277 0.0
C1355 C 0.00029 0.50028 0.01484 0.0
C1356 C 0.98643 0.50822 0.04556 0.0
C1357 C 0.00216 0.53517 0.06317 0.0
C1358 C 0.04622 0.51042 0.96996 0.0
C1359 C 0.95414 0.48954 0.05954 0.0
H1360 H 0.92144 0.46662 0.94008 0.0
H1361 H 0.9921 0.38673 0.96974 0.0
H1362 H 0.93292 0.53034 0.00187 0.0
H1363 H 0.96305 0.53936 0.96951 0.0
H1364 H 0.91848 0.52462 0.96285 0.0
H1365 H 0.02829 0.39662 0.01164 0.0
H1366 H 0.04869 0.43968 0.00828 0.0
H1367 H 0.0156 0.43287 0.03901 0.0
H1368 H 0.06894 0.55976 0.0119 0.0
H1369 H 0.99111 0.54203 0.08641 0.0
H1370 H 0.02655 0.51802 0.95326 0.0
H1371 H 0.05166 0.48153 0.96588 0.0
H1372 H 0.0713 0.52514 0.96491 0.0
H1373 H 0.92968 0.50188 0.05159 0.0
H1374 H 0.95278 0.49193 0.08536 0.0
H1375 H 0.95407 0.46089 0.0522 0.0
C1376 C 0.06572 0.00067 0.95822 0.0
C1377 C 0.05858 0.97359 0.93614 0.0
C1378 C 0.03975 0.01192 0.98118 0.0
C1379 C 0.00574 0.996 0.98164 0.0
C1380 C -0.00187 0.96915 0.95896 0.0
C1381 C 0.0249 0.9579 0.9366 0.0
C1382 C 0.04923 0.03972 0.00565 0.0
C1383 C 0.96178 0.95232 0.95841 0.0
C1384 C 0.95428 0.99033 0.05881 0.0
C1385 C 0.93153 0.01979 0.05911 0.0
C1386 C 0.97917 0.98294 0.03408 0.0
C1387 C 0.97969 0.00436 0.00801 0.0
C1388 C 0.95591 0.03362 0.0076 0.0
C1389 C 0.93256 0.04163 0.03371 0.0
C1390 C 0.00489 0.95224 0.03599 0.0
C1391 C 0.9552 0.05628 0.97971 0.0
H1392 H 0.09182 0.01288 0.95768 0.0
H1393 H 0.01922 0.93755 0.91901 0.0
H1394 H 0.029 0.06132 0.00798 0.0
H1395 H 0.0495 0.02736 0.02852 0.0
H1396 H 0.07576 0.05167 0.0003 0.0
H1397 H 0.95947 0.93371 0.93788 0.0
H1398 H 0.95621 0.93741 0.97976 0.0
H1399 H 0.94099 0.97328 0.95814 0.0
H1400 H 0.95302 0.97331 0.07827 0.0
H1401 H 0.9145 0.06418 0.03393 0.0
H1402 H 0.0325 0.96046 0.02927 0.0
H1403 H -0.00215 0.93019 0.01958 0.0
H1404 H 0.00452 0.94193 0.05973 0.0
H1405 H 0.98068 0.07077 0.97683 0.0
H1406 H 0.93299 0.07596 0.98196 0.0
H1407 H 0.95262 0.03927 0.95826 0.0
C1408 C 0.48455 0.04898 0.95068 0.0
C1409 C 0.51847 0.06438 0.94841 0.0
C1410 C 0.47735 0.01961 0.96875 0.0
C1411 C 0.50389 0.0069 0.98732 0.0
C1412 C 0.53807 0.02294 0.98603 0.0
C1413 C 0.5453 0.05087 0.96581 0.0
C1414 C 0.44083 0.003 0.96791 0.0
C1415 C 0.56671 0.01113 0.00642 0.0
C1416 C 0.46384 0.95838 0.05642 0.0
C1417 C 0.47245 0.92291 0.04787 0.0
C1418 C 0.47565 0.98608 0.03767 0.0
C1419 C 0.49496 0.97797 0.00892 0.0
C1420 C 0.50238 0.94198 -0.00042 0.0
C1421 C 0.49167 0.91494 0.01949 0.0
C1422 C 0.46744 0.02406 0.04865 0.0
C1423 C 0.52032 0.93193 0.96811 0.0
H1424 H 0.46337 0.05964 0.93801 0.0
H1425 H 0.57148 0.06287 0.96443 0.0
H1426 H 0.43981 0.9756 0.97633 0.0
H1427 H 0.42142 0.01983 0.98247 0.0
H1428 H 0.43201 0.00194 0.94379 0.0
H1429 H 0.58998 0.02927 0.00571 0.0
H1430 H 0.55588 0.00989 0.03089 0.0
H1431 H 0.57614 0.98402 -0.00131 0.0
H1432 H 0.44909 0.9646 0.07841 0.0
H1433 H 0.4982 0.88742 0.01284 0.0
H1434 H 0.44716 0.03524 0.03416 0.0
H1435 H 0.49171 0.04065 0.046 0.0
H1436 H 0.45705 0.02614 0.07335 0.0
H1437 H 0.50279 0.93959 0.9497 0.0
H1438 H 0.52601 0.90294 0.96512 0.0
H1439 H 0.54564 0.94659 0.96452 0.0
C1440 C 0.543 0.46895 0.04293 0.0
C1441 C 0.57459 0.48032 0.02738 0.0
C1442 C 0.50964 0.47791 0.03273 0.0
C1443 C 0.50777 0.49787 0.00587 0.0
C1444 C 0.53945 0.50966 0.99023 0.0
C1445 C 0.57249 0.50076 0.00118 0.0
C1446 C 0.47634 0.46541 0.05026 0.0
C1447 C 0.53844 0.53152 0.96182 0.0
C1448 C 0.43054 0.47894 0.95601 0.0
C1449 C 0.41044 0.51023 0.9604 0.0
C1450 C 0.46187 0.4745 0.97113 0.0
C1451 C 0.47317 0.50199 0.99166 0.0
C1452 C 0.45195 0.53315 -0.00247 0.0
C1453 C 0.4209 0.53722 0.98129 0.0
C1454 C 0.48344 0.44087 0.96375 0.0
C1455 C 0.46218 0.56244 0.02032 0.0
H1456 H 0.54422 0.45364 0.06353 0.0
H1457 H 0.59672 0.51011 0.98935 0.0
H1458 H 0.45777 0.48815 0.05572 0.0
H1459 H 0.46247 0.44561 0.03552 0.0
H1460 H 0.48219 0.45299 0.07227 0.0
H1461 H 0.56551 0.53852 0.95229 0.0
H1462 H 0.52449 0.51662 0.94342 0.0
H1463 H 0.52327 0.55649 0.96778 0.0
H1464 H 0.42205 0.45803 0.94009 0.0
H1465 H 0.40508 0.56137 0.98476 0.0
H1466 H 0.49715 0.43191 0.98402 0.0
H1467 H 0.50408 0.446 0.94499 0.0
H1468 H 0.46636 0.41875 0.95568 0.0
H1469 H 0.43832 0.5775 0.03013 0.0
H1470 H 0.48012 0.58134 0.00812 0.0
H1471 H 0.47643 0.55194 0.03978 0.0
C1472 C 0.98442 0.04129 0.55817 0.0
C1473 C 0.95605 0.06053 0.54756 0.0
C1474 C -0.00144 0.01144 0.5413 0.0
C1475 C 0.98496 0.00165 0.51237 0.0
C1476 C 0.95582 0.02066 0.50169 0.0
C1477 C 0.94117 0.04966 0.51983 0.0
C1478 C 0.0289 0.99136 0.55402 0.0
C1479 C 0.94127 0.01137 0.47056 0.0
C1480 C 0.04672 0.95074 0.45326 0.0
C1481 C 0.03211 0.9166 0.45419 0.0
C1482 C 0.03167 0.97881 0.47226 0.0
C1483 C 0.0019 0.97215 0.49291 0.0
C1484 C 0.98824 0.93735 0.49495 0.0
C1485 C 0.00345 0.90998 0.47543 0.0
C1486 C 0.0466 0.01581 0.46929 0.0
C1487 C 0.9572 0.92914 0.51736 0.0
H1488 H 0.99611 0.04993 0.57947 0.0
H1489 H 0.91956 0.06502 0.51152 0.0
H1490 H 0.02491 0.9622 0.5512 0.0
H1491 H 0.05421 -0.00219 0.54095 0.0
H1492 H 0.03182 -0.00159 0.57904 0.0
H1493 H 0.91948 0.02966 0.46523 0.0
H1494 H 0.96293 0.01255 0.45196 0.0
H1495 H 0.93096 0.98377 0.47004 0.0
H1496 H 0.06859 0.95594 0.43653 0.0
H1497 H 0.99228 0.88346 0.47616 0.0
H1498 H 0.05543 0.02614 0.49203 0.0
H1499 H 0.02554 0.0341 0.46245 0.0
H1500 H 0.06953 0.01654 0.45181 0.0
H1501 H 0.96399 0.93637 0.54151 0.0
H1502 H 0.94976 0.90058 0.51594 0.0
H1503 H 0.93363 0.9453 0.51253 0.0
C1504 C 0.42271 0.96924 0.50533 0.0
C1505 C 0.42795 0.96541 0.53677 0.0
C1506 C 0.45094 0.97999 0.48521 0.0
C1507 C 0.48391 0.98883 0.49763 0.0
C1508 C 0.48894 0.98492 0.5295 0.0
C1509 C 0.46119 0.97172 0.5484 0.0
C1510 C 0.44564 0.98176 0.45091 0.0
C1511 C 0.52303 0.99607 0.54393 0.0
C1512 C 0.57071 0.98926 0.44982 0.0
C1513 C 0.57472 0.0255 0.44469 0.0
C1514 C 0.54048 0.97681 0.46614 0.0
C1515 C 0.51384 0.00137 0.47755 0.0
C1516 C 0.51774 0.03813 0.47247 0.0
C1517 C 0.54839 0.04985 0.45602 0.0
C1518 C 0.53725 0.9375 0.47154 0.0
C1519 C 0.48979 0.06505 0.48447 0.0
H1520 H 0.39666 0.96413 0.49668 0.0
H1521 H 0.46481 0.96826 0.57282 0.0
H1522 H 0.45298 0.00839 0.44263 0.0
H1523 H 0.46345 0.96204 0.43777 0.0
H1524 H 0.41772 0.97604 0.44537 0.0
H1525 H 0.52223 0.99159 0.56925 0.0
H1526 H 0.54609 0.98122 0.53242 0.0
H1527 H 0.52772 0.0248 0.54051 0.0
H1528 H 0.59151 0.97062 0.44129 0.0
H1529 H 0.55154 0.07788 0.45173 0.0
H1530 H 0.51374 0.92667 0.46005 0.0
H1531 H 0.53295 0.93289 0.49668 0.0
H1532 H 0.5614 0.9224 0.46259 0.0
H1533 H 0.46635 0.06266 0.47016 0.0
H1534 H 0.4998 0.09274 0.48346 0.0
H1535 H 0.4806 0.06 0.50875 0.0
C1536 C 0.48329 0.43202 0.54142 0.0
C1537 C 0.51746 0.43213 0.55279 0.0
C1538 C 0.47371 0.45613 0.51962 0.0
C1539 C 0.4994 0.48026 0.50779 0.0
C1540 C 0.53463 0.47919 0.51778 0.0
C1541 C 0.54309 0.45549 0.54058 0.0
C1542 C 0.43583 0.45541 0.50976 0.0
C1543 C 0.56344 0.50327 0.50493 0.0
C1544 C 0.47172 0.52114 0.4341 0.0
C1545 C 0.46673 0.55684 0.44393 0.0
C1546 C 0.48472 0.49648 0.45408 0.0
C1547 C 0.48894 0.50697 0.4856 0.0
C1548 C 0.48122 0.54261 0.49619 0.0
C1549 C 0.4717 0.56749 0.47482 0.0
C1550 C 0.49469 0.45962 0.441 0.0
C1551 C 0.48332 0.55486 0.52986 0.0
H1552 H 0.46331 0.41376 0.55033 0.0
H1553 H 0.56964 0.45555 0.54902 0.0
H1554 H 0.42697 0.48138 0.50174 0.0
H1555 H 0.43381 0.4351 0.4905 0.0
H1556 H 0.41702 0.4475 0.52908 0.0
H1557 H 0.5903 0.49149 0.50675 0.0
H1558 H 0.55995 0.50883 0.48025 0.0
H1559 H 0.56249 0.52894 0.51864 0.0
H1560 H 0.4677 0.51298 0.41014 0.0
H1561 H 0.4679 0.59524 0.4823 0.0
H1562 H 0.47192 0.44147 0.44514 0.0
H1563 H 0.518 0.44889 0.45219 0.0
H1564 H 0.50113 0.45954 0.4155 0.0
H1565 H 0.47532 0.53357 0.5458 0.0
H1566 H 0.46609 0.57855 0.5358 0.0
H1567 H 0.51109 0.56254 0.53407 0.0
C1568 C 0.06778 0.53006 0.50786 0.0
C1569 C 0.06241 0.53021 0.54032 0.0
C1570 C 0.04329 0.51342 0.48869 0.0
C1571 C 0.01281 0.49684 0.50243 0.0
C1572 C 0.00782 0.49619 0.53518 0.0
C1573 C 0.03265 0.51295 0.55364 0.0
C1574 C 0.04937 0.51454 0.4538 0.0
C1575 C 0.97583 0.47867 0.55089 0.0
C1576 C 0.93017 0.49644 0.45682 0.0
C1577 C 0.92801 0.46059 0.44714 0.0
C1578 C 0.95734 0.50829 0.47541 0.0
C1579 C 0.98405 0.48404 0.48283 0.0
C1580 C 0.98233 0.44783 0.47252 0.0
C1581 C 0.95378 0.43635 0.45519 0.0
C1582 C 0.95684 0.54643 0.48805 0.0
C1583 C 0.01049 0.42135 0.47982 0.0
H1584 H 0.09086 0.54323 0.49745 0.0
H1585 H 0.02809 0.51344 0.57868 0.0
H1586 H 0.04611 0.48762 0.44273 0.0
H1587 H 0.0292 0.53221 0.44463 0.0
H1588 H 0.07628 0.52458 0.44675 0.0
H1589 H 0.97289 0.48583 0.5762 0.0
H1590 H 0.95093 0.4862 0.54027 0.0
H1591 H 0.97879 0.44934 0.54798 0.0
H1592 H 0.90987 0.51495 0.45068 0.0
H1593 H 0.95195 0.40863 0.4474 0.0
H1594 H 0.98063 0.56056 0.47848 0.0
H1595 H 0.95798 0.54732 0.51372 0.0
H1596 H 0.93251 0.56096 0.48236 0.0
H1597 H 0.03713 0.43066 0.47124 0.0
H1598 H 0.00584 0.39444 0.46917 0.0
H1599 H 0.01104 0.41921 0.50535 0.0
C1600 C 0.99007 0.46725 0.31451 0.0
C1601 C 0.00793 0.43865 0.32629 0.0
C1602 C -0.0007 0.47922 0.28483 0.0
C1603 C 0.02751 0.46234 0.26636 0.0
C1604 C 0.04507 0.4327 0.27756 0.0
C1605 C 0.03506 0.42119 0.30739 0.0
C1606 C 0.97972 0.51099 0.27382 0.0
C1607 C 0.07543 0.4142 0.25869 0.0
C1608 C 0.02652 0.49272 0.18432 0.0
C1609 C 0.04537 0.52458 0.18756 0.0
C1610 C 0.02335 0.46949 0.20894 0.0
C1611 C 0.04016 0.47827 0.23677 0.0
C1612 C 0.06364 0.50758 0.23794 0.0
C1613 C 0.06561 0.53067 0.21337 0.0
C1614 C -0.00161 0.43831 0.20663 0.0
C1615 C 0.08289 0.5175 0.26675 0.0
H1616 H 0.96975 0.48137 0.32881 0.0
H1617 H 0.04911 0.39892 0.31614 0.0
H1618 H -0.00174 0.53375 0.27151 0.0
H1619 H 0.96961 0.50472 0.25059 0.0
H1620 H 0.95689 0.51947 0.29009 0.0
H1621 H 0.08277 0.3886 0.26854 0.0
H1622 H 0.06851 0.409 0.23427 0.0
H1623 H 0.09913 0.43169 0.25818 0.0
H1624 H 0.0109 0.48802 0.16426 0.0
H1625 H 0.08023 0.55537 0.21572 0.0
H1626 H 0.97258 0.44544 0.21931 0.0
H1627 H 0.00925 0.41478 0.21751 0.0
H1628 H 0.99321 0.43095 0.18208 0.0
H1629 H 0.06418 0.53177 0.28398 0.0
H1630 H 0.1058 0.53527 0.26146 0.0
H1631 H 0.09272 0.4935 0.27762 0.0
C1632 C 0.07848 0.98539 0.30862 0.0
C1633 C 0.05317 0.96375 0.32388 0.0
C1634 C 0.06989 0.00439 0.28269 0.0
C1635 C 0.03522 0.00153 0.27187 0.0
C1636 C 0.00944 0.98025 0.28765 0.0
C1637 C 0.01876 0.96172 0.31337 0.0
C1638 C 0.09775 0.02748 0.26704 0.0
C1639 C 0.97184 0.97672 0.27732 0.0
C1640 C 0.97767 0.0566 0.22657 0.0
C1641 C 0.97467 0.03329 0.20066 0.0
C1642 C 0.00345 0.05065 0.2479 0.0
C1643 C 0.02494 0.01963 0.2438 0.0
C1644 C 0.02612 -7e-05 0.21493 0.0
C1645 C 0.00118 0.00756 0.19328 0.0
C1646 C 0.00333 0.07408 0.27721 0.0
C1647 C 0.0492 0.96711 0.20912 0.0
H1648 H 0.10514 0.98719 0.31672 0.0
H1649 H -0.00104 0.94543 0.32522 0.0
H1650 H 0.10362 0.01779 0.24261 0.0
H1651 H 0.08764 0.05516 0.2664 0.0
H1652 H 0.12301 0.02788 0.27909 0.0
H1653 H 0.95564 0.95793 0.29137 0.0
H1654 H 0.9583 0.00304 0.27942 0.0
H1655 H 0.97227 0.96723 0.25255 0.0
H1656 H 0.95765 0.07717 0.23184 0.0
H1657 H -0.00067 0.99 0.17285 0.0
H1658 H 0.03006 0.07511 0.28668 0.0
H1659 H 0.98437 0.06321 0.29508 0.0
H1660 H 0.9946 0.10158 0.2729 0.0
H1661 H 0.0769 0.97278 0.21505 0.0
H1662 H 0.04956 0.9569 0.18451 0.0
H1663 H 0.03891 0.94581 0.22419 0.0
C1664 C 0.4833 0.02914 0.31439 0.0
C1665 C 0.52045 0.02656 0.31304 0.0
C1666 C 0.46547 0.03103 0.28678 0.0
C1667 C 0.48549 0.02796 0.25781 0.0
C1668 C 0.52304 0.03186 0.25711 0.0
C1669 C 0.54 0.03173 0.28502 0.0
C1670 C 0.42535 0.03136 0.28864 0.0
C1671 C 0.54596 0.02951 0.227 0.0
C1672 C 0.46753 0.95128 0.2025 0.0
C1673 C 0.46757 0.96837 0.17431 0.0
C1674 C 0.46998 0.97075 0.23065 0.0
C1675 C 0.47047 0.0085 0.23086 0.0
C1676 C 0.46482 0.02587 0.20313 0.0
C1677 C 0.46448 0.00559 0.17485 0.0
C1678 C 0.4761 0.95054 0.25942 0.0
C1679 C 0.46042 0.06577 0.20332 0.0
H1680 H 0.46817 0.02587 0.3363 0.0
H1681 H 0.56887 0.0304 0.2844 0.0
H1682 H 0.41468 0.04003 0.26676 0.0
H1683 H 0.41527 0.00432 0.29328 0.0
H1684 H 0.41502 0.04943 0.30827 0.0
H1685 H 0.57436 0.03548 0.23063 0.0
H1686 H 0.54448 0.00224 0.21617 0.0
H1687 H 0.5364 0.04833 0.21031 0.0
H1688 H 0.46925 0.92249 0.20235 0.0
H1689 H 0.46324 0.01885 0.15315 0.0
H1690 H 0.45521 0.95748 0.27795 0.0
H1691 H 0.50226 0.95778 0.26841 0.0
H1692 H 0.47575 0.92122 0.25491 0.0
H1693 H 0.43629 0.07368 0.21819 0.0
H1694 H 0.45762 0.07541 0.17963 0.0
H1695 H 0.48326 0.07943 0.21362 0.0
C1696 C 0.46322 0.52309 0.27102 0.0
C1697 C 0.47438 0.52101 0.30117 0.0
C1698 C 0.47372 0.497 0.24808 0.0
C1699 C 0.49657 0.46916 0.25581 0.0
C1700 C 0.50058 0.46289 0.28755 0.0
C1701 C 0.48935 0.48927 0.31019 0.0
C1702 C 0.46699 0.50388 0.21475 0.0
C1703 C 0.523 0.43245 0.29705 0.0
C1704 C 0.54876 0.42539 0.18568 0.0
C1705 C 0.5765 0.44989 0.182 0.0
C1706 C 0.52311 0.42967 0.21084 0.0
C1707 C 0.52605 0.45874 0.23263 0.0
C1708 C 0.55593 0.48166 0.23002 0.0
C1709 C 0.58046 0.47705 0.20459 0.0
C1710 C 0.49234 0.40413 0.21338 0.0
C1711 C 0.5611 0.51268 0.25288 0.0
H1712 H 0.45077 0.54743 0.26436 0.0
H1713 H 0.49733 0.48738 0.33381 0.0
H1714 H 0.4897 0.51901 0.20435 0.0
H1715 H 0.46462 0.47867 0.20074 0.0
H1716 H 0.44237 0.51994 0.21326 0.0
H1717 H 0.5143 0.4244 0.32079 0.0
H1718 H 0.52174 0.40911 0.28052 0.0
H1719 H 0.55118 0.44105 0.29738 0.0
H1720 H 0.54608 0.40419 0.1681 0.0
H1721 H 0.60242 0.49552 0.20179 0.0
H1722 H 0.46684 0.41847 0.21148 0.0
H1723 H 0.49103 0.39223 0.23647 0.0
H1724 H 0.49461 0.38234 0.19507 0.0
H1725 H 0.53963 0.53267 0.25129 0.0
H1726 H 0.58703 0.52616 0.24843 0.0
H1727 H 0.55996 0.50359 0.27701 0.0
C1728 C 0.00085 0.58193 0.72389 0.0
C1729 C 0.99427 0.56632 0.69468 0.0
C1730 C 0.98019 0.57299 0.75048 0.0
C1731 C 0.9515 0.54908 0.74734 0.0
C1732 C 0.93989 0.54041 0.71733 0.0
C1733 C 0.96206 0.54827 0.6911 0.0
C1734 C 0.99376 0.58353 0.78177 0.0
C1735 C 0.90723 0.518 0.71314 0.0
C1736 C 0.96204 0.4701 0.79661 0.0
C1737 C 0.94067 0.47948 0.82354 0.0
C1738 C 0.96452 0.49198 0.77136 0.0
C1739 C 0.94405 0.52379 0.77239 0.0
C1740 C 0.92016 0.53214 0.79846 0.0
C1741 C 0.91927 0.51017 0.82411 0.0
C1742 C 0.99055 0.48154 0.74421 0.0
C1743 C 0.8963 0.56456 0.79977 0.0
H1744 H 0.02486 0.59731 0.72671 0.0
H1745 H 0.95584 0.53733 0.6684 0.0
H1746 H 0.97185 0.58666 0.80002 0.0
H1747 H 0.01201 0.5624 0.7886 0.0
H1748 H 0.0089 0.60882 0.7809 0.0
H1749 H 0.8962 0.52204 0.69024 0.0
H1750 H 0.9143 0.48944 0.71416 0.0
H1751 H 0.88636 0.52442 0.73193 0.0
H1752 H 0.97828 0.44617 0.79562 0.0
H1753 H 0.90225 0.51732 0.84467 0.0
H1754 H 0.00976 0.50333 0.73981 0.0
H1755 H 0.97605 0.47654 0.72286 0.0
H1756 H 0.00595 0.4571 0.7482 0.0
H1757 H 0.91107 0.5882 0.80813 0.0
H1758 H 0.87263 0.56137 0.81613 0.0
H1759 H 0.88719 0.56993 0.77644 0.0
C1760 C 0.97369 0.00276 0.67127 0.0
C1761 C 0.94173 0.02205 0.67085 0.0
C1762 C 0.9822 0.98486 0.69763 0.0
C1763 C 0.9574 0.98485 0.72373 0.0
C1764 C 0.92295 -0.00052 0.72149 0.0
C1765 C 0.91562 0.01846 0.69521 0.0
C1766 C 0.01909 0.96905 0.69856 0.0
C1767 C 0.895 -0.00203 0.74803 0.0
C1768 C 0.99334 0.93515 0.79026 0.0
C1769 C 0.0089 0.96322 0.80708 0.0
C1770 C 0.9736 0.9418 0.76435 0.0
C1771 C 0.97037 0.97715 0.75471 0.0
C1772 C 0.98398 0.00562 0.77298 0.0
C1773 C 0.00231 -0.00169 0.79918 0.0
C1774 C 0.95793 0.91084 0.74653 0.0
C1775 C 0.98211 0.04375 0.76342 0.0
H1776 H 0.99348 0.00418 0.652 0.0
H1777 H 0.89046 0.03252 0.69485 0.0
H1778 H 0.03277 0.9809 0.7186 0.0
H1779 H 0.01715 0.94002 0.7016 0.0
H1780 H 0.03593 0.97338 0.67698 0.0
H1781 H 0.86783 0.00219 0.7401 0.0
H1782 H 0.89593 0.97197 0.75916 0.0
H1783 H 0.90008 0.0191 0.76598 0.0
H1784 H -0.00216 0.90794 0.79639 0.0
H1785 H 0.01355 0.02031 0.81237 0.0
H1786 H 0.97692 0.90186 0.72704 0.0
H1787 H 0.93261 0.91847 0.73661 0.0
H1788 H 0.9529 0.88796 0.76157 0.0
H1789 H -0.0022 0.04647 0.74099 0.0
H1790 H 0.99274 0.06282 0.78093 0.0
H1791 H 0.95425 0.05146 0.75991 0.0
C1792 C 0.50017 0.98221 0.67233 0.0
C1793 C 0.4673 0.96528 0.6765 0.0
C1794 C 0.52239 0.98626 0.69723 0.0
C1795 C 0.51081 0.97331 0.72651 0.0
C1796 C 0.48137 0.94995 0.72843 0.0
C1797 C 0.45963 0.94649 0.70329 0.0
C1798 C 0.55435 0.01016 0.69381 0.0
C1799 C 0.46839 0.93458 0.75876 0.0
C1800 C 0.55115 0.00383 0.80236 0.0
C1801 C 0.52983 0.03379 0.81105 0.0
C1802 C 0.54619 0.98397 0.77441 0.0
C1803 C 0.51921 0.99437 0.7551 0.0
C1804 C 0.49819 0.02501 0.76367 0.0
C1805 C 0.50396 0.04428 0.79123 0.0
C1806 C 0.56939 0.95182 0.76572 0.0
C1807 C 0.46876 0.03731 0.74416 0.0
H1808 H 0.5061 -0.00341 0.6514 0.0
H1809 H 0.43421 0.9331 0.70622 0.0
H1810 H 0.54638 0.03781 0.70137 0.0
H1811 H 0.57571 0.0018 0.70855 0.0
H1812 H 0.56508 0.01027 0.66922 0.0
H1813 H 0.45319 0.9097 0.75464 0.0
H1814 H 0.49072 0.92889 0.7734 0.0
H1815 H 0.45028 0.95409 0.77187 0.0
H1816 H 0.57132 0.99566 0.81749 0.0
H1817 H 0.48744 0.06749 0.79748 0.0
H1818 H 0.58405 0.95537 0.74297 0.0
H1819 H 0.55273 0.92775 0.76302 0.0
H1820 H 0.58898 0.94709 0.78335 0.0
H1821 H 0.47978 0.04311 0.72049 0.0
H1822 H 0.45498 0.06168 0.75437 0.0
H1823 H 0.44855 0.01611 0.74181 0.0
C1824 C 0.461 0.557 0.81627 0.0
C1825 C 0.42689 0.54406 0.81095 0.0
C1826 C 0.48905 0.55269 0.79303 0.0
C1827 C 0.48235 0.53546 0.76403 0.0
C1828 C 0.44718 0.52475 0.75814 0.0
C1829 C 0.4201 0.52909 0.78167 0.0
C1830 C 0.52586 0.56548 0.79983 0.0
C1831 C 0.43833 0.50652 0.72759 0.0
C1832 C 0.52919 0.52477 0.68537 0.0
C1833 C 0.53599 0.48806 0.68493 0.0
C1834 C 0.5173 0.54323 0.71325 0.0
C1835 C 0.51164 0.52419 0.74072 0.0
C1836 C 0.52484 0.48892 0.74122 0.0
C1837 C 0.53702 0.4713 0.71323 0.0
C1838 C 0.50577 0.58154 0.71225 0.0
C1839 C 0.52048 0.4677 0.77007 0.0
H1840 H 0.46618 0.56857 0.83901 0.0
H1841 H 0.39359 0.51941 0.77756 0.0
H1842 H 0.54563 0.54362 0.79548 0.0
H1843 H 0.53386 0.58683 0.78396 0.0
H1844 H 0.52716 0.57607 0.8242 0.0
H1845 H 0.40944 0.5009 0.72659 0.0
H1846 H 0.44649 0.52337 0.70797 0.0
H1847 H 0.45309 0.48092 0.72402 0.0
H1848 H 0.52915 0.53818 0.66365 0.0
H1849 H 0.54336 0.44313 0.71305 0.0
H1850 H 0.51082 0.59644 0.73431 0.0
H1851 H 0.47673 0.5827 0.70912 0.0
H1852 H 0.51983 0.59485 0.69258 0.0
H1853 H 0.52719 0.48396 0.79096 0.0
H1854 H 0.53747 0.44338 0.76817 0.0
H1855 H 0.49227 0.45939 0.77354 0.0
loop_
_geom_bond_atom_site_label_1
_geom_bond_atom_site_label_2
_geom_bond_distance
_geom_bond_site_symmetry_2
_ccdc_geom_bond_type
Zn0 O6 1.969 . S
Zn0 O7 1.965 . S
Zn0 O11 2.024 . S
Zn0 O16 1.969 . S
Zn1 O8 1.969 . S
Zn1 O14 1.969 1_455 S
Zn1 O15 1.965 . S
Zn1 O17 2.024 . S
C2 O3 1.229 . S
C2 O11 1.058 . S
O3 C2 1.229 . S
C4 O5 1.229 . S
C4 O17 1.058 . S
O5 C4 1.229 . S
O6 Zn0 1.969 . S
O6 C9 1.267 . S
O7 Zn0 1.965 . S
O7 C18 1.260 . S
O8 Zn1 1.969 . S
O8 C18 1.258 . S
C9 O6 1.267 . S
C9 O10 1.228 . S
O10 C9 1.228 . S
O11 Zn0 2.024 . S
O11 C2 1.058 . S
C12 O13 1.228 . S
C12 O14 1.267 . S
O13 C12 1.228 . S
O14 Zn1 1.969 1_655 S
O14 C12 1.267 . S
O15 Zn1 1.965 . S
O15 C19 1.260 . S
O16 Zn0 1.969 . S
O16 C19 1.258 . S
O17 Zn1 2.024 . S
O17 C4 1.058 . S
C18 O7 1.260 . S
C18 O8 1.258 . S
C19 O15 1.260 . S
C19 O16 1.258 . S
Zn20 O26 1.969 . S
Zn20 O27 1.965 . S
Zn20 O31 2.024 . S
Zn20 O36 1.969 . S
Zn21 O28 1.969 . S
Zn21 O34 1.969 1_545 S
Zn21 O35 1.965 . S
Zn21 O37 2.024 . S
C22 O23 1.229 . S
C22 O31 1.058 . S
O23 C22 1.229 . S
C24 O25 1.229 . S
C24 O37 1.058 . S
O25 C24 1.229 . S
O26 Zn20 1.969 . S
O26 C29 1.267 . S
O27 Zn20 1.965 . S
O27 C38 1.260 . S
O28 Zn21 1.969 . S
O28 C38 1.258 . S
C29 O26 1.267 . S
C29 O30 1.228 . S
O30 C29 1.228 . S
O31 Zn20 2.024 . S
O31 C22 1.058 . S
C32 O33 1.228 . S
C32 O34 1.267 . S
O33 C32 1.228 . S
O34 Zn21 1.969 1_565 S
O34 C32 1.267 . S
O35 Zn21 1.965 . S
O35 C39 1.260 . S
O36 Zn20 1.969 . S
O36 C39 1.258 . S
O37 Zn21 2.024 . S
O37 C24 1.058 . S
C38 O27 1.260 . S
C38 O28 1.258 . S
C39 O35 1.260 . S
C39 O36 1.258 . S
Zn40 O46 1.969 . S
Zn40 O47 1.965 . S
Zn40 O51 2.024 . S
Zn40 O56 1.969 . S
Zn41 O48 1.969 . S
Zn41 O54 1.969 . S
Zn41 O55 1.965 . S
Zn41 O57 2.024 . S
C42 O43 1.229 . S
C42 O51 1.058 . S
O43 C42 1.229 . S
C44 O45 1.229 . S
C44 O57 1.058 . S
O45 C44 1.229 . S
O46 Zn40 1.969 . S
O46 C49 1.267 . S
O47 Zn40 1.965 . S
O47 C58 1.260 . S
O48 Zn41 1.969 . S
O48 C58 1.258 . S
C49 O46 1.267 . S
C49 O50 1.228 . S
O50 C49 1.228 . S
O51 Zn40 2.024 . S
O51 C42 1.058 . S
C52 O53 1.228 . S
C52 O54 1.267 . S
O53 C52 1.228 . S
O54 Zn41 1.969 . S
O54 C52 1.267 . S
O55 Zn41 1.965 . S
O55 C59 1.260 . S
O56 Zn40 1.969 . S
O56 C59 1.258 . S
O57 Zn41 2.024 . S
O57 C44 1.058 . S
C58 O47 1.260 . S
C58 O48 1.258 . S
C59 O55 1.260 . S
C59 O56 1.258 . S
Zn60 O66 1.969 . S
Zn60 O67 1.965 . S
Zn60 O71 2.024 . S
Zn60 O76 1.969 . S
Zn61 O68 1.969 . S
Zn61 O74 1.969 . S
Zn61 O75 1.965 . S
Zn61 O77 2.024 . S
C62 O63 1.229 . S
C62 O71 1.058 . S
O63 C62 1.229 . S
C64 O65 1.229 . S
C64 O77 1.058 . S
O65 C64 1.229 . S
O66 Zn60 1.969 . S
O66 C69 1.267 . S
O67 Zn60 1.965 . S
O67 C78 1.260 . S
O68 Zn61 1.969 . S
O68 C78 1.258 . S
C69 O66 1.267 . S
C69 O70 1.228 . S
O70 C69 1.228 . S
O71 Zn60 2.024 . S
O71 C62 1.058 . S
C72 O73 1.228 . S
C72 O74 1.267 . S
O73 C72 1.228 . S
O74 Zn61 1.969 . S
O74 C72 1.267 . S
O75 Zn61 1.965 . S
O75 C79 1.260 . S
O76 Zn60 1.969 . S
O76 C79 1.258 . S
O77 Zn61 2.024 . S
O77 C64 1.058 . S
C78 O67 1.260 . S
C78 O68 1.258 . S
C79 O75 1.260 . S
C79 O76 1.258 . S
Zn80 O86 1.969 . S
Zn80 O87 1.965 . S
Zn80 O91 2.024 . S
Zn80 O96 1.969 . S
Zn81 O88 1.969 . S
Zn81 O94 1.969 1_455 S
Zn81 O95 1.965 . S
Zn81 O97 2.024 . S
C82 O83 1.229 . S
C82 O91 1.058 . S
O83 C82 1.229 . S
C84 O85 1.229 . S
C84 O97 1.058 . S
O85 C84 1.229 . S
O86 Zn80 1.969 . S
O86 C89 1.267 . S
O87 Zn80 1.965 . S
O87 C98 1.260 . S
O88 Zn81 1.969 . S
O88 C98 1.258 . S
C89 O86 1.267 . S
C89 O90 1.228 . S
O90 C89 1.228 . S
O91 Zn80 2.024 . S
O91 C82 1.058 . S
C92 O93 1.228 . S
C92 O94 1.267 . S
O93 C92 1.228 . S
O94 Zn81 1.969 1_655 S
O94 C92 1.267 . S
O95 Zn81 1.965 . S
O95 C99 1.260 . S
O96 Zn80 1.969 . S
O96 C99 1.258 . S
O97 Zn81 2.024 . S
O97 C84 1.058 . S
C98 O87 1.260 . S
C98 O88 1.258 . S
C99 O95 1.260 . S
C99 O96 1.258 . S
Zn100 O106 1.969 . S
Zn100 O107 1.965 . S
Zn100 O111 2.024 . S
Zn100 O116 1.969 . S
Zn101 O108 1.969 . S
Zn101 O114 1.969 1_545 S
Zn101 O115 1.965 . S
Zn101 O117 2.024 . S
C102 O103 1.229 . S
C102 O111 1.058 . S
O103 C102 1.229 . S
C104 O105 1.229 . S
C104 O117 1.058 . S
O105 C104 1.229 . S
O106 Zn100 1.969 . S
O106 C109 1.267 . S
O107 Zn100 1.965 . S
O107 C118 1.260 . S
O108 Zn101 1.969 . S
O108 C118 1.258 . S
C109 O106 1.267 . S
C109 O110 1.228 . S
O110 C109 1.228 . S
O111 Zn100 2.024 . S
O111 C102 1.058 . S
C112 O113 1.228 . S
C112 O114 1.267 . S
O113 C112 1.228 . S
O114 Zn101 1.969 1_565 S
O114 C112 1.267 . S
O115 Zn101 1.965 . S
O115 C119 1.260 . S
O116 Zn100 1.969 . S
O116 C119 1.258 . S
O117 Zn101 2.024 . S
O117 C104 1.058 . S
C118 O107 1.260 . S
C118 O108 1.258 . S
C119 O115 1.260 . S
C119 O116 1.258 . S
Zn120 O126 1.969 . S
Zn120 O127 1.965 . S
Zn120 O131 2.024 . S
Zn120 O136 1.969 . S
Zn121 O128 1.969 . S
Zn121 O134 1.969 . S
Zn121 O135 1.965 . S
Zn121 O137 2.024 . S
C122 O123 1.229 . S
C122 O131 1.058 . S
O123 C122 1.229 . S
C124 O125 1.229 . S
C124 O137 1.058 . S
O125 C124 1.229 . S
O126 Zn120 1.969 . S
O126 C129 1.267 . S
O127 Zn120 1.965 . S
O127 C138 1.260 . S
O128 Zn121 1.969 . S
O128 C138 1.258 . S
C129 O126 1.267 . S
C129 O130 1.228 . S
O130 C129 1.228 . S
O131 Zn120 2.024 . S
O131 C122 1.058 . S
C132 O133 1.228 . S
C132 O134 1.267 . S
O133 C132 1.228 . S
O134 Zn121 1.969 . S
O134 C132 1.267 . S
O135 Zn121 1.965 . S
O135 C139 1.260 . S
O136 Zn120 1.969 . S
O136 C139 1.258 . S
O137 Zn121 2.024 . S
O137 C124 1.058 . S
C138 O127 1.260 . S
C138 O128 1.258 . S
C139 O135 1.260 . S
C139 O136 1.258 . S
Zn140 O146 1.969 . S
Zn140 O147 1.965 . S
Zn140 O151 2.024 . S
Zn140 O156 1.969 . S
Zn141 O148 1.969 . S
Zn141 O154 1.969 . S
Zn141 O155 1.965 . S
Zn141 O157 2.024 . S
C142 O143 1.229 . S
C142 O151 1.058 . S
O143 C142 1.229 . S
C144 O145 1.229 . S
C144 O157 1.058 . S
O145 C144 1.229 . S
O146 Zn140 1.969 . S
O146 C149 1.267 . S
O147 Zn140 1.965 . S
O147 C158 1.260 . S
O148 Zn141 1.969 . S
O148 C158 1.258 . S
C149 O146 1.267 . S
C149 O150 1.228 . S
O150 C149 1.228 . S
O151 Zn140 2.024 . S
O151 C142 1.058 . S
C152 O153 1.228 . S
C152 O154 1.267 . S
O153 C152 1.228 . S
O154 Zn141 1.969 . S
O154 C152 1.267 . S
O155 Zn141 1.965 . S
O155 C159 1.260 . S
O156 Zn140 1.969 . S
O156 C159 1.258 . S
O157 Zn141 2.024 . S
O157 C144 1.058 . S
C158 O147 1.260 . S
C158 O148 1.258 . S
C159 O155 1.260 . S
C159 O156 1.258 . S
Zn160 O166 1.969 1_655 S
Zn160 O167 1.965 . S
Zn160 O171 2.024 . S
Zn160 O176 1.969 . S
Zn161 O168 1.969 . S
Zn161 O174 1.969 . S
Zn161 O175 1.965 . S
Zn161 O177 2.024 . S
C162 O163 1.229 . S
C162 O171 1.058 . S
O163 C162 1.229 . S
C164 O165 1.229 . S
C164 O177 1.058 . S
O165 C164 1.229 . S
O166 Zn160 1.969 1_455 S
O166 C169 1.267 . S
O167 Zn160 1.965 . S
O167 C178 1.260 . S
O168 Zn161 1.969 . S
O168 C178 1.258 . S
C169 O166 1.267 . S
C169 O170 1.228 . S
O170 C169 1.228 . S
O171 Zn160 2.024 . S
O171 C162 1.058 . S
C172 O173 1.228 . S
C172 O174 1.267 . S
O173 C172 1.228 . S
O174 Zn161 1.969 . S
O174 C172 1.267 . S
O175 Zn161 1.965 . S
O175 C179 1.260 . S
O176 Zn160 1.969 . S
O176 C179 1.258 . S
O177 Zn161 2.024 . S
O177 C164 1.058 . S
C178 O167 1.260 . S
C178 O168 1.258 . S
C179 O175 1.260 . S
C179 O176 1.258 . S
Zn180 O186 1.969 1_565 S
Zn180 O187 1.965 . S
Zn180 O191 2.024 . S
Zn180 O196 1.969 . S
Zn181 O188 1.969 . S
Zn181 O194 1.969 . S
Zn181 O195 1.965 . S
Zn181 O197 2.024 . S
C182 O183 1.229 . S
C182 O191 1.058 . S
O183 C182 1.229 . S
C184 O185 1.229 . S
C184 O197 1.058 . S
O185 C184 1.229 . S
O186 Zn180 1.969 1_545 S
O186 C189 1.267 . S
O187 Zn180 1.965 . S
O187 C198 1.260 . S
O188 Zn181 1.969 . S
O188 C198 1.258 . S
C189 O186 1.267 . S
C189 O190 1.228 . S
O190 C189 1.228 . S
O191 Zn180 2.024 . S
O191 C182 1.058 . S
C192 O193 1.228 . S
C192 O194 1.267 . S
O193 C192 1.228 . S
O194 Zn181 1.969 . S
O194 C192 1.267 . S
O195 Zn181 1.965 . S
O195 C199 1.260 . S
O196 Zn180 1.969 . S
O196 C199 1.258 . S
O197 Zn181 2.024 . S
O197 C184 1.058 . S
C198 O187 1.260 . S
C198 O188 1.258 . S
C199 O195 1.260 . S
C199 O196 1.258 . S
Zn200 O206 1.969 . S
Zn200 O207 1.965 . S
Zn200 O211 2.024 . S
Zn200 O216 1.969 . S
Zn201 O208 1.969 . S
Zn201 O214 1.969 . S
Zn201 O215 1.965 . S
Zn201 O217 2.024 . S
C202 O203 1.229 . S
C202 O211 1.058 . S
O203 C202 1.229 . S
C204 O205 1.229 . S
C204 O217 1.058 . S
O205 C204 1.229 . S
O206 Zn200 1.969 . S
O206 C209 1.267 . S
O207 Zn200 1.965 . S
O207 C218 1.260 . S
O208 Zn201 1.969 . S
O208 C218 1.258 . S
C209 O206 1.267 . S
C209 O210 1.228 . S
O210 C209 1.228 . S
O211 Zn200 2.024 . S
O211 C202 1.058 . S
C212 O213 1.228 . S
C212 O214 1.267 . S
O213 C212 1.228 . S
O214 Zn201 1.969 . S
O214 C212 1.267 . S
O215 Zn201 1.965 . S
O215 C219 1.260 . S
O216 Zn200 1.969 . S
O216 C219 1.258 . S
O217 Zn201 2.024 . S
O217 C204 1.058 . S
C218 O207 1.260 . S
C218 O208 1.258 . S
C219 O215 1.260 . S
C219 O216 1.258 . S
Zn220 O226 1.969 . S
Zn220 O227 1.965 . S
Zn220 O231 2.024 . S
Zn220 O236 1.969 . S
Zn221 O228 1.969 . S
Zn221 O234 1.969 . S
Zn221 O235 1.965 . S
Zn221 O237 2.024 . S
C222 O223 1.229 . S
C222 O231 1.058 . S
O223 C222 1.229 . S
C224 O225 1.229 . S
C224 O237 1.058 . S
O225 C224 1.229 . S
O226 Zn220 1.969 . S
O226 C229 1.267 . S
O227 Zn220 1.965 . S
O227 C238 1.260 . S
O228 Zn221 1.969 . S
O228 C238 1.258 . S
C229 O226 1.267 . S
C229 O230 1.228 . S
O230 C229 1.228 . S
O231 Zn220 2.024 . S
O231 C222 1.058 . S
C232 O233 1.228 . S
C232 O234 1.267 . S
O233 C232 1.228 . S
O234 Zn221 1.969 . S
O234 C232 1.267 . S
O235 Zn221 1.965 . S
O235 C239 1.260 . S
O236 Zn220 1.969 . S
O236 C239 1.258 . S
O237 Zn221 2.024 . S
O237 C224 1.058 . S
C238 O227 1.260 . S
C238 O228 1.258 . S
C239 O235 1.260 . S
C239 O236 1.258 . S
Zn240 O246 1.969 1_655 S
Zn240 O247 1.965 . S
Zn240 O251 2.024 . S
Zn240 O256 1.969 . S
Zn241 O248 1.969 . S
Zn241 O254 1.969 . S
Zn241 O255 1.965 . S
Zn241 O257 2.024 . S
C242 O243 1.229 . S
C242 O251 1.058 . S
O243 C242 1.229 . S
C244 O245 1.229 . S
C244 O257 1.058 . S
O245 C244 1.229 . S
O246 Zn240 1.969 1_455 S
O246 C249 1.267 . S
O247 Zn240 1.965 . S
O247 C258 1.260 . S
O248 Zn241 1.969 . S
O248 C258 1.258 . S
C249 O246 1.267 . S
C249 O250 1.228 . S
O250 C249 1.228 . S
O251 Zn240 2.024 . S
O251 C242 1.058 . S
C252 O253 1.228 . S
C252 O254 1.267 . S
O253 C252 1.228 . S
O254 Zn241 1.969 . S
O254 C252 1.267 . S
O255 Zn241 1.965 . S
O255 C259 1.260 . S
O256 Zn240 1.969 . S
O256 C259 1.258 . S
O257 Zn241 2.024 . S
O257 C244 1.058 . S
C258 O247 1.260 . S
C258 O248 1.258 . S
C259 O255 1.260 . S
C259 O256 1.258 . S
Zn260 O266 1.969 1_565 S
Zn260 O267 1.965 . S
Zn260 O271 2.024 . S
Zn260 O276 1.969 . S
Zn261 O268 1.969 . S
Zn261 O274 1.969 . S
Zn261 O275 1.965 . S
Zn261 O277 2.024 . S
C262 O263 1.229 . S
C262 O271 1.058 . S
O263 C262 1.229 . S
C264 O265 1.229 . S
C264 O277 1.058 . S
O265 C264 1.229 . S
O266 Zn260 1.969 1_545 S
O266 C269 1.267 . S
O267 Zn260 1.965 . S
O267 C278 1.260 . S
O268 Zn261 1.969 . S
O268 C278 1.258 . S
C269 O266 1.267 . S
C269 O270 1.228 . S
O270 C269 1.228 . S
O271 Zn260 2.024 . S
O271 C262 1.058 . S
C272 O273 1.228 . S
C272 O274 1.267 . S
O273 C272 1.228 . S
O274 Zn261 1.969 . S
O274 C272 1.267 . S
O275 Zn261 1.965 . S
O275 C279 1.260 . S
O276 Zn260 1.969 . S
O276 C279 1.258 . S
O277 Zn261 2.024 . S
O277 C264 1.058 . S
C278 O267 1.260 . S
C278 O268 1.258 . S
C279 O275 1.260 . S
C279 O276 1.258 . S
Zn280 O286 1.969 . S
Zn280 O287 1.965 . S
Zn280 O291 2.024 . S
Zn280 O296 1.969 . S
Zn281 O288 1.969 . S
Zn281 O294 1.969 . S
Zn281 O295 1.965 . S
Zn281 O297 2.024 . S
C282 O283 1.229 . S
C282 O291 1.058 . S
O283 C282 1.229 . S
C284 O285 1.229 . S
C284 O297 1.058 . S
O285 C284 1.229 . S
O286 Zn280 1.969 . S
O286 C289 1.267 . S
O287 Zn280 1.965 . S
O287 C298 1.260 . S
O288 Zn281 1.969 . S
O288 C298 1.258 . S
C289 O286 1.267 . S
C289 O290 1.228 . S
O290 C289 1.228 . S
O291 Zn280 2.024 . S
O291 C282 1.058 . S
C292 O293 1.228 . S
C292 O294 1.267 . S
O293 C292 1.228 . S
O294 Zn281 1.969 . S
O294 C292 1.267 . S
O295 Zn281 1.965 . S
O295 C299 1.260 . S
O296 Zn280 1.969 . S
O296 C299 1.258 . S
O297 Zn281 2.024 . S
O297 C284 1.058 . S
C298 O287 1.260 . S
C298 O288 1.258 . S
C299 O295 1.260 . S
C299 O296 1.258 . S
Zn300 O306 1.969 . S
Zn300 O307 1.965 . S
Zn300 O311 2.024 . S
Zn300 O316 1.969 . S
Zn301 O308 1.969 . S
Zn301 O314 1.969 . S
Zn301 O315 1.965 . S
Zn301 O317 2.024 . S
C302 O303 1.229 . S
C302 O311 1.058 . S
O303 C302 1.229 . S
C304 O305 1.229 . S
C304 O317 1.058 . S
O305 C304 1.229 . S
O306 Zn300 1.969 . S
O306 C309 1.267 . S
O307 Zn300 1.965 . S
O307 C318 1.260 . S
O308 Zn301 1.969 . S
O308 C318 1.258 . S
C309 O306 1.267 . S
C309 O310 1.228 . S
O310 C309 1.228 . S
O311 Zn300 2.024 . S
O311 C302 1.058 . S
C312 O313 1.228 . S
C312 O314 1.267 . S
O313 C312 1.228 . S
O314 Zn301 1.969 . S
O314 C312 1.267 . S
O315 Zn301 1.965 . S
O315 C319 1.260 . S
O316 Zn300 1.969 . S
O316 C319 1.258 . S
O317 Zn301 2.024 . S
O317 C304 1.058 . S
C318 O307 1.260 . S
C318 O308 1.258 . S
C319 O315 1.260 . S
C319 O316 1.258 . S
C320 C321 1.391 . S
C320 C322 1.394 . S
C320 H336 0.931 . S
C321 C320 1.391 . S
C321 C325 1.376 . S
C322 C320 1.394 . S
C322 C323 1.369 . S
C322 C326 1.531 . S
C323 C322 1.369 . S
C323 C324 1.410 . S
C323 C331 1.503 . S
C324 C323 1.410 . S
C324 C325 1.392 . S
C324 C327 1.511 . S
C325 C321 1.376 . S
C325 C324 1.392 . S
C325 H337 0.929 . S
C326 C322 1.531 . S
C326 H338 0.960 . S
C326 H339 0.962 . S
C326 H340 0.960 . S
C327 C324 1.511 . S
C327 H341 0.961 . S
C327 H342 0.961 . S
C327 H343 0.961 . S
C328 C329 1.370 . S
C328 C330 1.363 . S
C328 H344 0.931 . S
C329 C328 1.370 . S
C329 C333 1.408 . S
C330 C328 1.363 . S
C330 C331 1.370 . S
C330 C334 1.524 . S
C331 C323 1.503 . S
C331 C330 1.370 . S
C331 C332 1.403 . S
C332 C331 1.403 . S
C332 C333 1.404 . S
C332 C335 1.539 . S
C333 C329 1.408 . S
C333 C332 1.404 . S
C333 H345 0.930 . S
C334 C330 1.524 . S
C334 H346 0.956 . S
C334 H347 0.961 . S
C334 H348 0.961 . S
C335 C332 1.539 . S
C335 H349 0.958 . S
C335 H350 0.961 . S
C335 H351 0.960 . S
H336 C320 0.931 . S
H337 C325 0.929 . S
H338 C326 0.960 . S
H339 C326 0.962 . S
H340 C326 0.960 . S
H341 C327 0.961 . S
H342 C327 0.961 . S
H343 C327 0.961 . S
H344 C328 0.931 . S
H345 C333 0.930 . S
H346 C334 0.956 . S
H347 C334 0.961 . S
H348 C334 0.961 . S
H349 C335 0.958 . S
H350 C335 0.961 . S
H351 C335 0.960 . S
C352 C353 1.391 . S
C352 C354 1.394 1_455 S
C352 H368 0.931 1_455 S
C353 C352 1.391 . S
C353 C357 1.376 . S
C354 C352 1.394 1_655 S
C354 C355 1.369 1_655 S
C354 C358 1.531 . S
C355 C354 1.369 1_455 S
C355 C356 1.410 . S
C355 C363 1.503 1_455 S
C356 C355 1.410 . S
C356 C357 1.392 . S
C356 C359 1.511 . S
C357 C353 1.376 . S
C357 C356 1.392 . S
C357 H369 0.929 . S
C358 C354 1.531 . S
C358 H370 0.960 . S
C358 H371 0.962 . S
C358 H372 0.960 . S
C359 C356 1.511 . S
C359 H373 0.961 . S
C359 H374 0.961 . S
C359 H375 0.961 . S
C360 C361 1.370 . S
C360 C362 1.363 . S
C360 H376 0.931 . S
C361 C360 1.370 . S
C361 C365 1.408 . S
C362 C360 1.363 . S
C362 C363 1.370 . S
C362 C366 1.524 . S
C363 C355 1.503 1_655 S
C363 C362 1.370 . S
C363 C364 1.403 . S
C364 C363 1.403 . S
C364 C365 1.404 . S
C364 C367 1.539 . S
C365 C361 1.408 . S
C365 C364 1.404 . S
C365 H377 0.930 . S
C366 C362 1.524 . S
C366 H378 0.956 . S
C366 H379 0.961 1_655 S
C366 H380 0.961 . S
C367 C364 1.539 . S
C367 H381 0.958 . S
C367 H382 0.961 . S
C367 H383 0.960 1_655 S
H368 C352 0.931 1_655 S
H369 C357 0.929 . S
H370 C358 0.960 . S
H371 C358 0.962 . S
H372 C358 0.960 . S
H373 C359 0.961 . S
H374 C359 0.961 . S
H375 C359 0.961 . S
H376 C360 0.931 . S
H377 C365 0.930 . S
H378 C366 0.956 . S
H379 C366 0.961 1_455 S
H380 C366 0.961 . S
H381 C367 0.958 . S
H382 C367 0.961 . S
H383 C367 0.960 1_455 S
C384 C385 1.391 . S
C384 C386 1.394 . S
C384 H400 0.931 . S
C385 C384 1.391 . S
C385 C389 1.376 . S
C386 C384 1.394 . S
C386 C387 1.369 . S
C386 C390 1.531 . S
C387 C386 1.369 . S
C387 C388 1.410 . S
C387 C395 1.503 1_565 S
C388 C387 1.410 . S
C388 C389 1.392 . S
C388 C391 1.511 . S
C389 C385 1.376 . S
C389 C388 1.392 . S
C389 H401 0.929 . S
C390 C386 1.531 . S
C390 H402 0.960 . S
C390 H403 0.962 . S
C390 H404 0.960 . S
C391 C388 1.511 . S
C391 H405 0.961 . S
C391 H406 0.961 . S
C391 H407 0.961 1_565 S
C392 C393 1.370 1_565 S
C392 C394 1.363 . S
C392 H408 0.931 . S
C393 C392 1.370 1_545 S
C393 C397 1.408 . S
C394 C392 1.363 . S
C394 C395 1.370 1_565 S
C394 C398 1.524 . S
C395 C387 1.503 1_545 S
C395 C394 1.370 1_545 S
C395 C396 1.403 . S
C396 C395 1.403 . S
C396 C397 1.404 . S
C396 C399 1.539 . S
C397 C393 1.408 . S
C397 C396 1.404 . S
C397 H409 0.930 . S
C398 C394 1.524 . S
C398 H410 0.956 . S
C398 H411 0.961 . S
C398 H412 0.961 . S
C399 C396 1.539 . S
C399 H413 0.958 . S
C399 H414 0.961 . S
C399 H415 0.960 . S
H400 C384 0.931 . S
H401 C389 0.929 . S
H402 C390 0.960 . S
H403 C390 0.962 . S
H404 C390 0.960 . S
H405 C391 0.961 . S
H406 C391 0.961 . S
H407 C391 0.961 1_545 S
H408 C392 0.931 . S
H409 C397 0.930 . S
H410 C398 0.956 . S
H411 C398 0.961 . S
H412 C398 0.961 . S
H413 C399 0.958 . S
H414 C399 0.961 . S
H415 C399 0.960 . S
C416 C417 1.391 . S
C416 C418 1.394 . S
C416 H432 0.931 . S
C417 C416 1.391 . S
C417 C421 1.376 . S
C418 C416 1.394 . S
C418 C419 1.369 . S
C418 C422 1.531 . S
C419 C418 1.369 . S
C419 C420 1.410 . S
C419 C427 1.503 . S
C420 C419 1.410 . S
C420 C421 1.392 . S
C420 C423 1.511 . S
C421 C417 1.376 . S
C421 C420 1.392 . S
C421 H433 0.929 . S
C422 C418 1.531 . S
C422 H434 0.960 . S
C422 H435 0.962 . S
C422 H436 0.960 . S
C423 C420 1.511 . S
C423 H437 0.961 . S
C423 H438 0.961 . S
C423 H439 0.961 . S
C424 C425 1.370 . S
C424 C426 1.363 . S
C424 H440 0.931 . S
C425 C424 1.370 . S
C425 C429 1.408 . S
C426 C424 1.363 . S
C426 C427 1.370 . S
C426 C430 1.524 . S
C427 C419 1.503 . S
C427 C426 1.370 . S
C427 C428 1.403 . S
C428 C427 1.403 . S
C428 C429 1.404 . S
C428 C431 1.539 . S
C429 C425 1.408 . S
C429 C428 1.404 . S
C429 H441 0.930 . S
C430 C426 1.524 . S
C430 H442 0.956 . S
C430 H443 0.961 . S
C430 H444 0.961 . S
C431 C428 1.539 . S
C431 H445 0.958 . S
C431 H446 0.961 . S
C431 H447 0.960 . S
H432 C416 0.931 . S
H433 C421 0.929 . S
H434 C422 0.960 . S
H435 C422 0.962 . S
H436 C422 0.960 . S
H437 C423 0.961 . S
H438 C423 0.961 . S
H439 C423 0.961 . S
H440 C424 0.931 . S
H441 C429 0.930 . S
H442 C430 0.956 . S
H443 C430 0.961 . S
H444 C430 0.961 . S
H445 C431 0.958 . S
H446 C431 0.961 . S
H447 C431 0.960 . S
C448 C449 1.391 . S
C448 C450 1.394 1_565 S
C448 H464 0.931 . S
C449 C448 1.391 . S
C449 C453 1.376 . S
C450 C448 1.394 1_545 S
C450 C451 1.369 1_545 S
C450 C454 1.531 . S
C451 C450 1.369 1_565 S
C451 C452 1.410 . S
C451 C459 1.503 1_565 S
C452 C451 1.410 . S
C452 C453 1.392 . S
C452 C455 1.511 . S
C453 C449 1.376 . S
C453 C452 1.392 . S
C453 H465 0.929 . S
C454 C450 1.531 . S
C454 H466 0.960 . S
C454 H467 0.962 . S
C454 H468 0.960 . S
C455 C452 1.511 . S
C455 H469 0.961 . S
C455 H470 0.961 . S
C455 H471 0.961 . S
C456 C457 1.370 . S
C456 C458 1.363 . S
C456 H472 0.931 . S
C457 C456 1.370 . S
C457 C461 1.408 . S
C458 C456 1.363 . S
C458 C459 1.370 . S
C458 C462 1.524 1_545 S
C459 C451 1.503 1_545 S
C459 C458 1.370 . S
C459 C460 1.403 . S
C460 C459 1.403 . S
C460 C461 1.404 . S
C460 C463 1.539 . S
C461 C457 1.408 . S
C461 C460 1.404 . S
C461 H473 0.930 . S
C462 C458 1.524 1_565 S
C462 H474 0.954 1_565 S
C462 H475 0.961 . S
C462 H476 0.961 . S
C463 C460 1.539 . S
C463 H477 0.958 . S
C463 H478 0.961 . S
C463 H479 0.960 1_545 S
H464 C448 0.931 . S
H465 C453 0.929 . S
H466 C454 0.960 . S
H467 C454 0.962 . S
H468 C454 0.960 . S
H469 C455 0.961 . S
H470 C455 0.961 . S
H471 C455 0.961 . S
H472 C456 0.931 . S
H473 C461 0.930 . S
H474 C462 0.954 1_545 S
H475 C462 0.961 . S
H476 C462 0.961 . S
H477 C463 0.958 . S
H478 C463 0.961 . S
H479 C463 0.960 1_565 S
C480 C481 1.391 . S
C480 C482 1.394 . S
C480 H496 0.931 . S
C481 C480 1.391 . S
C481 C485 1.376 . S
C482 C480 1.394 . S
C482 C483 1.369 . S
C482 C486 1.531 . S
C483 C482 1.369 . S
C483 C484 1.410 . S
C483 C491 1.503 . S
C484 C483 1.410 . S
C484 C485 1.392 . S
C484 C487 1.511 . S
C485 C481 1.376 . S
C485 C484 1.392 . S
C485 H497 0.929 . S
C486 C482 1.531 . S
C486 H498 0.960 . S
C486 H499 0.962 . S
C486 H500 0.960 . S
C487 C484 1.511 . S
C487 H501 0.961 . S
C487 H502 0.961 . S
C487 H503 0.961 . S
C488 C489 1.370 . S
C488 C490 1.363 . S
C488 H504 0.931 . S
C489 C488 1.370 . S
C489 C493 1.408 . S
C490 C488 1.363 . S
C490 C491 1.370 . S
C490 C494 1.524 . S
C491 C483 1.503 . S
C491 C490 1.370 . S
C491 C492 1.403 . S
C492 C491 1.403 . S
C492 C493 1.404 . S
C492 C495 1.539 . S
C493 C489 1.408 . S
C493 C492 1.404 . S
C493 H505 0.930 . S
C494 C490 1.524 . S
C494 H506 0.956 . S
C494 H507 0.961 . S
C494 H508 0.961 . S
C495 C492 1.539 . S
C495 H509 0.958 . S
C495 H510 0.961 . S
C495 H511 0.960 . S
H496 C480 0.931 . S
H497 C485 0.929 . S
H498 C486 0.960 . S
H499 C486 0.962 . S
H500 C486 0.960 . S
H501 C487 0.961 . S
H502 C487 0.961 . S
H503 C487 0.961 . S
H504 C488 0.931 . S
H505 C493 0.930 . S
H506 C494 0.956 . S
H507 C494 0.961 . S
H508 C494 0.961 . S
H509 C495 0.958 . S
H510 C495 0.961 . S
H511 C495 0.960 . S
C512 C513 1.391 . S
C512 C514 1.394 . S
C512 H528 0.931 . S
C513 C512 1.391 . S
C513 C517 1.376 . S
C514 C512 1.394 . S
C514 C515 1.369 . S
C514 C518 1.531 . S
C515 C514 1.369 . S
C515 C516 1.410 . S
C515 C523 1.503 . S
C516 C515 1.410 . S
C516 C517 1.392 . S
C516 C519 1.511 . S
C517 C513 1.376 . S
C517 C516 1.392 . S
C517 H529 0.929 . S
C518 C514 1.531 . S
C518 H530 0.960 . S
C518 H531 0.962 . S
C518 H532 0.960 . S
C519 C516 1.511 . S
C519 H533 0.961 . S
C519 H534 0.961 . S
C519 H535 0.961 . S
C520 C521 1.370 . S
C520 C522 1.363 . S
C520 H536 0.931 . S
C521 C520 1.370 . S
C521 C525 1.408 . S
C522 C520 1.363 . S
C522 C523 1.370 . S
C522 C526 1.524 . S
C523 C515 1.503 . S
C523 C522 1.370 . S
C523 C524 1.403 . S
C524 C523 1.403 . S
C524 C525 1.404 . S
C524 C527 1.539 . S
C525 C521 1.408 . S
C525 C524 1.404 . S
C525 H537 0.930 . S
C526 C522 1.524 . S
C526 H538 0.956 . S
C526 H539 0.961 . S
C526 H540 0.961 . S
C527 C524 1.539 . S
C527 H541 0.958 . S
C527 H542 0.961 . S
C527 H543 0.960 . S
H528 C512 0.931 . S
H529 C517 0.929 . S
H530 C518 0.960 . S
H531 C518 0.962 . S
H532 C518 0.960 . S
H533 C519 0.961 . S
H534 C519 0.961 . S
H535 C519 0.961 . S
H536 C520 0.931 . S
H537 C525 0.930 . S
H538 C526 0.956 . S
H539 C526 0.961 . S
H540 C526 0.961 . S
H541 C527 0.958 . S
H542 C527 0.961 . S
H543 C527 0.960 . S
C544 C545 1.391 . S
C544 C546 1.394 1_455 S
C544 H560 0.931 1_455 S
C545 C544 1.391 . S
C545 C549 1.376 . S
C546 C544 1.394 1_655 S
C546 C547 1.369 1_655 S
C546 C550 1.531 . S
C547 C546 1.369 1_455 S
C547 C548 1.410 . S
C547 C555 1.503 1_455 S
C548 C547 1.410 . S
C548 C549 1.392 . S
C548 C551 1.511 . S
C549 C545 1.376 . S
C549 C548 1.392 . S
C549 H561 0.929 . S
C550 C546 1.531 . S
C550 H562 0.960 . S
C550 H563 0.962 . S
C550 H564 0.960 . S
C551 C548 1.511 . S
C551 H565 0.961 . S
C551 H566 0.961 . S
C551 H567 0.961 . S
C552 C553 1.370 . S
C552 C554 1.363 . S
C552 H568 0.931 . S
C553 C552 1.370 . S
C553 C557 1.408 . S
C554 C552 1.363 . S
C554 C555 1.370 . S
C554 C558 1.524 . S
C555 C547 1.503 1_655 S
C555 C554 1.370 . S
C555 C556 1.402 1_655 S
C556 C555 1.402 1_455 S
C556 C557 1.405 1_455 S
C556 C559 1.538 . S
C557 C553 1.408 . S
C557 C556 1.405 1_655 S
C557 H569 0.930 . S
C558 C554 1.524 . S
C558 H570 0.956 . S
C558 H571 0.961 1_655 S
C558 H572 0.961 . S
C559 C556 1.538 . S
C559 H573 0.958 . S
C559 H574 0.961 . S
C559 H575 0.960 . S
H560 C544 0.931 1_655 S
H561 C549 0.929 . S
H562 C550 0.960 . S
H563 C550 0.962 . S
H564 C550 0.960 . S
H565 C551 0.961 . S
H566 C551 0.961 . S
H567 C551 0.961 . S
H568 C552 0.931 . S
H569 C557 0.930 . S
H570 C558 0.956 . S
H571 C558 0.961 1_455 S
H572 C558 0.961 . S
H573 C559 0.958 . S
H574 C559 0.961 . S
H575 C559 0.960 . S
C576 C577 1.391 . S
C576 C578 1.394 . S
C576 H592 0.931 . S
C577 C576 1.391 . S
C577 C581 1.376 . S
C578 C576 1.394 . S
C578 C579 1.369 . S
C578 C582 1.531 . S
C579 C578 1.369 . S
C579 C580 1.410 . S
C579 C587 1.503 . S
C580 C579 1.410 . S
C580 C581 1.392 . S
C580 C583 1.511 . S
C581 C577 1.376 . S
C581 C580 1.392 . S
C581 H593 0.929 . S
C582 C578 1.531 . S
C582 H594 0.960 . S
C582 H595 0.962 . S
C582 H596 0.960 . S
C583 C580 1.511 . S
C583 H597 0.961 . S
C583 H598 0.961 . S
C583 H599 0.961 . S
C584 C585 1.370 . S
C584 C586 1.363 . S
C584 H600 0.931 . S
C585 C584 1.370 . S
C585 C589 1.408 . S
C586 C584 1.363 . S
C586 C587 1.370 . S
C586 C590 1.524 . S
C587 C579 1.503 . S
C587 C586 1.370 . S
C587 C588 1.403 . S
C588 C587 1.403 . S
C588 C589 1.404 . S
C588 C591 1.539 . S
C589 C585 1.408 . S
C589 C588 1.404 . S
C589 H601 0.930 . S
C590 C586 1.524 . S
C590 H602 0.956 . S
C590 H603 0.961 . S
C590 H604 0.961 . S
C591 C588 1.539 . S
C591 H605 0.958 . S
C591 H606 0.961 . S
C591 H607 0.960 . S
H592 C576 0.931 . S
H593 C581 0.929 . S
H594 C582 0.960 . S
H595 C582 0.962 . S
H596 C582 0.960 . S
H597 C583 0.961 . S
H598 C583 0.961 . S
H599 C583 0.961 . S
H600 C584 0.931 . S
H601 C589 0.930 . S
H602 C590 0.956 . S
H603 C590 0.961 . S
H604 C590 0.961 . S
H605 C591 0.958 . S
H606 C591 0.961 . S
H607 C591 0.960 . S
C608 C609 1.391 . S
C608 C610 1.394 1_655 S
C608 H624 0.931 1_655 S
C609 C608 1.391 . S
C609 C613 1.376 . S
C610 C608 1.394 1_455 S
C610 C611 1.369 1_455 S
C610 C614 1.531 . S
C611 C610 1.369 1_655 S
C611 C612 1.410 . S
C611 C619 1.503 1_655 S
C612 C611 1.410 . S
C612 C613 1.392 . S
C612 C615 1.511 . S
C613 C609 1.376 . S
C613 C612 1.392 . S
C613 H625 0.929 . S
C614 C610 1.531 . S
C614 H626 0.960 . S
C614 H627 0.962 . S
C614 H628 0.960 . S
C615 C612 1.511 . S
C615 H629 0.961 . S
C615 H630 0.961 . S
C615 H631 0.961 . S
C616 C617 1.370 . S
C616 C618 1.363 . S
C616 H632 0.931 . S
C617 C616 1.370 . S
C617 C621 1.408 . S
C618 C616 1.363 . S
C618 C619 1.370 . S
C618 C622 1.524 . S
C619 C611 1.503 1_455 S
C619 C618 1.370 . S
C619 C620 1.403 . S
C620 C619 1.403 . S
C620 C621 1.404 . S
C620 C623 1.539 1_455 S
C621 C617 1.408 . S
C621 C620 1.404 . S
C621 H633 0.930 . S
C622 C618 1.524 . S
C622 H634 0.956 . S
C622 H635 0.961 . S
C622 H636 0.961 . S
C623 C620 1.539 1_655 S
C623 H637 0.958 . S
C623 H638 0.961 . S
C623 H639 0.960 . S
H624 C608 0.931 1_455 S
H625 C613 0.929 . S
H626 C614 0.960 . S
H627 C614 0.962 . S
H628 C614 0.960 . S
H629 C615 0.961 . S
H630 C615 0.961 . S
H631 C615 0.961 . S
H632 C616 0.931 . S
H633 C621 0.930 . S
H634 C622 0.956 . S
H635 C622 0.961 . S
H636 C622 0.961 . S
H637 C623 0.958 . S
H638 C623 0.961 . S
H639 C623 0.960 . S
C640 C641 1.391 1_545 S
C640 C642 1.394 . S
C640 H656 0.931 . S
C641 C640 1.391 1_565 S
C641 C645 1.376 . S
C642 C640 1.394 . S
C642 C643 1.369 . S
C642 C646 1.531 . S
C643 C642 1.369 . S
C643 C644 1.410 1_545 S
C643 C651 1.503 . S
C644 C643 1.410 1_565 S
C644 C645 1.392 . S
C644 C647 1.511 . S
C645 C641 1.376 . S
C645 C644 1.392 . S
C645 H657 0.929 . S
C646 C642 1.531 . S
C646 H658 0.960 . S
C646 H659 0.962 . S
C646 H660 0.960 . S
C647 C644 1.511 . S
C647 H661 0.961 . S
C647 H662 0.961 . S
C647 H663 0.961 . S
C648 C649 1.370 . S
C648 C650 1.363 . S
C648 H664 0.931 . S
C649 C648 1.370 . S
C649 C653 1.408 . S
C650 C648 1.363 . S
C650 C651 1.370 . S
C650 C654 1.524 . S
C651 C643 1.503 . S
C651 C650 1.370 . S
C651 C652 1.403 . S
C652 C651 1.403 . S
C652 C653 1.404 . S
C652 C655 1.539 . S
C653 C649 1.408 . S
C653 C652 1.404 . S
C653 H665 0.930 . S
C654 C650 1.524 . S
C654 H666 0.956 . S
C654 H667 0.961 . S
C654 H668 0.961 . S
C655 C652 1.539 . S
C655 H669 0.958 . S
C655 H670 0.961 . S
C655 H671 0.960 1_545 S
H656 C640 0.931 . S
H657 C645 0.929 . S
H658 C646 0.960 . S
H659 C646 0.962 . S
H660 C646 0.960 . S
H661 C647 0.961 . S
H662 C647 0.961 . S
H663 C647 0.961 . S
H664 C648 0.931 . S
H665 C653 0.930 . S
H666 C654 0.956 . S
H667 C654 0.961 . S
H668 C654 0.961 . S
H669 C655 0.958 . S
H670 C655 0.961 . S
H671 C655 0.960 1_565 S
C672 C673 1.391 . S
C672 C674 1.394 . S
C672 H688 0.931 . S
C673 C672 1.391 . S
C673 C677 1.376 . S
C674 C672 1.394 . S
C674 C675 1.369 . S
C674 C678 1.531 . S
C675 C674 1.369 . S
C675 C676 1.410 . S
C675 C683 1.503 . S
C676 C675 1.410 . S
C676 C677 1.392 . S
C676 C679 1.511 . S
C677 C673 1.376 . S
C677 C676 1.392 . S
C677 H689 0.929 . S
C678 C674 1.531 . S
C678 H690 0.960 . S
C678 H691 0.962 . S
C678 H692 0.960 . S
C679 C676 1.511 . S
C679 H693 0.961 . S
C679 H694 0.961 . S
C679 H695 0.961 . S
C680 C681 1.370 . S
C680 C682 1.363 . S
C680 H696 0.931 . S
C681 C680 1.370 . S
C681 C685 1.408 . S
C682 C680 1.363 . S
C682 C683 1.370 . S
C682 C686 1.524 . S
C683 C675 1.503 . S
C683 C682 1.370 . S
C683 C684 1.403 . S
C684 C683 1.403 . S
C684 C685 1.404 . S
C684 C687 1.539 . S
C685 C681 1.408 . S
C685 C684 1.404 . S
C685 H697 0.930 . S
C686 C682 1.524 . S
C686 H698 0.956 . S
C686 H699 0.961 . S
C686 H700 0.961 . S
C687 C684 1.539 . S
C687 H701 0.958 . S
C687 H702 0.961 . S
C687 H703 0.960 . S
H688 C672 0.931 . S
H689 C677 0.929 . S
H690 C678 0.960 . S
H691 C678 0.962 . S
H692 C678 0.960 . S
H693 C679 0.961 . S
H694 C679 0.961 . S
H695 C679 0.961 . S
H696 C680 0.931 . S
H697 C685 0.930 . S
H698 C686 0.956 . S
H699 C686 0.961 . S
H700 C686 0.961 . S
H701 C687 0.958 . S
H702 C687 0.961 . S
H703 C687 0.960 . S
C704 C705 1.391 . S
C704 C706 1.394 . S
C704 H720 0.931 . S
C705 C704 1.391 . S
C705 C709 1.376 . S
C706 C704 1.394 . S
C706 C707 1.369 . S
C706 C710 1.531 . S
C707 C706 1.369 . S
C707 C708 1.410 . S
C707 C715 1.515 . S
C708 C707 1.410 . S
C708 C709 1.392 . S
C708 C711 1.511 1_545 S
C709 C705 1.376 . S
C709 C708 1.392 . S
C709 H721 0.929 . S
C710 C706 1.531 . S
C710 H722 0.960 . S
C710 H723 0.962 . S
C710 H724 0.960 . S
C711 C708 1.511 1_565 S
C711 H725 0.961 . S
C711 H726 0.961 . S
C711 H727 0.961 . S
C712 C713 1.370 . S
C712 C714 1.363 . S
C712 H728 0.931 . S
C713 C712 1.370 . S
C713 C717 1.408 . S
C714 C712 1.363 . S
C714 C715 1.356 1_565 S
C714 C718 1.524 . S
C715 C707 1.515 . S
C715 C714 1.356 1_545 S
C715 C716 1.406 . S
C716 C715 1.406 . S
C716 C717 1.404 1_545 S
C716 C719 1.539 . S
C717 C713 1.408 . S
C717 C716 1.404 1_565 S
C717 H729 0.930 . S
C718 C714 1.524 . S
C718 H730 0.956 . S
C718 H731 0.961 . S
C718 H732 0.961 . S
C719 C716 1.539 . S
C719 H733 0.958 . S
C719 H734 0.961 . S
C719 H735 0.960 . S
H720 C704 0.931 . S
H721 C709 0.929 . S
H722 C710 0.960 . S
H723 C710 0.962 . S
H724 C710 0.960 . S
H725 C711 0.961 . S
H726 C711 0.961 . S
H727 C711 0.961 . S
H728 C712 0.931 . S
H729 C717 0.930 . S
H730 C718 0.956 . S
H731 C718 0.961 . S
H732 C718 0.961 . S
H733 C719 0.958 . S
H734 C719 0.961 . S
H735 C719 0.960 . S
C736 C737 1.391 . S
C736 C738 1.394 . S
C736 H752 0.931 . S
C737 C736 1.391 . S
C737 C741 1.376 . S
C738 C736 1.394 . S
C738 C739 1.369 . S
C738 C742 1.531 . S
C739 C738 1.369 . S
C739 C740 1.410 . S
C739 C747 1.503 . S
C740 C739 1.410 . S
C740 C741 1.392 . S
C740 C743 1.511 . S
C741 C737 1.376 . S
C741 C740 1.392 . S
C741 H753 0.929 . S
C742 C738 1.531 . S
C742 H754 0.960 . S
C742 H755 0.962 . S
C742 H756 0.960 . S
C743 C740 1.511 . S
C743 H757 0.961 . S
C743 H758 0.961 . S
C743 H759 0.961 . S
C744 C745 1.370 . S
C744 C746 1.363 . S
C744 H760 0.931 . S
C745 C744 1.370 . S
C745 C749 1.408 . S
C746 C744 1.363 . S
C746 C747 1.370 . S
C746 C750 1.524 . S
C747 C739 1.503 . S
C747 C746 1.370 . S
C747 C748 1.403 . S
C748 C747 1.403 . S
C748 C749 1.404 . S
C748 C751 1.539 . S
C749 C745 1.408 . S
C749 C748 1.404 . S
C749 H761 0.930 . S
C750 C746 1.524 . S
C750 H762 0.956 . S
C750 H763 0.961 . S
C750 H764 0.961 . S
C751 C748 1.539 . S
C751 H765 0.958 . S
C751 H766 0.961 . S
C751 H767 0.960 . S
H752 C736 0.931 . S
H753 C741 0.929 . S
H754 C742 0.960 . S
H755 C742 0.962 . S
H756 C742 0.960 . S
H757 C743 0.961 . S
H758 C743 0.961 . S
H759 C743 0.961 . S
H760 C744 0.931 . S
H761 C749 0.930 . S
H762 C750 0.956 . S
H763 C750 0.961 . S
H764 C750 0.961 . S
H765 C751 0.958 . S
H766 C751 0.961 . S
H767 C751 0.960 . S
C768 C769 1.391 . S
C768 C770 1.394 . S
C768 H784 0.931 . S
C769 C768 1.391 . S
C769 C773 1.376 . S
C770 C768 1.394 . S
C770 C771 1.369 . S
C770 C774 1.531 . S
C771 C770 1.369 . S
C771 C772 1.410 . S
C771 C779 1.503 . S
C772 C771 1.410 . S
C772 C773 1.392 . S
C772 C775 1.511 . S
C773 C769 1.376 . S
C773 C772 1.392 . S
C773 H785 0.929 . S
C774 C770 1.531 . S
C774 H786 0.960 . S
C774 H787 0.962 . S
C774 H788 0.960 . S
C775 C772 1.511 . S
C775 H789 0.961 . S
C775 H790 0.961 . S
C775 H791 0.961 . S
C776 C777 1.370 . S
C776 C778 1.363 . S
C776 H792 0.931 . S
C777 C776 1.370 . S
C777 C781 1.408 . S
C778 C776 1.363 . S
C778 C779 1.370 . S
C778 C782 1.524 . S
C779 C771 1.503 . S
C779 C778 1.370 . S
C779 C780 1.403 . S
C780 C779 1.403 . S
C780 C781 1.404 . S
C780 C783 1.539 . S
C781 C777 1.408 . S
C781 C780 1.404 . S
C781 H793 0.930 . S
C782 C778 1.524 . S
C782 H794 0.956 . S
C782 H795 0.961 . S
C782 H796 0.961 . S
C783 C780 1.539 . S
C783 H797 0.958 . S
C783 H798 0.961 . S
C783 H799 0.960 . S
H784 C768 0.931 . S
H785 C773 0.929 . S
H786 C774 0.960 . S
H787 C774 0.962 . S
H788 C774 0.960 . S
H789 C775 0.961 . S
H790 C775 0.961 . S
H791 C775 0.961 . S
H792 C776 0.931 . S
H793 C781 0.930 . S
H794 C782 0.956 . S
H795 C782 0.961 . S
H796 C782 0.961 . S
H797 C783 0.958 . S
H798 C783 0.961 . S
H799 C783 0.960 . S
C800 C801 1.391 . S
C800 C802 1.394 . S
C800 H816 0.931 . S
C801 C800 1.391 . S
C801 C805 1.404 . S
C802 C800 1.394 . S
C802 C803 1.369 . S
C802 C806 1.531 . S
C803 C802 1.369 . S
C803 C804 1.410 1_455 S
C803 C811 1.503 1_455 S
C804 C803 1.410 1_655 S
C804 C805 1.380 1_655 S
C804 C807 1.511 . S
C805 C801 1.404 . S
C805 C804 1.380 1_455 S
C805 H817 0.914 1_455 S
C806 C802 1.531 . S
C806 H818 0.960 . S
C806 H819 0.962 . S
C806 H820 0.960 . S
C807 C804 1.511 . S
C807 H821 0.961 . S
C807 H822 0.961 . S
C807 H823 0.961 . S
C808 C809 1.370 . S
C808 C810 1.363 . S
C808 H824 0.931 . S
C809 C808 1.370 . S
C809 C813 1.408 . S
C810 C808 1.363 . S
C810 C811 1.370 . S
C810 C814 1.524 . S
C811 C803 1.503 1_655 S
C811 C810 1.370 . S
C811 C812 1.403 . S
C812 C811 1.403 . S
C812 C813 1.404 . S
C812 C815 1.539 1_655 S
C813 C809 1.408 . S
C813 C812 1.404 . S
C813 H825 0.930 . S
C814 C810 1.524 . S
C814 H826 0.956 . S
C814 H827 0.961 . S
C814 H828 0.961 . S
C815 C812 1.539 1_455 S
C815 H829 0.958 . S
C815 H830 0.961 . S
C815 H831 0.960 . S
H816 C800 0.931 . S
H817 C805 0.914 1_655 S
H818 C806 0.960 . S
H819 C806 0.962 . S
H820 C806 0.960 . S
H821 C807 0.961 . S
H822 C807 0.961 . S
H823 C807 0.961 . S
H824 C808 0.931 . S
H825 C813 0.930 . S
H826 C814 0.956 . S
H827 C814 0.961 . S
H828 C814 0.961 . S
H829 C815 0.958 . S
H830 C815 0.961 . S
H831 C815 0.960 . S
C832 C833 1.391 . S
C832 C834 1.394 . S
C832 H848 0.931 . S
C833 C832 1.391 . S
C833 C837 1.376 . S
C834 C832 1.394 . S
C834 C835 1.369 . S
C834 C838 1.531 1_455 S
C835 C834 1.369 . S
C835 C836 1.410 . S
C835 C843 1.503 . S
C836 C835 1.410 . S
C836 C837 1.392 . S
C836 C839 1.511 . S
C837 C833 1.376 . S
C837 C836 1.392 . S
C837 H849 0.929 . S
C838 C834 1.531 1_655 S
C838 H850 0.960 . S
C838 H851 0.962 . S
C838 H852 0.960 . S
C839 C836 1.511 . S
C839 H853 0.961 . S
C839 H854 0.961 . S
C839 H855 0.961 . S
C840 C841 1.370 . S
C840 C842 1.363 . S
C840 H856 0.931 . S
C841 C840 1.370 . S
C841 C845 1.408 . S
C842 C840 1.363 . S
C842 C843 1.370 . S
C842 C846 1.524 . S
C843 C835 1.503 . S
C843 C842 1.370 . S
C843 C844 1.403 . S
C844 C843 1.403 . S
C844 C845 1.404 . S
C844 C847 1.539 . S
C845 C841 1.408 . S
C845 C844 1.404 . S
C845 H857 0.930 . S
C846 C842 1.524 . S
C846 H858 0.956 . S
C846 H859 0.961 . S
C846 H860 0.961 . S
C847 C844 1.539 . S
C847 H861 0.958 . S
C847 H862 0.961 . S
C847 H863 0.960 . S
H848 C832 0.931 . S
H849 C837 0.929 . S
H850 C838 0.960 . S
H851 C838 0.962 . S
H852 C838 0.960 . S
H853 C839 0.961 . S
H854 C839 0.961 . S
H855 C839 0.961 . S
H856 C840 0.931 . S
H857 C845 0.930 . S
H858 C846 0.956 . S
H859 C846 0.961 . S
H860 C846 0.961 . S
H861 C847 0.958 . S
H862 C847 0.961 . S
H863 C847 0.960 . S
C864 C865 1.391 . S
C864 C866 1.394 . S
C864 H880 0.931 . S
C865 C864 1.391 . S
C865 C869 1.376 . S
C866 C864 1.394 . S
C866 C867 1.369 . S
C866 C870 1.531 1_545 S
C867 C866 1.369 . S
C867 C868 1.410 . S
C867 C875 1.503 . S
C868 C867 1.410 . S
C868 C869 1.392 . S
C868 C871 1.511 . S
C869 C865 1.376 . S
C869 C868 1.392 . S
C869 H881 0.929 . S
C870 C866 1.531 1_565 S
C870 H882 0.960 . S
C870 H883 0.962 1_565 S
C870 H884 0.960 . S
C871 C868 1.511 . S
C871 H885 0.961 . S
C871 H886 0.961 . S
C871 H887 0.961 . S
C872 C873 1.370 . S
C872 C874 1.363 . S
C872 H888 0.931 . S
C873 C872 1.370 . S
C873 C877 1.408 . S
C874 C872 1.363 . S
C874 C875 1.370 . S
C874 C878 1.524 . S
C875 C867 1.503 . S
C875 C874 1.370 . S
C875 C876 1.403 . S
C876 C875 1.403 . S
C876 C877 1.404 . S
C876 C879 1.539 . S
C877 C873 1.408 . S
C877 C876 1.404 . S
C877 H889 0.930 . S
C878 C874 1.524 . S
C878 H890 0.956 . S
C878 H891 0.961 . S
C878 H892 0.961 . S
C879 C876 1.539 . S
C879 H893 0.958 1_545 S
C879 H894 0.961 . S
C879 H895 0.960 . S
H880 C864 0.931 . S
H881 C869 0.929 . S
H882 C870 0.960 . S
H883 C870 0.962 1_545 S
H884 C870 0.960 . S
H885 C871 0.961 . S
H886 C871 0.961 . S
H887 C871 0.961 . S
H888 C872 0.931 . S
H889 C877 0.930 . S
H890 C878 0.956 . S
H891 C878 0.961 . S
H892 C878 0.961 . S
H893 C879 0.958 1_565 S
H894 C879 0.961 . S
H895 C879 0.960 . S
C896 C897 1.391 . S
C896 C898 1.394 . S
C896 H912 0.931 . S
C897 C896 1.391 . S
C897 C901 1.376 . S
C898 C896 1.394 . S
C898 C899 1.369 . S
C898 C902 1.531 . S
C899 C898 1.369 . S
C899 C900 1.410 . S
C899 C907 1.503 . S
C900 C899 1.410 . S
C900 C901 1.392 . S
C900 C903 1.511 . S
C901 C897 1.376 . S
C901 C900 1.392 . S
C901 H913 0.929 . S
C902 C898 1.531 . S
C902 H914 0.960 . S
C902 H915 0.962 . S
C902 H916 0.960 . S
C903 C900 1.511 . S
C903 H917 0.961 . S
C903 H918 0.961 . S
C903 H919 0.961 . S
C904 C905 1.370 . S
C904 C906 1.363 . S
C904 H920 0.931 . S
C905 C904 1.370 . S
C905 C909 1.408 . S
C906 C904 1.363 . S
C906 C907 1.370 . S
C906 C910 1.524 . S
C907 C899 1.503 . S
C907 C906 1.370 . S
C907 C908 1.403 . S
C908 C907 1.403 . S
C908 C909 1.404 . S
C908 C911 1.539 . S
C909 C905 1.408 . S
C909 C908 1.404 . S
C909 H921 0.930 . S
C910 C906 1.524 . S
C910 H922 0.956 . S
C910 H923 0.961 . S
C910 H924 0.961 . S
C911 C908 1.539 . S
C911 H925 0.958 . S
C911 H926 0.961 . S
C911 H927 0.960 . S
H912 C896 0.931 . S
H913 C901 0.929 . S
H914 C902 0.960 . S
H915 C902 0.962 . S
H916 C902 0.960 . S
H917 C903 0.961 . S
H918 C903 0.961 . S
H919 C903 0.961 . S
H920 C904 0.931 . S
H921 C909 0.930 . S
H922 C910 0.956 . S
H923 C910 0.961 . S
H924 C910 0.961 . S
H925 C911 0.958 . S
H926 C911 0.961 . S
H927 C911 0.960 . S
C928 C929 1.391 . S
C928 C930 1.394 . S
C928 H944 0.931 . S
C929 C928 1.391 . S
C929 C933 1.376 . S
C930 C928 1.394 . S
C930 C931 1.369 . S
C930 C934 1.531 . S
C931 C930 1.369 . S
C931 C932 1.410 . S
C931 C939 1.503 . S
C932 C931 1.410 . S
C932 C933 1.392 . S
C932 C935 1.511 . S
C933 C929 1.376 . S
C933 C932 1.392 . S
C933 H945 0.929 . S
C934 C930 1.531 . S
C934 H946 0.960 . S
C934 H947 0.962 . S
C934 H948 0.960 . S
C935 C932 1.511 . S
C935 H949 0.961 . S
C935 H950 0.961 . S
C935 H951 0.961 . S
C936 C937 1.370 . S
C936 C938 1.363 . S
C936 H952 0.931 . S
C937 C936 1.370 . S
C937 C941 1.408 . S
C938 C936 1.363 . S
C938 C939 1.370 . S
C938 C942 1.524 . S
C939 C931 1.503 . S
C939 C938 1.370 . S
C939 C940 1.403 . S
C940 C939 1.403 . S
C940 C941 1.404 . S
C940 C943 1.539 . S
C941 C937 1.408 . S
C941 C940 1.404 . S
C941 H953 0.930 . S
C942 C938 1.524 . S
C942 H954 0.956 . S
C942 H955 0.961 . S
C942 H956 0.961 . S
C943 C940 1.539 . S
C943 H957 0.958 . S
C943 H958 0.961 . S
C943 H959 0.960 . S
H944 C928 0.931 . S
H945 C933 0.929 . S
H946 C934 0.960 . S
H947 C934 0.962 . S
H948 C934 0.960 . S
H949 C935 0.961 . S
H950 C935 0.961 . S
H951 C935 0.961 . S
H952 C936 0.931 . S
H953 C941 0.930 . S
H954 C942 0.956 . S
H955 C942 0.961 . S
H956 C942 0.961 . S
H957 C943 0.958 . S
H958 C943 0.961 . S
H959 C943 0.960 . S
C960 C961 1.391 . S
C960 C962 1.394 . S
C960 H976 0.931 . S
C961 C960 1.391 . S
C961 C965 1.376 . S
C962 C960 1.394 . S
C962 C963 1.369 . S
C962 C966 1.531 1_655 S
C963 C962 1.369 . S
C963 C964 1.410 . S
C963 C971 1.503 . S
C964 C963 1.410 . S
C964 C965 1.392 . S
C964 C967 1.511 . S
C965 C961 1.376 . S
C965 C964 1.392 . S
C965 H977 0.929 . S
C966 C962 1.531 1_455 S
C966 H978 0.960 1_455 S
C966 H979 0.962 . S
C966 H980 0.960 . S
C967 C964 1.511 . S
C967 H981 0.961 . S
C967 H982 0.961 . S
C967 H983 0.961 . S
C968 C969 1.370 . S
C968 C970 1.363 . S
C968 H984 0.931 . S
C969 C968 1.370 . S
C969 C973 1.408 . S
C970 C968 1.363 . S
C970 C971 1.370 . S
C970 C974 1.524 . S
C971 C963 1.503 . S
C971 C970 1.370 . S
C971 C972 1.403 . S
C972 C971 1.403 . S
C972 C973 1.404 . S
C972 C975 1.539 . S
C973 C969 1.408 . S
C973 C972 1.404 . S
C973 H985 0.930 . S
C974 C970 1.524 . S
C974 H986 0.956 . S
C974 H987 0.961 . S
C974 H988 0.961 . S
C975 C972 1.539 . S
C975 H989 0.958 . S
C975 H990 0.961 . S
C975 H991 0.960 . S
H976 C960 0.931 . S
H977 C965 0.929 . S
H978 C966 0.960 1_655 S
H979 C966 0.962 . S
H980 C966 0.960 . S
H981 C967 0.961 . S
H982 C967 0.961 . S
H983 C967 0.961 . S
H984 C968 0.931 . S
H985 C973 0.930 . S
H986 C974 0.956 . S
H987 C974 0.961 . S
H988 C974 0.961 . S
H989 C975 0.958 . S
H990 C975 0.961 . S
H991 C975 0.960 . S
C992 C993 1.391 . S
C992 C994 1.394 . S
C992 H1008 0.931 . S
C993 C992 1.391 . S
C993 C997 1.376 . S
C994 C992 1.394 . S
C994 C995 1.369 . S
C994 C998 1.531 . S
C995 C994 1.369 . S
C995 C996 1.410 . S
C995 C1003 1.503 . S
C996 C995 1.410 . S
C996 C997 1.392 . S
C996 C999 1.511 . S
C997 C993 1.376 . S
C997 C996 1.392 . S
C997 H1009 0.929 . S
C998 C994 1.531 . S
C998 H1010 0.968 . S
C998 H1011 0.962 . S
C998 H1012 0.960 1_565 S
C999 C996 1.511 . S
C999 H1013 0.961 . S
C999 H1014 0.961 . S
C999 H1015 0.961 . S
C1000 C1001 1.370 . S
C1000 C1002 1.363 . S
C1000 H1016 0.931 . S
C1001 C1000 1.370 . S
C1001 C1005 1.408 . S
C1002 C1000 1.363 . S
C1002 C1003 1.370 . S
C1002 C1006 1.524 . S
C1003 C995 1.503 . S
C1003 C1002 1.370 . S
C1003 C1004 1.403 . S
C1004 C1003 1.403 . S
C1004 C1005 1.404 . S
C1004 C1007 1.539 1_565 S
C1005 C1001 1.408 . S
C1005 C1004 1.404 . S
C1005 H1017 0.930 . S
C1006 C1002 1.524 . S
C1006 H1018 0.956 . S
C1006 H1019 0.961 . S
C1006 H1020 0.961 . S
C1007 C1004 1.539 1_545 S
C1007 H1021 0.958 . S
C1007 H1022 0.961 . S
C1007 H1023 0.960 . S
H1008 C992 0.931 . S
H1009 C997 0.929 . S
H1010 C998 0.968 . S
H1011 C998 0.962 . S
H1012 C998 0.960 1_545 S
H1013 C999 0.961 . S
H1014 C999 0.961 . S
H1015 C999 0.961 . S
H1016 C1000 0.931 . S
H1017 C1005 0.930 . S
H1018 C1006 0.956 . S
H1019 C1006 0.961 . S
H1020 C1006 0.961 . S
H1021 C1007 0.958 . S
H1022 C1007 0.961 . S
H1023 C1007 0.960 . S
C1024 C1025 1.391 . S
C1024 C1026 1.394 . S
C1024 H1040 0.931 . S
C1025 C1024 1.391 . S
C1025 C1029 1.376 . S
C1026 C1024 1.394 . S
C1026 C1027 1.369 . S
C1026 C1030 1.531 . S
C1027 C1026 1.369 . S
C1027 C1028 1.410 . S
C1027 C1035 1.503 . S
C1028 C1027 1.410 . S
C1028 C1029 1.392 . S
C1028 C1031 1.511 . S
C1029 C1025 1.376 . S
C1029 C1028 1.392 . S
C1029 H1041 0.929 . S
C1030 C1026 1.531 . S
C1030 H1042 0.960 . S
C1030 H1043 0.962 . S
C1030 H1044 0.960 . S
C1031 C1028 1.511 . S
C1031 H1045 0.961 . S
C1031 H1046 0.961 . S
C1031 H1047 0.961 . S
C1032 C1033 1.370 . S
C1032 C1034 1.363 . S
C1032 H1048 0.931 . S
C1033 C1032 1.370 . S
C1033 C1037 1.408 . S
C1034 C1032 1.363 . S
C1034 C1035 1.370 . S
C1034 C1038 1.524 . S
C1035 C1027 1.503 . S
C1035 C1034 1.370 . S
C1035 C1036 1.403 . S
C1036 C1035 1.403 . S
C1036 C1037 1.404 . S
C1036 C1039 1.539 . S
C1037 C1033 1.408 . S
C1037 C1036 1.404 . S
C1037 H1049 0.930 . S
C1038 C1034 1.524 . S
C1038 H1050 0.956 . S
C1038 H1051 0.961 . S
C1038 H1052 0.961 . S
C1039 C1036 1.539 . S
C1039 H1053 0.958 . S
C1039 H1054 0.961 . S
C1039 H1055 0.960 . S
H1040 C1024 0.931 . S
H1041 C1029 0.929 . S
H1042 C1030 0.960 . S
H1043 C1030 0.962 . S
H1044 C1030 0.960 . S
H1045 C1031 0.961 . S
H1046 C1031 0.961 . S
H1047 C1031 0.961 . S
H1048 C1032 0.931 . S
H1049 C1037 0.930 . S
H1050 C1038 0.956 . S
H1051 C1038 0.961 . S
H1052 C1038 0.961 . S
H1053 C1039 0.958 . S
H1054 C1039 0.961 . S
H1055 C1039 0.960 . S
C1056 C1057 1.391 . S
C1056 C1058 1.394 . S
C1056 H1072 0.931 . S
C1057 C1056 1.391 . S
C1057 C1061 1.376 . S
C1058 C1056 1.394 . S
C1058 C1059 1.369 . S
C1058 C1062 1.531 . S
C1059 C1058 1.369 . S
C1059 C1060 1.410 . S
C1059 C1067 1.503 . S
C1060 C1059 1.410 . S
C1060 C1061 1.392 . S
C1060 C1063 1.511 . S
C1061 C1057 1.376 . S
C1061 C1060 1.392 . S
C1061 H1073 0.929 . S
C1062 C1058 1.531 . S
C1062 H1074 0.960 . S
C1062 H1075 0.962 . S
C1062 H1076 0.960 . S
C1063 C1060 1.511 . S
C1063 H1077 0.961 . S
C1063 H1078 0.961 . S
C1063 H1079 0.961 . S
C1064 C1065 1.370 . S
C1064 C1066 1.363 . S
C1064 H1080 0.931 . S
C1065 C1064 1.370 . S
C1065 C1069 1.408 . S
C1066 C1064 1.363 . S
C1066 C1067 1.370 . S
C1066 C1070 1.524 . S
C1067 C1059 1.503 . S
C1067 C1066 1.370 . S
C1067 C1068 1.403 . S
C1068 C1067 1.403 . S
C1068 C1069 1.404 . S
C1068 C1071 1.539 . S
C1069 C1065 1.408 . S
C1069 C1068 1.404 . S
C1069 H1081 0.930 . S
C1070 C1066 1.524 . S
C1070 H1082 0.956 . S
C1070 H1083 0.961 . S
C1070 H1084 0.961 . S
C1071 C1068 1.539 . S
C1071 H1085 0.958 . S
C1071 H1086 0.961 . S
C1071 H1087 0.960 . S
H1072 C1056 0.931 . S
H1073 C1061 0.929 . S
H1074 C1062 0.960 . S
H1075 C1062 0.962 . S
H1076 C1062 0.960 . S
H1077 C1063 0.961 . S
H1078 C1063 0.961 . S
H1079 C1063 0.961 . S
H1080 C1064 0.931 . S
H1081 C1069 0.930 . S
H1082 C1070 0.956 . S
H1083 C1070 0.961 . S
H1084 C1070 0.961 . S
H1085 C1071 0.958 . S
H1086 C1071 0.961 . S
H1087 C1071 0.960 . S
C1088 C1089 1.391 . S
C1088 C1090 1.394 . S
C1088 H1104 0.931 . S
C1089 C1088 1.391 . S
C1089 C1093 1.376 . S
C1090 C1088 1.394 . S
C1090 C1091 1.369 . S
C1090 C1094 1.531 . S
C1091 C1090 1.369 . S
C1091 C1092 1.410 . S
C1091 C1099 1.503 . S
C1092 C1091 1.410 . S
C1092 C1093 1.392 . S
C1092 C1095 1.511 . S
C1093 C1089 1.376 . S
C1093 C1092 1.392 . S
C1093 H1105 0.929 . S
C1094 C1090 1.531 . S
C1094 H1106 0.960 . S
C1094 H1107 0.962 . S
C1094 H1108 0.960 . S
C1095 C1092 1.511 . S
C1095 H1109 0.961 . S
C1095 H1110 0.961 . S
C1095 H1111 0.961 . S
C1096 C1097 1.370 . S
C1096 C1098 1.363 . S
C1096 H1112 0.931 . S
C1097 C1096 1.370 . S
C1097 C1101 1.408 . S
C1098 C1096 1.363 . S
C1098 C1099 1.370 . S
C1098 C1102 1.524 . S
C1099 C1091 1.503 . S
C1099 C1098 1.370 . S
C1099 C1100 1.403 . S
C1100 C1099 1.403 . S
C1100 C1101 1.404 . S
C1100 C1103 1.539 . S
C1101 C1097 1.408 . S
C1101 C1100 1.404 . S
C1101 H1113 0.930 . S
C1102 C1098 1.524 . S
C1102 H1114 0.956 . S
C1102 H1115 0.961 . S
C1102 H1116 0.961 . S
C1103 C1100 1.539 . S
C1103 H1117 0.958 . S
C1103 H1118 0.961 . S
C1103 H1119 0.960 . S
H1104 C1088 0.931 . S
H1105 C1093 0.929 . S
H1106 C1094 0.960 . S
H1107 C1094 0.962 . S
H1108 C1094 0.960 . S
H1109 C1095 0.961 . S
H1110 C1095 0.961 . S
H1111 C1095 0.961 . S
H1112 C1096 0.931 . S
H1113 C1101 0.930 . S
H1114 C1102 0.956 . S
H1115 C1102 0.961 . S
H1116 C1102 0.961 . S
H1117 C1103 0.958 . S
H1118 C1103 0.961 . S
H1119 C1103 0.960 . S
C1120 C1121 1.391 . S
C1120 C1122 1.394 . S
C1120 H1136 0.931 . S
C1121 C1120 1.391 . S
C1121 C1125 1.376 . S
C1122 C1120 1.394 . S
C1122 C1123 1.369 . S
C1122 C1126 1.531 . S
C1123 C1122 1.369 . S
C1123 C1124 1.410 . S
C1123 C1131 1.503 . S
C1124 C1123 1.410 . S
C1124 C1125 1.392 . S
C1124 C1127 1.511 . S
C1125 C1121 1.376 . S
C1125 C1124 1.392 . S
C1125 H1137 0.929 . S
C1126 C1122 1.531 . S
C1126 H1138 0.960 . S
C1126 H1139 0.962 . S
C1126 H1140 0.960 . S
C1127 C1124 1.511 . S
C1127 H1141 0.961 . S
C1127 H1142 0.961 . S
C1127 H1143 0.961 . S
C1128 C1129 1.370 . S
C1128 C1130 1.363 . S
C1128 H1144 0.931 . S
C1129 C1128 1.370 . S
C1129 C1133 1.408 . S
C1130 C1128 1.363 . S
C1130 C1131 1.370 . S
C1130 C1134 1.524 . S
C1131 C1123 1.503 . S
C1131 C1130 1.370 . S
C1131 C1132 1.403 . S
C1132 C1131 1.403 . S
C1132 C1133 1.404 . S
C1132 C1135 1.539 . S
C1133 C1129 1.408 . S
C1133 C1132 1.404 . S
C1133 H1145 0.930 . S
C1134 C1130 1.524 . S
C1134 H1146 0.956 . S
C1134 H1147 0.961 . S
C1134 H1148 0.961 . S
C1135 C1132 1.539 . S
C1135 H1149 0.958 . S
C1135 H1150 0.961 . S
C1135 H1151 0.960 . S
H1136 C1120 0.931 . S
H1137 C1125 0.929 . S
H1138 C1126 0.960 . S
H1139 C1126 0.962 . S
H1140 C1126 0.960 . S
H1141 C1127 0.961 . S
H1142 C1127 0.961 . S
H1143 C1127 0.961 . S
H1144 C1128 0.931 . S
H1145 C1133 0.930 . S
H1146 C1134 0.956 . S
H1147 C1134 0.961 . S
H1148 C1134 0.961 . S
H1149 C1135 0.958 . S
H1150 C1135 0.961 . S
H1151 C1135 0.960 . S
C1152 C1153 1.391 . S
C1152 C1154 1.394 . S
C1152 H1168 0.931 . S
C1153 C1152 1.391 . S
C1153 C1157 1.376 . S
C1154 C1152 1.394 . S
C1154 C1155 1.369 . S
C1154 C1158 1.531 . S
C1155 C1154 1.369 . S
C1155 C1156 1.410 . S
C1155 C1163 1.503 . S
C1156 C1155 1.410 . S
C1156 C1157 1.392 . S
C1156 C1159 1.511 . S
C1157 C1153 1.376 . S
C1157 C1156 1.392 . S
C1157 H1169 0.929 . S
C1158 C1154 1.531 . S
C1158 H1170 0.960 . S
C1158 H1171 0.962 . S
C1158 H1172 0.960 . S
C1159 C1156 1.511 . S
C1159 H1173 0.961 . S
C1159 H1174 0.961 . S
C1159 H1175 0.961 . S
C1160 C1161 1.370 . S
C1160 C1162 1.363 . S
C1160 H1176 0.931 . S
C1161 C1160 1.370 . S
C1161 C1165 1.408 . S
C1162 C1160 1.363 . S
C1162 C1163 1.370 . S
C1162 C1166 1.524 . S
C1163 C1155 1.503 . S
C1163 C1162 1.370 . S
C1163 C1164 1.403 . S
C1164 C1163 1.403 . S
C1164 C1165 1.404 . S
C1164 C1167 1.539 . S
C1165 C1161 1.408 . S
C1165 C1164 1.404 . S
C1165 H1177 0.930 . S
C1166 C1162 1.524 . S
C1166 H1178 0.956 . S
C1166 H1179 0.961 . S
C1166 H1180 0.961 . S
C1167 C1164 1.539 . S
C1167 H1181 0.958 . S
C1167 H1182 0.961 . S
C1167 H1183 0.960 . S
H1168 C1152 0.931 . S
H1169 C1157 0.929 . S
H1170 C1158 0.960 . S
H1171 C1158 0.962 . S
H1172 C1158 0.960 . S
H1173 C1159 0.961 . S
H1174 C1159 0.961 . S
H1175 C1159 0.961 . S
H1176 C1160 0.931 . S
H1177 C1165 0.930 . S
H1178 C1166 0.956 . S
H1179 C1166 0.961 . S
H1180 C1166 0.961 . S
H1181 C1167 0.958 . S
H1182 C1167 0.961 . S
H1183 C1167 0.960 . S
C1184 C1185 1.391 . S
C1184 C1186 1.394 . S
C1184 H1200 0.931 . S
C1185 C1184 1.391 . S
C1185 C1189 1.376 . S
C1186 C1184 1.394 . S
C1186 C1187 1.369 . S
C1186 C1190 1.531 . S
C1187 C1186 1.369 . S
C1187 C1188 1.410 . S
C1187 C1195 1.503 . S
C1188 C1187 1.410 . S
C1188 C1189 1.392 . S
C1188 C1191 1.511 . S
C1189 C1185 1.376 . S
C1189 C1188 1.392 . S
C1189 H1201 0.929 . S
C1190 C1186 1.531 . S
C1190 H1202 0.960 . S
C1190 H1203 0.962 . S
C1190 H1204 0.960 . S
C1191 C1188 1.511 . S
C1191 H1205 0.961 . S
C1191 H1206 0.961 . S
C1191 H1207 0.961 . S
C1192 C1193 1.370 . S
C1192 C1194 1.363 . S
C1192 H1208 0.931 . S
C1193 C1192 1.370 . S
C1193 C1197 1.408 . S
C1194 C1192 1.363 . S
C1194 C1195 1.370 . S
C1194 C1198 1.524 . S
C1195 C1187 1.503 . S
C1195 C1194 1.370 . S
C1195 C1196 1.403 . S
C1196 C1195 1.403 . S
C1196 C1197 1.404 . S
C1196 C1199 1.539 . S
C1197 C1193 1.408 . S
C1197 C1196 1.404 . S
C1197 H1209 0.930 . S
C1198 C1194 1.524 . S
C1198 H1210 0.956 . S
C1198 H1211 0.961 . S
C1198 H1212 0.961 . S
C1199 C1196 1.539 . S
C1199 H1213 0.958 . S
C1199 H1214 0.961 . S
C1199 H1215 0.960 . S
H1200 C1184 0.931 . S
H1201 C1189 0.929 . S
H1202 C1190 0.960 . S
H1203 C1190 0.962 . S
H1204 C1190 0.960 . S
H1205 C1191 0.961 . S
H1206 C1191 0.961 . S
H1207 C1191 0.961 . S
H1208 C1192 0.931 . S
H1209 C1197 0.930 . S
H1210 C1198 0.956 . S
H1211 C1198 0.961 . S
H1212 C1198 0.961 . S
H1213 C1199 0.958 . S
H1214 C1199 0.961 . S
H1215 C1199 0.960 . S
C1216 C1217 1.391 . S
C1216 C1218 1.394 . S
C1216 H1232 0.931 . S
C1217 C1216 1.391 . S
C1217 C1221 1.376 . S
C1218 C1216 1.394 . S
C1218 C1219 1.369 . S
C1218 C1222 1.531 . S
C1219 C1218 1.369 . S
C1219 C1220 1.410 . S
C1219 C1227 1.503 . S
C1220 C1219 1.410 . S
C1220 C1221 1.392 . S
C1220 C1223 1.511 . S
C1221 C1217 1.376 . S
C1221 C1220 1.392 . S
C1221 H1233 0.929 . S
C1222 C1218 1.531 . S
C1222 H1234 0.960 . S
C1222 H1235 0.962 . S
C1222 H1236 0.960 . S
C1223 C1220 1.511 . S
C1223 H1237 0.961 . S
C1223 H1238 0.961 . S
C1223 H1239 0.961 . S
C1224 C1225 1.370 . S
C1224 C1226 1.363 . S
C1224 H1240 0.931 . S
C1225 C1224 1.370 . S
C1225 C1229 1.408 . S
C1226 C1224 1.363 . S
C1226 C1227 1.370 . S
C1226 C1230 1.524 . S
C1227 C1219 1.503 . S
C1227 C1226 1.370 . S
C1227 C1228 1.403 . S
C1228 C1227 1.403 . S
C1228 C1229 1.404 . S
C1228 C1231 1.539 . S
C1229 C1225 1.408 . S
C1229 C1228 1.404 . S
C1229 H1241 0.930 . S
C1230 C1226 1.524 . S
C1230 H1242 0.956 . S
C1230 H1243 0.961 . S
C1230 H1244 0.961 . S
C1231 C1228 1.539 . S
C1231 H1245 0.958 . S
C1231 H1246 0.961 . S
C1231 H1247 0.960 . S
H1232 C1216 0.931 . S
H1233 C1221 0.929 . S
H1234 C1222 0.960 . S
H1235 C1222 0.962 . S
H1236 C1222 0.960 . S
H1237 C1223 0.961 . S
H1238 C1223 0.961 . S
H1239 C1223 0.961 . S
H1240 C1224 0.931 . S
H1241 C1229 0.930 . S
H1242 C1230 0.956 . S
H1243 C1230 0.961 . S
H1244 C1230 0.961 . S
H1245 C1231 0.958 . S
H1246 C1231 0.961 . S
H1247 C1231 0.960 . S
C1248 C1249 1.391 . S
C1248 C1250 1.394 . S
C1248 H1264 0.931 . S
C1249 C1248 1.391 . S
C1249 C1253 1.376 . S
C1250 C1248 1.394 . S
C1250 C1251 1.369 . S
C1250 C1254 1.531 . S
C1251 C1250 1.369 . S
C1251 C1252 1.410 . S
C1251 C1259 1.503 . S
C1252 C1251 1.410 . S
C1252 C1253 1.392 . S
C1252 C1255 1.511 . S
C1253 C1249 1.376 . S
C1253 C1252 1.392 . S
C1253 H1265 0.929 . S
C1254 C1250 1.531 . S
C1254 H1266 0.960 . S
C1254 H1267 0.962 . S
C1254 H1268 0.960 . S
C1255 C1252 1.511 . S
C1255 H1269 0.961 . S
C1255 H1270 0.961 . S
C1255 H1271 0.961 . S
C1256 C1257 1.370 . S
C1256 C1258 1.363 . S
C1256 H1272 0.931 . S
C1257 C1256 1.370 . S
C1257 C1261 1.408 . S
C1258 C1256 1.363 . S
C1258 C1259 1.370 . S
C1258 C1262 1.524 . S
C1259 C1251 1.503 . S
C1259 C1258 1.370 . S
C1259 C1260 1.403 . S
C1260 C1259 1.403 . S
C1260 C1261 1.404 . S
C1260 C1263 1.539 . S
C1261 C1257 1.408 . S
C1261 C1260 1.404 . S
C1261 H1273 0.930 . S
C1262 C1258 1.524 . S
C1262 H1274 0.956 . S
C1262 H1275 0.961 . S
C1262 H1276 0.961 . S
C1263 C1260 1.539 . S
C1263 H1277 0.958 . S
C1263 H1278 0.961 . S
C1263 H1279 0.960 . S
H1264 C1248 0.931 . S
H1265 C1253 0.929 . S
H1266 C1254 0.960 . S
H1267 C1254 0.962 . S
H1268 C1254 0.960 . S
H1269 C1255 0.961 . S
H1270 C1255 0.961 . S
H1271 C1255 0.961 . S
H1272 C1256 0.931 . S
H1273 C1261 0.930 . S
H1274 C1262 0.956 . S
H1275 C1262 0.961 . S
H1276 C1262 0.961 . S
H1277 C1263 0.958 . S
H1278 C1263 0.961 . S
H1279 C1263 0.960 . S
C1280 C1281 1.391 . S
C1280 C1282 1.394 . S
C1280 H1296 0.931 . S
C1281 C1280 1.391 . S
C1281 C1285 1.376 . S
C1282 C1280 1.394 . S
C1282 C1283 1.369 . S
C1282 C1286 1.531 . S
C1283 C1282 1.369 . S
C1283 C1284 1.410 . S
C1283 C1291 1.503 . S
C1284 C1283 1.410 . S
C1284 C1285 1.392 . S
C1284 C1287 1.511 . S
C1285 C1281 1.376 . S
C1285 C1284 1.392 . S
C1285 H1297 0.929 . S
C1286 C1282 1.531 . S
C1286 H1298 0.960 . S
C1286 H1299 0.962 . S
C1286 H1300 0.960 . S
C1287 C1284 1.511 . S
C1287 H1301 0.961 . S
C1287 H1302 0.961 . S
C1287 H1303 0.961 . S
C1288 C1289 1.370 . S
C1288 C1290 1.363 . S
C1288 H1304 0.931 . S
C1289 C1288 1.370 . S
C1289 C1293 1.408 . S
C1290 C1288 1.363 . S
C1290 C1291 1.370 . S
C1290 C1294 1.524 . S
C1291 C1283 1.503 . S
C1291 C1290 1.370 . S
C1291 C1292 1.403 . S
C1292 C1291 1.403 . S
C1292 C1293 1.404 . S
C1292 C1295 1.539 . S
C1293 C1289 1.408 . S
C1293 C1292 1.404 . S
C1293 H1305 0.930 . S
C1294 C1290 1.524 . S
C1294 H1306 0.956 . S
C1294 H1307 0.961 . S
C1294 H1308 0.961 . S
C1295 C1292 1.539 . S
C1295 H1309 0.958 . S
C1295 H1310 0.961 . S
C1295 H1311 0.960 . S
H1296 C1280 0.931 . S
H1297 C1285 0.929 . S
H1298 C1286 0.960 . S
H1299 C1286 0.962 . S
H1300 C1286 0.960 . S
H1301 C1287 0.961 . S
H1302 C1287 0.961 . S
H1303 C1287 0.961 . S
H1304 C1288 0.931 . S
H1305 C1293 0.930 . S
H1306 C1294 0.956 . S
H1307 C1294 0.961 . S
H1308 C1294 0.961 . S
H1309 C1295 0.958 . S
H1310 C1295 0.961 . S
H1311 C1295 0.960 . S
C1312 C1313 1.391 . S
C1312 C1314 1.394 . S
C1312 H1328 0.931 . S
C1313 C1312 1.391 . S
C1313 C1317 1.376 . S
C1314 C1312 1.394 . S
C1314 C1315 1.369 . S
C1314 C1318 1.531 . S
C1315 C1314 1.369 . S
C1315 C1316 1.410 . S
C1315 C1323 1.503 . S
C1316 C1315 1.410 . S
C1316 C1317 1.392 . S
C1316 C1319 1.511 . S
C1317 C1313 1.376 . S
C1317 C1316 1.392 . S
C1317 H1329 0.929 . S
C1318 C1314 1.531 . S
C1318 H1330 0.960 . S
C1318 H1331 0.962 . S
C1318 H1332 0.960 . S
C1319 C1316 1.511 . S
C1319 H1333 0.961 . S
C1319 H1334 0.961 . S
C1319 H1335 0.961 . S
C1320 C1321 1.370 . S
C1320 C1322 1.363 . S
C1320 H1336 0.931 . S
C1321 C1320 1.370 . S
C1321 C1325 1.408 . S
C1322 C1320 1.363 . S
C1322 C1323 1.370 . S
C1322 C1326 1.524 . S
C1323 C1315 1.503 . S
C1323 C1322 1.370 . S
C1323 C1324 1.403 . S
C1324 C1323 1.403 . S
C1324 C1325 1.404 . S
C1324 C1327 1.539 . S
C1325 C1321 1.408 . S
C1325 C1324 1.404 . S
C1325 H1337 0.930 . S
C1326 C1322 1.524 . S
C1326 H1338 0.956 . S
C1326 H1339 0.961 . S
C1326 H1340 0.961 . S
C1327 C1324 1.539 . S
C1327 H1341 0.958 . S
C1327 H1342 0.961 . S
C1327 H1343 0.960 . S
H1328 C1312 0.931 . S
H1329 C1317 0.929 . S
H1330 C1318 0.960 . S
H1331 C1318 0.962 . S
H1332 C1318 0.960 . S
H1333 C1319 0.961 . S
H1334 C1319 0.961 . S
H1335 C1319 0.961 . S
H1336 C1320 0.931 . S
H1337 C1325 0.930 . S
H1338 C1326 0.956 . S
H1339 C1326 0.961 . S
H1340 C1326 0.961 . S
H1341 C1327 0.958 . S
H1342 C1327 0.961 . S
H1343 C1327 0.960 . S
C1344 C1345 1.391 . S
C1344 C1346 1.394 . S
C1344 H1360 0.931 . S
C1345 C1344 1.391 . S
C1345 C1349 1.376 . S
C1346 C1344 1.394 . S
C1346 C1347 1.369 . S
C1346 C1350 1.531 . S
C1347 C1346 1.369 . S
C1347 C1348 1.410 . S
C1347 C1355 1.503 1_656 S
C1348 C1347 1.410 . S
C1348 C1349 1.392 . S
C1348 C1351 1.511 1_656 S
C1349 C1345 1.376 . S
C1349 C1348 1.392 . S
C1349 H1361 0.929 . S
C1350 C1346 1.531 . S
C1350 H1362 0.960 . S
C1350 H1363 0.962 . S
C1350 H1364 0.960 . S
C1351 C1348 1.511 1_454 S
C1351 H1365 0.961 . S
C1351 H1366 0.961 . S
C1351 H1367 0.961 . S
C1352 C1353 1.370 . S
C1352 C1354 1.363 . S
C1352 H1368 0.931 . S
C1353 C1352 1.370 . S
C1353 C1357 1.408 . S
C1354 C1352 1.363 . S
C1354 C1355 1.370 . S
C1354 C1358 1.524 1_554 S
C1355 C1347 1.503 1_454 S
C1355 C1354 1.370 . S
C1355 C1356 1.403 1_455 S
C1356 C1355 1.403 1_655 S
C1356 C1357 1.404 1_655 S
C1356 C1359 1.539 . S
C1357 C1353 1.408 . S
C1357 C1356 1.404 1_455 S
C1357 H1369 0.924 1_455 S
C1358 C1354 1.524 1_556 S
C1358 H1370 0.956 . S
C1358 H1371 0.961 . S
C1358 H1372 0.961 . S
C1359 C1356 1.539 . S
C1359 H1373 0.958 . S
C1359 H1374 0.961 . S
C1359 H1375 0.960 . S
H1360 C1344 0.931 . S
H1361 C1349 0.929 . S
H1362 C1350 0.960 . S
H1363 C1350 0.962 . S
H1364 C1350 0.960 . S
H1365 C1351 0.961 . S
H1366 C1351 0.961 . S
H1367 C1351 0.961 . S
H1368 C1352 0.931 . S
H1369 C1357 0.924 1_655 S
H1370 C1358 0.956 . S
H1371 C1358 0.961 . S
H1372 C1358 0.961 . S
H1373 C1359 0.958 . S
H1374 C1359 0.961 . S
H1375 C1359 0.960 . S
C1376 C1377 1.391 . S
C1376 C1378 1.394 1_565 S
C1376 H1392 0.931 1_565 S
C1377 C1376 1.391 . S
C1377 C1381 1.376 . S
C1378 C1376 1.394 1_545 S
C1378 C1379 1.369 1_545 S
C1378 C1382 1.531 1_556 S
C1379 C1378 1.369 1_565 S
C1379 C1380 1.410 1_455 S
C1379 C1387 1.503 1_466 S
C1380 C1379 1.410 1_655 S
C1380 C1381 1.392 1_655 S
C1380 C1383 1.511 . S
C1381 C1377 1.376 . S
C1381 C1380 1.392 1_455 S
C1381 H1393 0.929 . S
C1382 C1378 1.531 1_554 S
C1382 H1394 0.960 . S
C1382 H1395 0.962 . S
C1382 H1396 0.960 1_554 S
C1383 C1380 1.511 . S
C1383 H1397 0.961 . S
C1383 H1398 0.961 . S
C1383 H1399 0.961 . S
C1384 C1385 1.370 . S
C1384 C1386 1.363 1_545 S
C1384 H1400 0.931 1_545 S
C1385 C1384 1.370 . S
C1385 C1389 1.408 . S
C1386 C1384 1.363 1_565 S
C1386 C1387 1.370 1_565 S
C1386 C1390 1.524 1_655 S
C1387 C1379 1.503 1_644 S
C1387 C1386 1.370 1_545 S
C1387 C1388 1.403 . S
C1388 C1387 1.403 . S
C1388 C1389 1.404 . S
C1388 C1391 1.539 1_554 S
C1389 C1385 1.408 . S
C1389 C1388 1.404 . S
C1389 H1401 0.930 . S
C1390 C1386 1.524 1_455 S
C1390 H1402 0.956 . S
C1390 H1403 0.961 . S
C1390 H1404 0.967 . S
C1391 C1388 1.539 1_556 S
C1391 H1405 0.958 . S
C1391 H1406 0.961 . S
C1391 H1407 0.960 . S
H1392 C1376 0.931 1_545 S
H1393 C1381 0.929 . S
H1394 C1382 0.960 . S
H1395 C1382 0.962 . S
H1396 C1382 0.960 1_556 S
H1397 C1383 0.961 . S
H1398 C1383 0.961 . S
H1399 C1383 0.961 . S
H1400 C1384 0.931 1_565 S
H1401 C1389 0.930 . S
H1402 C1390 0.956 . S
H1403 C1390 0.961 . S
H1404 C1390 0.967 . S
H1405 C1391 0.958 . S
H1406 C1391 0.961 . S
H1407 C1391 0.960 . S
C1408 C1409 1.391 . S
C1408 C1410 1.394 . S
C1408 H1424 0.931 . S
C1409 C1408 1.391 . S
C1409 C1413 1.376 . S
C1410 C1408 1.394 . S
C1410 C1411 1.369 . S
C1410 C1414 1.531 . S
C1411 C1410 1.369 . S
C1411 C1412 1.410 . S
C1411 C1419 1.503 1_546 S
C1412 C1411 1.410 . S
C1412 C1413 1.392 . S
C1412 C1415 1.511 1_556 S
C1413 C1409 1.376 . S
C1413 C1412 1.392 . S
C1413 H1425 0.929 . S
C1414 C1410 1.531 . S
C1414 H1426 0.960 1_545 S
C1414 H1427 0.962 . S
C1414 H1428 0.960 . S
C1415 C1412 1.511 1_554 S
C1415 H1429 0.961 . S
C1415 H1430 0.961 1_545 S
C1415 H1431 0.961 1_544 S
C1416 C1417 1.370 . S
C1416 C1418 1.363 . S
C1416 H1432 0.931 . S
C1417 C1416 1.370 . S
C1417 C1421 1.408 . S
C1418 C1416 1.363 . S
C1418 C1419 1.370 . S
C1418 C1422 1.524 1_565 S
C1419 C1411 1.503 1_564 S
C1419 C1418 1.370 . S
C1419 C1420 1.403 1_554 S
C1420 C1419 1.403 1_556 S
C1420 C1421 1.404 1_556 S
C1420 C1423 1.539 . S
C1421 C1417 1.408 . S
C1421 C1420 1.404 1_554 S
C1421 H1433 0.930 . S
C1422 C1418 1.524 1_545 S
C1422 H1434 0.956 . S
C1422 H1435 0.961 . S
C1422 H1436 0.961 . S
C1423 C1420 1.539 . S
C1423 H1437 0.958 . S
C1423 H1438 0.961 . S
C1423 H1439 0.960 . S
H1424 C1408 0.931 . S
H1425 C1413 0.929 . S
H1426 C1414 0.960 1_565 S
H1427 C1414 0.962 . S
H1428 C1414 0.960 . S
H1429 C1415 0.961 . S
H1430 C1415 0.961 1_565 S
H1431 C1415 0.961 1_566 S
H1432 C1416 0.931 . S
H1433 C1421 0.930 . S
H1434 C1422 0.956 . S
H1435 C1422 0.961 . S
H1436 C1422 0.961 . S
H1437 C1423 0.958 . S
H1438 C1423 0.961 . S
H1439 C1423 0.960 . S
C1440 C1441 1.391 . S
C1440 C1442 1.394 . S
C1440 H1456 0.931 . S
C1441 C1440 1.391 . S
C1441 C1445 1.376 . S
C1442 C1440 1.394 . S
C1442 C1443 1.369 . S
C1442 C1446 1.531 . S
C1443 C1442 1.369 . S
C1443 C1444 1.410 . S
C1443 C1451 1.503 1_554 S
C1444 C1443 1.410 . S
C1444 C1445 1.392 . S
C1444 C1447 1.511 1_554 S
C1445 C1441 1.376 . S
C1445 C1444 1.392 . S
C1445 H1457 0.929 . S
C1446 C1442 1.531 . S
C1446 H1458 0.960 . S
C1446 H1459 0.962 . S
C1446 H1460 0.960 . S
C1447 C1444 1.511 1_556 S
C1447 H1461 0.961 . S
C1447 H1462 0.961 . S
C1447 H1463 0.961 . S
C1448 C1449 1.370 . S
C1448 C1450 1.363 . S
C1448 H1464 0.931 . S
C1449 C1448 1.370 . S
C1449 C1453 1.408 . S
C1450 C1448 1.363 . S
C1450 C1451 1.370 . S
C1450 C1454 1.524 . S
C1451 C1443 1.503 1_556 S
C1451 C1450 1.370 . S
C1451 C1452 1.403 1_556 S
C1452 C1451 1.403 1_554 S
C1452 C1453 1.404 1_554 S
C1452 C1455 1.539 . S
C1453 C1449 1.408 . S
C1453 C1452 1.404 1_556 S
C1453 H1465 0.930 . S
C1454 C1450 1.524 . S
C1454 H1466 0.956 . S
C1454 H1467 0.961 . S
C1454 H1468 0.961 . S
C1455 C1452 1.539 . S
C1455 H1469 0.958 . S
C1455 H1470 0.961 . S
C1455 H1471 0.960 . S
H1456 C1440 0.931 . S
H1457 C1445 0.929 . S
H1458 C1446 0.960 . S
H1459 C1446 0.962 . S
H1460 C1446 0.960 . S
H1461 C1447 0.961 . S
H1462 C1447 0.961 . S
H1463 C1447 0.961 . S
H1464 C1448 0.931 . S
H1465 C1453 0.930 . S
H1466 C1454 0.956 . S
H1467 C1454 0.961 . S
H1468 C1454 0.961 . S
H1469 C1455 0.958 . S
H1470 C1455 0.961 . S
H1471 C1455 0.960 . S
C1472 C1473 1.391 . S
C1472 C1474 1.394 . S
C1472 H1488 0.931 . S
C1473 C1472 1.391 . S
C1473 C1477 1.376 . S
C1474 C1472 1.394 . S
C1474 C1475 1.369 . S
C1474 C1478 1.531 1_645 S
C1475 C1474 1.369 . S
C1475 C1476 1.410 . S
C1475 C1483 1.503 1_645 S
C1476 C1475 1.410 . S
C1476 C1477 1.392 . S
C1476 C1479 1.511 . S
C1477 C1473 1.376 . S
C1477 C1476 1.392 . S
C1477 H1489 0.929 . S
C1478 C1474 1.531 1_465 S
C1478 H1490 0.960 . S
C1478 H1491 0.962 1_565 S
C1478 H1492 0.960 . S
C1479 C1476 1.511 . S
C1479 H1493 0.961 . S
C1479 H1494 0.961 . S
C1479 H1495 0.961 . S
C1480 C1481 1.370 . S
C1480 C1482 1.363 . S
C1480 H1496 0.931 . S
C1481 C1480 1.370 . S
C1481 C1485 1.408 . S
C1482 C1480 1.363 . S
C1482 C1483 1.370 . S
C1482 C1486 1.524 1_565 S
C1483 C1475 1.503 1_465 S
C1483 C1482 1.370 . S
C1483 C1484 1.403 1_455 S
C1484 C1483 1.403 1_655 S
C1484 C1485 1.404 1_655 S
C1484 C1487 1.539 . S
C1485 C1481 1.408 . S
C1485 C1484 1.404 1_455 S
C1485 H1497 0.930 . S
C1486 C1482 1.524 1_545 S
C1486 H1498 0.956 . S
C1486 H1499 0.961 . S
C1486 H1500 0.961 . S
C1487 C1484 1.539 . S
C1487 H1501 0.958 . S
C1487 H1502 0.961 . S
C1487 H1503 0.960 . S
H1488 C1472 0.931 . S
H1489 C1477 0.929 . S
H1490 C1478 0.960 . S
H1491 C1478 0.962 1_545 S
H1492 C1478 0.960 . S
H1493 C1479 0.961 . S
H1494 C1479 0.961 . S
H1495 C1479 0.961 . S
H1496 C1480 0.931 . S
H1497 C1485 0.930 . S
H1498 C1486 0.956 . S
H1499 C1486 0.961 . S
H1500 C1486 0.961 . S
H1501 C1487 0.958 . S
H1502 C1487 0.961 . S
H1503 C1487 0.960 . S
C1504 C1505 1.391 . S
C1504 C1506 1.394 . S
C1504 H1520 0.931 . S
C1505 C1504 1.391 . S
C1505 C1509 1.376 . S
C1506 C1504 1.394 . S
C1506 C1507 1.369 . S
C1506 C1510 1.532 . S
C1507 C1506 1.369 . S
C1507 C1508 1.410 . S
C1507 C1515 1.503 1_565 S
C1508 C1507 1.410 . S
C1508 C1509 1.392 . S
C1508 C1511 1.511 1_565 S
C1509 C1505 1.376 . S
C1509 C1508 1.392 . S
C1509 H1521 0.929 . S
C1510 C1506 1.532 . S
C1510 H1522 0.957 1_565 S
C1510 H1523 0.965 . S
C1510 H1524 0.960 1_565 S
C1511 C1508 1.511 1_545 S
C1511 H1525 0.961 1_545 S
C1511 H1526 0.961 . S
C1511 H1527 0.961 . S
C1512 C1513 1.370 . S
C1512 C1514 1.363 1_545 S
C1512 H1528 0.931 1_545 S
C1513 C1512 1.370 . S
C1513 C1517 1.408 . S
C1514 C1512 1.363 1_565 S
C1514 C1515 1.370 1_565 S
C1514 C1518 1.524 . S
C1515 C1507 1.503 1_545 S
C1515 C1514 1.370 1_545 S
C1515 C1516 1.403 . S
C1516 C1515 1.403 . S
C1516 C1517 1.404 . S
C1516 C1519 1.539 . S
C1517 C1513 1.408 . S
C1517 C1516 1.404 . S
C1517 H1529 0.930 . S
C1518 C1514 1.524 . S
C1518 H1530 0.956 . S
C1518 H1531 0.961 . S
C1518 H1532 0.961 . S
C1519 C1516 1.539 . S
C1519 H1533 0.958 . S
C1519 H1534 0.961 . S
C1519 H1535 0.960 . S
H1520 C1504 0.931 . S
H1521 C1509 0.929 . S
H1522 C1510 0.957 1_545 S
H1523 C1510 0.965 . S
H1524 C1510 0.960 1_545 S
H1525 C1511 0.961 1_565 S
H1526 C1511 0.961 . S
H1527 C1511 0.961 . S
H1528 C1512 0.931 1_565 S
H1529 C1517 0.930 . S
H1530 C1518 0.956 . S
H1531 C1518 0.961 . S
H1532 C1518 0.961 . S
H1533 C1519 0.958 . S
H1534 C1519 0.961 . S
H1535 C1519 0.960 . S
C1536 C1537 1.391 . S
C1536 C1538 1.394 . S
C1536 H1552 0.931 . S
C1537 C1536 1.391 . S
C1537 C1541 1.376 . S
C1538 C1536 1.394 . S
C1538 C1539 1.369 . S
C1538 C1542 1.531 . S
C1539 C1538 1.369 . S
C1539 C1540 1.410 . S
C1539 C1547 1.503 . S
C1540 C1539 1.410 . S
C1540 C1541 1.392 . S
C1540 C1543 1.511 . S
C1541 C1537 1.376 . S
C1541 C1540 1.392 . S
C1541 H1553 0.929 . S
C1542 C1538 1.531 . S
C1542 H1554 0.960 . S
C1542 H1555 0.962 . S
C1542 H1556 0.960 . S
C1543 C1540 1.511 . S
C1543 H1557 0.961 . S
C1543 H1558 0.961 . S
C1543 H1559 0.961 . S
C1544 C1545 1.370 . S
C1544 C1546 1.363 . S
C1544 H1560 0.931 . S
C1545 C1544 1.370 . S
C1545 C1549 1.408 . S
C1546 C1544 1.363 . S
C1546 C1547 1.370 . S
C1546 C1550 1.524 . S
C1547 C1539 1.503 . S
C1547 C1546 1.370 . S
C1547 C1548 1.403 . S
C1548 C1547 1.403 . S
C1548 C1549 1.404 . S
C1548 C1551 1.539 . S
C1549 C1545 1.408 . S
C1549 C1548 1.404 . S
C1549 H1561 0.930 . S
C1550 C1546 1.524 . S
C1550 H1562 0.956 . S
C1550 H1563 0.961 . S
C1550 H1564 0.961 . S
C1551 C1548 1.539 . S
C1551 H1565 0.958 . S
C1551 H1566 0.961 . S
C1551 H1567 0.960 . S
H1552 C1536 0.931 . S
H1553 C1541 0.929 . S
H1554 C1542 0.960 . S
H1555 C1542 0.962 . S
H1556 C1542 0.960 . S
H1557 C1543 0.961 . S
H1558 C1543 0.961 . S
H1559 C1543 0.961 . S
H1560 C1544 0.931 . S
H1561 C1549 0.930 . S
H1562 C1550 0.956 . S
H1563 C1550 0.961 . S
H1564 C1550 0.961 . S
H1565 C1551 0.958 . S
H1566 C1551 0.961 . S
H1567 C1551 0.960 . S
C1568 C1569 1.391 . S
C1568 C1570 1.394 . S
C1568 H1584 0.931 . S
C1569 C1568 1.391 . S
C1569 C1573 1.376 . S
C1570 C1568 1.394 . S
C1570 C1571 1.369 . S
C1570 C1574 1.531 . S
C1571 C1570 1.369 . S
C1571 C1572 1.410 . S
C1571 C1579 1.503 1_455 S
C1572 C1571 1.410 . S
C1572 C1573 1.392 . S
C1572 C1575 1.511 1_455 S
C1573 C1569 1.376 . S
C1573 C1572 1.392 . S
C1573 H1585 0.929 . S
C1574 C1570 1.531 . S
C1574 H1586 0.960 . S
C1574 H1587 0.962 . S
C1574 H1588 0.960 . S
C1575 C1572 1.511 1_655 S
C1575 H1589 0.961 . S
C1575 H1590 0.961 . S
C1575 H1591 0.961 . S
C1576 C1577 1.370 . S
C1576 C1578 1.363 . S
C1576 H1592 0.931 . S
C1577 C1576 1.370 . S
C1577 C1581 1.408 . S
C1578 C1576 1.363 . S
C1578 C1579 1.370 . S
C1578 C1582 1.524 . S
C1579 C1571 1.503 1_655 S
C1579 C1578 1.370 . S
C1579 C1580 1.403 . S
C1580 C1579 1.403 . S
C1580 C1581 1.404 . S
C1580 C1583 1.539 1_655 S
C1581 C1577 1.408 . S
C1581 C1580 1.404 . S
C1581 H1593 0.930 . S
C1582 C1578 1.524 . S
C1582 H1594 0.956 . S
C1582 H1595 0.961 . S
C1582 H1596 0.961 . S
C1583 C1580 1.539 1_455 S
C1583 H1597 0.958 . S
C1583 H1598 0.961 . S
C1583 H1599 0.960 . S
H1584 C1568 0.931 . S
H1585 C1573 0.929 . S
H1586 C1574 0.960 . S
H1587 C1574 0.962 . S
H1588 C1574 0.960 . S
H1589 C1575 0.961 . S
H1590 C1575 0.961 . S
H1591 C1575 0.961 . S
H1592 C1576 0.931 . S
H1593 C1581 0.930 . S
H1594 C1582 0.956 . S
H1595 C1582 0.961 . S
H1596 C1582 0.961 . S
H1597 C1583 0.958 . S
H1598 C1583 0.961 . S
H1599 C1583 0.960 . S
C1600 C1601 1.391 1_655 S
C1600 C1602 1.394 . S
C1600 H1616 0.931 . S
C1601 C1600 1.391 1_455 S
C1601 C1605 1.376 . S
C1602 C1600 1.394 . S
C1602 C1603 1.369 1_655 S
C1602 C1606 1.531 . S
C1603 C1602 1.369 1_455 S
C1603 C1604 1.410 . S
C1603 C1611 1.503 . S
C1604 C1603 1.410 . S
C1604 C1605 1.392 . S
C1604 C1607 1.511 . S
C1605 C1601 1.376 . S
C1605 C1604 1.392 . S
C1605 H1617 0.929 . S
C1606 C1602 1.531 . S
C1606 H1618 0.960 . S
C1606 H1619 0.962 . S
C1606 H1620 0.960 . S
C1607 C1604 1.511 . S
C1607 H1621 0.961 . S
C1607 H1622 0.961 . S
C1607 H1623 0.961 . S
C1608 C1609 1.370 . S
C1608 C1610 1.363 . S
C1608 H1624 0.931 . S
C1609 C1608 1.370 . S
C1609 C1613 1.408 . S
C1610 C1608 1.363 . S
C1610 C1611 1.370 . S
C1610 C1614 1.524 1_455 S
C1611 C1603 1.503 . S
C1611 C1610 1.370 . S
C1611 C1612 1.403 . S
C1612 C1611 1.403 . S
C1612 C1613 1.404 . S
C1612 C1615 1.539 . S
C1613 C1609 1.408 . S
C1613 C1612 1.404 . S
C1613 H1625 0.930 . S
C1614 C1610 1.524 1_655 S
C1614 H1626 0.956 . S
C1614 H1627 0.961 1_655 S
C1614 H1628 0.961 . S
C1615 C1612 1.539 . S
C1615 H1629 0.958 . S
C1615 H1630 0.961 . S
C1615 H1631 0.960 . S
H1616 C1600 0.931 . S
H1617 C1605 0.929 . S
H1618 C1606 0.960 . S
H1619 C1606 0.962 . S
H1620 C1606 0.960 . S
H1621 C1607 0.961 . S
H1622 C1607 0.961 . S
H1623 C1607 0.961 . S
H1624 C1608 0.931 . S
H1625 C1613 0.930 . S
H1626 C1614 0.956 . S
H1627 C1614 0.961 1_455 S
H1628 C1614 0.961 . S
H1629 C1615 0.958 . S
H1630 C1615 0.961 . S
H1631 C1615 0.960 . S
C1632 C1633 1.391 . S
C1632 C1634 1.394 1_565 S
C1632 H1648 0.925 1_565 S
C1633 C1632 1.391 . S
C1633 C1637 1.376 . S
C1634 C1632 1.394 1_545 S
C1634 C1635 1.369 1_545 S
C1634 C1638 1.531 . S
C1635 C1634 1.369 1_565 S
C1635 C1636 1.410 . S
C1635 C1643 1.503 1_565 S
C1636 C1635 1.410 . S
C1636 C1637 1.392 . S
C1636 C1639 1.511 1_455 S
C1637 C1633 1.376 . S
C1637 C1636 1.392 . S
C1637 H1649 0.929 . S
C1638 C1634 1.531 . S
C1638 H1650 0.960 . S
C1638 H1651 0.962 . S
C1638 H1652 0.960 . S
C1639 C1636 1.511 1_655 S
C1639 H1653 0.961 . S
C1639 H1654 0.961 . S
C1639 H1655 0.961 . S
C1640 C1641 1.370 . S
C1640 C1642 1.365 . S
C1640 H1656 0.931 . S
C1641 C1640 1.370 . S
C1641 C1645 1.408 1_655 S
C1642 C1640 1.365 . S
C1642 C1643 1.368 1_655 S
C1642 C1646 1.524 . S
C1643 C1635 1.503 1_545 S
C1643 C1642 1.368 1_455 S
C1643 C1644 1.403 1_545 S
C1644 C1643 1.403 1_565 S
C1644 C1645 1.404 1_565 S
C1644 C1647 1.539 . S
C1645 C1641 1.408 1_455 S
C1645 C1644 1.404 1_545 S
C1645 H1657 0.930 1_545 S
C1646 C1642 1.524 . S
C1646 H1658 0.956 1_655 S
C1646 H1659 0.961 . S
C1646 H1660 0.961 . S
C1647 C1644 1.539 . S
C1647 H1661 0.958 . S
C1647 H1662 0.961 . S
C1647 H1663 0.960 . S
H1648 C1632 0.925 1_545 S
H1649 C1637 0.929 . S
H1650 C1638 0.960 . S
H1651 C1638 0.962 . S
H1652 C1638 0.960 . S
H1653 C1639 0.961 . S
H1654 C1639 0.961 . S
H1655 C1639 0.961 . S
H1656 C1640 0.931 . S
H1657 C1645 0.930 1_565 S
H1658 C1646 0.956 1_455 S
H1659 C1646 0.961 . S
H1660 C1646 0.961 . S
H1661 C1647 0.958 . S
H1662 C1647 0.961 . S
H1663 C1647 0.960 . S
C1664 C1665 1.391 . S
C1664 C1666 1.394 . S
C1664 H1680 0.931 . S
C1665 C1664 1.391 . S
C1665 C1669 1.376 . S
C1666 C1664 1.394 . S
C1666 C1667 1.369 . S
C1666 C1670 1.531 . S
C1667 C1666 1.369 . S
C1667 C1668 1.410 . S
C1667 C1675 1.503 . S
C1668 C1667 1.410 . S
C1668 C1669 1.392 . S
C1668 C1671 1.511 . S
C1669 C1665 1.376 . S
C1669 C1668 1.392 . S
C1669 H1681 0.929 . S
C1670 C1666 1.531 . S
C1670 H1682 0.960 . S
C1670 H1683 0.985 . S
C1670 H1684 0.960 . S
C1671 C1668 1.511 . S
C1671 H1685 0.961 . S
C1671 H1686 0.961 . S
C1671 H1687 0.961 . S
C1672 C1673 1.370 . S
C1672 C1674 1.363 . S
C1672 H1688 0.931 . S
C1673 C1672 1.370 . S
C1673 C1677 1.408 1_565 S
C1674 C1672 1.363 . S
C1674 C1675 1.370 1_565 S
C1674 C1678 1.524 . S
C1675 C1667 1.503 . S
C1675 C1674 1.370 1_545 S
C1675 C1676 1.403 . S
C1676 C1675 1.403 . S
C1676 C1677 1.404 . S
C1676 C1679 1.539 . S
C1677 C1673 1.408 1_545 S
C1677 C1676 1.404 . S
C1677 H1689 0.930 . S
C1678 C1674 1.524 . S
C1678 H1690 0.956 . S
C1678 H1691 0.961 . S
C1678 H1692 0.961 . S
C1679 C1676 1.539 . S
C1679 H1693 0.958 . S
C1679 H1694 0.961 . S
C1679 H1695 0.960 . S
H1680 C1664 0.931 . S
H1681 C1669 0.929 . S
H1682 C1670 0.960 . S
H1683 C1670 0.985 . S
H1684 C1670 0.960 . S
H1685 C1671 0.961 . S
H1686 C1671 0.961 . S
H1687 C1671 0.961 . S
H1688 C1672 0.931 . S
H1689 C1677 0.930 . S
H1690 C1678 0.956 . S
H1691 C1678 0.961 . S
H1692 C1678 0.961 . S
H1693 C1679 0.958 . S
H1694 C1679 0.961 . S
H1695 C1679 0.960 . S
C1696 C1697 1.391 . S
C1696 C1698 1.394 . S
C1696 H1712 0.931 . S
C1697 C1696 1.391 . S
C1697 C1701 1.376 . S
C1698 C1696 1.394 . S
C1698 C1699 1.369 . S
C1698 C1702 1.531 . S
C1699 C1698 1.369 . S
C1699 C1700 1.410 . S
C1699 C1707 1.503 . S
C1700 C1699 1.410 . S
C1700 C1701 1.392 . S
C1700 C1703 1.511 . S
C1701 C1697 1.376 . S
C1701 C1700 1.392 . S
C1701 H1713 0.929 . S
C1702 C1698 1.531 . S
C1702 H1714 0.960 . S
C1702 H1715 0.962 . S
C1702 H1716 0.960 . S
C1703 C1700 1.511 . S
C1703 H1717 0.961 . S
C1703 H1718 0.961 . S
C1703 H1719 0.961 . S
C1704 C1705 1.370 . S
C1704 C1706 1.363 . S
C1704 H1720 0.931 . S
C1705 C1704 1.370 . S
C1705 C1709 1.408 . S
C1706 C1704 1.363 . S
C1706 C1707 1.370 . S
C1706 C1710 1.524 . S
C1707 C1699 1.503 . S
C1707 C1706 1.370 . S
C1707 C1708 1.403 . S
C1708 C1707 1.403 . S
C1708 C1709 1.404 . S
C1708 C1711 1.539 . S
C1709 C1705 1.408 . S
C1709 C1708 1.404 . S
C1709 H1721 0.930 . S
C1710 C1706 1.524 . S
C1710 H1722 0.956 . S
C1710 H1723 0.961 . S
C1710 H1724 0.961 . S
C1711 C1708 1.539 . S
C1711 H1725 0.958 . S
C1711 H1726 0.961 . S
C1711 H1727 0.960 . S
H1712 C1696 0.931 . S
H1713 C1701 0.929 . S
H1714 C1702 0.960 . S
H1715 C1702 0.962 . S
H1716 C1702 0.960 . S
H1717 C1703 0.961 . S
H1718 C1703 0.961 . S
H1719 C1703 0.961 . S
H1720 C1704 0.931 . S
H1721 C1709 0.930 . S
H1722 C1710 0.956 . S
H1723 C1710 0.961 . S
H1724 C1710 0.961 . S
H1725 C1711 0.958 . S
H1726 C1711 0.961 . S
H1727 C1711 0.960 . S
C1728 C1729 1.391 1_455 S
C1728 C1730 1.394 . S
C1728 H1744 0.931 . S
C1729 C1728 1.391 1_655 S
C1729 C1733 1.376 . S
C1730 C1728 1.394 . S
C1730 C1731 1.369 1_455 S
C1730 C1734 1.531 . S
C1731 C1730 1.369 1_655 S
C1731 C1732 1.410 . S
C1731 C1739 1.503 . S
C1732 C1731 1.410 . S
C1732 C1733 1.392 . S
C1732 C1735 1.511 . S
C1733 C1729 1.376 . S
C1733 C1732 1.392 . S
C1733 H1745 0.929 . S
C1734 C1730 1.531 . S
C1734 H1746 0.960 . S
C1734 H1747 0.962 . S
C1734 H1748 0.960 . S
C1735 C1732 1.511 . S
C1735 H1749 0.961 . S
C1735 H1750 0.961 . S
C1735 H1751 0.961 . S
C1736 C1737 1.370 . S
C1736 C1738 1.363 . S
C1736 H1752 0.931 . S
C1737 C1736 1.370 . S
C1737 C1741 1.408 . S
C1738 C1736 1.363 . S
C1738 C1739 1.370 . S
C1738 C1742 1.524 1_655 S
C1739 C1731 1.503 . S
C1739 C1738 1.370 . S
C1739 C1740 1.403 . S
C1740 C1739 1.403 . S
C1740 C1741 1.404 . S
C1740 C1743 1.539 . S
C1741 C1737 1.408 . S
C1741 C1740 1.404 . S
C1741 H1753 0.930 . S
C1742 C1738 1.524 1_455 S
C1742 H1754 0.956 . S
C1742 H1755 0.961 1_455 S
C1742 H1756 0.961 . S
C1743 C1740 1.539 . S
C1743 H1757 0.958 . S
C1743 H1758 0.961 . S
C1743 H1759 0.960 . S
H1744 C1728 0.931 . S
H1745 C1733 0.929 . S
H1746 C1734 0.960 . S
H1747 C1734 0.962 . S
H1748 C1734 0.960 . S
H1749 C1735 0.961 . S
H1750 C1735 0.961 . S
H1751 C1735 0.961 . S
H1752 C1736 0.931 . S
H1753 C1741 0.930 . S
H1754 C1742 0.956 . S
H1755 C1742 0.961 1_655 S
H1756 C1742 0.961 . S
H1757 C1743 0.958 . S
H1758 C1743 0.961 . S
H1759 C1743 0.960 . S
C1760 C1761 1.391 . S
C1760 C1762 1.394 . S
C1760 H1776 0.931 . S
C1761 C1760 1.391 . S
C1761 C1765 1.376 . S
C1762 C1760 1.394 . S
C1762 C1763 1.369 . S
C1762 C1766 1.531 1_645 S
C1763 C1762 1.369 . S
C1763 C1764 1.410 . S
C1763 C1771 1.503 1_545 S
C1764 C1763 1.410 . S
C1764 C1765 1.392 . S
C1764 C1767 1.511 . S
C1765 C1761 1.376 . S
C1765 C1764 1.392 . S
C1765 H1777 0.929 . S
C1766 C1762 1.531 1_465 S
C1766 H1778 0.960 . S
C1766 H1779 0.962 . S
C1766 H1780 0.960 1_565 S
C1767 C1764 1.511 . S
C1767 H1781 0.961 . S
C1767 H1782 0.961 1_545 S
C1767 H1783 0.961 . S
C1768 C1769 1.370 1_655 S
C1768 C1770 1.363 . S
C1768 H1784 0.931 . S
C1769 C1768 1.370 1_455 S
C1769 C1773 1.408 . S
C1770 C1768 1.363 . S
C1770 C1771 1.370 . S
C1770 C1774 1.524 . S
C1771 C1763 1.503 1_565 S
C1771 C1770 1.370 . S
C1771 C1772 1.403 1_665 S
C1772 C1771 1.403 1_445 S
C1772 C1773 1.404 1_545 S
C1772 C1775 1.539 . S
C1773 C1769 1.408 . S
C1773 C1772 1.404 1_565 S
C1773 H1785 0.930 1_565 S
C1774 C1770 1.524 . S
C1774 H1786 0.956 . S
C1774 H1787 0.961 . S
C1774 H1788 0.961 . S
C1775 C1772 1.539 . S
C1775 H1789 0.958 . S
C1775 H1790 0.961 . S
C1775 H1791 0.960 1_455 S
H1776 C1760 0.931 . S
H1777 C1765 0.929 . S
H1778 C1766 0.960 . S
H1779 C1766 0.962 . S
H1780 C1766 0.960 1_545 S
H1781 C1767 0.961 . S
H1782 C1767 0.961 1_565 S
H1783 C1767 0.961 . S
H1784 C1768 0.931 . S
H1785 C1773 0.930 1_545 S
H1786 C1774 0.956 . S
H1787 C1774 0.961 . S
H1788 C1774 0.961 . S
H1789 C1775 0.958 . S
H1790 C1775 0.961 . S
H1791 C1775 0.960 1_655 S
C1792 C1793 1.391 . S
C1792 C1794 1.394 1_565 S
C1792 H1808 0.931 . S
C1793 C1792 1.391 . S
C1793 C1797 1.376 . S
C1794 C1792 1.394 1_545 S
C1794 C1795 1.369 1_545 S
C1794 C1798 1.531 . S
C1795 C1794 1.369 1_565 S
C1795 C1796 1.410 . S
C1795 C1803 1.503 1_565 S
C1796 C1795 1.410 . S
C1796 C1797 1.392 . S
C1796 C1799 1.511 . S
C1797 C1793 1.376 . S
C1797 C1796 1.392 . S
C1797 H1809 0.929 . S
C1798 C1794 1.531 . S
C1798 H1810 0.960 . S
C1798 H1811 0.962 . S
C1798 H1812 0.960 . S
C1799 C1796 1.511 . S
C1799 H1813 0.961 . S
C1799 H1814 0.961 . S
C1799 H1815 0.961 . S
C1800 C1801 1.351 1_565 S
C1800 C1802 1.371 . S
C1800 H1816 0.943 . S
C1801 C1800 1.351 1_545 S
C1801 C1805 1.408 . S
C1802 C1800 1.371 . S
C1802 C1803 1.370 1_565 S
C1802 C1806 1.524 . S
C1803 C1795 1.503 1_545 S
C1803 C1802 1.370 1_545 S
C1803 C1804 1.403 . S
C1804 C1803 1.403 . S
C1804 C1805 1.404 . S
C1804 C1807 1.539 . S
C1805 C1801 1.408 . S
C1805 C1804 1.404 . S
C1805 H1817 0.930 . S
C1806 C1802 1.524 . S
C1806 H1818 0.956 . S
C1806 H1819 0.961 . S
C1806 H1820 0.961 . S
C1807 C1804 1.539 . S
C1807 H1821 0.958 . S
C1807 H1822 0.961 . S
C1807 H1823 0.960 . S
H1808 C1792 0.931 . S
H1809 C1797 0.929 . S
H1810 C1798 0.960 . S
H1811 C1798 0.962 . S
H1812 C1798 0.960 . S
H1813 C1799 0.961 . S
H1814 C1799 0.961 . S
H1815 C1799 0.961 . S
H1816 C1800 0.943 . S
H1817 C1805 0.930 . S
H1818 C1806 0.956 . S
H1819 C1806 0.961 . S
H1820 C1806 0.961 . S
H1821 C1807 0.958 . S
H1822 C1807 0.961 . S
H1823 C1807 0.960 . S
C1824 C1825 1.391 . S
C1824 C1826 1.394 . S
C1824 H1840 0.931 . S
C1825 C1824 1.391 . S
C1825 C1829 1.376 . S
C1826 C1824 1.394 . S
C1826 C1827 1.369 . S
C1826 C1830 1.531 . S
C1827 C1826 1.369 . S
C1827 C1828 1.410 . S
C1827 C1835 1.503 . S
C1828 C1827 1.410 . S
C1828 C1829 1.392 . S
C1828 C1831 1.511 . S
C1829 C1825 1.376 . S
C1829 C1828 1.392 . S
C1829 H1841 0.929 . S
C1830 C1826 1.531 . S
C1830 H1842 0.960 . S
C1830 H1843 0.962 . S
C1830 H1844 0.960 . S
C1831 C1828 1.511 . S
C1831 H1845 0.961 . S
C1831 H1846 0.961 . S
C1831 H1847 0.961 . S
C1832 C1833 1.370 . S
C1832 C1834 1.363 . S
C1832 H1848 0.931 . S
C1833 C1832 1.370 . S
C1833 C1837 1.408 . S
C1834 C1832 1.363 . S
C1834 C1835 1.370 . S
C1834 C1838 1.524 . S
C1835 C1827 1.503 . S
C1835 C1834 1.370 . S
C1835 C1836 1.403 . S
C1836 C1835 1.403 . S
C1836 C1837 1.404 . S
C1836 C1839 1.539 . S
C1837 C1833 1.408 . S
C1837 C1836 1.404 . S
C1837 H1849 0.930 . S
C1838 C1834 1.524 . S
C1838 H1850 0.956 . S
C1838 H1851 0.961 . S
C1838 H1852 0.961 . S
C1839 C1836 1.539 . S
C1839 H1853 0.958 . S
C1839 H1854 0.961 . S
C1839 H1855 0.960 . S
H1840 C1824 0.931 . S
H1841 C1829 0.929 . S
H1842 C1830 0.960 . S
H1843 C1830 0.962 . S
H1844 C1830 0.960 . S
H1845 C1831 0.961 . S
H1846 C1831 0.961 . S
H1847 C1831 0.961 . S
H1848 C1832 0.931 . S
H1849 C1837 0.930 . S
H1850 C1838 0.956 . S
H1851 C1838 0.961 . S
H1852 C1838 0.961 . S
H1853 C1839 0.958 . S
H1854 C1839 0.961 . S
H1855 C1839 0.960 . S
C321 C79 1.970 . S
C329 C12 2.001 . S
C353 C2 1.588 . S
C361 C32 1.654 . S
C385 C52 1.627 . S
C393 C22 1.651 . S
C417 C42 1.845 . S
C425 C69 1.881 . S
C449 C92 1.819 . S
C457 C102 1.785 . S
C481 C112 1.847 . S
C489 C122 1.848 . S
C513 C132 2.015 . S
C521 C142 1.963 . S
C545 C82 1.758 . S
C553 C152 1.837 . S
C577 C169 2.002 . S
C585 C238 1.977 . S
C609 C164 1.637 . S
C617 C189 1.635 . S
C641 C184 1.677 . S
C649 C209 1.651 . S
C673 C204 1.869 . S
C681 C232 1.893 . S
C705 C249 1.835 . S
C713 C264 1.789 . S
C737 C284 1.813 . S
C745 C269 1.882 . S
C769 C304 1.984 . S
C777 C289 2.010 . S
C801 C309 1.855 . S
C809 C244 1.785 . S
C833 C18 1.841 . S
C841 C98 1.852 . S
C865 C118 1.718 . S
C873 C38 1.728 . S
C897 C58 2.218 . S
C905 C138 2.233 . S
C929 C64 1.209 . S
C937 C158 1.292 . S
C961 C259 1.852 . S
C969 C179 1.849 . S
C993 C279 1.725 . S
C1001 C199 1.725 . S
C1025 C219 2.221 . S
C1033 C299 2.232 . S
C1057 C319 1.289 . S
C1065 C222 1.230 . S
C1089 C9 1.063 . S
C1097 C49 1.138 . S
C1121 C29 0.794 . S
C1129 C72 0.866 . S
C1153 C129 1.282 . S
C1161 C89 1.225 . S
C1185 C149 1.186 . S
C1193 C109 1.103 . S
C1217 C212 1.111 . S
C1225 C172 1.117 . S
C1249 C229 0.881 . S
C1257 C192 0.823 . S
C1281 C252 1.212 . S
C1289 C292 1.252 . S
C1313 C272 1.104 . S
C1321 C312 1.139 . S
C1345 C178 1.497 . S
C1353 C19 1.480 . S
C1377 C198 1.413 . S
C1385 C39 1.425 . S
C1409 C218 1.795 . S
C1417 C59 1.793 . S
C1441 C62 0.881 . S
C1449 C224 0.996 . S
C1473 C258 1.429 . S
C1481 C99 1.404 . S
C1505 C278 1.281 . S
C1513 C119 1.324 . S
C1537 C298 1.584 . S
C1545 C139 1.578 . S
C1569 C318 1.340 . S
C1577 C159 1.389 . S
C1601 C144 0.835 1_455 S
C1609 C4 0.911 . S
C1633 C84 0.850 . S
C1641 C24 0.839 . S
C1665 C104 0.965 . S
C1673 C44 0.918 . S
C1697 C124 0.825 . S
C1705 C78 1.049 . S
C1729 C302 0.942 1_655 S
C1737 C162 0.938 . S
C1761 C242 0.791 . S
C1769 C182 0.829 . S
C1793 C262 0.793 . S
C1801 C202 0.860 . S
C1825 C239 1.068 . S
C1833 C282 0.899 . S
