# Generated by pormake.
# Topology fnz, (5)-cn, num edge types: 1
# Building blocks:
#     Node 0, Type 0, BuildingBlock: BEQFEK_clean_sbu_0, # of connection points: 5
#     Node 1, Type 0, BuildingBlock: BEQFEK_clean_sbu_0, # of connection points: 5
#     Node 2, Type 0, BuildingBlock: BEQFEK_clean_sbu_0, # of connection points: 5
#     Node 3, Type 0, BuildingBlock: BEQFEK_clean_sbu_0, # of connection points: 5
#     Node 4, Type 0, BuildingBlock: BEQFEK_clean_sbu_0, # of connection points: 5
#     Node 5, Type 0, BuildingBlock: BEQFEK_clean_sbu_0, # of connection points: 5
#     Node 6, Type 0, BuildingBlock: BEQFEK_clean_sbu_0, # of connection points: 5
#     Node 7, Type 0, BuildingBlock: BEQFEK_clean_sbu_0, # of connection points: 5
#     Node 8, Type 0, BuildingBlock: BEQFEK_clean_sbu_0, # of connection points: 5
#     Node 9, Type 0, BuildingBlock: BEQFEK_clean_sbu_0, # of connection points: 5
#     Node 10, Type 0, BuildingBlock: BEQFEK_clean_sbu_0, # of connection points: 5
#     Node 11, Type 0, BuildingBlock: BEQFEK_clean_sbu_0, # of connection points: 5
#     Edge 12, Type (0, 0), BuildingBlock: AJUNOK_clean_linker_0, # of connection points: 2
#     Edge 13, Type (0, 0), BuildingBlock: AJUNOK_clean_linker_0, # of connection points: 2
#     Edge 14, Type (0, 0), BuildingBlock: AJUNOK_clean_linker_0, # of connection points: 2
#     Edge 15, Type (0, 0), BuildingBlock: AJUNOK_clean_linker_0, # of connection points: 2
#     Edge 16, Type (0, 0), BuildingBlock: AJUNOK_clean_linker_0, # of connection points: 2
#     Edge 17, Type (0, 0), BuildingBlock: AJUNOK_clean_linker_0, # of connection points: 2
#     Edge 18, Type (0, 0), BuildingBlock: AJUNOK_clean_linker_0, # of connection points: 2
#     Edge 19, Type (0, 0), BuildingBlock: AJUNOK_clean_linker_0, # of connection points: 2
#     Edge 20, Type (0, 0), BuildingBlock: AJUNOK_clean_linker_0, # of connection points: 2
#     Edge 21, Type (0, 0), BuildingBlock: AJUNOK_clean_linker_0, # of connection points: 2
#     Edge 22, Type (0, 0), BuildingBlock: AJUNOK_clean_linker_0, # of connection points: 2
#     Edge 23, Type (0, 0), BuildingBlock: AJUNOK_clean_linker_0, # of connection points: 2
#     Edge 24, Type (0, 0), BuildingBlock: AJUNOK_clean_linker_0, # of connection points: 2
#     Edge 25, Type (0, 0), BuildingBlock: AJUNOK_clean_linker_0, # of connection points: 2
#     Edge 26, Type (0, 0), BuildingBlock: AJUNOK_clean_linker_0, # of connection points: 2
#     Edge 27, Type (0, 0), BuildingBlock: AJUNOK_clean_linker_0, # of connection points: 2
#     Edge 28, Type (0, 0), BuildingBlock: AJUNOK_clean_linker_0, # of connection points: 2
#     Edge 29, Type (0, 0), BuildingBlock: AJUNOK_clean_linker_0, # of connection points: 2
#     Edge 30, Type (0, 0), BuildingBlock: AJUNOK_clean_linker_0, # of connection points: 2
#     Edge 31, Type (0, 0), BuildingBlock: AJUNOK_clean_linker_0, # of connection points: 2
#     Edge 32, Type (0, 0), BuildingBlock: AJUNOK_clean_linker_0, # of connection points: 2
#     Edge 33, Type (0, 0), BuildingBlock: AJUNOK_clean_linker_0, # of connection points: 2
#     Edge 34, Type (0, 0), BuildingBlock: AJUNOK_clean_linker_0, # of connection points: 2
#     Edge 35, Type (0, 0), BuildingBlock: AJUNOK_clean_linker_0, # of connection points: 2
#     Edge 36, Type (0, 0), BuildingBlock: AJUNOK_clean_linker_0, # of connection points: 2
#     Edge 37, Type (0, 0), BuildingBlock: AJUNOK_clean_linker_0, # of connection points: 2
#     Edge 38, Type (0, 0), BuildingBlock: AJUNOK_clean_linker_0, # of connection points: 2
#     Edge 39, Type (0, 0), BuildingBlock: AJUNOK_clean_linker_0, # of connection points: 2
#     Edge 40, Type (0, 0), BuildingBlock: AJUNOK_clean_linker_0, # of connection points: 2
#     Edge 41, Type (0, 0), BuildingBlock: AJUNOK_clean_linker_0, # of connection points: 2
# Relax obj value: 0.287
# Max RMSD: 0.256
# Mean RMSD: 0.235
data_MOF--net-fnz--node1-BEQFEK_clean_sbu_0--edge1-AJUNOK_clean_linker_0
_symmetry_space_group_name_H-M    P1
_symmetry_Int_Tables_number       1
_symmetry_cell_setting            triclinic
loop_
_symmetry_equiv_pos_as_xyz
'x, y, z'
_cell_length_a     29.565701
_cell_length_b     29.216865
_cell_length_c     26.936952
_cell_angle_alpha  89.993813
_cell_angle_beta   89.535905
_cell_angle_gamma 119.87941
loop_
_atom_site_label
_atom_site_type_symbol
_atom_site_fract_x
_atom_site_fract_y
_atom_site_fract_z
_atom_type_partial_charge
Co0 Co 0.41842 0.13942 0.09537 0.0
Co1 Co 0.39469 0.12053 0.97573 0.0
C2 C 0.45937 0.0831 1.03405 0.0
O3 O 0.4584 0.10546 0.07459 0.0
O4 O 0.44 0.08923 0.99375 0.0
C5 C 0.45738 0.16875 0.20242 0.0
O6 O 0.49736 0.16287 0.19054 0.0
C7 C 0.41362 0.15388 0.86499 0.0
C8 C 0.33648 0.09693 0.83559 0.0
C9 C 0.38434 0.13895 0.82102 0.0
N10 N 0.38399 0.12217 0.90303 0.0
N11 N 0.33805 0.08828 0.88448 0.0
C12 C 0.46944 0.19581 0.87022 0.0
H13 H 0.48521 0.19126 0.906 0.0
H14 H 0.47265 0.23525 0.86922 0.0
H15 H 0.49282 0.1938 0.83871 0.0
C16 C 0.43742 0.24232 0.0672 0.0
N17 N 0.43021 0.19522 0.0529 0.0
N18 N 0.41484 0.18672 1.00632 0.0
C19 C 0.40851 0.22707 0.99087 0.0
C20 C 0.42273 0.26345 1.02902 0.0
C21 C 0.45075 0.26332 0.11894 0.0
H22 H 0.41588 0.24215 0.1433 0.0
H23 H 0.48213 0.25683 0.13344 0.0
H24 H 0.46385 0.30614 0.11989 0.0
O25 O 0.34741 0.07962 0.08724 0.0
O26 O 0.32875 0.06525 1.00659 0.0
H27 H 0.3491 0.18407 0.9368 0.0
H28 H 0.35944 0.24923 0.95012 0.0
C29 C 0.37888 0.22535 0.94539 0.0
H30 H 0.40632 0.24196 0.91355 0.0
H31 H 0.30717 0.05941 0.90546 0.0
O32 O 0.42356 0.16058 0.16916 0.0
C33 C 0.31785 0.05182 0.05214 0.0
Co34 Co 0.3269 0.47771 0.13125 0.0
Co35 Co 0.34409 0.50117 1.01659 0.0
C36 C 0.4177 0.56012 0.08841 0.0
O37 O 0.39235 0.54707 0.12894 0.0
O38 O 0.3942 0.56514 0.05151 0.0
C39 C 0.30222 0.50179 0.22263 0.0
O40 O 0.32409 0.54772 0.19978 0.0
C41 C 0.31978 0.54684 0.93428 0.0
C42 C 0.33673 0.51143 0.86961 0.0
C43 C 0.31486 0.54217 0.88316 0.0
N44 N 0.34194 0.51907 0.94994 0.0
N45 N 0.35328 0.49902 0.91112 0.0
C46 C 0.30458 0.57752 0.96833 0.0
H47 H 0.33645 0.59988 0.99507 0.0
H48 H 0.2696 0.54998 0.99035 0.0
H49 H 0.29649 0.60528 0.94725 0.0
C50 C 0.21931 0.44106 0.10368 0.0
N51 N 0.27043 0.47129 0.09231 0.0
N52 N 0.27619 0.47067 0.04391 0.0
C53 C 0.22971 0.437 1.02354 0.0
C54 C 0.19208 0.41687 0.06091 0.0
C55 C 0.19654 0.43558 0.15459 0.0
H56 H 0.21424 0.47483 0.1724 0.0
H57 H 0.15371 0.41926 0.15336 0.0
H58 H 0.20476 0.40892 0.17712 0.0
O59 O 0.34452 0.42455 0.10349 0.0
O60 O 0.36424 0.44776 1.02342 0.0
H61 H 0.25985 0.41634 0.95982 0.0
H62 H 0.19003 0.37558 0.96911 0.0
C63 C 0.2238 0.41621 0.9718 0.0
H64 H 0.21736 0.44197 0.94624 0.0
H65 H 0.36927 0.47431 0.91327 0.0
O66 O 0.30227 0.46322 0.20087 0.0
C67 C 0.36001 0.41877 0.06053 0.0
Co68 Co 0.89007 0.27801 0.13664 0.0
Co69 Co 0.87473 0.27286 1.01439 0.0
C70 C 0.91339 0.37288 0.07054 0.0
O71 O 0.90883 0.34911 0.1118 0.0
O72 O 0.89587 0.34775 1.02966 0.0
C73 C 0.8554 0.28512 0.24164 0.0
O74 O 0.8383 0.31489 0.22232 0.0
C75 C 0.83443 0.25535 0.90489 0.0
C76 C 0.86711 0.20569 0.88063 0.0
C77 C 0.83728 0.22691 0.86378 0.0
N78 N 0.8609 0.25011 0.94365 0.0
N79 N 0.88009 0.2203 0.92807 0.0
C80 C 0.80914 0.28864 0.90666 0.0
H81 H 0.82876 0.32057 0.93438 0.0
H82 H 0.76775 0.26379 0.91823 0.0
H83 H 0.81036 0.30567 0.86949 0.0
C84 C 0.79381 0.17976 0.12726 0.0
N85 N 0.83027 0.22494 0.10607 0.0
N86 N 0.82213 0.22323 0.05785 0.0
C87 C 0.77918 0.17698 0.04737 0.0
C88 C 0.76043 0.14812 0.09094 0.0
C89 C 0.79676 0.16324 0.17924 0.0
H90 H 0.83766 0.17479 0.18794 0.0
H91 H 0.78308 0.18323 0.20529 0.0
H92 H 0.7722 0.12004 0.18492 0.0
O93 O 0.95245 0.2749 0.11282 0.0
O94 O 0.94228 0.27775 1.03086 0.0
H95 H 0.78574 0.1494 0.97564 0.0
H96 H 0.71943 0.12317 0.99744 0.0
C97 C 0.7588 0.15883 0.99624 0.0
H98 H 0.75674 0.19084 0.9762 0.0
H99 H 0.902 0.20936 0.95022 0.0
O100 O 0.87983 0.26916 0.21339 0.0
C101 C 0.96953 0.27966 0.06818 0.0
Co102 Co 0.51324 0.8446 0.13525 0.0
Co103 Co 0.54111 0.8553 1.02281 0.0
C104 C 0.47173 0.89086 0.05745 0.0
O105 O 0.47619 0.87667 0.10103 0.0
O106 O 0.48798 0.87687 1.01976 0.0
C107 C 0.44864 0.76345 0.20194 0.0
O108 O 0.43346 0.73667 0.16039 0.0
C109 C 0.54524 0.82823 0.9199 0.0
C110 C 0.63046 0.86456 0.90879 0.0
C111 C 0.58286 0.82969 0.88789 0.0
N112 N 0.56964 0.85864 0.95911 0.0
N113 N 0.62051 0.88187 0.95138 0.0
C114 C 0.48732 0.79306 0.91706 0.0
H115 H 0.46893 0.78868 0.95416 0.0
H116 H 0.47725 0.75377 0.90205 0.0
H117 H 0.47145 0.81115 0.89136 0.0
C118 C 0.55178 0.7728 0.1222 0.0
N119 N 0.5254 0.79494 0.10252 0.0
N120 N 0.52453 0.79048 0.05395 0.0
C121 C 0.54718 0.76153 0.04198 0.0
C122 C 0.56711 0.75161 0.08429 0.0
C123 C 0.57174 0.78206 0.17428 0.0
H124 H 0.56871 0.81481 0.19167 0.0
H125 H 0.54845 0.7456 0.19649 0.0
H126 H 0.61301 0.79137 0.17482 0.0
O127 O 0.58161 0.90633 0.14287 0.0
O128 O 0.59773 0.91216 0.06132 0.0
H129 H 0.58074 0.77001 0.96978 0.0
H130 H 0.55126 0.70444 0.99429 0.0
C131 C 0.54726 0.74019 0.99158 0.0
H132 H 0.51046 0.72965 0.97238 0.0
H133 H 0.64842 0.90579 0.97719 0.0
O134 O 0.48035 0.81295 0.20019 0.0
C135 C 0.61085 0.92923 0.10542 0.0
Co136 Co 0.67519 0.54733 0.11946 0.0
Co137 Co 0.68896 0.57727 0.99966 0.0
C138 C 0.58341 0.51093 0.05599 0.0
O139 O 0.60281 0.5058 0.09662 0.0
O140 O 0.61196 0.53316 1.01732 0.0
C141 C 0.66977 0.51335 0.23055 0.0
O142 O 0.62516 0.46985 0.22341 0.0
C143 C 0.70998 0.56197 0.88879 0.0
C144 C 0.7385 0.64297 0.86175 0.0
C145 C 0.73093 0.5944 0.84615 0.0
N146 N 0.7068 0.59085 0.92702 0.0
N147 N 0.72378 0.63909 0.90973 0.0
C148 C 0.69094 0.50415 0.8928 0.0
H149 H 0.65935 0.48595 0.92117 0.0
H150 H 0.72331 0.49807 0.90497 0.0
H151 H 0.67661 0.48459 0.85641 0.0
C152 C 0.761 0.53197 0.09547 0.0
N153 N 0.72108 0.53691 0.07859 0.0
N154 N 0.73144 0.55536 1.03274 0.0
C155 C 0.78019 0.56651 1.02085 0.0
C156 C 0.80078 0.55318 0.06081 0.0
C157 C 0.76582 0.51807 0.14784 0.0
H158 H 0.78159 0.55404 0.17099 0.0
H159 H 0.72717 0.4877 0.16233 0.0
H160 H 0.79313 0.50246 0.14998 0.0
O161 O 0.68439 0.61808 0.10919 0.0
O162 O 0.70048 0.64405 1.03009 0.0
H163 H 0.80328 0.6334 0.97294 0.0
H164 H 0.85269 0.61442 0.98035 0.0
C165 C 0.81024 0.59962 0.97702 0.0
H166 H 0.7965 0.57543 0.94298 0.0
H167 H 0.72629 0.67006 0.93108 0.0
O168 O 0.69121 0.54539 0.19411 0.0
C169 C 0.6918 0.6514 0.07511 0.0
Co170 Co 0.11308 0.68336 0.14114 0.0
Co171 Co 0.09907 0.6755 1.02714 0.0
C172 C 0.08983 0.58741 0.07656 0.0
O173 O 0.09334 0.6111 0.1173 0.0
O174 O 0.10649 0.61362 1.03647 0.0
C175 C 0.18604 0.69576 0.21633 0.0
O176 O 0.20535 0.6783 0.18196 0.0
C177 C 0.11855 0.68931 0.92186 0.0
C178 C 0.06045 0.71173 0.89954 0.0
C179 C 0.10423 0.71023 0.883 0.0
N180 N 0.08638 0.68158 0.96019 0.0
N181 N 0.05024 0.69266 0.94608 0.0
C182 C 0.16623 0.68387 0.92537 0.0
H183 H 0.17721 0.68434 0.96476 0.0
H184 H 0.19942 0.71558 0.90421 0.0
H185 H 0.15747 0.64546 0.90906 0.0
C186 C 0.18432 0.79341 0.11391 0.0
N187 N 0.15651 0.74243 0.1004 0.0
N188 N 0.15305 0.73977 0.05179 0.0
C189 C 0.17969 0.78926 1.03281 0.0
C190 C 0.20012 0.8247 0.07167 0.0
C191 C 0.1873 0.81219 0.16601 0.0
H192 H 0.15075 0.78553 0.18644 0.0
H193 H 0.22054 0.81196 0.18449 0.0
H194 H 0.19369 0.85296 0.16712 0.0
O195 O 0.04382 0.67636 0.1434 0.0
O196 O 0.03497 0.65933 0.06226 0.0
H197 H 0.14285 0.79152 0.96569 0.0
H198 H 0.2086 0.84582 0.97192 0.0
C199 C 0.18246 0.80312 0.97901 0.0
H200 H 0.19821 0.78189 0.95767 0.0
H201 H 0.02178 0.69209 0.96964 0.0
O202 O 0.14451 0.6971 0.20765 0.0
C203 C 0.01638 0.66152 0.10427 0.0
Co204 Co 0.83959 0.54116 0.55629 0.0
Co205 Co 0.84761 0.65032 0.54649 0.0
C206 C 0.80386 0.58527 0.64201 0.0
O207 O 0.80971 0.54767 0.62435 0.0
O208 O 0.81692 0.62667 0.61583 0.0
C209 C 0.8778 0.4799 0.58405 0.0
O210 O 0.87647 0.50284 0.62553 0.0
C211 C 0.81763 0.73087 0.53818 0.0
C212 C 0.8747 0.78499 0.48251 0.0
C213 C 0.83061 0.77508 0.50923 0.0
N214 N 0.85228 0.71523 0.52884 0.0
N215 N 0.88743 0.74874 0.49688 0.0
C216 C 0.76794 0.69838 0.56695 0.0
H217 H 0.76048 0.6576 0.57248 0.0
H218 H 0.73422 0.69673 0.54751 0.0
H219 H 0.7712 0.71684 0.60372 0.0
C220 C 0.7811 0.52326 0.45903 0.0
N221 N 0.80528 0.55174 0.49999 0.0
N222 N 0.80818 0.5981 0.49673 0.0
C223 C 0.78523 0.60013 0.45412 0.0
C224 C 0.76781 0.55319 0.42805 0.0
C225 C 0.77491 0.47026 0.44818 0.0
H226 H 0.81381 0.47319 0.44845 0.0
H227 H 0.7511 0.44222 0.47808 0.0
H228 H 0.75623 0.45497 0.41175 0.0
O229 O 0.91556 0.5922 0.55134 0.0
O230 O 0.92161 0.66967 0.54344 0.0
H231 H 0.81729 0.68016 0.42991 0.0
H232 H 0.75296 0.63627 0.40622 0.0
C233 C 0.77863 0.64571 0.4389 0.0
H234 H 0.76085 0.65621 0.46991 0.0
H235 H 0.91766 0.74435 0.4818 0.0
O236 O 0.84788 0.47785 0.54937 0.0
C237 C 0.94313 0.64161 0.5453 0.0
Co238 Co 0.29204 0.86914 0.46961 0.0
Co239 Co 0.26601 0.87455 0.57963 0.0
C240 C 0.37557 0.93804 0.54303 0.0
O241 O 0.36306 0.91972 0.49912 0.0
O242 O 0.34133 0.9219 0.57726 0.0
C243 C 0.30406 0.81043 0.38905 0.0
O244 O 0.31391 0.78489 0.42354 0.0
C245 C 0.25495 0.85462 0.68684 0.0
C246 C 0.18953 0.86869 0.7031 0.0
C247 C 0.21983 0.84977 0.72381 0.0
N248 N 0.24364 0.87275 0.64568 0.0
N249 N 0.20588 0.88295 0.65618 0.0
C250 C 0.29874 0.84293 0.68995 0.0
H251 H 0.29028 0.80844 0.66647 0.0
H252 H 0.30539 0.83537 0.72885 0.0
H253 H 0.33487 0.87697 0.6748 0.0
C254 C 0.20169 0.76407 0.48696 0.0
N255 N 0.24594 0.80509 0.50506 0.0
N256 N 0.24125 0.80571 0.55366 0.0
C257 C 0.19606 0.76264 0.56766 0.0
C258 C 0.16839 0.73604 0.52606 0.0
C259 C 0.18492 0.76057 0.43411 0.0
H260 H 0.20132 0.80059 0.4178 0.0
H261 H 0.19905 0.73764 0.41287 0.0
H262 H 0.14185 0.73964 0.43063 0.0
O263 O 0.25226 0.90612 0.46249 0.0
O264 O 0.23112 0.9054 0.54161 0.0
H265 H 0.15651 0.782 0.62347 0.0
H266 H 0.13909 0.71361 0.62293 0.0
C267 C 0.17185 0.75462 0.61806 0.0
H268 H 0.20145 0.76167 0.6459 0.0
H269 H 0.18895 0.89643 0.63046 0.0
O270 O 0.30028 0.8504 0.40122 0.0
C271 C 0.22768 0.91536 0.49628 0.0
Co272 Co 0.4518 0.31069 0.5374 0.0
Co273 Co 0.33902 0.21645 0.52843 0.0
C274 C 0.40214 0.22556 0.61937 0.0
O275 O 0.44026 0.26911 0.60304 0.0
O276 O 0.36079 0.2004 0.59373 0.0
C277 C 0.55097 0.41417 0.52342 0.0
O278 O 0.60182 0.43895 0.51716 0.0
C279 C 0.25077 0.11107 0.51897 0.0
C280 C 0.19746 0.12301 0.47051 0.0
C281 C 0.20397 0.08456 0.49389 0.0
N282 N 0.27095 0.16278 0.51127 0.0
N283 N 0.23836 0.17 0.48338 0.0
C284 C 0.28004 0.08744 0.54296 0.0
H285 H 0.32232 0.11644 0.54391 0.0
H286 H 0.27442 0.052 0.52269 0.0
H287 H 0.2651 0.07528 0.58141 0.0
C288 C 0.46046 0.26922 0.43622 0.0
N289 N 0.43423 0.26634 0.47876 0.0
N290 N 0.38661 0.22592 0.47567 0.0
C291 C 0.38126 0.20158 0.43157 0.0
C292 C 0.42775 0.22809 0.40461 0.0
C293 C 0.51424 0.31325 0.42446 0.0
H294 H 0.51589 0.35159 0.43063 0.0
H295 H 0.54234 0.31111 0.45008 0.0
H296 H 0.52576 0.31152 0.38552 0.0
O297 O 0.41077 0.34832 0.53859 0.0
O298 O 0.3315 0.27896 0.53521 0.0
H299 H 0.30124 0.16254 0.41005 0.0
H300 H 0.33874 0.13632 0.38097 0.0
C301 C 0.33272 0.15299 0.41571 0.0
H302 H 0.32022 0.12256 0.44514 0.0
H303 H 0.24566 0.20678 0.47051 0.0
O304 O 0.5272 0.3646 0.53178 0.0
C305 C 0.36144 0.32844 0.53836 0.0
Co306 Co 0.12753 0.42819 0.48419 0.0
Co307 Co 0.13035 0.43219 0.5986 0.0
C308 C 0.06161 0.46095 0.54049 0.0
O309 O 0.07609 0.45361 0.49802 0.0
O310 O 0.08107 0.4543 0.57956 0.0
C311 C 0.16491 0.47487 0.38958 0.0
O312 O 0.17341 0.51777 0.4132 0.0
C313 C 0.16459 0.49296 0.68894 0.0
C314 C 0.13603 0.43094 0.74658 0.0
C315 C 0.16471 0.48523 0.73959 0.0
N316 N 0.13824 0.44559 0.66715 0.0
N317 N 0.11993 0.40863 0.70183 0.0
C318 C 0.18941 0.54442 0.66134 0.0
H319 H 0.16497 0.54177 0.62922 0.0
H320 H 0.22804 0.5533 0.64653 0.0
H321 H 0.19483 0.57707 0.68617 0.0
C322 C 0.23663 0.4599 0.50123 0.0
N323 N 0.19431 0.46253 0.51669 0.0
N324 N 0.19537 0.46574 0.56546 0.0
C325 C 0.23834 0.46577 0.58218 0.0
C326 C 0.26508 0.46019 0.54215 0.0
C327 C 0.24142 0.441 0.45078 0.0
H328 H 0.2497 0.47244 0.42339 0.0
H329 H 0.27387 0.43237 0.44826 0.0
H330 H 0.20462 0.40473 0.44129 0.0
O331 O 0.09556 0.3535 0.50394 0.0
O332 O 0.09998 0.35609 0.58633 0.0
H333 H 0.20978 0.41747 0.64781 0.0
H334 H 0.27978 0.44973 0.63975 0.0
C335 C 0.24489 0.45417 0.6351 0.0
H336 H 0.24983 0.48697 0.65908 0.0
H337 H 0.09832 0.36822 0.69474 0.0
O338 O 0.14064 0.43096 0.41218 0.0
C339 C 0.08875 0.33041 0.54573 0.0
Co340 Co 0.68997 0.1336 0.56994 0.0
Co341 Co 0.7835 0.11399 0.56976 0.0
C342 C 0.75985 0.16421 0.65963 0.0
O343 O 0.72093 0.1642 0.63891 0.0
O344 O 0.78477 0.14534 0.63661 0.0
C345 C 0.5882 0.10263 0.58917 0.0
O346 O 0.60471 0.09456 0.63165 0.0
C347 C 0.89196 0.14457 0.57838 0.0
C348 C 0.89734 0.08056 0.54009 0.0
C349 C 0.92683 0.12846 0.56379 0.0
N350 N 0.84414 0.10795 0.56448 0.0
N351 N 0.84718 0.06899 0.54278 0.0
C352 C 0.90514 0.19811 0.59716 0.0
H353 H 0.87114 0.20423 0.59487 0.0
H354 H 0.93777 0.22945 0.57512 0.0
H355 H 0.91818 0.20208 0.6362 0.0
C356 C 0.74238 0.18887 0.47188 0.0
N357 N 0.74032 0.16389 0.51507 0.0
N358 N 0.7804 0.15589 0.51607 0.0
C359 C 0.8094 0.17606 0.47423 0.0
C360 C 0.78652 0.19774 0.44417 0.0
C361 C 0.70017 0.19942 0.45557 0.0
H362 H 0.66151 0.16604 0.46662 0.0
H363 H 0.70518 0.23539 0.47445 0.0
H364 H 0.70136 0.20537 0.41478 0.0
O365 O 0.65991 0.05586 0.56994 0.0
O366 O 0.72568 0.04093 0.56456 0.0
H367 H 0.84996 0.13362 0.46053 0.0
H368 H 0.87868 0.19704 0.4293 0.0
C369 C 0.85874 0.17511 0.46359 0.0
H370 H 0.88606 0.19377 0.49462 0.0
H371 H 0.81541 0.03584 0.52732 0.0
O372 O 0.62219 0.1304 0.55632 0.0
C373 C 0.67703 0.02403 0.56576 0.0
Co374 Co 0.52255 0.68012 0.46655 0.0
Co375 Co 0.54776 0.67849 0.57773 0.0
C376 C 0.50066 0.57989 0.52227 0.0
O377 O 0.50416 0.60511 0.48249 0.0
O378 O 0.51071 0.60313 0.56373 0.0
C379 C 0.44882 0.67728 0.3936 0.0
O380 O 0.41952 0.67371 0.43196 0.0
C381 C 0.53938 0.67746 0.68624 0.0
C382 C 0.62263 0.71545 0.70599 0.0
C383 C 0.57336 0.69845 0.72588 0.0
N384 N 0.56778 0.68462 0.64487 0.0
N385 N 0.61724 0.70521 0.65722 0.0
C386 C 0.48102 0.65102 0.68711 0.0
H387 H 0.46797 0.67644 0.66898 0.0
H388 H 0.46549 0.64184 0.7257 0.0
H389 H 0.46472 0.614 0.66531 0.0
C390 C 0.51494 0.76906 0.50264 0.0
N391 N 0.50695 0.72038 0.51365 0.0
N392 N 0.51582 0.71874 0.56138 0.0
C393 C 0.52917 0.7662 0.58173 0.0
C394 C 0.52963 0.79979 0.54514 0.0
C395 C 0.52343 0.79067 0.45084 0.0
H396 H 0.54486 0.77583 0.42822 0.0
H397 H 0.48498 0.77757 0.43426 0.0
H398 H 0.54486 0.83443 0.44978 0.0
O399 O 0.59936 0.72072 0.46042 0.0
O400 O 0.61334 0.71416 0.54052 0.0
H401 H 0.59471 0.78292 0.62742 0.0
H402 H 0.5699 0.82721 0.63721 0.0
C403 C 0.55869 0.78566 0.6293 0.0
H404 H 0.53398 0.76178 0.66047 0.0
H405 H 0.64772 0.71529 0.63196 0.0
O406 O 0.49246 0.67966 0.40045 0.0
C407 C 0.63008 0.73123 0.49692 0.0
C408 C 0.45267 -0.00051 0.99999 0.0
C409 C 0.46945 0.0379 1.03781 0.0
C410 C 0.45133 0.95104 1.00703 0.0
C411 C 0.4656 0.93834 0.05253 0.0
H412 H 0.43905 0.00613 0.96499 0.0
H413 H 0.43891 0.92325 0.97661 0.0
S414 S 0.51681 0.02678 0.16222 0.0
N415 N 0.50452 0.06097 0.12125 0.0
N416 N 0.50038 0.97011 0.13505 0.0
C417 C 0.48347 0.97687 0.09029 0.0
C418 C 0.48598 0.02649 0.08273 0.0
C419 C 0.51922 0.53603 1.02358 0.0
C420 C 0.5322 0.50959 0.05974 0.0
C421 C 0.48168 0.55115 1.03296 0.0
C422 C 0.45528 0.54072 0.07895 0.0
H423 H 0.54043 0.54821 0.98865 0.0
H424 H 0.47466 0.57294 1.0044 0.0
S425 S 0.46858 0.46518 0.1836 0.0
N426 N 0.51003 0.46732 0.14105 0.0
N427 N 0.44157 0.49768 0.15961 0.0
C428 C 0.4657 0.51168 0.11448 0.0
C429 C 0.5031 0.49523 0.10445 0.0
C430 C 0.01868 0.5056 0.11662 0.0
C431 C 0.04827 0.53076 0.07367 0.0
C432 C 0.97261 0.45683 0.11434 0.0
C433 C 0.95395 0.42989 0.06913 0.0
H434 H 0.03032 0.52427 0.15259 0.0
H435 H 0.95215 0.4394 0.14887 0.0
S436 S 0.01681 0.47755 0.9454 0.0
N437 N 0.05522 0.52456 0.98402 0.0
N438 N 0.96923 0.4322 0.97997 0.0
C439 C 0.98298 0.4544 1.02568 0.0
C440 C 0.03005 0.50452 1.02795 0.0
C441 C 0.97377 0.44859 0.51626 0.0
C442 C 0.01788 0.4719 0.54704 0.0
C443 C 0.92822 0.45053 0.52857 0.0
C444 C 0.92494 0.4753 0.57238 0.0
H445 H 0.97369 0.42702 0.48352 0.0
H446 H 0.89514 0.43187 0.50394 0.0
S447 S 0.0327 0.54789 0.6621 0.0
N448 N 0.05723 0.52483 0.62038 0.0
N449 N 0.97234 0.52734 0.64437 0.0
C450 C 0.96967 0.50006 0.60252 0.0
C451 C 0.01591 0.49882 0.58953 0.0
C452 C 0.51914 0.04534 0.52779 0.0
C453 C 0.53271 0.06682 0.57583 0.0
C454 C 0.46858 0.00362 0.51737 0.0
C455 C 0.42952 0.98176 0.55455 0.0
H456 H 0.54834 0.05927 0.49848 0.0
H457 H 0.46035 0.98802 0.48002 0.0
S458 S 0.44463 0.02755 0.68568 0.0
N459 N 0.50246 0.06545 0.66004 0.0
N460 N 0.40808 0.98792 0.64116 0.0
C461 C 0.44248 0.00445 0.60241 0.0
C462 C 0.49378 0.04667 0.61282 0.0
C463 C 0.52809 0.47332 0.47683 0.0
C464 C 0.52393 0.44511 0.52051 0.0
C465 C 0.51494 0.5134 0.47632 0.0
C466 C 0.49854 0.52784 0.51995 0.0
H467 H 0.54435 0.46629 0.44342 0.0
H468 H 0.52176 0.53593 0.4424 0.0
S469 S 0.47555 0.46132 0.64271 0.0
N470 N 0.49766 0.43055 0.60716 0.0
N471 N 0.47362 0.50622 0.60693 0.0
C472 C 0.49117 0.49743 0.56318 0.0
C473 C 0.5038 0.45609 0.56331 0.0
C474 C 0.23559 0.96553 1.03875 0.0
C475 C 0.28334 0.99525 0.06312 0.0
C476 C 0.20771 0.9102 0.04278 0.0
C477 C 0.22787 0.88301 0.06961 0.0
H478 H 0.22027 0.98506 1.01584 0.0
H479 H 0.17071 0.88849 1.02399 0.0
S480 S 0.35251 0.9422 0.13776 0.0
N481 N 0.34961 0.99304 0.11488 0.0
N482 N 0.29842 0.88948 0.11987 0.0
C483 C 0.27527 0.91225 0.09423 0.0
C484 C 0.30281 0.96828 0.09147 0.0
C485 C 0.43058 0.3504 1.01097 0.0
C486 C 0.40515 0.30186 1.03587 0.0
C487 C 0.41557 0.38819 1.01928 0.0
C488 C 0.3752 0.37856 0.05319 0.0
H489 H 0.46247 0.35931 0.98545 0.0
H490 H 0.43611 0.42542 0.99948 0.0
S491 S 0.29357 0.25504 0.1238 0.0
N492 N 0.33536 0.24396 0.09243 0.0
N493 N 0.30819 0.31586 0.10937 0.0
C494 C 0.34901 0.3297 0.07764 0.0
C495 C 0.36369 0.29099 0.06853 0.0
C496 C 0.05022 0.345 1.02377 0.0
C497 C 0.02658 0.30471 0.06002 0.0
C498 C 0.10422 0.37951 1.02272 0.0
C499 C 0.13667 0.37463 0.05738 0.0
H500 H 0.0266 0.35268 0.99826 0.0
H501 H 0.12024 0.41202 0.99643 0.0
S502 S 0.09589 0.26899 0.15251 0.0
N503 N 0.04067 0.25798 0.12717 0.0
N504 N 0.14274 0.32071 0.12302 0.0
C505 C 0.11428 0.33145 0.09057 0.0
C506 C 0.05908 0.29707 0.0925 0.0
C507 C 0.68159 0.07394 0.12921 0.0
C508 C 0.72411 0.09154 0.09633 0.0
C509 C 0.6474 0.02003 0.13623 0.0
C510 C 0.65479 0.98261 0.11016 0.0
H511 H 0.67431 0.10205 0.14882 0.0
H512 H 0.61328 0.00773 0.15966 0.0
S513 S 0.7649 0.00906 1.026 0.0
N514 N 0.77579 0.0681 0.04257 0.0
N515 N 0.71029 0.96634 0.05455 0.0
C516 C 0.69888 -0.00017 0.07948 0.0
C517 C 0.73386 0.05457 0.07269 0.0
C518 C 0.59705 0.69299 0.12032 0.0
C519 C 0.60539 0.7331 0.08682 0.0
C520 C 0.62925 0.67061 0.11963 0.0
C521 C 0.67058 0.687 0.0848 0.0
H522 H 0.56384 0.6769 0.1455 0.0
H523 H 0.61882 0.63735 0.14415 0.0
S524 S 0.71518 0.79892 0.9967 0.0
N525 N 0.66349 0.7954 1.02443 0.0
N526 N 0.7222 0.75088 1.02089 0.0
C527 C 0.68167 0.72995 0.05375 0.0
C528 C 0.64947 0.75356 0.05525 0.0
C529 C 0.88144 0.55344 0.08497 0.0
C530 C 0.85548 0.58151 0.0757 0.0
C531 C 0.93321 0.5799 0.10038 0.0
C532 C 0.96002 0.63492 0.10705 0.0
H533 H 0.86205 0.51118 0.07907 0.0
H534 H 0.95348 0.55775 0.10401 0.0
S535 S 0.90703 0.72497 0.09291 0.0
N536 N 0.85789 0.66599 0.07921 0.0
N537 N 0.95656 0.71606 0.10632 0.0
C538 C 0.9337 0.66296 0.10045 0.0
C539 C 0.88087 0.63605 0.08518 0.0
C540 C 0.07879 0.6568 0.53383 0.0
C541 C 0.11077 0.71101 0.52484 0.0
C542 C 0.0246 0.63467 0.53991 0.0
C543 C 0.00064 0.66612 0.53821 0.0
H544 H 0.09586 0.63164 0.53721 0.0
H545 H 0.00144 0.59265 0.54652 0.0
S546 S 0.06881 0.81093 0.51553 0.0
N547 N 0.11562 0.79578 0.51407 0.0
N548 N 0.0143 0.75482 0.52596 0.0
C549 C 0.03269 0.72053 0.52868 0.0
C550 C 0.08758 0.74277 0.52198 0.0
C551 C 0.16043 0.9927 0.52067 0.0
C552 C 0.17966 0.02866 0.48104 0.0
C553 C 0.17029 0.95071 0.52248 0.0
C554 C 0.19952 0.94387 0.4846 0.0
H555 H 0.14534 0.00176 0.55375 0.0
H556 H 0.16026 0.92754 0.55632 0.0
S557 S 0.23916 0.01575 0.36442 0.0
N558 N 0.21421 0.04597 0.39691 0.0
N559 N 0.23311 0.96686 0.3999 0.0
C560 C 0.20904 0.97307 0.44043 0.0
C561 C 0.19851 0.01556 0.43861 0.0
C562 C 0.34284 0.44822 0.52812 0.0
C563 C 0.29102 0.42792 0.54421 0.0
C564 C 0.36551 0.41582 0.5264 0.0
C565 C 0.33754 0.3626 0.54158 0.0
H566 H 0.36539 0.48882 0.51559 0.0
H567 H 0.40441 0.43182 0.51132 0.0
S568 S 0.19903 0.29022 0.58365 0.0
N569 N 0.21106 0.35072 0.57209 0.0
N570 N 0.25424 0.29095 0.57186 0.0
C571 C 0.28542 0.34202 0.55745 0.0
C572 C 0.26213 0.37448 0.55814 0.0
C573 C 0.05005 0.24637 0.59412 0.0
C574 C 0.06183 0.27211 0.54768 0.0
C575 C 0.01095 0.19357 0.59866 0.0
C576 C 0.98266 0.16542 0.55697 0.0
H577 H 0.06715 0.26827 0.6278 0.0
H578 H -0.00203 0.17718 0.63555 0.0
S579 S 0.01031 0.20888 0.42579 0.0
N580 N 0.0517 0.26099 0.45792 0.0
N581 N 0.97735 0.16188 0.46713 0.0
C582 C 0.00041 0.18752 0.50975 0.0
C583 C 0.04021 0.24125 0.50492 0.0
C584 C 0.58733 0.94516 0.57578 0.0
C585 C 0.63949 0.96698 0.55925 0.0
C586 C 0.55118 0.89125 0.56966 0.0
C587 C 0.56576 0.85768 0.54602 0.0
H588 H 0.57453 0.96969 0.59435 0.0
H589 H 0.51192 0.87553 0.58421 0.0
S590 S 0.69571 0.89563 0.49227 0.0
N591 N 0.70258 0.9509 0.51565 0.0
N592 N 0.63487 0.84993 0.50454 0.0
C593 C 0.61727 0.87912 0.52838 0.0
C594 C 0.65405 0.93368 0.53483 0.0
C595 C 0.71092 0.75348 0.44932 0.0
C596 C 0.6868 0.76255 0.4902 0.0
C597 C 0.76355 0.76744 0.45157 0.0
C598 C 0.79253 0.79045 0.49475 0.0
H599 H 0.6879 0.73011 0.41831 0.0
H600 H 0.77924 0.75343 0.42262 0.0
S601 S 0.75112 0.83662 0.60441 0.0
N602 N 0.69869 0.8072 0.56943 0.0
N603 N 0.79753 0.83285 0.57335 0.0
C604 C 0.77123 0.8077 0.53171 0.0
C605 C 0.71793 0.79344 0.52968 0.0
C606 C 0.40462 0.21099 0.31371 0.0
C607 C 0.4381 0.21597 0.35287 0.0
C608 C 0.41129 0.19615 0.26553 0.0
C609 C 0.45186 0.18553 0.25406 0.0
H610 H 0.3726 0.21829 0.32048 0.0
H611 H 0.38411 0.19275 0.23709 0.0
S612 S 0.55031 0.19283 0.34381 0.0
N613 N 0.51318 0.20892 0.37706 0.0
N614 N 0.52644 0.18175 0.28708 0.0
C615 C 0.48606 0.19107 0.29299 0.0
C616 C 0.47908 0.20614 0.34207 0.0
C617 C 0.26492 0.53607 0.28597 0.0
C618 C 0.26795 0.49309 0.26633 0.0
C619 C 0.22957 0.52932 0.32398 0.0
C620 C 0.19558 0.4792 0.3441 0.0
H621 H 0.29004 0.57547 0.27165 0.0
H622 H 0.22962 0.56394 0.33834 0.0
S623 S 0.18682 0.3529 0.30518 0.0
N624 N 0.23363 0.39816 0.26989 0.0
N625 N 0.16611 0.38507 0.34039 0.0
C626 C 0.19744 0.43545 0.32423 0.0
C627 C 0.23407 0.44251 0.28588 0.0
C628 C 0.83502 0.21613 0.30859 0.0
C629 C 0.84014 0.26493 0.2942 0.0
C630 C 0.8166 0.1944 0.35632 0.0
C631 C 0.80372 0.22094 0.39269 0.0
H632 H 0.84412 0.19372 0.2824 0.0
H633 H 0.81225 0.15616 0.36475 0.0
S634 S 0.81328 0.35156 0.37575 0.0
N635 N 0.83153 0.33966 0.32139 0.0
N636 N 0.7997 0.30011 0.41126 0.0
C637 C 0.80946 0.27013 0.37917 0.0
C638 C 0.82713 0.29181 0.33018 0.0
C639 C 0.43372 0.75852 0.29333 0.0
C640 C 0.43918 0.73539 0.24971 0.0
C641 C 0.43203 0.7364 0.33992 0.0
C642 C 0.43857 0.69211 0.3445 0.0
H643 H 0.43135 0.79431 0.29147 0.0
H644 H 0.42779 0.75559 0.37248 0.0
S645 S 0.45173 0.61533 0.24166 0.0
N646 N 0.447 0.66311 0.21376 0.0
N647 N 0.44808 0.62424 0.30181 0.0
C648 C 0.44248 0.66766 0.3012 0.0
C649 C 0.44179 0.6887 0.25362 0.0
C650 C 0.69531 0.4974 0.36793 0.0
C651 C 0.74489 0.54125 0.37678 0.0
C652 C 0.67156 0.48875 0.32085 0.0
C653 C 0.69618 0.52366 0.2804 0.0
H654 H 0.67415 0.47016 0.39793 0.0
H655 H 0.6332 0.45454 0.31641 0.0
S656 S 0.82807 0.64312 0.28383 0.0
N657 N 0.81908 0.61839 0.3405 0.0
N658 N 0.77448 0.60348 0.2532 0.0
C659 C 0.74628 0.56728 0.28888 0.0
C660 C 0.77053 0.57566 0.33659 0.0
C661 C 0.21319 0.76599 0.27986 0.0
C662 C 0.21742 0.72379 0.26013 0.0
C663 C 0.24475 0.79633 0.31865 0.0
C664 C 0.27968 0.78374 0.34188 0.0
H665 H 0.18542 0.77619 0.26517 0.0
H666 H 0.23948 0.82833 0.33205 0.0
S667 S 0.30338 0.675 0.30629 0.0
N668 N 0.25959 0.67088 0.26619 0.0
N669 N 0.31582 0.72514 0.34292 0.0
C670 C 0.28385 0.74107 0.32314 0.0
C671 C 0.2533 0.7116 0.28164 0.0
C672 C 0.53475 0.74425 0.77355 0.0
C673 C 0.56565 0.71992 0.77271 0.0
C674 C 0.53944 0.77882 0.8117 0.0
C675 C 0.57521 0.7902 0.85005 0.0
H676 H 0.50935 0.73975 0.7431 0.0
H677 H 0.51679 0.79865 0.80989 0.0
S678 S 0.6582 0.72958 0.86962 0.0
N679 N 0.62801 0.7043 0.81687 0.0
N680 N 0.63707 0.76941 0.88861 0.0
C681 C 0.60349 0.76324 0.85162 0.0
C682 C 0.59846 0.72787 0.81302 0.0
C683 C 0.7583 0.61266 0.70563 0.0
C684 C 0.78168 0.58205 0.69378 0.0
C685 C 0.74028 0.61396 0.75405 0.0
C686 C 0.74465 0.585 0.79398 0.0
H687 H 0.75422 0.63655 0.6772 0.0
H688 H 0.72341 0.63897 0.76037 0.0
S689 S 0.80534 0.50026 0.78411 0.0
N690 N 0.80863 0.52208 0.72686 0.0
N691 N 0.77669 0.52602 0.81777 0.0
C692 C 0.76769 0.55381 0.78273 0.0
C693 C 0.7856 0.55198 0.73291 0.0
C694 C 0.18386 0.83429 0.80856 0.0
C695 C 0.20359 0.81743 0.76943 0.0
C696 C 0.15248 0.79928 0.84555 0.0
C697 C 0.13988 0.74616 0.84488 0.0
H698 H 0.19009 0.87413 0.8089 0.0
H699 H 0.1368 0.81365 0.87417 0.0
S700 S 0.18575 0.6828 0.75437 0.0
N701 N 0.21168 0.7445 0.73498 0.0
N702 N 0.15242 0.67885 0.80521 0.0
C703 C 0.16202 0.72935 0.80828 0.0
C704 C 0.19418 0.76507 0.77036 0.0
C705 C 0.42489 0.21621 0.75913 0.0
C706 C 0.39655 0.16134 0.76884 0.0
C707 C 0.42889 0.2369 0.71054 0.0
C708 C 0.4043 0.2037 0.66956 0.0
H709 H 0.44191 0.24366 0.78948 0.0
H710 H 0.44931 0.27934 0.70551 0.0
S711 S 0.33184 0.05706 0.67332 0.0
N712 N 0.34828 0.07436 0.73161 0.0
N713 N 0.35547 0.11285 0.64175 0.0
C714 C 0.3783 0.14885 0.6785 0.0
C715 C 0.37448 0.12789 0.72756 0.0
C716 C 0.29374 0.56184 0.8002 0.0
C717 C 0.27938 0.54999 0.85041 0.0
C718 C 0.25592 0.54777 0.76353 0.0
C719 C 0.20255 0.52103 0.7761 0.0
H720 H 0.33391 0.57678 0.78868 0.0
H721 H 0.26853 0.55202 0.72519 0.0
S722 S 0.14518 0.49354 0.90252 0.0
N723 N 0.20849 0.51989 0.91117 0.0
N724 N 0.13773 0.49333 0.84186 0.0
C725 C 0.18826 0.51615 0.8263 0.0
C726 C 0.2267 0.53072 0.86374 0.0
C727 C 0.84881 0.21776 0.77267 0.0
C728 C 0.817 0.21912 0.81127 0.0
C729 C 0.83019 0.202 0.72422 0.0
C730 C 0.77848 0.18653 0.71096 0.0
H731 H 0.8886 0.22768 0.78026 0.0
H732 H 0.85673 0.20089 0.69703 0.0
S733 S 0.67832 0.18354 0.79722 0.0
N734 N 0.73044 0.20388 0.83232 0.0
N735 N 0.69576 0.17531 0.74094 0.0
C736 C 0.74642 0.18955 0.74855 0.0
C737 C 0.76551 0.20549 0.79855 0.0
loop_
_geom_bond_atom_site_label_1
_geom_bond_atom_site_label_2
_geom_bond_distance
_geom_bond_site_symmetry_2
_ccdc_geom_bond_type
Co0 O3 1.970 . S
Co0 N17 1.989 . S
Co0 O25 1.967 . S
Co0 O32 1.920 . S
Co1 O4 1.966 . S
Co1 N10 2.022 . S
Co1 N18 1.993 . S
Co1 O26 1.941 . S
C2 O3 1.258 . S
C2 O4 1.263 1_554 S
O3 Co0 1.970 . S
O3 C2 1.258 . S
O4 Co1 1.966 . S
O4 C2 1.263 1_556 S
C5 O6 1.235 . S
C5 O32 1.289 . S
O6 C5 1.235 . S
C7 C9 1.400 . S
C7 N10 1.351 . S
C7 C12 1.501 . S
C8 C9 1.387 . S
C8 N11 1.341 . S
C9 C7 1.400 . S
C9 C8 1.387 . S
N10 Co1 2.022 . S
N10 C7 1.351 . S
N10 N11 1.365 . S
N11 C8 1.341 . S
N11 N10 1.365 . S
N11 H31 0.862 . S
C12 C7 1.501 . S
C12 H13 0.961 . S
C12 H14 0.961 . S
C12 H15 0.960 . S
H13 C12 0.961 . S
H14 C12 0.961 . S
H15 C12 0.960 . S
C16 N17 1.342 . S
C16 C20 1.401 . S
C16 C21 1.499 . S
N17 Co0 1.989 . S
N17 C16 1.342 . S
N17 N18 1.388 1_554 S
N18 Co1 1.993 . S
N18 N17 1.388 1_556 S
N18 C19 1.346 . S
C19 N18 1.346 . S
C19 C20 1.396 1_556 S
C19 C29 1.510 . S
C20 C16 1.401 . S
C20 C19 1.396 1_554 S
C21 C16 1.499 . S
C21 H22 0.959 . S
C21 H23 0.960 . S
C21 H24 0.961 . S
H22 C21 0.959 . S
H23 C21 0.960 . S
H24 C21 0.961 . S
O25 Co0 1.967 . S
O25 C33 1.258 . S
O26 Co1 1.941 . S
O26 C33 1.266 1_556 S
H27 C29 0.959 . S
H28 C29 0.961 . S
C29 C19 1.510 . S
C29 H27 0.959 . S
C29 H28 0.961 . S
C29 H30 0.960 . S
H30 C29 0.960 . S
H31 N11 0.862 . S
O32 Co0 1.920 . S
O32 C5 1.289 . S
C33 O25 1.258 . S
C33 O26 1.266 1_554 S
Co34 O37 1.970 . S
Co34 N51 1.989 . S
Co34 O59 1.967 . S
Co34 O66 1.920 . S
Co35 O38 1.966 . S
Co35 N44 2.022 . S
Co35 N52 1.993 1_556 S
Co35 O60 1.941 . S
C36 O37 1.258 . S
C36 O38 1.263 1_554 S
O37 Co34 1.970 . S
O37 C36 1.258 . S
O38 Co35 1.966 . S
O38 C36 1.263 1_556 S
C39 O40 1.235 . S
C39 O66 1.289 . S
O40 C39 1.235 . S
C41 C43 1.400 . S
C41 N44 1.351 . S
C41 C46 1.501 . S
C42 C43 1.387 . S
C42 N45 1.341 . S
C43 C41 1.400 . S
C43 C42 1.387 . S
N44 Co35 2.022 . S
N44 C41 1.351 . S
N44 N45 1.365 . S
N45 C42 1.341 . S
N45 N44 1.365 . S
N45 H65 0.862 . S
C46 C41 1.501 . S
C46 H47 0.961 . S
C46 H48 0.961 . S
C46 H49 0.960 . S
H47 C46 0.961 . S
H48 C46 0.961 . S
H49 C46 0.960 . S
C50 N51 1.342 . S
C50 C54 1.401 . S
C50 C55 1.499 . S
N51 Co34 1.989 . S
N51 C50 1.342 . S
N51 N52 1.388 . S
N52 Co35 1.993 1_554 S
N52 N51 1.388 . S
N52 C53 1.346 1_554 S
C53 N52 1.346 1_556 S
C53 C54 1.396 1_556 S
C53 C63 1.510 . S
C54 C50 1.401 . S
C54 C53 1.396 1_554 S
C55 C50 1.499 . S
C55 H56 0.959 . S
C55 H57 0.960 . S
C55 H58 0.961 . S
H56 C55 0.959 . S
H57 C55 0.960 . S
H58 C55 0.961 . S
O59 Co34 1.967 . S
O59 C67 1.258 . S
O60 Co35 1.941 . S
O60 C67 1.266 1_556 S
H61 C63 0.959 . S
H62 C63 0.961 . S
C63 C53 1.510 . S
C63 H61 0.959 . S
C63 H62 0.961 . S
C63 H64 0.960 . S
H64 C63 0.960 . S
H65 N45 0.862 . S
O66 Co34 1.920 . S
O66 C39 1.289 . S
C67 O59 1.258 . S
C67 O60 1.266 1_554 S
Co68 O71 1.970 . S
Co68 N85 1.989 . S
Co68 O93 1.967 . S
Co68 O100 1.920 . S
Co69 O72 1.966 . S
Co69 N78 2.022 . S
Co69 N86 1.993 . S
Co69 O94 1.941 . S
C70 O71 1.258 . S
C70 O72 1.263 1_554 S
O71 Co68 1.970 . S
O71 C70 1.258 . S
O72 Co69 1.966 . S
O72 C70 1.263 1_556 S
C73 O74 1.235 . S
C73 O100 1.289 . S
O74 C73 1.235 . S
C75 C77 1.400 . S
C75 N78 1.351 . S
C75 C80 1.501 . S
C76 C77 1.387 . S
C76 N79 1.341 . S
C77 C75 1.400 . S
C77 C76 1.387 . S
N78 Co69 2.022 . S
N78 C75 1.351 . S
N78 N79 1.365 . S
N79 C76 1.341 . S
N79 N78 1.365 . S
N79 H99 0.862 . S
C80 C75 1.501 . S
C80 H81 0.961 . S
C80 H82 0.961 . S
C80 H83 0.960 . S
H81 C80 0.961 . S
H82 C80 0.961 . S
H83 C80 0.960 . S
C84 N85 1.342 . S
C84 C88 1.401 . S
C84 C89 1.499 . S
N85 Co68 1.989 . S
N85 C84 1.342 . S
N85 N86 1.388 1_554 S
N86 Co69 1.993 . S
N86 N85 1.388 1_556 S
N86 C87 1.346 . S
C87 N86 1.346 . S
C87 C88 1.396 1_556 S
C87 C97 1.510 . S
C88 C84 1.401 . S
C88 C87 1.396 1_554 S
C89 C84 1.499 . S
C89 H90 0.959 . S
C89 H91 0.960 . S
C89 H92 0.961 . S
H90 C89 0.959 . S
H91 C89 0.960 . S
H92 C89 0.961 . S
O93 Co68 1.967 . S
O93 C101 1.258 . S
O94 Co69 1.941 . S
O94 C101 1.266 1_556 S
H95 C97 0.959 . S
H96 C97 0.961 . S
C97 C87 1.510 . S
C97 H95 0.959 . S
C97 H96 0.961 . S
C97 H98 0.960 . S
H98 C97 0.960 . S
H99 N79 0.862 . S
O100 Co68 1.920 . S
O100 C73 1.289 . S
C101 O93 1.258 . S
C101 O94 1.266 1_554 S
Co102 O105 1.970 . S
Co102 N119 1.989 . S
Co102 O127 1.967 . S
Co102 O134 1.920 . S
Co103 O106 1.966 . S
Co103 N112 2.022 . S
Co103 N120 1.993 1_556 S
Co103 O128 1.941 . S
C104 O105 1.258 . S
C104 O106 1.263 1_554 S
O105 Co102 1.970 . S
O105 C104 1.258 . S
O106 Co103 1.966 . S
O106 C104 1.263 1_556 S
C107 O108 1.235 . S
C107 O134 1.289 . S
O108 C107 1.235 . S
C109 C111 1.400 . S
C109 N112 1.351 . S
C109 C114 1.501 . S
C110 C111 1.387 . S
C110 N113 1.341 . S
C111 C109 1.400 . S
C111 C110 1.387 . S
N112 Co103 2.022 . S
N112 C109 1.351 . S
N112 N113 1.365 . S
N113 C110 1.341 . S
N113 N112 1.365 . S
N113 H133 0.862 . S
C114 C109 1.501 . S
C114 H115 0.961 . S
C114 H116 0.961 . S
C114 H117 0.960 . S
H115 C114 0.961 . S
H116 C114 0.961 . S
H117 C114 0.960 . S
C118 N119 1.342 . S
C118 C122 1.401 . S
C118 C123 1.499 . S
N119 Co102 1.989 . S
N119 C118 1.342 . S
N119 N120 1.388 . S
N120 Co103 1.993 1_554 S
N120 N119 1.388 . S
N120 C121 1.346 1_554 S
C121 N120 1.346 1_556 S
C121 C122 1.396 1_556 S
C121 C131 1.510 . S
C122 C118 1.401 . S
C122 C121 1.396 1_554 S
C123 C118 1.499 . S
C123 H124 0.959 . S
C123 H125 0.960 . S
C123 H126 0.961 . S
H124 C123 0.959 . S
H125 C123 0.960 . S
H126 C123 0.961 . S
O127 Co102 1.967 . S
O127 C135 1.258 . S
O128 Co103 1.941 . S
O128 C135 1.266 1_556 S
H129 C131 0.959 . S
H130 C131 0.961 . S
C131 C121 1.510 . S
C131 H129 0.959 . S
C131 H130 0.961 . S
C131 H132 0.960 . S
H132 C131 0.960 . S
H133 N113 0.862 . S
O134 Co102 1.920 . S
O134 C107 1.289 . S
C135 O127 1.258 . S
C135 O128 1.266 1_554 S
Co136 O139 1.970 . S
Co136 N153 1.989 . S
Co136 O161 1.967 . S
Co136 O168 1.920 . S
Co137 O140 1.966 . S
Co137 N146 2.022 . S
Co137 N154 1.993 . S
Co137 O162 1.941 . S
C138 O139 1.258 . S
C138 O140 1.263 1_554 S
O139 Co136 1.970 . S
O139 C138 1.258 . S
O140 Co137 1.966 . S
O140 C138 1.263 1_556 S
C141 O142 1.235 . S
C141 O168 1.289 . S
O142 C141 1.235 . S
C143 C145 1.400 . S
C143 N146 1.351 . S
C143 C148 1.501 . S
C144 C145 1.387 . S
C144 N147 1.341 . S
C145 C143 1.400 . S
C145 C144 1.387 . S
N146 Co137 2.022 . S
N146 C143 1.351 . S
N146 N147 1.365 . S
N147 C144 1.341 . S
N147 N146 1.365 . S
N147 H167 0.862 . S
C148 C143 1.501 . S
C148 H149 0.961 . S
C148 H150 0.961 . S
C148 H151 0.960 . S
H149 C148 0.961 . S
H150 C148 0.961 . S
H151 C148 0.960 . S
C152 N153 1.342 . S
C152 C156 1.401 . S
C152 C157 1.499 . S
N153 Co136 1.989 . S
N153 C152 1.342 . S
N153 N154 1.388 1_554 S
N154 Co137 1.993 . S
N154 N153 1.388 1_556 S
N154 C155 1.346 . S
C155 N154 1.346 . S
C155 C156 1.396 1_556 S
C155 C165 1.510 . S
C156 C152 1.401 . S
C156 C155 1.396 1_554 S
C157 C152 1.499 . S
C157 H158 0.959 . S
C157 H159 0.960 . S
C157 H160 0.961 . S
H158 C157 0.959 . S
H159 C157 0.960 . S
H160 C157 0.961 . S
O161 Co136 1.967 . S
O161 C169 1.258 . S
O162 Co137 1.941 . S
O162 C169 1.266 1_556 S
H163 C165 0.959 . S
H164 C165 0.961 . S
C165 C155 1.510 . S
C165 H163 0.959 . S
C165 H164 0.961 . S
C165 H166 0.960 . S
H166 C165 0.960 . S
H167 N147 0.862 . S
O168 Co136 1.920 . S
O168 C141 1.289 . S
C169 O161 1.258 . S
C169 O162 1.266 1_554 S
Co170 O173 1.970 . S
Co170 N187 1.989 . S
Co170 O195 1.967 . S
Co170 O202 1.920 . S
Co171 O174 1.966 . S
Co171 N180 2.022 . S
Co171 N188 1.993 1_556 S
Co171 O196 1.941 . S
C172 O173 1.258 . S
C172 O174 1.263 1_554 S
O173 Co170 1.970 . S
O173 C172 1.258 . S
O174 Co171 1.966 . S
O174 C172 1.263 1_556 S
C175 O176 1.235 . S
C175 O202 1.289 . S
O176 C175 1.235 . S
C177 C179 1.400 . S
C177 N180 1.351 . S
C177 C182 1.501 . S
C178 C179 1.387 . S
C178 N181 1.341 . S
C179 C177 1.400 . S
C179 C178 1.387 . S
N180 Co171 2.022 . S
N180 C177 1.351 . S
N180 N181 1.365 . S
N181 C178 1.341 . S
N181 N180 1.365 . S
N181 H201 0.862 . S
C182 C177 1.501 . S
C182 H183 0.961 . S
C182 H184 0.961 . S
C182 H185 0.960 . S
H183 C182 0.961 . S
H184 C182 0.961 . S
H185 C182 0.960 . S
C186 N187 1.342 . S
C186 C190 1.401 . S
C186 C191 1.499 . S
N187 Co170 1.989 . S
N187 C186 1.342 . S
N187 N188 1.388 . S
N188 Co171 1.993 1_554 S
N188 N187 1.388 . S
N188 C189 1.346 1_554 S
C189 N188 1.346 1_556 S
C189 C190 1.396 1_556 S
C189 C199 1.510 . S
C190 C186 1.401 . S
C190 C189 1.396 1_554 S
C191 C186 1.499 . S
C191 H192 0.959 . S
C191 H193 0.960 . S
C191 H194 0.961 . S
H192 C191 0.959 . S
H193 C191 0.960 . S
H194 C191 0.961 . S
O195 Co170 1.967 . S
O195 C203 1.258 . S
O196 Co171 1.941 . S
O196 C203 1.266 1_556 S
H197 C199 0.959 . S
H198 C199 0.961 . S
C199 C189 1.510 . S
C199 H197 0.959 . S
C199 H198 0.961 . S
C199 H200 0.960 . S
H200 C199 0.960 . S
H201 N181 0.862 . S
O202 Co170 1.920 . S
O202 C175 1.289 . S
C203 O195 1.258 . S
C203 O196 1.266 1_554 S
Co204 O207 1.970 . S
Co204 N221 1.989 . S
Co204 O229 1.967 . S
Co204 O236 1.920 . S
Co205 O208 1.966 . S
Co205 N214 2.022 . S
Co205 N222 1.993 . S
Co205 O230 1.941 . S
C206 O207 1.258 . S
C206 O208 1.263 . S
O207 Co204 1.970 . S
O207 C206 1.258 . S
O208 Co205 1.966 . S
O208 C206 1.263 . S
C209 O210 1.235 . S
C209 O236 1.289 . S
O210 C209 1.235 . S
C211 C213 1.400 . S
C211 N214 1.351 . S
C211 C216 1.501 . S
C212 C213 1.387 . S
C212 N215 1.341 . S
C213 C211 1.400 . S
C213 C212 1.387 . S
N214 Co205 2.022 . S
N214 C211 1.351 . S
N214 N215 1.365 . S
N215 C212 1.341 . S
N215 N214 1.365 . S
N215 H235 0.862 . S
C216 C211 1.501 . S
C216 H217 0.961 . S
C216 H218 0.961 . S
C216 H219 0.960 . S
H217 C216 0.961 . S
H218 C216 0.961 . S
H219 C216 0.960 . S
C220 N221 1.342 . S
C220 C224 1.401 . S
C220 C225 1.499 . S
N221 Co204 1.989 . S
N221 C220 1.342 . S
N221 N222 1.388 . S
N222 Co205 1.993 . S
N222 N221 1.388 . S
N222 C223 1.346 . S
C223 N222 1.346 . S
C223 C224 1.396 . S
C223 C233 1.510 . S
C224 C220 1.401 . S
C224 C223 1.396 . S
C225 C220 1.499 . S
C225 H226 0.959 . S
C225 H227 0.960 . S
C225 H228 0.961 . S
H226 C225 0.959 . S
H227 C225 0.960 . S
H228 C225 0.961 . S
O229 Co204 1.967 . S
O229 C237 1.258 . S
O230 Co205 1.941 . S
O230 C237 1.266 . S
H231 C233 0.959 . S
H232 C233 0.961 . S
C233 C223 1.510 . S
C233 H231 0.959 . S
C233 H232 0.961 . S
C233 H234 0.960 . S
H234 C233 0.960 . S
H235 N215 0.862 . S
O236 Co204 1.920 . S
O236 C209 1.289 . S
C237 O229 1.258 . S
C237 O230 1.266 . S
Co238 O241 1.970 . S
Co238 N255 1.989 . S
Co238 O263 1.967 . S
Co238 O270 1.920 . S
Co239 O242 1.966 . S
Co239 N248 2.022 . S
Co239 N256 1.993 . S
Co239 O264 1.941 . S
C240 O241 1.258 . S
C240 O242 1.263 . S
O241 Co238 1.970 . S
O241 C240 1.258 . S
O242 Co239 1.966 . S
O242 C240 1.263 . S
C243 O244 1.235 . S
C243 O270 1.289 . S
O244 C243 1.235 . S
C245 C247 1.400 . S
C245 N248 1.351 . S
C245 C250 1.501 . S
C246 C247 1.387 . S
C246 N249 1.341 . S
C247 C245 1.400 . S
C247 C246 1.387 . S
N248 Co239 2.022 . S
N248 C245 1.351 . S
N248 N249 1.365 . S
N249 C246 1.341 . S
N249 N248 1.365 . S
N249 H269 0.862 . S
C250 C245 1.501 . S
C250 H251 0.961 . S
C250 H252 0.961 . S
C250 H253 0.960 . S
H251 C250 0.961 . S
H252 C250 0.961 . S
H253 C250 0.960 . S
C254 N255 1.342 . S
C254 C258 1.401 . S
C254 C259 1.499 . S
N255 Co238 1.989 . S
N255 C254 1.342 . S
N255 N256 1.388 . S
N256 Co239 1.993 . S
N256 N255 1.388 . S
N256 C257 1.346 . S
C257 N256 1.346 . S
C257 C258 1.396 . S
C257 C267 1.510 . S
C258 C254 1.401 . S
C258 C257 1.396 . S
C259 C254 1.499 . S
C259 H260 0.959 . S
C259 H261 0.960 . S
C259 H262 0.961 . S
H260 C259 0.959 . S
H261 C259 0.960 . S
H262 C259 0.961 . S
O263 Co238 1.967 . S
O263 C271 1.258 . S
O264 Co239 1.941 . S
O264 C271 1.266 . S
H265 C267 0.959 . S
H266 C267 0.961 . S
C267 C257 1.510 . S
C267 H265 0.959 . S
C267 H266 0.961 . S
C267 H268 0.960 . S
H268 C267 0.960 . S
H269 N249 0.862 . S
O270 Co238 1.920 . S
O270 C243 1.289 . S
C271 O263 1.258 . S
C271 O264 1.266 . S
Co272 O275 1.970 . S
Co272 N289 1.989 . S
Co272 O297 1.967 . S
Co272 O304 1.920 . S
Co273 O276 1.966 . S
Co273 N282 2.022 . S
Co273 N290 1.993 . S
Co273 O298 1.941 . S
C274 O275 1.258 . S
C274 O276 1.263 . S
O275 Co272 1.970 . S
O275 C274 1.258 . S
O276 Co273 1.966 . S
O276 C274 1.263 . S
C277 O278 1.235 . S
C277 O304 1.289 . S
O278 C277 1.235 . S
C279 C281 1.400 . S
C279 N282 1.351 . S
C279 C284 1.501 . S
C280 C281 1.387 . S
C280 N283 1.341 . S
C281 C279 1.400 . S
C281 C280 1.387 . S
N282 Co273 2.022 . S
N282 C279 1.351 . S
N282 N283 1.365 . S
N283 C280 1.341 . S
N283 N282 1.365 . S
N283 H303 0.862 . S
C284 C279 1.501 . S
C284 H285 0.961 . S
C284 H286 0.961 . S
C284 H287 0.960 . S
H285 C284 0.961 . S
H286 C284 0.961 . S
H287 C284 0.960 . S
C288 N289 1.342 . S
C288 C292 1.401 . S
C288 C293 1.499 . S
N289 Co272 1.989 . S
N289 C288 1.342 . S
N289 N290 1.388 . S
N290 Co273 1.993 . S
N290 N289 1.388 . S
N290 C291 1.346 . S
C291 N290 1.346 . S
C291 C292 1.396 . S
C291 C301 1.510 . S
C292 C288 1.401 . S
C292 C291 1.396 . S
C293 C288 1.499 . S
C293 H294 0.959 . S
C293 H295 0.960 . S
C293 H296 0.961 . S
H294 C293 0.959 . S
H295 C293 0.960 . S
H296 C293 0.961 . S
O297 Co272 1.967 . S
O297 C305 1.258 . S
O298 Co273 1.941 . S
O298 C305 1.266 . S
H299 C301 0.959 . S
H300 C301 0.961 . S
C301 C291 1.510 . S
C301 H299 0.959 . S
C301 H300 0.961 . S
C301 H302 0.960 . S
H302 C301 0.960 . S
H303 N283 0.862 . S
O304 Co272 1.920 . S
O304 C277 1.289 . S
C305 O297 1.258 . S
C305 O298 1.266 . S
Co306 O309 1.970 . S
Co306 N323 1.989 . S
Co306 O331 1.967 . S
Co306 O338 1.920 . S
Co307 O310 1.966 . S
Co307 N316 2.022 . S
Co307 N324 1.993 . S
Co307 O332 1.941 . S
C308 O309 1.258 . S
C308 O310 1.263 . S
O309 Co306 1.970 . S
O309 C308 1.258 . S
O310 Co307 1.966 . S
O310 C308 1.263 . S
C311 O312 1.235 . S
C311 O338 1.289 . S
O312 C311 1.235 . S
C313 C315 1.400 . S
C313 N316 1.351 . S
C313 C318 1.501 . S
C314 C315 1.387 . S
C314 N317 1.341 . S
C315 C313 1.400 . S
C315 C314 1.387 . S
N316 Co307 2.022 . S
N316 C313 1.351 . S
N316 N317 1.365 . S
N317 C314 1.341 . S
N317 N316 1.365 . S
N317 H337 0.862 . S
C318 C313 1.501 . S
C318 H319 0.961 . S
C318 H320 0.961 . S
C318 H321 0.960 . S
H319 C318 0.961 . S
H320 C318 0.961 . S
H321 C318 0.960 . S
C322 N323 1.342 . S
C322 C326 1.401 . S
C322 C327 1.499 . S
N323 Co306 1.989 . S
N323 C322 1.342 . S
N323 N324 1.388 . S
N324 Co307 1.993 . S
N324 N323 1.388 . S
N324 C325 1.346 . S
C325 N324 1.346 . S
C325 C326 1.396 . S
C325 C335 1.510 . S
C326 C322 1.401 . S
C326 C325 1.396 . S
C327 C322 1.499 . S
C327 H328 0.959 . S
C327 H329 0.960 . S
C327 H330 0.961 . S
H328 C327 0.959 . S
H329 C327 0.960 . S
H330 C327 0.961 . S
O331 Co306 1.967 . S
O331 C339 1.258 . S
O332 Co307 1.941 . S
O332 C339 1.266 . S
H333 C335 0.959 . S
H334 C335 0.961 . S
C335 C325 1.510 . S
C335 H333 0.959 . S
C335 H334 0.961 . S
C335 H336 0.960 . S
H336 C335 0.960 . S
H337 N317 0.862 . S
O338 Co306 1.920 . S
O338 C311 1.289 . S
C339 O331 1.258 . S
C339 O332 1.266 . S
Co340 O343 1.970 . S
Co340 N357 1.989 . S
Co340 O365 1.967 . S
Co340 O372 1.920 . S
Co341 O344 1.966 . S
Co341 N350 2.022 . S
Co341 N358 1.993 . S
Co341 O366 1.941 . S
C342 O343 1.258 . S
C342 O344 1.263 . S
O343 Co340 1.970 . S
O343 C342 1.258 . S
O344 Co341 1.966 . S
O344 C342 1.263 . S
C345 O346 1.235 . S
C345 O372 1.289 . S
O346 C345 1.235 . S
C347 C349 1.400 . S
C347 N350 1.351 . S
C347 C352 1.501 . S
C348 C349 1.387 . S
C348 N351 1.341 . S
C349 C347 1.400 . S
C349 C348 1.387 . S
N350 Co341 2.022 . S
N350 C347 1.351 . S
N350 N351 1.365 . S
N351 C348 1.341 . S
N351 N350 1.365 . S
N351 H371 0.862 . S
C352 C347 1.501 . S
C352 H353 0.961 . S
C352 H354 0.961 . S
C352 H355 0.960 . S
H353 C352 0.961 . S
H354 C352 0.961 . S
H355 C352 0.960 . S
C356 N357 1.342 . S
C356 C360 1.401 . S
C356 C361 1.499 . S
N357 Co340 1.989 . S
N357 C356 1.342 . S
N357 N358 1.388 . S
N358 Co341 1.993 . S
N358 N357 1.388 . S
N358 C359 1.346 . S
C359 N358 1.346 . S
C359 C360 1.396 . S
C359 C369 1.510 . S
C360 C356 1.401 . S
C360 C359 1.396 . S
C361 C356 1.499 . S
C361 H362 0.959 . S
C361 H363 0.960 . S
C361 H364 0.961 . S
H362 C361 0.959 . S
H363 C361 0.960 . S
H364 C361 0.961 . S
O365 Co340 1.967 . S
O365 C373 1.258 . S
O366 Co341 1.941 . S
O366 C373 1.266 . S
H367 C369 0.959 . S
H368 C369 0.961 . S
C369 C359 1.510 . S
C369 H367 0.959 . S
C369 H368 0.961 . S
C369 H370 0.960 . S
H370 C369 0.960 . S
H371 N351 0.862 . S
O372 Co340 1.920 . S
O372 C345 1.289 . S
C373 O365 1.258 . S
C373 O366 1.266 . S
Co374 O377 1.970 . S
Co374 N391 1.989 . S
Co374 O399 1.967 . S
Co374 O406 1.920 . S
Co375 O378 1.966 . S
Co375 N384 2.022 . S
Co375 N392 1.993 . S
Co375 O400 1.941 . S
C376 O377 1.258 . S
C376 O378 1.263 . S
O377 Co374 1.970 . S
O377 C376 1.258 . S
O378 Co375 1.966 . S
O378 C376 1.263 . S
C379 O380 1.235 . S
C379 O406 1.289 . S
O380 C379 1.235 . S
C381 C383 1.400 . S
C381 N384 1.351 . S
C381 C386 1.501 . S
C382 C383 1.387 . S
C382 N385 1.341 . S
C383 C381 1.400 . S
C383 C382 1.387 . S
N384 Co375 2.022 . S
N384 C381 1.351 . S
N384 N385 1.365 . S
N385 C382 1.341 . S
N385 N384 1.365 . S
N385 H405 0.862 . S
C386 C381 1.501 . S
C386 H387 0.961 . S
C386 H388 0.961 . S
C386 H389 0.960 . S
H387 C386 0.961 . S
H388 C386 0.961 . S
H389 C386 0.960 . S
C390 N391 1.342 . S
C390 C394 1.401 . S
C390 C395 1.499 . S
N391 Co374 1.989 . S
N391 C390 1.342 . S
N391 N392 1.388 . S
N392 Co375 1.993 . S
N392 N391 1.388 . S
N392 C393 1.346 . S
C393 N392 1.346 . S
C393 C394 1.396 . S
C393 C403 1.510 . S
C394 C390 1.401 . S
C394 C393 1.396 . S
C395 C390 1.499 . S
C395 H396 0.959 . S
C395 H397 0.960 . S
C395 H398 0.961 . S
H396 C395 0.959 . S
H397 C395 0.960 . S
H398 C395 0.961 . S
O399 Co374 1.967 . S
O399 C407 1.258 . S
O400 Co375 1.941 . S
O400 C407 1.266 . S
H401 C403 0.959 . S
H402 C403 0.961 . S
C403 C393 1.510 . S
C403 H401 0.959 . S
C403 H402 0.961 . S
C403 H404 0.960 . S
H404 C403 0.960 . S
H405 N385 0.862 . S
O406 Co374 1.920 . S
O406 C379 1.289 . S
C407 O399 1.258 . S
C407 O400 1.266 . S
C408 C409 1.369 1_556 S
C408 C410 1.419 1_545 S
C408 H412 0.930 . S
C409 C408 1.369 1_554 S
C409 C418 1.429 . S
C410 C408 1.419 1_565 S
C410 C411 1.363 1_556 S
C410 H413 0.929 . S
C411 C410 1.363 1_554 S
C411 C417 1.428 . S
H412 C408 0.930 . S
H413 C410 0.929 . S
S414 N415 1.613 1_565 S
S414 N416 1.610 . S
N415 S414 1.613 1_545 S
N415 C418 1.350 . S
N416 S414 1.610 . S
N416 C417 1.351 . S
C417 C411 1.428 . S
C417 N416 1.351 . S
C417 C418 1.434 1_565 S
C418 C409 1.429 . S
C418 N415 1.350 . S
C418 C417 1.434 1_545 S
C419 C420 1.369 1_556 S
C419 C421 1.419 . S
C419 H423 0.930 . S
C420 C419 1.369 1_554 S
C420 C429 1.429 . S
C421 C419 1.419 . S
C421 C422 1.363 1_556 S
C421 H424 0.929 . S
C422 C421 1.363 1_554 S
C422 C428 1.428 . S
H423 C419 0.930 . S
H424 C421 0.929 . S
S425 N426 1.613 . S
S425 N427 1.610 . S
N426 S425 1.613 . S
N426 C429 1.350 . S
N427 S425 1.610 . S
N427 C428 1.351 . S
C428 C422 1.428 . S
C428 N427 1.351 . S
C428 C429 1.434 . S
C429 C420 1.429 . S
C429 N426 1.350 . S
C429 C428 1.434 . S
C430 C431 1.369 . S
C430 C432 1.419 1_455 S
C430 H434 0.930 . S
C431 C430 1.369 . S
C431 C440 1.429 . S
C432 C430 1.419 1_655 S
C432 C433 1.363 . S
C432 H435 0.929 . S
C433 C432 1.363 . S
C433 C439 1.428 1_554 S
H434 C430 0.930 . S
H435 C432 0.929 . S
S436 N437 1.613 1_655 S
S436 N438 1.610 . S
N437 S436 1.613 1_455 S
N437 C440 1.350 1_556 S
N438 S436 1.610 . S
N438 C439 1.352 . S
C439 C433 1.428 1_556 S
C439 N438 1.352 . S
C439 C440 1.434 1_656 S
C440 C431 1.429 . S
C440 N437 1.350 1_554 S
C440 C439 1.434 1_454 S
C441 C442 1.369 . S
C441 C443 1.419 . S
C441 H445 0.930 . S
C442 C441 1.369 . S
C442 C451 1.429 . S
C443 C441 1.419 . S
C443 C444 1.363 1_455 S
C443 H446 0.911 1_455 S
C444 C443 1.363 1_655 S
C444 C450 1.428 . S
H445 C441 0.930 . S
H446 C443 0.911 1_655 S
S447 N448 1.613 . S
S447 N449 1.610 1_455 S
N448 S447 1.613 . S
N448 C451 1.350 . S
N449 S447 1.610 1_655 S
N449 C450 1.351 . S
C450 C444 1.428 . S
C450 N449 1.351 . S
C450 C451 1.434 1_655 S
C451 C442 1.429 . S
C451 N448 1.350 . S
C451 C450 1.434 1_455 S
C452 C453 1.369 1_565 S
C452 C454 1.419 . S
C452 H456 0.930 1_565 S
C453 C452 1.369 1_545 S
C453 C462 1.429 . S
C454 C452 1.419 . S
C454 C455 1.363 . S
C454 H457 0.929 . S
C455 C454 1.363 . S
C455 C461 1.428 . S
H456 C452 0.930 1_545 S
H457 C454 0.929 . S
S458 N459 1.613 1_565 S
S458 N460 1.610 . S
N459 S458 1.613 1_545 S
N459 C462 1.354 . S
N460 S458 1.610 . S
N460 C461 1.351 . S
C461 C455 1.428 . S
C461 N460 1.351 . S
C461 C462 1.429 1_565 S
C462 C453 1.429 . S
C462 N459 1.354 . S
C462 C461 1.429 1_545 S
C463 C464 1.369 . S
C463 C465 1.419 . S
C463 H467 0.930 . S
C464 C463 1.369 . S
C464 C473 1.429 . S
C465 C463 1.419 . S
C465 C466 1.363 . S
C465 H468 0.929 . S
C466 C465 1.363 . S
C466 C472 1.428 . S
H467 C463 0.930 . S
H468 C465 0.929 . S
S469 N470 1.613 . S
S469 N471 1.610 . S
N470 S469 1.613 . S
N470 C473 1.350 . S
N471 S469 1.610 . S
N471 C472 1.351 . S
C472 C466 1.428 . S
C472 N471 1.351 . S
C472 C473 1.434 . S
C473 C464 1.429 . S
C473 N470 1.350 . S
C473 C472 1.434 . S
C474 C475 1.369 1_566 S
C474 C476 1.419 . S
C474 H478 0.930 . S
C475 C474 1.369 1_544 S
C475 C484 1.429 1_545 S
C476 C474 1.419 . S
C476 C477 1.363 1_556 S
C476 H479 0.929 . S
C477 C476 1.363 1_554 S
C477 C483 1.428 . S
H478 C474 0.930 . S
H479 C476 0.929 . S
S480 N481 1.613 1_565 S
S480 N482 1.610 . S
N481 S480 1.613 1_545 S
N481 C484 1.350 1_545 S
N482 S480 1.610 . S
N482 C483 1.351 . S
C483 C477 1.428 . S
C483 N482 1.351 . S
C483 C484 1.434 . S
C484 C475 1.429 1_565 S
C484 N481 1.350 1_565 S
C484 C483 1.434 . S
C485 C486 1.369 . S
C485 C487 1.419 . S
C485 H489 0.930 . S
C486 C485 1.369 . S
C486 C495 1.429 1_554 S
C487 C485 1.419 . S
C487 C488 1.363 . S
C487 H490 0.929 . S
C488 C487 1.363 . S
C488 C494 1.428 1_554 S
H489 C485 0.930 . S
H490 C487 0.929 . S
S491 N492 1.613 . S
S491 N493 1.610 . S
N492 S491 1.613 . S
N492 C495 1.350 . S
N493 S491 1.610 . S
N493 C494 1.351 . S
C494 C488 1.428 1_556 S
C494 N493 1.351 . S
C494 C495 1.434 . S
C495 C486 1.429 1_556 S
C495 N492 1.350 . S
C495 C494 1.434 . S
C496 C497 1.369 1_456 S
C496 C498 1.419 . S
C496 H500 0.930 . S
C497 C496 1.369 1_654 S
C497 C506 1.429 1_655 S
C498 C496 1.419 . S
C498 C499 1.363 1_556 S
C498 H501 0.929 . S
C499 C498 1.363 1_554 S
C499 C505 1.428 . S
H500 C496 0.930 . S
H501 C498 0.929 . S
S502 N503 1.604 1_455 S
S502 N504 1.610 . S
N503 S502 1.604 1_655 S
N503 C506 1.349 1_655 S
N504 S502 1.610 . S
N504 C505 1.351 . S
C505 C499 1.428 . S
C505 N504 1.351 . S
C505 C506 1.434 . S
C506 C497 1.429 1_455 S
C506 N503 1.349 1_455 S
C506 C505 1.434 . S
C507 C508 1.369 . S
C507 C509 1.419 . S
C507 H511 0.930 . S
C508 C507 1.369 . S
C508 C517 1.429 1_554 S
C509 C507 1.419 . S
C509 C510 1.363 . S
C509 H512 0.929 . S
C510 C509 1.363 . S
C510 C516 1.428 1_554 S
H511 C507 0.930 . S
H512 C509 0.929 . S
S513 N514 1.613 . S
S513 N515 1.610 1_545 S
N514 S513 1.613 . S
N514 C517 1.350 . S
N515 S513 1.610 1_565 S
N515 C516 1.351 1_565 S
C516 C510 1.428 1_556 S
C516 N515 1.351 1_545 S
C516 C517 1.434 . S
C517 C508 1.429 1_556 S
C517 N514 1.350 . S
C517 C516 1.434 . S
C518 C519 1.369 . S
C518 C520 1.419 . S
C518 H522 0.930 . S
C519 C518 1.369 . S
C519 C528 1.429 1_554 S
C520 C518 1.419 . S
C520 C521 1.363 . S
C520 H523 0.929 . S
C521 C520 1.363 . S
C521 C527 1.428 1_554 S
H522 C518 0.930 . S
H523 C520 0.929 . S
S524 N525 1.613 . S
S524 N526 1.610 . S
N525 S524 1.613 . S
N525 C528 1.350 . S
N526 S524 1.610 . S
N526 C527 1.351 . S
C527 C521 1.428 1_556 S
C527 N526 1.351 . S
C527 C528 1.434 . S
C528 C519 1.429 1_556 S
C528 N525 1.350 . S
C528 C527 1.434 . S
C529 C530 1.369 . S
C529 C531 1.419 . S
C529 H533 0.930 . S
C530 C529 1.369 . S
C530 C539 1.429 . S
C531 C529 1.419 . S
C531 C532 1.363 . S
C531 H534 0.929 1_655 S
C532 C531 1.363 . S
C532 C538 1.428 . S
H533 C529 0.930 . S
H534 C531 0.929 1_455 S
S535 N536 1.613 . S
S535 N537 1.610 . S
N536 S535 1.613 . S
N536 C539 1.350 1_556 S
N537 S535 1.610 . S
N537 C538 1.351 1_556 S
C538 C532 1.428 . S
C538 N537 1.351 1_554 S
C538 C539 1.434 . S
C539 C530 1.429 . S
C539 N536 1.350 1_554 S
C539 C538 1.434 . S
C540 C541 1.369 . S
C540 C542 1.419 1_455 S
C540 H544 0.930 . S
C541 C540 1.369 . S
C541 C550 1.429 . S
C542 C540 1.419 1_655 S
C542 C543 1.363 . S
C542 H545 0.929 . S
C543 C542 1.363 . S
C543 C549 1.428 1_655 S
H544 C540 0.930 . S
H545 C542 0.929 . S
S546 N547 1.613 . S
S546 N548 1.610 . S
N547 S546 1.613 . S
N547 C550 1.350 . S
N548 S546 1.610 . S
N548 C549 1.351 . S
C549 C543 1.428 1_455 S
C549 N548 1.351 . S
C549 C550 1.434 . S
C550 C541 1.429 . S
C550 N547 1.350 . S
C550 C549 1.434 . S
C551 C552 1.369 . S
C551 C553 1.419 1_545 S
C551 H555 0.930 . S
C552 C551 1.369 . S
C552 C561 1.439 . S
C553 C551 1.419 1_565 S
C553 C554 1.363 . S
C553 H556 0.929 . S
C554 C553 1.363 . S
C554 C560 1.428 . S
H555 C551 0.930 . S
H556 C553 0.929 . S
S557 N558 1.613 1_565 S
S557 N559 1.610 . S
N558 S557 1.613 1_545 S
N558 C561 1.346 . S
N559 S557 1.610 . S
N559 C560 1.351 . S
C560 C554 1.428 . S
C560 N559 1.351 . S
C560 C561 1.426 1_565 S
C561 C552 1.439 . S
C561 N558 1.346 . S
C561 C560 1.426 1_545 S
C562 C563 1.369 . S
C562 C564 1.419 . S
C562 H566 0.930 . S
C563 C562 1.369 . S
C563 C572 1.429 . S
C564 C562 1.419 . S
C564 C565 1.363 . S
C564 H567 0.929 . S
C565 C564 1.363 . S
C565 C571 1.428 . S
H566 C562 0.930 . S
H567 C564 0.929 . S
S568 N569 1.613 . S
S568 N570 1.610 . S
N569 S568 1.613 . S
N569 C572 1.350 . S
N570 S568 1.610 . S
N570 C571 1.351 . S
C571 C565 1.428 . S
C571 N570 1.351 . S
C571 C572 1.434 . S
C572 C563 1.429 . S
C572 N569 1.350 . S
C572 C571 1.434 . S
C573 C574 1.369 . S
C573 C575 1.419 1_455 S
C573 H577 0.930 . S
C574 C573 1.369 . S
C574 C583 1.429 . S
C575 C573 1.419 1_655 S
C575 C576 1.363 . S
C575 H578 0.929 . S
C576 C575 1.363 . S
C576 C582 1.428 1_655 S
H577 C573 0.930 . S
H578 C575 0.929 . S
S579 N580 1.613 . S
S579 N581 1.610 1_455 S
N580 S579 1.613 . S
N580 C583 1.350 . S
N581 S579 1.610 1_655 S
N581 C582 1.351 1_655 S
C582 C576 1.428 1_455 S
C582 N581 1.351 1_455 S
C582 C583 1.434 . S
C583 C574 1.429 . S
C583 N580 1.350 . S
C583 C582 1.434 . S
C584 C585 1.369 . S
C584 C586 1.419 1_545 S
C584 H588 0.930 . S
C585 C584 1.369 . S
C585 C594 1.429 1_545 S
C586 C584 1.419 1_565 S
C586 C587 1.363 . S
C586 H589 0.929 . S
C587 C586 1.363 . S
C587 C593 1.428 . S
H588 C584 0.930 . S
H589 C586 0.929 . S
S590 N591 1.613 . S
S590 N592 1.610 . S
N591 S590 1.613 . S
N591 C594 1.350 . S
N592 S590 1.610 . S
N592 C593 1.351 . S
C593 C587 1.428 . S
C593 N592 1.351 . S
C593 C594 1.434 . S
C594 C585 1.429 1_565 S
C594 N591 1.350 . S
C594 C593 1.434 . S
C595 C596 1.369 . S
C595 C597 1.419 . S
C595 H599 0.930 . S
C596 C595 1.369 . S
C596 C605 1.429 . S
C597 C595 1.419 . S
C597 C598 1.363 . S
C597 H600 0.929 . S
C598 C597 1.363 . S
C598 C604 1.428 . S
H599 C595 0.930 . S
H600 C597 0.929 . S
S601 N602 1.613 . S
S601 N603 1.610 . S
N602 S601 1.613 . S
N602 C605 1.350 . S
N603 S601 1.610 . S
N603 C604 1.351 . S
C604 C598 1.428 . S
C604 N603 1.351 . S
C604 C605 1.434 . S
C605 C596 1.429 . S
C605 N602 1.350 . S
C605 C604 1.434 . S
C606 C607 1.369 . S
C606 C608 1.419 . S
C606 H610 0.930 . S
C607 C606 1.369 . S
C607 C616 1.429 . S
C608 C606 1.419 . S
C608 C609 1.363 . S
C608 H611 0.929 . S
C609 C608 1.363 . S
C609 C615 1.428 . S
H610 C606 0.930 . S
H611 C608 0.929 . S
S612 N613 1.613 . S
S612 N614 1.610 . S
N613 S612 1.613 . S
N613 C616 1.350 . S
N614 S612 1.610 . S
N614 C615 1.351 . S
C615 C609 1.428 . S
C615 N614 1.351 . S
C615 C616 1.434 . S
C616 C607 1.429 . S
C616 N613 1.350 . S
C616 C615 1.434 . S
C617 C618 1.369 . S
C617 C619 1.419 . S
C617 H621 0.930 . S
C618 C617 1.369 . S
C618 C627 1.429 . S
C619 C617 1.419 . S
C619 C620 1.363 . S
C619 H622 0.929 . S
C620 C619 1.363 . S
C620 C626 1.428 . S
H621 C617 0.930 . S
H622 C619 0.929 . S
S623 N624 1.613 . S
S623 N625 1.610 . S
N624 S623 1.613 . S
N624 C627 1.350 . S
N625 S623 1.610 . S
N625 C626 1.351 . S
C626 C620 1.428 . S
C626 N625 1.351 . S
C626 C627 1.434 . S
C627 C618 1.429 . S
C627 N624 1.350 . S
C627 C626 1.434 . S
C628 C629 1.369 . S
C628 C630 1.419 . S
C628 H632 0.930 . S
C629 C628 1.369 . S
C629 C638 1.429 . S
C630 C628 1.419 . S
C630 C631 1.363 . S
C630 H633 0.929 . S
C631 C630 1.363 . S
C631 C637 1.428 . S
H632 C628 0.930 . S
H633 C630 0.929 . S
S634 N635 1.613 . S
S634 N636 1.610 . S
N635 S634 1.613 . S
N635 C638 1.350 . S
N636 S634 1.610 . S
N636 C637 1.351 . S
C637 C631 1.428 . S
C637 N636 1.351 . S
C637 C638 1.434 . S
C638 C629 1.429 . S
C638 N635 1.350 . S
C638 C637 1.434 . S
C639 C640 1.369 . S
C639 C641 1.419 . S
C639 H643 0.930 . S
C640 C639 1.369 . S
C640 C649 1.429 . S
C641 C639 1.419 . S
C641 C642 1.363 . S
C641 H644 0.929 . S
C642 C641 1.363 . S
C642 C648 1.428 . S
H643 C639 0.930 . S
H644 C641 0.929 . S
S645 N646 1.613 . S
S645 N647 1.610 . S
N646 S645 1.613 . S
N646 C649 1.350 . S
N647 S645 1.610 . S
N647 C648 1.351 . S
C648 C642 1.428 . S
C648 N647 1.351 . S
C648 C649 1.434 . S
C649 C640 1.429 . S
C649 N646 1.350 . S
C649 C648 1.434 . S
C650 C651 1.369 . S
C650 C652 1.419 . S
C650 H654 0.930 . S
C651 C650 1.369 . S
C651 C660 1.429 . S
C652 C650 1.419 . S
C652 C653 1.363 . S
C652 H655 0.929 . S
C653 C652 1.363 . S
C653 C659 1.428 . S
H654 C650 0.930 . S
H655 C652 0.929 . S
S656 N657 1.613 . S
S656 N658 1.610 . S
N657 S656 1.613 . S
N657 C660 1.350 . S
N658 S656 1.610 . S
N658 C659 1.351 . S
C659 C653 1.428 . S
C659 N658 1.351 . S
C659 C660 1.434 . S
C660 C651 1.429 . S
C660 N657 1.350 . S
C660 C659 1.434 . S
C661 C662 1.369 . S
C661 C663 1.419 . S
C661 H665 0.930 . S
C662 C661 1.369 . S
C662 C671 1.429 . S
C663 C661 1.419 . S
C663 C664 1.363 . S
C663 H666 0.929 . S
C664 C663 1.363 . S
C664 C670 1.428 . S
H665 C661 0.930 . S
H666 C663 0.929 . S
S667 N668 1.613 . S
S667 N669 1.610 . S
N668 S667 1.613 . S
N668 C671 1.350 . S
N669 S667 1.610 . S
N669 C670 1.351 . S
C670 C664 1.428 . S
C670 N669 1.351 . S
C670 C671 1.434 . S
C671 C662 1.429 . S
C671 N668 1.350 . S
C671 C670 1.434 . S
C672 C673 1.369 . S
C672 C674 1.419 . S
C672 H676 0.930 . S
C673 C672 1.369 . S
C673 C682 1.429 . S
C674 C672 1.419 . S
C674 C675 1.363 . S
C674 H677 0.929 . S
C675 C674 1.363 . S
C675 C681 1.428 . S
H676 C672 0.930 . S
H677 C674 0.929 . S
S678 N679 1.613 . S
S678 N680 1.610 . S
N679 S678 1.613 . S
N679 C682 1.350 . S
N680 S678 1.610 . S
N680 C681 1.351 . S
C681 C675 1.428 . S
C681 N680 1.351 . S
C681 C682 1.434 . S
C682 C673 1.429 . S
C682 N679 1.350 . S
C682 C681 1.434 . S
C683 C684 1.369 . S
C683 C685 1.419 . S
C683 H687 0.930 . S
C684 C683 1.369 . S
C684 C693 1.429 . S
C685 C683 1.419 . S
C685 C686 1.363 . S
C685 H688 0.929 . S
C686 C685 1.363 . S
C686 C692 1.428 . S
H687 C683 0.930 . S
H688 C685 0.929 . S
S689 N690 1.613 . S
S689 N691 1.610 . S
N690 S689 1.613 . S
N690 C693 1.350 . S
N691 S689 1.610 . S
N691 C692 1.351 . S
C692 C686 1.428 . S
C692 N691 1.351 . S
C692 C693 1.434 . S
C693 C684 1.429 . S
C693 N690 1.350 . S
C693 C692 1.434 . S
C694 C695 1.369 . S
C694 C696 1.419 . S
C694 H698 0.930 . S
C695 C694 1.369 . S
C695 C704 1.429 . S
C696 C694 1.419 . S
C696 C697 1.363 . S
C696 H699 0.929 . S
C697 C696 1.363 . S
C697 C703 1.428 . S
H698 C694 0.930 . S
H699 C696 0.929 . S
S700 N701 1.613 . S
S700 N702 1.610 . S
N701 S700 1.613 . S
N701 C704 1.350 . S
N702 S700 1.610 . S
N702 C703 1.351 . S
C703 C697 1.428 . S
C703 N702 1.351 . S
C703 C704 1.434 . S
C704 C695 1.429 . S
C704 N701 1.350 . S
C704 C703 1.434 . S
C705 C706 1.369 . S
C705 C707 1.419 . S
C705 H709 0.930 . S
C706 C705 1.369 . S
C706 C715 1.429 . S
C707 C705 1.419 . S
C707 C708 1.363 . S
C707 H710 0.929 . S
C708 C707 1.363 . S
C708 C714 1.428 . S
H709 C705 0.930 . S
H710 C707 0.929 . S
S711 N712 1.613 . S
S711 N713 1.610 . S
N712 S711 1.613 . S
N712 C715 1.350 . S
N713 S711 1.610 . S
N713 C714 1.351 . S
C714 C708 1.428 . S
C714 N713 1.351 . S
C714 C715 1.434 . S
C715 C706 1.429 . S
C715 N712 1.350 . S
C715 C714 1.434 . S
C716 C717 1.369 . S
C716 C718 1.419 . S
C716 H720 0.930 . S
C717 C716 1.369 . S
C717 C726 1.429 . S
C718 C716 1.419 . S
C718 C719 1.363 . S
C718 H721 0.929 . S
C719 C718 1.363 . S
C719 C725 1.428 . S
H720 C716 0.930 . S
H721 C718 0.929 . S
S722 N723 1.613 . S
S722 N724 1.610 . S
N723 S722 1.613 . S
N723 C726 1.350 . S
N724 S722 1.610 . S
N724 C725 1.351 . S
C725 C719 1.428 . S
C725 N724 1.351 . S
C725 C726 1.434 . S
C726 C717 1.429 . S
C726 N723 1.350 . S
C726 C725 1.434 . S
C727 C728 1.369 . S
C727 C729 1.419 . S
C727 H731 0.930 . S
C728 C727 1.369 . S
C728 C737 1.429 . S
C729 C727 1.419 . S
C729 C730 1.363 . S
C729 H732 0.929 . S
C730 C729 1.363 . S
C730 C736 1.428 . S
H731 C727 0.930 . S
H732 C729 0.929 . S
S733 N734 1.613 . S
S733 N735 1.610 . S
N734 S733 1.613 . S
N734 C737 1.350 . S
N735 S733 1.610 . S
N735 C736 1.351 . S
C736 C730 1.428 . S
C736 N735 1.351 . S
C736 C737 1.434 . S
C737 C728 1.429 . S
C737 N734 1.350 . S
C737 C736 1.434 . S
C409 C2 2.074 . S
C411 C104 2.085 . S
C420 C138 2.076 . S
C422 C36 2.084 . S
C431 C172 2.079 . S
C433 C70 2.081 . S
C442 C308 2.193 . S
C444 C209 2.402 . S
C453 C345 2.400 . S
C455 C240 2.197 . S
C464 C277 2.397 . S
C466 C376 2.202 . S
C475 C33 1.165 . S
C477 C190 1.183 . S
C486 C20 0.925 . S
C488 C67 0.902 . S
C497 C101 1.168 . S
C499 C54 1.181 . S
C508 C88 0.928 . S
C510 C135 0.900 1_545 S
C519 C122 1.180 . S
C521 C169 1.167 . S
C530 C156 0.919 . S
C532 C203 0.908 1_655 S
C541 C258 0.801 . S
C543 C237 0.816 . S
C552 C281 0.661 . S
C554 C271 0.606 . S
C563 C326 0.804 . S
C565 C305 0.816 . S
C574 C339 0.596 . S
C576 C349 0.668 . S
C585 C373 0.819 . S
C587 C394 0.804 . S
C596 C407 0.625 . S
C598 C213 0.643 . S
C607 C292 2.030 . S
C609 C5 1.990 . S
C618 C39 1.411 . S
C620 C311 1.417 . S
C629 C73 1.994 . S
C631 C360 2.027 . S
C640 C107 1.402 . S
C642 C379 1.422 . S
C651 C224 2.025 . S
C653 C141 1.994 . S
C662 C175 1.411 . S
C664 C243 1.415 . S
C673 C383 0.958 . S
C675 C111 0.965 . S
C684 C206 2.368 . S
C686 C145 2.261 . S
C695 C247 0.956 . S
C697 C179 0.971 . S
C706 C9 2.254 . S
C708 C274 2.366 . S
C717 C43 0.971 . S
C719 C315 0.962 . S
C728 C77 2.257 . S
C730 C342 2.368 . S
