# Generated by pormake.
# Topology bcg, (8)-cn, num edge types: 1
# Building blocks:
#     Node 0, Type 0, BuildingBlock: LIZSOE_clean_sbu_0, # of connection points: 8
#     Node 1, Type 0, BuildingBlock: LIZSOE_clean_sbu_0, # of connection points: 8
#     Node 2, Type 0, BuildingBlock: LIZSOE_clean_sbu_0, # of connection points: 8
#     Node 3, Type 0, BuildingBlock: LIZSOE_clean_sbu_0, # of connection points: 8
#     Edge 4, Type (0, 0), BuildingBlock: CIFDUS_clean_linker_0, # of connection points: 2
#     Edge 5, Type (0, 0), BuildingBlock: CIFDUS_clean_linker_0, # of connection points: 2
#     Edge 6, Type (0, 0), BuildingBlock: CIFDUS_clean_linker_0, # of connection points: 2
#     Edge 7, Type (0, 0), BuildingBlock: CIFDUS_clean_linker_0, # of connection points: 2
#     Edge 8, Type (0, 0), BuildingBlock: CIFDUS_clean_linker_0, # of connection points: 2
#     Edge 9, Type (0, 0), BuildingBlock: CIFDUS_clean_linker_0, # of connection points: 2
#     Edge 10, Type (0, 0), BuildingBlock: CIFDUS_clean_linker_0, # of connection points: 2
#     Edge 11, Type (0, 0), BuildingBlock: CIFDUS_clean_linker_0, # of connection points: 2
#     Edge 12, Type (0, 0), BuildingBlock: CIFDUS_clean_linker_0, # of connection points: 2
#     Edge 13, Type (0, 0), BuildingBlock: CIFDUS_clean_linker_0, # of connection points: 2
#     Edge 14, Type (0, 0), BuildingBlock: CIFDUS_clean_linker_0, # of connection points: 2
#     Edge 15, Type (0, 0), BuildingBlock: CIFDUS_clean_linker_0, # of connection points: 2
#     Edge 16, Type (0, 0), BuildingBlock: CIFDUS_clean_linker_0, # of connection points: 2
#     Edge 17, Type (0, 0), BuildingBlock: CIFDUS_clean_linker_0, # of connection points: 2
#     Edge 18, Type (0, 0), BuildingBlock: CIFDUS_clean_linker_0, # of connection points: 2
#     Edge 19, Type (0, 0), BuildingBlock: CIFDUS_clean_linker_0, # of connection points: 2
# Relax obj value: 0.273
# Max RMSD: 0.323
# Mean RMSD: 0.323
data_MOF--net-bcg--node1-LIZSOE_clean_sbu_0--edge1-CIFDUS_clean_linker_0
_symmetry_space_group_name_H-M    P1
_symmetry_Int_Tables_number       1
_symmetry_cell_setting            triclinic
loop_
_symmetry_equiv_pos_as_xyz
'x, y, z'
_cell_length_a     19.329293
_cell_length_b     19.252634
_cell_length_c     19.091932
_cell_angle_alpha  89.728099
_cell_angle_beta   89.266136
_cell_angle_gamma 90.409304
loop_
_atom_site_label
_atom_site_type_symbol
_atom_site_fract_x
_atom_site_fract_y
_atom_site_fract_z
_atom_type_partial_charge
Co0 Co 0.11633 0.26894 1.00561 0.0
N1 N 0.02923 0.23199 0.03447 0.0
C2 C 1.01146 0.22458 0.1028 0.0
N3 N 0.91765 0.19868 0.045 0.0
C4 C 0.97186 0.21031 1.00037 0.0
C5 C 0.94401 0.20472 0.10937 0.0
Co6 Co 0.40605 0.24048 1.00821 0.0
N7 N 0.46931 0.26525 0.93695 0.0
N8 N 0.57083 0.28671 0.88336 0.0
C9 C 0.52726 0.33761 0.8659 0.0
C10 C 0.46437 0.3233 0.8976 0.0
C11 C 0.53416 0.24245 0.92456 0.0
Co12 Co 0.27545 0.26065 0.02813 0.0
C13 C 0.41802 0.19522 0.10162 0.0
H14 H 0.41829 0.35447 0.89463 0.0
O15 O 0.19664 0.30324 0.97306 0.0
O16 O 0.31959 0.24406 0.93133 0.0
O17 O 0.23495 0.16094 1.01656 0.0
O18 O 0.22145 0.28615 0.12236 0.0
O19 O 0.12009 0.32754 0.08217 0.0
O20 O 0.38236 0.15724 0.95972 0.0
O21 O 0.35364 0.21597 0.08892 0.0
O22 O 0.42982 0.32134 0.05168 0.0
O23 O 0.14723 0.1982 0.0678 0.0
O24 O 0.1259 0.2147 0.93283 0.0
O25 O 0.3233 0.35872 0.03599 0.0
O26 O 0.46431 0.19737 0.05341 0.0
C27 C 0.17748 0.14654 0.04542 0.0
C28 C 0.56399 0.17662 0.95441 0.0
H29 H 0.52365 0.13585 0.96096 0.0
H30 H 0.60488 0.15573 0.91938 0.0
H31 H 0.58778 0.18776 1.00581 0.0
C32 C 0.35279 0.19023 0.91147 0.0
C33 C 0.16291 0.31956 0.13215 0.0
H34 H 0.04558 0.23245 0.14609 0.0
H35 H 0.93031 0.21589 0.89574 0.0
H36 H 0.95831 0.13199 0.92227 0.0
H37 H 1.01865 0.19648 0.89465 0.0
C38 C 0.97076 0.18828 0.9245 0.0
C39 C 0.14129 0.28064 0.93846 0.0
C40 C 0.38745 0.37044 0.05196 0.0
H41 H 0.91472 0.20136 0.15802 0.0
H42 H 0.54117 0.38361 0.83606 0.0
Co43 Co 0.59966 0.75008 0.03663 0.0
N44 N 0.52646 0.69565 0.07139 0.0
C45 C 0.50746 0.6823 0.13852 0.0
N46 N 0.42129 0.64569 0.07392 0.0
C47 C 0.47541 0.66626 0.03356 0.0
C48 C 0.44221 0.65412 0.14015 0.0
Co49 Co 0.92527 0.78248 0.02367 0.0
N50 N 0.9994 0.80206 0.96522 0.0
N51 N 0.10644 0.82572 0.92627 0.0
C52 C 0.06615 0.81598 0.87043 0.0
C53 C 1.00018 0.80343 0.89438 0.0
C54 C 0.06437 0.81855 0.9829 0.0
Co55 Co 0.76277 0.77514 0.03458 0.0
C56 C 0.91399 0.74363 0.11677 0.0
H57 H 0.95583 0.7953 0.86175 0.0
O58 O 0.67036 0.79877 0.98577 0.0
O59 O 0.80598 0.73533 0.93883 0.0
O60 O 0.73113 0.66997 0.04726 0.0
O61 O 0.71917 0.81117 0.12606 0.0
O62 O 0.64702 0.72797 0.11805 0.0
O63 O 0.9075 0.70213 0.97803 0.0
O64 O 0.85378 0.75607 0.08637 0.0
O65 O 0.87474 0.83633 0.96183 0.0
O66 O 0.63275 0.67578 0.98924 0.0
O67 O 0.55656 0.77799 0.96907 0.0
O68 O 0.79576 0.87696 0.02489 0.0
O69 O 0.97031 0.73624 0.08041 0.0
C70 C 0.68008 0.6399 1.01507 0.0
C71 C 0.08773 0.82422 0.05735 0.0
H72 H 0.09978 0.77172 0.07799 0.0
H73 H 0.13454 0.85729 0.06176 0.0
H74 H 0.046 0.84746 0.08955 0.0
C75 C 0.86235 0.69838 0.9318 0.0
C76 C 0.66632 0.78019 0.15136 0.0
H77 H 0.53658 0.69589 0.18427 0.0
H78 H 0.44937 0.71338 0.93471 0.0
H79 H 0.43917 0.62106 0.93728 0.0
H80 H 0.5243 0.65795 0.93009 0.0
C81 C 0.47265 0.66463 0.9545 0.0
C82 C 0.61099 0.81411 0.95423 0.0
C83 C 0.85131 0.88883 0.99084 0.0
H84 H 0.40935 0.64874 0.18623 0.0
H85 H 0.08423 0.81249 0.81665 0.0
Co86 Co 0.41809 0.73549 0.59043 0.0
N87 N 0.5029 0.69616 0.56736 0.0
C88 C 0.52667 0.6683 0.50683 0.0
N89 N 0.61312 0.66381 0.57979 0.0
C90 C 0.55483 0.68662 0.61205 0.0
C91 C 0.59261 0.64631 0.5152 0.0
Co92 Co 0.12953 0.77586 0.50908 0.0
N93 N 0.06041 0.82878 0.5483 0.0
N94 N 0.95315 0.8698 0.56697 0.0
C95 C 0.98649 0.86453 0.62872 0.0
C96 C 0.05058 0.83816 0.61745 0.0
C97 C 1.00113 0.84912 0.51847 0.0
Co98 Co 0.26534 0.74348 0.54334 0.0
C99 C 0.13059 0.70374 0.44095 0.0
H100 H 0.08746 0.82542 0.65758 0.0
O101 O 0.33888 0.77632 0.61635 0.0
O102 O 0.21219 0.69624 0.62735 0.0
O103 O 0.31352 0.64542 0.52797 0.0
O104 O 0.32056 0.793 0.46223 0.0
O105 O 0.40122 0.72513 0.49201 0.0
O106 O 0.11388 0.7192 0.58228 0.0
O107 O 0.19303 0.71646 0.46742 0.0
O108 O 0.20364 0.83368 0.5548 0.0
O109 O 0.38626 0.6483 0.61528 0.0
O110 O 0.44023 0.82116 0.56887 0.0
O111 O 0.20617 0.83323 0.55545 0.0
O112 O 0.07372 0.72303 0.47097 0.0
C113 C 0.35609 0.61364 0.56907 0.0
C114 C 0.9918 0.84583 0.44057 0.0
H115 H 0.95383 0.80461 0.42724 0.0
H116 H 0.97413 0.89663 0.42041 0.0
H117 H 0.04167 0.83488 0.41369 0.0
C118 C 0.14617 0.69177 0.63031 0.0
C119 C 0.38128 0.77055 0.44984 0.0
H120 H 0.5002 0.66647 0.4575 0.0
H121 H 0.57486 0.71739 0.71822 0.0
H122 H 0.55607 0.6275 0.70699 0.0
H123 H 0.48696 0.6902 0.7029 0.0
C124 C 0.54206 0.68057 0.68943 0.0
C125 C 0.39595 0.81646 0.6198 0.0
C126 C 0.20901 0.89766 0.57188 0.0
H127 H 0.62671 0.63038 0.47284 0.0
H128 H 0.9654 0.87582 0.68007 0.0
Co129 Co 0.63163 0.23526 0.46056 0.0
N130 N 0.53832 0.25743 0.45406 0.0
C131 C 0.51452 0.30869 0.41212 0.0
N132 N 0.42549 0.27068 0.47254 0.0
C133 C 0.48214 0.23405 0.48946 0.0
C134 C 0.44534 0.31816 0.42479 0.0
Co135 Co 0.92297 0.26265 0.60228 0.0
N136 N 1.01381 0.22552 0.60168 0.0
N137 N 0.11236 0.16934 0.62495 0.0
C138 C 0.10831 0.17874 0.55527 0.0
C139 C 0.04876 0.21282 0.5414 0.0
C140 C 0.05434 0.19701 0.65214 0.0
Co141 Co 0.7736 0.25069 0.53789 0.0
C142 C 0.88527 0.27212 0.65391 0.0
H143 H 0.03051 0.22397 0.48957 0.0
O144 O 0.71665 0.21124 0.45799 0.0
O145 O 0.81491 0.15203 0.54871 0.0
O146 O 0.70723 0.21631 0.61309 0.0
O147 O 0.71978 0.34557 0.5321 0.0
O148 O 0.65541 0.32686 0.43822 0.0
O149 O 0.91166 0.19694 0.53002 0.0
O150 O 0.83566 0.29368 0.61141 0.0
O151 O 0.94147 0.32246 0.52433 0.0
O152 O 0.61841 0.25828 0.55896 0.0
O153 O 0.62029 0.14459 0.48725 0.0
O154 O 0.8463 0.28832 0.4636 0.0
O155 O 0.8931 0.20615 0.66897 0.0
C156 C 0.64383 0.23257 0.61366 0.0
C157 C 0.03668 0.18791 0.72864 0.0
H158 H 0.9874 0.21055 0.74554 0.0
H159 H 0.0351 0.13162 0.74112 0.0
H160 H 0.07885 0.2099 0.76065 0.0
C161 C 0.87796 0.14297 0.53494 0.0
C162 C 0.67551 0.36716 0.48604 0.0
H163 H 0.54577 0.33869 0.3755 0.0
H164 H 0.46434 0.12615 0.51295 0.0
H165 H 0.44536 0.18312 0.58501 0.0
H166 H 0.53131 0.16245 0.56355 0.0
C167 C 0.48135 0.17374 0.54053 0.0
C168 C 0.65813 0.1773 0.44133 0.0
C169 C 0.90722 0.31888 0.46682 0.0
H170 H 0.41241 0.35714 0.4018 0.0
H171 H 0.1481 0.16582 0.51718 0.0
H172 H 0.63985 0.34761 0.98517 0.0
H173 H 0.66478 0.23554 0.79368 0.0
H174 H 0.7692 0.18018 0.83714 0.0
H175 H 0.84008 0.15141 0.93835 0.0
H176 H 0.83561 0.2876 0.11725 0.0
H177 H 0.72958 0.33987 0.0754 0.0
C178 C 0.67079 0.31432 0.95163 0.0
C179 C 0.64401 0.29228 0.88757 0.0
C180 C 0.73031 0.28342 0.97756 0.0
C181 C 0.68374 0.24996 0.844 0.0
C182 C 0.7423 0.21761 0.86962 0.0
C183 C 0.81809 0.19461 0.96675 0.0
C184 C 0.84769 0.21698 0.02917 0.0
C185 C 0.76364 0.2314 0.93787 0.0
C186 C 0.81415 0.26883 0.06874 0.0
C187 C 0.75469 0.30039 0.04397 0.0
H188 H 0.15314 0.69953 0.91165 0.0
H189 H 0.21298 0.91007 0.95388 0.0
H190 H 0.31546 0.86935 1.0158 0.0
H191 H 0.37675 0.7732 0.07012 0.0
H192 H 0.3233 0.56192 1.02114 0.0
H193 H 0.22437 0.60243 0.95223 0.0
C194 C 0.19118 0.73593 0.93081 0.0
C195 C 0.17701 0.80707 0.92878 0.0
C196 C 0.24674 0.71173 0.969 0.0
C197 C 0.22457 0.85512 0.9547 0.0
C198 C 0.28137 0.83173 0.9917 0.0
C199 C 0.34172 0.7364 0.04589 0.0
C200 C 0.35419 0.665 0.05225 0.0
C201 C 0.29028 0.76023 1.00228 0.0
C202 C 0.3118 0.61683 1.01865 0.0
C203 C 0.25718 0.64011 0.97797 0.0
H204 H 0.68061 0.73967 0.48017 0.0
H205 H 0.68462 0.67967 0.69874 0.0
H206 H 0.76985 0.77128 0.71869 0.0
H207 H 0.8621 0.83939 0.67222 0.0
H208 H 0.86664 0.8958 0.45325 0.0
H209 H 0.76173 0.82794 0.43535 0.0
C210 C 0.70238 0.74319 0.53195 0.0
C211 C 0.67626 0.70198 0.58808 0.0
C212 C 0.75607 0.7902 0.54249 0.0
C213 C 0.70382 0.71012 0.65482 0.0
C214 C 0.7537 0.76068 0.6662 0.0
C215 C 0.84127 0.83806 0.62005 0.0
C216 C 0.87875 0.86432 0.56199 0.0
C217 C 0.78251 0.79793 0.61011 0.0
C218 C 0.84496 0.86761 0.49719 0.0
C219 C 0.7842 0.8296 0.48707 0.0
H220 H 0.18494 0.27207 0.68634 0.0
H221 H 0.19928 0.05581 0.65011 0.0
H222 H 0.29455 0.07385 0.56623 0.0
H223 H 0.35035 0.15693 0.48447 0.0
H224 H 0.35932 0.37275 0.54067 0.0
H225 H 0.26828 0.35364 0.63042 0.0
C226 C 0.21145 0.22885 0.66302 0.0
C227 C 0.17731 0.16466 0.65924 0.0
C228 C 0.26407 0.24222 0.6141 0.0
C229 C 0.21756 0.10763 0.64018 0.0
C230 C 0.27107 0.11806 0.59194 0.0
C231 C 0.33225 0.19946 0.51675 0.0
C232 C 0.36057 0.26559 0.5074 0.0
C233 C 0.28949 0.18627 0.57381 0.0
C234 C 0.33677 0.32152 0.54755 0.0
C235 C 0.28713 0.31014 0.60001 0.0
H236 H 0.62488 0.57537 0.13328 0.0
H237 H 0.66781 0.54673 0.9134 0.0
H238 H 0.55853 0.48595 0.90061 0.0
H239 H 0.44577 0.44984 0.9489 0.0
H240 H 0.41612 0.44214 0.17205 0.0
H241 H 0.52103 0.51348 0.18676 0.0
C242 C 0.61308 0.5513 0.08359 0.0
C243 C 0.65544 0.56703 0.02408 0.0
C244 C 0.54979 0.51364 0.07669 0.0
C245 C 0.63774 0.53518 0.96041 0.0
C246 C 0.57359 0.50211 0.95244 0.0
C247 C 0.46234 0.46228 1.001 0.0
C248 C 0.42187 0.43974 0.05891 0.0
C249 C 0.52815 0.4932 1.00968 0.0
C250 C 0.44399 0.4603 0.12583 0.0
C251 C 0.50586 0.49869 0.13445 0.0
H252 H 0.58984 0.39255 0.60028 0.0
H253 H 0.64086 0.46699 0.39301 0.0
H254 H 0.53338 0.53296 0.39011 0.0
H255 H 0.4242 0.57287 0.44726 0.0
H256 H 0.37865 0.50675 0.65841 0.0
H257 H 0.47969 0.43123 0.65696 0.0
C258 C 0.5788 0.42518 0.55549 0.0
C259 C 0.62586 0.42621 0.49789 0.0
C260 C 0.51518 0.46235 0.55349 0.0
C261 C 0.60789 0.46695 0.43934 0.0
C262 C 0.54501 0.50326 0.43679 0.0
C263 C 0.43523 0.5405 0.49227 0.0
C264 C 0.39294 0.54653 0.55299 0.0
C265 C 0.49764 0.50116 0.4933 0.0
C266 C 0.40904 0.50337 0.61048 0.0
C267 C 0.4684 0.46138 0.61046 0.0
H268 H 0.07404 0.09258 0.12718 0.0
H269 H 0.17333 0.06454 0.92605 0.0
H270 H 0.07745 0.98859 0.89027 0.0
H271 H 0.96038 0.93816 0.91253 0.0
H272 H 0.86291 0.96283 0.11503 0.0
H273 H 0.96003 0.0366 0.15178 0.0
C274 C 0.07543 0.06893 0.07577 0.0
C275 C 0.13176 0.08468 0.02957 0.0
C276 C 1.01862 0.02721 0.05473 0.0
C277 C 0.1321 0.05302 0.96336 0.0
C278 C 0.07625 0.01059 0.9424 0.0
C279 C 0.96044 0.9591 0.96505 0.0
C280 C 0.90358 0.94409 1.01079 0.0
C281 C 1.01838 0.99882 0.98695 0.0
C282 C 0.90458 0.97363 0.07803 0.0
C283 C 0.96102 0.01498 0.09948 0.0
H284 H 0.9623 0.07522 0.44372 0.0
H285 H 0.89585 0.07451 0.6598 0.0
H286 H 1.00203 0.01469 0.69251 0.0
H287 H 0.11613 0.96368 0.66029 0.0
H288 H 0.17009 0.94209 0.44203 0.0
H289 H 0.06888 0.01094 0.40977 0.0
C290 C 0.96937 0.05908 0.49764 0.0
C291 C 0.92 0.07946 0.54898 0.0
C292 C 0.03038 0.02301 0.51597 0.0
C293 C 0.93177 0.05948 0.61876 0.0
C294 C 0.99367 0.02661 0.63777 0.0
C295 C 0.10634 0.97494 0.6056 0.0
C296 C 0.15142 0.94733 0.55374 0.0
C297 C 0.04422 0.00935 0.58703 0.0
C298 C 0.13679 0.96203 0.4832 0.0
C299 C 0.07828 1.00092 0.4647 0.0
H300 H 0.53987 0.11081 0.39716 0.0
H301 H 0.71123 0.23447 0.31733 0.0
H302 H 0.64817 0.25282 0.20819 0.0
H303 H 0.54201 0.243 0.14118 0.0
H304 H 0.36581 0.12806 0.2228 0.0
H305 H 0.43158 0.1026 0.33001 0.0
C306 C 0.56473 0.14065 0.35556 0.0
C307 C 0.63168 0.17061 0.366 0.0
C308 C 0.52571 0.15559 0.29535 0.0
C309 C 0.66127 0.20965 0.31102 0.0
C310 C 0.62428 0.22143 0.24924 0.0
C311 C 0.51743 0.21175 0.18202 0.0
C312 C 0.44876 0.18639 0.17292 0.0
C313 C 0.55597 0.19635 0.24192 0.0
C314 C 0.41797 0.14815 0.22781 0.0
C315 C 0.4562 0.13285 0.28855 0.0
H316 H 0.66711 0.80065 0.29309 0.0
H317 H 0.5422 0.83638 0.11212 0.0
H318 H 0.43755 0.84051 0.18623 0.0
H319 H 0.37955 0.81008 0.30415 0.0
H320 H 0.51591 0.80288 0.48183 0.0
H321 H 0.61386 0.81416 0.40907 0.0
C322 C 0.61767 0.81264 0.26981 0.0
C323 C 0.61287 0.81548 0.19665 0.0
C324 C 0.55765 0.81795 0.31289 0.0
C325 C 0.54777 0.8325 0.16836 0.0
C326 C 0.48727 0.83412 0.2109 0.0
C327 C 0.43026 0.81315 0.32748 0.0
C328 C 0.43689 0.8021 0.40087 0.0
C329 C 0.49086 0.82282 0.28365 0.0
C330 C 0.5048 0.80842 0.42756 0.0
C331 C 0.5634 0.81457 0.38506 0.0
H332 H 0.534 0.83043 0.64696 0.0
H333 H 0.33398 0.85349 0.74797 0.0
H334 H 0.39296 0.88511 0.85717 0.0
H335 H 0.49959 0.88967 0.92635 0.0
H336 H 0.69214 0.82391 0.83231 0.0
H337 H 0.63956 0.83444 0.71598 0.0
C338 C 0.50212 0.8423 0.69236 0.0
C339 C 0.42833 0.83822 0.68835 0.0
C340 C 0.53633 0.8552 0.75582 0.0
C341 C 0.38998 0.85464 0.74884 0.0
C342 C 0.42401 0.87316 0.81119 0.0
C343 C 0.53097 0.87924 0.88007 0.0
C344 C 0.60014 0.85557 0.88891 0.0
C345 C 0.49704 0.8716 0.81557 0.0
C346 C 0.63976 0.84305 0.82827 0.0
C347 C 0.60867 0.84648 0.76189 0.0
H348 H 0.45536 0.10465 0.85878 0.0
H349 H 0.32663 0.27718 0.80023 0.0
H350 H 0.40807 0.30789 0.70619 0.0
H351 H 0.52321 0.29596 0.65081 0.0
H352 H 0.65021 0.1207 0.70354 0.0
H353 H 0.5641 0.08331 0.79185 0.0
C354 C 0.44404 0.14803 0.82453 0.0
C355 C 0.38569 0.19007 0.83917 0.0
C356 C 0.49268 0.16708 0.77149 0.0
C357 C 0.37124 0.24438 0.79184 0.0
C358 C 0.41866 0.26287 0.73851 0.0
C359 C 0.53265 0.25003 0.68219 0.0
C360 C 0.59499 0.21304 0.67237 0.0
C361 C 0.48122 0.22686 0.73031 0.0
C362 C 0.60418 0.15162 0.71135 0.0
C363 C 0.5543 0.12963 0.76119 0.0
H364 H 0.04541 0.60975 0.37775 0.0
H365 H 0.18346 0.78265 0.33755 0.0
H366 H 0.10583 0.82616 0.24832 0.0
H367 H 0.99295 0.82328 0.19327 0.0
H368 H 0.86964 0.63668 0.20474 0.0
H369 H 0.94152 0.59423 0.30171 0.0
C370 C 0.06059 0.65457 0.34638 0.0
C371 C 0.11977 0.69374 0.36556 0.0
C372 C 1.01469 0.6801 0.29559 0.0
C373 C 0.13882 0.75128 0.32403 0.0
C374 C 0.09284 0.77786 0.27496 0.0
C375 C 0.98113 0.77356 0.21759 0.0
C376 C 0.92528 0.73388 0.19237 0.0
C377 C 0.0292 0.74456 0.26329 0.0
C378 C 0.9106 0.66957 0.22453 0.0
C379 C 0.95355 0.64412 0.27785 0.0
H380 H 0.04889 0.32966 0.44712 0.0
H381 H 0.85674 0.34601 0.3353 0.0
H382 H 0.92225 0.36167 0.22559 0.0
H383 H 0.03165 0.36291 0.16149 0.0
H384 H 0.2204 0.30653 0.26594 0.0
H385 H 0.1587 0.31434 0.37947 0.0
C386 C 0.02066 0.3348 0.39887 0.0
C387 C 0.94698 0.33553 0.40032 0.0
C388 C 0.05853 0.33688 0.33491 0.0
C389 C 0.91275 0.34532 0.33662 0.0
C390 C 0.95039 0.35399 0.27373 0.0
C391 C 0.06041 0.35182 0.20855 0.0
C392 C 0.13163 0.33353 0.20383 0.0
C393 C 0.02311 0.34871 0.27226 0.0
C394 C 0.16629 0.32073 0.26684 0.0
C395 C 0.13059 0.32458 0.33182 0.0
H396 H 1.00949 0.3319 0.94234 0.0
H397 H 0.19258 0.33342 0.81206 0.0
H398 H 0.1216 0.36592 0.71055 0.0
H399 H 1.00815 0.34696 0.65343 0.0
H400 H 0.82794 0.30594 0.78216 0.0
H401 H 0.89395 0.33528 0.88687 0.0
C402 C 0.03416 0.33806 0.89162 0.0
C403 C 0.10628 0.32637 0.88494 0.0
C404 C 0.99221 0.34608 0.83173 0.0
C405 C 0.13742 0.34049 0.81939 0.0
C406 C 0.09652 0.35723 0.76085 0.0
C407 C 0.9828 0.34512 0.70427 0.0
C408 C 0.91314 0.32113 0.70952 0.0
C409 C 0.02369 0.35284 0.76517 0.0
C410 C 0.88119 0.32278 0.77599 0.0
C411 C 0.91966 0.33843 0.83615 0.0
H412 H 1.00557 0.69789 0.63696 0.0
H413 H 0.1788 0.63072 0.76092 0.0
H414 H 0.09741 0.60625 0.85892 0.0
H415 H 0.98277 0.6246 0.91454 0.0
H416 H 0.817 0.71275 0.79717 0.0
H417 H 0.89097 0.70935 0.68967 0.0
C418 C 0.02717 0.67872 0.68538 0.0
C419 C 0.10011 0.66762 0.69082 0.0
C420 C 0.98133 0.67059 0.74283 0.0
C421 C 0.12419 0.64059 0.75432 0.0
C422 C 0.07746 0.62741 0.81064 0.0
C423 C 0.96162 0.6423 0.86531 0.0
C424 C 0.89372 0.67195 0.86401 0.0
C425 C 1.00658 0.64502 0.80626 0.0
C426 C 0.8684 0.69212 0.79914 0.0
C427 C 0.91125 0.6907 0.73878 0.0
loop_
_geom_bond_atom_site_label_1
_geom_bond_atom_site_label_2
_geom_bond_distance
_geom_bond_site_symmetry_2
_ccdc_geom_bond_type
Co0 N1 2.034 1_455 S
Co0 O15 2.262 1_554 S
Co0 O19 1.958 . S
Co0 O23 1.950 1_554 S
Co0 O24 2.057 1_554 S
N1 Co0 2.034 1_655 S
N1 C2 1.366 . S
N1 C4 1.332 1_554 S
C2 N1 1.366 . S
C2 C5 1.377 . S
C2 H34 0.931 . S
N3 C4 1.346 1_554 S
N3 C5 1.337 . S
C4 N1 1.332 1_556 S
C4 N3 1.346 1_556 S
C4 C38 1.361 . S
C5 C2 1.377 . S
C5 N3 1.337 . S
C5 H41 0.930 . S
Co6 N7 2.034 1_554 S
Co6 O20 1.950 1_554 S
Co6 O21 2.262 . S
Co6 O22 1.958 . S
Co6 O26 2.057 . S
N7 Co6 2.034 1_556 S
N7 C10 1.366 . S
N7 C11 1.332 . S
N8 C9 1.337 . S
N8 C11 1.346 . S
C9 N8 1.337 . S
C9 C10 1.377 . S
C9 H42 0.930 . S
C10 N7 1.366 . S
C10 C9 1.377 . S
C10 H14 0.931 . S
C11 N7 1.332 . S
C11 N8 1.346 . S
C11 C28 1.361 . S
Co12 O15 2.097 1_554 S
Co12 O16 2.065 1_554 S
Co12 O17 2.065 . S
Co12 O18 2.042 . S
Co12 O21 2.097 . S
Co12 O25 2.042 1_554 S
C13 O21 1.253 . S
C13 O26 1.263 . S
H14 C10 0.931 . S
O15 Co0 2.262 1_556 S
O15 Co12 2.097 1_556 S
O15 C39 1.253 . S
O16 Co12 2.065 1_556 S
O16 C32 1.221 . S
O17 Co12 2.065 . S
O17 C27 1.221 . S
O18 Co12 2.042 . S
O18 C33 1.237 . S
O19 Co0 1.958 . S
O19 C33 1.278 . S
O20 Co6 1.950 1_556 S
O20 C32 1.277 . S
O21 Co6 2.262 . S
O21 Co12 2.097 . S
O21 C13 1.253 . S
O22 Co6 1.958 . S
O22 C40 1.278 . S
O23 Co0 1.950 1_556 S
O23 C27 1.275 1_556 S
O24 Co0 2.057 1_556 S
O24 C39 1.263 . S
O25 Co12 2.042 1_556 S
O25 C40 1.237 1_556 S
O26 Co6 2.057 . S
O26 C13 1.263 . S
C27 O17 1.221 . S
C27 O23 1.275 1_554 S
C28 C11 1.361 . S
C28 H29 0.960 . S
C28 H30 0.961 . S
C28 H31 0.961 1_556 S
H29 C28 0.960 . S
H30 C28 0.961 . S
H31 C28 0.961 1_554 S
C32 O16 1.221 . S
C32 O20 1.277 . S
C33 O18 1.237 . S
C33 O19 1.278 . S
H34 C2 0.931 . S
H35 C38 0.961 . S
H36 C38 0.961 . S
H37 C38 0.960 1_455 S
C38 C4 1.361 . S
C38 H35 0.961 . S
C38 H36 0.961 . S
C38 H37 0.960 1_655 S
C39 O15 1.253 . S
C39 O24 1.263 . S
C40 O22 1.278 . S
C40 O25 1.237 1_554 S
H41 C5 0.930 . S
H42 C9 0.930 . S
Co43 N44 2.034 . S
Co43 O58 2.262 1_554 S
Co43 O62 1.958 . S
Co43 O66 1.950 1_554 S
Co43 O67 2.057 1_554 S
N44 Co43 2.034 . S
N44 C45 1.366 . S
N44 C47 1.332 1_554 S
C45 N44 1.366 . S
C45 C48 1.377 . S
C45 H77 0.931 . S
N46 C47 1.346 1_554 S
N46 C48 1.337 . S
C47 N44 1.332 1_556 S
C47 N46 1.346 1_556 S
C47 C81 1.361 . S
C48 C45 1.377 . S
C48 N46 1.337 . S
C48 H84 0.930 . S
Co49 N50 2.034 1_654 S
Co49 O63 1.950 1_554 S
Co49 O64 2.262 . S
Co49 O65 1.958 . S
Co49 O69 2.057 . S
N50 Co49 2.034 1_456 S
N50 C53 1.366 . S
N50 C54 1.332 . S
N51 C52 1.337 . S
N51 C54 1.346 . S
C52 N51 1.337 . S
C52 C53 1.377 . S
C52 H85 0.930 . S
C53 N50 1.366 . S
C53 C52 1.377 . S
C53 H57 0.931 . S
C54 N50 1.332 . S
C54 N51 1.346 . S
C54 C71 1.361 . S
Co55 O58 2.097 1_554 S
Co55 O59 2.065 1_554 S
Co55 O60 2.065 . S
Co55 O61 2.042 . S
Co55 O64 2.097 . S
Co55 O68 2.042 1_554 S
C56 O64 1.253 . S
C56 O69 1.263 . S
H57 C53 0.931 . S
O58 Co43 2.262 1_556 S
O58 Co55 2.097 1_556 S
O58 C82 1.253 . S
O59 Co55 2.065 1_556 S
O59 C75 1.221 . S
O60 Co55 2.065 . S
O60 C70 1.221 . S
O61 Co55 2.042 . S
O61 C76 1.237 . S
O62 Co43 1.958 . S
O62 C76 1.278 . S
O63 Co49 1.950 1_556 S
O63 C75 1.277 . S
O64 Co49 2.262 . S
O64 Co55 2.097 . S
O64 C56 1.253 . S
O65 Co49 1.958 . S
O65 C83 1.278 . S
O66 Co43 1.950 1_556 S
O66 C70 1.275 1_556 S
O67 Co43 2.057 1_556 S
O67 C82 1.263 . S
O68 Co55 2.042 1_556 S
O68 C83 1.237 1_556 S
O69 Co49 2.057 . S
O69 C56 1.263 . S
C70 O60 1.221 . S
C70 O66 1.275 1_554 S
C71 C54 1.361 . S
C71 H72 0.960 . S
C71 H73 0.961 . S
C71 H74 0.961 1_556 S
H72 C71 0.960 . S
H73 C71 0.961 . S
H74 C71 0.961 1_554 S
C75 O59 1.221 . S
C75 O63 1.277 . S
C76 O61 1.237 . S
C76 O62 1.278 . S
H77 C45 0.931 . S
H78 C81 0.961 . S
H79 C81 0.961 . S
H80 C81 0.960 . S
C81 C47 1.361 . S
C81 H78 0.961 . S
C81 H79 0.961 . S
C81 H80 0.960 . S
C82 O58 1.253 . S
C82 O67 1.263 . S
C83 O65 1.278 . S
C83 O68 1.237 1_554 S
H84 C48 0.930 . S
H85 C52 0.930 . S
Co86 N87 2.034 . S
Co86 O101 2.262 . S
Co86 O105 1.958 . S
Co86 O109 1.950 . S
Co86 O110 2.057 . S
N87 Co86 2.034 . S
N87 C88 1.366 . S
N87 C90 1.332 . S
C88 N87 1.366 . S
C88 C91 1.377 . S
C88 H120 0.931 . S
N89 C90 1.346 . S
N89 C91 1.337 . S
C90 N87 1.332 . S
C90 N89 1.346 . S
C90 C124 1.361 . S
C91 C88 1.377 . S
C91 N89 1.337 . S
C91 H127 0.930 . S
Co92 N93 2.034 1_455 S
Co92 O106 1.950 . S
Co92 O107 2.262 . S
Co92 O108 1.958 . S
Co92 O112 2.057 . S
N93 Co92 2.034 1_655 S
N93 C96 1.366 . S
N93 C97 1.332 . S
N94 C95 1.337 . S
N94 C97 1.346 . S
C95 N94 1.337 . S
C95 C96 1.377 . S
C95 H128 0.930 . S
C96 N93 1.366 . S
C96 C95 1.377 . S
C96 H100 0.931 . S
C97 N93 1.332 . S
C97 N94 1.346 . S
C97 C114 1.361 . S
Co98 O101 2.097 . S
Co98 O102 2.065 . S
Co98 O103 2.065 . S
Co98 O104 2.042 . S
Co98 O107 2.097 . S
Co98 O111 2.042 . S
C99 O107 1.253 . S
C99 O112 1.263 . S
H100 C96 0.931 . S
O101 Co86 2.262 . S
O101 Co98 2.097 . S
O101 C125 1.253 . S
O102 Co98 2.065 . S
O102 C118 1.221 . S
O103 Co98 2.065 . S
O103 C113 1.221 . S
O104 Co98 2.042 . S
O104 C119 1.237 . S
O105 Co86 1.958 . S
O105 C119 1.278 . S
O106 Co92 1.950 . S
O106 C118 1.277 . S
O107 Co92 2.262 . S
O107 Co98 2.097 . S
O107 C99 1.253 . S
O108 Co92 1.958 . S
O108 C126 1.278 . S
O109 Co86 1.950 . S
O109 C113 1.277 . S
O110 Co86 2.057 . S
O110 C125 1.263 . S
O111 Co98 2.042 . S
O111 C126 1.237 . S
O112 Co92 2.057 . S
O112 C99 1.263 . S
C113 O103 1.221 . S
C113 O109 1.277 . S
C114 C97 1.361 . S
C114 H115 0.960 . S
C114 H116 0.961 . S
C114 H117 0.961 . S
H115 C114 0.960 . S
H116 C114 0.961 . S
H117 C114 0.961 . S
C118 O102 1.221 . S
C118 O106 1.277 . S
C119 O104 1.237 . S
C119 O105 1.278 . S
H120 C88 0.931 . S
H121 C124 0.961 . S
H122 C124 0.961 . S
H123 C124 0.960 . S
C124 C90 1.361 . S
C124 H121 0.961 . S
C124 H122 0.961 . S
C124 H123 0.960 . S
C125 O101 1.253 . S
C125 O110 1.263 . S
C126 O108 1.278 . S
C126 O111 1.237 . S
H127 C91 0.930 . S
H128 C95 0.930 . S
Co129 N130 2.034 . S
Co129 O144 2.262 . S
Co129 O148 1.958 . S
Co129 O152 1.950 . S
Co129 O153 2.057 . S
N130 Co129 2.034 . S
N130 C131 1.366 . S
N130 C133 1.332 . S
C131 N130 1.366 . S
C131 C134 1.377 . S
C131 H163 0.931 . S
N132 C133 1.346 . S
N132 C134 1.337 . S
C133 N130 1.332 . S
C133 N132 1.346 . S
C133 C167 1.361 . S
C134 C131 1.377 . S
C134 N132 1.337 . S
C134 H170 0.930 . S
Co135 N136 2.034 1_655 S
Co135 O149 1.950 . S
Co135 O150 2.262 . S
Co135 O151 1.958 . S
Co135 O155 2.057 . S
N136 Co135 2.034 1_455 S
N136 C139 1.366 . S
N136 C140 1.332 . S
N137 C138 1.337 . S
N137 C140 1.346 . S
C138 N137 1.337 . S
C138 C139 1.377 . S
C138 H171 0.930 . S
C139 N136 1.366 . S
C139 C138 1.377 . S
C139 H143 0.931 . S
C140 N136 1.332 . S
C140 N137 1.346 . S
C140 C157 1.361 . S
Co141 O144 2.097 . S
Co141 O145 2.065 . S
Co141 O146 2.065 . S
Co141 O147 2.042 . S
Co141 O150 2.097 . S
Co141 O154 2.042 . S
C142 O150 1.253 . S
C142 O155 1.263 . S
H143 C139 0.931 . S
O144 Co129 2.262 . S
O144 Co141 2.097 . S
O144 C168 1.253 . S
O145 Co141 2.065 . S
O145 C161 1.221 . S
O146 Co141 2.065 . S
O146 C156 1.221 . S
O147 Co141 2.042 . S
O147 C162 1.237 . S
O148 Co129 1.958 . S
O148 C162 1.278 . S
O149 Co135 1.950 . S
O149 C161 1.277 . S
O150 Co135 2.262 . S
O150 Co141 2.097 . S
O150 C142 1.253 . S
O151 Co135 1.958 . S
O151 C169 1.278 . S
O152 Co129 1.950 . S
O152 C156 1.277 . S
O153 Co129 2.057 . S
O153 C168 1.263 . S
O154 Co141 2.042 . S
O154 C169 1.237 . S
O155 Co135 2.057 . S
O155 C142 1.263 . S
C156 O146 1.221 . S
C156 O152 1.277 . S
C157 C140 1.361 . S
C157 H158 0.960 1_455 S
C157 H159 0.961 . S
C157 H160 0.961 . S
H158 C157 0.960 1_655 S
H159 C157 0.961 . S
H160 C157 0.961 . S
C161 O145 1.221 . S
C161 O149 1.277 . S
C162 O147 1.237 . S
C162 O148 1.278 . S
H163 C131 0.931 . S
H164 C167 0.961 . S
H165 C167 0.961 . S
H166 C167 0.960 . S
C167 C133 1.361 . S
C167 H164 0.961 . S
C167 H165 0.961 . S
C167 H166 0.960 . S
C168 O144 1.253 . S
C168 O153 1.263 . S
C169 O151 1.278 . S
C169 O154 1.237 . S
H170 C134 0.930 . S
H171 C138 0.930 . S
H172 C178 0.930 . S
H173 C181 0.930 . S
H174 C182 0.930 . S
H175 C183 0.930 . S
H176 C186 0.930 . S
H177 C187 0.930 . S
C178 H172 0.930 . S
C178 C179 1.359 . S
C178 C180 1.415 . S
C179 C178 1.359 . S
C179 C181 1.413 1_554 S
C180 C178 1.415 . S
C180 C185 1.425 1_554 S
C180 C187 1.409 . S
C181 H173 0.930 . S
C181 C179 1.413 1_556 S
C181 C182 1.362 . S
C182 H174 0.930 . S
C182 C181 1.362 . S
C182 C185 1.409 . S
C183 H175 0.930 . S
C183 C184 1.355 . S
C183 C185 1.415 . S
C184 C183 1.355 . S
C184 C186 1.419 1_556 S
C185 C180 1.425 1_556 S
C185 C182 1.409 . S
C185 C183 1.415 . S
C186 H176 0.930 . S
C186 C184 1.419 1_554 S
C186 C187 1.362 . S
C187 H177 0.930 . S
C187 C180 1.409 . S
C187 C186 1.362 . S
H188 C194 0.930 . S
H189 C197 0.930 . S
H190 C198 0.930 . S
H191 C199 0.930 . S
H192 C202 0.930 . S
H193 C203 0.930 . S
C194 H188 0.930 . S
C194 C195 1.355 1_556 S
C194 C196 1.415 . S
C195 C194 1.355 1_554 S
C195 C197 1.419 . S
C196 C194 1.415 . S
C196 C201 1.425 1_556 S
C196 C203 1.409 . S
C197 H189 0.930 . S
C197 C195 1.419 . S
C197 C198 1.362 . S
C198 H190 0.930 . S
C198 C197 1.362 . S
C198 C201 1.409 . S
C199 H191 0.930 . S
C199 C200 1.355 1_554 S
C199 C201 1.415 . S
C200 C199 1.355 1_556 S
C200 C202 1.419 . S
C201 C196 1.425 1_554 S
C201 C198 1.409 . S
C201 C199 1.415 . S
C202 H192 0.930 . S
C202 C200 1.419 . S
C202 C203 1.362 . S
C203 H193 0.930 . S
C203 C196 1.409 . S
C203 C202 1.362 . S
H204 C210 0.930 . S
H205 C213 0.930 . S
H206 C214 0.930 . S
H207 C215 0.930 . S
H208 C218 0.930 . S
H209 C219 0.930 . S
C210 H204 0.930 . S
C210 C211 1.355 . S
C210 C212 1.415 . S
C211 C210 1.355 . S
C211 C213 1.419 . S
C212 C210 1.415 . S
C212 C217 1.425 . S
C212 C219 1.409 . S
C213 H205 0.930 . S
C213 C211 1.419 . S
C213 C214 1.362 . S
C214 H206 0.930 . S
C214 C213 1.362 . S
C214 C217 1.409 . S
C215 H207 0.930 . S
C215 C216 1.355 . S
C215 C217 1.415 . S
C216 C215 1.355 . S
C216 C218 1.419 . S
C217 C212 1.425 . S
C217 C214 1.409 . S
C217 C215 1.415 . S
C218 H208 0.930 . S
C218 C216 1.419 . S
C218 C219 1.362 . S
C219 H209 0.930 . S
C219 C212 1.409 . S
C219 C218 1.362 . S
H220 C226 0.930 . S
H221 C229 0.930 . S
H222 C230 0.930 . S
H223 C231 0.930 . S
H224 C234 0.930 . S
H225 C235 0.930 . S
C226 H220 0.930 . S
C226 C227 1.355 . S
C226 C228 1.415 . S
C227 C226 1.355 . S
C227 C229 1.419 . S
C228 C226 1.415 . S
C228 C233 1.425 . S
C228 C235 1.409 . S
C229 H221 0.930 . S
C229 C227 1.419 . S
C229 C230 1.362 . S
C230 H222 0.930 . S
C230 C229 1.362 . S
C230 C233 1.409 . S
C231 H223 0.930 . S
C231 C232 1.355 . S
C231 C233 1.415 . S
C232 C231 1.355 . S
C232 C234 1.419 . S
C233 C228 1.425 . S
C233 C230 1.409 . S
C233 C231 1.415 . S
C234 H224 0.930 . S
C234 C232 1.419 . S
C234 C235 1.362 . S
C235 H225 0.930 . S
C235 C228 1.409 . S
C235 C234 1.362 . S
H236 C242 0.930 . S
H237 C245 0.930 . S
H238 C246 0.930 . S
H239 C247 0.930 . S
H240 C250 0.930 . S
H241 C251 0.930 . S
C242 H236 0.930 . S
C242 C243 1.355 . S
C242 C244 1.415 . S
C243 C242 1.355 . S
C243 C245 1.419 1_554 S
C244 C242 1.415 . S
C244 C249 1.425 1_554 S
C244 C251 1.409 . S
C245 H237 0.930 . S
C245 C243 1.419 1_556 S
C245 C246 1.362 . S
C246 H238 0.930 . S
C246 C245 1.362 . S
C246 C249 1.409 . S
C247 H239 0.930 . S
C247 C248 1.355 1_556 S
C247 C249 1.415 . S
C248 C247 1.355 1_554 S
C248 C250 1.419 . S
C249 C244 1.425 1_556 S
C249 C246 1.409 . S
C249 C247 1.415 . S
C250 H240 0.930 . S
C250 C248 1.419 . S
C250 C251 1.362 . S
C251 H241 0.930 . S
C251 C244 1.409 . S
C251 C250 1.362 . S
H252 C258 0.930 . S
H253 C261 0.930 . S
H254 C262 0.930 . S
H255 C263 0.930 . S
H256 C266 0.930 . S
H257 C267 0.930 . S
C258 H252 0.930 . S
C258 C259 1.355 . S
C258 C260 1.415 . S
C259 C258 1.355 . S
C259 C261 1.419 . S
C260 C258 1.415 . S
C260 C265 1.425 . S
C260 C267 1.409 . S
C261 H253 0.930 . S
C261 C259 1.419 . S
C261 C262 1.362 . S
C262 H254 0.930 . S
C262 C261 1.362 . S
C262 C265 1.409 . S
C263 H255 0.930 . S
C263 C264 1.355 . S
C263 C265 1.415 . S
C264 C263 1.355 . S
C264 C266 1.419 . S
C265 C260 1.425 . S
C265 C262 1.409 . S
C265 C263 1.415 . S
C266 H256 0.930 . S
C266 C264 1.419 . S
C266 C267 1.362 . S
C267 H257 0.930 . S
C267 C260 1.409 . S
C267 C266 1.362 . S
H268 C274 0.930 1_565 S
H269 C277 0.930 . S
H270 C278 0.930 1_655 S
H271 C279 0.930 . S
H272 C282 0.930 . S
H273 C283 0.930 1_455 S
C274 H268 0.930 1_545 S
C274 C275 1.355 1_554 S
C274 C276 1.415 1_545 S
C275 C274 1.355 1_556 S
C275 C277 1.419 . S
C276 C274 1.415 1_565 S
C276 C281 1.425 1_464 S
C276 C283 1.409 1_455 S
C277 H269 0.930 . S
C277 C275 1.419 . S
C277 C278 1.362 . S
C278 H270 0.930 1_455 S
C278 C277 1.362 . S
C278 C281 1.409 1_455 S
C279 H271 0.930 . S
C279 C280 1.355 1_546 S
C279 C281 1.415 . S
C280 C279 1.355 1_564 S
C280 C282 1.419 . S
C281 C276 1.425 1_646 S
C281 C278 1.409 1_655 S
C281 C279 1.415 . S
C282 H272 0.930 . S
C282 C280 1.419 . S
C282 C283 1.362 . S
C283 H273 0.930 1_655 S
C283 C276 1.409 1_655 S
C283 C282 1.362 . S
H284 C290 0.938 . S
H285 C293 0.930 . S
H286 C294 0.930 . S
H287 C295 0.930 . S
H288 C298 0.930 . S
H289 C299 0.930 1_655 S
C290 H284 0.938 . S
C290 C291 1.343 1_565 S
C290 C292 1.418 . S
C291 C290 1.343 1_545 S
C291 C293 1.419 . S
C292 C290 1.418 . S
C292 C297 1.425 1_665 S
C292 C299 1.409 1_655 S
C293 H285 0.930 . S
C293 C291 1.419 . S
C293 C294 1.362 1_655 S
C294 H286 0.930 . S
C294 C293 1.362 1_455 S
C294 C297 1.409 . S
C295 H287 0.930 . S
C295 C296 1.355 1_545 S
C295 C297 1.415 . S
C296 C295 1.355 1_565 S
C296 C298 1.419 . S
C297 C292 1.425 1_445 S
C297 C294 1.409 . S
C297 C295 1.415 . S
C298 H288 0.930 . S
C298 C296 1.419 . S
C298 C299 1.362 . S
C299 H289 0.930 1_455 S
C299 C292 1.409 1_455 S
C299 C298 1.362 . S
H300 C306 0.930 . S
H301 C309 0.930 . S
H302 C310 0.930 . S
H303 C311 0.930 . S
H304 C314 0.930 . S
H305 C315 0.930 . S
C306 H300 0.930 . S
C306 C307 1.355 . S
C306 C308 1.415 . S
C307 C306 1.355 . S
C307 C309 1.419 . S
C308 C306 1.415 . S
C308 C313 1.425 . S
C308 C315 1.409 . S
C309 H301 0.930 . S
C309 C307 1.419 . S
C309 C310 1.362 . S
C310 H302 0.930 . S
C310 C309 1.362 . S
C310 C313 1.409 . S
C311 H303 0.930 . S
C311 C312 1.355 . S
C311 C313 1.415 . S
C312 C311 1.355 . S
C312 C314 1.419 . S
C313 C308 1.425 . S
C313 C310 1.409 . S
C313 C311 1.415 . S
C314 H304 0.930 . S
C314 C312 1.419 . S
C314 C315 1.362 . S
C315 H305 0.930 . S
C315 C308 1.409 . S
C315 C314 1.362 . S
H316 C322 0.930 . S
H317 C325 0.930 . S
H318 C326 0.930 . S
H319 C327 0.930 . S
H320 C330 0.930 . S
H321 C331 0.930 . S
C322 H316 0.930 . S
C322 C323 1.355 . S
C322 C324 1.415 . S
C323 C322 1.355 . S
C323 C325 1.419 . S
C324 C322 1.415 . S
C324 C329 1.425 . S
C324 C331 1.409 . S
C325 H317 0.930 . S
C325 C323 1.419 . S
C325 C326 1.362 . S
C326 H318 0.930 . S
C326 C325 1.362 . S
C326 C329 1.409 . S
C327 H319 0.930 . S
C327 C328 1.355 . S
C327 C329 1.415 . S
C328 C327 1.355 . S
C328 C330 1.419 . S
C329 C324 1.425 . S
C329 C326 1.409 . S
C329 C327 1.415 . S
C330 H320 0.930 . S
C330 C328 1.419 . S
C330 C331 1.362 . S
C331 H321 0.930 . S
C331 C324 1.409 . S
C331 C330 1.362 . S
H332 C338 0.930 . S
H333 C341 0.930 . S
H334 C342 0.930 . S
H335 C343 0.930 . S
H336 C346 0.930 . S
H337 C347 0.930 . S
C338 H332 0.930 . S
C338 C339 1.355 . S
C338 C340 1.415 . S
C339 C338 1.355 . S
C339 C341 1.419 . S
C340 C338 1.415 . S
C340 C345 1.425 . S
C340 C347 1.409 . S
C341 H333 0.930 . S
C341 C339 1.419 . S
C341 C342 1.362 . S
C342 H334 0.930 . S
C342 C341 1.362 . S
C342 C345 1.409 . S
C343 H335 0.930 . S
C343 C344 1.355 . S
C343 C345 1.415 . S
C344 C343 1.355 . S
C344 C346 1.419 . S
C345 C340 1.425 . S
C345 C342 1.409 . S
C345 C343 1.415 . S
C346 H336 0.930 . S
C346 C344 1.419 . S
C346 C347 1.362 . S
C347 H337 0.930 . S
C347 C340 1.409 . S
C347 C346 1.362 . S
H348 C354 0.930 . S
H349 C357 0.930 . S
H350 C358 0.930 . S
H351 C359 0.930 . S
H352 C362 0.930 . S
H353 C363 0.930 . S
C354 H348 0.930 . S
C354 C355 1.355 . S
C354 C356 1.415 . S
C355 C354 1.355 . S
C355 C357 1.419 . S
C356 C354 1.415 . S
C356 C361 1.425 . S
C356 C363 1.409 . S
C357 H349 0.930 . S
C357 C355 1.419 . S
C357 C358 1.362 . S
C358 H350 0.930 . S
C358 C357 1.362 . S
C358 C361 1.409 . S
C359 H351 0.930 . S
C359 C360 1.355 . S
C359 C361 1.415 . S
C360 C359 1.355 . S
C360 C362 1.419 . S
C361 C356 1.425 . S
C361 C358 1.409 . S
C361 C359 1.415 . S
C362 H352 0.930 . S
C362 C360 1.419 . S
C362 C363 1.362 . S
C363 H353 0.930 . S
C363 C356 1.409 . S
C363 C362 1.362 . S
H364 C370 0.930 . S
H365 C373 0.930 . S
H366 C374 0.930 . S
H367 C375 0.930 . S
H368 C378 0.930 . S
H369 C379 0.930 . S
C370 H364 0.930 . S
C370 C371 1.355 . S
C370 C372 1.415 1_455 S
C371 C370 1.355 . S
C371 C373 1.419 . S
C372 C370 1.415 1_655 S
C372 C377 1.425 1_655 S
C372 C379 1.409 . S
C373 H365 0.930 . S
C373 C371 1.419 . S
C373 C374 1.362 . S
C374 H366 0.930 . S
C374 C373 1.362 . S
C374 C377 1.409 . S
C375 H367 0.930 . S
C375 C376 1.355 . S
C375 C377 1.415 1_655 S
C376 C375 1.355 . S
C376 C378 1.419 . S
C377 C372 1.425 1_455 S
C377 C374 1.409 . S
C377 C375 1.415 1_455 S
C378 H368 0.930 . S
C378 C376 1.419 . S
C378 C379 1.362 . S
C379 H369 0.930 . S
C379 C372 1.409 . S
C379 C378 1.362 . S
H380 C386 0.930 . S
H381 C389 0.930 . S
H382 C390 0.930 . S
H383 C391 0.930 . S
H384 C394 0.930 . S
H385 C395 0.930 . S
C386 H380 0.930 . S
C386 C387 1.355 . S
C386 C388 1.415 1_655 S
C387 C386 1.355 . S
C387 C389 1.419 . S
C388 C386 1.415 1_455 S
C388 C393 1.425 1_455 S
C388 C395 1.409 . S
C389 H381 0.930 . S
C389 C387 1.419 . S
C389 C390 1.362 . S
C390 H382 0.930 . S
C390 C389 1.362 . S
C390 C393 1.409 . S
C391 H383 0.930 . S
C391 C392 1.355 . S
C391 C393 1.415 1_455 S
C392 C391 1.355 . S
C392 C394 1.419 . S
C393 C388 1.425 1_655 S
C393 C390 1.409 . S
C393 C391 1.415 1_655 S
C394 H384 0.930 . S
C394 C392 1.419 . S
C394 C395 1.362 . S
C395 H385 0.930 . S
C395 C388 1.409 . S
C395 C394 1.362 . S
H396 C402 0.930 . S
H397 C405 0.930 . S
H398 C406 0.930 . S
H399 C407 0.930 . S
H400 C410 0.930 . S
H401 C411 0.930 . S
C402 H396 0.930 . S
C402 C403 1.355 . S
C402 C404 1.415 1_455 S
C403 C402 1.355 . S
C403 C405 1.419 . S
C404 C402 1.415 1_655 S
C404 C409 1.425 1_655 S
C404 C411 1.409 . S
C405 H397 0.930 . S
C405 C403 1.419 . S
C405 C406 1.362 . S
C406 H398 0.930 . S
C406 C405 1.362 . S
C406 C409 1.409 . S
C407 H399 0.930 . S
C407 C408 1.355 . S
C407 C409 1.415 1_655 S
C408 C407 1.355 . S
C408 C410 1.419 . S
C409 C404 1.425 1_455 S
C409 C406 1.409 . S
C409 C407 1.415 1_455 S
C410 H400 0.930 . S
C410 C408 1.419 . S
C410 C411 1.362 . S
C411 H401 0.930 . S
C411 C404 1.409 . S
C411 C410 1.362 . S
H412 C418 0.930 . S
H413 C421 0.930 . S
H414 C422 0.930 . S
H415 C423 0.930 . S
H416 C426 0.930 . S
H417 C427 0.930 . S
C418 H412 0.930 . S
C418 C419 1.355 . S
C418 C420 1.415 1_455 S
C419 C418 1.355 . S
C419 C421 1.419 . S
C420 C418 1.415 1_655 S
C420 C425 1.425 1_655 S
C420 C427 1.409 . S
C421 H413 0.930 . S
C421 C419 1.419 . S
C421 C422 1.362 . S
C422 H414 0.930 . S
C422 C421 1.362 . S
C422 C425 1.409 . S
C423 H415 0.930 . S
C423 C424 1.355 . S
C423 C425 1.415 1_655 S
C424 C423 1.355 . S
C424 C426 1.419 . S
C425 C420 1.425 1_455 S
C425 C422 1.409 . S
C425 C423 1.415 1_455 S
C426 H416 0.930 . S
C426 C424 1.419 . S
C426 C427 1.362 . S
C427 H417 0.930 . S
C427 C420 1.409 . S
C427 C426 1.362 . S
C179 N8 0.227 1_554 S
C184 N3 0.427 1_556 S
C195 N51 0.419 1_554 S
C200 N46 0.627 1_556 S
C211 N89 0.498 . S
C216 N94 0.318 . S
C227 N137 0.649 . S
C232 N132 0.398 . S
C243 C70 1.686 . S
C248 C40 1.682 . S
C259 C162 1.648 . S
C264 C113 1.659 . S
C275 C27 1.606 1_556 S
C280 C83 1.595 . S
C291 C161 1.578 . S
C296 C126 1.569 . S
C307 C168 1.738 . S
C312 C13 1.696 . S
C323 C76 1.492 . S
C328 C119 1.510 . S
C339 C125 1.604 . S
C344 C82 1.570 . S
C355 C32 1.637 . S
C360 C156 1.674 . S
C371 C99 1.733 . S
C376 C56 1.720 . S
C387 C169 1.591 . S
C392 C33 1.582 . S
C403 C39 1.587 . S
C408 C142 1.602 . S
C419 C118 1.649 . S
C424 C75 1.670 . S
