# Generated by pormake.
# Topology smu, (6)-cn, num edge types: 1
# Building blocks:
#     Node 0, Type 0, BuildingBlock: UKALOJ_clean_sbu_0, # of connection points: 6
#     Node 1, Type 0, BuildingBlock: UKALOJ_clean_sbu_0, # of connection points: 6
#     Node 2, Type 0, BuildingBlock: UKALOJ_clean_sbu_0, # of connection points: 6
#     Node 3, Type 0, BuildingBlock: UKALOJ_clean_sbu_0, # of connection points: 6
#     Node 4, Type 0, BuildingBlock: UKALOJ_clean_sbu_0, # of connection points: 6
#     Node 5, Type 0, BuildingBlock: UKALOJ_clean_sbu_0, # of connection points: 6
#     Edge 6, Type (0, 0), BuildingBlock: ZUJKAS_clean_linker_0, # of connection points: 2
#     Edge 7, Type (0, 0), BuildingBlock: ZUJKAS_clean_linker_0, # of connection points: 2
#     Edge 8, Type (0, 0), BuildingBlock: ZUJKAS_clean_linker_0, # of connection points: 2
#     Edge 9, Type (0, 0), BuildingBlock: ZUJKAS_clean_linker_0, # of connection points: 2
#     Edge 10, Type (0, 0), BuildingBlock: ZUJKAS_clean_linker_0, # of connection points: 2
#     Edge 11, Type (0, 0), BuildingBlock: ZUJKAS_clean_linker_0, # of connection points: 2
#     Edge 12, Type (0, 0), BuildingBlock: ZUJKAS_clean_linker_0, # of connection points: 2
#     Edge 13, Type (0, 0), BuildingBlock: ZUJKAS_clean_linker_0, # of connection points: 2
#     Edge 14, Type (0, 0), BuildingBlock: ZUJKAS_clean_linker_0, # of connection points: 2
#     Edge 15, Type (0, 0), BuildingBlock: ZUJKAS_clean_linker_0, # of connection points: 2
#     Edge 16, Type (0, 0), BuildingBlock: ZUJKAS_clean_linker_0, # of connection points: 2
#     Edge 17, Type (0, 0), BuildingBlock: ZUJKAS_clean_linker_0, # of connection points: 2
#     Edge 18, Type (0, 0), BuildingBlock: ZUJKAS_clean_linker_0, # of connection points: 2
#     Edge 19, Type (0, 0), BuildingBlock: ZUJKAS_clean_linker_0, # of connection points: 2
#     Edge 20, Type (0, 0), BuildingBlock: ZUJKAS_clean_linker_0, # of connection points: 2
#     Edge 21, Type (0, 0), BuildingBlock: ZUJKAS_clean_linker_0, # of connection points: 2
#     Edge 22, Type (0, 0), BuildingBlock: ZUJKAS_clean_linker_0, # of connection points: 2
#     Edge 23, Type (0, 0), BuildingBlock: ZUJKAS_clean_linker_0, # of connection points: 2
# Relax obj value: 0.200
# Max RMSD: 0.232
# Mean RMSD: 0.232
data_MOF--net-smu--node1-UKALOJ_clean_sbu_0--edge1-ZUJKAS_clean_linker_0
_symmetry_space_group_name_H-M    P1
_symmetry_Int_Tables_number       1
_symmetry_cell_setting            triclinic
loop_
_symmetry_equiv_pos_as_xyz
'x, y, z'
_cell_length_a     35.463053
_cell_length_b     35.387971
_cell_length_c     48.831179
_cell_angle_alpha  89.921118
_cell_angle_beta   90.060997
_cell_angle_gamma 119.88064
loop_
_atom_site_label
_atom_site_type_symbol
_atom_site_fract_x
_atom_site_fract_y
_atom_site_fract_z
_atom_type_partial_charge
Zn0 Zn 0.33454 0.06102 0.28931 0.0
O1 O 0.28784 0.07994 0.29555 0.0
C2 C 0.26574 0.97255 0.27422 0.0
Zn3 Zn 0.32345 0.05524 0.24407 0.0
C4 C 0.26825 0.08363 0.27484 0.0
O5 O 0.27622 0.07423 0.25121 0.0
C6 C 0.39289 0.03682 0.25881 0.0
O7 O 0.36968 0.12107 0.23794 0.0
O8 O 0.38121 0.12765 0.28236 0.0
N9 N 0.30669 0.04713 0.20338 0.0
C10 C 0.32838 0.05077 0.17993 0.0
C11 C 0.26256 0.02956 0.16916 0.0
N12 N 0.26586 0.03404 0.19656 0.0
N13 N 0.30128 0.03965 0.15816 0.0
C14 C 0.32615 0.04983 0.353 0.0
C15 C 0.39141 0.09167 0.36602 0.0
N16 N 0.35001 0.06847 0.33032 0.0
N17 N 0.39052 0.09458 0.33852 0.0
N18 N 0.35144 0.06357 0.37563 0.0
H19 H 0.26248 0.02584 0.33515 0.0
H20 H 0.26344 0.02446 0.37215 0.0
H21 H 0.27106 0.98587 0.35255 0.0
C22 C 0.27791 0.02001 0.35315 0.0
C23 C 0.37625 0.06737 0.17836 0.0
H24 H 0.39345 0.0899 0.19555 0.0
H25 H 0.38964 0.08442 0.15863 0.0
H26 H 0.38196 0.03934 0.17969 0.0
O27 O 0.3719 0.03797 0.238 0.0
O28 O 0.38251 0.04362 0.28246 0.0
C29 C 0.38891 0.14474 0.25859 0.0
O30 O 0.28641 0.99477 0.29506 0.0
O31 O 0.27621 0.98982 0.25063 0.0
Zn32 Zn 0.72661 0.67446 0.24321 0.0
O33 O 0.74769 0.62921 0.2362 0.0
C34 C 0.63973 0.60248 0.25788 0.0
Zn35 Zn 0.72152 0.66193 0.28827 0.0
C36 C 0.75298 0.61004 0.25667 0.0
O37 O 0.74341 0.61698 0.28058 0.0
C38 C 0.69954 0.72971 0.27474 0.0
O39 O 0.78653 0.71019 0.2942 0.0
O40 O 0.79237 0.72268 0.24991 0.0
N41 N 0.71434 0.64623 0.32922 0.0
C42 C 0.72514 0.67055 0.35226 0.0
C43 C 0.68751 0.604 0.3643 0.0
N44 N 0.69129 0.60492 0.33684 0.0
N45 N 0.70854 0.64474 0.37459 0.0
C46 C 0.72028 0.66996 0.17873 0.0
C47 C 0.74544 0.73725 0.16964 0.0
N48 N 0.73279 0.69192 0.20268 0.0
N49 N 0.74868 0.73369 0.19684 0.0
N50 N 0.72772 0.69777 0.15771 0.0
H51 H 0.68922 0.60515 0.19634 0.0
H52 H 0.72168 0.61274 0.16653 0.0
H53 H 0.66969 0.6092 0.16269 0.0
C54 C 0.69869 0.6214 0.17614 0.0
C55 C 0.74979 0.71943 0.3528 0.0
H56 H 0.753 0.73367 0.33223 0.0
H57 H 0.78308 0.73074 0.36065 0.0
H58 H 0.73362 0.73172 0.36674 0.0
O59 O 0.70099 0.70795 0.29499 0.0
O60 O 0.70719 0.72088 0.25092 0.0
C61 C 0.80964 0.73044 0.27359 0.0
O62 O 0.66127 0.62496 0.23734 0.0
O63 O 0.6569 0.6123 0.28153 0.0
Zn64 Zn 0.93287 0.27465 0.29033 0.0
O65 O 0.91348 0.20874 0.29655 0.0
C66 C 0.02085 0.29324 0.27539 0.0
Zn67 Zn 0.93804 0.26816 0.24517 0.0
C68 C 0.9092 0.1848 0.27611 0.0
O69 O 0.91869 0.20165 0.25232 0.0
C70 C 0.95658 0.35677 0.25952 0.0
O71 O 0.87254 0.24902 0.23892 0.0
O72 O 0.8666 0.25541 0.28329 0.0
N73 N 0.94696 0.25984 0.2046 0.0
C74 C 0.94227 0.2767 0.18086 0.0
C75 C 0.97216 0.23888 0.17132 0.0
N76 N 0.9652 0.23612 0.1985 0.0
N77 N 0.95805 0.2641 0.15972 0.0
C78 C 0.94364 0.27588 0.35395 0.0
C79 C 0.90394 0.30175 0.36734 0.0
N80 N 0.92568 0.28257 0.3314 0.0
N81 N 0.90089 0.2985 0.33982 0.0
N82 N 0.93082 0.28803 0.37674 0.0
H83 H 0.96581 0.23486 0.33549 0.0
H84 H 0.96635 0.23557 0.37249 0.0
H85 H 0.00642 0.28171 0.35355 0.0
C86 C 0.97192 0.25552 0.35378 0.0
C87 C 0.92623 0.30853 0.17886 0.0
H88 H 0.90559 0.30545 0.19669 0.0
H89 H 0.90739 0.30348 0.15978 0.0
H90 H 0.95465 0.342 0.17827 0.0
O91 O 0.95539 0.33411 0.23898 0.0
O92 O 0.95027 0.34022 0.28336 0.0
C93 C 0.84927 0.24548 0.25961 0.0
O94 O -0.00105 0.29226 0.29624 0.0
O95 O 0.00327 0.28597 0.2519 0.0
Zn96 Zn 0.05416 0.32303 0.78881 0.0
O97 O 0.11997 0.36972 0.79453 0.0
C98 C 0.03498 0.39297 0.77643 0.0
Zn99 Zn 0.05895 0.33615 0.74383 0.0
C100 C 0.14294 0.39004 0.77384 0.0
O101 O 0.12526 0.3831 0.75028 0.0
C102 C 0.97124 0.26614 0.75884 0.0
O103 O 0.07834 0.29003 0.73584 0.0
O104 O 0.07373 0.27656 0.77997 0.0
N105 N 0.06429 0.35305 0.70319 0.0
C106 C 0.05157 0.32965 0.67977 0.0
C107 C 0.07566 0.39619 0.66905 0.0
N108 N 0.07949 0.39437 0.69638 0.0
N109 N 0.05832 0.35605 0.65804 0.0
C110 C 0.05036 0.32559 0.85305 0.0
C111 C 0.02981 0.25943 0.86284 0.0
N112 N 0.04709 0.30479 0.82926 0.0
N113 N 0.03445 0.26375 0.83547 0.0
N114 N 0.03934 0.2977 0.87443 0.0
H115 H 0.08927 0.39142 0.83841 0.0
H116 H 0.0831 0.3862 0.87525 0.0
H117 H 0.03836 0.3789 0.85408 0.0
C118 C 0.06649 0.37341 0.85534 0.0
C119 C 0.03048 0.28096 0.67835 0.0
H120 H 0.01888 0.26559 0.6986 0.0
H121 H 0.05467 0.27217 0.67095 0.0
H122 H 0.0029 0.26768 0.66369 0.0
O123 O 0.99313 0.28829 0.73834 0.0
O124 O 0.98867 0.27519 0.78243 0.0
C125 C 0.08292 0.26985 0.75594 0.0
O126 O 0.03656 0.37112 0.79665 0.0
O127 O 0.04127 0.3835 0.75242 0.0
Zn128 Zn 0.26619 0.94032 0.78785 0.0
O129 O 0.24685 0.87446 0.79408 0.0
C130 C 0.35402 0.95794 0.77328 0.0
Zn131 Zn 0.27184 0.93439 0.74269 0.0
C132 C 0.24252 0.85073 0.77347 0.0
O133 O 0.25188 0.86776 0.74969 0.0
C134 C 0.29123 0.0231 0.75751 0.0
O135 O 0.20636 0.91589 0.73638 0.0
O136 O 0.20002 0.92131 0.78069 0.0
N137 N 0.27968 0.92683 0.7017 0.0
C138 C 0.27408 0.94529 0.679 0.0
C139 C 0.29751 0.90327 0.66601 0.0
N140 N 0.2941 0.90062 0.69353 0.0
N141 N 0.28538 0.93131 0.65638 0.0
C142 C 0.27565 0.94474 0.852 0.0
C143 C 0.2312 0.96628 0.86272 0.0
N144 N 0.25767 0.94856 0.82853 0.0
N145 N 0.23003 0.96186 0.83532 0.0
N146 N 0.25972 0.95595 0.87376 0.0
H147 H 0.30166 0.90551 0.83634 0.0
H148 H 0.30297 0.91056 0.87329 0.0
H149 H 0.34046 0.95578 0.85249 0.0
C150 C 0.3068 0.92787 0.85362 0.0
C151 C 0.25545 0.9751 0.67883 0.0
H152 H 0.23598 0.97013 0.65999 0.0
H153 H 0.2825 0.00926 0.67897 0.0
H154 H 0.23478 0.96976 0.69701 0.0
O155 O 0.29019 0.0008 0.73684 0.0
O156 O 0.284 0.00586 0.78115 0.0
C157 C 0.18289 0.91201 0.75699 0.0
O158 O 0.33202 0.95747 0.79397 0.0
O159 O 0.33694 0.9511 0.7496 0.0
Zn160 Zn 0.66008 0.72277 0.74069 0.0
O161 O 0.70787 0.7878 0.7341 0.0
C162 C 0.72754 0.70092 0.75476 0.0
Zn163 Zn 0.67226 0.72839 0.78579 0.0
C164 C 0.72801 0.81131 0.75459 0.0
O165 O 0.72033 0.79432 0.77836 0.0
C166 C 0.60077 0.64114 0.77173 0.0
O167 O 0.62726 0.74952 0.79252 0.0
O168 O 0.615 0.74463 0.74813 0.0
N169 N 0.69037 0.73613 0.82623 0.0
C170 C 0.66908 0.71945 0.85002 0.0
C171 C 0.73688 0.75436 0.85916 0.0
N172 N 0.73242 0.75808 0.83209 0.0
N173 N 0.69764 0.73035 0.87092 0.0
C174 C 0.66804 0.72605 0.67665 0.0
C175 C 0.60169 0.68671 0.66491 0.0
N176 N 0.644 0.71453 0.69982 0.0
N177 N 0.6028 0.69035 0.69238 0.0
N178 N 0.64217 0.70891 0.65444 0.0
H179 H 0.73131 0.7539 0.6962 0.0
H180 H 0.72701 0.78575 0.66926 0.0
H181 H 0.72962 0.73765 0.66093 0.0
C182 C 0.71677 0.752 0.67589 0.0
C183 C 0.62106 0.68942 0.85232 0.0
H184 H 0.60373 0.69405 0.83488 0.0
H185 H 0.60855 0.69497 0.8718 0.0
H186 H 0.61443 0.6553 0.85236 0.0
O187 O 0.62277 0.66308 0.79229 0.0
O188 O 0.61091 0.65802 0.74799 0.0
C189 C 0.6081 0.75452 0.77197 0.0
O190 O 0.70629 0.70249 0.73427 0.0
O191 O 0.71834 0.70866 0.77845 0.0
H192 H 0.20418 0.93188 0.91602 0.0
H193 H 0.22255 0.94597 0.96469 0.0
H194 H 0.35872 0.00335 0.94499 0.0
H195 H 0.34039 0.99029 0.89616 0.0
H196 H 0.26906 0.92065 1.00047 0.0
H197 H 0.35066 0.10052 0.98659 0.0
H198 H 0.31665 0.06283 0.96049 0.0
H199 H 0.37073 0.07227 0.96598 0.0
C200 C 0.23796 0.94699 0.92217 0.0
C201 C 0.27077 0.95943 0.90238 0.0
C202 C 0.24844 0.95496 0.94992 0.0
C203 C 0.29201 0.97603 0.95844 0.0
C204 C 0.32489 0.98736 0.93883 0.0
H205 H 0.34748 0.0049 0.13591 0.0
H206 H 0.35275 0.99169 0.08712 0.0
C207 C 0.31437 0.97929 0.91098 0.0
C208 C 0.30252 0.98778 0.98772 0.0
H209 H 0.34567 0.07456 0.03152 0.0
C210 C 0.28632 0.95427 1.0073 0.0
C211 C 0.32466 0.03172 0.99651 0.0
C212 C 0.34148 0.06904 0.9764 0.0
C213 C 0.29065 0.96349 0.03548 0.0
C214 C 0.31225 0.00744 0.04427 0.0
C215 C 0.32945 0.04094 0.02469 0.0
C216 C 0.3134 0.0192 0.07355 0.0
C217 C 0.27025 0.92617 0.05559 0.0
C218 C 0.29091 0.04042 0.08198 0.0
C219 C 0.28841 0.04848 0.10971 0.0
C220 C 0.30877 0.036 0.12956 0.0
C221 C 0.33247 0.01595 0.12104 0.0
C222 C 0.33493 0.00779 0.09322 0.0
H223 H 0.24808 0.89471 0.04539 0.0
H224 H 0.29624 0.92286 0.06606 0.0
H225 H 0.25163 0.93245 0.07146 0.0
H226 H 0.27405 0.04948 0.06715 0.0
H227 H 0.26976 0.06373 0.11579 0.0
H228 H 0.60733 0.63936 0.6211 0.0
H229 H 0.62547 0.63674 0.57296 0.0
H230 H 0.72031 0.77367 0.57547 0.0
H231 H 0.70154 0.77669 0.62357 0.0
H232 H 0.63504 0.71633 0.52776 0.0
H233 H 0.76949 0.68066 0.54569 0.0
H234 H 0.72353 0.65893 0.5687 0.0
H235 H 0.76104 0.71636 0.56812 0.0
C236 C 0.63204 0.66889 0.61137 0.0
C237 C 0.65362 0.70802 0.62623 0.0
C238 C 0.64243 0.66732 0.58397 0.0
C239 C 0.67446 0.7049 0.57087 0.0
C240 C 0.69583 0.74424 0.58543 0.0
H241 H 0.7739 0.70642 0.40589 0.0
H242 H 0.76798 0.72653 0.45311 0.0
C243 C 0.6854 0.74583 0.61293 0.0
C244 C 0.68458 0.70273 0.54175 0.0
H245 H 0.74579 0.67705 0.50012 0.0
C246 C 0.65955 0.70822 0.52161 0.0
C247 C 0.71676 0.69249 0.53396 0.0
C248 C 0.74452 0.68676 0.55511 0.0
C249 C 0.66512 0.70257 0.49374 0.0
C250 C 0.69588 0.69016 0.48593 0.0
C251 C 0.72206 0.68631 0.5061 0.0
C252 C 0.69967 0.67878 0.45718 0.0
C253 C 0.63789 0.70986 0.47293 0.0
C254 C 0.66357 0.64475 0.44398 0.0
C255 C 0.66678 0.63372 0.41698 0.0
C256 C 0.70619 0.65635 0.40257 0.0
C257 C 0.74273 0.68956 0.41606 0.0
C258 C 0.73948 0.70071 0.44314 0.0
H259 H 0.62674 0.73201 0.48096 0.0
H260 H 0.65623 0.72385 0.45366 0.0
H261 H 0.60858 0.6782 0.46808 0.0
H262 H 0.63285 0.6265 0.45462 0.0
H263 H 0.63825 0.60769 0.40718 0.0
H264 H 0.897 0.25485 0.12282 0.0
H265 H 0.90824 0.26992 0.07337 0.0
H266 H 0.04521 0.31604 0.08368 0.0
H267 H 0.03399 0.30182 0.133 0.0
H268 H 0.02629 0.36693 0.04631 0.0
H269 H 0.93256 0.18895 0.02459 0.0
H270 H 0.90472 0.21074 0.04401 0.0
H271 H 0.95093 0.21015 0.05858 0.0
C272 C 0.92958 0.26945 0.11453 0.0
C273 C 0.96479 0.27779 0.13158 0.0
C274 C 0.93594 0.27756 0.08633 0.0
C275 C 0.97753 0.29376 0.07485 0.0
C276 C 0.0129 0.30366 0.0921 0.0
H277 H 0.06195 0.26418 0.91646 0.0
H278 H 0.04697 0.2671 0.96515 0.0
C279 C 0.00652 0.29546 0.12018 0.0
C280 C 0.98413 0.29737 0.04475 0.0
H281 H 0.96311 0.23586 0.98694 0.0
C282 C 0.01216 0.33839 0.03322 0.0
C283 C 0.9661 0.25995 0.02785 0.0
C284 C 0.93715 0.21485 0.03929 0.0
C285 C 0.02304 0.34289 1.00525 0.0
C286 C 0.00521 0.3054 0.98844 0.0
C287 C 0.97665 0.26454 0.9999 0.0
C288 C 0.01736 0.30719 0.9592 0.0
C289 C 0.05471 0.38739 0.99409 0.0
C290 C 0.00598 0.32902 0.93973 0.0
C291 C 0.01462 0.3274 0.9119 0.0
C292 C 0.03488 0.30401 0.90313 0.0
C293 C 0.0467 0.28273 0.92274 0.0
C294 C 0.0381 0.28434 0.95048 0.0
H295 H 0.07179 0.41145 1.01067 0.0
H296 H 0.07931 0.38578 0.98085 0.0
H297 H 0.03683 0.39933 0.98138 0.0
H298 H 0.98905 0.34598 0.94594 0.0
H299 H 0.00365 0.34272 0.89719 0.0
H300 H 0.37722 0.1152 0.42017 0.0
H301 H 0.36245 0.09195 0.46833 0.0
H302 H 0.28757 0.95795 0.44248 0.0
H303 H 0.30314 0.98101 0.39457 0.0
H304 H 0.27904 0.04032 0.49586 0.0
H305 H 0.38029 0.96074 0.49568 0.0
H306 H 0.38492 -0.00098 0.46958 0.0
H307 H 0.34049 0.94391 0.46881 0.0
C308 C 0.35742 0.08086 0.42489 0.0
C309 C 0.34059 0.04998 0.4037 0.0
C310 C 0.34894 0.06763 0.45229 0.0
C311 C 0.32411 0.02323 0.45894 0.0
C312 C 0.30699 0.99235 0.43779 0.0
H313 H 0.25862 0.8787 0.61234 0.0
H314 H 0.26511 0.90071 0.56407 0.0
C315 C 0.31535 0.00559 0.41042 0.0
C316 C 0.31674 0.0091 0.48798 0.0
H317 H 0.33903 0.9521 0.53553 0.0
C318 C 0.29219 0.0211 0.5046 0.0
C319 C 0.33387 0.98395 0.49925 0.0
C320 C 0.36168 0.97136 0.48254 0.0
C321 C 0.28371 0.00803 0.53217 0.0
C322 C 0.3011 0.9831 0.54351 0.0
C323 C 0.3256 0.97108 0.52681 0.0
C324 C 0.29501 0.9697 0.57276 0.0
C325 C 0.25544 0.02025 0.54868 0.0
C326 C 0.30996 0.00111 0.59366 0.0
C327 C 0.30603 0.98851 0.62114 0.0
C328 C 0.28722 0.94427 0.62824 0.0
C329 C 0.27275 0.91292 0.60733 0.0
C330 C 0.27647 0.92549 0.57984 0.0
H331 H 0.23466 0.02775 0.53528 0.0
H332 H 0.23419 0.99368 0.56298 0.0
H333 H 0.27648 0.04982 0.56091 0.0
H334 H 0.32571 0.03548 0.5887 0.0
H335 H 0.31907 0.01344 0.63676 0.0
H336 H 0.72964 0.68435 0.89505 0.0
H337 H 0.7256 0.66584 0.94378 0.0
H338 H 0.64861 0.72727 0.95863 0.0
H339 H 0.65199 0.74477 0.90964 0.0
H340 H 0.7588 0.7232 0.98417 0.0
H341 H 0.58247 0.61753 1.0032 0.0
H342 H 0.60512 0.63014 0.96911 0.0
H343 H 0.59522 0.66839 0.98751 0.0
C344 C 0.71107 0.69289 0.90875 0.0
C345 C 0.69054 0.71528 0.89876 0.0
C346 C 0.70879 0.68244 0.93651 0.0
C347 C 0.68626 0.69456 0.9549 0.0
C348 C 0.6651 0.7164 0.9448 0.0
H349 H 0.6872 0.73071 0.12806 0.0
H350 H 0.67427 0.72399 0.07855 0.0
C351 C 0.66705 0.72649 0.91688 0.0
C352 C 0.68875 0.68819 0.98483 0.0
H353 H 0.62776 0.64746 0.04289 0.0
C354 C 0.7301 0.70606 0.99692 0.0
C355 C 0.65132 0.66591 1.00152 0.0
C356 C 0.60604 0.64402 0.98964 0.0
C357 C 0.7351 0.70353 0.02525 0.0
C358 C 0.69774 0.68218 0.04199 0.0
C359 C 0.65634 0.66368 0.02995 0.0
C360 C 0.70133 0.68179 0.07224 0.0
C361 C 0.78036 0.72517 0.03723 0.0
C362 C 0.71996 0.65948 0.08517 0.0
C363 C 0.72727 0.66324 0.11352 0.0
C364 C 0.71598 0.68931 0.12925 0.0
C365 C 0.69613 0.71042 0.11632 0.0
C366 C 0.6886 0.70646 0.08812 0.0
H367 H 0.80544 0.74654 0.02216 0.0
H368 H 0.7825 0.74499 0.05541 0.0
H369 H 0.78799 0.69978 0.044 0.0
H370 H 0.7299 0.64015 0.07324 0.0
H371 H 0.74346 0.64744 0.12287 0.0
H372 H 0.01236 0.31583 0.39583 0.0
H373 H 0.03471 0.32063 0.44363 0.0
H374 H 0.90231 0.27322 0.46943 0.0
H375 H 0.87957 0.2665 0.42136 0.0
H376 H 0.02957 0.3711 0.48276 0.0
H377 H 0.93531 0.19832 0.51526 0.0
H378 H 0.94262 0.21455 0.47972 0.0
H379 H 0.90213 0.21787 0.50008 0.0
C380 C 0.98776 0.30488 0.4116 0.0
C381 C 0.94393 0.28936 0.40483 0.0
C382 C 0.00066 0.3082 0.43897 0.0
C383 C 0.97007 0.29639 0.46015 0.0
C384 C 0.92632 0.28133 0.45346 0.0
H385 H 0.01911 0.38871 0.62673 0.0
H386 H -0.00132 0.37295 0.57845 0.0
C387 C 0.9134 0.27786 0.42605 0.0
C388 C 0.98453 0.30284 0.48919 0.0
H389 H 0.96705 0.25125 0.551 0.0
C390 C 0.01612 0.34479 0.49761 0.0
C391 C 0.96744 0.26841 0.50852 0.0
C392 C 0.93532 0.22216 0.50043 0.0
C393 C 0.03017 0.35353 0.52492 0.0
C394 C 0.01153 0.31959 0.54452 0.0
C395 C 0.98093 0.27733 0.536 0.0
C396 C 0.02267 0.32778 0.57403 0.0
C397 C 0.06507 0.39905 0.53251 0.0
C398 C 0.04189 0.30674 0.58779 0.0
C399 C 0.05343 0.31563 0.61547 0.0
C400 C 0.04544 0.34531 0.62985 0.0
C401 C 0.02576 0.36587 0.61606 0.0
C402 C 0.0142 0.35696 0.58851 0.0
H403 H 0.08441 0.41747 0.51437 0.0
H404 H 0.04962 0.41698 0.5412 0.0
H405 H 0.08751 0.39835 0.54812 0.0
H406 H 0.04878 0.28416 0.57697 0.0
H407 H 0.06955 0.30018 0.62537 0.0
H408 H 0.44366 0.03136 0.29885 0.0
H409 H 0.5215 0.05764 0.29522 0.0
H410 H 0.51549 0.0722 0.20798 0.0
H411 H 0.43755 0.04586 0.21128 0.0
H412 H 0.58163 0.04233 0.23806 0.0
H413 H 0.58523 0.19647 0.26715 0.0
H414 H 0.54837 0.14713 0.28506 0.0
H415 H 0.5394 0.1529 0.24955 0.0
C416 C 0.45845 0.03851 0.27872 0.0
C417 C 0.4346 0.03746 0.25541 0.0
C418 C 0.50292 0.05348 0.27672 0.0
C419 C 0.52399 0.06731 0.25141 0.0
C420 C 0.49954 0.0616 0.22767 0.0
H421 H 0.80101 0.21406 0.21284 0.0
H422 H 0.72176 0.17102 0.20929 0.0
C423 C 0.45497 0.04652 0.22962 0.0
C424 C 0.57165 0.09489 0.25064 0.0
H425 H 0.65244 0.19887 0.26337 0.0
C426 C 0.5973 0.07659 0.2434 0.0
C427 C 0.59155 0.13949 0.25766 0.0
C428 C 0.56494 0.1605 0.2652 0.0
C429 C 0.6429 0.10186 0.24363 0.0
C430 C 0.66282 0.14648 0.25086 0.0
C431 C 0.63696 0.1647 0.25778 0.0
C432 C 0.71052 0.1745 0.2525 0.0
C433 C 0.6694 0.08043 0.23695 0.0
C434 C 0.73015 0.19229 0.27777 0.0
C435 C 0.77531 0.2172 0.27986 0.0
C436 C 0.80161 0.22485 0.25666 0.0
C437 C 0.78168 0.20862 0.23112 0.0
C438 C 0.73646 0.18367 0.22907 0.0
H439 H 0.64945 0.0443 0.23757 0.0
H440 H 0.68307 0.09017 0.21603 0.0
H441 H 0.69696 0.09106 0.25149 0.0
H442 H 0.71052 0.18589 0.29603 0.0
H443 H 0.78961 0.22925 0.29982 0.0
H444 H 0.58707 0.54655 0.29735 0.0
H445 H 0.53559 0.4692 0.29138 0.0
H446 H 0.54967 0.48438 0.20372 0.0
H447 H 0.60216 0.56196 0.20946 0.0
H448 H 0.45853 0.41561 0.26317 0.0
H449 H 0.59842 0.40371 0.22153 0.0
H450 H 0.60512 0.45257 0.23753 0.0
H451 H 0.58451 0.4391 0.20318 0.0
C452 C 0.57841 0.53381 0.27673 0.0
C453 C 0.59947 0.56022 0.25389 0.0
C454 C 0.54894 0.48951 0.27337 0.0
C455 C 0.53991 0.47092 0.24716 0.0
C456 C 0.55713 0.49803 0.22416 0.0
H457 H 0.41373 0.19159 0.2109 0.0
H458 H 0.44917 0.27089 0.20594 0.0
C459 C 0.58682 0.54243 0.22749 0.0
C460 C 0.51674 0.42289 0.24448 0.0
H461 H 0.53278 0.33822 0.2277 0.0
C462 C 0.47454 0.39866 0.25513 0.0
C463 C 0.53796 0.40091 0.23418 0.0
C464 C 0.58411 0.42525 0.22364 0.0
C465 C 0.4532 0.35299 0.25616 0.0
C466 C 0.4749 0.3312 0.24657 0.0
C467 C 0.51643 0.35523 0.23505 0.0
C468 C 0.45574 0.28358 0.24948 0.0
C469 C 0.40778 0.32834 0.26777 0.0
C470 C 0.44933 0.26483 0.2756 0.0
C471 C 0.42951 0.21967 0.27853 0.0
C472 C 0.41569 0.19251 0.25536 0.0
C473 C 0.42389 0.21161 0.22916 0.0
C474 C 0.44395 0.25684 0.22626 0.0
H475 H 0.3919 0.3486 0.26807 0.0
H476 H 0.38726 0.29834 0.25572 0.0
H477 H 0.40936 0.31846 0.28913 0.0
H478 H 0.45906 0.28513 0.29373 0.0
H479 H 0.42374 0.20605 0.29899 0.0
H480 H 0.95557 0.39553 0.21108 0.0
H481 H 0.93323 0.45011 0.20498 0.0
H482 H 0.93106 0.4638 0.29263 0.0
H483 H 0.95404 0.41008 0.2989 0.0
H484 H 0.85439 0.43264 0.2233 0.0
H485 H 0.97927 0.58825 0.26845 0.0
H486 H 0.99042 0.5453 0.25938 0.0
H487 H 0.96469 0.54361 0.29151 0.0
C488 C 0.95191 0.4113 0.22904 0.0
C489 C 0.95603 0.39796 0.25549 0.0
C490 C 0.93899 0.44242 0.2255 0.0
C491 C 0.93045 0.46105 0.24833 0.0
C492 C 0.93815 0.4505 0.27467 0.0
H493 H 0.77602 0.5713 0.29661 0.0
H494 H 0.81971 0.53593 0.29147 0.0
C495 C 0.95112 0.4195 0.27823 0.0
C496 C 0.90703 0.48571 0.24504 0.0
H497 H 0.90611 0.57701 0.26646 0.0
C498 C 0.86611 0.46465 0.23221 0.0
C499 C 0.92223 0.52731 0.25681 0.0
C500 C 0.96677 0.55258 0.26956 0.0
C501 C 0.83904 0.48304 0.23209 0.0
C502 C 0.8535 0.52371 0.24493 0.0
C503 C 0.89504 0.54559 0.25683 0.0
C504 C 0.82516 0.54313 0.24743 0.0
C505 C 0.79438 0.45798 0.21943 0.0
C506 C 0.81325 0.55825 0.22427 0.0
C507 C 0.78812 0.5784 0.22709 0.0
C508 C 0.77462 0.58384 0.25317 0.0
C509 C 0.78571 0.56753 0.27622 0.0
C510 C 0.81089 0.54754 0.27337 0.0
H511 H 0.78542 0.42388 0.21444 0.0
H512 H 0.76947 0.4574 0.23345 0.0
H513 H 0.79363 0.47435 0.20021 0.0
H514 H 0.82428 0.55541 0.2041 0.0
H515 H 0.78033 0.59078 0.20893 0.0
H516 H 0.02523 0.44341 0.738 0.0
H517 H 0.05205 0.5215 0.74189 0.0
H518 H 0.07617 0.5165 0.82794 0.0
H519 H 0.04939 0.43832 0.82436 0.0
H520 H 0.04277 0.58225 0.80087 0.0
H521 H 0.19347 0.5863 0.76383 0.0
H522 H 0.14244 0.54883 0.74791 0.0
H523 H 0.15218 0.54058 0.78284 0.0
C524 C 0.03461 0.45848 0.75801 0.0
C525 C 0.03597 0.43479 0.78078 0.0
C526 C 0.0499 0.50311 0.76016 0.0
C527 C 0.06652 0.52454 0.7851 0.0
C528 C 0.0634 0.50029 0.80854 0.0
H529 H 0.21485 0.80336 0.82088 0.0
H530 H 0.1726 0.724 0.82533 0.0
C531 C 0.04798 0.45555 0.80643 0.0
C532 C 0.09394 0.57237 0.78542 0.0
H533 H 0.19593 0.65353 0.76882 0.0
C534 C 0.07632 0.59803 0.79406 0.0
C535 C 0.1376 0.59243 0.77647 0.0
C536 C 0.1579 0.56584 0.76731 0.0
C537 C 0.10125 0.64375 0.79336 0.0
C538 C 0.14491 0.66385 0.78419 0.0
C539 C 0.16251 0.63797 0.77588 0.0
C540 C 0.17246 0.71171 0.78194 0.0
C541 C 0.08032 0.67014 0.80157 0.0
C542 C 0.18801 0.73086 0.75622 0.0
C543 C 0.21252 0.77609 0.75361 0.0
C544 C 0.222 0.80298 0.77673 0.0
C545 C 0.20794 0.78357 0.80265 0.0
C546 C 0.18344 0.73827 0.80522 0.0
H547 H 0.04429 0.64998 0.80221 0.0
H548 H 0.09184 0.68392 0.8223 0.0
H549 H 0.08947 0.69768 0.78716 0.0
H550 H 0.18021 0.7108 0.73803 0.0
H551 H 0.22286 0.78997 0.73336 0.0
H552 H 0.40601 0.95448 0.73338 0.0
H553 H 0.45885 0.93022 0.73913 0.0
H554 H 0.44796 0.9343 0.82688 0.0
H555 H 0.39423 0.95787 0.82135 0.0
H556 H 0.53736 0.95581 0.76648 0.0
H557 H 0.40033 0.80456 0.81084 0.0
H558 H 0.39228 0.84565 0.79439 0.0
H559 H 0.41408 0.85428 0.8285 0.0
C560 C 0.41562 0.9514 0.75396 0.0
C561 C 0.39499 0.95702 0.77693 0.0
C562 C 0.44589 0.9375 0.75719 0.0
C563 C 0.45622 0.92918 0.7834 0.0
C564 C 0.43948 0.93947 0.80644 0.0
H565 H 0.5851 0.77806 0.81977 0.0
H566 H 0.55013 0.8224 0.82482 0.0
C567 C 0.40899 0.95325 0.80324 0.0
C568 C 0.48015 0.90502 0.78615 0.0
H569 H 0.46624 0.80549 0.80407 0.0
C570 C 0.52206 0.92315 0.77499 0.0
C571 C 0.45986 0.86222 0.79707 0.0
C572 C 0.41405 0.84023 0.8082 0.0
C573 C 0.54397 0.89933 0.77405 0.0
C574 C 0.52314 0.85619 0.78424 0.0
C575 C 0.48195 0.83859 0.79627 0.0
C576 C 0.54266 0.828 0.7813 0.0
C577 C 0.58904 0.92026 0.7619 0.0
C578 C 0.54849 0.81529 0.75519 0.0
C579 C 0.56802 0.78967 0.75221 0.0
C580 C 0.58211 0.77638 0.77533 0.0
C581 C 0.57469 0.78785 0.80155 0.0
C582 C 0.55491 0.8133 0.80449 0.0
H583 H 0.60455 0.95635 0.76134 0.0
H584 H 0.61019 0.91127 0.77373 0.0
H585 H 0.58693 0.90854 0.74058 0.0
H586 H 0.53837 0.82562 0.73708 0.0
H587 H 0.5732 0.78141 0.73174 0.0
H588 H 0.20205 0.43354 0.73335 0.0
H589 H 0.28121 0.47057 0.73688 0.0
H590 H 0.27119 0.44574 0.82381 0.0
H591 H 0.19182 0.40806 0.82048 0.0
H592 H 0.33873 0.54224 0.7681 0.0
H593 H 0.34564 0.3937 0.79697 0.0
H594 H 0.29718 0.39135 0.7833 0.0
H595 H 0.31212 0.40608 0.81847 0.0
C596 C 0.21661 0.43628 0.75329 0.0
C597 C 0.19061 0.41756 0.7766 0.0
C598 C 0.26185 0.45733 0.75524 0.0
C599 C 0.28191 0.45996 0.78049 0.0
C600 C 0.25622 0.44307 0.80402 0.0
H601 H 0.55653 0.60726 0.81967 0.0
H602 H 0.47845 0.55638 0.82369 0.0
C603 C 0.21091 0.42194 0.80211 0.0
C604 C 0.32979 0.48055 0.78197 0.0
H605 H 0.41267 0.46022 0.79557 0.0
C606 C 0.35487 0.52435 0.77417 0.0
C607 C 0.35066 0.45694 0.78983 0.0
C608 C 0.32513 0.40931 0.79742 0.0
C609 C 0.40035 0.54526 0.77398 0.0
C610 C 0.42118 0.52162 0.7816 0.0
C611 C 0.39633 0.47802 0.78977 0.0
C612 C 0.46892 0.54227 0.78037 0.0
C613 C 0.42605 0.59249 0.76544 0.0
C614 C 0.48942 0.54898 0.7549 0.0
C615 C 0.53395 0.57799 0.7525 0.0
C616 C 0.5585 0.60085 0.77557 0.0
C617 C 0.53859 0.59035 0.80151 0.0
C618 C 0.49395 0.56133 0.80387 0.0
H619 H 0.40525 0.60764 0.76348 0.0
H620 H 0.45224 0.61142 0.78051 0.0
H621 H 0.44172 0.5949 0.74535 0.0
H622 H 0.47043 0.53432 0.73659 0.0
H623 H 0.54834 0.58506 0.73226 0.0
H624 H 0.24785 0.11153 0.32184 0.0
H625 H 0.20965 0.15292 0.32556 0.0
H626 H 0.18973 0.14402 0.23812 0.0
H627 H 0.2271 0.10216 0.23421 0.0
H628 H 0.23404 0.23308 0.30075 0.0
H629 H 0.06905 0.10698 0.26782 0.0
H630 H 0.11017 0.0939 0.27799 0.0
H631 H 0.11056 0.11392 0.24404 0.0
C632 C 0.23463 0.11769 0.30346 0.0
C633 C 0.2404 0.10347 0.27772 0.0
C634 C 0.21306 0.14153 0.30563 0.0
C635 C 0.19668 0.15123 0.28215 0.0
C636 C 0.2015 0.13622 0.25655 0.0
H637 H 0.0746 0.29529 0.23485 0.0
H638 H 0.12605 0.26884 0.23871 0.0
C639 C 0.22294 0.11234 0.25435 0.0
C640 C 0.17616 0.17863 0.28406 0.0
H641 H 0.0837 0.18057 0.26772 0.0
C642 C 0.20101 0.22154 0.29383 0.0
C643 C 0.13304 0.16332 0.27512 0.0
C644 C 0.10399 0.11688 0.26591 0.0
C645 C 0.18418 0.25004 0.29395 0.0
C646 C 0.14173 0.23509 0.28404 0.0
C647 C 0.11658 0.19196 0.27494 0.0
C648 C 0.12194 0.26308 0.28281 0.0
C649 C 0.21195 0.29617 0.30392 0.0
C650 C 0.10468 0.27088 0.30654 0.0
C651 C 0.07514 0.28602 0.30443 0.0
C652 C 0.06214 0.29289 0.27855 0.0
C653 C 0.08346 0.28979 0.2551 0.0
C654 C 0.11291 0.27468 0.25722 0.0
H655 H 0.24574 0.30397 0.30863 0.0
H656 H 0.21295 0.31941 0.28824 0.0
H657 H 0.19733 0.30101 0.32273 0.0
H658 H 0.11123 0.26187 0.32646 0.0
H659 H 0.05974 0.28851 0.32288 0.0
H660 H 0.86924 0.77408 0.23337 0.0
H661 H 0.9483 0.80934 0.23716 0.0
H662 H 0.93702 0.78399 0.32403 0.0
H663 H 0.85778 0.74825 0.32049 0.0
H664 H 0.00772 0.88007 0.26953 0.0
H665 H 0.00668 0.72654 0.29595 0.0
H666 H 0.95973 0.72706 0.28204 0.0
H667 H 0.97399 0.74009 0.31744 0.0
C668 C 0.88353 0.77649 0.25336 0.0
C669 C 0.85722 0.75803 0.27659 0.0
C670 C 0.92868 0.79648 0.25546 0.0
C671 C 0.94826 0.79823 0.28075 0.0
C672 C 0.92233 0.78196 0.30423 0.0
H673 H 0.22129 0.93552 0.32169 0.0
H674 H 0.14314 0.88515 0.3249 0.0
C675 C 0.87713 0.76196 0.30218 0.0
C676 C 0.99585 0.81685 0.28231 0.0
H677 H 0.07533 0.79125 0.29508 0.0
C678 C 0.02251 0.86071 0.27517 0.0
C679 C 0.01486 0.79128 0.28961 0.0
C680 C 0.98745 0.74352 0.2965 0.0
C681 C 0.06784 0.87983 0.27515 0.0
C682 C 0.08682 0.85424 0.2822 0.0
C683 C 0.06036 0.81052 0.28967 0.0
C684 C 0.13435 0.87317 0.28135 0.0
C685 C 0.09533 0.92729 0.26743 0.0
C686 C 0.15532 0.88062 0.256 0.0
C687 C 0.19993 0.90948 0.25406 0.0
C688 C 0.22401 0.93146 0.27748 0.0
C689 C 0.2037 0.91961 0.30326 0.0
C690 C 0.15899 0.89077 0.30516 0.0
H691 H 0.07582 0.94389 0.26582 0.0
H692 H 0.12149 0.94471 0.28279 0.0
H693 H 0.11111 0.92991 0.24736 0.0
H694 H 0.13661 0.86702 0.23744 0.0
H695 H 0.21465 0.91745 0.23391 0.0
H696 H 0.88441 0.13831 0.32391 0.0
H697 H 0.83963 0.05922 0.32896 0.0
H698 H 0.83989 0.04413 0.24137 0.0
H699 H 0.88449 0.12312 0.23603 0.0
H700 H 0.75434 0.00133 0.2683 0.0
H701 H 0.8742 0.96359 0.3166 0.0
H702 H 0.86886 0.00724 0.33138 0.0
H703 H 0.89065 0.01315 0.29751 0.0
C704 C 0.87558 0.11815 0.30574 0.0
C705 C 0.88801 0.13702 0.27955 0.0
C706 C 0.84997 0.07299 0.30868 0.0
C707 C 0.83651 0.04602 0.28553 0.0
C708 C 0.84994 0.06456 0.25946 0.0
H709 H 0.69829 0.7845 0.2359 0.0
H710 H 0.7222 0.86129 0.24221 0.0
C711 C 0.87566 0.10966 0.25648 0.0
C712 C 0.80709 -0.00145 0.28828 0.0
H713 H 0.80358 0.90513 0.30954 0.0
C714 C 0.76489 0.9802 0.27748 0.0
C715 C 0.82088 0.97137 0.30059 0.0
C716 C 0.86618 0.98957 0.31207 0.0
C717 C 0.7363 0.93503 0.27812 0.0
C718 C 0.75072 0.90759 0.28938 0.0
C719 C 0.79242 0.92621 0.30108 0.0
C720 C 0.72568 0.85955 0.28644 0.0
C721 C 0.69113 0.91718 0.26657 0.0
C722 C 0.71815 0.83251 0.30926 0.0
C723 C 0.70471 0.78839 0.30569 0.0
C724 C 0.6991 0.77082 0.27919 0.0
C725 C 0.70247 0.79701 0.25659 0.0
C726 C 0.71596 0.84104 0.26018 0.0
H727 H 0.67995 0.94136 0.26831 0.0
H728 H 0.69147 0.90994 0.2445 0.0
H729 H 0.66737 0.88671 0.27715 0.0
H730 H 0.72545 0.84617 0.32971 0.0
H731 H 0.70227 0.7691 0.32355 0.0
H732 H 0.11144 0.2529 0.70791 0.0
H733 H 0.15662 0.21898 0.70263 0.0
H734 H 0.14896 0.19452 0.78953 0.0
H735 H 0.10404 0.22847 0.79513 0.0
H736 H 0.23636 0.2398 0.76599 0.0
H737 H 0.12192 0.08812 0.71007 0.0
H738 H 0.12881 0.13872 0.69695 0.0
H739 H 0.10339 0.11904 0.72963 0.0
C740 C 0.1187 0.23961 0.72584 0.0
C741 C 0.10419 0.24343 0.75196 0.0
C742 C 0.14455 0.2203 0.72276 0.0
C743 C 0.15609 0.2044 0.7457 0.0
C744 C 0.14045 0.2068 0.77162 0.0
H745 H 0.28625 0.07443 0.7973 0.0
H746 H 0.26336 0.12815 0.791 0.0
C747 C 0.11457 0.22597 0.77473 0.0
C748 C 0.18584 0.18671 0.74306 0.0
H749 H 0.19132 0.09878 0.71996 0.0
C750 C 0.22677 0.20915 0.75572 0.0
C751 C 0.17333 0.14709 0.72936 0.0
C752 C 0.1294 0.12152 0.71582 0.0
C753 C 0.25515 0.19229 0.75572 0.0
C754 C 0.2418 0.15159 0.74315 0.0
C755 C 0.20161 0.13012 0.72947 0.0
C756 C 0.26602 0.12784 0.74672 0.0
C757 C 0.29888 0.21796 0.76945 0.0
C758 C 0.27662 0.11082 0.72394 0.0
C759 C 0.28956 0.07972 0.72749 0.0
C760 C 0.29146 0.06473 0.75385 0.0
C761 C 0.28491 0.08501 0.77667 0.0
C762 C 0.272 0.11603 0.77312 0.0
H763 H 0.31042 0.25347 0.76893 0.0
H764 H 0.29589 0.208 0.79126 0.0
H765 H 0.32368 0.21208 0.75957 0.0
H766 H 0.27231 0.11959 0.70338 0.0
H767 H 0.29492 0.06524 0.70951 0.0
H768 H 0.13542 0.88624 0.70959 0.0
H769 H 0.05614 0.84454 0.70528 0.0
H770 H 0.04369 0.84861 0.79292 0.0
H771 H 0.1226 0.89081 0.79744 0.0
H772 H 0.00076 0.76317 0.72806 0.0
H773 H 0.95957 0.88626 0.76489 0.0
H774 H 0.01401 0.90033 0.75489 0.0
H775 H 0.99378 0.87798 0.78832 0.0
C776 C 0.11578 0.87895 0.72791 0.0
C777 C 0.1353 0.89198 0.75387 0.0
C778 C 0.07053 0.85492 0.7254 0.0
C779 C 0.04413 0.8438 0.74875 0.0
C780 C 0.06348 0.85755 0.7746 0.0
H781 H 0.77857 0.69442 0.7941 0.0
H782 H 0.85637 0.72118 0.78993 0.0
C783 C 0.10863 0.88164 0.77713 0.0
C784 C 0.99637 0.81625 0.7464 0.0
H785 H 0.90137 0.81254 0.76332 0.0
C786 C 0.97894 0.77406 0.73547 0.0
C787 C 0.9681 0.83069 0.75597 0.0
C788 C 0.98478 0.87644 0.76642 0.0
C789 C 0.9338 0.74538 0.73479 0.0
C790 C 0.90585 0.7594 0.74534 0.0
C791 C 0.9232 0.80185 0.7556 0.0
C792 C 0.85823 0.73105 0.74616 0.0
C793 C 0.9161 0.70001 0.72355 0.0
C794 C 0.83335 0.72545 0.72261 0.0
C795 C 0.78873 0.7101 0.72488 0.0
C796 C 0.76879 0.70082 0.75082 0.0
C797 C 0.79303 0.70171 0.77387 0.0
C798 C 0.83752 0.71701 0.77156 0.0
H799 H 0.94234 0.69296 0.71798 0.0
H800 H 0.8944 0.67566 0.73887 0.0
H801 H 0.89629 0.69609 0.70503 0.0
H802 H 0.84899 0.7364 0.70286 0.0
H803 H 0.77096 0.70962 0.70671 0.0
H804 H 0.93257 0.22767 0.7103 0.0
H805 H 0.87911 0.15069 0.70387 0.0
H806 H 0.86554 0.13326 0.79146 0.0
H807 H 0.91811 0.21 0.79808 0.0
H808 H 0.90037 0.09159 0.72218 0.0
H809 H 0.74224 0.05363 0.76683 0.0
H810 H 0.78336 0.10849 0.7579 0.0
H811 H 0.7861 0.08491 0.79003 0.0
C812 C 0.91689 0.20788 0.72818 0.0
C813 C 0.93009 0.22479 0.75473 0.0
C814 C 0.88644 0.16383 0.72445 0.0
C815 C 0.86842 0.13622 0.74717 0.0
C816 C 0.87844 0.15402 0.77361 0.0
H817 H 0.7673 0.87222 0.7948 0.0
H818 H 0.80168 0.95129 0.79001 0.0
C819 C 0.90879 0.19799 0.77736 0.0
C820 C 0.84575 0.08832 0.7437 0.0
H821 H 0.75727 0.99394 0.76497 0.0
C822 C 0.86863 0.07019 0.73099 0.0
C823 C 0.80455 0.06051 0.75539 0.0
C824 C 0.77749 0.07794 0.76805 0.0
C825 C 0.8524 0.02507 0.73093 0.0
C826 C 0.81214 0.9975 0.74369 0.0
C827 C 0.78842 0.01538 0.75545 0.0
C828 C 0.7947 0.95006 0.74597 0.0
C829 C 0.87929 0.00732 0.71839 0.0
C830 C 0.78041 0.92347 0.72266 0.0
C831 C 0.76089 0.87826 0.72528 0.0
C832 C 0.75523 0.85899 0.7513 0.0
C833 C 0.77126 0.88599 0.77447 0.0
C834 C 0.79064 0.93113 0.77182 0.0
H835 H 0.91288 0.03352 0.71352 0.0
H836 H 0.88107 0.98356 0.73244 0.0
H837 H 0.86365 0.98997 0.69912 0.0
H838 H 0.78305 0.93757 0.70256 0.0
H839 H 0.74876 0.85837 0.70703 0.0
loop_
_geom_bond_atom_site_label_1
_geom_bond_atom_site_label_2
_geom_bond_distance
_geom_bond_site_symmetry_2
_ccdc_geom_bond_type
Zn0 O1 2.055 . S
Zn0 O8 2.046 . S
Zn0 N16 2.036 . S
Zn0 O28 2.053 . S
Zn0 O30 2.066 . S
O1 Zn0 2.055 . S
O1 C4 1.259 . S
C2 O30 1.256 . S
C2 O31 1.244 . S
Zn3 O5 2.046 . S
Zn3 O7 2.055 . S
Zn3 N9 2.036 . S
Zn3 O27 2.066 . S
Zn3 O31 2.053 . S
C4 O1 1.259 . S
C4 O5 1.254 . S
O5 Zn3 2.046 . S
O5 C4 1.254 . S
C6 O27 1.256 . S
C6 O28 1.244 . S
O7 Zn3 2.055 . S
O7 C29 1.259 . S
O8 Zn0 2.046 . S
O8 C29 1.254 . S
N9 Zn3 2.036 . S
N9 C10 1.298 . S
N9 N12 1.398 . S
C10 N9 1.298 . S
C10 N13 1.367 . S
C10 C23 1.481 . S
C11 N12 1.299 . S
C11 N13 1.379 . S
N12 N9 1.398 . S
N12 C11 1.299 . S
N13 C10 1.367 . S
N13 C11 1.379 . S
C14 N16 1.298 . S
C14 N18 1.367 . S
C14 C22 1.481 . S
C15 N17 1.299 . S
C15 N18 1.379 . S
N16 Zn0 2.036 . S
N16 C14 1.298 . S
N16 N17 1.398 . S
N17 C15 1.299 . S
N17 N16 1.398 . S
N18 C14 1.367 . S
N18 C15 1.379 . S
H19 C22 0.980 . S
H20 C22 0.981 . S
H21 C22 0.981 . S
C22 C14 1.481 . S
C22 H19 0.980 . S
C22 H20 0.981 . S
C22 H21 0.981 . S
C23 C10 1.481 . S
C23 H24 0.980 . S
C23 H25 0.981 . S
C23 H26 0.981 . S
H24 C23 0.980 . S
H25 C23 0.981 . S
H26 C23 0.981 . S
O27 Zn3 2.066 . S
O27 C6 1.256 . S
O28 Zn0 2.053 . S
O28 C6 1.244 . S
C29 O7 1.259 . S
C29 O8 1.254 . S
O30 Zn0 2.066 . S
O30 C2 1.256 . S
O31 C2 1.244 . S
O31 Zn3 2.053 . S
Zn32 O33 2.055 . S
Zn32 O40 2.046 . S
Zn32 N48 2.036 . S
Zn32 O60 2.053 . S
Zn32 O62 2.066 . S
O33 Zn32 2.055 . S
O33 C36 1.259 . S
C34 O62 1.256 . S
C34 O63 1.244 . S
Zn35 O37 2.046 . S
Zn35 O39 2.055 . S
Zn35 N41 2.036 . S
Zn35 O59 2.066 . S
Zn35 O63 2.053 . S
C36 O33 1.259 . S
C36 O37 1.254 . S
O37 Zn35 2.046 . S
O37 C36 1.254 . S
C38 O59 1.256 . S
C38 O60 1.244 . S
O39 Zn35 2.055 . S
O39 C61 1.259 . S
O40 Zn32 2.046 . S
O40 C61 1.254 . S
N41 Zn35 2.036 . S
N41 C42 1.298 . S
N41 N44 1.398 . S
C42 N41 1.298 . S
C42 N45 1.367 . S
C42 C55 1.481 . S
C43 N44 1.299 . S
C43 N45 1.379 . S
N44 N41 1.398 . S
N44 C43 1.299 . S
N45 C42 1.367 . S
N45 C43 1.379 . S
C46 N48 1.298 . S
C46 N50 1.367 . S
C46 C54 1.481 . S
C47 N49 1.299 . S
C47 N50 1.379 . S
N48 Zn32 2.036 . S
N48 C46 1.298 . S
N48 N49 1.398 . S
N49 C47 1.299 . S
N49 N48 1.398 . S
N50 C46 1.367 . S
N50 C47 1.379 . S
H51 C54 0.980 . S
H52 C54 0.981 . S
H53 C54 0.981 . S
C54 C46 1.481 . S
C54 H51 0.980 . S
C54 H52 0.981 . S
C54 H53 0.981 . S
C55 C42 1.481 . S
C55 H56 0.980 . S
C55 H57 0.981 . S
C55 H58 0.981 . S
H56 C55 0.980 . S
H57 C55 0.981 . S
H58 C55 0.981 . S
O59 Zn35 2.066 . S
O59 C38 1.256 . S
O60 Zn32 2.053 . S
O60 C38 1.244 . S
C61 O39 1.259 . S
C61 O40 1.254 . S
O62 Zn32 2.066 . S
O62 C34 1.256 . S
O63 C34 1.244 . S
O63 Zn35 2.053 . S
Zn64 O65 2.055 . S
Zn64 O72 2.046 . S
Zn64 N80 2.036 . S
Zn64 O92 2.053 . S
Zn64 O94 2.066 . S
O65 Zn64 2.055 . S
O65 C68 1.259 . S
C66 O94 1.256 . S
C66 O95 1.244 . S
Zn67 O69 2.046 . S
Zn67 O71 2.055 . S
Zn67 N73 2.036 . S
Zn67 O91 2.066 . S
Zn67 O95 2.053 . S
C68 O65 1.259 . S
C68 O69 1.254 . S
O69 Zn67 2.046 . S
O69 C68 1.254 . S
C70 O91 1.256 . S
C70 O92 1.244 . S
O71 Zn67 2.055 . S
O71 C93 1.259 . S
O72 Zn64 2.046 . S
O72 C93 1.254 . S
N73 Zn67 2.036 . S
N73 C74 1.298 . S
N73 N76 1.398 . S
C74 N73 1.298 . S
C74 N77 1.367 . S
C74 C87 1.481 . S
C75 N76 1.299 . S
C75 N77 1.379 . S
N76 N73 1.398 . S
N76 C75 1.299 . S
N77 C74 1.367 . S
N77 C75 1.379 . S
C78 N80 1.298 . S
C78 N82 1.367 . S
C78 C86 1.481 . S
C79 N81 1.299 . S
C79 N82 1.379 . S
N80 Zn64 2.036 . S
N80 C78 1.298 . S
N80 N81 1.398 . S
N81 C79 1.299 . S
N81 N80 1.398 . S
N82 C78 1.367 . S
N82 C79 1.379 . S
H83 C86 0.980 . S
H84 C86 0.981 . S
H85 C86 0.981 . S
C86 C78 1.481 . S
C86 H83 0.980 . S
C86 H84 0.981 . S
C86 H85 0.981 . S
C87 C74 1.481 . S
C87 H88 0.980 . S
C87 H89 0.981 . S
C87 H90 0.981 . S
H88 C87 0.980 . S
H89 C87 0.981 . S
H90 C87 0.981 . S
O91 Zn67 2.066 . S
O91 C70 1.256 . S
O92 Zn64 2.053 . S
O92 C70 1.244 . S
C93 O71 1.259 . S
C93 O72 1.254 . S
O94 Zn64 2.066 . S
O94 C66 1.256 . S
O95 C66 1.244 . S
O95 Zn67 2.053 . S
Zn96 O97 2.055 . S
Zn96 O104 2.046 . S
Zn96 N112 2.036 . S
Zn96 O124 2.053 . S
Zn96 O126 2.066 . S
O97 Zn96 2.055 . S
O97 C100 1.259 . S
C98 O126 1.256 . S
C98 O127 1.244 . S
Zn99 O101 2.046 . S
Zn99 O103 2.055 . S
Zn99 N105 2.036 . S
Zn99 O123 2.066 . S
Zn99 O127 2.053 . S
C100 O97 1.259 . S
C100 O101 1.254 . S
O101 Zn99 2.046 . S
O101 C100 1.254 . S
C102 O123 1.256 . S
C102 O124 1.244 . S
O103 Zn99 2.055 . S
O103 C125 1.259 . S
O104 Zn96 2.046 . S
O104 C125 1.254 . S
N105 Zn99 2.036 . S
N105 C106 1.298 . S
N105 N108 1.398 . S
C106 N105 1.298 . S
C106 N109 1.367 . S
C106 C119 1.481 . S
C107 N108 1.299 . S
C107 N109 1.379 . S
N108 N105 1.398 . S
N108 C107 1.299 . S
N109 C106 1.367 . S
N109 C107 1.379 . S
C110 N112 1.298 . S
C110 N114 1.367 . S
C110 C118 1.481 . S
C111 N113 1.299 . S
C111 N114 1.379 . S
N112 Zn96 2.036 . S
N112 C110 1.298 . S
N112 N113 1.398 . S
N113 C111 1.299 . S
N113 N112 1.398 . S
N114 C110 1.367 . S
N114 C111 1.379 . S
H115 C118 0.980 . S
H116 C118 0.981 . S
H117 C118 0.981 . S
C118 C110 1.481 . S
C118 H115 0.980 . S
C118 H116 0.981 . S
C118 H117 0.981 . S
C119 C106 1.481 . S
C119 H120 0.980 . S
C119 H121 0.981 . S
C119 H122 0.981 . S
H120 C119 0.980 . S
H121 C119 0.981 . S
H122 C119 0.981 . S
O123 Zn99 2.066 . S
O123 C102 1.256 . S
O124 Zn96 2.053 . S
O124 C102 1.244 . S
C125 O103 1.259 . S
C125 O104 1.254 . S
O126 Zn96 2.066 . S
O126 C98 1.256 . S
O127 C98 1.244 . S
O127 Zn99 2.053 . S
Zn128 O129 2.055 . S
Zn128 O136 2.046 . S
Zn128 N144 2.036 . S
Zn128 O156 2.053 . S
Zn128 O158 2.066 . S
O129 Zn128 2.055 . S
O129 C132 1.259 . S
C130 O158 1.256 . S
C130 O159 1.244 . S
Zn131 O133 2.046 . S
Zn131 O135 2.055 . S
Zn131 N137 2.036 . S
Zn131 O155 2.066 . S
Zn131 O159 2.053 . S
C132 O129 1.259 . S
C132 O133 1.254 . S
O133 Zn131 2.046 . S
O133 C132 1.254 . S
C134 O155 1.256 . S
C134 O156 1.244 . S
O135 Zn131 2.055 . S
O135 C157 1.259 . S
O136 Zn128 2.046 . S
O136 C157 1.254 . S
N137 Zn131 2.036 . S
N137 C138 1.298 . S
N137 N140 1.398 . S
C138 N137 1.298 . S
C138 N141 1.367 . S
C138 C151 1.481 . S
C139 N140 1.299 . S
C139 N141 1.379 . S
N140 N137 1.398 . S
N140 C139 1.299 . S
N141 C138 1.367 . S
N141 C139 1.379 . S
C142 N144 1.298 . S
C142 N146 1.367 . S
C142 C150 1.481 . S
C143 N145 1.299 . S
C143 N146 1.379 . S
N144 Zn128 2.036 . S
N144 C142 1.298 . S
N144 N145 1.398 . S
N145 C143 1.299 . S
N145 N144 1.398 . S
N146 C142 1.367 . S
N146 C143 1.379 . S
H147 C150 0.980 . S
H148 C150 0.981 . S
H149 C150 0.981 . S
C150 C142 1.481 . S
C150 H147 0.980 . S
C150 H148 0.981 . S
C150 H149 0.981 . S
C151 C138 1.481 . S
C151 H152 0.980 . S
C151 H153 0.981 . S
C151 H154 0.981 . S
H152 C151 0.980 . S
H153 C151 0.981 . S
H154 C151 0.981 . S
O155 Zn131 2.066 . S
O155 C134 1.256 . S
O156 Zn128 2.053 . S
O156 C134 1.244 . S
C157 O135 1.259 . S
C157 O136 1.254 . S
O158 Zn128 2.066 . S
O158 C130 1.256 . S
O159 C130 1.244 . S
O159 Zn131 2.053 . S
Zn160 O161 2.055 . S
Zn160 O168 2.046 . S
Zn160 N176 2.036 . S
Zn160 O188 2.053 . S
Zn160 O190 2.066 . S
O161 Zn160 2.055 . S
O161 C164 1.259 . S
C162 O190 1.256 . S
C162 O191 1.244 . S
Zn163 O165 2.046 . S
Zn163 O167 2.055 . S
Zn163 N169 2.036 . S
Zn163 O187 2.066 . S
Zn163 O191 2.053 . S
C164 O161 1.259 . S
C164 O165 1.254 . S
O165 Zn163 2.046 . S
O165 C164 1.254 . S
C166 O187 1.256 . S
C166 O188 1.244 . S
O167 Zn163 2.055 . S
O167 C189 1.259 . S
O168 Zn160 2.046 . S
O168 C189 1.254 . S
N169 Zn163 2.036 . S
N169 C170 1.298 . S
N169 N172 1.398 . S
C170 N169 1.298 . S
C170 N173 1.367 . S
C170 C183 1.481 . S
C171 N172 1.299 . S
C171 N173 1.379 . S
N172 N169 1.398 . S
N172 C171 1.299 . S
N173 C170 1.367 . S
N173 C171 1.379 . S
C174 N176 1.298 . S
C174 N178 1.367 . S
C174 C182 1.481 . S
C175 N177 1.299 . S
C175 N178 1.379 . S
N176 Zn160 2.036 . S
N176 C174 1.298 . S
N176 N177 1.398 . S
N177 C175 1.299 . S
N177 N176 1.398 . S
N178 C174 1.367 . S
N178 C175 1.379 . S
H179 C182 0.980 . S
H180 C182 0.981 . S
H181 C182 0.981 . S
C182 C174 1.481 . S
C182 H179 0.980 . S
C182 H180 0.981 . S
C182 H181 0.981 . S
C183 C170 1.481 . S
C183 H184 0.980 . S
C183 H185 0.981 . S
C183 H186 0.981 . S
H184 C183 0.980 . S
H185 C183 0.981 . S
H186 C183 0.981 . S
O187 Zn163 2.066 . S
O187 C166 1.256 . S
O188 Zn160 2.053 . S
O188 C166 1.244 . S
C189 O167 1.259 . S
C189 O168 1.254 . S
O190 Zn160 2.066 . S
O190 C162 1.256 . S
O191 C162 1.244 . S
O191 Zn163 2.053 . S
H192 C200 0.929 . S
H193 C202 0.930 . S
H194 C204 0.930 . S
H195 C207 0.929 . S
H196 C210 0.930 . S
H197 C212 0.960 . S
H198 C212 0.960 . S
H199 C212 0.960 . S
C200 H192 0.929 . S
C200 C201 1.377 . S
C200 C202 1.384 . S
C201 C200 1.377 . S
C201 C207 1.390 . S
C202 H193 0.930 . S
C202 C200 1.384 . S
C202 C203 1.372 . S
C203 C202 1.372 . S
C203 C204 1.400 . S
C203 C208 1.490 . S
C204 H194 0.930 . S
C204 C203 1.400 . S
C204 C207 1.386 . S
H205 C221 0.930 . S
H206 C222 0.931 . S
C207 H195 0.929 . S
C207 C201 1.390 . S
C207 C204 1.386 . S
C208 C203 1.490 . S
C208 C210 1.395 . S
C208 C211 1.403 1_565 S
H209 C215 0.930 . S
C210 H196 0.930 . S
C210 C208 1.395 . S
C210 C213 1.403 1_556 S
C211 C208 1.403 1_545 S
C211 C212 1.524 . S
C211 C215 1.400 1_556 S
C212 H197 0.960 . S
C212 H198 0.960 . S
C212 H199 0.960 . S
C212 C211 1.524 . S
C213 C210 1.403 1_554 S
C213 C214 1.392 1_565 S
C213 C217 1.495 . S
C214 C213 1.392 1_545 S
C214 C215 1.385 . S
C214 C216 1.478 . S
C215 H209 0.930 . S
C215 C211 1.400 1_554 S
C215 C214 1.385 . S
C216 C214 1.478 . S
C216 C218 1.381 . S
C216 C222 1.383 . S
C217 C213 1.495 . S
C217 H223 0.959 . S
C217 H224 0.961 . S
C217 H225 0.960 . S
C218 C216 1.381 . S
C218 C219 1.394 . S
C218 H226 0.930 . S
C219 C218 1.394 . S
C219 C220 1.383 . S
C219 H227 0.929 . S
C220 C219 1.383 . S
C220 C221 1.377 . S
C221 H205 0.930 . S
C221 C220 1.377 . S
C221 C222 1.379 . S
C222 H206 0.931 . S
C222 C216 1.383 . S
C222 C221 1.379 . S
H223 C217 0.959 . S
H224 C217 0.961 . S
H225 C217 0.960 . S
H226 C218 0.930 . S
H227 C219 0.929 . S
H228 C236 0.929 . S
H229 C238 0.930 . S
H230 C240 0.930 . S
H231 C243 0.929 . S
H232 C246 0.930 . S
H233 C248 0.960 . S
H234 C248 0.960 . S
H235 C248 0.960 . S
C236 H228 0.929 . S
C236 C237 1.377 . S
C236 C238 1.384 . S
C237 C236 1.377 . S
C237 C243 1.390 . S
C238 H229 0.930 . S
C238 C236 1.384 . S
C238 C239 1.372 . S
C239 C238 1.372 . S
C239 C240 1.400 . S
C239 C244 1.490 . S
C240 H230 0.930 . S
C240 C239 1.400 . S
C240 C243 1.386 . S
H241 C257 0.930 . S
H242 C258 0.931 . S
C243 H231 0.929 . S
C243 C237 1.390 . S
C243 C240 1.386 . S
C244 C239 1.490 . S
C244 C246 1.395 . S
C244 C247 1.403 . S
H245 C251 0.930 . S
C246 H232 0.930 . S
C246 C244 1.395 . S
C246 C249 1.403 . S
C247 C244 1.403 . S
C247 C248 1.524 . S
C247 C251 1.400 . S
C248 H233 0.960 . S
C248 H234 0.960 . S
C248 H235 0.960 . S
C248 C247 1.524 . S
C249 C246 1.403 . S
C249 C250 1.392 . S
C249 C253 1.495 . S
C250 C249 1.392 . S
C250 C251 1.385 . S
C250 C252 1.478 . S
C251 H245 0.930 . S
C251 C247 1.400 . S
C251 C250 1.385 . S
C252 C250 1.478 . S
C252 C254 1.381 . S
C252 C258 1.383 . S
C253 C249 1.495 . S
C253 H259 0.959 . S
C253 H260 0.961 . S
C253 H261 0.960 . S
C254 C252 1.381 . S
C254 C255 1.394 . S
C254 H262 0.930 . S
C255 C254 1.394 . S
C255 C256 1.383 . S
C255 H263 0.929 . S
C256 C255 1.383 . S
C256 C257 1.377 . S
C257 H241 0.930 . S
C257 C256 1.377 . S
C257 C258 1.379 . S
C258 H242 0.931 . S
C258 C252 1.383 . S
C258 C257 1.379 . S
H259 C253 0.959 . S
H260 C253 0.961 . S
H261 C253 0.960 . S
H262 C254 0.930 . S
H263 C255 0.929 . S
H264 C272 0.929 . S
H265 C274 0.930 . S
H266 C276 0.930 1_455 S
H267 C279 0.929 . S
H268 C282 0.930 . S
H269 C284 0.960 . S
H270 C284 0.960 . S
H271 C284 0.960 . S
C272 H264 0.929 . S
C272 C273 1.377 . S
C272 C274 1.384 . S
C273 C272 1.377 . S
C273 C279 1.390 . S
C274 H265 0.930 . S
C274 C272 1.384 . S
C274 C275 1.372 . S
C275 C274 1.372 . S
C275 C276 1.400 . S
C275 C280 1.490 . S
C276 H266 0.930 1_655 S
C276 C275 1.400 . S
C276 C279 1.386 . S
H277 C293 0.930 . S
H278 C294 0.931 . S
C279 H267 0.929 . S
C279 C273 1.390 . S
C279 C276 1.386 . S
C280 C275 1.490 . S
C280 C282 1.395 . S
C280 C283 1.403 . S
H281 C287 0.930 . S
C282 H268 0.930 . S
C282 C280 1.395 . S
C282 C285 1.403 1_654 S
C283 C280 1.403 . S
C283 C284 1.524 . S
C283 C287 1.400 1_654 S
C284 H269 0.960 . S
C284 H270 0.960 . S
C284 H271 0.960 . S
C284 C283 1.524 . S
C285 C282 1.403 1_456 S
C285 C286 1.392 . S
C285 C289 1.495 . S
C286 C285 1.392 . S
C286 C287 1.385 . S
C286 C288 1.478 . S
C287 H281 0.930 . S
C287 C283 1.400 1_456 S
C287 C286 1.385 . S
C288 C286 1.478 . S
C288 C290 1.381 . S
C288 C294 1.383 . S
C289 C285 1.495 . S
C289 H295 0.959 . S
C289 H296 0.961 . S
C289 H297 0.960 . S
C290 C288 1.381 . S
C290 C291 1.394 . S
C290 H298 0.930 1_455 S
C291 C290 1.394 . S
C291 C292 1.383 . S
C291 H299 0.929 . S
C292 C291 1.383 . S
C292 C293 1.377 . S
C293 H277 0.930 . S
C293 C292 1.377 . S
C293 C294 1.379 . S
C294 H278 0.931 . S
C294 C288 1.383 . S
C294 C293 1.379 . S
H295 C289 0.959 . S
H296 C289 0.961 . S
H297 C289 0.960 . S
H298 C290 0.930 1_655 S
H299 C291 0.929 . S
H300 C308 0.929 . S
H301 C310 0.930 . S
H302 C312 0.930 1_565 S
H303 C315 0.929 . S
H304 C318 0.930 . S
H305 C320 0.960 . S
H306 C320 0.960 . S
H307 C320 0.960 . S
C308 H300 0.929 . S
C308 C309 1.377 . S
C308 C310 1.384 . S
C309 C308 1.377 . S
C309 C315 1.390 . S
C310 H301 0.930 . S
C310 C308 1.384 . S
C310 C311 1.372 . S
C311 C310 1.372 . S
C311 C312 1.400 . S
C311 C316 1.490 . S
C312 H302 0.930 1_545 S
C312 C311 1.400 . S
C312 C315 1.386 . S
H313 C329 0.930 . S
H314 C330 0.931 . S
C315 H303 0.929 . S
C315 C309 1.390 . S
C315 C312 1.386 . S
C316 C311 1.490 . S
C316 C318 1.395 . S
C316 C319 1.403 1_545 S
H317 C323 0.930 . S
C318 H304 0.930 . S
C318 C316 1.395 . S
C318 C321 1.403 . S
C319 C316 1.403 1_565 S
C319 C320 1.524 . S
C319 C323 1.400 . S
C320 H305 0.960 . S
C320 H306 0.960 . S
C320 H307 0.960 . S
C320 C319 1.524 . S
C321 C318 1.403 . S
C321 C322 1.392 1_545 S
C321 C325 1.495 . S
C322 C321 1.392 1_565 S
C322 C323 1.385 . S
C322 C324 1.478 . S
C323 H317 0.930 . S
C323 C319 1.400 . S
C323 C322 1.385 . S
C324 C322 1.478 . S
C324 C326 1.381 . S
C324 C330 1.383 . S
C325 C321 1.495 . S
C325 H331 0.959 . S
C325 H332 0.961 . S
C325 H333 0.960 . S
C326 C324 1.381 . S
C326 C327 1.394 . S
C326 H334 0.930 1_565 S
C327 C326 1.394 . S
C327 C328 1.383 . S
C327 H335 0.929 . S
C328 C327 1.383 . S
C328 C329 1.377 . S
C329 H313 0.930 . S
C329 C328 1.377 . S
C329 C330 1.379 . S
C330 H314 0.931 . S
C330 C324 1.383 . S
C330 C329 1.379 . S
H331 C325 0.959 . S
H332 C325 0.961 . S
H333 C325 0.960 . S
H334 C326 0.930 1_545 S
H335 C327 0.929 . S
H336 C344 0.929 . S
H337 C346 0.930 . S
H338 C348 0.930 . S
H339 C351 0.929 . S
H340 C354 0.930 . S
H341 C356 0.960 1_554 S
H342 C356 0.960 . S
H343 C356 0.960 . S
C344 H336 0.929 . S
C344 C345 1.377 . S
C344 C346 1.384 . S
C345 C344 1.377 . S
C345 C351 1.390 . S
C346 H337 0.930 . S
C346 C344 1.384 . S
C346 C347 1.372 . S
C347 C346 1.372 . S
C347 C348 1.400 . S
C347 C352 1.490 . S
C348 H338 0.930 . S
C348 C347 1.400 . S
C348 C351 1.386 . S
H349 C365 0.930 . S
H350 C366 0.931 . S
C351 H339 0.929 . S
C351 C345 1.390 . S
C351 C348 1.386 . S
C352 C347 1.490 . S
C352 C354 1.395 . S
C352 C355 1.403 . S
H353 C359 0.930 . S
C354 H340 0.930 . S
C354 C352 1.395 . S
C354 C357 1.403 1_556 S
C355 C352 1.403 . S
C355 C356 1.524 . S
C355 C359 1.400 1_556 S
C356 H341 0.960 1_556 S
C356 H342 0.960 . S
C356 H343 0.960 . S
C356 C355 1.524 . S
C357 C354 1.403 1_554 S
C357 C358 1.392 . S
C357 C361 1.495 . S
C358 C357 1.392 . S
C358 C359 1.385 . S
C358 C360 1.478 . S
C359 H353 0.930 . S
C359 C355 1.400 1_554 S
C359 C358 1.385 . S
C360 C358 1.478 . S
C360 C362 1.381 . S
C360 C366 1.383 . S
C361 C357 1.495 . S
C361 H367 0.959 1_554 S
C361 H368 0.961 . S
C361 H369 0.960 . S
C362 C360 1.381 . S
C362 C363 1.394 . S
C362 H370 0.930 . S
C363 C362 1.394 . S
C363 C364 1.383 . S
C363 H371 0.929 . S
C364 C363 1.383 . S
C364 C365 1.377 . S
C365 H349 0.930 . S
C365 C364 1.377 . S
C365 C366 1.379 . S
C366 H350 0.931 . S
C366 C360 1.383 . S
C366 C365 1.379 . S
H367 C361 0.959 1_556 S
H368 C361 0.961 . S
H369 C361 0.960 . S
H370 C362 0.930 . S
H371 C363 0.929 . S
H372 C380 0.929 . S
H373 C382 0.930 . S
H374 C384 0.930 . S
H375 C387 0.929 . S
H376 C390 0.930 . S
H377 C392 0.960 . S
H378 C392 0.960 . S
H379 C392 0.960 . S
C380 H372 0.929 . S
C380 C381 1.377 . S
C380 C382 1.384 . S
C381 C380 1.377 . S
C381 C387 1.390 . S
C382 H373 0.930 . S
C382 C380 1.384 . S
C382 C383 1.372 . S
C383 C382 1.372 . S
C383 C384 1.400 . S
C383 C388 1.490 . S
C384 H374 0.930 . S
C384 C383 1.400 . S
C384 C387 1.386 . S
H385 C401 0.930 . S
H386 C402 0.931 . S
C387 H375 0.929 . S
C387 C381 1.390 . S
C387 C384 1.386 . S
C388 C383 1.490 . S
C388 C390 1.395 1_655 S
C388 C391 1.403 . S
H389 C395 0.930 . S
C390 H376 0.930 . S
C390 C388 1.395 1_455 S
C390 C393 1.403 . S
C391 C388 1.403 . S
C391 C392 1.524 . S
C391 C395 1.400 . S
C392 H377 0.960 . S
C392 H378 0.960 . S
C392 H379 0.960 . S
C392 C391 1.524 . S
C393 C390 1.403 . S
C393 C394 1.392 . S
C393 C397 1.495 . S
C394 C393 1.392 . S
C394 C395 1.385 1_455 S
C394 C396 1.478 . S
C395 H389 0.930 . S
C395 C391 1.400 . S
C395 C394 1.385 1_655 S
C396 C394 1.478 . S
C396 C398 1.381 . S
C396 C402 1.383 . S
C397 C393 1.495 . S
C397 H403 0.959 . S
C397 H404 0.961 . S
C397 H405 0.960 . S
C398 C396 1.381 . S
C398 C399 1.394 . S
C398 H406 0.930 . S
C399 C398 1.394 . S
C399 C400 1.383 . S
C399 H407 0.929 . S
C400 C399 1.383 . S
C400 C401 1.377 . S
C401 H385 0.930 . S
C401 C400 1.377 . S
C401 C402 1.379 . S
C402 H386 0.931 . S
C402 C396 1.383 . S
C402 C401 1.379 . S
H403 C397 0.959 . S
H404 C397 0.961 . S
H405 C397 0.960 . S
H406 C398 0.930 . S
H407 C399 0.929 . S
H408 C416 0.929 . S
H409 C418 0.930 . S
H410 C420 0.930 . S
H411 C423 0.929 . S
H412 C426 0.930 . S
H413 C428 0.960 . S
H414 C428 0.960 . S
H415 C428 0.960 . S
C416 H408 0.929 . S
C416 C417 1.377 . S
C416 C418 1.384 . S
C417 C416 1.377 . S
C417 C423 1.390 . S
C418 H409 0.930 . S
C418 C416 1.384 . S
C418 C419 1.372 . S
C419 C418 1.372 . S
C419 C420 1.400 . S
C419 C424 1.490 . S
C420 H410 0.930 . S
C420 C419 1.400 . S
C420 C423 1.386 . S
H421 C437 0.930 . S
H422 C438 0.931 . S
C423 H411 0.929 . S
C423 C417 1.390 . S
C423 C420 1.386 . S
C424 C419 1.490 . S
C424 C426 1.395 . S
C424 C427 1.403 . S
H425 C431 0.930 . S
C426 H412 0.930 . S
C426 C424 1.395 . S
C426 C429 1.403 . S
C427 C424 1.403 . S
C427 C428 1.524 . S
C427 C431 1.400 . S
C428 H413 0.960 . S
C428 H414 0.960 . S
C428 H415 0.960 . S
C428 C427 1.524 . S
C429 C426 1.403 . S
C429 C430 1.392 . S
C429 C433 1.495 . S
C430 C429 1.392 . S
C430 C431 1.385 . S
C430 C432 1.478 . S
C431 H425 0.930 . S
C431 C427 1.400 . S
C431 C430 1.385 . S
C432 C430 1.478 . S
C432 C434 1.381 . S
C432 C438 1.383 . S
C433 C429 1.495 . S
C433 H439 0.959 . S
C433 H440 0.961 . S
C433 H441 0.960 . S
C434 C432 1.381 . S
C434 C435 1.394 . S
C434 H442 0.930 . S
C435 C434 1.394 . S
C435 C436 1.383 . S
C435 H443 0.929 . S
C436 C435 1.383 . S
C436 C437 1.377 . S
C437 H421 0.930 . S
C437 C436 1.377 . S
C437 C438 1.379 . S
C438 H422 0.931 . S
C438 C432 1.383 . S
C438 C437 1.379 . S
H439 C433 0.959 . S
H440 C433 0.961 . S
H441 C433 0.960 . S
H442 C434 0.930 . S
H443 C435 0.929 . S
H444 C452 0.929 . S
H445 C454 0.930 . S
H446 C456 0.930 . S
H447 C459 0.929 . S
H448 C462 0.930 . S
H449 C464 0.960 . S
H450 C464 0.960 . S
H451 C464 0.960 . S
C452 H444 0.929 . S
C452 C453 1.377 . S
C452 C454 1.384 . S
C453 C452 1.377 . S
C453 C459 1.390 . S
C454 H445 0.930 . S
C454 C452 1.384 . S
C454 C455 1.372 . S
C455 C454 1.372 . S
C455 C456 1.400 . S
C455 C460 1.490 . S
C456 H446 0.930 . S
C456 C455 1.400 . S
C456 C459 1.386 . S
H457 C473 0.930 . S
H458 C474 0.931 . S
C459 H447 0.929 . S
C459 C453 1.390 . S
C459 C456 1.386 . S
C460 C455 1.490 . S
C460 C462 1.395 . S
C460 C463 1.403 . S
H461 C467 0.930 . S
C462 H448 0.930 . S
C462 C460 1.395 . S
C462 C465 1.403 . S
C463 C460 1.403 . S
C463 C464 1.524 . S
C463 C467 1.400 . S
C464 H449 0.960 . S
C464 H450 0.960 . S
C464 H451 0.960 . S
C464 C463 1.524 . S
C465 C462 1.403 . S
C465 C466 1.392 . S
C465 C469 1.495 . S
C466 C465 1.392 . S
C466 C467 1.385 . S
C466 C468 1.478 . S
C467 H461 0.930 . S
C467 C463 1.400 . S
C467 C466 1.385 . S
C468 C466 1.478 . S
C468 C470 1.381 . S
C468 C474 1.383 . S
C469 C465 1.495 . S
C469 H475 0.959 . S
C469 H476 0.961 . S
C469 H477 0.960 . S
C470 C468 1.381 . S
C470 C471 1.394 . S
C470 H478 0.930 . S
C471 C470 1.394 . S
C471 C472 1.383 . S
C471 H479 0.929 . S
C472 C471 1.383 . S
C472 C473 1.377 . S
C473 H457 0.930 . S
C473 C472 1.377 . S
C473 C474 1.379 . S
C474 H458 0.931 . S
C474 C468 1.383 . S
C474 C473 1.379 . S
H475 C469 0.959 . S
H476 C469 0.961 . S
H477 C469 0.960 . S
H478 C470 0.930 . S
H479 C471 0.929 . S
H480 C488 0.929 . S
H481 C490 0.930 . S
H482 C492 0.930 . S
H483 C495 0.929 . S
H484 C498 0.930 . S
H485 C500 0.960 . S
H486 C500 0.960 . S
H487 C500 0.960 . S
C488 H480 0.929 . S
C488 C489 1.377 . S
C488 C490 1.384 . S
C489 C488 1.377 . S
C489 C495 1.390 . S
C490 H481 0.930 . S
C490 C488 1.384 . S
C490 C491 1.372 . S
C491 C490 1.372 . S
C491 C492 1.400 . S
C491 C496 1.490 . S
C492 H482 0.930 . S
C492 C491 1.400 . S
C492 C495 1.386 . S
H493 C509 0.930 . S
H494 C510 0.931 . S
C495 H483 0.929 . S
C495 C489 1.390 . S
C495 C492 1.386 . S
C496 C491 1.490 . S
C496 C498 1.395 . S
C496 C499 1.403 . S
H497 C503 0.930 . S
C498 H484 0.930 . S
C498 C496 1.395 . S
C498 C501 1.403 . S
C499 C496 1.403 . S
C499 C500 1.524 . S
C499 C503 1.400 . S
C500 H485 0.960 . S
C500 H486 0.960 . S
C500 H487 0.960 . S
C500 C499 1.524 . S
C501 C498 1.403 . S
C501 C502 1.392 . S
C501 C505 1.495 . S
C502 C501 1.392 . S
C502 C503 1.385 . S
C502 C504 1.478 . S
C503 H497 0.930 . S
C503 C499 1.400 . S
C503 C502 1.385 . S
C504 C502 1.478 . S
C504 C506 1.381 . S
C504 C510 1.383 . S
C505 C501 1.495 . S
C505 H511 0.959 . S
C505 H512 0.961 . S
C505 H513 0.960 . S
C506 C504 1.381 . S
C506 C507 1.394 . S
C506 H514 0.930 . S
C507 C506 1.394 . S
C507 C508 1.383 . S
C507 H515 0.929 . S
C508 C507 1.383 . S
C508 C509 1.377 . S
C509 H493 0.930 . S
C509 C508 1.377 . S
C509 C510 1.379 . S
C510 H494 0.931 . S
C510 C504 1.383 . S
C510 C509 1.379 . S
H511 C505 0.959 . S
H512 C505 0.961 . S
H513 C505 0.960 . S
H514 C506 0.930 . S
H515 C507 0.929 . S
H516 C524 0.929 . S
H517 C526 0.930 . S
H518 C528 0.930 . S
H519 C531 0.929 . S
H520 C534 0.930 . S
H521 C536 0.960 . S
H522 C536 0.960 . S
H523 C536 0.960 . S
C524 H516 0.929 . S
C524 C525 1.377 . S
C524 C526 1.384 . S
C525 C524 1.377 . S
C525 C531 1.390 . S
C526 H517 0.930 . S
C526 C524 1.384 . S
C526 C527 1.372 . S
C527 C526 1.372 . S
C527 C528 1.400 . S
C527 C532 1.490 . S
C528 H518 0.930 . S
C528 C527 1.400 . S
C528 C531 1.386 . S
H529 C545 0.930 . S
H530 C546 0.931 . S
C531 H519 0.929 . S
C531 C525 1.390 . S
C531 C528 1.386 . S
C532 C527 1.490 . S
C532 C534 1.395 . S
C532 C535 1.403 . S
H533 C539 0.930 . S
C534 H520 0.930 . S
C534 C532 1.395 . S
C534 C537 1.403 . S
C535 C532 1.403 . S
C535 C536 1.524 . S
C535 C539 1.400 . S
C536 H521 0.960 . S
C536 H522 0.960 . S
C536 H523 0.960 . S
C536 C535 1.524 . S
C537 C534 1.403 . S
C537 C538 1.392 . S
C537 C541 1.495 . S
C538 C537 1.392 . S
C538 C539 1.385 . S
C538 C540 1.478 . S
C539 H533 0.930 . S
C539 C535 1.400 . S
C539 C538 1.385 . S
C540 C538 1.478 . S
C540 C542 1.381 . S
C540 C546 1.383 . S
C541 C537 1.495 . S
C541 H547 0.959 . S
C541 H548 0.961 . S
C541 H549 0.960 . S
C542 C540 1.381 . S
C542 C543 1.394 . S
C542 H550 0.930 . S
C543 C542 1.394 . S
C543 C544 1.383 . S
C543 H551 0.929 . S
C544 C543 1.383 . S
C544 C545 1.377 . S
C545 H529 0.930 . S
C545 C544 1.377 . S
C545 C546 1.379 . S
C546 H530 0.931 . S
C546 C540 1.383 . S
C546 C545 1.379 . S
H547 C541 0.959 . S
H548 C541 0.961 . S
H549 C541 0.960 . S
H550 C542 0.930 . S
H551 C543 0.929 . S
H552 C560 0.929 . S
H553 C562 0.930 . S
H554 C564 0.930 . S
H555 C567 0.929 . S
H556 C570 0.930 . S
H557 C572 0.960 . S
H558 C572 0.960 . S
H559 C572 0.960 . S
C560 H552 0.929 . S
C560 C561 1.377 . S
C560 C562 1.384 . S
C561 C560 1.377 . S
C561 C567 1.390 . S
C562 H553 0.930 . S
C562 C560 1.384 . S
C562 C563 1.372 . S
C563 C562 1.372 . S
C563 C564 1.400 . S
C563 C568 1.490 . S
C564 H554 0.930 . S
C564 C563 1.400 . S
C564 C567 1.386 . S
H565 C581 0.930 . S
H566 C582 0.931 . S
C567 H555 0.929 . S
C567 C561 1.390 . S
C567 C564 1.386 . S
C568 C563 1.490 . S
C568 C570 1.395 . S
C568 C571 1.403 . S
H569 C575 0.930 . S
C570 H556 0.930 . S
C570 C568 1.395 . S
C570 C573 1.403 . S
C571 C568 1.403 . S
C571 C572 1.524 . S
C571 C575 1.400 . S
C572 H557 0.960 . S
C572 H558 0.960 . S
C572 H559 0.960 . S
C572 C571 1.524 . S
C573 C570 1.403 . S
C573 C574 1.392 . S
C573 C577 1.495 . S
C574 C573 1.392 . S
C574 C575 1.385 . S
C574 C576 1.478 . S
C575 H569 0.930 . S
C575 C571 1.400 . S
C575 C574 1.385 . S
C576 C574 1.478 . S
C576 C578 1.381 . S
C576 C582 1.383 . S
C577 C573 1.495 . S
C577 H583 0.959 . S
C577 H584 0.961 . S
C577 H585 0.960 . S
C578 C576 1.381 . S
C578 C579 1.394 . S
C578 H586 0.930 . S
C579 C578 1.394 . S
C579 C580 1.383 . S
C579 H587 0.929 . S
C580 C579 1.383 . S
C580 C581 1.377 . S
C581 H565 0.930 . S
C581 C580 1.377 . S
C581 C582 1.379 . S
C582 H566 0.931 . S
C582 C576 1.383 . S
C582 C581 1.379 . S
H583 C577 0.959 . S
H584 C577 0.961 . S
H585 C577 0.960 . S
H586 C578 0.930 . S
H587 C579 0.929 . S
H588 C596 0.929 . S
H589 C598 0.930 . S
H590 C600 0.930 . S
H591 C603 0.929 . S
H592 C606 0.930 . S
H593 C608 0.960 . S
H594 C608 0.960 . S
H595 C608 0.960 . S
C596 H588 0.929 . S
C596 C597 1.377 . S
C596 C598 1.384 . S
C597 C596 1.377 . S
C597 C603 1.390 . S
C598 H589 0.930 . S
C598 C596 1.384 . S
C598 C599 1.372 . S
C599 C598 1.372 . S
C599 C600 1.400 . S
C599 C604 1.490 . S
C600 H590 0.930 . S
C600 C599 1.400 . S
C600 C603 1.386 . S
H601 C617 0.930 . S
H602 C618 0.931 . S
C603 H591 0.929 . S
C603 C597 1.390 . S
C603 C600 1.386 . S
C604 C599 1.490 . S
C604 C606 1.395 . S
C604 C607 1.403 . S
H605 C611 0.930 . S
C606 H592 0.930 . S
C606 C604 1.395 . S
C606 C609 1.403 . S
C607 C604 1.403 . S
C607 C608 1.524 . S
C607 C611 1.400 . S
C608 H593 0.960 . S
C608 H594 0.960 . S
C608 H595 0.960 . S
C608 C607 1.524 . S
C609 C606 1.403 . S
C609 C610 1.392 . S
C609 C613 1.495 . S
C610 C609 1.392 . S
C610 C611 1.385 . S
C610 C612 1.478 . S
C611 H605 0.930 . S
C611 C607 1.400 . S
C611 C610 1.385 . S
C612 C610 1.478 . S
C612 C614 1.381 . S
C612 C618 1.383 . S
C613 C609 1.495 . S
C613 H619 0.959 . S
C613 H620 0.961 . S
C613 H621 0.960 . S
C614 C612 1.381 . S
C614 C615 1.394 . S
C614 H622 0.930 . S
C615 C614 1.394 . S
C615 C616 1.383 . S
C615 H623 0.929 . S
C616 C615 1.383 . S
C616 C617 1.377 . S
C617 H601 0.930 . S
C617 C616 1.377 . S
C617 C618 1.379 . S
C618 H602 0.931 . S
C618 C612 1.383 . S
C618 C617 1.379 . S
H619 C613 0.959 . S
H620 C613 0.961 . S
H621 C613 0.960 . S
H622 C614 0.930 . S
H623 C615 0.929 . S
H624 C632 0.929 . S
H625 C634 0.930 . S
H626 C636 0.930 . S
H627 C639 0.929 . S
H628 C642 0.930 . S
H629 C644 0.960 . S
H630 C644 0.960 . S
H631 C644 0.960 . S
C632 H624 0.929 . S
C632 C633 1.377 . S
C632 C634 1.384 . S
C633 C632 1.377 . S
C633 C639 1.390 . S
C634 H625 0.930 . S
C634 C632 1.384 . S
C634 C635 1.372 . S
C635 C634 1.372 . S
C635 C636 1.400 . S
C635 C640 1.490 . S
C636 H626 0.930 . S
C636 C635 1.400 . S
C636 C639 1.386 . S
H637 C653 0.930 1_655 S
H638 C654 0.931 . S
C639 H627 0.929 . S
C639 C633 1.390 . S
C639 C636 1.386 . S
C640 C635 1.490 . S
C640 C642 1.395 . S
C640 C643 1.403 . S
H641 C647 0.930 . S
C642 H628 0.930 . S
C642 C640 1.395 . S
C642 C645 1.403 . S
C643 C640 1.403 . S
C643 C644 1.524 . S
C643 C647 1.400 . S
C644 H629 0.960 . S
C644 H630 0.960 . S
C644 H631 0.960 . S
C644 C643 1.524 . S
C645 C642 1.403 . S
C645 C646 1.392 . S
C645 C649 1.495 . S
C646 C645 1.392 . S
C646 C647 1.385 . S
C646 C648 1.478 . S
C647 H641 0.930 . S
C647 C643 1.400 . S
C647 C646 1.385 . S
C648 C646 1.478 . S
C648 C650 1.381 . S
C648 C654 1.383 . S
C649 C645 1.495 . S
C649 H655 0.959 . S
C649 H656 0.961 . S
C649 H657 0.960 . S
C650 C648 1.381 . S
C650 C651 1.394 . S
C650 H658 0.930 . S
C651 C650 1.394 . S
C651 C652 1.383 1_455 S
C651 H659 0.929 . S
C652 C651 1.383 1_655 S
C652 C653 1.377 1_655 S
C653 H637 0.930 1_455 S
C653 C652 1.377 1_455 S
C653 C654 1.379 . S
C654 H638 0.931 . S
C654 C648 1.383 . S
C654 C653 1.379 . S
H655 C649 0.959 . S
H656 C649 0.961 . S
H657 C649 0.960 . S
H658 C650 0.930 . S
H659 C651 0.929 . S
H660 C668 0.929 . S
H661 C670 0.930 . S
H662 C672 0.930 . S
H663 C675 0.929 . S
H664 C678 0.930 . S
H665 C680 0.960 . S
H666 C680 0.960 . S
H667 C680 0.960 . S
C668 H660 0.929 . S
C668 C669 1.377 . S
C668 C670 1.384 . S
C669 C668 1.377 . S
C669 C675 1.390 . S
C670 H661 0.930 . S
C670 C668 1.384 . S
C670 C671 1.372 . S
C671 C670 1.372 . S
C671 C672 1.400 . S
C671 C676 1.490 1_655 S
C672 H662 0.930 . S
C672 C671 1.400 . S
C672 C675 1.386 . S
H673 C689 0.930 1_545 S
H674 C690 0.931 . S
C675 H663 0.929 . S
C675 C669 1.390 . S
C675 C672 1.386 . S
C676 C671 1.490 1_455 S
C676 C678 1.395 . S
C676 C679 1.403 . S
H677 C683 0.930 . S
C678 H664 0.930 . S
C678 C676 1.395 . S
C678 C681 1.403 . S
C679 C676 1.403 . S
C679 C680 1.524 . S
C679 C683 1.400 . S
C680 H665 0.960 . S
C680 H666 0.960 . S
C680 H667 0.960 . S
C680 C679 1.524 . S
C681 C678 1.403 . S
C681 C682 1.392 . S
C681 C685 1.495 . S
C682 C681 1.392 . S
C682 C683 1.385 . S
C682 C684 1.478 . S
C683 H677 0.930 . S
C683 C679 1.400 . S
C683 C682 1.385 . S
C684 C682 1.478 . S
C684 C686 1.381 . S
C684 C690 1.383 . S
C685 C681 1.495 . S
C685 H691 0.959 . S
C685 H692 0.961 . S
C685 H693 0.960 . S
C686 C684 1.381 . S
C686 C687 1.394 . S
C686 H694 0.930 . S
C687 C686 1.394 . S
C687 C688 1.383 1_565 S
C687 H695 0.929 1_565 S
C688 C687 1.383 1_545 S
C688 C689 1.377 1_545 S
C689 H673 0.930 1_565 S
C689 C688 1.377 1_565 S
C689 C690 1.379 . S
C690 H674 0.931 . S
C690 C684 1.383 . S
C690 C689 1.379 . S
H691 C685 0.959 . S
H692 C685 0.961 . S
H693 C685 0.960 . S
H694 C686 0.930 . S
H695 C687 0.929 1_545 S
H696 C704 0.929 . S
H697 C706 0.930 . S
H698 C708 0.930 . S
H699 C711 0.929 . S
H700 C714 0.930 . S
H701 C716 0.960 . S
H702 C716 0.960 1_545 S
H703 C716 0.960 1_545 S
C704 H696 0.929 . S
C704 C705 1.377 . S
C704 C706 1.384 . S
C705 C704 1.377 . S
C705 C711 1.390 . S
C706 H697 0.930 . S
C706 C704 1.384 . S
C706 C707 1.372 . S
C707 C706 1.372 . S
C707 C708 1.400 . S
C707 C712 1.490 1_545 S
C708 H698 0.930 . S
C708 C707 1.400 . S
C708 C711 1.386 . S
H709 C725 0.930 . S
H710 C726 0.931 . S
C711 H699 0.929 . S
C711 C705 1.390 . S
C711 C708 1.386 . S
C712 C707 1.490 1_565 S
C712 C714 1.395 . S
C712 C715 1.403 . S
H713 C719 0.930 . S
C714 H700 0.930 . S
C714 C712 1.395 . S
C714 C717 1.403 . S
C715 C712 1.403 . S
C715 C716 1.524 . S
C715 C719 1.400 . S
C716 H701 0.960 . S
C716 H702 0.960 1_565 S
C716 H703 0.960 1_565 S
C716 C715 1.524 . S
C717 C714 1.403 . S
C717 C718 1.392 . S
C717 C721 1.495 . S
C718 C717 1.392 . S
C718 C719 1.385 . S
C718 C720 1.478 . S
C719 H713 0.930 . S
C719 C715 1.400 . S
C719 C718 1.385 . S
C720 C718 1.478 . S
C720 C722 1.381 . S
C720 C726 1.383 . S
C721 C717 1.495 . S
C721 H727 0.959 . S
C721 H728 0.961 . S
C721 H729 0.960 . S
C722 C720 1.381 . S
C722 C723 1.394 . S
C722 H730 0.930 . S
C723 C722 1.394 . S
C723 C724 1.383 . S
C723 H731 0.929 . S
C724 C723 1.383 . S
C724 C725 1.377 . S
C725 H709 0.930 . S
C725 C724 1.377 . S
C725 C726 1.379 . S
C726 H710 0.931 . S
C726 C720 1.383 . S
C726 C725 1.379 . S
H727 C721 0.959 . S
H728 C721 0.961 . S
H729 C721 0.960 . S
H730 C722 0.930 . S
H731 C723 0.929 . S
H732 C740 0.929 . S
H733 C742 0.930 . S
H734 C744 0.930 . S
H735 C747 0.929 . S
H736 C750 0.930 . S
H737 C752 0.960 . S
H738 C752 0.960 . S
H739 C752 0.960 . S
C740 H732 0.929 . S
C740 C741 1.377 . S
C740 C742 1.384 . S
C741 C740 1.377 . S
C741 C747 1.390 . S
C742 H733 0.930 . S
C742 C740 1.384 . S
C742 C743 1.372 . S
C743 C742 1.372 . S
C743 C744 1.400 . S
C743 C748 1.490 . S
C744 H734 0.930 . S
C744 C743 1.400 . S
C744 C747 1.386 . S
H745 C761 0.930 . S
H746 C762 0.931 . S
C747 H735 0.929 . S
C747 C741 1.390 . S
C747 C744 1.386 . S
C748 C743 1.490 . S
C748 C750 1.395 . S
C748 C751 1.403 . S
H749 C755 0.930 . S
C750 H736 0.930 . S
C750 C748 1.395 . S
C750 C753 1.403 . S
C751 C748 1.403 . S
C751 C752 1.524 . S
C751 C755 1.400 . S
C752 H737 0.960 . S
C752 H738 0.960 . S
C752 H739 0.960 . S
C752 C751 1.524 . S
C753 C750 1.403 . S
C753 C754 1.392 . S
C753 C757 1.495 . S
C754 C753 1.392 . S
C754 C755 1.385 . S
C754 C756 1.478 . S
C755 H749 0.930 . S
C755 C751 1.400 . S
C755 C754 1.385 . S
C756 C754 1.478 . S
C756 C758 1.381 . S
C756 C762 1.383 . S
C757 C753 1.495 . S
C757 H763 0.959 . S
C757 H764 0.961 . S
C757 H765 0.960 . S
C758 C756 1.381 . S
C758 C759 1.394 . S
C758 H766 0.930 . S
C759 C758 1.394 . S
C759 C760 1.383 1_545 S
C759 H767 0.929 . S
C760 C759 1.383 1_565 S
C760 C761 1.377 . S
C761 H745 0.930 . S
C761 C760 1.377 . S
C761 C762 1.379 1_565 S
C762 H746 0.931 . S
C762 C756 1.383 . S
C762 C761 1.379 1_545 S
H763 C757 0.959 . S
H764 C757 0.961 . S
H765 C757 0.960 . S
H766 C758 0.930 . S
H767 C759 0.929 . S
H768 C776 0.929 . S
H769 C778 0.930 . S
H770 C780 0.930 . S
H771 C783 0.929 . S
H772 C786 0.930 . S
H773 C788 0.960 . S
H774 C788 0.953 1_455 S
H775 C788 0.960 . S
C776 H768 0.929 . S
C776 C777 1.377 . S
C776 C778 1.384 . S
C777 C776 1.377 . S
C777 C783 1.390 . S
C778 H769 0.930 . S
C778 C776 1.384 . S
C778 C779 1.372 . S
C779 C778 1.372 . S
C779 C780 1.400 . S
C779 C784 1.490 1_455 S
C780 H770 0.930 . S
C780 C779 1.400 . S
C780 C783 1.386 . S
H781 C797 0.930 . S
H782 C798 0.931 . S
C783 H771 0.929 . S
C783 C777 1.390 . S
C783 C780 1.386 . S
C784 C779 1.490 1_655 S
C784 C786 1.395 . S
C784 C787 1.403 . S
H785 C791 0.930 . S
C786 H772 0.930 . S
C786 C784 1.395 . S
C786 C789 1.403 . S
C787 C784 1.403 . S
C787 C788 1.524 . S
C787 C791 1.400 . S
C788 H773 0.960 . S
C788 H774 0.953 1_655 S
C788 H775 0.960 . S
C788 C787 1.524 . S
C789 C786 1.403 . S
C789 C790 1.392 . S
C789 C793 1.495 . S
C790 C789 1.392 . S
C790 C791 1.385 . S
C790 C792 1.478 . S
C791 H785 0.930 . S
C791 C787 1.400 . S
C791 C790 1.385 . S
C792 C790 1.478 . S
C792 C794 1.381 . S
C792 C798 1.383 . S
C793 C789 1.495 . S
C793 H799 0.959 . S
C793 H800 0.961 . S
C793 H801 0.960 . S
C794 C792 1.381 . S
C794 C795 1.394 . S
C794 H802 0.930 . S
C795 C794 1.394 . S
C795 C796 1.383 . S
C795 H803 0.929 . S
C796 C795 1.383 . S
C796 C797 1.377 . S
C797 H781 0.930 . S
C797 C796 1.377 . S
C797 C798 1.379 . S
C798 H782 0.931 . S
C798 C792 1.383 . S
C798 C797 1.379 . S
H799 C793 0.959 . S
H800 C793 0.961 . S
H801 C793 0.960 . S
H802 C794 0.930 . S
H803 C795 0.929 . S
H804 C812 0.929 . S
H805 C814 0.930 . S
H806 C816 0.930 . S
H807 C819 0.929 1_455 S
H808 C822 0.930 . S
H809 C824 0.960 . S
H810 C824 0.960 . S
H811 C824 0.960 . S
C812 H804 0.929 . S
C812 C813 1.377 1_655 S
C812 C814 1.384 . S
C813 C812 1.377 1_455 S
C813 C819 1.390 1_455 S
C814 H805 0.930 . S
C814 C812 1.384 . S
C814 C815 1.372 . S
C815 C814 1.372 . S
C815 C816 1.400 . S
C815 C820 1.490 . S
C816 H806 0.930 . S
C816 C815 1.400 . S
C816 C819 1.386 . S
H817 C833 0.930 . S
H818 C834 0.931 . S
C819 H807 0.929 1_655 S
C819 C813 1.390 1_655 S
C819 C816 1.386 . S
C820 C815 1.490 . S
C820 C822 1.395 . S
C820 C823 1.403 . S
H821 C827 0.930 . S
C822 H808 0.930 . S
C822 C820 1.395 . S
C822 C825 1.403 . S
C823 C820 1.403 . S
C823 C824 1.524 . S
C823 C827 1.400 . S
C824 H809 0.960 . S
C824 H810 0.960 . S
C824 H811 0.960 . S
C824 C823 1.524 . S
C825 C822 1.403 . S
C825 C826 1.392 . S
C825 C829 1.495 . S
C826 C825 1.392 . S
C826 C827 1.385 . S
C826 C828 1.478 1_545 S
C827 H821 0.930 . S
C827 C823 1.400 . S
C827 C826 1.385 . S
C828 C826 1.478 1_565 S
C828 C830 1.381 . S
C828 C834 1.383 . S
C829 C825 1.495 . S
C829 H835 0.959 . S
C829 H836 0.961 1_545 S
C829 H837 0.960 1_545 S
C830 C828 1.381 . S
C830 C831 1.394 . S
C830 H838 0.930 . S
C831 C830 1.394 . S
C831 C832 1.383 . S
C831 H839 0.929 . S
C832 C831 1.383 . S
C832 C833 1.377 . S
C833 H817 0.930 . S
C833 C832 1.377 . S
C833 C834 1.379 . S
C834 H818 0.931 . S
C834 C828 1.383 . S
C834 C833 1.379 . S
H835 C829 0.959 . S
H836 C829 0.961 1_565 S
H837 C829 0.960 1_565 S
H838 C830 0.930 . S
H839 C831 0.929 . S
C201 N146 1.911 . S
C220 N13 1.894 . S
C237 N178 1.793 . S
C256 N45 1.787 . S
C273 N77 1.920 . S
C292 N114 1.937 . S
C309 N18 1.792 . S
C328 N141 1.802 . S
C345 N173 1.919 . S
C364 N50 1.913 . S
C381 N82 1.798 . S
C400 N109 1.791 . S
C417 C6 1.193 . S
C436 C93 1.194 . S
C453 C34 1.191 . S
C472 C29 1.191 . S
C489 C70 1.199 . S
C508 C36 1.213 . S
C525 C98 1.197 . S
C544 C132 1.204 . S
C561 C130 1.190 . S
C580 C189 1.191 . S
C597 C100 1.209 . S
C616 C166 1.196 . S
C633 C4 0.661 . S
C652 C66 0.711 . S
C669 C61 0.653 . S
C688 C2 0.619 . S
C705 C68 0.659 . S
C724 C38 0.704 . S
C741 C125 0.659 . S
C760 C134 0.705 . S
C777 C157 0.664 . S
C796 C162 0.684 . S
C813 C102 0.674 . S
C832 C164 0.683 . S
