# Generated by pormake.
# Topology vda, (6)-cn, num edge types: 1
# Building blocks:
#     Node 0, Type 0, BuildingBlock: OJICUG_clean_sbu_0, # of connection points: 6
#     Node 1, Type 0, BuildingBlock: OJICUG_clean_sbu_0, # of connection points: 6
#     Node 2, Type 0, BuildingBlock: OJICUG_clean_sbu_0, # of connection points: 6
#     Node 3, Type 0, BuildingBlock: OJICUG_clean_sbu_0, # of connection points: 6
#     Node 4, Type 0, BuildingBlock: OJICUG_clean_sbu_0, # of connection points: 6
#     Node 5, Type 0, BuildingBlock: OJICUG_clean_sbu_0, # of connection points: 6
#     Node 6, Type 0, BuildingBlock: OJICUG_clean_sbu_0, # of connection points: 6
#     Node 7, Type 0, BuildingBlock: OJICUG_clean_sbu_0, # of connection points: 6
#     Node 8, Type 0, BuildingBlock: OJICUG_clean_sbu_0, # of connection points: 6
#     Node 9, Type 0, BuildingBlock: OJICUG_clean_sbu_0, # of connection points: 6
#     Node 10, Type 0, BuildingBlock: OJICUG_clean_sbu_0, # of connection points: 6
#     Node 11, Type 0, BuildingBlock: OJICUG_clean_sbu_0, # of connection points: 6
#     Node 12, Type 0, BuildingBlock: OJICUG_clean_sbu_0, # of connection points: 6
#     Node 13, Type 0, BuildingBlock: OJICUG_clean_sbu_0, # of connection points: 6
#     Node 14, Type 0, BuildingBlock: OJICUG_clean_sbu_0, # of connection points: 6
#     Node 15, Type 0, BuildingBlock: OJICUG_clean_sbu_0, # of connection points: 6
#     Node 16, Type 0, BuildingBlock: OJICUG_clean_sbu_0, # of connection points: 6
#     Node 17, Type 0, BuildingBlock: OJICUG_clean_sbu_0, # of connection points: 6
#     Node 18, Type 0, BuildingBlock: OJICUG_clean_sbu_0, # of connection points: 6
#     Node 19, Type 0, BuildingBlock: OJICUG_clean_sbu_0, # of connection points: 6
#     Node 20, Type 0, BuildingBlock: OJICUG_clean_sbu_0, # of connection points: 6
#     Node 21, Type 0, BuildingBlock: OJICUG_clean_sbu_0, # of connection points: 6
#     Node 22, Type 0, BuildingBlock: OJICUG_clean_sbu_0, # of connection points: 6
#     Node 23, Type 0, BuildingBlock: OJICUG_clean_sbu_0, # of connection points: 6
#     Node 24, Type 0, BuildingBlock: OJICUG_clean_sbu_0, # of connection points: 6
#     Node 25, Type 0, BuildingBlock: OJICUG_clean_sbu_0, # of connection points: 6
#     Node 26, Type 0, BuildingBlock: OJICUG_clean_sbu_0, # of connection points: 6
#     Node 27, Type 0, BuildingBlock: OJICUG_clean_sbu_0, # of connection points: 6
#     Node 28, Type 0, BuildingBlock: OJICUG_clean_sbu_0, # of connection points: 6
#     Node 29, Type 0, BuildingBlock: OJICUG_clean_sbu_0, # of connection points: 6
#     Node 30, Type 0, BuildingBlock: OJICUG_clean_sbu_0, # of connection points: 6
#     Node 31, Type 0, BuildingBlock: OJICUG_clean_sbu_0, # of connection points: 6
#     Edge 32, Type (0, 0), BuildingBlock: XIVTED_clean_linker_0, # of connection points: 2
#     Edge 33, Type (0, 0), BuildingBlock: XIVTED_clean_linker_0, # of connection points: 2
#     Edge 34, Type (0, 0), BuildingBlock: XIVTED_clean_linker_0, # of connection points: 2
#     Edge 35, Type (0, 0), BuildingBlock: XIVTED_clean_linker_0, # of connection points: 2
#     Edge 36, Type (0, 0), BuildingBlock: XIVTED_clean_linker_0, # of connection points: 2
#     Edge 37, Type (0, 0), BuildingBlock: XIVTED_clean_linker_0, # of connection points: 2
#     Edge 38, Type (0, 0), BuildingBlock: XIVTED_clean_linker_0, # of connection points: 2
#     Edge 39, Type (0, 0), BuildingBlock: XIVTED_clean_linker_0, # of connection points: 2
#     Edge 40, Type (0, 0), BuildingBlock: XIVTED_clean_linker_0, # of connection points: 2
#     Edge 41, Type (0, 0), BuildingBlock: XIVTED_clean_linker_0, # of connection points: 2
#     Edge 42, Type (0, 0), BuildingBlock: XIVTED_clean_linker_0, # of connection points: 2
#     Edge 43, Type (0, 0), BuildingBlock: XIVTED_clean_linker_0, # of connection points: 2
#     Edge 44, Type (0, 0), BuildingBlock: XIVTED_clean_linker_0, # of connection points: 2
#     Edge 45, Type (0, 0), BuildingBlock: XIVTED_clean_linker_0, # of connection points: 2
#     Edge 46, Type (0, 0), BuildingBlock: XIVTED_clean_linker_0, # of connection points: 2
#     Edge 47, Type (0, 0), BuildingBlock: XIVTED_clean_linker_0, # of connection points: 2
#     Edge 48, Type (0, 0), BuildingBlock: XIVTED_clean_linker_0, # of connection points: 2
#     Edge 49, Type (0, 0), BuildingBlock: XIVTED_clean_linker_0, # of connection points: 2
#     Edge 50, Type (0, 0), BuildingBlock: XIVTED_clean_linker_0, # of connection points: 2
#     Edge 51, Type (0, 0), BuildingBlock: XIVTED_clean_linker_0, # of connection points: 2
#     Edge 52, Type (0, 0), BuildingBlock: XIVTED_clean_linker_0, # of connection points: 2
#     Edge 53, Type (0, 0), BuildingBlock: XIVTED_clean_linker_0, # of connection points: 2
#     Edge 54, Type (0, 0), BuildingBlock: XIVTED_clean_linker_0, # of connection points: 2
#     Edge 55, Type (0, 0), BuildingBlock: XIVTED_clean_linker_0, # of connection points: 2
#     Edge 56, Type (0, 0), BuildingBlock: XIVTED_clean_linker_0, # of connection points: 2
#     Edge 57, Type (0, 0), BuildingBlock: XIVTED_clean_linker_0, # of connection points: 2
#     Edge 58, Type (0, 0), BuildingBlock: XIVTED_clean_linker_0, # of connection points: 2
#     Edge 59, Type (0, 0), BuildingBlock: XIVTED_clean_linker_0, # of connection points: 2
#     Edge 60, Type (0, 0), BuildingBlock: XIVTED_clean_linker_0, # of connection points: 2
#     Edge 61, Type (0, 0), BuildingBlock: XIVTED_clean_linker_0, # of connection points: 2
#     Edge 62, Type (0, 0), BuildingBlock: XIVTED_clean_linker_0, # of connection points: 2
#     Edge 63, Type (0, 0), BuildingBlock: XIVTED_clean_linker_0, # of connection points: 2
#     Edge 64, Type (0, 0), BuildingBlock: XIVTED_clean_linker_0, # of connection points: 2
#     Edge 65, Type (0, 0), BuildingBlock: XIVTED_clean_linker_0, # of connection points: 2
#     Edge 66, Type (0, 0), BuildingBlock: XIVTED_clean_linker_0, # of connection points: 2
#     Edge 67, Type (0, 0), BuildingBlock: XIVTED_clean_linker_0, # of connection points: 2
#     Edge 68, Type (0, 0), BuildingBlock: XIVTED_clean_linker_0, # of connection points: 2
#     Edge 69, Type (0, 0), BuildingBlock: XIVTED_clean_linker_0, # of connection points: 2
#     Edge 70, Type (0, 0), BuildingBlock: XIVTED_clean_linker_0, # of connection points: 2
#     Edge 71, Type (0, 0), BuildingBlock: XIVTED_clean_linker_0, # of connection points: 2
#     Edge 72, Type (0, 0), BuildingBlock: XIVTED_clean_linker_0, # of connection points: 2
#     Edge 73, Type (0, 0), BuildingBlock: XIVTED_clean_linker_0, # of connection points: 2
#     Edge 74, Type (0, 0), BuildingBlock: XIVTED_clean_linker_0, # of connection points: 2
#     Edge 75, Type (0, 0), BuildingBlock: XIVTED_clean_linker_0, # of connection points: 2
#     Edge 76, Type (0, 0), BuildingBlock: XIVTED_clean_linker_0, # of connection points: 2
#     Edge 77, Type (0, 0), BuildingBlock: XIVTED_clean_linker_0, # of connection points: 2
#     Edge 78, Type (0, 0), BuildingBlock: XIVTED_clean_linker_0, # of connection points: 2
#     Edge 79, Type (0, 0), BuildingBlock: XIVTED_clean_linker_0, # of connection points: 2
#     Edge 80, Type (0, 0), BuildingBlock: XIVTED_clean_linker_0, # of connection points: 2
#     Edge 81, Type (0, 0), BuildingBlock: XIVTED_clean_linker_0, # of connection points: 2
#     Edge 82, Type (0, 0), BuildingBlock: XIVTED_clean_linker_0, # of connection points: 2
#     Edge 83, Type (0, 0), BuildingBlock: XIVTED_clean_linker_0, # of connection points: 2
#     Edge 84, Type (0, 0), BuildingBlock: XIVTED_clean_linker_0, # of connection points: 2
#     Edge 85, Type (0, 0), BuildingBlock: XIVTED_clean_linker_0, # of connection points: 2
#     Edge 86, Type (0, 0), BuildingBlock: XIVTED_clean_linker_0, # of connection points: 2
#     Edge 87, Type (0, 0), BuildingBlock: XIVTED_clean_linker_0, # of connection points: 2
#     Edge 88, Type (0, 0), BuildingBlock: XIVTED_clean_linker_0, # of connection points: 2
#     Edge 89, Type (0, 0), BuildingBlock: XIVTED_clean_linker_0, # of connection points: 2
#     Edge 90, Type (0, 0), BuildingBlock: XIVTED_clean_linker_0, # of connection points: 2
#     Edge 91, Type (0, 0), BuildingBlock: XIVTED_clean_linker_0, # of connection points: 2
#     Edge 92, Type (0, 0), BuildingBlock: XIVTED_clean_linker_0, # of connection points: 2
#     Edge 93, Type (0, 0), BuildingBlock: XIVTED_clean_linker_0, # of connection points: 2
#     Edge 94, Type (0, 0), BuildingBlock: XIVTED_clean_linker_0, # of connection points: 2
#     Edge 95, Type (0, 0), BuildingBlock: XIVTED_clean_linker_0, # of connection points: 2
#     Edge 96, Type (0, 0), BuildingBlock: XIVTED_clean_linker_0, # of connection points: 2
#     Edge 97, Type (0, 0), BuildingBlock: XIVTED_clean_linker_0, # of connection points: 2
#     Edge 98, Type (0, 0), BuildingBlock: XIVTED_clean_linker_0, # of connection points: 2
#     Edge 99, Type (0, 0), BuildingBlock: XIVTED_clean_linker_0, # of connection points: 2
#     Edge 100, Type (0, 0), BuildingBlock: XIVTED_clean_linker_0, # of connection points: 2
#     Edge 101, Type (0, 0), BuildingBlock: XIVTED_clean_linker_0, # of connection points: 2
#     Edge 102, Type (0, 0), BuildingBlock: XIVTED_clean_linker_0, # of connection points: 2
#     Edge 103, Type (0, 0), BuildingBlock: XIVTED_clean_linker_0, # of connection points: 2
#     Edge 104, Type (0, 0), BuildingBlock: XIVTED_clean_linker_0, # of connection points: 2
#     Edge 105, Type (0, 0), BuildingBlock: XIVTED_clean_linker_0, # of connection points: 2
#     Edge 106, Type (0, 0), BuildingBlock: XIVTED_clean_linker_0, # of connection points: 2
#     Edge 107, Type (0, 0), BuildingBlock: XIVTED_clean_linker_0, # of connection points: 2
#     Edge 108, Type (0, 0), BuildingBlock: XIVTED_clean_linker_0, # of connection points: 2
#     Edge 109, Type (0, 0), BuildingBlock: XIVTED_clean_linker_0, # of connection points: 2
#     Edge 110, Type (0, 0), BuildingBlock: XIVTED_clean_linker_0, # of connection points: 2
#     Edge 111, Type (0, 0), BuildingBlock: XIVTED_clean_linker_0, # of connection points: 2
#     Edge 112, Type (0, 0), BuildingBlock: XIVTED_clean_linker_0, # of connection points: 2
#     Edge 113, Type (0, 0), BuildingBlock: XIVTED_clean_linker_0, # of connection points: 2
#     Edge 114, Type (0, 0), BuildingBlock: XIVTED_clean_linker_0, # of connection points: 2
#     Edge 115, Type (0, 0), BuildingBlock: XIVTED_clean_linker_0, # of connection points: 2
#     Edge 116, Type (0, 0), BuildingBlock: XIVTED_clean_linker_0, # of connection points: 2
#     Edge 117, Type (0, 0), BuildingBlock: XIVTED_clean_linker_0, # of connection points: 2
#     Edge 118, Type (0, 0), BuildingBlock: XIVTED_clean_linker_0, # of connection points: 2
#     Edge 119, Type (0, 0), BuildingBlock: XIVTED_clean_linker_0, # of connection points: 2
#     Edge 120, Type (0, 0), BuildingBlock: XIVTED_clean_linker_0, # of connection points: 2
#     Edge 121, Type (0, 0), BuildingBlock: XIVTED_clean_linker_0, # of connection points: 2
#     Edge 122, Type (0, 0), BuildingBlock: XIVTED_clean_linker_0, # of connection points: 2
#     Edge 123, Type (0, 0), BuildingBlock: XIVTED_clean_linker_0, # of connection points: 2
#     Edge 124, Type (0, 0), BuildingBlock: XIVTED_clean_linker_0, # of connection points: 2
#     Edge 125, Type (0, 0), BuildingBlock: XIVTED_clean_linker_0, # of connection points: 2
#     Edge 126, Type (0, 0), BuildingBlock: XIVTED_clean_linker_0, # of connection points: 2
#     Edge 127, Type (0, 0), BuildingBlock: XIVTED_clean_linker_0, # of connection points: 2
# Relax obj value: 0.394
# Max RMSD: 0.262
# Mean RMSD: 0.262
data_MOF--net-vda--node1-OJICUG_clean_sbu_0--edge1-XIVTED_clean_linker_0
_symmetry_space_group_name_H-M    P1
_symmetry_Int_Tables_number       1
_symmetry_cell_setting            triclinic
loop_
_symmetry_equiv_pos_as_xyz
'x, y, z'
_cell_length_a     53.052703
_cell_length_b     33.664203
_cell_length_c     62.044474
_cell_angle_alpha  90.001796
_cell_angle_beta   90.000613
_cell_angle_gamma 89.998482
loop_
_atom_site_label
_atom_site_type_symbol
_atom_site_fract_x
_atom_site_fract_y
_atom_site_fract_z
_atom_type_partial_charge
Sc0 Sc 0.36735 0.07535 0.98256 0.0
Sc1 Sc 0.39091 0.10688 0.03122 0.0
Sc2 Sc 0.34708 0.1655 0.00441 0.0
O3 O 0.36831 0.11612 0.00596 0.0
C4 C 0.36742 0.15413 0.95585 0.0
C5 C 0.42597 0.07639 0.9963 0.0
C6 C 0.39722 0.19977 0.02402 0.0
C7 C 0.37158 0.01896 0.02111 0.0
C8 C 0.30928 0.10157 0.98626 0.0
C9 C 0.34163 0.13541 0.05326 0.0
O10 O 0.37656 0.11977 0.9592 0.0
O11 O 0.42305 0.10259 0.01079 0.0
O12 O 0.38014 0.2026 0.00967 0.0
O13 O 0.3583 0.02898 0.00498 0.0
O14 O 0.31329 0.13092 0.99876 0.0
O15 O 0.35913 0.10988 0.0518 0.0
O16 O 0.32713 0.08273 0.977 0.0
O17 O 0.38661 0.04293 0.03036 0.0
O18 O 0.33785 0.16242 0.03907 0.0
O19 O 0.40736 0.06135 0.98609 0.0
O20 O 0.35367 0.17242 0.96961 0.0
O21 O 0.39941 0.1691 0.03583 0.0
Sc22 Sc 0.91432 0.08138 0.00375 0.0
Sc23 Sc 0.86993 0.1393 0.03041 0.0
Sc24 Sc 0.89389 0.1716 0.98202 0.0
O25 O 0.89286 0.13056 0.00529 0.0
C26 C 0.95204 0.14579 0.98592 0.0
C27 C 0.91922 0.11115 0.05271 0.0
C28 C 0.88895 0.22756 0.02071 0.0
C29 C 0.86408 0.04642 0.02294 0.0
C30 C 0.89428 0.09294 0.95514 0.0
C31 C 0.83513 0.17001 0.99534 0.0
O32 O 0.94805 0.11622 0.99827 0.0
O33 O 0.90148 0.13627 0.05123 0.0
O34 O 0.90244 0.21794 0.00463 0.0
O35 O 0.88141 0.04384 0.00879 0.0
O36 O 0.88512 0.1273 0.95848 0.0
O37 O 0.83797 0.14367 0.00978 0.0
O38 O 0.90792 0.07457 0.96894 0.0
O39 O 0.86154 0.07701 0.03475 0.0
O40 O 0.85381 0.18513 0.98527 0.0
O41 O 0.92337 0.08442 0.03844 0.0
O42 O 0.93419 0.16473 0.97673 0.0
O43 O 0.87403 0.20322 0.0298 0.0
Sc44 Sc 0.36777 0.1714 0.27432 0.0
Sc45 Sc 0.39124 0.14014 0.22558 0.0
Sc46 Sc 0.34737 0.08149 0.2523 0.0
O47 O 0.36865 0.13081 0.25084 0.0
C48 C 0.3677 0.09245 0.30088 0.0
C49 C 0.42639 0.17011 0.26057 0.0
C50 C 0.39744 0.0472 0.2326 0.0
C51 C 0.37208 0.22807 0.23588 0.0
C52 C 0.30966 0.14552 0.27052 0.0
C53 C 0.34191 0.11196 0.20351 0.0
O54 O 0.3769 0.12679 0.2976 0.0
O55 O 0.4234 0.14409 0.246 0.0
O56 O 0.38039 0.04434 0.24698 0.0
O57 O 0.35881 0.21799 0.25201 0.0
O58 O 0.31363 0.11619 0.25799 0.0
O59 O 0.35943 0.13745 0.20502 0.0
O60 O 0.32753 0.1642 0.27984 0.0
O61 O 0.38708 0.2041 0.22658 0.0
O62 O 0.33815 0.08482 0.21763 0.0
O63 O 0.40781 0.18518 0.27082 0.0
O64 O 0.35393 0.0743 0.28709 0.0
O65 O 0.39961 0.0779 0.22081 0.0
Sc66 Sc 0.91414 0.16626 0.25193 0.0
Sc67 Sc 0.87007 0.10782 0.22525 0.0
Sc68 Sc 0.8943 0.07554 0.27354 0.0
O69 O 0.89298 0.11675 0.25036 0.0
C70 C 0.95231 0.10203 0.2695 0.0
C71 C 0.91925 0.13637 0.20298 0.0
C72 C 0.88921 0.01963 0.23488 0.0
C73 C 0.86388 0.20067 0.23256 0.0
C74 C 0.89425 0.15423 0.30054 0.0
C75 C 0.83545 0.07697 0.26042 0.0
O76 O 0.94807 0.1319 0.25741 0.0
O77 O 0.90164 0.11102 0.20446 0.0
O78 O 0.90284 0.02933 0.25086 0.0
O79 O 0.88106 0.20342 0.24683 0.0
O80 O 0.88554 0.11959 0.29723 0.0
O81 O 0.83817 0.10327 0.24594 0.0
O82 O 0.90761 0.17307 0.28673 0.0
O83 O 0.86155 0.17001 0.22078 0.0
O84 O 0.8542 0.06191 0.27043 0.0
O85 O 0.92323 0.16321 0.21724 0.0
O86 O 0.93464 0.08257 0.2786 0.0
O87 O 0.87421 0.04393 0.22587 0.0
Sc88 Sc 0.66406 0.83185 1.00199 0.0
Sc89 Sc 0.61982 0.88967 0.9751 0.0
Sc90 Sc 0.64373 0.92234 0.02341 0.0
O91 O 0.64267 0.88107 1.00027 0.0
C92 C 0.64397 0.84406 0.05056 0.0
C93 C 0.61385 0.79685 0.98281 0.0
C94 C 0.585 0.92086 0.01001 0.0
C95 C 0.66908 0.8611 0.95294 0.0
C96 C 0.70183 0.89626 0.01968 0.0
C97 C 0.6391 0.97787 0.98454 0.0
O98 O 0.65762 0.82552 0.03684 0.0
O99 O 0.61136 0.82737 0.97093 0.0
O100 O 0.60368 0.93614 0.02001 0.0
O101 O 0.67314 0.83447 0.96729 0.0
O102 O 0.684 0.91527 0.02885 0.0
O103 O 0.62403 0.95363 0.97554 0.0
O104 O 0.69781 0.86667 0.00736 0.0
O105 O 0.65141 0.88634 0.95433 0.0
O106 O 0.65253 0.96826 1.00065 0.0
O107 O 0.63112 0.79436 0.99701 0.0
O108 O 0.63477 0.87835 0.04709 0.0
O109 O 0.58784 0.89429 0.9957 0.0
Sc110 Sc 0.11779 0.82511 0.02398 0.0
Sc111 Sc 0.14183 0.85735 0.97564 0.0
Sc112 Sc 0.09728 0.91514 1.00212 0.0
O113 O 0.1188 0.86606 1.00068 0.0
C114 C 0.05962 0.85067 0.01991 0.0
C115 C 0.12297 0.76901 0.98544 0.0
C116 C 0.0926 0.88511 0.95317 0.0
C117 C 0.17657 0.82707 0.01079 0.0
C118 C 0.11717 0.9038 0.0508 0.0
C119 C 0.14747 0.95027 0.98299 0.0
O120 O 0.07746 0.83189 0.02921 0.0
O121 O 0.13796 0.79333 0.97639 0.0
O122 O 0.08841 0.91193 0.96739 0.0
O123 O 0.1579 0.81166 0.02076 0.0
O124 O 0.10352 0.92204 0.03696 0.0
O125 O 0.15002 0.91969 0.97117 0.0
O126 O 0.12647 0.86952 0.04749 0.0
O127 O 0.17368 0.85351 0.99643 0.0
O128 O 0.13015 0.95278 0.99715 0.0
O129 O 0.10932 0.77873 1.00139 0.0
O130 O 0.06361 0.88016 0.00751 0.0
O131 O 0.11033 0.85998 0.95474 0.0
Sc132 Sc 0.66395 0.91521 0.75368 0.0
Sc133 Sc 0.61997 0.85639 0.78032 0.0
Sc134 Sc 0.6439 0.82497 0.73175 0.0
O135 O 0.64275 0.86575 0.75516 0.0
C136 C 0.64351 0.90391 0.70517 0.0
C137 C 0.61355 0.94938 0.77308 0.0
C138 C 0.58524 0.82522 0.74532 0.0
C139 C 0.66916 0.88527 0.8026 0.0
C140 C 0.70188 0.85147 0.73548 0.0
C141 C 0.63982 0.76862 0.77035 0.0
O142 O 0.65724 0.92227 0.7189 0.0
O143 O 0.61102 0.91851 0.78469 0.0
O144 O 0.60397 0.81048 0.73516 0.0
O145 O 0.67321 0.91201 0.78832 0.0
O146 O 0.68407 0.83262 0.72619 0.0
O147 O 0.62471 0.79251 0.77959 0.0
O148 O 0.69781 0.88075 0.74801 0.0
O149 O 0.65152 0.85998 0.80113 0.0
O150 O 0.65304 0.77868 0.75418 0.0
O151 O 0.63093 0.95236 0.759 0.0
O152 O 0.63456 0.86941 0.70846 0.0
O153 O 0.58797 0.85152 0.75978 0.0
Sc154 Sc 0.11789 0.92115 0.73217 0.0
Sc155 Sc 0.14115 0.88896 0.78083 0.0
Sc156 Sc 0.09715 0.83104 0.75383 0.0
O157 O 0.11856 0.88022 0.7555 0.0
C158 C 0.05965 0.89565 0.73584 0.0
C159 C 0.1227 0.97744 0.77073 0.0
C160 C 0.09173 0.86091 0.80275 0.0
C161 C 0.17648 0.91907 0.746 0.0
C162 C 0.11751 0.84244 0.70531 0.0
C163 C 0.14708 0.79615 0.77347 0.0
O164 O 0.07758 0.9145 0.72671 0.0
O165 O 0.1373 0.95291 0.78005 0.0
O166 O 0.08791 0.834 0.7885 0.0
O167 O 0.15799 0.93433 0.73572 0.0
O168 O 0.10372 0.82418 0.71904 0.0
O169 O 0.14922 0.82662 0.78543 0.0
O170 O 0.12675 0.87671 0.70871 0.0
O171 O 0.17337 0.89286 0.76046 0.0
O172 O 0.13009 0.79361 0.75903 0.0
O173 O 0.10932 0.96779 0.75458 0.0
O174 O 0.06351 0.86602 0.74819 0.0
O175 O 0.10929 0.88634 0.80131 0.0
Sc176 Sc 0.36788 0.5751 0.48207 0.0
Sc177 Sc 0.39201 0.60683 0.53048 0.0
Sc178 Sc 0.34791 0.66543 0.50402 0.0
O179 O 0.3691 0.61599 0.5054 0.0
C180 C 0.36775 0.65402 0.45533 0.0
C181 C 0.42668 0.57664 0.49529 0.0
C182 C 0.39809 0.69975 0.52351 0.0
C183 C 0.37298 0.5187 0.52049 0.0
C184 C 0.30984 0.60134 0.48623 0.0
C185 C 0.34278 0.63479 0.55281 0.0
O186 O 0.37665 0.61946 0.45854 0.0
O187 O 0.42387 0.60298 0.50973 0.0
O188 O 0.38098 0.70258 0.50919 0.0
O189 O 0.35929 0.52865 0.50459 0.0
O190 O 0.31405 0.631 0.49847 0.0
O191 O 0.36038 0.60945 0.55124 0.0
O192 O 0.32753 0.58215 0.47697 0.0
O193 O 0.38804 0.54287 0.52955 0.0
O194 O 0.33887 0.66194 0.53871 0.0
O195 O 0.40798 0.56143 0.48526 0.0
O196 O 0.35433 0.67256 0.46922 0.0
O197 O 0.40034 0.66904 0.53527 0.0
Sc198 Sc 0.91362 0.58018 0.50362 0.0
Sc199 Sc 0.86967 0.63895 0.53031 0.0
Sc200 Sc 0.89403 0.671 0.48203 0.0
O201 O 0.89258 0.62981 0.50521 0.0
C202 C 0.95192 0.64403 0.48597 0.0
C203 C 0.9188 0.60994 0.55257 0.0
C204 C 0.88948 0.72685 0.52075 0.0
C205 C 0.86319 0.54606 0.5229 0.0
C206 C 0.89356 0.59238 0.45504 0.0
C207 C 0.83522 0.67047 0.49525 0.0
O208 O 0.9476 0.61433 0.49814 0.0
O209 O 0.90118 0.63527 0.55115 0.0
O210 O 0.90298 0.71692 0.50474 0.0
O211 O 0.88051 0.54317 0.50877 0.0
O212 O 0.88491 0.62706 0.45839 0.0
O213 O 0.83784 0.64392 0.50959 0.0
O214 O 0.90697 0.5735 0.46881 0.0
O215 O 0.86074 0.57682 0.5346 0.0
O216 O 0.85404 0.68538 0.48526 0.0
O217 O 0.92281 0.58317 0.53829 0.0
O218 O 0.93429 0.66345 0.47678 0.0
O219 O 0.87426 0.70285 0.52976 0.0
Sc220 Sc 0.36696 0.67216 0.77304 0.0
Sc221 Sc 0.39107 0.63928 0.72477 0.0
Sc222 Sc 0.34719 0.58101 0.75185 0.0
O223 O 0.36826 0.63063 0.74999 0.0
C224 C 0.3673 0.59377 0.80033 0.0
C225 C 0.42574 0.6711 0.75974 0.0
C226 C 0.39759 0.54654 0.73265 0.0
C227 C 0.3717 0.72763 0.73408 0.0
C228 C 0.30898 0.6453 0.76927 0.0
C229 C 0.34186 0.60992 0.70278 0.0
O230 O 0.37589 0.62844 0.79687 0.0
O231 O 0.42305 0.64471 0.74531 0.0
O232 O 0.38027 0.54388 0.7468 0.0
O233 O 0.35833 0.71816 0.75026 0.0
O234 O 0.31324 0.61527 0.75731 0.0
O235 O 0.3595 0.63524 0.70402 0.0
O236 O 0.32665 0.66502 0.77822 0.0
O237 O 0.3865 0.70313 0.72497 0.0
O238 O 0.33787 0.58343 0.7172 0.0
O239 O 0.40699 0.68602 0.76981 0.0
O240 O 0.35392 0.57469 0.78664 0.0
O241 O 0.40001 0.57709 0.72078 0.0
Sc242 Sc 0.91392 0.66509 0.75154 0.0
Sc243 Sc 0.86979 0.60688 0.72472 0.0
Sc244 Sc 0.89403 0.5743 0.77293 0.0
O245 O 0.89273 0.61566 0.74984 0.0
C246 C 0.95202 0.60088 0.76913 0.0
C247 C 0.91902 0.63563 0.70253 0.0
C248 C 0.8894 0.5188 0.73408 0.0
C249 C 0.86358 0.69974 0.73235 0.0
C250 C 0.89376 0.65272 0.80007 0.0
C251 C 0.83524 0.5754 0.75971 0.0
O252 O 0.94781 0.63065 0.75698 0.0
O253 O 0.90131 0.61045 0.70389 0.0
O254 O 0.90292 0.52855 0.75011 0.0
O255 O 0.88092 0.70238 0.74648 0.0
O256 O 0.88498 0.61815 0.79664 0.0
O257 O 0.83795 0.60207 0.74544 0.0
O258 O 0.90727 0.67156 0.78636 0.0
O259 O 0.86106 0.66911 0.72055 0.0
O260 O 0.85401 0.56016 0.76961 0.0
O261 O 0.92312 0.66227 0.71686 0.0
O262 O 0.93431 0.58156 0.77827 0.0
O263 O 0.87419 0.54291 0.72515 0.0
Sc264 Sc 0.66361 0.33055 0.50228 0.0
Sc265 Sc 0.61962 0.38926 0.47574 0.0
Sc266 Sc 0.64336 0.42051 0.52437 0.0
O267 O 0.64235 0.3799 0.5009 0.0
C268 C 0.64333 0.34151 0.55089 0.0
C269 C 0.61344 0.29631 0.48267 0.0
C270 C 0.58471 0.41952 0.51074 0.0
C271 C 0.6689 0.3612 0.4535 0.0
C272 C 0.70142 0.39441 0.52052 0.0
C273 C 0.63896 0.47714 0.48598 0.0
O274 O 0.65705 0.32332 0.53707 0.0
O275 O 0.61118 0.32708 0.47095 0.0
O276 O 0.60335 0.43459 0.52089 0.0
O277 O 0.67279 0.33407 0.46762 0.0
O278 O 0.68359 0.41312 0.52987 0.0
O279 O 0.62384 0.45323 0.47677 0.0
O280 O 0.69739 0.36514 0.50796 0.0
O281 O 0.65131 0.38655 0.45507 0.0
O282 O 0.65236 0.46699 0.50201 0.0
O283 O 0.63058 0.29339 0.49697 0.0
O284 O 0.63419 0.37591 0.54764 0.0
O285 O 0.58761 0.39319 0.49632 0.0
Sc286 Sc 0.11803 0.32479 0.52363 0.0
Sc287 Sc 0.14212 0.3565 0.4752 0.0
Sc288 Sc 0.09804 0.41508 0.50167 0.0
O289 O 0.11923 0.36565 0.50028 0.0
C290 C 0.05997 0.35097 0.51942 0.0
C291 C 0.12314 0.26835 0.48523 0.0
C292 C 0.09299 0.3847 0.45283 0.0
C293 C 0.17682 0.32629 0.51039 0.0
C294 C 0.11784 0.40373 0.55034 0.0
C295 C 0.14826 0.44937 0.48226 0.0
O296 O 0.07768 0.33186 0.52872 0.0
O297 O 0.13815 0.29254 0.47613 0.0
O298 O 0.08912 0.41179 0.46697 0.0
O299 O 0.15813 0.31112 0.52044 0.0
O300 O 0.10437 0.42217 0.53646 0.0
O301 O 0.15046 0.41872 0.47045 0.0
O302 O 0.12681 0.36921 0.54712 0.0
O303 O 0.174 0.35261 0.49594 0.0
O304 O 0.13115 0.45219 0.49659 0.0
O305 O 0.10946 0.27829 0.50113 0.0
O306 O 0.06417 0.38059 0.50715 0.0
O307 O 0.1105 0.3592 0.45443 0.0
Sc308 Sc 0.6638 0.41565 0.25434 0.0
Sc309 Sc 0.62011 0.35731 0.28153 0.0
Sc310 Sc 0.64412 0.32442 0.2333 0.0
O311 O 0.64282 0.36603 0.25626 0.0
C312 C 0.64358 0.40254 0.20587 0.0
C313 C 0.6136 0.45003 0.2738 0.0
C314 C 0.58538 0.32555 0.24674 0.0
C315 C 0.66935 0.38661 0.3034 0.0
C316 C 0.70204 0.35152 0.23687 0.0
C317 C 0.63967 0.26922 0.27229 0.0
O318 O 0.657 0.4217 0.21952 0.0
O319 O 0.6114 0.41952 0.28572 0.0
O320 O 0.60411 0.31031 0.23677 0.0
O321 O 0.67315 0.41327 0.28901 0.0
O322 O 0.68437 0.33184 0.22789 0.0
O323 O 0.6245 0.2934 0.2812 0.0
O324 O 0.69778 0.38146 0.24889 0.0
O325 O 0.65181 0.36112 0.30214 0.0
O326 O 0.65315 0.27888 0.25622 0.0
O327 O 0.63067 0.45265 0.25942 0.0
O328 O 0.63494 0.36793 0.20944 0.0
O329 O 0.58813 0.35225 0.26099 0.0
Sc330 Sc 0.11733 0.42251 0.23157 0.0
Sc331 Sc 0.14171 0.39101 0.27995 0.0
Sc332 Sc 0.09773 0.33199 0.25351 0.0
O333 O 0.11878 0.38161 0.25491 0.0
C334 C 0.05943 0.39566 0.23575 0.0
C335 C 0.12178 0.47878 0.27016 0.0
C336 C 0.09274 0.36193 0.30243 0.0
C337 C 0.17613 0.42217 0.24477 0.0
C338 C 0.11761 0.34363 0.20487 0.0
C339 C 0.14821 0.29804 0.27273 0.0
O340 O 0.07705 0.41483 0.22638 0.0
O341 O 0.13704 0.45494 0.27925 0.0
O342 O 0.08876 0.33508 0.28819 0.0
O343 O 0.15732 0.43701 0.23474 0.0
O344 O 0.10415 0.32506 0.21872 0.0
O345 O 0.15069 0.3289 0.28435 0.0
O346 O 0.12644 0.37823 0.2081 0.0
O347 O 0.1735 0.39578 0.25919 0.0
O348 O 0.13085 0.29503 0.25863 0.0
O349 O 0.10838 0.46869 0.25412 0.0
O350 O 0.06377 0.36619 0.24808 0.0
O351 O 0.11026 0.38742 0.30088 0.0
Sc352 Sc 0.86751 0.07411 0.48209 0.0
Sc353 Sc 0.8917 0.10568 0.53053 0.0
Sc354 Sc 0.84805 0.1649 0.50382 0.0
O355 O 0.86895 0.11512 0.50537 0.0
C356 C 0.86825 0.15293 0.45528 0.0
C357 C 0.92624 0.07423 0.49549 0.0
C358 C 0.8985 0.19855 0.52331 0.0
C359 C 0.87175 0.01794 0.52073 0.0
C360 C 0.80967 0.10134 0.48595 0.0
C361 C 0.84262 0.135 0.55273 0.0
O362 O 0.87683 0.11819 0.45858 0.0
O363 O 0.92362 0.10062 0.50992 0.0
O364 O 0.88128 0.20165 0.50909 0.0
O365 O 0.85839 0.02801 0.50465 0.0
O366 O 0.81399 0.13094 0.4982 0.0
O367 O 0.86012 0.10947 0.55129 0.0
O368 O 0.82729 0.08192 0.47675 0.0
O369 O 0.88694 0.04182 0.52985 0.0
O370 O 0.83877 0.16186 0.53846 0.0
O371 O 0.90745 0.05951 0.4854 0.0
O372 O 0.85481 0.17176 0.46904 0.0
O373 O 0.90076 0.16772 0.53498 0.0
Sc374 Sc 0.41372 0.08038 0.50427 0.0
Sc375 Sc 0.36959 0.13897 0.53071 0.0
Sc376 Sc 0.39387 0.17078 0.48237 0.0
O377 O 0.39256 0.12984 0.50567 0.0
C378 C 0.45187 0.1444 0.48658 0.0
C379 C 0.41865 0.11068 0.55316 0.0
C380 C 0.38877 0.22707 0.52081 0.0
C381 C 0.36345 0.04607 0.52358 0.0
C382 C 0.39399 0.09197 0.45556 0.0
C383 C 0.33504 0.16942 0.49549 0.0
O384 O 0.44762 0.1148 0.49885 0.0
O385 O 0.40113 0.13614 0.55156 0.0
O386 O 0.40248 0.21711 0.50494 0.0
O387 O 0.38062 0.04327 0.50931 0.0
O388 O 0.38505 0.12649 0.45881 0.0
O389 O 0.33779 0.143 0.50989 0.0
O390 O 0.40742 0.07341 0.46944 0.0
O391 O 0.36117 0.07675 0.53537 0.0
O392 O 0.35378 0.18461 0.48552 0.0
O393 O 0.42261 0.08364 0.53901 0.0
O394 O 0.4342 0.16358 0.47729 0.0
O395 O 0.37366 0.20293 0.52984 0.0
Sc396 Sc 0.86753 0.17203 0.77363 0.0
Sc397 Sc 0.89138 0.14002 0.72514 0.0
Sc398 Sc 0.84737 0.08162 0.75198 0.0
O399 O 0.86862 0.13101 0.75034 0.0
C400 C 0.86773 0.09343 0.80049 0.0
C401 C 0.92618 0.17148 0.76 0.0
C402 C 0.89773 0.04714 0.73269 0.0
C403 C 0.87166 0.22795 0.73484 0.0
C404 C 0.80951 0.14561 0.77001 0.0
C405 C 0.84214 0.11109 0.70299 0.0
O406 O 0.8768 0.12782 0.79709 0.0
O407 O 0.9234 0.14498 0.74565 0.0
O408 O 0.88037 0.04436 0.74681 0.0
O409 O 0.85844 0.21812 0.75105 0.0
O410 O 0.81354 0.11621 0.75755 0.0
O411 O 0.8598 0.13636 0.70439 0.0
O412 O 0.82734 0.16454 0.77922 0.0
O413 O 0.88674 0.20391 0.72568 0.0
O414 O 0.83811 0.08444 0.71733 0.0
O415 O 0.90747 0.18637 0.77014 0.0
O416 O 0.85401 0.07499 0.78678 0.0
O417 O 0.90023 0.07784 0.72094 0.0
Sc418 Sc 0.41379 0.16475 0.75253 0.0
Sc419 Sc 0.36953 0.10628 0.72606 0.0
Sc420 Sc 0.39358 0.07469 0.77453 0.0
O421 O 0.39244 0.11547 0.75113 0.0
C422 C 0.45163 0.10076 0.77059 0.0
C423 C 0.41868 0.13466 0.70362 0.0
C424 C 0.38919 0.01843 0.73594 0.0
C425 C 0.36348 0.19933 0.73325 0.0
C426 C 0.39364 0.15354 0.80117 0.0
C427 C 0.33487 0.0755 0.76115 0.0
O428 O 0.44757 0.13003 0.75805 0.0
O429 O 0.40102 0.10943 0.70516 0.0
O430 O 0.40253 0.02844 0.75204 0.0
O431 O 0.38086 0.20215 0.74735 0.0
O432 O 0.38447 0.11916 0.7979 0.0
O433 O 0.33765 0.10192 0.74677 0.0
O434 O 0.40735 0.17177 0.78735 0.0
O435 O 0.36086 0.16849 0.72163 0.0
O436 O 0.35359 0.06044 0.7712 0.0
O437 O 0.42283 0.16147 0.71784 0.0
O438 O 0.43381 0.08207 0.77998 0.0
O439 O 0.37398 0.04231 0.72682 0.0
Sc440 Sc 0.16382 0.82982 0.50192 0.0
Sc441 Sc 0.11994 0.88867 0.47535 0.0
Sc442 Sc 0.14414 0.92039 0.52376 0.0
O443 O 0.14278 0.87943 0.50046 0.0
C444 C 0.14409 0.84163 0.55061 0.0
C445 C 0.11351 0.79581 0.48255 0.0
C446 C 0.08534 0.91944 0.51053 0.0
C447 C 0.1689 0.85973 0.45298 0.0
C448 C 0.20209 0.8937 0.51958 0.0
C449 C 0.13927 0.97671 0.48526 0.0
O450 O 0.15749 0.82298 0.53675 0.0
O451 O 0.11131 0.82651 0.47077 0.0
O452 O 0.1041 0.93436 0.5206 0.0
O453 O 0.17273 0.83278 0.4672 0.0
O454 O 0.18445 0.91299 0.52885 0.0
O455 O 0.12423 0.95258 0.47614 0.0
O456 O 0.1978 0.86408 0.50733 0.0
O457 O 0.15152 0.88545 0.45455 0.0
O458 O 0.15285 0.96674 0.50121 0.0
O459 O 0.13062 0.79291 0.49687 0.0
O460 O 0.13522 0.87619 0.54732 0.0
O461 O 0.08805 0.89315 0.49605 0.0
Sc462 Sc 0.61736 0.82501 0.52397 0.0
Sc463 Sc 0.64157 0.85615 0.47547 0.0
Sc464 Sc 0.59783 0.91551 0.50196 0.0
O465 O 0.61878 0.86579 0.50058 0.0
C466 C 0.55949 0.85203 0.51995 0.0
C467 C 0.62171 0.76847 0.48552 0.0
C468 C 0.59247 0.88501 0.45316 0.0
C469 C 0.67612 0.82521 0.51062 0.0
C470 C 0.61795 0.90408 0.55055 0.0
C471 C 0.64822 0.94913 0.4824 0.0
O472 O 0.57711 0.83277 0.52925 0.0
O473 O 0.63693 0.79226 0.47637 0.0
O474 O 0.58861 0.91207 0.46731 0.0
O475 O 0.65733 0.81048 0.52072 0.0
O476 O 0.6045 0.92272 0.53672 0.0
O477 O 0.65052 0.91819 0.47082 0.0
O478 O 0.6266 0.86935 0.54735 0.0
O479 O 0.67347 0.8515 0.49614 0.0
O480 O 0.63101 0.9523 0.49662 0.0
O481 O 0.60829 0.77871 0.50153 0.0
O482 O 0.56381 0.88151 0.50762 0.0
O483 O 0.61 0.85955 0.4547 0.0
Sc484 Sc 0.16416 0.91626 0.25391 0.0
Sc485 Sc 0.1209 0.85822 0.28176 0.0
Sc486 Sc 0.14359 0.82552 0.23294 0.0
O487 O 0.14301 0.86681 0.25609 0.0
C488 C 0.1434 0.9037 0.20563 0.0
C489 C 0.11425 0.95082 0.27377 0.0
C490 C 0.08517 0.8271 0.24732 0.0
C491 C 0.17044 0.88767 0.3029 0.0
C492 C 0.20175 0.85168 0.23603 0.0
C493 C 0.13959 0.76973 0.27187 0.0
O494 O 0.15722 0.92234 0.21916 0.0
O495 O 0.11242 0.92058 0.28595 0.0
O496 O 0.10359 0.81213 0.23683 0.0
O497 O 0.17383 0.91434 0.28847 0.0
O498 O 0.18379 0.83246 0.22716 0.0
O499 O 0.12517 0.79431 0.28135 0.0
O500 O 0.1979 0.88155 0.24822 0.0
O501 O 0.15309 0.86185 0.30188 0.0
O502 O 0.15257 0.77923 0.25546 0.0
O503 O 0.13108 0.95331 0.25918 0.0
O504 O 0.1343 0.86943 0.20929 0.0
O505 O 0.08832 0.85316 0.26186 0.0
Sc506 Sc 0.61706 0.92328 0.23286 0.0
Sc507 Sc 0.64117 0.89073 0.28116 0.0
Sc508 Sc 0.59756 0.83206 0.25404 0.0
O509 O 0.61848 0.88179 0.2559 0.0
C510 C 0.5592 0.89597 0.23654 0.0
C511 C 0.62123 0.97864 0.27189 0.0
C512 C 0.59204 0.86089 0.30309 0.0
C513 C 0.6758 0.92298 0.24635 0.0
C514 C 0.61762 0.84509 0.20552 0.0
C515 C 0.64796 0.79798 0.27337 0.0
O516 O 0.57684 0.91559 0.22748 0.0
O517 O 0.63637 0.95455 0.28091 0.0
O518 O 0.58826 0.83428 0.28868 0.0
O519 O 0.65701 0.93775 0.23627 0.0
O520 O 0.60424 0.82602 0.21923 0.0
O521 O 0.65023 0.82861 0.2852 0.0
O522 O 0.62632 0.87968 0.20904 0.0
O523 O 0.67317 0.89638 0.26068 0.0
O524 O 0.63078 0.79518 0.2591 0.0
O525 O 0.60795 0.96894 0.2557 0.0
O526 O 0.56351 0.86615 0.24863 0.0
O527 O 0.60953 0.88646 0.30183 0.0
Sc528 Sc 0.86796 0.57408 0.98218 0.0
Sc529 Sc 0.89163 0.60702 0.03052 0.0
Sc530 Sc 0.84751 0.66469 0.00339 0.0
O531 O 0.86888 0.61547 0.00526 0.0
C532 C 0.86803 0.65239 0.95498 0.0
C533 C 0.92662 0.5758 0.99579 0.0
C534 C 0.89759 0.69979 0.02278 0.0
C535 C 0.87262 0.51866 0.02105 0.0
C536 C 0.80984 0.60008 0.98566 0.0
C537 C 0.84221 0.6355 0.05244 0.0
O538 O 0.87703 0.61799 0.95851 0.0
O539 O 0.92369 0.60249 0.01002 0.0
O540 O 0.88041 0.7022 0.00849 0.0
O541 O 0.85913 0.52818 0.00495 0.0
O542 O 0.81379 0.62984 0.99788 0.0
O543 O 0.85991 0.61029 0.05115 0.0
O544 O 0.82772 0.581 0.97661 0.0
O545 O 0.88757 0.54305 0.03008 0.0
O546 O 0.8382 0.66208 0.03805 0.0
O547 O 0.90799 0.56041 0.98576 0.0
O548 O 0.85428 0.67104 0.96859 0.0
O549 O 0.89998 0.66935 0.03473 0.0
Sc550 Sc 0.41408 0.58175 0.00361 0.0
Sc551 Sc 0.36999 0.63989 0.03049 0.0
Sc552 Sc 0.39386 0.67223 0.98211 0.0
O553 O 0.3928 0.63107 0.00531 0.0
C554 C 0.45189 0.6459 0.9857 0.0
C555 C 0.41927 0.61122 0.05263 0.0
C556 C 0.38951 0.72795 0.02089 0.0
C557 C 0.36385 0.54702 0.02293 0.0
C558 C 0.39359 0.59372 0.95515 0.0
C559 C 0.33519 0.67118 0.99566 0.0
O560 O 0.44786 0.6164 0.99808 0.0
O561 O 0.40159 0.63646 0.05124 0.0
O562 O 0.40291 0.71815 0.00479 0.0
O563 O 0.38114 0.54439 0.00875 0.0
O564 O 0.3846 0.62815 0.9586 0.0
O565 O 0.33803 0.64451 0.0099 0.0
O566 O 0.40736 0.57518 0.9688 0.0
O567 O 0.36137 0.57764 0.03474 0.0
O568 O 0.35388 0.68643 0.98565 0.0
O569 O 0.42333 0.58459 0.03828 0.0
O570 O 0.43406 0.66488 0.97651 0.0
O571 O 0.37438 0.70386 0.02994 0.0
Sc572 Sc 0.86745 0.67243 0.27328 0.0
Sc573 Sc 0.89164 0.64029 0.22495 0.0
Sc574 Sc 0.84765 0.58172 0.25163 0.0
O575 O 0.86876 0.63127 0.25007 0.0
C576 C 0.86765 0.59366 0.30022 0.0
C577 C 0.92627 0.67107 0.26013 0.0
C578 C 0.89788 0.54741 0.23215 0.0
C579 C 0.87244 0.72842 0.23467 0.0
C580 C 0.80946 0.64585 0.26929 0.0
C581 C 0.84245 0.61173 0.2027 0.0
O582 O 0.8763 0.62835 0.29693 0.0
O583 O 0.92353 0.64477 0.24565 0.0
O584 O 0.88073 0.5446 0.24644 0.0
O585 O 0.85882 0.71865 0.25064 0.0
O586 O 0.81371 0.61602 0.25718 0.0
O587 O 0.86005 0.6371 0.20418 0.0
O588 O 0.82714 0.6653 0.2784 0.0
O589 O 0.88746 0.70418 0.22563 0.0
O590 O 0.83849 0.58487 0.21695 0.0
O591 O 0.90752 0.68618 0.27013 0.0
O592 O 0.85428 0.57483 0.28642 0.0
O593 O 0.90019 0.57813 0.22041 0.0
Sc594 Sc 0.41399 0.66595 0.25197 0.0
Sc595 Sc 0.36986 0.60718 0.22558 0.0
Sc596 Sc 0.39426 0.57554 0.27392 0.0
O597 O 0.39285 0.61645 0.25059 0.0
C598 C 0.45219 0.60216 0.26972 0.0
C599 C 0.41885 0.63589 0.20303 0.0
C600 C 0.3896 0.51931 0.23537 0.0
C601 C 0.36353 0.70011 0.23284 0.0
C602 C 0.39418 0.65433 0.30067 0.0
C603 C 0.33544 0.57612 0.26075 0.0
O604 O 0.4479 0.6316 0.25735 0.0
O605 O 0.40127 0.61052 0.20462 0.0
O606 O 0.40313 0.52938 0.25134 0.0
O607 O 0.3809 0.70302 0.24692 0.0
O608 O 0.38522 0.61982 0.29741 0.0
O609 O 0.3381 0.60263 0.24639 0.0
O610 O 0.40766 0.67285 0.28681 0.0
O611 O 0.36104 0.66933 0.22115 0.0
O612 O 0.35424 0.56117 0.27074 0.0
O613 O 0.42292 0.66277 0.21725 0.0
O614 O 0.43454 0.58309 0.27911 0.0
O615 O 0.37436 0.54323 0.22632 0.0
Sc616 Sc 0.16439 0.33127 1.0018 0.0
Sc617 Sc 0.11997 0.38934 0.97533 0.0
Sc618 Sc 0.14394 0.42125 0.02376 0.0
O619 O 0.14294 0.38043 1.00039 0.0
C620 C 0.14436 0.34241 0.05042 0.0
C621 C 0.11415 0.29643 0.98261 0.0
C622 C 0.08521 0.41966 0.01048 0.0
C623 C 0.16916 0.36135 0.95287 0.0
C624 C 0.20208 0.39553 0.01976 0.0
C625 C 0.139 0.47756 0.98527 0.0
O626 O 0.15808 0.32424 0.03661 0.0
O627 O 0.11164 0.32706 0.97082 0.0
O628 O 0.10388 0.43492 0.02051 0.0
O629 O 0.1733 0.33451 0.96709 0.0
O630 O 0.18423 0.41425 0.02907 0.0
O631 O 0.12402 0.45333 0.97614 0.0
O632 O 0.1981 0.36615 0.00727 0.0
O633 O 0.15149 0.38658 0.95445 0.0
O634 O 0.15255 0.46773 1.00128 0.0
O635 O 0.13147 0.29378 0.99676 0.0
O636 O 0.13511 0.37672 0.04716 0.0
O637 O 0.08808 0.39332 0.99605 0.0
Sc638 Sc 0.61676 0.32366 0.02338 0.0
Sc639 Sc 0.64093 0.35632 0.97512 0.0
Sc640 Sc 0.59729 0.41495 1.00228 0.0
O641 O 0.6182 0.36521 1.00037 0.0
C642 C 0.55892 0.35108 0.01981 0.0
C643 C 0.62083 0.26845 0.9843 0.0
C644 C 0.59183 0.38628 0.95316 0.0
C645 C 0.67548 0.32383 0.00991 0.0
C646 C 0.61753 0.40181 0.05075 0.0
C647 C 0.64776 0.44904 0.98303 0.0
O648 O 0.57657 0.33144 0.02884 0.0
O649 O 0.63603 0.2925 0.97531 0.0
O650 O 0.58793 0.41275 0.96763 0.0
O651 O 0.65668 0.30901 0.01994 0.0
O652 O 0.6041 0.42096 0.03711 0.0
O653 O 0.65012 0.41843 0.9712 0.0
O654 O 0.62613 0.36717 0.04719 0.0
O655 O 0.67289 0.35052 0.99564 0.0
O656 O 0.63047 0.45185 0.9972 0.0
O657 O 0.60755 0.27815 1.00049 0.0
O658 O 0.56323 0.3809 0.00772 0.0
O659 O 0.60936 0.36077 0.95439 0.0
Sc660 Sc 0.16408 0.41544 0.75348 0.0
Sc661 Sc 0.12025 0.35607 0.77981 0.0
Sc662 Sc 0.14416 0.32559 0.73108 0.0
O663 O 0.14297 0.36591 0.75469 0.0
C664 C 0.144 0.40479 0.70482 0.0
C665 C 0.11369 0.44907 0.77298 0.0
C666 C 0.0855 0.32571 0.74464 0.0
C667 C 0.16925 0.38482 0.80227 0.0
C668 C 0.20212 0.35201 0.7352 0.0
C669 C 0.1401 0.26856 0.76937 0.0
O670 O 0.15772 0.42284 0.71868 0.0
O671 O 0.11144 0.41815 0.78459 0.0
O672 O 0.10421 0.31105 0.73441 0.0
O673 O 0.17306 0.41198 0.78817 0.0
O674 O 0.18437 0.33343 0.72566 0.0
O675 O 0.1249 0.29217 0.7787 0.0
O676 O 0.19798 0.38105 0.74788 0.0
O677 O 0.15185 0.35916 0.80058 0.0
O678 O 0.15333 0.27897 0.75328 0.0
O679 O 0.1309 0.45228 0.75876 0.0
O680 O 0.13484 0.37038 0.70797 0.0
O681 O 0.08827 0.35176 0.75923 0.0
Sc682 Sc 0.61774 0.42099 0.73202 0.0
Sc683 Sc 0.64169 0.38945 0.78053 0.0
Sc684 Sc 0.59725 0.33122 0.75415 0.0
O685 O 0.61874 0.38034 0.75547 0.0
C686 C 0.55959 0.39537 0.73602 0.0
C687 C 0.62248 0.47747 0.77046 0.0
C688 C 0.59241 0.36178 0.80299 0.0
C689 C 0.67647 0.41957 0.74537 0.0
C690 C 0.61736 0.34201 0.70549 0.0
C691 C 0.6475 0.29646 0.77343 0.0
O692 O 0.57746 0.41395 0.72664 0.0
O693 O 0.63758 0.45345 0.7796 0.0
O694 O 0.58824 0.3348 0.78885 0.0
O695 O 0.65781 0.43478 0.73532 0.0
O696 O 0.60363 0.32395 0.71934 0.0
O697 O 0.65004 0.32718 0.78514 0.0
O698 O 0.62664 0.37633 0.70871 0.0
O699 O 0.67359 0.39328 0.75982 0.0
O700 O 0.63014 0.29372 0.75931 0.0
O701 O 0.60901 0.46748 0.75444 0.0
O702 O 0.56357 0.3661 0.74858 0.0
O703 O 0.61015 0.38686 0.80139 0.0
H704 H 0.42674 0.78394 0.01774 0.0
H705 H 0.33442 0.96296 0.01733 0.0
H706 H 0.34927 0.76802 0.03718 0.0
H707 H 0.41155 0.97875 0.03777 0.0
H708 H 0.33908 0.89109 0.02255 0.0
H709 H 0.42199 0.85577 0.02305 0.0
C710 C 0.40889 0.79554 0.02343 0.0
C711 C 0.38837 0.77017 0.02701 0.0
C712 C 0.3548 0.91048 0.02625 0.0
C713 C 0.38267 0.8518 0.03257 0.0
C714 C 0.35217 0.95133 0.02322 0.0
C715 C 0.37262 0.97667 0.02711 0.0
C716 C 0.37823 0.895 0.03258 0.0
C717 C 0.39526 0.96019 0.03471 0.0
C718 C 0.40621 0.83636 0.02651 0.0
C719 C 0.36561 0.78659 0.03437 0.0
N720 N 0.39764 0.92024 0.0368 0.0
N721 N 0.3632 0.82653 0.0365 0.0
H722 H 0.91325 0.47961 0.03735 0.0
H723 H 0.84855 0.26658 0.03745 0.0
H724 H 0.8359 0.46175 0.01802 0.0
H725 H 0.92561 0.28454 0.01732 0.0
H726 H 0.84407 0.33835 0.04245 0.0
H727 H 0.91781 0.40778 0.04214 0.0
C728 C 0.89705 0.46066 0.03462 0.0
C729 C 0.87415 0.47649 0.02719 0.0
C730 C 0.86204 0.32638 0.03729 0.0
C731 C 0.87931 0.39481 0.03279 0.0
C732 C 0.86471 0.28553 0.03457 0.0
C733 C 0.88749 0.26974 0.02686 0.0
C734 C 0.88244 0.35139 0.03271 0.0
C735 C 0.90771 0.29565 0.02314 0.0
C736 C 0.89977 0.41979 0.03721 0.0
C737 C 0.85388 0.4506 0.02363 0.0
N738 N 0.90471 0.33536 0.02608 0.0
N739 N 0.85694 0.41087 0.02645 0.0
H740 H 0.42696 0.46353 0.23853 0.0
H741 H 0.33489 0.28398 0.23971 0.0
H742 H 0.34931 0.47885 0.21946 0.0
H743 H 0.412 0.26839 0.21919 0.0
H744 H 0.33943 0.35584 0.23439 0.0
H745 H 0.4223 0.39161 0.2335 0.0
C746 C 0.40909 0.45178 0.23297 0.0
C747 C 0.3885 0.47701 0.22941 0.0
C748 C 0.35517 0.33651 0.2307 0.0
C749 C 0.38291 0.39527 0.22418 0.0
C750 C 0.35261 0.29566 0.23379 0.0
C751 C 0.3731 0.27037 0.2299 0.0
C752 C 0.37856 0.35205 0.2243 0.0
C753 C 0.3957 0.2869 0.22226 0.0
C754 C 0.40647 0.41089 0.23006 0.0
C755 C 0.36571 0.46039 0.22225 0.0
N756 N 0.398 0.32686 0.2201 0.0
N757 N 0.36336 0.42041 0.22027 0.0
H758 H 0.91299 0.76749 0.21824 0.0
H759 H 0.84858 0.98067 0.21854 0.0
H760 H 0.83583 0.78549 0.23809 0.0
H761 H 0.92582 0.96253 0.23812 0.0
H762 H 0.84394 0.90889 0.2137 0.0
H763 H 0.91761 0.8393 0.21352 0.0
C764 C 0.89684 0.78646 0.22112 0.0
C765 C 0.87399 0.77066 0.22866 0.0
C766 C 0.86198 0.92082 0.21871 0.0
C767 C 0.87921 0.85236 0.22314 0.0
C768 C 0.86474 0.96167 0.22133 0.0
C769 C 0.88763 0.97742 0.22883 0.0
C770 C 0.88238 0.89576 0.22318 0.0
C771 C 0.90784 0.95145 0.23246 0.0
C772 C 0.89959 0.82733 0.21856 0.0
C773 C 0.85379 0.7966 0.23239 0.0
N774 N 0.90474 0.91174 0.22961 0.0
N775 N 0.85687 0.83634 0.2296 0.0
H776 H 0.6762 0.03408 0.98757 0.0
H777 H 0.58363 0.21244 0.98779 0.0
H778 H 0.59882 0.01753 0.96804 0.0
H779 H 0.6607 0.22854 0.96726 0.0
H780 H 0.58835 0.14062 0.9824 0.0
H781 H 0.67131 0.10581 0.98201 0.0
C782 C 0.65835 0.04551 0.9818 0.0
C783 C 0.63789 0.02 0.97828 0.0
C784 C 0.60403 0.16007 0.9787 0.0
C785 C 0.63202 0.10153 0.97243 0.0
C786 C 0.60137 0.20089 0.98183 0.0
C787 C 0.62181 0.22631 0.978 0.0
C788 C 0.62749 0.14469 0.97234 0.0
C789 C 0.64443 0.20994 0.9703 0.0
C790 C 0.65559 0.08629 0.97857 0.0
C791 C 0.61511 0.03622 0.97082 0.0
N792 N 0.64685 0.17001 0.96813 0.0
N793 N 0.61261 0.07612 0.96855 0.0
H794 H 0.16366 0.72973 0.96937 0.0
H795 H 0.09853 0.51696 0.96889 0.0
H796 H 0.08621 0.71216 0.98848 0.0
H797 H 0.17575 0.53436 0.9887 0.0
H798 H 0.09414 0.58883 0.96418 0.0
H799 H 0.16813 0.65789 0.96458 0.0
C800 C 0.14743 0.71085 0.97207 0.0
C801 C 0.12452 0.72677 0.97942 0.0
C802 C 0.11212 0.57672 0.96921 0.0
C803 C 0.12957 0.64505 0.97382 0.0
C804 C 0.11474 0.53582 0.97177 0.0
C805 C 0.13755 0.51983 0.97929 0.0
C806 C 0.13259 0.60159 0.97379 0.0
C807 C 0.15783 0.54561 0.98302 0.0
C808 C 0.15009 0.66996 0.96947 0.0
C809 C 0.10421 0.70095 0.98293 0.0
N810 N 0.15488 0.58538 0.98024 0.0
N811 N 0.1072 0.6612 0.98011 0.0
H812 H 0.67714 0.71289 0.76652 0.0
H813 H 0.58519 0.53333 0.76732 0.0
H814 H 0.60005 0.72818 0.78719 0.0
H815 H 0.6628 0.51779 0.78643 0.0
H816 H 0.58985 0.60519 0.77253 0.0
H817 H 0.67268 0.64099 0.77177 0.0
C818 C 0.65944 0.70114 0.77247 0.0
C819 C 0.63893 0.72636 0.77641 0.0
C820 C 0.60568 0.58587 0.77594 0.0
C821 C 0.63356 0.64465 0.7819 0.0
C822 C 0.60305 0.54502 0.77292 0.0
C823 C 0.62363 0.51975 0.77644 0.0
C824 C 0.62923 0.60143 0.7819 0.0
C825 C 0.64642 0.53629 0.78366 0.0
C826 C 0.65693 0.66027 0.77551 0.0
C827 C 0.61637 0.70974 0.78408 0.0
N828 N 0.64877 0.57625 0.78576 0.0
N829 N 0.61411 0.66977 0.78618 0.0
H830 H 0.17806 0.21395 0.76595 0.0
H831 H 0.16163 0.0146 0.79114 0.0
H832 H 0.10042 0.22695 0.7855 0.0
H833 H 0.08826 0.03671 0.76345 0.0
H834 H 0.16746 0.08615 0.79567 0.0
H835 H 0.17449 0.14204 0.7714 0.0
C836 C 0.16045 0.2017 0.77177 0.0
C837 C 0.13955 0.22627 0.77537 0.0
C838 C 0.15005 0.07519 0.78877 0.0
C839 C 0.13526 0.14455 0.78141 0.0
C840 C 0.14654 0.03443 0.78637 0.0
C841 C 0.12449 0.01976 0.77668 0.0
C842 C 0.13126 0.10133 0.78166 0.0
C843 C 0.10564 0.04685 0.77076 0.0
C844 C 0.15846 0.16083 0.77501 0.0
C845 C 0.11705 0.209 0.78276 0.0
N846 N 0.10947 0.08648 0.77332 0.0
N847 N 0.11533 0.16901 0.7851 0.0
H848 H 0.34814 0.26665 0.53677 0.0
H849 H 0.41353 0.47922 0.53665 0.0
H850 H 0.42561 0.28378 0.51759 0.0
H851 H 0.33618 0.46193 0.51716 0.0
H852 H 0.41789 0.40736 0.54141 0.0
H853 H 0.34376 0.33855 0.54133 0.0
C854 C 0.3644 0.28546 0.534 0.0
C855 C 0.38728 0.26938 0.5267 0.0
C856 C 0.39989 0.41949 0.53643 0.0
C857 C 0.38233 0.35118 0.53204 0.0
C858 C 0.39729 0.46039 0.53385 0.0
C859 C 0.37445 0.47641 0.52642 0.0
C860 C 0.37937 0.39465 0.53197 0.0
C861 C 0.35413 0.45065 0.52278 0.0
C862 C 0.36179 0.32638 0.53647 0.0
C863 C 0.40763 0.2951 0.52311 0.0
N864 N 0.35707 0.41089 0.52559 0.0
N865 N 0.40468 0.33489 0.5258 0.0
H866 H 0.83451 0.96203 0.51701 0.0
H867 H 0.92676 0.78278 0.51762 0.0
H868 H 0.91167 0.97765 0.5374 0.0
H869 H 0.84922 0.76705 0.53689 0.0
H870 H 0.92203 0.85464 0.52283 0.0
H871 H 0.83912 0.89015 0.52225 0.0
C872 C 0.85225 0.95036 0.5229 0.0
C873 C 0.87274 0.97566 0.52676 0.0
C874 C 0.90623 0.83527 0.52628 0.0
C875 C 0.87828 0.89397 0.53226 0.0
C876 C 0.9089 0.79442 0.52326 0.0
C877 C 0.88836 0.7691 0.52682 0.0
C878 C 0.88268 0.85077 0.53227 0.0
C879 C 0.86558 0.78559 0.5341 0.0
C880 C 0.85485 0.9095 0.52594 0.0
C881 C 0.89537 0.95913 0.53435 0.0
N882 N 0.86318 0.82554 0.53618 0.0
N883 N 0.8977 0.91918 0.53645 0.0
H884 H 0.4271 0.96363 0.73877 0.0
H885 H 0.41029 0.76475 0.71315 0.0
H886 H 0.3493 0.97727 0.71982 0.0
H887 H 0.33717 0.78682 0.74133 0.0
H888 H 0.41605 0.83628 0.70855 0.0
H889 H 0.42338 0.89185 0.73294 0.0
C890 C 0.40942 0.95155 0.733 0.0
C891 C 0.38852 0.97626 0.72968 0.0
C892 C 0.39869 0.82532 0.71556 0.0
C893 C 0.38406 0.89467 0.72321 0.0
C894 C 0.39523 0.78456 0.718 0.0
C895 C 0.3733 0.76987 0.72789 0.0
C896 C 0.37998 0.85146 0.72283 0.0
C897 C 0.35447 0.79696 0.73389 0.0
C898 C 0.40734 0.91075 0.72954 0.0
C899 C 0.36593 0.95921 0.72234 0.0
N900 N 0.35828 0.83659 0.73131 0.0
N901 N 0.36413 0.91926 0.71979 0.0
H902 H 0.83447 0.28392 0.73861 0.0
H903 H 0.92671 0.46291 0.73688 0.0
H904 H 0.91139 0.26798 0.71763 0.0
H905 H 0.849 0.47868 0.71813 0.0
H906 H 0.92192 0.39105 0.73171 0.0
H907 H 0.83901 0.35571 0.73302 0.0
C908 C 0.85214 0.2955 0.73252 0.0
C909 C 0.87258 0.27013 0.72861 0.0
C910 C 0.9061 0.41043 0.72836 0.0
C911 C 0.87806 0.35173 0.72271 0.0
C912 C 0.9088 0.45127 0.73135 0.0
C913 C 0.88823 0.4766 0.72794 0.0
C914 C 0.88248 0.39494 0.72255 0.0
C915 C 0.86538 0.46013 0.72081 0.0
C916 C 0.8547 0.33631 0.72928 0.0
C917 C 0.89512 0.28654 0.72074 0.0
N918 N 0.86295 0.42017 0.71876 0.0
N919 N 0.89743 0.32647 0.71845 0.0
H920 H 0.67625 0.53295 0.48951 0.0
H921 H 0.58434 0.71279 0.48909 0.0
H922 H 0.59886 0.51757 0.46969 0.0
H923 H 0.66177 0.72783 0.46933 0.0
H924 H 0.58886 0.64084 0.48409 0.0
H925 H 0.6717 0.60484 0.48425 0.0
C926 C 0.65846 0.54468 0.48376 0.0
C927 C 0.63791 0.51945 0.48004 0.0
C928 C 0.60467 0.66007 0.4805 0.0
C929 C 0.63244 0.60114 0.47452 0.0
C930 C 0.60213 0.70097 0.48339 0.0
C931 C 0.6227 0.72614 0.47963 0.0
C932 C 0.62814 0.64437 0.47442 0.0
C933 C 0.64539 0.70943 0.47228 0.0
C934 C 0.6559 0.58554 0.48071 0.0
C935 C 0.61522 0.53604 0.47261 0.0
N936 N 0.64767 0.66944 0.47032 0.0
N937 N 0.61293 0.576 0.47049 0.0
H938 H 0.09879 0.01618 0.46897 0.0
H939 H 0.16385 0.22894 0.46933 0.0
H940 H 0.17601 0.03353 0.48879 0.0
H941 H 0.08641 0.21145 0.48848 0.0
H942 H 0.16836 0.15707 0.46471 0.0
H943 H 0.09437 0.08805 0.46436 0.0
C944 C 0.11499 0.03503 0.47187 0.0
C945 C 0.13781 0.01902 0.47935 0.0
C946 C 0.15031 0.16916 0.46959 0.0
C947 C 0.13282 0.1008 0.47396 0.0
C948 C 0.14763 0.21006 0.47208 0.0
C949 C 0.12471 0.22603 0.47937 0.0
C950 C 0.1298 0.14426 0.47398 0.0
C951 C 0.10441 0.20021 0.48296 0.0
C952 C 0.11236 0.07594 0.46938 0.0
C953 C 0.15809 0.0448 0.48312 0.0
N954 N 0.10743 0.16045 0.48023 0.0
N955 N 0.15512 0.08458 0.48039 0.0
H956 H 0.67681 0.21302 0.26934 0.0
H957 H 0.58412 0.0348 0.26828 0.0
H958 H 0.59932 0.2295 0.2886 0.0
H959 H 0.66106 0.01838 0.28912 0.0
H960 H 0.58888 0.10657 0.27385 0.0
H961 H 0.67185 0.14124 0.27471 0.0
C962 C 0.65892 0.20156 0.27502 0.0
C963 C 0.63845 0.22706 0.27851 0.0
C964 C 0.60452 0.08706 0.27757 0.0
C965 C 0.63251 0.14549 0.28413 0.0
C966 C 0.60184 0.04626 0.27434 0.0
C967 C 0.62223 0.02077 0.27821 0.0
C968 C 0.62794 0.10233 0.28407 0.0
C969 C 0.64483 0.03703 0.28604 0.0
C970 C 0.65612 0.16076 0.27813 0.0
C971 C 0.61562 0.21081 0.28584 0.0
N972 N 0.64726 0.07694 0.28831 0.0
N973 N 0.61309 0.17089 0.288 0.0
H974 H 0.10118 0.73263 0.29304 0.0
H975 H 0.08388 0.53365 0.26747 0.0
H976 H 0.17389 0.71043 0.26412 0.0
H977 H 0.16184 0.51998 0.28592 0.0
H978 H 0.08772 0.60547 0.27315 0.0
H979 H 0.09536 0.66108 0.29757 0.0
C980 C 0.11614 0.71279 0.28801 0.0
C981 C 0.13797 0.72744 0.27795 0.0
C982 C 0.10377 0.58655 0.27647 0.0
C983 C 0.13122 0.64585 0.28294 0.0
C984 C 0.10163 0.54573 0.2731 0.0
C985 C 0.12253 0.52099 0.27634 0.0
C986 C 0.12712 0.60264 0.28261 0.0
C987 C 0.1452 0.53805 0.28348 0.0
C988 C 0.11264 0.67201 0.29041 0.0
C989 C 0.15667 0.70031 0.27171 0.0
N990 N 0.14706 0.57802 0.28594 0.0
N991 N 0.15284 0.66068 0.27428 0.0
H992 H 0.33295 0.18813 0.92865 0.0
H993 H 0.42819 0.18756 0.82831 0.0
H994 H 0.41153 0.15705 0.9337 0.0
H995 H 0.34955 0.15677 0.82333 0.0
H996 H 0.42207 0.20126 0.86695 0.0
H997 H 0.33909 0.20153 0.88998 0.0
C998 C 0.35163 0.1854 0.92176 0.0
C999 C 0.37175 0.1713 0.93426 0.0
C1000 C 0.40606 0.19246 0.85722 0.0
C1001 C 0.3789 0.1866 0.89035 0.0
C1002 C 0.4095 0.18496 0.8352 0.0
C1003 C 0.38935 0.17086 0.82274 0.0
C1004 C 0.38223 0.1865 0.86661 0.0
C1005 C 0.36557 0.16739 0.83248 0.0
C1006 C 0.35508 0.19274 0.89973 0.0
C1007 C 0.39553 0.16767 0.92452 0.0
N1008 N 0.36268 0.17493 0.85387 0.0
N1009 N 0.39843 0.17504 0.90312 0.0
H1010 H 0.8335 0.05875 0.82767 0.0
H1011 H 0.92891 0.05956 0.92787 0.0
H1012 H 0.91187 0.09117 0.82263 0.0
H1013 H 0.85016 0.08947 0.93305 0.0
H1014 H 0.92278 0.04618 0.8892 0.0
H1015 H 0.83979 0.04507 0.86629 0.0
C1016 C 0.85217 0.06173 0.83455 0.0
C1017 C 0.87218 0.07629 0.82208 0.0
C1018 C 0.90675 0.05471 0.89898 0.0
C1019 C 0.8795 0.06063 0.86592 0.0
C1020 C 0.9102 0.06203 0.92101 0.0
C1021 C 0.89002 0.07579 0.93354 0.0
C1022 C 0.88288 0.06051 0.88964 0.0
C1023 C 0.8662 0.0791 0.92384 0.0
C1024 C 0.85571 0.05423 0.85655 0.0
C1025 C 0.89595 0.08021 0.83179 0.0
N1026 N 0.8633 0.07175 0.90245 0.0
N1027 N 0.89894 0.07266 0.85316 0.0
H1028 H 0.42848 0.05799 0.42836 0.0
H1029 H 0.33318 0.05844 0.32804 0.0
H1030 H 0.34989 0.089 0.43341 0.0
H1031 H 0.41182 0.08917 0.32301 0.0
H1032 H 0.33933 0.04477 0.36668 0.0
H1033 H 0.42234 0.04456 0.38969 0.0
C1034 C 0.4098 0.06069 0.42147 0.0
C1035 C 0.38968 0.07477 0.43396 0.0
C1036 C 0.35533 0.05354 0.35694 0.0
C1037 C 0.38252 0.05944 0.39006 0.0
C1038 C 0.35187 0.06103 0.33492 0.0
C1039 C 0.37201 0.07511 0.32244 0.0
C1040 C 0.37917 0.0595 0.36632 0.0
C1041 C 0.3958 0.07857 0.33217 0.0
C1042 C 0.40634 0.05334 0.39944 0.0
C1043 C 0.3659 0.07838 0.42423 0.0
N1044 N 0.39871 0.07106 0.35356 0.0
N1045 N 0.36299 0.071 0.40284 0.0
H1046 H 0.8496 0.15836 0.32169 0.0
H1047 H 0.91292 0.15561 0.43407 0.0
H1048 H 0.92839 0.18657 0.32864 0.0
H1049 H 0.83461 0.18719 0.42738 0.0
H1050 H 0.91944 0.17024 0.39584 0.0
H1051 H 0.84329 0.17229 0.36003 0.0
C1052 C 0.86544 0.16848 0.33124 0.0
C1053 C 0.88954 0.17138 0.32207 0.0
C1054 C 0.90096 0.17495 0.4028 0.0
C1055 C 0.88265 0.18607 0.36606 0.0
C1056 C 0.89723 0.16658 0.4246 0.0
C1057 C 0.8732 0.17021 0.43381 0.0
C1058 C 0.88031 0.18578 0.38993 0.0
C1059 C 0.85345 0.18427 0.42087 0.0
C1060 C 0.86184 0.17644 0.35311 0.0
C1061 C 0.9095 0.18429 0.33512 0.0
N1062 N 0.8573 0.19067 0.39943 0.0
N1063 N 0.90574 0.19027 0.35661 0.0
H1064 H 0.58366 0.80969 0.17836 0.0
H1065 H 0.67879 0.81158 0.07795 0.0
H1066 H 0.66165 0.84445 0.18318 0.0
H1067 H 0.5999 0.84056 0.07275 0.0
H1068 H 0.6728 0.7988 0.1167 0.0
H1069 H 0.58997 0.79625 0.1397 0.0
C1070 C 0.60226 0.81327 0.17142 0.0
C1071 C 0.62215 0.82836 0.18385 0.0
C1072 C 0.65672 0.80699 0.10691 0.0
C1073 C 0.62949 0.81294 0.13998 0.0
C1074 C 0.66009 0.81396 0.08484 0.0
C1075 C 0.63981 0.82726 0.07227 0.0
C1076 C 0.63284 0.81264 0.11625 0.0
C1077 C 0.61601 0.83051 0.08199 0.0
C1078 C 0.6058 0.80589 0.1494 0.0
C1079 C 0.64582 0.83305 0.17406 0.0
N1080 N 0.61318 0.82347 0.10343 0.0
N1081 N 0.64883 0.82556 0.15268 0.0
H1082 H 0.17737 0.93902 0.17844 0.0
H1083 H 0.08224 0.93637 0.07805 0.0
H1084 H 0.09934 0.90455 0.18331 0.0
H1085 H 0.16123 0.90806 0.07294 0.0
H1086 H 0.08818 0.94961 0.11676 0.0
H1087 H 0.17106 0.95249 0.1398 0.0
C1088 C 0.15876 0.9355 0.17152 0.0
C1089 C 0.13887 0.92044 0.18395 0.0
C1090 C 0.10429 0.94147 0.10699 0.0
C1091 C 0.13152 0.93591 0.14009 0.0
C1092 C 0.10095 0.93424 0.08494 0.0
C1093 C 0.12127 0.92097 0.07242 0.0
C1094 C 0.12819 0.93608 0.11636 0.0
C1095 C 0.14509 0.91806 0.08214 0.0
C1096 C 0.15522 0.9429 0.14951 0.0
C1097 C 0.11518 0.91588 0.17418 0.0
N1098 N 0.14789 0.92532 0.10356 0.0
N1099 N 0.11218 0.92336 0.1528 0.0
H1100 H 0.66258 0.90766 0.57176 0.0
H1101 H 0.59888 0.9078 0.68394 0.0
H1102 H 0.58402 0.93768 0.5784 0.0
H1103 H 0.67753 0.93727 0.67732 0.0
H1104 H 0.5926 0.92234 0.64567 0.0
H1105 H 0.66891 0.92211 0.61004 0.0
C1106 C 0.6468 0.91828 0.58123 0.0
C1107 C 0.62275 0.9215 0.572 0.0
C1108 C 0.61111 0.92662 0.65265 0.0
C1109 C 0.62964 0.93682 0.61592 0.0
C1110 C 0.6147 0.91831 0.67447 0.0
C1111 C 0.63876 0.92134 0.68371 0.0
C1112 C 0.63191 0.93679 0.6398 0.0
C1113 C 0.65867 0.93482 0.67078 0.0
C1114 C 0.65041 0.92653 0.60306 0.0
C1115 C 0.60287 0.9351 0.58493 0.0
N1116 N 0.65494 0.94115 0.64932 0.0
N1117 N 0.60662 0.94137 0.6064 0.0
H1118 H 0.17853 0.80779 0.5779 0.0
H1119 H 0.08307 0.80835 0.67809 0.0
H1120 H 0.09994 0.83874 0.57269 0.0
H1121 H 0.16164 0.8395 0.68318 0.0
H1122 H 0.08929 0.79465 0.63947 0.0
H1123 H 0.17231 0.79455 0.61658 0.0
C1124 C 0.15983 0.81051 0.58476 0.0
C1125 C 0.13973 0.82452 0.57221 0.0
C1126 C 0.10526 0.80353 0.64921 0.0
C1127 C 0.13249 0.8094 0.61613 0.0
C1128 C 0.10176 0.81105 0.67122 0.0
C1129 C 0.12185 0.82525 0.68371 0.0
C1130 C 0.1291 0.80957 0.63985 0.0
C1131 C 0.14565 0.82882 0.674 0.0
C1132 C 0.15634 0.80327 0.60679 0.0
C1133 C 0.11593 0.82817 0.5819 0.0
N1134 N 0.1486 0.82127 0.65263 0.0
N1135 N 0.11298 0.82089 0.60331 0.0
H1136 H 0.42866 0.68829 0.32788 0.0
H1137 H 0.3333 0.68818 0.42816 0.0
H1138 H 0.35006 0.65735 0.32278 0.0
H1139 H 0.41186 0.65699 0.4332 0.0
H1140 H 0.33949 0.70179 0.38951 0.0
H1141 H 0.42248 0.70174 0.36655 0.0
C1142 C 0.40996 0.68561 0.33476 0.0
C1143 C 0.38984 0.67155 0.32225 0.0
C1144 C 0.35546 0.69293 0.39926 0.0
C1145 C 0.38266 0.6869 0.36615 0.0
C1146 C 0.35199 0.68548 0.42127 0.0
C1147 C 0.37209 0.6713 0.43376 0.0
C1148 C 0.37929 0.68684 0.38988 0.0
C1149 C 0.39588 0.66769 0.42403 0.0
C1150 C 0.40649 0.69297 0.35679 0.0
C1151 C 0.36605 0.66797 0.33197 0.0
N1152 N 0.39881 0.67518 0.40265 0.0
N1153 N 0.36313 0.67536 0.35336 0.0
H1154 H 0.8489 0.58876 0.43387 0.0
H1155 H 0.91228 0.59052 0.32146 0.0
H1156 H 0.92756 0.55967 0.42694 0.0
H1157 H 0.83381 0.55997 0.32816 0.0
H1158 H 0.91871 0.57598 0.35972 0.0
H1159 H 0.84253 0.5749 0.39553 0.0
C1160 C 0.8647 0.57846 0.42432 0.0
C1161 C 0.88878 0.5753 0.4335 0.0
C1162 C 0.9002 0.57148 0.35276 0.0
C1163 C 0.88184 0.56069 0.3895 0.0
C1164 C 0.89653 0.57979 0.33094 0.0
C1165 C 0.87249 0.57641 0.32172 0.0
C1166 C 0.8795 0.56096 0.36562 0.0
C1167 C 0.85266 0.56267 0.33467 0.0
C1168 C 0.86107 0.57056 0.40245 0.0
C1169 C 0.90868 0.56217 0.42045 0.0
N1170 N 0.85647 0.55632 0.35612 0.0
N1171 N 0.9049 0.55622 0.39896 0.0
H1172 H 0.41198 0.59123 0.82152 0.0
H1173 H 0.34889 0.58983 0.93404 0.0
H1174 H 0.33362 0.56012 0.82841 0.0
H1175 H 0.4276 0.56106 0.92703 0.0
H1176 H 0.34247 0.57572 0.89573 0.0
H1177 H 0.41854 0.57703 0.8598 0.0
C1178 C 0.39629 0.58047 0.83105 0.0
C1179 C 0.37223 0.57682 0.82188 0.0
C1180 C 0.36103 0.57151 0.90263 0.0
C1181 C 0.37939 0.56174 0.8658 0.0
C1182 C 0.36469 0.57957 0.92448 0.0
C1183 C 0.3888 0.57658 0.93363 0.0
C1184 C 0.38178 0.56165 0.88967 0.0
C1185 C 0.4087 0.56345 0.92057 0.0
C1186 C 0.40003 0.57234 0.85288 0.0
C1187 C 0.35248 0.56303 0.83489 0.0
N1188 N 0.40488 0.55735 0.8991 0.0
N1189 N 0.35635 0.55686 0.85635 0.0
H1190 H 0.84914 0.65605 0.82131 0.0
H1191 H 0.91264 0.65541 0.93368 0.0
H1192 H 0.92774 0.68568 0.82811 0.0
H1193 H 0.83412 0.68568 0.92697 0.0
H1194 H 0.919 0.66963 0.89538 0.0
H1195 H 0.8428 0.67007 0.85964 0.0
C1196 C 0.86493 0.66648 0.83084 0.0
C1197 C 0.88899 0.66975 0.82162 0.0
C1198 C 0.9005 0.67414 0.90235 0.0
C1199 C 0.88207 0.68458 0.86559 0.0
C1200 C 0.89686 0.666 0.92419 0.0
C1201 C 0.87282 0.66939 0.93342 0.0
C1202 C 0.87976 0.68449 0.88947 0.0
C1203 C 0.85297 0.68297 0.92045 0.0
C1204 C 0.86131 0.67449 0.85269 0.0
C1205 C 0.90888 0.68308 0.83462 0.0
N1206 N 0.85674 0.68914 0.89898 0.0
N1207 N 0.90511 0.68913 0.8561 0.0
H1208 H 0.5827 0.30811 0.67842 0.0
H1209 H 0.67781 0.30729 0.578 0.0
H1210 H 0.66143 0.33835 0.68331 0.0
H1211 H 0.59923 0.33841 0.57304 0.0
H1212 H 0.67171 0.29372 0.61665 0.0
H1213 H 0.58873 0.29429 0.63979 0.0
C1214 C 0.60139 0.31056 0.67151 0.0
C1215 C 0.62158 0.32456 0.68394 0.0
C1216 C 0.6557 0.30255 0.60692 0.0
C1217 C 0.6286 0.30877 0.64007 0.0
C1218 C 0.65914 0.30998 0.5849 0.0
C1219 C 0.63901 0.32416 0.57244 0.0
C1220 C 0.6319 0.30868 0.61633 0.0
C1221 C 0.61524 0.32774 0.58219 0.0
C1222 C 0.60477 0.30298 0.64949 0.0
C1223 C 0.64537 0.32782 0.67418 0.0
N1224 N 0.61235 0.3203 0.60359 0.0
N1225 N 0.64821 0.32023 0.6528 0.0
H1226 H 0.17868 0.43832 0.67768 0.0
H1227 H 0.08352 0.43873 0.57731 0.0
H1228 H 0.09986 0.4088 0.68277 0.0
H1229 H 0.1619 0.40627 0.57256 0.0
H1230 H 0.08969 0.45288 0.6159 0.0
H1231 H 0.17263 0.45179 0.63901 0.0
C1232 C 0.15997 0.43599 0.6708 0.0
C1233 C 0.13975 0.42228 0.6833 0.0
C1234 C 0.10564 0.44361 0.60623 0.0
C1235 C 0.13271 0.43762 0.6394 0.0
C1236 C 0.10217 0.43584 0.58424 0.0
C1237 C 0.12221 0.42113 0.57187 0.0
C1238 C 0.1294 0.43731 0.61567 0.0
C1239 C 0.14595 0.41733 0.58165 0.0
C1240 C 0.15657 0.44336 0.64877 0.0
C1241 C 0.11593 0.41913 0.67358 0.0
N1242 N 0.14888 0.42513 0.603 0.0
N1243 N 0.11308 0.42648 0.65218 0.0
H1244 H 0.59895 0.40519 0.18458 0.0
H1245 H 0.66215 0.40402 0.07208 0.0
H1246 H 0.67746 0.43533 0.17768 0.0
H1247 H 0.58379 0.43527 0.07884 0.0
H1248 H 0.66859 0.41802 0.1104 0.0
H1249 H 0.59256 0.41877 0.14621 0.0
C1250 C 0.61471 0.41563 0.17503 0.0
C1251 C 0.63876 0.41921 0.18424 0.0
C1252 C 0.65012 0.42277 0.10344 0.0
C1253 C 0.63179 0.43353 0.14021 0.0
C1254 C 0.64643 0.41477 0.08159 0.0
C1255 C 0.62241 0.41855 0.07236 0.0
C1256 C 0.62944 0.43337 0.11633 0.0
C1257 C 0.60263 0.43229 0.08536 0.0
C1258 C 0.61106 0.42339 0.15315 0.0
C1259 C 0.65861 0.43252 0.17118 0.0
N1260 N 0.60644 0.43833 0.10684 0.0
N1261 N 0.65482 0.43832 0.14968 0.0
H1262 H 0.08351 0.30832 0.1778 0.0
H1263 H 0.17908 0.30936 0.07772 0.0
H1264 H 0.16177 0.34143 0.18279 0.0
H1265 H 0.10018 0.33823 0.07239 0.0
H1266 H 0.17293 0.29596 0.11638 0.0
H1267 H 0.0899 0.2942 0.13924 0.0
C1268 C 0.10218 0.31137 0.17092 0.0
C1269 C 0.12213 0.32625 0.18335 0.0
C1270 C 0.15688 0.30424 0.10657 0.0
C1271 C 0.12956 0.31009 0.13959 0.0
C1272 C 0.16034 0.31157 0.08455 0.0
C1273 C 0.14012 0.32508 0.07198 0.0
C1274 C 0.13296 0.3098 0.11587 0.0
C1275 C 0.11626 0.32808 0.08163 0.0
C1276 C 0.10577 0.30361 0.14896 0.0
C1277 C 0.14589 0.33023 0.17365 0.0
N1278 N 0.11335 0.32075 0.10303 0.0
N1279 N 0.14894 0.32244 0.15232 0.0
H1280 H 0.54003 0.89457 0.99373 0.0
H1281 H 0.4709 0.10268 0.01265 0.0
H1282 H 0.5735 0.9928 0.02819 0.0
H1283 H 0.43755 0.00461 0.97797 0.0
H1284 H 0.50913 0.06353 0.01756 0.0
H1285 H 0.50183 0.93377 0.98877 0.0
C1286 C 0.53921 0.92413 1.00059 0.0
C1287 C 0.56012 0.94046 0.01129 0.0
C1288 C 0.49354 0.05069 0.00872 0.0
C1289 C 0.51657 0.98584 0.00523 0.0
C1290 C 0.47176 0.07317 0.00572 0.0
C1291 C 0.45088 0.05685 0.99498 0.0
C1292 C 0.49445 0.01153 1.001 0.0
C1293 C 0.45315 0.01848 0.98633 0.0
C1294 C 0.51745 0.94664 0.99757 0.0
C1295 C 0.55788 0.9789 0.01987 0.0
N1296 N 0.47445 0.99698 0.98972 0.0
N1297 N 0.5366 0.00042 0.01646 0.0
H1298 H 0.8233 0.24005 0.97519 0.0
H1299 H 0.68671 0.25286 0.02938 0.0
H1300 H 0.79048 0.14577 0.0132 0.0
H1301 H 0.72035 0.34784 0.99243 0.0
H1302 H 0.72493 0.21367 0.02431 0.0
H1303 H 0.78493 0.27885 0.98012 0.0
C1304 C 0.80786 0.2271 0.98419 0.0
C1305 C 0.81025 0.18964 0.99392 0.0
C1306 C 0.72403 0.24323 0.01747 0.0
C1307 C 0.76646 0.2344 1.00006 0.0
C1308 C 0.7023 0.26586 0.02059 0.0
C1309 C 0.7002 0.30367 0.01121 0.0
C1310 C 0.7438 0.2585 0.0049 0.0
C1311 C 0.72102 0.31874 0.99984 0.0
C1312 C 0.78604 0.24953 0.98723 0.0
C1313 C 0.78959 0.17461 0.00552 0.0
N1314 N 0.74184 0.29599 0.99686 0.0
N1315 N 0.76866 0.19718 0.00842 0.0
H1316 H 0.47128 0.14362 0.24423 0.0
H1317 H 0.54032 0.35189 0.26277 0.0
H1318 H 0.4381 0.24172 0.27901 0.0
H1319 H 0.5741 0.25323 0.22889 0.0
H1320 H 0.50218 0.31261 0.26782 0.0
H1321 H 0.50956 0.18265 0.23932 0.0
C1322 C 0.47219 0.17311 0.25118 0.0
C1323 C 0.45134 0.18948 0.26194 0.0
C1324 C 0.51785 0.29966 0.25913 0.0
C1325 C 0.49496 0.23466 0.25593 0.0
C1326 C 0.53958 0.32221 0.25605 0.0
C1327 C 0.56055 0.30579 0.24549 0.0
C1328 C 0.51707 0.26033 0.25166 0.0
C1329 C 0.55842 0.2672 0.2371 0.0
C1330 C 0.49399 0.19552 0.24819 0.0
C1331 C 0.45368 0.22781 0.27064 0.0
N1332 N 0.53716 0.24564 0.24055 0.0
N1333 N 0.47499 0.24925 0.26724 0.0
H1334 H 0.68707 0.99374 0.22669 0.0
H1335 H 0.82377 0.00695 0.28066 0.0
H1336 H 0.72063 0.89917 0.26401 0.0
H1337 H 0.79067 0.10113 0.24276 0.0
H1338 H 0.78538 0.96809 0.27591 0.0
H1339 H 0.72528 0.03297 0.23169 0.0
C1340 C 0.70264 0.98083 0.23555 0.0
C1341 C 0.70052 0.94312 0.24505 0.0
C1342 C 0.78644 0.99741 0.26879 0.0
C1343 C 0.74411 0.98835 0.25127 0.0
C1344 C 0.80826 0.01987 0.27172 0.0
C1345 C 0.81058 0.05731 0.26196 0.0
C1346 C 0.76677 0.01249 0.25603 0.0
C1347 C 0.78984 0.0723 0.25045 0.0
C1348 C 0.72436 0.00349 0.23863 0.0
C1349 C 0.72131 0.92818 0.2565 0.0
N1350 N 0.76891 0.0497 0.24765 0.0
N1351 N 0.74213 0.95096 0.25944 0.0
H1352 H 0.22158 0.85382 0.99482 0.0
H1353 H 0.29015 0.64465 0.01165 0.0
H1354 H 0.18806 0.75483 0.0286 0.0
H1355 H 0.32392 0.74379 0.97818 0.0
H1356 H 0.25209 0.68399 0.01705 0.0
H1357 H 0.25975 0.81465 0.98956 0.0
C1358 C 0.22239 0.8241 1.00149 0.0
C1359 C 0.20147 0.80753 0.01206 0.0
C1360 C 0.26774 0.69703 0.00837 0.0
C1361 C 0.24496 0.76221 0.00564 0.0
C1362 C 0.28942 0.67445 0.00509 0.0
C1363 C 0.31037 0.69099 0.99455 0.0
C1364 C 0.26699 0.73651 1.00112 0.0
C1365 C 0.30826 0.72973 0.98636 0.0
C1366 C 0.24413 0.80161 0.99829 0.0
C1367 C 0.20369 0.7689 0.02038 0.0
N1368 N 0.28705 0.75131 0.99002 0.0
N1369 N 0.22494 0.74741 0.01679 0.0
H1370 H 0.5738 0.75472 0.72546 0.0
H1371 H 0.43726 0.74145 0.77971 0.0
H1372 H 0.54047 0.84917 0.76303 0.0
H1373 H 0.47053 0.64702 0.7421 0.0
H1374 H 0.47554 0.7805 0.77477 0.0
H1375 H 0.53555 0.71559 0.73047 0.0
C1376 C 0.55827 0.76762 0.73438 0.0
C1377 C 0.56047 0.80525 0.74396 0.0
C1378 C 0.47454 0.75108 0.76775 0.0
C1379 C 0.51685 0.76013 0.75019 0.0
C1380 C 0.45278 0.72853 0.7708 0.0
C1381 C 0.45055 0.69094 0.76118 0.0
C1382 C 0.49422 0.73597 0.75502 0.0
C1383 C 0.4713 0.67595 0.74969 0.0
C1384 C 0.53653 0.74502 0.73746 0.0
C1385 C 0.53973 0.82021 0.75546 0.0
N1386 N 0.49216 0.69865 0.74677 0.0
N1387 N 0.51888 0.79748 0.75841 0.0
H1388 H 0.28979 0.10175 0.74512 0.0
H1389 H 0.22121 0.89286 0.76284 0.0
H1390 H 0.32365 0.00314 0.77898 0.0
H1391 H 0.18831 0.99071 0.72766 0.0
H1392 H 0.25928 0.93222 0.76823 0.0
H1393 H 0.25179 0.06224 0.73983 0.0
C1394 C 0.28909 0.07203 0.75179 0.0
C1395 C 0.31005 0.05568 0.7624 0.0
C1396 C 0.24382 0.94495 0.75917 0.0
C1397 C 0.26675 0.00995 0.75596 0.0
C1398 C 0.22214 0.92235 0.7559 0.0
C1399 C 0.20142 0.93856 0.74489 0.0
C1400 C 0.24478 0.98411 0.75145 0.0
C1401 C 0.20378 0.97691 0.73622 0.0
C1402 C 0.26745 0.04934 0.74858 0.0
C1403 C 0.30798 0.01705 0.77074 0.0
N1404 N 0.22496 -0.00148 0.73989 0.0
N1405 N 0.2868 0.99535 0.76714 0.0
H1406 H 0.53971 0.39333 0.4945 0.0
H1407 H 0.47177 0.603 0.51128 0.0
H1408 H 0.57343 0.4919 0.52849 0.0
H1409 H 0.43793 0.50429 0.47749 0.0
H1410 H 0.50975 0.56345 0.51666 0.0
H1411 H 0.50178 0.43294 0.48901 0.0
C1412 C 0.53899 0.42305 0.50116 0.0
C1413 C 0.55989 0.43936 0.51187 0.0
C1414 C 0.4941 0.55056 0.5079 0.0
C1415 C 0.51669 0.4852 0.50519 0.0
C1416 C 0.47248 0.57326 0.50463 0.0
C1417 C 0.45152 0.55689 0.49403 0.0
C1418 C 0.49478 0.51112 0.50059 0.0
C1419 C 0.45359 0.51823 0.48573 0.0
C1420 C 0.51739 0.4458 0.49783 0.0
C1421 C 0.5578 0.47802 0.52018 0.0
N1422 N 0.47474 0.49651 0.48939 0.0
N1423 N 0.53668 0.49976 0.51646 0.0
H1424 H 0.82405 0.74163 0.47599 0.0
H1425 H 0.68731 0.75412 0.52994 0.0
H1426 H 0.79028 0.64615 0.51248 0.0
H1427 H 0.72106 0.84955 0.49341 0.0
H1428 H 0.72549 0.71492 0.52472 0.0
H1429 H 0.78589 0.78085 0.48126 0.0
C1430 C 0.80844 0.72852 0.48471 0.0
C1431 C 0.81049 0.69057 0.49393 0.0
C1432 C 0.72462 0.74458 0.51801 0.0
C1433 C 0.76697 0.73578 0.50047 0.0
C1434 C 0.70292 0.76722 0.52123 0.0
C1435 C 0.70086 0.80515 0.51198 0.0
C1436 C 0.7444 0.75996 0.50549 0.0
C1437 C 0.72171 0.82035 0.50071 0.0
C1438 C 0.78675 0.75117 0.48795 0.0
C1439 C 0.78965 0.67536 0.5052 0.0
N1440 N 0.74251 0.79758 0.49762 0.0
N1441 N 0.76886 0.69814 0.50831 0.0
H1442 H 0.79007 0.60196 0.744 0.0
H1443 H 0.72151 0.39293 0.76135 0.0
H1444 H 0.82409 0.5028 0.77726 0.0
H1445 H 0.68792 0.49172 0.72744 0.0
H1446 H 0.75971 0.43209 0.76645 0.0
H1447 H 0.75195 0.56265 0.73884 0.0
C1448 C 0.78939 0.57216 0.75056 0.0
C1449 C 0.81042 0.55561 0.76098 0.0
C1450 C 0.74407 0.44509 0.75773 0.0
C1451 C 0.76697 0.51012 0.75468 0.0
C1452 C 0.72231 0.42261 0.75462 0.0
C1453 C 0.70137 0.43911 0.74405 0.0
C1454 C 0.7449 0.48444 0.75029 0.0
C1455 C 0.70357 0.47768 0.73565 0.0
C1456 C 0.76768 0.5496 0.74742 0.0
C1457 C 0.80836 0.51687 0.76918 0.0
N1458 N 0.72485 0.49918 0.73915 0.0
N1459 N 0.78712 0.49531 0.76566 0.0
H1460 H 0.28988 0.14303 0.51131 0.0
H1461 H 0.22192 0.35268 0.49443 0.0
H1462 H 0.32391 0.24191 0.47781 0.0
H1463 H 0.18807 0.25395 0.52818 0.0
H1464 H 0.25994 0.31318 0.48913 0.0
H1465 H 0.25188 0.18257 0.51661 0.0
C1466 C 0.28921 0.17281 0.50471 0.0
C1467 C 0.31022 0.18923 0.4942 0.0
C1468 C 0.24428 0.30027 0.49786 0.0
C1469 C 0.26693 0.23498 0.50067 0.0
C1470 C 0.22263 0.32295 0.50108 0.0
C1471 C 0.20166 0.30656 0.51167 0.0
C1472 C 0.24497 0.26085 0.50519 0.0
C1473 C 0.20374 0.2679 0.51997 0.0
C1474 C 0.26757 0.19551 0.50793 0.0
C1475 C 0.3082 0.22794 0.48597 0.0
N1476 N 0.22491 0.24621 0.51635 0.0
N1477 N 0.28703 0.24964 0.48957 0.0
H1478 H 0.1873 0.49367 0.22588 0.0
H1479 H 0.32426 0.50456 0.27956 0.0
H1480 H 0.22114 0.39728 0.2616 0.0
H1481 H 0.29047 0.60097 0.24382 0.0
H1482 H 0.28605 0.46554 0.2741 0.0
H1483 H 0.22556 0.53265 0.23125 0.0
C1484 C 0.20295 0.48032 0.23444 0.0
C1485 C 0.20089 0.44218 0.24342 0.0
C1486 C 0.28692 0.49538 0.26762 0.0
C1487 C 0.24451 0.48709 0.2501 0.0
C1488 C 0.30863 0.51791 0.27097 0.0
C1489 C 0.31069 0.55607 0.26202 0.0
C1490 C 0.26711 0.51111 0.25525 0.0
C1491 C 0.28983 0.57159 0.2509 0.0
C1492 C 0.22469 0.50283 0.23775 0.0
C1493 C 0.22178 0.42665 0.25451 0.0
N1494 N 0.26901 0.54893 0.24767 0.0
N1495 N 0.24261 0.44929 0.2577 0.0
H1496 H 0.07394 0.99004 0.53027 0.0
H1497 H 0.93741 0.00326 0.47603 0.0
H1498 H 0.04051 0.89525 0.49303 0.0
H1499 H 0.97115 0.09827 0.51289 0.0
H1500 H 0.97554 0.96392 0.48122 0.0
H1501 H 0.03574 0.02921 0.52515 0.0
C1502 C 0.05839 0.97706 0.52141 0.0
C1503 C 0.06056 0.93934 0.51194 0.0
C1504 C 0.97468 0.99352 0.48801 0.0
C1505 C 0.01699 0.9845 0.50557 0.0
C1506 C 0.95301 0.01624 0.48481 0.0
C1507 C 0.95096 0.05409 0.49415 0.0
C1508 C 0.99444 0.00875 0.50061 0.0
C1509 C 0.97178 0.06914 0.50551 0.0
C1510 C 0.03668 -0.00031 0.51826 0.0
C1511 C 0.03978 0.92429 0.50051 0.0
N1512 N 0.99255 0.0463 0.50857 0.0
N1513 N 0.01897 0.94705 0.49748 0.0
H1514 H 0.07401 0.25513 0.72488 0.0
H1515 H 0.93766 0.24226 0.77953 0.0
H1516 H 0.04071 0.34999 0.76215 0.0
H1517 H 0.97087 0.14741 0.7422 0.0
H1518 H 0.97583 0.28143 0.77421 0.0
H1519 H 0.03573 0.21609 0.72999 0.0
C1520 C 0.05848 0.26814 0.73374 0.0
C1521 C 0.0607 0.30584 0.74323 0.0
C1522 C 0.97484 0.2519 0.76734 0.0
C1523 C 0.01706 0.26084 0.7496 0.0
C1524 C 0.95315 0.22928 0.7706 0.0
C1525 C 0.95094 0.19152 0.76119 0.0
C1526 C 0.99447 0.23668 0.75458 0.0
C1527 C 0.97163 0.17647 0.74964 0.0
C1528 C 0.03672 0.24559 0.73689 0.0
C1529 C 0.03995 0.32096 0.75467 0.0
N1530 N 0.99243 0.19922 0.74652 0.0
N1531 N 0.0191 0.29827 0.75769 0.0
H1532 H 0.97131 0.64527 0.24378 0.0
H1533 H 0.04059 0.85254 0.26481 0.0
H1534 H 0.93766 0.74249 0.27896 0.0
H1535 H 0.07314 0.75637 0.22805 0.0
H1536 H 1.00241 0.8132 0.26962 0.0
H1537 H 0.00947 0.68468 0.2392 0.0
C1538 C 0.97208 0.67465 0.25088 0.0
C1539 C 0.95114 0.69066 0.26165 0.0
C1540 C 0.01783 0.80084 0.26035 0.0
C1541 C 0.99464 0.73628 0.25604 0.0
C1542 C 0.03957 0.82343 0.25742 0.0
C1543 C 0.06022 0.80768 0.24611 0.0
C1544 C 0.01672 0.76214 0.25199 0.0
C1545 C 0.05773 0.76981 0.23687 0.0
C1546 C 0.99382 0.69728 0.24807 0.0
C1547 C 0.95331 0.72885 0.27056 0.0
N1548 N 0.03648 0.74818 0.2402 0.0
N1549 N 0.97459 0.75052 0.26736 0.0
H1550 H 0.97149 0.60196 0.01234 0.0
H1551 H 0.04021 0.39324 0.99433 0.0
H1552 H 0.93813 0.50369 0.97783 0.0
H1553 H 0.07373 0.49161 0.02864 0.0
H1554 H 1.00206 0.43252 0.98925 0.0
H1555 H 0.00954 0.56255 0.01766 0.0
C1556 C 0.97231 0.57235 0.00554 0.0
C1557 C 0.95147 0.55607 0.99472 0.0
C1558 C 0.01768 0.4454 0.99805 0.0
C1559 C 0.99483 0.51046 1.0012 0.0
C1560 C 0.0394 0.42284 1.00115 0.0
C1561 C 0.06032 0.43921 0.01182 0.0
C1562 C 0.01685 0.48467 0.00561 0.0
C1563 C 0.05811 0.47769 0.02034 0.0
C1564 C 0.99398 0.54972 0.00877 0.0
C1565 C 0.95369 0.51755 0.98623 0.0
N1566 N 0.03686 0.49927 0.01685 0.0
N1567 N 0.97488 0.49592 0.98984 0.0
H1568 H 0.32299 0.1779 0.18478 0.0
H1569 H 0.32246 0.06968 0.07202 0.0
H1570 H 0.328 0.05107 0.17643 0.0
H1571 H 0.32805 0.19645 0.08035 0.0
H1572 H 0.30998 0.06295 0.10969 0.0
H1573 H 0.31036 0.18477 0.14716 0.0
C1574 C 0.32068 0.15133 0.17511 0.0
C1575 C 0.3269 0.11389 0.18355 0.0
C1576 C 0.31329 0.09238 0.10322 0.0
C1577 C 0.31307 0.12164 0.14033 0.0
C1578 C 0.32029 0.09628 0.08169 0.0
C1579 C 0.32664 0.13365 0.07324 0.0
C1580 C 0.31301 0.12605 0.11651 0.0
C1581 C 0.32339 0.16714 0.08631 0.0
C1582 C 0.31357 0.15531 0.15361 0.0
C1583 C 0.32344 0.08044 0.17048 0.0
N1584 N 0.31735 0.16246 0.1075 0.0
N1585 N 0.3173 0.08518 0.14932 0.0
H1586 H 0.93518 0.19794 0.17715 0.0
H1587 H 0.93547 0.04977 0.07854 0.0
H1588 H 0.93614 0.07036 0.18292 0.0
H1589 H 0.93578 0.17736 0.07277 0.0
H1590 H 0.94823 0.05651 0.1164 0.0
H1591 H 0.94793 0.19135 0.13928 0.0
C1592 C 0.93893 0.16867 0.17064 0.0
C1593 C 0.93413 0.13464 0.18293 0.0
C1594 C 0.94616 0.08304 0.10669 0.0
C1595 C 0.94806 0.12666 0.13972 0.0
C1596 C 0.93907 0.07909 0.08505 0.0
C1597 C 0.93409 0.11306 0.07277 0.0
C1598 C 0.94805 0.1212 0.11596 0.0
C1599 C 0.93895 0.15043 0.08194 0.0
C1600 C 0.946 0.1648 0.14898 0.0
C1601 C 0.93917 0.09732 0.17375 0.0
N1602 N 0.94516 0.15356 0.10307 0.0
N1603 N 0.94535 0.09427 0.15261 0.0
H1604 H 0.68527 0.94688 0.82833 0.0
H1605 H 0.68507 0.79939 0.92723 0.0
H1606 H 0.68582 0.81925 0.8228 0.0
H1607 H 0.68592 0.92701 0.93276 0.0
H1608 H 0.69782 0.80575 0.88935 0.0
H1609 H 0.69798 0.94044 0.86621 0.0
C1610 C 0.68891 0.91762 0.8349 0.0
C1611 C 0.68401 0.88355 0.82267 0.0
C1612 C 0.69587 0.83237 0.89901 0.0
C1613 C 0.69792 0.87575 0.86589 0.0
C1614 C 0.6888 0.82862 0.92067 0.0
C1615 C 0.68397 0.86272 0.93289 0.0
C1616 C 0.69791 0.87045 0.88967 0.0
C1617 C 0.68897 0.89999 0.92365 0.0
C1618 C 0.69598 0.91384 0.85656 0.0
C1619 C 0.68893 0.84625 0.83192 0.0
N1620 N 0.69516 0.90291 0.9025 0.0
N1621 N 0.6951 0.8433 0.85307 0.0
H1622 H 0.07589 0.94643 0.9275 0.0
H1623 H 0.07609 0.79903 0.82847 0.0
H1624 H 0.07656 0.81878 0.93288 0.0
H1625 H 0.07469 0.92665 0.82301 0.0
H1626 H 0.06367 0.80521 0.86643 0.0
H1627 H 0.06294 0.93984 0.88967 0.0
C1628 C 0.07249 0.91712 0.92091 0.0
C1629 C 0.07779 0.88312 0.93308 0.0
C1630 C 0.06542 0.83186 0.85678 0.0
C1631 C 0.06357 0.87515 0.88993 0.0
C1632 C 0.0723 0.82822 0.83507 0.0
C1633 C 0.07689 0.86239 0.82283 0.0
C1634 C 0.06334 0.86991 0.86615 0.0
C1635 C 0.07182 0.89959 0.83213 0.0
C1636 C 0.06528 0.91325 0.89929 0.0
C1637 C 0.07316 0.84575 0.92381 0.0
N1638 N 0.06583 0.90242 0.85332 0.0
N1639 N 0.06681 0.84273 0.90271 0.0
H1640 H 0.32204 0.67538 0.68431 0.0
H1641 H 0.32404 0.56845 0.57122 0.0
H1642 H 0.32879 0.54886 0.67555 0.0
H1643 H 0.32847 0.69523 0.58004 0.0
H1644 H 0.31111 0.56101 0.60873 0.0
H1645 H 0.30965 0.6823 0.64662 0.0
C1646 C 0.32012 0.64886 0.67454 0.0
C1647 C 0.32677 0.61153 0.68287 0.0
C1648 C 0.31426 0.59057 0.6024 0.0
C1649 C 0.31328 0.61936 0.6396 0.0
C1650 C 0.32154 0.59488 0.58097 0.0
C1651 C 0.32769 0.63249 0.57271 0.0
C1652 C 0.31351 0.62408 0.6158 0.0
C1653 C 0.32399 0.66575 0.58586 0.0
C1654 C 0.31317 0.65288 0.65301 0.0
C1655 C 0.32387 0.57814 0.66968 0.0
N1656 N 0.31767 0.66069 0.60697 0.0
N1657 N 0.31789 0.58294 0.64849 0.0
H1658 H 0.93817 0.67589 0.57087 0.0
H1659 H 0.93838 0.56969 0.68422 0.0
H1660 H 0.93239 0.54932 0.57993 0.0
H1661 H 0.93257 0.69626 0.67517 0.0
H1662 H 0.95093 0.56228 0.6466 0.0
H1663 H 0.95086 0.6833 0.60846 0.0
C1664 C 0.94035 0.64948 0.58069 0.0
C1665 C 0.9339 0.61197 0.57247 0.0
C1666 C 0.94757 0.59181 0.6529 0.0
C1667 C 0.94776 0.62035 0.61563 0.0
C1668 C 0.94053 0.59611 0.67439 0.0
C1669 C 0.9341 0.63361 0.68263 0.0
C1670 C 0.94781 0.62523 0.63943 0.0
C1671 C 0.93731 0.66686 0.66937 0.0
C1672 C 0.94747 0.65377 0.60216 0.0
C1673 C 0.93714 0.57872 0.58572 0.0
N1674 N 0.9434 0.6618 0.64822 0.0
N1675 N 0.94331 0.58378 0.60685 0.0
H1676 H 0.68457 0.44851 0.3293 0.0
H1677 H 0.68532 0.30002 0.42758 0.0
H1678 H 0.6872 0.32104 0.32324 0.0
H1679 H 0.68553 0.42758 0.43363 0.0
H1680 H 0.69828 0.30706 0.3898 0.0
H1681 H 0.69723 0.44205 0.36719 0.0
C1682 C 0.68869 0.41932 0.33575 0.0
C1683 C 0.68438 0.38524 0.32338 0.0
C1684 C 0.69614 0.33352 0.39955 0.0
C1685 C 0.69818 0.37737 0.36661 0.0
C1686 C 0.68893 0.32939 0.42115 0.0
C1687 C 0.68385 0.36326 0.43349 0.0
C1688 C 0.69805 0.37175 0.39037 0.0
C1689 C 0.68875 0.40071 0.42442 0.0
C1690 C 0.69571 0.41551 0.35742 0.0
C1691 C 0.68986 0.34803 0.33248 0.0
N1692 N 0.69506 0.404 0.40332 0.0
N1693 N 0.69596 0.345 0.35364 0.0
H1694 H 0.07653 0.44643 0.42736 0.0
H1695 H 0.0766 0.30004 0.32793 0.0
H1696 H 0.07668 0.31871 0.43236 0.0
H1697 H 0.07623 0.42775 0.32293 0.0
H1698 H 0.06386 0.30599 0.36583 0.0
H1699 H 0.06365 0.44035 0.3895 0.0
C1700 C 0.07303 0.41721 0.42068 0.0
C1701 C 0.07819 0.38303 0.43274 0.0
C1702 C 0.06592 0.33272 0.35628 0.0
C1703 C 0.06407 0.37566 0.38956 0.0
C1704 C 0.073 0.32922 0.33462 0.0
C1705 C 0.07798 0.36345 0.32254 0.0
C1706 C 0.06402 0.37069 0.36577 0.0
C1707 C 0.0731 0.40063 0.33193 0.0
C1708 C 0.06586 0.41364 0.39904 0.0
C1709 C 0.07341 0.3458 0.42336 0.0
N1710 N 0.06689 0.40331 0.35308 0.0
N1711 N 0.06712 0.34306 0.40223 0.0
H1712 H 0.82665 0.19677 0.57842 0.0
H1713 H 0.82621 0.04936 0.67727 0.0
H1714 H 0.82559 0.06915 0.57287 0.0
H1715 H 0.82524 0.17697 0.68283 0.0
H1716 H 0.81356 0.05573 0.63937 0.0
H1717 H 0.81373 0.19044 0.61626 0.0
C1718 C 0.82286 0.16755 0.58497 0.0
C1719 C 0.82768 0.13343 0.57276 0.0
C1720 C 0.81546 0.08234 0.64904 0.0
C1721 C 0.81354 0.12574 0.61593 0.0
C1722 C 0.82248 0.07859 0.67071 0.0
C1723 C 0.82725 0.11269 0.68295 0.0
C1724 C 0.81344 0.12043 0.6397 0.0
C1725 C 0.82223 0.14996 0.67371 0.0
C1726 C 0.81567 0.16382 0.60661 0.0
C1727 C 0.82256 0.09618 0.58198 0.0
N1728 N 0.81611 0.15289 0.65255 0.0
N1729 N 0.81628 0.09327 0.6031 0.0
H1730 H 0.43748 0.17659 0.57197 0.0
H1731 H 0.43732 0.06862 0.68481 0.0
H1732 H 0.43229 0.04979 0.58034 0.0
H1733 H 0.43251 0.19546 0.67645 0.0
H1734 H 0.44973 0.06165 0.64714 0.0
H1735 H 0.44991 0.18347 0.60964 0.0
C1736 C 0.43971 0.15003 0.58166 0.0
C1737 C 0.4335 0.11259 0.57321 0.0
C1738 C 0.44661 0.09113 0.6536 0.0
C1739 C 0.44709 0.12035 0.61648 0.0
C1740 C 0.43963 0.09516 0.67513 0.0
C1741 C 0.43354 0.13265 0.68358 0.0
C1742 C 0.4471 0.12479 0.64031 0.0
C1743 C 0.43697 0.16606 0.67049 0.0
C1744 C 0.44669 0.15401 0.60319 0.0
C1745 C 0.43684 0.07915 0.5863 0.0
N1746 N 0.44299 0.16127 0.6493 0.0
N1747 N 0.44287 0.0839 0.60749 0.0
H1748 H 0.19663 0.82531 0.31861 0.0
H1749 H 0.18351 0.79785 0.42692 0.0
H1750 H 0.17721 0.9468 0.33259 0.0
H1751 H 0.18655 0.92526 0.43293 0.0
H1752 H 0.19594 0.80391 0.38922 0.0
H1753 H 0.20907 0.81586 0.35607 0.0
C1754 C 0.19566 0.85033 0.32958 0.0
C1755 C 0.1857 0.88678 0.32267 0.0
C1756 C 0.19489 0.83064 0.39881 0.0
C1757 C 0.19819 0.87555 0.36596 0.0
C1758 C 0.18781 0.82697 0.42047 0.0
C1759 C 0.18365 0.86108 0.43285 0.0
C1760 C 0.19781 0.86878 0.38964 0.0
C1761 C 0.18918 0.89823 0.42373 0.0
C1762 C 0.2023 0.84472 0.35111 0.0
C1763 C 0.18483 0.91827 0.33733 0.0
N1764 N 0.19548 0.90113 0.40261 0.0
N1765 N 0.19046 0.91168 0.35844 0.0
H1766 H 0.57598 0.94641 0.42744 0.0
H1767 H 0.5767 0.7988 0.32881 0.0
H1768 H 0.57583 0.8188 0.43313 0.0
H1769 H 0.57427 0.92634 0.3231 0.0
H1770 H 0.56393 0.80495 0.36668 0.0
H1771 H 0.56293 0.93972 0.38966 0.0
C1772 C 0.57237 0.9171 0.42093 0.0
C1773 C 0.5775 0.88311 0.43316 0.0
C1774 C 0.56552 0.83158 0.35699 0.0
C1775 C 0.5632 0.87502 0.39005 0.0
C1776 C 0.57261 0.82795 0.33533 0.0
C1777 C 0.57702 0.86213 0.32307 0.0
C1778 C 0.56308 0.86963 0.36628 0.0
C1779 C 0.57155 0.89928 0.33226 0.0
C1780 C 0.5651 0.91317 0.39933 0.0
C1781 C 0.57259 0.84574 0.424 0.0
N1782 N 0.56538 0.90212 0.35341 0.0
N1783 N 0.56622 0.84265 0.4029 0.0
H1784 H 0.82624 0.69733 0.07807 0.0
H1785 H 0.82619 0.55009 0.17704 0.0
H1786 H 0.82521 0.5697 0.07262 0.0
H1787 H 0.8258 0.67774 0.18248 0.0
H1788 H 0.81331 0.55647 0.1392 0.0
H1789 H 0.81352 0.6911 0.11596 0.0
C1790 C 0.82247 0.66812 0.08466 0.0
C1791 C 0.82725 0.63397 0.07245 0.0
C1792 C 0.81539 0.58309 0.14883 0.0
C1793 C 0.81336 0.6264 0.11569 0.0
C1794 C 0.82255 0.57935 0.17047 0.0
C1795 C 0.82755 0.61344 0.18265 0.0
C1796 C 0.81344 0.62117 0.13947 0.0
C1797 C 0.82263 0.65072 0.17339 0.0
C1798 C 0.81542 0.66445 0.10632 0.0
C1799 C 0.82219 0.59675 0.08172 0.0
N1800 N 0.81636 0.65364 0.15226 0.0
N1801 N 0.81603 0.5939 0.10288 0.0
H1802 H 0.43501 0.69737 0.17721 0.0
H1803 H 0.43502 0.54952 0.07844 0.0
H1804 H 0.43537 0.56975 0.18286 0.0
H1805 H 0.43624 0.6771 0.07275 0.0
H1806 H 0.44756 0.55596 0.11636 0.0
H1807 H 0.44782 0.69075 0.13935 0.0
C1808 C 0.43862 0.66808 0.17067 0.0
C1809 C 0.43364 0.63406 0.18292 0.0
C1810 C 0.44574 0.58255 0.10667 0.0
C1811 C 0.44768 0.62606 0.13974 0.0
C1812 C 0.4388 0.57876 0.08498 0.0
C1813 C 0.43413 0.61283 0.07269 0.0
C1814 C 0.44781 0.62066 0.11596 0.0
C1815 C 0.43918 0.65011 0.08191 0.0
C1816 C 0.44574 0.66419 0.14903 0.0
C1817 C 0.43852 0.59672 0.17372 0.0
N1818 N 0.44524 0.65309 0.10308 0.0
N1819 N 0.44477 0.59367 0.15259 0.0
H1820 H 0.18554 0.29977 0.92724 0.0
H1821 H 0.18519 0.44663 0.82793 0.0
H1822 H 0.1853 0.42746 0.93242 0.0
H1823 H 0.18577 0.31894 0.82273 0.0
H1824 H 0.19781 0.44053 0.86585 0.0
H1825 H 0.1982 0.30605 0.88933 0.0
C1826 C 0.18899 0.32902 0.92059 0.0
C1827 C 0.18388 0.36313 0.93273 0.0
C1828 C 0.19581 0.41384 0.85626 0.0
C1829 C 0.19774 0.37074 0.88949 0.0
C1830 C 0.18881 0.41743 0.83458 0.0
C1831 C 0.18394 0.38325 0.82243 0.0
C1832 C 0.19775 0.37583 0.8657 0.0
C1833 C 0.18883 0.34603 0.83179 0.0
C1834 C 0.19602 0.33271 0.89892 0.0
C1835 C 0.18855 0.40041 0.92338 0.0
N1836 N 0.19497 0.34327 0.85295 0.0
N1837 N 0.19472 0.40327 0.90222 0.0
H1838 H 0.57172 0.32113 0.93461 0.0
H1839 H 0.57415 0.42832 0.82153 0.0
H1840 H 0.57915 0.44758 0.92595 0.0
H1841 H 0.57791 0.30146 0.83024 0.0
H1842 H 0.56144 0.43584 0.8591 0.0
H1843 H 0.55938 0.31446 0.89689 0.0
C1844 C 0.56995 0.3477 0.92485 0.0
C1845 C 0.57677 0.38492 0.93323 0.0
C1846 C 0.5644 0.40625 0.85274 0.0
C1847 C 0.56333 0.37736 0.88992 0.0
C1848 C 0.57155 0.4019 0.83127 0.0
C1849 C 0.57744 0.36423 0.82295 0.0
C1850 C 0.56351 0.37272 0.86611 0.0
C1851 C 0.57362 0.33099 0.8361 0.0
C1852 C 0.56304 0.34382 0.9033 0.0
C1853 C 0.57409 0.41838 0.92005 0.0
N1854 N 0.56743 0.33608 0.85723 0.0
N1855 N 0.56812 0.41371 0.89884 0.0
H1856 H 0.15909 0.01046 0.01171 0.0
H1857 H 0.29145 0.0525 0.95455 0.0
H1858 H 0.18164 0.96087 0.95053 0.0
H1859 H 0.26729 0.1159 0.01136 0.0
H1860 H 0.24982 0.02236 0.95194 0.0
H1861 H 0.19658 0.05334 0.01094 0.0
C1862 C 0.17158 0.0091 0.99793 0.0
C1863 C 0.16721 0.98164 0.98125 0.0
C1864 C 0.25345 0.04313 0.9649 0.0
C1865 C 0.21036 0.03025 0.98043 0.0
C1866 C 0.27732 0.06039 0.9664 0.0
C1867 C 0.28305 0.08671 0.98327 0.0
C1868 C 0.23503 0.05167 0.98051 0.0
C1869 C 0.26378 0.09585 0.99806 0.0
C1870 C 0.19308 0.03344 0.99756 0.0
C1871 C 0.18424 0.98115 0.96388 0.0
N1872 N 0.24075 0.07802 0.99649 0.0
N1873 N 0.20506 0.00464 0.96405 0.0
H1874 H 0.10247 0.23618 0.01128 0.0
H1875 H 0.96982 0.19527 0.95438 0.0
H1876 H 0.07986 0.28615 0.9502 0.0
H1877 H 0.99408 0.13112 0.01092 0.0
H1878 H 0.01148 0.22527 0.95177 0.0
H1879 H 0.06487 0.19353 0.01054 0.0
C1880 C 0.08994 0.23767 0.99752 0.0
C1881 C 0.09433 0.26517 0.98088 0.0
C1882 C 0.00786 0.20437 0.96466 0.0
C1883 C 0.05105 0.21684 0.98009 0.0
C1884 C 0.98397 0.18719 0.96618 0.0
C1885 C 0.97827 0.1607 0.98296 0.0
C1886 C 0.02634 0.19557 0.9802 0.0
C1887 C 0.99758 0.15132 0.99768 0.0
C1888 C 0.06838 0.21346 0.99717 0.0
C1889 C 0.07725 0.26584 0.96354 0.0
N1890 N 0.02063 0.16907 0.99611 0.0
N1891 N 0.05637 0.24248 0.96373 0.0
H1892 H 0.29193 0.19517 0.30201 0.0
H1893 H 0.15963 0.23688 0.24455 0.0
H1894 H 0.26767 0.13117 0.24542 0.0
H1895 H 0.18269 0.28864 0.30507 0.0
H1896 H 0.19701 0.1938 0.24563 0.0
H1897 H 0.25043 0.22579 0.30439 0.0
C1898 C 0.27781 0.18724 0.29016 0.0
C1899 C 0.28347 0.16062 0.27342 0.0
C1900 C 0.19366 0.21424 0.2588 0.0
C1901 C 0.2356 0.19622 0.27591 0.0
C1902 C 0.17222 0.23871 0.25826 0.0
C1903 C 0.16801 0.2668 0.27465 0.0
C1904 C 0.21103 0.21793 0.27583 0.0
C1905 C 0.18517 0.26786 0.29192 0.0
C1906 C 0.25401 0.20479 0.29153 0.0
C1907 C 0.2642 0.15145 0.25863 0.0
N1908 N 0.20591 0.2442 0.29193 0.0
N1909 N 0.24125 0.16956 0.26007 0.0
H1910 H 0.99409 0.11888 0.24462 0.0
H1911 H 0.08107 0.9616 0.30695 0.0
H1912 H 0.97067 0.05097 0.30011 0.0
H1913 H 0.10107 0.00992 0.24483 0.0
H1914 H 0.04386 0.00381 0.30753 0.0
H1915 H 0.03603 0.08834 0.24717 0.0
C1916 C 0.99782 0.09802 0.25752 0.0
C1917 C 0.97866 0.08738 0.27211 0.0
C1918 C 0.05645 0.00556 0.29383 0.0
C1919 C 0.0267 0.05232 0.27509 0.0
C1920 C 0.07786 0.98149 0.29351 0.0
C1921 C 0.09425 0.98177 0.2757 0.0
C1922 C 0.0511 0.03029 0.2762 0.0
C1923 C 0.08903 0.0086 0.25889 0.0
C1924 C 0.02176 0.08046 0.25889 0.0
C1925 C 0.98467 0.05995 0.28839 0.0
N1926 N 0.06777 0.03147 0.25944 0.0
N1927 N 0.00802 0.04339 0.28938 0.0
H1928 H 0.71969 0.94575 0.05118 0.0
H1929 H 0.85223 0.98647 0.99413 0.0
H1930 H 0.74382 0.88144 0.99466 0.0
H1931 H 0.83 0.03582 0.05546 0.0
H1932 H 0.81459 0.94393 0.99487 0.0
H1933 H 0.7614 0.9756 0.05377 0.0
C1934 C 0.73383 0.93761 0.03938 0.0
C1935 C 0.72807 0.91111 0.02261 0.0
C1936 C 0.81819 0.96369 0.00829 0.0
C1937 C 0.7762 0.94579 0.02535 0.0
C1938 C 0.83978 0.98784 0.00794 0.0
C1939 C 0.84428 0.01514 0.02466 0.0
C1940 C 0.80095 0.96695 0.02544 0.0
C1941 C 0.82729 0.01566 0.04206 0.0
C1942 C 0.75775 0.95469 0.04088 0.0
C1943 C 0.74735 0.90164 0.00789 0.0
N1944 N 0.80638 0.99237 0.04187 0.0
N1945 N 0.77044 0.9193 0.00945 0.0
H1946 H 0.04173 0.80117 0.05141 0.0
H1947 H 0.90951 0.75967 0.99395 0.0
H1948 H 0.01772 0.86515 0.99474 0.0
H1949 H 0.93158 0.71048 0.05536 0.0
H1950 H 0.94709 0.80234 0.99478 0.0
H1951 H 1.00008 0.77108 0.05388 0.0
C1952 C 0.02764 0.80919 0.03955 0.0
C1953 C 0.0334 0.83567 0.02278 0.0
C1954 C 0.94347 0.78258 0.0082 0.0
C1955 C 0.98535 0.80071 0.02538 0.0
C1956 C 0.92192 0.75835 0.0078 0.0
C1957 C 0.91739 0.73107 0.02452 0.0
C1958 C 0.96064 0.77942 0.02541 0.0
C1959 C 0.93432 0.73062 0.04196 0.0
C1960 C 1.00375 0.79197 0.04099 0.0
C1961 C 0.01417 0.84497 0.00798 0.0
N1962 N 0.95519 0.75399 0.04182 0.0
N1963 N 0.99112 0.82718 0.00947 0.0
H1964 H 0.85202 0.76009 0.76099 0.0
H1965 H 0.71977 0.80264 0.70369 0.0
H1966 H 0.82926 0.71008 0.69997 0.0
H1967 H 0.74383 0.86559 0.76068 0.0
H1968 H 0.76135 0.77233 0.70114 0.0
H1969 H 0.81459 0.80308 0.76019 0.0
C1970 C 0.83949 0.75865 0.74724 0.0
C1971 C 0.8438 0.73105 0.73062 0.0
C1972 C 0.75771 0.79304 0.71412 0.0
C1973 C 0.80071 0.77981 0.72975 0.0
C1974 C 0.73387 0.8104 0.7156 0.0
C1975 C 0.72812 0.83663 0.7325 0.0
C1976 C 0.77609 0.80138 0.7298 0.0
C1977 C 0.74736 0.84561 0.74735 0.0
C1978 C 0.81802 0.78306 0.74685 0.0
C1979 C 0.82671 0.73046 0.71328 0.0
N1980 N 0.77036 0.82768 0.74581 0.0
N1981 N 0.80593 0.75405 0.71343 0.0
H1982 H 0.90928 0.98652 0.76118 0.0
H1983 H 0.04209 0.94571 0.70446 0.0
H1984 H 0.93224 0.03734 0.7004 0.0
H1985 H 0.01748 0.88095 0.76068 0.0
H1986 H 1.00052 0.97608 0.70189 0.0
H1987 H 0.94684 0.9438 0.76039 0.0
C1988 C 0.92188 0.9882 0.74748 0.0
C1989 C 0.91759 0.01594 0.73093 0.0
C1990 C 1.00405 0.95496 0.71471 0.0
C1991 C 0.96083 0.9675 0.73009 0.0
C1992 C 0.02788 0.93758 0.7162 0.0
C1993 C 0.03346 0.91079 0.73288 0.0
C1994 C 0.9855 0.94608 0.73016 0.0
C1995 C 0.01408 0.90136 0.74751 0.0
C1996 C 0.94342 0.96394 0.7471 0.0
C1997 C 0.93477 0.01683 0.71367 0.0
N1998 N 0.99109 0.91931 0.74597 0.0
N1999 N 0.95562 0.9934 0.71383 0.0
H2000 H 0.26807 0.61799 0.51115 0.0
H2001 H 0.18142 0.45997 0.44907 0.0
H2002 H 0.29151 0.55028 0.45559 0.0
H2003 H 0.16118 0.50896 0.51099 0.0
H2004 H 0.21853 0.5024 0.44839 0.0
H2005 H 0.22618 0.58731 0.50863 0.0
C2006 C 0.26436 0.59714 0.49824 0.0
C2007 C 0.28351 0.5866 0.48362 0.0
C2008 C 0.2059 0.50425 0.46206 0.0
C2009 C 0.23553 0.55137 0.48069 0.0
C2010 C 0.18456 0.48006 0.46245 0.0
C2011 C 0.16814 0.48047 0.48023 0.0
C2012 C 0.21117 0.52923 0.47961 0.0
C2013 C 0.17326 0.50755 0.49694 0.0
C2014 C 0.24045 0.57951 0.49689 0.0
C2015 C 0.27752 0.55919 0.46733 0.0
N2016 N 0.19446 0.53052 0.49634 0.0
N2017 N 0.25419 0.54254 0.46637 0.0
H2018 H 0.08054 0.78517 0.44923 0.0
H2019 H 0.99357 0.62718 0.51098 0.0
H2020 H 0.10046 0.73622 0.51123 0.0
H2021 H 0.97043 0.69493 0.45534 0.0
H2022 H 0.0355 0.65777 0.50859 0.0
H2023 H 0.04347 0.74267 0.44839 0.0
C2024 C 0.07734 0.76508 0.46259 0.0
C2025 C 0.09365 0.7647 0.48045 0.0
C2026 C 0.0213 0.66559 0.4968 0.0
C2027 C 0.05067 0.71587 0.47964 0.0
C2028 C 0.99737 0.648 0.49808 0.0
C2029 C 0.97829 0.6586 0.4834 0.0
C2030 C 0.02631 0.69372 0.48062 0.0
C2031 C 0.98437 0.68598 0.46712 0.0
C2032 C 0.05602 0.74085 0.46212 0.0
C2033 C 0.08846 0.73762 0.49714 0.0
N2034 N 0.00772 0.70258 0.46624 0.0
N2035 N 0.06727 0.71461 0.49645 0.0
H2036 H 0.26721 0.62809 0.74447 0.0
H2037 H 0.17999 0.785 0.80679 0.0
H2038 H 0.29058 0.69639 0.79984 0.0
H2039 H 0.16021 0.73703 0.74453 0.0
H2040 H 0.21719 0.74275 0.80741 0.0
H2041 H 0.2252 0.65838 0.74704 0.0
C2042 C 0.26345 0.64898 0.75735 0.0
C2043 C 0.28261 0.65981 0.7719 0.0
C2044 C 0.20464 0.74108 0.79367 0.0
C2045 C 0.2345 0.69456 0.7749 0.0
C2046 C 0.18324 0.76516 0.79333 0.0
C2047 C 0.16694 0.76501 0.77547 0.0
C2048 C 0.21006 0.71646 0.77601 0.0
C2049 C 0.1722 0.73824 0.75864 0.0
C2050 C 0.23948 0.66639 0.75873 0.0
C2051 C 0.27657 0.68727 0.78816 0.0
N2052 N 0.19345 0.71537 0.75921 0.0
N2053 N 0.25318 0.70367 0.78915 0.0
H2054 H 0.08024 0.45886 0.80604 0.0
H2055 H 0.9939 0.61793 0.74442 0.0
H2056 H 0.10092 0.50924 0.74456 0.0
H2057 H 0.97023 0.54943 0.79963 0.0
H2058 H 0.03579 0.58725 0.74696 0.0
H2059 H 0.0431 0.50123 0.80679 0.0
C2060 C 0.07719 0.47923 0.79277 0.0
C2061 C 0.09375 0.48006 0.77509 0.0
C2062 C 0.02147 0.57927 0.75862 0.0
C2063 C 0.05069 0.52875 0.77578 0.0
C2064 C 0.99756 0.59691 0.75726 0.0
C2065 C 0.97835 0.58616 0.77177 0.0
C2066 C 0.02633 0.55091 0.77472 0.0
C2067 C 0.98427 0.55853 0.78797 0.0
C2068 C 0.05583 0.50339 0.7932 0.0
C2069 C 0.08874 0.50749 0.75852 0.0
N2070 N 0.0076 0.54187 0.78894 0.0
N2071 N 0.06752 0.53043 0.75916 0.0
H2072 H 0.71929 0.44384 0.55206 0.0
H2073 H 0.85155 0.48531 0.49453 0.0
H2074 H 0.74335 0.37997 0.49537 0.0
H2075 H 0.82886 0.53634 0.55533 0.0
H2076 H 0.81408 0.44242 0.49554 0.0
H2077 H 0.76087 0.47421 0.55446 0.0
C2078 C 0.73338 0.43589 0.54019 0.0
C2079 C 0.72764 0.40938 0.52342 0.0
C2080 C 0.81754 0.46265 0.50879 0.0
C2081 C 0.7756 0.44467 0.52593 0.0
C2082 C 0.83903 0.48701 0.50828 0.0
C2083 C 0.84336 0.51485 0.52477 0.0
C2084 C 0.80023 0.46621 0.52588 0.0
C2085 C 0.82628 0.51576 0.5421 0.0
C2086 C 0.75722 0.45328 0.54158 0.0
C2087 C 0.74687 0.40017 0.5086 0.0
N2088 N 0.80548 0.49222 0.54207 0.0
N2089 N 0.76988 0.41812 0.51006 0.0
H2090 H 0.01816 0.36753 0.49453 0.0
H2091 H 0.93192 0.20863 0.55636 0.0
H2092 H 0.04174 0.29977 0.55003 0.0
H2093 H 0.91125 0.25852 0.49477 0.0
H2094 H 0.96899 0.25112 0.55708 0.0
H2095 H 0.97632 0.33666 0.49704 0.0
C2096 C 0.01449 0.34664 0.50742 0.0
C2097 C 0.03366 0.33614 0.52203 0.0
C2098 C 0.95628 0.25315 0.54346 0.0
C2099 C 0.98574 0.30068 0.52494 0.0
C2100 C 0.93496 0.22892 0.54306 0.0
C2101 C 0.91842 0.22958 0.52537 0.0
C2102 C 0.96142 0.27842 0.52601 0.0
C2103 C 0.92342 0.25691 0.50875 0.0
C2104 C 0.99061 0.32889 0.50877 0.0
C2105 C 0.02773 0.30866 0.5383 0.0
N2106 N 0.94461 0.27992 0.50936 0.0
N2107 N 1.00443 0.2919 0.53925 0.0
H2108 H 0.74383 0.36874 0.26164 0.0
H2109 H 0.83095 0.21179 0.19928 0.0
H2110 H 0.72044 0.30053 0.20624 0.0
H2111 H 0.85084 0.25987 0.26148 0.0
H2112 H 0.79378 0.2541 0.19866 0.0
H2113 H 0.78584 0.33848 0.25903 0.0
C2114 C 0.74758 0.34788 0.24874 0.0
C2115 C 0.72842 0.33706 0.2342 0.0
C2116 C 0.80635 0.25578 0.21238 0.0
C2117 C 0.77653 0.30235 0.23116 0.0
C2118 C 0.82772 0.23166 0.21273 0.0
C2119 C 0.84405 0.23183 0.23057 0.0
C2120 C 0.80096 0.28043 0.23004 0.0
C2121 C 0.83884 0.25865 0.24739 0.0
C2122 C 0.77156 0.33048 0.24735 0.0
C2123 C 0.73445 0.30964 0.21793 0.0
N2124 N 0.81759 0.28155 0.24683 0.0
N2125 N 0.75784 0.29325 0.21691 0.0
H2126 H 0.93073 0.53642 0.19879 0.0
H2127 H 0.01782 0.37906 0.26086 0.0
H2128 H 0.91092 0.488 0.26093 0.0
H2129 H 0.04087 0.4463 0.20501 0.0
H2130 H 0.97589 0.40959 0.25843 0.0
H2131 H 0.9678 0.49392 0.198 0.0
C2132 C 0.93395 0.51644 0.21219 0.0
C2133 C 0.91767 0.51621 0.23007 0.0
C2134 C 0.99007 0.41731 0.2466 0.0
C2135 C 0.96066 0.46739 0.22933 0.0
C2136 C 0.01401 0.39976 0.2479 0.0
C2137 C 0.03307 0.41023 0.23318 0.0
C2138 C 0.98503 0.44528 0.23035 0.0
C2139 C 0.02695 0.43745 0.21683 0.0
C2140 C 0.95527 0.49221 0.21175 0.0
C2141 C 0.92289 0.48926 0.24682 0.0
N2142 N 1.0036 0.45402 0.21592 0.0
N2143 N 0.94408 0.46625 0.24616 0.0
H2144 H 0.76791 0.11815 0.51087 0.0
H2145 H 0.6815 0.95918 0.44925 0.0
H2146 H 0.79125 0.0505 0.45525 0.0
H2147 H 0.66098 0.00928 0.51082 0.0
H2148 H 0.71852 0.00179 0.44839 0.0
H2149 H 0.72602 0.08742 0.5084 0.0
C2150 C 0.76417 0.09733 0.49795 0.0
C2151 C 0.7833 0.0868 0.48331 0.0
C2152 C 0.70585 0.00385 0.46203 0.0
C2153 C 0.73533 0.05149 0.48045 0.0
C2154 C 0.68456 0.97954 0.46251 0.0
C2155 C 0.66808 0.98022 0.48025 0.0
C2156 C 0.71101 0.0292 0.47945 0.0
C2157 C 0.6731 0.00765 0.49682 0.0
C2158 C 0.74026 0.07966 0.49663 0.0
C2159 C 0.77728 0.05941 0.46701 0.0
N2160 N 0.69426 0.03072 0.49613 0.0
N2161 N 0.75396 0.04271 0.46609 0.0
H2162 H 0.49363 0.12774 0.51152 0.0
H2163 H 0.58026 0.28584 0.44948 0.0
H2164 H 0.47023 0.19537 0.45591 0.0
H2165 H 0.6006 0.23654 0.51129 0.0
H2166 H 0.54316 0.24339 0.44876 0.0
H2167 H 0.53554 0.15837 0.50898 0.0
C2168 C 0.49736 0.14856 0.49859 0.0
C2169 C 0.47821 0.15909 0.48397 0.0
C2170 C 0.55581 0.24147 0.46242 0.0
C2171 C 0.52621 0.19426 0.48102 0.0
C2172 C 0.57714 0.26568 0.46282 0.0
C2173 C 0.59359 0.26519 0.48059 0.0
C2174 C 0.55057 0.21641 0.47994 0.0
C2175 C 0.5885 0.23802 0.49726 0.0
C2176 C 0.52127 0.16616 0.49723 0.0
C2177 C 0.48421 0.18646 0.46766 0.0
N2178 N 0.5673 0.21504 0.49665 0.0
N2179 N 0.50755 0.20309 0.46669 0.0
H2180 H 0.65902 0.23595 0.74487 0.0
H2181 H 0.79172 0.19479 0.80168 0.0
H2182 H 0.68191 0.28639 0.80576 0.0
H2183 H 0.76744 0.13103 0.74502 0.0
H2184 H 0.75008 0.22484 0.80435 0.0
H2185 H 0.69657 0.1932 0.74562 0.0
C2186 C 0.6716 0.23753 0.7586 0.0
C2187 C 0.6673 0.26518 0.77519 0.0
C2188 C 0.75368 0.20401 0.79142 0.0
C2189 C 0.71052 0.21672 0.77598 0.0
C2190 C 0.77756 0.1868 0.78987 0.0
C2191 C 0.78326 0.16041 0.77303 0.0
C2192 C 0.73521 0.19535 0.77586 0.0
C2193 C 0.76395 0.15115 0.7583 0.0
C2194 C 0.69313 0.21326 0.75895 0.0
C2195 C 0.68445 0.26595 0.79247 0.0
N2196 N 0.7409 0.16893 0.75991 0.0
N2197 N 0.7053 0.24251 0.79229 0.0
H2198 H 0.60194 0.01019 0.74474 0.0
H2199 H 0.46952 0.05132 0.80212 0.0
H2200 H 0.57915 0.959 0.80546 0.0
H2201 H 0.49356 0.11519 0.74543 0.0
H2202 H 0.51112 0.02103 0.80454 0.0
H2203 H 0.56442 0.05297 0.7457 0.0
C2204 C 0.58938 0.00844 0.75846 0.0
C2205 C 0.59371 0.98058 0.77495 0.0
C2206 C 0.50747 0.04193 0.79165 0.0
C2207 C 0.55051 0.02909 0.77599 0.0
C2208 C 0.48361 0.05929 0.79025 0.0
C2209 C 0.47786 0.08578 0.77347 0.0
C2210 C 0.52586 0.05057 0.77602 0.0
C2211 C 0.4971 0.095 0.75866 0.0
C2212 C 0.56786 0.03273 0.75894 0.0
C2213 C 0.57658 0.9796 0.79225 0.0
N2214 N 0.52011 0.07709 0.76013 0.0
N2215 N 0.55575 0.00308 0.79219 0.0
H2216 H 0.2438 0.87731 0.49452 0.0
H2217 H 0.33035 0.0352 0.55679 0.0
H2218 H 0.22051 0.9443 0.55038 0.0
H2219 H 0.35062 0.98652 0.49481 0.0
H2220 H 0.29335 0.99255 0.55747 0.0
H2221 H 0.28568 0.90803 0.49704 0.0
C2222 C 0.24755 0.89799 0.5075 0.0
C2223 C 0.22844 0.90834 0.5222 0.0
C2224 C 0.30596 0.99081 0.54378 0.0
C2225 C 0.2764 0.94362 0.52514 0.0
C2226 C 0.32724 0.01514 0.5434 0.0
C2227 C 0.34364 0.01487 0.5256 0.0
C2228 C 0.30072 0.96587 0.52621 0.0
C2229 C 0.33856 0.98782 0.50887 0.0
C2230 C 0.27145 0.91566 0.50885 0.0
C2231 C 0.23447 0.93555 0.53858 0.0
N2232 N 0.31741 0.96473 0.50946 0.0
N2233 N 0.25778 0.95223 0.53954 0.0
H2234 H 0.43109 0.71048 0.55681 0.0
H2235 H 0.51781 0.86859 0.4949 0.0
H2236 H 0.411 0.75944 0.49485 0.0
H2237 H 0.54099 0.80137 0.55071 0.0
H2238 H 0.47592 0.8379 0.49733 0.0
H2239 H 0.4681 0.75311 0.55763 0.0
C2240 C 0.43424 0.7306 0.54345 0.0
C2241 C 0.41789 0.73095 0.52562 0.0
C2242 C 0.49013 0.83022 0.50915 0.0
C2243 C 0.46081 0.77994 0.52639 0.0
C2244 C 0.51404 0.84787 0.50785 0.0
C2245 C 0.53312 0.83745 0.52256 0.0
C2246 C 0.48514 0.80219 0.52539 0.0
C2247 C 0.52706 0.81019 0.5389 0.0
C2248 C 0.45553 0.75491 0.54391 0.0
C2249 C 0.42302 0.75807 0.50893 0.0
N2250 N 0.50373 0.79351 0.53981 0.0
N2251 N 0.44418 0.78116 0.50961 0.0
H2252 H 0.35216 0.76111 0.26114 0.0
H2253 H 0.2192 0.80158 0.20465 0.0
H2254 H 0.32888 0.70955 0.20063 0.0
H2255 H 0.24401 0.86671 0.26067 0.0
H2256 H 0.26076 0.77123 0.20201 0.0
H2257 H 0.31466 0.80396 0.26028 0.0
C2258 C 0.33949 0.75928 0.24748 0.0
C2259 C 0.34368 0.7313 0.23103 0.0
C2260 C 0.25729 0.79242 0.2148 0.0
C2261 C 0.30052 0.7799 0.23012 0.0
C2262 C 0.23345 0.80981 0.21632 0.0
C2263 C 0.22794 0.83668 0.23298 0.0
C2264 C 0.27588 0.8014 0.23019 0.0
C2265 C 0.24737 0.84623 0.24753 0.0
C2266 C 0.31799 0.78363 0.24707 0.0
C2267 C 0.32643 0.73024 0.21382 0.0
N2268 N 0.27036 0.82828 0.24596 0.0
N2269 N 0.30561 0.75376 0.21395 0.0
H2270 H 0.51742 0.87883 0.26135 0.0
H2271 H 0.43057 0.0367 0.19937 0.0
H2272 H 0.54078 0.94691 0.2059 0.0
H2273 H 0.41038 0.98752 0.26125 0.0
H2274 H 0.46769 0.99431 0.19863 0.0
H2275 H 0.47544 0.90924 0.2588 0.0
C2276 C 0.51367 0.89969 0.24845 0.0
C2277 C 0.53282 0.91043 0.23388 0.0
C2278 C 0.45507 0.99241 0.21231 0.0
C2279 C 0.48475 0.94535 0.23091 0.0
C2280 C 0.43372 0.01658 0.21272 0.0
C2281 C 0.41731 0.01611 0.23051 0.0
C2282 C 0.46036 0.9674 0.22984 0.0
C2283 C 0.42244 0.98898 0.2472 0.0
C2284 C 0.48971 0.91717 0.24708 0.0
C2285 C 0.52679 0.93785 0.21761 0.0
N2286 N 0.44366 0.96604 0.24657 0.0
N2287 N 0.50342 0.95435 0.21663 0.0
H2288 H 0.65958 0.50946 0.01158 0.0
H2289 H 0.79211 0.54999 0.95438 0.0
H2290 H 0.68211 0.45884 0.95063 0.0
H2291 H 0.76779 0.61505 0.01059 0.0
H2292 H 0.75051 0.51972 0.95196 0.0
H2293 H 0.69717 0.55211 0.01066 0.0
C2294 C 0.6721 0.5078 0.99782 0.0
C2295 C 0.66768 0.48015 0.98125 0.0
C2296 C 0.7541 0.54088 0.96474 0.0
C2297 C 0.71095 0.52849 0.98027 0.0
C2298 C 0.77796 0.55822 0.96614 0.0
C2299 C 0.78363 0.58505 0.98277 0.0
C2300 C 0.73563 0.54987 0.98025 0.0
C2301 C 0.76432 0.5946 0.99745 0.0
C2302 C 0.69366 0.53202 0.99737 0.0
C2303 C 0.68475 0.47928 0.96391 0.0
N2304 N 0.7413 0.57669 0.996 0.0
N2305 N 0.70562 0.50267 0.964 0.0
H2306 H 0.4698 0.69521 0.95413 0.0
H2307 H 0.60198 0.73691 0.01162 0.0
H2308 H 0.49381 0.63131 0.01082 0.0
H2309 H 0.57987 0.78611 0.95022 0.0
H2310 H 0.56445 0.69413 0.01077 0.0
H2311 H 0.51146 0.72528 0.95165 0.0
C2312 C 0.48391 0.6872 0.96599 0.0
C2313 C 0.47813 0.66076 0.98278 0.0
C2314 C 0.56805 0.71392 0.99736 0.0
C2315 C 0.52619 0.69571 0.98017 0.0
C2316 C 0.58958 0.73821 0.99777 0.0
C2317 C 0.59408 0.76553 0.98106 0.0
C2318 C 0.55088 0.71705 0.98015 0.0
C2319 C 0.57715 0.76594 0.96362 0.0
C2320 C 0.50779 0.70441 0.96455 0.0
C2321 C 0.49737 0.65146 0.99757 0.0
N2322 N 0.5563 0.74251 0.96374 0.0
N2323 N 0.52042 0.66925 0.99608 0.0
H2324 H 0.68107 0.78707 0.30656 0.0
H2325 H 0.76771 0.62923 0.24433 0.0
H2326 H 0.6609 0.73862 0.2445 0.0
H2327 H 0.79111 0.69676 0.29997 0.0
H2328 H 0.72582 0.65995 0.24684 0.0
H2329 H 0.71813 0.74455 0.3072 0.0
C2330 C 0.68422 0.76709 0.29313 0.0
C2331 C 0.66783 0.76686 0.27533 0.0
C2332 C 0.74008 0.6677 0.2586 0.0
C2333 C 0.71081 0.71799 0.2759 0.0
C2334 C 0.76399 0.65003 0.25726 0.0
C2335 C 0.78312 0.66052 0.2719 0.0
C2336 C 0.73515 0.69579 0.27482 0.0
C2337 C 0.77713 0.68789 0.28821 0.0
C2338 C 0.70554 0.74284 0.2935 0.0
C2339 C 0.67295 0.7399 0.25856 0.0
N2340 N 0.7538 0.70456 0.28916 0.0
N2341 N 0.69414 0.71686 0.25914 0.0
H2342 H 0.58067 0.46127 0.30708 0.0
H2343 H 0.49383 0.61839 0.24458 0.0
H2344 H 0.60059 0.50917 0.24485 0.0
H2345 H 0.47065 0.55171 0.30059 0.0
H2346 H 0.53572 0.58774 0.24711 0.0
H2347 H 0.54364 0.50386 0.30774 0.0
C2348 C 0.57748 0.48115 0.29363 0.0
C2349 C 0.59378 0.48121 0.27577 0.0
C2350 C 0.52151 0.58016 0.25894 0.0
C2351 C 0.55084 0.53013 0.27635 0.0
C2352 C 0.4976 0.59779 0.25759 0.0
C2353 C 0.47853 0.58751 0.27233 0.0
C2354 C 0.52651 0.55232 0.27527 0.0
C2355 C 0.48459 0.56041 0.28875 0.0
C2356 C 0.55618 0.50543 0.294 0.0
C2357 C 0.58861 0.50803 0.25895 0.0
N2358 N 0.50792 0.54376 0.28971 0.0
N2359 N 0.56744 0.53109 0.25954 0.0
H2360 H 0.35228 0.48665 0.99431 0.0
H2361 H 0.21985 0.44478 0.05141 0.0
H2362 H 0.32954 0.53677 0.05532 0.0
H2363 H 0.24408 0.38128 0.99465 0.0
H2364 H 0.26145 0.47502 0.054 0.0
H2365 H 0.3148 0.44378 0.99511 0.0
C2366 C 0.33975 0.48814 0.00807 0.0
C2367 C 0.34407 0.51573 0.02468 0.0
C2368 C 0.25784 0.45421 0.04105 0.0
C2369 C 0.30092 0.46713 0.02553 0.0
C2370 C 0.23399 0.43689 0.03955 0.0
C2371 C 0.22829 0.41052 0.02271 0.0
C2372 C 0.27627 0.44567 0.02545 0.0
C2373 C 0.24757 0.40138 0.00793 0.0
C2374 C 0.31825 0.4638 0.00844 0.0
C2375 C 0.32698 0.51638 0.04201 0.0
N2376 N 0.27058 0.41926 0.00949 0.0
N2377 N 0.30616 0.49288 0.04185 0.0
H2378 H 0.51712 0.36811 0.995 0.0
H2379 H 0.43039 0.21039 0.05721 0.0
H2380 H 0.54054 0.3003 0.05053 0.0
H2381 H 0.41011 0.25936 0.9953 0.0
H2382 H 0.46749 0.25283 0.05788 0.0
H2383 H 0.47515 0.33768 0.99761 0.0
C2384 C 0.51338 0.34731 0.00793 0.0
C2385 C 0.53255 0.33665 0.0225 0.0
C2386 C 0.45486 0.25467 0.04421 0.0
C2387 C 0.48449 0.30171 0.02554 0.0
C2388 C 0.43351 0.23048 0.04383 0.0
C2389 C 0.41709 0.23088 0.02606 0.0
C2390 C 0.46011 0.27963 0.02665 0.0
C2391 C 0.42219 0.25795 0.00934 0.0
C2392 C 0.48943 0.32982 0.00933 0.0
C2393 C 0.52653 0.3093 0.03882 0.0
N2394 N 0.4434 0.28092 0.00993 0.0
N2395 N 0.50317 0.29279 0.03983 0.0
H2396 H 0.35194 0.26013 0.76162 0.0
H2397 H 0.22023 0.30324 0.70346 0.0
H2398 H 0.32936 0.20948 0.70071 0.0
H2399 H 0.24387 0.36584 0.76069 0.0
H2400 H 0.26176 0.27269 0.70118 0.0
H2401 H 0.31463 0.30336 0.76051 0.0
C2402 C 0.33948 0.25859 0.74783 0.0
C2403 C 0.34379 0.23075 0.73133 0.0
C2404 C 0.25804 0.29338 0.71415 0.0
C2405 C 0.30084 0.2798 0.73011 0.0
C2406 C 0.23423 0.31088 0.71547 0.0
C2407 C 0.22837 0.33708 0.73236 0.0
C2408 C 0.27628 0.30155 0.72998 0.0
C2409 C 0.24749 0.34589 0.74736 0.0
C2410 C 0.31808 0.28314 0.74726 0.0
C2411 C 0.32679 0.23005 0.71394 0.0
N2412 N 0.27046 0.32783 0.74597 0.0
N2413 N 0.30608 0.25379 0.71391 0.0
H2414 H 0.54184 0.44471 0.70439 0.0
H2415 H 0.40926 0.48634 0.76135 0.0
H2416 H 0.51759 0.38116 0.76112 0.0
H2417 H 0.43202 0.5364 0.70034 0.0
H2418 H 0.44684 0.44365 0.76064 0.0
H2419 H 0.50024 0.47497 0.7018 0.0
C2420 C 0.5277 0.43681 0.71623 0.0
C2421 C 0.53339 0.41041 0.73307 0.0
C2422 C 0.44337 0.46362 0.74729 0.0
C2423 C 0.4854 0.44557 0.73032 0.0
C2424 C 0.42182 0.48786 0.74762 0.0
C2425 C 0.41747 0.51537 0.73097 0.0
C2426 C 0.46073 0.46698 0.73022 0.0
C2427 C 0.4346 0.51607 0.71367 0.0
C2428 C 0.50385 0.45414 0.71473 0.0
C2429 C 0.5141 0.40127 0.74784 0.0
N2430 N 0.45546 0.49266 0.71387 0.0
N2431 N 0.49109 0.41916 0.74628 0.0
loop_
_geom_bond_atom_site_label_1
_geom_bond_atom_site_label_2
_geom_bond_distance
_geom_bond_site_symmetry_2
_ccdc_geom_bond_type
Sc0 O3 2.025 1_556 S
Sc0 O10 2.105 . S
Sc0 O13 2.105 1_556 S
Sc0 O16 2.105 . S
Sc0 O19 2.105 . S
Sc1 O3 2.025 . S
Sc1 O11 2.105 . S
Sc1 O15 2.105 . S
Sc1 O17 2.105 . S
Sc1 O21 2.105 . S
Sc2 O3 2.025 . S
Sc2 O12 2.105 . S
Sc2 O14 2.105 . S
Sc2 O18 2.105 . S
Sc2 O20 2.105 1_554 S
O3 Sc0 2.025 1_554 S
O3 Sc1 2.025 . S
O3 Sc2 2.025 . S
C4 O10 1.268 . S
C4 O20 1.268 . S
C5 O11 1.268 1_556 S
C5 O19 1.268 . S
C6 O12 1.268 . S
C6 O21 1.268 . S
C7 O13 1.268 . S
C7 O17 1.268 . S
C8 O14 1.268 1_556 S
C8 O16 1.268 . S
C9 O15 1.268 . S
C9 O18 1.268 . S
O10 Sc0 2.105 . S
O10 C4 1.268 . S
O11 Sc1 2.105 . S
O11 C5 1.268 1_554 S
O12 Sc2 2.105 . S
O12 C6 1.268 . S
O13 Sc0 2.105 1_554 S
O13 C7 1.268 . S
O14 Sc2 2.105 . S
O14 C8 1.268 1_554 S
O15 Sc1 2.105 . S
O15 C9 1.268 . S
O16 Sc0 2.105 . S
O16 C8 1.268 . S
O17 Sc1 2.105 . S
O17 C7 1.268 . S
O18 Sc2 2.105 . S
O18 C9 1.268 . S
O19 Sc0 2.105 . S
O19 C5 1.268 . S
O20 Sc2 2.105 1_556 S
O20 C4 1.268 . S
O21 Sc1 2.105 . S
O21 C6 1.268 . S
Sc22 O25 2.025 . S
Sc22 O32 2.105 . S
Sc22 O35 2.105 . S
Sc22 O38 2.105 1_554 S
Sc22 O41 2.105 . S
Sc23 O25 2.025 . S
Sc23 O33 2.105 . S
Sc23 O37 2.105 . S
Sc23 O39 2.105 . S
Sc23 O43 2.105 . S
Sc24 O25 2.025 1_556 S
Sc24 O34 2.105 1_556 S
Sc24 O36 2.105 . S
Sc24 O40 2.105 . S
Sc24 O42 2.105 . S
O25 Sc22 2.025 . S
O25 Sc23 2.025 . S
O25 Sc24 2.025 1_554 S
C26 O32 1.268 1_556 S
C26 O42 1.268 . S
C27 O33 1.268 . S
C27 O41 1.268 . S
C28 O34 1.268 . S
C28 O43 1.268 . S
C29 O35 1.268 . S
C29 O39 1.268 . S
C30 O36 1.268 . S
C30 O38 1.268 . S
C31 O37 1.268 1_556 S
C31 O40 1.268 . S
O32 Sc22 2.105 . S
O32 C26 1.268 1_554 S
O33 Sc23 2.105 . S
O33 C27 1.268 . S
O34 Sc24 2.105 1_554 S
O34 C28 1.268 . S
O35 Sc22 2.105 . S
O35 C29 1.268 . S
O36 Sc24 2.105 . S
O36 C30 1.268 . S
O37 Sc23 2.105 . S
O37 C31 1.268 1_554 S
O38 Sc22 2.105 1_556 S
O38 C30 1.268 . S
O39 Sc23 2.105 . S
O39 C29 1.268 . S
O40 Sc24 2.105 . S
O40 C31 1.268 . S
O41 Sc22 2.105 . S
O41 C27 1.268 . S
O42 Sc24 2.105 . S
O42 C26 1.268 . S
O43 Sc23 2.105 . S
O43 C28 1.268 . S
Sc44 O47 2.025 . S
Sc44 O54 2.105 . S
Sc44 O57 2.105 . S
Sc44 O60 2.105 . S
Sc44 O63 2.105 . S
Sc45 O47 2.025 . S
Sc45 O55 2.105 . S
Sc45 O59 2.105 . S
Sc45 O61 2.105 . S
Sc45 O65 2.105 . S
Sc46 O47 2.025 . S
Sc46 O56 2.105 . S
Sc46 O58 2.105 . S
Sc46 O62 2.105 . S
Sc46 O64 2.105 . S
O47 Sc44 2.025 . S
O47 Sc45 2.025 . S
O47 Sc46 2.025 . S
C48 O54 1.268 . S
C48 O64 1.268 . S
C49 O55 1.268 . S
C49 O63 1.268 . S
C50 O56 1.268 . S
C50 O65 1.268 . S
C51 O57 1.268 . S
C51 O61 1.268 . S
C52 O58 1.268 . S
C52 O60 1.268 . S
C53 O59 1.268 . S
C53 O62 1.268 . S
O54 Sc44 2.105 . S
O54 C48 1.268 . S
O55 Sc45 2.105 . S
O55 C49 1.268 . S
O56 Sc46 2.105 . S
O56 C50 1.268 . S
O57 Sc44 2.105 . S
O57 C51 1.268 . S
O58 Sc46 2.105 . S
O58 C52 1.268 . S
O59 Sc45 2.105 . S
O59 C53 1.268 . S
O60 Sc44 2.105 . S
O60 C52 1.268 . S
O61 Sc45 2.105 . S
O61 C51 1.268 . S
O62 Sc46 2.105 . S
O62 C53 1.268 . S
O63 Sc44 2.105 . S
O63 C49 1.268 . S
O64 Sc46 2.105 . S
O64 C48 1.268 . S
O65 Sc45 2.105 . S
O65 C50 1.268 . S
Sc66 O69 2.025 . S
Sc66 O76 2.105 . S
Sc66 O79 2.105 . S
Sc66 O82 2.105 . S
Sc66 O85 2.105 . S
Sc67 O69 2.025 . S
Sc67 O77 2.105 . S
Sc67 O81 2.105 . S
Sc67 O83 2.105 . S
Sc67 O87 2.105 . S
Sc68 O69 2.025 . S
Sc68 O78 2.105 . S
Sc68 O80 2.105 . S
Sc68 O84 2.105 . S
Sc68 O86 2.105 . S
O69 Sc66 2.025 . S
O69 Sc67 2.025 . S
O69 Sc68 2.025 . S
C70 O76 1.268 . S
C70 O86 1.268 . S
C71 O77 1.268 . S
C71 O85 1.268 . S
C72 O78 1.268 . S
C72 O87 1.268 . S
C73 O79 1.268 . S
C73 O83 1.268 . S
C74 O80 1.268 . S
C74 O82 1.268 . S
C75 O81 1.268 . S
C75 O84 1.268 . S
O76 Sc66 2.105 . S
O76 C70 1.268 . S
O77 Sc67 2.105 . S
O77 C71 1.268 . S
O78 Sc68 2.105 . S
O78 C72 1.268 . S
O79 Sc66 2.105 . S
O79 C73 1.268 . S
O80 Sc68 2.105 . S
O80 C74 1.268 . S
O81 Sc67 2.105 . S
O81 C75 1.268 . S
O82 Sc66 2.105 . S
O82 C74 1.268 . S
O83 Sc67 2.105 . S
O83 C73 1.268 . S
O84 Sc68 2.105 . S
O84 C75 1.268 . S
O85 Sc66 2.105 . S
O85 C71 1.268 . S
O86 Sc68 2.105 . S
O86 C70 1.268 . S
O87 Sc67 2.105 . S
O87 C72 1.268 . S
Sc88 O91 2.025 . S
Sc88 O98 2.105 1_556 S
Sc88 O101 2.105 . S
Sc88 O104 2.105 . S
Sc88 O107 2.105 . S
Sc89 O91 2.025 . S
Sc89 O99 2.105 . S
Sc89 O103 2.105 . S
Sc89 O105 2.105 . S
Sc89 O109 2.105 . S
Sc90 O91 2.025 1_554 S
Sc90 O100 2.105 . S
Sc90 O102 2.105 . S
Sc90 O106 2.105 1_554 S
Sc90 O108 2.105 . S
O91 Sc88 2.025 . S
O91 Sc89 2.025 . S
O91 Sc90 2.025 1_556 S
C92 O98 1.268 . S
C92 O108 1.268 . S
C93 O99 1.268 . S
C93 O107 1.268 . S
C94 O100 1.268 . S
C94 O109 1.268 1_554 S
C95 O101 1.268 . S
C95 O105 1.268 . S
C96 O102 1.268 . S
C96 O104 1.268 1_554 S
C97 O103 1.268 . S
C97 O106 1.268 . S
O98 Sc88 2.105 1_554 S
O98 C92 1.268 . S
O99 Sc89 2.105 . S
O99 C93 1.268 . S
O100 Sc90 2.105 . S
O100 C94 1.268 . S
O101 Sc88 2.105 . S
O101 C95 1.268 . S
O102 Sc90 2.105 . S
O102 C96 1.268 . S
O103 Sc89 2.105 . S
O103 C97 1.268 . S
O104 Sc88 2.105 . S
O104 C96 1.268 1_556 S
O105 Sc89 2.105 . S
O105 C95 1.268 . S
O106 Sc90 2.105 1_556 S
O106 C97 1.268 . S
O107 Sc88 2.105 . S
O107 C93 1.268 . S
O108 Sc90 2.105 . S
O108 C92 1.268 . S
O109 Sc89 2.105 . S
O109 C94 1.268 1_556 S
Sc110 O113 2.025 1_554 S
Sc110 O120 2.105 . S
Sc110 O123 2.105 . S
Sc110 O126 2.105 . S
Sc110 O129 2.105 1_554 S
Sc111 O113 2.025 . S
Sc111 O121 2.105 . S
Sc111 O125 2.105 . S
Sc111 O127 2.105 . S
Sc111 O131 2.105 . S
Sc112 O113 2.025 . S
Sc112 O122 2.105 . S
Sc112 O124 2.105 1_556 S
Sc112 O128 2.105 . S
Sc112 O130 2.105 . S
O113 Sc110 2.025 1_556 S
O113 Sc111 2.025 . S
O113 Sc112 2.025 . S
C114 O120 1.268 . S
C114 O130 1.268 1_554 S
C115 O121 1.268 . S
C115 O129 1.268 . S
C116 O122 1.268 . S
C116 O131 1.268 . S
C117 O123 1.268 . S
C117 O127 1.268 1_554 S
C118 O124 1.268 . S
C118 O126 1.268 . S
C119 O125 1.268 . S
C119 O128 1.268 . S
O120 Sc110 2.105 . S
O120 C114 1.268 . S
O121 Sc111 2.105 . S
O121 C115 1.268 . S
O122 Sc112 2.105 . S
O122 C116 1.268 . S
O123 Sc110 2.105 . S
O123 C117 1.268 . S
O124 Sc112 2.105 1_554 S
O124 C118 1.268 . S
O125 Sc111 2.105 . S
O125 C119 1.268 . S
O126 Sc110 2.105 . S
O126 C118 1.268 . S
O127 Sc111 2.105 . S
O127 C117 1.268 1_556 S
O128 Sc112 2.105 . S
O128 C119 1.268 . S
O129 Sc110 2.105 1_556 S
O129 C115 1.268 . S
O130 Sc112 2.105 . S
O130 C114 1.268 1_556 S
O131 Sc111 2.105 . S
O131 C116 1.268 . S
Sc132 O135 2.025 . S
Sc132 O142 2.105 . S
Sc132 O145 2.105 . S
Sc132 O148 2.105 . S
Sc132 O151 2.105 . S
Sc133 O135 2.025 . S
Sc133 O143 2.105 . S
Sc133 O147 2.105 . S
Sc133 O149 2.105 . S
Sc133 O153 2.105 . S
Sc134 O135 2.025 . S
Sc134 O144 2.105 . S
Sc134 O146 2.105 . S
Sc134 O150 2.105 . S
Sc134 O152 2.105 . S
O135 Sc132 2.025 . S
O135 Sc133 2.025 . S
O135 Sc134 2.025 . S
C136 O142 1.268 . S
C136 O152 1.268 . S
C137 O143 1.268 . S
C137 O151 1.268 . S
C138 O144 1.268 . S
C138 O153 1.268 . S
C139 O145 1.268 . S
C139 O149 1.268 . S
C140 O146 1.268 . S
C140 O148 1.268 . S
C141 O147 1.268 . S
C141 O150 1.268 . S
O142 Sc132 2.105 . S
O142 C136 1.268 . S
O143 Sc133 2.105 . S
O143 C137 1.268 . S
O144 Sc134 2.105 . S
O144 C138 1.268 . S
O145 Sc132 2.105 . S
O145 C139 1.268 . S
O146 Sc134 2.105 . S
O146 C140 1.268 . S
O147 Sc133 2.105 . S
O147 C141 1.268 . S
O148 Sc132 2.105 . S
O148 C140 1.268 . S
O149 Sc133 2.105 . S
O149 C139 1.268 . S
O150 Sc134 2.105 . S
O150 C141 1.268 . S
O151 Sc132 2.105 . S
O151 C137 1.268 . S
O152 Sc134 2.105 . S
O152 C136 1.268 . S
O153 Sc133 2.105 . S
O153 C138 1.268 . S
Sc154 O157 2.025 . S
Sc154 O164 2.105 . S
Sc154 O167 2.105 . S
Sc154 O170 2.105 . S
Sc154 O173 2.105 . S
Sc155 O157 2.025 . S
Sc155 O165 2.105 . S
Sc155 O169 2.105 . S
Sc155 O171 2.105 . S
Sc155 O175 2.105 . S
Sc156 O157 2.025 . S
Sc156 O166 2.105 . S
Sc156 O168 2.105 . S
Sc156 O172 2.105 . S
Sc156 O174 2.105 . S
O157 Sc154 2.025 . S
O157 Sc155 2.025 . S
O157 Sc156 2.025 . S
C158 O164 1.268 . S
C158 O174 1.268 . S
C159 O165 1.268 . S
C159 O173 1.268 . S
C160 O166 1.268 . S
C160 O175 1.268 . S
C161 O167 1.268 . S
C161 O171 1.268 . S
C162 O168 1.268 . S
C162 O170 1.268 . S
C163 O169 1.268 . S
C163 O172 1.268 . S
O164 Sc154 2.105 . S
O164 C158 1.268 . S
O165 Sc155 2.105 . S
O165 C159 1.268 . S
O166 Sc156 2.105 . S
O166 C160 1.268 . S
O167 Sc154 2.105 . S
O167 C161 1.268 . S
O168 Sc156 2.105 . S
O168 C162 1.268 . S
O169 Sc155 2.105 . S
O169 C163 1.268 . S
O170 Sc154 2.105 . S
O170 C162 1.268 . S
O171 Sc155 2.105 . S
O171 C161 1.268 . S
O172 Sc156 2.105 . S
O172 C163 1.268 . S
O173 Sc154 2.105 . S
O173 C159 1.268 . S
O174 Sc156 2.105 . S
O174 C158 1.268 . S
O175 Sc155 2.105 . S
O175 C160 1.268 . S
Sc176 O179 2.025 . S
Sc176 O186 2.105 . S
Sc176 O189 2.105 . S
Sc176 O192 2.105 . S
Sc176 O195 2.105 . S
Sc177 O179 2.025 . S
Sc177 O187 2.105 . S
Sc177 O191 2.105 . S
Sc177 O193 2.105 . S
Sc177 O197 2.105 . S
Sc178 O179 2.025 . S
Sc178 O188 2.105 . S
Sc178 O190 2.105 . S
Sc178 O194 2.105 . S
Sc178 O196 2.105 . S
O179 Sc176 2.025 . S
O179 Sc177 2.025 . S
O179 Sc178 2.025 . S
C180 O186 1.268 . S
C180 O196 1.268 . S
C181 O187 1.268 . S
C181 O195 1.268 . S
C182 O188 1.268 . S
C182 O197 1.268 . S
C183 O189 1.268 . S
C183 O193 1.268 . S
C184 O190 1.268 . S
C184 O192 1.268 . S
C185 O191 1.268 . S
C185 O194 1.268 . S
O186 Sc176 2.105 . S
O186 C180 1.268 . S
O187 Sc177 2.105 . S
O187 C181 1.268 . S
O188 Sc178 2.105 . S
O188 C182 1.268 . S
O189 Sc176 2.105 . S
O189 C183 1.268 . S
O190 Sc178 2.105 . S
O190 C184 1.268 . S
O191 Sc177 2.105 . S
O191 C185 1.268 . S
O192 Sc176 2.105 . S
O192 C184 1.268 . S
O193 Sc177 2.105 . S
O193 C183 1.268 . S
O194 Sc178 2.105 . S
O194 C185 1.268 . S
O195 Sc176 2.105 . S
O195 C181 1.268 . S
O196 Sc178 2.105 . S
O196 C180 1.268 . S
O197 Sc177 2.105 . S
O197 C182 1.268 . S
Sc198 O201 2.025 . S
Sc198 O208 2.105 . S
Sc198 O211 2.105 . S
Sc198 O214 2.105 . S
Sc198 O217 2.105 . S
Sc199 O201 2.025 . S
Sc199 O209 2.105 . S
Sc199 O213 2.105 . S
Sc199 O215 2.105 . S
Sc199 O219 2.105 . S
Sc200 O201 2.025 . S
Sc200 O210 2.105 . S
Sc200 O212 2.105 . S
Sc200 O216 2.105 . S
Sc200 O218 2.105 . S
O201 Sc198 2.025 . S
O201 Sc199 2.025 . S
O201 Sc200 2.025 . S
C202 O208 1.268 . S
C202 O218 1.268 . S
C203 O209 1.268 . S
C203 O217 1.268 . S
C204 O210 1.268 . S
C204 O219 1.268 . S
C205 O211 1.268 . S
C205 O215 1.268 . S
C206 O212 1.268 . S
C206 O214 1.268 . S
C207 O213 1.268 . S
C207 O216 1.268 . S
O208 Sc198 2.105 . S
O208 C202 1.268 . S
O209 Sc199 2.105 . S
O209 C203 1.268 . S
O210 Sc200 2.105 . S
O210 C204 1.268 . S
O211 Sc198 2.105 . S
O211 C205 1.268 . S
O212 Sc200 2.105 . S
O212 C206 1.268 . S
O213 Sc199 2.105 . S
O213 C207 1.268 . S
O214 Sc198 2.105 . S
O214 C206 1.268 . S
O215 Sc199 2.105 . S
O215 C205 1.268 . S
O216 Sc200 2.105 . S
O216 C207 1.268 . S
O217 Sc198 2.105 . S
O217 C203 1.268 . S
O218 Sc200 2.105 . S
O218 C202 1.268 . S
O219 Sc199 2.105 . S
O219 C204 1.268 . S
Sc220 O223 2.025 . S
Sc220 O230 2.105 . S
Sc220 O233 2.105 . S
Sc220 O236 2.105 . S
Sc220 O239 2.105 . S
Sc221 O223 2.025 . S
Sc221 O231 2.105 . S
Sc221 O235 2.105 . S
Sc221 O237 2.105 . S
Sc221 O241 2.105 . S
Sc222 O223 2.025 . S
Sc222 O232 2.105 . S
Sc222 O234 2.105 . S
Sc222 O238 2.105 . S
Sc222 O240 2.105 . S
O223 Sc220 2.025 . S
O223 Sc221 2.025 . S
O223 Sc222 2.025 . S
C224 O230 1.268 . S
C224 O240 1.268 . S
C225 O231 1.268 . S
C225 O239 1.268 . S
C226 O232 1.268 . S
C226 O241 1.268 . S
C227 O233 1.268 . S
C227 O237 1.268 . S
C228 O234 1.268 . S
C228 O236 1.268 . S
C229 O235 1.268 . S
C229 O238 1.268 . S
O230 Sc220 2.105 . S
O230 C224 1.268 . S
O231 Sc221 2.105 . S
O231 C225 1.268 . S
O232 Sc222 2.105 . S
O232 C226 1.268 . S
O233 Sc220 2.105 . S
O233 C227 1.268 . S
O234 Sc222 2.105 . S
O234 C228 1.268 . S
O235 Sc221 2.105 . S
O235 C229 1.268 . S
O236 Sc220 2.105 . S
O236 C228 1.268 . S
O237 Sc221 2.105 . S
O237 C227 1.268 . S
O238 Sc222 2.105 . S
O238 C229 1.268 . S
O239 Sc220 2.105 . S
O239 C225 1.268 . S
O240 Sc222 2.105 . S
O240 C224 1.268 . S
O241 Sc221 2.105 . S
O241 C226 1.268 . S
Sc242 O245 2.025 . S
Sc242 O252 2.105 . S
Sc242 O255 2.105 . S
Sc242 O258 2.105 . S
Sc242 O261 2.105 . S
Sc243 O245 2.025 . S
Sc243 O253 2.105 . S
Sc243 O257 2.105 . S
Sc243 O259 2.105 . S
Sc243 O263 2.105 . S
Sc244 O245 2.025 . S
Sc244 O254 2.105 . S
Sc244 O256 2.105 . S
Sc244 O260 2.105 . S
Sc244 O262 2.105 . S
O245 Sc242 2.025 . S
O245 Sc243 2.025 . S
O245 Sc244 2.025 . S
C246 O252 1.268 . S
C246 O262 1.268 . S
C247 O253 1.268 . S
C247 O261 1.268 . S
C248 O254 1.268 . S
C248 O263 1.268 . S
C249 O255 1.268 . S
C249 O259 1.268 . S
C250 O256 1.268 . S
C250 O258 1.268 . S
C251 O257 1.268 . S
C251 O260 1.268 . S
O252 Sc242 2.105 . S
O252 C246 1.268 . S
O253 Sc243 2.105 . S
O253 C247 1.268 . S
O254 Sc244 2.105 . S
O254 C248 1.268 . S
O255 Sc242 2.105 . S
O255 C249 1.268 . S
O256 Sc244 2.105 . S
O256 C250 1.268 . S
O257 Sc243 2.105 . S
O257 C251 1.268 . S
O258 Sc242 2.105 . S
O258 C250 1.268 . S
O259 Sc243 2.105 . S
O259 C249 1.268 . S
O260 Sc244 2.105 . S
O260 C251 1.268 . S
O261 Sc242 2.105 . S
O261 C247 1.268 . S
O262 Sc244 2.105 . S
O262 C246 1.268 . S
O263 Sc243 2.105 . S
O263 C248 1.268 . S
Sc264 O267 2.025 . S
Sc264 O274 2.105 . S
Sc264 O277 2.105 . S
Sc264 O280 2.105 . S
Sc264 O283 2.105 . S
Sc265 O267 2.025 . S
Sc265 O275 2.105 . S
Sc265 O279 2.105 . S
Sc265 O281 2.105 . S
Sc265 O285 2.105 . S
Sc266 O267 2.025 . S
Sc266 O276 2.105 . S
Sc266 O278 2.105 . S
Sc266 O282 2.105 . S
Sc266 O284 2.105 . S
O267 Sc264 2.025 . S
O267 Sc265 2.025 . S
O267 Sc266 2.025 . S
C268 O274 1.268 . S
C268 O284 1.268 . S
C269 O275 1.268 . S
C269 O283 1.268 . S
C270 O276 1.268 . S
C270 O285 1.268 . S
C271 O277 1.268 . S
C271 O281 1.268 . S
C272 O278 1.268 . S
C272 O280 1.268 . S
C273 O279 1.268 . S
C273 O282 1.268 . S
O274 Sc264 2.105 . S
O274 C268 1.268 . S
O275 Sc265 2.105 . S
O275 C269 1.268 . S
O276 Sc266 2.105 . S
O276 C270 1.268 . S
O277 Sc264 2.105 . S
O277 C271 1.268 . S
O278 Sc266 2.105 . S
O278 C272 1.268 . S
O279 Sc265 2.105 . S
O279 C273 1.268 . S
O280 Sc264 2.105 . S
O280 C272 1.268 . S
O281 Sc265 2.105 . S
O281 C271 1.268 . S
O282 Sc266 2.105 . S
O282 C273 1.268 . S
O283 Sc264 2.105 . S
O283 C269 1.268 . S
O284 Sc266 2.105 . S
O284 C268 1.268 . S
O285 Sc265 2.105 . S
O285 C270 1.268 . S
Sc286 O289 2.025 . S
Sc286 O296 2.105 . S
Sc286 O299 2.105 . S
Sc286 O302 2.105 . S
Sc286 O305 2.105 . S
Sc287 O289 2.025 . S
Sc287 O297 2.105 . S
Sc287 O301 2.105 . S
Sc287 O303 2.105 . S
Sc287 O307 2.105 . S
Sc288 O289 2.025 . S
Sc288 O298 2.105 . S
Sc288 O300 2.105 . S
Sc288 O304 2.105 . S
Sc288 O306 2.105 . S
O289 Sc286 2.025 . S
O289 Sc287 2.025 . S
O289 Sc288 2.025 . S
C290 O296 1.268 . S
C290 O306 1.268 . S
C291 O297 1.268 . S
C291 O305 1.268 . S
C292 O298 1.268 . S
C292 O307 1.268 . S
C293 O299 1.268 . S
C293 O303 1.268 . S
C294 O300 1.268 . S
C294 O302 1.268 . S
C295 O301 1.268 . S
C295 O304 1.268 . S
O296 Sc286 2.105 . S
O296 C290 1.268 . S
O297 Sc287 2.105 . S
O297 C291 1.268 . S
O298 Sc288 2.105 . S
O298 C292 1.268 . S
O299 Sc286 2.105 . S
O299 C293 1.268 . S
O300 Sc288 2.105 . S
O300 C294 1.268 . S
O301 Sc287 2.105 . S
O301 C295 1.268 . S
O302 Sc286 2.105 . S
O302 C294 1.268 . S
O303 Sc287 2.105 . S
O303 C293 1.268 . S
O304 Sc288 2.105 . S
O304 C295 1.268 . S
O305 Sc286 2.105 . S
O305 C291 1.268 . S
O306 Sc288 2.105 . S
O306 C290 1.268 . S
O307 Sc287 2.105 . S
O307 C292 1.268 . S
Sc308 O311 2.025 . S
Sc308 O318 2.105 . S
Sc308 O321 2.105 . S
Sc308 O324 2.105 . S
Sc308 O327 2.105 . S
Sc309 O311 2.025 . S
Sc309 O319 2.105 . S
Sc309 O323 2.105 . S
Sc309 O325 2.105 . S
Sc309 O329 2.105 . S
Sc310 O311 2.025 . S
Sc310 O320 2.105 . S
Sc310 O322 2.105 . S
Sc310 O326 2.105 . S
Sc310 O328 2.105 . S
O311 Sc308 2.025 . S
O311 Sc309 2.025 . S
O311 Sc310 2.025 . S
C312 O318 1.268 . S
C312 O328 1.268 . S
C313 O319 1.268 . S
C313 O327 1.268 . S
C314 O320 1.268 . S
C314 O329 1.268 . S
C315 O321 1.268 . S
C315 O325 1.268 . S
C316 O322 1.268 . S
C316 O324 1.268 . S
C317 O323 1.268 . S
C317 O326 1.268 . S
O318 Sc308 2.105 . S
O318 C312 1.268 . S
O319 Sc309 2.105 . S
O319 C313 1.268 . S
O320 Sc310 2.105 . S
O320 C314 1.268 . S
O321 Sc308 2.105 . S
O321 C315 1.268 . S
O322 Sc310 2.105 . S
O322 C316 1.268 . S
O323 Sc309 2.105 . S
O323 C317 1.268 . S
O324 Sc308 2.105 . S
O324 C316 1.268 . S
O325 Sc309 2.105 . S
O325 C315 1.268 . S
O326 Sc310 2.105 . S
O326 C317 1.268 . S
O327 Sc308 2.105 . S
O327 C313 1.268 . S
O328 Sc310 2.105 . S
O328 C312 1.268 . S
O329 Sc309 2.105 . S
O329 C314 1.268 . S
Sc330 O333 2.025 . S
Sc330 O340 2.105 . S
Sc330 O343 2.105 . S
Sc330 O346 2.105 . S
Sc330 O349 2.105 . S
Sc331 O333 2.025 . S
Sc331 O341 2.105 . S
Sc331 O345 2.105 . S
Sc331 O347 2.105 . S
Sc331 O351 2.105 . S
Sc332 O333 2.025 . S
Sc332 O342 2.105 . S
Sc332 O344 2.105 . S
Sc332 O348 2.105 . S
Sc332 O350 2.105 . S
O333 Sc330 2.025 . S
O333 Sc331 2.025 . S
O333 Sc332 2.025 . S
C334 O340 1.268 . S
C334 O350 1.268 . S
C335 O341 1.268 . S
C335 O349 1.268 . S
C336 O342 1.268 . S
C336 O351 1.268 . S
C337 O343 1.268 . S
C337 O347 1.268 . S
C338 O344 1.268 . S
C338 O346 1.268 . S
C339 O345 1.268 . S
C339 O348 1.268 . S
O340 Sc330 2.105 . S
O340 C334 1.268 . S
O341 Sc331 2.105 . S
O341 C335 1.268 . S
O342 Sc332 2.105 . S
O342 C336 1.268 . S
O343 Sc330 2.105 . S
O343 C337 1.268 . S
O344 Sc332 2.105 . S
O344 C338 1.268 . S
O345 Sc331 2.105 . S
O345 C339 1.268 . S
O346 Sc330 2.105 . S
O346 C338 1.268 . S
O347 Sc331 2.105 . S
O347 C337 1.268 . S
O348 Sc332 2.105 . S
O348 C339 1.268 . S
O349 Sc330 2.105 . S
O349 C335 1.268 . S
O350 Sc332 2.105 . S
O350 C334 1.268 . S
O351 Sc331 2.105 . S
O351 C336 1.268 . S
Sc352 O355 2.025 . S
Sc352 O362 2.105 . S
Sc352 O365 2.105 . S
Sc352 O368 2.105 . S
Sc352 O371 2.105 . S
Sc353 O355 2.025 . S
Sc353 O363 2.105 . S
Sc353 O367 2.105 . S
Sc353 O369 2.105 . S
Sc353 O373 2.105 . S
Sc354 O355 2.025 . S
Sc354 O364 2.105 . S
Sc354 O366 2.105 . S
Sc354 O370 2.105 . S
Sc354 O372 2.105 . S
O355 Sc352 2.025 . S
O355 Sc353 2.025 . S
O355 Sc354 2.025 . S
C356 O362 1.268 . S
C356 O372 1.268 . S
C357 O363 1.268 . S
C357 O371 1.268 . S
C358 O364 1.268 . S
C358 O373 1.268 . S
C359 O365 1.268 . S
C359 O369 1.268 . S
C360 O366 1.268 . S
C360 O368 1.268 . S
C361 O367 1.268 . S
C361 O370 1.268 . S
O362 Sc352 2.105 . S
O362 C356 1.268 . S
O363 Sc353 2.105 . S
O363 C357 1.268 . S
O364 Sc354 2.105 . S
O364 C358 1.268 . S
O365 Sc352 2.105 . S
O365 C359 1.268 . S
O366 Sc354 2.105 . S
O366 C360 1.268 . S
O367 Sc353 2.105 . S
O367 C361 1.268 . S
O368 Sc352 2.105 . S
O368 C360 1.268 . S
O369 Sc353 2.105 . S
O369 C359 1.268 . S
O370 Sc354 2.105 . S
O370 C361 1.268 . S
O371 Sc352 2.105 . S
O371 C357 1.268 . S
O372 Sc354 2.105 . S
O372 C356 1.268 . S
O373 Sc353 2.105 . S
O373 C358 1.268 . S
Sc374 O377 2.025 . S
Sc374 O384 2.105 . S
Sc374 O387 2.105 . S
Sc374 O390 2.105 . S
Sc374 O393 2.105 . S
Sc375 O377 2.025 . S
Sc375 O385 2.105 . S
Sc375 O389 2.105 . S
Sc375 O391 2.105 . S
Sc375 O395 2.105 . S
Sc376 O377 2.025 . S
Sc376 O386 2.105 . S
Sc376 O388 2.105 . S
Sc376 O392 2.105 . S
Sc376 O394 2.105 . S
O377 Sc374 2.025 . S
O377 Sc375 2.025 . S
O377 Sc376 2.025 . S
C378 O384 1.268 . S
C378 O394 1.268 . S
C379 O385 1.268 . S
C379 O393 1.268 . S
C380 O386 1.268 . S
C380 O395 1.268 . S
C381 O387 1.268 . S
C381 O391 1.268 . S
C382 O388 1.268 . S
C382 O390 1.268 . S
C383 O389 1.268 . S
C383 O392 1.268 . S
O384 Sc374 2.105 . S
O384 C378 1.268 . S
O385 Sc375 2.105 . S
O385 C379 1.268 . S
O386 Sc376 2.105 . S
O386 C380 1.268 . S
O387 Sc374 2.105 . S
O387 C381 1.268 . S
O388 Sc376 2.105 . S
O388 C382 1.268 . S
O389 Sc375 2.105 . S
O389 C383 1.268 . S
O390 Sc374 2.105 . S
O390 C382 1.268 . S
O391 Sc375 2.105 . S
O391 C381 1.268 . S
O392 Sc376 2.105 . S
O392 C383 1.268 . S
O393 Sc374 2.105 . S
O393 C379 1.268 . S
O394 Sc376 2.105 . S
O394 C378 1.268 . S
O395 Sc375 2.105 . S
O395 C380 1.268 . S
Sc396 O399 2.025 . S
Sc396 O406 2.105 . S
Sc396 O409 2.105 . S
Sc396 O412 2.105 . S
Sc396 O415 2.105 . S
Sc397 O399 2.025 . S
Sc397 O407 2.105 . S
Sc397 O411 2.105 . S
Sc397 O413 2.105 . S
Sc397 O417 2.105 . S
Sc398 O399 2.025 . S
Sc398 O408 2.105 . S
Sc398 O410 2.105 . S
Sc398 O414 2.105 . S
Sc398 O416 2.105 . S
O399 Sc396 2.025 . S
O399 Sc397 2.025 . S
O399 Sc398 2.025 . S
C400 O406 1.268 . S
C400 O416 1.268 . S
C401 O407 1.268 . S
C401 O415 1.268 . S
C402 O408 1.268 . S
C402 O417 1.268 . S
C403 O409 1.268 . S
C403 O413 1.268 . S
C404 O410 1.268 . S
C404 O412 1.268 . S
C405 O411 1.268 . S
C405 O414 1.268 . S
O406 Sc396 2.105 . S
O406 C400 1.268 . S
O407 Sc397 2.105 . S
O407 C401 1.268 . S
O408 Sc398 2.105 . S
O408 C402 1.268 . S
O409 Sc396 2.105 . S
O409 C403 1.268 . S
O410 Sc398 2.105 . S
O410 C404 1.268 . S
O411 Sc397 2.105 . S
O411 C405 1.268 . S
O412 Sc396 2.105 . S
O412 C404 1.268 . S
O413 Sc397 2.105 . S
O413 C403 1.268 . S
O414 Sc398 2.105 . S
O414 C405 1.268 . S
O415 Sc396 2.105 . S
O415 C401 1.268 . S
O416 Sc398 2.105 . S
O416 C400 1.268 . S
O417 Sc397 2.105 . S
O417 C402 1.268 . S
Sc418 O421 2.025 . S
Sc418 O428 2.105 . S
Sc418 O431 2.105 . S
Sc418 O434 2.105 . S
Sc418 O437 2.105 . S
Sc419 O421 2.025 . S
Sc419 O429 2.105 . S
Sc419 O433 2.105 . S
Sc419 O435 2.105 . S
Sc419 O439 2.105 . S
Sc420 O421 2.025 . S
Sc420 O430 2.105 . S
Sc420 O432 2.105 . S
Sc420 O436 2.105 . S
Sc420 O438 2.105 . S
O421 Sc418 2.025 . S
O421 Sc419 2.025 . S
O421 Sc420 2.025 . S
C422 O428 1.268 . S
C422 O438 1.268 . S
C423 O429 1.268 . S
C423 O437 1.268 . S
C424 O430 1.268 . S
C424 O439 1.268 . S
C425 O431 1.268 . S
C425 O435 1.268 . S
C426 O432 1.268 . S
C426 O434 1.268 . S
C427 O433 1.268 . S
C427 O436 1.268 . S
O428 Sc418 2.105 . S
O428 C422 1.268 . S
O429 Sc419 2.105 . S
O429 C423 1.268 . S
O430 Sc420 2.105 . S
O430 C424 1.268 . S
O431 Sc418 2.105 . S
O431 C425 1.268 . S
O432 Sc420 2.105 . S
O432 C426 1.268 . S
O433 Sc419 2.105 . S
O433 C427 1.268 . S
O434 Sc418 2.105 . S
O434 C426 1.268 . S
O435 Sc419 2.105 . S
O435 C425 1.268 . S
O436 Sc420 2.105 . S
O436 C427 1.268 . S
O437 Sc418 2.105 . S
O437 C423 1.268 . S
O438 Sc420 2.105 . S
O438 C422 1.268 . S
O439 Sc419 2.105 . S
O439 C424 1.268 . S
Sc440 O443 2.025 . S
Sc440 O450 2.105 . S
Sc440 O453 2.105 . S
Sc440 O456 2.105 . S
Sc440 O459 2.105 . S
Sc441 O443 2.025 . S
Sc441 O451 2.105 . S
Sc441 O455 2.105 . S
Sc441 O457 2.105 . S
Sc441 O461 2.105 . S
Sc442 O443 2.025 . S
Sc442 O452 2.105 . S
Sc442 O454 2.105 . S
Sc442 O458 2.105 . S
Sc442 O460 2.105 . S
O443 Sc440 2.025 . S
O443 Sc441 2.025 . S
O443 Sc442 2.025 . S
C444 O450 1.268 . S
C444 O460 1.268 . S
C445 O451 1.268 . S
C445 O459 1.268 . S
C446 O452 1.268 . S
C446 O461 1.268 . S
C447 O453 1.268 . S
C447 O457 1.268 . S
C448 O454 1.268 . S
C448 O456 1.268 . S
C449 O455 1.268 . S
C449 O458 1.268 . S
O450 Sc440 2.105 . S
O450 C444 1.268 . S
O451 Sc441 2.105 . S
O451 C445 1.268 . S
O452 Sc442 2.105 . S
O452 C446 1.268 . S
O453 Sc440 2.105 . S
O453 C447 1.268 . S
O454 Sc442 2.105 . S
O454 C448 1.268 . S
O455 Sc441 2.105 . S
O455 C449 1.268 . S
O456 Sc440 2.105 . S
O456 C448 1.268 . S
O457 Sc441 2.105 . S
O457 C447 1.268 . S
O458 Sc442 2.105 . S
O458 C449 1.268 . S
O459 Sc440 2.105 . S
O459 C445 1.268 . S
O460 Sc442 2.105 . S
O460 C444 1.268 . S
O461 Sc441 2.105 . S
O461 C446 1.268 . S
Sc462 O465 2.025 . S
Sc462 O472 2.105 . S
Sc462 O475 2.105 . S
Sc462 O478 2.105 . S
Sc462 O481 2.105 . S
Sc463 O465 2.025 . S
Sc463 O473 2.105 . S
Sc463 O477 2.105 . S
Sc463 O479 2.105 . S
Sc463 O483 2.105 . S
Sc464 O465 2.025 . S
Sc464 O474 2.105 . S
Sc464 O476 2.105 . S
Sc464 O480 2.105 . S
Sc464 O482 2.105 . S
O465 Sc462 2.025 . S
O465 Sc463 2.025 . S
O465 Sc464 2.025 . S
C466 O472 1.268 . S
C466 O482 1.268 . S
C467 O473 1.268 . S
C467 O481 1.268 . S
C468 O474 1.268 . S
C468 O483 1.268 . S
C469 O475 1.268 . S
C469 O479 1.268 . S
C470 O476 1.268 . S
C470 O478 1.268 . S
C471 O477 1.268 . S
C471 O480 1.268 . S
O472 Sc462 2.105 . S
O472 C466 1.268 . S
O473 Sc463 2.105 . S
O473 C467 1.268 . S
O474 Sc464 2.105 . S
O474 C468 1.268 . S
O475 Sc462 2.105 . S
O475 C469 1.268 . S
O476 Sc464 2.105 . S
O476 C470 1.268 . S
O477 Sc463 2.105 . S
O477 C471 1.268 . S
O478 Sc462 2.105 . S
O478 C470 1.268 . S
O479 Sc463 2.105 . S
O479 C469 1.268 . S
O480 Sc464 2.105 . S
O480 C471 1.268 . S
O481 Sc462 2.105 . S
O481 C467 1.268 . S
O482 Sc464 2.105 . S
O482 C466 1.268 . S
O483 Sc463 2.105 . S
O483 C468 1.268 . S
Sc484 O487 2.025 . S
Sc484 O494 2.105 . S
Sc484 O497 2.105 . S
Sc484 O500 2.105 . S
Sc484 O503 2.105 . S
Sc485 O487 2.025 . S
Sc485 O495 2.105 . S
Sc485 O499 2.105 . S
Sc485 O501 2.105 . S
Sc485 O505 2.105 . S
Sc486 O487 2.025 . S
Sc486 O496 2.105 . S
Sc486 O498 2.105 . S
Sc486 O502 2.105 . S
Sc486 O504 2.105 . S
O487 Sc484 2.025 . S
O487 Sc485 2.025 . S
O487 Sc486 2.025 . S
C488 O494 1.268 . S
C488 O504 1.268 . S
C489 O495 1.268 . S
C489 O503 1.268 . S
C490 O496 1.268 . S
C490 O505 1.268 . S
C491 O497 1.268 . S
C491 O501 1.268 . S
C492 O498 1.268 . S
C492 O500 1.268 . S
C493 O499 1.268 . S
C493 O502 1.268 . S
O494 Sc484 2.105 . S
O494 C488 1.268 . S
O495 Sc485 2.105 . S
O495 C489 1.268 . S
O496 Sc486 2.105 . S
O496 C490 1.268 . S
O497 Sc484 2.105 . S
O497 C491 1.268 . S
O498 Sc486 2.105 . S
O498 C492 1.268 . S
O499 Sc485 2.105 . S
O499 C493 1.268 . S
O500 Sc484 2.105 . S
O500 C492 1.268 . S
O501 Sc485 2.105 . S
O501 C491 1.268 . S
O502 Sc486 2.105 . S
O502 C493 1.268 . S
O503 Sc484 2.105 . S
O503 C489 1.268 . S
O504 Sc486 2.105 . S
O504 C488 1.268 . S
O505 Sc485 2.105 . S
O505 C490 1.268 . S
Sc506 O509 2.025 . S
Sc506 O516 2.105 . S
Sc506 O519 2.105 . S
Sc506 O522 2.105 . S
Sc506 O525 2.105 . S
Sc507 O509 2.025 . S
Sc507 O517 2.105 . S
Sc507 O521 2.105 . S
Sc507 O523 2.105 . S
Sc507 O527 2.105 . S
Sc508 O509 2.025 . S
Sc508 O518 2.105 . S
Sc508 O520 2.105 . S
Sc508 O524 2.105 . S
Sc508 O526 2.105 . S
O509 Sc506 2.025 . S
O509 Sc507 2.025 . S
O509 Sc508 2.025 . S
C510 O516 1.268 . S
C510 O526 1.268 . S
C511 O517 1.268 . S
C511 O525 1.268 . S
C512 O518 1.268 . S
C512 O527 1.268 . S
C513 O519 1.268 . S
C513 O523 1.268 . S
C514 O520 1.268 . S
C514 O522 1.268 . S
C515 O521 1.268 . S
C515 O524 1.268 . S
O516 Sc506 2.105 . S
O516 C510 1.268 . S
O517 Sc507 2.105 . S
O517 C511 1.268 . S
O518 Sc508 2.105 . S
O518 C512 1.268 . S
O519 Sc506 2.105 . S
O519 C513 1.268 . S
O520 Sc508 2.105 . S
O520 C514 1.268 . S
O521 Sc507 2.105 . S
O521 C515 1.268 . S
O522 Sc506 2.105 . S
O522 C514 1.268 . S
O523 Sc507 2.105 . S
O523 C513 1.268 . S
O524 Sc508 2.105 . S
O524 C515 1.268 . S
O525 Sc506 2.105 . S
O525 C511 1.268 . S
O526 Sc508 2.105 . S
O526 C510 1.268 . S
O527 Sc507 2.105 . S
O527 C512 1.268 . S
Sc528 O531 2.025 1_556 S
Sc528 O538 2.105 . S
Sc528 O541 2.105 1_556 S
Sc528 O544 2.105 . S
Sc528 O547 2.105 . S
Sc529 O531 2.025 . S
Sc529 O539 2.105 . S
Sc529 O543 2.105 . S
Sc529 O545 2.105 . S
Sc529 O549 2.105 . S
Sc530 O531 2.025 . S
Sc530 O540 2.105 . S
Sc530 O542 2.105 . S
Sc530 O546 2.105 . S
Sc530 O548 2.105 1_554 S
O531 Sc528 2.025 1_554 S
O531 Sc529 2.025 . S
O531 Sc530 2.025 . S
C532 O538 1.268 . S
C532 O548 1.268 . S
C533 O539 1.268 1_556 S
C533 O547 1.268 . S
C534 O540 1.268 . S
C534 O549 1.268 . S
C535 O541 1.268 . S
C535 O545 1.268 . S
C536 O542 1.268 1_556 S
C536 O544 1.268 . S
C537 O543 1.268 . S
C537 O546 1.268 . S
O538 Sc528 2.105 . S
O538 C532 1.268 . S
O539 Sc529 2.105 . S
O539 C533 1.268 1_554 S
O540 Sc530 2.105 . S
O540 C534 1.268 . S
O541 Sc528 2.105 1_554 S
O541 C535 1.268 . S
O542 Sc530 2.105 . S
O542 C536 1.268 1_554 S
O543 Sc529 2.105 . S
O543 C537 1.268 . S
O544 Sc528 2.105 . S
O544 C536 1.268 . S
O545 Sc529 2.105 . S
O545 C535 1.268 . S
O546 Sc530 2.105 . S
O546 C537 1.268 . S
O547 Sc528 2.105 . S
O547 C533 1.268 . S
O548 Sc530 2.105 1_556 S
O548 C532 1.268 . S
O549 Sc529 2.105 . S
O549 C534 1.268 . S
Sc550 O553 2.025 . S
Sc550 O560 2.105 . S
Sc550 O563 2.105 . S
Sc550 O566 2.105 1_554 S
Sc550 O569 2.105 . S
Sc551 O553 2.025 . S
Sc551 O561 2.105 . S
Sc551 O565 2.105 . S
Sc551 O567 2.105 . S
Sc551 O571 2.105 . S
Sc552 O553 2.025 1_556 S
Sc552 O562 2.105 1_556 S
Sc552 O564 2.105 . S
Sc552 O568 2.105 . S
Sc552 O570 2.105 . S
O553 Sc550 2.025 . S
O553 Sc551 2.025 . S
O553 Sc552 2.025 1_554 S
C554 O560 1.268 1_556 S
C554 O570 1.268 . S
C555 O561 1.268 . S
C555 O569 1.268 . S
C556 O562 1.268 . S
C556 O571 1.268 . S
C557 O563 1.268 . S
C557 O567 1.268 . S
C558 O564 1.268 . S
C558 O566 1.268 . S
C559 O565 1.268 1_556 S
C559 O568 1.268 . S
O560 Sc550 2.105 . S
O560 C554 1.268 1_554 S
O561 Sc551 2.105 . S
O561 C555 1.268 . S
O562 Sc552 2.105 1_554 S
O562 C556 1.268 . S
O563 Sc550 2.105 . S
O563 C557 1.268 . S
O564 Sc552 2.105 . S
O564 C558 1.268 . S
O565 Sc551 2.105 . S
O565 C559 1.268 1_554 S
O566 Sc550 2.105 1_556 S
O566 C558 1.268 . S
O567 Sc551 2.105 . S
O567 C557 1.268 . S
O568 Sc552 2.105 . S
O568 C559 1.268 . S
O569 Sc550 2.105 . S
O569 C555 1.268 . S
O570 Sc552 2.105 . S
O570 C554 1.268 . S
O571 Sc551 2.105 . S
O571 C556 1.268 . S
Sc572 O575 2.025 . S
Sc572 O582 2.105 . S
Sc572 O585 2.105 . S
Sc572 O588 2.105 . S
Sc572 O591 2.105 . S
Sc573 O575 2.025 . S
Sc573 O583 2.105 . S
Sc573 O587 2.105 . S
Sc573 O589 2.105 . S
Sc573 O593 2.105 . S
Sc574 O575 2.025 . S
Sc574 O584 2.105 . S
Sc574 O586 2.105 . S
Sc574 O590 2.105 . S
Sc574 O592 2.105 . S
O575 Sc572 2.025 . S
O575 Sc573 2.025 . S
O575 Sc574 2.025 . S
C576 O582 1.268 . S
C576 O592 1.268 . S
C577 O583 1.268 . S
C577 O591 1.268 . S
C578 O584 1.268 . S
C578 O593 1.268 . S
C579 O585 1.268 . S
C579 O589 1.268 . S
C580 O586 1.268 . S
C580 O588 1.268 . S
C581 O587 1.268 . S
C581 O590 1.268 . S
O582 Sc572 2.105 . S
O582 C576 1.268 . S
O583 Sc573 2.105 . S
O583 C577 1.268 . S
O584 Sc574 2.105 . S
O584 C578 1.268 . S
O585 Sc572 2.105 . S
O585 C579 1.268 . S
O586 Sc574 2.105 . S
O586 C580 1.268 . S
O587 Sc573 2.105 . S
O587 C581 1.268 . S
O588 Sc572 2.105 . S
O588 C580 1.268 . S
O589 Sc573 2.105 . S
O589 C579 1.268 . S
O590 Sc574 2.105 . S
O590 C581 1.268 . S
O591 Sc572 2.105 . S
O591 C577 1.268 . S
O592 Sc574 2.105 . S
O592 C576 1.268 . S
O593 Sc573 2.105 . S
O593 C578 1.268 . S
Sc594 O597 2.025 . S
Sc594 O604 2.105 . S
Sc594 O607 2.105 . S
Sc594 O610 2.105 . S
Sc594 O613 2.105 . S
Sc595 O597 2.025 . S
Sc595 O605 2.105 . S
Sc595 O609 2.105 . S
Sc595 O611 2.105 . S
Sc595 O615 2.105 . S
Sc596 O597 2.025 . S
Sc596 O606 2.105 . S
Sc596 O608 2.105 . S
Sc596 O612 2.105 . S
Sc596 O614 2.105 . S
O597 Sc594 2.025 . S
O597 Sc595 2.025 . S
O597 Sc596 2.025 . S
C598 O604 1.268 . S
C598 O614 1.268 . S
C599 O605 1.268 . S
C599 O613 1.268 . S
C600 O606 1.268 . S
C600 O615 1.268 . S
C601 O607 1.268 . S
C601 O611 1.268 . S
C602 O608 1.268 . S
C602 O610 1.268 . S
C603 O609 1.268 . S
C603 O612 1.268 . S
O604 Sc594 2.105 . S
O604 C598 1.268 . S
O605 Sc595 2.105 . S
O605 C599 1.268 . S
O606 Sc596 2.105 . S
O606 C600 1.268 . S
O607 Sc594 2.105 . S
O607 C601 1.268 . S
O608 Sc596 2.105 . S
O608 C602 1.268 . S
O609 Sc595 2.105 . S
O609 C603 1.268 . S
O610 Sc594 2.105 . S
O610 C602 1.268 . S
O611 Sc595 2.105 . S
O611 C601 1.268 . S
O612 Sc596 2.105 . S
O612 C603 1.268 . S
O613 Sc594 2.105 . S
O613 C599 1.268 . S
O614 Sc596 2.105 . S
O614 C598 1.268 . S
O615 Sc595 2.105 . S
O615 C600 1.268 . S
Sc616 O619 2.025 . S
Sc616 O626 2.105 1_556 S
Sc616 O629 2.105 . S
Sc616 O632 2.105 . S
Sc616 O635 2.105 . S
Sc617 O619 2.025 . S
Sc617 O627 2.105 . S
Sc617 O631 2.105 . S
Sc617 O633 2.105 . S
Sc617 O637 2.105 . S
Sc618 O619 2.025 1_554 S
Sc618 O628 2.105 . S
Sc618 O630 2.105 . S
Sc618 O634 2.105 1_554 S
Sc618 O636 2.105 . S
O619 Sc616 2.025 . S
O619 Sc617 2.025 . S
O619 Sc618 2.025 1_556 S
C620 O626 1.268 . S
C620 O636 1.268 . S
C621 O627 1.268 . S
C621 O635 1.268 . S
C622 O628 1.268 . S
C622 O637 1.268 1_554 S
C623 O629 1.268 . S
C623 O633 1.268 . S
C624 O630 1.268 . S
C624 O632 1.268 1_554 S
C625 O631 1.268 . S
C625 O634 1.268 . S
O626 Sc616 2.105 1_554 S
O626 C620 1.268 . S
O627 Sc617 2.105 . S
O627 C621 1.268 . S
O628 Sc618 2.105 . S
O628 C622 1.268 . S
O629 Sc616 2.105 . S
O629 C623 1.268 . S
O630 Sc618 2.105 . S
O630 C624 1.268 . S
O631 Sc617 2.105 . S
O631 C625 1.268 . S
O632 Sc616 2.105 . S
O632 C624 1.268 1_556 S
O633 Sc617 2.105 . S
O633 C623 1.268 . S
O634 Sc618 2.105 1_556 S
O634 C625 1.268 . S
O635 Sc616 2.105 . S
O635 C621 1.268 . S
O636 Sc618 2.105 . S
O636 C620 1.268 . S
O637 Sc617 2.105 . S
O637 C622 1.268 1_556 S
Sc638 O641 2.025 1_554 S
Sc638 O648 2.105 . S
Sc638 O651 2.105 . S
Sc638 O654 2.105 . S
Sc638 O657 2.105 1_554 S
Sc639 O641 2.025 . S
Sc639 O649 2.105 . S
Sc639 O653 2.105 . S
Sc639 O655 2.105 . S
Sc639 O659 2.105 . S
Sc640 O641 2.025 . S
Sc640 O650 2.105 . S
Sc640 O652 2.105 1_556 S
Sc640 O656 2.105 . S
Sc640 O658 2.105 . S
O641 Sc638 2.025 1_556 S
O641 Sc639 2.025 . S
O641 Sc640 2.025 . S
C642 O648 1.268 . S
C642 O658 1.268 1_554 S
C643 O649 1.268 . S
C643 O657 1.268 . S
C644 O650 1.268 . S
C644 O659 1.268 . S
C645 O651 1.268 . S
C645 O655 1.268 1_554 S
C646 O652 1.268 . S
C646 O654 1.268 . S
C647 O653 1.268 . S
C647 O656 1.268 . S
O648 Sc638 2.105 . S
O648 C642 1.268 . S
O649 Sc639 2.105 . S
O649 C643 1.268 . S
O650 Sc640 2.105 . S
O650 C644 1.268 . S
O651 Sc638 2.105 . S
O651 C645 1.268 . S
O652 Sc640 2.105 1_554 S
O652 C646 1.268 . S
O653 Sc639 2.105 . S
O653 C647 1.268 . S
O654 Sc638 2.105 . S
O654 C646 1.268 . S
O655 Sc639 2.105 . S
O655 C645 1.268 1_556 S
O656 Sc640 2.105 . S
O656 C647 1.268 . S
O657 Sc638 2.105 1_556 S
O657 C643 1.268 . S
O658 Sc640 2.105 . S
O658 C642 1.268 1_556 S
O659 Sc639 2.105 . S
O659 C644 1.268 . S
Sc660 O663 2.025 . S
Sc660 O670 2.105 . S
Sc660 O673 2.105 . S
Sc660 O676 2.105 . S
Sc660 O679 2.105 . S
Sc661 O663 2.025 . S
Sc661 O671 2.105 . S
Sc661 O675 2.105 . S
Sc661 O677 2.105 . S
Sc661 O681 2.105 . S
Sc662 O663 2.025 . S
Sc662 O672 2.105 . S
Sc662 O674 2.105 . S
Sc662 O678 2.105 . S
Sc662 O680 2.105 . S
O663 Sc660 2.025 . S
O663 Sc661 2.025 . S
O663 Sc662 2.025 . S
C664 O670 1.268 . S
C664 O680 1.268 . S
C665 O671 1.268 . S
C665 O679 1.268 . S
C666 O672 1.268 . S
C666 O681 1.268 . S
C667 O673 1.268 . S
C667 O677 1.268 . S
C668 O674 1.268 . S
C668 O676 1.268 . S
C669 O675 1.268 . S
C669 O678 1.268 . S
O670 Sc660 2.105 . S
O670 C664 1.268 . S
O671 Sc661 2.105 . S
O671 C665 1.268 . S
O672 Sc662 2.105 . S
O672 C666 1.268 . S
O673 Sc660 2.105 . S
O673 C667 1.268 . S
O674 Sc662 2.105 . S
O674 C668 1.268 . S
O675 Sc661 2.105 . S
O675 C669 1.268 . S
O676 Sc660 2.105 . S
O676 C668 1.268 . S
O677 Sc661 2.105 . S
O677 C667 1.268 . S
O678 Sc662 2.105 . S
O678 C669 1.268 . S
O679 Sc660 2.105 . S
O679 C665 1.268 . S
O680 Sc662 2.105 . S
O680 C664 1.268 . S
O681 Sc661 2.105 . S
O681 C666 1.268 . S
Sc682 O685 2.025 . S
Sc682 O692 2.105 . S
Sc682 O695 2.105 . S
Sc682 O698 2.105 . S
Sc682 O701 2.105 . S
Sc683 O685 2.025 . S
Sc683 O693 2.105 . S
Sc683 O697 2.105 . S
Sc683 O699 2.105 . S
Sc683 O703 2.105 . S
Sc684 O685 2.025 . S
Sc684 O694 2.105 . S
Sc684 O696 2.105 . S
Sc684 O700 2.105 . S
Sc684 O702 2.105 . S
O685 Sc682 2.025 . S
O685 Sc683 2.025 . S
O685 Sc684 2.025 . S
C686 O692 1.268 . S
C686 O702 1.268 . S
C687 O693 1.268 . S
C687 O701 1.268 . S
C688 O694 1.268 . S
C688 O703 1.268 . S
C689 O695 1.268 . S
C689 O699 1.268 . S
C690 O696 1.268 . S
C690 O698 1.268 . S
C691 O697 1.268 . S
C691 O700 1.268 . S
O692 Sc682 2.105 . S
O692 C686 1.268 . S
O693 Sc683 2.105 . S
O693 C687 1.268 . S
O694 Sc684 2.105 . S
O694 C688 1.268 . S
O695 Sc682 2.105 . S
O695 C689 1.268 . S
O696 Sc684 2.105 . S
O696 C690 1.268 . S
O697 Sc683 2.105 . S
O697 C691 1.268 . S
O698 Sc682 2.105 . S
O698 C690 1.268 . S
O699 Sc683 2.105 . S
O699 C689 1.268 . S
O700 Sc684 2.105 . S
O700 C691 1.268 . S
O701 Sc682 2.105 . S
O701 C687 1.268 . S
O702 Sc684 2.105 . S
O702 C686 1.268 . S
O703 Sc683 2.105 . S
O703 C688 1.268 . S
H704 C710 0.930 . S
H705 C714 0.930 . S
H706 C719 0.929 . S
H707 C717 0.929 . S
H708 C712 0.929 . S
H709 C718 0.929 . S
C710 H704 0.930 . S
C710 C711 1.367 . S
C710 C718 1.378 . S
C711 C710 1.367 . S
C711 C719 1.433 . S
C712 H708 0.929 . S
C712 C714 1.378 . S
C712 C716 1.350 . S
C713 C716 1.463 . S
C713 C718 1.350 . S
C713 N721 1.427 . S
C714 H705 0.930 . S
C714 C712 1.378 . S
C714 C715 1.367 . S
C715 C714 1.367 . S
C715 C717 1.433 . S
C716 C712 1.350 . S
C716 C713 1.463 . S
C716 N720 1.427 . S
C717 H707 0.929 . S
C717 C715 1.433 . S
C717 N720 1.384 . S
C718 H709 0.929 . S
C718 C710 1.378 . S
C718 C713 1.350 . S
C719 H706 0.929 . S
C719 C711 1.433 . S
C719 N721 1.384 . S
N720 C716 1.427 . S
N720 C717 1.384 . S
N721 C713 1.427 . S
N721 C719 1.384 . S
H722 C728 0.930 . S
H723 C732 0.930 . S
H724 C737 0.929 . S
H725 C735 0.929 . S
H726 C730 0.929 . S
H727 C736 0.929 . S
C728 H722 0.930 . S
C728 C729 1.367 . S
C728 C736 1.378 . S
C729 C728 1.367 . S
C729 C737 1.433 . S
C730 H726 0.929 . S
C730 C732 1.378 . S
C730 C734 1.350 . S
C731 C734 1.463 . S
C731 C736 1.350 . S
C731 N739 1.427 . S
C732 H723 0.930 . S
C732 C730 1.378 . S
C732 C733 1.367 . S
C733 C732 1.367 . S
C733 C735 1.433 . S
C734 C730 1.350 . S
C734 C731 1.463 . S
C734 N738 1.427 . S
C735 H725 0.929 . S
C735 C733 1.433 . S
C735 N738 1.384 . S
C736 H727 0.929 . S
C736 C728 1.378 . S
C736 C731 1.350 . S
C737 H724 0.929 . S
C737 C729 1.433 . S
C737 N739 1.384 . S
N738 C734 1.427 . S
N738 C735 1.384 . S
N739 C731 1.427 . S
N739 C737 1.384 . S
H740 C746 0.930 . S
H741 C750 0.930 . S
H742 C755 0.929 . S
H743 C753 0.929 . S
H744 C748 0.929 . S
H745 C754 0.929 . S
C746 H740 0.930 . S
C746 C747 1.367 . S
C746 C754 1.378 . S
C747 C746 1.367 . S
C747 C755 1.433 . S
C748 H744 0.929 . S
C748 C750 1.378 . S
C748 C752 1.350 . S
C749 C752 1.463 . S
C749 C754 1.350 . S
C749 N757 1.427 . S
C750 H741 0.930 . S
C750 C748 1.378 . S
C750 C751 1.367 . S
C751 C750 1.367 . S
C751 C753 1.433 . S
C752 C748 1.350 . S
C752 C749 1.463 . S
C752 N756 1.427 . S
C753 H743 0.929 . S
C753 C751 1.433 . S
C753 N756 1.384 . S
C754 H745 0.929 . S
C754 C746 1.378 . S
C754 C749 1.350 . S
C755 H742 0.929 . S
C755 C747 1.433 . S
C755 N757 1.384 . S
N756 C752 1.427 . S
N756 C753 1.384 . S
N757 C749 1.427 . S
N757 C755 1.384 . S
H758 C764 0.930 . S
H759 C768 0.930 . S
H760 C773 0.929 . S
H761 C771 0.929 . S
H762 C766 0.929 . S
H763 C772 0.929 . S
C764 H758 0.930 . S
C764 C765 1.367 . S
C764 C772 1.378 . S
C765 C764 1.367 . S
C765 C773 1.433 . S
C766 H762 0.929 . S
C766 C768 1.378 . S
C766 C770 1.350 . S
C767 C770 1.463 . S
C767 C772 1.350 . S
C767 N775 1.427 . S
C768 H759 0.930 . S
C768 C766 1.378 . S
C768 C769 1.367 . S
C769 C768 1.367 . S
C769 C771 1.433 . S
C770 C766 1.350 . S
C770 C767 1.463 . S
C770 N774 1.427 . S
C771 H761 0.929 . S
C771 C769 1.433 . S
C771 N774 1.384 . S
C772 H763 0.929 . S
C772 C764 1.378 . S
C772 C767 1.350 . S
C773 H760 0.929 . S
C773 C765 1.433 . S
C773 N775 1.384 . S
N774 C770 1.427 . S
N774 C771 1.384 . S
N775 C767 1.427 . S
N775 C773 1.384 . S
H776 C782 0.930 . S
H777 C786 0.930 . S
H778 C791 0.929 . S
H779 C789 0.929 . S
H780 C784 0.929 . S
H781 C790 0.929 . S
C782 H776 0.930 . S
C782 C783 1.367 . S
C782 C790 1.378 . S
C783 C782 1.367 . S
C783 C791 1.433 . S
C784 H780 0.929 . S
C784 C786 1.378 . S
C784 C788 1.350 . S
C785 C788 1.463 . S
C785 C790 1.350 . S
C785 N793 1.427 . S
C786 H777 0.930 . S
C786 C784 1.378 . S
C786 C787 1.367 . S
C787 C786 1.367 . S
C787 C789 1.433 . S
C788 C784 1.350 . S
C788 C785 1.463 . S
C788 N792 1.427 . S
C789 H779 0.929 . S
C789 C787 1.433 . S
C789 N792 1.384 . S
C790 H781 0.929 . S
C790 C782 1.378 . S
C790 C785 1.350 . S
C791 H778 0.929 . S
C791 C783 1.433 . S
C791 N793 1.384 . S
N792 C788 1.427 . S
N792 C789 1.384 . S
N793 C785 1.427 . S
N793 C791 1.384 . S
H794 C800 0.930 . S
H795 C804 0.930 . S
H796 C809 0.929 . S
H797 C807 0.929 . S
H798 C802 0.929 . S
H799 C808 0.929 . S
C800 H794 0.930 . S
C800 C801 1.367 . S
C800 C808 1.378 . S
C801 C800 1.367 . S
C801 C809 1.433 . S
C802 H798 0.929 . S
C802 C804 1.378 . S
C802 C806 1.350 . S
C803 C806 1.463 . S
C803 C808 1.350 . S
C803 N811 1.427 . S
C804 H795 0.930 . S
C804 C802 1.378 . S
C804 C805 1.367 . S
C805 C804 1.367 . S
C805 C807 1.433 . S
C806 C802 1.350 . S
C806 C803 1.463 . S
C806 N810 1.427 . S
C807 H797 0.929 . S
C807 C805 1.433 . S
C807 N810 1.384 . S
C808 H799 0.929 . S
C808 C800 1.378 . S
C808 C803 1.350 . S
C809 H796 0.929 . S
C809 C801 1.433 . S
C809 N811 1.384 . S
N810 C806 1.427 . S
N810 C807 1.384 . S
N811 C803 1.427 . S
N811 C809 1.384 . S
H812 C818 0.930 . S
H813 C822 0.930 . S
H814 C827 0.929 . S
H815 C825 0.929 . S
H816 C820 0.929 . S
H817 C826 0.929 . S
C818 H812 0.930 . S
C818 C819 1.367 . S
C818 C826 1.378 . S
C819 C818 1.367 . S
C819 C827 1.433 . S
C820 H816 0.929 . S
C820 C822 1.378 . S
C820 C824 1.350 . S
C821 C824 1.463 . S
C821 C826 1.350 . S
C821 N829 1.427 . S
C822 H813 0.930 . S
C822 C820 1.378 . S
C822 C823 1.367 . S
C823 C822 1.367 . S
C823 C825 1.433 . S
C824 C820 1.350 . S
C824 C821 1.463 . S
C824 N828 1.427 . S
C825 H815 0.929 . S
C825 C823 1.433 . S
C825 N828 1.384 . S
C826 H817 0.929 . S
C826 C818 1.378 . S
C826 C821 1.350 . S
C827 H814 0.929 . S
C827 C819 1.433 . S
C827 N829 1.384 . S
N828 C824 1.427 . S
N828 C825 1.384 . S
N829 C821 1.427 . S
N829 C827 1.384 . S
H830 C836 0.930 . S
H831 C840 0.930 . S
H832 C845 0.929 . S
H833 C843 0.929 . S
H834 C838 0.929 . S
H835 C844 0.929 . S
C836 H830 0.930 . S
C836 C837 1.367 . S
C836 C844 1.378 . S
C837 C836 1.367 . S
C837 C845 1.433 . S
C838 H834 0.929 . S
C838 C840 1.378 . S
C838 C842 1.350 . S
C839 C842 1.463 . S
C839 C844 1.350 . S
C839 N847 1.427 . S
C840 H831 0.930 . S
C840 C838 1.378 . S
C840 C841 1.367 . S
C841 C840 1.367 . S
C841 C843 1.433 . S
C842 C838 1.350 . S
C842 C839 1.463 . S
C842 N846 1.427 . S
C843 H833 0.929 . S
C843 C841 1.433 . S
C843 N846 1.384 . S
C844 H835 0.929 . S
C844 C836 1.378 . S
C844 C839 1.350 . S
C845 H832 0.929 . S
C845 C837 1.433 . S
C845 N847 1.384 . S
N846 C842 1.427 . S
N846 C843 1.384 . S
N847 C839 1.427 . S
N847 C845 1.384 . S
H848 C854 0.930 . S
H849 C858 0.930 . S
H850 C863 0.929 . S
H851 C861 0.929 . S
H852 C856 0.929 . S
H853 C862 0.929 . S
C854 H848 0.930 . S
C854 C855 1.367 . S
C854 C862 1.378 . S
C855 C854 1.367 . S
C855 C863 1.433 . S
C856 H852 0.929 . S
C856 C858 1.378 . S
C856 C860 1.350 . S
C857 C860 1.463 . S
C857 C862 1.350 . S
C857 N865 1.427 . S
C858 H849 0.930 . S
C858 C856 1.378 . S
C858 C859 1.367 . S
C859 C858 1.367 . S
C859 C861 1.433 . S
C860 C856 1.350 . S
C860 C857 1.463 . S
C860 N864 1.427 . S
C861 H851 0.929 . S
C861 C859 1.433 . S
C861 N864 1.384 . S
C862 H853 0.929 . S
C862 C854 1.378 . S
C862 C857 1.350 . S
C863 H850 0.929 . S
C863 C855 1.433 . S
C863 N865 1.384 . S
N864 C860 1.427 . S
N864 C861 1.384 . S
N865 C857 1.427 . S
N865 C863 1.384 . S
H866 C872 0.930 . S
H867 C876 0.930 . S
H868 C881 0.929 . S
H869 C879 0.929 . S
H870 C874 0.929 . S
H871 C880 0.929 . S
C872 H866 0.930 . S
C872 C873 1.367 . S
C872 C880 1.378 . S
C873 C872 1.367 . S
C873 C881 1.433 . S
C874 H870 0.929 . S
C874 C876 1.378 . S
C874 C878 1.350 . S
C875 C878 1.463 . S
C875 C880 1.350 . S
C875 N883 1.427 . S
C876 H867 0.930 . S
C876 C874 1.378 . S
C876 C877 1.367 . S
C877 C876 1.367 . S
C877 C879 1.433 . S
C878 C874 1.350 . S
C878 C875 1.463 . S
C878 N882 1.427 . S
C879 H869 0.929 . S
C879 C877 1.433 . S
C879 N882 1.384 . S
C880 H871 0.929 . S
C880 C872 1.378 . S
C880 C875 1.350 . S
C881 H868 0.929 . S
C881 C873 1.433 . S
C881 N883 1.384 . S
N882 C878 1.427 . S
N882 C879 1.384 . S
N883 C875 1.427 . S
N883 C881 1.384 . S
H884 C890 0.930 . S
H885 C894 0.930 . S
H886 C899 0.929 . S
H887 C897 0.929 . S
H888 C892 0.929 . S
H889 C898 0.929 . S
C890 H884 0.930 . S
C890 C891 1.367 . S
C890 C898 1.378 . S
C891 C890 1.367 . S
C891 C899 1.433 . S
C892 H888 0.929 . S
C892 C894 1.378 . S
C892 C896 1.350 . S
C893 C896 1.463 . S
C893 C898 1.350 . S
C893 N901 1.427 . S
C894 H885 0.930 . S
C894 C892 1.378 . S
C894 C895 1.367 . S
C895 C894 1.367 . S
C895 C897 1.433 . S
C896 C892 1.350 . S
C896 C893 1.463 . S
C896 N900 1.427 . S
C897 H887 0.929 . S
C897 C895 1.433 . S
C897 N900 1.384 . S
C898 H889 0.929 . S
C898 C890 1.378 . S
C898 C893 1.350 . S
C899 H886 0.929 . S
C899 C891 1.433 . S
C899 N901 1.384 . S
N900 C896 1.427 . S
N900 C897 1.384 . S
N901 C893 1.427 . S
N901 C899 1.384 . S
H902 C908 0.930 . S
H903 C912 0.930 . S
H904 C917 0.929 . S
H905 C915 0.929 . S
H906 C910 0.929 . S
H907 C916 0.929 . S
C908 H902 0.930 . S
C908 C909 1.367 . S
C908 C916 1.378 . S
C909 C908 1.367 . S
C909 C917 1.433 . S
C910 H906 0.929 . S
C910 C912 1.378 . S
C910 C914 1.350 . S
C911 C914 1.463 . S
C911 C916 1.350 . S
C911 N919 1.427 . S
C912 H903 0.930 . S
C912 C910 1.378 . S
C912 C913 1.367 . S
C913 C912 1.367 . S
C913 C915 1.433 . S
C914 C910 1.350 . S
C914 C911 1.463 . S
C914 N918 1.427 . S
C915 H905 0.929 . S
C915 C913 1.433 . S
C915 N918 1.384 . S
C916 H907 0.929 . S
C916 C908 1.378 . S
C916 C911 1.350 . S
C917 H904 0.929 . S
C917 C909 1.433 . S
C917 N919 1.384 . S
N918 C914 1.427 . S
N918 C915 1.384 . S
N919 C911 1.427 . S
N919 C917 1.384 . S
H920 C926 0.930 . S
H921 C930 0.930 . S
H922 C935 0.929 . S
H923 C933 0.929 . S
H924 C928 0.929 . S
H925 C934 0.929 . S
C926 H920 0.930 . S
C926 C927 1.367 . S
C926 C934 1.378 . S
C927 C926 1.367 . S
C927 C935 1.433 . S
C928 H924 0.929 . S
C928 C930 1.378 . S
C928 C932 1.350 . S
C929 C932 1.463 . S
C929 C934 1.350 . S
C929 N937 1.427 . S
C930 H921 0.930 . S
C930 C928 1.378 . S
C930 C931 1.367 . S
C931 C930 1.367 . S
C931 C933 1.433 . S
C932 C928 1.350 . S
C932 C929 1.463 . S
C932 N936 1.427 . S
C933 H923 0.929 . S
C933 C931 1.433 . S
C933 N936 1.384 . S
C934 H925 0.929 . S
C934 C926 1.378 . S
C934 C929 1.350 . S
C935 H922 0.929 . S
C935 C927 1.433 . S
C935 N937 1.384 . S
N936 C932 1.427 . S
N936 C933 1.384 . S
N937 C929 1.427 . S
N937 C935 1.384 . S
H938 C944 0.930 . S
H939 C948 0.930 . S
H940 C953 0.929 . S
H941 C951 0.929 . S
H942 C946 0.929 . S
H943 C952 0.929 . S
C944 H938 0.930 . S
C944 C945 1.367 . S
C944 C952 1.378 . S
C945 C944 1.367 . S
C945 C953 1.433 . S
C946 H942 0.929 . S
C946 C948 1.378 . S
C946 C950 1.350 . S
C947 C950 1.463 . S
C947 C952 1.350 . S
C947 N955 1.427 . S
C948 H939 0.930 . S
C948 C946 1.378 . S
C948 C949 1.367 . S
C949 C948 1.367 . S
C949 C951 1.433 . S
C950 C946 1.350 . S
C950 C947 1.463 . S
C950 N954 1.427 . S
C951 H941 0.929 . S
C951 C949 1.433 . S
C951 N954 1.384 . S
C952 H943 0.929 . S
C952 C944 1.378 . S
C952 C947 1.350 . S
C953 H940 0.929 . S
C953 C945 1.433 . S
C953 N955 1.384 . S
N954 C950 1.427 . S
N954 C951 1.384 . S
N955 C947 1.427 . S
N955 C953 1.384 . S
H956 C962 0.930 . S
H957 C966 0.930 . S
H958 C971 0.929 . S
H959 C969 0.929 . S
H960 C964 0.929 . S
H961 C970 0.929 . S
C962 H956 0.930 . S
C962 C963 1.367 . S
C962 C970 1.378 . S
C963 C962 1.367 . S
C963 C971 1.433 . S
C964 H960 0.929 . S
C964 C966 1.378 . S
C964 C968 1.350 . S
C965 C968 1.463 . S
C965 C970 1.350 . S
C965 N973 1.427 . S
C966 H957 0.930 . S
C966 C964 1.378 . S
C966 C967 1.367 . S
C967 C966 1.367 . S
C967 C969 1.433 . S
C968 C964 1.350 . S
C968 C965 1.463 . S
C968 N972 1.427 . S
C969 H959 0.929 . S
C969 C967 1.433 . S
C969 N972 1.384 . S
C970 H961 0.929 . S
C970 C962 1.378 . S
C970 C965 1.350 . S
C971 H958 0.929 . S
C971 C963 1.433 . S
C971 N973 1.384 . S
N972 C968 1.427 . S
N972 C969 1.384 . S
N973 C965 1.427 . S
N973 C971 1.384 . S
H974 C980 0.930 . S
H975 C984 0.930 . S
H976 C989 0.929 . S
H977 C987 0.929 . S
H978 C982 0.929 . S
H979 C988 0.929 . S
C980 H974 0.930 . S
C980 C981 1.367 . S
C980 C988 1.378 . S
C981 C980 1.367 . S
C981 C989 1.433 . S
C982 H978 0.929 . S
C982 C984 1.378 . S
C982 C986 1.350 . S
C983 C986 1.463 . S
C983 C988 1.350 . S
C983 N991 1.427 . S
C984 H975 0.930 . S
C984 C982 1.378 . S
C984 C985 1.367 . S
C985 C984 1.367 . S
C985 C987 1.433 . S
C986 C982 1.350 . S
C986 C983 1.463 . S
C986 N990 1.427 . S
C987 H977 0.929 . S
C987 C985 1.433 . S
C987 N990 1.384 . S
C988 H979 0.929 . S
C988 C980 1.378 . S
C988 C983 1.350 . S
C989 H976 0.929 . S
C989 C981 1.433 . S
C989 N991 1.384 . S
N990 C986 1.427 . S
N990 C987 1.384 . S
N991 C983 1.427 . S
N991 C989 1.384 . S
H992 C998 0.930 . S
H993 C1002 0.930 . S
H994 C1007 0.929 . S
H995 C1005 0.929 . S
H996 C1000 0.929 . S
H997 C1006 0.929 . S
C998 H992 0.930 . S
C998 C999 1.367 . S
C998 C1006 1.378 . S
C999 C998 1.367 . S
C999 C1007 1.433 . S
C1000 H996 0.929 . S
C1000 C1002 1.378 . S
C1000 C1004 1.350 . S
C1001 C1004 1.463 . S
C1001 C1006 1.350 . S
C1001 N1009 1.427 . S
C1002 H993 0.930 . S
C1002 C1000 1.378 . S
C1002 C1003 1.367 . S
C1003 C1002 1.367 . S
C1003 C1005 1.433 . S
C1004 C1000 1.350 . S
C1004 C1001 1.463 . S
C1004 N1008 1.427 . S
C1005 H995 0.929 . S
C1005 C1003 1.433 . S
C1005 N1008 1.384 . S
C1006 H997 0.929 . S
C1006 C998 1.378 . S
C1006 C1001 1.350 . S
C1007 H994 0.929 . S
C1007 C999 1.433 . S
C1007 N1009 1.384 . S
N1008 C1004 1.427 . S
N1008 C1005 1.384 . S
N1009 C1001 1.427 . S
N1009 C1007 1.384 . S
H1010 C1016 0.930 . S
H1011 C1020 0.930 . S
H1012 C1025 0.929 . S
H1013 C1023 0.929 . S
H1014 C1018 0.929 . S
H1015 C1024 0.929 . S
C1016 H1010 0.930 . S
C1016 C1017 1.367 . S
C1016 C1024 1.378 . S
C1017 C1016 1.367 . S
C1017 C1025 1.433 . S
C1018 H1014 0.929 . S
C1018 C1020 1.378 . S
C1018 C1022 1.350 . S
C1019 C1022 1.463 . S
C1019 C1024 1.350 . S
C1019 N1027 1.427 . S
C1020 H1011 0.930 . S
C1020 C1018 1.378 . S
C1020 C1021 1.367 . S
C1021 C1020 1.367 . S
C1021 C1023 1.433 . S
C1022 C1018 1.350 . S
C1022 C1019 1.463 . S
C1022 N1026 1.427 . S
C1023 H1013 0.929 . S
C1023 C1021 1.433 . S
C1023 N1026 1.384 . S
C1024 H1015 0.929 . S
C1024 C1016 1.378 . S
C1024 C1019 1.350 . S
C1025 H1012 0.929 . S
C1025 C1017 1.433 . S
C1025 N1027 1.384 . S
N1026 C1022 1.427 . S
N1026 C1023 1.384 . S
N1027 C1019 1.427 . S
N1027 C1025 1.384 . S
H1028 C1034 0.930 . S
H1029 C1038 0.930 . S
H1030 C1043 0.929 . S
H1031 C1041 0.929 . S
H1032 C1036 0.929 . S
H1033 C1042 0.929 . S
C1034 H1028 0.930 . S
C1034 C1035 1.367 . S
C1034 C1042 1.378 . S
C1035 C1034 1.367 . S
C1035 C1043 1.433 . S
C1036 H1032 0.929 . S
C1036 C1038 1.378 . S
C1036 C1040 1.350 . S
C1037 C1040 1.463 . S
C1037 C1042 1.350 . S
C1037 N1045 1.427 . S
C1038 H1029 0.930 . S
C1038 C1036 1.378 . S
C1038 C1039 1.367 . S
C1039 C1038 1.367 . S
C1039 C1041 1.433 . S
C1040 C1036 1.350 . S
C1040 C1037 1.463 . S
C1040 N1044 1.427 . S
C1041 H1031 0.929 . S
C1041 C1039 1.433 . S
C1041 N1044 1.384 . S
C1042 H1033 0.929 . S
C1042 C1034 1.378 . S
C1042 C1037 1.350 . S
C1043 H1030 0.929 . S
C1043 C1035 1.433 . S
C1043 N1045 1.384 . S
N1044 C1040 1.427 . S
N1044 C1041 1.384 . S
N1045 C1037 1.427 . S
N1045 C1043 1.384 . S
H1046 C1052 0.930 . S
H1047 C1056 0.930 . S
H1048 C1061 0.929 . S
H1049 C1059 0.929 . S
H1050 C1054 0.929 . S
H1051 C1060 0.929 . S
C1052 H1046 0.930 . S
C1052 C1053 1.367 . S
C1052 C1060 1.378 . S
C1053 C1052 1.367 . S
C1053 C1061 1.433 . S
C1054 H1050 0.929 . S
C1054 C1056 1.378 . S
C1054 C1058 1.350 . S
C1055 C1058 1.463 . S
C1055 C1060 1.350 . S
C1055 N1063 1.427 . S
C1056 H1047 0.930 . S
C1056 C1054 1.378 . S
C1056 C1057 1.367 . S
C1057 C1056 1.367 . S
C1057 C1059 1.433 . S
C1058 C1054 1.350 . S
C1058 C1055 1.463 . S
C1058 N1062 1.427 . S
C1059 H1049 0.929 . S
C1059 C1057 1.433 . S
C1059 N1062 1.384 . S
C1060 H1051 0.929 . S
C1060 C1052 1.378 . S
C1060 C1055 1.350 . S
C1061 H1048 0.929 . S
C1061 C1053 1.433 . S
C1061 N1063 1.384 . S
N1062 C1058 1.427 . S
N1062 C1059 1.384 . S
N1063 C1055 1.427 . S
N1063 C1061 1.384 . S
H1064 C1070 0.930 . S
H1065 C1074 0.930 . S
H1066 C1079 0.929 . S
H1067 C1077 0.929 . S
H1068 C1072 0.929 . S
H1069 C1078 0.929 . S
C1070 H1064 0.930 . S
C1070 C1071 1.367 . S
C1070 C1078 1.378 . S
C1071 C1070 1.367 . S
C1071 C1079 1.433 . S
C1072 H1068 0.929 . S
C1072 C1074 1.378 . S
C1072 C1076 1.350 . S
C1073 C1076 1.463 . S
C1073 C1078 1.350 . S
C1073 N1081 1.427 . S
C1074 H1065 0.930 . S
C1074 C1072 1.378 . S
C1074 C1075 1.367 . S
C1075 C1074 1.367 . S
C1075 C1077 1.433 . S
C1076 C1072 1.350 . S
C1076 C1073 1.463 . S
C1076 N1080 1.427 . S
C1077 H1067 0.929 . S
C1077 C1075 1.433 . S
C1077 N1080 1.384 . S
C1078 H1069 0.929 . S
C1078 C1070 1.378 . S
C1078 C1073 1.350 . S
C1079 H1066 0.929 . S
C1079 C1071 1.433 . S
C1079 N1081 1.384 . S
N1080 C1076 1.427 . S
N1080 C1077 1.384 . S
N1081 C1073 1.427 . S
N1081 C1079 1.384 . S
H1082 C1088 0.930 . S
H1083 C1092 0.930 . S
H1084 C1097 0.929 . S
H1085 C1095 0.929 . S
H1086 C1090 0.929 . S
H1087 C1096 0.929 . S
C1088 H1082 0.930 . S
C1088 C1089 1.367 . S
C1088 C1096 1.378 . S
C1089 C1088 1.367 . S
C1089 C1097 1.433 . S
C1090 H1086 0.929 . S
C1090 C1092 1.378 . S
C1090 C1094 1.350 . S
C1091 C1094 1.463 . S
C1091 C1096 1.350 . S
C1091 N1099 1.427 . S
C1092 H1083 0.930 . S
C1092 C1090 1.378 . S
C1092 C1093 1.367 . S
C1093 C1092 1.367 . S
C1093 C1095 1.433 . S
C1094 C1090 1.350 . S
C1094 C1091 1.463 . S
C1094 N1098 1.427 . S
C1095 H1085 0.929 . S
C1095 C1093 1.433 . S
C1095 N1098 1.384 . S
C1096 H1087 0.929 . S
C1096 C1088 1.378 . S
C1096 C1091 1.350 . S
C1097 H1084 0.929 . S
C1097 C1089 1.433 . S
C1097 N1099 1.384 . S
N1098 C1094 1.427 . S
N1098 C1095 1.384 . S
N1099 C1091 1.427 . S
N1099 C1097 1.384 . S
H1100 C1106 0.930 . S
H1101 C1110 0.930 . S
H1102 C1115 0.929 . S
H1103 C1113 0.929 . S
H1104 C1108 0.929 . S
H1105 C1114 0.929 . S
C1106 H1100 0.930 . S
C1106 C1107 1.367 . S
C1106 C1114 1.378 . S
C1107 C1106 1.367 . S
C1107 C1115 1.433 . S
C1108 H1104 0.929 . S
C1108 C1110 1.378 . S
C1108 C1112 1.350 . S
C1109 C1112 1.463 . S
C1109 C1114 1.350 . S
C1109 N1117 1.427 . S
C1110 H1101 0.930 . S
C1110 C1108 1.378 . S
C1110 C1111 1.367 . S
C1111 C1110 1.367 . S
C1111 C1113 1.433 . S
C1112 C1108 1.350 . S
C1112 C1109 1.463 . S
C1112 N1116 1.427 . S
C1113 H1103 0.929 . S
C1113 C1111 1.433 . S
C1113 N1116 1.384 . S
C1114 H1105 0.929 . S
C1114 C1106 1.378 . S
C1114 C1109 1.350 . S
C1115 H1102 0.929 . S
C1115 C1107 1.433 . S
C1115 N1117 1.384 . S
N1116 C1112 1.427 . S
N1116 C1113 1.384 . S
N1117 C1109 1.427 . S
N1117 C1115 1.384 . S
H1118 C1124 0.930 . S
H1119 C1128 0.930 . S
H1120 C1133 0.929 . S
H1121 C1131 0.929 . S
H1122 C1126 0.929 . S
H1123 C1132 0.929 . S
C1124 H1118 0.930 . S
C1124 C1125 1.367 . S
C1124 C1132 1.378 . S
C1125 C1124 1.367 . S
C1125 C1133 1.433 . S
C1126 H1122 0.929 . S
C1126 C1128 1.378 . S
C1126 C1130 1.350 . S
C1127 C1130 1.463 . S
C1127 C1132 1.350 . S
C1127 N1135 1.427 . S
C1128 H1119 0.930 . S
C1128 C1126 1.378 . S
C1128 C1129 1.367 . S
C1129 C1128 1.367 . S
C1129 C1131 1.433 . S
C1130 C1126 1.350 . S
C1130 C1127 1.463 . S
C1130 N1134 1.427 . S
C1131 H1121 0.929 . S
C1131 C1129 1.433 . S
C1131 N1134 1.384 . S
C1132 H1123 0.929 . S
C1132 C1124 1.378 . S
C1132 C1127 1.350 . S
C1133 H1120 0.929 . S
C1133 C1125 1.433 . S
C1133 N1135 1.384 . S
N1134 C1130 1.427 . S
N1134 C1131 1.384 . S
N1135 C1127 1.427 . S
N1135 C1133 1.384 . S
H1136 C1142 0.930 . S
H1137 C1146 0.930 . S
H1138 C1151 0.929 . S
H1139 C1149 0.929 . S
H1140 C1144 0.929 . S
H1141 C1150 0.929 . S
C1142 H1136 0.930 . S
C1142 C1143 1.367 . S
C1142 C1150 1.378 . S
C1143 C1142 1.367 . S
C1143 C1151 1.433 . S
C1144 H1140 0.929 . S
C1144 C1146 1.378 . S
C1144 C1148 1.350 . S
C1145 C1148 1.463 . S
C1145 C1150 1.350 . S
C1145 N1153 1.427 . S
C1146 H1137 0.930 . S
C1146 C1144 1.378 . S
C1146 C1147 1.367 . S
C1147 C1146 1.367 . S
C1147 C1149 1.433 . S
C1148 C1144 1.350 . S
C1148 C1145 1.463 . S
C1148 N1152 1.427 . S
C1149 H1139 0.929 . S
C1149 C1147 1.433 . S
C1149 N1152 1.384 . S
C1150 H1141 0.929 . S
C1150 C1142 1.378 . S
C1150 C1145 1.350 . S
C1151 H1138 0.929 . S
C1151 C1143 1.433 . S
C1151 N1153 1.384 . S
N1152 C1148 1.427 . S
N1152 C1149 1.384 . S
N1153 C1145 1.427 . S
N1153 C1151 1.384 . S
H1154 C1160 0.930 . S
H1155 C1164 0.930 . S
H1156 C1169 0.929 . S
H1157 C1167 0.929 . S
H1158 C1162 0.929 . S
H1159 C1168 0.929 . S
C1160 H1154 0.930 . S
C1160 C1161 1.367 . S
C1160 C1168 1.378 . S
C1161 C1160 1.367 . S
C1161 C1169 1.433 . S
C1162 H1158 0.929 . S
C1162 C1164 1.378 . S
C1162 C1166 1.350 . S
C1163 C1166 1.463 . S
C1163 C1168 1.350 . S
C1163 N1171 1.427 . S
C1164 H1155 0.930 . S
C1164 C1162 1.378 . S
C1164 C1165 1.367 . S
C1165 C1164 1.367 . S
C1165 C1167 1.433 . S
C1166 C1162 1.350 . S
C1166 C1163 1.463 . S
C1166 N1170 1.427 . S
C1167 H1157 0.929 . S
C1167 C1165 1.433 . S
C1167 N1170 1.384 . S
C1168 H1159 0.929 . S
C1168 C1160 1.378 . S
C1168 C1163 1.350 . S
C1169 H1156 0.929 . S
C1169 C1161 1.433 . S
C1169 N1171 1.384 . S
N1170 C1166 1.427 . S
N1170 C1167 1.384 . S
N1171 C1163 1.427 . S
N1171 C1169 1.384 . S
H1172 C1178 0.930 . S
H1173 C1182 0.930 . S
H1174 C1187 0.929 . S
H1175 C1185 0.929 . S
H1176 C1180 0.929 . S
H1177 C1186 0.929 . S
C1178 H1172 0.930 . S
C1178 C1179 1.367 . S
C1178 C1186 1.378 . S
C1179 C1178 1.367 . S
C1179 C1187 1.433 . S
C1180 H1176 0.929 . S
C1180 C1182 1.378 . S
C1180 C1184 1.350 . S
C1181 C1184 1.463 . S
C1181 C1186 1.350 . S
C1181 N1189 1.427 . S
C1182 H1173 0.930 . S
C1182 C1180 1.378 . S
C1182 C1183 1.367 . S
C1183 C1182 1.367 . S
C1183 C1185 1.433 . S
C1184 C1180 1.350 . S
C1184 C1181 1.463 . S
C1184 N1188 1.427 . S
C1185 H1175 0.929 . S
C1185 C1183 1.433 . S
C1185 N1188 1.384 . S
C1186 H1177 0.929 . S
C1186 C1178 1.378 . S
C1186 C1181 1.350 . S
C1187 H1174 0.929 . S
C1187 C1179 1.433 . S
C1187 N1189 1.384 . S
N1188 C1184 1.427 . S
N1188 C1185 1.384 . S
N1189 C1181 1.427 . S
N1189 C1187 1.384 . S
H1190 C1196 0.930 . S
H1191 C1200 0.930 . S
H1192 C1205 0.929 . S
H1193 C1203 0.929 . S
H1194 C1198 0.929 . S
H1195 C1204 0.929 . S
C1196 H1190 0.930 . S
C1196 C1197 1.367 . S
C1196 C1204 1.378 . S
C1197 C1196 1.367 . S
C1197 C1205 1.433 . S
C1198 H1194 0.929 . S
C1198 C1200 1.378 . S
C1198 C1202 1.350 . S
C1199 C1202 1.463 . S
C1199 C1204 1.350 . S
C1199 N1207 1.427 . S
C1200 H1191 0.930 . S
C1200 C1198 1.378 . S
C1200 C1201 1.367 . S
C1201 C1200 1.367 . S
C1201 C1203 1.433 . S
C1202 C1198 1.350 . S
C1202 C1199 1.463 . S
C1202 N1206 1.427 . S
C1203 H1193 0.929 . S
C1203 C1201 1.433 . S
C1203 N1206 1.384 . S
C1204 H1195 0.929 . S
C1204 C1196 1.378 . S
C1204 C1199 1.350 . S
C1205 H1192 0.929 . S
C1205 C1197 1.433 . S
C1205 N1207 1.384 . S
N1206 C1202 1.427 . S
N1206 C1203 1.384 . S
N1207 C1199 1.427 . S
N1207 C1205 1.384 . S
H1208 C1214 0.930 . S
H1209 C1218 0.930 . S
H1210 C1223 0.929 . S
H1211 C1221 0.929 . S
H1212 C1216 0.929 . S
H1213 C1222 0.929 . S
C1214 H1208 0.930 . S
C1214 C1215 1.367 . S
C1214 C1222 1.378 . S
C1215 C1214 1.367 . S
C1215 C1223 1.433 . S
C1216 H1212 0.929 . S
C1216 C1218 1.378 . S
C1216 C1220 1.350 . S
C1217 C1220 1.463 . S
C1217 C1222 1.350 . S
C1217 N1225 1.427 . S
C1218 H1209 0.930 . S
C1218 C1216 1.378 . S
C1218 C1219 1.367 . S
C1219 C1218 1.367 . S
C1219 C1221 1.433 . S
C1220 C1216 1.350 . S
C1220 C1217 1.463 . S
C1220 N1224 1.427 . S
C1221 H1211 0.929 . S
C1221 C1219 1.433 . S
C1221 N1224 1.384 . S
C1222 H1213 0.929 . S
C1222 C1214 1.378 . S
C1222 C1217 1.350 . S
C1223 H1210 0.929 . S
C1223 C1215 1.433 . S
C1223 N1225 1.384 . S
N1224 C1220 1.427 . S
N1224 C1221 1.384 . S
N1225 C1217 1.427 . S
N1225 C1223 1.384 . S
H1226 C1232 0.930 . S
H1227 C1236 0.930 . S
H1228 C1241 0.929 . S
H1229 C1239 0.929 . S
H1230 C1234 0.929 . S
H1231 C1240 0.929 . S
C1232 H1226 0.930 . S
C1232 C1233 1.367 . S
C1232 C1240 1.378 . S
C1233 C1232 1.367 . S
C1233 C1241 1.433 . S
C1234 H1230 0.929 . S
C1234 C1236 1.378 . S
C1234 C1238 1.350 . S
C1235 C1238 1.463 . S
C1235 C1240 1.350 . S
C1235 N1243 1.427 . S
C1236 H1227 0.930 . S
C1236 C1234 1.378 . S
C1236 C1237 1.367 . S
C1237 C1236 1.367 . S
C1237 C1239 1.433 . S
C1238 C1234 1.350 . S
C1238 C1235 1.463 . S
C1238 N1242 1.427 . S
C1239 H1229 0.929 . S
C1239 C1237 1.433 . S
C1239 N1242 1.384 . S
C1240 H1231 0.929 . S
C1240 C1232 1.378 . S
C1240 C1235 1.350 . S
C1241 H1228 0.929 . S
C1241 C1233 1.433 . S
C1241 N1243 1.384 . S
N1242 C1238 1.427 . S
N1242 C1239 1.384 . S
N1243 C1235 1.427 . S
N1243 C1241 1.384 . S
H1244 C1250 0.930 . S
H1245 C1254 0.930 . S
H1246 C1259 0.929 . S
H1247 C1257 0.929 . S
H1248 C1252 0.929 . S
H1249 C1258 0.929 . S
C1250 H1244 0.930 . S
C1250 C1251 1.367 . S
C1250 C1258 1.378 . S
C1251 C1250 1.367 . S
C1251 C1259 1.433 . S
C1252 H1248 0.929 . S
C1252 C1254 1.378 . S
C1252 C1256 1.350 . S
C1253 C1256 1.463 . S
C1253 C1258 1.350 . S
C1253 N1261 1.427 . S
C1254 H1245 0.930 . S
C1254 C1252 1.378 . S
C1254 C1255 1.367 . S
C1255 C1254 1.367 . S
C1255 C1257 1.433 . S
C1256 C1252 1.350 . S
C1256 C1253 1.463 . S
C1256 N1260 1.427 . S
C1257 H1247 0.929 . S
C1257 C1255 1.433 . S
C1257 N1260 1.384 . S
C1258 H1249 0.929 . S
C1258 C1250 1.378 . S
C1258 C1253 1.350 . S
C1259 H1246 0.929 . S
C1259 C1251 1.433 . S
C1259 N1261 1.384 . S
N1260 C1256 1.427 . S
N1260 C1257 1.384 . S
N1261 C1253 1.427 . S
N1261 C1259 1.384 . S
H1262 C1268 0.930 . S
H1263 C1272 0.930 . S
H1264 C1277 0.929 . S
H1265 C1275 0.929 . S
H1266 C1270 0.929 . S
H1267 C1276 0.929 . S
C1268 H1262 0.930 . S
C1268 C1269 1.367 . S
C1268 C1276 1.378 . S
C1269 C1268 1.367 . S
C1269 C1277 1.433 . S
C1270 H1266 0.929 . S
C1270 C1272 1.378 . S
C1270 C1274 1.350 . S
C1271 C1274 1.463 . S
C1271 C1276 1.350 . S
C1271 N1279 1.427 . S
C1272 H1263 0.930 . S
C1272 C1270 1.378 . S
C1272 C1273 1.367 . S
C1273 C1272 1.367 . S
C1273 C1275 1.433 . S
C1274 C1270 1.350 . S
C1274 C1271 1.463 . S
C1274 N1278 1.427 . S
C1275 H1265 0.929 . S
C1275 C1273 1.433 . S
C1275 N1278 1.384 . S
C1276 H1267 0.929 . S
C1276 C1268 1.378 . S
C1276 C1271 1.350 . S
C1277 H1264 0.929 . S
C1277 C1269 1.433 . S
C1277 N1279 1.384 . S
N1278 C1274 1.427 . S
N1278 C1275 1.384 . S
N1279 C1271 1.427 . S
N1279 C1277 1.384 . S
H1280 C1286 0.930 1_556 S
H1281 C1290 0.930 1_554 S
H1282 C1295 0.929 1_545 S
H1283 C1293 0.929 1_565 S
H1284 C1288 0.929 . S
H1285 C1294 0.929 . S
C1286 H1280 0.930 1_554 S
C1286 C1287 1.367 . S
C1286 C1294 1.378 1_554 S
C1287 C1286 1.367 . S
C1287 C1295 1.433 . S
C1288 H1284 0.929 . S
C1288 C1290 1.378 1_554 S
C1288 C1292 1.350 1_554 S
C1289 C1292 1.463 1_564 S
C1289 C1294 1.350 1_554 S
C1289 N1297 1.427 1_565 S
C1290 H1281 0.930 1_556 S
C1290 C1288 1.378 1_556 S
C1290 C1291 1.367 . S
C1291 C1290 1.367 . S
C1291 C1293 1.433 . S
C1292 C1288 1.350 1_556 S
C1292 C1289 1.463 1_546 S
C1292 N1296 1.427 1_545 S
C1293 H1283 0.929 1_545 S
C1293 C1291 1.433 . S
C1293 N1296 1.384 1_545 S
C1294 H1285 0.929 . S
C1294 C1286 1.378 1_556 S
C1294 C1289 1.350 1_556 S
C1295 H1282 0.929 1_565 S
C1295 C1287 1.433 . S
C1295 N1297 1.384 1_565 S
N1296 C1292 1.427 1_565 S
N1296 C1293 1.384 1_565 S
N1297 C1289 1.427 1_545 S
N1297 C1295 1.384 1_545 S
H1298 C1304 0.930 . S
H1299 C1308 0.930 . S
H1300 C1313 0.929 . S
H1301 C1311 0.929 . S
H1302 C1306 0.929 . S
H1303 C1312 0.929 . S
C1304 H1298 0.930 . S
C1304 C1305 1.367 . S
C1304 C1312 1.378 . S
C1305 C1304 1.367 . S
C1305 C1313 1.433 1_556 S
C1306 H1302 0.929 . S
C1306 C1308 1.378 . S
C1306 C1310 1.350 . S
C1307 C1310 1.463 1_556 S
C1307 C1312 1.350 . S
C1307 N1315 1.427 1_556 S
C1308 H1299 0.930 . S
C1308 C1306 1.378 . S
C1308 C1309 1.367 . S
C1309 C1308 1.367 . S
C1309 C1311 1.433 1_554 S
C1310 C1306 1.350 . S
C1310 C1307 1.463 1_554 S
C1310 N1314 1.427 1_554 S
C1311 H1301 0.929 . S
C1311 C1309 1.433 1_556 S
C1311 N1314 1.384 . S
C1312 H1303 0.929 . S
C1312 C1304 1.378 . S
C1312 C1307 1.350 . S
C1313 H1300 0.929 . S
C1313 C1305 1.433 1_554 S
C1313 N1315 1.384 . S
N1314 C1310 1.427 1_556 S
N1314 C1311 1.384 . S
N1315 C1307 1.427 1_554 S
N1315 C1313 1.384 . S
H1316 C1322 0.930 . S
H1317 C1326 0.930 . S
H1318 C1331 0.929 . S
H1319 C1329 0.929 . S
H1320 C1324 0.929 . S
H1321 C1330 0.929 . S
C1322 H1316 0.930 . S
C1322 C1323 1.367 . S
C1322 C1330 1.378 . S
C1323 C1322 1.367 . S
C1323 C1331 1.433 . S
C1324 H1320 0.929 . S
C1324 C1326 1.378 . S
C1324 C1328 1.350 . S
C1325 C1328 1.463 . S
C1325 C1330 1.350 . S
C1325 N1333 1.427 . S
C1326 H1317 0.930 . S
C1326 C1324 1.378 . S
C1326 C1327 1.367 . S
C1327 C1326 1.367 . S
C1327 C1329 1.433 . S
C1328 C1324 1.350 . S
C1328 C1325 1.463 . S
C1328 N1332 1.427 . S
C1329 H1319 0.929 . S
C1329 C1327 1.433 . S
C1329 N1332 1.384 . S
C1330 H1321 0.929 . S
C1330 C1322 1.378 . S
C1330 C1325 1.350 . S
C1331 H1318 0.929 . S
C1331 C1323 1.433 . S
C1331 N1333 1.384 . S
N1332 C1328 1.427 . S
N1332 C1329 1.384 . S
N1333 C1325 1.427 . S
N1333 C1331 1.384 . S
H1334 C1340 0.930 . S
H1335 C1344 0.930 . S
H1336 C1349 0.929 . S
H1337 C1347 0.929 . S
H1338 C1342 0.929 . S
H1339 C1348 0.929 . S
C1340 H1334 0.930 . S
C1340 C1341 1.367 . S
C1340 C1348 1.378 1_565 S
C1341 C1340 1.367 . S
C1341 C1349 1.433 . S
C1342 H1338 0.929 . S
C1342 C1344 1.378 1_565 S
C1342 C1346 1.350 1_565 S
C1343 C1346 1.463 1_565 S
C1343 C1348 1.350 1_565 S
C1343 N1351 1.427 . S
C1344 H1335 0.930 . S
C1344 C1342 1.378 1_545 S
C1344 C1345 1.367 . S
C1345 C1344 1.367 . S
C1345 C1347 1.433 . S
C1346 C1342 1.350 1_545 S
C1346 C1343 1.463 1_545 S
C1346 N1350 1.427 . S
C1347 H1337 0.929 . S
C1347 C1345 1.433 . S
C1347 N1350 1.384 . S
C1348 H1339 0.929 . S
C1348 C1340 1.378 1_545 S
C1348 C1343 1.350 1_545 S
C1349 H1336 0.929 . S
C1349 C1341 1.433 . S
C1349 N1351 1.384 . S
N1350 C1346 1.427 . S
N1350 C1347 1.384 . S
N1351 C1343 1.427 . S
N1351 C1349 1.384 . S
H1352 C1358 0.930 . S
H1353 C1362 0.930 . S
H1354 C1367 0.929 . S
H1355 C1365 0.929 . S
H1356 C1360 0.929 1_554 S
H1357 C1366 0.929 1_556 S
C1358 H1352 0.930 . S
C1358 C1359 1.367 . S
C1358 C1366 1.378 . S
C1359 C1358 1.367 . S
C1359 C1367 1.433 . S
C1360 H1356 0.929 1_556 S
C1360 C1362 1.378 . S
C1360 C1364 1.350 . S
C1361 C1364 1.463 1_554 S
C1361 C1366 1.350 . S
C1361 N1369 1.427 . S
C1362 H1353 0.930 . S
C1362 C1360 1.378 . S
C1362 C1363 1.367 . S
C1363 C1362 1.367 . S
C1363 C1365 1.433 . S
C1364 C1360 1.350 . S
C1364 C1361 1.463 1_556 S
C1364 N1368 1.427 . S
C1365 H1355 0.929 . S
C1365 C1363 1.433 . S
C1365 N1368 1.384 . S
C1366 H1357 0.929 1_554 S
C1366 C1358 1.378 . S
C1366 C1361 1.350 . S
C1367 H1354 0.929 . S
C1367 C1359 1.433 . S
C1367 N1369 1.384 . S
N1368 C1364 1.427 . S
N1368 C1365 1.384 . S
N1369 C1361 1.427 . S
N1369 C1367 1.384 . S
H1370 C1376 0.930 . S
H1371 C1380 0.930 . S
H1372 C1385 0.929 . S
H1373 C1383 0.929 . S
H1374 C1378 0.929 . S
H1375 C1384 0.929 . S
C1376 H1370 0.930 . S
C1376 C1377 1.367 . S
C1376 C1384 1.378 . S
C1377 C1376 1.367 . S
C1377 C1385 1.433 . S
C1378 H1374 0.929 . S
C1378 C1380 1.378 . S
C1378 C1382 1.350 . S
C1379 C1382 1.463 . S
C1379 C1384 1.350 . S
C1379 N1387 1.427 . S
C1380 H1371 0.930 . S
C1380 C1378 1.378 . S
C1380 C1381 1.367 . S
C1381 C1380 1.367 . S
C1381 C1383 1.433 . S
C1382 C1378 1.350 . S
C1382 C1379 1.463 . S
C1382 N1386 1.427 . S
C1383 H1373 0.929 . S
C1383 C1381 1.433 . S
C1383 N1386 1.384 . S
C1384 H1375 0.929 . S
C1384 C1376 1.378 . S
C1384 C1379 1.350 . S
C1385 H1372 0.929 . S
C1385 C1377 1.433 . S
C1385 N1387 1.384 . S
N1386 C1382 1.427 . S
N1386 C1383 1.384 . S
N1387 C1379 1.427 . S
N1387 C1385 1.384 . S
H1388 C1394 0.930 . S
H1389 C1398 0.930 . S
H1390 C1403 0.929 . S
H1391 C1401 0.929 . S
H1392 C1396 0.929 . S
H1393 C1402 0.929 . S
C1394 H1388 0.930 . S
C1394 C1395 1.367 . S
C1394 C1402 1.378 . S
C1395 C1394 1.367 . S
C1395 C1403 1.433 . S
C1396 H1392 0.929 . S
C1396 C1398 1.378 . S
C1396 C1400 1.350 . S
C1397 C1400 1.463 1_545 S
C1397 C1402 1.350 . S
C1397 N1405 1.427 1_545 S
C1398 H1389 0.930 . S
C1398 C1396 1.378 . S
C1398 C1399 1.367 . S
C1399 C1398 1.367 . S
C1399 C1401 1.433 . S
C1400 C1396 1.350 . S
C1400 C1397 1.463 1_565 S
C1400 N1404 1.427 1_565 S
C1401 H1391 0.929 . S
C1401 C1399 1.433 . S
C1401 N1404 1.384 1_565 S
C1402 H1393 0.929 . S
C1402 C1394 1.378 . S
C1402 C1397 1.350 . S
C1403 H1390 0.929 . S
C1403 C1395 1.433 . S
C1403 N1405 1.384 1_545 S
N1404 C1400 1.427 1_545 S
N1404 C1401 1.384 1_545 S
N1405 C1397 1.427 1_565 S
N1405 C1403 1.384 1_565 S
H1406 C1412 0.930 . S
H1407 C1416 0.930 . S
H1408 C1421 0.929 . S
H1409 C1419 0.929 . S
H1410 C1414 0.929 . S
H1411 C1420 0.929 . S
C1412 H1406 0.930 . S
C1412 C1413 1.367 . S
C1412 C1420 1.378 . S
C1413 C1412 1.367 . S
C1413 C1421 1.433 . S
C1414 H1410 0.929 . S
C1414 C1416 1.378 . S
C1414 C1418 1.350 . S
C1415 C1418 1.463 . S
C1415 C1420 1.350 . S
C1415 N1423 1.427 . S
C1416 H1407 0.930 . S
C1416 C1414 1.378 . S
C1416 C1417 1.367 . S
C1417 C1416 1.367 . S
C1417 C1419 1.433 . S
C1418 C1414 1.350 . S
C1418 C1415 1.463 . S
C1418 N1422 1.427 . S
C1419 H1409 0.929 . S
C1419 C1417 1.433 . S
C1419 N1422 1.384 . S
C1420 H1411 0.929 . S
C1420 C1412 1.378 . S
C1420 C1415 1.350 . S
C1421 H1408 0.929 . S
C1421 C1413 1.433 . S
C1421 N1423 1.384 . S
N1422 C1418 1.427 . S
N1422 C1419 1.384 . S
N1423 C1415 1.427 . S
N1423 C1421 1.384 . S
H1424 C1430 0.930 . S
H1425 C1434 0.930 . S
H1426 C1439 0.929 . S
H1427 C1437 0.929 . S
H1428 C1432 0.929 . S
H1429 C1438 0.929 . S
C1430 H1424 0.930 . S
C1430 C1431 1.367 . S
C1430 C1438 1.378 . S
C1431 C1430 1.367 . S
C1431 C1439 1.433 . S
C1432 H1428 0.929 . S
C1432 C1434 1.378 . S
C1432 C1436 1.350 . S
C1433 C1436 1.463 . S
C1433 C1438 1.350 . S
C1433 N1441 1.427 . S
C1434 H1425 0.930 . S
C1434 C1432 1.378 . S
C1434 C1435 1.367 . S
C1435 C1434 1.367 . S
C1435 C1437 1.433 . S
C1436 C1432 1.350 . S
C1436 C1433 1.463 . S
C1436 N1440 1.427 . S
C1437 H1427 0.929 . S
C1437 C1435 1.433 . S
C1437 N1440 1.384 . S
C1438 H1429 0.929 . S
C1438 C1430 1.378 . S
C1438 C1433 1.350 . S
C1439 H1426 0.929 . S
C1439 C1431 1.433 . S
C1439 N1441 1.384 . S
N1440 C1436 1.427 . S
N1440 C1437 1.384 . S
N1441 C1433 1.427 . S
N1441 C1439 1.384 . S
H1442 C1448 0.930 . S
H1443 C1452 0.930 . S
H1444 C1457 0.929 . S
H1445 C1455 0.929 . S
H1446 C1450 0.929 . S
H1447 C1456 0.929 . S
C1448 H1442 0.930 . S
C1448 C1449 1.367 . S
C1448 C1456 1.378 . S
C1449 C1448 1.367 . S
C1449 C1457 1.433 . S
C1450 H1446 0.929 . S
C1450 C1452 1.378 . S
C1450 C1454 1.350 . S
C1451 C1454 1.463 . S
C1451 C1456 1.350 . S
C1451 N1459 1.427 . S
C1452 H1443 0.930 . S
C1452 C1450 1.378 . S
C1452 C1453 1.367 . S
C1453 C1452 1.367 . S
C1453 C1455 1.433 . S
C1454 C1450 1.350 . S
C1454 C1451 1.463 . S
C1454 N1458 1.427 . S
C1455 H1445 0.929 . S
C1455 C1453 1.433 . S
C1455 N1458 1.384 . S
C1456 H1447 0.929 . S
C1456 C1448 1.378 . S
C1456 C1451 1.350 . S
C1457 H1444 0.929 . S
C1457 C1449 1.433 . S
C1457 N1459 1.384 . S
N1458 C1454 1.427 . S
N1458 C1455 1.384 . S
N1459 C1451 1.427 . S
N1459 C1457 1.384 . S
H1460 C1466 0.930 . S
H1461 C1470 0.930 . S
H1462 C1475 0.929 . S
H1463 C1473 0.929 . S
H1464 C1468 0.929 . S
H1465 C1474 0.929 . S
C1466 H1460 0.930 . S
C1466 C1467 1.367 . S
C1466 C1474 1.378 . S
C1467 C1466 1.367 . S
C1467 C1475 1.433 . S
C1468 H1464 0.929 . S
C1468 C1470 1.378 . S
C1468 C1472 1.350 . S
C1469 C1472 1.463 . S
C1469 C1474 1.350 . S
C1469 N1477 1.427 . S
C1470 H1461 0.930 . S
C1470 C1468 1.378 . S
C1470 C1471 1.367 . S
C1471 C1470 1.367 . S
C1471 C1473 1.433 . S
C1472 C1468 1.350 . S
C1472 C1469 1.463 . S
C1472 N1476 1.427 . S
C1473 H1463 0.929 . S
C1473 C1471 1.433 . S
C1473 N1476 1.384 . S
C1474 H1465 0.929 . S
C1474 C1466 1.378 . S
C1474 C1469 1.350 . S
C1475 H1462 0.929 . S
C1475 C1467 1.433 . S
C1475 N1477 1.384 . S
N1476 C1472 1.427 . S
N1476 C1473 1.384 . S
N1477 C1469 1.427 . S
N1477 C1475 1.384 . S
H1478 C1484 0.930 . S
H1479 C1488 0.930 . S
H1480 C1493 0.929 . S
H1481 C1491 0.929 . S
H1482 C1486 0.929 . S
H1483 C1492 0.929 . S
C1484 H1478 0.930 . S
C1484 C1485 1.367 . S
C1484 C1492 1.378 . S
C1485 C1484 1.367 . S
C1485 C1493 1.433 . S
C1486 H1482 0.929 . S
C1486 C1488 1.378 . S
C1486 C1490 1.350 . S
C1487 C1490 1.463 . S
C1487 C1492 1.350 . S
C1487 N1495 1.427 . S
C1488 H1479 0.930 . S
C1488 C1486 1.378 . S
C1488 C1489 1.367 . S
C1489 C1488 1.367 . S
C1489 C1491 1.433 . S
C1490 C1486 1.350 . S
C1490 C1487 1.463 . S
C1490 N1494 1.427 . S
C1491 H1481 0.929 . S
C1491 C1489 1.433 . S
C1491 N1494 1.384 . S
C1492 H1483 0.929 . S
C1492 C1484 1.378 . S
C1492 C1487 1.350 . S
C1493 H1480 0.929 . S
C1493 C1485 1.433 . S
C1493 N1495 1.384 . S
N1494 C1490 1.427 . S
N1494 C1491 1.384 . S
N1495 C1487 1.427 . S
N1495 C1493 1.384 . S
H1496 C1502 0.930 . S
H1497 C1506 0.930 . S
H1498 C1511 0.929 . S
H1499 C1509 0.929 . S
H1500 C1504 0.929 1_565 S
H1501 C1510 0.929 1_545 S
C1502 H1496 0.930 . S
C1502 C1503 1.367 . S
C1502 C1510 1.378 . S
C1503 C1502 1.367 . S
C1503 C1511 1.433 . S
C1504 H1500 0.929 1_545 S
C1504 C1506 1.378 . S
C1504 C1508 1.350 . S
C1505 C1508 1.463 1_465 S
C1505 C1510 1.350 . S
C1505 N1513 1.427 . S
C1506 H1497 0.930 . S
C1506 C1504 1.378 . S
C1506 C1507 1.367 . S
C1507 C1506 1.367 . S
C1507 C1509 1.433 . S
C1508 C1504 1.350 . S
C1508 C1505 1.463 1_645 S
C1508 N1512 1.427 . S
C1509 H1499 0.929 . S
C1509 C1507 1.433 . S
C1509 N1512 1.384 . S
C1510 H1501 0.929 1_565 S
C1510 C1502 1.378 . S
C1510 C1505 1.350 . S
C1511 H1498 0.929 . S
C1511 C1503 1.433 . S
C1511 N1513 1.384 . S
N1512 C1508 1.427 . S
N1512 C1509 1.384 . S
N1513 C1505 1.427 . S
N1513 C1511 1.384 . S
H1514 C1520 0.930 . S
H1515 C1524 0.930 . S
H1516 C1529 0.929 . S
H1517 C1527 0.929 . S
H1518 C1522 0.929 . S
H1519 C1528 0.929 . S
C1520 H1514 0.930 . S
C1520 C1521 1.367 . S
C1520 C1528 1.378 . S
C1521 C1520 1.367 . S
C1521 C1529 1.433 . S
C1522 H1518 0.929 . S
C1522 C1524 1.378 . S
C1522 C1526 1.350 . S
C1523 C1526 1.463 1_455 S
C1523 C1528 1.350 . S
C1523 N1531 1.427 . S
C1524 H1515 0.930 . S
C1524 C1522 1.378 . S
C1524 C1525 1.367 . S
C1525 C1524 1.367 . S
C1525 C1527 1.433 . S
C1526 C1522 1.350 . S
C1526 C1523 1.463 1_655 S
C1526 N1530 1.427 . S
C1527 H1517 0.929 . S
C1527 C1525 1.433 . S
C1527 N1530 1.384 . S
C1528 H1519 0.929 . S
C1528 C1520 1.378 . S
C1528 C1523 1.350 . S
C1529 H1516 0.929 . S
C1529 C1521 1.433 . S
C1529 N1531 1.384 . S
N1530 C1526 1.427 . S
N1530 C1527 1.384 . S
N1531 C1523 1.427 . S
N1531 C1529 1.384 . S
H1532 C1538 0.930 . S
H1533 C1542 0.930 . S
H1534 C1547 0.929 . S
H1535 C1545 0.929 . S
H1536 C1540 0.929 . S
H1537 C1546 0.929 . S
C1538 H1532 0.930 . S
C1538 C1539 1.367 . S
C1538 C1546 1.378 . S
C1539 C1538 1.367 . S
C1539 C1547 1.433 . S
C1540 H1536 0.929 . S
C1540 C1542 1.378 . S
C1540 C1544 1.350 . S
C1541 C1544 1.463 1_655 S
C1541 C1546 1.350 . S
C1541 N1549 1.427 . S
C1542 H1533 0.930 . S
C1542 C1540 1.378 . S
C1542 C1543 1.367 . S
C1543 C1542 1.367 . S
C1543 C1545 1.433 . S
C1544 C1540 1.350 . S
C1544 C1541 1.463 1_455 S
C1544 N1548 1.427 . S
C1545 H1535 0.929 . S
C1545 C1543 1.433 . S
C1545 N1548 1.384 . S
C1546 H1537 0.929 . S
C1546 C1538 1.378 . S
C1546 C1541 1.350 . S
C1547 H1534 0.929 . S
C1547 C1539 1.433 . S
C1547 N1549 1.384 . S
N1548 C1544 1.427 . S
N1548 C1545 1.384 . S
N1549 C1541 1.427 . S
N1549 C1547 1.384 . S
H1550 C1556 0.930 . S
H1551 C1560 0.930 . S
H1552 C1565 0.929 . S
H1553 C1563 0.929 . S
H1554 C1558 0.929 . S
H1555 C1564 0.929 . S
C1556 H1550 0.930 . S
C1556 C1557 1.367 1_554 S
C1556 C1564 1.378 . S
C1557 C1556 1.367 1_556 S
C1557 C1565 1.433 . S
C1558 H1554 0.929 . S
C1558 C1560 1.378 . S
C1558 C1562 1.350 1_556 S
C1559 C1562 1.463 1_656 S
C1559 C1564 1.350 1_556 S
C1559 N1567 1.427 . S
C1560 H1551 0.930 . S
C1560 C1558 1.378 . S
C1560 C1561 1.367 1_556 S
C1561 C1560 1.367 1_554 S
C1561 C1563 1.433 . S
C1562 C1558 1.350 1_554 S
C1562 C1559 1.463 1_454 S
C1562 N1566 1.427 . S
C1563 H1553 0.929 . S
C1563 C1561 1.433 . S
C1563 N1566 1.384 . S
C1564 H1555 0.929 . S
C1564 C1556 1.378 . S
C1564 C1559 1.350 1_554 S
C1565 H1552 0.929 . S
C1565 C1557 1.433 . S
C1565 N1567 1.384 . S
N1566 C1562 1.427 . S
N1566 C1563 1.384 . S
N1567 C1559 1.427 . S
N1567 C1565 1.384 . S
H1568 C1574 0.930 . S
H1569 C1578 0.930 . S
H1570 C1583 0.929 . S
H1571 C1581 0.929 . S
H1572 C1576 0.929 . S
H1573 C1582 0.929 . S
C1574 H1568 0.930 . S
C1574 C1575 1.367 . S
C1574 C1582 1.378 . S
C1575 C1574 1.367 . S
C1575 C1583 1.433 . S
C1576 H1572 0.929 . S
C1576 C1578 1.378 . S
C1576 C1580 1.350 . S
C1577 C1580 1.463 . S
C1577 C1582 1.350 . S
C1577 N1585 1.427 . S
C1578 H1569 0.930 . S
C1578 C1576 1.378 . S
C1578 C1579 1.367 . S
C1579 C1578 1.367 . S
C1579 C1581 1.433 . S
C1580 C1576 1.350 . S
C1580 C1577 1.463 . S
C1580 N1584 1.427 . S
C1581 H1571 0.929 . S
C1581 C1579 1.433 . S
C1581 N1584 1.384 . S
C1582 H1573 0.929 . S
C1582 C1574 1.378 . S
C1582 C1577 1.350 . S
C1583 H1570 0.929 . S
C1583 C1575 1.433 . S
C1583 N1585 1.384 . S
N1584 C1580 1.427 . S
N1584 C1581 1.384 . S
N1585 C1577 1.427 . S
N1585 C1583 1.384 . S
H1586 C1592 0.930 . S
H1587 C1596 0.930 . S
H1588 C1601 0.929 . S
H1589 C1599 0.929 . S
H1590 C1594 0.929 . S
H1591 C1600 0.929 . S
C1592 H1586 0.930 . S
C1592 C1593 1.367 . S
C1592 C1600 1.378 . S
C1593 C1592 1.367 . S
C1593 C1601 1.433 . S
C1594 H1590 0.929 . S
C1594 C1596 1.378 . S
C1594 C1598 1.350 . S
C1595 C1598 1.463 . S
C1595 C1600 1.350 . S
C1595 N1603 1.427 . S
C1596 H1587 0.930 . S
C1596 C1594 1.378 . S
C1596 C1597 1.367 . S
C1597 C1596 1.367 . S
C1597 C1599 1.433 . S
C1598 C1594 1.350 . S
C1598 C1595 1.463 . S
C1598 N1602 1.427 . S
C1599 H1589 0.929 . S
C1599 C1597 1.433 . S
C1599 N1602 1.384 . S
C1600 H1591 0.929 . S
C1600 C1592 1.378 . S
C1600 C1595 1.350 . S
C1601 H1588 0.929 . S
C1601 C1593 1.433 . S
C1601 N1603 1.384 . S
N1602 C1598 1.427 . S
N1602 C1599 1.384 . S
N1603 C1595 1.427 . S
N1603 C1601 1.384 . S
H1604 C1610 0.930 . S
H1605 C1614 0.930 . S
H1606 C1619 0.929 . S
H1607 C1617 0.929 . S
H1608 C1612 0.929 . S
H1609 C1618 0.929 . S
C1610 H1604 0.930 . S
C1610 C1611 1.367 . S
C1610 C1618 1.378 . S
C1611 C1610 1.367 . S
C1611 C1619 1.433 . S
C1612 H1608 0.929 . S
C1612 C1614 1.378 . S
C1612 C1616 1.350 . S
C1613 C1616 1.463 . S
C1613 C1618 1.350 . S
C1613 N1621 1.427 . S
C1614 H1605 0.930 . S
C1614 C1612 1.378 . S
C1614 C1615 1.367 . S
C1615 C1614 1.367 . S
C1615 C1617 1.433 . S
C1616 C1612 1.350 . S
C1616 C1613 1.463 . S
C1616 N1620 1.427 . S
C1617 H1607 0.929 . S
C1617 C1615 1.433 . S
C1617 N1620 1.384 . S
C1618 H1609 0.929 . S
C1618 C1610 1.378 . S
C1618 C1613 1.350 . S
C1619 H1606 0.929 . S
C1619 C1611 1.433 . S
C1619 N1621 1.384 . S
N1620 C1616 1.427 . S
N1620 C1617 1.384 . S
N1621 C1613 1.427 . S
N1621 C1619 1.384 . S
H1622 C1628 0.930 . S
H1623 C1632 0.930 . S
H1624 C1637 0.929 . S
H1625 C1635 0.929 . S
H1626 C1630 0.929 . S
H1627 C1636 0.929 . S
C1628 H1622 0.930 . S
C1628 C1629 1.367 . S
C1628 C1636 1.378 . S
C1629 C1628 1.367 . S
C1629 C1637 1.433 . S
C1630 H1626 0.929 . S
C1630 C1632 1.378 . S
C1630 C1634 1.350 . S
C1631 C1634 1.463 . S
C1631 C1636 1.350 . S
C1631 N1639 1.427 . S
C1632 H1623 0.930 . S
C1632 C1630 1.378 . S
C1632 C1633 1.367 . S
C1633 C1632 1.367 . S
C1633 C1635 1.433 . S
C1634 C1630 1.350 . S
C1634 C1631 1.463 . S
C1634 N1638 1.427 . S
C1635 H1625 0.929 . S
C1635 C1633 1.433 . S
C1635 N1638 1.384 . S
C1636 H1627 0.929 . S
C1636 C1628 1.378 . S
C1636 C1631 1.350 . S
C1637 H1624 0.929 . S
C1637 C1629 1.433 . S
C1637 N1639 1.384 . S
N1638 C1634 1.427 . S
N1638 C1635 1.384 . S
N1639 C1631 1.427 . S
N1639 C1637 1.384 . S
H1640 C1646 0.930 . S
H1641 C1650 0.930 . S
H1642 C1655 0.929 . S
H1643 C1653 0.929 . S
H1644 C1648 0.929 . S
H1645 C1654 0.929 . S
C1646 H1640 0.930 . S
C1646 C1647 1.367 . S
C1646 C1654 1.378 . S
C1647 C1646 1.367 . S
C1647 C1655 1.433 . S
C1648 H1644 0.929 . S
C1648 C1650 1.378 . S
C1648 C1652 1.350 . S
C1649 C1652 1.463 . S
C1649 C1654 1.350 . S
C1649 N1657 1.427 . S
C1650 H1641 0.930 . S
C1650 C1648 1.378 . S
C1650 C1651 1.367 . S
C1651 C1650 1.367 . S
C1651 C1653 1.433 . S
C1652 C1648 1.350 . S
C1652 C1649 1.463 . S
C1652 N1656 1.427 . S
C1653 H1643 0.929 . S
C1653 C1651 1.433 . S
C1653 N1656 1.384 . S
C1654 H1645 0.929 . S
C1654 C1646 1.378 . S
C1654 C1649 1.350 . S
C1655 H1642 0.929 . S
C1655 C1647 1.433 . S
C1655 N1657 1.384 . S
N1656 C1652 1.427 . S
N1656 C1653 1.384 . S
N1657 C1649 1.427 . S
N1657 C1655 1.384 . S
H1658 C1664 0.930 . S
H1659 C1668 0.930 . S
H1660 C1673 0.929 . S
H1661 C1671 0.929 . S
H1662 C1666 0.929 . S
H1663 C1672 0.929 . S
C1664 H1658 0.930 . S
C1664 C1665 1.367 . S
C1664 C1672 1.378 . S
C1665 C1664 1.367 . S
C1665 C1673 1.433 . S
C1666 H1662 0.929 . S
C1666 C1668 1.378 . S
C1666 C1670 1.350 . S
C1667 C1670 1.463 . S
C1667 C1672 1.350 . S
C1667 N1675 1.427 . S
C1668 H1659 0.930 . S
C1668 C1666 1.378 . S
C1668 C1669 1.367 . S
C1669 C1668 1.367 . S
C1669 C1671 1.433 . S
C1670 C1666 1.350 . S
C1670 C1667 1.463 . S
C1670 N1674 1.427 . S
C1671 H1661 0.929 . S
C1671 C1669 1.433 . S
C1671 N1674 1.384 . S
C1672 H1663 0.929 . S
C1672 C1664 1.378 . S
C1672 C1667 1.350 . S
C1673 H1660 0.929 . S
C1673 C1665 1.433 . S
C1673 N1675 1.384 . S
N1674 C1670 1.427 . S
N1674 C1671 1.384 . S
N1675 C1667 1.427 . S
N1675 C1673 1.384 . S
H1676 C1682 0.930 . S
H1677 C1686 0.930 . S
H1678 C1691 0.929 . S
H1679 C1689 0.929 . S
H1680 C1684 0.929 . S
H1681 C1690 0.929 . S
C1682 H1676 0.930 . S
C1682 C1683 1.367 . S
C1682 C1690 1.378 . S
C1683 C1682 1.367 . S
C1683 C1691 1.433 . S
C1684 H1680 0.929 . S
C1684 C1686 1.378 . S
C1684 C1688 1.350 . S
C1685 C1688 1.463 . S
C1685 C1690 1.350 . S
C1685 N1693 1.427 . S
C1686 H1677 0.930 . S
C1686 C1684 1.378 . S
C1686 C1687 1.367 . S
C1687 C1686 1.367 . S
C1687 C1689 1.433 . S
C1688 C1684 1.350 . S
C1688 C1685 1.463 . S
C1688 N1692 1.427 . S
C1689 H1679 0.929 . S
C1689 C1687 1.433 . S
C1689 N1692 1.384 . S
C1690 H1681 0.929 . S
C1690 C1682 1.378 . S
C1690 C1685 1.350 . S
C1691 H1678 0.929 . S
C1691 C1683 1.433 . S
C1691 N1693 1.384 . S
N1692 C1688 1.427 . S
N1692 C1689 1.384 . S
N1693 C1685 1.427 . S
N1693 C1691 1.384 . S
H1694 C1700 0.930 . S
H1695 C1704 0.930 . S
H1696 C1709 0.929 . S
H1697 C1707 0.929 . S
H1698 C1702 0.929 . S
H1699 C1708 0.929 . S
C1700 H1694 0.930 . S
C1700 C1701 1.367 . S
C1700 C1708 1.378 . S
C1701 C1700 1.367 . S
C1701 C1709 1.433 . S
C1702 H1698 0.929 . S
C1702 C1704 1.378 . S
C1702 C1706 1.350 . S
C1703 C1706 1.463 . S
C1703 C1708 1.350 . S
C1703 N1711 1.427 . S
C1704 H1695 0.930 . S
C1704 C1702 1.378 . S
C1704 C1705 1.367 . S
C1705 C1704 1.367 . S
C1705 C1707 1.433 . S
C1706 C1702 1.350 . S
C1706 C1703 1.463 . S
C1706 N1710 1.427 . S
C1707 H1697 0.929 . S
C1707 C1705 1.433 . S
C1707 N1710 1.384 . S
C1708 H1699 0.929 . S
C1708 C1700 1.378 . S
C1708 C1703 1.350 . S
C1709 H1696 0.929 . S
C1709 C1701 1.433 . S
C1709 N1711 1.384 . S
N1710 C1706 1.427 . S
N1710 C1707 1.384 . S
N1711 C1703 1.427 . S
N1711 C1709 1.384 . S
H1712 C1718 0.930 . S
H1713 C1722 0.930 . S
H1714 C1727 0.929 . S
H1715 C1725 0.929 . S
H1716 C1720 0.929 . S
H1717 C1726 0.929 . S
C1718 H1712 0.930 . S
C1718 C1719 1.367 . S
C1718 C1726 1.378 . S
C1719 C1718 1.367 . S
C1719 C1727 1.433 . S
C1720 H1716 0.929 . S
C1720 C1722 1.378 . S
C1720 C1724 1.350 . S
C1721 C1724 1.463 . S
C1721 C1726 1.350 . S
C1721 N1729 1.427 . S
C1722 H1713 0.930 . S
C1722 C1720 1.378 . S
C1722 C1723 1.367 . S
C1723 C1722 1.367 . S
C1723 C1725 1.433 . S
C1724 C1720 1.350 . S
C1724 C1721 1.463 . S
C1724 N1728 1.427 . S
C1725 H1715 0.929 . S
C1725 C1723 1.433 . S
C1725 N1728 1.384 . S
C1726 H1717 0.929 . S
C1726 C1718 1.378 . S
C1726 C1721 1.350 . S
C1727 H1714 0.929 . S
C1727 C1719 1.433 . S
C1727 N1729 1.384 . S
N1728 C1724 1.427 . S
N1728 C1725 1.384 . S
N1729 C1721 1.427 . S
N1729 C1727 1.384 . S
H1730 C1736 0.930 . S
H1731 C1740 0.930 . S
H1732 C1745 0.929 . S
H1733 C1743 0.929 . S
H1734 C1738 0.929 . S
H1735 C1744 0.929 . S
C1736 H1730 0.930 . S
C1736 C1737 1.367 . S
C1736 C1744 1.378 . S
C1737 C1736 1.367 . S
C1737 C1745 1.433 . S
C1738 H1734 0.929 . S
C1738 C1740 1.378 . S
C1738 C1742 1.350 . S
C1739 C1742 1.463 . S
C1739 C1744 1.350 . S
C1739 N1747 1.427 . S
C1740 H1731 0.930 . S
C1740 C1738 1.378 . S
C1740 C1741 1.367 . S
C1741 C1740 1.367 . S
C1741 C1743 1.433 . S
C1742 C1738 1.350 . S
C1742 C1739 1.463 . S
C1742 N1746 1.427 . S
C1743 H1733 0.929 . S
C1743 C1741 1.433 . S
C1743 N1746 1.384 . S
C1744 H1735 0.929 . S
C1744 C1736 1.378 . S
C1744 C1739 1.350 . S
C1745 H1732 0.929 . S
C1745 C1737 1.433 . S
C1745 N1747 1.384 . S
N1746 C1742 1.427 . S
N1746 C1743 1.384 . S
N1747 C1739 1.427 . S
N1747 C1745 1.384 . S
H1748 C1754 0.930 . S
H1749 C1758 0.930 . S
H1750 C1763 0.929 . S
H1751 C1761 0.929 . S
H1752 C1756 0.929 . S
H1753 C1762 0.929 . S
C1754 H1748 0.930 . S
C1754 C1755 1.367 . S
C1754 C1762 1.378 . S
C1755 C1754 1.367 . S
C1755 C1763 1.433 . S
C1756 H1752 0.929 . S
C1756 C1758 1.378 . S
C1756 C1760 1.350 . S
C1757 C1760 1.463 . S
C1757 C1762 1.350 . S
C1757 N1765 1.427 . S
C1758 H1749 0.930 . S
C1758 C1756 1.378 . S
C1758 C1759 1.367 . S
C1759 C1758 1.367 . S
C1759 C1761 1.433 . S
C1760 C1756 1.350 . S
C1760 C1757 1.463 . S
C1760 N1764 1.427 . S
C1761 H1751 0.929 . S
C1761 C1759 1.433 . S
C1761 N1764 1.384 . S
C1762 H1753 0.929 . S
C1762 C1754 1.378 . S
C1762 C1757 1.350 . S
C1763 H1750 0.929 . S
C1763 C1755 1.433 . S
C1763 N1765 1.384 . S
N1764 C1760 1.427 . S
N1764 C1761 1.384 . S
N1765 C1757 1.427 . S
N1765 C1763 1.384 . S
H1766 C1772 0.930 . S
H1767 C1776 0.930 . S
H1768 C1781 0.929 . S
H1769 C1779 0.929 . S
H1770 C1774 0.929 . S
H1771 C1780 0.929 . S
C1772 H1766 0.930 . S
C1772 C1773 1.367 . S
C1772 C1780 1.378 . S
C1773 C1772 1.367 . S
C1773 C1781 1.433 . S
C1774 H1770 0.929 . S
C1774 C1776 1.378 . S
C1774 C1778 1.350 . S
C1775 C1778 1.463 . S
C1775 C1780 1.350 . S
C1775 N1783 1.427 . S
C1776 H1767 0.930 . S
C1776 C1774 1.378 . S
C1776 C1777 1.367 . S
C1777 C1776 1.367 . S
C1777 C1779 1.433 . S
C1778 C1774 1.350 . S
C1778 C1775 1.463 . S
C1778 N1782 1.427 . S
C1779 H1769 0.929 . S
C1779 C1777 1.433 . S
C1779 N1782 1.384 . S
C1780 H1771 0.929 . S
C1780 C1772 1.378 . S
C1780 C1775 1.350 . S
C1781 H1768 0.929 . S
C1781 C1773 1.433 . S
C1781 N1783 1.384 . S
N1782 C1778 1.427 . S
N1782 C1779 1.384 . S
N1783 C1775 1.427 . S
N1783 C1781 1.384 . S
H1784 C1790 0.930 . S
H1785 C1794 0.930 . S
H1786 C1799 0.929 . S
H1787 C1797 0.929 . S
H1788 C1792 0.929 . S
H1789 C1798 0.929 . S
C1790 H1784 0.930 . S
C1790 C1791 1.367 . S
C1790 C1798 1.378 . S
C1791 C1790 1.367 . S
C1791 C1799 1.433 . S
C1792 H1788 0.929 . S
C1792 C1794 1.378 . S
C1792 C1796 1.350 . S
C1793 C1796 1.463 . S
C1793 C1798 1.350 . S
C1793 N1801 1.427 . S
C1794 H1785 0.930 . S
C1794 C1792 1.378 . S
C1794 C1795 1.367 . S
C1795 C1794 1.367 . S
C1795 C1797 1.433 . S
C1796 C1792 1.350 . S
C1796 C1793 1.463 . S
C1796 N1800 1.427 . S
C1797 H1787 0.929 . S
C1797 C1795 1.433 . S
C1797 N1800 1.384 . S
C1798 H1789 0.929 . S
C1798 C1790 1.378 . S
C1798 C1793 1.350 . S
C1799 H1786 0.929 . S
C1799 C1791 1.433 . S
C1799 N1801 1.384 . S
N1800 C1796 1.427 . S
N1800 C1797 1.384 . S
N1801 C1793 1.427 . S
N1801 C1799 1.384 . S
H1802 C1808 0.930 . S
H1803 C1812 0.930 . S
H1804 C1817 0.929 . S
H1805 C1815 0.929 . S
H1806 C1810 0.929 . S
H1807 C1816 0.929 . S
C1808 H1802 0.930 . S
C1808 C1809 1.367 . S
C1808 C1816 1.378 . S
C1809 C1808 1.367 . S
C1809 C1817 1.433 . S
C1810 H1806 0.929 . S
C1810 C1812 1.378 . S
C1810 C1814 1.350 . S
C1811 C1814 1.463 . S
C1811 C1816 1.350 . S
C1811 N1819 1.427 . S
C1812 H1803 0.930 . S
C1812 C1810 1.378 . S
C1812 C1813 1.367 . S
C1813 C1812 1.367 . S
C1813 C1815 1.433 . S
C1814 C1810 1.350 . S
C1814 C1811 1.463 . S
C1814 N1818 1.427 . S
C1815 H1805 0.929 . S
C1815 C1813 1.433 . S
C1815 N1818 1.384 . S
C1816 H1807 0.929 . S
C1816 C1808 1.378 . S
C1816 C1811 1.350 . S
C1817 H1804 0.929 . S
C1817 C1809 1.433 . S
C1817 N1819 1.384 . S
N1818 C1814 1.427 . S
N1818 C1815 1.384 . S
N1819 C1811 1.427 . S
N1819 C1817 1.384 . S
H1820 C1826 0.930 . S
H1821 C1830 0.930 . S
H1822 C1835 0.929 . S
H1823 C1833 0.929 . S
H1824 C1828 0.929 . S
H1825 C1834 0.929 . S
C1826 H1820 0.930 . S
C1826 C1827 1.367 . S
C1826 C1834 1.378 . S
C1827 C1826 1.367 . S
C1827 C1835 1.433 . S
C1828 H1824 0.929 . S
C1828 C1830 1.378 . S
C1828 C1832 1.350 . S
C1829 C1832 1.463 . S
C1829 C1834 1.350 . S
C1829 N1837 1.427 . S
C1830 H1821 0.930 . S
C1830 C1828 1.378 . S
C1830 C1831 1.367 . S
C1831 C1830 1.367 . S
C1831 C1833 1.433 . S
C1832 C1828 1.350 . S
C1832 C1829 1.463 . S
C1832 N1836 1.427 . S
C1833 H1823 0.929 . S
C1833 C1831 1.433 . S
C1833 N1836 1.384 . S
C1834 H1825 0.929 . S
C1834 C1826 1.378 . S
C1834 C1829 1.350 . S
C1835 H1822 0.929 . S
C1835 C1827 1.433 . S
C1835 N1837 1.384 . S
N1836 C1832 1.427 . S
N1836 C1833 1.384 . S
N1837 C1829 1.427 . S
N1837 C1835 1.384 . S
H1838 C1844 0.930 . S
H1839 C1848 0.930 . S
H1840 C1853 0.929 . S
H1841 C1851 0.929 . S
H1842 C1846 0.929 . S
H1843 C1852 0.929 . S
C1844 H1838 0.930 . S
C1844 C1845 1.367 . S
C1844 C1852 1.378 . S
C1845 C1844 1.367 . S
C1845 C1853 1.433 . S
C1846 H1842 0.929 . S
C1846 C1848 1.378 . S
C1846 C1850 1.350 . S
C1847 C1850 1.463 . S
C1847 C1852 1.350 . S
C1847 N1855 1.427 . S
C1848 H1839 0.930 . S
C1848 C1846 1.378 . S
C1848 C1849 1.367 . S
C1849 C1848 1.367 . S
C1849 C1851 1.433 . S
C1850 C1846 1.350 . S
C1850 C1847 1.463 . S
C1850 N1854 1.427 . S
C1851 H1841 0.929 . S
C1851 C1849 1.433 . S
C1851 N1854 1.384 . S
C1852 H1843 0.929 . S
C1852 C1844 1.378 . S
C1852 C1847 1.350 . S
C1853 H1840 0.929 . S
C1853 C1845 1.433 . S
C1853 N1855 1.384 . S
N1854 C1850 1.427 . S
N1854 C1851 1.384 . S
N1855 C1847 1.427 . S
N1855 C1853 1.384 . S
H1856 C1862 0.930 . S
H1857 C1866 0.930 . S
H1858 C1871 0.929 . S
H1859 C1869 0.929 . S
H1860 C1864 0.929 . S
H1861 C1870 0.929 . S
C1862 H1856 0.930 . S
C1862 C1863 1.367 1_554 S
C1862 C1870 1.378 . S
C1863 C1862 1.367 1_556 S
C1863 C1871 1.433 . S
C1864 H1860 0.929 . S
C1864 C1866 1.378 . S
C1864 C1868 1.350 . S
C1865 C1868 1.463 . S
C1865 C1870 1.350 1_546 S
C1865 N1873 1.427 . S
C1866 H1857 0.930 . S
C1866 C1864 1.378 . S
C1866 C1867 1.367 . S
C1867 C1866 1.367 . S
C1867 C1869 1.433 1_556 S
C1868 C1864 1.350 . S
C1868 C1865 1.463 . S
C1868 N1872 1.427 1_556 S
C1869 H1859 0.929 . S
C1869 C1867 1.433 1_554 S
C1869 N1872 1.384 . S
C1870 H1861 0.929 . S
C1870 C1862 1.378 . S
C1870 C1865 1.350 1_564 S
C1871 H1858 0.929 . S
C1871 C1863 1.433 . S
C1871 N1873 1.384 1_565 S
N1872 C1868 1.427 1_554 S
N1872 C1869 1.384 . S
N1873 C1865 1.427 . S
N1873 C1871 1.384 1_545 S
H1874 C1880 0.930 . S
H1875 C1884 0.930 . S
H1876 C1889 0.929 . S
H1877 C1887 0.929 . S
H1878 C1882 0.929 . S
H1879 C1888 0.929 . S
C1880 H1874 0.930 . S
C1880 C1881 1.367 1_554 S
C1880 C1888 1.378 . S
C1881 C1880 1.367 1_556 S
C1881 C1889 1.433 . S
C1882 H1878 0.929 . S
C1882 C1884 1.378 . S
C1882 C1886 1.350 1_655 S
C1883 C1886 1.463 . S
C1883 C1888 1.350 1_556 S
C1883 N1891 1.427 . S
C1884 H1875 0.930 . S
C1884 C1882 1.378 . S
C1884 C1885 1.367 . S
C1885 C1884 1.367 . S
C1885 C1887 1.433 1_556 S
C1886 C1882 1.350 1_455 S
C1886 C1883 1.463 . S
C1886 N1890 1.427 1_456 S
C1887 H1877 0.929 . S
C1887 C1885 1.433 1_554 S
C1887 N1890 1.384 . S
C1888 H1879 0.929 . S
C1888 C1880 1.378 . S
C1888 C1883 1.350 1_554 S
C1889 H1876 0.929 . S
C1889 C1881 1.433 . S
C1889 N1891 1.384 . S
N1890 C1886 1.427 1_654 S
N1890 C1887 1.384 . S
N1891 C1883 1.427 . S
N1891 C1889 1.384 . S
H1892 C1898 0.930 . S
H1893 C1902 0.930 . S
H1894 C1907 0.929 . S
H1895 C1905 0.929 . S
H1896 C1900 0.929 . S
H1897 C1906 0.929 . S
C1898 H1892 0.930 . S
C1898 C1899 1.367 . S
C1898 C1906 1.378 . S
C1899 C1898 1.367 . S
C1899 C1907 1.433 . S
C1900 H1896 0.929 . S
C1900 C1902 1.378 . S
C1900 C1904 1.350 . S
C1901 C1904 1.463 . S
C1901 C1906 1.350 . S
C1901 N1909 1.427 . S
C1902 H1893 0.930 . S
C1902 C1900 1.378 . S
C1902 C1903 1.367 . S
C1903 C1902 1.367 . S
C1903 C1905 1.433 . S
C1904 C1900 1.350 . S
C1904 C1901 1.463 . S
C1904 N1908 1.427 . S
C1905 H1895 0.929 . S
C1905 C1903 1.433 . S
C1905 N1908 1.384 . S
C1906 H1897 0.929 . S
C1906 C1898 1.378 . S
C1906 C1901 1.350 . S
C1907 H1894 0.929 . S
C1907 C1899 1.433 . S
C1907 N1909 1.384 . S
N1908 C1904 1.427 . S
N1908 C1905 1.384 . S
N1909 C1901 1.427 . S
N1909 C1907 1.384 . S
H1910 C1916 0.930 . S
H1911 C1920 0.930 . S
H1912 C1925 0.929 . S
H1913 C1923 0.929 . S
H1914 C1918 0.929 . S
H1915 C1924 0.929 . S
C1916 H1910 0.930 . S
C1916 C1917 1.367 . S
C1916 C1924 1.378 1_655 S
C1917 C1916 1.367 . S
C1917 C1925 1.433 . S
C1918 H1914 0.929 . S
C1918 C1920 1.378 . S
C1918 C1922 1.350 1_565 S
C1919 C1922 1.463 . S
C1919 C1924 1.350 . S
C1919 N1927 1.427 1_455 S
C1920 H1911 0.930 . S
C1920 C1918 1.378 . S
C1920 C1921 1.367 . S
C1921 C1920 1.367 . S
C1921 C1923 1.433 . S
C1922 C1918 1.350 1_545 S
C1922 C1919 1.463 . S
C1922 N1926 1.427 . S
C1923 H1913 0.929 . S
C1923 C1921 1.433 . S
C1923 N1926 1.384 1_565 S
C1924 H1915 0.929 . S
C1924 C1916 1.378 1_455 S
C1924 C1919 1.350 . S
C1925 H1912 0.929 . S
C1925 C1917 1.433 . S
C1925 N1927 1.384 . S
N1926 C1922 1.427 . S
N1926 C1923 1.384 1_545 S
N1927 C1919 1.427 1_655 S
N1927 C1925 1.384 . S
H1928 C1934 0.930 . S
H1929 C1938 0.930 . S
H1930 C1943 0.929 . S
H1931 C1941 0.933 . S
H1932 C1936 0.929 . S
H1933 C1942 0.929 1_545 S
C1934 H1928 0.930 . S
C1934 C1935 1.356 1_556 S
C1934 C1942 1.378 . S
C1935 C1934 1.356 1_554 S
C1935 C1943 1.449 . S
C1936 H1932 0.929 . S
C1936 C1938 1.378 . S
C1936 C1940 1.350 . S
C1937 C1940 1.463 . S
C1937 C1942 1.350 1_554 S
C1937 N1945 1.427 . S
C1938 H1929 0.930 . S
C1938 C1936 1.378 . S
C1938 C1939 1.367 1_565 S
C1939 C1938 1.367 1_545 S
C1939 C1941 1.433 . S
C1940 C1936 1.350 . S
C1940 C1937 1.463 . S
C1940 N1944 1.427 1_565 S
C1941 H1931 0.933 . S
C1941 C1939 1.433 . S
C1941 N1944 1.384 . S
C1942 H1933 0.929 1_565 S
C1942 C1934 1.378 . S
C1942 C1937 1.350 1_556 S
C1943 H1930 0.929 . S
C1943 C1935 1.449 . S
C1943 N1945 1.384 . S
N1944 C1940 1.427 1_545 S
N1944 C1941 1.384 . S
N1945 C1937 1.427 . S
N1945 C1943 1.384 . S
H1946 C1952 0.930 . S
H1947 C1956 0.930 . S
H1948 C1961 0.929 . S
H1949 C1959 0.929 . S
H1950 C1954 0.929 . S
H1951 C1960 0.929 . S
C1952 H1946 0.930 . S
C1952 C1953 1.367 . S
C1952 C1960 1.378 . S
C1953 C1952 1.367 . S
C1953 C1961 1.433 1_554 S
C1954 H1950 0.929 . S
C1954 C1956 1.378 . S
C1954 C1958 1.350 1_556 S
C1955 C1958 1.463 . S
C1955 C1960 1.350 1_655 S
C1955 N1963 1.426 1_654 S
C1956 H1947 0.930 . S
C1956 C1954 1.378 . S
C1956 C1957 1.367 1_556 S
C1957 C1956 1.367 1_554 S
C1957 C1959 1.433 . S
C1958 C1954 1.350 1_554 S
C1958 C1955 1.463 . S
C1958 N1962 1.427 . S
C1959 H1949 0.929 . S
C1959 C1957 1.433 . S
C1959 N1962 1.384 . S
C1960 H1951 0.929 . S
C1960 C1952 1.378 . S
C1960 C1955 1.350 1_455 S
C1961 H1948 0.929 . S
C1961 C1953 1.433 1_556 S
C1961 N1963 1.390 . S
N1962 C1958 1.427 . S
N1962 C1959 1.384 . S
N1963 C1955 1.426 1_456 S
N1963 C1961 1.390 . S
H1964 C1970 0.930 . S
H1965 C1974 0.930 . S
H1966 C1979 0.929 . S
H1967 C1977 0.929 . S
H1968 C1972 0.929 . S
H1969 C1978 0.929 . S
C1970 H1964 0.930 . S
C1970 C1971 1.367 . S
C1970 C1978 1.378 . S
C1971 C1970 1.367 . S
C1971 C1979 1.433 . S
C1972 H1968 0.929 . S
C1972 C1974 1.378 . S
C1972 C1976 1.350 . S
C1973 C1976 1.463 . S
C1973 C1978 1.350 . S
C1973 N1981 1.427 . S
C1974 H1965 0.930 . S
C1974 C1972 1.378 . S
C1974 C1975 1.367 . S
C1975 C1974 1.367 . S
C1975 C1977 1.433 . S
C1976 C1972 1.350 . S
C1976 C1973 1.463 . S
C1976 N1980 1.427 . S
C1977 H1967 0.929 . S
C1977 C1975 1.433 . S
C1977 N1980 1.384 . S
C1978 H1969 0.929 . S
C1978 C1970 1.378 . S
C1978 C1973 1.350 . S
C1979 H1966 0.929 . S
C1979 C1971 1.433 . S
C1979 N1981 1.384 . S
N1980 C1976 1.427 . S
N1980 C1977 1.384 . S
N1981 C1973 1.427 . S
N1981 C1979 1.384 . S
H1982 C1988 0.930 . S
H1983 C1992 0.930 . S
H1984 C1997 0.929 . S
H1985 C1995 0.929 . S
H1986 C1990 0.929 . S
H1987 C1996 0.923 1_565 S
C1988 H1982 0.930 . S
C1988 C1989 1.367 . S
C1988 C1996 1.378 . S
C1989 C1988 1.367 . S
C1989 C1997 1.433 . S
C1990 H1986 0.929 . S
C1990 C1992 1.378 . S
C1990 C1994 1.350 1_455 S
C1991 C1994 1.463 . S
C1991 C1996 1.350 1_565 S
C1991 N1999 1.427 1_565 S
C1992 H1983 0.930 . S
C1992 C1990 1.378 . S
C1992 C1993 1.367 . S
C1993 C1992 1.367 . S
C1993 C1995 1.433 . S
C1994 C1990 1.350 1_655 S
C1994 C1991 1.463 . S
C1994 N1998 1.427 1_655 S
C1995 H1985 0.929 . S
C1995 C1993 1.433 . S
C1995 N1998 1.384 . S
C1996 H1987 0.923 1_545 S
C1996 C1988 1.378 . S
C1996 C1991 1.350 1_545 S
C1997 H1984 0.929 . S
C1997 C1989 1.433 . S
C1997 N1999 1.384 . S
N1998 C1994 1.427 1_455 S
N1998 C1995 1.384 . S
N1999 C1991 1.427 1_545 S
N1999 C1997 1.384 . S
H2000 C2006 0.930 . S
H2001 C2010 0.930 . S
H2002 C2015 0.929 . S
H2003 C2013 0.929 . S
H2004 C2008 0.929 . S
H2005 C2014 0.929 . S
C2006 H2000 0.930 . S
C2006 C2007 1.367 . S
C2006 C2014 1.378 . S
C2007 C2006 1.367 . S
C2007 C2015 1.433 . S
C2008 H2004 0.929 . S
C2008 C2010 1.378 . S
C2008 C2012 1.350 . S
C2009 C2012 1.463 . S
C2009 C2014 1.350 . S
C2009 N2017 1.427 . S
C2010 H2001 0.930 . S
C2010 C2008 1.378 . S
C2010 C2011 1.367 . S
C2011 C2010 1.367 . S
C2011 C2013 1.433 . S
C2012 C2008 1.350 . S
C2012 C2009 1.463 . S
C2012 N2016 1.427 . S
C2013 H2003 0.929 . S
C2013 C2011 1.433 . S
C2013 N2016 1.384 . S
C2014 H2005 0.929 . S
C2014 C2006 1.378 . S
C2014 C2009 1.350 . S
C2015 H2002 0.929 . S
C2015 C2007 1.433 . S
C2015 N2017 1.384 . S
N2016 C2012 1.427 . S
N2016 C2013 1.384 . S
N2017 C2009 1.427 . S
N2017 C2015 1.384 . S
H2018 C2024 0.930 . S
H2019 C2028 0.930 . S
H2020 C2033 0.929 . S
H2021 C2031 0.929 . S
H2022 C2026 0.929 1_455 S
H2023 C2032 0.929 . S
C2024 H2018 0.930 . S
C2024 C2025 1.367 . S
C2024 C2032 1.378 . S
C2025 C2024 1.367 . S
C2025 C2033 1.433 . S
C2026 H2022 0.929 1_655 S
C2026 C2028 1.378 . S
C2026 C2030 1.350 1_655 S
C2027 C2030 1.463 . S
C2027 C2032 1.350 . S
C2027 N2035 1.427 . S
C2028 H2019 0.930 . S
C2028 C2026 1.378 . S
C2028 C2029 1.367 . S
C2029 C2028 1.367 . S
C2029 C2031 1.433 . S
C2030 C2026 1.350 1_455 S
C2030 C2027 1.463 . S
C2030 N2034 1.427 1_455 S
C2031 H2021 0.929 . S
C2031 C2029 1.433 . S
C2031 N2034 1.384 . S
C2032 H2023 0.929 . S
C2032 C2024 1.378 . S
C2032 C2027 1.350 . S
C2033 H2020 0.929 . S
C2033 C2025 1.433 . S
C2033 N2035 1.384 . S
N2034 C2030 1.427 1_655 S
N2034 C2031 1.384 . S
N2035 C2027 1.427 . S
N2035 C2033 1.384 . S
H2036 C2042 0.930 . S
H2037 C2046 0.930 . S
H2038 C2051 0.929 . S
H2039 C2049 0.929 . S
H2040 C2044 0.929 . S
H2041 C2050 0.929 . S
C2042 H2036 0.930 . S
C2042 C2043 1.367 . S
C2042 C2050 1.378 . S
C2043 C2042 1.367 . S
C2043 C2051 1.433 . S
C2044 H2040 0.929 . S
C2044 C2046 1.378 . S
C2044 C2048 1.350 . S
C2045 C2048 1.463 . S
C2045 C2050 1.350 . S
C2045 N2053 1.427 . S
C2046 H2037 0.930 . S
C2046 C2044 1.378 . S
C2046 C2047 1.367 . S
C2047 C2046 1.367 . S
C2047 C2049 1.433 . S
C2048 C2044 1.350 . S
C2048 C2045 1.463 . S
C2048 N2052 1.427 . S
C2049 H2039 0.929 . S
C2049 C2047 1.433 . S
C2049 N2052 1.384 . S
C2050 H2041 0.929 . S
C2050 C2042 1.378 . S
C2050 C2045 1.350 . S
C2051 H2038 0.929 . S
C2051 C2043 1.433 . S
C2051 N2053 1.384 . S
N2052 C2048 1.427 . S
N2052 C2049 1.384 . S
N2053 C2045 1.427 . S
N2053 C2051 1.384 . S
H2054 C2060 0.930 . S
H2055 C2064 0.930 . S
H2056 C2069 0.929 . S
H2057 C2067 0.929 . S
H2058 C2062 0.929 1_455 S
H2059 C2068 0.929 . S
C2060 H2054 0.930 . S
C2060 C2061 1.367 . S
C2060 C2068 1.378 . S
C2061 C2060 1.367 . S
C2061 C2069 1.433 . S
C2062 H2058 0.929 1_655 S
C2062 C2064 1.378 . S
C2062 C2066 1.350 1_655 S
C2063 C2066 1.463 . S
C2063 C2068 1.350 . S
C2063 N2071 1.427 . S
C2064 H2055 0.930 . S
C2064 C2062 1.378 . S
C2064 C2065 1.367 . S
C2065 C2064 1.367 . S
C2065 C2067 1.433 . S
C2066 C2062 1.350 1_455 S
C2066 C2063 1.463 . S
C2066 N2070 1.427 1_455 S
C2067 H2057 0.929 . S
C2067 C2065 1.433 . S
C2067 N2070 1.384 . S
C2068 H2059 0.929 . S
C2068 C2060 1.378 . S
C2068 C2063 1.350 . S
C2069 H2056 0.929 . S
C2069 C2061 1.433 . S
C2069 N2071 1.384 . S
N2070 C2066 1.427 1_655 S
N2070 C2067 1.384 . S
N2071 C2063 1.427 . S
N2071 C2069 1.384 . S
H2072 C2078 0.930 . S
H2073 C2082 0.930 . S
H2074 C2087 0.929 . S
H2075 C2085 0.929 . S
H2076 C2080 0.929 . S
H2077 C2086 0.929 . S
C2078 H2072 0.930 . S
C2078 C2079 1.367 . S
C2078 C2086 1.378 . S
C2079 C2078 1.367 . S
C2079 C2087 1.433 . S
C2080 H2076 0.929 . S
C2080 C2082 1.378 . S
C2080 C2084 1.350 . S
C2081 C2084 1.463 . S
C2081 C2086 1.350 . S
C2081 N2089 1.427 . S
C2082 H2073 0.930 . S
C2082 C2080 1.378 . S
C2082 C2083 1.367 . S
C2083 C2082 1.367 . S
C2083 C2085 1.433 . S
C2084 C2080 1.350 . S
C2084 C2081 1.463 . S
C2084 N2088 1.427 . S
C2085 H2075 0.929 . S
C2085 C2083 1.433 . S
C2085 N2088 1.384 . S
C2086 H2077 0.929 . S
C2086 C2078 1.378 . S
C2086 C2081 1.350 . S
C2087 H2074 0.929 . S
C2087 C2079 1.433 . S
C2087 N2089 1.384 . S
N2088 C2084 1.427 . S
N2088 C2085 1.384 . S
N2089 C2081 1.427 . S
N2089 C2087 1.384 . S
H2090 C2096 0.930 . S
H2091 C2100 0.930 . S
H2092 C2105 0.929 . S
H2093 C2103 0.929 . S
H2094 C2098 0.929 . S
H2095 C2104 0.929 1_655 S
C2096 H2090 0.930 . S
C2096 C2097 1.367 . S
C2096 C2104 1.378 . S
C2097 C2096 1.367 . S
C2097 C2105 1.433 . S
C2098 H2094 0.929 . S
C2098 C2100 1.378 . S
C2098 C2102 1.350 . S
C2099 C2102 1.463 . S
C2099 C2104 1.350 1_655 S
C2099 N2107 1.427 1_655 S
C2100 H2091 0.930 . S
C2100 C2098 1.378 . S
C2100 C2101 1.367 . S
C2101 C2100 1.367 . S
C2101 C2103 1.433 . S
C2102 C2098 1.350 . S
C2102 C2099 1.463 . S
C2102 N2106 1.427 . S
C2103 H2093 0.929 . S
C2103 C2101 1.433 . S
C2103 N2106 1.384 . S
C2104 H2095 0.929 1_455 S
C2104 C2096 1.378 . S
C2104 C2099 1.350 1_455 S
C2105 H2092 0.929 . S
C2105 C2097 1.433 . S
C2105 N2107 1.384 . S
N2106 C2102 1.427 . S
N2106 C2103 1.384 . S
N2107 C2099 1.427 1_455 S
N2107 C2105 1.384 . S
H2108 C2114 0.930 . S
H2109 C2118 0.930 . S
H2110 C2123 0.929 . S
H2111 C2121 0.929 . S
H2112 C2116 0.929 . S
H2113 C2122 0.929 . S
C2114 H2108 0.930 . S
C2114 C2115 1.367 . S
C2114 C2122 1.378 . S
C2115 C2114 1.367 . S
C2115 C2123 1.433 . S
C2116 H2112 0.929 . S
C2116 C2118 1.378 . S
C2116 C2120 1.350 . S
C2117 C2120 1.463 . S
C2117 C2122 1.350 . S
C2117 N2125 1.427 . S
C2118 H2109 0.930 . S
C2118 C2116 1.378 . S
C2118 C2119 1.367 . S
C2119 C2118 1.367 . S
C2119 C2121 1.433 . S
C2120 C2116 1.350 . S
C2120 C2117 1.463 . S
C2120 N2124 1.427 . S
C2121 H2111 0.929 . S
C2121 C2119 1.433 . S
C2121 N2124 1.384 . S
C2122 H2113 0.929 . S
C2122 C2114 1.378 . S
C2122 C2117 1.350 . S
C2123 H2110 0.929 . S
C2123 C2115 1.433 . S
C2123 N2125 1.384 . S
N2124 C2120 1.427 . S
N2124 C2121 1.384 . S
N2125 C2117 1.427 . S
N2125 C2123 1.384 . S
H2126 C2132 0.930 . S
H2127 C2136 0.930 . S
H2128 C2141 0.929 . S
H2129 C2139 0.929 . S
H2130 C2134 0.929 . S
H2131 C2140 0.929 . S
C2132 H2126 0.930 . S
C2132 C2133 1.367 . S
C2132 C2140 1.378 . S
C2133 C2132 1.367 . S
C2133 C2141 1.433 . S
C2134 H2130 0.929 . S
C2134 C2136 1.378 1_655 S
C2134 C2138 1.350 . S
C2135 C2138 1.463 . S
C2135 C2140 1.350 . S
C2135 N2143 1.427 . S
C2136 H2127 0.930 . S
C2136 C2134 1.378 1_455 S
C2136 C2137 1.367 . S
C2137 C2136 1.367 . S
C2137 C2139 1.433 . S
C2138 C2134 1.350 . S
C2138 C2135 1.463 . S
C2138 N2142 1.427 1_655 S
C2139 H2129 0.929 . S
C2139 C2137 1.433 . S
C2139 N2142 1.384 . S
C2140 H2131 0.929 . S
C2140 C2132 1.378 . S
C2140 C2135 1.350 . S
C2141 H2128 0.929 . S
C2141 C2133 1.433 . S
C2141 N2143 1.384 . S
N2142 C2138 1.427 1_455 S
N2142 C2139 1.384 . S
N2143 C2135 1.427 . S
N2143 C2141 1.384 . S
H2144 C2150 0.930 . S
H2145 C2154 0.930 . S
H2146 C2159 0.929 . S
H2147 C2157 0.929 . S
H2148 C2152 0.929 . S
H2149 C2158 0.929 . S
C2150 H2144 0.930 . S
C2150 C2151 1.367 . S
C2150 C2158 1.378 . S
C2151 C2150 1.367 . S
C2151 C2159 1.433 . S
C2152 H2148 0.929 . S
C2152 C2154 1.378 . S
C2152 C2156 1.350 1_565 S
C2153 C2156 1.463 . S
C2153 C2158 1.350 . S
C2153 N2161 1.427 . S
C2154 H2145 0.930 . S
C2154 C2152 1.378 . S
C2154 C2155 1.367 . S
C2155 C2154 1.367 . S
C2155 C2157 1.433 . S
C2156 C2152 1.350 1_545 S
C2156 C2153 1.463 . S
C2156 N2160 1.427 . S
C2157 H2147 0.929 . S
C2157 C2155 1.433 . S
C2157 N2160 1.384 1_565 S
C2158 H2149 0.929 . S
C2158 C2150 1.378 . S
C2158 C2153 1.350 . S
C2159 H2146 0.929 . S
C2159 C2151 1.433 . S
C2159 N2161 1.384 . S
N2160 C2156 1.427 . S
N2160 C2157 1.384 1_545 S
N2161 C2153 1.427 . S
N2161 C2159 1.384 . S
H2162 C2168 0.930 . S
H2163 C2172 0.930 . S
H2164 C2177 0.929 . S
H2165 C2175 0.929 . S
H2166 C2170 0.929 . S
H2167 C2176 0.929 . S
C2168 H2162 0.930 . S
C2168 C2169 1.367 . S
C2168 C2176 1.378 . S
C2169 C2168 1.367 . S
C2169 C2177 1.433 . S
C2170 H2166 0.929 . S
C2170 C2172 1.378 . S
C2170 C2174 1.350 . S
C2171 C2174 1.463 . S
C2171 C2176 1.350 . S
C2171 N2179 1.427 . S
C2172 H2163 0.930 . S
C2172 C2170 1.378 . S
C2172 C2173 1.367 . S
C2173 C2172 1.367 . S
C2173 C2175 1.433 . S
C2174 C2170 1.350 . S
C2174 C2171 1.463 . S
C2174 N2178 1.427 . S
C2175 H2165 0.929 . S
C2175 C2173 1.433 . S
C2175 N2178 1.384 . S
C2176 H2167 0.929 . S
C2176 C2168 1.378 . S
C2176 C2171 1.350 . S
C2177 H2164 0.929 . S
C2177 C2169 1.433 . S
C2177 N2179 1.384 . S
N2178 C2174 1.427 . S
N2178 C2175 1.384 . S
N2179 C2171 1.427 . S
N2179 C2177 1.384 . S
H2180 C2186 0.930 . S
H2181 C2190 0.930 . S
H2182 C2195 0.929 . S
H2183 C2193 0.929 . S
H2184 C2188 0.929 . S
H2185 C2194 0.929 . S
C2186 H2180 0.930 . S
C2186 C2187 1.367 . S
C2186 C2194 1.378 . S
C2187 C2186 1.367 . S
C2187 C2195 1.433 . S
C2188 H2184 0.929 . S
C2188 C2190 1.378 . S
C2188 C2192 1.350 . S
C2189 C2192 1.463 . S
C2189 C2194 1.350 . S
C2189 N2197 1.427 . S
C2190 H2181 0.930 . S
C2190 C2188 1.378 . S
C2190 C2191 1.367 . S
C2191 C2190 1.367 . S
C2191 C2193 1.433 . S
C2192 C2188 1.350 . S
C2192 C2189 1.463 . S
C2192 N2196 1.427 . S
C2193 H2183 0.929 . S
C2193 C2191 1.433 . S
C2193 N2196 1.384 . S
C2194 H2185 0.929 . S
C2194 C2186 1.378 . S
C2194 C2189 1.350 . S
C2195 H2182 0.929 . S
C2195 C2187 1.433 . S
C2195 N2197 1.384 . S
N2196 C2192 1.427 . S
N2196 C2193 1.384 . S
N2197 C2189 1.427 . S
N2197 C2195 1.384 . S
H2198 C2204 0.930 . S
H2199 C2208 0.930 . S
H2200 C2213 0.929 . S
H2201 C2211 0.929 . S
H2202 C2206 0.929 . S
H2203 C2212 0.929 1_545 S
C2204 H2198 0.930 . S
C2204 C2205 1.367 . S
C2204 C2212 1.378 . S
C2205 C2204 1.367 . S
C2205 C2213 1.433 . S
C2206 H2202 0.929 . S
C2206 C2208 1.378 . S
C2206 C2210 1.350 . S
C2207 C2210 1.463 . S
C2207 C2212 1.350 1_545 S
C2207 N2215 1.427 1_545 S
C2208 H2199 0.930 . S
C2208 C2206 1.378 . S
C2208 C2209 1.367 . S
C2209 C2208 1.367 . S
C2209 C2211 1.433 . S
C2210 C2206 1.350 . S
C2210 C2207 1.463 . S
C2210 N2214 1.427 . S
C2211 H2201 0.929 . S
C2211 C2209 1.433 . S
C2211 N2214 1.384 . S
C2212 H2203 0.929 1_565 S
C2212 C2204 1.378 . S
C2212 C2207 1.350 1_565 S
C2213 H2200 0.929 . S
C2213 C2205 1.433 . S
C2213 N2215 1.384 . S
N2214 C2210 1.427 . S
N2214 C2211 1.384 . S
N2215 C2207 1.427 1_565 S
N2215 C2213 1.384 . S
H2216 C2222 0.930 . S
H2217 C2226 0.930 . S
H2218 C2231 0.929 . S
H2219 C2229 0.929 . S
H2220 C2224 0.929 . S
H2221 C2230 0.929 . S
C2222 H2216 0.930 . S
C2222 C2223 1.367 . S
C2222 C2230 1.378 . S
C2223 C2222 1.367 . S
C2223 C2231 1.433 . S
C2224 H2220 0.929 . S
C2224 C2226 1.378 1_565 S
C2224 C2228 1.350 . S
C2225 C2228 1.463 . S
C2225 C2230 1.350 . S
C2225 N2233 1.427 . S
C2226 H2217 0.930 . S
C2226 C2224 1.378 1_545 S
C2226 C2227 1.367 . S
C2227 C2226 1.367 . S
C2227 C2229 1.433 . S
C2228 C2224 1.350 . S
C2228 C2225 1.463 . S
C2228 N2232 1.427 1_565 S
C2229 H2219 0.929 . S
C2229 C2227 1.433 . S
C2229 N2232 1.384 . S
C2230 H2221 0.929 . S
C2230 C2222 1.378 . S
C2230 C2225 1.350 . S
C2231 H2218 0.929 . S
C2231 C2223 1.433 . S
C2231 N2233 1.384 . S
N2232 C2228 1.427 1_545 S
N2232 C2229 1.384 . S
N2233 C2225 1.427 . S
N2233 C2231 1.384 . S
H2234 C2240 0.930 . S
H2235 C2244 0.930 . S
H2236 C2249 0.929 . S
H2237 C2247 0.929 . S
H2238 C2242 0.929 . S
H2239 C2248 0.929 . S
C2240 H2234 0.930 . S
C2240 C2241 1.367 . S
C2240 C2248 1.378 . S
C2241 C2240 1.367 . S
C2241 C2249 1.433 . S
C2242 H2238 0.929 . S
C2242 C2244 1.378 . S
C2242 C2246 1.350 . S
C2243 C2246 1.463 . S
C2243 C2248 1.350 . S
C2243 N2251 1.427 . S
C2244 H2235 0.930 . S
C2244 C2242 1.378 . S
C2244 C2245 1.367 . S
C2245 C2244 1.367 . S
C2245 C2247 1.433 . S
C2246 C2242 1.350 . S
C2246 C2243 1.463 . S
C2246 N2250 1.427 . S
C2247 H2237 0.929 . S
C2247 C2245 1.433 . S
C2247 N2250 1.384 . S
C2248 H2239 0.929 . S
C2248 C2240 1.378 . S
C2248 C2243 1.350 . S
C2249 H2236 0.929 . S
C2249 C2241 1.433 . S
C2249 N2251 1.384 . S
N2250 C2246 1.427 . S
N2250 C2247 1.384 . S
N2251 C2243 1.427 . S
N2251 C2249 1.384 . S
H2252 C2258 0.930 . S
H2253 C2262 0.930 . S
H2254 C2267 0.929 . S
H2255 C2265 0.929 . S
H2256 C2260 0.929 . S
H2257 C2266 0.929 . S
C2258 H2252 0.930 . S
C2258 C2259 1.367 . S
C2258 C2266 1.378 . S
C2259 C2258 1.367 . S
C2259 C2267 1.433 . S
C2260 H2256 0.929 . S
C2260 C2262 1.378 . S
C2260 C2264 1.350 . S
C2261 C2264 1.463 . S
C2261 C2266 1.350 . S
C2261 N2269 1.427 . S
C2262 H2253 0.930 . S
C2262 C2260 1.378 . S
C2262 C2263 1.367 . S
C2263 C2262 1.367 . S
C2263 C2265 1.433 . S
C2264 C2260 1.350 . S
C2264 C2261 1.463 . S
C2264 N2268 1.427 . S
C2265 H2255 0.929 . S
C2265 C2263 1.433 . S
C2265 N2268 1.384 . S
C2266 H2257 0.929 . S
C2266 C2258 1.378 . S
C2266 C2261 1.350 . S
C2267 H2254 0.929 . S
C2267 C2259 1.433 . S
C2267 N2269 1.384 . S
N2268 C2264 1.427 . S
N2268 C2265 1.384 . S
N2269 C2261 1.427 . S
N2269 C2267 1.384 . S
H2270 C2276 0.930 . S
H2271 C2280 0.930 . S
H2272 C2285 0.929 . S
H2273 C2283 0.929 . S
H2274 C2278 0.929 . S
H2275 C2284 0.929 . S
C2276 H2270 0.930 . S
C2276 C2277 1.367 . S
C2276 C2284 1.378 . S
C2277 C2276 1.367 . S
C2277 C2285 1.433 . S
C2278 H2274 0.929 . S
C2278 C2280 1.378 . S
C2278 C2282 1.350 1_545 S
C2279 C2282 1.463 . S
C2279 C2284 1.350 . S
C2279 N2287 1.427 . S
C2280 H2271 0.930 . S
C2280 C2278 1.378 . S
C2280 C2281 1.367 . S
C2281 C2280 1.367 . S
C2281 C2283 1.433 . S
C2282 C2278 1.350 1_565 S
C2282 C2279 1.463 . S
C2282 N2286 1.427 1_565 S
C2283 H2273 0.929 . S
C2283 C2281 1.433 . S
C2283 N2286 1.384 . S
C2284 H2275 0.929 . S
C2284 C2276 1.378 . S
C2284 C2279 1.350 . S
C2285 H2272 0.929 . S
C2285 C2277 1.433 . S
C2285 N2287 1.384 . S
N2286 C2282 1.427 1_545 S
N2286 C2283 1.384 . S
N2287 C2279 1.427 . S
N2287 C2285 1.384 . S
H2288 C2294 0.940 . S
H2289 C2298 0.930 . S
H2290 C2303 0.929 . S
H2291 C2301 0.929 . S
H2292 C2296 0.929 . S
H2293 C2302 0.929 . S
C2294 H2288 0.940 . S
C2294 C2295 1.355 1_554 S
C2294 C2302 1.380 . S
C2295 C2294 1.355 1_556 S
C2295 C2303 1.433 . S
C2296 H2292 0.929 . S
C2296 C2298 1.378 . S
C2296 C2300 1.350 . S
C2297 C2300 1.463 . S
C2297 C2302 1.350 1_556 S
C2297 N2305 1.427 . S
C2298 H2289 0.930 . S
C2298 C2296 1.378 . S
C2298 C2299 1.367 . S
C2299 C2298 1.367 . S
C2299 C2301 1.433 1_556 S
C2300 C2296 1.350 . S
C2300 C2297 1.463 . S
C2300 N2304 1.427 1_556 S
C2301 H2291 0.929 . S
C2301 C2299 1.433 1_554 S
C2301 N2304 1.384 . S
C2302 H2293 0.929 . S
C2302 C2294 1.380 . S
C2302 C2297 1.350 1_554 S
C2303 H2290 0.929 . S
C2303 C2295 1.433 . S
C2303 N2305 1.384 . S
N2304 C2300 1.427 1_554 S
N2304 C2301 1.384 . S
N2305 C2297 1.427 . S
N2305 C2303 1.384 . S
H2306 C2312 0.930 . S
H2307 C2316 0.930 . S
H2308 C2321 0.929 . S
H2309 C2319 0.929 . S
H2310 C2314 0.929 . S
H2311 C2320 0.929 . S
C2312 H2306 0.930 . S
C2312 C2313 1.367 . S
C2312 C2320 1.378 . S
C2313 C2312 1.367 . S
C2313 C2321 1.433 1_556 S
C2314 H2310 0.929 . S
C2314 C2316 1.378 . S
C2314 C2318 1.350 1_554 S
C2315 C2318 1.463 . S
C2315 C2320 1.350 . S
C2315 N2323 1.427 1_556 S
C2316 H2307 0.930 . S
C2316 C2314 1.378 . S
C2316 C2317 1.367 1_554 S
C2317 C2316 1.367 1_556 S
C2317 C2319 1.433 . S
C2318 C2314 1.350 1_556 S
C2318 C2315 1.463 . S
C2318 N2322 1.427 . S
C2319 H2309 0.929 . S
C2319 C2317 1.433 . S
C2319 N2322 1.384 . S
C2320 H2311 0.929 . S
C2320 C2312 1.378 . S
C2320 C2315 1.350 . S
C2321 H2308 0.929 . S
C2321 C2313 1.433 1_554 S
C2321 N2323 1.384 . S
N2322 C2318 1.427 . S
N2322 C2319 1.384 . S
N2323 C2315 1.427 1_554 S
N2323 C2321 1.384 . S
H2324 C2330 0.930 . S
H2325 C2334 0.930 . S
H2326 C2339 0.929 . S
H2327 C2337 0.929 . S
H2328 C2332 0.929 . S
H2329 C2338 0.929 . S
C2330 H2324 0.930 . S
C2330 C2331 1.367 . S
C2330 C2338 1.378 . S
C2331 C2330 1.367 . S
C2331 C2339 1.433 . S
C2332 H2328 0.929 . S
C2332 C2334 1.378 . S
C2332 C2336 1.350 . S
C2333 C2336 1.463 . S
C2333 C2338 1.350 . S
C2333 N2341 1.427 . S
C2334 H2325 0.930 . S
C2334 C2332 1.378 . S
C2334 C2335 1.367 . S
C2335 C2334 1.367 . S
C2335 C2337 1.433 . S
C2336 C2332 1.350 . S
C2336 C2333 1.463 . S
C2336 N2340 1.427 . S
C2337 H2327 0.929 . S
C2337 C2335 1.433 . S
C2337 N2340 1.384 . S
C2338 H2329 0.929 . S
C2338 C2330 1.378 . S
C2338 C2333 1.350 . S
C2339 H2326 0.929 . S
C2339 C2331 1.433 . S
C2339 N2341 1.384 . S
N2340 C2336 1.427 . S
N2340 C2337 1.384 . S
N2341 C2333 1.427 . S
N2341 C2339 1.384 . S
H2342 C2348 0.930 . S
H2343 C2352 0.930 . S
H2344 C2357 0.929 . S
H2345 C2355 0.929 . S
H2346 C2350 0.929 . S
H2347 C2356 0.929 . S
C2348 H2342 0.930 . S
C2348 C2349 1.367 . S
C2348 C2356 1.378 . S
C2349 C2348 1.367 . S
C2349 C2357 1.433 . S
C2350 H2346 0.929 . S
C2350 C2352 1.378 . S
C2350 C2354 1.350 . S
C2351 C2354 1.463 . S
C2351 C2356 1.350 . S
C2351 N2359 1.427 . S
C2352 H2343 0.930 . S
C2352 C2350 1.378 . S
C2352 C2353 1.367 . S
C2353 C2352 1.367 . S
C2353 C2355 1.433 . S
C2354 C2350 1.350 . S
C2354 C2351 1.463 . S
C2354 N2358 1.427 . S
C2355 H2345 0.929 . S
C2355 C2353 1.433 . S
C2355 N2358 1.384 . S
C2356 H2347 0.929 . S
C2356 C2348 1.378 . S
C2356 C2351 1.350 . S
C2357 H2344 0.929 . S
C2357 C2349 1.433 . S
C2357 N2359 1.384 . S
N2358 C2354 1.427 . S
N2358 C2355 1.384 . S
N2359 C2351 1.427 . S
N2359 C2357 1.384 . S
H2360 C2366 0.930 . S
H2361 C2370 0.930 . S
H2362 C2375 0.929 . S
H2363 C2373 0.929 . S
H2364 C2368 0.929 . S
H2365 C2374 0.929 . S
C2366 H2360 0.930 . S
C2366 C2367 1.367 1_556 S
C2366 C2374 1.378 . S
C2367 C2366 1.367 1_554 S
C2367 C2375 1.433 . S
C2368 H2364 0.929 . S
C2368 C2370 1.378 . S
C2368 C2372 1.350 . S
C2369 C2372 1.463 . S
C2369 C2374 1.350 1_554 S
C2369 N2377 1.427 . S
C2370 H2361 0.930 . S
C2370 C2368 1.378 . S
C2370 C2371 1.367 . S
C2371 C2370 1.367 . S
C2371 C2373 1.433 1_554 S
C2372 C2368 1.350 . S
C2372 C2369 1.463 . S
C2372 N2376 1.427 1_554 S
C2373 H2363 0.929 . S
C2373 C2371 1.433 1_556 S
C2373 N2376 1.384 . S
C2374 H2365 0.929 . S
C2374 C2366 1.378 . S
C2374 C2369 1.350 1_556 S
C2375 H2362 0.929 . S
C2375 C2367 1.433 . S
C2375 N2377 1.384 . S
N2376 C2372 1.427 1_556 S
N2376 C2373 1.384 . S
N2377 C2369 1.427 . S
N2377 C2375 1.384 . S
H2378 C2384 0.930 . S
H2379 C2388 0.930 . S
H2380 C2393 0.929 . S
H2381 C2391 0.929 . S
H2382 C2386 0.929 . S
H2383 C2392 0.929 . S
C2384 H2378 0.930 . S
C2384 C2385 1.359 1_556 S
C2384 C2392 1.378 . S
C2385 C2384 1.359 1_554 S
C2385 C2393 1.447 . S
C2386 H2382 0.929 . S
C2386 C2388 1.378 . S
C2386 C2390 1.350 . S
C2387 C2390 1.463 . S
C2387 C2392 1.350 1_554 S
C2387 N2395 1.427 . S
C2388 H2379 0.930 . S
C2388 C2386 1.378 . S
C2388 C2389 1.367 . S
C2389 C2388 1.367 . S
C2389 C2391 1.433 . S
C2390 C2386 1.350 . S
C2390 C2387 1.463 . S
C2390 N2394 1.427 . S
C2391 H2381 0.929 . S
C2391 C2389 1.433 . S
C2391 N2394 1.384 . S
C2392 H2383 0.929 . S
C2392 C2384 1.378 . S
C2392 C2387 1.350 1_556 S
C2393 H2380 0.929 . S
C2393 C2385 1.447 . S
C2393 N2395 1.384 . S
N2394 C2390 1.427 . S
N2394 C2391 1.384 . S
N2395 C2387 1.427 . S
N2395 C2393 1.384 . S
H2396 C2402 0.930 . S
H2397 C2406 0.930 . S
H2398 C2411 0.929 . S
H2399 C2409 0.929 . S
H2400 C2404 0.929 . S
H2401 C2410 0.929 . S
C2402 H2396 0.930 . S
C2402 C2403 1.367 . S
C2402 C2410 1.378 . S
C2403 C2402 1.367 . S
C2403 C2411 1.433 . S
C2404 H2400 0.929 . S
C2404 C2406 1.378 . S
C2404 C2408 1.350 . S
C2405 C2408 1.463 . S
C2405 C2410 1.350 . S
C2405 N2413 1.427 . S
C2406 H2397 0.930 . S
C2406 C2404 1.378 . S
C2406 C2407 1.367 . S
C2407 C2406 1.367 . S
C2407 C2409 1.433 . S
C2408 C2404 1.350 . S
C2408 C2405 1.463 . S
C2408 N2412 1.427 . S
C2409 H2399 0.929 . S
C2409 C2407 1.433 . S
C2409 N2412 1.384 . S
C2410 H2401 0.929 . S
C2410 C2402 1.378 . S
C2410 C2405 1.350 . S
C2411 H2398 0.929 . S
C2411 C2403 1.433 . S
C2411 N2413 1.384 . S
N2412 C2408 1.427 . S
N2412 C2409 1.384 . S
N2413 C2405 1.427 . S
N2413 C2411 1.384 . S
H2414 C2420 0.930 . S
H2415 C2424 0.930 . S
H2416 C2429 0.929 . S
H2417 C2427 0.929 . S
H2418 C2422 0.929 . S
H2419 C2428 0.929 . S
C2420 H2414 0.930 . S
C2420 C2421 1.367 . S
C2420 C2428 1.378 . S
C2421 C2420 1.367 . S
C2421 C2429 1.433 . S
C2422 H2418 0.929 . S
C2422 C2424 1.378 . S
C2422 C2426 1.350 . S
C2423 C2426 1.463 . S
C2423 C2428 1.350 . S
C2423 N2431 1.427 . S
C2424 H2415 0.930 . S
C2424 C2422 1.378 . S
C2424 C2425 1.367 . S
C2425 C2424 1.367 . S
C2425 C2427 1.433 . S
C2426 C2422 1.350 . S
C2426 C2423 1.463 . S
C2426 N2430 1.427 . S
C2427 H2417 0.929 . S
C2427 C2425 1.433 . S
C2427 N2430 1.384 . S
C2428 H2419 0.929 . S
C2428 C2420 1.378 . S
C2428 C2423 1.350 . S
C2429 H2416 0.929 . S
C2429 C2421 1.433 . S
C2429 N2431 1.384 . S
N2430 C2426 1.427 . S
N2430 C2427 1.384 . S
N2431 C2423 1.427 . S
N2431 C2429 1.384 . S
C711 C556 1.276 . S
C715 C7 1.258 1_565 S
C729 C535 1.264 . S
C733 C28 1.256 . S
C747 C600 1.275 . S
C751 C51 1.271 . S
C765 C579 1.255 . S
C769 C72 1.268 1_565 S
C783 C97 1.276 1_545 S
C787 C643 1.268 . S
C801 C115 1.269 . S
C805 C625 1.255 . S
C819 C141 1.272 . S
C823 C687 1.274 . S
C837 C669 1.255 . S
C841 C159 1.273 1_545 S
C855 C380 1.255 . S
C859 C183 1.266 . S
C873 C359 1.278 1_565 S
C877 C204 1.262 . S
C891 C424 1.256 1_565 S
C895 C227 1.274 . S
C909 C403 1.270 . S
C913 C248 1.275 . S
C927 C273 1.277 . S
C931 C467 1.266 . S
C945 C449 1.272 1_545 S
C949 C291 1.255 . S
C963 C317 1.262 . S
C967 C511 1.278 1_545 S
C981 C493 1.275 . S
C985 C335 1.256 . S
C999 C4 1.860 . S
C1003 C426 1.868 . S
C1017 C400 1.861 . S
C1021 C30 1.865 . S
C1035 C382 1.860 . S
C1039 C48 1.868 . S
C1053 C74 1.870 . S
C1057 C356 1.862 . S
C1071 C514 1.869 . S
C1075 C92 1.860 . S
C1089 C488 1.867 . S
C1093 C118 1.860 . S
C1107 C470 1.863 . S
C1111 C136 1.869 . S
C1125 C444 1.868 . S
C1129 C162 1.860 . S
C1143 C602 1.869 . S
C1147 C180 1.860 . S
C1161 C206 1.869 . S
C1165 C576 1.864 . S
C1179 C224 1.870 . S
C1183 C558 1.861 . S
C1197 C250 1.870 . S
C1201 C532 1.861 . S
C1215 C690 1.867 . S
C1219 C268 1.860 . S
C1233 C664 1.861 . S
C1237 C294 1.865 . S
C1251 C312 1.861 . S
C1255 C646 1.870 . S
C1269 C338 1.867 . S
C1273 C620 1.860 . S
C1287 C94 1.244 . S
C1291 C5 1.244 . S
C1305 C31 1.256 . S
C1309 C645 1.256 . S
C1323 C49 1.242 . S
C1327 C314 1.242 . S
C1341 C513 1.248 . S
C1345 C75 1.248 . S
C1359 C117 1.248 . S
C1363 C559 1.248 . S
C1377 C138 1.255 . S
C1381 C225 1.255 . S
C1395 C427 1.255 . S
C1399 C161 1.255 . S
C1413 C270 1.233 . S
C1417 C181 1.233 . S
C1431 C207 1.249 . S
C1435 C469 1.249 . S
C1449 C251 1.256 . S
C1453 C689 1.256 . S
C1467 C383 1.233 . S
C1471 C293 1.233 . S
C1485 C337 1.231 . S
C1489 C603 1.231 . S
C1503 C446 1.251 . S
C1507 C357 1.251 . S
C1521 C666 1.256 . S
C1525 C401 1.256 . S
C1539 C577 1.243 . S
C1543 C490 1.243 . S
C1557 C533 1.231 . S
C1561 C622 1.231 . S
C1575 C53 0.933 . S
C1579 C9 0.945 . S
C1593 C71 0.950 . S
C1597 C27 0.937 . S
C1611 C139 0.943 . S
C1615 C95 0.945 . S
C1629 C116 0.938 . S
C1633 C160 0.950 . S
C1647 C229 0.949 . S
C1651 C185 0.931 . S
C1665 C203 0.931 . S
C1669 C247 0.948 . S
C1683 C315 0.944 . S
C1687 C271 0.944 . S
C1701 C292 0.938 . S
C1705 C336 0.949 . S
C1719 C361 0.952 . S
C1723 C405 0.934 . S
C1737 C379 0.932 . S
C1741 C423 0.947 . S
C1755 C491 0.953 . S
C1759 C447 0.930 . S
C1773 C468 0.936 . S
C1777 C512 0.950 . S
C1791 C537 0.951 . S
C1795 C581 0.935 . S
C1809 C599 0.947 . S
C1813 C555 0.940 . S
C1827 C623 0.938 . S
C1831 C667 0.950 . S
C1845 C644 0.933 . S
C1849 C688 0.945 . S
C1863 C119 1.528 . S
C1867 C8 1.508 . S
C1881 C621 1.530 . S
C1885 C26 1.506 . S
C1899 C52 1.506 . S
C1903 C339 1.531 . S
C1917 C70 1.516 . S
C1921 C489 1.525 . S
C1935 C96 1.511 . S
C1939 C29 1.531 . S
C1953 C114 1.506 . S
C1957 C534 1.530 . S
C1971 C249 1.531 . S
C1975 C140 1.506 . S
C1989 C402 1.530 . S
C1993 C158 1.506 . S
C2007 C184 1.515 . S
C2011 C295 1.526 . S
C2025 C445 1.527 . S
C2029 C202 1.515 . S
C2043 C228 1.515 . S
C2047 C163 1.525 . S
C2061 C665 1.528 . S
C2065 C246 1.514 . S
C2079 C272 1.508 . S
C2083 C205 1.528 . S
C2097 C290 1.514 . S
C2101 C358 1.527 . S
C2115 C316 1.509 . S
C2119 C73 1.530 . S
C2133 C578 1.525 . S
C2137 C334 1.516 . S
C2151 C360 1.516 . S
C2155 C471 1.525 . S
C2169 C378 1.516 . S
C2173 C269 1.525 . S
C2187 C691 1.527 . S
C2191 C404 1.510 . S
C2205 C137 1.530 . S
C2209 C422 1.506 . S
C2223 C448 1.514 . S
C2227 C381 1.528 . S
C2241 C182 1.528 . S
C2245 C466 1.513 . S
C2259 C601 1.531 . S
C2263 C492 1.505 . S
C2277 C510 1.515 . S
C2281 C50 1.526 . S
C2295 C647 1.527 . S
C2299 C536 1.511 . S
C2313 C554 1.510 . S
C2317 C93 1.527 . S
C2331 C515 1.526 . S
C2335 C580 1.511 . S
C2349 C313 1.528 . S
C2353 C598 1.514 . S
C2367 C557 1.531 . S
C2371 C624 1.505 . S
C2385 C642 1.517 . S
C2389 C6 1.525 . S
C2403 C425 1.530 . S
C2407 C668 1.506 . S
C2421 C686 1.506 . S
C2425 C226 1.530 . S
