# Generated by pormake.
# Topology sxe, (6)-cn, num edge types: 1
# Building blocks:
#     Node 0, Type 0, BuildingBlock: IZENUY_clean_sbu_0, # of connection points: 6
#     Node 1, Type 0, BuildingBlock: IZENUY_clean_sbu_0, # of connection points: 6
#     Node 2, Type 0, BuildingBlock: IZENUY_clean_sbu_0, # of connection points: 6
#     Node 3, Type 0, BuildingBlock: IZENUY_clean_sbu_0, # of connection points: 6
#     Node 4, Type 0, BuildingBlock: IZENUY_clean_sbu_0, # of connection points: 6
#     Node 5, Type 0, BuildingBlock: IZENUY_clean_sbu_0, # of connection points: 6
#     Node 6, Type 0, BuildingBlock: IZENUY_clean_sbu_0, # of connection points: 6
#     Node 7, Type 0, BuildingBlock: IZENUY_clean_sbu_0, # of connection points: 6
#     Node 8, Type 0, BuildingBlock: IZENUY_clean_sbu_0, # of connection points: 6
#     Node 9, Type 0, BuildingBlock: IZENUY_clean_sbu_0, # of connection points: 6
#     Node 10, Type 0, BuildingBlock: IZENUY_clean_sbu_0, # of connection points: 6
#     Node 11, Type 0, BuildingBlock: IZENUY_clean_sbu_0, # of connection points: 6
#     Node 12, Type 0, BuildingBlock: IZENUY_clean_sbu_0, # of connection points: 6
#     Node 13, Type 0, BuildingBlock: IZENUY_clean_sbu_0, # of connection points: 6
#     Node 14, Type 0, BuildingBlock: IZENUY_clean_sbu_0, # of connection points: 6
#     Node 15, Type 0, BuildingBlock: IZENUY_clean_sbu_0, # of connection points: 6
#     Node 16, Type 0, BuildingBlock: IZENUY_clean_sbu_0, # of connection points: 6
#     Node 17, Type 0, BuildingBlock: IZENUY_clean_sbu_0, # of connection points: 6
#     Node 18, Type 0, BuildingBlock: IZENUY_clean_sbu_0, # of connection points: 6
#     Node 19, Type 0, BuildingBlock: IZENUY_clean_sbu_0, # of connection points: 6
#     Node 20, Type 0, BuildingBlock: IZENUY_clean_sbu_0, # of connection points: 6
#     Node 21, Type 0, BuildingBlock: IZENUY_clean_sbu_0, # of connection points: 6
#     Node 22, Type 0, BuildingBlock: IZENUY_clean_sbu_0, # of connection points: 6
#     Node 23, Type 0, BuildingBlock: IZENUY_clean_sbu_0, # of connection points: 6
#     Edge 24, Type (0, 0), BuildingBlock: KIFKEQ_clean_linker_1, # of connection points: 2
#     Edge 25, Type (0, 0), BuildingBlock: KIFKEQ_clean_linker_1, # of connection points: 2
#     Edge 26, Type (0, 0), BuildingBlock: KIFKEQ_clean_linker_1, # of connection points: 2
#     Edge 27, Type (0, 0), BuildingBlock: KIFKEQ_clean_linker_1, # of connection points: 2
#     Edge 28, Type (0, 0), BuildingBlock: KIFKEQ_clean_linker_1, # of connection points: 2
#     Edge 29, Type (0, 0), BuildingBlock: KIFKEQ_clean_linker_1, # of connection points: 2
#     Edge 30, Type (0, 0), BuildingBlock: KIFKEQ_clean_linker_1, # of connection points: 2
#     Edge 31, Type (0, 0), BuildingBlock: KIFKEQ_clean_linker_1, # of connection points: 2
#     Edge 32, Type (0, 0), BuildingBlock: KIFKEQ_clean_linker_1, # of connection points: 2
#     Edge 33, Type (0, 0), BuildingBlock: KIFKEQ_clean_linker_1, # of connection points: 2
#     Edge 34, Type (0, 0), BuildingBlock: KIFKEQ_clean_linker_1, # of connection points: 2
#     Edge 35, Type (0, 0), BuildingBlock: KIFKEQ_clean_linker_1, # of connection points: 2
#     Edge 36, Type (0, 0), BuildingBlock: KIFKEQ_clean_linker_1, # of connection points: 2
#     Edge 37, Type (0, 0), BuildingBlock: KIFKEQ_clean_linker_1, # of connection points: 2
#     Edge 38, Type (0, 0), BuildingBlock: KIFKEQ_clean_linker_1, # of connection points: 2
#     Edge 39, Type (0, 0), BuildingBlock: KIFKEQ_clean_linker_1, # of connection points: 2
#     Edge 40, Type (0, 0), BuildingBlock: KIFKEQ_clean_linker_1, # of connection points: 2
#     Edge 41, Type (0, 0), BuildingBlock: KIFKEQ_clean_linker_1, # of connection points: 2
#     Edge 42, Type (0, 0), BuildingBlock: KIFKEQ_clean_linker_1, # of connection points: 2
#     Edge 43, Type (0, 0), BuildingBlock: KIFKEQ_clean_linker_1, # of connection points: 2
#     Edge 44, Type (0, 0), BuildingBlock: KIFKEQ_clean_linker_1, # of connection points: 2
#     Edge 45, Type (0, 0), BuildingBlock: KIFKEQ_clean_linker_1, # of connection points: 2
#     Edge 46, Type (0, 0), BuildingBlock: KIFKEQ_clean_linker_1, # of connection points: 2
#     Edge 47, Type (0, 0), BuildingBlock: KIFKEQ_clean_linker_1, # of connection points: 2
#     Edge 48, Type (0, 0), BuildingBlock: KIFKEQ_clean_linker_1, # of connection points: 2
#     Edge 49, Type (0, 0), BuildingBlock: KIFKEQ_clean_linker_1, # of connection points: 2
#     Edge 50, Type (0, 0), BuildingBlock: KIFKEQ_clean_linker_1, # of connection points: 2
#     Edge 51, Type (0, 0), BuildingBlock: KIFKEQ_clean_linker_1, # of connection points: 2
#     Edge 52, Type (0, 0), BuildingBlock: KIFKEQ_clean_linker_1, # of connection points: 2
#     Edge 53, Type (0, 0), BuildingBlock: KIFKEQ_clean_linker_1, # of connection points: 2
#     Edge 54, Type (0, 0), BuildingBlock: KIFKEQ_clean_linker_1, # of connection points: 2
#     Edge 55, Type (0, 0), BuildingBlock: KIFKEQ_clean_linker_1, # of connection points: 2
#     Edge 56, Type (0, 0), BuildingBlock: KIFKEQ_clean_linker_1, # of connection points: 2
#     Edge 57, Type (0, 0), BuildingBlock: KIFKEQ_clean_linker_1, # of connection points: 2
#     Edge 58, Type (0, 0), BuildingBlock: KIFKEQ_clean_linker_1, # of connection points: 2
#     Edge 59, Type (0, 0), BuildingBlock: KIFKEQ_clean_linker_1, # of connection points: 2
#     Edge 60, Type (0, 0), BuildingBlock: KIFKEQ_clean_linker_1, # of connection points: 2
#     Edge 61, Type (0, 0), BuildingBlock: KIFKEQ_clean_linker_1, # of connection points: 2
#     Edge 62, Type (0, 0), BuildingBlock: KIFKEQ_clean_linker_1, # of connection points: 2
#     Edge 63, Type (0, 0), BuildingBlock: KIFKEQ_clean_linker_1, # of connection points: 2
#     Edge 64, Type (0, 0), BuildingBlock: KIFKEQ_clean_linker_1, # of connection points: 2
#     Edge 65, Type (0, 0), BuildingBlock: KIFKEQ_clean_linker_1, # of connection points: 2
#     Edge 66, Type (0, 0), BuildingBlock: KIFKEQ_clean_linker_1, # of connection points: 2
#     Edge 67, Type (0, 0), BuildingBlock: KIFKEQ_clean_linker_1, # of connection points: 2
#     Edge 68, Type (0, 0), BuildingBlock: KIFKEQ_clean_linker_1, # of connection points: 2
#     Edge 69, Type (0, 0), BuildingBlock: KIFKEQ_clean_linker_1, # of connection points: 2
#     Edge 70, Type (0, 0), BuildingBlock: KIFKEQ_clean_linker_1, # of connection points: 2
#     Edge 71, Type (0, 0), BuildingBlock: KIFKEQ_clean_linker_1, # of connection points: 2
#     Edge 72, Type (0, 0), BuildingBlock: KIFKEQ_clean_linker_1, # of connection points: 2
#     Edge 73, Type (0, 0), BuildingBlock: KIFKEQ_clean_linker_1, # of connection points: 2
#     Edge 74, Type (0, 0), BuildingBlock: KIFKEQ_clean_linker_1, # of connection points: 2
#     Edge 75, Type (0, 0), BuildingBlock: KIFKEQ_clean_linker_1, # of connection points: 2
#     Edge 76, Type (0, 0), BuildingBlock: KIFKEQ_clean_linker_1, # of connection points: 2
#     Edge 77, Type (0, 0), BuildingBlock: KIFKEQ_clean_linker_1, # of connection points: 2
#     Edge 78, Type (0, 0), BuildingBlock: KIFKEQ_clean_linker_1, # of connection points: 2
#     Edge 79, Type (0, 0), BuildingBlock: KIFKEQ_clean_linker_1, # of connection points: 2
#     Edge 80, Type (0, 0), BuildingBlock: KIFKEQ_clean_linker_1, # of connection points: 2
#     Edge 81, Type (0, 0), BuildingBlock: KIFKEQ_clean_linker_1, # of connection points: 2
#     Edge 82, Type (0, 0), BuildingBlock: KIFKEQ_clean_linker_1, # of connection points: 2
#     Edge 83, Type (0, 0), BuildingBlock: KIFKEQ_clean_linker_1, # of connection points: 2
#     Edge 84, Type (0, 0), BuildingBlock: KIFKEQ_clean_linker_1, # of connection points: 2
#     Edge 85, Type (0, 0), BuildingBlock: KIFKEQ_clean_linker_1, # of connection points: 2
#     Edge 86, Type (0, 0), BuildingBlock: KIFKEQ_clean_linker_1, # of connection points: 2
#     Edge 87, Type (0, 0), BuildingBlock: KIFKEQ_clean_linker_1, # of connection points: 2
#     Edge 88, Type (0, 0), BuildingBlock: KIFKEQ_clean_linker_1, # of connection points: 2
#     Edge 89, Type (0, 0), BuildingBlock: KIFKEQ_clean_linker_1, # of connection points: 2
#     Edge 90, Type (0, 0), BuildingBlock: KIFKEQ_clean_linker_1, # of connection points: 2
#     Edge 91, Type (0, 0), BuildingBlock: KIFKEQ_clean_linker_1, # of connection points: 2
#     Edge 92, Type (0, 0), BuildingBlock: KIFKEQ_clean_linker_1, # of connection points: 2
#     Edge 93, Type (0, 0), BuildingBlock: KIFKEQ_clean_linker_1, # of connection points: 2
#     Edge 94, Type (0, 0), BuildingBlock: KIFKEQ_clean_linker_1, # of connection points: 2
#     Edge 95, Type (0, 0), BuildingBlock: KIFKEQ_clean_linker_1, # of connection points: 2
# Relax obj value: 0.307
# Max RMSD: 0.231
# Mean RMSD: 0.230
data_MOF--net-sxe--node1-IZENUY_clean_sbu_0--edge1-KIFKEQ_clean_linker_1
_symmetry_space_group_name_H-M    P1
_symmetry_Int_Tables_number       1
_symmetry_cell_setting            triclinic
loop_
_symmetry_equiv_pos_as_xyz
'x, y, z'
_cell_length_a     48.127521
_cell_length_b     48.092291
_cell_length_c     48.14474
_cell_angle_alpha  90.051504
_cell_angle_beta   89.87661
_cell_angle_gamma 90.048865
loop_
_atom_site_label
_atom_site_type_symbol
_atom_site_fract_x
_atom_site_fract_y
_atom_site_fract_z
_atom_type_partial_charge
Fe0 Fe 0.16148 0.45093 0.26611 0.0
Fe1 Fe 0.18502 0.40266 0.23162 0.0
O2 O 0.18467 0.43847 0.24022 0.0
Fe3 Fe 0.20775 0.46186 0.22327 0.0
O4 O 0.22396 0.47166 0.25615 0.0
O5 O 0.18467 0.47835 0.27845 0.0
O6 O 0.1767 0.42843 0.29252 0.0
C7 C 0.17863 0.40235 0.29016 0.0
C8 C 0.15777 0.49309 0.22829 0.0
O9 O 0.17688 0.3907 0.26669 0.0
C10 C 0.19147 0.42933 0.17937 0.0
O11 O 0.13399 0.42554 0.25881 0.0
O12 O 0.14853 0.40282 0.22205 0.0
O13 O 0.18384 0.49144 0.2249 0.0
O14 O 0.14477 0.47449 0.2416 0.0
C15 C 0.2408 0.41336 0.2296 0.0
O16 O 0.19309 0.40825 0.19498 0.0
O17 O 0.19345 0.45369 0.18914 0.0
C18 C 0.12922 0.40953 0.23849 0.0
O19 O 0.22154 0.39939 0.24062 0.0
O20 O 0.23577 0.43655 0.21833 0.0
C21 C 0.21076 0.48104 0.27688 0.0
Fe22 Fe 0.35295 0.55886 0.76377 0.0
Fe23 Fe 0.32886 0.60561 0.72806 0.0
O24 O 0.32945 0.57009 0.73768 0.0
Fe25 Fe 0.30619 0.5461 0.72193 0.0
O26 O 0.29115 0.53647 0.75538 0.0
O27 O 0.33063 0.53118 0.77733 0.0
O28 O 0.33715 0.58203 0.78948 0.0
C29 C 0.33494 0.60799 0.7861 0.0
C30 C 0.35728 0.5167 0.72573 0.0
O31 O 0.33816 0.61862 0.76235 0.0
C32 C 0.32042 0.57787 0.67676 0.0
O33 O 0.37999 0.58444 0.75505 0.0
O34 O 0.36502 0.60502 0.71725 0.0
O35 O 0.3311 0.51731 0.72273 0.0
O36 O 0.36984 0.53494 0.73989 0.0
C37 C 0.27298 0.5942 0.72971 0.0
O38 O 0.31941 0.59926 0.69196 0.0
O39 O 0.31895 0.5538 0.6871 0.0
C40 C 0.38459 0.59896 0.73356 0.0
O41 O 0.29282 0.60893 0.73846 0.0
O42 O 0.27747 0.57092 0.71825 0.0
C43 C 0.30465 0.52766 0.77601 0.0
Fe44 Fe 0.70326 0.04732 0.78048 0.0
Fe45 Fe 0.65865 0.0544 0.73536 0.0
O46 O 0.68087 0.06898 0.76083 0.0
Fe47 Fe 0.6811 0.10541 0.76598 0.0
O48 O 0.71757 0.10758 0.75683 0.0
O49 O 0.73146 0.07297 0.78315 0.0
O50 O 0.72028 0.03421 0.74912 0.0
C51 C 0.70777 0.02322 0.72884 0.0
C52 C 0.68704 0.0841 0.82083 0.0
O53 O 0.68176 0.02566 0.7264 0.0
C54 C 0.6257 0.09762 0.75904 0.0
O55 O 0.67879 0.01804 0.78146 0.0
O56 O 0.6407 0.03329 0.76113 0.0
O57 O 0.689 0.10346 0.80313 0.0
O58 O 0.68823 0.05893 0.81332 0.0
C59 C 0.67766 0.10039 0.70783 0.0
O60 O 0.63126 0.0807 0.73959 0.0
O61 O 0.64456 0.10569 0.77533 0.0
C62 C 0.65282 0.01644 0.77724 0.0
O63 O 0.67565 0.07424 0.70783 0.0
O64 O 0.67338 0.11425 0.72973 0.0
C65 C 0.7367 0.09454 0.76902 0.0
Fe66 Fe 0.84048 0.94454 0.2377 0.0
Fe67 Fe 0.81301 0.89982 0.27377 0.0
O68 O 0.81665 0.93517 0.26429 0.0
Fe69 Fe 0.79637 0.96084 0.28142 0.0
O70 O 0.79273 0.98329 0.25077 0.0
O71 O 0.81335 0.96021 0.21704 0.0
O72 O 0.83497 0.91268 0.21719 0.0
C73 C 0.81482 0.89565 0.21721 0.0
C74 C 0.84616 0.98817 0.27744 0.0
O75 O 0.80134 0.8908 0.23919 0.0
C76 C 0.81198 0.92403 0.32487 0.0
O77 O 0.86976 0.92939 0.2562 0.0
O78 O 0.84892 0.89 0.26561 0.0
O79 O 0.8271 0.97918 0.29305 0.0
O80 O 0.84975 0.97818 0.25333 0.0
C81 C 0.75783 0.91966 0.27659 0.0
O82 O 0.82429 0.90711 0.30899 0.0
O83 O 0.79629 0.9428 0.31511 0.0
C84 C 0.87097 0.90413 0.26314 0.0
O85 O 0.77635 0.90249 0.28361 0.0
O86 O 0.76392 0.94454 0.2712 0.0
C87 C 0.79654 0.97859 0.22515 0.0
Fe88 Fe 0.21026 0.21086 0.46231 0.0
Fe89 Fe 0.25762 0.17141 0.44451 0.0
O90 O 0.22791 0.19154 0.43624 0.0
Fe91 Fe 0.2157 0.19287 0.40167 0.0
O92 O 0.20211 0.2284 0.40427 0.0
O93 O 0.21709 0.24359 0.44454 0.0
O94 O 0.24133 0.21773 0.48362 0.0
C95 C 0.26701 0.21657 0.47792 0.0
C96 C 0.16621 0.19021 0.42812 0.0
O97 O 0.27565 0.20126 0.45856 0.0
C98 C 0.23407 0.13682 0.40623 0.0
O99 O 0.2025 0.17972 0.4817 0.0
O100 O 0.24425 0.16083 0.47909 0.0
O101 O 0.18267 0.17799 0.41175 0.0
O102 O 0.17557 0.20735 0.44595 0.0
C103 C 0.27165 0.19739 0.39303 0.0
O104 O 0.24247 0.13963 0.43084 0.0
O105 O 0.22715 0.15781 0.39209 0.0
C106 C 0.22029 0.16248 0.49024 0.0
O107 O 0.27587 0.17889 0.41142 0.0
O108 O 0.24788 0.20787 0.38972 0.0
C109 C 0.20888 0.24822 0.42015 0.0
Fe110 Fe 0.27843 0.81917 0.90334 0.0
Fe111 Fe 0.2899 0.79473 0.96143 0.0
O112 O 0.27102 0.8176 0.93936 0.0
Fe113 Fe 0.2441 0.83862 0.95331 0.0
O114 O 0.21824 0.82168 0.93154 0.0
O115 O 0.24237 0.82524 0.89282 0.0
O116 O 0.27148 0.7824 0.89906 0.0
C117 C 0.2829 0.76293 0.9123 0.0
C118 C 0.26788 0.87396 0.91191 0.0
O119 O 0.29494 0.76751 0.93518 0.0
C120 C 0.28348 0.84396 0.99374 0.0
O121 O 0.31574 0.81326 0.90739 0.0
O122 O 0.323 0.81076 0.95251 0.0
O123 O 0.24841 0.86715 0.92828 0.0
O124 O 0.28573 0.85621 0.90463 0.0
C125 C 0.23718 0.78818 0.98204 0.0
O126 O 0.28827 0.8181 0.99153 0.0
O127 O 0.26842 0.85641 0.97618 0.0
C128 C 0.3319 0.81426 0.92806 0.0
O129 O 0.25839 0.77649 0.97201 0.0
O130 O 0.23419 0.8142 0.98062 0.0
C131 C 0.21989 0.82018 0.90544 0.0
Fe132 Fe 0.72049 0.29382 0.54461 0.0
Fe133 Fe 0.76539 0.33724 0.55959 0.0
O134 O 0.73856 0.31391 0.5698 0.0
Fe135 Fe 0.72976 0.31044 0.60539 0.0
O136 O 0.71989 0.27377 0.60302 0.0
O137 O 0.73092 0.26111 0.56054 0.0
O138 O 0.75031 0.2901 0.52088 0.0
C139 C 0.77614 0.29376 0.52431 0.0
C140 C 0.67794 0.30947 0.58268 0.0
O141 O 0.78502 0.30981 0.54294 0.0
C142 C 0.742 0.3683 0.60099 0.0
O143 O 0.70857 0.32488 0.52695 0.0
O144 O 0.74857 0.34719 0.52674 0.0
O145 O 0.6943 0.32185 0.59907 0.0
O146 O 0.68732 0.29384 0.56363 0.0
C147 C 0.78665 0.31137 0.60801 0.0
O148 O 0.74842 0.36699 0.57562 0.0
O149 O 0.73834 0.34636 0.61497 0.0
C150 C 0.72394 0.34413 0.51788 0.0
O151 O 0.78688 0.33108 0.59053 0.0
O152 O 0.76445 0.29859 0.61369 0.0
C153 C 0.72639 0.25515 0.58566 0.0
Fe154 Fe 0.7902 0.70182 0.04662 0.0
Fe155 Fe 0.74367 0.66185 0.06522 0.0
O156 O 0.77255 0.68334 0.0731 0.0
Fe157 Fe 0.78371 0.68701 0.10782 0.0
O158 O 0.79697 0.72243 0.10375 0.0
O159 O 0.78211 0.7352 0.06271 0.0
O160 O 0.7595 0.70691 0.02452 0.0
C161 C 0.7338 0.70561 0.02999 0.0
C162 C 0.83378 0.68368 0.08241 0.0
O163 O 0.72501 0.69044 0.04942 0.0
C164 C 0.76674 0.63031 0.10606 0.0
O165 O 0.79921 0.66996 0.02896 0.0
O166 O 0.75786 0.65028 0.03138 0.0
O167 O 0.81743 0.67226 0.09955 0.0
O168 O 0.82437 0.69987 0.06382 0.0
C169 C 0.72738 0.69109 0.11367 0.0
O170 O 0.75967 0.63127 0.08085 0.0
O171 O 0.77231 0.65247 0.11904 0.0
C172 C 0.78202 0.65196 0.02071 0.0
O173 O 0.72462 0.67037 0.09752 0.0
O174 O 0.75079 0.70227 0.11748 0.0
C175 C 0.78969 0.74122 0.08701 0.0
Fe176 Fe 0.45228 0.2225 0.20346 0.0
Fe177 Fe 0.4437 0.26447 0.15618 0.0
O178 O 0.42999 0.23942 0.17948 0.0
Fe179 Fe 0.39393 0.23213 0.17928 0.0
O180 O 0.39029 0.24239 0.21529 0.0
O181 O 0.42619 0.21934 0.23134 0.0
O182 O 0.46279 0.25559 0.21896 0.0
C183 C 0.47331 0.2755 0.20541 0.0
C184 C 0.41876 0.17906 0.18812 0.0
O185 O 0.47152 0.27607 0.17924 0.0
C186 C 0.40178 0.23784 0.12377 0.0
O187 O 0.48228 0.2224 0.17965 0.0
O188 O 0.46637 0.23876 0.13998 0.0
O189 O 0.3981 0.19538 0.18839 0.0
O190 O 0.4433 0.18827 0.19004 0.0
C191 C 0.39616 0.29021 0.17395 0.0
O192 O 0.41816 0.25789 0.12855 0.0
O193 O 0.3946 0.22166 0.1431 0.0
C194 C 0.4844 0.22519 0.15348 0.0
O195 O 0.42224 0.29162 0.17163 0.0
O196 O 0.38337 0.26758 0.17027 0.0
C197 C 0.40348 0.23201 0.23531 0.0
Fe198 Fe 0.96055 0.28614 0.79756 0.0
Fe199 Fe 0.94067 0.2415 0.83919 0.0
O200 O 0.93362 0.26994 0.81682 0.0
Fe201 Fe 0.89938 0.28279 0.81339 0.0
O202 O 0.90383 0.2945 0.77746 0.0
O203 O 0.94403 0.27719 0.76469 0.0
O204 O 0.98201 0.25481 0.79361 0.0
C205 C 0.97677 0.22921 0.7966 0.0
C206 C 0.92709 0.3316 0.81489 0.0
O207 O 0.95696 0.22133 0.81177 0.0
C208 C 0.90046 0.26749 0.87023 0.0
O209 O 0.97824 0.29592 0.82904 0.0
O210 O 0.97434 0.25574 0.851 0.0
O211 O 0.90955 0.31641 0.82714 0.0
O212 O 0.94448 0.32095 0.79814 0.0
C213 C 0.89074 0.22664 0.81085 0.0
O214 O 0.92506 0.25862 0.86918 0.0
O215 O 0.88764 0.27324 0.84818 0.0
C216 C 0.98489 0.2799 0.84866 0.0
O217 O 0.90809 0.22297 0.83045 0.0
O218 O 0.88773 0.2501 0.79954 0.0
C219 C 0.91996 0.28557 0.75875 0.0
Fe220 Fe 0.61093 0.73887 0.32345 0.0
Fe221 Fe 0.55195 0.72709 0.302 0.0
O222 O 0.57466 0.74477 0.325 0.0
Fe223 Fe 0.56127 0.76898 0.34935 0.0
O224 O 0.58095 0.79715 0.33347 0.0
O225 O 0.62056 0.77447 0.33329 0.0
O226 O 0.61245 0.75026 0.28778 0.0
C227 C 0.59901 0.73948 0.26809 0.0
C228 C 0.60495 0.74266 0.3793 0.0
O229 O 0.57677 0.72606 0.27273 0.0
C230 C 0.52322 0.72714 0.35373 0.0
O231 O 0.60803 0.70224 0.31295 0.0
O232 O 0.56329 0.69319 0.31436 0.0
O233 O 0.5883 0.76271 0.37557 0.0
O234 O 0.612 0.72729 0.35924 0.0
C235 C 0.52822 0.77903 0.30203 0.0
O236 O 0.52352 0.72475 0.32745 0.0
O237 O 0.5406 0.74237 0.3662 0.0
C238 C 0.58818 0.68498 0.31391 0.0
O239 O 0.53877 0.75969 0.28771 0.0
O240 O 0.53186 0.77983 0.32799 0.0
C241 C 0.60699 0.79682 0.3307 0.0
Fe242 Fe 0.05173 0.78221 0.71159 0.0
Fe243 Fe 0.0643 0.73677 0.66796 0.0
O244 O 0.07577 0.76417 0.68994 0.0
Fe245 Fe 0.1115 0.77318 0.69028 0.0
O246 O 0.11416 0.76547 0.72704 0.0
O247 O 0.0762 0.78728 0.74035 0.0
O248 O 0.0403 0.75028 0.72865 0.0
C249 C 0.03141 0.72891 0.71627 0.0
C250 C 0.085 0.82575 0.69517 0.0
O251 O 0.03613 0.72517 0.69073 0.0
C252 C 0.10576 0.76354 0.63492 0.0
O253 O 0.02338 0.78029 0.68643 0.0
O254 O 0.04124 0.76017 0.64927 0.0
O255 O 0.10597 0.8101 0.69709 0.0
O256 O 0.06071 0.81592 0.69669 0.0
C257 C 0.11267 0.71455 0.6874 0.0
O258 O 0.09039 0.74296 0.64078 0.0
O259 O 0.11168 0.78128 0.65335 0.0
C260 C 0.02296 0.77536 0.66057 0.0
O261 O 0.08666 0.71156 0.68546 0.0
O262 O 0.12385 0.73801 0.68364 0.0
C263 C 0.09932 0.77607 0.74591 0.0
Fe264 Fe 0.81331 0.60662 0.77368 0.0
Fe265 Fe 0.8412 0.56088 0.73877 0.0
O266 O 0.81756 0.57096 0.76535 0.0
Fe267 Fe 0.79777 0.54554 0.78351 0.0
O268 O 0.76495 0.56072 0.77254 0.0
O269 O 0.77664 0.60354 0.7833 0.0
O270 O 0.80167 0.61433 0.73882 0.0
C271 C 0.81473 0.60858 0.71682 0.0
C272 C 0.81228 0.5844 0.82573 0.0
O273 O 0.83473 0.59146 0.71695 0.0
C274 C 0.84832 0.51971 0.78077 0.0
O275 O 0.84917 0.61681 0.76545 0.0
O276 O 0.87052 0.57767 0.75573 0.0
O277 O 0.79715 0.56492 0.81644 0.0
O278 O 0.82438 0.60095 0.80928 0.0
C279 C 0.79834 0.5246 0.72821 0.0
O280 O 0.85164 0.52844 0.75612 0.0
O281 O 0.82882 0.5286 0.79588 0.0
C282 C 0.87135 0.60306 0.7623 0.0
O283 O 0.81403 0.54352 0.71915 0.0
O284 O 0.7949 0.52128 0.75407 0.0
C285 C 0.75844 0.58573 0.77691 0.0
Fe286 Fe 0.69696 0.4609 0.28833 0.0
Fe287 Fe 0.68008 0.39992 0.28353 0.0
O288 O 0.67787 0.43447 0.27117 0.0
Fe289 Fe 0.65702 0.44233 0.24185 0.0
O290 O 0.68613 0.45701 0.22291 0.0
O291 O 0.70305 0.48206 0.25707 0.0
O292 O 0.72975 0.44357 0.28067 0.0
C293 C 0.73497 0.41913 0.28847 0.0
C294 C 0.64803 0.48811 0.27893 0.0
O295 O 0.71573 0.40312 0.29637 0.0
C296 C 0.62368 0.40353 0.26684 0.0
O297 O 0.69445 0.44462 0.3231 0.0
O298 O 0.6657 0.40976 0.31688 0.0
O299 O 0.64648 0.47686 0.25505 0.0
O300 O 0.66547 0.47982 0.29666 0.0
C301 C 0.68383 0.39146 0.22748 0.0
O302 O 0.64513 0.38973 0.27284 0.0
O303 O 0.62581 0.42815 0.25804 0.0
C304 C 0.6779 0.4265 0.33294 0.0
O305 O 0.69468 0.38824 0.25108 0.0
O306 O 0.66467 0.40925 0.22367 0.0
C307 C 0.70161 0.47632 0.23144 0.0
Fe308 Fe 0.29886 0.96146 0.22588 0.0
Fe309 Fe 0.31359 0.90048 0.23669 0.0
O310 O 0.3178 0.93612 0.24476 0.0
Fe311 Fe 0.34083 0.94625 0.27168 0.0
O312 O 0.3131 0.9633 0.29074 0.0
O313 O 0.29514 0.98567 0.2553 0.0
O314 O 0.26554 0.94651 0.2359 0.0
C315 C 0.25899 0.92156 0.23123 0.0
C316 C 0.34919 0.98767 0.23004 0.0
O317 O 0.27734 0.90361 0.22577 0.0
C318 C 0.37128 0.90412 0.2487 0.0
O319 O 0.29923 0.94186 0.19302 0.0
O320 O 0.32602 0.90582 0.20145 0.0
O321 O 0.35148 0.97906 0.25485 0.0
O322 O 0.33054 0.97817 0.2143 0.0
C323 C 0.31387 0.8984 0.29341 0.0
O324 O 0.34903 0.89036 0.24613 0.0
O325 O 0.37046 0.92965 0.25485 0.0
C326 C 0.31456 0.92218 0.18445 0.0
O327 O 0.30076 0.89313 0.27134 0.0
O328 O 0.33403 0.91542 0.29336 0.0
C329 C 0.29756 0.9821 0.28126 0.0
Fe330 Fe 0.19352 0.10407 0.73268 0.0
Fe331 Fe 0.16582 0.06032 0.76987 0.0
O332 O 0.18868 0.06891 0.74217 0.0
Fe333 Fe 0.20711 0.04254 0.72402 0.0
O334 O 0.24068 0.05719 0.73364 0.0
O335 O 0.22967 0.09981 0.72156 0.0
O336 O 0.20692 0.1124 0.76674 0.0
C337 C 0.19434 0.10824 0.78937 0.0
C338 C 0.19232 0.08082 0.68129 0.0
O339 O 0.17379 0.09171 0.79058 0.0
C340 C 0.15617 0.01771 0.72947 0.0
O341 O 0.15848 0.11537 0.74241 0.0
O342 O 0.13621 0.07712 0.75329 0.0
O343 O 0.2073 0.06118 0.69051 0.0
O344 O 0.18063 0.09758 0.69781 0.0
C345 C 0.20849 0.02381 0.77994 0.0
O346 O 0.1542 0.02727 0.75403 0.0
O347 O 0.175 0.02615 0.71322 0.0
C348 C 0.13592 0.10252 0.74666 0.0
O349 O 0.19343 0.04327 0.78891 0.0
O350 O 0.2104 0.01911 0.7541 0.0
C351 C 0.24759 0.08191 0.72833 0.0
Fe352 Fe 0.7896 0.81639 0.60522 0.0
Fe353 Fe 0.74943 0.84246 0.56333 0.0
O354 O 0.77732 0.81957 0.57078 0.0
Fe355 Fe 0.79314 0.79935 0.54434 0.0
O356 O 0.78408 0.76704 0.5618 0.0
O357 O 0.80131 0.78038 0.60166 0.0
O358 O 0.75644 0.80282 0.61639 0.0
C359 C 0.73339 0.81483 0.61301 0.0
C360 C 0.83865 0.81719 0.57774 0.0
O361 O 0.7309 0.83518 0.5963 0.0
C362 C 0.78677 0.84909 0.51742 0.0
O363 O 0.78015 0.85155 0.61621 0.0
O364 O 0.76753 0.87232 0.57796 0.0
O365 O 0.82802 0.8005 0.56023 0.0
O366 O 0.82343 0.82961 0.59522 0.0
C367 C 0.73612 0.7984 0.5293 0.0
O368 O 0.76337 0.85292 0.52913 0.0
O369 O 0.80291 0.82995 0.52509 0.0
C370 C 0.77558 0.87359 0.60281 0.0
O371 O 0.72865 0.81498 0.54814 0.0
O372 O 0.76153 0.79478 0.52366 0.0
C373 C 0.79247 0.76143 0.58587 0.0
Fe374 Fe 0.73011 0.1839 0.10273 0.0
Fe375 Fe 0.76242 0.16057 0.05308 0.0
O376 O 0.73701 0.18367 0.0666 0.0
Fe377 Fe 0.7192 0.20687 0.04406 0.0
O378 O 0.71598 0.23519 0.06965 0.0
O379 O 0.73968 0.22018 0.10558 0.0
O380 O 0.76583 0.17563 0.11307 0.0
C381 C 0.78856 0.1787 0.10018 0.0
C382 C 0.6766 0.19104 0.07859 0.0
O383 O 0.78963 0.17657 0.07407 0.0
C384 C 0.7222 0.15616 0.01334 0.0
O385 O 0.72024 0.14757 0.10272 0.0
O386 O 0.75644 0.13317 0.07902 0.0
O387 O 0.68534 0.19309 0.05391 0.0
O388 O 0.69313 0.19214 0.099 0.0
C389 C 0.77194 0.20945 0.0222 0.0
O390 O 0.73695 0.14352 0.03101 0.0
O391 O 0.71885 0.18234 0.01468 0.0
C392 C 0.73644 0.12832 0.09546 0.0
O393 O 0.7733 0.18336 0.0248 0.0
O394 O 0.75177 0.22279 0.03249 0.0
C395 C 0.72858 0.23975 0.09227 0.0
Fe396 Fe 0.2924 0.7037 0.46415 0.0
Fe397 Fe 0.28384 0.69072 0.40271 0.0
O398 O 0.27359 0.68642 0.4377 0.0
Fe399 Fe 0.24455 0.66526 0.44588 0.0
O400 O 0.22679 0.69386 0.46288 0.0
O401 O 0.26227 0.70889 0.48726 0.0
O402 O 0.28475 0.73775 0.44925 0.0
C403 C 0.29143 0.74424 0.42477 0.0
C404 C 0.28382 0.6529 0.48843 0.0
O405 O 0.29782 0.72579 0.40726 0.0
C406 C 0.26731 0.6342 0.40412 0.0
O407 O 0.32616 0.70131 0.44592 0.0
O408 O 0.31733 0.67521 0.40945 0.0
O409 O 0.25918 0.65258 0.47898 0.0
O410 O 0.30107 0.67105 0.48057 0.0
C411 C 0.22759 0.69556 0.39835 0.0
O412 O 0.27179 0.65654 0.39106 0.0
O413 O 0.25997 0.63489 0.42928 0.0
C414 C 0.33444 0.68539 0.4265 0.0
O415 O 0.25098 0.70671 0.39442 0.0
O416 O 0.22497 0.67463 0.41423 0.0
C417 C 0.23639 0.70831 0.48249 0.0
Fe418 Fe 0.21779 0.32509 0.90063 0.0
Fe419 Fe 0.26028 0.34664 0.94317 0.0
O420 O 0.23102 0.32567 0.9349 0.0
Fe421 Fe 0.21458 0.30472 0.96056 0.0
O422 O 0.22239 0.27285 0.94127 0.0
O423 O 0.20556 0.2892 0.90235 0.0
O424 O 0.24998 0.31155 0.88741 0.0
C425 C 0.27383 0.32171 0.89112 0.0
C426 C 0.16917 0.32514 0.92875 0.0
O427 O 0.27834 0.33976 0.90992 0.0
C428 C 0.22295 0.35373 0.98897 0.0
O429 O 0.22796 0.36046 0.89158 0.0
O430 O 0.24431 0.37832 0.92998 0.0
O431 O 0.17969 0.30742 0.94515 0.0
O432 O 0.18455 0.3385 0.91218 0.0
C433 C 0.27152 0.30084 0.97547 0.0
O434 O 0.24678 0.35641 0.97775 0.0
O435 O 0.20613 0.33509 0.98113 0.0
C436 C 0.23526 0.38133 0.90562 0.0
O437 O 0.27957 0.31747 0.95698 0.0
O438 O 0.246 0.29816 0.98106 0.0
C439 C 0.21509 0.2692 0.91634 0.0
Fe440 Fe 0.56037 0.73692 0.84615 0.0
Fe441 Fe 0.55375 0.78071 0.80028 0.0
O442 O 0.57511 0.76246 0.8241 0.0
Fe443 Fe 0.6112 0.76909 0.82577 0.0
O444 O 0.62075 0.73297 0.8338 0.0
O445 O 0.58147 0.70981 0.8302 0.0
O446 O 0.53266 0.72697 0.8222 0.0
C447 C 0.53138 0.7285 0.79605 0.0
C448 C 0.60167 0.76149 0.88071 0.0
O449 O 0.54273 0.74851 0.78341 0.0
C450 C 0.58782 0.82299 0.81768 0.0
O451 O 0.5383 0.76268 0.86284 0.0
O452 O 0.5233 0.78088 0.82359 0.0
O453 O 0.60936 0.77841 0.86226 0.0
O454 O 0.58547 0.74168 0.8745 0.0
C455 C 0.60355 0.77148 0.76953 0.0
O456 O 0.5632 0.81429 0.81499 0.0
O457 O 0.6081 0.80621 0.81773 0.0
C458 C 0.52102 0.77746 0.8497 0.0
O459 O 0.5806 0.78393 0.77308 0.0
O460 O 0.61586 0.76018 0.78963 0.0
C461 C 0.60767 0.7106 0.82911 0.0
Fe462 Fe 0.05152 0.72931 0.21032 0.0
Fe463 Fe 0.10981 0.73778 0.18486 0.0
O464 O 0.0739 0.74559 0.18581 0.0
Fe465 Fe 0.06033 0.7703 0.16216 0.0
O466 O 0.03232 0.78227 0.18493 0.0
O467 O 0.04088 0.76269 0.22504 0.0
O468 O 0.07764 0.72704 0.23806 0.0
C469 C 0.10105 0.73866 0.24117 0.0
C470 C 0.02032 0.73007 0.16019 0.0
O471 O 0.11428 0.74811 0.22064 0.0
C472 C 0.10151 0.74296 0.12948 0.0
O473 O 0.06022 0.69466 0.19793 0.0
O474 O 0.10543 0.70117 0.19423 0.0
O475 O 0.03794 0.74413 0.14655 0.0
O476 O 0.02173 0.72843 0.18649 0.0
C477 C 0.10803 0.7962 0.17872 0.0
O478 O 0.10832 0.72681 0.14884 0.0
O479 O 0.08586 0.76351 0.13449 0.0
C480 C 0.0845 0.68523 0.19486 0.0
O481 O 0.12053 0.77324 0.17545 0.0
O482 O 0.08188 0.79767 0.17702 0.0
C483 C 0.03007 0.78205 0.21106 0.0
Fe484 Fe 0.39555 0.27045 0.68352 0.0
Fe485 Fe 0.44429 0.23608 0.66124 0.0
O486 O 0.4314 0.26261 0.68345 0.0
Fe487 Fe 0.45422 0.28093 0.70597 0.0
O488 O 0.42856 0.28622 0.73382 0.0
O489 O 0.39256 0.26194 0.71998 0.0
O490 O 0.3842 0.23491 0.6764 0.0
C491 C 0.39636 0.21211 0.68101 0.0
C492 C 0.42108 0.32354 0.68855 0.0
O493 O 0.42227 0.2099 0.67767 0.0
C494 C 0.48569 0.2749 0.65632 0.0
O495 O 0.39588 0.27924 0.64692 0.0
O496 O 0.41872 0.24211 0.63344 0.0
O497 O 0.44554 0.31421 0.69025 0.0
O498 O 0.40036 0.30747 0.69086 0.0
C499 C 0.47393 0.22781 0.71112 0.0
O500 O 0.46762 0.26047 0.64373 0.0
O501 O 0.48387 0.27904 0.68224 0.0
C502 C 0.40258 0.26226 0.6281 0.0
O503 O 0.47166 0.22498 0.68509 0.0
O504 O 0.46457 0.24905 0.7234 0.0
C505 C 0.40615 0.27351 0.73908 0.0
Fe506 Fe 0.95653 0.22263 0.29029 0.0
Fe507 Fe 0.89514 0.23377 0.30372 0.0
O508 O 0.9307 0.24186 0.30836 0.0
Fe509 Fe 0.94022 0.26936 0.33099 0.0
O510 O 0.95722 0.28792 0.30302 0.0
O511 O 0.98036 0.25237 0.28591 0.0
O512 O 0.94199 0.23137 0.25644 0.0
C513 C 0.91711 0.22677 0.24967 0.0
C514 C 0.98185 0.2286 0.34091 0.0
O515 O 0.8988 0.22196 0.26783 0.0
C516 C 0.89791 0.24683 0.36125 0.0
O517 O 0.93721 0.1896 0.2916 0.0
O518 O 0.90012 0.19882 0.31685 0.0
O519 O 0.97303 0.25338 0.34218 0.0
O520 O 0.97304 0.21216 0.3225 0.0
C521 C 0.8928 0.29043 0.3033 0.0
O522 O 0.88453 0.24402 0.33882 0.0
O523 O 0.92347 0.25282 0.36072 0.0
C524 C 0.91701 0.18152 0.30656 0.0
O525 O 0.88806 0.26824 0.29012 0.0
O526 O 0.90934 0.29054 0.32374 0.0
C527 C 0.97619 0.27835 0.28766 0.0
H528 H 0.18991 0.49669 0.32692 0.0
H529 H 0.26297 0.50488 0.27526 0.0
H530 H 0.20892 0.52985 0.35957 0.0
H531 H 0.28258 0.53792 0.3087 0.0
H532 H 0.25094 0.58238 0.42216 0.0
H533 H 0.24311 0.54101 0.39374 0.0
H534 H 0.27239 0.58532 0.32133 0.0
H535 H 0.28097 0.62613 0.34968 0.0
C536 C 0.2103 0.50528 0.32271 0.0
C537 C 0.22471 0.49845 0.29818 0.0
C538 C 0.22138 0.52414 0.3417 0.0
C539 C 0.24727 0.53674 0.3368 0.0
C540 C 0.2624 0.52888 0.31294 0.0
C541 C 0.25126 0.50984 0.29384 0.0
C542 C 0.25618 0.58311 0.40028 0.0
C543 C 0.26614 0.60776 0.38816 0.0
C544 C 0.25157 0.55943 0.38394 0.0
C545 C 0.25676 0.55989 0.35512 0.0
C546 C 0.26834 0.58403 0.34342 0.0
C547 C 0.27302 0.6076 0.35972 0.0
H548 H 0.21493 0.39528 0.85471 0.0
H549 H 0.26337 0.42826 0.92265 0.0
H550 H 0.22846 0.43437 0.82595 0.0
H551 H 0.27626 0.46815 0.89397 0.0
H552 H 0.32849 0.50394 0.82157 0.0
H553 H 0.30732 0.4734 0.85556 0.0
H554 H 0.2279 0.48274 0.81493 0.0
H555 H 0.24943 0.51294 0.78017 0.0
C556 C 0.22793 0.41127 0.8638 0.0
C557 C 0.23843 0.40832 0.89091 0.0
C558 C 0.23557 0.43389 0.84726 0.0
C559 C 0.25385 0.4543 0.8574 0.0
C560 C 0.26264 0.45249 0.88525 0.0
C561 C 0.25502 0.42975 0.90183 0.0
C562 C 0.30645 0.4997 0.81987 0.0
C563 C 0.29077 0.51068 0.79782 0.0
C564 C 0.2942 0.48234 0.83966 0.0
C565 C 0.26584 0.4755 0.83812 0.0
C566 C 0.24988 0.48725 0.81661 0.0
C567 C 0.2622 0.50464 0.79669 0.0
H568 H 0.79079 0.8832 0.65657 0.0
H569 H 0.75598 0.92418 0.58479 0.0
H570 H 0.77903 0.92309 0.68521 0.0
H571 H 0.74489 0.96459 0.61345 0.0
H572 H 0.76167 0.00351 0.73088 0.0
H573 H 0.78415 0.97173 0.69792 0.0
H574 H 0.70952 0.97089 0.64819 0.0
H575 H 0.68754 1.00265 0.68038 0.0
C576 C 0.78122 0.90101 0.64671 0.0
C577 C 0.77382 0.9002 0.61843 0.0
C578 C 0.77464 0.92404 0.66318 0.0
C579 C 0.76058 0.94691 0.65179 0.0
C580 C 0.75519 0.94704 0.62303 0.0
C581 C 0.76173 0.92394 0.60653 0.0
C582 C 0.75025 0.99673 0.71273 0.0
C583 C 0.72268 0.00538 0.7085 0.0
C584 C 0.76308 0.97848 0.69388 0.0
C585 C 0.74867 0.96874 0.67033 0.0
C586 C 0.72148 0.97824 0.66576 0.0
C587 C 0.70871 0.99626 0.68452 0.0
H588 H 0.74729 0.00638 0.22961 0.0
H589 H 0.81611 0.99211 0.17381 0.0
H590 H 0.72661 0.03814 0.19607 0.0
H591 H 0.79675 0.02512 0.14113 0.0
H592 H 0.7549 0.07726 0.07902 0.0
H593 H 0.76433 0.03727 0.10858 0.0
H594 H 0.73152 0.08238 0.17923 0.0
H595 H 0.72039 0.1212 0.14923 0.0
C596 C 0.75803 0.01017 0.21017 0.0
C597 C 0.78335 0.9969 0.20437 0.0
C598 C 0.74629 0.02852 0.19095 0.0
C599 C 0.75996 0.03456 0.16575 0.0
C600 C 0.78511 0.02074 0.15988 0.0
C601 C 0.79646 1.00192 0.17879 0.0
C602 C 0.74903 0.07818 0.10074 0.0
C603 C 0.737 0.10234 0.11182 0.0
C604 C 0.75477 0.05541 0.11784 0.0
C605 C 0.74936 0.0566 0.14661 0.0
C606 C 0.7358 0.08029 0.15725 0.0
C607 C 0.72942 0.10274 0.14 0.0
H608 H 0.40801 0.22638 0.5843 0.0
H609 H 0.36009 0.29699 0.61247 0.0
H610 H 0.37621 0.22011 0.54568 0.0
H611 H 0.32851 0.29101 0.57335 0.0
H612 H 0.25799 0.24164 0.52838 0.0
H613 H 0.29281 0.25743 0.56154 0.0
H614 H 0.35783 0.23768 0.50276 0.0
H615 H 0.3231 0.22133 0.46986 0.0
C616 C 0.39106 0.24099 0.58193 0.0
C617 C 0.38651 0.26199 0.60176 0.0
C618 C 0.37282 0.23746 0.55963 0.0
C619 C 0.34955 0.25487 0.55651 0.0
C620 C 0.34592 0.27691 0.5754 0.0
C621 C 0.3642 0.28047 0.59772 0.0
C622 C 0.27967 0.24105 0.52235 0.0
C623 C 0.28771 0.22987 0.49656 0.0
C624 C 0.29969 0.25025 0.54134 0.0
C625 C 0.32821 0.24859 0.53496 0.0
C626 C 0.33611 0.23877 0.50859 0.0
C627 C 0.31614 0.2295 0.48966 0.0
H628 H 0.09813 0.77953 0.08641 0.0
H629 H 0.14116 0.70524 0.1126 0.0
H630 H 0.12967 0.78427 0.04763 0.0
H631 H 0.17234 0.70931 0.07271 0.0
H632 H 0.24583 0.75439 0.0268 0.0
H633 H 0.21032 0.73763 0.05917 0.0
H634 H 0.14625 0.76946 0.00493 0.0
H635 H 0.18189 0.78757 0.97381 0.0
C636 C 0.11389 0.76372 0.08348 0.0
C637 C 0.11724 0.7422 0.10291 0.0
C638 C 0.13201 0.76632 0.06097 0.0
C639 C 0.15385 0.74727 0.05693 0.0
C640 C 0.15614 0.72469 0.07539 0.0
C641 C 0.13807 0.72221 0.09815 0.0
C642 C 0.2241 0.75713 0.02164 0.0
C643 C 0.21646 0.77236 0.99806 0.0
C644 C 0.20368 0.7475 0.04011 0.0
C645 C 0.17527 0.75262 0.03504 0.0
C646 C 0.16784 0.76584 0.01006 0.0
C647 C 0.18821 0.77598 0.99204 0.0
H648 H 0.84199 0.24141 0.36786 0.0
H649 H 0.91733 0.25534 0.41453 0.0
H650 H 0.81459 0.24916 0.40916 0.0
H651 H 0.88966 0.26188 0.4567 0.0
H652 H 0.8294 0.31073 0.5139 0.0
H653 H 0.86016 0.29532 0.47687 0.0
H654 H 0.79942 0.23378 0.45227 0.0
H655 H 0.76808 0.2503 0.4885 0.0
C656 C 0.85283 0.24559 0.38711 0.0
C657 C 0.88196 0.24802 0.38771 0.0
C658 C 0.83699 0.24981 0.41103 0.0
C659 C 0.84975 0.25624 0.43649 0.0
C660 C 0.87902 0.25746 0.43741 0.0
C661 C 0.89494 0.25349 0.41327 0.0
C662 C 0.82271 0.29372 0.50075 0.0
C663 C 0.7961 0.282 0.50392 0.0
C664 C 0.8405 0.2847 0.47956 0.0
C665 C 0.8323 0.26343 0.46121 0.0
C666 C 0.80624 0.25069 0.46545 0.0
C667 C 0.78828 0.26004 0.48635 0.0
H668 H 0.64549 0.79394 0.89784 0.0
H669 H 0.59337 0.72542 0.92371 0.0
H670 H 0.67618 0.78532 0.93718 0.0
H671 H 0.62432 0.71638 0.96234 0.0
H672 H 0.67772 0.71128 0.0378 0.0
H673 H 0.64379 0.73051 0.00564 0.0
H674 H 0.70976 0.74985 0.94776 0.0
H675 H 0.74373 0.73136 0.98022 0.0
C676 C 0.64027 0.77736 0.91215 0.0
C677 C 0.6171 0.76017 0.90736 0.0
C678 C 0.65804 0.77225 0.93457 0.0
C679 C 0.65302 0.74987 0.95273 0.0
C680 C 0.62882 0.73391 0.94897 0.0
C681 C 0.61107 0.73904 0.92664 0.0
C682 C 0.68503 0.71989 0.01833 0.0
C683 C 0.71345 0.71947 0.01148 0.0
C684 C 0.66553 0.73086 0.99983 0.0
C685 C 0.67394 0.74156 0.97396 0.0
C686 C 0.7025 0.74213 0.96761 0.0
C687 C 0.72202 0.7313 0.98617 0.0
H688 H 0.49389 0.32274 0.18228 0.0
H689 H 0.49168 0.27744 0.25973 0.0
H690 H 0.52563 0.35615 0.20231 0.0
H691 H 0.52328 0.31171 0.28025 0.0
H692 H 0.61211 0.35129 0.28558 0.0
H693 H 0.57174 0.32297 0.27515 0.0
H694 H 0.5332 0.39312 0.2346 0.0
H695 H 0.57425 0.42139 0.24431 0.0
C696 C 0.49991 0.32006 0.20378 0.0
C697 C 0.49053 0.29707 0.21925 0.0
C698 C 0.51794 0.33955 0.21541 0.0
C699 C 0.52712 0.33674 0.24294 0.0
C700 C 0.51687 0.31436 0.25887 0.0
C701 C 0.49869 0.29475 0.24717 0.0
C702 C 0.59488 0.3609 0.2748 0.0
C703 C 0.59672 0.38852 0.26529 0.0
C704 C 0.57154 0.34463 0.26902 0.0
C705 C 0.54931 0.35557 0.25365 0.0
C706 C 0.55022 0.38384 0.24598 0.0
C707 C 0.57367 0.40014 0.25171 0.0
H708 H 0.98587 0.17582 0.81426 0.0
H709 H 0.01202 0.23539 0.7525 0.0
H710 H 0.02196 0.14384 0.79877 0.0
H711 H 0.04709 0.20294 0.73588 0.0
H712 H 0.13025 0.15853 0.74058 0.0
H713 H 0.09001 0.18696 0.74975 0.0
H714 H 0.04129 0.11314 0.76601 0.0
H715 H 0.08251 0.08444 0.75805 0.0
C716 C 0.99895 0.18185 0.79694 0.0
C717 C 0.99629 0.20833 0.78485 0.0
C718 C 0.01963 0.16339 0.7879 0.0
C719 C 0.03792 0.17076 0.76622 0.0
C720 C 0.03407 0.19669 0.75315 0.0
C721 C 0.01377 0.21531 0.76253 0.0
C722 C 0.11095 0.14817 0.74583 0.0
C723 C 0.10982 0.11907 0.74871 0.0
C724 C 0.0876 0.16461 0.75091 0.0
C725 C 0.0621 0.15257 0.75868 0.0
C726 C 0.06061 0.12332 0.76053 0.0
C727 C 0.08421 0.10678 0.75571 0.0
H728 H 0.50884 0.82657 0.3257 0.0
H729 H 0.50432 0.77863 0.2499 0.0
H730 H 0.4745 0.85869 0.30784 0.0
H731 H 0.46994 0.81142 0.23164 0.0
H732 H 0.42253 0.92254 0.26625 0.0
H733 H 0.46403 0.89444 0.27425 0.0
H734 H 0.42158 0.82227 0.24177 0.0
H735 H 0.38053 0.85032 0.23323 0.0
C736 C 0.50073 0.82301 0.30503 0.0
C737 C 0.50913 0.79974 0.2894 0.0
C738 C 0.48118 0.84171 0.29464 0.0
C739 C 0.46937 0.83773 0.26828 0.0
C740 C 0.47843 0.81497 0.25216 0.0
C741 C 0.4982 0.79623 0.26256 0.0
C742 C 0.42226 0.90082 0.26029 0.0
C743 C 0.39801 0.88865 0.24947 0.0
C744 C 0.44599 0.88464 0.26505 0.0
C745 C 0.44607 0.85595 0.25901 0.0
C746 C 0.42242 0.84427 0.24653 0.0
C747 C 0.39873 0.86038 0.24183 0.0
H748 H 0.91616 0.59297 0.72896 0.0
H749 H 0.88654 0.64846 0.79282 0.0
H750 H 0.95643 0.62247 0.72173 0.0
H751 H 0.92795 0.67712 0.78738 0.0
H752 H 0.98474 0.74175 0.74588 0.0
H753 H 0.94803 0.70997 0.76031 0.0
H754 H 0.99816 0.6403 0.73307 0.0
H755 H 0.03351 0.67259 0.71664 0.0
C756 C 0.91876 0.61108 0.74211 0.0
C757 C 0.89813 0.6184 0.76141 0.0
C758 C 0.94207 0.62811 0.73809 0.0
C759 C 0.94583 0.65266 0.7538 0.0
C760 C 0.92574 0.65901 0.77422 0.0
C761 C 0.90205 0.64236 0.77766 0.0
C762 C 0.98796 0.71958 0.74349 0.0
C763 C 0.0119 0.70959 0.73018 0.0
C764 C 0.96691 0.70116 0.75184 0.0
C765 C 0.96957 0.67218 0.74768 0.0
C766 C 0.99457 0.66232 0.73591 0.0
C767 C 0.01517 0.6808 0.72683 0.0
H768 H 0.77432 0.41336 0.58795 0.0
H769 H 0.71588 0.38324 0.649 0.0
H770 H 0.78528 0.4528 0.61776 0.0
H771 H 0.72556 0.4234 0.67825 0.0
H772 H 0.77719 0.47319 0.73997 0.0
H773 H 0.76048 0.43823 0.70773 0.0
H774 H 0.77421 0.49485 0.63932 0.0
H775 H 0.79228 0.52943 0.67172 0.0
C776 C 0.76315 0.41565 0.60738 0.0
C777 C 0.74437 0.39506 0.6162 0.0
C778 C 0.76942 0.43836 0.62456 0.0
C779 C 0.75671 0.44127 0.65083 0.0
C780 C 0.73648 0.42156 0.65866 0.0
C781 C 0.73063 0.39864 0.64172 0.0
C782 C 0.77648 0.47829 0.71807 0.0
C783 C 0.78622 0.50412 0.70848 0.0
C784 C 0.76664 0.45823 0.69947 0.0
C785 C 0.7658 0.46351 0.67069 0.0
C786 C 0.77491 0.4897 0.66119 0.0
C787 C 0.78514 0.50966 0.67981 0.0
H788 H 0.68646 0.48652 0.17766 0.0
H789 H 0.74807 0.50795 0.23906 0.0
H790 H 0.70593 0.5209 0.14604 0.0
H791 H 0.76877 0.54113 0.20693 0.0
H792 H 0.77227 0.62409 0.16196 0.0
H793 H 0.75955 0.58478 0.19024 0.0
H794 H 0.74065 0.53731 0.1163 0.0
H795 H 0.75207 0.57779 0.08774 0.0
C796 C 0.70459 0.49818 0.18416 0.0
C797 C 0.71551 0.49479 0.21101 0.0
C798 C 0.71594 0.51784 0.16591 0.0
C799 C 0.73884 0.53427 0.17385 0.0
C800 C 0.75066 0.5296 0.20022 0.0
C801 C 0.73893 0.51039 0.21866 0.0
C802 C 0.76571 0.60523 0.15154 0.0
C803 C 0.763 0.60432 0.12246 0.0
C804 C 0.75858 0.58238 0.16791 0.0
C805 C 0.74892 0.55758 0.15578 0.0
C806 C 0.74747 0.55616 0.12653 0.0
C807 C 0.75429 0.5793 0.11007 0.0
H808 H 0.20759 0.11906 0.35951 0.0
H809 H 0.26936 0.09417 0.4194 0.0
H810 H 0.21911 0.07896 0.33083 0.0
H811 H 0.28187 0.05473 0.39018 0.0
H812 H 0.29133 0.97735 0.3377 0.0
H813 H 0.27161 0.01132 0.36981 0.0
H814 H 0.25552 0.06664 0.30097 0.0
H815 H 0.27412 0.03233 0.26898 0.0
C816 C 0.22345 0.10482 0.36669 0.0
C817 C 0.23767 0.1099 0.39164 0.0
C818 C 0.23029 0.08195 0.35009 0.0
C819 C 0.25187 0.06379 0.35778 0.0
C820 C 0.26502 0.06805 0.38356 0.0
C821 C 0.25787 0.09074 0.40038 0.0
C822 C 0.28336 0.9967 0.32944 0.0
C823 C 0.28439 1.00212 0.30075 0.0
C824 C 0.27215 0.01627 0.34789 0.0
C825 C 0.26192 0.04188 0.33814 0.0
C826 C 0.26262 0.04702 0.30934 0.0
C827 C 0.27352 0.02736 0.29091 0.0
H828 H 0.29887 0.89172 0.86717 0.0
H829 H 0.23029 0.9157 0.92008 0.0
H830 H 0.28849 0.93057 0.83628 0.0
H831 H 0.21952 0.95381 0.88897 0.0
H832 H 0.21301 0.03015 0.83627 0.0
H833 H 0.23228 0.99754 0.86974 0.0
H834 H 0.25282 0.94105 0.80296 0.0
H835 H 0.23427 0.97403 0.76941 0.0
C836 C 0.28189 0.90551 0.87251 0.0
C837 C 0.26529 0.90036 0.89606 0.0
C838 C 0.27575 0.92764 0.85461 0.0
C839 C 0.25291 0.94518 0.85985 0.0
C840 C 0.23739 0.94096 0.88428 0.0
C841 C 0.24353 0.91893 0.90215 0.0
C842 C 0.22182 0.01086 0.82867 0.0
C843 C 0.22182 0.00463 0.80011 0.0
C844 C 0.23281 0.99209 0.84792 0.0
C845 C 0.24397 0.9665 0.83917 0.0
C846 C 0.24475 0.96067 0.81051 0.0
C847 C 0.23389 0.97953 0.79123 0.0
H848 H 0.68405 0.8175 0.51803 0.0
H849 H 0.74021 0.74991 0.50005 0.0
H850 H 0.65102 0.79902 0.48479 0.0
H851 H 0.7064 0.73012 0.468 0.0
H852 H 0.65908 0.72722 0.38509 0.0
H853 H 0.68929 0.73701 0.42413 0.0
H854 H 0.61864 0.76673 0.47131 0.0
H855 H 0.58884 0.75863 0.43123 0.0
C856 C 0.68902 0.79827 0.50741 0.0
C857 C 0.71482 0.78531 0.51143 0.0
C858 C 0.66993 0.78744 0.48842 0.0
C859 C 0.67587 0.76298 0.47338 0.0
C860 C 0.70123 0.74932 0.47855 0.0
C861 C 0.7206 0.76054 0.49708 0.0
C862 C 0.64991 0.73527 0.40403 0.0
C863 C 0.62163 0.74236 0.40505 0.0
C864 C 0.66728 0.74087 0.4266 0.0
C865 C 0.65667 0.75317 0.45099 0.0
C866 C 0.62786 0.75812 0.45267 0.0
C867 C 0.61063 0.75314 0.42983 0.0
H868 H 0.91781 0.24922 0.92152 0.0
H869 H 0.84668 0.28346 0.87895 0.0
H870 H 0.88894 0.24079 0.96243 0.0
H871 H 0.81782 0.27426 0.9193 0.0
H872 H 0.77123 0.26237 0.99973 0.0
H873 H 0.80495 0.28235 0.96708 0.0
H874 H 0.85374 0.20711 0.97175 0.0
H875 H 0.82087 0.18772 0.00445 0.0
C876 C 0.89616 0.25532 0.92098 0.0
C877 C 0.88453 0.26659 0.89673 0.0
C878 C 0.87953 0.25033 0.94439 0.0
C879 C 0.85088 0.2564 0.94406 0.0
C880 C 0.83976 0.26944 0.92047 0.0
C881 C 0.85636 0.27451 0.89716 0.0
C882 C 0.78939 0.25035 0.99404 0.0
C883 C 0.7931 0.22331 0.00444 0.0
C884 C 0.80866 0.26171 0.97525 0.0
C885 C 0.83211 0.24634 0.96666 0.0
C886 C 0.83627 0.21981 0.97808 0.0
C887 C 0.81711 0.20851 0.99668 0.0
H888 H 0.15196 0.79409 0.62012 0.0
H889 H 0.09652 0.7301 0.59018 0.0
H890 H 0.18281 0.78568 0.58058 0.0
H891 H 0.1275 0.72117 0.55146 0.0
H892 H 0.18057 0.71684 0.47575 0.0
H893 H 0.14772 0.7361 0.50915 0.0
H894 H 0.21475 0.74968 0.56719 0.0
H895 H 0.24771 0.73124 0.53343 0.0
C896 C 0.14607 0.77861 0.60488 0.0
C897 C 0.12183 0.76262 0.60851 0.0
C898 C 0.16392 0.77355 0.58236 0.0
C899 C 0.15791 0.75248 0.56292 0.0
C900 C 0.13282 0.73773 0.56575 0.0
C901 C 0.11503 0.74277 0.58815 0.0
C902 C 0.18836 0.72418 0.49554 0.0
C903 C 0.21678 0.72217 0.50198 0.0
C904 C 0.16948 0.73516 0.51477 0.0
C905 C 0.17844 0.74424 0.54107 0.0
C906 C 0.20704 0.74323 0.54708 0.0
C907 C 0.22598 0.73243 0.52775 0.0
H908 H 0.3241 0.31824 0.98715 0.0
H909 H 0.26606 0.25189 0.00384 0.0
H910 H 0.35667 0.29825 0.01983 0.0
H911 H 0.29945 0.23046 0.03523 0.0
H912 H 0.34754 0.22304 0.11727 0.0
H913 H 0.31738 0.23477 0.0788 0.0
H914 H 0.38834 0.26557 0.03274 0.0
H915 H 0.41807 0.25563 0.07242 0.0
C916 C 0.3186 0.29893 0.99736 0.0
C917 C 0.29242 0.28677 0.9931 0.0
C918 C 0.33745 0.28721 0.01604 0.0
C919 C 0.33094 0.26258 0.03053 0.0
C920 C 0.30513 0.24976 0.02516 0.0
C921 C 0.28599 0.2619 0.00697 0.0
C922 C 0.35679 0.23174 0.09867 0.0
C923 C 0.38516 0.23856 0.09793 0.0
C924 C 0.33943 0.23848 0.07641 0.0
C925 C 0.3501 0.25167 0.05251 0.0
C926 C 0.379 0.25635 0.05101 0.0
C927 C 0.39622 0.25027 0.07361 0.0
H928 H 0.5128 0.72937 0.74165 0.0
H929 H 0.51067 0.68041 0.81685 0.0
H930 H 0.48163 0.69567 0.71929 0.0
H931 H 0.47955 0.64767 0.79512 0.0
H932 H 0.43521 0.58258 0.75227 0.0
H933 H 0.47534 0.61217 0.76112 0.0
H934 H 0.43297 0.68135 0.72279 0.0
H935 H 0.3933 0.6513 0.71287 0.0
C936 C 0.5059 0.71139 0.75332 0.0
C937 C 0.51407 0.70775 0.78112 0.0
C938 C 0.48798 0.69215 0.74056 0.0
C939 C 0.47816 0.6688 0.7553 0.0
C940 C 0.48705 0.66498 0.78282 0.0
C941 C 0.50473 0.68407 0.79547 0.0
C942 C 0.43485 0.60388 0.74497 0.0
C943 C 0.41101 0.61469 0.7322 0.0
C944 C 0.45774 0.62095 0.75024 0.0
C945 C 0.4571 0.64939 0.74339 0.0
C946 C 0.43423 0.65958 0.72835 0.0
C947 C 0.41144 0.64233 0.72267 0.0
H948 H 0.00593 0.78088 0.26315 0.0
H949 H 0.01192 0.83052 0.18865 0.0
H950 H 0.97107 0.81314 0.28164 0.0
H951 H 0.97709 0.86214 0.20669 0.0
H952 H 0.92242 0.92393 0.2477 0.0
H953 H 0.96481 0.89692 0.24063 0.0
H954 H 0.92288 0.82334 0.27059 0.0
H955 H 0.8809 0.85033 0.27825 0.0
C956 C 1.00012 0.79882 0.25089 0.0
C957 C 0.01148 0.8029 0.22428 0.0
C958 C 0.98004 0.81723 0.2614 0.0
C959 C 0.97112 0.84023 0.24562 0.0
C960 C 0.98359 0.84493 0.21963 0.0
C961 C 0.00344 0.82655 0.20913 0.0
C962 C 0.92242 0.90213 0.25333 0.0
C963 C 0.89807 0.88926 0.26315 0.0
C964 C 0.94669 0.88658 0.24911 0.0
C965 C 0.9472 0.85782 0.25466 0.0
C966 C 0.92339 0.84543 0.26623 0.0
C967 C 0.89917 0.86093 0.27042 0.0
H968 H 0.46929 0.17202 0.70833 0.0
H969 H 0.51663 0.23747 0.74711 0.0
H970 H 0.50138 0.13749 0.72662 0.0
H971 H 0.55012 0.20327 0.76393 0.0
H972 H 0.60557 0.13603 0.79644 0.0
H973 H 0.56452 0.16538 0.79118 0.0
H974 H 0.54538 0.12362 0.71393 0.0
H975 H 0.58514 0.09377 0.7199 0.0
C976 C 0.48654 0.17889 0.72106 0.0
C977 C 0.49071 0.20727 0.72623 0.0
C978 C 0.50512 0.15919 0.73133 0.0
C979 C 0.52887 0.1675 0.74621 0.0
C980 C 0.53205 0.19593 0.75276 0.0
C981 C 0.51295 0.21561 0.74306 0.0
C982 C 0.59219 0.13279 0.77866 0.0
C983 C 0.59881 0.11265 0.7585 0.0
C984 C 0.56876 0.14979 0.77551 0.0
C985 C 0.55157 0.14717 0.75201 0.0
C986 C 0.55763 0.12611 0.7326 0.0
C987 C 0.58073 0.10899 0.73591 0.0
H988 H 0.0835 0.41833 0.27084 0.0
H989 H 0.11509 0.36438 0.20627 0.0
H990 H 0.0445 0.38726 0.2779 0.0
H991 H 0.07529 0.3335 0.2128 0.0
H992 H 0.02743 0.26735 0.26521 0.0
H993 H 0.06136 0.30074 0.24785 0.0
H994 H 1.00265 0.36738 0.26134 0.0
H995 H 0.96912 0.33411 0.27955 0.0
C996 C 0.08178 0.40017 0.25763 0.0
C997 C 0.10269 0.39373 0.23823 0.0
C998 C 0.05922 0.38234 0.26159 0.0
C999 C 0.05681 0.35762 0.24615 0.0
C1000 C 0.07676 0.35207 0.22544 0.0
C1001 C 0.09944 0.36995 0.22149 0.0
C1002 C 0.02165 0.28909 0.26418 0.0
C1003 C 0.99571 0.29809 0.27417 0.0
C1004 C 0.04106 0.30826 0.25402 0.0
C1005 C 0.0349 0.33687 0.25338 0.0
C1006 C 0.00837 0.34562 0.26205 0.0
C1007 C 0.98908 0.3265 0.27243 0.0
H1008 H 0.25673 0.38822 0.01952 0.0
H1009 H 0.1723 0.358 0.01436 0.0
H1010 H 0.24555 0.41157 0.06321 0.0
H1011 H 0.16108 0.38175 0.05757 0.0
H1012 H 0.16873 0.3852 0.15322 0.0
H1013 H 0.17399 0.37167 0.10498 0.0
H1014 H 0.21856 0.44789 0.08825 0.0
H1015 H 0.21344 0.4614 0.13725 0.0
C1016 C 0.23568 0.38694 0.02741 0.0
C1017 C 0.21557 0.37078 0.01365 0.0
C1018 C 0.22922 0.40051 0.05238 0.0
C1019 C 0.20249 0.39828 0.06407 0.0
C1020 C 0.18201 0.38347 0.04943 0.0
C1021 C 0.18847 0.36985 0.0246 0.0
C1022 C 0.17925 0.39935 0.13918 0.0
C1023 C 0.19079 0.4243 0.14905 0.0
C1024 C 0.18213 0.39166 0.11142 0.0
C1025 C 0.19677 0.40864 0.09269 0.0
C1026 C 0.20735 0.43425 0.10223 0.0
C1027 C 0.2042 0.44212 0.13017 0.0
H1028 H 0.24979 0.61997 0.52049 0.0
H1029 H 0.33562 0.64424 0.50968 0.0
H1030 H 0.26204 0.59591 0.56346 0.0
H1031 H 0.34779 0.61992 0.55223 0.0
H1032 H 0.34359 0.62049 0.6486 0.0
H1033 H 0.33698 0.63286 0.60021 0.0
H1034 H 0.28898 0.55799 0.58747 0.0
H1035 H 0.29567 0.54554 0.63654 0.0
C1036 C 0.27134 0.61968 0.52692 0.0
C1037 C 0.29161 0.63452 0.51192 0.0
C1038 C 0.27838 0.60574 0.55147 0.0
C1039 C 0.30583 0.60633 0.56144 0.0
C1040 C 0.32637 0.61951 0.54537 0.0
C1041 C 0.31936 0.63345 0.52095 0.0
C1042 C 0.33206 0.60636 0.63538 0.0
C1043 C 0.32006 0.58211 0.64635 0.0
C1044 C 0.3284 0.61337 0.60756 0.0
C1045 C 0.31241 0.59643 0.58995 0.0
C1046 C 0.30128 0.57152 0.60059 0.0
C1047 C 0.3053 0.56427 0.62855 0.0
H1048 H 0.74172 0.10746 0.99062 0.0
H1049 H 0.67987 0.17139 0.97925 0.0
H1050 H 0.72945 0.08745 0.94559 0.0
H1051 H 0.66682 0.15089 0.93496 0.0
H1052 H 0.68263 0.13595 0.84293 0.0
H1053 H 0.68782 0.15007 0.89078 0.0
H1054 H 0.69671 0.06414 0.91536 0.0
H1055 H 0.69234 0.04987 0.86666 0.0
C1056 C 0.72507 0.11686 0.97881 0.0
C1057 C 0.71208 0.14129 0.9883 0.0
C1058 C 0.71793 0.10532 0.95301 0.0
C1059 C 0.69745 0.1178 0.9363 0.0
C1060 C 0.68323 0.14113 0.94681 0.0
C1061 C 0.6906 0.15283 0.97233 0.0
C1062 C 0.68546 0.1199 0.85844 0.0
C1063 C 0.68722 0.09173 0.85078 0.0
C1064 C 0.6882 0.12804 0.8861 0.0
C1065 C 0.6926 0.10829 0.90714 0.0
C1066 C 0.69362 0.07996 0.89969 0.0
C1067 C 0.6909 0.07175 0.8718 0.0
H1068 H 0.76664 0.89939 0.49952 0.0
H1069 H 0.82254 0.83292 0.47681 0.0
H1070 H 0.77614 0.92226 0.45522 0.0
H1071 H 0.83062 0.85443 0.43225 0.0
H1072 H 0.85302 0.90157 0.3568 0.0
H1073 H 0.85023 0.88852 0.40564 0.0
H1074 H 0.76555 0.91868 0.40874 0.0
H1075 H 0.76931 0.93344 0.36071 0.0
C1076 C 0.78096 0.88971 0.48507 0.0
C1077 C 0.79379 0.86437 0.49167 0.0
C1078 C 0.78628 0.90267 0.45955 0.0
C1079 C 0.80409 0.89024 0.43981 0.0
C1080 C 0.81731 0.86515 0.44689 0.0
C1081 C 0.81247 0.85259 0.47253 0.0
C1082 C 0.83404 0.90577 0.36819 0.0
C1083 C 0.81139 0.91841 0.355 0.0
C1084 C 0.83226 0.89808 0.39614 0.0
C1085 C 0.80747 0.90207 0.41131 0.0
C1086 C 0.78516 0.91559 0.39815 0.0
C1087 C 0.78722 0.92393 0.37044 0.0
H1088 H 0.1241 0.21906 0.45376 0.0
H1089 H 0.14004 0.16155 0.38659 0.0
H1090 H 0.07664 0.22516 0.43721 0.0
H1091 H 0.09323 0.16846 0.36949 0.0
H1092 H 0.00344 0.17628 0.34789 0.0
H1093 H 0.04473 0.16312 0.37402 0.0
H1094 H 0.05561 0.24863 0.39955 0.0
H1095 H 0.0139 0.26149 0.37439 0.0
C1096 C 0.11741 0.2074 0.43572 0.0
C1097 C 0.13608 0.19005 0.42137 0.0
C1098 C 0.09023 0.21112 0.42603 0.0
C1099 C 0.08109 0.19769 0.40169 0.0
C1100 C 0.09928 0.17902 0.3884 0.0
C1101 C 0.12633 0.17516 0.39817 0.0
C1102 C 0.01447 0.1922 0.35937 0.0
C1103 C 0.00544 0.21999 0.3588 0.0
C1104 C 0.03827 0.18468 0.37427 0.0
C1105 C 0.05379 0.20481 0.38879 0.0
C1106 C 0.0441 0.23242 0.38902 0.0
C1107 C 0.02019 0.23987 0.37435 0.0
H1108 H 0.37314 0.78419 0.95289 0.0
H1109 H 0.3583 0.84585 0.8897 0.0
H1110 H 0.42076 0.77852 0.93616 0.0
H1111 H 0.40621 0.8417 0.87397 0.0
H1112 H 0.47375 0.79709 0.82568 0.0
H1113 H 0.43042 0.80954 0.84783 0.0
H1114 H 0.46665 0.79369 0.9284 0.0
H1115 H 0.51003 0.77982 0.90581 0.0
C1116 C 0.38042 0.79723 0.93604 0.0
C1117 C 0.36206 0.81528 0.92241 0.0
C1118 C 0.40776 0.79404 0.92641 0.0
C1119 C 0.41736 0.80921 0.90324 0.0
C1120 C 0.39943 0.82892 0.89121 0.0
C1121 C 0.37202 0.8316 0.90041 0.0
C1122 C 0.47267 0.79645 0.84815 0.0
C1123 C 0.49542 0.78732 0.86392 0.0
C1124 C 0.44773 0.80387 0.86098 0.0
C1125 C 0.44483 0.80287 0.89007 0.0
C1126 C 0.46788 0.79441 0.90596 0.0
C1127 C 0.49284 0.7866 0.89302 0.0
H1128 H 0.5004 0.26935 0.60101 0.0
H1129 H 0.52985 0.30141 0.67952 0.0
H1130 H 0.54474 0.28212 0.57948 0.0
H1131 H 0.57393 0.31286 0.65864 0.0
H1132 H 0.64799 0.34542 0.61529 0.0
H1133 H 0.59936 0.3414 0.62902 0.0
H1134 H 0.59144 0.26723 0.57881 0.0
H1135 H 0.63946 0.27212 0.5641 0.0
C1136 C 0.51621 0.27917 0.61364 0.0
C1137 C 0.51152 0.28414 0.64204 0.0
C1138 C 0.54172 0.28637 0.60136 0.0
C1139 C 0.56313 0.29853 0.61726 0.0
C1140 C 0.55797 0.30409 0.64546 0.0
C1141 C 0.53258 0.29718 0.65758 0.0
C1142 C 0.63571 0.32851 0.60689 0.0
C1143 C 0.64772 0.30897 0.58883 0.0
C1144 C 0.60783 0.32606 0.61488 0.0
C1145 C 0.5914 0.30369 0.60542 0.0
C1146 C 0.60317 0.28489 0.58635 0.0
C1147 C 0.63089 0.28761 0.57804 0.0
H1148 H 0.00942 0.72755 0.10414 0.0
H1149 H 0.97501 0.70597 0.18427 0.0
H1150 H 0.96713 0.71067 0.08172 0.0
H1151 H 0.93273 0.69023 0.16218 0.0
H1152 H 0.86269 0.65052 0.11855 0.0
H1153 H 0.91045 0.65678 0.13415 0.0
H1154 H 0.92036 0.72514 0.07672 0.0
H1155 H 0.87324 0.71812 0.0604 0.0
C1156 C 0.99291 0.71916 0.11696 0.0
C1157 C 0.99557 0.71836 0.14603 0.0
C1158 C 0.96861 0.70957 0.10413 0.0
C1159 C 0.94637 0.69911 0.12008 0.0
C1160 C 0.94948 0.69762 0.14908 0.0
C1161 C 0.97375 0.70697 0.16183 0.0
C1162 C 0.87528 0.66649 0.10886 0.0
C1163 C 0.86398 0.68403 0.08848 0.0
C1164 C 0.90262 0.67025 0.11795 0.0
C1165 C 0.9192 0.69184 0.10711 0.0
C1166 C 0.90841 0.70818 0.08546 0.0
C1167 C 0.88121 0.70422 0.07616 0.0
H1168 H 0.38596 0.0194 0.2601 0.0
H1169 H 0.34909 0.01192 0.17864 0.0
H1170 H 0.40691 0.06361 0.24647 0.0
H1171 H 0.37026 0.05584 0.16506 0.0
H1172 H 0.45272 0.13753 0.20791 0.0
H1173 H 0.44036 0.0886 0.2153 0.0
H1174 H 0.35968 0.10367 0.17924 0.0
H1175 H 0.37197 0.15209 0.17178 0.0
C1176 C 0.38273 0.02687 0.23914 0.0
C1177 C 0.36544 0.01225 0.22064 0.0
C1178 C 0.39488 0.05217 0.23128 0.0
C1179 C 0.38998 0.06342 0.20478 0.0
C1180 C 0.37405 0.04798 0.18579 0.0
C1181 C 0.36197 0.02272 0.19359 0.0
C1182 C 0.43256 0.13021 0.20111 0.0
C1183 C 0.41328 0.14873 0.18937 0.0
C1184 C 0.42541 0.10226 0.20554 0.0
C1185 C 0.39902 0.09224 0.19791 0.0
C1186 C 0.38029 0.11056 0.18508 0.0
C1187 C 0.38728 0.13842 0.18096 0.0
H1188 H 0.90444 0.36431 0.85546 0.0
H1189 H 0.93834 0.36707 0.77244 0.0
H1190 H 0.89079 0.41299 0.85156 0.0
H1191 H 0.92314 0.41478 0.76761 0.0
H1192 H 0.90035 0.50382 0.76431 0.0
H1193 H 0.92505 0.46149 0.77713 0.0
H1194 H 0.85632 0.43802 0.83034 0.0
H1195 H 0.83287 0.48099 0.81894 0.0
C1196 C 0.90912 0.37544 0.83646 0.0
C1197 C 0.92232 0.36191 0.81424 0.0
C1198 C 0.90108 0.40327 0.83405 0.0
C1199 C 0.90536 0.41795 0.80906 0.0
C1200 C 0.91977 0.40458 0.78736 0.0
C1201 C 0.9284 0.37702 0.79004 0.0
C1202 C 0.89086 0.48974 0.77911 0.0
C1203 C 0.86464 0.49562 0.79049 0.0
C1204 C 0.90488 0.46534 0.78634 0.0
C1205 C 0.89266 0.44591 0.80457 0.0
C1206 C 0.86681 0.45247 0.81666 0.0
C1207 C 0.85315 0.47713 0.80994 0.0
H1208 H 0.62965 0.52592 0.24093 0.0
H1209 H 0.63374 0.51062 0.32924 0.0
H1210 H 0.61234 0.57287 0.25002 0.0
H1211 H 0.61565 0.55748 0.33816 0.0
H1212 H 0.55745 0.6398 0.33092 0.0
H1213 H 0.56806 0.59032 0.32291 0.0
H1214 H 0.64261 0.61353 0.27879 0.0
H1215 H 0.63269 0.66254 0.28738 0.0
C1216 C 0.62616 0.53228 0.26224 0.0
C1217 C 0.63316 0.51457 0.28438 0.0
C1218 C 0.61637 0.55918 0.2674 0.0
C1219 C 0.61275 0.56869 0.29476 0.0
C1220 C 0.61815 0.55052 0.31689 0.0
C1221 C 0.62855 0.52379 0.31176 0.0
C1222 C 0.57615 0.63425 0.31965 0.0
C1223 C 0.59432 0.65503 0.30994 0.0
C1224 C 0.58219 0.60604 0.3151 0.0
C1225 C 0.60603 0.59828 0.30009 0.0
C1226 C 0.62401 0.61904 0.29025 0.0
C1227 C 0.6184 0.64706 0.29537 0.0
H1228 H 0.11982 0.98711 0.76131 0.0
H1229 H 0.15427 0.99248 0.67852 0.0
H1230 H 0.09792 0.9429 0.74925 0.0
H1231 H 0.13209 0.9486 0.66647 0.0
H1232 H 0.1304 0.85254 0.67533 0.0
H1233 H 0.1427 0.9012 0.68084 0.0
H1234 H 0.06355 0.91695 0.72025 0.0
H1235 H 0.0512 0.86767 0.7148 0.0
C1236 C 0.12229 0.97919 0.74039 0.0
C1237 C 0.13923 0.99321 0.72105 0.0
C1238 C 0.10958 0.95388 0.73343 0.0
C1239 C 0.11352 0.94201 0.70699 0.0
C1240 C 0.12903 0.9569 0.68717 0.0
C1241 C 0.1417 0.98215 0.69409 0.0
C1242 C 0.11538 0.86643 0.68477 0.0
C1243 C 0.08987 0.85621 0.69473 0.0
C1244 C 0.12237 0.89443 0.68778 0.0
C1245 C 0.10415 0.91304 0.70105 0.0
C1246 C 0.07813 0.9031 0.71012 0.0
C1247 C 0.07095 0.87496 0.70678 0.0
H1248 H 0.78657 0.55453 0.86672 0.0
H1249 H 0.83648 0.6281 0.85333 0.0
H1250 H 0.78154 0.56677 0.91555 0.0
H1251 H 0.83098 0.64057 0.90209 0.0
H1252 H 0.74695 0.62114 0.98796 0.0
H1253 H 0.75684 0.60189 0.94213 0.0
H1254 H 0.84244 0.62794 0.94941 0.0
H1255 H 0.8325 0.64761 0.99495 0.0
C1256 C 0.79666 0.57323 0.8742 0.0
C1257 C 0.81179 0.59044 0.85598 0.0
C1258 C 0.79361 0.58031 0.90221 0.0
C1259 C 0.80565 0.60475 0.91274 0.0
C1260 C 0.82164 0.62143 0.89476 0.0
C1261 C 0.8247 0.61435 0.86673 0.0
C1262 C 0.76799 0.62233 0.98002 0.0
C1263 C 0.78883 0.6362 0.99505 0.0
C1264 C 0.7737 0.61124 0.95372 0.0
C1265 C 0.80038 0.61367 0.94192 0.0
C1266 C 0.82154 0.62622 0.95762 0.0
C1267 C 0.81584 0.63734 0.98384 0.0
H1268 H 0.75462 0.37872 0.48466 0.0
H1269 H 0.67113 0.348 0.49704 0.0
H1270 H 0.7398 0.40246 0.4427 0.0
H1271 H 0.65602 0.37261 0.45551 0.0
H1272 H 0.65231 0.38348 0.36006 0.0
H1273 H 0.66103 0.36737 0.40695 0.0
H1274 H 0.71373 0.43866 0.42168 0.0
H1275 H 0.70577 0.45431 0.3742 0.0
C1276 C 0.73296 0.37744 0.47873 0.0
C1277 C 0.71416 0.36115 0.49409 0.0
C1278 C 0.72437 0.39127 0.45468 0.0
C1279 C 0.69668 0.3894 0.44548 0.0
C1280 C 0.67761 0.37412 0.4616 0.0
C1281 C 0.68626 0.36009 0.48552 0.0
C1282 C 0.66539 0.39604 0.37339 0.0
C1283 C 0.67864 0.42002 0.36312 0.0
C1284 C 0.67031 0.38683 0.40046 0.0
C1285 C 0.68842 0.40146 0.41814 0.0
C1286 C 0.70017 0.42648 0.40848 0.0
C1287 C 0.69539 0.43562 0.3813 0.0
H1288 H 0.35058 0.88811 0.15643 0.0
H1289 H 0.27848 0.94018 0.14466 0.0
H1290 H 0.34738 0.8727 0.10829 0.0
H1291 H 0.27443 0.92388 0.0971 0.0
H1292 H 0.27911 0.89956 0.00695 0.0
H1293 H 0.29106 0.92187 0.05097 0.0
H1294 H 0.31868 0.84267 0.0831 0.0
H1295 H 0.30795 0.82088 0.03917 0.0
C1296 C 0.33413 0.89636 0.14352 0.0
C1297 C 0.31468 0.91518 0.15447 0.0
C1298 C 0.33215 0.8874 0.11594 0.0
C1299 C 0.31038 0.89669 0.09876 0.0
C1300 C 0.29167 0.91646 0.10945 0.0
C1301 C 0.2939 0.92572 0.13688 0.0
C1302 C 0.28806 0.88705 0.02334 0.0
C1303 C 0.29239 0.8584 0.01951 0.0
C1304 C 0.29478 0.89979 0.04866 0.0
C1305 C 0.30579 0.88412 0.07078 0.0
C1306 C 0.31076 0.85563 0.06654 0.0
C1307 C 0.30432 0.84301 0.04126 0.0
H1308 H 0.2358 0.07258 0.64602 0.0
H1309 H 0.15271 0.10596 0.64938 0.0
H1310 H 0.24129 0.08997 0.59903 0.0
H1311 H 0.15713 0.12161 0.60145 0.0
H1312 H 0.18477 0.17791 0.53136 0.0
H1313 H 0.17683 0.15578 0.5757 0.0
H1314 H 0.23287 0.08934 0.55236 0.0
H1315 H 0.24227 0.11298 0.50844 0.0
C1316 C 0.21837 0.08299 0.63635 0.0
C1317 C 0.19384 0.08803 0.65142 0.0
C1318 C 0.22144 0.09291 0.60919 0.0
C1319 C 0.19981 0.1076 0.5961 0.0
C1320 C 0.17468 0.11123 0.61086 0.0
C1321 C 0.17192 0.10198 0.63831 0.0
C1322 C 0.19528 0.15845 0.53559 0.0
C1323 C 0.2142 0.14722 0.51634 0.0
C1324 C 0.19052 0.14551 0.5611 0.0
C1325 C 0.20401 0.12048 0.568 0.0
C1326 C 0.22242 0.10882 0.54829 0.0
C1327 C 0.22771 0.12223 0.52293 0.0
H1328 H 0.97887 0.80508 0.67979 0.0
H1329 H 0.01236 0.76883 0.60465 0.0
H1330 H 0.93766 0.81905 0.65503 0.0
H1331 H 0.97097 0.78384 0.57932 0.0
H1332 H 0.87561 0.77766 0.56057 0.0
H1333 H 0.92294 0.77121 0.57677 0.0
H1334 H 0.91807 0.84897 0.62163 0.0
H1335 H 0.87017 0.85476 0.60636 0.0
C1336 C 0.97766 0.8004 0.65781 0.0
C1337 C 0.99889 0.78553 0.6443 0.0
C1338 C 0.95401 0.80876 0.64347 0.0
C1339 C 0.95093 0.80274 0.61508 0.0
C1340 C 0.97253 0.78859 0.60125 0.0
C1341 C 0.99629 0.78005 0.61573 0.0
C1342 C 0.88482 0.7937 0.57341 0.0
C1343 C 0.86898 0.8165 0.5826 0.0
C1344 C 0.91209 0.79004 0.58263 0.0
C1345 C 0.92422 0.80929 0.60097 0.0
C1346 C 0.90912 0.83332 0.60816 0.0
C1347 C 0.88173 0.83677 0.59926 0.0
H1348 H 0.53194 0.20802 0.17863 0.0
H1349 H 0.49693 0.2229 0.09745 0.0
H1350 H 0.5762 0.19719 0.15778 0.0
H1351 H 0.54147 0.21053 0.0761 0.0
H1352 H 0.63535 0.22059 0.05285 0.0
H1353 H 0.58736 0.22621 0.06876 0.0
H1354 H 0.60194 0.16536 0.13322 0.0
H1355 H 0.65008 0.16138 0.11835 0.0
C1356 C 0.5335 0.20846 0.15618 0.0
C1357 C 0.51072 0.21638 0.13977 0.0
C1358 C 0.55905 0.20196 0.14409 0.0
C1359 C 0.56266 0.20263 0.11508 0.0
C1360 C 0.5397 0.21004 0.09852 0.0
C1361 C 0.51405 0.21696 0.11073 0.0
C1362 C 0.62802 0.20816 0.07014 0.0
C1363 C 0.64644 0.19076 0.08456 0.0
C1364 C 0.60047 0.2113 0.07928 0.0
C1365 C 0.59067 0.1967 0.10275 0.0
C1366 C 0.60879 0.17776 0.11574 0.0
C1367 C 0.63637 0.17518 0.10705 0.0
H1368 H 0.35832 0.66974 0.37752 0.0
H1369 H 0.37843 0.69866 0.46005 0.0
H1370 H 0.4062 0.6756 0.36353 0.0
H1371 H 0.42712 0.70306 0.44651 0.0
H1372 H 0.49785 0.74852 0.39973 0.0
H1373 H 0.4543 0.73332 0.42047 0.0
H1374 H 0.45229 0.66307 0.36425 0.0
H1375 H 0.49493 0.67956 0.34243 0.0
C1376 C 0.37317 0.67661 0.39297 0.0
C1377 C 0.36446 0.68409 0.41982 0.0
C1378 C 0.40085 0.67981 0.38497 0.0
C1379 C 0.42076 0.69008 0.40376 0.0
C1380 C 0.41234 0.69577 0.43122 0.0
C1381 C 0.38446 0.69303 0.43909 0.0
C1382 C 0.48824 0.72962 0.39212 0.0
C1383 C 0.49948 0.71543 0.36924 0.0
C1384 C 0.4633 0.72073 0.40413 0.0
C1385 C 0.44935 0.69708 0.39387 0.0
C1386 C 0.46186 0.68182 0.37222 0.0
C1387 C 0.48642 0.69111 0.3598 0.0
H1388 H 0.1399 0.35256 0.88852 0.0
H1389 H 0.12969 0.29556 0.95719 0.0
H1390 H 0.0924 0.34364 0.87423 0.0
H1391 H 0.08176 0.28716 0.94321 0.0
H1392 H 1.00257 0.33275 0.85833 0.0
H1393 H 0.04378 0.3475 0.88354 0.0
H1394 H 0.0608 0.26199 0.90514 0.0
H1395 H 0.019 0.24732 0.88053 0.0
C1396 C 0.12732 0.33867 0.90102 0.0
C1397 C 0.1388 0.32445 0.92374 0.0
C1398 C 0.09995 0.33361 0.89288 0.0
C1399 C 0.08333 0.31436 0.90737 0.0
C1400 C 0.09418 0.30165 0.93126 0.0
C1401 C 0.12161 0.30666 0.93938 0.0
C1402 C 0.01492 0.31712 0.86877 0.0
C1403 C 0.00778 0.2888 0.8671 0.0
C1404 C 0.03859 0.32559 0.88316 0.0
C1405 C 0.05586 0.30593 0.89603 0.0
C1406 C 0.04786 0.27774 0.89567 0.0
C1407 C 0.02397 0.26928 0.88144 0.0
H1408 H 0.6067 0.99051 0.75572 0.0
H1409 H 0.66543 0.98645 0.82324 0.0
H1410 H 0.58784 0.9453 0.76941 0.0
H1411 H 0.64604 0.94199 0.83757 0.0
H1412 H 0.63789 0.84822 0.82521 0.0
H1413 H 0.64966 0.89667 0.81883 0.0
H1414 H 0.56353 0.91571 0.80233 0.0
H1415 H 0.55172 0.86649 0.80801 0.0
C1416 C 0.61508 0.98031 0.77392 0.0
C1417 C 0.63784 0.99181 0.78813 0.0
C1418 C 0.60422 0.9544 0.78184 0.0
C1419 C 0.61575 0.93966 0.80431 0.0
C1420 C 0.63715 0.95231 0.81969 0.0
C1421 C 0.64818 0.9779 0.81158 0.0
C1422 C 0.6213 0.86266 0.8205 0.0
C1423 C 0.59385 0.8533 0.81697 0.0
C1424 C 0.62806 0.89065 0.81704 0.0
C1425 C 0.60757 0.91028 0.81011 0.0
C1426 C 0.57989 0.90114 0.80739 0.0
C1427 C 0.57309 0.87296 0.81086 0.0
H1428 H 0.1822 0.5402 0.20897 0.0
H1429 H 0.10168 0.50579 0.22918 0.0
H1430 H 0.1611 0.58425 0.19833 0.0
H1431 H 0.07999 0.55028 0.2171 0.0
H1432 H 0.05975 0.64541 0.2272 0.0
H1433 H 0.07467 0.59706 0.23267 0.0
H1434 H 0.13467 0.60856 0.16663 0.0
H1435 H 0.12092 0.65704 0.16267 0.0
C1436 C 0.15981 0.54184 0.21069 0.0
C1437 C 0.14368 0.51929 0.21998 0.0
C1438 C 0.14758 0.56725 0.20428 0.0
C1439 C 0.11868 0.57098 0.20645 0.0
C1440 C 0.10234 0.54831 0.21535 0.0
C1441 C 0.11473 0.52274 0.22213 0.0
C1442 C 0.07582 0.63732 0.21363 0.0
C1443 C 0.08948 0.65494 0.19478 0.0
C1444 C 0.08435 0.60958 0.21667 0.0
C1445 C 0.10638 0.5989 0.20054 0.0
C1446 C 0.11836 0.61619 0.18015 0.0
C1447 C 0.11033 0.64394 0.17764 0.0
H1448 H 0.45809 0.36656 0.69735 0.0
H1449 H 0.37192 0.34926 0.67902 0.0
H1450 H 0.44704 0.41614 0.70171 0.0
H1451 H 0.36086 0.39793 0.68417 0.0
H1452 H 0.40317 0.4912 0.74783 0.0
H1453 H 0.42247 0.44615 0.73416 0.0
H1454 H 0.36533 0.4428 0.66506 0.0
H1455 H 0.34535 0.48695 0.67955 0.0
C1456 C 0.43692 0.37333 0.69391 0.0
C1457 C 0.41586 0.35391 0.68802 0.0
C1458 C 0.43054 0.40168 0.69663 0.0
C1459 C 0.40305 0.4111 0.69332 0.0
C1460 C 0.38235 0.39167 0.6864 0.0
C1461 C 0.38867 0.36357 0.6837 0.0
C1462 C 0.39513 0.48097 0.72947 0.0
C1463 C 0.37243 0.49222 0.71505 0.0
C1464 C 0.40626 0.45522 0.72153 0.0
C1465 C 0.39509 0.44054 0.69881 0.0
C1466 C 0.3739 0.45309 0.68314 0.0
C1467 C 0.36251 0.47845 0.69135 0.0
H1468 H 0.94868 0.13811 0.28789 0.0
H1469 H 0.87049 0.15665 0.32815 0.0
H1470 H 0.93552 0.08929 0.28486 0.0
H1471 H 0.85706 0.10804 0.32442 0.0
H1472 H 0.84394 0.01588 0.32722 0.0
H1473 H 0.86473 0.06072 0.33853 0.0
H1474 H 0.90312 0.06332 0.25736 0.0
H1475 H 0.88304 0.01831 0.24634 0.0
C1476 C 0.92878 0.13176 0.29631 0.0
C1477 C 0.91052 0.1514 0.30798 0.0
C1478 C 0.92117 0.10377 0.29443 0.0
C1479 C 0.89509 0.09473 0.30409 0.0
C1480 C 0.87742 0.11415 0.31699 0.0
C1481 C 0.88507 0.14213 0.31899 0.0
C1482 C 0.85716 0.02582 0.31194 0.0
C1483 C 0.86157 0.01357 0.28575 0.0
C1484 C 0.86895 0.05163 0.31838 0.0
C1485 C 0.88539 0.06581 0.29878 0.0
C1486 C 0.89084 0.05291 0.2731 0.0
C1487 C 0.87915 0.0271 0.2667 0.0
H1488 H 0.1589 0.35006 0.29438 0.0
H1489 H 0.20145 0.41352 0.34156 0.0
H1490 H 0.1641 0.31774 0.33238 0.0
H1491 H 0.20666 0.38056 0.38041 0.0
H1492 H 0.24384 0.29259 0.41409 0.0
H1493 H 0.23379 0.33515 0.38772 0.0
H1494 H 0.14811 0.30948 0.37995 0.0
H1495 H 0.15849 0.26683 0.40522 0.0
C1496 C 0.16917 0.35721 0.31308 0.0
C1497 C 0.17992 0.38428 0.31493 0.0
C1498 C 0.1719 0.33871 0.33505 0.0
C1499 C 0.18559 0.34665 0.35953 0.0
C1500 C 0.19599 0.37393 0.36176 0.0
C1501 C 0.1929 0.39276 0.33967 0.0
C1502 C 0.22274 0.29665 0.40744 0.0
C1503 C 0.20194 0.27656 0.4113 0.0
C1504 C 0.21695 0.32096 0.39245 0.0
C1505 C 0.19027 0.32537 0.38136 0.0
C1506 C 0.16897 0.30639 0.38777 0.0
C1507 C 0.17484 0.28207 0.40229 0.0
H1508 H 0.31268 0.71769 0.93036 0.0
H1509 H 0.26024 0.74595 0.86322 0.0
H1510 H 0.32429 0.67594 0.90351 0.0
H1511 H 0.27206 0.70447 0.83671 0.0
H1512 H 0.34238 0.66368 0.78637 0.0
H1513 H 0.32651 0.69694 0.82061 0.0
H1514 H 0.29848 0.63014 0.87344 0.0
H1515 H 0.31412 0.596 0.83841 0.0
C1516 C 0.30315 0.71475 0.91022 0.0
C1517 C 0.286 0.73547 0.89867 0.0
C1518 C 0.30969 0.69079 0.895 0.0
C1519 C 0.29922 0.68729 0.86808 0.0
C1520 C 0.28048 0.7069 0.85743 0.0
C1521 C 0.27384 0.73069 0.87259 0.0
C1522 C 0.33302 0.65581 0.80528 0.0
C1523 C 0.32914 0.62713 0.80947 0.0
C1524 C 0.32389 0.67496 0.82484 0.0
C1525 C 0.31084 0.66603 0.84926 0.0
C1526 C 0.30835 0.63739 0.85455 0.0
C1527 C 0.31738 0.61796 0.83464 0.0
H1528 H 0.75708 0.22915 0.62463 0.0
H1529 H 0.68838 0.21695 0.56862 0.0
H1530 H 0.74592 0.1853 0.64796 0.0
H1531 H 0.67655 0.17335 0.59255 0.0
H1532 H 0.64565 0.13923 0.68295 0.0
H1533 H 0.65961 0.17135 0.64602 0.0
H1534 H 0.73896 0.13003 0.63989 0.0
H1535 H 0.72445 0.09717 0.6763 0.0
C1536 C 0.74018 0.21652 0.61676 0.0
C1537 C 0.72383 0.22604 0.59465 0.0
C1538 C 0.73378 0.19148 0.63007 0.0
C1539 C 0.7104 0.17596 0.622 0.0
C1540 C 0.69477 0.18488 0.59903 0.0
C1541 C 0.70162 0.20964 0.58526 0.0
C1542 C 0.66566 0.13647 0.67298 0.0
C1543 C 0.6839 0.11567 0.6821 0.0
C1544 C 0.67364 0.15476 0.65186 0.0
C1545 C 0.70032 0.15309 0.64007 0.0
C1546 C 0.71821 0.1316 0.64853 0.0
C1547 C 0.70991 0.11279 0.66918 0.0
H1548 H 0.83725 0.76433 0.10486 0.0
H1549 H 0.75067 0.78202 0.09041 0.0
H1550 H 0.84201 0.80759 0.1308 0.0
H1551 H 0.75521 0.82559 0.11677 0.0
H1552 H 0.7701 0.86202 0.20747 0.0
H1553 H 0.76314 0.83047 0.16848 0.0
H1554 H 0.8394 0.85958 0.13105 0.0
H1555 H 0.84654 0.89115 0.17014 0.0
C1556 C 0.8195 0.7781 0.10648 0.0
C1557 C 0.79367 0.77016 0.09563 0.0
C1558 C 0.82219 0.80287 0.12126 0.0
C1559 C 0.79894 0.81989 0.12594 0.0
C1560 C 0.77343 0.81276 0.11354 0.0
C1561 C 0.77086 0.78808 0.09829 0.0
C1562 C 0.78523 0.86196 0.19078 0.0
C1563 C 0.80913 0.87874 0.19216 0.0
C1564 C 0.78105 0.84412 0.16827 0.0
C1565 C 0.80076 0.84254 0.14675 0.0
C1566 C 0.82396 0.86029 0.14744 0.0
C1567 C 0.82804 0.87832 0.16985 0.0
H1568 H 0.40737 0.1909 0.27421 0.0
H1569 H 0.36763 0.26956 0.2577 0.0
H1570 H 0.3779 0.1845 0.31498 0.0
H1571 H 0.33925 0.2641 0.29926 0.0
H1572 H 0.26593 0.22708 0.3453 0.0
H1573 H 0.30069 0.23745 0.31064 0.0
H1574 H 0.36301 0.19622 0.36033 0.0
H1575 H 0.32744 0.18462 0.39485 0.0
C1576 C 0.39288 0.20721 0.27981 0.0
C1577 C 0.38951 0.23056 0.26263 0.0
C1578 C 0.376 0.2036 0.30326 0.0
C1579 C 0.35571 0.22352 0.31026 0.0
C1580 C 0.35395 0.24786 0.2941 0.0
C1581 C 0.37039 0.25117 0.27039 0.0
C1582 C 0.28705 0.2203 0.34906 0.0
C1583 C 0.29382 0.20488 0.37289 0.0
C1584 C 0.30718 0.22653 0.32917 0.0
C1585 C 0.33488 0.21794 0.33262 0.0
C1586 C 0.34185 0.20294 0.35676 0.0
C1587 C 0.32151 0.19638 0.37664 0.0
H1588 H 0.1902 0.77225 0.904 0.0
H1589 H 0.19573 0.8542 0.86814 0.0
H1590 H 0.15576 0.75902 0.86865 0.0
H1591 H 0.16083 0.84144 0.83348 0.0
H1592 H 0.08462 0.81402 0.78547 0.0
H1593 H 0.1086 0.82391 0.82907 0.0
H1594 H 0.16471 0.75568 0.81364 0.0
H1595 H 0.14112 0.74596 0.76973 0.0
C1596 C 0.18324 0.78765 0.88915 0.0
C1597 C 0.19519 0.81425 0.88872 0.0
C1598 C 0.16379 0.78007 0.86891 0.0
C1599 C 0.15568 0.79926 0.84847 0.0
C1600 C 0.16651 0.82639 0.84921 0.0
C1601 C 0.1864 0.8337 0.86896 0.0
C1602 C 0.10173 0.80077 0.7916 0.0
C1603 C 0.11117 0.77935 0.77405 0.0
C1604 C 0.11543 0.80649 0.81652 0.0
C1605 C 0.13843 0.79055 0.82462 0.0
C1606 C 0.14685 0.7681 0.80794 0.0
C1607 C 0.13348 0.76268 0.78275 0.0
H1608 H 0.83513 0.34118 0.60982 0.0
H1609 H 0.79567 0.2674 0.64275 0.0
H1610 H 0.87497 0.33335 0.64013 0.0
H1611 H 0.83538 0.25978 0.67305 0.0
H1612 H 0.91385 0.24531 0.71946 0.0
H1613 H 0.8866 0.24961 0.67656 0.0
H1614 H 0.87749 0.33772 0.69168 0.0
H1615 H 0.90435 0.33322 0.73425 0.0
C1616 C 0.83509 0.3231 0.62322 0.0
C1617 C 0.81201 0.30518 0.62421 0.0
C1618 C 0.85793 0.31863 0.64054 0.0
C1619 C 0.85827 0.29599 0.65897 0.0
C1620 C 0.83589 0.27722 0.65883 0.0
C1621 C 0.81297 0.28179 0.64169 0.0
C1622 C 0.90689 0.26567 0.71286 0.0
C1623 C 0.91116 0.28898 0.72983 0.0
C1624 C 0.89111 0.26812 0.68857 0.0
C1625 C 0.87978 0.29398 0.68089 0.0
C1626 C 0.88616 0.3176 0.69683 0.0
C1627 C 0.90149 0.31506 0.72121 0.0
H1628 H 0.58201 0.71053 0.22183 0.0
H1629 H 0.64739 0.76421 0.25208 0.0
H1630 H 0.60892 0.70181 0.17965 0.0
H1631 H 0.67458 0.75458 0.21101 0.0
H1632 H 0.71773 0.74361 0.13157 0.0
H1633 H 0.68182 0.75934 0.16356 0.0
H1634 H 0.64886 0.67571 0.1674 0.0
H1635 H 0.68397 0.66048 0.13405 0.0
C1636 C 0.60191 0.72078 0.21934 0.0
C1637 C 0.61265 0.73782 0.24051 0.0
C1638 C 0.61747 0.71556 0.19528 0.0
C1639 C 0.64413 0.72719 0.19194 0.0
C1640 C 0.65405 0.74547 0.21249 0.0
C1641 C 0.63847 0.75085 0.23631 0.0
C1642 C 0.70252 0.72871 0.139 0.0
C1643 C 0.7038 0.70077 0.1307 0.0
C1644 C 0.682 0.73767 0.15744 0.0
C1645 C 0.66267 0.71873 0.16858 0.0
C1646 C 0.66317 0.69099 0.15913 0.0
C1647 C 0.68341 0.68216 0.14016 0.0
H1648 H 0.39639 0.31747 0.22311 0.0
H1649 H 0.35764 0.31615 0.14245 0.0
H1650 H 0.36167 0.35134 0.23934 0.0
H1651 H 0.32359 0.3506 0.15824 0.0
H1652 H 0.28 0.42809 0.19136 0.0
H1653 H 0.32192 0.40258 0.17861 0.0
H1654 H 0.30592 0.34342 0.24401 0.0
H1655 H 0.26345 0.36858 0.2566 0.0
C1656 C 0.38105 0.32528 0.20863 0.0
C1657 C 0.37978 0.31478 0.18146 0.0
C1658 C 0.36113 0.34435 0.21795 0.0
C1659 C 0.34009 0.35354 0.19999 0.0
C1660 C 0.3398 0.34405 0.17237 0.0
C1661 C 0.35925 0.32449 0.16331 0.0
C1662 C 0.28561 0.40994 0.20342 0.0
C1663 C 0.26826 0.40023 0.22491 0.0
C1664 C 0.30958 0.39535 0.19601 0.0
C1665 C 0.31704 0.3711 0.21031 0.0
C1666 C 0.30066 0.36222 0.23282 0.0
C1667 C 0.27633 0.37653 0.23992 0.0
H1668 H 0.84528 0.23123 0.77782 0.0
H1669 H 0.89269 0.17108 0.8246 0.0
H1670 H 0.81225 0.19573 0.76528 0.0
H1671 H 0.85982 0.13473 0.81086 0.0
H1672 H 0.77299 0.0912 0.81223 0.0
H1673 H 0.81366 0.12024 0.82013 0.0
H1674 H 0.80367 0.15633 0.73849 0.0
H1675 H 0.76203 0.12838 0.73141 0.0
C1676 C 0.84892 0.21025 0.78514 0.0
C1677 C 0.8716 0.20407 0.80241 0.0
C1678 C 0.83003 0.1897 0.77762 0.0
C1679 C 0.83339 0.16218 0.78679 0.0
C1680 C 0.85642 0.15576 0.80363 0.0
C1681 C 0.87529 0.17655 0.81146 0.0
C1682 C 0.77983 0.10499 0.79579 0.0
C1683 C 0.76416 0.10791 0.77138 0.0
C1684 C 0.80326 0.12159 0.80026 0.0
C1685 C 0.81171 0.14109 0.78019 0.0
C1686 C 0.79727 0.1422 0.75479 0.0
C1687 C 0.77354 0.12605 0.75059 0.0
H1688 H 0.7255 0.88725 0.24394 0.0
H1689 H 0.72651 0.93245 0.32129 0.0
H1690 H 0.68216 0.86424 0.25793 0.0
H1691 H 0.6836 0.9089 0.33571 0.0
H1692 H 0.65278 0.81493 0.35758 0.0
H1693 H 0.6836 0.85287 0.34362 0.0
H1694 H 0.62825 0.87321 0.27622 0.0
H1695 H 0.5967 0.83567 0.29096 0.0
C1696 C 0.71577 0.893 0.26344 0.0
C1697 C 0.72884 0.91179 0.28143 0.0
C1698 C 0.69107 0.8799 0.27144 0.0
C1699 C 0.67962 0.88492 0.29784 0.0
C1700 C 0.69196 0.90491 0.31518 0.0
C1701 C 0.71634 0.91841 0.30692 0.0
C1702 C 0.64681 0.82809 0.34033 0.0
C1703 C 0.62244 0.82263 0.32537 0.0
C1704 C 0.66433 0.84979 0.33241 0.0
C1705 C 0.65817 0.86592 0.30892 0.0
C1706 C 0.63326 0.86113 0.29451 0.0
C1707 C 0.61526 0.83983 0.30297 0.0
H1708 H 0.22623 0.57279 0.70492 0.0
H1709 H 0.25573 0.64333 0.75229 0.0
H1710 H 0.18243 0.59725 0.69624 0.0
H1711 H 0.21213 0.66742 0.7434 0.0
H1712 H 0.16553 0.71004 0.6696 0.0
H1713 H 0.20009 0.67628 0.68379 0.0
H1714 H 0.13791 0.63127 0.73017 0.0
H1715 H 0.10258 0.66578 0.71611 0.0
C1716 C 0.22316 0.59314 0.71406 0.0
C1717 C 0.24472 0.60636 0.72882 0.0
C1718 C 0.19802 0.60696 0.70923 0.0
C1719 C 0.19414 0.63407 0.71918 0.0
C1720 C 0.21476 0.64642 0.73565 0.0
C1721 C 0.23977 0.63268 0.74054 0.0
C1722 C 0.15897 0.69282 0.68257 0.0
C1723 C 0.13142 0.69076 0.69212 0.0
C1724 C 0.17879 0.67354 0.69064 0.0
C1725 C 0.1716 0.65162 0.70833 0.0
C1726 C 0.14377 0.64821 0.71656 0.0
C1727 C 0.12366 0.66778 0.70845 0.0
H1728 H 0.77017 0.6422 0.70668 0.0
H1729 H 0.8457 0.61099 0.66918 0.0
H1730 H 0.76344 0.67305 0.66714 0.0
H1731 H 0.83879 0.64186 0.6296 0.0
H1732 H 0.83916 0.73768 0.60497 0.0
H1733 H 0.84271 0.69417 0.63055 0.0
H1734 H 0.75591 0.67756 0.61478 0.0
H1735 H 0.75258 0.72135 0.58866 0.0
C1736 C 0.7851 0.6416 0.68981 0.0
C1737 C 0.80877 0.62458 0.69133 0.0
C1738 C 0.78104 0.65903 0.66701 0.0
C1739 C 0.80066 0.65987 0.64539 0.0
C1740 C 0.82345 0.64167 0.6461 0.0
C1741 C 0.8274 0.62407 0.66879 0.0
C1742 C 0.82112 0.72421 0.6062 0.0
C1743 C 0.79563 0.73259 0.59498 0.0
C1744 C 0.82315 0.69929 0.62071 0.0
C1745 C 0.79954 0.68257 0.62472 0.0
C1746 C 0.77437 0.69015 0.61199 0.0
C1747 C 0.77249 0.71498 0.59695 0.0
H1748 H 0.76468 0.26385 0.12839 0.0
H1749 H 0.68553 0.27646 0.08839 0.0
H1750 H 0.75638 0.30429 0.15772 0.0
H1751 H 0.67636 0.31603 0.11874 0.0
H1752 H 0.67125 0.39429 0.17176 0.0
H1753 H 0.6852 0.36171 0.13521 0.0
H1754 H 0.72824 0.31207 0.19635 0.0
H1755 H 0.71544 0.34484 0.23213 0.0
C1756 C 0.74562 0.27551 0.12571 0.0
C1757 C 0.72568 0.26692 0.1063 0.0
C1758 C 0.74068 0.29853 0.14269 0.0
C1759 C 0.71535 0.31311 0.14117 0.0
C1760 C 0.69615 0.30549 0.12049 0.0
C1761 C 0.70136 0.28274 0.10308 0.0
C1762 C 0.68384 0.37647 0.17724 0.0
C1763 C 0.69218 0.3722 0.20488 0.0
C1764 C 0.69178 0.35775 0.15633 0.0
C1765 C 0.70807 0.33426 0.16268 0.0
C1766 C 0.71636 0.3302 0.19037 0.0
C1767 C 0.70872 0.34896 0.21107 0.0
H1768 H 0.25113 0.78355 0.4202 0.0
H1769 H 0.33867 0.769 0.40796 0.0
H1770 H 0.25467 0.82678 0.39325 0.0
H1771 H 0.34244 0.81197 0.38138 0.0
H1772 H 0.26992 0.86352 0.30293 0.0
H1773 H 0.26341 0.83187 0.34192 0.0
H1774 H 0.33809 0.86364 0.38009 0.0
H1775 H 0.34478 0.89526 0.34102 0.0
C1776 C 0.2713 0.79029 0.41274 0.0
C1777 C 0.29472 0.77335 0.41632 0.0
C1778 C 0.27329 0.81476 0.39708 0.0
C1779 C 0.29881 0.82269 0.38509 0.0
C1780 C 0.32257 0.80667 0.39059 0.0
C1781 C 0.32047 0.78209 0.40582 0.0
C1782 C 0.28477 0.86404 0.31979 0.0
C1783 C 0.30811 0.88162 0.31861 0.0
C1784 C 0.28087 0.8461 0.3423 0.0
C1785 C 0.3003 0.84521 0.36404 0.0
C1786 C 0.32289 0.86374 0.36353 0.0
C1787 C 0.32668 0.88185 0.34114 0.0
H1788 H 0.22824 0.26049 0.86301 0.0
H1789 H 0.20571 0.21664 0.93796 0.0
H1790 H 0.2269 0.21748 0.83698 0.0
H1791 H 0.2041 0.17271 0.91138 0.0
H1792 H 0.16323 0.11886 0.83621 0.0
H1793 H 0.17254 0.15415 0.87174 0.0
H1794 H 0.25134 0.17237 0.83277 0.0
H1795 H 0.24194 0.13774 0.79718 0.0
C1796 C 0.2233 0.24146 0.874 0.0
C1797 C 0.21697 0.2419 0.90246 0.0
C1798 C 0.22273 0.21673 0.85909 0.0
C1799 C 0.21552 0.19165 0.87213 0.0
C1800 C 0.20972 0.19179 0.90084 0.0
C1801 C 0.21078 0.21678 0.91603 0.0
C1802 C 0.18277 0.13003 0.83558 0.0
C1803 C 0.20156 0.12596 0.81351 0.0
C1804 C 0.18817 0.15009 0.85603 0.0
C1805 C 0.21249 0.16627 0.85479 0.0
C1806 C 0.2322 0.16054 0.834 0.0
C1807 C 0.22677 0.14072 0.81356 0.0
H1808 H 0.69063 0.84707 0.63259 0.0
H1809 H 0.72352 0.76361 0.63415 0.0
H1810 H 0.65592 0.83402 0.66739 0.0
H1811 H 0.68821 0.75013 0.66774 0.0
H1812 H 0.65379 0.7491 0.75601 0.0
H1813 H 0.68173 0.75816 0.71526 0.0
H1814 H 0.61558 0.80802 0.68074 0.0
H1815 H 0.58775 0.79976 0.72247 0.0
C1816 C 0.69001 0.8258 0.63993 0.0
C1817 C 0.71002 0.80648 0.63109 0.0
C1818 C 0.67003 0.81823 0.65976 0.0
C1819 C 0.66949 0.79109 0.67076 0.0
C1820 C 0.68847 0.7714 0.66039 0.0
C1821 C 0.70864 0.77908 0.64103 0.0
C1822 C 0.64496 0.76177 0.73967 0.0
C1823 C 0.61857 0.7739 0.7427 0.0
C1824 C 0.66098 0.76681 0.71606 0.0
C1825 C 0.65101 0.7839 0.69459 0.0
C1826 C 0.6241 0.7951 0.69704 0.0
C1827 C 0.60804 0.79016 0.72085 0.0
H1828 H 0.91944 0.177 0.22417 0.0
H1829 H 0.8955 0.26239 0.2117 0.0
H1830 H 0.89378 0.16348 0.1824 0.0
H1831 H 0.86999 0.24903 0.16965 0.0
H1832 H 0.83268 0.21286 0.08848 0.0
H1833 H 0.87139 0.2247 0.11975 0.0
H1834 H 0.84005 0.16605 0.18001 0.0
H1835 H 0.80137 0.15488 0.14936 0.0
C1836 C 0.90974 0.19301 0.21169 0.0
C1837 C 0.90975 0.22075 0.2207 0.0
C1838 C 0.89489 0.18528 0.18798 0.0
C1839 C 0.87983 0.20519 0.17286 0.0
C1840 C 0.88169 0.23332 0.1807 0.0
C1841 C 0.89632 0.241 0.20465 0.0
C1842 C 0.8345 0.20219 0.1082 0.0
C1843 C 0.8141 0.18301 0.11659 0.0
C1844 C 0.8565 0.20903 0.12608 0.0
C1845 C 0.85878 0.19618 0.15221 0.0
C1846 C 0.83905 0.17603 0.15986 0.0
C1847 C 0.81683 0.16974 0.1424 0.0
H1848 H 0.18301 0.66518 0.38027 0.0
H1849 H 0.21947 0.74719 0.37729 0.0
H1850 H 0.1487 0.67919 0.34574 0.0
H1851 H 0.18455 0.76165 0.3438 0.0
H1852 H 0.15168 0.76028 0.25451 0.0
H1853 H 0.17838 0.75232 0.29622 0.0
H1854 H 0.1096 0.70672 0.33193 0.0
H1855 H 0.083 0.71389 0.28938 0.0
C1856 C 0.18322 0.6864 0.37274 0.0
C1857 C 0.20415 0.70495 0.38103 0.0
C1858 C 0.16347 0.69452 0.35305 0.0
C1859 C 0.1641 0.72146 0.34162 0.0
C1860 C 0.18389 0.74053 0.35157 0.0
C1861 C 0.20383 0.7323 0.37085 0.0
C1862 C 0.14201 0.74884 0.27133 0.0
C1863 C 0.11528 0.73744 0.2684 0.0
C1864 C 0.15731 0.74445 0.29547 0.0
C1865 C 0.14623 0.72875 0.3175 0.0
C1866 C 0.11893 0.71853 0.31519 0.0
C1867 C 0.1036 0.72283 0.29088 0.0
H1868 H 0.26802 0.29228 0.84335 0.0
H1869 H 0.33004 0.33199 0.89476 0.0
H1870 H 0.30352 0.27828 0.81086 0.0
H1871 H 0.36625 0.31699 0.86216 0.0
H1872 H 0.41206 0.31648 0.77566 0.0
H1873 H 0.38267 0.32643 0.81578 0.0
H1874 H 0.34109 0.24747 0.80463 0.0
H1875 H 0.36953 0.23829 0.76375 0.0
C1876 C 0.28935 0.29778 0.84794 0.0
C1877 C 0.29616 0.31331 0.87171 0.0
C1878 C 0.30985 0.28945 0.82934 0.0
C1879 C 0.33787 0.29611 0.83404 0.0
C1880 C 0.34484 0.3116 0.85787 0.0
C1881 C 0.32414 0.32018 0.87654 0.0
C1882 C 0.39701 0.30104 0.78218 0.0
C1883 C 0.39269 0.27683 0.76639 0.0
C1884 C 0.38021 0.30669 0.80524 0.0
C1885 C 0.3591 0.28803 0.81308 0.0
C1886 C 0.35657 0.2627 0.79864 0.0
C1887 C 0.37297 0.25731 0.77534 0.0
H1888 H 0.7268 0.57447 0.82184 0.0
H1889 H 0.72623 0.61683 0.74298 0.0
H1890 H 0.68435 0.59919 0.83556 0.0
H1891 H 0.68334 0.641 0.75631 0.0
H1892 H 0.59769 0.67117 0.78959 0.0
H1893 H 0.62923 0.63347 0.77525 0.0
H1894 H 0.68523 0.65556 0.8416 0.0
H1895 H 0.65443 0.69361 0.85518 0.0
C1896 C 0.71676 0.58805 0.80698 0.0
C1897 C 0.7293 0.59352 0.78123 0.0
C1898 C 0.69267 0.60229 0.81487 0.0
C1899 C 0.68062 0.62188 0.79693 0.0
C1900 C 0.69202 0.62569 0.77031 0.0
C1901 C 0.71644 0.61187 0.76266 0.0
C1902 C 0.61646 0.66746 0.8014 0.0
C1903 C 0.62375 0.68517 0.82344 0.0
C1904 C 0.63446 0.64606 0.79317 0.0
C1905 C 0.65949 0.6416 0.80746 0.0
C1906 C 0.66589 0.65837 0.83047 0.0
C1907 C 0.64838 0.68017 0.83815 0.0
H1908 H 0.2342 0.9255 0.18142 0.0
H1909 H 0.22054 0.89864 0.26574 0.0
H1910 H 0.19223 0.90075 0.16671 0.0
H1911 H 0.17823 0.87411 0.25119 0.0
H1912 H 0.09657 0.84 0.21317 0.0
H1913 H 0.12844 0.87788 0.22619 0.0
H1914 H 0.1891 0.8465 0.16793 0.0
H1915 H 0.15783 0.80856 0.15559 0.0
C1916 C 0.22144 0.91532 0.19696 0.0
C1917 C 0.23015 0.91423 0.22472 0.0
C1918 C 0.19761 0.90102 0.18855 0.0
C1919 C 0.18207 0.8855 0.20781 0.0
C1920 C 0.18965 0.88621 0.23601 0.0
C1921 C 0.21374 0.90025 0.24436 0.0
C1922 C 0.1165 0.84166 0.20281 0.0
C1923 C 0.12483 0.82143 0.18342 0.0
C1924 C 0.13471 0.86317 0.21033 0.0
C1925 C 0.16113 0.86514 0.19796 0.0
C1926 C 0.16874 0.84569 0.17755 0.0
C1927 C 0.15092 0.8239 0.17058 0.0
H1928 H 0.27666 0.10993 0.76692 0.0
H1929 H 0.28279 0.07479 0.68479 0.0
H1930 H 0.31871 0.13723 0.75848 0.0
H1931 H 0.32488 0.1023 0.67605 0.0
H1932 H 0.40627 0.15576 0.67495 0.0
H1933 H 0.37574 0.11743 0.69012 0.0
H1934 H 0.31825 0.17725 0.7244 0.0
H1935 H 0.34801 0.21494 0.7092 0.0
C1936 C 0.28779 0.10718 0.74753 0.0
C1937 C 0.27687 0.09015 0.72661 0.0
C1938 C 0.31168 0.12291 0.74259 0.0
C1939 C 0.32486 0.12211 0.71649 0.0
C1940 C 0.31531 0.10313 0.69642 0.0
C1941 C 0.29132 0.08735 0.70141 0.0
C1942 C 0.38715 0.16054 0.68586 0.0
C1943 C 0.37935 0.18833 0.69059 0.0
C1944 C 0.36976 0.13869 0.69452 0.0
C1945 C 0.34479 0.14437 0.7087 0.0
C1946 C 0.33755 0.17215 0.71396 0.0
C1947 C 0.35448 0.19379 0.70491 0.0
H1948 H 0.7749 0.41866 0.24828 0.0
H1949 H 0.75855 0.39568 0.33334 0.0
H1950 H 0.81861 0.39216 0.24951 0.0
H1951 H 0.80216 0.36994 0.33487 0.0
H1952 H 0.88859 0.3372 0.33521 0.0
H1953 H 0.8553 0.37502 0.33031 0.0
H1954 H 0.82439 0.338 0.25475 0.0
H1955 H 0.85763 0.2999 0.25959 0.0
C1956 C 0.78121 0.40877 0.26746 0.0
C1957 C 0.76366 0.40917 0.29077 0.0
C1958 C 0.80598 0.39349 0.26811 0.0
C1959 C 0.81368 0.37905 0.29228 0.0
C1960 C 0.79689 0.38112 0.31608 0.0
C1961 C 0.77196 0.39578 0.31522 0.0
C1962 C 0.87507 0.3373 0.31726 0.0
C1963 C 0.87543 0.31525 0.29803 0.0
C1964 C 0.85604 0.359 0.31449 0.0
C1965 C 0.83726 0.35932 0.29225 0.0
C1966 C 0.83883 0.33834 0.27198 0.0
C1967 C 0.85767 0.31642 0.2749 0.0
loop_
_geom_bond_atom_site_label_1
_geom_bond_atom_site_label_2
_geom_bond_distance
_geom_bond_site_symmetry_2
_ccdc_geom_bond_type
Fe0 O2 1.918 . S
Fe0 O5 1.997 . S
Fe0 O6 2.002 . S
Fe0 O11 1.976 . S
Fe0 O14 1.996 . S
Fe1 O2 1.918 . S
Fe1 O9 1.997 . S
Fe1 O12 1.996 . S
Fe1 O16 1.976 . S
Fe1 O19 2.002 . S
O2 Fe0 1.918 . S
O2 Fe1 1.918 . S
O2 Fe3 1.918 . S
Fe3 O2 1.918 . S
Fe3 O4 2.002 . S
Fe3 O13 1.976 . S
Fe3 O17 1.996 . S
Fe3 O20 1.997 . S
O4 Fe3 2.002 . S
O4 C21 1.295 . S
O5 Fe0 1.997 . S
O5 C21 1.235 . S
O6 Fe0 2.002 . S
O6 C7 1.295 . S
C7 O6 1.295 . S
C7 O9 1.235 . S
C8 O13 1.287 . S
C8 O14 1.255 . S
O9 Fe1 1.997 . S
O9 C7 1.235 . S
C10 O16 1.287 . S
C10 O17 1.255 . S
O11 Fe0 1.976 . S
O11 C18 1.287 . S
O12 Fe1 1.996 . S
O12 C18 1.255 . S
O13 Fe3 1.976 . S
O13 C8 1.287 . S
O14 Fe0 1.996 . S
O14 C8 1.255 . S
C15 O19 1.295 . S
C15 O20 1.235 . S
O16 Fe1 1.976 . S
O16 C10 1.287 . S
O17 Fe3 1.996 . S
O17 C10 1.255 . S
C18 O11 1.287 . S
C18 O12 1.255 . S
O19 Fe1 2.002 . S
O19 C15 1.295 . S
O20 Fe3 1.997 . S
O20 C15 1.235 . S
C21 O4 1.295 . S
C21 O5 1.235 . S
Fe22 O24 1.918 . S
Fe22 O27 1.997 . S
Fe22 O28 2.002 . S
Fe22 O33 1.976 . S
Fe22 O36 1.996 . S
Fe23 O24 1.918 . S
Fe23 O31 1.997 . S
Fe23 O34 1.996 . S
Fe23 O38 1.976 . S
Fe23 O41 2.002 . S
O24 Fe22 1.918 . S
O24 Fe23 1.918 . S
O24 Fe25 1.918 . S
Fe25 O24 1.918 . S
Fe25 O26 2.002 . S
Fe25 O35 1.976 . S
Fe25 O39 1.996 . S
Fe25 O42 1.997 . S
O26 Fe25 2.002 . S
O26 C43 1.295 . S
O27 Fe22 1.997 . S
O27 C43 1.235 . S
O28 Fe22 2.002 . S
O28 C29 1.295 . S
C29 O28 1.295 . S
C29 O31 1.235 . S
C30 O35 1.287 . S
C30 O36 1.255 . S
O31 Fe23 1.997 . S
O31 C29 1.235 . S
C32 O38 1.287 . S
C32 O39 1.255 . S
O33 Fe22 1.976 . S
O33 C40 1.287 . S
O34 Fe23 1.996 . S
O34 C40 1.255 . S
O35 Fe25 1.976 . S
O35 C30 1.287 . S
O36 Fe22 1.996 . S
O36 C30 1.255 . S
C37 O41 1.295 . S
C37 O42 1.235 . S
O38 Fe23 1.976 . S
O38 C32 1.287 . S
O39 Fe25 1.996 . S
O39 C32 1.255 . S
C40 O33 1.287 . S
C40 O34 1.255 . S
O41 Fe23 2.002 . S
O41 C37 1.295 . S
O42 Fe25 1.997 . S
O42 C37 1.235 . S
C43 O26 1.295 . S
C43 O27 1.235 . S
Fe44 O46 1.918 . S
Fe44 O49 1.997 . S
Fe44 O50 2.002 . S
Fe44 O55 1.976 . S
Fe44 O58 1.996 . S
Fe45 O46 1.918 . S
Fe45 O53 1.997 . S
Fe45 O56 1.996 . S
Fe45 O60 1.976 . S
Fe45 O63 2.002 . S
O46 Fe44 1.918 . S
O46 Fe45 1.918 . S
O46 Fe47 1.918 . S
Fe47 O46 1.918 . S
Fe47 O48 2.002 . S
Fe47 O57 1.976 . S
Fe47 O61 1.996 . S
Fe47 O64 1.997 . S
O48 Fe47 2.002 . S
O48 C65 1.295 . S
O49 Fe44 1.997 . S
O49 C65 1.235 . S
O50 Fe44 2.002 . S
O50 C51 1.295 . S
C51 O50 1.295 . S
C51 O53 1.235 . S
C52 O57 1.287 . S
C52 O58 1.255 . S
O53 Fe45 1.997 . S
O53 C51 1.235 . S
C54 O60 1.287 . S
C54 O61 1.255 . S
O55 Fe44 1.976 . S
O55 C62 1.287 . S
O56 Fe45 1.996 . S
O56 C62 1.255 . S
O57 Fe47 1.976 . S
O57 C52 1.287 . S
O58 Fe44 1.996 . S
O58 C52 1.255 . S
C59 O63 1.295 . S
C59 O64 1.235 . S
O60 Fe45 1.976 . S
O60 C54 1.287 . S
O61 Fe47 1.996 . S
O61 C54 1.255 . S
C62 O55 1.287 . S
C62 O56 1.255 . S
O63 Fe45 2.002 . S
O63 C59 1.295 . S
O64 Fe47 1.997 . S
O64 C59 1.235 . S
C65 O48 1.295 . S
C65 O49 1.235 . S
Fe66 O68 1.918 . S
Fe66 O71 1.997 . S
Fe66 O72 2.002 . S
Fe66 O77 1.976 . S
Fe66 O80 1.996 . S
Fe67 O68 1.918 . S
Fe67 O75 1.997 . S
Fe67 O78 1.996 . S
Fe67 O82 1.976 . S
Fe67 O85 2.002 . S
O68 Fe66 1.918 . S
O68 Fe67 1.918 . S
O68 Fe69 1.918 . S
Fe69 O68 1.918 . S
Fe69 O70 2.002 . S
Fe69 O79 1.976 . S
Fe69 O83 1.996 . S
Fe69 O86 1.997 . S
O70 Fe69 2.002 . S
O70 C87 1.295 . S
O71 Fe66 1.997 . S
O71 C87 1.235 . S
O72 Fe66 2.002 . S
O72 C73 1.295 . S
C73 O72 1.295 . S
C73 O75 1.235 . S
C74 O79 1.287 . S
C74 O80 1.255 . S
O75 Fe67 1.997 . S
O75 C73 1.235 . S
C76 O82 1.287 . S
C76 O83 1.255 . S
O77 Fe66 1.976 . S
O77 C84 1.287 . S
O78 Fe67 1.996 . S
O78 C84 1.255 . S
O79 Fe69 1.976 . S
O79 C74 1.287 . S
O80 Fe66 1.996 . S
O80 C74 1.255 . S
C81 O85 1.295 . S
C81 O86 1.235 . S
O82 Fe67 1.976 . S
O82 C76 1.287 . S
O83 Fe69 1.996 . S
O83 C76 1.255 . S
C84 O77 1.287 . S
C84 O78 1.255 . S
O85 Fe67 2.002 . S
O85 C81 1.295 . S
O86 Fe69 1.997 . S
O86 C81 1.235 . S
C87 O70 1.295 . S
C87 O71 1.235 . S
Fe88 O90 1.918 . S
Fe88 O93 1.997 . S
Fe88 O94 2.002 . S
Fe88 O99 1.976 . S
Fe88 O102 1.996 . S
Fe89 O90 1.918 . S
Fe89 O97 1.997 . S
Fe89 O100 1.996 . S
Fe89 O104 1.976 . S
Fe89 O107 2.002 . S
O90 Fe88 1.918 . S
O90 Fe89 1.918 . S
O90 Fe91 1.918 . S
Fe91 O90 1.918 . S
Fe91 O92 2.002 . S
Fe91 O101 1.976 . S
Fe91 O105 1.996 . S
Fe91 O108 1.997 . S
O92 Fe91 2.002 . S
O92 C109 1.295 . S
O93 Fe88 1.997 . S
O93 C109 1.235 . S
O94 Fe88 2.002 . S
O94 C95 1.295 . S
C95 O94 1.295 . S
C95 O97 1.235 . S
C96 O101 1.287 . S
C96 O102 1.255 . S
O97 Fe89 1.997 . S
O97 C95 1.235 . S
C98 O104 1.287 . S
C98 O105 1.255 . S
O99 Fe88 1.976 . S
O99 C106 1.287 . S
O100 Fe89 1.996 . S
O100 C106 1.255 . S
O101 Fe91 1.976 . S
O101 C96 1.287 . S
O102 Fe88 1.996 . S
O102 C96 1.255 . S
C103 O107 1.295 . S
C103 O108 1.235 . S
O104 Fe89 1.976 . S
O104 C98 1.287 . S
O105 Fe91 1.996 . S
O105 C98 1.255 . S
C106 O99 1.287 . S
C106 O100 1.255 . S
O107 Fe89 2.002 . S
O107 C103 1.295 . S
O108 Fe91 1.997 . S
O108 C103 1.235 . S
C109 O92 1.295 . S
C109 O93 1.235 . S
Fe110 O112 1.918 . S
Fe110 O115 1.997 . S
Fe110 O116 2.002 . S
Fe110 O121 1.976 . S
Fe110 O124 1.996 . S
Fe111 O112 1.918 . S
Fe111 O119 1.997 . S
Fe111 O122 1.996 . S
Fe111 O126 1.976 . S
Fe111 O129 2.002 . S
O112 Fe110 1.918 . S
O112 Fe111 1.918 . S
O112 Fe113 1.918 . S
Fe113 O112 1.918 . S
Fe113 O114 2.002 . S
Fe113 O123 1.976 . S
Fe113 O127 1.996 . S
Fe113 O130 1.997 . S
O114 Fe113 2.002 . S
O114 C131 1.295 . S
O115 Fe110 1.997 . S
O115 C131 1.235 . S
O116 Fe110 2.002 . S
O116 C117 1.295 . S
C117 O116 1.295 . S
C117 O119 1.235 . S
C118 O123 1.287 . S
C118 O124 1.255 . S
O119 Fe111 1.997 . S
O119 C117 1.235 . S
C120 O126 1.287 . S
C120 O127 1.255 . S
O121 Fe110 1.976 . S
O121 C128 1.287 . S
O122 Fe111 1.996 . S
O122 C128 1.255 . S
O123 Fe113 1.976 . S
O123 C118 1.287 . S
O124 Fe110 1.996 . S
O124 C118 1.255 . S
C125 O129 1.295 . S
C125 O130 1.235 . S
O126 Fe111 1.976 . S
O126 C120 1.287 . S
O127 Fe113 1.996 . S
O127 C120 1.255 . S
C128 O121 1.287 . S
C128 O122 1.255 . S
O129 Fe111 2.002 . S
O129 C125 1.295 . S
O130 Fe113 1.997 . S
O130 C125 1.235 . S
C131 O114 1.295 . S
C131 O115 1.235 . S
Fe132 O134 1.918 . S
Fe132 O137 1.997 . S
Fe132 O138 2.002 . S
Fe132 O143 1.976 . S
Fe132 O146 1.996 . S
Fe133 O134 1.918 . S
Fe133 O141 1.997 . S
Fe133 O144 1.996 . S
Fe133 O148 1.976 . S
Fe133 O151 2.002 . S
O134 Fe132 1.918 . S
O134 Fe133 1.918 . S
O134 Fe135 1.918 . S
Fe135 O134 1.918 . S
Fe135 O136 2.002 . S
Fe135 O145 1.976 . S
Fe135 O149 1.996 . S
Fe135 O152 1.997 . S
O136 Fe135 2.002 . S
O136 C153 1.295 . S
O137 Fe132 1.997 . S
O137 C153 1.235 . S
O138 Fe132 2.002 . S
O138 C139 1.295 . S
C139 O138 1.295 . S
C139 O141 1.235 . S
C140 O145 1.287 . S
C140 O146 1.255 . S
O141 Fe133 1.997 . S
O141 C139 1.235 . S
C142 O148 1.287 . S
C142 O149 1.255 . S
O143 Fe132 1.976 . S
O143 C150 1.287 . S
O144 Fe133 1.996 . S
O144 C150 1.255 . S
O145 Fe135 1.976 . S
O145 C140 1.287 . S
O146 Fe132 1.996 . S
O146 C140 1.255 . S
C147 O151 1.295 . S
C147 O152 1.235 . S
O148 Fe133 1.976 . S
O148 C142 1.287 . S
O149 Fe135 1.996 . S
O149 C142 1.255 . S
C150 O143 1.287 . S
C150 O144 1.255 . S
O151 Fe133 2.002 . S
O151 C147 1.295 . S
O152 Fe135 1.997 . S
O152 C147 1.235 . S
C153 O136 1.295 . S
C153 O137 1.235 . S
Fe154 O156 1.918 . S
Fe154 O159 1.997 . S
Fe154 O160 2.002 . S
Fe154 O165 1.976 . S
Fe154 O168 1.996 . S
Fe155 O156 1.918 . S
Fe155 O163 1.997 . S
Fe155 O166 1.996 . S
Fe155 O170 1.976 . S
Fe155 O173 2.002 . S
O156 Fe154 1.918 . S
O156 Fe155 1.918 . S
O156 Fe157 1.918 . S
Fe157 O156 1.918 . S
Fe157 O158 2.002 . S
Fe157 O167 1.976 . S
Fe157 O171 1.996 . S
Fe157 O174 1.997 . S
O158 Fe157 2.002 . S
O158 C175 1.295 . S
O159 Fe154 1.997 . S
O159 C175 1.235 . S
O160 Fe154 2.002 . S
O160 C161 1.295 . S
C161 O160 1.295 . S
C161 O163 1.235 . S
C162 O167 1.287 . S
C162 O168 1.255 . S
O163 Fe155 1.997 . S
O163 C161 1.235 . S
C164 O170 1.287 . S
C164 O171 1.255 . S
O165 Fe154 1.976 . S
O165 C172 1.287 . S
O166 Fe155 1.996 . S
O166 C172 1.255 . S
O167 Fe157 1.976 . S
O167 C162 1.287 . S
O168 Fe154 1.996 . S
O168 C162 1.255 . S
C169 O173 1.295 . S
C169 O174 1.235 . S
O170 Fe155 1.976 . S
O170 C164 1.287 . S
O171 Fe157 1.996 . S
O171 C164 1.255 . S
C172 O165 1.287 . S
C172 O166 1.255 . S
O173 Fe155 2.002 . S
O173 C169 1.295 . S
O174 Fe157 1.997 . S
O174 C169 1.235 . S
C175 O158 1.295 . S
C175 O159 1.235 . S
Fe176 O178 1.918 . S
Fe176 O181 1.997 . S
Fe176 O182 2.002 . S
Fe176 O187 1.976 . S
Fe176 O190 1.996 . S
Fe177 O178 1.918 . S
Fe177 O185 1.997 . S
Fe177 O188 1.996 . S
Fe177 O192 1.976 . S
Fe177 O195 2.002 . S
O178 Fe176 1.918 . S
O178 Fe177 1.918 . S
O178 Fe179 1.918 . S
Fe179 O178 1.918 . S
Fe179 O180 2.002 . S
Fe179 O189 1.976 . S
Fe179 O193 1.996 . S
Fe179 O196 1.997 . S
O180 Fe179 2.002 . S
O180 C197 1.295 . S
O181 Fe176 1.997 . S
O181 C197 1.235 . S
O182 Fe176 2.002 . S
O182 C183 1.295 . S
C183 O182 1.295 . S
C183 O185 1.235 . S
C184 O189 1.287 . S
C184 O190 1.255 . S
O185 Fe177 1.997 . S
O185 C183 1.235 . S
C186 O192 1.287 . S
C186 O193 1.255 . S
O187 Fe176 1.976 . S
O187 C194 1.287 . S
O188 Fe177 1.996 . S
O188 C194 1.255 . S
O189 Fe179 1.976 . S
O189 C184 1.287 . S
O190 Fe176 1.996 . S
O190 C184 1.255 . S
C191 O195 1.295 . S
C191 O196 1.235 . S
O192 Fe177 1.976 . S
O192 C186 1.287 . S
O193 Fe179 1.996 . S
O193 C186 1.255 . S
C194 O187 1.287 . S
C194 O188 1.255 . S
O195 Fe177 2.002 . S
O195 C191 1.295 . S
O196 Fe179 1.997 . S
O196 C191 1.235 . S
C197 O180 1.295 . S
C197 O181 1.235 . S
Fe198 O200 1.918 . S
Fe198 O203 1.997 . S
Fe198 O204 2.002 . S
Fe198 O209 1.976 . S
Fe198 O212 1.996 . S
Fe199 O200 1.918 . S
Fe199 O207 1.997 . S
Fe199 O210 1.996 . S
Fe199 O214 1.976 . S
Fe199 O217 2.002 . S
O200 Fe198 1.918 . S
O200 Fe199 1.918 . S
O200 Fe201 1.918 . S
Fe201 O200 1.918 . S
Fe201 O202 2.002 . S
Fe201 O211 1.976 . S
Fe201 O215 1.996 . S
Fe201 O218 1.997 . S
O202 Fe201 2.002 . S
O202 C219 1.295 . S
O203 Fe198 1.997 . S
O203 C219 1.235 . S
O204 Fe198 2.002 . S
O204 C205 1.295 . S
C205 O204 1.295 . S
C205 O207 1.235 . S
C206 O211 1.287 . S
C206 O212 1.255 . S
O207 Fe199 1.997 . S
O207 C205 1.235 . S
C208 O214 1.287 . S
C208 O215 1.255 . S
O209 Fe198 1.976 . S
O209 C216 1.287 . S
O210 Fe199 1.996 . S
O210 C216 1.255 . S
O211 Fe201 1.976 . S
O211 C206 1.287 . S
O212 Fe198 1.996 . S
O212 C206 1.255 . S
C213 O217 1.295 . S
C213 O218 1.235 . S
O214 Fe199 1.976 . S
O214 C208 1.287 . S
O215 Fe201 1.996 . S
O215 C208 1.255 . S
C216 O209 1.287 . S
C216 O210 1.255 . S
O217 Fe199 2.002 . S
O217 C213 1.295 . S
O218 Fe201 1.997 . S
O218 C213 1.235 . S
C219 O202 1.295 . S
C219 O203 1.235 . S
Fe220 O222 1.918 . S
Fe220 O225 1.997 . S
Fe220 O226 2.002 . S
Fe220 O231 1.976 . S
Fe220 O234 1.996 . S
Fe221 O222 1.918 . S
Fe221 O229 1.997 . S
Fe221 O232 1.996 . S
Fe221 O236 1.976 . S
Fe221 O239 2.002 . S
O222 Fe220 1.918 . S
O222 Fe221 1.918 . S
O222 Fe223 1.918 . S
Fe223 O222 1.918 . S
Fe223 O224 2.002 . S
Fe223 O233 1.976 . S
Fe223 O237 1.996 . S
Fe223 O240 1.997 . S
O224 Fe223 2.002 . S
O224 C241 1.295 . S
O225 Fe220 1.997 . S
O225 C241 1.235 . S
O226 Fe220 2.002 . S
O226 C227 1.295 . S
C227 O226 1.295 . S
C227 O229 1.235 . S
C228 O233 1.287 . S
C228 O234 1.255 . S
O229 Fe221 1.997 . S
O229 C227 1.235 . S
C230 O236 1.287 . S
C230 O237 1.255 . S
O231 Fe220 1.976 . S
O231 C238 1.287 . S
O232 Fe221 1.996 . S
O232 C238 1.255 . S
O233 Fe223 1.976 . S
O233 C228 1.287 . S
O234 Fe220 1.996 . S
O234 C228 1.255 . S
C235 O239 1.295 . S
C235 O240 1.235 . S
O236 Fe221 1.976 . S
O236 C230 1.287 . S
O237 Fe223 1.996 . S
O237 C230 1.255 . S
C238 O231 1.287 . S
C238 O232 1.255 . S
O239 Fe221 2.002 . S
O239 C235 1.295 . S
O240 Fe223 1.997 . S
O240 C235 1.235 . S
C241 O224 1.295 . S
C241 O225 1.235 . S
Fe242 O244 1.918 . S
Fe242 O247 1.997 . S
Fe242 O248 2.002 . S
Fe242 O253 1.976 . S
Fe242 O256 1.996 . S
Fe243 O244 1.918 . S
Fe243 O251 1.997 . S
Fe243 O254 1.996 . S
Fe243 O258 1.976 . S
Fe243 O261 2.002 . S
O244 Fe242 1.918 . S
O244 Fe243 1.918 . S
O244 Fe245 1.918 . S
Fe245 O244 1.918 . S
Fe245 O246 2.002 . S
Fe245 O255 1.976 . S
Fe245 O259 1.996 . S
Fe245 O262 1.997 . S
O246 Fe245 2.002 . S
O246 C263 1.295 . S
O247 Fe242 1.997 . S
O247 C263 1.235 . S
O248 Fe242 2.002 . S
O248 C249 1.295 . S
C249 O248 1.295 . S
C249 O251 1.235 . S
C250 O255 1.287 . S
C250 O256 1.255 . S
O251 Fe243 1.997 . S
O251 C249 1.235 . S
C252 O258 1.287 . S
C252 O259 1.255 . S
O253 Fe242 1.976 . S
O253 C260 1.287 . S
O254 Fe243 1.996 . S
O254 C260 1.255 . S
O255 Fe245 1.976 . S
O255 C250 1.287 . S
O256 Fe242 1.996 . S
O256 C250 1.255 . S
C257 O261 1.295 . S
C257 O262 1.235 . S
O258 Fe243 1.976 . S
O258 C252 1.287 . S
O259 Fe245 1.996 . S
O259 C252 1.255 . S
C260 O253 1.287 . S
C260 O254 1.255 . S
O261 Fe243 2.002 . S
O261 C257 1.295 . S
O262 Fe245 1.997 . S
O262 C257 1.235 . S
C263 O246 1.295 . S
C263 O247 1.235 . S
Fe264 O266 1.918 . S
Fe264 O269 1.997 . S
Fe264 O270 2.002 . S
Fe264 O275 1.976 . S
Fe264 O278 1.996 . S
Fe265 O266 1.918 . S
Fe265 O273 1.997 . S
Fe265 O276 1.996 . S
Fe265 O280 1.976 . S
Fe265 O283 2.002 . S
O266 Fe264 1.918 . S
O266 Fe265 1.918 . S
O266 Fe267 1.918 . S
Fe267 O266 1.918 . S
Fe267 O268 2.002 . S
Fe267 O277 1.976 . S
Fe267 O281 1.996 . S
Fe267 O284 1.997 . S
O268 Fe267 2.002 . S
O268 C285 1.295 . S
O269 Fe264 1.997 . S
O269 C285 1.235 . S
O270 Fe264 2.002 . S
O270 C271 1.295 . S
C271 O270 1.295 . S
C271 O273 1.235 . S
C272 O277 1.287 . S
C272 O278 1.255 . S
O273 Fe265 1.997 . S
O273 C271 1.235 . S
C274 O280 1.287 . S
C274 O281 1.255 . S
O275 Fe264 1.976 . S
O275 C282 1.287 . S
O276 Fe265 1.996 . S
O276 C282 1.255 . S
O277 Fe267 1.976 . S
O277 C272 1.287 . S
O278 Fe264 1.996 . S
O278 C272 1.255 . S
C279 O283 1.295 . S
C279 O284 1.235 . S
O280 Fe265 1.976 . S
O280 C274 1.287 . S
O281 Fe267 1.996 . S
O281 C274 1.255 . S
C282 O275 1.287 . S
C282 O276 1.255 . S
O283 Fe265 2.002 . S
O283 C279 1.295 . S
O284 Fe267 1.997 . S
O284 C279 1.235 . S
C285 O268 1.295 . S
C285 O269 1.235 . S
Fe286 O288 1.918 . S
Fe286 O291 1.997 . S
Fe286 O292 2.002 . S
Fe286 O297 1.976 . S
Fe286 O300 1.996 . S
Fe287 O288 1.918 . S
Fe287 O295 1.997 . S
Fe287 O298 1.996 . S
Fe287 O302 1.976 . S
Fe287 O305 2.002 . S
O288 Fe286 1.918 . S
O288 Fe287 1.918 . S
O288 Fe289 1.918 . S
Fe289 O288 1.918 . S
Fe289 O290 2.002 . S
Fe289 O299 1.976 . S
Fe289 O303 1.996 . S
Fe289 O306 1.997 . S
O290 Fe289 2.002 . S
O290 C307 1.295 . S
O291 Fe286 1.997 . S
O291 C307 1.235 . S
O292 Fe286 2.002 . S
O292 C293 1.295 . S
C293 O292 1.295 . S
C293 O295 1.235 . S
C294 O299 1.287 . S
C294 O300 1.255 . S
O295 Fe287 1.997 . S
O295 C293 1.235 . S
C296 O302 1.287 . S
C296 O303 1.255 . S
O297 Fe286 1.976 . S
O297 C304 1.287 . S
O298 Fe287 1.996 . S
O298 C304 1.255 . S
O299 Fe289 1.976 . S
O299 C294 1.287 . S
O300 Fe286 1.996 . S
O300 C294 1.255 . S
C301 O305 1.295 . S
C301 O306 1.235 . S
O302 Fe287 1.976 . S
O302 C296 1.287 . S
O303 Fe289 1.996 . S
O303 C296 1.255 . S
C304 O297 1.287 . S
C304 O298 1.255 . S
O305 Fe287 2.002 . S
O305 C301 1.295 . S
O306 Fe289 1.997 . S
O306 C301 1.235 . S
C307 O290 1.295 . S
C307 O291 1.235 . S
Fe308 O310 1.918 . S
Fe308 O313 1.997 . S
Fe308 O314 2.002 . S
Fe308 O319 1.976 . S
Fe308 O322 1.996 . S
Fe309 O310 1.918 . S
Fe309 O317 1.997 . S
Fe309 O320 1.996 . S
Fe309 O324 1.976 . S
Fe309 O327 2.002 . S
O310 Fe308 1.918 . S
O310 Fe309 1.918 . S
O310 Fe311 1.918 . S
Fe311 O310 1.918 . S
Fe311 O312 2.002 . S
Fe311 O321 1.976 . S
Fe311 O325 1.996 . S
Fe311 O328 1.997 . S
O312 Fe311 2.002 . S
O312 C329 1.295 . S
O313 Fe308 1.997 . S
O313 C329 1.235 . S
O314 Fe308 2.002 . S
O314 C315 1.295 . S
C315 O314 1.295 . S
C315 O317 1.235 . S
C316 O321 1.287 . S
C316 O322 1.255 . S
O317 Fe309 1.997 . S
O317 C315 1.235 . S
C318 O324 1.287 . S
C318 O325 1.255 . S
O319 Fe308 1.976 . S
O319 C326 1.287 . S
O320 Fe309 1.996 . S
O320 C326 1.255 . S
O321 Fe311 1.976 . S
O321 C316 1.287 . S
O322 Fe308 1.996 . S
O322 C316 1.255 . S
C323 O327 1.295 . S
C323 O328 1.235 . S
O324 Fe309 1.976 . S
O324 C318 1.287 . S
O325 Fe311 1.996 . S
O325 C318 1.255 . S
C326 O319 1.287 . S
C326 O320 1.255 . S
O327 Fe309 2.002 . S
O327 C323 1.295 . S
O328 Fe311 1.997 . S
O328 C323 1.235 . S
C329 O312 1.295 . S
C329 O313 1.235 . S
Fe330 O332 1.918 . S
Fe330 O335 1.997 . S
Fe330 O336 2.002 . S
Fe330 O341 1.976 . S
Fe330 O344 1.996 . S
Fe331 O332 1.918 . S
Fe331 O339 1.997 . S
Fe331 O342 1.996 . S
Fe331 O346 1.976 . S
Fe331 O349 2.002 . S
O332 Fe330 1.918 . S
O332 Fe331 1.918 . S
O332 Fe333 1.918 . S
Fe333 O332 1.918 . S
Fe333 O334 2.002 . S
Fe333 O343 1.976 . S
Fe333 O347 1.996 . S
Fe333 O350 1.997 . S
O334 Fe333 2.002 . S
O334 C351 1.295 . S
O335 Fe330 1.997 . S
O335 C351 1.235 . S
O336 Fe330 2.002 . S
O336 C337 1.295 . S
C337 O336 1.295 . S
C337 O339 1.235 . S
C338 O343 1.287 . S
C338 O344 1.255 . S
O339 Fe331 1.997 . S
O339 C337 1.235 . S
C340 O346 1.287 . S
C340 O347 1.255 . S
O341 Fe330 1.976 . S
O341 C348 1.287 . S
O342 Fe331 1.996 . S
O342 C348 1.255 . S
O343 Fe333 1.976 . S
O343 C338 1.287 . S
O344 Fe330 1.996 . S
O344 C338 1.255 . S
C345 O349 1.295 . S
C345 O350 1.235 . S
O346 Fe331 1.976 . S
O346 C340 1.287 . S
O347 Fe333 1.996 . S
O347 C340 1.255 . S
C348 O341 1.287 . S
C348 O342 1.255 . S
O349 Fe331 2.002 . S
O349 C345 1.295 . S
O350 Fe333 1.997 . S
O350 C345 1.235 . S
C351 O334 1.295 . S
C351 O335 1.235 . S
Fe352 O354 1.918 . S
Fe352 O357 1.997 . S
Fe352 O358 2.002 . S
Fe352 O363 1.976 . S
Fe352 O366 1.996 . S
Fe353 O354 1.918 . S
Fe353 O361 1.997 . S
Fe353 O364 1.996 . S
Fe353 O368 1.976 . S
Fe353 O371 2.002 . S
O354 Fe352 1.918 . S
O354 Fe353 1.918 . S
O354 Fe355 1.918 . S
Fe355 O354 1.918 . S
Fe355 O356 2.002 . S
Fe355 O365 1.976 . S
Fe355 O369 1.996 . S
Fe355 O372 1.997 . S
O356 Fe355 2.002 . S
O356 C373 1.295 . S
O357 Fe352 1.997 . S
O357 C373 1.235 . S
O358 Fe352 2.002 . S
O358 C359 1.295 . S
C359 O358 1.295 . S
C359 O361 1.235 . S
C360 O365 1.287 . S
C360 O366 1.255 . S
O361 Fe353 1.997 . S
O361 C359 1.235 . S
C362 O368 1.287 . S
C362 O369 1.255 . S
O363 Fe352 1.976 . S
O363 C370 1.287 . S
O364 Fe353 1.996 . S
O364 C370 1.255 . S
O365 Fe355 1.976 . S
O365 C360 1.287 . S
O366 Fe352 1.996 . S
O366 C360 1.255 . S
C367 O371 1.295 . S
C367 O372 1.235 . S
O368 Fe353 1.976 . S
O368 C362 1.287 . S
O369 Fe355 1.996 . S
O369 C362 1.255 . S
C370 O363 1.287 . S
C370 O364 1.255 . S
O371 Fe353 2.002 . S
O371 C367 1.295 . S
O372 Fe355 1.997 . S
O372 C367 1.235 . S
C373 O356 1.295 . S
C373 O357 1.235 . S
Fe374 O376 1.918 . S
Fe374 O379 1.997 . S
Fe374 O380 2.002 . S
Fe374 O385 1.976 . S
Fe374 O388 1.996 . S
Fe375 O376 1.918 . S
Fe375 O383 1.997 . S
Fe375 O386 1.996 . S
Fe375 O390 1.976 . S
Fe375 O393 2.002 . S
O376 Fe374 1.918 . S
O376 Fe375 1.918 . S
O376 Fe377 1.918 . S
Fe377 O376 1.918 . S
Fe377 O378 2.002 . S
Fe377 O387 1.976 . S
Fe377 O391 1.996 . S
Fe377 O394 1.997 . S
O378 Fe377 2.002 . S
O378 C395 1.295 . S
O379 Fe374 1.997 . S
O379 C395 1.235 . S
O380 Fe374 2.002 . S
O380 C381 1.295 . S
C381 O380 1.295 . S
C381 O383 1.235 . S
C382 O387 1.287 . S
C382 O388 1.255 . S
O383 Fe375 1.997 . S
O383 C381 1.235 . S
C384 O390 1.287 . S
C384 O391 1.255 . S
O385 Fe374 1.976 . S
O385 C392 1.287 . S
O386 Fe375 1.996 . S
O386 C392 1.255 . S
O387 Fe377 1.976 . S
O387 C382 1.287 . S
O388 Fe374 1.996 . S
O388 C382 1.255 . S
C389 O393 1.295 . S
C389 O394 1.235 . S
O390 Fe375 1.976 . S
O390 C384 1.287 . S
O391 Fe377 1.996 . S
O391 C384 1.255 . S
C392 O385 1.287 . S
C392 O386 1.255 . S
O393 Fe375 2.002 . S
O393 C389 1.295 . S
O394 Fe377 1.997 . S
O394 C389 1.235 . S
C395 O378 1.295 . S
C395 O379 1.235 . S
Fe396 O398 1.918 . S
Fe396 O401 1.997 . S
Fe396 O402 2.002 . S
Fe396 O407 1.976 . S
Fe396 O410 1.996 . S
Fe397 O398 1.918 . S
Fe397 O405 1.997 . S
Fe397 O408 1.996 . S
Fe397 O412 1.976 . S
Fe397 O415 2.002 . S
O398 Fe396 1.918 . S
O398 Fe397 1.918 . S
O398 Fe399 1.918 . S
Fe399 O398 1.918 . S
Fe399 O400 2.002 . S
Fe399 O409 1.976 . S
Fe399 O413 1.996 . S
Fe399 O416 1.997 . S
O400 Fe399 2.002 . S
O400 C417 1.295 . S
O401 Fe396 1.997 . S
O401 C417 1.235 . S
O402 Fe396 2.002 . S
O402 C403 1.295 . S
C403 O402 1.295 . S
C403 O405 1.235 . S
C404 O409 1.287 . S
C404 O410 1.255 . S
O405 Fe397 1.997 . S
O405 C403 1.235 . S
C406 O412 1.287 . S
C406 O413 1.255 . S
O407 Fe396 1.976 . S
O407 C414 1.287 . S
O408 Fe397 1.996 . S
O408 C414 1.255 . S
O409 Fe399 1.976 . S
O409 C404 1.287 . S
O410 Fe396 1.996 . S
O410 C404 1.255 . S
C411 O415 1.295 . S
C411 O416 1.235 . S
O412 Fe397 1.976 . S
O412 C406 1.287 . S
O413 Fe399 1.996 . S
O413 C406 1.255 . S
C414 O407 1.287 . S
C414 O408 1.255 . S
O415 Fe397 2.002 . S
O415 C411 1.295 . S
O416 Fe399 1.997 . S
O416 C411 1.235 . S
C417 O400 1.295 . S
C417 O401 1.235 . S
Fe418 O420 1.918 . S
Fe418 O423 1.997 . S
Fe418 O424 2.002 . S
Fe418 O429 1.976 . S
Fe418 O432 1.996 . S
Fe419 O420 1.918 . S
Fe419 O427 1.997 . S
Fe419 O430 1.996 . S
Fe419 O434 1.976 . S
Fe419 O437 2.002 . S
O420 Fe418 1.918 . S
O420 Fe419 1.918 . S
O420 Fe421 1.918 . S
Fe421 O420 1.918 . S
Fe421 O422 2.002 . S
Fe421 O431 1.976 . S
Fe421 O435 1.996 . S
Fe421 O438 1.997 . S
O422 Fe421 2.002 . S
O422 C439 1.295 . S
O423 Fe418 1.997 . S
O423 C439 1.235 . S
O424 Fe418 2.002 . S
O424 C425 1.295 . S
C425 O424 1.295 . S
C425 O427 1.235 . S
C426 O431 1.287 . S
C426 O432 1.255 . S
O427 Fe419 1.997 . S
O427 C425 1.235 . S
C428 O434 1.287 . S
C428 O435 1.255 . S
O429 Fe418 1.976 . S
O429 C436 1.287 . S
O430 Fe419 1.996 . S
O430 C436 1.255 . S
O431 Fe421 1.976 . S
O431 C426 1.287 . S
O432 Fe418 1.996 . S
O432 C426 1.255 . S
C433 O437 1.295 . S
C433 O438 1.235 . S
O434 Fe419 1.976 . S
O434 C428 1.287 . S
O435 Fe421 1.996 . S
O435 C428 1.255 . S
C436 O429 1.287 . S
C436 O430 1.255 . S
O437 Fe419 2.002 . S
O437 C433 1.295 . S
O438 Fe421 1.997 . S
O438 C433 1.235 . S
C439 O422 1.295 . S
C439 O423 1.235 . S
Fe440 O442 1.918 . S
Fe440 O445 1.997 . S
Fe440 O446 2.002 . S
Fe440 O451 1.976 . S
Fe440 O454 1.996 . S
Fe441 O442 1.918 . S
Fe441 O449 1.997 . S
Fe441 O452 1.996 . S
Fe441 O456 1.976 . S
Fe441 O459 2.002 . S
O442 Fe440 1.918 . S
O442 Fe441 1.918 . S
O442 Fe443 1.918 . S
Fe443 O442 1.918 . S
Fe443 O444 2.002 . S
Fe443 O453 1.976 . S
Fe443 O457 1.996 . S
Fe443 O460 1.997 . S
O444 Fe443 2.002 . S
O444 C461 1.295 . S
O445 Fe440 1.997 . S
O445 C461 1.235 . S
O446 Fe440 2.002 . S
O446 C447 1.295 . S
C447 O446 1.295 . S
C447 O449 1.235 . S
C448 O453 1.287 . S
C448 O454 1.255 . S
O449 Fe441 1.997 . S
O449 C447 1.235 . S
C450 O456 1.287 . S
C450 O457 1.255 . S
O451 Fe440 1.976 . S
O451 C458 1.287 . S
O452 Fe441 1.996 . S
O452 C458 1.255 . S
O453 Fe443 1.976 . S
O453 C448 1.287 . S
O454 Fe440 1.996 . S
O454 C448 1.255 . S
C455 O459 1.295 . S
C455 O460 1.235 . S
O456 Fe441 1.976 . S
O456 C450 1.287 . S
O457 Fe443 1.996 . S
O457 C450 1.255 . S
C458 O451 1.287 . S
C458 O452 1.255 . S
O459 Fe441 2.002 . S
O459 C455 1.295 . S
O460 Fe443 1.997 . S
O460 C455 1.235 . S
C461 O444 1.295 . S
C461 O445 1.235 . S
Fe462 O464 1.918 . S
Fe462 O467 1.997 . S
Fe462 O468 2.002 . S
Fe462 O473 1.976 . S
Fe462 O476 1.996 . S
Fe463 O464 1.918 . S
Fe463 O471 1.997 . S
Fe463 O474 1.996 . S
Fe463 O478 1.976 . S
Fe463 O481 2.002 . S
O464 Fe462 1.918 . S
O464 Fe463 1.918 . S
O464 Fe465 1.918 . S
Fe465 O464 1.918 . S
Fe465 O466 2.002 . S
Fe465 O475 1.976 . S
Fe465 O479 1.996 . S
Fe465 O482 1.997 . S
O466 Fe465 2.002 . S
O466 C483 1.295 . S
O467 Fe462 1.997 . S
O467 C483 1.235 . S
O468 Fe462 2.002 . S
O468 C469 1.295 . S
C469 O468 1.295 . S
C469 O471 1.235 . S
C470 O475 1.287 . S
C470 O476 1.255 . S
O471 Fe463 1.997 . S
O471 C469 1.235 . S
C472 O478 1.287 . S
C472 O479 1.255 . S
O473 Fe462 1.976 . S
O473 C480 1.287 . S
O474 Fe463 1.996 . S
O474 C480 1.255 . S
O475 Fe465 1.976 . S
O475 C470 1.287 . S
O476 Fe462 1.996 . S
O476 C470 1.255 . S
C477 O481 1.295 . S
C477 O482 1.235 . S
O478 Fe463 1.976 . S
O478 C472 1.287 . S
O479 Fe465 1.996 . S
O479 C472 1.255 . S
C480 O473 1.287 . S
C480 O474 1.255 . S
O481 Fe463 2.002 . S
O481 C477 1.295 . S
O482 Fe465 1.997 . S
O482 C477 1.235 . S
C483 O466 1.295 . S
C483 O467 1.235 . S
Fe484 O486 1.918 . S
Fe484 O489 1.997 . S
Fe484 O490 2.002 . S
Fe484 O495 1.976 . S
Fe484 O498 1.996 . S
Fe485 O486 1.918 . S
Fe485 O493 1.997 . S
Fe485 O496 1.996 . S
Fe485 O500 1.976 . S
Fe485 O503 2.002 . S
O486 Fe484 1.918 . S
O486 Fe485 1.918 . S
O486 Fe487 1.918 . S
Fe487 O486 1.918 . S
Fe487 O488 2.002 . S
Fe487 O497 1.976 . S
Fe487 O501 1.996 . S
Fe487 O504 1.997 . S
O488 Fe487 2.002 . S
O488 C505 1.295 . S
O489 Fe484 1.997 . S
O489 C505 1.235 . S
O490 Fe484 2.002 . S
O490 C491 1.295 . S
C491 O490 1.295 . S
C491 O493 1.235 . S
C492 O497 1.287 . S
C492 O498 1.255 . S
O493 Fe485 1.997 . S
O493 C491 1.235 . S
C494 O500 1.287 . S
C494 O501 1.255 . S
O495 Fe484 1.976 . S
O495 C502 1.287 . S
O496 Fe485 1.996 . S
O496 C502 1.255 . S
O497 Fe487 1.976 . S
O497 C492 1.287 . S
O498 Fe484 1.996 . S
O498 C492 1.255 . S
C499 O503 1.295 . S
C499 O504 1.235 . S
O500 Fe485 1.976 . S
O500 C494 1.287 . S
O501 Fe487 1.996 . S
O501 C494 1.255 . S
C502 O495 1.287 . S
C502 O496 1.255 . S
O503 Fe485 2.002 . S
O503 C499 1.295 . S
O504 Fe487 1.997 . S
O504 C499 1.235 . S
C505 O488 1.295 . S
C505 O489 1.235 . S
Fe506 O508 1.918 . S
Fe506 O511 1.997 . S
Fe506 O512 2.002 . S
Fe506 O517 1.976 . S
Fe506 O520 1.996 . S
Fe507 O508 1.918 . S
Fe507 O515 1.997 . S
Fe507 O518 1.996 . S
Fe507 O522 1.976 . S
Fe507 O525 2.002 . S
O508 Fe506 1.918 . S
O508 Fe507 1.918 . S
O508 Fe509 1.918 . S
Fe509 O508 1.918 . S
Fe509 O510 2.002 . S
Fe509 O519 1.976 . S
Fe509 O523 1.996 . S
Fe509 O526 1.997 . S
O510 Fe509 2.002 . S
O510 C527 1.295 . S
O511 Fe506 1.997 . S
O511 C527 1.235 . S
O512 Fe506 2.002 . S
O512 C513 1.295 . S
C513 O512 1.295 . S
C513 O515 1.235 . S
C514 O519 1.287 . S
C514 O520 1.255 . S
O515 Fe507 1.997 . S
O515 C513 1.235 . S
C516 O522 1.287 . S
C516 O523 1.255 . S
O517 Fe506 1.976 . S
O517 C524 1.287 . S
O518 Fe507 1.996 . S
O518 C524 1.255 . S
O519 Fe509 1.976 . S
O519 C514 1.287 . S
O520 Fe506 1.996 . S
O520 C514 1.255 . S
C521 O525 1.295 . S
C521 O526 1.235 . S
O522 Fe507 1.976 . S
O522 C516 1.287 . S
O523 Fe509 1.996 . S
O523 C516 1.255 . S
C524 O517 1.287 . S
C524 O518 1.255 . S
O525 Fe507 2.002 . S
O525 C521 1.295 . S
O526 Fe509 1.997 . S
O526 C521 1.235 . S
C527 O510 1.295 . S
C527 O511 1.235 . S
H528 C536 0.950 . S
H529 C541 0.950 . S
H530 C538 0.950 . S
H531 C540 0.950 . S
H532 C542 0.950 . S
H533 C544 0.950 . S
H534 C546 0.950 . S
H535 C547 0.950 . S
C536 H528 0.950 . S
C536 C537 1.386 . S
C536 C538 1.391 . S
C537 C536 1.386 . S
C537 C541 1.393 . S
C538 H530 0.950 . S
C538 C536 1.391 . S
C538 C539 1.400 . S
C539 C538 1.400 . S
C539 C540 1.398 . S
C539 C545 1.491 . S
C540 H531 0.950 . S
C540 C539 1.398 . S
C540 C541 1.391 . S
C541 H529 0.950 . S
C541 C537 1.393 . S
C541 C540 1.391 . S
C542 H532 0.950 . S
C542 C543 1.386 . S
C542 C544 1.391 . S
C543 C542 1.386 . S
C543 C547 1.393 . S
C544 H533 0.950 . S
C544 C542 1.391 . S
C544 C545 1.400 . S
C545 C539 1.491 . S
C545 C544 1.400 . S
C545 C546 1.398 . S
C546 H534 0.950 . S
C546 C545 1.398 . S
C546 C547 1.391 . S
C547 H535 0.950 . S
C547 C543 1.393 . S
C547 C546 1.391 . S
H548 C556 0.950 . S
H549 C561 0.950 . S
H550 C558 0.950 . S
H551 C560 0.950 . S
H552 C562 0.950 . S
H553 C564 0.950 . S
H554 C566 0.950 . S
H555 C567 0.950 . S
C556 H548 0.950 . S
C556 C557 1.386 . S
C556 C558 1.391 . S
C557 C556 1.386 . S
C557 C561 1.393 . S
C558 H550 0.950 . S
C558 C556 1.391 . S
C558 C559 1.400 . S
C559 C558 1.400 . S
C559 C560 1.398 . S
C559 C565 1.491 . S
C560 H551 0.950 . S
C560 C559 1.398 . S
C560 C561 1.391 . S
C561 H549 0.950 . S
C561 C557 1.393 . S
C561 C560 1.391 . S
C562 H552 0.950 . S
C562 C563 1.386 . S
C562 C564 1.391 . S
C563 C562 1.386 . S
C563 C567 1.393 . S
C564 H553 0.950 . S
C564 C562 1.391 . S
C564 C565 1.400 . S
C565 C559 1.491 . S
C565 C564 1.400 . S
C565 C566 1.398 . S
C566 H554 0.950 . S
C566 C565 1.398 . S
C566 C567 1.391 . S
C567 H555 0.950 . S
C567 C563 1.393 . S
C567 C566 1.391 . S
H568 C576 0.950 . S
H569 C581 0.950 . S
H570 C578 0.950 . S
H571 C580 0.950 . S
H572 C582 0.950 . S
H573 C584 0.953 . S
H574 C586 0.950 . S
H575 C587 0.950 . S
C576 H568 0.950 . S
C576 C577 1.386 . S
C576 C578 1.391 . S
C577 C576 1.386 . S
C577 C581 1.393 . S
C578 H570 0.950 . S
C578 C576 1.391 . S
C578 C579 1.400 . S
C579 C578 1.400 . S
C579 C580 1.398 . S
C579 C585 1.491 . S
C580 H571 0.950 . S
C580 C579 1.398 . S
C580 C581 1.391 . S
C581 H569 0.950 . S
C581 C577 1.393 . S
C581 C580 1.391 . S
C582 H572 0.950 . S
C582 C583 1.386 . S
C582 C584 1.412 . S
C583 C582 1.386 . S
C583 C587 1.393 1_545 S
C584 H573 0.953 . S
C584 C582 1.412 . S
C584 C585 1.377 1_545 S
C585 C579 1.491 . S
C585 C584 1.377 1_565 S
C585 C586 1.398 . S
C586 H574 0.950 . S
C586 C585 1.398 . S
C586 C587 1.391 . S
C587 H575 0.950 . S
C587 C583 1.393 1_565 S
C587 C586 1.391 . S
H588 C596 0.950 . S
H589 C601 0.950 . S
H590 C598 0.950 . S
H591 C600 0.950 . S
H592 C602 0.950 . S
H593 C604 0.950 . S
H594 C606 0.950 . S
H595 C607 0.950 . S
C596 H588 0.950 . S
C596 C597 1.386 . S
C596 C598 1.391 1_565 S
C597 C596 1.386 . S
C597 C601 1.393 . S
C598 H590 0.950 . S
C598 C596 1.391 1_545 S
C598 C599 1.400 . S
C599 C598 1.400 . S
C599 C600 1.398 . S
C599 C605 1.491 . S
C600 H591 0.950 . S
C600 C599 1.398 . S
C600 C601 1.391 1_545 S
C601 H589 0.950 . S
C601 C597 1.393 . S
C601 C600 1.391 1_565 S
C602 H592 0.950 . S
C602 C603 1.386 . S
C602 C604 1.391 . S
C603 C602 1.386 . S
C603 C607 1.393 . S
C604 H593 0.950 . S
C604 C602 1.391 . S
C604 C605 1.400 . S
C605 C599 1.491 . S
C605 C604 1.400 . S
C605 C606 1.398 . S
C606 H594 0.950 . S
C606 C605 1.398 . S
C606 C607 1.391 . S
C607 H595 0.950 . S
C607 C603 1.393 . S
C607 C606 1.391 . S
H608 C616 0.950 . S
H609 C621 0.950 . S
H610 C618 0.950 . S
H611 C620 0.950 . S
H612 C622 0.950 . S
H613 C624 0.950 . S
H614 C626 0.950 . S
H615 C627 0.950 . S
C616 H608 0.950 . S
C616 C617 1.386 . S
C616 C618 1.391 . S
C617 C616 1.386 . S
C617 C621 1.393 . S
C618 H610 0.950 . S
C618 C616 1.391 . S
C618 C619 1.400 . S
C619 C618 1.400 . S
C619 C620 1.398 . S
C619 C625 1.491 . S
C620 H611 0.950 . S
C620 C619 1.398 . S
C620 C621 1.391 . S
C621 H609 0.950 . S
C621 C617 1.393 . S
C621 C620 1.391 . S
C622 H612 0.950 . S
C622 C623 1.386 . S
C622 C624 1.391 . S
C623 C622 1.386 . S
C623 C627 1.393 . S
C624 H613 0.950 . S
C624 C622 1.391 . S
C624 C625 1.400 . S
C625 C619 1.491 . S
C625 C624 1.400 . S
C625 C626 1.398 . S
C626 H614 0.950 . S
C626 C625 1.398 . S
C626 C627 1.391 . S
C627 H615 0.950 . S
C627 C623 1.393 . S
C627 C626 1.391 . S
H628 C636 0.950 . S
H629 C641 0.950 . S
H630 C638 0.950 . S
H631 C640 0.950 . S
H632 C642 0.950 . S
H633 C644 0.950 . S
H634 C646 0.950 . S
H635 C647 0.950 . S
C636 H628 0.950 . S
C636 C637 1.386 . S
C636 C638 1.391 . S
C637 C636 1.386 . S
C637 C641 1.393 . S
C638 H630 0.950 . S
C638 C636 1.391 . S
C638 C639 1.400 . S
C639 C638 1.400 . S
C639 C640 1.398 . S
C639 C645 1.491 . S
C640 H631 0.950 . S
C640 C639 1.398 . S
C640 C641 1.391 . S
C641 H629 0.950 . S
C641 C637 1.393 . S
C641 C640 1.391 . S
C642 H632 0.950 . S
C642 C643 1.386 . S
C642 C644 1.391 1_556 S
C643 C642 1.386 . S
C643 C647 1.393 1_556 S
C644 H633 0.950 . S
C644 C642 1.391 1_554 S
C644 C645 1.400 . S
C645 C639 1.491 . S
C645 C644 1.400 . S
C645 C646 1.398 . S
C646 H634 0.950 . S
C646 C645 1.398 . S
C646 C647 1.391 . S
C647 H635 0.950 . S
C647 C643 1.393 1_554 S
C647 C646 1.391 . S
H648 C656 0.950 . S
H649 C661 0.950 . S
H650 C658 0.950 . S
H651 C660 0.950 . S
H652 C662 0.950 . S
H653 C664 0.950 . S
H654 C666 0.950 . S
H655 C667 0.950 . S
C656 H648 0.950 . S
C656 C657 1.386 . S
C656 C658 1.391 . S
C657 C656 1.386 . S
C657 C661 1.393 . S
C658 H650 0.950 . S
C658 C656 1.391 . S
C658 C659 1.400 . S
C659 C658 1.400 . S
C659 C660 1.398 . S
C659 C665 1.491 . S
C660 H651 0.950 . S
C660 C659 1.398 . S
C660 C661 1.391 . S
C661 H649 0.950 . S
C661 C657 1.393 . S
C661 C660 1.391 . S
C662 H652 0.950 . S
C662 C663 1.386 . S
C662 C664 1.391 . S
C663 C662 1.386 . S
C663 C667 1.393 . S
C664 H653 0.950 . S
C664 C662 1.391 . S
C664 C665 1.400 . S
C665 C659 1.491 . S
C665 C664 1.400 . S
C665 C666 1.398 . S
C666 H654 0.950 . S
C666 C665 1.398 . S
C666 C667 1.391 . S
C667 H655 0.950 . S
C667 C663 1.393 . S
C667 C666 1.391 . S
H668 C676 0.950 . S
H669 C681 0.950 . S
H670 C678 0.950 . S
H671 C680 0.950 . S
H672 C682 0.950 . S
H673 C684 0.950 . S
H674 C686 0.950 . S
H675 C687 0.947 1_554 S
C676 H668 0.950 . S
C676 C677 1.386 . S
C676 C678 1.391 . S
C677 C676 1.386 . S
C677 C681 1.393 . S
C678 H670 0.950 . S
C678 C676 1.391 . S
C678 C679 1.400 . S
C679 C678 1.400 . S
C679 C680 1.398 . S
C679 C685 1.491 . S
C680 H671 0.950 . S
C680 C679 1.398 . S
C680 C681 1.391 . S
C681 H669 0.950 . S
C681 C677 1.393 . S
C681 C680 1.391 . S
C682 H672 0.950 . S
C682 C683 1.386 . S
C682 C684 1.391 1_554 S
C683 C682 1.386 . S
C683 C687 1.368 1_554 S
C684 H673 0.950 . S
C684 C682 1.391 1_556 S
C684 C685 1.400 . S
C685 C679 1.491 . S
C685 C684 1.400 . S
C685 C686 1.398 . S
C686 H674 0.950 . S
C686 C685 1.398 . S
C686 C687 1.419 . S
C687 H675 0.947 1_556 S
C687 C683 1.368 1_556 S
C687 C686 1.419 . S
H688 C696 0.950 . S
H689 C701 0.950 . S
H690 C698 0.950 . S
H691 C700 0.950 . S
H692 C702 0.950 . S
H693 C704 0.950 . S
H694 C706 0.950 . S
H695 C707 0.950 . S
C696 H688 0.950 . S
C696 C697 1.386 . S
C696 C698 1.391 . S
C697 C696 1.386 . S
C697 C701 1.393 . S
C698 H690 0.950 . S
C698 C696 1.391 . S
C698 C699 1.400 . S
C699 C698 1.400 . S
C699 C700 1.398 . S
C699 C705 1.491 . S
C700 H691 0.950 . S
C700 C699 1.398 . S
C700 C701 1.391 . S
C701 H689 0.950 . S
C701 C697 1.393 . S
C701 C700 1.391 . S
C702 H692 0.950 . S
C702 C703 1.386 . S
C702 C704 1.391 . S
C703 C702 1.386 . S
C703 C707 1.393 . S
C704 H693 0.950 . S
C704 C702 1.391 . S
C704 C705 1.400 . S
C705 C699 1.491 . S
C705 C704 1.400 . S
C705 C706 1.398 . S
C706 H694 0.950 . S
C706 C705 1.398 . S
C706 C707 1.391 . S
C707 H695 0.950 . S
C707 C703 1.393 . S
C707 C706 1.391 . S
H708 C716 0.950 . S
H709 C721 0.950 . S
H710 C718 0.950 . S
H711 C720 0.950 . S
H712 C722 0.950 . S
H713 C724 0.950 . S
H714 C726 0.950 . S
H715 C727 0.950 . S
C716 H708 0.950 . S
C716 C717 1.386 . S
C716 C718 1.391 . S
C717 C716 1.386 . S
C717 C721 1.393 1_655 S
C718 H710 0.950 . S
C718 C716 1.391 . S
C718 C719 1.400 1_655 S
C719 C718 1.400 1_455 S
C719 C720 1.398 . S
C719 C725 1.491 . S
C720 H711 0.950 . S
C720 C719 1.398 . S
C720 C721 1.391 . S
C721 H709 0.950 . S
C721 C717 1.393 1_455 S
C721 C720 1.391 . S
C722 H712 0.950 . S
C722 C723 1.386 . S
C722 C724 1.391 . S
C723 C722 1.386 . S
C723 C727 1.393 . S
C724 H713 0.950 . S
C724 C722 1.391 . S
C724 C725 1.400 . S
C725 C719 1.491 . S
C725 C724 1.400 . S
C725 C726 1.398 . S
C726 H714 0.950 . S
C726 C725 1.398 . S
C726 C727 1.391 . S
C727 H715 0.950 . S
C727 C723 1.393 . S
C727 C726 1.391 . S
H728 C736 0.950 . S
H729 C741 0.950 . S
H730 C738 0.950 . S
H731 C740 0.950 . S
H732 C742 0.950 . S
H733 C744 0.950 . S
H734 C746 0.950 . S
H735 C747 0.950 . S
C736 H728 0.950 . S
C736 C737 1.386 . S
C736 C738 1.391 . S
C737 C736 1.386 . S
C737 C741 1.393 . S
C738 H730 0.950 . S
C738 C736 1.391 . S
C738 C739 1.400 . S
C739 C738 1.400 . S
C739 C740 1.398 . S
C739 C745 1.491 . S
C740 H731 0.950 . S
C740 C739 1.398 . S
C740 C741 1.391 . S
C741 H729 0.950 . S
C741 C737 1.393 . S
C741 C740 1.391 . S
C742 H732 0.950 . S
C742 C743 1.386 . S
C742 C744 1.391 . S
C743 C742 1.386 . S
C743 C747 1.393 . S
C744 H733 0.950 . S
C744 C742 1.391 . S
C744 C745 1.400 . S
C745 C739 1.491 . S
C745 C744 1.400 . S
C745 C746 1.398 . S
C746 H734 0.950 . S
C746 C745 1.398 . S
C746 C747 1.391 . S
C747 H735 0.950 . S
C747 C743 1.393 . S
C747 C746 1.391 . S
H748 C756 0.950 . S
H749 C761 0.950 . S
H750 C758 0.950 . S
H751 C760 0.950 . S
H752 C762 0.950 . S
H753 C764 0.950 . S
H754 C766 0.950 . S
H755 C767 0.950 . S
C756 H748 0.950 . S
C756 C757 1.386 . S
C756 C758 1.391 . S
C757 C756 1.386 . S
C757 C761 1.393 . S
C758 H750 0.950 . S
C758 C756 1.391 . S
C758 C759 1.400 . S
C759 C758 1.400 . S
C759 C760 1.398 . S
C759 C765 1.491 . S
C760 H751 0.950 . S
C760 C759 1.398 . S
C760 C761 1.391 . S
C761 H749 0.950 . S
C761 C757 1.393 . S
C761 C760 1.391 . S
C762 H752 0.950 . S
C762 C763 1.386 . S
C762 C764 1.391 1_455 S
C763 C762 1.386 . S
C763 C767 1.393 . S
C764 H753 0.950 . S
C764 C762 1.391 1_655 S
C764 C765 1.400 . S
C765 C759 1.491 . S
C765 C764 1.400 . S
C765 C766 1.398 . S
C766 H754 0.950 . S
C766 C765 1.398 . S
C766 C767 1.391 1_655 S
C767 H755 0.950 . S
C767 C763 1.393 . S
C767 C766 1.391 1_455 S
H768 C776 0.950 . S
H769 C781 0.950 . S
H770 C778 0.950 . S
H771 C780 0.950 . S
H772 C782 0.950 . S
H773 C784 0.950 . S
H774 C786 0.950 . S
H775 C787 0.950 . S
C776 H768 0.950 . S
C776 C777 1.386 . S
C776 C778 1.391 . S
C777 C776 1.386 . S
C777 C781 1.393 . S
C778 H770 0.950 . S
C778 C776 1.391 . S
C778 C779 1.400 . S
C779 C778 1.400 . S
C779 C780 1.398 . S
C779 C785 1.491 . S
C780 H771 0.950 . S
C780 C779 1.398 . S
C780 C781 1.391 . S
C781 H769 0.950 . S
C781 C777 1.393 . S
C781 C780 1.391 . S
C782 H772 0.950 . S
C782 C783 1.386 . S
C782 C784 1.391 . S
C783 C782 1.386 . S
C783 C787 1.393 . S
C784 H773 0.950 . S
C784 C782 1.391 . S
C784 C785 1.400 . S
C785 C779 1.491 . S
C785 C784 1.400 . S
C785 C786 1.398 . S
C786 H774 0.950 . S
C786 C785 1.398 . S
C786 C787 1.391 . S
C787 H775 0.950 . S
C787 C783 1.393 . S
C787 C786 1.391 . S
H788 C796 0.950 . S
H789 C801 0.950 . S
H790 C798 0.950 . S
H791 C800 0.950 . S
H792 C802 0.950 . S
H793 C804 0.950 . S
H794 C806 0.950 . S
H795 C807 0.950 . S
C796 H788 0.950 . S
C796 C797 1.386 . S
C796 C798 1.391 . S
C797 C796 1.386 . S
C797 C801 1.393 . S
C798 H790 0.950 . S
C798 C796 1.391 . S
C798 C799 1.400 . S
C799 C798 1.400 . S
C799 C800 1.398 . S
C799 C805 1.491 . S
C800 H791 0.950 . S
C800 C799 1.398 . S
C800 C801 1.391 . S
C801 H789 0.950 . S
C801 C797 1.393 . S
C801 C800 1.391 . S
C802 H792 0.950 . S
C802 C803 1.386 . S
C802 C804 1.391 . S
C803 C802 1.386 . S
C803 C807 1.393 . S
C804 H793 0.950 . S
C804 C802 1.391 . S
C804 C805 1.400 . S
C805 C799 1.491 . S
C805 C804 1.400 . S
C805 C806 1.398 . S
C806 H794 0.950 . S
C806 C805 1.398 . S
C806 C807 1.391 . S
C807 H795 0.950 . S
C807 C803 1.393 . S
C807 C806 1.391 . S
H808 C816 0.950 . S
H809 C821 0.950 . S
H810 C818 0.950 . S
H811 C820 0.950 . S
H812 C822 0.950 . S
H813 C824 0.950 . S
H814 C826 0.950 . S
H815 C827 0.950 . S
C816 H808 0.950 . S
C816 C817 1.386 . S
C816 C818 1.391 . S
C817 C816 1.386 . S
C817 C821 1.393 . S
C818 H810 0.950 . S
C818 C816 1.391 . S
C818 C819 1.400 . S
C819 C818 1.400 . S
C819 C820 1.398 . S
C819 C825 1.491 . S
C820 H811 0.950 . S
C820 C819 1.398 . S
C820 C821 1.391 . S
C821 H809 0.950 . S
C821 C817 1.393 . S
C821 C820 1.391 . S
C822 H812 0.950 . S
C822 C823 1.386 . S
C822 C824 1.391 1_565 S
C823 C822 1.386 . S
C823 C827 1.399 . S
C824 H813 0.950 . S
C824 C822 1.391 1_545 S
C824 C825 1.400 . S
C825 C819 1.491 . S
C825 C824 1.400 . S
C825 C826 1.398 . S
C826 H814 0.950 . S
C826 C825 1.398 . S
C826 C827 1.384 1_545 S
C827 H815 0.950 . S
C827 C823 1.399 . S
C827 C826 1.384 1_565 S
H828 C836 0.950 . S
H829 C841 0.950 . S
H830 C838 0.950 . S
H831 C840 0.950 . S
H832 C842 0.950 . S
H833 C844 0.950 . S
H834 C846 0.950 . S
H835 C847 0.950 . S
C836 H828 0.950 . S
C836 C837 1.386 . S
C836 C838 1.391 . S
C837 C836 1.386 . S
C837 C841 1.393 . S
C838 H830 0.950 . S
C838 C836 1.391 . S
C838 C839 1.400 . S
C839 C838 1.400 . S
C839 C840 1.398 . S
C839 C845 1.491 . S
C840 H831 0.950 . S
C840 C839 1.398 . S
C840 C841 1.391 . S
C841 H829 0.950 . S
C841 C837 1.393 . S
C841 C840 1.391 . S
C842 H832 0.950 . S
C842 C843 1.386 . S
C842 C844 1.391 1_545 S
C843 C842 1.386 . S
C843 C847 1.393 . S
C844 H833 0.950 . S
C844 C842 1.391 1_565 S
C844 C845 1.400 . S
C845 C839 1.491 . S
C845 C844 1.400 . S
C845 C846 1.398 . S
C846 H834 0.950 . S
C846 C845 1.398 . S
C846 C847 1.391 1_565 S
C847 H835 0.950 . S
C847 C843 1.393 . S
C847 C846 1.391 1_545 S
H848 C856 0.950 . S
H849 C861 0.950 . S
H850 C858 0.950 . S
H851 C860 0.950 . S
H852 C862 0.950 . S
H853 C864 0.950 . S
H854 C866 0.950 . S
H855 C867 0.950 . S
C856 H848 0.950 . S
C856 C857 1.386 . S
C856 C858 1.391 . S
C857 C856 1.386 . S
C857 C861 1.393 . S
C858 H850 0.950 . S
C858 C856 1.391 . S
C858 C859 1.400 . S
C859 C858 1.400 . S
C859 C860 1.398 . S
C859 C865 1.491 . S
C860 H851 0.950 . S
C860 C859 1.398 . S
C860 C861 1.391 . S
C861 H849 0.950 . S
C861 C857 1.393 . S
C861 C860 1.391 . S
C862 H852 0.950 . S
C862 C863 1.386 . S
C862 C864 1.391 . S
C863 C862 1.386 . S
C863 C867 1.393 . S
C864 H853 0.950 . S
C864 C862 1.391 . S
C864 C865 1.400 . S
C865 C859 1.491 . S
C865 C864 1.400 . S
C865 C866 1.398 . S
C866 H854 0.950 . S
C866 C865 1.398 . S
C866 C867 1.391 . S
C867 H855 0.950 . S
C867 C863 1.393 . S
C867 C866 1.391 . S
H868 C876 0.950 . S
H869 C881 0.950 . S
H870 C878 0.950 . S
H871 C880 0.950 . S
H872 C882 0.950 . S
H873 C884 0.950 . S
H874 C886 0.950 . S
H875 C887 0.950 . S
C876 H868 0.950 . S
C876 C877 1.386 . S
C876 C878 1.391 . S
C877 C876 1.386 . S
C877 C881 1.393 . S
C878 H870 0.950 . S
C878 C876 1.391 . S
C878 C879 1.400 . S
C879 C878 1.400 . S
C879 C880 1.398 . S
C879 C885 1.491 . S
C880 H871 0.950 . S
C880 C879 1.398 . S
C880 C881 1.391 . S
C881 H869 0.950 . S
C881 C877 1.393 . S
C881 C880 1.391 . S
C882 H872 0.950 . S
C882 C883 1.386 1_556 S
C882 C884 1.391 . S
C883 C882 1.386 1_554 S
C883 C887 1.393 . S
C884 H873 0.950 . S
C884 C882 1.391 . S
C884 C885 1.400 . S
C885 C879 1.491 . S
C885 C884 1.400 . S
C885 C886 1.398 1_556 S
C886 H874 0.950 . S
C886 C885 1.398 1_554 S
C886 C887 1.391 . S
C887 H875 0.950 . S
C887 C883 1.393 . S
C887 C886 1.391 . S
H888 C896 0.950 . S
H889 C901 0.950 . S
H890 C898 0.950 . S
H891 C900 0.950 . S
H892 C902 0.950 . S
H893 C904 0.950 . S
H894 C906 0.950 . S
H895 C907 0.950 . S
C896 H888 0.950 . S
C896 C897 1.386 . S
C896 C898 1.391 . S
C897 C896 1.386 . S
C897 C901 1.393 . S
C898 H890 0.950 . S
C898 C896 1.391 . S
C898 C899 1.400 . S
C899 C898 1.400 . S
C899 C900 1.398 . S
C899 C905 1.491 . S
C900 H891 0.950 . S
C900 C899 1.398 . S
C900 C901 1.391 . S
C901 H889 0.950 . S
C901 C897 1.393 . S
C901 C900 1.391 . S
C902 H892 0.950 . S
C902 C903 1.386 . S
C902 C904 1.391 . S
C903 C902 1.386 . S
C903 C907 1.393 . S
C904 H893 0.950 . S
C904 C902 1.391 . S
C904 C905 1.400 . S
C905 C899 1.491 . S
C905 C904 1.400 . S
C905 C906 1.398 . S
C906 H894 0.950 . S
C906 C905 1.398 . S
C906 C907 1.391 . S
C907 H895 0.950 . S
C907 C903 1.393 . S
C907 C906 1.391 . S
H908 C916 0.950 . S
H909 C921 0.950 . S
H910 C918 0.950 . S
H911 C920 0.950 . S
H912 C922 0.950 . S
H913 C924 0.950 . S
H914 C926 0.950 . S
H915 C927 0.950 . S
C916 H908 0.950 . S
C916 C917 1.386 . S
C916 C918 1.391 1_556 S
C917 C916 1.386 . S
C917 C921 1.393 . S
C918 H910 0.950 . S
C918 C916 1.391 1_554 S
C918 C919 1.400 . S
C919 C918 1.400 . S
C919 C920 1.398 . S
C919 C925 1.491 . S
C920 H911 0.950 . S
C920 C919 1.398 . S
C920 C921 1.391 1_554 S
C921 H909 0.950 . S
C921 C917 1.393 . S
C921 C920 1.391 1_556 S
C922 H912 0.950 . S
C922 C923 1.386 . S
C922 C924 1.391 . S
C923 C922 1.386 . S
C923 C927 1.393 . S
C924 H913 0.950 . S
C924 C922 1.391 . S
C924 C925 1.400 . S
C925 C919 1.491 . S
C925 C924 1.400 . S
C925 C926 1.398 . S
C926 H914 0.950 . S
C926 C925 1.398 . S
C926 C927 1.391 . S
C927 H915 0.950 . S
C927 C923 1.393 . S
C927 C926 1.391 . S
H928 C936 0.950 . S
H929 C941 0.950 . S
H930 C938 0.950 . S
H931 C940 0.950 . S
H932 C942 0.950 . S
H933 C944 0.950 . S
H934 C946 0.950 . S
H935 C947 0.950 . S
C936 H928 0.950 . S
C936 C937 1.386 . S
C936 C938 1.391 . S
C937 C936 1.386 . S
C937 C941 1.393 . S
C938 H930 0.950 . S
C938 C936 1.391 . S
C938 C939 1.400 . S
C939 C938 1.400 . S
C939 C940 1.398 . S
C939 C945 1.491 . S
C940 H931 0.950 . S
C940 C939 1.398 . S
C940 C941 1.391 . S
C941 H929 0.950 . S
C941 C937 1.393 . S
C941 C940 1.391 . S
C942 H932 0.950 . S
C942 C943 1.386 . S
C942 C944 1.391 . S
C943 C942 1.386 . S
C943 C947 1.393 . S
C944 H933 0.950 . S
C944 C942 1.391 . S
C944 C945 1.400 . S
C945 C939 1.491 . S
C945 C944 1.400 . S
C945 C946 1.398 . S
C946 H934 0.950 . S
C946 C945 1.398 . S
C946 C947 1.391 . S
C947 H935 0.950 . S
C947 C943 1.393 . S
C947 C946 1.391 . S
H948 C956 0.950 . S
H949 C961 0.950 . S
H950 C958 0.950 . S
H951 C960 0.950 . S
H952 C962 0.950 . S
H953 C964 0.950 . S
H954 C966 0.950 . S
H955 C967 0.950 . S
C956 H948 0.950 . S
C956 C957 1.386 1_655 S
C956 C958 1.391 . S
C957 C956 1.386 1_455 S
C957 C961 1.393 . S
C958 H950 0.950 . S
C958 C956 1.391 . S
C958 C959 1.400 . S
C959 C958 1.400 . S
C959 C960 1.398 1_655 S
C959 C965 1.491 . S
C960 H951 0.950 . S
C960 C959 1.398 1_455 S
C960 C961 1.391 . S
C961 H949 0.950 . S
C961 C957 1.393 . S
C961 C960 1.391 . S
C962 H952 0.950 . S
C962 C963 1.386 . S
C962 C964 1.391 . S
C963 C962 1.386 . S
C963 C967 1.393 . S
C964 H953 0.950 . S
C964 C962 1.391 . S
C964 C965 1.400 . S
C965 C959 1.491 . S
C965 C964 1.400 . S
C965 C966 1.398 . S
C966 H954 0.950 . S
C966 C965 1.398 . S
C966 C967 1.391 . S
C967 H955 0.950 . S
C967 C963 1.393 . S
C967 C966 1.391 . S
H968 C976 0.950 . S
H969 C981 0.950 . S
H970 C978 0.950 . S
H971 C980 0.950 . S
H972 C982 0.950 . S
H973 C984 0.950 . S
H974 C986 0.950 . S
H975 C987 0.950 . S
C976 H968 0.950 . S
C976 C977 1.386 . S
C976 C978 1.391 . S
C977 C976 1.386 . S
C977 C981 1.393 . S
C978 H970 0.950 . S
C978 C976 1.391 . S
C978 C979 1.400 . S
C979 C978 1.400 . S
C979 C980 1.398 . S
C979 C985 1.491 . S
C980 H971 0.950 . S
C980 C979 1.398 . S
C980 C981 1.391 . S
C981 H969 0.950 . S
C981 C977 1.393 . S
C981 C980 1.391 . S
C982 H972 0.950 . S
C982 C983 1.386 . S
C982 C984 1.391 . S
C983 C982 1.386 . S
C983 C987 1.393 . S
C984 H973 0.950 . S
C984 C982 1.391 . S
C984 C985 1.400 . S
C985 C979 1.491 . S
C985 C984 1.400 . S
C985 C986 1.398 . S
C986 H974 0.950 . S
C986 C985 1.398 . S
C986 C987 1.391 . S
C987 H975 0.950 . S
C987 C983 1.393 . S
C987 C986 1.391 . S
H988 C996 0.950 . S
H989 C1001 0.950 . S
H990 C998 0.950 . S
H991 C1000 0.950 . S
H992 C1002 0.950 . S
H993 C1004 0.950 . S
H994 C1006 0.949 1_655 S
H995 C1007 0.950 . S
C996 H988 0.950 . S
C996 C997 1.386 . S
C996 C998 1.391 . S
C997 C996 1.386 . S
C997 C1001 1.393 . S
C998 H990 0.950 . S
C998 C996 1.391 . S
C998 C999 1.400 . S
C999 C998 1.400 . S
C999 C1000 1.398 . S
C999 C1005 1.491 . S
C1000 H991 0.950 . S
C1000 C999 1.398 . S
C1000 C1001 1.391 . S
C1001 H989 0.950 . S
C1001 C997 1.393 . S
C1001 C1000 1.391 . S
C1002 H992 0.950 . S
C1002 C1003 1.386 1_455 S
C1002 C1004 1.391 . S
C1003 C1002 1.386 1_655 S
C1003 C1007 1.393 . S
C1004 H993 0.950 . S
C1004 C1002 1.391 . S
C1004 C1005 1.400 . S
C1005 C999 1.491 . S
C1005 C1004 1.400 . S
C1005 C1006 1.398 . S
C1006 H994 0.949 1_455 S
C1006 C1005 1.398 . S
C1006 C1007 1.391 1_455 S
C1007 H995 0.950 . S
C1007 C1003 1.393 . S
C1007 C1006 1.391 1_655 S
H1008 C1016 0.950 1_556 S
H1009 C1021 0.950 . S
H1010 C1018 0.950 . S
H1011 C1020 0.950 . S
H1012 C1022 0.950 . S
H1013 C1024 0.950 . S
H1014 C1026 0.950 . S
H1015 C1027 0.950 . S
C1016 H1008 0.950 1_554 S
C1016 C1017 1.386 1_554 S
C1016 C1018 1.391 . S
C1017 C1016 1.386 1_556 S
C1017 C1021 1.393 1_556 S
C1018 H1010 0.950 . S
C1018 C1016 1.391 . S
C1018 C1019 1.400 . S
C1019 C1018 1.400 . S
C1019 C1020 1.398 . S
C1019 C1025 1.491 . S
C1020 H1011 0.950 . S
C1020 C1019 1.398 . S
C1020 C1021 1.391 . S
C1021 H1009 0.950 . S
C1021 C1017 1.393 1_554 S
C1021 C1020 1.391 . S
C1022 H1012 0.950 . S
C1022 C1023 1.386 . S
C1022 C1024 1.391 . S
C1023 C1022 1.386 . S
C1023 C1027 1.393 . S
C1024 H1013 0.950 . S
C1024 C1022 1.391 . S
C1024 C1025 1.400 . S
C1025 C1019 1.491 . S
C1025 C1024 1.400 . S
C1025 C1026 1.398 . S
C1026 H1014 0.950 . S
C1026 C1025 1.398 . S
C1026 C1027 1.391 . S
C1027 H1015 0.950 . S
C1027 C1023 1.393 . S
C1027 C1026 1.391 . S
H1028 C1036 0.950 . S
H1029 C1041 0.950 . S
H1030 C1038 0.950 . S
H1031 C1040 0.950 . S
H1032 C1042 0.950 . S
H1033 C1044 0.950 . S
H1034 C1046 0.950 . S
H1035 C1047 0.950 . S
C1036 H1028 0.950 . S
C1036 C1037 1.386 . S
C1036 C1038 1.391 . S
C1037 C1036 1.386 . S
C1037 C1041 1.393 . S
C1038 H1030 0.950 . S
C1038 C1036 1.391 . S
C1038 C1039 1.400 . S
C1039 C1038 1.400 . S
C1039 C1040 1.398 . S
C1039 C1045 1.491 . S
C1040 H1031 0.950 . S
C1040 C1039 1.398 . S
C1040 C1041 1.391 . S
C1041 H1029 0.950 . S
C1041 C1037 1.393 . S
C1041 C1040 1.391 . S
C1042 H1032 0.950 . S
C1042 C1043 1.386 . S
C1042 C1044 1.391 . S
C1043 C1042 1.386 . S
C1043 C1047 1.393 . S
C1044 H1033 0.950 . S
C1044 C1042 1.391 . S
C1044 C1045 1.400 . S
C1045 C1039 1.491 . S
C1045 C1044 1.400 . S
C1045 C1046 1.398 . S
C1046 H1034 0.950 . S
C1046 C1045 1.398 . S
C1046 C1047 1.391 . S
C1047 H1035 0.950 . S
C1047 C1043 1.393 . S
C1047 C1046 1.391 . S
H1048 C1056 0.950 1_554 S
H1049 C1061 0.950 . S
H1050 C1058 0.950 . S
H1051 C1060 0.950 . S
H1052 C1062 0.950 . S
H1053 C1064 0.950 . S
H1054 C1066 0.950 . S
H1055 C1067 0.950 . S
C1056 H1048 0.950 1_556 S
C1056 C1057 1.386 1_556 S
C1056 C1058 1.391 . S
C1057 C1056 1.386 1_554 S
C1057 C1061 1.393 1_554 S
C1058 H1050 0.950 . S
C1058 C1056 1.391 . S
C1058 C1059 1.400 . S
C1059 C1058 1.400 . S
C1059 C1060 1.398 . S
C1059 C1065 1.491 . S
C1060 H1051 0.950 . S
C1060 C1059 1.398 . S
C1060 C1061 1.391 . S
C1061 H1049 0.950 . S
C1061 C1057 1.393 1_556 S
C1061 C1060 1.391 . S
C1062 H1052 0.950 . S
C1062 C1063 1.386 . S
C1062 C1064 1.391 . S
C1063 C1062 1.386 . S
C1063 C1067 1.393 . S
C1064 H1053 0.950 . S
C1064 C1062 1.391 . S
C1064 C1065 1.400 . S
C1065 C1059 1.491 . S
C1065 C1064 1.400 . S
C1065 C1066 1.398 . S
C1066 H1054 0.950 . S
C1066 C1065 1.398 . S
C1066 C1067 1.391 . S
C1067 H1055 0.950 . S
C1067 C1063 1.393 . S
C1067 C1066 1.391 . S
H1068 C1076 0.950 . S
H1069 C1081 0.950 . S
H1070 C1078 0.950 . S
H1071 C1080 0.950 . S
H1072 C1082 0.950 . S
H1073 C1084 0.950 . S
H1074 C1086 0.950 . S
H1075 C1087 0.950 . S
C1076 H1068 0.950 . S
C1076 C1077 1.386 . S
C1076 C1078 1.391 . S
C1077 C1076 1.386 . S
C1077 C1081 1.393 . S
C1078 H1070 0.950 . S
C1078 C1076 1.391 . S
C1078 C1079 1.400 . S
C1079 C1078 1.400 . S
C1079 C1080 1.398 . S
C1079 C1085 1.491 . S
C1080 H1071 0.950 . S
C1080 C1079 1.398 . S
C1080 C1081 1.391 . S
C1081 H1069 0.950 . S
C1081 C1077 1.393 . S
C1081 C1080 1.391 . S
C1082 H1072 0.950 . S
C1082 C1083 1.386 . S
C1082 C1084 1.391 . S
C1083 C1082 1.386 . S
C1083 C1087 1.393 . S
C1084 H1073 0.950 . S
C1084 C1082 1.391 . S
C1084 C1085 1.400 . S
C1085 C1079 1.491 . S
C1085 C1084 1.400 . S
C1085 C1086 1.398 . S
C1086 H1074 0.950 . S
C1086 C1085 1.398 . S
C1086 C1087 1.391 . S
C1087 H1075 0.950 . S
C1087 C1083 1.393 . S
C1087 C1086 1.391 . S
H1088 C1096 0.950 . S
H1089 C1101 0.950 . S
H1090 C1098 0.950 . S
H1091 C1100 0.950 . S
H1092 C1102 0.950 1_655 S
H1093 C1104 0.950 . S
H1094 C1106 0.950 . S
H1095 C1107 0.950 . S
C1096 H1088 0.950 . S
C1096 C1097 1.386 . S
C1096 C1098 1.391 . S
C1097 C1096 1.386 . S
C1097 C1101 1.393 . S
C1098 H1090 0.950 . S
C1098 C1096 1.391 . S
C1098 C1099 1.400 . S
C1099 C1098 1.400 . S
C1099 C1100 1.398 . S
C1099 C1105 1.491 . S
C1100 H1091 0.950 . S
C1100 C1099 1.398 . S
C1100 C1101 1.391 . S
C1101 H1089 0.950 . S
C1101 C1097 1.393 . S
C1101 C1100 1.391 . S
C1102 H1092 0.950 1_455 S
C1102 C1103 1.386 1_455 S
C1102 C1104 1.391 . S
C1103 C1102 1.386 1_655 S
C1103 C1107 1.393 1_655 S
C1104 H1093 0.950 . S
C1104 C1102 1.391 . S
C1104 C1105 1.400 . S
C1105 C1099 1.491 . S
C1105 C1104 1.400 . S
C1105 C1106 1.398 . S
C1106 H1094 0.950 . S
C1106 C1105 1.398 . S
C1106 C1107 1.391 . S
C1107 H1095 0.950 . S
C1107 C1103 1.393 1_455 S
C1107 C1106 1.391 . S
H1108 C1116 0.950 . S
H1109 C1121 0.950 . S
H1110 C1118 0.950 . S
H1111 C1120 0.950 . S
H1112 C1122 0.950 . S
H1113 C1124 0.950 . S
H1114 C1126 0.950 . S
H1115 C1127 0.950 . S
C1116 H1108 0.950 . S
C1116 C1117 1.386 . S
C1116 C1118 1.391 . S
C1117 C1116 1.386 . S
C1117 C1121 1.393 . S
C1118 H1110 0.950 . S
C1118 C1116 1.391 . S
C1118 C1119 1.400 . S
C1119 C1118 1.400 . S
C1119 C1120 1.398 . S
C1119 C1125 1.491 . S
C1120 H1111 0.950 . S
C1120 C1119 1.398 . S
C1120 C1121 1.391 . S
C1121 H1109 0.950 . S
C1121 C1117 1.393 . S
C1121 C1120 1.391 . S
C1122 H1112 0.950 . S
C1122 C1123 1.386 . S
C1122 C1124 1.391 . S
C1123 C1122 1.386 . S
C1123 C1127 1.393 . S
C1124 H1113 0.950 . S
C1124 C1122 1.391 . S
C1124 C1125 1.400 . S
C1125 C1119 1.491 . S
C1125 C1124 1.400 . S
C1125 C1126 1.398 . S
C1126 H1114 0.950 . S
C1126 C1125 1.398 . S
C1126 C1127 1.391 . S
C1127 H1115 0.950 . S
C1127 C1123 1.393 . S
C1127 C1126 1.391 . S
H1128 C1136 0.950 . S
H1129 C1141 0.950 . S
H1130 C1138 0.950 . S
H1131 C1140 0.950 . S
H1132 C1142 0.950 . S
H1133 C1144 0.950 . S
H1134 C1146 0.950 . S
H1135 C1147 0.950 . S
C1136 H1128 0.950 . S
C1136 C1137 1.386 . S
C1136 C1138 1.391 . S
C1137 C1136 1.386 . S
C1137 C1141 1.393 . S
C1138 H1130 0.950 . S
C1138 C1136 1.391 . S
C1138 C1139 1.400 . S
C1139 C1138 1.400 . S
C1139 C1140 1.398 . S
C1139 C1145 1.491 . S
C1140 H1131 0.950 . S
C1140 C1139 1.398 . S
C1140 C1141 1.391 . S
C1141 H1129 0.950 . S
C1141 C1137 1.393 . S
C1141 C1140 1.391 . S
C1142 H1132 0.950 . S
C1142 C1143 1.386 . S
C1142 C1144 1.391 . S
C1143 C1142 1.386 . S
C1143 C1147 1.393 . S
C1144 H1133 0.950 . S
C1144 C1142 1.391 . S
C1144 C1145 1.400 . S
C1145 C1139 1.491 . S
C1145 C1144 1.400 . S
C1145 C1146 1.398 . S
C1146 H1134 0.950 . S
C1146 C1145 1.398 . S
C1146 C1147 1.391 . S
C1147 H1135 0.950 . S
C1147 C1143 1.393 . S
C1147 C1146 1.391 . S
H1148 C1156 0.950 1_455 S
H1149 C1161 0.950 . S
H1150 C1158 0.950 . S
H1151 C1160 0.950 . S
H1152 C1162 0.950 . S
H1153 C1164 0.950 . S
H1154 C1166 0.950 . S
H1155 C1167 0.950 . S
C1156 H1148 0.950 1_655 S
C1156 C1157 1.386 1_655 S
C1156 C1158 1.391 . S
C1157 C1156 1.386 1_455 S
C1157 C1161 1.393 1_455 S
C1158 H1150 0.950 . S
C1158 C1156 1.391 . S
C1158 C1159 1.400 . S
C1159 C1158 1.400 . S
C1159 C1160 1.398 . S
C1159 C1165 1.491 . S
C1160 H1151 0.950 . S
C1160 C1159 1.398 . S
C1160 C1161 1.391 . S
C1161 H1149 0.950 . S
C1161 C1157 1.393 1_655 S
C1161 C1160 1.391 . S
C1162 H1152 0.950 . S
C1162 C1163 1.386 . S
C1162 C1164 1.391 . S
C1163 C1162 1.386 . S
C1163 C1167 1.393 . S
C1164 H1153 0.950 . S
C1164 C1162 1.391 . S
C1164 C1165 1.400 . S
C1165 C1159 1.491 . S
C1165 C1164 1.400 . S
C1165 C1166 1.398 . S
C1166 H1154 0.950 . S
C1166 C1165 1.398 . S
C1166 C1167 1.391 . S
C1167 H1155 0.950 . S
C1167 C1163 1.393 . S
C1167 C1166 1.391 . S
H1168 C1176 0.950 . S
H1169 C1181 0.950 1_565 S
H1170 C1178 0.950 . S
H1171 C1180 0.950 . S
H1172 C1182 0.950 . S
H1173 C1184 0.950 . S
H1174 C1186 0.950 . S
H1175 C1187 0.950 . S
C1176 H1168 0.950 . S
C1176 C1177 1.386 1_545 S
C1176 C1178 1.391 . S
C1177 C1176 1.386 1_565 S
C1177 C1181 1.393 1_565 S
C1178 H1170 0.950 . S
C1178 C1176 1.391 . S
C1178 C1179 1.400 . S
C1179 C1178 1.400 . S
C1179 C1180 1.398 . S
C1179 C1185 1.491 . S
C1180 H1171 0.950 . S
C1180 C1179 1.398 . S
C1180 C1181 1.391 . S
C1181 H1169 0.950 1_545 S
C1181 C1177 1.393 1_545 S
C1181 C1180 1.391 . S
C1182 H1172 0.950 . S
C1182 C1183 1.386 . S
C1182 C1184 1.391 . S
C1183 C1182 1.386 . S
C1183 C1187 1.393 . S
C1184 H1173 0.950 . S
C1184 C1182 1.391 . S
C1184 C1185 1.400 . S
C1185 C1179 1.491 . S
C1185 C1184 1.400 . S
C1185 C1186 1.398 . S
C1186 H1174 0.950 . S
C1186 C1185 1.398 . S
C1186 C1187 1.391 . S
C1187 H1175 0.950 . S
C1187 C1183 1.393 . S
C1187 C1186 1.391 . S
H1188 C1196 0.950 . S
H1189 C1201 0.950 . S
H1190 C1198 0.950 . S
H1191 C1200 0.950 . S
H1192 C1202 0.950 . S
H1193 C1204 0.950 . S
H1194 C1206 0.950 . S
H1195 C1207 0.950 . S
C1196 H1188 0.950 . S
C1196 C1197 1.386 . S
C1196 C1198 1.391 . S
C1197 C1196 1.386 . S
C1197 C1201 1.393 . S
C1198 H1190 0.950 . S
C1198 C1196 1.391 . S
C1198 C1199 1.400 . S
C1199 C1198 1.400 . S
C1199 C1200 1.398 . S
C1199 C1205 1.491 . S
C1200 H1191 0.950 . S
C1200 C1199 1.398 . S
C1200 C1201 1.391 . S
C1201 H1189 0.950 . S
C1201 C1197 1.393 . S
C1201 C1200 1.391 . S
C1202 H1192 0.950 . S
C1202 C1203 1.386 . S
C1202 C1204 1.391 . S
C1203 C1202 1.386 . S
C1203 C1207 1.393 . S
C1204 H1193 0.950 . S
C1204 C1202 1.391 . S
C1204 C1205 1.400 . S
C1205 C1199 1.491 . S
C1205 C1204 1.400 . S
C1205 C1206 1.398 . S
C1206 H1194 0.950 . S
C1206 C1205 1.398 . S
C1206 C1207 1.391 . S
C1207 H1195 0.950 . S
C1207 C1203 1.393 . S
C1207 C1206 1.391 . S
H1208 C1216 0.950 . S
H1209 C1221 0.950 . S
H1210 C1218 0.950 . S
H1211 C1220 0.950 . S
H1212 C1222 0.950 . S
H1213 C1224 0.950 . S
H1214 C1226 0.950 . S
H1215 C1227 0.950 . S
C1216 H1208 0.950 . S
C1216 C1217 1.386 . S
C1216 C1218 1.391 . S
C1217 C1216 1.386 . S
C1217 C1221 1.393 . S
C1218 H1210 0.950 . S
C1218 C1216 1.391 . S
C1218 C1219 1.400 . S
C1219 C1218 1.400 . S
C1219 C1220 1.398 . S
C1219 C1225 1.491 . S
C1220 H1211 0.950 . S
C1220 C1219 1.398 . S
C1220 C1221 1.391 . S
C1221 H1209 0.950 . S
C1221 C1217 1.393 . S
C1221 C1220 1.391 . S
C1222 H1212 0.950 . S
C1222 C1223 1.386 . S
C1222 C1224 1.391 . S
C1223 C1222 1.386 . S
C1223 C1227 1.393 . S
C1224 H1213 0.950 . S
C1224 C1222 1.391 . S
C1224 C1225 1.400 . S
C1225 C1219 1.491 . S
C1225 C1224 1.400 . S
C1225 C1226 1.398 . S
C1226 H1214 0.950 . S
C1226 C1225 1.398 . S
C1226 C1227 1.391 . S
C1227 H1215 0.950 . S
C1227 C1223 1.393 . S
C1227 C1226 1.391 . S
H1228 C1236 0.931 1_545 S
H1229 C1241 0.964 . S
H1230 C1238 0.950 . S
H1231 C1240 0.950 . S
H1232 C1242 0.950 . S
H1233 C1244 0.950 . S
H1234 C1246 0.950 . S
H1235 C1247 0.950 . S
C1236 H1228 0.931 1_565 S
C1236 C1237 1.386 1_565 S
C1236 C1238 1.391 . S
C1237 C1236 1.386 1_545 S
C1237 C1241 1.393 1_545 S
C1238 H1230 0.950 . S
C1238 C1236 1.391 . S
C1238 C1239 1.400 . S
C1239 C1238 1.400 . S
C1239 C1240 1.398 . S
C1239 C1245 1.491 . S
C1240 H1231 0.950 . S
C1240 C1239 1.398 . S
C1240 C1241 1.391 . S
C1241 H1229 0.964 . S
C1241 C1237 1.393 1_565 S
C1241 C1240 1.391 . S
C1242 H1232 0.950 . S
C1242 C1243 1.386 . S
C1242 C1244 1.391 . S
C1243 C1242 1.386 . S
C1243 C1247 1.393 . S
C1244 H1233 0.950 . S
C1244 C1242 1.391 . S
C1244 C1245 1.400 . S
C1245 C1239 1.491 . S
C1245 C1244 1.400 . S
C1245 C1246 1.398 . S
C1246 H1234 0.950 . S
C1246 C1245 1.398 . S
C1246 C1247 1.391 . S
C1247 H1235 0.950 . S
C1247 C1243 1.393 . S
C1247 C1246 1.391 . S
H1248 C1256 0.950 . S
H1249 C1261 0.950 . S
H1250 C1258 0.950 . S
H1251 C1260 0.950 . S
H1252 C1262 0.950 . S
H1253 C1264 0.950 . S
H1254 C1266 0.950 . S
H1255 C1267 0.950 1_554 S
C1256 H1248 0.950 . S
C1256 C1257 1.386 . S
C1256 C1258 1.391 . S
C1257 C1256 1.386 . S
C1257 C1261 1.393 . S
C1258 H1250 0.950 . S
C1258 C1256 1.391 . S
C1258 C1259 1.400 . S
C1259 C1258 1.400 . S
C1259 C1260 1.398 . S
C1259 C1265 1.491 . S
C1260 H1251 0.950 . S
C1260 C1259 1.398 . S
C1260 C1261 1.391 . S
C1261 H1249 0.950 . S
C1261 C1257 1.393 . S
C1261 C1260 1.391 . S
C1262 H1252 0.950 . S
C1262 C1263 1.386 1_556 S
C1262 C1264 1.391 . S
C1263 C1262 1.386 1_554 S
C1263 C1267 1.393 1_554 S
C1264 H1253 0.950 . S
C1264 C1262 1.391 . S
C1264 C1265 1.400 . S
C1265 C1259 1.491 . S
C1265 C1264 1.400 . S
C1265 C1266 1.398 . S
C1266 H1254 0.950 . S
C1266 C1265 1.398 . S
C1266 C1267 1.391 . S
C1267 H1255 0.950 1_556 S
C1267 C1263 1.393 1_556 S
C1267 C1266 1.391 . S
H1268 C1276 0.950 . S
H1269 C1281 0.950 . S
H1270 C1278 0.950 . S
H1271 C1280 0.950 . S
H1272 C1282 0.950 . S
H1273 C1284 0.950 . S
H1274 C1286 0.950 . S
H1275 C1287 0.950 . S
C1276 H1268 0.950 . S
C1276 C1277 1.386 . S
C1276 C1278 1.391 . S
C1277 C1276 1.386 . S
C1277 C1281 1.393 . S
C1278 H1270 0.950 . S
C1278 C1276 1.391 . S
C1278 C1279 1.400 . S
C1279 C1278 1.400 . S
C1279 C1280 1.398 . S
C1279 C1285 1.491 . S
C1280 H1271 0.950 . S
C1280 C1279 1.398 . S
C1280 C1281 1.391 . S
C1281 H1269 0.950 . S
C1281 C1277 1.393 . S
C1281 C1280 1.391 . S
C1282 H1272 0.950 . S
C1282 C1283 1.386 . S
C1282 C1284 1.391 . S
C1283 C1282 1.386 . S
C1283 C1287 1.393 . S
C1284 H1273 0.950 . S
C1284 C1282 1.391 . S
C1284 C1285 1.400 . S
C1285 C1279 1.491 . S
C1285 C1284 1.400 . S
C1285 C1286 1.398 . S
C1286 H1274 0.950 . S
C1286 C1285 1.398 . S
C1286 C1287 1.391 . S
C1287 H1275 0.950 . S
C1287 C1283 1.393 . S
C1287 C1286 1.391 . S
H1288 C1296 0.950 . S
H1289 C1301 0.950 . S
H1290 C1298 0.950 . S
H1291 C1300 0.950 . S
H1292 C1302 0.950 1_556 S
H1293 C1304 0.950 . S
H1294 C1306 0.950 . S
H1295 C1307 0.950 . S
C1296 H1288 0.950 . S
C1296 C1297 1.386 . S
C1296 C1298 1.391 . S
C1297 C1296 1.386 . S
C1297 C1301 1.393 . S
C1298 H1290 0.950 . S
C1298 C1296 1.391 . S
C1298 C1299 1.400 . S
C1299 C1298 1.400 . S
C1299 C1300 1.398 . S
C1299 C1305 1.491 . S
C1300 H1291 0.950 . S
C1300 C1299 1.398 . S
C1300 C1301 1.391 . S
C1301 H1289 0.950 . S
C1301 C1297 1.393 . S
C1301 C1300 1.391 . S
C1302 H1292 0.950 1_554 S
C1302 C1303 1.386 1_554 S
C1302 C1304 1.391 . S
C1303 C1302 1.386 1_556 S
C1303 C1307 1.393 1_556 S
C1304 H1293 0.950 . S
C1304 C1302 1.391 . S
C1304 C1305 1.400 . S
C1305 C1299 1.491 . S
C1305 C1304 1.400 . S
C1305 C1306 1.398 . S
C1306 H1294 0.950 . S
C1306 C1305 1.398 . S
C1306 C1307 1.391 . S
C1307 H1295 0.950 . S
C1307 C1303 1.393 1_554 S
C1307 C1306 1.391 . S
H1308 C1316 0.950 . S
H1309 C1321 0.950 . S
H1310 C1318 0.950 . S
H1311 C1320 0.950 . S
H1312 C1322 0.950 . S
H1313 C1324 0.950 . S
H1314 C1326 0.950 . S
H1315 C1327 0.950 . S
C1316 H1308 0.950 . S
C1316 C1317 1.386 . S
C1316 C1318 1.391 . S
C1317 C1316 1.386 . S
C1317 C1321 1.393 . S
C1318 H1310 0.950 . S
C1318 C1316 1.391 . S
C1318 C1319 1.400 . S
C1319 C1318 1.400 . S
C1319 C1320 1.398 . S
C1319 C1325 1.491 . S
C1320 H1311 0.950 . S
C1320 C1319 1.398 . S
C1320 C1321 1.391 . S
C1321 H1309 0.950 . S
C1321 C1317 1.393 . S
C1321 C1320 1.391 . S
C1322 H1312 0.950 . S
C1322 C1323 1.386 . S
C1322 C1324 1.391 . S
C1323 C1322 1.386 . S
C1323 C1327 1.393 . S
C1324 H1313 0.950 . S
C1324 C1322 1.391 . S
C1324 C1325 1.400 . S
C1325 C1319 1.491 . S
C1325 C1324 1.400 . S
C1325 C1326 1.398 . S
C1326 H1314 0.950 . S
C1326 C1325 1.398 . S
C1326 C1327 1.391 . S
C1327 H1315 0.950 . S
C1327 C1323 1.393 . S
C1327 C1326 1.391 . S
H1328 C1336 0.950 . S
H1329 C1341 0.950 1_455 S
H1330 C1338 0.950 . S
H1331 C1340 0.950 . S
H1332 C1342 0.950 . S
H1333 C1344 0.950 . S
H1334 C1346 0.950 . S
H1335 C1347 0.950 . S
C1336 H1328 0.950 . S
C1336 C1337 1.386 1_655 S
C1336 C1338 1.391 . S
C1337 C1336 1.386 1_455 S
C1337 C1341 1.393 1_455 S
C1338 H1330 0.950 . S
C1338 C1336 1.391 . S
C1338 C1339 1.400 . S
C1339 C1338 1.400 . S
C1339 C1340 1.398 . S
C1339 C1345 1.491 . S
C1340 H1331 0.950 . S
C1340 C1339 1.398 . S
C1340 C1341 1.391 . S
C1341 H1329 0.950 1_655 S
C1341 C1337 1.393 1_655 S
C1341 C1340 1.391 . S
C1342 H1332 0.950 . S
C1342 C1343 1.386 . S
C1342 C1344 1.391 . S
C1343 C1342 1.386 . S
C1343 C1347 1.393 . S
C1344 H1333 0.950 . S
C1344 C1342 1.391 . S
C1344 C1345 1.400 . S
C1345 C1339 1.491 . S
C1345 C1344 1.400 . S
C1345 C1346 1.398 . S
C1346 H1334 0.950 . S
C1346 C1345 1.398 . S
C1346 C1347 1.391 . S
C1347 H1335 0.950 . S
C1347 C1343 1.393 . S
C1347 C1346 1.391 . S
H1348 C1356 0.950 . S
H1349 C1361 0.950 . S
H1350 C1358 0.950 . S
H1351 C1360 0.950 . S
H1352 C1362 0.950 . S
H1353 C1364 0.950 . S
H1354 C1366 0.950 . S
H1355 C1367 0.950 . S
C1356 H1348 0.950 . S
C1356 C1357 1.386 . S
C1356 C1358 1.391 . S
C1357 C1356 1.386 . S
C1357 C1361 1.393 . S
C1358 H1350 0.950 . S
C1358 C1356 1.391 . S
C1358 C1359 1.400 . S
C1359 C1358 1.400 . S
C1359 C1360 1.398 . S
C1359 C1365 1.491 . S
C1360 H1351 0.950 . S
C1360 C1359 1.398 . S
C1360 C1361 1.391 . S
C1361 H1349 0.950 . S
C1361 C1357 1.393 . S
C1361 C1360 1.391 . S
C1362 H1352 0.950 . S
C1362 C1363 1.386 . S
C1362 C1364 1.391 . S
C1363 C1362 1.386 . S
C1363 C1367 1.393 . S
C1364 H1353 0.950 . S
C1364 C1362 1.391 . S
C1364 C1365 1.400 . S
C1365 C1359 1.491 . S
C1365 C1364 1.400 . S
C1365 C1366 1.398 . S
C1366 H1354 0.950 . S
C1366 C1365 1.398 . S
C1366 C1367 1.391 . S
C1367 H1355 0.950 . S
C1367 C1363 1.393 . S
C1367 C1366 1.391 . S
H1368 C1376 0.950 . S
H1369 C1381 0.950 . S
H1370 C1378 0.950 . S
H1371 C1380 0.950 . S
H1372 C1382 0.950 . S
H1373 C1384 0.950 . S
H1374 C1386 0.950 . S
H1375 C1387 0.950 . S
C1376 H1368 0.950 . S
C1376 C1377 1.386 . S
C1376 C1378 1.391 . S
C1377 C1376 1.386 . S
C1377 C1381 1.393 . S
C1378 H1370 0.950 . S
C1378 C1376 1.391 . S
C1378 C1379 1.400 . S
C1379 C1378 1.400 . S
C1379 C1380 1.398 . S
C1379 C1385 1.491 . S
C1380 H1371 0.950 . S
C1380 C1379 1.398 . S
C1380 C1381 1.391 . S
C1381 H1369 0.950 . S
C1381 C1377 1.393 . S
C1381 C1380 1.391 . S
C1382 H1372 0.950 . S
C1382 C1383 1.386 . S
C1382 C1384 1.391 . S
C1383 C1382 1.386 . S
C1383 C1387 1.393 . S
C1384 H1373 0.950 . S
C1384 C1382 1.391 . S
C1384 C1385 1.400 . S
C1385 C1379 1.491 . S
C1385 C1384 1.400 . S
C1385 C1386 1.398 . S
C1386 H1374 0.950 . S
C1386 C1385 1.398 . S
C1386 C1387 1.391 . S
C1387 H1375 0.950 . S
C1387 C1383 1.393 . S
C1387 C1386 1.391 . S
H1388 C1396 0.950 . S
H1389 C1401 0.950 . S
H1390 C1398 0.950 . S
H1391 C1400 0.950 . S
H1392 C1402 0.950 1_655 S
H1393 C1404 0.950 . S
H1394 C1406 0.950 . S
H1395 C1407 0.950 . S
C1396 H1388 0.950 . S
C1396 C1397 1.386 . S
C1396 C1398 1.391 . S
C1397 C1396 1.386 . S
C1397 C1401 1.393 . S
C1398 H1390 0.950 . S
C1398 C1396 1.391 . S
C1398 C1399 1.400 . S
C1399 C1398 1.400 . S
C1399 C1400 1.398 . S
C1399 C1405 1.491 . S
C1400 H1391 0.950 . S
C1400 C1399 1.398 . S
C1400 C1401 1.391 . S
C1401 H1389 0.950 . S
C1401 C1397 1.393 . S
C1401 C1400 1.391 . S
C1402 H1392 0.950 1_455 S
C1402 C1403 1.386 1_455 S
C1402 C1404 1.391 . S
C1403 C1402 1.386 1_655 S
C1403 C1407 1.393 1_655 S
C1404 H1393 0.950 . S
C1404 C1402 1.391 . S
C1404 C1405 1.400 . S
C1405 C1399 1.491 . S
C1405 C1404 1.400 . S
C1405 C1406 1.398 . S
C1406 H1394 0.950 . S
C1406 C1405 1.398 . S
C1406 C1407 1.391 . S
C1407 H1395 0.950 . S
C1407 C1403 1.393 1_455 S
C1407 C1406 1.391 . S
H1408 C1416 0.950 1_545 S
H1409 C1421 0.950 . S
H1410 C1418 0.950 . S
H1411 C1420 0.950 . S
H1412 C1422 0.950 . S
H1413 C1424 0.950 . S
H1414 C1426 0.950 . S
H1415 C1427 0.950 . S
C1416 H1408 0.950 1_565 S
C1416 C1417 1.386 1_565 S
C1416 C1418 1.391 . S
C1417 C1416 1.386 1_545 S
C1417 C1421 1.393 1_545 S
C1418 H1410 0.950 . S
C1418 C1416 1.391 . S
C1418 C1419 1.400 . S
C1419 C1418 1.400 . S
C1419 C1420 1.398 . S
C1419 C1425 1.491 . S
C1420 H1411 0.950 . S
C1420 C1419 1.398 . S
C1420 C1421 1.391 . S
C1421 H1409 0.950 . S
C1421 C1417 1.393 1_565 S
C1421 C1420 1.391 . S
C1422 H1412 0.950 . S
C1422 C1423 1.386 . S
C1422 C1424 1.391 . S
C1423 C1422 1.386 . S
C1423 C1427 1.393 . S
C1424 H1413 0.950 . S
C1424 C1422 1.391 . S
C1424 C1425 1.400 . S
C1425 C1419 1.491 . S
C1425 C1424 1.400 . S
C1425 C1426 1.398 . S
C1426 H1414 0.950 . S
C1426 C1425 1.398 . S
C1426 C1427 1.391 . S
C1427 H1415 0.950 . S
C1427 C1423 1.393 . S
C1427 C1426 1.391 . S
H1428 C1436 0.950 . S
H1429 C1441 0.950 . S
H1430 C1438 0.950 . S
H1431 C1440 0.950 . S
H1432 C1442 0.950 . S
H1433 C1444 0.950 . S
H1434 C1446 0.950 . S
H1435 C1447 0.950 . S
C1436 H1428 0.950 . S
C1436 C1437 1.386 . S
C1436 C1438 1.391 . S
C1437 C1436 1.386 . S
C1437 C1441 1.393 . S
C1438 H1430 0.950 . S
C1438 C1436 1.391 . S
C1438 C1439 1.400 . S
C1439 C1438 1.400 . S
C1439 C1440 1.398 . S
C1439 C1445 1.491 . S
C1440 H1431 0.950 . S
C1440 C1439 1.398 . S
C1440 C1441 1.391 . S
C1441 H1429 0.950 . S
C1441 C1437 1.393 . S
C1441 C1440 1.391 . S
C1442 H1432 0.950 . S
C1442 C1443 1.386 . S
C1442 C1444 1.391 . S
C1443 C1442 1.386 . S
C1443 C1447 1.393 . S
C1444 H1433 0.950 . S
C1444 C1442 1.391 . S
C1444 C1445 1.400 . S
C1445 C1439 1.491 . S
C1445 C1444 1.400 . S
C1445 C1446 1.398 . S
C1446 H1434 0.950 . S
C1446 C1445 1.398 . S
C1446 C1447 1.391 . S
C1447 H1435 0.950 . S
C1447 C1443 1.393 . S
C1447 C1446 1.391 . S
H1448 C1456 0.950 . S
H1449 C1461 0.950 . S
H1450 C1458 0.950 . S
H1451 C1460 0.950 . S
H1452 C1462 0.950 . S
H1453 C1464 0.950 . S
H1454 C1466 0.950 . S
H1455 C1467 0.950 . S
C1456 H1448 0.950 . S
C1456 C1457 1.386 . S
C1456 C1458 1.391 . S
C1457 C1456 1.386 . S
C1457 C1461 1.393 . S
C1458 H1450 0.950 . S
C1458 C1456 1.391 . S
C1458 C1459 1.400 . S
C1459 C1458 1.400 . S
C1459 C1460 1.398 . S
C1459 C1465 1.491 . S
C1460 H1451 0.950 . S
C1460 C1459 1.398 . S
C1460 C1461 1.391 . S
C1461 H1449 0.950 . S
C1461 C1457 1.393 . S
C1461 C1460 1.391 . S
C1462 H1452 0.950 . S
C1462 C1463 1.386 . S
C1462 C1464 1.391 . S
C1463 C1462 1.386 . S
C1463 C1467 1.393 . S
C1464 H1453 0.950 . S
C1464 C1462 1.391 . S
C1464 C1465 1.400 . S
C1465 C1459 1.491 . S
C1465 C1464 1.400 . S
C1465 C1466 1.398 . S
C1466 H1454 0.950 . S
C1466 C1465 1.398 . S
C1466 C1467 1.391 . S
C1467 H1455 0.950 . S
C1467 C1463 1.393 . S
C1467 C1466 1.391 . S
H1468 C1476 0.950 . S
H1469 C1481 0.950 . S
H1470 C1478 0.950 . S
H1471 C1480 0.950 . S
H1472 C1482 0.950 . S
H1473 C1484 0.950 . S
H1474 C1486 0.950 . S
H1475 C1487 0.950 1_565 S
C1476 H1468 0.950 . S
C1476 C1477 1.386 . S
C1476 C1478 1.391 . S
C1477 C1476 1.386 . S
C1477 C1481 1.393 . S
C1478 H1470 0.950 . S
C1478 C1476 1.391 . S
C1478 C1479 1.400 . S
C1479 C1478 1.400 . S
C1479 C1480 1.398 . S
C1479 C1485 1.491 . S
C1480 H1471 0.950 . S
C1480 C1479 1.398 . S
C1480 C1481 1.391 . S
C1481 H1469 0.950 . S
C1481 C1477 1.393 . S
C1481 C1480 1.391 . S
C1482 H1472 0.950 . S
C1482 C1483 1.386 1_545 S
C1482 C1484 1.391 . S
C1483 C1482 1.386 1_565 S
C1483 C1487 1.393 1_565 S
C1484 H1473 0.950 . S
C1484 C1482 1.391 . S
C1484 C1485 1.400 . S
C1485 C1479 1.491 . S
C1485 C1484 1.400 . S
C1485 C1486 1.398 . S
C1486 H1474 0.950 . S
C1486 C1485 1.398 . S
C1486 C1487 1.391 . S
C1487 H1475 0.950 1_545 S
C1487 C1483 1.393 1_545 S
C1487 C1486 1.391 . S
H1488 C1496 0.950 . S
H1489 C1501 0.950 . S
H1490 C1498 0.950 . S
H1491 C1500 0.950 . S
H1492 C1502 0.950 . S
H1493 C1504 0.950 . S
H1494 C1506 0.950 . S
H1495 C1507 0.950 . S
C1496 H1488 0.950 . S
C1496 C1497 1.386 . S
C1496 C1498 1.391 . S
C1497 C1496 1.386 . S
C1497 C1501 1.393 . S
C1498 H1490 0.950 . S
C1498 C1496 1.391 . S
C1498 C1499 1.400 . S
C1499 C1498 1.400 . S
C1499 C1500 1.398 . S
C1499 C1505 1.491 . S
C1500 H1491 0.950 . S
C1500 C1499 1.398 . S
C1500 C1501 1.391 . S
C1501 H1489 0.950 . S
C1501 C1497 1.393 . S
C1501 C1500 1.391 . S
C1502 H1492 0.950 . S
C1502 C1503 1.386 . S
C1502 C1504 1.391 . S
C1503 C1502 1.386 . S
C1503 C1507 1.393 . S
C1504 H1493 0.950 . S
C1504 C1502 1.391 . S
C1504 C1505 1.400 . S
C1505 C1499 1.491 . S
C1505 C1504 1.400 . S
C1505 C1506 1.398 . S
C1506 H1494 0.950 . S
C1506 C1505 1.398 . S
C1506 C1507 1.391 . S
C1507 H1495 0.950 . S
C1507 C1503 1.393 . S
C1507 C1506 1.391 . S
H1508 C1516 0.950 . S
H1509 C1521 0.950 . S
H1510 C1518 0.950 . S
H1511 C1520 0.950 . S
H1512 C1522 0.950 . S
H1513 C1524 0.950 . S
H1514 C1526 0.950 . S
H1515 C1527 0.950 . S
C1516 H1508 0.950 . S
C1516 C1517 1.386 . S
C1516 C1518 1.391 . S
C1517 C1516 1.386 . S
C1517 C1521 1.393 . S
C1518 H1510 0.950 . S
C1518 C1516 1.391 . S
C1518 C1519 1.400 . S
C1519 C1518 1.400 . S
C1519 C1520 1.398 . S
C1519 C1525 1.491 . S
C1520 H1511 0.950 . S
C1520 C1519 1.398 . S
C1520 C1521 1.391 . S
C1521 H1509 0.950 . S
C1521 C1517 1.393 . S
C1521 C1520 1.391 . S
C1522 H1512 0.950 . S
C1522 C1523 1.386 . S
C1522 C1524 1.391 . S
C1523 C1522 1.386 . S
C1523 C1527 1.393 . S
C1524 H1513 0.950 . S
C1524 C1522 1.391 . S
C1524 C1525 1.400 . S
C1525 C1519 1.491 . S
C1525 C1524 1.400 . S
C1525 C1526 1.398 . S
C1526 H1514 0.950 . S
C1526 C1525 1.398 . S
C1526 C1527 1.391 . S
C1527 H1515 0.950 . S
C1527 C1523 1.393 . S
C1527 C1526 1.391 . S
H1528 C1536 0.950 . S
H1529 C1541 0.950 . S
H1530 C1538 0.950 . S
H1531 C1540 0.950 . S
H1532 C1542 0.950 . S
H1533 C1544 0.950 . S
H1534 C1546 0.950 . S
H1535 C1547 0.950 . S
C1536 H1528 0.950 . S
C1536 C1537 1.386 . S
C1536 C1538 1.391 . S
C1537 C1536 1.386 . S
C1537 C1541 1.393 . S
C1538 H1530 0.950 . S
C1538 C1536 1.391 . S
C1538 C1539 1.400 . S
C1539 C1538 1.400 . S
C1539 C1540 1.398 . S
C1539 C1545 1.491 . S
C1540 H1531 0.950 . S
C1540 C1539 1.398 . S
C1540 C1541 1.391 . S
C1541 H1529 0.950 . S
C1541 C1537 1.393 . S
C1541 C1540 1.391 . S
C1542 H1532 0.950 . S
C1542 C1543 1.386 . S
C1542 C1544 1.391 . S
C1543 C1542 1.386 . S
C1543 C1547 1.393 . S
C1544 H1533 0.950 . S
C1544 C1542 1.391 . S
C1544 C1545 1.400 . S
C1545 C1539 1.491 . S
C1545 C1544 1.400 . S
C1545 C1546 1.398 . S
C1546 H1534 0.950 . S
C1546 C1545 1.398 . S
C1546 C1547 1.391 . S
C1547 H1535 0.950 . S
C1547 C1543 1.393 . S
C1547 C1546 1.391 . S
H1548 C1556 0.950 . S
H1549 C1561 0.950 . S
H1550 C1558 0.950 . S
H1551 C1560 0.950 . S
H1552 C1562 0.950 . S
H1553 C1564 0.950 . S
H1554 C1566 0.950 . S
H1555 C1567 0.950 . S
C1556 H1548 0.950 . S
C1556 C1557 1.386 . S
C1556 C1558 1.391 . S
C1557 C1556 1.386 . S
C1557 C1561 1.393 . S
C1558 H1550 0.950 . S
C1558 C1556 1.391 . S
C1558 C1559 1.400 . S
C1559 C1558 1.400 . S
C1559 C1560 1.398 . S
C1559 C1565 1.491 . S
C1560 H1551 0.950 . S
C1560 C1559 1.398 . S
C1560 C1561 1.391 . S
C1561 H1549 0.950 . S
C1561 C1557 1.393 . S
C1561 C1560 1.391 . S
C1562 H1552 0.950 . S
C1562 C1563 1.386 . S
C1562 C1564 1.391 . S
C1563 C1562 1.386 . S
C1563 C1567 1.393 . S
C1564 H1553 0.950 . S
C1564 C1562 1.391 . S
C1564 C1565 1.400 . S
C1565 C1559 1.491 . S
C1565 C1564 1.400 . S
C1565 C1566 1.398 . S
C1566 H1554 0.950 . S
C1566 C1565 1.398 . S
C1566 C1567 1.391 . S
C1567 H1555 0.950 . S
C1567 C1563 1.393 . S
C1567 C1566 1.391 . S
H1568 C1576 0.950 . S
H1569 C1581 0.950 . S
H1570 C1578 0.950 . S
H1571 C1580 0.950 . S
H1572 C1582 0.950 . S
H1573 C1584 0.950 . S
H1574 C1586 0.950 . S
H1575 C1587 0.950 . S
C1576 H1568 0.950 . S
C1576 C1577 1.386 . S
C1576 C1578 1.391 . S
C1577 C1576 1.386 . S
C1577 C1581 1.393 . S
C1578 H1570 0.950 . S
C1578 C1576 1.391 . S
C1578 C1579 1.400 . S
C1579 C1578 1.400 . S
C1579 C1580 1.398 . S
C1579 C1585 1.491 . S
C1580 H1571 0.950 . S
C1580 C1579 1.398 . S
C1580 C1581 1.391 . S
C1581 H1569 0.950 . S
C1581 C1577 1.393 . S
C1581 C1580 1.391 . S
C1582 H1572 0.950 . S
C1582 C1583 1.386 . S
C1582 C1584 1.391 . S
C1583 C1582 1.386 . S
C1583 C1587 1.393 . S
C1584 H1573 0.950 . S
C1584 C1582 1.391 . S
C1584 C1585 1.400 . S
C1585 C1579 1.491 . S
C1585 C1584 1.400 . S
C1585 C1586 1.398 . S
C1586 H1574 0.950 . S
C1586 C1585 1.398 . S
C1586 C1587 1.391 . S
C1587 H1575 0.950 . S
C1587 C1583 1.393 . S
C1587 C1586 1.391 . S
H1588 C1596 0.950 . S
H1589 C1601 0.950 . S
H1590 C1598 0.950 . S
H1591 C1600 0.950 . S
H1592 C1602 0.950 . S
H1593 C1604 0.950 . S
H1594 C1606 0.950 . S
H1595 C1607 0.950 . S
C1596 H1588 0.950 . S
C1596 C1597 1.386 . S
C1596 C1598 1.391 . S
C1597 C1596 1.386 . S
C1597 C1601 1.393 . S
C1598 H1590 0.950 . S
C1598 C1596 1.391 . S
C1598 C1599 1.400 . S
C1599 C1598 1.400 . S
C1599 C1600 1.398 . S
C1599 C1605 1.491 . S
C1600 H1591 0.950 . S
C1600 C1599 1.398 . S
C1600 C1601 1.391 . S
C1601 H1589 0.950 . S
C1601 C1597 1.393 . S
C1601 C1600 1.391 . S
C1602 H1592 0.950 . S
C1602 C1603 1.386 . S
C1602 C1604 1.391 . S
C1603 C1602 1.386 . S
C1603 C1607 1.393 . S
C1604 H1593 0.950 . S
C1604 C1602 1.391 . S
C1604 C1605 1.400 . S
C1605 C1599 1.491 . S
C1605 C1604 1.400 . S
C1605 C1606 1.398 . S
C1606 H1594 0.950 . S
C1606 C1605 1.398 . S
C1606 C1607 1.391 . S
C1607 H1595 0.950 . S
C1607 C1603 1.393 . S
C1607 C1606 1.391 . S
H1608 C1616 0.950 . S
H1609 C1621 0.950 . S
H1610 C1618 0.950 . S
H1611 C1620 0.950 . S
H1612 C1622 0.950 . S
H1613 C1624 0.950 . S
H1614 C1626 0.950 . S
H1615 C1627 0.950 . S
C1616 H1608 0.950 . S
C1616 C1617 1.386 . S
C1616 C1618 1.391 . S
C1617 C1616 1.386 . S
C1617 C1621 1.393 . S
C1618 H1610 0.950 . S
C1618 C1616 1.391 . S
C1618 C1619 1.400 . S
C1619 C1618 1.400 . S
C1619 C1620 1.398 . S
C1619 C1625 1.491 . S
C1620 H1611 0.950 . S
C1620 C1619 1.398 . S
C1620 C1621 1.391 . S
C1621 H1609 0.950 . S
C1621 C1617 1.393 . S
C1621 C1620 1.391 . S
C1622 H1612 0.950 . S
C1622 C1623 1.386 . S
C1622 C1624 1.391 . S
C1623 C1622 1.386 . S
C1623 C1627 1.393 . S
C1624 H1613 0.950 . S
C1624 C1622 1.391 . S
C1624 C1625 1.400 . S
C1625 C1619 1.491 . S
C1625 C1624 1.400 . S
C1625 C1626 1.398 . S
C1626 H1614 0.950 . S
C1626 C1625 1.398 . S
C1626 C1627 1.391 . S
C1627 H1615 0.950 . S
C1627 C1623 1.393 . S
C1627 C1626 1.391 . S
H1628 C1636 0.950 . S
H1629 C1641 0.950 . S
H1630 C1638 0.950 . S
H1631 C1640 0.950 . S
H1632 C1642 0.950 . S
H1633 C1644 0.950 . S
H1634 C1646 0.950 . S
H1635 C1647 0.950 . S
C1636 H1628 0.950 . S
C1636 C1637 1.386 . S
C1636 C1638 1.391 . S
C1637 C1636 1.386 . S
C1637 C1641 1.393 . S
C1638 H1630 0.950 . S
C1638 C1636 1.391 . S
C1638 C1639 1.400 . S
C1639 C1638 1.400 . S
C1639 C1640 1.398 . S
C1639 C1645 1.491 . S
C1640 H1631 0.950 . S
C1640 C1639 1.398 . S
C1640 C1641 1.391 . S
C1641 H1629 0.950 . S
C1641 C1637 1.393 . S
C1641 C1640 1.391 . S
C1642 H1632 0.950 . S
C1642 C1643 1.386 . S
C1642 C1644 1.391 . S
C1643 C1642 1.386 . S
C1643 C1647 1.393 . S
C1644 H1633 0.950 . S
C1644 C1642 1.391 . S
C1644 C1645 1.400 . S
C1645 C1639 1.491 . S
C1645 C1644 1.400 . S
C1645 C1646 1.398 . S
C1646 H1634 0.950 . S
C1646 C1645 1.398 . S
C1646 C1647 1.391 . S
C1647 H1635 0.950 . S
C1647 C1643 1.393 . S
C1647 C1646 1.391 . S
H1648 C1656 0.950 . S
H1649 C1661 0.950 . S
H1650 C1658 0.950 . S
H1651 C1660 0.950 . S
H1652 C1662 0.950 . S
H1653 C1664 0.950 . S
H1654 C1666 0.950 . S
H1655 C1667 0.950 . S
C1656 H1648 0.950 . S
C1656 C1657 1.386 . S
C1656 C1658 1.391 . S
C1657 C1656 1.386 . S
C1657 C1661 1.393 . S
C1658 H1650 0.950 . S
C1658 C1656 1.391 . S
C1658 C1659 1.400 . S
C1659 C1658 1.400 . S
C1659 C1660 1.398 . S
C1659 C1665 1.491 . S
C1660 H1651 0.950 . S
C1660 C1659 1.398 . S
C1660 C1661 1.391 . S
C1661 H1649 0.950 . S
C1661 C1657 1.393 . S
C1661 C1660 1.391 . S
C1662 H1652 0.950 . S
C1662 C1663 1.386 . S
C1662 C1664 1.391 . S
C1663 C1662 1.386 . S
C1663 C1667 1.393 . S
C1664 H1653 0.950 . S
C1664 C1662 1.391 . S
C1664 C1665 1.400 . S
C1665 C1659 1.491 . S
C1665 C1664 1.400 . S
C1665 C1666 1.398 . S
C1666 H1654 0.950 . S
C1666 C1665 1.398 . S
C1666 C1667 1.391 . S
C1667 H1655 0.950 . S
C1667 C1663 1.393 . S
C1667 C1666 1.391 . S
H1668 C1676 0.950 . S
H1669 C1681 0.950 . S
H1670 C1678 0.950 . S
H1671 C1680 0.950 . S
H1672 C1682 0.950 . S
H1673 C1684 0.950 . S
H1674 C1686 0.950 . S
H1675 C1687 0.950 . S
C1676 H1668 0.950 . S
C1676 C1677 1.386 . S
C1676 C1678 1.391 . S
C1677 C1676 1.386 . S
C1677 C1681 1.393 . S
C1678 H1670 0.950 . S
C1678 C1676 1.391 . S
C1678 C1679 1.400 . S
C1679 C1678 1.400 . S
C1679 C1680 1.398 . S
C1679 C1685 1.491 . S
C1680 H1671 0.950 . S
C1680 C1679 1.398 . S
C1680 C1681 1.391 . S
C1681 H1669 0.950 . S
C1681 C1677 1.393 . S
C1681 C1680 1.391 . S
C1682 H1672 0.950 . S
C1682 C1683 1.386 . S
C1682 C1684 1.391 . S
C1683 C1682 1.386 . S
C1683 C1687 1.393 . S
C1684 H1673 0.950 . S
C1684 C1682 1.391 . S
C1684 C1685 1.400 . S
C1685 C1679 1.491 . S
C1685 C1684 1.400 . S
C1685 C1686 1.398 . S
C1686 H1674 0.950 . S
C1686 C1685 1.398 . S
C1686 C1687 1.391 . S
C1687 H1675 0.950 . S
C1687 C1683 1.393 . S
C1687 C1686 1.391 . S
H1688 C1696 0.950 . S
H1689 C1701 0.950 . S
H1690 C1698 0.950 . S
H1691 C1700 0.950 . S
H1692 C1702 0.950 . S
H1693 C1704 0.950 . S
H1694 C1706 0.950 . S
H1695 C1707 0.950 . S
C1696 H1688 0.950 . S
C1696 C1697 1.386 . S
C1696 C1698 1.391 . S
C1697 C1696 1.386 . S
C1697 C1701 1.393 . S
C1698 H1690 0.950 . S
C1698 C1696 1.391 . S
C1698 C1699 1.400 . S
C1699 C1698 1.400 . S
C1699 C1700 1.398 . S
C1699 C1705 1.491 . S
C1700 H1691 0.950 . S
C1700 C1699 1.398 . S
C1700 C1701 1.391 . S
C1701 H1689 0.950 . S
C1701 C1697 1.393 . S
C1701 C1700 1.391 . S
C1702 H1692 0.950 . S
C1702 C1703 1.386 . S
C1702 C1704 1.391 . S
C1703 C1702 1.386 . S
C1703 C1707 1.393 . S
C1704 H1693 0.950 . S
C1704 C1702 1.391 . S
C1704 C1705 1.400 . S
C1705 C1699 1.491 . S
C1705 C1704 1.400 . S
C1705 C1706 1.398 . S
C1706 H1694 0.950 . S
C1706 C1705 1.398 . S
C1706 C1707 1.391 . S
C1707 H1695 0.950 . S
C1707 C1703 1.393 . S
C1707 C1706 1.391 . S
H1708 C1716 0.950 . S
H1709 C1721 0.950 . S
H1710 C1718 0.950 . S
H1711 C1720 0.950 . S
H1712 C1722 0.950 . S
H1713 C1724 0.950 . S
H1714 C1726 0.950 . S
H1715 C1727 0.950 . S
C1716 H1708 0.950 . S
C1716 C1717 1.386 . S
C1716 C1718 1.391 . S
C1717 C1716 1.386 . S
C1717 C1721 1.393 . S
C1718 H1710 0.950 . S
C1718 C1716 1.391 . S
C1718 C1719 1.400 . S
C1719 C1718 1.400 . S
C1719 C1720 1.398 . S
C1719 C1725 1.491 . S
C1720 H1711 0.950 . S
C1720 C1719 1.398 . S
C1720 C1721 1.391 . S
C1721 H1709 0.950 . S
C1721 C1717 1.393 . S
C1721 C1720 1.391 . S
C1722 H1712 0.950 . S
C1722 C1723 1.386 . S
C1722 C1724 1.391 . S
C1723 C1722 1.386 . S
C1723 C1727 1.393 . S
C1724 H1713 0.950 . S
C1724 C1722 1.391 . S
C1724 C1725 1.400 . S
C1725 C1719 1.491 . S
C1725 C1724 1.400 . S
C1725 C1726 1.398 . S
C1726 H1714 0.950 . S
C1726 C1725 1.398 . S
C1726 C1727 1.391 . S
C1727 H1715 0.950 . S
C1727 C1723 1.393 . S
C1727 C1726 1.391 . S
H1728 C1736 0.950 . S
H1729 C1741 0.950 . S
H1730 C1738 0.950 . S
H1731 C1740 0.950 . S
H1732 C1742 0.950 . S
H1733 C1744 0.950 . S
H1734 C1746 0.950 . S
H1735 C1747 0.950 . S
C1736 H1728 0.950 . S
C1736 C1737 1.386 . S
C1736 C1738 1.391 . S
C1737 C1736 1.386 . S
C1737 C1741 1.393 . S
C1738 H1730 0.950 . S
C1738 C1736 1.391 . S
C1738 C1739 1.400 . S
C1739 C1738 1.400 . S
C1739 C1740 1.398 . S
C1739 C1745 1.491 . S
C1740 H1731 0.950 . S
C1740 C1739 1.398 . S
C1740 C1741 1.391 . S
C1741 H1729 0.950 . S
C1741 C1737 1.393 . S
C1741 C1740 1.391 . S
C1742 H1732 0.950 . S
C1742 C1743 1.386 . S
C1742 C1744 1.391 . S
C1743 C1742 1.386 . S
C1743 C1747 1.393 . S
C1744 H1733 0.950 . S
C1744 C1742 1.391 . S
C1744 C1745 1.400 . S
C1745 C1739 1.491 . S
C1745 C1744 1.400 . S
C1745 C1746 1.398 . S
C1746 H1734 0.950 . S
C1746 C1745 1.398 . S
C1746 C1747 1.391 . S
C1747 H1735 0.950 . S
C1747 C1743 1.393 . S
C1747 C1746 1.391 . S
H1748 C1756 0.950 . S
H1749 C1761 0.950 . S
H1750 C1758 0.950 . S
H1751 C1760 0.950 . S
H1752 C1762 0.950 . S
H1753 C1764 0.950 . S
H1754 C1766 0.950 . S
H1755 C1767 0.950 . S
C1756 H1748 0.950 . S
C1756 C1757 1.386 . S
C1756 C1758 1.391 . S
C1757 C1756 1.386 . S
C1757 C1761 1.393 . S
C1758 H1750 0.950 . S
C1758 C1756 1.391 . S
C1758 C1759 1.400 . S
C1759 C1758 1.400 . S
C1759 C1760 1.398 . S
C1759 C1765 1.491 . S
C1760 H1751 0.950 . S
C1760 C1759 1.398 . S
C1760 C1761 1.391 . S
C1761 H1749 0.950 . S
C1761 C1757 1.393 . S
C1761 C1760 1.391 . S
C1762 H1752 0.950 . S
C1762 C1763 1.386 . S
C1762 C1764 1.391 . S
C1763 C1762 1.386 . S
C1763 C1767 1.393 . S
C1764 H1753 0.950 . S
C1764 C1762 1.391 . S
C1764 C1765 1.400 . S
C1765 C1759 1.491 . S
C1765 C1764 1.400 . S
C1765 C1766 1.398 . S
C1766 H1754 0.950 . S
C1766 C1765 1.398 . S
C1766 C1767 1.391 . S
C1767 H1755 0.950 . S
C1767 C1763 1.393 . S
C1767 C1766 1.391 . S
H1768 C1776 0.950 . S
H1769 C1781 0.950 . S
H1770 C1778 0.950 . S
H1771 C1780 0.950 . S
H1772 C1782 0.950 . S
H1773 C1784 0.950 . S
H1774 C1786 0.950 . S
H1775 C1787 0.950 . S
C1776 H1768 0.950 . S
C1776 C1777 1.386 . S
C1776 C1778 1.391 . S
C1777 C1776 1.386 . S
C1777 C1781 1.393 . S
C1778 H1770 0.950 . S
C1778 C1776 1.391 . S
C1778 C1779 1.400 . S
C1779 C1778 1.400 . S
C1779 C1780 1.398 . S
C1779 C1785 1.491 . S
C1780 H1771 0.950 . S
C1780 C1779 1.398 . S
C1780 C1781 1.391 . S
C1781 H1769 0.950 . S
C1781 C1777 1.393 . S
C1781 C1780 1.391 . S
C1782 H1772 0.950 . S
C1782 C1783 1.386 . S
C1782 C1784 1.391 . S
C1783 C1782 1.386 . S
C1783 C1787 1.393 . S
C1784 H1773 0.950 . S
C1784 C1782 1.391 . S
C1784 C1785 1.400 . S
C1785 C1779 1.491 . S
C1785 C1784 1.400 . S
C1785 C1786 1.398 . S
C1786 H1774 0.950 . S
C1786 C1785 1.398 . S
C1786 C1787 1.391 . S
C1787 H1775 0.950 . S
C1787 C1783 1.393 . S
C1787 C1786 1.391 . S
H1788 C1796 0.950 . S
H1789 C1801 0.950 . S
H1790 C1798 0.950 . S
H1791 C1800 0.950 . S
H1792 C1802 0.950 . S
H1793 C1804 0.950 . S
H1794 C1806 0.950 . S
H1795 C1807 0.950 . S
C1796 H1788 0.950 . S
C1796 C1797 1.386 . S
C1796 C1798 1.391 . S
C1797 C1796 1.386 . S
C1797 C1801 1.393 . S
C1798 H1790 0.950 . S
C1798 C1796 1.391 . S
C1798 C1799 1.400 . S
C1799 C1798 1.400 . S
C1799 C1800 1.398 . S
C1799 C1805 1.491 . S
C1800 H1791 0.950 . S
C1800 C1799 1.398 . S
C1800 C1801 1.391 . S
C1801 H1789 0.950 . S
C1801 C1797 1.393 . S
C1801 C1800 1.391 . S
C1802 H1792 0.950 . S
C1802 C1803 1.386 . S
C1802 C1804 1.391 . S
C1803 C1802 1.386 . S
C1803 C1807 1.393 . S
C1804 H1793 0.950 . S
C1804 C1802 1.391 . S
C1804 C1805 1.400 . S
C1805 C1799 1.491 . S
C1805 C1804 1.400 . S
C1805 C1806 1.398 . S
C1806 H1794 0.950 . S
C1806 C1805 1.398 . S
C1806 C1807 1.391 . S
C1807 H1795 0.950 . S
C1807 C1803 1.393 . S
C1807 C1806 1.391 . S
H1808 C1816 0.950 . S
H1809 C1821 0.950 . S
H1810 C1818 0.950 . S
H1811 C1820 0.950 . S
H1812 C1822 0.950 . S
H1813 C1824 0.950 . S
H1814 C1826 0.950 . S
H1815 C1827 0.950 . S
C1816 H1808 0.950 . S
C1816 C1817 1.386 . S
C1816 C1818 1.391 . S
C1817 C1816 1.386 . S
C1817 C1821 1.393 . S
C1818 H1810 0.950 . S
C1818 C1816 1.391 . S
C1818 C1819 1.400 . S
C1819 C1818 1.400 . S
C1819 C1820 1.398 . S
C1819 C1825 1.491 . S
C1820 H1811 0.950 . S
C1820 C1819 1.398 . S
C1820 C1821 1.391 . S
C1821 H1809 0.950 . S
C1821 C1817 1.393 . S
C1821 C1820 1.391 . S
C1822 H1812 0.950 . S
C1822 C1823 1.386 . S
C1822 C1824 1.391 . S
C1823 C1822 1.386 . S
C1823 C1827 1.393 . S
C1824 H1813 0.950 . S
C1824 C1822 1.391 . S
C1824 C1825 1.400 . S
C1825 C1819 1.491 . S
C1825 C1824 1.400 . S
C1825 C1826 1.398 . S
C1826 H1814 0.950 . S
C1826 C1825 1.398 . S
C1826 C1827 1.391 . S
C1827 H1815 0.950 . S
C1827 C1823 1.393 . S
C1827 C1826 1.391 . S
H1828 C1836 0.950 . S
H1829 C1841 0.950 . S
H1830 C1838 0.950 . S
H1831 C1840 0.950 . S
H1832 C1842 0.950 . S
H1833 C1844 0.950 . S
H1834 C1846 0.950 . S
H1835 C1847 0.950 . S
C1836 H1828 0.950 . S
C1836 C1837 1.386 . S
C1836 C1838 1.391 . S
C1837 C1836 1.386 . S
C1837 C1841 1.393 . S
C1838 H1830 0.950 . S
C1838 C1836 1.391 . S
C1838 C1839 1.400 . S
C1839 C1838 1.400 . S
C1839 C1840 1.398 . S
C1839 C1845 1.491 . S
C1840 H1831 0.950 . S
C1840 C1839 1.398 . S
C1840 C1841 1.391 . S
C1841 H1829 0.950 . S
C1841 C1837 1.393 . S
C1841 C1840 1.391 . S
C1842 H1832 0.950 . S
C1842 C1843 1.386 . S
C1842 C1844 1.391 . S
C1843 C1842 1.386 . S
C1843 C1847 1.393 . S
C1844 H1833 0.950 . S
C1844 C1842 1.391 . S
C1844 C1845 1.400 . S
C1845 C1839 1.491 . S
C1845 C1844 1.400 . S
C1845 C1846 1.398 . S
C1846 H1834 0.950 . S
C1846 C1845 1.398 . S
C1846 C1847 1.391 . S
C1847 H1835 0.950 . S
C1847 C1843 1.393 . S
C1847 C1846 1.391 . S
H1848 C1856 0.950 . S
H1849 C1861 0.950 . S
H1850 C1858 0.950 . S
H1851 C1860 0.950 . S
H1852 C1862 0.950 . S
H1853 C1864 0.950 . S
H1854 C1866 0.950 . S
H1855 C1867 0.950 . S
C1856 H1848 0.950 . S
C1856 C1857 1.386 . S
C1856 C1858 1.391 . S
C1857 C1856 1.386 . S
C1857 C1861 1.393 . S
C1858 H1850 0.950 . S
C1858 C1856 1.391 . S
C1858 C1859 1.400 . S
C1859 C1858 1.400 . S
C1859 C1860 1.398 . S
C1859 C1865 1.491 . S
C1860 H1851 0.950 . S
C1860 C1859 1.398 . S
C1860 C1861 1.391 . S
C1861 H1849 0.950 . S
C1861 C1857 1.393 . S
C1861 C1860 1.391 . S
C1862 H1852 0.950 . S
C1862 C1863 1.386 . S
C1862 C1864 1.391 . S
C1863 C1862 1.386 . S
C1863 C1867 1.393 . S
C1864 H1853 0.950 . S
C1864 C1862 1.391 . S
C1864 C1865 1.400 . S
C1865 C1859 1.491 . S
C1865 C1864 1.400 . S
C1865 C1866 1.398 . S
C1866 H1854 0.950 . S
C1866 C1865 1.398 . S
C1866 C1867 1.391 . S
C1867 H1855 0.950 . S
C1867 C1863 1.393 . S
C1867 C1866 1.391 . S
H1868 C1876 0.950 . S
H1869 C1881 0.950 . S
H1870 C1878 0.950 . S
H1871 C1880 0.950 . S
H1872 C1882 0.950 . S
H1873 C1884 0.950 . S
H1874 C1886 0.950 . S
H1875 C1887 0.950 . S
C1876 H1868 0.950 . S
C1876 C1877 1.386 . S
C1876 C1878 1.391 . S
C1877 C1876 1.386 . S
C1877 C1881 1.393 . S
C1878 H1870 0.950 . S
C1878 C1876 1.391 . S
C1878 C1879 1.400 . S
C1879 C1878 1.400 . S
C1879 C1880 1.398 . S
C1879 C1885 1.491 . S
C1880 H1871 0.950 . S
C1880 C1879 1.398 . S
C1880 C1881 1.391 . S
C1881 H1869 0.950 . S
C1881 C1877 1.393 . S
C1881 C1880 1.391 . S
C1882 H1872 0.950 . S
C1882 C1883 1.386 . S
C1882 C1884 1.391 . S
C1883 C1882 1.386 . S
C1883 C1887 1.393 . S
C1884 H1873 0.950 . S
C1884 C1882 1.391 . S
C1884 C1885 1.400 . S
C1885 C1879 1.491 . S
C1885 C1884 1.400 . S
C1885 C1886 1.398 . S
C1886 H1874 0.950 . S
C1886 C1885 1.398 . S
C1886 C1887 1.391 . S
C1887 H1875 0.950 . S
C1887 C1883 1.393 . S
C1887 C1886 1.391 . S
H1888 C1896 0.950 . S
H1889 C1901 0.950 . S
H1890 C1898 0.950 . S
H1891 C1900 0.950 . S
H1892 C1902 0.950 . S
H1893 C1904 0.950 . S
H1894 C1906 0.950 . S
H1895 C1907 0.950 . S
C1896 H1888 0.950 . S
C1896 C1897 1.386 . S
C1896 C1898 1.391 . S
C1897 C1896 1.386 . S
C1897 C1901 1.393 . S
C1898 H1890 0.950 . S
C1898 C1896 1.391 . S
C1898 C1899 1.400 . S
C1899 C1898 1.400 . S
C1899 C1900 1.398 . S
C1899 C1905 1.491 . S
C1900 H1891 0.950 . S
C1900 C1899 1.398 . S
C1900 C1901 1.391 . S
C1901 H1889 0.950 . S
C1901 C1897 1.393 . S
C1901 C1900 1.391 . S
C1902 H1892 0.950 . S
C1902 C1903 1.386 . S
C1902 C1904 1.391 . S
C1903 C1902 1.386 . S
C1903 C1907 1.393 . S
C1904 H1893 0.950 . S
C1904 C1902 1.391 . S
C1904 C1905 1.400 . S
C1905 C1899 1.491 . S
C1905 C1904 1.400 . S
C1905 C1906 1.398 . S
C1906 H1894 0.950 . S
C1906 C1905 1.398 . S
C1906 C1907 1.391 . S
C1907 H1895 0.950 . S
C1907 C1903 1.393 . S
C1907 C1906 1.391 . S
H1908 C1916 0.950 . S
H1909 C1921 0.950 . S
H1910 C1918 0.950 . S
H1911 C1920 0.950 . S
H1912 C1922 0.950 . S
H1913 C1924 0.950 . S
H1914 C1926 0.950 . S
H1915 C1927 0.950 . S
C1916 H1908 0.950 . S
C1916 C1917 1.386 . S
C1916 C1918 1.391 . S
C1917 C1916 1.386 . S
C1917 C1921 1.393 . S
C1918 H1910 0.950 . S
C1918 C1916 1.391 . S
C1918 C1919 1.400 . S
C1919 C1918 1.400 . S
C1919 C1920 1.398 . S
C1919 C1925 1.491 . S
C1920 H1911 0.950 . S
C1920 C1919 1.398 . S
C1920 C1921 1.391 . S
C1921 H1909 0.950 . S
C1921 C1917 1.393 . S
C1921 C1920 1.391 . S
C1922 H1912 0.950 . S
C1922 C1923 1.386 . S
C1922 C1924 1.391 . S
C1923 C1922 1.386 . S
C1923 C1927 1.393 . S
C1924 H1913 0.950 . S
C1924 C1922 1.391 . S
C1924 C1925 1.400 . S
C1925 C1919 1.491 . S
C1925 C1924 1.400 . S
C1925 C1926 1.398 . S
C1926 H1914 0.950 . S
C1926 C1925 1.398 . S
C1926 C1927 1.391 . S
C1927 H1915 0.950 . S
C1927 C1923 1.393 . S
C1927 C1926 1.391 . S
H1928 C1936 0.950 . S
H1929 C1941 0.950 . S
H1930 C1938 0.950 . S
H1931 C1940 0.950 . S
H1932 C1942 0.950 . S
H1933 C1944 0.950 . S
H1934 C1946 0.950 . S
H1935 C1947 0.950 . S
C1936 H1928 0.950 . S
C1936 C1937 1.386 . S
C1936 C1938 1.391 . S
C1937 C1936 1.386 . S
C1937 C1941 1.393 . S
C1938 H1930 0.950 . S
C1938 C1936 1.391 . S
C1938 C1939 1.400 . S
C1939 C1938 1.400 . S
C1939 C1940 1.398 . S
C1939 C1945 1.491 . S
C1940 H1931 0.950 . S
C1940 C1939 1.398 . S
C1940 C1941 1.391 . S
C1941 H1929 0.950 . S
C1941 C1937 1.393 . S
C1941 C1940 1.391 . S
C1942 H1932 0.950 . S
C1942 C1943 1.386 . S
C1942 C1944 1.391 . S
C1943 C1942 1.386 . S
C1943 C1947 1.393 . S
C1944 H1933 0.950 . S
C1944 C1942 1.391 . S
C1944 C1945 1.400 . S
C1945 C1939 1.491 . S
C1945 C1944 1.400 . S
C1945 C1946 1.398 . S
C1946 H1934 0.950 . S
C1946 C1945 1.398 . S
C1946 C1947 1.391 . S
C1947 H1935 0.950 . S
C1947 C1943 1.393 . S
C1947 C1946 1.391 . S
H1948 C1956 0.950 . S
H1949 C1961 0.950 . S
H1950 C1958 0.950 . S
H1951 C1960 0.950 . S
H1952 C1962 0.950 . S
H1953 C1964 0.950 . S
H1954 C1966 0.950 . S
H1955 C1967 0.950 . S
C1956 H1948 0.950 . S
C1956 C1957 1.386 . S
C1956 C1958 1.391 . S
C1957 C1956 1.386 . S
C1957 C1961 1.393 . S
C1958 H1950 0.950 . S
C1958 C1956 1.391 . S
C1958 C1959 1.400 . S
C1959 C1958 1.400 . S
C1959 C1960 1.398 . S
C1959 C1965 1.491 . S
C1960 H1951 0.950 . S
C1960 C1959 1.398 . S
C1960 C1961 1.391 . S
C1961 H1949 0.950 . S
C1961 C1957 1.393 . S
C1961 C1960 1.391 . S
C1962 H1952 0.950 . S
C1962 C1963 1.386 . S
C1962 C1964 1.391 . S
C1963 C1962 1.386 . S
C1963 C1967 1.393 . S
C1964 H1953 0.950 . S
C1964 C1962 1.391 . S
C1964 C1965 1.400 . S
C1965 C1959 1.491 . S
C1965 C1964 1.400 . S
C1965 C1966 1.398 . S
C1966 H1954 0.950 . S
C1966 C1965 1.398 . S
C1966 C1967 1.391 . S
C1967 H1955 0.950 . S
C1967 C1963 1.393 . S
C1967 C1966 1.391 . S
C537 C21 1.520 . S
C543 C406 1.506 . S
C557 C436 1.509 . S
C563 C43 1.522 . S
C577 C370 1.508 . S
C583 C51 1.518 . S
C597 C87 1.511 . S
C603 C392 1.519 . S
C617 C502 1.499 . S
C623 C95 1.527 . S
C637 C472 1.505 . S
C643 C125 1.521 . S
C657 C516 1.516 . S
C663 C139 1.512 . S
C677 C448 1.519 . S
C683 C161 1.511 . S
C697 C183 1.526 . S
C703 C296 1.503 . S
C717 C205 1.527 . S
C723 C348 1.502 . S
C737 C235 1.515 . S
C743 C318 1.511 . S
C757 C282 1.498 . S
C763 C249 1.528 . S
C777 C142 1.516 . S
C783 C279 1.509 . S
C797 C307 1.511 . S
C803 C164 1.511 . S
C817 C98 1.498 . S
C823 C329 1.527 . S
C837 C118 1.497 . S
C843 C345 1.525 . S
C857 C367 1.513 . S
C863 C228 1.518 . S
C877 C208 1.515 . S
C883 C389 1.509 . S
C897 C252 1.498 . S
C903 C417 1.524 . S
C917 C433 1.515 . S
C923 C186 1.516 . S
C937 C447 1.528 . S
C943 C40 1.499 . S
C957 C483 1.527 . S
C963 C84 1.500 . S
C977 C499 1.509 . S
C983 C54 1.516 . S
C997 C18 1.517 . S
C1003 C527 1.508 . S
C1017 C428 1.161 . S
C1023 C10 1.143 . S
C1037 C404 1.167 . S
C1043 C32 1.147 . S
C1057 C384 1.164 . S
C1063 C52 1.144 . S
C1077 C362 1.168 . S
C1083 C76 1.152 . S
C1097 C96 1.152 . S
C1103 C514 1.168 . S
C1117 C128 1.143 . S
C1123 C458 1.159 . S
C1137 C494 1.168 . S
C1143 C140 1.155 . S
C1157 C470 1.159 . S
C1163 C162 1.143 . S
C1177 C316 1.168 . S
C1183 C184 1.155 . S
C1197 C206 1.166 . S
C1203 C274 1.154 . S
C1217 C294 1.168 . S
C1223 C238 1.152 . S
C1237 C340 1.165 . S
C1243 C250 1.144 . S
C1257 C272 1.158 . S
C1263 C172 1.170 . S
C1277 C150 1.154 . S
C1283 C304 1.167 . S
C1297 C326 1.152 . S
C1303 C120 1.158 . S
C1317 C338 1.168 . S
C1323 C106 1.158 . S
C1337 C260 1.164 . S
C1343 C360 1.147 . S
C1357 C194 1.161 . S
C1363 C382 1.148 . S
C1377 C414 1.145 . S
C1383 C230 1.168 . S
C1397 C426 1.155 . S
C1403 C216 1.156 . S
C1417 C62 1.156 . S
C1423 C450 1.168 . S
C1437 C8 1.159 . S
C1443 C480 1.151 . S
C1457 C492 1.159 . S
C1463 C30 1.170 . S
C1477 C524 1.168 . S
C1483 C74 1.157 . S
C1497 C7 0.929 . S
C1503 C109 0.944 . S
C1517 C117 0.925 . S
C1523 C29 0.945 . S
C1537 C153 0.918 . S
C1543 C59 0.949 . S
C1557 C175 0.948 . S
C1563 C73 0.926 . S
C1577 C197 0.931 . S
C1583 C103 0.940 . S
C1597 C131 0.943 . S
C1603 C263 0.926 . S
C1617 C147 0.928 . S
C1623 C219 0.946 . S
C1637 C227 0.928 . S
C1643 C169 0.942 . S
C1657 C191 0.942 . S
C1663 C15 0.926 . S
C1677 C213 0.947 . S
C1683 C65 0.921 . S
C1697 C81 0.918 . S
C1703 C241 0.949 . S
C1717 C37 0.925 . S
C1723 C257 0.944 . S
C1737 C271 0.924 . S
C1743 C373 0.951 . S
C1757 C395 0.940 . S
C1763 C301 0.938 . S
C1777 C403 0.937 . S
C1783 C323 0.935 . S
C1797 C439 0.949 . S
C1803 C337 0.925 . S
C1817 C359 0.936 . S
C1823 C455 0.935 . S
C1837 C513 0.925 . S
C1843 C381 0.947 . S
C1857 C411 0.935 . S
C1863 C469 0.937 . S
C1877 C425 0.943 . S
C1883 C505 0.936 . S
C1897 C285 0.925 . S
C1903 C461 0.947 . S
C1917 C315 0.923 . S
C1923 C477 0.951 . S
C1937 C351 0.951 . S
C1943 C491 0.924 . S
C1957 C293 0.946 . S
C1963 C521 0.932 . S
